# generated using pymatgen
data_KCa2Mg2V3O12
_symmetry_space_group_name_H-M   'P 1'
_cell_length_a   11.03251205
_cell_length_b   11.03251205
_cell_length_c   11.03251205
_cell_angle_alpha   69.72590852
_cell_angle_beta   69.72590852
_cell_angle_gamma   107.87714301
_symmetry_Int_Tables_number   1
_chemical_formula_structural   KCa2Mg2V3O12
_chemical_formula_sum   'K4 Ca8 Mg8 V12 O48'
_cell_volume   1033.11817519
_cell_formula_units_Z   4
loop_
 _symmetry_equiv_pos_site_id
 _symmetry_equiv_pos_as_xyz
  1  'x, y, z'
loop_
 _atom_site_type_symbol
 _atom_site_label
 _atom_site_symmetry_multiplicity
 _atom_site_fract_x
 _atom_site_fract_y
 _atom_site_fract_z
 _atom_site_occupancy
  K  K0  1  0.62500000  0.37500000  0.75000000  1
  K  K1  1  0.87500000  0.12500000  0.25000000  1
  K  K2  1  0.37500000  0.62500000  0.25000000  1
  K  K3  1  0.12500000  0.87500000  0.75000000  1
  Ca  Ca0  1  0.62727573  0.25000000  0.12272427  1
  Ca  Ca1  1  0.87272427  0.75000000  0.37727573  1
  Ca  Ca2  1  0.75000000  0.37272427  0.37727573  1
  Ca  Ca3  1  0.25000000  0.12727573  0.12272427  1
  Ca  Ca4  1  0.37272427  0.75000000  0.87727573  1
  Ca  Ca5  1  0.12727573  0.25000000  0.62272427  1
  Ca  Ca6  1  0.25000000  0.62727573  0.62272427  1
  Ca  Ca7  1  0.75000000  0.87272427  0.87727573  1
  Mg  Mg0  1  0.50000000  0.50000000  0.50000000  1
  Mg  Mg1  1  0.50000000  -0.00000000  -0.00000000  1
  Mg  Mg2  1  0.00000000  -0.00000000  0.50000000  1
  Mg  Mg3  1  0.00000000  0.50000000  -0.00000000  1
  Mg  Mg4  1  0.50000000  -0.00000000  0.50000000  1
  Mg  Mg5  1  0.50000000  0.50000000  -0.00000000  1
  Mg  Mg6  1  0.00000000  -0.00000000  -0.00000000  1
  Mg  Mg7  1  0.00000000  0.50000000  0.50000000  1
  V  V0  1  0.37500000  0.12500000  0.75000000  1
  V  V1  1  0.12500000  0.37500000  0.25000000  1
  V  V2  1  0.87603555  0.25000000  0.87396445  1
  V  V3  1  0.62396445  0.75000000  0.62603555  1
  V  V4  1  0.75000000  0.62396445  0.12603555  1
  V  V5  1  0.25000000  0.87603555  0.37396445  1
  V  V6  1  0.62500000  0.87500000  0.25000000  1
  V  V7  1  0.87500000  0.62500000  0.75000000  1
  V  V8  1  0.12396445  0.75000000  0.12603555  1
  V  V9  1  0.37603555  0.25000000  0.37396445  1
  V  V10  1  0.25000000  0.37603555  0.87396445  1
  V  V11  1  0.75000000  0.12396445  0.62603555  1
  O  O0  1  0.51002044  0.30245045  0.59746283  1
  O  O1  1  0.39991328  0.10748327  0.90253717  1
  O  O2  1  0.10008672  0.19754955  0.29243002  1
  O  O3  1  0.98997956  0.39251673  0.20756998  1
  O  O4  1  0.69417384  0.19863669  0.91853297  1
  O  O5  1  0.88283034  0.30136331  0.00446286  1
  O  O6  1  0.80582616  0.88729319  0.49553714  1
  O  O7  1  0.61716966  0.61270681  0.58146703  1
  O  O8  1  0.79741615  0.48594919  0.12079961  1
  O  O9  1  0.70258385  0.58178423  0.31146696  1
  O  O10  1  0.10674881  0.91821577  0.37920039  1
  O  O11  1  0.39325119  0.01405081  0.18853304  1
  O  O12  1  0.48997956  0.69754955  0.40253717  1
  O  O13  1  0.60008672  0.89251673  0.09746283  1
  O  O14  1  0.89991328  0.80245045  0.70756998  1
  O  O15  1  0.01002044  0.60748327  0.79243002  1
  O  O16  1  0.30582616  0.80136331  0.08146703  1
  O  O17  1  0.11716966  0.69863669  0.99553714  1
  O  O18  1  0.19417384  0.11270681  0.50446286  1
  O  O19  1  0.38283034  0.38729319  0.41853297  1
  O  O20  1  0.20258385  0.51405081  0.87920039  1
  O  O21  1  0.29741615  0.41821577  0.68853304  1
  O  O22  1  0.89325119  0.08178423  0.62079961  1
  O  O23  1  0.60674881  0.98594919  0.81146696  1
  O  O24  1  0.48594919  0.79741615  0.62079961  1
  O  O25  1  0.58178423  0.70258385  0.81146696  1
  O  O26  1  0.91821577  0.10674881  0.87920039  1
  O  O27  1  0.01405081  0.39325119  0.68853304  1
  O  O28  1  0.30245045  0.51002044  0.09746283  1
  O  O29  1  0.10748327  0.39991328  0.40253717  1
  O  O30  1  0.19754955  0.10008672  0.79243002  1
  O  O31  1  0.39251673  0.98997956  0.70756998  1
  O  O32  1  0.19863669  0.69417384  0.41853297  1
  O  O33  1  0.30136331  0.88283034  0.50446286  1
  O  O34  1  0.88729319  0.80582616  0.99553714  1
  O  O35  1  0.61270681  0.61716966  0.08146703  1
  O  O36  1  0.51405081  0.20258385  0.37920039  1
  O  O37  1  0.41821577  0.29741615  0.18853304  1
  O  O38  1  0.08178423  0.89325119  0.12079961  1
  O  O39  1  0.98594919  0.60674881  0.31146696  1
  O  O40  1  0.69754955  0.48997956  0.90253717  1
  O  O41  1  0.89251673  0.60008672  0.59746283  1
  O  O42  1  0.80245045  0.89991328  0.20756998  1
  O  O43  1  0.60748327  0.01002044  0.29243002  1
  O  O44  1  0.80136331  0.30582616  0.58146703  1
  O  O45  1  0.69863669  0.11716966  0.49553714  1
  O  O46  1  0.11270681  0.19417384  0.00446286  1
  O  O47  1  0.38729319  0.38283034  0.91853297  1
loop_
_geom_bond_atom_site_label_1
_geom_bond_atom_site_label_2
_geom_bond_distance
_geom_bond_site_symmetry_2
K0 O40 2.621329 1_555
K0 O41 2.621329 1_555
K0 O1 2.621329 1_555
K0 O0 2.621329 1_555
K0 O47 2.685755 1_555
K0 O44 2.685755 1_555
K0 O4 2.685755 1_555
K0 O7 2.685755 1_555
K1 O43 2.621329 1_555
K1 O3 2.621329 1_555
K1 O42 2.621329 1_545
K1 O2 2.621329 1_655
K1 O5 2.685755 1_555
K1 O45 2.685755 1_555
K1 O46 2.685755 1_655
K1 O6 2.685755 1_545
K2 O13 2.621329 1_555
K2 O12 2.621329 1_555
K2 O29 2.621329 1_555
K2 O28 2.621329 1_555
K2 O19 2.685755 1_555
K2 O16 2.685755 1_555
K2 O32 2.685755 1_555
K2 O35 2.685755 1_555
K3 O31 2.621329 1_555
K3 O15 2.621329 1_555
K3 O30 2.621329 1_565
K3 O14 2.621329 1_455
K3 O17 2.685755 1_555
K3 O33 2.685755 1_555
K3 O18 2.685755 1_565
K3 O34 2.685755 1_455
Ca0 O5 2.435136 1_555
Ca0 O4 2.435136 1_554
Ca0 O37 2.442128 1_555
Ca0 O36 2.442128 1_555
Ca0 O40 2.547389 1_554
Ca0 O43 2.547389 1_555
Ca0 O8 2.689648 1_555
Ca0 O11 2.689648 1_555
Ca1 O6 2.435136 1_555
Ca1 O7 2.435136 1_555
Ca1 O39 2.442128 1_555
Ca1 O38 2.442128 1_655
Ca1 O41 2.547389 1_555
Ca1 O42 2.547389 1_555
Ca1 O9 2.689648 1_555
Ca1 O10 2.689648 1_655
Ca2 O45 2.435136 1_555
Ca2 O44 2.435136 1_555
Ca2 O9 2.442128 1_555
Ca2 O8 2.442128 1_555
Ca2 O0 2.547389 1_555
Ca2 O3 2.547389 1_555
Ca2 O36 2.689648 1_555
Ca2 O39 2.689648 1_555
Ca3 O46 2.435136 1_555
Ca3 O47 2.435136 1_554
Ca3 O11 2.442128 1_555
Ca3 O10 2.442128 1_545
Ca3 O1 2.547389 1_554
Ca3 O2 2.547389 1_555
Ca3 O37 2.689648 1_555
Ca3 O38 2.689648 1_545
Ca4 O17 2.435136 1_555
Ca4 O16 2.435136 1_556
Ca4 O25 2.442128 1_555
Ca4 O24 2.442128 1_555
Ca4 O28 2.547389 1_556
Ca4 O31 2.547389 1_555
Ca4 O20 2.689648 1_555
Ca4 O23 2.689648 1_555
Ca5 O18 2.435136 1_555
Ca5 O19 2.435136 1_555
Ca5 O27 2.442128 1_555
Ca5 O26 2.442128 1_455
Ca5 O29 2.547389 1_555
Ca5 O30 2.547389 1_555
Ca5 O21 2.689648 1_555
Ca5 O22 2.689648 1_455
Ca6 O33 2.435136 1_555
Ca6 O32 2.435136 1_555
Ca6 O21 2.442128 1_555
Ca6 O20 2.442128 1_555
Ca6 O12 2.547389 1_555
Ca6 O15 2.547389 1_555
Ca6 O24 2.689648 1_555
Ca6 O27 2.689648 1_555
Ca7 O34 2.435136 1_555
Ca7 O35 2.435136 1_556
Ca7 O23 2.442128 1_555
Ca7 O22 2.442128 1_565
Ca7 O13 2.547389 1_556
Ca7 O14 2.547389 1_555
Ca7 O25 2.689648 1_555
Ca7 O26 2.689648 1_565
Mg0 O9 2.091719 1_555
Mg0 O21 2.091719 1_555
Mg0 O12 2.127133 1_555
Mg0 O0 2.127133 1_555
Mg0 O19 2.148910 1_555
Mg0 O7 2.148910 1_555
Mg1 O23 2.091719 1_544
Mg1 O11 2.091719 1_555
Mg1 O13 2.127133 1_545
Mg1 O1 2.127133 1_554
Mg1 O16 2.148910 1_545
Mg1 O4 2.148910 1_554
Mg2 O22 2.091719 1_455
Mg2 O10 2.091719 1_545
Mg2 O2 2.127133 1_555
Mg2 O14 2.127133 1_445
Mg2 O18 2.148910 1_555
Mg2 O6 2.148910 1_445
Mg3 O20 2.091719 1_554
Mg3 O8 2.091719 1_455
Mg3 O3 2.127133 1_455
Mg3 O15 2.127133 1_554
Mg3 O5 2.148910 1_455
Mg3 O17 2.148910 1_554
Mg4 O24 2.091719 1_545
Mg4 O36 2.091719 1_555
Mg4 O43 2.127133 1_555
Mg4 O31 2.127133 1_545
Mg4 O45 2.148910 1_555
Mg4 O33 2.148910 1_545
Mg5 O37 2.091719 1_555
Mg5 O25 2.091719 1_554
Mg5 O40 2.127133 1_554
Mg5 O28 2.127133 1_555
Mg5 O47 2.148910 1_554
Mg5 O35 2.148910 1_555
Mg6 O26 2.091719 1_454
Mg6 O38 2.091719 1_545
Mg6 O42 2.127133 1_445
Mg6 O30 2.127133 1_554
Mg6 O34 2.148910 1_444
Mg6 O46 2.148910 1_555
Mg7 O39 2.091719 1_455
Mg7 O27 2.091719 1_555
Mg7 O41 2.127133 1_455
Mg7 O29 2.127133 1_555
Mg7 O44 2.148910 1_455
Mg7 O32 2.148910 1_555
O0 V0 1.752917 1_555
O1 V0 1.752917 1_555
O2 V1 1.752917 1_555
O3 V1 1.752918 1_655
O4 V2 1.735988 1_555
O5 V2 1.735988 1_554
O6 V3 1.735988 1_555
O7 V3 1.735988 1_555
O8 V4 1.767630 1_555
O9 V4 1.767630 1_555
O10 V5 1.767630 1_555
O11 V5 1.767630 1_545
O12 V6 1.752917 1_555
O13 V6 1.752917 1_555
O14 V7 1.752917 1_555
O15 V7 1.752918 1_455
O16 V8 1.735988 1_555
O17 V8 1.735988 1_556
O18 V9 1.735988 1_555
O19 V9 1.735988 1_555
O20 V10 1.767630 1_555
O21 V10 1.767630 1_555
O22 V11 1.767630 1_555
O23 V11 1.767630 1_565
O24 V3 1.767630 1_555
O25 V3 1.767630 1_555
O26 V2 1.767630 1_555
O27 V2 1.767630 1_455
O28 V1 1.752917 1_555
O29 V1 1.752917 1_555
O30 V0 1.752917 1_555
O31 V0 1.752918 1_565
O32 V5 1.735988 1_555
O33 V5 1.735988 1_555
O34 V4 1.735988 1_556
O35 V4 1.735988 1_555
O36 V9 1.767630 1_555
O37 V9 1.767630 1_555
O38 V8 1.767630 1_555
O39 V8 1.767630 1_655
O40 V7 1.752917 1_555
O41 V7 1.752917 1_555
O42 V6 1.752917 1_555
O43 V6 1.752918 1_545
O44 V11 1.735988 1_555
O45 V11 1.735988 1_555
O46 V10 1.735988 1_554
O47 V10 1.735988 1_555
