# generated using pymatgen
data_UB4Mo
_symmetry_space_group_name_H-M   'P 1'
_cell_length_a   3.67742700
_cell_length_b   5.93441400
_cell_length_c   11.52655800
_cell_angle_alpha   90.00000000
_cell_angle_beta   90.00000000
_cell_angle_gamma   90.00000000
_symmetry_Int_Tables_number   1
_chemical_formula_structural   UB4Mo
_chemical_formula_sum   'U4 B16 Mo4'
_cell_volume   251.54838931
_cell_formula_units_Z   4
loop_
 _symmetry_equiv_pos_site_id
 _symmetry_equiv_pos_as_xyz
  1  'x, y, z'
loop_
 _atom_site_type_symbol
 _atom_site_label
 _atom_site_symmetry_multiplicity
 _atom_site_fract_x
 _atom_site_fract_y
 _atom_site_fract_z
 _atom_site_occupancy
  U  U0  1  0.00000000  0.12841000  0.65033100  1
  U  U1  1  0.00000000  0.87159000  0.34966900  1
  U  U2  1  0.00000000  0.62841000  0.84966900  1
  U  U3  1  0.00000000  0.37159000  0.15033100  1
  B  B0  1  0.50000000  0.47638700  0.69335800  1
  B  B1  1  0.50000000  0.52361300  0.30664200  1
  B  B2  1  0.50000000  0.97638700  0.80664200  1
  B  B3  1  0.50000000  0.02361300  0.19335800  1
  B  B4  1  0.50000000  0.29228900  0.81218100  1
  B  B5  1  0.50000000  0.70771100  0.18781900  1
  B  B6  1  0.50000000  0.79228900  0.68781900  1
  B  B7  1  0.50000000  0.20771100  0.31218100  1
  B  B8  1  0.50000000  0.36749100  0.96806300  1
  B  B9  1  0.50000000  0.63250900  0.03193700  1
  B  B10  1  0.50000000  0.86749100  0.53193700  1
  B  B11  1  0.50000000  0.13250900  0.46806300  1
  B  B12  1  0.50000000  0.38545500  0.54716200  1
  B  B13  1  0.50000000  0.61454500  0.45283800  1
  B  B14  1  0.50000000  0.88545500  0.95283800  1
  B  B15  1  0.50000000  0.11454500  0.04716200  1
  Mo  Mo0  1  0.00000000  0.13775600  0.90822200  1
  Mo  Mo1  1  0.00000000  0.86224400  0.09177800  1
  Mo  Mo2  1  0.00000000  0.63775600  0.59177800  1
  Mo  Mo3  1  0.00000000  0.36224400  0.40822200  1
loop_
_geom_bond_atom_site_label_1
_geom_bond_atom_site_label_2
_geom_bond_distance
_geom_bond_site_symmetry_2
B0 B4 1.751983 1_555
B0 B12 1.769430 1_555
B0 B6 1.875780 1_555
B0 Mo2 2.380936 1_555
B0 Mo2 2.380936 1_655
B0 U2 2.727819 1_655
B0 U2 2.727819 1_555
B0 U0 2.809132 1_655
B0 U0 2.809132 1_555
B1 B5 1.751983 1_555
B1 B13 1.769430 1_555
B1 B7 1.875780 1_555
B1 Mo3 2.380936 1_555
B1 Mo3 2.380936 1_655
B1 U3 2.727819 1_555
B1 U3 2.727819 1_655
B1 U1 2.809132 1_555
B1 U1 2.809132 1_655
B2 B6 1.751983 1_555
B2 B4 1.875780 1_565
B2 Mo0 2.380936 1_665
B2 Mo0 2.380936 1_565
B2 U0 2.727819 1_565
B2 U0 2.727819 1_665
B2 U2 2.809132 1_655
B2 U2 2.809132 1_555
B3 B7 1.751983 1_555
B3 B5 1.875780 1_545
B3 Mo1 2.380936 1_545
B3 Mo1 2.380936 1_645
B3 U1 2.727819 1_645
B3 U1 2.727819 1_545
B3 U3 2.809132 1_555
B3 U3 2.809132 1_655
B4 B8 1.851376 1_555
B4 Mo0 2.333960 1_555
B4 Mo0 2.333960 1_655
B4 U2 2.747060 1_555
B4 U2 2.747060 1_655
B4 U0 2.794108 1_555
B4 U0 2.794108 1_655
B5 B9 1.851376 1_555
B5 Mo1 2.333960 1_555
B5 Mo1 2.333960 1_655
B5 U3 2.747060 1_555
B5 U3 2.747060 1_655
B5 U1 2.794108 1_655
B5 U1 2.794108 1_555
B6 Mo2 2.333960 1_655
B6 Mo2 2.333960 1_555
B6 U0 2.747060 1_565
B6 U0 2.747060 1_665
B6 U2 2.794108 1_655
B6 U2 2.794108 1_555
B7 Mo3 2.333960 1_655
B7 Mo3 2.333960 1_555
B7 U1 2.747060 1_645
B7 U1 2.747060 1_545
B7 U3 2.794108 1_555
B7 U3 2.794108 1_655
B8 B9 1.736528 1_556
B8 Mo0 2.390678 1_555
B8 Mo0 2.390678 1_655
B8 U2 2.764191 1_555
B8 U2 2.764191 1_655
B8 U3 2.792013 1_656
B8 U3 2.792013 1_556
B9 Mo1 2.390678 1_655
B9 Mo1 2.390678 1_555
B9 U3 2.764191 1_655
B9 U3 2.764191 1_555
B9 U2 2.792013 1_554
B9 U2 2.792013 1_654
B10 B11 1.736528 1_565
B10 B13 1.756283 1_555
B10 B6 1.851376 1_555
B10 Mo2 2.390678 1_655
B10 Mo2 2.390678 1_555
B10 U0 2.764191 1_565
B10 U0 2.764191 1_665
B10 U1 2.792013 1_555
B10 U1 2.792013 1_655
B11 B12 1.756283 1_555
B11 B7 1.851376 1_555
B11 Mo3 2.390678 1_555
B11 Mo3 2.390678 1_655
B11 U1 2.764191 1_645
B11 U1 2.764191 1_545
B11 U0 2.792013 1_655
B11 U0 2.792013 1_555
B12 B13 1.740791 1_555
B12 Mo2 2.426339 1_655
B12 Mo2 2.426339 1_555
B12 Mo3 2.442262 1_555
B12 Mo3 2.442262 1_655
B12 U0 2.668690 1_655
B12 U0 2.668690 1_555
B13 Mo3 2.426339 1_655
B13 Mo3 2.426339 1_555
B13 Mo2 2.442262 1_655
B13 Mo2 2.442262 1_555
B13 U1 2.668690 1_655
B13 U1 2.668690 1_555
B14 B15 1.740791 1_566
B14 B9 1.756283 1_556
B14 B2 1.769430 1_555
B14 Mo0 2.426339 1_665
B14 Mo0 2.426339 1_565
B14 Mo1 2.442262 1_556
B14 Mo1 2.442262 1_656
B14 U2 2.668690 1_555
B14 U2 2.668690 1_655
B15 B8 1.756283 1_554
B15 B3 1.769430 1_555
B15 Mo1 2.426339 1_645
B15 Mo1 2.426339 1_545
B15 Mo0 2.442262 1_654
B15 Mo0 2.442262 1_554
B15 U3 2.668690 1_555
B15 U3 2.668690 1_655
Mo0 Mo1 2.673894 1_546
Mo0 U0 2.973113 1_555
Mo0 U2 2.988940 1_555
Mo0 U2 3.097102 1_545
Mo0 U3 3.116655 1_556
Mo1 U1 2.973113 1_555
Mo1 U3 2.988940 1_555
Mo1 U3 3.097102 1_565
Mo1 U2 3.116655 1_554
Mo2 Mo3 2.673894 1_555
Mo2 U2 2.973113 1_555
Mo2 U0 2.988940 1_565
Mo2 U0 3.097102 1_555
Mo2 U1 3.116655 1_555
Mo3 U3 2.973113 1_555
Mo3 U1 2.988940 1_545
Mo3 U1 3.097102 1_555
Mo3 U0 3.116655 1_555
