# generated using pymatgen
data_Cu2NiSn3S8
_symmetry_space_group_name_H-M   'P 1'
_cell_length_a   7.31010844
_cell_length_b   7.31010844
_cell_length_c   7.31010790
_cell_angle_alpha   60.60525327
_cell_angle_beta   60.60525327
_cell_angle_gamma   60.60525370
_symmetry_Int_Tables_number   1
_chemical_formula_structural   Cu2NiSn3S8
_chemical_formula_sum   'Cu2 Ni1 Sn3 S8'
_cell_volume   279.99655601
_cell_formula_units_Z   1
loop_
 _symmetry_equiv_pos_site_id
 _symmetry_equiv_pos_as_xyz
  1  'x, y, z'
loop_
 _atom_site_type_symbol
 _atom_site_label
 _atom_site_symmetry_multiplicity
 _atom_site_fract_x
 _atom_site_fract_y
 _atom_site_fract_z
 _atom_site_occupancy
  Cu  Cu0  1  0.38228700  0.38228700  0.38228700  1
  Cu  Cu1  1  0.61771300  0.61771300  0.61771300  1
  Ni  Ni0  1  0.00000000  0.00000000  0.00000000  1
  Sn  Sn0  1  0.00000000  0.50000000  0.00000000  1
  Sn  Sn1  1  0.00000000  0.00000000  0.50000000  1
  Sn  Sn2  1  0.50000000  0.00000000  0.00000000  1
  S  S0  1  0.76371900  0.23288100  0.76371900  1
  S  S1  1  0.74881000  0.74881000  0.74881000  1
  S  S2  1  0.76711900  0.23628100  0.23628100  1
  S  S3  1  0.23628100  0.23628100  0.76711900  1
  S  S4  1  0.23628100  0.76711900  0.23628100  1
  S  S5  1  0.25119000  0.25119000  0.25119000  1
  S  S6  1  0.23288100  0.76371900  0.76371900  1
  S  S7  1  0.76371900  0.76371900  0.23288100  1
loop_
_geom_bond_atom_site_label_1
_geom_bond_atom_site_label_2
_geom_bond_distance
_geom_bond_site_symmetry_2
Cu0 S3 2.327147 1_555
Cu0 S4 2.327147 1_555
Cu0 S2 2.327147 1_555
Cu0 S5 2.336633 1_555
Cu1 S7 2.327147 1_555
Cu1 S0 2.327147 1_555
Cu1 S6 2.327147 1_555
Cu1 S1 2.336633 1_555
Ni0 S2 2.453672 1_455
Ni0 S4 2.453672 1_545
Ni0 S0 2.453672 1_454
Ni0 S6 2.453672 1_544
Ni0 S3 2.453672 1_554
Ni0 S7 2.453672 1_445
S0 Sn1 2.581558 1_655
S0 Sn2 2.581558 1_556
S1 Sn2 2.608536 1_566
S1 Sn0 2.608536 1_656
S1 Sn1 2.608536 1_665
S2 Sn1 2.581558 1_655
S2 Sn0 2.581558 1_655
S3 Sn0 2.581558 1_556
S3 Sn2 2.581558 1_556
S4 Sn1 2.581558 1_565
S4 Sn2 2.581558 1_565
S5 Sn0 2.608536 1_555
S5 Sn2 2.608536 1_555
S5 Sn1 2.608536 1_555
S6 Sn1 2.581558 1_565
S6 Sn0 2.581558 1_556
S7 Sn2 2.581558 1_565
S7 Sn0 2.581558 1_655
