# generated using pymatgen
data_Li3MnN2
_symmetry_space_group_name_H-M   'P 1'
_cell_length_a   8.22294460
_cell_length_b   9.49503907
_cell_length_c   9.49503837
_cell_angle_alpha   90.00000292
_cell_angle_beta   125.26439292
_cell_angle_gamma   54.73561004
_symmetry_Int_Tables_number   1
_chemical_formula_structural   Li3MnN2
_chemical_formula_sum   'Li24 Mn8 N16'
_cell_volume   428.01619495
_cell_formula_units_Z   8
loop_
 _symmetry_equiv_pos_site_id
 _symmetry_equiv_pos_as_xyz
  1  'x, y, z'
loop_
 _atom_site_type_symbol
 _atom_site_label
 _atom_site_symmetry_multiplicity
 _atom_site_fract_x
 _atom_site_fract_y
 _atom_site_fract_z
 _atom_site_occupancy
  Li  Li0  1  0.21867930  0.04110010  0.98021442  1
  Li  Li1  1  0.78132070  0.75977939  0.51978558  1
  Li  Li2  1  0.78132070  0.45889990  0.76153512  1
  Li  Li3  1  0.21867930  0.74022061  0.73846488  1
  Li  Li4  1  0.25825046  0.76153512  0.27956498  1
  Li  Li5  1  0.74174954  0.73846488  0.02131451  1
  Li  Li6  1  0.25825046  0.98021442  0.47868549  1
  Li  Li7  1  0.74174954  0.51978558  0.22043502  1
  Li  Li8  1  0.69911951  0.02131451  0.74022061  1
  Li  Li9  1  0.69911951  0.27956498  0.45889990  1
  Li  Li10  1  0.30088049  0.22043502  0.75977939  1
  Li  Li11  1  0.30088049  0.47868549  0.04110010  1
  Li  Li12  1  0.78132070  0.95889990  0.01978558  1
  Li  Li13  1  0.21867930  0.24022061  0.48021442  1
  Li  Li14  1  0.21867930  0.54110010  0.23846488  1
  Li  Li15  1  0.78132070  0.25977939  0.26153512  1
  Li  Li16  1  0.74174954  0.23846488  0.72043502  1
  Li  Li17  1  0.25825046  0.26153512  0.97868549  1
  Li  Li18  1  0.74174954  0.01978558  0.52131451  1
  Li  Li19  1  0.25825046  0.48021442  0.77956498  1
  Li  Li20  1  0.30088049  0.97868549  0.25977939  1
  Li  Li21  1  0.30088049  0.72043502  0.54110010  1
  Li  Li22  1  0.69911951  0.77956498  0.24022061  1
  Li  Li23  1  0.69911951  0.52131451  0.95889990  1
  Mn  Mn0  1  0.22670934  0.00000000  0.72670934  1
  Mn  Mn1  1  0.77329066  0.72670934  0.77329066  1
  Mn  Mn2  1  0.77329066  0.50000000  0.50000000  1
  Mn  Mn3  1  0.22670934  0.77329066  0.00000000  1
  Mn  Mn4  1  0.77329066  1.00000000  0.27329066  1
  Mn  Mn5  1  0.22670934  0.27329066  0.22670934  1
  Mn  Mn6  1  0.22670934  0.50000000  0.50000000  1
  Mn  Mn7  1  0.77329066  0.22670934  1.00000000  1
  N  N0  1  -0.00000000  0.00000000  0.50000000  1
  N  N1  1  -0.00000000  0.50000000  -0.00000000  1
  N  N2  1  -0.00000000  0.50000000  0.50000000  1
  N  N3  1  -0.00000000  0.00000000  -0.00000000  1
  N  N4  1  0.50000000  0.96580528  0.75000000  1
  N  N5  1  0.50000000  0.53419472  0.25000000  1
  N  N6  1  1.00000000  0.25000000  0.71580528  1
  N  N7  1  0.00000000  0.75000000  0.78419472  1
  N  N8  1  0.56839045  0.71580528  0.53419472  1
  N  N9  1  0.43160955  0.78419472  0.96580528  1
  N  N10  1  0.50000000  0.03419472  0.25000000  1
  N  N11  1  0.50000000  0.46580528  0.75000000  1
  N  N12  1  0.00000000  0.75000000  0.28419472  1
  N  N13  1  1.00000000  0.25000000  0.21580528  1
  N  N14  1  0.43160955  0.28419472  0.46580528  1
  N  N15  1  0.56839045  0.21580528  0.03419472  1
loop_
_geom_bond_atom_site_label_1
_geom_bond_atom_site_label_2
_geom_bond_distance
_geom_bond_site_symmetry_2
Li0 N6 2.034553 1_455
Li0 N9 2.092739 1_545
Li0 N3 2.149753 1_556
Li0 N10 2.213567 1_556
Li1 N7 2.034553 1_655
Li1 N8 2.092733 1_555
Li1 N2 2.149753 1_655
Li1 N10 2.213567 1_565
Li2 N6 2.034553 1_555
Li2 N8 2.092745 1_555
Li2 N1 2.149753 1_656
Li2 N11 2.213567 1_555
Li3 N7 2.034553 1_555
Li3 N9 2.092738 1_555
Li3 N0 2.149753 1_565
Li3 N11 2.213567 1_555
Li4 N8 2.034557 1_555
Li4 N5 2.092741 1_555
Li4 N3 2.149753 1_565
Li4 N12 2.213567 1_555
Li5 N9 2.034561 1_554
Li5 N4 2.092741 1_554
Li5 N1 2.149753 1_655
Li5 N12 2.213567 1_655
Li6 N8 2.034557 1_555
Li6 N4 2.092741 1_555
Li6 N0 2.149753 1_565
Li6 N13 2.213567 1_465
Li7 N9 2.034552 1_554
Li7 N5 2.092741 1_555
Li7 N2 2.149753 1_655
Li7 N13 2.213567 1_555
Li8 N4 2.034545 1_545
Li8 N7 2.092744 1_645
Li8 N3 2.149757 1_656
Li8 N14 2.213567 1_555
Li9 N5 2.034557 1_555
Li9 N6 2.092744 1_555
Li9 N0 2.149756 1_655
Li9 N14 2.213567 1_555
Li10 N4 2.034552 1_545
Li10 N6 2.092749 1_455
Li10 N2 2.149751 1_555
Li10 N15 2.213567 1_556
Li11 N5 2.034550 1_555
Li11 N7 2.092739 1_554
Li11 N1 2.149761 1_555
Li11 N15 2.213567 1_555
Li12 N12 2.034553 1_655
Li12 N15 2.092739 1_565
Li12 N3 2.149753 1_665
Li12 N4 2.213567 1_554
Li13 N13 2.034553 1_455
Li13 N14 2.092733 1_555
Li13 N2 2.149753 1_555
Li13 N4 2.213567 1_545
Li14 N12 2.034553 1_555
Li14 N14 2.092745 1_555
Li14 N1 2.149753 1_555
Li14 N5 2.213567 1_555
Li15 N13 2.034553 1_555
Li15 N15 2.092738 1_555
Li15 N0 2.149753 1_655
Li15 N5 2.213567 1_555
Li16 N14 2.034557 1_555
Li16 N11 2.092741 1_555
Li16 N3 2.149753 1_656
Li16 N6 2.213567 1_555
Li17 N15 2.034561 1_556
Li17 N10 2.092741 1_556
Li17 N1 2.149753 1_556
Li17 N6 2.213567 1_455
Li18 N14 2.034557 1_555
Li18 N10 2.092741 1_555
Li18 N0 2.149753 1_655
Li18 N7 2.213567 1_645
Li19 N15 2.034552 1_556
Li19 N11 2.092741 1_555
Li19 N2 2.149753 1_555
Li19 N7 2.213567 1_555
Li20 N10 2.034545 1_565
Li20 N13 2.092744 1_465
Li20 N3 2.149757 1_565
Li20 N8 2.213567 1_555
Li21 N11 2.034557 1_555
Li21 N12 2.092744 1_555
Li21 N0 2.149756 1_565
Li21 N8 2.213567 1_555
Li22 N10 2.034552 1_565
Li22 N12 2.092749 1_655
Li22 N2 2.149751 1_655
Li22 N9 2.213567 1_554
Li23 N11 2.034550 1_555
Li23 N13 2.092739 1_556
Li23 N1 2.149761 1_656
Li23 N9 2.213567 1_555
Mn0 N0 1.864218 1_555
Mn0 N4 1.946306 1_545
Mn0 N6 1.946306 1_455
Mn0 N9 1.946309 1_545
Mn1 N1 1.864218 1_656
Mn1 N8 1.946304 1_555
Mn1 N7 1.946306 1_655
Mn1 N4 1.946306 1_555
Mn2 N2 1.864218 1_655
Mn2 N8 1.946303 1_555
Mn2 N5 1.946306 1_555
Mn2 N6 1.946306 1_555
Mn3 N3 1.864218 1_565
Mn3 N9 1.946298 1_554
Mn3 N7 1.946306 1_554
Mn3 N5 1.946306 1_555
Mn4 N0 1.864218 1_665
Mn4 N10 1.946306 1_565
Mn4 N12 1.946306 1_655
Mn4 N15 1.946309 1_565
Mn5 N1 1.864218 1_555
Mn5 N14 1.946304 1_555
Mn5 N13 1.946306 1_455
Mn5 N10 1.946306 1_555
Mn6 N2 1.864218 1_555
Mn6 N14 1.946303 1_555
Mn6 N11 1.946306 1_555
Mn6 N12 1.946306 1_555
Mn7 N3 1.864218 1_656
Mn7 N15 1.946298 1_556
Mn7 N13 1.946306 1_556
Mn7 N11 1.946306 1_555
