# generated using pymatgen
data_Sr2AlGaSn2O7
_symmetry_space_group_name_H-M   'P 1'
_cell_length_a   5.75289800
_cell_length_b   6.58520377
_cell_length_c   12.19799930
_cell_angle_alpha   105.53447328
_cell_angle_beta   103.54403811
_cell_angle_gamma   89.88282780
_symmetry_Int_Tables_number   1
_chemical_formula_structural   Sr2AlGaSn2O7
_chemical_formula_sum   'Sr4 Al2 Ga2 Sn4 O14'
_cell_volume   431.93718560
_cell_formula_units_Z   2
loop_
 _symmetry_equiv_pos_site_id
 _symmetry_equiv_pos_as_xyz
  1  'x, y, z'
loop_
 _atom_site_type_symbol
 _atom_site_label
 _atom_site_symmetry_multiplicity
 _atom_site_fract_x
 _atom_site_fract_y
 _atom_site_fract_z
 _atom_site_occupancy
  Sr  Sr0  1  0.15176700  0.22858200  0.32159200  1
  Sr  Sr1  1  0.83156000  0.79319400  0.67463300  1
  Sr  Sr2  1  0.65908000  0.62075700  0.32697500  1
  Sr  Sr3  1  0.32921600  0.40593100  0.67894400  1
  Al  Al0  1  0.54300700  0.29601000  0.06492300  1
  Al  Al1  1  0.98139200  0.73108600  0.93838100  1
  Ga  Ga0  1  0.21040900  0.84690700  0.49912500  1
  Ga  Ga1  1  0.69964800  0.15686800  0.50059300  1
  Sn  Sn0  1  0.42840800  0.00002000  0.84896600  1
  Sn  Sn1  1  0.08381500  0.65289400  0.15755500  1
  Sn  Sn2  1  0.90143300  0.32533700  0.80742700  1
  Sn  Sn3  1  0.59784600  0.02178900  0.19431900  1
  O  O0  1  0.82979900  0.40768300  0.14448600  1
  O  O1  1  0.87262600  0.91343300  0.50082800  1
  O  O2  1  0.33623500  0.41926100  0.14098700  1
  O  O3  1  0.83087400  0.38741600  0.63552700  1
  O  O4  1  0.61216400  0.12420000  0.74743600  1
  O  O5  1  0.13344800  0.11780100  0.75279400  1
  O  O6  1  0.36682700  0.11261400  0.50024400  1
  O  O7  1  0.18981100  0.76185300  0.85769400  1
  O  O8  1  0.70010900  0.78498300  0.86345400  1
  O  O9  1  0.33030000  0.74275700  0.62860300  1
  O  O10  1  0.19570200  0.61765100  0.36543600  1
  O  O11  1  0.69924500  0.25499900  0.36662000  1
  O  O12  1  0.88300200  0.87020600  0.24995100  1
  O  O13  1  0.36872800  0.88095800  0.25417000  1
loop_
_geom_bond_atom_site_label_1
_geom_bond_atom_site_label_2
_geom_bond_distance
_geom_bond_site_symmetry_2
Al0 O2 1.744779 1_555
Al0 O0 1.754278 1_555
Al1 O8 1.748862 1_555
Al1 O7 1.762928 1_655
Al1 Sn1 2.785339 1_656
Ga0 O9 1.873117 1_555
Ga0 O10 1.887553 1_555
Ga0 O6 1.964534 1_565
Ga0 O1 1.994756 1_455
Ga1 O1 1.885395 1_545
Ga1 O11 1.911044 1_555
Ga1 O3 1.915242 1_555
Ga1 O6 1.936173 1_555
O0 Sn1 2.128617 1_655
O0 Sr2 2.689574 1_555
O0 Sr0 2.995081 1_655
O1 Sr1 2.512367 1_555
O1 Sr2 2.514199 1_555
O2 Sn1 2.116222 1_555
O2 Sr2 2.604067 1_555
O2 Sr0 3.184080 1_555
O3 Sn2 2.188244 1_555
O3 Sr1 2.585393 1_555
O3 Sr3 2.787509 1_655
O3 Sr3 3.050267 1_555
O4 Sn2 1.994662 1_555
O4 Sn0 2.116424 1_555
O4 Sr1 2.570966 1_545
O4 Sr3 2.640175 1_555
O5 Sn2 2.003695 1_455
O5 Sn0 2.099224 1_555
O5 Sr1 2.577317 1_445
O5 Sr3 2.660722 1_555
O6 Sr0 2.547059 1_555
O6 Sr3 2.548164 1_555
O7 Sn0 2.126484 1_565
O7 Sr1 2.714033 1_455
O7 Sr3 2.994125 1_555
O8 Sn0 2.115480 1_565
O8 Sr1 2.600461 1_555
O8 Sr3 3.257631 1_555
O9 Sr3 2.455266 1_555
O9 Sn0 2.695931 1_565
O9 Sr1 2.808369 1_555
O9 Sr1 3.051008 1_455
O10 Sr0 2.473791 1_555
O10 Sn1 2.539338 1_555
O10 Sr2 2.813889 1_555
O10 Sr2 3.012874 1_455
O11 Sn3 2.194668 1_555
O11 Sr2 2.580279 1_555
O11 Sr0 2.779546 1_655
O11 Sr0 3.064738 1_555
O12 Sn3 1.995690 1_565
O12 Sn1 2.095692 1_655
O12 Sr2 2.577361 1_555
O12 Sr0 2.645983 1_665
O13 Sn3 1.987162 1_565
O13 Sn1 2.118551 1_555
O13 Sr2 2.573589 1_555
O13 Sr0 2.633490 1_565
