# generated using pymatgen
data_Ti6Zn2C
_symmetry_space_group_name_H-M   'P 1'
_cell_length_a   3.52585700
_cell_length_b   3.52585700
_cell_length_c   13.91055900
_cell_angle_alpha   90.00000000
_cell_angle_beta   90.00000000
_cell_angle_gamma   90.00000000
_symmetry_Int_Tables_number   1
_chemical_formula_structural   Ti6Zn2C
_chemical_formula_sum   'Ti6 Zn2 C1'
_cell_volume   172.93144540
_cell_formula_units_Z   1
loop_
 _symmetry_equiv_pos_site_id
 _symmetry_equiv_pos_as_xyz
  1  'x, y, z'
loop_
 _atom_site_type_symbol
 _atom_site_label
 _atom_site_symmetry_multiplicity
 _atom_site_fract_x
 _atom_site_fract_y
 _atom_site_fract_z
 _atom_site_occupancy
  Ti  Ti0  1  0.50000000  0.50000000  0.00000000  1
  Ti  Ti1  1  0.50000000  0.50000000  0.50000000  1
  Ti  Ti2  1  0.50000000  0.00000000  0.14186900  1
  Ti  Ti3  1  0.50000000  0.00000000  0.85813100  1
  Ti  Ti4  1  0.00000000  0.50000000  0.14186900  1
  Ti  Ti5  1  0.00000000  0.50000000  0.85813100  1
  Zn  Zn0  1  0.50000000  0.50000000  0.30703600  1
  Zn  Zn1  1  0.50000000  0.50000000  0.69296400  1
  C  C0  1  0.00000000  0.00000000  0.00000000  1
loop_
_geom_bond_atom_site_label_1
_geom_bond_atom_site_label_2
_geom_bond_distance
_geom_bond_site_symmetry_2
Ti0 Ti2 2.646229 1_565
Ti0 Ti5 2.646229 1_654
Ti0 Ti4 2.646229 1_555
Ti0 Ti5 2.646229 1_554
Ti0 Ti2 2.646229 1_555
Ti0 Ti3 2.646229 1_554
Ti0 Ti3 2.646229 1_564
Ti0 Ti4 2.646229 1_655
Ti1 Zn1 2.684237 1_555
Ti1 Zn0 2.684237 1_555
Ti2 Ti4 2.493157 1_645
Ti2 Ti4 2.493157 1_555
Ti2 Ti4 2.493157 1_545
Ti2 Ti4 2.493157 1_655
Ti2 Zn0 2.895984 1_555
Ti2 Zn0 2.895984 1_545
Ti3 Ti5 2.493157 1_655
Ti3 Ti5 2.493157 1_545
Ti3 Ti5 2.493157 1_645
Ti3 Ti5 2.493157 1_555
Ti3 Zn1 2.895984 1_555
Ti3 Zn1 2.895984 1_545
Ti4 Zn0 2.895984 1_455
Ti4 Zn0 2.895984 1_555
Ti5 Zn1 2.895984 1_555
Ti5 Zn1 2.895984 1_455
C0 Ti0 2.493157 1_555
C0 Ti0 2.493157 1_545
C0 Ti0 2.493157 1_445
C0 Ti0 2.493157 1_455
C0 Ti5 2.646229 1_544
C0 Ti4 2.646229 1_555
C0 Ti5 2.646229 1_554
C0 Ti2 2.646229 1_555
C0 Ti2 2.646229 1_455
C0 Ti3 2.646229 1_554
C0 Ti4 2.646229 1_545
C0 Ti3 2.646229 1_454
