# generated using pymatgen
data_PrAlCu
_symmetry_space_group_name_H-M   'P 1'
_cell_length_a   7.27740773
_cell_length_b   7.27741179
_cell_length_c   4.07708158
_cell_angle_alpha   90.00000000
_cell_angle_beta   90.00000000
_cell_angle_gamma   120.00001290
_symmetry_Int_Tables_number   1
_chemical_formula_structural   PrAlCu
_chemical_formula_sum   'Pr3 Al3 Cu3'
_cell_volume   186.99656738
_cell_formula_units_Z   3
loop_
 _symmetry_equiv_pos_site_id
 _symmetry_equiv_pos_as_xyz
  1  'x, y, z'
loop_
 _atom_site_type_symbol
 _atom_site_label
 _atom_site_symmetry_multiplicity
 _atom_site_fract_x
 _atom_site_fract_y
 _atom_site_fract_z
 _atom_site_occupancy
  Pr  Pr0  1  0.41985125  0.41985125  0.50000000  1
  Pr  Pr1  1  0.58014875  -0.00000000  0.50000000  1
  Pr  Pr2  1  0.00000000  0.58014875  0.50000000  1
  Al  Al0  1  0.77630045  0.77630045  -0.00000000  1
  Al  Al1  1  0.22369955  -0.00000000  -0.00000000  1
  Al  Al2  1  0.00000000  0.22369955  0.00000000  1
  Cu  Cu0  1  0.66666700  0.33333300  0.00000000  1
  Cu  Cu1  1  0.33333300  0.66666700  0.00000000  1
  Cu  Cu2  1  -0.00000000  0.00000000  0.50000000  1
loop_
_geom_bond_atom_site_label_1
_geom_bond_atom_site_label_2
_geom_bond_distance
_geom_bond_site_symmetry_2
Al0 Cu2 2.608808 1_665
Al0 Cu2 2.608808 1_664
Al0 Al1 2.819697 1_665
Al0 Al2 2.819698 1_665
Al0 Cu1 2.908010 1_555
Al0 Cu0 2.908012 1_555
Al0 Pr0 3.299185 1_554
Al0 Pr0 3.299185 1_555
Al0 Pr2 3.341771 1_654
Al0 Pr2 3.341771 1_655
Al0 Pr1 3.341771 1_565
Al0 Pr1 3.341771 1_564
Al1 Cu2 2.608808 1_555
Al1 Cu2 2.608808 1_554
Al1 Al2 2.819698 1_555
Al1 Cu1 2.908005 1_545
Al1 Cu0 2.908008 1_555
Al1 Pr1 3.299185 1_554
Al1 Pr1 3.299185 1_555
Al1 Pr2 3.341771 1_545
Al1 Pr2 3.341771 1_544
Al1 Pr0 3.341771 1_554
Al1 Pr0 3.341771 1_555
Al2 Cu2 2.608809 1_555
Al2 Cu2 2.608809 1_554
Al2 Cu0 2.908004 1_455
Al2 Cu1 2.908009 1_555
Al2 Pr2 3.299186 1_554
Al2 Pr2 3.299186 1_555
Al2 Pr0 3.341770 1_555
Al2 Pr0 3.341770 1_554
Al2 Pr1 3.341770 1_454
Al2 Pr1 3.341770 1_455
Cu0 Pr1 2.984835 1_555
Cu0 Pr1 2.984835 1_554
Cu0 Pr2 2.984835 1_655
Cu0 Pr2 2.984835 1_654
Cu0 Pr0 2.984839 1_555
Cu0 Pr0 2.984839 1_554
Cu1 Pr2 2.984834 1_555
Cu1 Pr2 2.984834 1_554
Cu1 Pr1 2.984836 1_565
Cu1 Pr1 2.984836 1_564
Cu1 Pr0 2.984840 1_554
Cu1 Pr0 2.984840 1_555
Cu2 Pr1 3.055429 1_455
Cu2 Pr0 3.055429 1_555
Cu2 Pr2 3.055430 1_545
