# generated using pymatgen
data_Te2Mo2W(SeS)2
_symmetry_space_group_name_H-M   'P 1'
_cell_length_a   3.34608199
_cell_length_b   3.34608199
_cell_length_c   30.94477000
_cell_angle_alpha   90.00000000
_cell_angle_beta   90.00000000
_cell_angle_gamma   119.99999974
_symmetry_Int_Tables_number   1
_chemical_formula_structural   Te2Mo2W(SeS)2
_chemical_formula_sum   'Te2 Mo2 W1 Se2 S2'
_cell_volume   300.04821531
_cell_formula_units_Z   1
loop_
 _symmetry_equiv_pos_site_id
 _symmetry_equiv_pos_as_xyz
  1  'x, y, z'
loop_
 _atom_site_type_symbol
 _atom_site_label
 _atom_site_symmetry_multiplicity
 _atom_site_fract_x
 _atom_site_fract_y
 _atom_site_fract_z
 _atom_site_occupancy
  Te  Te0  1  0.66666700  0.33333300  0.51711300  1
  Te  Te1  1  0.66666700  0.33333300  0.63952300  1
  Mo  Mo0  1  0.33333300  0.66666700  0.11565200  1
  Mo  Mo1  1  0.33333300  0.66666700  0.57832300  1
  W  W0  1  0.66666700  0.33333300  0.34696500  1
  Se  Se0  1  0.66666700  0.33333300  0.06183300  1
  Se  Se1  1  0.66666700  0.33333300  0.16947400  1
  S  S0  1  0.33333300  0.66666700  0.39615500  1
  S  S1  1  0.33333300  0.66666700  0.29780200  1
loop_
_geom_bond_atom_site_label_1
_geom_bond_atom_site_label_2
_geom_bond_distance
_geom_bond_site_symmetry_2
Mo0 Se0 2.550626 1_455
Mo0 Se0 2.550626 1_565
Mo0 Se0 2.550630 1_555
Mo0 Se1 2.550687 1_455
Mo0 Se1 2.550687 1_565
Mo0 Se1 2.550691 1_555
Mo1 Te1 2.705298 1_455
Mo1 Te1 2.705298 1_565
Mo1 Te1 2.705302 1_555
Mo1 Te0 2.705514 1_565
Mo1 Te0 2.705514 1_455
Mo1 Te0 2.705518 1_555
S0 W0 2.459490 1_455
S0 W0 2.459490 1_565
S0 W0 2.459495 1_555
S1 W0 2.458973 1_455
S1 W0 2.458973 1_565
S1 W0 2.458978 1_555
