# generated using pymatgen
data_MgGaCu
_symmetry_space_group_name_H-M   'P 1'
_cell_length_a   5.08642450
_cell_length_b   5.08642450
_cell_length_c   8.20373918
_cell_angle_alpha   90.00000000
_cell_angle_beta   90.00000000
_cell_angle_gamma   119.15410391
_symmetry_Int_Tables_number   1
_chemical_formula_structural   MgGaCu
_chemical_formula_sum   'Mg4 Ga4 Cu4'
_cell_volume   185.35605223
_cell_formula_units_Z   4
loop_
 _symmetry_equiv_pos_site_id
 _symmetry_equiv_pos_as_xyz
  1  'x, y, z'
loop_
 _atom_site_type_symbol
 _atom_site_label
 _atom_site_symmetry_multiplicity
 _atom_site_fract_x
 _atom_site_fract_y
 _atom_site_fract_z
 _atom_site_occupancy
  Mg  Mg0  1  0.66833985  0.33166015  0.32049930  1
  Mg  Mg1  1  0.33743289  0.66256711  0.20280657  1
  Mg  Mg2  1  0.33743289  0.66256711  0.79719343  1
  Mg  Mg3  1  0.66833985  0.33166015  0.67950070  1
  Ga  Ga0  1  0.16244075  0.83755925  0.50000000  1
  Ga  Ga1  1  0.33712086  0.16578527  -0.00000000  1
  Ga  Ga2  1  0.83421473  0.66287914  -0.00000000  1
  Ga  Ga3  1  0.83228571  0.16771429  -0.00000000  1
  Cu  Cu0  1  0.99945004  0.00054996  0.24896842  1
  Cu  Cu1  1  0.99945004  0.00054996  0.75103158  1
  Cu  Cu2  1  0.65925055  0.83537316  0.50000000  1
  Cu  Cu3  1  0.16462684  0.34074945  0.50000000  1
loop_
_geom_bond_atom_site_label_1
_geom_bond_atom_site_label_2
_geom_bond_distance
_geom_bond_site_symmetry_2
Mg0 Mg3 2.945154 1_555
Mg0 Mg1 3.059133 1_555
Mg0 Mg1 3.125134 1_545
Mg0 Mg1 3.125134 1_655
Mg1 Mg2 3.327544 1_554
Mg2 Mg3 3.059133 1_555
Mg2 Mg3 3.125134 1_455
Mg2 Mg3 3.125134 1_565
Ga0 Mg2 2.881098 1_555
Ga0 Mg1 2.881098 1_555
Ga0 Mg3 2.967353 1_455
Ga0 Mg0 2.967353 1_455
Ga0 Mg0 2.967353 1_565
Ga0 Mg3 2.967353 1_565
Ga1 Ga3 2.513853 1_555
Ga1 Ga2 2.560689 1_555
Ga1 Ga3 2.572600 1_455
Ga1 Ga2 2.590630 1_445
Ga1 Mg0 3.013038 1_555
Ga1 Mg3 3.013038 1_554
Ga1 Mg2 3.024760 1_554
Ga1 Mg1 3.024760 1_555
Ga1 Mg1 3.053450 1_545
Ga1 Mg2 3.053450 1_544
Ga2 Ga3 2.513853 1_555
Ga2 Ga3 2.572600 1_565
Ga2 Mg0 3.013038 1_555
Ga2 Mg3 3.013038 1_554
Ga2 Mg2 3.024760 1_554
Ga2 Mg1 3.024760 1_555
Ga2 Mg2 3.053450 1_654
Ga2 Mg1 3.053450 1_655
Ga3 Mg0 2.996912 1_555
Ga3 Mg3 2.996912 1_554
Ga3 Mg1 3.066627 1_655
Ga3 Mg2 3.066627 1_654
Ga3 Mg1 3.066627 1_545
Ga3 Mg2 3.066627 1_544
Cu0 Ga0 2.507068 1_645
Cu0 Ga3 2.514358 1_555
Cu0 Ga1 2.534077 1_655
Cu0 Ga2 2.534077 1_545
Cu0 Cu3 2.554367 1_655
Cu0 Cu2 2.554367 1_545
Cu0 Mg0 2.963237 1_555
Cu0 Mg1 2.966034 1_545
Cu0 Mg1 2.966034 1_655
Cu0 Mg1 2.988927 1_645
Cu0 Mg0 3.028747 1_545
Cu0 Mg0 3.028747 1_655
Cu1 Ga0 2.507068 1_645
Cu1 Ga3 2.514358 1_556
Cu1 Ga1 2.534077 1_656
Cu1 Ga2 2.534077 1_546
Cu1 Cu3 2.554367 1_655
Cu1 Cu2 2.554367 1_545
Cu1 Mg3 2.963237 1_555
Cu1 Mg2 2.966034 1_545
Cu1 Mg2 2.966034 1_655
Cu1 Mg2 2.988927 1_645
Cu1 Mg3 3.028747 1_545
Cu1 Mg3 3.028747 1_655
Cu2 Ga0 2.532421 1_555
Cu2 Cu3 2.547964 1_555
Cu2 Ga0 2.554041 1_655
Cu2 Cu3 2.603354 1_665
Cu2 Mg2 2.827457 1_555
Cu2 Mg1 2.827457 1_555
Cu2 Mg0 2.903297 1_565
Cu2 Mg3 2.903297 1_565
Cu2 Mg3 2.974958 1_555
Cu2 Mg0 2.974958 1_555
Cu3 Ga0 2.532421 1_555
Cu3 Ga0 2.554041 1_545
Cu3 Mg2 2.827457 1_555
Cu3 Mg1 2.827457 1_555
Cu3 Mg3 2.903297 1_455
Cu3 Mg0 2.903297 1_455
Cu3 Mg3 2.974958 1_555
Cu3 Mg0 2.974958 1_555
