# generated using pymatgen
data_Sr4CaCo2(SO3)2
_symmetry_space_group_name_H-M   'P 1'
_cell_length_a   3.90494900
_cell_length_b   3.90494900
_cell_length_c   16.90471200
_cell_angle_alpha   90.00000000
_cell_angle_beta   90.00000000
_cell_angle_gamma   90.00000000
_symmetry_Int_Tables_number   1
_chemical_formula_structural   Sr4CaCo2(SO3)2
_chemical_formula_sum   'Sr4 Ca1 Co2 S2 O6'
_cell_volume   257.77364263
_cell_formula_units_Z   1
loop_
 _symmetry_equiv_pos_site_id
 _symmetry_equiv_pos_as_xyz
  1  'x, y, z'
loop_
 _atom_site_type_symbol
 _atom_site_label
 _atom_site_symmetry_multiplicity
 _atom_site_fract_x
 _atom_site_fract_y
 _atom_site_fract_z
 _atom_site_occupancy
  Sr  Sr0  1  0.00000000  0.50000000  0.70428400  1
  Sr  Sr1  1  0.50000000  0.00000000  0.29571600  1
  Sr  Sr2  1  0.00000000  0.50000000  0.91863500  1
  Sr  Sr3  1  0.50000000  0.00000000  0.08136500  1
  Ca  Ca0  1  0.50000000  0.50000000  0.50000000  1
  Co  Co0  1  0.50000000  0.00000000  0.82113100  1
  Co  Co1  1  0.00000000  0.50000000  0.17886900  1
  S  S0  1  0.50000000  0.00000000  0.61197400  1
  S  S1  1  0.00000000  0.50000000  0.38802600  1
  O  O0  1  0.00000000  0.00000000  0.80262800  1
  O  O1  1  0.50000000  0.50000000  0.80164800  1
  O  O2  1  0.50000000  0.50000000  0.19835200  1
  O  O3  1  0.00000000  0.00000000  0.19737200  1
  O  O4  1  0.50000000  0.00000000  0.93522400  1
  O  O5  1  0.00000000  0.50000000  0.06477600  1
loop_
_geom_bond_atom_site_label_1
_geom_bond_atom_site_label_2
_geom_bond_distance
_geom_bond_site_symmetry_2
Ca0 S1 2.719408 1_655
Ca0 S1 2.719408 1_555
Ca0 S0 2.719408 1_555
Ca0 S0 2.719408 1_565
Co0 O4 1.928709 1_555
Co0 O0 1.977370 1_655
Co0 O0 1.977370 1_555
Co0 O1 1.980058 1_555
Co0 O1 1.980058 1_545
Co1 O5 1.928709 1_555
Co1 O3 1.977370 1_555
Co1 O3 1.977370 1_565
Co1 O2 1.980058 1_555
Co1 O2 1.980058 1_455
S0 Sr0 3.171655 1_555
S0 Sr0 3.171655 1_645
S0 Sr0 3.171655 1_655
S0 Sr0 3.171655 1_545
S1 Sr1 3.171655 1_465
S1 Sr1 3.171655 1_555
S1 Sr1 3.171655 1_455
S1 Sr1 3.171655 1_565
O0 Sr0 2.564369 1_555
O0 Sr0 2.564369 1_545
O0 Sr2 2.767297 1_555
O0 Sr2 2.767297 1_545
O1 Sr0 2.553660 1_555
O1 Sr0 2.553660 1_655
O1 Sr2 2.779062 1_555
O1 Sr2 2.779062 1_655
O2 Sr1 2.553660 1_565
O2 Sr1 2.553660 1_555
O2 Sr3 2.779062 1_555
O2 Sr3 2.779062 1_565
O3 Sr1 2.564369 1_455
O3 Sr1 2.564369 1_555
O3 Sr3 2.767297 1_455
O3 Sr3 2.767297 1_555
O4 Sr3 2.470472 1_556
O4 Sr2 2.775420 1_655
O4 Sr2 2.775420 1_545
O4 Sr2 2.775420 1_645
O4 Sr2 2.775420 1_555
O5 Sr2 2.470472 1_554
O5 Sr3 2.775420 1_465
O5 Sr3 2.775420 1_455
O5 Sr3 2.775420 1_565
O5 Sr3 2.775420 1_555
