# generated using pymatgen
data_Ca2PbAu
_symmetry_space_group_name_H-M   'P 1'
_cell_length_a   12.86381951
_cell_length_b   12.86381951
_cell_length_c   12.86381951
_cell_angle_alpha   125.06303771
_cell_angle_beta   118.36118871
_cell_angle_gamma   87.16237976
_symmetry_Int_Tables_number   1
_chemical_formula_structural   Ca2PbAu
_chemical_formula_sum   'Ca2 Pb1 Au1'
_cell_volume   1457.62734443
_cell_formula_units_Z   1
loop_
 _symmetry_equiv_pos_site_id
 _symmetry_equiv_pos_as_xyz
  1  'x, y, z'
loop_
 _atom_site_type_symbol
 _atom_site_label
 _atom_site_symmetry_multiplicity
 _atom_site_fract_x
 _atom_site_fract_y
 _atom_site_fract_z
 _atom_site_occupancy
  Ca  Ca0  1  0.00000000  0.24158000  0.24158000  1
  Ca  Ca1  1  0.00000000  0.75842000  0.75842000  1
  Pb  Pb0  1  0.00000000  0.50000000  0.50000000  1
  Au  Au0  1  0.00000000  0.00000000  0.00000000  1
loop_
_geom_bond_atom_site_label_1
_geom_bond_atom_site_label_2
_geom_bond_distance
_geom_bond_site_symmetry_2
Ca0 Pb0 3.066708 1_555
Ca1 Pb0 3.066708 1_555
Au0 Ca0 2.866865 1_555
Au0 Ca1 2.866865 1_544
