# generated using pymatgen
data_YbYAl6
_symmetry_space_group_name_H-M   'P 1'
_cell_length_a   6.04091560
_cell_length_b   6.04091560
_cell_length_c   9.51010778
_cell_angle_alpha   90.00000000
_cell_angle_beta   90.00000000
_cell_angle_gamma   120.00000465
_symmetry_Int_Tables_number   1
_chemical_formula_structural   YbYAl6
_chemical_formula_sum   'Yb2 Y2 Al12'
_cell_volume   300.55335949
_cell_formula_units_Z   2
loop_
 _symmetry_equiv_pos_site_id
 _symmetry_equiv_pos_as_xyz
  1  'x, y, z'
loop_
 _atom_site_type_symbol
 _atom_site_label
 _atom_site_symmetry_multiplicity
 _atom_site_fract_x
 _atom_site_fract_y
 _atom_site_fract_z
 _atom_site_occupancy
  Yb  Yb0  1  0.00000000  0.00000000  0.50000000  1
  Yb  Yb1  1  0.00000000  0.00000000  0.00000000  1
  Y  Y0  1  0.33333300  0.66666700  0.25000000  1
  Y  Y1  1  0.66666700  0.33333300  0.75000000  1
  Al  Al0  1  0.81820602  0.63641304  0.25000000  1
  Al  Al1  1  0.36358696  0.18179398  0.25000000  1
  Al  Al2  1  0.81820602  0.18179398  0.25000000  1
  Al  Al3  1  0.18179398  0.36358696  0.75000000  1
  Al  Al4  1  0.63641304  0.81820602  0.75000000  1
  Al  Al5  1  0.18179398  0.81820602  0.75000000  1
  Al  Al6  1  0.50000000  0.50000000  0.50000000  1
  Al  Al7  1  0.50000000  0.00000000  0.50000000  1
  Al  Al8  1  0.00000000  0.50000000  0.50000000  1
  Al  Al9  1  0.50000000  0.50000000  0.00000000  1
  Al  Al10  1  0.50000000  0.00000000  0.00000000  1
  Al  Al11  1  0.00000000  0.50000000  0.00000000  1
loop_
_geom_bond_atom_site_label_1
_geom_bond_atom_site_label_2
_geom_bond_distance
_geom_bond_site_symmetry_2
Al0 Al1 2.746315 1_555
Al0 Al2 2.746315 1_555
Al0 Al6 2.905636 1_555
Al0 Al9 2.905636 1_555
Al0 Al8 2.905639 1_655
Al0 Al11 2.905639 1_655
Al0 Y0 3.024602 1_655
Al0 Y0 3.024602 1_555
Al0 Yb1 3.044792 1_665
Al0 Yb0 3.044792 1_665
Al1 Al2 2.746315 1_555
Al1 Al9 2.905636 1_555
Al1 Al6 2.905636 1_555
Al1 Al7 2.905639 1_555
Al1 Al10 2.905639 1_555
Al1 Y0 3.024602 1_545
Al1 Y0 3.024602 1_555
Al1 Yb0 3.044792 1_555
Al1 Yb1 3.044792 1_555
Al2 Al7 2.905637 1_555
Al2 Al8 2.905637 1_655
Al2 Y0 3.024602 1_545
Al2 Y0 3.024602 1_655
Al2 Yb1 3.044795 1_655
Al2 Yb0 3.044795 1_655
Al3 Al4 2.746315 1_555
Al3 Al5 2.746315 1_555
Al3 Al6 2.905636 1_555
Al3 Al9 2.905636 1_556
Al3 Al8 2.905639 1_555
Al3 Y1 3.024602 1_455
Al3 Y1 3.024602 1_555
Al3 Yb1 3.044792 1_556
Al3 Yb0 3.044792 1_555
Al4 Al5 2.746315 1_555
Al4 Al6 2.905636 1_555
Al4 Al9 2.905636 1_556
Al4 Al7 2.905639 1_565
Al4 Y1 3.024602 1_565
Al4 Y1 3.024602 1_555
Al4 Yb0 3.044792 1_665
Al4 Yb1 3.044792 1_666
Al5 Al8 2.905637 1_555
Al5 Al7 2.905637 1_565
Al5 Y1 3.024602 1_455
Al5 Y1 3.024602 1_565
Al5 Yb1 3.044795 1_566
Al5 Yb0 3.044795 1_565
Al6 Y0 2.948508 1_555
Al6 Y1 2.948508 1_555
Al6 Yb0 3.020458 1_555
Al6 Yb0 3.020458 1_665
Al6 Al8 3.020458 1_555
Al6 Al7 3.020458 1_565
Al6 Al7 3.020458 1_555
Al6 Al8 3.020458 1_655
Al7 Y1 2.948505 1_555
Al7 Y0 2.948505 1_545
Al7 Al8 3.020458 1_655
Al7 Al8 3.020458 1_545
Al7 Yb0 3.020458 1_655
Al7 Yb0 3.020458 1_555
Al8 Y0 2.948505 1_555
Al8 Y1 2.948505 1_455
Al8 Yb0 3.020458 1_565
Al8 Yb0 3.020458 1_555
Al9 Y1 2.948508 1_554
Al9 Y0 2.948508 1_555
Al9 Yb1 3.020458 1_665
Al9 Yb1 3.020458 1_555
Al10 Al2 2.905637 1_555
Al10 Al5 2.905637 1_544
Al10 Al4 2.905639 1_544
Al10 Y1 2.948505 1_554
Al10 Y0 2.948505 1_545
Al10 Al11 3.020458 1_545
Al10 Al11 3.020458 1_655
Al10 Yb1 3.020458 1_555
Al10 Yb1 3.020458 1_655
Al10 Al9 3.020458 1_545
Al10 Al9 3.020458 1_555
Al11 Al5 2.905637 1_554
Al11 Al2 2.905637 1_455
Al11 Al3 2.905639 1_554
Al11 Y0 2.948505 1_555
Al11 Y1 2.948505 1_454
Al11 Al9 3.020458 1_555
Al11 Yb1 3.020458 1_555
Al11 Yb1 3.020458 1_565
Al11 Al9 3.020458 1_455
