# generated using pymatgen
data_Pr2ZnP2O
_symmetry_space_group_name_H-M   'P 1'
_cell_length_a   3.45042200
_cell_length_b   3.45042200
_cell_length_c   14.61673000
_cell_angle_alpha   90.00000000
_cell_angle_beta   90.00000000
_cell_angle_gamma   90.00000000
_symmetry_Int_Tables_number   1
_chemical_formula_structural   Pr2ZnP2O
_chemical_formula_sum   'Pr2 Zn1 P2 O1'
_cell_volume   174.01819242
_cell_formula_units_Z   1
loop_
 _symmetry_equiv_pos_site_id
 _symmetry_equiv_pos_as_xyz
  1  'x, y, z'
loop_
 _atom_site_type_symbol
 _atom_site_label
 _atom_site_symmetry_multiplicity
 _atom_site_fract_x
 _atom_site_fract_y
 _atom_site_fract_z
 _atom_site_occupancy
  Pr  Pr0  1  0.50000000  0.50000000  0.64595900  1
  Pr  Pr1  1  0.50000000  0.50000000  0.35404100  1
  Zn  Zn0  1  0.50000000  0.50000000  0.00000000  1
  P  P0  1  0.50000000  0.50000000  0.15199600  1
  P  P1  1  0.50000000  0.50000000  0.84800400  1
  O  O0  1  0.50000000  0.50000000  0.50000000  1
loop_
_geom_bond_atom_site_label_1
_geom_bond_atom_site_label_2
_geom_bond_distance
_geom_bond_site_symmetry_2
P0 Zn0 2.221684 1_555
P0 Pr1 2.953237 1_555
P1 Zn0 2.221684 1_556
P1 Pr0 2.953237 1_555
O0 Pr0 2.133443 1_555
O0 Pr1 2.133443 1_555
