# generated using pymatgen
data_ZnH8C3(NO3)2
_symmetry_space_group_name_H-M   'P 1'
_cell_length_a   8.60681621
_cell_length_b   7.71279433
_cell_length_c   11.43284762
_cell_angle_alpha   90.00000000
_cell_angle_beta   90.00000000
_cell_angle_gamma   90.00000000
_symmetry_Int_Tables_number   1
_chemical_formula_structural   ZnH8C3(NO3)2
_chemical_formula_sum   'Zn4 H32 C12 N8 O24'
_cell_volume   758.94218716
_cell_formula_units_Z   4
loop_
 _symmetry_equiv_pos_site_id
 _symmetry_equiv_pos_as_xyz
  1  'x, y, z'
loop_
 _atom_site_type_symbol
 _atom_site_label
 _atom_site_symmetry_multiplicity
 _atom_site_fract_x
 _atom_site_fract_y
 _atom_site_fract_z
 _atom_site_occupancy
  Zn  Zn0  1  0.53544820  0.50021691  0.51154687  1
  Zn  Zn1  1  0.46455183  0.49978309  0.01154685  1
  Zn  Zn2  1  0.03544819  0.99978309  0.51154687  1
  Zn  Zn3  1  0.96455180  0.00021691  0.01154685  1
  H  H0  1  0.53976619  0.42277583  0.75900351  1
  H  H1  1  0.46023384  0.57722414  0.25900354  1
  H  H2  1  0.03976616  0.07722417  0.75900351  1
  H  H3  1  0.96023381  0.92277586  0.25900354  1
  H  H4  1  0.27124753  0.73344607  0.56242592  1
  H  H5  1  0.72875247  0.26655393  0.06242590  1
  H  H6  1  0.77124753  0.76655393  0.56242592  1
  H  H7  1  0.22875249  0.23344607  0.06242590  1
  H  H8  1  0.33959348  0.18608841  0.50704374  1
  H  H9  1  0.66040655  0.81391159  0.00704373  1
  H  H10  1  0.83959345  0.31391159  0.50704374  1
  H  H11  1  0.16040653  0.68608841  0.00704373  1
  H  H12  1  0.07182553  0.41107397  0.67797712  1
  H  H13  1  0.92817448  0.58892603  0.17797714  1
  H  H14  1  0.57182552  0.08892601  0.67797712  1
  H  H15  1  0.42817445  0.91107397  0.17797714  1
  H  H16  1  0.07094495  0.62851721  0.70355075  1
  H  H17  1  0.92905504  0.37148282  0.20355074  1
  H  H18  1  0.57094496  0.87148279  0.70355075  1
  H  H19  1  0.42905507  0.12851718  0.20355074  1
  H  H20  1  0.14726530  0.48783169  0.80361720  1
  H  H21  1  0.85273469  0.51216831  0.30361723  1
  H  H22  1  0.64726531  0.01216833  0.80361720  1
  H  H23  1  0.35273469  0.98783169  0.30361723  1
  H  H24  1  0.91489312  0.39811672  0.85273141  1
  H  H25  1  0.08510690  0.60188328  0.35273141  1
  H  H26  1  0.41489312  0.10188327  0.85273141  1
  H  H27  1  0.58510688  0.89811672  0.35273141  1
  H  H28  1  0.89793762  0.60989166  0.83978617  1
  H  H29  1  0.10206238  0.39010831  0.33978614  1
  H  H30  1  0.39793762  0.89010929  0.83978617  1
  H  H31  1  0.60206238  0.10989169  0.33978614  1
  C  C0  1  0.53561215  0.56478680  0.76148524  1
  C  C1  1  0.46438785  0.43521320  0.26148527  1
  C  C2  1  0.03561214  0.93521320  0.76148524  1
  C  C3  1  0.96438785  0.06478682  0.26148527  1
  C  C4  1  0.31971661  0.79219663  0.48305541  1
  C  C5  1  0.68028339  0.20780334  0.98305544  1
  C  C6  1  0.81971661  0.70780337  0.48305541  1
  C  C7  1  0.18028339  0.29219666  0.98305544  1
  C  C8  1  0.26511905  0.27806600  0.55416705  1
  C  C9  1  0.73488095  0.72193403  0.05416703  1
  C  C10  1  0.76511905  0.22193402  0.55416705  1
  C  C11  1  0.23488095  0.77806597  0.05416703  1
  N  N0  1  0.90693844  0.49697396  0.79348008  1
  N  N1  1  0.09306159  0.50302601  0.29348005  1
  N  N2  1  0.40693841  0.00302603  0.79348008  1
  N  N3  1  0.59306156  0.99697399  0.29348005  1
  N  N4  1  0.06031295  0.50615036  0.74150963  1
  N  N5  1  0.93968705  0.49384964  0.24150963  1
  N  N6  1  0.56031295  0.99384964  0.74150963  1
  N  N7  1  0.43968705  0.00615035  0.24150963  1
  O  O0  1  0.55921527  0.64638308  0.66672301  1
  O  O1  1  0.44078473  0.35361695  0.16672302  1
  O  O2  1  0.05921526  0.85361597  0.66672301  1
  O  O3  1  0.94078473  0.14638305  0.16672302  1
  O  O4  1  0.50783647  0.63902059  0.85752309  1
  O  O5  1  0.49216356  0.36097944  0.35752306  1
  O  O6  1  0.00783646  0.86097941  0.85752309  1
  O  O7  1  0.99216353  0.13902058  0.35752306  1
  O  O8  1  0.44131984  0.72774398  0.43960817  1
  O  O9  1  0.55868013  0.27225605  0.93960817  1
  O  O10  1  0.94131987  0.77225602  0.43960817  1
  O  O11  1  0.05868016  0.22774396  0.93960817  1
  O  O12  1  0.24981276  0.92199853  0.43971901  1
  O  O13  1  0.75018721  0.07800147  0.93971898  1
  O  O14  1  0.74981279  0.57800147  0.43971901  1
  O  O15  1  0.25018724  0.42199853  0.93971898  1
  O  O16  1  0.31813543  0.42582179  0.57861434  1
  O  O17  1  0.68186457  0.57417821  0.07861436  1
  O  O18  1  0.81813543  0.07417821  0.57861434  1
  O  O19  1  0.18186455  0.92582179  0.07861436  1
  O  O20  1  0.12837637  0.22999732  0.58060236  1
  O  O21  1  0.87162362  0.77000265  0.08060235  1
  O  O22  1  0.62837638  0.27000268  0.58060236  1
  O  O23  1  0.37162365  0.72999735  0.08060235  1
loop_
_geom_bond_atom_site_label_1
_geom_bond_atom_site_label_2
_geom_bond_distance
_geom_bond_site_symmetry_2
H12 N4 1.036894 1_555
H13 N5 1.036894 1_555
H14 N6 1.036894 1_545
H15 N7 1.036894 1_565
H16 N4 1.042809 1_555
H17 N5 1.042809 1_555
H18 N6 1.042809 1_555
H19 N7 1.042809 1_555
H20 N4 1.041265 1_555
H21 N5 1.041266 1_555
H22 N6 1.041265 1_545
H23 N7 1.041266 1_565
H24 N0 1.022217 1_555
H25 N1 1.022217 1_555
H26 N2 1.022217 1_555
H27 N3 1.022217 1_555
H28 N0 1.022136 1_555
H29 N1 1.022136 1_555
H30 N2 1.022130 1_565
H31 N3 1.022136 1_545
C0 H0 1.096252 1_555
C0 O4 1.261165 1_555
C0 O0 1.269288 1_555
C1 H1 1.096252 1_555
C1 O5 1.261164 1_555
C1 O1 1.269288 1_555
C2 H2 1.096252 1_565
C2 O6 1.261165 1_555
C2 O2 1.269292 1_555
C3 H3 1.096252 1_545
C3 O7 1.261164 1_555
C3 O3 1.269288 1_555
C4 H4 1.096715 1_555
C4 O8 1.260659 1_555
C4 O12 1.268753 1_555
C5 H5 1.096715 1_556
C5 O9 1.260660 1_555
C5 O13 1.268753 1_555
C6 H6 1.096715 1_555
C6 O10 1.260659 1_555
C6 O14 1.268753 1_555
C7 H7 1.096715 1_556
C7 O11 1.260659 1_555
C7 O15 1.268753 1_555
C8 H8 1.097440 1_555
C8 O16 1.258985 1_555
C8 O20 1.270407 1_555
C9 H9 1.097440 1_555
C9 O17 1.258986 1_555
C9 O21 1.270406 1_555
C10 H10 1.097440 1_555
C10 O18 1.258986 1_555
C10 O22 1.270407 1_555
C11 H11 1.097440 1_555
C11 O19 1.258986 1_555
C11 O23 1.270407 1_555
O0 Zn0 2.111921 1_555
O1 Zn1 2.111921 1_555
O2 Zn2 2.111925 1_555
O3 Zn3 2.111921 1_555
O4 Zn1 2.095936 1_556
O5 Zn0 2.095936 1_555
O6 Zn3 2.095936 1_466
O7 Zn2 2.095936 1_645
O8 Zn0 2.100559 1_555
O9 Zn1 2.100559 1_556
O10 Zn2 2.100559 1_655
O11 Zn3 2.100559 1_456
O12 Zn2 2.106727 1_555
O13 Zn3 2.106727 1_556
O14 Zn0 2.106727 1_555
O15 Zn1 2.106727 1_556
O16 Zn0 2.101301 1_555
O17 Zn1 2.101301 1_555
O18 Zn2 2.101301 1_645
O19 Zn3 2.101301 1_465
O20 Zn2 2.101370 1_545
O21 Zn3 2.101370 1_565
O22 Zn0 2.101370 1_555
O23 Zn1 2.101370 1_555
