# generated using pymatgen
data_Ca(FeO2)2
_symmetry_space_group_name_H-M   'P 1'
_cell_length_a   6.27632545
_cell_length_b   6.27632545
_cell_length_c   15.52954483
_cell_angle_alpha   89.46009110
_cell_angle_beta   89.46009110
_cell_angle_gamma   59.84009821
_symmetry_Int_Tables_number   1
_chemical_formula_structural   Ca(FeO2)2
_chemical_formula_sum   'Ca6 Fe12 O24'
_cell_volume   528.89879103
_cell_formula_units_Z   6
loop_
 _symmetry_equiv_pos_site_id
 _symmetry_equiv_pos_as_xyz
  1  'x, y, z'
loop_
 _atom_site_type_symbol
 _atom_site_label
 _atom_site_symmetry_multiplicity
 _atom_site_fract_x
 _atom_site_fract_y
 _atom_site_fract_z
 _atom_site_occupancy
  Ca  Ca0  1  0.83361900  0.83361900  0.04513300  1
  Ca  Ca1  1  0.50418900  0.50418900  0.38006300  1
  Ca  Ca2  1  0.16693000  0.16693000  0.33759300  1
  Ca  Ca3  1  0.16947400  0.16947400  0.71825000  1
  Ca  Ca4  1  0.50063900  0.50063900  0.99591000  1
  Ca  Ca5  1  0.50057000  0.50057000  0.62121300  1
  Fe  Fe0  1  0.33817200  0.82371800  0.16481800  1
  Fe  Fe1  1  0.33958200  0.33958200  0.16557000  1
  Fe  Fe2  1  0.99965500  0.50589500  0.50037400  1
  Fe  Fe3  1  0.82371800  0.33817200  0.16481800  1
  Fe  Fe4  1  0.01271600  0.01271600  0.51101300  1
  Fe  Fe5  1  0.83346000  0.83346000  0.66213200  1
  Fe  Fe6  1  0.83153100  0.83153100  0.28312800  1
  Fe  Fe7  1  0.67178400  0.16052800  0.82869900  1
  Fe  Fe8  1  0.50589500  0.99965500  0.50037400  1
  Fe  Fe9  1  0.67349900  0.67349900  0.82872300  1
  Fe  Fe10  1  0.16052800  0.67178400  0.82869900  1
  Fe  Fe11  1  0.16759500  0.16759500  0.95229000  1
  O  O0  1  0.64940100  0.20311600  0.09785500  1
  O  O1  1  0.49917800  0.49917800  0.23596900  1
  O  O2  1  0.64806800  0.64806800  0.09699100  1
  O  O3  1  0.20311600  0.64940100  0.09785500  1
  O  O4  1  0.31750100  0.86462700  0.44209200  1
  O  O5  1  0.49178000  0.00211700  0.23842100  1
  O  O6  1  0.17152500  0.17152500  0.57683400  1
  O  O7  1  0.00359200  0.00359200  0.24024500  1
  O  O8  1  0.16711600  0.16711600  0.08358600  1
  O  O9  1  0.32113300  0.32113300  0.43810500  1
  O  O10  1  0.86462700  0.31750100  0.44209200  1
  O  O11  1  0.00211700  0.49178000  0.23842100  1
  O  O12  1  0.97477700  0.55706900  0.75434700  1
  O  O13  1  0.11393300  0.69558600  0.57819000  1
  O  O14  1  0.69431300  0.69431300  0.57895900  1
  O  O15  1  0.83361300  0.83361300  0.89875000  1
  O  O16  1  0.82155100  0.82155100  0.41060200  1
  O  O17  1  0.97541600  0.97541600  0.75327700  1
  O  O18  1  0.55706900  0.97477700  0.75434700  1
  O  O19  1  0.69558600  0.11393300  0.57819000  1
  O  O20  1  0.83773900  0.33405500  0.90196800  1
  O  O21  1  0.33232600  0.33232600  0.90205300  1
  O  O22  1  0.50267100  0.50267100  0.77028400  1
  O  O23  1  0.33405500  0.83773900  0.90196800  1
loop_
_geom_bond_atom_site_label_1
_geom_bond_atom_site_label_2
_geom_bond_distance
_geom_bond_site_symmetry_2
Ca0 O2 2.165292 1_555
Ca0 O0 2.170015 1_565
Ca0 O3 2.170015 1_655
Ca0 O15 2.273262 1_554
Ca1 O9 2.177119 1_555
Ca1 O10 2.185133 1_555
Ca1 O4 2.185133 1_555
Ca1 O1 2.238971 1_555
Ca2 O10 2.301247 1_455
Ca2 O4 2.301247 1_545
Ca2 O9 2.303902 1_555
Ca2 O5 2.334632 1_555
Ca2 O11 2.334632 1_555
Ca2 O7 2.345595 1_555
Ca3 O17 2.174498 1_445
Ca3 O12 2.179707 1_455
Ca3 O18 2.179707 1_545
Ca3 O6 2.195997 1_555
Ca4 O0 2.255076 1_556
Ca4 O3 2.255076 1_556
Ca4 O2 2.256453 1_556
Ca4 O23 2.333594 1_555
Ca4 O20 2.333594 1_555
Ca4 O21 2.352819 1_555
Ca5 O14 2.200811 1_555
Ca5 O13 2.205406 1_555
Ca5 O19 2.205406 1_555
Ca5 O22 2.315366 1_555
Fe0 O2 1.984082 1_555
Fe0 O3 1.991693 1_555
Fe0 O1 2.073988 1_555
Fe0 O5 2.149248 1_565
Fe0 O7 2.157011 1_565
Fe0 O8 2.244641 1_565
Fe1 O0 1.981288 1_555
Fe1 O3 1.981288 1_555
Fe1 O1 2.061896 1_555
Fe1 O5 2.149584 1_555
Fe1 O11 2.149584 1_555
Fe1 O8 2.278967 1_555
Fe2 O10 1.994262 1_555
Fe2 O9 1.996056 1_655
Fe2 O14 2.065521 1_555
Fe2 O13 2.072131 1_655
Fe2 O6 2.163363 1_655
Fe2 O16 2.206836 1_555
Fe3 O2 1.984082 1_555
Fe3 O0 1.991693 1_555
Fe3 O1 2.073988 1_555
Fe3 O11 2.149248 1_655
Fe3 O7 2.157011 1_655
Fe3 O8 2.244641 1_655
Fe4 O4 1.965285 1_545
Fe4 O10 1.965285 1_455
Fe4 O6 2.017049 1_555
Fe4 O19 2.038732 1_455
Fe4 O13 2.038732 1_545
Fe4 O16 2.612980 1_445
Fe5 O13 1.998573 1_655
Fe5 O19 1.998573 1_565
Fe5 O14 2.000664 1_555
Fe5 O18 2.068284 1_555
Fe5 O12 2.068284 1_555
Fe5 O17 2.106248 1_555
Fe6 O5 1.973631 1_565
Fe6 O11 1.973631 1_655
Fe6 O7 1.980061 1_665
Fe6 O16 1.981410 1_555
Fe7 O18 2.023673 1_545
Fe7 O17 2.027851 1_545
Fe7 O22 2.062040 1_555
Fe7 O15 2.075988 1_545
Fe7 O21 2.160690 1_555
Fe7 O20 2.179750 1_555
Fe8 O4 1.994262 1_555
Fe8 O9 1.996056 1_565
Fe8 O14 2.065521 1_555
Fe8 O19 2.072131 1_565
Fe8 O6 2.163363 1_565
Fe8 O16 2.206836 1_555
Fe9 O12 2.007470 1_555
Fe9 O18 2.007470 1_555
Fe9 O15 2.063574 1_555
Fe9 O22 2.077137 1_555
Fe9 O23 2.159854 1_555
Fe9 O20 2.159854 1_555
Fe10 O12 2.023673 1_455
Fe10 O17 2.027851 1_455
Fe10 O22 2.062040 1_555
Fe10 O15 2.075988 1_455
Fe10 O21 2.160690 1_555
Fe10 O23 2.179750 1_555
Fe11 O21 1.946866 1_555
Fe11 O20 1.957042 1_455
Fe11 O23 1.957042 1_545
Fe11 O8 2.038917 1_556
