# generated using pymatgen
data_Pr2Ho
_symmetry_space_group_name_H-M   'P 1'
_cell_length_a   7.33798526
_cell_length_b   7.33798526
_cell_length_c   70.83473590
_cell_angle_alpha   90.00000000
_cell_angle_beta   90.00000000
_cell_angle_gamma   120.00002723
_symmetry_Int_Tables_number   1
_chemical_formula_structural   Pr2Ho
_chemical_formula_sum   'Pr64 Ho32'
_cell_volume   3303.16647190
_cell_formula_units_Z   32
loop_
 _symmetry_equiv_pos_site_id
 _symmetry_equiv_pos_as_xyz
  1  'x, y, z'
loop_
 _atom_site_type_symbol
 _atom_site_label
 _atom_site_symmetry_multiplicity
 _atom_site_fract_x
 _atom_site_fract_y
 _atom_site_fract_z
 _atom_site_occupancy
  Pr  Pr0_0  1  0.16666650  0.33333350  0.33360527  1
  Pr  Pr0_1  1  0.16666650  0.33333350  0.83360526  1
  Pr  Pr0_2  1  0.16666650  0.83333350  0.33360527  1
  Pr  Pr0_3  1  0.16666650  0.83333350  0.83360526  1
  Pr  Pr0_4  1  0.66666650  0.33333350  0.33360527  1
  Pr  Pr0_5  1  0.66666650  0.33333350  0.83360526  1
  Pr  Pr0_6  1  0.66666650  0.83333350  0.33360527  1
  Pr  Pr0_7  1  0.66666650  0.83333350  0.83360526  1
  Pr  Pr1_0  1  0.16666650  0.33333350  0.16639474  1
  Pr  Pr1_1  1  0.16666650  0.33333350  0.66639474  1
  Pr  Pr1_2  1  0.16666650  0.83333350  0.16639474  1
  Pr  Pr1_3  1  0.16666650  0.83333350  0.66639474  1
  Pr  Pr1_4  1  0.66666650  0.33333350  0.16639474  1
  Pr  Pr1_5  1  0.66666650  0.33333350  0.66639474  1
  Pr  Pr1_6  1  0.66666650  0.83333350  0.16639474  1
  Pr  Pr1_7  1  0.66666650  0.83333350  0.66639474  1
  Pr  Pr2_0  1  0.00000000  0.00000000  0.45898286  1
  Pr  Pr2_1  1  0.00000000  0.00000000  0.95898286  1
  Pr  Pr2_2  1  0.00000000  0.50000000  0.45898286  1
  Pr  Pr2_3  1  0.00000000  0.50000000  0.95898286  1
  Pr  Pr2_4  1  0.50000000  0.00000000  0.45898286  1
  Pr  Pr2_5  1  0.50000000  0.00000000  0.95898286  1
  Pr  Pr2_6  1  0.50000000  0.50000000  0.45898286  1
  Pr  Pr2_7  1  0.50000000  0.50000000  0.95898286  1
  Pr  Pr3_0  1  0.00000000  0.00000000  0.29074681  1
  Pr  Pr3_1  1  0.00000000  0.00000000  0.79074681  1
  Pr  Pr3_2  1  0.00000000  0.50000000  0.29074681  1
  Pr  Pr3_3  1  0.00000000  0.50000000  0.79074681  1
  Pr  Pr3_4  1  0.50000000  0.00000000  0.29074681  1
  Pr  Pr3_5  1  0.50000000  0.00000000  0.79074681  1
  Pr  Pr3_6  1  0.50000000  0.50000000  0.29074681  1
  Pr  Pr3_7  1  0.50000000  0.50000000  0.79074681  1
  Pr  Pr4_0  1  0.00000000  0.00000000  0.12316231  1
  Pr  Pr4_1  1  0.00000000  0.00000000  0.62316231  1
  Pr  Pr4_2  1  0.00000000  0.50000000  0.12316231  1
  Pr  Pr4_3  1  0.00000000  0.50000000  0.62316231  1
  Pr  Pr4_4  1  0.50000000  0.00000000  0.12316231  1
  Pr  Pr4_5  1  0.50000000  0.00000000  0.62316231  1
  Pr  Pr4_6  1  0.50000000  0.50000000  0.12316231  1
  Pr  Pr4_7  1  0.50000000  0.50000000  0.62316231  1
  Pr  Pr5_0  1  0.00000000  0.00000000  0.04101714  1
  Pr  Pr5_1  1  0.00000000  0.00000000  0.54101714  1
  Pr  Pr5_2  1  0.00000000  0.50000000  0.04101714  1
  Pr  Pr5_3  1  0.00000000  0.50000000  0.54101714  1
  Pr  Pr5_4  1  0.50000000  0.00000000  0.04101714  1
  Pr  Pr5_5  1  0.50000000  0.00000000  0.54101714  1
  Pr  Pr5_6  1  0.50000000  0.50000000  0.04101714  1
  Pr  Pr5_7  1  0.50000000  0.50000000  0.54101714  1
  Pr  Pr6_0  1  0.00000000  0.00000000  0.37683769  1
  Pr  Pr6_1  1  0.00000000  0.00000000  0.87683769  1
  Pr  Pr6_2  1  0.00000000  0.50000000  0.37683769  1
  Pr  Pr6_3  1  0.00000000  0.50000000  0.87683769  1
  Pr  Pr6_4  1  0.50000000  0.00000000  0.37683769  1
  Pr  Pr6_5  1  0.50000000  0.00000000  0.87683769  1
  Pr  Pr6_6  1  0.50000000  0.50000000  0.37683769  1
  Pr  Pr6_7  1  0.50000000  0.50000000  0.87683769  1
  Pr  Pr7_0  1  0.00000000  0.00000000  0.20925319  1
  Pr  Pr7_1  1  0.00000000  0.00000000  0.70925319  1
  Pr  Pr7_2  1  0.00000000  0.50000000  0.20925319  1
  Pr  Pr7_3  1  0.00000000  0.50000000  0.70925319  1
  Pr  Pr7_4  1  0.50000000  0.00000000  0.20925319  1
  Pr  Pr7_5  1  0.50000000  0.00000000  0.70925319  1
  Pr  Pr7_6  1  0.50000000  0.50000000  0.20925319  1
  Pr  Pr7_7  1  0.50000000  0.50000000  0.70925319  1
  Ho  Ho0_0  1  0.33333350  0.16666650  0.41781409  1
  Ho  Ho0_1  1  0.33333350  0.16666650  0.91781409  1
  Ho  Ho0_2  1  0.33333350  0.66666650  0.41781409  1
  Ho  Ho0_3  1  0.33333350  0.66666650  0.91781409  1
  Ho  Ho0_4  1  0.83333350  0.16666650  0.41781409  1
  Ho  Ho0_5  1  0.83333350  0.16666650  0.91781409  1
  Ho  Ho0_6  1  0.83333350  0.66666650  0.41781409  1
  Ho  Ho0_7  1  0.83333350  0.66666650  0.91781409  1
  Ho  Ho1_0  1  0.33333350  0.16666650  0.25000000  1
  Ho  Ho1_1  1  0.33333350  0.16666650  0.75000000  1
  Ho  Ho1_2  1  0.33333350  0.66666650  0.25000000  1
  Ho  Ho1_3  1  0.33333350  0.66666650  0.75000000  1
  Ho  Ho1_4  1  0.83333350  0.16666650  0.25000000  1
  Ho  Ho1_5  1  0.83333350  0.16666650  0.75000000  1
  Ho  Ho1_6  1  0.83333350  0.66666650  0.25000000  1
  Ho  Ho1_7  1  0.83333350  0.66666650  0.75000000  1
  Ho  Ho2_0  1  0.33333350  0.16666650  0.08218591  1
  Ho  Ho2_1  1  0.33333350  0.16666650  0.58218591  1
  Ho  Ho2_2  1  0.33333350  0.66666650  0.08218591  1
  Ho  Ho2_3  1  0.33333350  0.66666650  0.58218591  1
  Ho  Ho2_4  1  0.83333350  0.16666650  0.08218591  1
  Ho  Ho2_5  1  0.83333350  0.16666650  0.58218591  1
  Ho  Ho2_6  1  0.83333350  0.66666650  0.08218591  1
  Ho  Ho2_7  1  0.83333350  0.66666650  0.58218591  1
  Ho  Ho3_0  1  0.16666650  0.33333350  0.00000000  1
  Ho  Ho3_1  1  0.16666650  0.33333350  0.50000000  1
  Ho  Ho3_2  1  0.16666650  0.83333350  0.00000000  1
  Ho  Ho3_3  1  0.16666650  0.83333350  0.50000000  1
  Ho  Ho3_4  1  0.66666650  0.33333350  0.00000000  1
  Ho  Ho3_5  1  0.66666650  0.33333350  0.50000000  1
  Ho  Ho3_6  1  0.66666650  0.83333350  0.00000000  1
  Ho  Ho3_7  1  0.66666650  0.83333350  0.50000000  1
loop_
_geom_bond_atom_site_label_1
_geom_bond_atom_site_label_2
_geom_bond_distance
_geom_bond_site_symmetry_2
Pr0_0 Pr0_6 3.668991 1_445
Pr0_0 Pr0_6 3.668991 1_555
Pr0_0 Pr0_4 3.668993 1_555
Pr0_0 Pr0_2 3.668993 1_545
Pr0_0 Pr0_2 3.668993 1_555
Pr0_0 Pr0_4 3.668993 1_455
Pr0_0 Pr3_2 3.701844 1_555
Pr0_0 Pr3_6 3.701846 1_555
Pr0_0 Pr3_0 3.701846 1_555
Pr0_0 Pr6_2 3.723600 1_555
Pr0_0 Pr6_0 3.723601 1_555
Pr0_0 Pr6_6 3.723601 1_555
Pr0_1 Pr0_7 3.668991 1_445
Pr0_1 Pr0_7 3.668991 1_555
Pr0_1 Pr0_5 3.668993 1_555
Pr0_1 Pr0_3 3.668993 1_555
Pr0_1 Pr0_3 3.668993 1_545
Pr0_1 Pr0_5 3.668993 1_455
Pr0_1 Pr3_3 3.701844 1_555
Pr0_1 Pr3_1 3.701846 1_555
Pr0_1 Pr3_7 3.701846 1_555
Pr0_1 Pr6_3 3.723600 1_555
Pr0_1 Pr6_1 3.723601 1_555
Pr0_1 Pr6_7 3.723601 1_555
Pr0_2 Pr0_4 3.668991 1_565
Pr0_2 Pr0_4 3.668991 1_455
Pr0_2 Pr0_6 3.668993 1_455
Pr0_2 Pr0_6 3.668993 1_555
Pr0_2 Pr3_0 3.701844 1_565
Pr0_2 Pr3_4 3.701846 1_565
Pr0_2 Pr3_2 3.701846 1_555
Pr0_2 Pr6_0 3.723600 1_565
Pr0_2 Pr6_4 3.723601 1_565
Pr0_2 Pr6_2 3.723601 1_555
Pr0_3 Pr0_5 3.668991 1_565
Pr0_3 Pr0_5 3.668991 1_455
Pr0_3 Pr0_7 3.668993 1_455
Pr0_3 Pr0_7 3.668993 1_555
Pr0_3 Pr3_1 3.701844 1_565
Pr0_3 Pr3_3 3.701846 1_555
Pr0_3 Pr3_5 3.701846 1_565
Pr0_3 Pr6_1 3.723600 1_565
Pr0_3 Pr6_5 3.723601 1_565
Pr0_3 Pr6_3 3.723601 1_555
Pr0_4 Pr0_6 3.668993 1_555
Pr0_4 Pr0_6 3.668993 1_545
Pr0_4 Pr3_6 3.701844 1_555
Pr0_4 Pr3_4 3.701846 1_555
Pr0_4 Pr3_2 3.701846 1_655
Pr0_4 Pr6_6 3.723600 1_555
Pr0_4 Pr6_4 3.723601 1_555
Pr0_4 Pr6_2 3.723601 1_655
Pr0_5 Pr0_7 3.668993 1_555
Pr0_5 Pr0_7 3.668993 1_545
Pr0_5 Pr3_7 3.701844 1_555
Pr0_5 Pr3_5 3.701846 1_555
Pr0_5 Pr3_3 3.701846 1_655
Pr0_5 Pr6_7 3.723600 1_555
Pr0_5 Pr6_5 3.723601 1_555
Pr0_5 Pr6_3 3.723601 1_655
Pr0_6 Pr3_4 3.701844 1_565
Pr0_6 Pr3_0 3.701846 1_665
Pr0_6 Pr3_6 3.701846 1_555
Pr0_6 Pr6_4 3.723600 1_565
Pr0_6 Pr6_0 3.723601 1_665
Pr0_6 Pr6_6 3.723601 1_555
Pr0_7 Pr3_5 3.701844 1_565
Pr0_7 Pr3_1 3.701846 1_665
Pr0_7 Pr3_7 3.701846 1_555
Pr0_7 Pr6_5 3.723600 1_565
Pr0_7 Pr6_1 3.723601 1_665
Pr0_7 Pr6_7 3.723601 1_555
Pr1_0 Pr1_6 3.668991 1_445
Pr1_0 Pr1_6 3.668991 1_555
Pr1_0 Pr1_4 3.668993 1_555
Pr1_0 Pr1_2 3.668993 1_555
Pr1_0 Pr1_2 3.668993 1_545
Pr1_0 Pr1_4 3.668993 1_455
Pr1_0 Pr7_2 3.701844 1_555
Pr1_0 Pr7_0 3.701846 1_555
Pr1_0 Pr7_6 3.701846 1_555
Pr1_0 Pr4_2 3.723600 1_555
Pr1_0 Pr4_0 3.723601 1_555
Pr1_0 Pr4_6 3.723601 1_555
Pr1_1 Pr1_7 3.668991 1_445
Pr1_1 Pr1_7 3.668991 1_555
Pr1_1 Pr1_5 3.668993 1_555
Pr1_1 Pr1_3 3.668993 1_555
Pr1_1 Pr1_3 3.668993 1_545
Pr1_1 Pr1_5 3.668993 1_455
Pr1_1 Pr7_3 3.701844 1_555
Pr1_1 Pr7_1 3.701846 1_555
Pr1_1 Pr7_7 3.701846 1_555
Pr1_1 Pr4_3 3.723600 1_555
Pr1_1 Pr4_7 3.723601 1_555
Pr1_1 Pr4_1 3.723601 1_555
Pr1_2 Pr1_4 3.668991 1_565
Pr1_2 Pr1_4 3.668991 1_455
Pr1_2 Pr1_6 3.668993 1_455
Pr1_2 Pr1_6 3.668993 1_555
Pr1_2 Pr7_0 3.701844 1_565
Pr1_2 Pr7_4 3.701846 1_565
Pr1_2 Pr7_2 3.701846 1_555
Pr1_2 Pr4_0 3.723600 1_565
Pr1_2 Pr4_4 3.723601 1_565
Pr1_2 Pr4_2 3.723601 1_555
Pr1_3 Pr1_5 3.668991 1_565
Pr1_3 Pr1_5 3.668991 1_455
Pr1_3 Pr1_7 3.668993 1_455
Pr1_3 Pr1_7 3.668993 1_555
Pr1_3 Pr7_1 3.701844 1_565
Pr1_3 Pr7_5 3.701846 1_565
Pr1_3 Pr7_3 3.701846 1_555
Pr1_3 Pr4_1 3.723600 1_565
Pr1_3 Pr4_5 3.723601 1_565
Pr1_3 Pr4_3 3.723601 1_555
Pr1_4 Pr1_6 3.668993 1_555
Pr1_4 Pr1_6 3.668993 1_545
Pr1_4 Pr7_6 3.701844 1_555
Pr1_4 Pr7_4 3.701846 1_555
Pr1_4 Pr7_2 3.701846 1_655
Pr1_4 Pr4_6 3.723600 1_555
Pr1_4 Pr4_4 3.723601 1_555
Pr1_4 Pr4_2 3.723601 1_655
Pr1_5 Pr1_7 3.668993 1_555
Pr1_5 Pr1_7 3.668993 1_545
Pr1_5 Pr7_7 3.701844 1_555
Pr1_5 Pr7_5 3.701846 1_555
Pr1_5 Pr7_3 3.701846 1_655
Pr1_5 Pr4_7 3.723600 1_555
Pr1_5 Pr4_5 3.723601 1_555
Pr1_5 Pr4_3 3.723601 1_655
Pr1_6 Pr7_4 3.701844 1_565
Pr1_6 Pr7_0 3.701846 1_665
Pr1_6 Pr7_6 3.701846 1_555
Pr1_6 Pr4_4 3.723600 1_565
Pr1_6 Pr4_0 3.723601 1_665
Pr1_6 Pr4_6 3.723601 1_555
Pr1_7 Pr7_5 3.701844 1_565
Pr1_7 Pr7_1 3.701846 1_665
Pr1_7 Pr7_7 3.701846 1_555
Pr1_7 Pr4_5 3.723600 1_565
Pr1_7 Pr4_1 3.723601 1_665
Pr1_7 Pr4_7 3.723601 1_555
Pr2_0 Pr2_6 3.668991 1_445
Pr2_0 Pr2_6 3.668991 1_555
Pr2_0 Pr2_4 3.668993 1_555
Pr2_0 Pr2_2 3.668993 1_545
Pr2_0 Pr2_4 3.668993 1_455
Pr2_0 Pr2_2 3.668993 1_555
Pr2_1 Pr2_7 3.668991 1_445
Pr2_1 Pr2_7 3.668991 1_555
Pr2_1 Pr2_5 3.668993 1_555
Pr2_1 Pr2_5 3.668993 1_455
Pr2_1 Pr2_3 3.668993 1_545
Pr2_1 Pr2_3 3.668993 1_555
Pr2_2 Pr2_4 3.668991 1_565
Pr2_2 Pr2_4 3.668991 1_455
Pr2_2 Pr2_6 3.668993 1_455
Pr2_2 Pr2_6 3.668993 1_555
Pr2_3 Pr2_5 3.668991 1_565
Pr2_3 Pr2_5 3.668991 1_455
Pr2_3 Pr2_7 3.668993 1_555
Pr2_3 Pr2_7 3.668993 1_455
Pr2_4 Pr2_6 3.668993 1_555
Pr2_4 Pr2_6 3.668993 1_545
Pr2_5 Pr2_7 3.668993 1_555
Pr2_5 Pr2_7 3.668993 1_545
Pr3_0 Pr3_6 3.668991 1_555
Pr3_0 Pr3_6 3.668991 1_445
Pr3_0 Pr3_4 3.668993 1_555
Pr3_0 Pr3_2 3.668993 1_545
Pr3_0 Pr3_4 3.668993 1_455
Pr3_0 Pr3_2 3.668993 1_555
Pr3_1 Pr3_7 3.668991 1_555
Pr3_1 Pr3_7 3.668991 1_445
Pr3_1 Pr3_5 3.668993 1_555
Pr3_1 Pr3_3 3.668993 1_545
Pr3_1 Pr3_5 3.668993 1_455
Pr3_1 Pr3_3 3.668993 1_555
Pr3_2 Pr3_4 3.668991 1_565
Pr3_2 Pr3_4 3.668991 1_455
Pr3_2 Pr3_6 3.668993 1_455
Pr3_2 Pr3_6 3.668993 1_555
Pr3_3 Pr3_5 3.668991 1_565
Pr3_3 Pr3_5 3.668991 1_455
Pr3_3 Pr3_7 3.668993 1_555
Pr3_3 Pr3_7 3.668993 1_455
Pr3_4 Pr3_6 3.668993 1_555
Pr3_4 Pr3_6 3.668993 1_545
Pr3_5 Pr3_7 3.668993 1_555
Pr3_5 Pr3_7 3.668993 1_545
Pr4_0 Pr4_6 3.668991 1_445
Pr4_0 Pr4_6 3.668991 1_555
Pr4_0 Pr4_4 3.668993 1_555
Pr4_0 Pr4_4 3.668993 1_455
Pr4_0 Pr4_2 3.668993 1_545
Pr4_0 Pr4_2 3.668993 1_555
Pr4_1 Pr4_7 3.668991 1_555
Pr4_1 Pr4_7 3.668991 1_445
Pr4_1 Pr4_5 3.668993 1_555
Pr4_1 Pr4_3 3.668993 1_545
Pr4_1 Pr4_5 3.668993 1_455
Pr4_1 Pr4_3 3.668993 1_555
Pr4_2 Pr4_4 3.668991 1_565
Pr4_2 Pr4_4 3.668991 1_455
Pr4_2 Pr4_6 3.668993 1_455
Pr4_2 Pr4_6 3.668993 1_555
Pr4_3 Pr4_5 3.668991 1_565
Pr4_3 Pr4_5 3.668991 1_455
Pr4_3 Pr4_7 3.668993 1_455
Pr4_3 Pr4_7 3.668993 1_555
Pr4_4 Pr4_6 3.668993 1_555
Pr4_4 Pr4_6 3.668993 1_545
Pr4_5 Pr4_7 3.668993 1_555
Pr4_5 Pr4_7 3.668993 1_545
Pr5_0 Pr5_6 3.668991 1_555
Pr5_0 Pr5_6 3.668991 1_445
Pr5_0 Pr5_4 3.668993 1_555
Pr5_0 Pr5_4 3.668993 1_455
Pr5_0 Pr5_2 3.668993 1_545
Pr5_0 Pr5_2 3.668993 1_555
Pr5_1 Pr5_7 3.668991 1_445
Pr5_1 Pr5_7 3.668991 1_555
Pr5_1 Pr5_5 3.668993 1_555
Pr5_1 Pr5_5 3.668993 1_455
Pr5_1 Pr5_3 3.668993 1_545
Pr5_1 Pr5_3 3.668993 1_555
Pr5_2 Pr5_4 3.668991 1_565
Pr5_2 Pr5_4 3.668991 1_455
Pr5_2 Pr5_6 3.668993 1_455
Pr5_2 Pr5_6 3.668993 1_555
Pr5_3 Pr5_5 3.668991 1_565
Pr5_3 Pr5_5 3.668991 1_455
Pr5_3 Pr5_7 3.668993 1_455
Pr5_3 Pr5_7 3.668993 1_555
Pr5_4 Pr5_6 3.668993 1_555
Pr5_4 Pr5_6 3.668993 1_545
Pr5_5 Pr5_7 3.668993 1_555
Pr5_5 Pr5_7 3.668993 1_545
Pr6_0 Pr6_6 3.668991 1_445
Pr6_0 Pr6_6 3.668991 1_555
Pr6_0 Pr6_4 3.668993 1_555
Pr6_0 Pr6_4 3.668993 1_455
Pr6_0 Pr6_2 3.668993 1_545
Pr6_0 Pr6_2 3.668993 1_555
Pr6_1 Pr6_7 3.668991 1_555
Pr6_1 Pr6_7 3.668991 1_445
Pr6_1 Pr6_5 3.668993 1_555
Pr6_1 Pr6_3 3.668993 1_545
Pr6_1 Pr6_5 3.668993 1_455
Pr6_1 Pr6_3 3.668993 1_555
Pr6_2 Pr6_4 3.668991 1_565
Pr6_2 Pr6_4 3.668991 1_455
Pr6_2 Pr6_6 3.668993 1_555
Pr6_2 Pr6_6 3.668993 1_455
Pr6_3 Pr6_5 3.668991 1_565
Pr6_3 Pr6_5 3.668991 1_455
Pr6_3 Pr6_7 3.668993 1_455
Pr6_3 Pr6_7 3.668993 1_555
Pr6_4 Pr6_6 3.668993 1_555
Pr6_4 Pr6_6 3.668993 1_545
Pr6_5 Pr6_7 3.668993 1_555
Pr6_5 Pr6_7 3.668993 1_545
Pr7_0 Pr7_6 3.668991 1_555
Pr7_0 Pr7_6 3.668991 1_445
Pr7_0 Pr7_4 3.668993 1_555
Pr7_0 Pr7_4 3.668993 1_455
Pr7_0 Pr7_2 3.668993 1_545
Pr7_0 Pr7_2 3.668993 1_555
Pr7_1 Pr7_7 3.668991 1_555
Pr7_1 Pr7_7 3.668991 1_445
Pr7_1 Pr7_5 3.668993 1_555
Pr7_1 Pr7_5 3.668993 1_455
Pr7_1 Pr7_3 3.668993 1_545
Pr7_1 Pr7_3 3.668993 1_555
Pr7_2 Pr7_4 3.668991 1_565
Pr7_2 Pr7_4 3.668991 1_455
Pr7_2 Pr7_6 3.668993 1_555
Pr7_2 Pr7_6 3.668993 1_455
Pr7_3 Pr7_5 3.668991 1_565
Pr7_3 Pr7_5 3.668991 1_455
Pr7_3 Pr7_7 3.668993 1_555
Pr7_3 Pr7_7 3.668993 1_455
Pr7_4 Pr7_6 3.668993 1_555
Pr7_4 Pr7_6 3.668993 1_545
Pr7_5 Pr7_7 3.668993 1_555
Pr7_5 Pr7_7 3.668993 1_545
Ho0_0 Pr6_4 3.593323 1_555
Ho0_0 Pr6_6 3.593324 1_555
Ho0_0 Pr6_0 3.593324 1_555
Ho0_0 Pr2_4 3.604339 1_555
Ho0_0 Pr2_0 3.604341 1_555
Ho0_0 Pr2_6 3.604341 1_555
Ho0_0 Ho0_6 3.668991 1_445
Ho0_0 Ho0_6 3.668991 1_555
Ho0_0 Ho0_4 3.668993 1_555
Ho0_0 Ho0_4 3.668993 1_455
Ho0_0 Ho0_2 3.668993 1_545
Ho0_0 Ho0_2 3.668993 1_555
Ho0_1 Pr6_5 3.593323 1_555
Ho0_1 Pr6_7 3.593324 1_555
Ho0_1 Pr6_1 3.593324 1_555
Ho0_1 Pr2_5 3.604339 1_555
Ho0_1 Pr2_7 3.604341 1_555
Ho0_1 Pr2_1 3.604341 1_555
Ho0_1 Ho0_7 3.668991 1_445
Ho0_1 Ho0_7 3.668991 1_555
Ho0_1 Ho0_5 3.668993 1_555
Ho0_1 Ho0_3 3.668993 1_545
Ho0_1 Ho0_3 3.668993 1_555
Ho0_1 Ho0_5 3.668993 1_455
Ho0_2 Pr6_6 3.593323 1_555
Ho0_2 Pr6_2 3.593324 1_555
Ho0_2 Pr6_4 3.593324 1_565
Ho0_2 Pr2_6 3.604339 1_555
Ho0_2 Pr2_2 3.604341 1_555
Ho0_2 Pr2_4 3.604341 1_565
Ho0_2 Ho0_4 3.668991 1_565
Ho0_2 Ho0_4 3.668991 1_455
Ho0_2 Ho0_6 3.668993 1_555
Ho0_2 Ho0_6 3.668993 1_455
Ho0_3 Pr6_7 3.593323 1_555
Ho0_3 Pr6_3 3.593324 1_555
Ho0_3 Pr6_5 3.593324 1_565
Ho0_3 Pr2_7 3.604339 1_555
Ho0_3 Pr2_3 3.604341 1_555
Ho0_3 Pr2_5 3.604341 1_565
Ho0_3 Ho0_5 3.668991 1_565
Ho0_3 Ho0_5 3.668991 1_455
Ho0_3 Ho0_7 3.668993 1_555
Ho0_3 Ho0_7 3.668993 1_455
Ho0_4 Pr6_0 3.593323 1_655
Ho0_4 Pr6_4 3.593324 1_555
Ho0_4 Pr6_2 3.593324 1_655
Ho0_4 Pr2_0 3.604339 1_655
Ho0_4 Pr2_4 3.604341 1_555
Ho0_4 Pr2_2 3.604341 1_655
Ho0_4 Ho0_6 3.668993 1_545
Ho0_4 Ho0_6 3.668993 1_555
Ho0_5 Pr6_1 3.593323 1_655
Ho0_5 Pr6_5 3.593324 1_555
Ho0_5 Pr6_3 3.593324 1_655
Ho0_5 Pr2_1 3.604339 1_655
Ho0_5 Pr2_5 3.604341 1_555
Ho0_5 Pr2_3 3.604341 1_655
Ho0_5 Ho0_7 3.668993 1_545
Ho0_5 Ho0_7 3.668993 1_555
Ho0_6 Pr6_2 3.593323 1_655
Ho0_6 Pr6_0 3.593324 1_665
Ho0_6 Pr6_6 3.593324 1_555
Ho0_6 Pr2_2 3.604339 1_655
Ho0_6 Pr2_0 3.604341 1_665
Ho0_6 Pr2_6 3.604341 1_555
Ho0_7 Pr6_3 3.593323 1_655
Ho0_7 Pr6_1 3.593324 1_665
Ho0_7 Pr6_7 3.593324 1_555
Ho0_7 Pr2_3 3.604339 1_655
Ho0_7 Pr2_1 3.604341 1_665
Ho0_7 Pr2_7 3.604341 1_555
Ho1_0 Pr7_4 3.580199 1_555
Ho1_0 Pr3_4 3.580199 1_555
Ho1_0 Pr7_6 3.580201 1_555
Ho1_0 Pr7_0 3.580201 1_555
Ho1_0 Pr3_0 3.580201 1_555
Ho1_0 Pr3_6 3.580201 1_555
Ho1_0 Ho1_6 3.668991 1_445
Ho1_0 Ho1_6 3.668991 1_555
Ho1_0 Ho1_4 3.668993 1_555
Ho1_0 Ho1_4 3.668993 1_455
Ho1_0 Ho1_2 3.668993 1_545
Ho1_0 Ho1_2 3.668993 1_555
Ho1_1 Pr7_5 3.580199 1_555
Ho1_1 Pr3_5 3.580199 1_555
Ho1_1 Pr7_7 3.580201 1_555
Ho1_1 Pr7_1 3.580201 1_555
Ho1_1 Pr3_1 3.580201 1_555
Ho1_1 Pr3_7 3.580201 1_555
Ho1_1 Ho1_7 3.668991 1_445
Ho1_1 Ho1_7 3.668991 1_555
Ho1_1 Ho1_5 3.668993 1_555
Ho1_1 Ho1_5 3.668993 1_455
Ho1_1 Ho1_3 3.668993 1_555
Ho1_1 Ho1_3 3.668993 1_545
Ho1_2 Pr7_6 3.580199 1_555
Ho1_2 Pr3_6 3.580199 1_555
Ho1_2 Pr7_2 3.580201 1_555
Ho1_2 Pr7_4 3.580201 1_565
Ho1_2 Pr3_2 3.580201 1_555
Ho1_2 Pr3_4 3.580201 1_565
Ho1_2 Ho1_4 3.668991 1_565
Ho1_2 Ho1_4 3.668991 1_455
Ho1_2 Ho1_6 3.668993 1_555
Ho1_2 Ho1_6 3.668993 1_455
Ho1_3 Pr7_7 3.580199 1_555
Ho1_3 Pr3_7 3.580199 1_555
Ho1_3 Pr7_3 3.580201 1_555
Ho1_3 Pr7_5 3.580201 1_565
Ho1_3 Pr3_3 3.580201 1_555
Ho1_3 Pr3_5 3.580201 1_565
Ho1_3 Ho1_5 3.668991 1_565
Ho1_3 Ho1_5 3.668991 1_455
Ho1_3 Ho1_7 3.668993 1_555
Ho1_3 Ho1_7 3.668993 1_455
Ho1_4 Pr7_0 3.580199 1_655
Ho1_4 Pr3_0 3.580199 1_655
Ho1_4 Pr7_4 3.580201 1_555
Ho1_4 Pr7_2 3.580201 1_655
Ho1_4 Pr3_4 3.580201 1_555
Ho1_4 Pr3_2 3.580201 1_655
Ho1_4 Ho1_6 3.668993 1_545
Ho1_4 Ho1_6 3.668993 1_555
Ho1_5 Pr7_1 3.580199 1_655
Ho1_5 Pr3_1 3.580199 1_655
Ho1_5 Pr7_3 3.580201 1_655
Ho1_5 Pr7_5 3.580201 1_555
Ho1_5 Pr3_5 3.580201 1_555
Ho1_5 Pr3_3 3.580201 1_655
Ho1_5 Ho1_7 3.668993 1_545
Ho1_5 Ho1_7 3.668993 1_555
Ho1_6 Pr7_2 3.580199 1_655
Ho1_6 Pr3_2 3.580199 1_655
Ho1_6 Pr7_0 3.580201 1_665
Ho1_6 Pr7_6 3.580201 1_555
Ho1_6 Pr3_0 3.580201 1_665
Ho1_6 Pr3_6 3.580201 1_555
Ho1_7 Pr7_3 3.580199 1_655
Ho1_7 Pr3_3 3.580199 1_655
Ho1_7 Pr7_1 3.580201 1_665
Ho1_7 Pr7_7 3.580201 1_555
Ho1_7 Pr3_1 3.580201 1_665
Ho1_7 Pr3_7 3.580201 1_555
Ho2_0 Pr4_4 3.593323 1_555
Ho2_0 Pr4_0 3.593324 1_555
Ho2_0 Pr4_6 3.593324 1_555
Ho2_0 Pr5_4 3.604339 1_555
Ho2_0 Pr5_0 3.604341 1_555
Ho2_0 Pr5_6 3.604341 1_555
Ho2_0 Ho2_6 3.668991 1_445
Ho2_0 Ho2_6 3.668991 1_555
Ho2_0 Ho2_4 3.668993 1_555
Ho2_0 Ho2_2 3.668993 1_555
Ho2_0 Ho2_4 3.668993 1_455
Ho2_0 Ho2_2 3.668993 1_545
Ho2_1 Pr4_5 3.593323 1_555
Ho2_1 Pr4_7 3.593324 1_555
Ho2_1 Pr4_1 3.593324 1_555
Ho2_1 Pr5_5 3.604339 1_555
Ho2_1 Pr5_7 3.604341 1_555
Ho2_1 Pr5_1 3.604341 1_555
Ho2_1 Ho2_7 3.668991 1_445
Ho2_1 Ho2_7 3.668991 1_555
Ho2_1 Ho2_5 3.668993 1_555
Ho2_1 Ho2_5 3.668993 1_455
Ho2_1 Ho2_3 3.668993 1_545
Ho2_1 Ho2_3 3.668993 1_555
Ho2_2 Pr4_6 3.593323 1_555
Ho2_2 Pr4_2 3.593324 1_555
Ho2_2 Pr4_4 3.593324 1_565
Ho2_2 Pr5_6 3.604339 1_555
Ho2_2 Pr5_2 3.604341 1_555
Ho2_2 Pr5_4 3.604341 1_565
Ho2_2 Ho2_4 3.668991 1_565
Ho2_2 Ho2_4 3.668991 1_455
Ho2_2 Ho2_6 3.668993 1_555
Ho2_2 Ho2_6 3.668993 1_455
Ho2_3 Pr4_7 3.593323 1_555
Ho2_3 Pr4_3 3.593324 1_555
Ho2_3 Pr4_5 3.593324 1_565
Ho2_3 Pr5_7 3.604339 1_555
Ho2_3 Pr5_3 3.604341 1_555
Ho2_3 Pr5_5 3.604341 1_565
Ho2_3 Ho2_5 3.668991 1_565
Ho2_3 Ho2_5 3.668991 1_455
Ho2_3 Ho2_7 3.668993 1_555
Ho2_3 Ho2_7 3.668993 1_455
Ho2_4 Pr4_0 3.593323 1_655
Ho2_4 Pr4_4 3.593324 1_555
Ho2_4 Pr4_2 3.593324 1_655
Ho2_4 Pr5_0 3.604339 1_655
Ho2_4 Pr5_4 3.604341 1_555
Ho2_4 Pr5_2 3.604341 1_655
Ho2_4 Ho2_6 3.668993 1_545
Ho2_4 Ho2_6 3.668993 1_555
Ho2_5 Pr4_1 3.593323 1_655
Ho2_5 Pr4_5 3.593324 1_555
Ho2_5 Pr4_3 3.593324 1_655
Ho2_5 Pr5_1 3.604339 1_655
Ho2_5 Pr5_5 3.604341 1_555
Ho2_5 Pr5_3 3.604341 1_655
Ho2_5 Ho2_7 3.668993 1_545
Ho2_5 Ho2_7 3.668993 1_555
Ho2_6 Pr4_2 3.593323 1_655
Ho2_6 Pr4_0 3.593324 1_665
Ho2_6 Pr4_6 3.593324 1_555
Ho2_6 Pr5_2 3.604339 1_655
Ho2_6 Pr5_0 3.604341 1_665
Ho2_6 Pr5_6 3.604341 1_555
Ho2_7 Pr4_3 3.593323 1_655
Ho2_7 Pr4_1 3.593324 1_665
Ho2_7 Pr4_7 3.593324 1_555
Ho2_7 Pr5_3 3.604339 1_655
Ho2_7 Pr5_1 3.604341 1_665
Ho2_7 Pr5_7 3.604341 1_555
Ho3_0 Pr2_3 3.595655 1_554
Ho3_0 Pr5_2 3.595655 1_555
Ho3_0 Pr5_6 3.595656 1_555
Ho3_0 Pr5_0 3.595656 1_555
Ho3_0 Pr2_7 3.595656 1_554
Ho3_0 Pr2_1 3.595656 1_554
Ho3_0 Ho3_6 3.668991 1_445
Ho3_0 Ho3_6 3.668991 1_555
Ho3_0 Ho3_4 3.668993 1_555
Ho3_0 Ho3_2 3.668993 1_545
Ho3_0 Ho3_2 3.668993 1_555
Ho3_0 Ho3_4 3.668993 1_455
Ho3_1 Pr2_2 3.595655 1_555
Ho3_1 Pr5_3 3.595655 1_555
Ho3_1 Pr5_7 3.595656 1_555
Ho3_1 Pr2_0 3.595656 1_555
Ho3_1 Pr5_1 3.595656 1_555
Ho3_1 Pr2_6 3.595656 1_555
Ho3_1 Ho3_7 3.668991 1_445
Ho3_1 Ho3_7 3.668991 1_555
Ho3_1 Ho3_5 3.668993 1_555
Ho3_1 Ho3_3 3.668993 1_555
Ho3_1 Ho3_3 3.668993 1_545
Ho3_1 Ho3_5 3.668993 1_455
Ho3_2 Pr5_0 3.595655 1_565
Ho3_2 Pr2_1 3.595655 1_564
Ho3_2 Pr5_2 3.595656 1_555
Ho3_2 Pr5_4 3.595656 1_565
Ho3_2 Pr2_3 3.595656 1_554
Ho3_2 Pr2_5 3.595656 1_564
Ho3_2 Ho3_4 3.668991 1_565
Ho3_2 Ho3_4 3.668991 1_455
Ho3_2 Ho3_6 3.668993 1_455
Ho3_2 Ho3_6 3.668993 1_555
Ho3_3 Pr2_0 3.595655 1_565
Ho3_3 Pr5_1 3.595655 1_565
Ho3_3 Pr5_3 3.595656 1_555
Ho3_3 Pr5_5 3.595656 1_565
Ho3_3 Pr2_2 3.595656 1_555
Ho3_3 Pr2_4 3.595656 1_565
Ho3_3 Ho3_5 3.668991 1_565
Ho3_3 Ho3_5 3.668991 1_455
Ho3_3 Ho3_7 3.668993 1_455
Ho3_3 Ho3_7 3.668993 1_555
Ho3_4 Pr5_6 3.595655 1_555
Ho3_4 Pr2_7 3.595655 1_554
Ho3_4 Pr5_4 3.595656 1_555
Ho3_4 Pr5_2 3.595656 1_655
Ho3_4 Pr2_5 3.595656 1_554
Ho3_4 Pr2_3 3.595656 1_654
Ho3_4 Ho3_6 3.668993 1_555
Ho3_4 Ho3_6 3.668993 1_545
Ho3_5 Pr2_6 3.595655 1_555
Ho3_5 Pr5_7 3.595655 1_555
Ho3_5 Pr2_4 3.595656 1_555
Ho3_5 Pr5_5 3.595656 1_555
Ho3_5 Pr5_3 3.595656 1_655
Ho3_5 Pr2_2 3.595656 1_655
Ho3_5 Ho3_7 3.668993 1_555
Ho3_5 Ho3_7 3.668993 1_545
Ho3_6 Pr5_4 3.595655 1_565
Ho3_6 Pr2_5 3.595655 1_564
Ho3_6 Pr5_0 3.595656 1_665
Ho3_6 Pr2_1 3.595656 1_664
Ho3_6 Pr5_6 3.595656 1_555
Ho3_6 Pr2_7 3.595656 1_554
Ho3_7 Pr2_4 3.595655 1_565
Ho3_7 Pr5_5 3.595655 1_565
Ho3_7 Pr5_1 3.595656 1_665
Ho3_7 Pr2_0 3.595656 1_665
Ho3_7 Pr2_6 3.595656 1_555
Ho3_7 Pr5_7 3.595656 1_555
