# generated using pymatgen
data_Hf5Sc5Ge6
_symmetry_space_group_name_H-M   'P 1'
_cell_length_a   7.96104597
_cell_length_b   7.96104597
_cell_length_c   5.65599500
_cell_angle_alpha   90.00000000
_cell_angle_beta   90.00000000
_cell_angle_gamma   119.86434427
_symmetry_Int_Tables_number   1
_chemical_formula_structural   Hf5Sc5Ge6
_chemical_formula_sum   'Hf5 Sc5 Ge6'
_cell_volume   310.86508902
_cell_formula_units_Z   1
loop_
 _symmetry_equiv_pos_site_id
 _symmetry_equiv_pos_as_xyz
  1  'x, y, z'
loop_
 _atom_site_type_symbol
 _atom_site_label
 _atom_site_symmetry_multiplicity
 _atom_site_fract_x
 _atom_site_fract_y
 _atom_site_fract_z
 _atom_site_occupancy
  Hf  Hf0  1  0.24376600  0.99870700  0.50000000  1
  Hf  Hf1  1  0.99870700  0.24376600  0.50000000  1
  Hf  Hf2  1  0.75662400  0.75662400  0.50000000  1
  Hf  Hf3  1  0.75358600  0.99879900  0.00000000  1
  Hf  Hf4  1  0.99879900  0.75358600  0.00000000  1
  Sc  Sc0  1  0.24529600  0.24529600  0.00000000  1
  Sc  Sc1  1  0.66771900  0.33400800  0.25056400  1
  Sc  Sc2  1  0.33400800  0.66771900  0.25056400  1
  Sc  Sc3  1  0.33400800  0.66771900  0.74943600  1
  Sc  Sc4  1  0.66771900  0.33400800  0.74943600  1
  Ge  Ge0  1  0.60866900  0.00018500  0.50000000  1
  Ge  Ge1  1  0.00018500  0.60866900  0.50000000  1
  Ge  Ge2  1  0.39050200  0.39050200  0.50000000  1
  Ge  Ge3  1  0.39126200  0.00065800  0.00000000  1
  Ge  Ge4  1  0.00065800  0.39126200  0.00000000  1
  Ge  Ge5  1  0.60868600  0.60868600  0.00000000  1
loop_
_geom_bond_atom_site_label_1
_geom_bond_atom_site_label_2
_geom_bond_distance
_geom_bond_site_symmetry_2
Ge0 Hf1 2.721297 1_555
Ge0 Hf2 2.724270 1_545
Ge0 Sc2 2.830780 1_545
Ge0 Sc3 2.830780 1_545
Ge0 Sc1 2.833709 1_555
Ge0 Sc4 2.833709 1_555
Ge0 Hf0 2.899168 1_545
Ge0 Hf3 3.056366 1_545
Ge0 Hf3 3.056366 1_546
Ge1 Hf0 2.721297 1_555
Ge1 Hf2 2.724270 1_455
Ge1 Sc4 2.830780 1_455
Ge1 Sc1 2.830780 1_455
Ge1 Sc3 2.833709 1_555
Ge1 Sc2 2.833709 1_555
Ge1 Hf1 2.899168 1_455
Ge1 Hf4 3.056366 1_455
Ge1 Hf4 3.056366 1_456
Ge2 Hf1 2.732162 1_455
Ge2 Hf0 2.732162 1_545
Ge2 Sc1 2.837557 1_555
Ge2 Sc4 2.837557 1_555
Ge2 Sc3 2.837557 1_555
Ge2 Sc2 2.837557 1_555
Ge2 Hf2 2.920688 1_555
Ge2 Sc0 3.056038 1_555
Ge2 Sc0 3.056038 1_556
Ge3 Sc0 2.719791 1_555
Ge3 Hf4 2.740532 1_445
Ge3 Sc3 2.835206 1_544
Ge3 Sc2 2.835206 1_545
Ge3 Sc4 2.842232 1_554
Ge3 Sc1 2.842232 1_555
Ge3 Hf3 2.891876 1_545
Ge3 Hf0 3.059158 1_544
Ge3 Hf0 3.059158 1_545
Ge4 Sc0 2.719791 1_555
Ge4 Hf3 2.740532 1_445
Ge4 Sc1 2.835206 1_455
Ge4 Sc4 2.835206 1_454
Ge4 Sc2 2.842232 1_555
Ge4 Sc3 2.842232 1_554
Ge4 Hf4 2.891876 1_455
Ge4 Hf1 3.059158 1_455
Ge4 Hf1 3.059158 1_454
Ge5 Hf3 2.721802 1_555
Ge5 Hf4 2.721802 1_555
Ge5 Sc3 2.834523 1_554
Ge5 Sc2 2.834523 1_555
Ge5 Sc4 2.834523 1_554
Ge5 Sc1 2.834523 1_555
Ge5 Sc0 2.898894 1_555
Ge5 Hf2 3.064366 1_555
Ge5 Hf2 3.064366 1_554
