# generated using pymatgen
data_K16Tl22Pd
_symmetry_space_group_name_H-M   'P 1'
_cell_length_a   10.31750156
_cell_length_b   10.31750156
_cell_length_c   18.48997115
_cell_angle_alpha   90.00000054
_cell_angle_beta   106.20068704
_cell_angle_gamma   59.99999654
_symmetry_Int_Tables_number   1
_chemical_formula_structural   K16Tl22Pd
_chemical_formula_sum   'K16 Tl22 Pd1'
_cell_volume   1613.69272284
_cell_formula_units_Z   1
loop_
 _symmetry_equiv_pos_site_id
 _symmetry_equiv_pos_as_xyz
  1  'x, y, z'
loop_
 _atom_site_type_symbol
 _atom_site_label
 _atom_site_symmetry_multiplicity
 _atom_site_fract_x
 _atom_site_fract_y
 _atom_site_fract_z
 _atom_site_occupancy
  K  K0  1  0.02644003  0.82430926  0.43304592  1
  K  K1  1  0.25735518  0.14925071  0.43304592  1
  K  K2  1  0.58229663  0.59339411  0.43304592  1
  K  K3  1  0.04065628  0.64587231  0.93835320  1
  K  K4  1  0.58422551  0.31347141  0.93835320  1
  K  K5  1  0.25182460  0.10230308  0.93835320  1
  K  K6  1  0.95934372  0.18652859  0.56164680  1
  K  K7  1  0.74817540  0.85412769  0.56164680  1
  K  K8  1  0.41577449  0.39769692  0.56164680  1
  K  K9  1  0.97355997  0.35074929  0.06695408  1
  K  K10  1  0.41770337  0.67569074  0.06695408  1
  K  K11  1  0.74264482  0.90660589  0.06695408  1
  K  K12  1  0.84482012  0.57758994  0.26723017  1
  K  K13  1  0.84509995  0.07745003  0.76764992  1
  K  K14  1  0.15490005  0.42254997  0.73235008  1
  K  K15  1  0.15517988  0.92241006  0.23276983  1
  Tl  Tl0  1  0.23262990  0.01737010  0.75000000  1
  Tl  Tl1  1  0.76737010  0.75000000  0.75000000  1
  Tl  Tl2  1  0.50000000  0.48262990  0.75000000  1
  Tl  Tl3  1  0.28200598  0.25000000  0.25000000  1
  Tl  Tl4  1  0.50000000  0.46799402  0.25000000  1
  Tl  Tl5  1  0.71799402  0.03200598  0.25000000  1
  Tl  Tl6  1  0.57311245  0.91733857  0.34420319  1
  Tl  Tl7  1  0.26154176  0.50954898  0.34420319  1
  Tl  Tl8  1  0.85375217  0.22890926  0.34420319  1
  Tl  Tl9  1  0.57019547  0.99601438  0.84398779  1
  Tl  Tl10  1  0.84000217  0.43379016  0.84398779  1
  Tl  Tl11  1  0.27777795  0.72620767  0.84398779  1
  Tl  Tl12  1  0.42980453  0.06620984  0.65601221  1
  Tl  Tl13  1  0.72222205  0.50398562  0.65601221  1
  Tl  Tl14  1  0.15999783  0.77379233  0.65601221  1
  Tl  Tl15  1  0.42688755  0.99045102  0.15579681  1
  Tl  Tl16  1  0.14624783  0.58266143  0.15579681  1
  Tl  Tl17  1  0.73845824  0.27109074  0.15579681  1
  Tl  Tl18  1  0.39077905  0.80461048  0.58616857  1
  Tl  Tl19  1  0.39686160  0.30156920  0.09529239  1
  Tl  Tl20  1  0.60313840  0.19843080  0.40470761  1
  Tl  Tl21  1  0.60922095  0.69538952  0.91383143  1
  Pd  Pd0  1  0.50000000  0.75000000  0.75000000  1
loop_
_geom_bond_atom_site_label_1
_geom_bond_atom_site_label_2
_geom_bond_distance
_geom_bond_site_symmetry_2
K0 Tl5 3.653060 1_465
K0 Tl7 3.670807 1_555
K0 Tl8 3.772032 1_465
K0 Tl14 3.908766 1_555
K0 Tl18 3.935104 1_555
K0 Tl20 4.014137 1_465
K0 Tl6 4.088935 1_455
K1 Tl3 3.653060 1_555
K1 Tl8 3.670807 1_455
K1 Tl6 3.772032 1_545
K1 Tl12 3.908766 1_555
K1 Tl18 3.935104 1_545
K1 Tl20 4.014137 1_555
K1 Tl7 4.088935 1_555
K2 Tl4 3.653060 1_555
K2 Tl6 3.670807 1_555
K2 Tl7 3.772032 1_555
K2 Tl13 3.908766 1_555
K2 Tl18 3.935104 1_555
K2 Tl20 4.014137 1_555
K2 Tl8 4.088935 1_555
K3 Tl1 3.567158 1_455
K3 Tl11 3.758527 1_555
K3 Tl16 3.823899 1_556
K3 Tl10 3.825277 1_455
K3 Tl19 3.942088 1_556
K3 Tl9 4.170726 1_455
K4 Tl2 3.567158 1_555
K4 Tl9 3.758527 1_545
K4 Tl17 3.823899 1_556
K4 Tl11 3.825277 1_555
K4 Tl19 3.942088 1_556
K4 Tl10 4.170726 1_555
K5 Tl0 3.567158 1_555
K5 Tl10 3.758527 1_455
K5 Tl15 3.823899 1_546
K5 Tl9 3.825277 1_545
K5 Tl19 3.942089 1_556
K5 Tl11 4.170726 1_545
K6 Tl0 3.567158 1_655
K6 Tl13 3.758527 1_555
K6 Tl8 3.823899 1_555
K6 Tl14 3.825277 1_645
K6 Tl20 3.942088 1_555
K6 Tl12 4.170726 1_655
K7 Tl1 3.567158 1_555
K7 Tl14 3.758527 1_655
K7 Tl6 3.823899 1_555
K7 Tl12 3.825277 1_565
K7 Tl20 3.942088 1_565
K7 Tl13 4.170727 1_555
K8 Tl2 3.567158 1_555
K8 Tl12 3.758527 1_555
K8 Tl7 3.823899 1_555
K8 Tl13 3.825277 1_555
K8 Tl20 3.942088 1_555
K8 Tl14 4.170726 1_555
K9 Tl3 3.653060 1_655
K9 Tl17 3.670807 1_555
K9 Tl16 3.772032 1_655
K9 Tl10 3.908766 1_554
K9 Tl21 3.935104 1_554
K9 Tl19 4.014137 1_655
K9 Tl15 4.088935 1_645
K10 Tl4 3.653060 1_555
K10 Tl15 3.670807 1_555
K10 Tl17 3.772032 1_555
K10 Tl11 3.908766 1_554
K10 Tl21 3.935104 1_554
K10 Tl19 4.014137 1_555
K10 Tl16 4.088935 1_555
K11 Tl5 3.653060 1_565
K11 Tl16 3.670807 1_655
K11 Tl15 3.772032 1_555
K11 Tl9 3.908766 1_554
K11 Tl21 3.935104 1_554
K11 Tl19 4.014136 1_565
K11 Tl17 4.088935 1_565
K12 Tl6 3.817257 1_555
K12 Tl7 3.817257 1_655
K12 Tl8 3.817257 1_555
K12 Tl3 4.174640 1_655
K12 Tl5 4.174640 1_565
K12 Tl4 4.174640 1_555
K12 Tl15 4.202176 1_555
K12 Tl16 4.202176 1_655
K12 Tl17 4.202176 1_555
K13 Tl2 3.837592 1_555
K13 Tl0 3.837592 1_655
K13 Tl1 3.837593 1_545
K13 Tl11 3.919190 1_645
K13 Tl10 3.919191 1_555
K13 Tl9 3.919191 1_545
K13 Tl14 4.265613 1_645
K13 Tl13 4.265613 1_555
K13 Tl12 4.265614 1_555
K14 Tl1 3.837592 1_455
K14 Tl0 3.837592 1_555
K14 Tl2 3.837593 1_555
K14 Tl12 3.919190 1_555
K14 Tl13 3.919191 1_455
K14 Tl14 3.919191 1_555
K14 Tl9 4.265613 1_545
K14 Tl10 4.265613 1_455
K14 Tl11 4.265613 1_555
K15 Tl17 3.817257 1_465
K15 Tl16 3.817257 1_555
K15 Tl15 3.817258 1_555
K15 Tl4 4.174640 1_555
K15 Tl5 4.174640 1_465
K15 Tl3 4.174640 1_565
K15 Tl8 4.202176 1_465
K15 Tl7 4.202176 1_555
K15 Tl6 4.202176 1_555
Tl0 Tl12 3.226518 1_555
Tl0 Tl11 3.226518 1_545
Tl0 Tl14 3.324750 1_545
Tl0 Tl9 3.324750 1_545
Tl1 Tl9 3.226518 1_555
Tl1 Tl13 3.226518 1_555
Tl1 Tl12 3.324750 1_565
Tl1 Tl10 3.324750 1_555
Tl3 Tl7 3.144747 1_555
Tl3 Tl6 3.256871 1_545
Tl4 Tl8 3.144747 1_555
Tl4 Tl7 3.256871 1_555
Tl5 Tl6 3.144747 1_545
Tl5 Tl8 3.256871 1_555
Tl10 Tl21 3.148229 1_555
Tl10 Tl2 3.226518 1_555
Tl10 Tl13 3.293109 1_555
Tl11 Tl21 3.148229 1_555
Tl11 Tl14 3.293109 1_555
Tl11 Tl2 3.324750 1_555
Tl12 Tl18 3.148229 1_545
Tl12 Tl9 3.293109 1_545
Tl13 Tl18 3.148229 1_555
Tl13 Tl2 3.324750 1_555
Tl14 Tl18 3.148229 1_555
Tl14 Tl2 3.226518 1_555
Tl15 Tl3 3.144747 1_565
Tl15 Tl19 3.234743 1_565
Tl15 Tl5 3.256871 1_565
Tl15 Tl6 3.303037 1_555
Tl16 Tl4 3.144747 1_555
Tl16 Tl19 3.234743 1_555
Tl16 Tl3 3.256871 1_555
Tl16 Tl7 3.303037 1_555
Tl17 Tl5 3.144747 1_555
Tl17 Tl19 3.234743 1_555
Tl17 Tl4 3.256871 1_555
Tl17 Tl8 3.303037 1_555
Tl19 Tl5 3.520241 1_555
Tl19 Tl3 3.520241 1_555
Tl19 Tl4 3.520241 1_555
Tl20 Tl7 3.234743 1_555
Tl20 Tl6 3.234743 1_545
Tl20 Tl8 3.234743 1_555
Tl20 Tl5 3.520241 1_555
Tl20 Tl4 3.520241 1_555
Tl20 Tl3 3.520241 1_555
Tl21 Tl9 3.148229 1_555
Pd0 Tl0 2.758591 1_565
Pd0 Tl2 2.758591 1_555
Pd0 Tl1 2.758591 1_555
Pd0 Tl21 2.867731 1_555
Pd0 Tl18 2.867731 1_555
Pd0 Tl13 3.335163 1_555
Pd0 Tl10 3.335163 1_555
Pd0 Tl12 3.335163 1_565
Pd0 Tl11 3.335163 1_555
Pd0 Tl14 3.335163 1_555
Pd0 Tl9 3.335163 1_555
