# generated using pymatgen
data_VAu
_symmetry_space_group_name_H-M   'P 1'
_cell_length_a   4.89023904
_cell_length_b   4.89023904
_cell_length_c   4.89023929
_cell_angle_alpha   33.52575299
_cell_angle_beta   33.52575299
_cell_angle_gamma   33.52575311
_symmetry_Int_Tables_number   1
_chemical_formula_structural   VAu
_chemical_formula_sum   'V1 Au1'
_cell_volume   31.77453778
_cell_formula_units_Z   1
loop_
 _symmetry_equiv_pos_site_id
 _symmetry_equiv_pos_as_xyz
  1  'x, y, z'
loop_
 _atom_site_type_symbol
 _atom_site_label
 _atom_site_symmetry_multiplicity
 _atom_site_fract_x
 _atom_site_fract_y
 _atom_site_fract_z
 _atom_site_occupancy
  V  V0  1  0.50000000  0.50000000  0.50000000  1
  Au  Au0  1  0.00000000  0.00000000  0.00000000  1
loop_
_geom_bond_atom_site_label_1
_geom_bond_atom_site_label_2
_geom_bond_distance
_geom_bond_site_symmetry_2
Au0 V0 2.822736 1_554
Au0 V0 2.822736 1_445
Au0 V0 2.822736 1_454
Au0 V0 2.822736 1_544
Au0 V0 2.822736 1_545
Au0 V0 2.822736 1_455
