# generated using pymatgen
data_DyZnGa
_symmetry_space_group_name_H-M   'P 1'
_cell_length_a   4.35432147
_cell_length_b   4.35426368
_cell_length_c   7.24542243
_cell_angle_alpha   90.00000000
_cell_angle_beta   90.00000000
_cell_angle_gamma   120.00045461
_symmetry_Int_Tables_number   1
_chemical_formula_structural   DyZnGa
_chemical_formula_sum   'Dy2 Zn2 Ga2'
_cell_volume   118.96728953
_cell_formula_units_Z   2
loop_
 _symmetry_equiv_pos_site_id
 _symmetry_equiv_pos_as_xyz
  1  'x, y, z'
loop_
 _atom_site_type_symbol
 _atom_site_label
 _atom_site_symmetry_multiplicity
 _atom_site_fract_x
 _atom_site_fract_y
 _atom_site_fract_z
 _atom_site_occupancy
  Dy  Dy0  1  -0.00000000  -0.00000000  0.50000000  1
  Dy  Dy1  1  -0.00000000  -0.00000000  -0.00000000  1
  Zn  Zn0  1  0.33347280  0.66694360  0.75000000  1
  Zn  Zn1  1  0.66652720  0.33305640  0.25000000  1
  Ga  Ga0  1  0.33324596  0.66649193  0.25000000  1
  Ga  Ga1  1  0.66675404  0.33350807  0.75000000  1
loop_
_geom_bond_atom_site_label_1
_geom_bond_atom_site_label_2
_geom_bond_distance
_geom_bond_site_symmetry_2
Dy0 Ga0 3.097985 1_555
Dy0 Ga1 3.097985 1_445
Dy0 Zn1 3.098120 1_555
Dy0 Zn0 3.098120 1_445
Dy0 Zn1 3.098126 1_455
Dy0 Zn0 3.098126 1_545
Dy0 Ga0 3.098814 1_445
Dy0 Ga1 3.098814 1_555
Dy0 Ga1 3.098814 1_455
Dy0 Ga0 3.098814 1_545
Dy0 Zn0 3.099367 1_555
Dy0 Zn1 3.099367 1_445
Dy1 Ga0 3.097985 1_555
Dy1 Ga1 3.097985 1_444
Dy1 Zn1 3.098120 1_555
Dy1 Zn0 3.098120 1_444
Dy1 Zn1 3.098126 1_455
Dy1 Zn0 3.098126 1_544
Dy1 Ga1 3.098814 1_554
Dy1 Ga0 3.098814 1_445
Dy1 Ga1 3.098814 1_454
Dy1 Ga0 3.098814 1_545
Dy1 Zn0 3.099367 1_554
Dy1 Zn1 3.099367 1_445
Ga0 Zn1 2.513538 1_565
Ga0 Zn1 2.514147 1_555
Ga0 Zn1 2.514154 1_455
Ga1 Zn0 2.513538 1_545
Ga1 Zn0 2.514147 1_555
Ga1 Zn0 2.514154 1_655
