# generated using pymatgen
data_Ti4Al(CuO4)3
_symmetry_space_group_name_H-M   'P 1'
_cell_length_a   6.43543997
_cell_length_b   6.43543997
_cell_length_c   6.43543997
_cell_angle_alpha   109.47122063
_cell_angle_beta   109.47122063
_cell_angle_gamma   109.47122063
_symmetry_Int_Tables_number   1
_chemical_formula_structural   Ti4Al(CuO4)3
_chemical_formula_sum   'Ti4 Al1 Cu3 O12'
_cell_volume   205.16951897
_cell_formula_units_Z   1
loop_
 _symmetry_equiv_pos_site_id
 _symmetry_equiv_pos_as_xyz
  1  'x, y, z'
loop_
 _atom_site_type_symbol
 _atom_site_label
 _atom_site_symmetry_multiplicity
 _atom_site_fract_x
 _atom_site_fract_y
 _atom_site_fract_z
 _atom_site_occupancy
  Ti  Ti0  1  0.50000000  0.00000000  0.00000000  1
  Ti  Ti1  1  0.50000000  0.50000000  0.50000000  1
  Ti  Ti2  1  0.00000000  0.50000000  0.00000000  1
  Ti  Ti3  1  0.00000000  0.00000000  0.50000000  1
  Al  Al0  1  0.00000000  0.00000000  0.00000000  1
  Cu  Cu0  1  0.00000000  0.50000000  0.50000000  1
  Cu  Cu1  1  0.50000000  0.50000000  0.00000000  1
  Cu  Cu2  1  0.50000000  0.00000000  0.50000000  1
  O  O0  1  0.29479200  0.82658400  0.12137500  1
  O  O1  1  0.70520800  0.17341600  0.87862500  1
  O  O2  1  0.70520800  0.82658400  0.53179200  1
  O  O3  1  0.87862500  0.70520800  0.17341600  1
  O  O4  1  0.82658400  0.12137500  0.29479200  1
  O  O5  1  0.17341600  0.46820800  0.29479200  1
  O  O6  1  0.46820800  0.29479200  0.17341600  1
  O  O7  1  0.17341600  0.87862500  0.70520800  1
  O  O8  1  0.29479200  0.17341600  0.46820800  1
  O  O9  1  0.12137500  0.29479200  0.82658400  1
  O  O10  1  0.82658400  0.53179200  0.70520800  1
  O  O11  1  0.53179200  0.70520800  0.82658400  1
loop_
_geom_bond_atom_site_label_1
_geom_bond_atom_site_label_2
_geom_bond_distance
_geom_bond_site_symmetry_2
Al0 O3 2.541527 1_445
Al0 O0 2.541527 1_545
Al0 O9 2.541527 1_554
Al0 O7 2.541527 1_544
Al0 O1 2.541527 1_454
Al0 O4 2.541527 1_455
Al0 O5 2.541528 1_555
Al0 O6 2.541528 1_555
Al0 O8 2.541528 1_555
Al0 O11 2.541528 1_444
Al0 O2 2.541528 1_444
Al0 O10 2.541528 1_444
Cu0 O10 1.996486 1_455
Cu0 O5 1.996486 1_555
Cu0 O4 1.996492 1_455
Cu0 O7 1.996492 1_555
Cu1 O11 1.996486 1_554
Cu1 O6 1.996486 1_555
Cu1 O3 1.996492 1_555
Cu1 O9 1.996492 1_554
Cu2 O2 1.996486 1_545
Cu2 O8 1.996486 1_555
Cu2 O0 1.996492 1_545
Cu2 O1 1.996492 1_555
O0 Ti0 1.971263 1_565
O0 Ti2 1.971270 1_555
O1 Ti0 1.971263 1_556
O1 Ti2 1.971270 1_656
O2 Ti3 1.971269 1_665
O2 Ti1 1.971269 1_555
O3 Ti2 1.971263 1_655
O3 Ti3 1.971270 1_665
O4 Ti3 1.971263 1_655
O4 Ti0 1.971270 1_555
O5 Ti1 1.971269 1_555
O5 Ti2 1.971269 1_555
O6 Ti1 1.971269 1_555
O6 Ti0 1.971269 1_555
O7 Ti3 1.971263 1_565
O7 Ti0 1.971270 1_566
O8 Ti1 1.971269 1_555
O8 Ti3 1.971269 1_555
O9 Ti2 1.971263 1_556
O9 Ti3 1.971270 1_555
O10 Ti2 1.971269 1_656
O10 Ti1 1.971269 1_555
O11 Ti0 1.971269 1_566
O11 Ti1 1.971269 1_555
