# generated using pymatgen
data_Sc5Sb3
_symmetry_space_group_name_H-M   'P 1'
_cell_length_a   7.61616863
_cell_length_b   8.76414466
_cell_length_c   11.17943473
_cell_angle_alpha   90.00000000
_cell_angle_beta   90.00107002
_cell_angle_gamma   90.00000000
_symmetry_Int_Tables_number   1
_chemical_formula_structural   Sc5Sb3
_chemical_formula_sum   'Sc20 Sb12'
_cell_volume   746.21836518
_cell_formula_units_Z   4
loop_
 _symmetry_equiv_pos_site_id
 _symmetry_equiv_pos_as_xyz
  1  'x, y, z'
loop_
 _atom_site_type_symbol
 _atom_site_label
 _atom_site_symmetry_multiplicity
 _atom_site_fract_x
 _atom_site_fract_y
 _atom_site_fract_z
 _atom_site_occupancy
  Sc  Sc0  1  0.02731474  0.25000000  0.51044292  1
  Sc  Sc1  1  0.97268500  0.75000000  0.48954660  1
  Sc  Sc2  1  0.47268917  0.75000000  0.01045062  1
  Sc  Sc3  1  0.52730549  0.25000000  0.98955751  1
  Sc  Sc4  1  0.35322506  0.25000000  0.28378104  1
  Sc  Sc5  1  0.64677670  0.75000000  0.71621334  1
  Sc  Sc6  1  0.14676483  0.75000000  0.78382049  1
  Sc  Sc7  1  0.85323232  0.25000000  0.21617875  1
  Sc  Sc8  1  0.18613788  0.25000000  0.77863348  1
  Sc  Sc9  1  0.81385808  0.75000000  0.22136817  1
  Sc  Sc10  1  0.31385688  0.75000000  0.27860120  1
  Sc  Sc11  1  0.68613976  0.25000000  0.72139420  1
  Sc  Sc12  1  0.19777406  0.06177638  0.06136051  1
  Sc  Sc13  1  0.80222337  0.93822448  0.93865316  1
  Sc  Sc14  1  0.30222983  0.93822673  0.56135857  1
  Sc  Sc15  1  0.80222337  0.56177552  0.93865316  1
  Sc  Sc16  1  0.69776795  0.06177176  0.43862590  1
  Sc  Sc17  1  0.19777406  0.43822362  0.06136051  1
  Sc  Sc18  1  0.69776795  0.43822824  0.43862590  1
  Sc  Sc19  1  0.30222983  0.56177327  0.56135857  1
  Sb  Sb0  1  0.41465257  0.25000000  0.53803526  1
  Sb  Sb1  1  0.58536087  0.75000000  0.46197768  1
  Sb  Sb2  1  0.08536002  0.75000000  0.03803056  1
  Sb  Sb3  1  0.91464882  0.25000000  0.96197951  1
  Sb  Sb4  1  0.06637566  0.00380059  0.32685971  1
  Sb  Sb5  1  0.93362170  0.99620264  0.67313568  1
  Sb  Sb6  1  0.43362608  0.99620862  0.82688201  1
  Sb  Sb7  1  0.93362170  0.50379736  0.67313568  1
  Sb  Sb8  1  0.56637528  0.00379077  0.17311531  1
  Sb  Sb9  1  0.06637566  0.49619941  0.32685971  1
  Sb  Sb10  1  0.56637528  0.49620923  0.17311531  1
  Sb  Sb11  1  0.43362608  0.50379138  0.82688201  1
loop_
_geom_bond_atom_site_label_1
_geom_bond_atom_site_label_2
_geom_bond_distance
_geom_bond_site_symmetry_2
Sb0 Sc19 2.875287 1_555
Sb0 Sc14 2.875287 1_545
Sb0 Sc4 2.880654 1_555
Sb0 Sc11 2.911542 1_555
Sb0 Sc18 2.933595 1_555
Sb0 Sc16 2.933595 1_555
Sb0 Sc0 2.966108 1_555
Sb0 Sc8 3.203741 1_555
Sb1 Sc18 2.875268 1_555
Sb1 Sc16 2.875268 1_565
Sb1 Sc5 2.880435 1_555
Sb1 Sc10 2.911771 1_555
Sb1 Sc14 2.933554 1_555
Sb1 Sc19 2.933554 1_555
Sb1 Sc1 2.965977 1_555
Sb1 Sc9 3.203775 1_555
Sb2 Sc12 2.875297 1_565
Sb2 Sc17 2.875297 1_555
Sb2 Sc6 2.880156 1_554
Sb2 Sc9 2.911508 1_455
Sb2 Sc13 2.933529 1_454
Sb2 Sc15 2.933529 1_454
Sb2 Sc2 2.966039 1_555
Sb2 Sc10 3.203354 1_555
Sb3 Sc15 2.875312 1_555
Sb3 Sc13 2.875312 1_545
Sb3 Sc7 2.880051 1_556
Sb3 Sc8 2.911505 1_655
Sb3 Sc17 2.933476 1_656
Sb3 Sc12 2.933476 1_656
Sb3 Sc3 2.966144 1_555
Sb3 Sc11 3.203542 1_555
Sb4 Sc1 2.960536 1_445
Sb4 Sc10 2.965047 1_545
Sb4 Sc7 2.970180 1_455
Sb4 Sc0 2.992738 1_555
Sb4 Sc4 3.108158 1_555
Sb4 Sc16 3.114618 1_455
Sb4 Sc9 3.168157 1_445
Sb4 Sc12 3.173262 1_555
Sb4 Sc14 3.229461 1_545
Sb5 Sc0 2.960560 1_665
Sb5 Sc11 2.965029 1_565
Sb5 Sc6 2.970217 1_655
Sb5 Sc1 2.992805 1_555
Sb5 Sc5 3.108152 1_555
Sb5 Sc14 3.114677 1_655
Sb5 Sc8 3.168157 1_665
Sb5 Sc13 3.173456 1_555
Sb5 Sc16 3.229551 1_565
Sb6 Sc3 2.960360 1_565
Sb6 Sc8 2.964987 1_565
Sb6 Sc5 2.970237 1_555
Sb6 Sc2 2.992678 1_556
Sb6 Sc6 3.108235 1_555
Sb6 Sc13 3.114545 1_555
Sb6 Sc11 3.168094 1_565
Sb6 Sc14 3.173484 1_555
Sb6 Sc12 3.229312 1_566
Sb7 Sc0 2.960560 1_655
Sb7 Sc11 2.965029 1_555
Sb7 Sc6 2.970217 1_655
Sb7 Sc1 2.992805 1_555
Sb7 Sc5 3.108152 1_555
Sb7 Sc19 3.114677 1_655
Sb7 Sc8 3.168157 1_655
Sb7 Sc15 3.173456 1_555
Sb7 Sc18 3.229551 1_555
Sb8 Sc2 2.960294 1_545
Sb8 Sc9 2.964966 1_545
Sb8 Sc4 2.970225 1_555
Sb8 Sc3 2.992604 1_554
Sb8 Sc7 3.108219 1_555
Sb8 Sc12 3.114501 1_555
Sb8 Sc10 3.168104 1_545
Sb8 Sc16 3.173340 1_555
Sb8 Sc13 3.229144 1_544
Sb9 Sc1 2.960536 1_455
Sb9 Sc10 2.965047 1_555
Sb9 Sc7 2.970180 1_455
Sb9 Sc0 2.992738 1_555
Sb9 Sc4 3.108158 1_555
Sb9 Sc18 3.114618 1_455
Sb9 Sc9 3.168157 1_455
Sb9 Sc17 3.173262 1_555
Sb9 Sc19 3.229461 1_555
Sb10 Sc2 2.960294 1_555
Sb10 Sc9 2.964966 1_555
Sb10 Sc4 2.970225 1_555
Sb10 Sc3 2.992604 1_554
Sb10 Sc7 3.108219 1_555
Sb10 Sc17 3.114501 1_555
Sb10 Sc10 3.168104 1_555
Sb10 Sc18 3.173340 1_555
Sb10 Sc15 3.229144 1_554
Sb11 Sc3 2.960360 1_555
Sb11 Sc8 2.964987 1_555
Sb11 Sc5 2.970237 1_555
Sb11 Sc2 2.992678 1_556
Sb11 Sc6 3.108235 1_555
Sb11 Sc15 3.114545 1_555
Sb11 Sc11 3.168094 1_555
Sb11 Sc19 3.173484 1_555
Sb11 Sc17 3.229312 1_556
