# generated using pymatgen
data_YAlN2
_symmetry_space_group_name_H-M   'P 1'
_cell_length_a   5.77922024
_cell_length_b   6.89436800
_cell_length_c   5.73417139
_cell_angle_alpha   90.00000000
_cell_angle_beta   109.05912682
_cell_angle_gamma   90.00000000
_symmetry_Int_Tables_number   1
_chemical_formula_structural   YAlN2
_chemical_formula_sum   'Y4 Al4 N8'
_cell_volume   215.94833695
_cell_formula_units_Z   4
loop_
 _symmetry_equiv_pos_site_id
 _symmetry_equiv_pos_as_xyz
  1  'x, y, z'
loop_
 _atom_site_type_symbol
 _atom_site_label
 _atom_site_symmetry_multiplicity
 _atom_site_fract_x
 _atom_site_fract_y
 _atom_site_fract_z
 _atom_site_occupancy
  Y  Y0  1  0.36784600  0.90259800  0.70183100  1
  Y  Y1  1  0.63215400  0.40259800  0.79816900  1
  Y  Y2  1  0.63215400  0.09740200  0.29816900  1
  Y  Y3  1  0.36784600  0.59740200  0.20183100  1
  Al  Al0  1  0.11677400  0.35135700  0.60555500  1
  Al  Al1  1  0.88322600  0.85135700  0.89444500  1
  Al  Al2  1  0.88322600  0.64864300  0.39444500  1
  Al  Al3  1  0.11677400  0.14864300  0.10555500  1
  N  N0  1  0.22476600  0.89518400  0.03242200  1
  N  N1  1  0.77523400  0.39518400  0.46757800  1
  N  N2  1  0.77523400  0.10481600  0.96757800  1
  N  N3  1  0.22476600  0.60481600  0.53242200  1
  N  N4  1  0.26521900  0.32807900  0.95104600  1
  N  N5  1  0.73478100  0.82807900  0.54895400  1
  N  N6  1  0.73478100  0.67192100  0.04895400  1
  N  N7  1  0.26521900  0.17192100  0.45104600  1
loop_
_geom_bond_atom_site_label_1
_geom_bond_atom_site_label_2
_geom_bond_distance
_geom_bond_site_symmetry_2
Al0 N7 1.883549 1_555
Al0 N4 1.891175 1_555
Al0 N1 1.895624 1_455
Al0 N3 1.946753 1_555
Al1 N6 1.883549 1_556
Al1 N5 1.891175 1_555
Al1 N0 1.895624 1_656
Al1 N2 1.946753 1_565
Al2 N5 1.883549 1_555
Al2 N6 1.891175 1_555
Al2 N3 1.895624 1_655
Al2 N1 1.946753 1_555
Al3 N4 1.883549 1_554
Al3 N7 1.891175 1_555
Al3 N2 1.895624 1_454
Al3 N0 1.946753 1_545
N0 Y0 2.302961 1_554
N0 Y3 2.306012 1_555
N0 Y2 2.732366 1_565
N1 Y1 2.302961 1_555
N1 Y2 2.306012 1_555
N1 Y3 2.732366 1_555
N2 Y2 2.302961 1_556
N2 Y1 2.306012 1_555
N2 Y0 2.732366 1_545
N3 Y3 2.302961 1_555
N3 Y0 2.306012 1_555
N3 Y1 2.732366 1_555
N4 Y3 2.304446 1_556
N4 Y1 2.596810 1_555
N4 Y2 2.869059 1_556
N5 Y2 2.304446 1_565
N5 Y0 2.596810 1_555
N5 Y3 2.869059 1_555
N6 Y1 2.304446 1_554
N6 Y3 2.596810 1_555
N6 Y0 2.869059 1_554
N7 Y0 2.304446 1_545
N7 Y2 2.596810 1_555
N7 Y1 2.869059 1_555
