# generated using pymatgen
data_BaLa2PdO5
_symmetry_space_group_name_H-M   'P 1'
_cell_length_a   5.99747600
_cell_length_b   6.92370300
_cell_length_c   6.92370300
_cell_angle_alpha   90.00000000
_cell_angle_beta   90.00000000
_cell_angle_gamma   90.00000000
_symmetry_Int_Tables_number   1
_chemical_formula_structural   BaLa2PdO5
_chemical_formula_sum   'Ba2 La4 Pd2 O10'
_cell_volume   287.50498473
_cell_formula_units_Z   2
loop_
 _symmetry_equiv_pos_site_id
 _symmetry_equiv_pos_as_xyz
  1  'x, y, z'
loop_
 _atom_site_type_symbol
 _atom_site_label
 _atom_site_symmetry_multiplicity
 _atom_site_fract_x
 _atom_site_fract_y
 _atom_site_fract_z
 _atom_site_occupancy
  Ba  Ba0  1  0.00000000  0.50000000  0.50000000  1
  Ba  Ba1  1  0.00000000  0.00000000  0.00000000  1
  La  La0  1  0.50000000  0.17647000  0.67647000  1
  La  La1  1  0.50000000  0.82353000  0.32353000  1
  La  La2  1  0.50000000  0.32353000  0.17647000  1
  La  La3  1  0.50000000  0.67647000  0.82353000  1
  Pd  Pd0  1  0.00000000  0.00000000  0.50000000  1
  Pd  Pd1  1  0.00000000  0.50000000  0.00000000  1
  O  O0  1  0.24654200  0.35819100  0.85819100  1
  O  O1  1  0.24654200  0.64180900  0.14180900  1
  O  O2  1  0.24654200  0.14180900  0.35819100  1
  O  O3  1  0.24654200  0.85819100  0.64180900  1
  O  O4  1  0.75345800  0.64180900  0.14180900  1
  O  O5  1  0.75345800  0.35819100  0.85819100  1
  O  O6  1  0.75345800  0.85819100  0.64180900  1
  O  O7  1  0.75345800  0.14180900  0.35819100  1
  O  O8  1  0.50000000  0.50000000  0.50000000  1
  O  O9  1  0.50000000  0.00000000  0.00000000  1
loop_
_geom_bond_atom_site_label_1
_geom_bond_atom_site_label_2
_geom_bond_distance
_geom_bond_site_symmetry_2
Ba0 O8 2.998738 1_555
Ba0 O8 2.998738 1_455
Ba0 O3 3.049722 1_555
Ba0 O0 3.049722 1_555
Ba0 O6 3.049722 1_455
Ba0 O5 3.049722 1_455
Ba0 O1 3.049722 1_555
Ba0 O2 3.049722 1_555
Ba0 O7 3.049722 1_455
Ba0 O4 3.049722 1_455
Ba1 O9 2.998738 1_555
Ba1 O9 2.998738 1_455
Ba1 O1 3.049722 1_545
Ba1 O2 3.049722 1_555
Ba1 O3 3.049722 1_544
Ba1 O0 3.049722 1_554
Ba1 O7 3.049722 1_455
Ba1 O4 3.049722 1_445
Ba1 O5 3.049722 1_454
Ba1 O6 3.049722 1_444
La0 O5 2.340251 1_555
La0 O0 2.340251 1_555
La0 O9 2.551583 1_556
La0 O8 2.551583 1_555
La0 O7 2.687839 1_555
La0 O2 2.687839 1_555
La0 O6 2.687839 1_545
La0 O3 2.687839 1_545
La1 O4 2.340251 1_555
La1 O1 2.340251 1_555
La1 O9 2.551583 1_565
La1 O8 2.551583 1_555
La1 O6 2.687839 1_555
La1 O7 2.687839 1_565
La1 O3 2.687839 1_555
La1 O2 2.687839 1_565
La2 O7 2.340251 1_555
La2 O2 2.340251 1_555
La2 O8 2.551583 1_555
La2 O9 2.551583 1_555
La2 O4 2.687839 1_555
La2 O1 2.687839 1_555
La2 O5 2.687839 1_554
La2 O0 2.687839 1_554
La3 O6 2.340251 1_555
La3 O3 2.340251 1_555
La3 O9 2.551583 1_566
La3 O8 2.551583 1_555
La3 O5 2.687839 1_555
La3 O4 2.687839 1_556
La3 O0 2.687839 1_555
La3 O1 2.687839 1_556
O0 Pd1 2.028393 1_556
O1 Pd1 2.028393 1_555
O2 Pd0 2.028393 1_555
O3 Pd0 2.028393 1_565
O4 Pd1 2.028393 1_655
O5 Pd1 2.028393 1_656
O6 Pd0 2.028393 1_665
O7 Pd0 2.028393 1_655
