# generated using pymatgen
data_Ba2As2O7
_symmetry_space_group_name_H-M   'P 1'
_cell_length_a   7.43975196
_cell_length_b   7.45595655
_cell_length_c   13.44730185
_cell_angle_alpha   93.45364370
_cell_angle_beta   97.19341864
_cell_angle_gamma   89.57273381
_symmetry_Int_Tables_number   1
_chemical_formula_structural   Ba2As2O7
_chemical_formula_sum   'Ba8 As8 O28'
_cell_volume   738.71293980
_cell_formula_units_Z   4
loop_
 _symmetry_equiv_pos_site_id
 _symmetry_equiv_pos_as_xyz
  1  'x, y, z'
loop_
 _atom_site_type_symbol
 _atom_site_label
 _atom_site_symmetry_multiplicity
 _atom_site_fract_x
 _atom_site_fract_y
 _atom_site_fract_z
 _atom_site_occupancy
  Ba  Ba0  1  0.12480623  0.65049016  0.63928363  1
  Ba  Ba1  1  0.87519377  0.34950984  0.36071637  1
  Ba  Ba2  1  0.73727568  0.23539213  0.65340155  1
  Ba  Ba3  1  0.26272432  0.76460787  0.34659845  1
  Ba  Ba4  1  0.28781647  0.33030327  0.13976991  1
  Ba  Ba5  1  0.71218353  0.66969673  0.86023009  1
  Ba  Ba6  1  0.33399488  0.08726193  0.84273629  1
  Ba  Ba7  1  0.66600512  0.91273807  0.15726371  1
  As  As0  1  0.40044860  0.23301001  0.39577681  1
  As  As1  1  0.59955140  0.76698999  0.60422319  1
  As  As2  1  0.20209630  0.18385800  0.58893706  1
  As  As3  1  0.79790370  0.81614200  0.41106294  1
  As  As4  1  0.19898518  0.57418081  0.89243941  1
  As  As5  1  0.80101482  0.42581919  0.10756059  1
  As  As6  1  0.80708176  0.15806847  0.91412073  1
  As  As7  1  0.19291824  0.84193153  0.08587927  1
  O  O0  1  0.02251705  0.51057339  0.80715552  1
  O  O1  1  0.97748295  0.48942661  0.19284448  1
  O  O2  1  0.13073040  0.00895815  0.64570824  1
  O  O3  1  0.86926960  0.99104185  0.35429176  1
  O  O4  1  0.25529324  0.39391162  0.35366690  1
  O  O5  1  0.74470676  0.60608838  0.64633310  1
  O  O6  1  0.28557388  0.09906433  0.47600431  1
  O  O7  1  0.71442612  0.90093567  0.52399569  1
  O  O8  1  0.31865090  -0.00004437  0.04190386  1
  O  O9  1  0.68134910  0.00004437  0.95809614  1
  O  O10  1  0.30543525  0.40512144  0.95042736  1
  O  O11  1  0.69456475  0.59487856  0.04957264  1
  O  O12  1  0.66546837  0.29720503  0.84698340  1
  O  O13  1  0.33453163  0.70279497  0.15301660  1
  O  O14  1  0.36380109  0.30284523  0.66217949  1
  O  O15  1  0.63619891  0.69715477  0.33782051  1
  O  O16  1  0.59400016  0.30133368  0.46254452  1
  O  O17  1  0.40599984  0.69866632  0.53745548  1
  O  O18  1  0.42374455  0.08344262  0.29892418  1
  O  O19  1  0.57625545  0.91655738  0.70107582  1
  O  O20  1  0.02495799  0.31744353  0.55190086  1
  O  O21  1  0.97504201  0.68255647  0.44809914  1
  O  O22  1  0.96766232  0.07153223  0.84952729  1
  O  O23  1  0.03233768  0.92846777  0.15047271  1
  O  O24  1  0.08427748  0.70764252  0.98062442  1
  O  O25  1  0.91572252  0.29235748  0.01937558  1
  O  O26  1  0.33506651  0.71077799  0.83920228  1
  O  O27  1  0.66493349  0.28922201  0.16079772  1
loop_
_geom_bond_atom_site_label_1
_geom_bond_atom_site_label_2
_geom_bond_distance
_geom_bond_site_symmetry_2
Ba0 O2 2.669425 1_565
Ba0 O17 2.677393 1_555
Ba0 O21 2.694610 1_455
Ba0 O0 2.736639 1_555
Ba0 O20 2.748842 1_555
Ba0 O5 2.863595 1_455
Ba0 O26 2.947551 1_555
Ba0 O14 3.140893 1_555
Ba1 O3 2.669425 1_545
Ba1 O16 2.677393 1_555
Ba1 O20 2.694610 1_655
Ba1 O1 2.736639 1_555
Ba1 O21 2.748842 1_555
Ba1 O4 2.863595 1_655
Ba1 O27 2.947551 1_555
Ba1 O15 3.140893 1_555
Ba2 O16 2.724703 1_555
Ba2 O12 2.733912 1_555
Ba2 O20 2.769441 1_655
Ba2 O5 2.772446 1_555
Ba2 O19 2.813480 1_545
Ba2 O14 2.835736 1_555
Ba2 O7 2.947028 1_545
Ba2 O22 3.257460 1_555
Ba2 O2 3.377961 1_655
Ba2 O0 3.382739 1_655
Ba3 O17 2.724703 1_555
Ba3 O13 2.733912 1_555
Ba3 O21 2.769441 1_455
Ba3 O4 2.772446 1_555
Ba3 O18 2.813480 1_565
Ba3 O15 2.835736 1_555
Ba3 O6 2.947028 1_565
Ba3 O23 3.257460 1_555
Ba3 O3 3.377961 1_455
Ba3 O1 3.382739 1_455
Ba4 O10 2.658389 1_554
Ba4 O1 2.741778 1_455
Ba4 O8 2.743696 1_555
Ba4 O13 2.793761 1_555
Ba4 O27 2.800790 1_555
Ba4 O4 2.926606 1_555
Ba4 O18 2.982560 1_555
Ba4 O25 3.032924 1_455
Ba5 O11 2.658389 1_556
Ba5 O0 2.741778 1_655
Ba5 O9 2.743696 1_565
Ba5 O12 2.793761 1_555
Ba5 O26 2.800790 1_555
Ba5 O5 2.926606 1_555
Ba5 O19 2.982560 1_555
Ba5 O24 3.032924 1_655
Ba6 O10 2.723049 1_555
Ba6 O22 2.741973 1_455
Ba6 O26 2.804555 1_545
Ba6 O8 2.810268 1_556
Ba6 O2 2.910485 1_555
Ba6 O12 2.923455 1_555
Ba6 O9 2.932591 1_555
Ba6 O19 3.005128 1_545
Ba6 O14 3.022978 1_555
Ba7 O11 2.723049 1_555
Ba7 O23 2.741973 1_655
Ba7 O27 2.804555 1_565
Ba7 O9 2.810268 1_564
Ba7 O3 2.910485 1_555
Ba7 O13 2.923455 1_555
Ba7 O8 2.932591 1_565
Ba7 O18 3.005128 1_565
Ba7 O15 3.022978 1_555
As0 O16 1.664696 1_555
As0 O4 1.683889 1_555
As0 O18 1.687768 1_555
As0 O6 1.806973 1_555
As1 O17 1.664696 1_555
As1 O5 1.683889 1_555
As1 O19 1.687768 1_555
As1 O7 1.806973 1_555
As2 O2 1.672432 1_555
As2 O14 1.678787 1_555
As2 O20 1.688980 1_555
As2 O6 1.790627 1_555
As3 O3 1.672432 1_555
As3 O15 1.678787 1_555
As3 O21 1.688980 1_555
As3 O7 1.790627 1_555
As4 O10 1.665232 1_555
As4 O0 1.682405 1_555
As4 O26 1.691001 1_555
As4 O24 1.795363 1_555
As5 O11 1.665232 1_555
As5 O1 1.682405 1_555
As5 O27 1.691001 1_555
As5 O25 1.795363 1_555
As6 O22 1.667003 1_555
As6 O9 1.688735 1_555
As6 O12 1.691036 1_555
As6 O25 1.792751 1_556
As7 O23 1.667003 1_555
As7 O8 1.688735 1_565
As7 O13 1.691036 1_555
As7 O24 1.792751 1_554
