# generated using pymatgen
data_EuN3O14
_symmetry_space_group_name_H-M   'P 1'
_cell_length_a   6.45224800
_cell_length_b   9.66848204
_cell_length_c   10.45702405
_cell_angle_alpha   115.83731952
_cell_angle_beta   87.59885230
_cell_angle_gamma   102.53047569
_symmetry_Int_Tables_number   1
_chemical_formula_structural   EuN3O14
_chemical_formula_sum   'Eu2 N6 O28'
_cell_volume   572.11810247
_cell_formula_units_Z   2
loop_
 _symmetry_equiv_pos_site_id
 _symmetry_equiv_pos_as_xyz
  1  'x, y, z'
loop_
 _atom_site_type_symbol
 _atom_site_label
 _atom_site_symmetry_multiplicity
 _atom_site_fract_x
 _atom_site_fract_y
 _atom_site_fract_z
 _atom_site_occupancy
  Eu  Eu0  1  0.79313400  0.12084700  0.77310700  1
  Eu  Eu1  1  0.20686600  0.87915300  0.22689300  1
  N  N0  1  0.96253000  0.22764100  0.06375900  1
  N  N1  1  0.03747000  0.77235900  0.93624100  1
  N  N2  1  0.01469900  0.28586900  0.61318900  1
  N  N3  1  0.98530100  0.71413100  0.38681100  1
  N  N4  1  0.51108100  0.80938000  0.63342600  1
  N  N5  1  0.48891900  0.19062000  0.36657400  1
  O  O0  1  0.80978800  0.10511600  0.00204300  1
  O  O1  1  0.19021200  0.89488400  0.99795700  1
  O  O2  1  0.02342700  0.30728600  0.99166000  1
  O  O3  1  0.97657300  0.69271400  0.00834000  1
  O  O4  1  0.04473800  0.26369900  0.18031200  1
  O  O5  1  0.95526200  0.73630100  0.81968800  1
  O  O6  1  0.00406900  0.35267900  0.75005900  1
  O  O7  1  0.99593100  0.64732100  0.24994100  1
  O  O8  1  0.90619700  0.14238600  0.55049600  1
  O  O9  1  0.09380300  0.85761400  0.44950400  1
  O  O10  1  0.12198300  0.35310200  0.54958600  1
  O  O11  1  0.87801700  0.64689800  0.45041400  1
  O  O12  1  0.58266100  0.86948300  0.76421300  1
  O  O13  1  0.41733900  0.13051700  0.23578700  1
  O  O14  1  0.57537200  0.89839700  0.56949700  1
  O  O15  1  0.42462800  0.10160300  0.43050300  1
  O  O16  1  0.39181000  0.68011400  0.57496700  1
  O  O17  1  0.60819000  0.31988600  0.42503300  1
  O  O18  1  0.16332800  0.04057500  0.75974600  1
  O  O19  1  0.83667200  0.95942500  0.24025400  1
  O  O20  1  0.51686500  0.35958700  0.78013000  1
  O  O21  1  0.48313500  0.64041300  0.21987000  1
  O  O22  1  0.31896100  0.10804300  0.84654300  1
  O  O23  1  0.68103900  0.89195700  0.15345700  1
  O  O24  1  0.60191900  0.43698200  0.06857600  1
  O  O25  1  0.39808100  0.56301800  0.93142400  1
  O  O26  1  0.49856700  0.50272200  0.81961900  1
  O  O27  1  0.50143300  0.49727800  0.18038100  1
loop_
_geom_bond_atom_site_label_1
_geom_bond_atom_site_label_2
_geom_bond_distance
_geom_bond_site_symmetry_2
Eu0 O6 2.460537 1_655
Eu0 O14 2.466000 1_545
Eu0 O0 2.472223 1_556
Eu0 O12 2.478051 1_545
Eu0 O8 2.491739 1_555
Eu0 O2 2.492353 1_655
Eu0 O18 2.647473 1_655
Eu0 O22 3.112412 1_555
Eu0 O20 3.183960 1_555
Eu1 O7 2.460537 1_455
Eu1 O15 2.466000 1_565
Eu1 O1 2.472223 1_554
Eu1 O13 2.478051 1_565
Eu1 O9 2.491739 1_555
Eu1 O3 2.492353 1_455
Eu1 O19 2.647473 1_455
Eu1 O23 3.112412 1_555
Eu1 O21 3.183960 1_555
N0 O4 1.221445 1_655
N0 O2 1.290627 1_654
N0 O0 1.292839 1_555
N1 O5 1.221445 1_455
N1 O3 1.290627 1_456
N1 O1 1.292839 1_555
N2 O10 1.219466 1_555
N2 O8 1.291788 1_455
N2 O6 1.294449 1_555
N3 O11 1.219466 1_555
N3 O9 1.291788 1_655
N3 O7 1.294449 1_555
N4 O16 1.218226 1_555
N4 O12 1.290419 1_555
N4 O14 1.297328 1_555
N5 O17 1.218226 1_555
N5 O13 1.290419 1_555
N5 O15 1.297328 1_555
O18 O22 1.238457 1_555
O19 O23 1.238457 1_555
O20 O26 1.291640 1_555
O21 O27 1.291640 1_555
O24 O27 1.278100 1_555
O25 O26 1.278100 1_555
