# generated using pymatgen
data_MgAlSi4O15
_symmetry_space_group_name_H-M   'P 1'
_cell_length_a   5.36580177
_cell_length_b   12.84649751
_cell_length_c   18.23494156
_cell_angle_alpha   90.00000000
_cell_angle_beta   90.00000000
_cell_angle_gamma   90.00000000
_symmetry_Int_Tables_number   1
_chemical_formula_structural   MgAlSi4O15
_chemical_formula_sum   'Mg4 Al4 Si16 O60'
_cell_volume   1256.96659841
_cell_formula_units_Z   4
loop_
 _symmetry_equiv_pos_site_id
 _symmetry_equiv_pos_as_xyz
  1  'x, y, z'
loop_
 _atom_site_type_symbol
 _atom_site_label
 _atom_site_symmetry_multiplicity
 _atom_site_fract_x
 _atom_site_fract_y
 _atom_site_fract_z
 _atom_site_occupancy
  Mg  Mg0  1  0.50000000  0.50000000  0.59626650  1
  Mg  Mg1  1  0.50000000  0.00000000  0.90373350  1
  Mg  Mg2  1  0.50000000  0.50000000  0.40373350  1
  Mg  Mg3  1  0.50000000  0.00000000  0.09626650  1
  Al  Al0  1  0.00000000  0.50000000  0.65689003  1
  Al  Al1  1  0.00000000  0.00000000  0.84310997  1
  Al  Al2  1  0.00000000  0.50000000  0.34310997  1
  Al  Al3  1  0.00000000  0.00000000  0.15689003  1
  Si  Si0  1  0.81030937  0.28480785  0.58630507  1
  Si  Si1  1  0.18969063  0.71519215  0.58630507  1
  Si  Si2  1  0.81030937  0.21519215  0.91369493  1
  Si  Si3  1  0.18969063  0.78480785  0.91369493  1
  Si  Si4  1  0.18969063  0.71519215  0.41369493  1
  Si  Si5  1  0.81030937  0.28480785  0.41369493  1
  Si  Si6  1  0.18969063  0.78480785  0.08630507  1
  Si  Si7  1  0.81030937  0.21519215  0.08630507  1
  Si  Si8  1  0.30098052  0.28383901  0.66537439  1
  Si  Si9  1  0.69901948  0.71616099  0.66537439  1
  Si  Si10  1  0.30098052  0.21616099  0.83462561  1
  Si  Si11  1  0.69901948  0.78383901  0.83462561  1
  Si  Si12  1  0.69901948  0.71616099  0.33462561  1
  Si  Si13  1  0.30098052  0.28383901  0.33462561  1
  Si  Si14  1  0.69901948  0.78383901  0.16537439  1
  Si  Si15  1  0.30098052  0.21616099  0.16537439  1
  O  O0  1  0.81795146  0.41198777  0.59660571  1
  O  O1  1  0.18204854  0.58801223  0.59660571  1
  O  O2  1  0.81795146  0.08801223  0.90339429  1
  O  O3  1  0.18204854  0.91198777  0.90339429  1
  O  O4  1  0.18204854  0.58801223  0.40339429  1
  O  O5  1  0.81795146  0.41198777  0.40339429  1
  O  O6  1  0.18204854  0.91198777  0.09660571  1
  O  O7  1  0.81795146  0.08801223  0.09660571  1
  O  O8  1  0.86265044  0.44239795  0.74804968  1
  O  O9  1  0.13734956  0.55760205  0.74804968  1
  O  O10  1  0.86265044  0.05760205  0.75195032  1
  O  O11  1  0.13734956  0.94239795  0.75195032  1
  O  O12  1  0.13734956  0.55760205  0.25195032  1
  O  O13  1  0.86265044  0.44239795  0.25195032  1
  O  O14  1  0.13734956  0.94239795  0.24804968  1
  O  O15  1  0.86265044  0.05760205  0.24804968  1
  O  O16  1  0.82839768  0.25133613  0.50000000  1
  O  O17  1  0.17160232  0.74866387  0.50000000  1
  O  O18  1  0.82839768  0.24866387  -0.00000000  1
  O  O19  1  0.17160232  0.75133613  -0.00000000  1
  O  O20  1  0.04649671  0.23306602  0.63022229  1
  O  O21  1  0.95350329  0.76693398  0.63022229  1
  O  O22  1  0.04649671  0.26693398  0.86977771  1
  O  O23  1  0.95350329  0.73306602  0.86977771  1
  O  O24  1  0.95350329  0.76693398  0.36977771  1
  O  O25  1  0.04649671  0.23306602  0.36977771  1
  O  O26  1  0.95350329  0.73306602  0.13022229  1
  O  O27  1  0.04649671  0.26693398  0.13022229  1
  O  O28  1  0.33262616  0.25000000  0.75000000  1
  O  O29  1  0.66737384  0.75000000  0.75000000  1
  O  O30  1  0.66737384  0.75000000  0.25000000  1
  O  O31  1  0.33262616  0.25000000  0.25000000  1
  O  O32  1  0.50000000  0.50000000  0.96640404  1
  O  O33  1  0.50000000  0.00000000  0.53359596  1
  O  O34  1  0.50000000  0.50000000  0.03359596  1
  O  O35  1  0.50000000  0.00000000  0.46640404  1
  O  O36  1  0.27736703  0.41120330  0.66047267  1
  O  O37  1  0.72263297  0.58879670  0.66047267  1
  O  O38  1  0.27736703  0.08879670  0.83952733  1
  O  O39  1  0.72263297  0.91120330  0.83952733  1
  O  O40  1  0.72263297  0.58879670  0.33952733  1
  O  O41  1  0.27736703  0.41120330  0.33952733  1
  O  O42  1  0.72263297  0.91120330  0.16047267  1
  O  O43  1  0.27736703  0.08879670  0.16047267  1
  O  O44  1  0.39570298  0.42586812  0.50000000  1
  O  O45  1  0.60429702  0.57413188  0.50000000  1
  O  O46  1  0.39570298  0.07413188  0.00000000  1
  O  O47  1  0.60429702  0.92586812  0.00000000  1
  O  O48  1  0.54424236  0.24302676  0.61918544  1
  O  O49  1  0.45575764  0.75697324  0.61918544  1
  O  O50  1  0.54424236  0.25697324  0.88081456  1
  O  O51  1  0.45575764  0.74302676  0.88081456  1
  O  O52  1  0.45575764  0.75697324  0.38081456  1
  O  O53  1  0.54424236  0.24302676  0.38081456  1
  O  O54  1  0.45575764  0.74302676  0.11918544  1
  O  O55  1  0.54424236  0.25697324  0.11918544  1
  O  O56  1  0.00000000  0.50000000  0.96648153  1
  O  O57  1  0.00000000  0.00000000  0.53351847  1
  O  O58  1  0.00000000  0.50000000  0.03351847  1
  O  O59  1  0.00000000  0.00000000  0.46648153  1
loop_
_geom_bond_atom_site_label_1
_geom_bond_atom_site_label_2
_geom_bond_distance
_geom_bond_site_symmetry_2
Mg0 O36 2.024623 1_555
Mg0 O37 2.024623 1_555
Mg0 O0 2.046720 1_555
Mg0 O1 2.046720 1_555
Mg0 O44 2.074033 1_555
Mg0 O45 2.074033 1_555
Mg1 O38 2.024623 1_555
Mg1 O39 2.024623 1_545
Mg1 O2 2.046720 1_555
Mg1 O3 2.046720 1_545
Mg1 O47 2.074033 1_546
Mg1 O46 2.074033 1_556
Mg2 O40 2.024623 1_555
Mg2 O41 2.024623 1_555
Mg2 O4 2.046720 1_555
Mg2 O5 2.046720 1_555
Mg2 O44 2.074033 1_555
Mg2 O45 2.074033 1_555
Mg3 O43 2.024623 1_555
Mg3 O42 2.024623 1_545
Mg3 O7 2.046720 1_555
Mg3 O6 2.046720 1_545
Mg3 O47 2.074033 1_545
Mg3 O46 2.074033 1_555
Al0 O0 1.854992 1_455
Al0 O1 1.854992 1_555
Al0 O37 1.876313 1_455
Al0 O36 1.876313 1_555
Al0 O9 1.963146 1_555
Al0 O8 1.963146 1_455
Al1 O2 1.854992 1_455
Al1 O3 1.854992 1_545
Al1 O38 1.876313 1_555
Al1 O39 1.876313 1_445
Al1 O11 1.963146 1_545
Al1 O10 1.963146 1_455
Al2 O5 1.854992 1_455
Al2 O4 1.854992 1_555
Al2 O40 1.876313 1_455
Al2 O41 1.876313 1_555
Al2 O12 1.963146 1_555
Al2 O13 1.963146 1_455
Al3 O7 1.854992 1_455
Al3 O6 1.854992 1_545
Al3 O43 1.876313 1_555
Al3 O42 1.876313 1_445
Al3 O15 1.963146 1_455
Al3 O14 1.963146 1_545
O0 Si0 1.645089 1_555
O1 Si1 1.645089 1_555
O2 Si2 1.645089 1_555
O3 Si3 1.645089 1_555
O4 Si4 1.645089 1_555
O5 Si5 1.645089 1_555
O6 Si6 1.645089 1_555
O7 Si7 1.645089 1_555
O16 Si5 1.634338 1_555
O16 Si0 1.634338 1_555
O17 Si4 1.634338 1_555
O17 Si1 1.634338 1_555
O18 Si2 1.634338 1_554
O18 Si7 1.634338 1_555
O19 Si3 1.634338 1_554
O19 Si6 1.634338 1_555
O20 Si0 1.639905 1_455
O20 Si8 1.643451 1_555
O21 Si1 1.639905 1_655
O21 Si9 1.643451 1_555
O22 Si2 1.639905 1_455
O22 Si10 1.643451 1_555
O23 Si3 1.639905 1_655
O23 Si11 1.643451 1_555
O24 Si4 1.639905 1_655
O24 Si12 1.643451 1_555
O25 Si5 1.639905 1_455
O25 Si13 1.643451 1_555
O26 Si6 1.639905 1_655
O26 Si14 1.643451 1_555
O27 Si7 1.639905 1_455
O27 Si15 1.643451 1_555
O28 Si8 1.612172 1_555
O28 Si10 1.612172 1_555
O29 Si9 1.612172 1_555
O29 Si11 1.612172 1_555
O30 Si14 1.612172 1_555
O30 Si12 1.612172 1_555
O31 Si15 1.612172 1_555
O31 Si13 1.612172 1_555
O32 O34 1.225241 1_556
O33 O35 1.225241 1_555
O36 Si8 1.643516 1_555
O37 Si9 1.643516 1_555
O38 Si10 1.643516 1_555
O39 Si11 1.643516 1_555
O40 Si12 1.643516 1_555
O41 Si13 1.643516 1_555
O42 Si14 1.643516 1_555
O43 Si15 1.643516 1_555
O48 Si0 1.638840 1_555
O48 Si8 1.639533 1_555
O49 Si1 1.638840 1_555
O49 Si9 1.639533 1_555
O50 Si2 1.638840 1_555
O50 Si10 1.639533 1_555
O51 Si3 1.638840 1_555
O51 Si11 1.639533 1_555
O52 Si4 1.638840 1_555
O52 Si12 1.639533 1_555
O53 Si5 1.638840 1_555
O53 Si13 1.639533 1_555
O54 Si6 1.638840 1_555
O54 Si14 1.639533 1_555
O55 Si7 1.638840 1_555
O55 Si15 1.639533 1_555
O56 O58 1.222415 1_556
O57 O59 1.222415 1_555
