# generated using pymatgen
data_CsHg
_symmetry_space_group_name_H-M   'P 1'
_cell_length_a   7.25899208
_cell_length_b   7.60178588
_cell_length_c   7.69028104
_cell_angle_alpha   107.80820930
_cell_angle_beta   103.62906256
_cell_angle_gamma   91.72863655
_symmetry_Int_Tables_number   1
_chemical_formula_structural   CsHg
_chemical_formula_sum   'Cs4 Hg4'
_cell_volume   390.24608689
_cell_formula_units_Z   4
loop_
 _symmetry_equiv_pos_site_id
 _symmetry_equiv_pos_as_xyz
  1  'x, y, z'
loop_
 _atom_site_type_symbol
 _atom_site_label
 _atom_site_symmetry_multiplicity
 _atom_site_fract_x
 _atom_site_fract_y
 _atom_site_fract_z
 _atom_site_occupancy
  Cs  Cs0  1  0.75721209  0.34052268  0.55138758  1
  Cs  Cs1  1  0.24278791  0.65947732  0.44861242  1
  Cs  Cs2  1  0.31212837  0.21193126  0.86097737  1
  Cs  Cs3  1  0.68787163  0.78806874  0.13902163  1
  Hg  Hg0  1  0.81113755  0.89539163  0.71289813  1
  Hg  Hg1  1  0.18886245  0.10460837  0.28710187  1
  Hg  Hg2  1  0.13512203  0.75269973  0.94631554  1
  Hg  Hg3  1  0.86487797  0.24730027  0.05368446  1
loop_
_geom_bond_atom_site_label_1
_geom_bond_atom_site_label_2
_geom_bond_distance
_geom_bond_site_symmetry_2
Cs0 Hg3 3.942928 1_555
Cs0 Hg0 3.945569 1_545
Cs0 Hg0 3.994267 1_555
Cs0 Hg2 4.037479 1_655
Cs0 Hg3 4.039716 1_556
Cs0 Hg1 4.211938 1_555
Cs0 Hg1 4.274994 1_655
Cs1 Hg2 3.942928 1_555
Cs1 Hg1 3.945569 1_565
Cs1 Hg1 3.994267 1_555
Cs1 Hg3 4.037479 1_455
Cs1 Hg2 4.039716 1_554
Cs1 Hg0 4.211938 1_555
Cs1 Hg0 4.274994 1_455
Cs2 Hg3 3.858140 1_456
Cs2 Hg1 3.895924 1_556
Cs2 Hg3 3.905998 1_556
Cs2 Hg2 3.974505 1_545
Cs2 Hg0 4.019540 1_445
Cs2 Hg1 4.103141 1_555
Cs2 Hg2 4.248089 1_555
Cs3 Hg2 3.858136 1_654
Cs3 Hg0 3.895917 1_554
Cs3 Hg2 3.905997 1_554
Cs3 Hg3 3.974501 1_565
Cs3 Hg1 4.019539 1_665
Cs3 Hg0 4.103149 1_555
Cs3 Hg3 4.248090 1_555
Hg0 Hg2 3.047152 1_655
Hg0 Hg3 3.056759 1_566
Hg1 Hg3 3.047152 1_455
Hg1 Hg2 3.056759 1_544
