# generated using pymatgen
data_LiDy6B3O14
_symmetry_space_group_name_H-M   'P 1'
_cell_length_a   15.59536800
_cell_length_b   8.41926800
_cell_length_c   12.03051808
_cell_angle_alpha   47.54214912
_cell_angle_beta   90.00000000
_cell_angle_gamma   90.00000000
_symmetry_Int_Tables_number   1
_chemical_formula_structural   LiDy6B3O14
_chemical_formula_sum   'Li4 Dy24 B12 O56'
_cell_volume   1165.40724469
_cell_formula_units_Z   4
loop_
 _symmetry_equiv_pos_site_id
 _symmetry_equiv_pos_as_xyz
  1  'x, y, z'
loop_
 _atom_site_type_symbol
 _atom_site_label
 _atom_site_symmetry_multiplicity
 _atom_site_fract_x
 _atom_site_fract_y
 _atom_site_fract_z
 _atom_site_occupancy
  Li  Li0  1  0.60387000  0.88010000  0.43955000  1
  Li  Li1  1  0.39613000  0.11990000  0.56045000  1
  Li  Li2  1  0.10387000  0.11990000  0.06045000  1
  Li  Li3  1  0.89613000  0.88010000  0.93955000  1
  Dy  Dy0  1  0.82206800  0.55069300  0.30693500  1
  Dy  Dy1  1  0.17793200  0.44930700  0.69306500  1
  Dy  Dy2  1  0.32206800  0.44930700  0.19306500  1
  Dy  Dy3  1  0.67793200  0.55069300  0.80693500  1
  Dy  Dy4  1  0.32566100  0.98483400  0.05510800  1
  Dy  Dy5  1  0.67433900  0.01516600  0.94489200  1
  Dy  Dy6  1  0.82566100  0.01516600  0.44489200  1
  Dy  Dy7  1  0.17433900  0.98483400  0.55510800  1
  Dy  Dy8  1  0.35612400  0.84828400  0.42438300  1
  Dy  Dy9  1  0.64387600  0.15171600  0.57561700  1
  Dy  Dy10  1  0.85612400  0.15171600  0.07561700  1
  Dy  Dy11  1  0.14387600  0.84828400  0.92438300  1
  Dy  Dy12  1  0.51339600  0.66556900  0.28260600  1
  Dy  Dy13  1  0.48660400  0.33443100  0.71739400  1
  Dy  Dy14  1  0.01339600  0.33443100  0.21739400  1
  Dy  Dy15  1  0.98660400  0.66556900  0.78260600  1
  Dy  Dy16  1  0.50400400  0.23859200  0.06139300  1
  Dy  Dy17  1  0.49599600  0.76140800  0.93860700  1
  Dy  Dy18  1  0.00400400  0.76140800  0.43860700  1
  Dy  Dy19  1  0.99599600  0.23859200  0.56139300  1
  Dy  Dy20  1  0.66591000  0.41226600  0.16591500  1
  Dy  Dy21  1  0.33409000  0.58773400  0.83408500  1
  Dy  Dy22  1  0.16591000  0.58773400  0.33408500  1
  Dy  Dy23  1  0.83409000  0.41226600  0.66591500  1
  B  B0  1  0.82698200  0.54412000  0.02714800  1
  B  B1  1  0.17301800  0.45588000  0.97285200  1
  B  B2  1  0.32698200  0.45588000  0.47285200  1
  B  B3  1  0.67301800  0.54412000  0.52714800  1
  B  B4  1  0.99929700  0.79107100  0.14486400  1
  B  B5  1  0.00070300  0.20892900  0.85513600  1
  B  B6  1  0.49929700  0.20892900  0.35513600  1
  B  B7  1  0.50070300  0.79107100  0.64486400  1
  B  B8  1  0.69322300  0.95829200  0.22155800  1
  B  B9  1  0.30677700  0.04170800  0.77844200  1
  B  B10  1  0.19322300  0.04170800  0.27844200  1
  B  B11  1  0.80677700  0.95829200  0.72155800  1
  O  O0  1  0.75137000  0.88262000  0.17759200  1
  O  O1  1  0.24863000  0.11738000  0.82240800  1
  O  O2  1  0.25137000  0.11738000  0.32240800  1
  O  O3  1  0.74863000  0.88262000  0.67759200  1
  O  O4  1  0.46670200  0.69649400  0.59372000  1
  O  O5  1  0.53329800  0.30350600  0.40628000  1
  O  O6  1  0.96670200  0.30350600  0.90628000  1
  O  O7  1  0.03329800  0.69649400  0.09372000  1
  O  O8  1  0.42076200  0.93480000  0.22084200  1
  O  O9  1  0.57923800  0.06520000  0.77915800  1
  O  O10  1  0.92076200  0.06520000  0.27915800  1
  O  O11  1  0.07923800  0.93480000  0.72084200  1
  O  O12  1  0.91442500  0.85341200  0.11805900  1
  O  O13  1  0.08557500  0.14658800  0.88194100  1
  O  O14  1  0.41442500  0.14658800  0.38194100  1
  O  O15  1  0.58557500  0.85341200  0.61805900  1
  O  O16  1  0.91248500  0.52481100  0.00922000  1
  O  O17  1  0.08751500  0.47518900  0.99078000  1
  O  O18  1  0.41248500  0.47518900  0.49078000  1
  O  O19  1  0.58751500  0.52481100  0.50922000  1
  O  O20  1  0.79542600  0.64137800  0.07610900  1
  O  O21  1  0.20457400  0.35862200  0.92389100  1
  O  O22  1  0.29542600  0.35862200  0.42389100  1
  O  O23  1  0.70457400  0.64137800  0.57610900  1
  O  O24  1  0.44853600  0.82223000  0.72139500  1
  O  O25  1  0.55146400  0.17777000  0.27860500  1
  O  O26  1  0.94853600  0.17777000  0.77860500  1
  O  O27  1  0.05146400  0.82223000  0.22139500  1
  O  O28  1  0.59819300  0.70196300  0.10553200  1
  O  O29  1  0.40180700  0.29803700  0.89446800  1
  O  O30  1  0.09819300  0.29803700  0.39446800  1
  O  O31  1  0.90180700  0.70196300  0.60553200  1
  O  O32  1  0.91054600  0.52731800  0.46392500  1
  O  O33  1  0.08945400  0.47268200  0.53607500  1
  O  O34  1  0.41054600  0.47268200  0.03607500  1
  O  O35  1  0.58945400  0.52731800  0.96392500  1
  O  O36  1  0.41446900  0.71379400  0.12392900  1
  O  O37  1  0.58553100  0.28620600  0.87607100  1
  O  O38  1  0.91446900  0.28620600  0.37607100  1
  O  O39  1  0.08553100  0.71379400  0.62392900  1
  O  O40  1  0.23184400  0.72374100  0.12196600  1
  O  O41  1  0.76815600  0.27625900  0.87803400  1
  O  O42  1  0.73184400  0.27625900  0.37803400  1
  O  O43  1  0.26815600  0.72374100  0.62196600  1
  O  O44  1  0.22519200  0.94621800  0.22828000  1
  O  O45  1  0.77480800  0.05378200  0.77172000  1
  O  O46  1  0.72519200  0.05378200  0.27172000  1
  O  O47  1  0.27480800  0.94621800  0.72828000  1
  O  O48  1  0.60650600  0.94784900  0.20069600  1
  O  O49  1  0.39349400  0.05215100  0.79930400  1
  O  O50  1  0.10650600  0.05215100  0.29930400  1
  O  O51  1  0.89349400  0.94784900  0.70069600  1
  O  O52  1  0.76754200  0.44706900  0.00333100  1
  O  O53  1  0.23245800  0.55293100  0.99666900  1
  O  O54  1  0.26754200  0.55293100  0.49666900  1
  O  O55  1  0.73245800  0.44706900  0.50333100  1
loop_
_geom_bond_atom_site_label_1
_geom_bond_atom_site_label_2
_geom_bond_distance
_geom_bond_site_symmetry_2
Li0 O15 2.022971 1_555
Li0 O25 2.036288 1_565
Li0 O23 2.178798 1_555
Li0 O46 2.410133 1_565
Li0 O19 2.516020 1_555
Li0 O48 2.524159 1_555
Li0 O4 2.556344 1_555
Li1 O14 2.022971 1_555
Li1 O24 2.036288 1_545
Li1 O22 2.178798 1_555
Li1 O47 2.410133 1_545
Li1 O18 2.516020 1_555
Li1 O49 2.524159 1_555
Li1 O5 2.556344 1_555
Li2 O13 2.022971 1_554
Li2 O27 2.036288 1_545
Li2 O21 2.178798 1_554
Li2 O44 2.410133 1_545
Li2 O17 2.516020 1_554
Li2 O50 2.524159 1_555
Li2 O6 2.556344 1_454
Li3 O12 2.022971 1_556
Li3 O26 2.036288 1_565
Li3 O20 2.178798 1_556
Li3 O45 2.410133 1_565
Li3 O16 2.516020 1_556
Li3 O51 2.524159 1_555
Li3 O7 2.556344 1_656
Dy0 O32 2.237849 1_555
Dy0 O38 2.286134 1_555
Dy0 O42 2.319877 1_555
Dy0 O55 2.348128 1_555
Dy0 O0 2.361295 1_555
Dy0 O20 2.367397 1_555
Dy0 O12 2.432029 1_555
Dy1 O33 2.237849 1_555
Dy1 O39 2.286134 1_555
Dy1 O43 2.319877 1_555
Dy1 O54 2.348128 1_555
Dy1 O1 2.361295 1_555
Dy1 O21 2.367397 1_555
Dy1 O13 2.432029 1_555
Dy2 O34 2.237849 1_555
Dy2 O36 2.286134 1_555
Dy2 O40 2.319877 1_555
Dy2 O53 2.348128 1_554
Dy2 O2 2.361295 1_555
Dy2 O22 2.367397 1_555
Dy2 O14 2.432029 1_555
Dy3 O35 2.237849 1_555
Dy3 O37 2.286134 1_555
Dy3 O41 2.319877 1_555
Dy3 O52 2.348128 1_556
Dy3 O3 2.361295 1_555
Dy3 O23 2.367397 1_555
Dy3 O15 2.432029 1_555
Dy4 O29 2.284364 1_564
Dy4 O8 2.284442 1_555
Dy4 O40 2.287505 1_555
Dy4 O36 2.293521 1_555
Dy4 O44 2.446753 1_555
Dy4 O1 2.511557 1_564
Dy5 O28 2.284364 1_546
Dy5 O9 2.284442 1_555
Dy5 O41 2.287505 1_555
Dy5 O37 2.293521 1_555
Dy5 O45 2.446753 1_555
Dy5 O0 2.511557 1_546
Dy6 O31 2.284364 1_545
Dy6 O10 2.284442 1_555
Dy6 O42 2.287505 1_555
Dy6 O38 2.293521 1_555
Dy6 O46 2.446753 1_555
Dy6 O3 2.511557 1_545
Dy7 O30 2.284364 1_565
Dy7 O11 2.284442 1_555
Dy7 O43 2.287505 1_555
Dy7 O39 2.293521 1_555
Dy7 O47 2.446753 1_555
Dy7 O2 2.511557 1_565
Dy8 O8 2.266011 1_555
Dy8 O4 2.289627 1_555
Dy8 O43 2.294944 1_555
Dy8 O2 2.356766 1_565
Dy8 O14 2.379857 1_565
Dy8 O54 2.434875 1_555
Dy9 O9 2.266011 1_555
Dy9 O5 2.289627 1_555
Dy9 O42 2.294944 1_555
Dy9 O3 2.356766 1_545
Dy9 O15 2.379857 1_545
Dy9 O55 2.434875 1_555
Dy10 O10 2.266011 1_555
Dy10 O6 2.289627 1_554
Dy10 O41 2.294944 1_554
Dy10 O0 2.356766 1_545
Dy10 O12 2.379857 1_545
Dy10 O52 2.434875 1_555
Dy11 O11 2.266011 1_555
Dy11 O7 2.289627 1_556
Dy11 O40 2.294944 1_556
Dy11 O1 2.356766 1_565
Dy11 O13 2.379857 1_565
Dy11 O53 2.434875 1_555
Dy12 O36 2.267778 1_555
Dy12 O5 2.340712 1_555
Dy12 O28 2.345125 1_555
Dy12 O8 2.345904 1_555
Dy12 O48 2.359226 1_555
Dy12 O19 2.410643 1_555
Dy12 O18 2.428664 1_555
Dy13 O37 2.267778 1_555
Dy13 O4 2.340712 1_555
Dy13 O29 2.345125 1_555
Dy13 O9 2.345904 1_555
Dy13 O49 2.359226 1_555
Dy13 O18 2.410643 1_555
Dy13 O19 2.428664 1_555
Dy14 O38 2.267778 1_455
Dy14 O7 2.340712 1_555
Dy14 O30 2.345125 1_555
Dy14 O10 2.345904 1_455
Dy14 O50 2.359226 1_555
Dy14 O17 2.410643 1_554
Dy14 O16 2.428664 1_455
Dy15 O39 2.267778 1_655
Dy15 O6 2.340712 1_555
Dy15 O31 2.345125 1_555
Dy15 O11 2.345904 1_655
Dy15 O51 2.359226 1_555
Dy15 O16 2.410643 1_556
Dy15 O17 2.428664 1_655
Dy16 O35 2.282898 1_554
Dy16 O8 2.298444 1_545
Dy16 O34 2.300209 1_555
Dy16 O29 2.338074 1_554
Dy16 O37 2.354011 1_554
Dy16 O48 2.411930 1_545
Dy16 O25 2.414975 1_555
Dy17 O34 2.282898 1_556
Dy17 O9 2.298444 1_565
Dy17 O35 2.300209 1_555
Dy17 O28 2.338074 1_556
Dy17 O36 2.354011 1_556
Dy17 O49 2.411930 1_565
Dy17 O24 2.414975 1_555
Dy18 O33 2.282898 1_555
Dy18 O10 2.298444 1_465
Dy18 O32 2.300209 1_455
Dy18 O31 2.338074 1_455
Dy18 O39 2.354011 1_555
Dy18 O50 2.411930 1_565
Dy18 O27 2.414975 1_555
Dy19 O32 2.282898 1_555
Dy19 O11 2.298444 1_645
Dy19 O33 2.300209 1_655
Dy19 O30 2.338074 1_655
Dy19 O38 2.354011 1_555
Dy19 O51 2.411930 1_545
Dy19 O26 2.414975 1_555
Dy20 O42 2.221617 1_555
Dy20 O35 2.255477 1_554
Dy20 O28 2.280304 1_555
Dy20 O25 2.303856 1_555
Dy20 O52 2.376991 1_555
Dy20 O20 2.480779 1_555
Dy20 O46 2.529341 1_555
Dy21 O43 2.221617 1_555
Dy21 O34 2.255477 1_556
Dy21 O29 2.280304 1_555
Dy21 O24 2.303856 1_555
Dy21 O53 2.376991 1_555
Dy21 O21 2.480779 1_555
Dy21 O47 2.529341 1_555
Dy22 O40 2.221617 1_555
Dy22 O33 2.255477 1_555
Dy22 O30 2.280304 1_555
Dy22 O27 2.303856 1_555
Dy22 O54 2.376991 1_555
Dy22 O22 2.480779 1_555
Dy22 O44 2.529341 1_555
Dy23 O41 2.221617 1_555
Dy23 O32 2.255477 1_555
Dy23 O31 2.280304 1_555
Dy23 O26 2.303856 1_555
Dy23 O55 2.376991 1_555
Dy23 O23 2.480779 1_555
Dy23 O45 2.529341 1_555
B0 O16 1.377816 1_555
B0 O20 1.382324 1_555
B0 O52 1.387497 1_555
B1 O17 1.377816 1_555
B1 O21 1.382324 1_555
B1 O53 1.387497 1_555
B2 O18 1.377816 1_555
B2 O22 1.382324 1_555
B2 O54 1.387497 1_555
B3 O19 1.377816 1_555
B3 O23 1.382324 1_555
B3 O55 1.387497 1_555
B4 O12 1.379458 1_555
B4 O27 1.380037 1_655
B4 O7 1.398305 1_655
B5 O13 1.379458 1_555
B5 O26 1.380037 1_455
B5 O6 1.398305 1_455
B6 O14 1.379458 1_555
B6 O25 1.380037 1_555
B6 O5 1.398305 1_555
B7 O15 1.379458 1_555
B7 O24 1.380037 1_555
B7 O4 1.398305 1_555
B8 O46 1.383517 1_565
B8 O48 1.389048 1_555
B8 O0 1.401058 1_555
B9 O47 1.383517 1_545
B9 O49 1.389048 1_555
B9 O1 1.401058 1_555
B10 O44 1.383517 1_545
B10 O50 1.389048 1_555
B10 O2 1.401058 1_555
B11 O45 1.383517 1_565
B11 O51 1.389048 1_555
B11 O3 1.401058 1_555
