# generated using pymatgen
data_Na3CaSc3Zn(SiO3)8
_symmetry_space_group_name_H-M   'P 1'
_cell_length_a   5.51977715
_cell_length_b   28.71463942
_cell_length_c   11.28854150
_cell_angle_alpha   38.16292813
_cell_angle_beta   63.66889631
_cell_angle_gamma   69.58910130
_symmetry_Int_Tables_number   1
_chemical_formula_structural   Na3CaSc3Zn(SiO3)8
_chemical_formula_sum   'Na6 Ca2 Sc6 Zn2 Si16 O48'
_cell_volume   990.85000726
_cell_formula_units_Z   2
loop_
 _symmetry_equiv_pos_site_id
 _symmetry_equiv_pos_as_xyz
  1  'x, y, z'
loop_
 _atom_site_type_symbol
 _atom_site_label
 _atom_site_symmetry_multiplicity
 _atom_site_fract_x
 _atom_site_fract_y
 _atom_site_fract_z
 _atom_site_occupancy
  Na  Na0  1  0.25000000  0.35495777  0.29008447  1
  Na  Na1  1  0.25000000  0.60484360  0.29031181  1
  Na  Na2  1  0.25000000  0.85630103  0.28739894  1
  Na  Na3  1  0.75000000  0.39369897  0.71260106  1
  Na  Na4  1  0.75000000  0.64515640  0.70968819  1
  Na  Na5  1  0.75000000  0.89504223  0.70991553  1
  Ca  Ca0  1  0.25000000  0.10965761  0.28068279  1
  Ca  Ca1  1  0.75000000  0.14034239  0.71931721  1
  Sc  Sc0  1  0.25000000  0.30584638  0.88830624  1
  Sc  Sc1  1  0.25000000  0.55207441  0.89585318  1
  Sc  Sc2  1  0.75000000  0.44793072  0.10413957  1
  Sc  Sc3  1  0.25000000  0.80206928  0.89586043  1
  Sc  Sc4  1  0.75000000  0.69792559  0.10414682  1
  Sc  Sc5  1  0.75000000  0.94415362  0.11169376  1
  Zn  Zn0  1  0.25000000  0.05199863  0.89600074  1
  Zn  Zn1  1  0.75000000  0.19800137  0.10399926  1
  Si  Si0  1  0.23486871  0.26290093  0.20980226  1
  Si  Si1  1  0.26513129  0.26290093  0.73859301  1
  Si  Si2  1  0.22533477  0.51360989  0.21085386  1
  Si  Si3  1  0.73486871  0.98709907  0.26140699  1
  Si  Si4  1  0.27466523  0.51360989  0.73470557  1
  Si  Si5  1  0.22582174  0.76508403  0.20773264  1
  Si  Si6  1  0.76513129  0.98709907  0.79019774  1
  Si  Si7  1  0.73815315  0.23566401  0.25913048  1
  Si  Si8  1  0.27417826  0.76508403  0.73192825  1
  Si  Si9  1  0.23815315  0.01433599  0.20179053  1
  Si  Si10  1  0.76184685  0.23566401  0.79820947  1
  Si  Si11  1  0.72582174  0.48491597  0.26807175  1
  Si  Si12  1  0.26184685  0.01433599  0.74086952  1
  Si  Si13  1  0.77417826  0.48491597  0.79226736  1
  Si  Si14  1  0.72533477  0.73639011  0.26529443  1
  Si  Si15  1  0.77466523  0.73639011  0.78914614  1
  O  O0  1  0.09354595  0.25117662  0.67444389  1
  O  O1  1  0.19869986  0.09435674  0.65771956  1
  O  O2  1  0.33586993  0.20670662  0.19399587  1
  O  O3  1  0.10409021  0.50412904  0.66471553  1
  O  O4  1  0.16413007  0.20670662  0.97917766  1
  O  O5  1  0.21950714  0.34381033  0.64754970  1
  O  O6  1  0.59354595  -0.00117662  0.67914835  1
  O  O7  1  0.30130014  0.09435674  0.96485146  1
  O  O8  1  0.33056350  0.45704531  0.19555929  1
  O  O9  1  0.69869986  0.15564326  0.03514754  1
  O  O10  1  0.40645405  0.25117662  0.32085165  1
  O  O11  1  0.83586993  0.04329338  0.02082234  1
  O  O12  1  0.10419725  0.75579706  0.66146297  1
  O  O13  1  0.16943650  0.45704531  0.97625949  1
  O  O14  1  0.22632972  0.59384216  0.64905180  1
  O  O15  1  0.59699879  0.24144904  0.69165762  1
  O  O16  1  0.28049286  0.34381033  0.97721298  1
  O  O17  1  0.66413007  0.04329338  0.80600413  1
  O  O18  1  0.33087119  0.70776464  0.19479083  1
  O  O19  1  0.72608550  0.40507397  0.02805025  1
  O  O20  1  0.39590979  0.50412904  0.31876633  1
  O  O21  1  0.80130014  0.15564326  0.34228044  1
  O  O22  1  0.84060412  0.29785350  0.01814460  1
  O  O23  1  0.09699879  0.00855096  0.65745076  1
  O  O24  1  0.90645405  -0.00117662  0.32555611  1
  O  O25  1  0.16912881  0.70776464  0.97415162  1
  O  O26  1  0.22608550  0.84492603  0.64834815  1
  O  O27  1  0.60419725  0.49420294  0.68465022  1
  O  O28  1  0.27367028  0.59384216  0.97558156  1
  O  O29  1  0.65939588  0.29785350  0.79044240  1
  O  O30  1  0.34060412  0.95214650  0.20955760  1
  O  O31  1  0.72632972  0.65615784  0.02441844  1
  O  O32  1  0.39580275  0.75579706  0.31534978  1
  O  O33  1  0.77391450  0.40507397  0.35165185  1
  O  O34  1  0.83087119  0.54223536  0.02584838  1
  O  O35  1  0.90300121  0.24144904  0.34254924  1
  O  O36  1  0.15939588  0.95214650  0.98185540  1
  O  O37  1  0.60409021  0.74587096  0.68123367  1
  O  O38  1  0.27391450  0.84492603  0.97194975  1
  O  O39  1  0.66912881  0.54223536  0.80520917  1
  O  O40  1  0.71950714  0.90618967  0.02278702  1
  O  O41  1  0.40300121  0.00855096  0.30834238  1
  O  O42  1  0.77367028  0.65615784  0.35094820  1
  O  O43  1  0.83056350  0.79295469  0.02374051  1
  O  O44  1  0.89580275  0.49420294  0.33853703  1
  O  O45  1  0.66943650  0.79295469  0.80444071  1
  O  O46  1  0.78049286  0.90618967  0.35245030  1
  O  O47  1  0.89590979  0.74587096  0.33528447  1
loop_
_geom_bond_atom_site_label_1
_geom_bond_atom_site_label_2
_geom_bond_distance
_geom_bond_site_symmetry_2
Na0 O8 2.345002 1_555
Na0 O13 2.345002 1_554
Na0 O10 2.567198 1_555
Na0 O0 2.567213 1_555
Na0 O33 2.602794 1_455
Na0 O19 2.602799 1_555
Na1 O25 2.361762 1_554
Na1 O18 2.361783 1_555
Na1 O20 2.501904 1_555
Na1 O3 2.501904 1_555
Na1 O42 2.615302 1_455
Na1 O31 2.615302 1_555
Na2 O30 2.316020 1_555
Na2 O36 2.316043 1_554
Na2 O12 2.499839 1_555
Na2 O32 2.499846 1_555
Na2 O46 2.585371 1_455
Na2 O40 2.585390 1_555
Na3 O29 2.316020 1_555
Na3 O22 2.316043 1_556
Na3 O44 2.499839 1_555
Na3 O27 2.499846 1_555
Na3 O5 2.585371 1_655
Na3 O16 2.585390 1_555
Na4 O34 2.361762 1_556
Na4 O39 2.361783 1_555
Na4 O37 2.501904 1_555
Na4 O47 2.501904 1_555
Na4 O14 2.615302 1_655
Na4 O28 2.615302 1_555
Na5 O45 2.345002 1_555
Na5 O43 2.345002 1_556
Na5 O6 2.567198 1_565
Na5 O24 2.567213 1_565
Na5 O26 2.602794 1_655
Na5 O38 2.602799 1_555
Ca0 O4 2.273667 1_554
Ca0 O2 2.273695 1_555
Ca0 O9 2.448708 1_555
Ca0 O21 2.448722 1_455
Ca0 O41 2.517497 1_555
Ca0 O23 2.517504 1_555
Ca1 O11 2.273667 1_556
Ca1 O17 2.273695 1_555
Ca1 O7 2.448705 1_555
Ca1 O1 2.448722 1_655
Ca1 O15 2.517497 1_555
Ca1 O35 2.517504 1_555
O0 Si1 1.657997 1_555
O0 Si10 1.680348 1_455
O1 Si12 1.619356 1_555
O1 Zn0 2.021282 1_555
O2 Si0 1.638107 1_555
O2 Zn1 2.064118 1_555
O2 Sc0 2.301909 1_554
O3 Si4 1.661861 1_555
O3 Si13 1.679079 1_455
O4 Si1 1.638115 1_555
O4 Zn1 2.064122 1_456
O4 Sc0 2.301895 1_555
O5 Si1 1.607507 1_555
O5 Sc0 2.054746 1_555
O6 Si6 1.658026 1_545
O6 Si12 1.680358 1_555
O7 Si9 1.619386 1_556
O7 Zn0 2.021302 1_555
O8 Si2 1.642952 1_555
O8 Sc2 2.091930 1_555
O8 Sc1 2.249660 1_554
O9 Si10 1.619381 1_554
O9 Zn1 2.021312 1_555
O10 Si0 1.658026 1_555
O10 Si7 1.680358 1_555
O11 Si3 1.638115 1_545
O11 Zn0 2.064122 1_654
O11 Sc5 2.301895 1_545
O12 Si8 1.659626 1_555
O12 Si15 1.677723 1_455
O13 Si4 1.642961 1_555
O13 Sc2 2.091933 1_456
O13 Sc1 2.249688 1_555
O14 Si4 1.615848 1_555
O14 Sc1 2.043687 1_555
O15 Si10 1.689265 1_555
O15 Si1 1.697335 1_555
O16 Si0 1.607482 1_556
O16 Sc0 2.054810 1_555
O17 Si6 1.638107 1_545
O17 Zn0 2.064118 1_555
O17 Sc5 2.301909 1_546
O18 Si5 1.644344 1_555
O18 Sc4 2.092313 1_555
O18 Sc3 2.245673 1_554
O19 Si13 1.616458 1_554
O19 Sc2 2.036095 1_555
O20 Si2 1.661851 1_555
O20 Si11 1.679072 1_555
O21 Si7 1.619356 1_555
O21 Zn1 2.021282 1_555
O22 Si7 1.615446 1_555
O22 Sc0 2.049885 1_654
O22 Zn1 2.368710 1_555
O23 Si12 1.689335 1_555
O23 Si6 1.697340 1_445
O24 Si3 1.657997 1_545
O24 Si9 1.680348 1_655
O25 Si8 1.644377 1_555
O25 Sc4 2.092307 1_456
O25 Sc3 2.245651 1_555
O26 Si8 1.616484 1_555
O26 Sc3 2.036053 1_555
O27 Si13 1.659664 1_555
O27 Si4 1.677723 1_555
O28 Si2 1.615833 1_556
O28 Sc1 2.043666 1_555
O29 Si10 1.615483 1_555
O29 Sc0 2.049881 1_555
O29 Zn1 2.368732 1_556
O30 Si9 1.615483 1_565
O30 Sc5 2.049881 1_555
O30 Zn0 2.368732 1_564
O31 Si15 1.615833 1_554
O31 Sc4 2.043666 1_555
O32 Si5 1.659664 1_555
O32 Si14 1.677723 1_555
O33 Si11 1.616484 1_555
O33 Sc2 2.036053 1_555
O34 Si11 1.644377 1_555
O34 Sc1 2.092307 1_654
O34 Sc2 2.245651 1_555
O35 Si7 1.689335 1_555
O35 Si0 1.697340 1_655
O36 Si12 1.615446 1_565
O36 Sc5 2.049885 1_456
O36 Zn0 2.368710 1_565
O37 Si15 1.661851 1_555
O37 Si8 1.679072 1_555
O38 Si5 1.616458 1_556
O38 Sc3 2.036095 1_555
O39 Si13 1.644344 1_555
O39 Sc1 2.092313 1_555
O39 Sc2 2.245673 1_556
O40 Si6 1.607482 1_554
O40 Sc5 2.054810 1_555
O41 Si9 1.689265 1_555
O41 Si3 1.697335 1_545
O42 Si14 1.615848 1_555
O42 Sc4 2.043687 1_555
O43 Si14 1.642961 1_555
O43 Sc3 2.091933 1_654
O43 Sc4 2.249688 1_555
O44 Si11 1.659626 1_555
O44 Si2 1.677723 1_655
O45 Si15 1.642952 1_555
O45 Sc3 2.091930 1_555
O45 Sc4 2.249660 1_556
O46 Si3 1.607507 1_555
O46 Sc5 2.054746 1_555
O47 Si14 1.661861 1_555
O47 Si5 1.679079 1_655
