# generated using pymatgen
data_UAlCo
_symmetry_space_group_name_H-M   'P 1'
_cell_length_a   5.33347188
_cell_length_b   5.33347188
_cell_length_c   7.97041100
_cell_angle_alpha   90.00000000
_cell_angle_beta   90.00000000
_cell_angle_gamma   120.35014430
_symmetry_Int_Tables_number   1
_chemical_formula_structural   UAlCo
_chemical_formula_sum   'U4 Al4 Co4'
_cell_volume   195.65376681
_cell_formula_units_Z   4
loop_
 _symmetry_equiv_pos_site_id
 _symmetry_equiv_pos_as_xyz
  1  'x, y, z'
loop_
 _atom_site_type_symbol
 _atom_site_label
 _atom_site_symmetry_multiplicity
 _atom_site_fract_x
 _atom_site_fract_y
 _atom_site_fract_z
 _atom_site_occupancy
  U  U0  1  0.32969500  0.67030500  0.19640800  1
  U  U1  1  0.67444300  0.32555700  0.33474700  1
  U  U2  1  0.67444300  0.32555700  0.66525300  1
  U  U3  1  0.32969500  0.67030500  0.80359200  1
  Al  Al0  1  0.99719600  0.00280400  0.26545600  1
  Al  Al1  1  0.99719600  0.00280400  0.73454400  1
  Al  Al2  1  0.82889400  0.65965800  0.00000000  1
  Al  Al3  1  0.34034200  0.17110600  0.00000000  1
  Co  Co0  1  0.82891600  0.17108400  0.00000000  1
  Co  Co1  1  0.17724900  0.34964900  0.50000000  1
  Co  Co2  1  0.65035100  0.82275100  0.50000000  1
  Co  Co3  1  0.17148700  0.82851300  0.50000000  1
loop_
_geom_bond_atom_site_label_1
_geom_bond_atom_site_label_2
_geom_bond_distance
_geom_bond_site_symmetry_2
U0 U3 3.130905 1_554
U0 U1 3.211894 1_565
U0 U1 3.211894 1_455
U0 U1 3.375498 1_555
U1 U2 2.634269 1_555
U2 U3 3.211894 1_545
U2 U3 3.211894 1_655
U2 U3 3.375498 1_555
Al0 Co2 2.458403 1_545
Al0 Co1 2.458403 1_655
Al0 Co3 2.469042 1_645
Al0 Co0 2.627109 1_555
Al0 Al3 2.640387 1_655
Al0 Al2 2.640387 1_545
Al0 U1 3.037419 1_555
Al0 U0 3.121207 1_545
Al0 U0 3.121207 1_655
Al0 U0 3.125807 1_645
Al0 U1 3.167303 1_545
Al0 U1 3.167303 1_655
Al1 Co2 2.458403 1_545
Al1 Co1 2.458403 1_655
Al1 Co3 2.469042 1_645
Al1 Co0 2.627109 1_556
Al1 Al3 2.640387 1_656
Al1 Al2 2.640387 1_546
Al1 U2 3.037419 1_555
Al1 U3 3.121207 1_545
Al1 U3 3.121207 1_655
Al1 U3 3.125807 1_645
Al1 U2 3.167303 1_545
Al1 U2 3.167303 1_655
Al2 Al3 2.591876 1_555
Al2 Co0 2.605855 1_555
Al2 Al3 2.713344 1_665
Al2 Co0 2.727617 1_565
Al2 U0 3.071624 1_655
Al2 U3 3.071624 1_654
Al2 U2 3.080428 1_554
Al2 U1 3.080428 1_555
Al2 U0 3.113738 1_555
Al2 U3 3.113738 1_554
Al3 Co0 2.605855 1_555
Al3 Co0 2.727617 1_455
Al3 U0 3.071624 1_545
Al3 U3 3.071624 1_544
Al3 U2 3.080428 1_554
Al3 U1 3.080428 1_555
Al3 U3 3.113738 1_554
Al3 U0 3.113738 1_555
Co0 U1 3.026896 1_555
Co0 U2 3.026896 1_554
Co0 U3 3.080103 1_544
Co0 U0 3.080103 1_545
Co0 U3 3.080103 1_654
Co0 U0 3.080103 1_655
Co1 Co2 2.509910 1_555
Co1 Co3 2.569673 1_555
Co1 Co3 2.764063 1_545
Co1 Co2 2.795310 1_445
Co1 U3 2.834765 1_555
Co1 U0 2.834765 1_555
Co1 U1 2.931664 1_455
Co1 U2 2.931664 1_455
Co1 U2 3.021188 1_555
Co1 U1 3.021188 1_555
Co2 Co3 2.569673 1_555
Co2 Co3 2.764063 1_655
Co2 U3 2.834765 1_555
Co2 U0 2.834765 1_555
Co2 U2 2.931664 1_565
Co2 U1 2.931664 1_565
Co2 U1 3.021188 1_555
Co2 U2 3.021188 1_555
Co3 U3 2.828200 1_555
Co3 U0 2.828200 1_555
Co3 U2 2.961745 1_565
Co3 U1 2.961745 1_565
Co3 U1 2.961745 1_455
Co3 U2 2.961745 1_455
