# generated using pymatgen
data_Li5V3P8O29
_symmetry_space_group_name_H-M   'P 1'
_cell_length_a   9.81043100
_cell_length_b   9.82236653
_cell_length_c   14.14924794
_cell_angle_alpha   89.55796356
_cell_angle_beta   89.25304513
_cell_angle_gamma   60.24782563
_symmetry_Int_Tables_number   1
_chemical_formula_structural   Li5V3P8O29
_chemical_formula_sum   'Li10 V6 P16 O58'
_cell_volume   1183.61373046
_cell_formula_units_Z   2
loop_
 _symmetry_equiv_pos_site_id
 _symmetry_equiv_pos_as_xyz
  1  'x, y, z'
loop_
 _atom_site_type_symbol
 _atom_site_label
 _atom_site_symmetry_multiplicity
 _atom_site_fract_x
 _atom_site_fract_y
 _atom_site_fract_z
 _atom_site_occupancy
  Li  Li0  1  0.90992200  0.77041900  0.44258100  1
  Li  Li1  1  0.31023300  0.91683200  0.43878900  1
  Li  Li2  1  0.67740500  0.66869600  0.10773300  1
  Li  Li3  1  0.32371600  0.76865600  0.93843800  1
  Li  Li4  1  0.91095400  0.32218700  0.93534700  1
  Li  Li5  1  0.22653900  0.68519400  0.55878300  1
  Li  Li6  1  0.77816400  0.31252300  0.44554800  1
  Li  Li7  1  0.66717100  0.23221900  0.05598900  1
  Li  Li8  1  0.67730400  0.09379900  0.56643300  1
  Li  Li9  1  0.01497400  0.95450700  0.00017800  1
  V  V0  1  0.43435200  0.56686700  0.75144100  1
  V  V1  1  0.56742700  0.43227400  0.25306500  1
  V  V2  1  0.00145100  0.56350500  0.24497100  1
  V  V3  1  0.00363800  0.43316000  0.75089800  1
  V  V4  1  0.56795500  0.99478400  0.75490600  1
  V  V5  1  0.42898400  0.00787500  0.24733000  1
  P  P0  1  0.77764400  0.91496200  0.16079400  1
  P  P1  1  0.91412400  0.76722000  0.66011900  1
  P  P2  1  0.32051300  0.91300600  0.65626000  1
  P  P3  1  0.66597100  0.66234800  0.87235800  1
  P  P4  1  0.66506700  0.66992400  0.36866200  1
  P  P5  1  0.31974300  0.77427400  0.15866500  1
  P  P6  1  0.22872500  0.68200200  0.34010000  1
  P  P7  1  0.90980900  0.31529800  0.15395800  1
  P  P8  1  0.08420200  0.69265500  0.84239100  1
  P  P9  1  0.77225600  0.32132000  0.66014000  1
  P  P10  1  0.68231000  0.22764300  0.83956300  1
  P  P11  1  0.33864400  0.33321500  0.63333000  1
  P  P12  1  0.33657000  0.33393900  0.12873400  1
  P  P13  1  0.68158400  0.08505000  0.34503800  1
  P  P14  1  0.08328300  0.23017400  0.33667500  1
  P  P15  1  0.22200200  0.08287100  0.83906700  1
  O  O0  1  0.75092000  0.99947000  0.43575200  1
  O  O1  1  0.75010300  0.91519800  0.66188500  1
  O  O2  1  0.00916800  0.79759700  0.92432100  1
  O  O3  1  0.91039400  0.74511900  0.15923200  1
  O  O4  1  0.62005200  0.90999900  0.17078300  1
  O  O5  1  0.67285800  0.80377400  0.82967400  1
  O  O6  1  0.47861600  0.90542400  0.67798700  1
  O  O7  1  0.20366800  0.99165300  0.91862500  1
  O  O8  1  0.34453000  0.91875000  0.16859700  1
  O  O9  1  0.81598500  0.66680400  0.32548300  1
  O  O10  1  0.90055800  0.61955600  0.68069600  1
  O  O11  1  0.51774800  0.81955000  0.32551700  1
  O  O12  1  0.64931100  0.66362300  0.97853200  1
  O  O13  1  0.66134100  0.67459000  0.47366500  1
  O  O14  1  0.51047100  0.66938800  0.83172600  1
  O  O15  1  0.88980400  0.48162800  0.16818400  1
  O  O16  1  0.81083500  0.50707500  0.83769900  1
  O  O17  1  0.34186400  0.74356300  0.66485700  1
  O  O18  1  0.21143400  0.78967100  0.24909900  1
  O  O19  1  0.24440500  0.75703500  0.42817100  1
  O  O20  1  0.23591200  0.78470000  0.06951300  1
  O  O21  1  0.48212700  0.62621600  0.17156900  1
  O  O22  1  0.66700600  0.51798500  0.33083300  1
  O  O23  1  0.25987700  0.65744100  0.83578300  1
  O  O24  1  0.61935500  0.48005400  0.68101300  1
  O  O25  1  0.91424400  0.34438500  0.66180200  1
  O  O26  1  0.00954300  0.78804400  0.74463400  1
  O  O27  1  0.00155500  0.75267900  0.56888500  1
  O  O28  1  0.99249500  0.22547800  0.41965900  1
  O  O29  1  0.08131300  0.66576600  0.33983500  1
  O  O30  1  0.37935800  0.52214500  0.32042900  1
  O  O31  1  0.74122300  0.33509700  0.16489800  1
  O  O32  1  0.33798500  0.48495100  0.67834900  1
  O  O33  1  0.52582900  0.38320500  0.82630700  1
  O  O34  1  0.76486800  0.22929200  0.92814900  1
  O  O35  1  0.75284100  0.24812700  0.57218500  1
  O  O36  1  0.79058600  0.20854000  0.74894500  1
  O  O37  1  0.66449900  0.25046300  0.34305900  1
  O  O38  1  0.18515400  0.47824300  0.17209100  1
  O  O39  1  0.07767700  0.54060000  0.83599500  1
  O  O40  1  0.48538100  0.33090600  0.16825100  1
  O  O41  1  0.34111900  0.32216500  0.02463600  1
  O  O42  1  0.33541000  0.35567800  0.52895700  1
  O  O43  1  0.49001000  0.18408100  0.66793400  1
  O  O44  1  0.09327900  0.38010600  0.32436800  1
  O  O45  1  0.19283300  0.33346900  0.67862700  1
  O  O46  1  0.65316800  0.08804300  0.83500300  1
  O  O47  1  0.79631200  0.98947800  0.25884500  1
  O  O48  1  0.78259900  0.01187100  0.08052600  1
  O  O49  1  0.52298100  0.09518100  0.32214400  1
  O  O50  1  0.33602000  0.18564000  0.17739800  1
  O  O51  1  0.37791100  0.08250700  0.83175700  1
  O  O52  1  0.08206100  0.25392100  0.83772700  1
  O  O53  1  0.98101600  0.23891600  0.06214200  1
  O  O54  1  0.00876500  0.20587300  0.23993200  1
  O  O55  1  0.25378500  0.08358400  0.33542800  1
  O  O56  1  0.25312400  0.98237200  0.56348200  1
  O  O57  1  0.20249500  0.00946800  0.74051600  1
loop_
_geom_bond_atom_site_label_1
_geom_bond_atom_site_label_2
_geom_bond_distance
_geom_bond_site_symmetry_2
Li0 O27 1.978347 1_655
Li0 O0 2.005420 1_555
Li0 O29 2.059417 1_655
Li0 O9 2.372117 1_555
Li1 O56 1.864109 1_555
Li1 O19 1.978745 1_555
Li1 O55 2.052355 1_565
Li1 O11 2.373632 1_555
Li2 O12 1.857029 1_554
Li2 O15 2.161466 1_555
Li2 O21 2.324328 1_555
Li2 O4 2.329395 1_555
Li3 O7 1.924094 1_555
Li3 O20 2.008619 1_556
Li3 O23 2.102978 1_555
Li3 O14 2.182847 1_555
Li4 O53 1.952330 1_556
Li4 O52 2.002992 1_655
Li4 O34 2.049396 1_555
Li4 O16 2.097139 1_555
Li5 O27 1.967906 1_555
Li5 O19 2.009522 1_555
Li5 O17 2.136042 1_555
Li5 O32 2.405947 1_555
Li6 O28 1.867329 1_555
Li6 O35 1.949174 1_555
Li6 O37 2.109121 1_555
Li6 O22 2.389125 1_555
Li7 O48 1.911379 1_555
Li7 O34 2.029681 1_554
Li7 O31 2.169180 1_555
Li7 O40 2.208499 1_555
Li8 O35 1.992991 1_555
Li8 O0 2.031373 1_545
Li8 O1 2.038806 1_545
Li8 O43 2.135130 1_555
Li9 O2 1.909159 1_554
Li9 O20 2.210095 1_555
Li9 O48 2.339746 1_465
Li9 O7 2.345130 1_554
O0 P13 1.501791 1_565
O1 P1 1.542965 1_555
O1 V4 2.026015 1_555
O2 P8 1.480316 1_555
O3 P0 1.524185 1_555
O3 V2 1.966012 1_655
O4 P0 1.575312 1_555
O4 V5 1.945636 1_565
O5 P3 1.542130 1_555
O5 V4 1.944151 1_555
O6 P2 1.550248 1_555
O6 V4 1.877818 1_555
O7 P15 1.497130 1_565
O8 P5 1.561787 1_555
O8 V5 1.858178 1_565
O9 P4 1.580494 1_555
O9 V2 1.941474 1_655
O10 P1 1.546036 1_555
O10 V3 1.876663 1_655
O11 P4 1.588219 1_555
O11 V5 1.949034 1_565
O12 P3 1.508502 1_555
O13 P4 1.486187 1_555
O14 P3 1.606262 1_555
O14 V0 1.910038 1_555
O15 P7 1.560128 1_555
O15 V2 1.986374 1_655
O16 P3 1.558344 1_555
O16 V3 2.050229 1_655
O17 P2 1.574868 1_555
O17 V0 1.941540 1_555
O18 P5 1.611600 1_555
O18 P6 1.616092 1_555
O19 P6 1.500462 1_555
O20 P5 1.489812 1_555
O21 P5 1.546031 1_555
O21 V1 2.016913 1_555
O22 P4 1.580506 1_555
O22 V1 1.931973 1_555
O23 P8 1.582183 1_555
O23 V0 1.896631 1_555
O24 P9 1.562873 1_555
O24 V0 1.855840 1_555
O25 P9 1.518676 1_555
O25 V3 1.980772 1_655
O26 P1 1.603469 1_455
O26 P8 1.628758 1_555
O27 P1 1.508277 1_455
O28 P14 1.478765 1_655
O29 P6 1.531640 1_555
O29 V2 2.062445 1_555
O30 P6 1.555568 1_555
O30 V1 1.855411 1_555
O31 P7 1.572175 1_555
O31 V1 1.929269 1_555
O32 P11 1.622369 1_555
O32 V0 1.845006 1_555
O33 P10 1.549708 1_555
O33 V0 1.889544 1_555
O34 P10 1.505698 1_555
O35 P9 1.502598 1_555
O36 P10 1.605587 1_555
O36 P9 1.620198 1_555
O37 P13 1.548489 1_555
O37 V1 2.006509 1_555
O38 P12 1.578582 1_555
O38 V2 1.865360 1_555
O39 P8 1.529730 1_555
O39 V3 1.973380 1_555
O40 P12 1.556499 1_555
O40 V1 1.979496 1_555
O41 P12 1.476691 1_555
O42 P11 1.489923 1_555
O43 P11 1.561919 1_555
O43 V4 2.033307 1_545
O44 P14 1.532214 1_555
O44 V2 1.924368 1_555
O45 P11 1.558718 1_555
O45 V3 1.900440 1_555
O46 P10 1.535259 1_555
O46 V4 1.903445 1_545
O47 P13 1.602691 1_565
O47 P0 1.627673 1_555
O48 P0 1.492019 1_545
O49 P13 1.547524 1_555
O49 V5 1.878997 1_555
O50 P12 1.608786 1_555
O50 V5 1.809971 1_555
O51 P15 1.529915 1_555
O51 V4 1.941149 1_545
O52 P15 1.555263 1_555
O52 V3 1.961571 1_555
O53 P7 1.486545 1_555
O54 P7 1.597650 1_455
O54 P14 1.633848 1_555
O55 P14 1.575013 1_555
O55 V5 1.936721 1_555
O56 P2 1.478628 1_555
O57 P2 1.597546 1_545
O57 P15 1.631036 1_555
