# generated using pymatgen
data_Mg6VZn
_symmetry_space_group_name_H-M   'P 1'
_cell_length_a   4.94630700
_cell_length_b   6.11664000
_cell_length_c   10.77479600
_cell_angle_alpha   90.00000000
_cell_angle_beta   90.00000000
_cell_angle_gamma   90.00000000
_symmetry_Int_Tables_number   1
_chemical_formula_structural   Mg6VZn
_chemical_formula_sum   'Mg12 V2 Zn2'
_cell_volume   325.98907443
_cell_formula_units_Z   2
loop_
 _symmetry_equiv_pos_site_id
 _symmetry_equiv_pos_as_xyz
  1  'x, y, z'
loop_
 _atom_site_type_symbol
 _atom_site_label
 _atom_site_symmetry_multiplicity
 _atom_site_fract_x
 _atom_site_fract_y
 _atom_site_fract_z
 _atom_site_occupancy
  Mg  Mg0  1  0.50000000  0.25303500  0.41748400  1
  Mg  Mg1  1  0.50000000  0.74696500  0.41748400  1
  Mg  Mg2  1  0.00000000  0.74591300  0.08763700  1
  Mg  Mg3  1  0.00000000  0.25408700  0.08763700  1
  Mg  Mg4  1  0.00000000  0.00000000  0.32978300  1
  Mg  Mg5  1  0.00000000  0.50000000  0.32726400  1
  Mg  Mg6  1  0.50000000  0.75303500  0.91748400  1
  Mg  Mg7  1  0.50000000  0.24696500  0.91748400  1
  Mg  Mg8  1  0.00000000  0.24591300  0.58763700  1
  Mg  Mg9  1  0.00000000  0.75408700  0.58763700  1
  Mg  Mg10  1  0.00000000  0.50000000  0.82978300  1
  Mg  Mg11  1  0.00000000  0.00000000  0.82726400  1
  V  V0  1  0.50000000  0.50000000  0.16774100  1
  V  V1  1  0.50000000  0.00000000  0.66774100  1
  Zn  Zn0  1  0.50000000  0.00000000  0.16496500  1
  Zn  Zn1  1  0.50000000  0.50000000  0.66496500  1
loop_
_geom_bond_atom_site_label_1
_geom_bond_atom_site_label_2
_geom_bond_distance
_geom_bond_site_symmetry_2
Mg0 Mg1 3.021192 1_555
Mg0 Mg5 3.056693 1_655
Mg0 Mg5 3.056693 1_555
Mg0 Zn1 3.064707 1_555
Mg0 Mg4 3.066739 1_655
Mg0 Mg4 3.066739 1_555
Mg0 Mg8 3.078897 1_555
Mg0 Mg8 3.078897 1_655
Mg0 V0 3.085936 1_555
Mg0 Mg1 3.095448 1_545
Mg0 V1 3.109082 1_555
Mg0 Zn0 3.130243 1_555
Mg1 Mg5 3.056693 1_655
Mg1 Mg5 3.056693 1_555
Mg1 Zn1 3.064707 1_555
Mg1 Mg4 3.066739 1_665
Mg1 Mg4 3.066739 1_565
Mg1 Mg9 3.078897 1_555
Mg1 Mg9 3.078897 1_655
Mg1 V0 3.085936 1_555
Mg1 V1 3.109082 1_565
Mg1 Zn0 3.130243 1_565
Mg2 Mg5 2.988122 1_555
Mg2 Mg3 3.008323 1_555
Mg2 V0 3.020586 1_455
Mg2 V0 3.020586 1_555
Mg2 Mg4 3.036886 1_565
Mg2 Zn0 3.037451 1_565
Mg2 Zn0 3.037451 1_465
Mg2 Mg6 3.078897 1_454
Mg2 Mg6 3.078897 1_554
Mg2 Mg3 3.108317 1_565
Mg3 Mg5 2.988122 1_555
Mg3 V0 3.020586 1_555
Mg3 V0 3.020586 1_455
Mg3 Mg4 3.036886 1_555
Mg3 Zn0 3.037451 1_555
Mg3 Zn0 3.037451 1_455
Mg3 Mg7 3.078897 1_554
Mg3 Mg7 3.078897 1_454
Mg4 Zn0 3.044707 1_455
Mg4 Zn0 3.044707 1_555
Mg4 Mg5 3.058440 1_545
Mg4 Mg5 3.058440 1_555
Mg4 Mg8 3.159365 1_555
Mg4 Mg9 3.159365 1_545
Mg5 V0 3.011786 1_455
Mg5 V0 3.011786 1_555
Mg5 Mg8 3.207187 1_555
Mg5 Mg9 3.207187 1_555
Mg6 Mg7 3.021192 1_565
Mg6 Zn0 3.064707 1_566
Mg6 V1 3.085936 1_565
Mg6 Mg7 3.095448 1_555
Mg6 V0 3.109082 1_556
Mg6 Zn1 3.130243 1_555
Mg7 Zn0 3.064707 1_556
Mg7 V1 3.085936 1_555
Mg7 V0 3.109082 1_556
Mg7 Zn1 3.130243 1_555
Mg8 Mg9 3.008323 1_545
Mg8 V1 3.020586 1_455
Mg8 V1 3.020586 1_555
Mg8 Zn1 3.037451 1_455
Mg8 Zn1 3.037451 1_555
Mg8 Mg9 3.108317 1_555
Mg9 V1 3.020586 1_565
Mg9 V1 3.020586 1_465
Mg9 Zn1 3.037451 1_455
Mg9 Zn1 3.037451 1_555
Mg10 Mg9 3.036886 1_555
Mg10 Mg8 3.036886 1_555
Mg10 Zn1 3.044707 1_555
Mg10 Zn1 3.044707 1_455
Mg10 Mg11 3.058440 1_555
Mg10 Mg11 3.058440 1_565
Mg10 Mg6 3.066739 1_555
Mg10 Mg7 3.066739 1_455
Mg10 Mg7 3.066739 1_555
Mg10 Mg6 3.066739 1_455
Mg10 Mg2 3.159365 1_556
Mg10 Mg3 3.159365 1_556
Mg11 Mg9 2.988122 1_545
Mg11 Mg8 2.988122 1_555
Mg11 V1 3.011786 1_555
Mg11 V1 3.011786 1_455
Mg11 Mg6 3.056693 1_545
Mg11 Mg6 3.056693 1_445
Mg11 Mg7 3.056693 1_455
Mg11 Mg7 3.056693 1_555
Mg11 Mg3 3.207187 1_556
Mg11 Mg2 3.207187 1_546
V0 Zn0 3.058466 1_555
V0 Zn0 3.058466 1_565
V1 Zn1 3.058466 1_545
V1 Zn1 3.058466 1_555
