# generated using pymatgen
data_DyMnSn2
_symmetry_space_group_name_H-M   'P 1'
_cell_length_a   9.04666400
_cell_length_b   10.47286400
_cell_length_c   11.43796000
_cell_angle_alpha   90.00000000
_cell_angle_beta   90.00000000
_cell_angle_gamma   90.00000000
_symmetry_Int_Tables_number   1
_chemical_formula_structural   DyMnSn2
_chemical_formula_sum   'Dy12 Mn12 Sn24'
_cell_volume   1083.68359220
_cell_formula_units_Z   12
loop_
 _symmetry_equiv_pos_site_id
 _symmetry_equiv_pos_as_xyz
  1  'x, y, z'
loop_
 _atom_site_type_symbol
 _atom_site_label
 _atom_site_symmetry_multiplicity
 _atom_site_fract_x
 _atom_site_fract_y
 _atom_site_fract_z
 _atom_site_occupancy
  Dy  Dy0  1  0.24333300  0.82905800  0.45289500  1
  Dy  Dy1  1  0.24333300  0.17094200  0.54710500  1
  Dy  Dy2  1  0.75666700  0.32905800  0.04710500  1
  Dy  Dy3  1  0.75666700  0.67094200  0.95289500  1
  Dy  Dy4  1  0.75666700  0.17094200  0.54710500  1
  Dy  Dy5  1  0.75666700  0.82905800  0.45289500  1
  Dy  Dy6  1  0.24333300  0.67094200  0.95289500  1
  Dy  Dy7  1  0.24333300  0.32905800  0.04710500  1
  Dy  Dy8  1  0.00000000  0.83511100  0.17919300  1
  Dy  Dy9  1  0.00000000  0.16488900  0.82080700  1
  Dy  Dy10  1  0.00000000  0.33511100  0.32080700  1
  Dy  Dy11  1  0.00000000  0.66488900  0.67919300  1
  Mn  Mn0  1  0.24692500  0.58836600  0.25373600  1
  Mn  Mn1  1  0.24692500  0.41163400  0.74626400  1
  Mn  Mn2  1  0.75307500  0.08836600  0.24626400  1
  Mn  Mn3  1  0.75307500  0.91163400  0.75373600  1
  Mn  Mn4  1  0.75307500  0.41163400  0.74626400  1
  Mn  Mn5  1  0.75307500  0.58836600  0.25373600  1
  Mn  Mn6  1  0.24692500  0.91163400  0.75373600  1
  Mn  Mn7  1  0.24692500  0.08836600  0.24626400  1
  Mn  Mn8  1  0.24230500  0.50000000  0.50000000  1
  Mn  Mn9  1  0.75769500  0.00000000  0.00000000  1
  Mn  Mn10  1  0.75769500  0.50000000  0.50000000  1
  Mn  Mn11  1  0.24230500  0.00000000  0.00000000  1
  Sn  Sn0  1  0.33843100  0.83810300  0.18103700  1
  Sn  Sn1  1  0.33843100  0.16189700  0.81896300  1
  Sn  Sn2  1  0.66156900  0.33810300  0.31896300  1
  Sn  Sn3  1  0.66156900  0.66189700  0.68103700  1
  Sn  Sn4  1  0.66156900  0.16189700  0.81896300  1
  Sn  Sn5  1  0.66156900  0.83810300  0.18103700  1
  Sn  Sn6  1  0.33843100  0.66189700  0.68103700  1
  Sn  Sn7  1  0.33843100  0.33810300  0.31896300  1
  Sn  Sn8  1  0.50000000  0.54451600  0.12507400  1
  Sn  Sn9  1  0.50000000  0.45548400  0.87492600  1
  Sn  Sn10  1  0.50000000  0.04451600  0.37492600  1
  Sn  Sn11  1  0.50000000  0.95548400  0.62507400  1
  Sn  Sn12  1  0.00000000  0.54062600  0.12235300  1
  Sn  Sn13  1  0.00000000  0.45937400  0.87764700  1
  Sn  Sn14  1  0.00000000  0.04062600  0.37764700  1
  Sn  Sn15  1  0.00000000  0.95937400  0.62235300  1
  Sn  Sn16  1  0.50000000  0.62493800  0.40571700  1
  Sn  Sn17  1  0.50000000  0.37506200  0.59428300  1
  Sn  Sn18  1  0.50000000  0.12493800  0.09428300  1
  Sn  Sn19  1  0.50000000  0.87506200  0.90571700  1
  Sn  Sn20  1  0.00000000  0.62913400  0.39870200  1
  Sn  Sn21  1  0.00000000  0.37086600  0.60129800  1
  Sn  Sn22  1  0.00000000  0.12913400  0.10129800  1
  Sn  Sn23  1  0.00000000  0.87086600  0.89870200  1
loop_
_geom_bond_atom_site_label_1
_geom_bond_atom_site_label_2
_geom_bond_distance
_geom_bond_site_symmetry_2
Dy0 Sn20 3.100657 1_555
Dy0 Sn16 3.201973 1_555
Dy0 Sn0 3.227711 1_555
Dy0 Sn15 3.235028 1_555
Dy0 Sn14 3.239777 1_565
Dy0 Sn6 3.257963 1_555
Dy0 Sn11 3.320109 1_555
Dy0 Sn10 3.358353 1_565
Dy1 Sn21 3.100657 1_555
Dy1 Sn17 3.201973 1_555
Dy1 Sn1 3.227711 1_555
Dy1 Sn14 3.235028 1_555
Dy1 Sn15 3.239777 1_545
Dy1 Sn7 3.257963 1_555
Dy1 Sn10 3.320109 1_555
Dy1 Sn11 3.358353 1_545
Dy2 Sn22 3.100657 1_655
Dy2 Sn18 3.201973 1_555
Dy2 Sn2 3.227711 1_555
Dy2 Sn13 3.235028 1_654
Dy2 Sn12 3.239777 1_655
Dy2 Sn4 3.257963 1_554
Dy2 Sn9 3.320109 1_554
Dy2 Sn8 3.358353 1_555
Dy3 Sn23 3.100657 1_655
Dy3 Sn19 3.201973 1_555
Dy3 Sn3 3.227711 1_555
Dy3 Sn12 3.235028 1_656
Dy3 Sn13 3.239777 1_655
Dy3 Sn5 3.257963 1_556
Dy3 Sn8 3.320109 1_556
Dy3 Sn9 3.358353 1_555
Dy4 Sn21 3.100657 1_655
Dy4 Sn17 3.201973 1_555
Dy4 Sn4 3.227711 1_555
Dy4 Sn14 3.235028 1_655
Dy4 Sn15 3.239777 1_645
Dy4 Sn2 3.257963 1_555
Dy4 Sn10 3.320109 1_555
Dy4 Sn11 3.358353 1_545
Dy5 Sn20 3.100657 1_655
Dy5 Sn16 3.201973 1_555
Dy5 Sn5 3.227711 1_555
Dy5 Sn15 3.235028 1_655
Dy5 Sn14 3.239777 1_665
Dy5 Sn3 3.257963 1_555
Dy5 Sn11 3.320109 1_555
Dy5 Sn10 3.358353 1_565
Dy6 Sn23 3.100657 1_555
Dy6 Sn19 3.201973 1_555
Dy6 Sn6 3.227711 1_555
Dy6 Sn12 3.235028 1_556
Dy6 Sn13 3.239777 1_555
Dy6 Sn0 3.257963 1_556
Dy6 Sn8 3.320109 1_556
Dy6 Sn9 3.358353 1_555
Dy7 Sn22 3.100657 1_555
Dy7 Sn18 3.201973 1_555
Dy7 Sn7 3.227711 1_555
Dy7 Sn13 3.235028 1_554
Dy7 Sn12 3.239777 1_555
Dy7 Sn1 3.257963 1_554
Dy7 Sn9 3.320109 1_554
Dy7 Sn8 3.358353 1_555
Dy8 Sn0 3.061905 1_555
Dy8 Sn5 3.061905 1_455
Dy8 Sn14 3.128101 1_565
Dy8 Sn12 3.151881 1_555
Dy8 Sn22 3.205569 1_565
Dy8 Sn23 3.230024 1_554
Dy8 Sn20 3.310162 1_555
Dy9 Sn1 3.061905 1_555
Dy9 Sn4 3.061905 1_455
Dy9 Sn15 3.128101 1_545
Dy9 Sn13 3.151881 1_555
Dy9 Sn23 3.205569 1_545
Dy9 Sn22 3.230024 1_556
Dy9 Sn21 3.310162 1_555
Dy10 Sn7 3.061905 1_555
Dy10 Sn2 3.061905 1_455
Dy10 Sn12 3.128101 1_555
Dy10 Sn14 3.151881 1_555
Dy10 Sn20 3.205569 1_555
Dy10 Sn21 3.230024 1_555
Dy10 Sn22 3.310162 1_555
Dy11 Sn6 3.061905 1_555
Dy11 Sn3 3.061905 1_455
Dy11 Sn13 3.128101 1_555
Dy11 Sn15 3.151881 1_555
Dy11 Sn21 3.205569 1_555
Dy11 Sn20 3.230024 1_555
Dy11 Sn23 3.310162 1_555
Mn0 Sn12 2.738306 1_555
Mn0 Sn8 2.760133 1_555
Mn0 Sn20 2.814554 1_555
Mn0 Sn7 2.848050 1_555
Mn0 Sn0 2.866596 1_555
Mn0 Sn16 2.900053 1_555
Mn1 Sn13 2.738306 1_555
Mn1 Sn9 2.760133 1_555
Mn1 Sn21 2.814554 1_555
Mn1 Sn6 2.848050 1_555
Mn1 Sn1 2.866596 1_555
Mn1 Sn17 2.900053 1_555
Mn2 Sn14 2.738306 1_655
Mn2 Sn10 2.760133 1_555
Mn2 Sn22 2.814554 1_655
Mn2 Sn5 2.848050 1_545
Mn2 Sn2 2.866596 1_555
Mn2 Sn18 2.900053 1_555
Mn3 Sn15 2.738306 1_655
Mn3 Sn11 2.760133 1_555
Mn3 Sn23 2.814554 1_655
Mn3 Sn4 2.848050 1_565
Mn3 Sn3 2.866596 1_555
Mn3 Sn19 2.900053 1_555
Mn4 Sn13 2.738306 1_655
Mn4 Sn9 2.760133 1_555
Mn4 Sn21 2.814554 1_655
Mn4 Sn3 2.848050 1_555
Mn4 Sn4 2.866596 1_555
Mn4 Sn17 2.900053 1_555
Mn5 Sn12 2.738306 1_655
Mn5 Sn8 2.760133 1_555
Mn5 Sn20 2.814554 1_655
Mn5 Sn2 2.848050 1_555
Mn5 Sn5 2.866596 1_555
Mn5 Sn16 2.900053 1_555
Mn6 Sn15 2.738306 1_555
Mn6 Sn11 2.760133 1_555
Mn6 Sn23 2.814554 1_555
Mn6 Sn1 2.848050 1_565
Mn6 Sn6 2.866596 1_555
Mn6 Sn19 2.900053 1_555
Mn7 Sn14 2.738306 1_555
Mn7 Sn10 2.760133 1_555
Mn7 Sn22 2.814554 1_555
Mn7 Sn0 2.848050 1_545
Mn7 Sn7 2.866596 1_555
Mn7 Sn18 2.900053 1_555
Mn8 Sn6 2.814039 1_555
Mn8 Sn7 2.814039 1_555
Mn8 Sn20 2.824276 1_555
Mn8 Sn21 2.824276 1_555
Mn8 Sn16 2.882688 1_555
Mn8 Sn17 2.882688 1_555
Mn9 Sn4 2.814039 1_554
Mn9 Sn5 2.814039 1_545
Mn9 Sn22 2.824276 1_655
Mn9 Sn23 2.824276 1_644
Mn9 Sn18 2.882688 1_555
Mn9 Sn19 2.882688 1_544
Mn10 Sn3 2.814039 1_555
Mn10 Sn2 2.814039 1_555
Mn10 Sn20 2.824276 1_655
Mn10 Sn21 2.824276 1_655
Mn10 Sn16 2.882688 1_555
Mn10 Sn17 2.882688 1_555
Mn11 Sn1 2.814039 1_554
Mn11 Sn0 2.814039 1_545
Mn11 Sn22 2.824276 1_555
Mn11 Sn23 2.824276 1_544
Mn11 Sn18 2.882688 1_555
Mn11 Sn19 2.882688 1_544
Sn0 Sn5 2.923321 1_555
Sn1 Sn4 2.923321 1_555
Sn2 Sn7 2.923321 1_555
Sn3 Sn6 2.923321 1_555
