# generated using pymatgen
data_Ho2Cu(GeO4)2
_symmetry_space_group_name_H-M   'P 1'
_cell_length_a   8.91512411
_cell_length_b   8.91512411
_cell_length_c   5.14131288
_cell_angle_alpha   73.63697716
_cell_angle_beta   73.63697716
_cell_angle_gamma   114.94013635
_symmetry_Int_Tables_number   1
_chemical_formula_structural   Ho2Cu(GeO4)2
_chemical_formula_sum   'Ho4 Cu2 Ge4 O16'
_cell_volume   315.60438403
_cell_formula_units_Z   2
loop_
 _symmetry_equiv_pos_site_id
 _symmetry_equiv_pos_as_xyz
  1  'x, y, z'
loop_
 _atom_site_type_symbol
 _atom_site_label
 _atom_site_symmetry_multiplicity
 _atom_site_fract_x
 _atom_site_fract_y
 _atom_site_fract_z
 _atom_site_occupancy
  Ho  Ho0  1  0.30028700  0.54026900  0.81425900  1
  Ho  Ho1  1  0.54026900  0.30028700  0.81425900  1
  Ho  Ho2  1  0.04418300  0.80289400  0.32144000  1
  Ho  Ho3  1  0.80289400  0.04418300  0.32144000  1
  Cu  Cu0  1  0.92489600  0.33911100  0.62305000  1
  Cu  Cu1  1  0.33911100  0.92489600  0.62305000  1
  Ge  Ge0  1  0.16290000  0.16290000  0.62467400  1
  Ge  Ge1  1  0.88871200  0.46751600  0.08216700  1
  Ge  Ge2  1  0.46751600  0.88871200  0.08216700  1
  Ge  Ge3  1  0.66648600  0.66648600  0.02117300  1
  O  O0  1  0.09602600  0.62751800  0.07534300  1
  O  O1  1  0.62751800  0.09602600  0.07534300  1
  O  O2  1  0.06373300  0.25144300  0.41544600  1
  O  O3  1  0.25144300  0.06373300  0.41544600  1
  O  O4  1  0.49155300  0.49155300  0.98766700  1
  O  O5  1  0.74523300  0.26264800  0.45099900  1
  O  O6  1  0.26264800  0.74523300  0.45099900  1
  O  O7  1  0.75733000  0.57311900  0.24676400  1
  O  O8  1  0.57311900  0.75733000  0.24676400  1
  O  O9  1  0.33764000  0.33764000  0.66361300  1
  O  O10  1  0.83676400  0.83676400  0.64225000  1
  O  O11  1  0.83866800  0.49954900  0.75670300  1
  O  O12  1  0.49954900  0.83866800  0.75670300  1
  O  O13  1  0.99592000  0.99592000  0.01354500  1
  O  O14  1  0.00436600  0.34563700  0.92976800  1
  O  O15  1  0.34563700  0.00436600  0.92976800  1
loop_
_geom_bond_atom_site_label_1
_geom_bond_atom_site_label_2
_geom_bond_distance
_geom_bond_site_symmetry_2
Ho0 O14 2.235962 1_555
Ho0 O9 2.263718 1_555
Ho0 O4 2.270241 1_555
Ho0 O12 2.365399 1_555
Ho0 O6 2.426304 1_555
Ho0 O0 2.475580 1_556
Ho0 O8 2.650355 1_555
Ho0 O2 2.809739 1_556
Ho1 O15 2.235962 1_555
Ho1 O9 2.263718 1_555
Ho1 O4 2.270241 1_555
Ho1 O11 2.365399 1_555
Ho1 O5 2.426304 1_555
Ho1 O1 2.475580 1_556
Ho1 O7 2.650355 1_555
Ho1 O3 2.809739 1_556
Ho2 O13 2.263987 1_455
Ho2 O10 2.294357 1_455
Ho2 O15 2.312073 1_564
Ho2 O0 2.377727 1_555
Ho2 O11 2.404073 1_455
Ho2 O6 2.425624 1_555
Ho2 O3 2.562829 1_565
Ho2 O7 2.731663 1_455
Ho3 O13 2.263987 1_545
Ho3 O10 2.294357 1_545
Ho3 O14 2.312073 1_654
Ho3 O1 2.377727 1_555
Ho3 O12 2.404073 1_545
Ho3 O5 2.425624 1_555
Ho3 O2 2.562829 1_655
Ho3 O8 2.731663 1_545
Cu0 O14 1.907481 1_655
Cu0 O2 1.955409 1_655
Cu0 O5 2.007459 1_555
Cu0 O11 2.071809 1_555
Cu0 O1 2.444202 1_556
Cu0 O0 2.657019 1_655
Cu1 O15 1.907481 1_565
Cu1 O3 1.955409 1_565
Cu1 O6 2.007459 1_555
Cu1 O12 2.071809 1_555
Cu1 O0 2.444202 1_556
Cu1 O1 2.657019 1_565
Ge0 O9 1.788446 1_555
Ge0 O13 1.790683 1_446
Ge0 O3 1.791037 1_555
Ge0 O2 1.791037 1_555
Ge1 O0 1.778708 1_655
Ge1 O5 1.810941 1_555
Ge1 O11 1.827407 1_554
Ge1 O7 1.948022 1_555
Ge1 O14 1.956264 1_654
Ge2 O1 1.778708 1_565
Ge2 O6 1.810941 1_555
Ge2 O12 1.827407 1_554
Ge2 O8 1.948022 1_555
Ge2 O15 1.956264 1_564
Ge3 O10 1.768659 1_554
Ge3 O4 1.773594 1_554
Ge3 O8 1.802167 1_555
Ge3 O7 1.802167 1_555
