# generated using pymatgen
data_LiCr(GeO3)2
_symmetry_space_group_name_H-M   'P 1'
_cell_length_a   5.48530756
_cell_length_b   6.62704083
_cell_length_c   6.62704083
_cell_angle_alpha   80.36826560
_cell_angle_beta   73.95164422
_cell_angle_gamma   73.95164422
_symmetry_Int_Tables_number   1
_chemical_formula_structural   LiCr(GeO3)2
_chemical_formula_sum   'Li2 Cr2 Ge4 O12'
_cell_volume   221.41126105
_cell_formula_units_Z   2
loop_
 _symmetry_equiv_pos_site_id
 _symmetry_equiv_pos_as_xyz
  1  'x, y, z'
loop_
 _atom_site_type_symbol
 _atom_site_label
 _atom_site_symmetry_multiplicity
 _atom_site_fract_x
 _atom_site_fract_y
 _atom_site_fract_z
 _atom_site_occupancy
  Li  Li0  1  0.75000000  0.72420195  0.27579805  1
  Li  Li1  1  0.25000000  0.27579805  0.72420195  1
  Cr  Cr0  1  0.75000000  0.08536908  0.91463092  1
  Cr  Cr1  1  0.25000000  0.91463092  0.08536908  1
  Ge  Ge0  1  0.74827608  0.61497127  0.80557281  1
  Ge  Ge1  1  0.75172392  0.19442719  0.38502873  1
  Ge  Ge2  1  0.25172392  0.38502873  0.19442719  1
  Ge  Ge3  1  0.24827608  0.80557281  0.61497127  1
  O  O0  1  0.64205769  0.80560377  0.98849924  1
  O  O1  1  0.85794231  0.01150076  0.19439623  1
  O  O2  1  0.35794231  0.19439623  0.01150076  1
  O  O3  1  0.14205769  0.98849924  0.80560377  1
  O  O4  1  0.78563981  0.36135002  0.92506092  1
  O  O5  1  0.71436019  0.07493908  0.63864998  1
  O  O6  1  0.21436019  0.63864998  0.07493908  1
  O  O7  1  0.28563981  0.92506092  0.36135002  1
  O  O8  1  0.57692907  0.66983876  0.60685229  1
  O  O9  1  0.92307193  0.39314671  0.33016124  1
  O  O10  1  0.42307093  0.33016124  0.39314771  1
  O  O11  1  0.07692807  0.60685329  0.66983876  1
loop_
_geom_bond_atom_site_label_1
_geom_bond_atom_site_label_2
_geom_bond_distance
_geom_bond_site_symmetry_2
Li0 O0 2.090353 1_554
Li0 O1 2.090353 1_565
Li0 O8 2.148800 1_555
Li0 O9 2.148807 1_555
Li0 O7 2.482087 1_555
Li0 O6 2.482087 1_655
Li1 O3 2.090353 1_545
Li1 O2 2.090353 1_556
Li1 O10 2.148800 1_555
Li1 O11 2.148807 1_555
Li1 O5 2.482087 1_555
Li1 O4 2.482087 1_455
Cr0 O4 1.906690 1_555
Cr0 O5 1.906690 1_555
Cr0 O3 2.022830 1_645
Cr0 O2 2.022830 1_556
Cr0 O0 2.042199 1_545
Cr0 O1 2.042199 1_556
Cr1 O7 1.906690 1_555
Cr1 O6 1.906690 1_555
Cr1 O0 2.022830 1_554
Cr1 O1 2.022830 1_465
Cr1 O2 2.042199 1_565
Cr1 O3 2.042199 1_554
Ge0 O4 1.716943 1_555
Ge0 O8 1.756439 1_555
Ge0 O0 1.766364 1_555
Ge0 O11 1.768599 1_655
Ge1 O5 1.716943 1_555
Ge1 O9 1.756437 1_555
Ge1 O1 1.766364 1_555
Ge1 O10 1.768603 1_555
Ge2 O6 1.716943 1_555
Ge2 O10 1.756439 1_555
Ge2 O2 1.766364 1_555
Ge2 O9 1.768599 1_455
Ge3 O7 1.716943 1_555
Ge3 O11 1.756437 1_555
Ge3 O3 1.766364 1_555
Ge3 O8 1.768603 1_555
