# generated using pymatgen
data_Sm9Ga5S21
_symmetry_space_group_name_H-M   'P 1'
_cell_length_a   11.64929813
_cell_length_b   11.64918869
_cell_length_c   11.64926361
_cell_angle_alpha   94.69721999
_cell_angle_beta   85.30221625
_cell_angle_gamma   85.30255563
_symmetry_Int_Tables_number   1
_chemical_formula_structural   Sm9Ga5S21
_chemical_formula_sum   'Sm18 Ga10 S42'
_cell_volume   1563.99996045
_cell_formula_units_Z   2
loop_
 _symmetry_equiv_pos_site_id
 _symmetry_equiv_pos_as_xyz
  1  'x, y, z'
loop_
 _atom_site_type_symbol
 _atom_site_label
 _atom_site_symmetry_multiplicity
 _atom_site_fract_x
 _atom_site_fract_y
 _atom_site_fract_z
 _atom_site_occupancy
  Sm  Sm0  1  0.25944934  0.11528785  0.87875523  1
  Sm  Sm1  1  0.91800111  0.45798197  0.22693663  1
  Sm  Sm2  1  0.60238143  0.77296123  0.55004091  1
  Sm  Sm3  1  0.44996426  0.39761623  0.77296661  1
  Sm  Sm4  1  0.12124439  0.74054312  0.11528916  1
  Sm  Sm5  1  0.77306364  0.08198643  0.45798657  1
  Sm  Sm6  1  0.54201613  0.22693670  0.08199786  1
  Sm  Sm7  1  0.22704140  0.55003706  0.39762171  1
  Sm  Sm8  1  0.88471439  0.87875781  0.74055412  1
  Sm  Sm9  1  0.41680181  0.20851769  0.43808412  1
  Sm  Sm10  1  0.06941877  0.55408686  0.78445445  1
  Sm  Sm11  1  0.75238990  0.87228024  0.10402142  1
  Sm  Sm12  1  0.21554849  0.93058107  0.55407995  1
  Sm  Sm13  1  0.89598168  0.24761290  0.87227643  1
  Sm  Sm14  1  0.56192019  0.58320225  0.20851047  1
  Sm  Sm15  1  0.12771288  0.10402666  0.24761201  1
  Sm  Sm16  1  0.79148152  0.43808443  0.58319626  1
  Sm  Sm17  1  0.44590993  0.78445786  0.93058009  1
  Ga  Ga0  1  0.94985442  0.72381324  0.39077473  1
  Ga  Ga1  1  0.60923391  0.05014292  0.72382704  1
  Ga  Ga2  1  0.27617977  0.39076947  0.05015008  1
  Ga  Ga3  1  0.44869187  0.88641776  0.22691240  1
  Ga  Ga4  1  0.11358721  0.22692280  0.55130555  1
  Ga  Ga5  1  0.77307851  0.55131184  0.88640626  1
  Ga  Ga6  1  0.14396509  0.85603552  0.85603485  1
  Ga  Ga7  1  0.84591327  0.15408665  0.15408212  1
  Ga  Ga8  1  0.34676846  0.65322984  0.65323007  1
  Ga  Ga9  1  0.64377710  0.35622205  0.35622194  1
  S  S0  1  0.98655729  0.54246065  0.44934827  1
  S  S1  1  0.64168389  0.86965292  0.78304718  1
  S  S2  1  0.30395308  0.20579408  0.10549514  1
  S  S3  1  0.89450470  0.69604721  0.20580204  1
  S  S4  1  0.55065252  0.01344139  0.54247617  1
  S  S5  1  0.21695395  0.35832029  0.86966180  1
  S  S6  1  0.13034167  0.78304297  0.35832010  1
  S  S7  1  0.79420421  0.10549509  0.69604872  1
  S  S8  1  0.45752981  0.44934795  0.01344618  1
  S  S9  1  0.52247070  0.96796889  0.06826493  1
  S  S10  1  0.18836308  0.29939936  0.38756250  1
  S  S11  1  0.84096228  0.63103209  0.72199909  1
  S  S12  1  0.61243184  0.81164401  0.29939739  1
  S  S13  1  0.27799478  0.15904326  0.63102628  1
  S  S14  1  0.93172504  0.47753838  0.96796675  1
  S  S15  1  0.36896995  0.72200756  0.15904231  1
  S  S16  1  0.03203039  0.06827395  0.47753552  1
  S  S17  1  0.70060275  0.38756699  0.81163733  1
  S  S18  1  0.82423216  0.84744705  0.50912047  1
  S  S19  1  0.49088548  0.17576862  0.84745229  1
  S  S20  1  0.15254974  0.50911182  0.17577486  1
  S  S21  1  0.65302943  0.67754515  0.00778097  1
  S  S22  1  0.32245394  0.00778615  0.34696568  1
  S  S23  1  0.99221514  0.34696870  0.67754429  1
  S  S24  1  0.69043228  0.55806202  0.40731427  1
  S  S25  1  0.33476741  0.89734682  0.75926365  1
  S  S26  1  0.00574394  0.24019837  0.09474179  1
  S  S27  1  0.90524797  0.99425451  0.24019574  1
  S  S28  1  0.59268067  0.30956569  0.55806120  1
  S  S29  1  0.24072989  0.66523349  0.89734475  1
  S  S30  1  0.10265751  0.75927172  0.66523289  1
  S  S31  1  0.75980361  0.09475078  0.99425071  1
  S  S32  1  0.44194273  0.40732160  0.30956527  1
  S  S33  1  0.61879576  0.15008228  0.28851903  1
  S  S34  1  0.27329793  0.48014259  0.62172048  1
  S  S35  1  0.96006273  0.79144317  0.94497720  1
  S  S36  1  0.37828443  0.72670394  0.48014530  1
  S  S37  1  0.05502649  0.03994141  0.79144519  1
  S  S38  1  0.71148497  0.38120367  0.15008326  1
  S  S39  1  0.20855269  0.94497124  0.03993802  1
  S  S40  1  0.84991406  0.28851027  0.38120488  1
  S  S41  1  0.51985224  0.62171545  0.72670504  1
loop_
_geom_bond_atom_site_label_1
_geom_bond_atom_site_label_2
_geom_bond_distance
_geom_bond_site_symmetry_2
Ga0 S18 2.261774 1_555
Ga0 S6 2.278124 1_655
Ga0 S0 2.290732 1_555
Ga0 S3 2.304583 1_555
Ga1 S19 2.261758 1_555
Ga1 S1 2.278088 1_545
Ga1 S4 2.290767 1_555
Ga1 S7 2.304577 1_555
Ga2 S20 2.261747 1_555
Ga2 S5 2.278115 1_554
Ga2 S8 2.290744 1_555
Ga2 S2 2.304580 1_555
Ga3 S22 2.261900 1_565
Ga3 S9 2.284267 1_555
Ga3 S12 2.285231 1_555
Ga3 S15 2.306374 1_555
Ga4 S23 2.261884 1_455
Ga4 S16 2.284285 1_555
Ga4 S10 2.285209 1_555
Ga4 S13 2.306386 1_555
Ga5 S21 2.261884 1_556
Ga5 S14 2.284308 1_555
Ga5 S17 2.285199 1_555
Ga5 S11 2.306379 1_555
Ga6 S39 2.501451 1_556
Ga6 S37 2.501483 1_565
Ga6 S35 2.501485 1_455
Ga6 S29 2.509237 1_555
Ga6 S30 2.509239 1_555
Ga6 S25 2.509283 1_555
Ga7 S31 2.271448 1_554
Ga7 S26 2.271457 1_655
Ga7 S27 2.271458 1_545
Ga7 S38 2.967814 1_555
Ga7 S40 2.967863 1_555
Ga7 S33 2.967884 1_555
Ga8 S34 2.268421 1_555
Ga8 S36 2.268424 1_555
Ga8 S41 2.268433 1_555
Ga9 S32 2.492209 1_555
Ga9 S24 2.492230 1_555
Ga9 S28 2.492240 1_555
Ga9 S33 2.512991 1_555
Ga9 S38 2.512999 1_555
Ga9 S40 2.513007 1_555
S0 Sm7 2.826982 1_655
S0 Sm1 2.892969 1_555
S0 Sm16 3.042453 1_555
S1 Sm8 2.846021 1_555
S1 Sm2 2.938256 1_555
S1 Sm17 3.024572 1_555
S2 Sm6 2.797351 1_555
S2 Sm0 2.866156 1_554
S2 Sm15 2.919719 1_555
S3 Sm1 2.797335 1_555
S3 Sm4 2.866146 1_655
S3 Sm11 2.919730 1_555
S4 Sm2 2.826901 1_545
S4 Sm5 2.892944 1_555
S4 Sm9 3.042565 1_555
S5 Sm0 2.846005 1_555
S5 Sm3 2.938287 1_555
S5 Sm10 3.024586 1_555
S6 Sm4 2.846019 1_555
S6 Sm7 2.938260 1_555
S6 Sm12 3.024556 1_555
S7 Sm5 2.797336 1_555
S7 Sm8 2.866128 1_545
S7 Sm13 2.919699 1_555
S8 Sm3 2.826920 1_554
S8 Sm6 2.892949 1_555
S8 Sm14 3.042488 1_555
S9 Sm17 2.814792 1_554
S9 Sm11 2.891305 1_555
S9 Sm6 3.036072 1_565
S10 Sm15 2.860306 1_555
S10 Sm9 2.906215 1_555
S10 Sm7 2.984901 1_555
S11 Sm16 2.787202 1_555
S11 Sm10 2.906693 1_655
S11 Sm8 2.964987 1_555
S12 Sm11 2.860317 1_555
S12 Sm14 2.906213 1_555
S12 Sm2 2.984998 1_555
S13 Sm9 2.787150 1_555
S13 Sm12 2.906701 1_545
S13 Sm0 2.965046 1_555
S14 Sm10 2.814789 1_655
S14 Sm13 2.891322 1_555
S14 Sm1 3.036135 1_556
S15 Sm14 2.787199 1_555
S15 Sm17 2.906701 1_554
S15 Sm4 2.965015 1_555
S16 Sm12 2.814824 1_545
S16 Sm15 2.891302 1_555
S16 Sm5 3.036101 1_455
S17 Sm13 2.860342 1_555
S17 Sm16 2.906199 1_555
S17 Sm3 2.984921 1_555
S18 Sm2 2.809365 1_555
S18 Sm8 2.844334 1_555
S18 Sm5 2.869317 1_565
S19 Sm3 2.809312 1_555
S19 Sm0 2.844347 1_555
S19 Sm6 2.869397 1_556
S20 Sm7 2.809362 1_555
S20 Sm4 2.844292 1_555
S20 Sm1 2.869415 1_455
S21 Sm11 2.822924 1_555
S21 Sm14 2.829776 1_555
S21 Sm17 2.868487 1_554
S22 Sm15 2.822950 1_555
S22 Sm9 2.829866 1_555
S22 Sm12 2.868408 1_545
S23 Sm13 2.822831 1_555
S23 Sm16 2.829889 1_555
S23 Sm10 2.868465 1_655
S24 Sm16 2.851607 1_555
S24 Sm14 2.880567 1_555
S24 Sm2 2.949907 1_555
S24 Sm1 3.313991 1_555
S25 Sm17 2.821843 1_555
S25 Sm0 2.830097 1_565
S25 Sm12 2.898135 1_555
S26 Sm15 2.866085 1_555
S26 Sm1 2.920656 1_455
S26 Sm13 2.986627 1_454
S27 Sm11 2.866043 1_555
S27 Sm5 2.920647 1_565
S27 Sm15 2.986676 1_665
S28 Sm9 2.851580 1_555
S28 Sm16 2.880568 1_555
S28 Sm3 2.949912 1_555
S28 Sm5 3.314090 1_555
S29 Sm10 2.821834 1_555
S29 Sm4 2.830089 1_556
S29 Sm17 2.898130 1_555
S30 Sm12 2.821833 1_555
S30 Sm8 2.830109 1_455
S30 Sm10 2.898146 1_555
S31 Sm13 2.866080 1_555
S31 Sm6 2.920668 1_556
S31 Sm11 2.986702 1_546
S32 Sm14 2.851609 1_555
S32 Sm9 2.880587 1_555
S32 Sm7 2.949888 1_555
S32 Sm6 3.314004 1_555
S33 Sm9 2.812106 1_555
S33 Sm6 2.821985 1_555
S33 Sm5 2.891428 1_555
S34 Sm7 2.876657 1_555
S34 Sm10 2.938812 1_555
S34 Sm3 2.968395 1_555
S35 Sm8 2.840575 1_555
S35 Sm4 2.904131 1_656
S35 Sm11 2.962956 1_556
S35 Sm10 3.309227 1_655
S36 Sm2 2.876657 1_555
S36 Sm12 2.938782 1_555
S36 Sm7 2.968357 1_555
S37 Sm0 2.840554 1_555
S37 Sm8 2.904117 1_445
S37 Sm13 2.962928 1_455
S37 Sm12 3.309322 1_545
S38 Sm14 2.812126 1_555
S38 Sm1 2.821931 1_555
S38 Sm6 2.891393 1_555
S39 Sm4 2.840592 1_555
S39 Sm0 2.904147 1_564
S39 Sm15 2.963040 1_565
S39 Sm17 3.309199 1_554
S40 Sm16 2.812133 1_555
S40 Sm5 2.821987 1_555
S40 Sm1 2.891415 1_555
S41 Sm3 2.876634 1_555
S41 Sm17 2.938825 1_555
S41 Sm2 2.968361 1_555
