# generated using pymatgen
data_BiAu
_symmetry_space_group_name_H-M   'P 1'
_cell_length_a   6.25672030
_cell_length_b   6.25672030
_cell_length_c   11.41192343
_cell_angle_alpha   88.81767163
_cell_angle_beta   88.81767163
_cell_angle_gamma   89.42474082
_symmetry_Int_Tables_number   1
_chemical_formula_structural   BiAu
_chemical_formula_sum   'Bi8 Au8'
_cell_volume   446.52655803
_cell_formula_units_Z   8
loop_
 _symmetry_equiv_pos_site_id
 _symmetry_equiv_pos_as_xyz
  1  'x, y, z'
loop_
 _atom_site_type_symbol
 _atom_site_label
 _atom_site_symmetry_multiplicity
 _atom_site_fract_x
 _atom_site_fract_y
 _atom_site_fract_z
 _atom_site_occupancy
  Bi  Bi0_0  1  0.00000000  0.00000000  0.25000000  1
  Bi  Bi0_1  1  0.00000000  0.00000000  0.75000000  1
  Bi  Bi0_2  1  0.00000000  0.50000000  0.25000000  1
  Bi  Bi0_3  1  0.00000000  0.50000000  0.75000000  1
  Bi  Bi0_4  1  0.50000000  0.00000000  0.25000000  1
  Bi  Bi0_5  1  0.50000000  0.00000000  0.75000000  1
  Bi  Bi0_6  1  0.50000000  0.50000000  0.25000000  1
  Bi  Bi0_7  1  0.50000000  0.50000000  0.75000000  1
  Au  Au0_0  1  0.00000000  0.00000000  0.00000000  1
  Au  Au0_1  1  0.00000000  0.00000000  0.50000000  1
  Au  Au0_2  1  0.00000000  0.50000000  0.00000000  1
  Au  Au0_3  1  0.00000000  0.50000000  0.50000000  1
  Au  Au0_4  1  0.50000000  0.00000000  0.00000000  1
  Au  Au0_5  1  0.50000000  0.00000000  0.50000000  1
  Au  Au0_6  1  0.50000000  0.50000000  0.00000000  1
  Au  Au0_7  1  0.50000000  0.50000000  0.50000000  1
loop_
_geom_bond_atom_site_label_1
_geom_bond_atom_site_label_2
_geom_bond_distance
_geom_bond_site_symmetry_2
Bi0_0 Bi0_4 3.128360 1_555
Bi0_0 Bi0_4 3.128360 1_455
Bi0_0 Bi0_2 3.128360 1_545
Bi0_0 Bi0_2 3.128360 1_555
Bi0_1 Bi0_5 3.128360 1_555
Bi0_1 Bi0_3 3.128360 1_555
Bi0_1 Bi0_5 3.128360 1_455
Bi0_1 Bi0_3 3.128360 1_545
Bi0_2 Bi0_6 3.128360 1_455
Bi0_2 Bi0_6 3.128360 1_555
Bi0_3 Bi0_7 3.128360 1_555
Bi0_3 Bi0_7 3.128360 1_455
Bi0_4 Bi0_6 3.128360 1_545
Bi0_4 Bi0_6 3.128360 1_555
Bi0_5 Bi0_7 3.128360 1_555
Bi0_5 Bi0_7 3.128360 1_545
Au0_0 Bi0_0 2.852981 1_555
Au0_0 Bi0_1 2.852981 1_554
Au0_0 Au0_4 3.128360 1_455
Au0_0 Au0_4 3.128360 1_555
Au0_0 Au0_2 3.128360 1_555
Au0_0 Au0_2 3.128360 1_545
Au0_1 Bi0_0 2.852981 1_555
Au0_1 Bi0_1 2.852981 1_555
Au0_1 Au0_3 3.128360 1_555
Au0_1 Au0_5 3.128360 1_455
Au0_1 Au0_3 3.128360 1_545
Au0_1 Au0_5 3.128360 1_555
Au0_2 Bi0_2 2.852981 1_555
Au0_2 Bi0_3 2.852981 1_554
Au0_2 Au0_6 3.128360 1_555
Au0_2 Au0_6 3.128360 1_455
Au0_3 Bi0_2 2.852981 1_555
Au0_3 Bi0_3 2.852981 1_555
Au0_3 Au0_7 3.128360 1_555
Au0_3 Au0_7 3.128360 1_455
Au0_4 Bi0_5 2.852981 1_554
Au0_4 Bi0_4 2.852981 1_555
Au0_4 Au0_6 3.128360 1_545
Au0_4 Au0_6 3.128360 1_555
Au0_5 Bi0_4 2.852981 1_555
Au0_5 Bi0_5 2.852981 1_555
Au0_5 Au0_7 3.128360 1_555
Au0_5 Au0_7 3.128360 1_545
Au0_6 Bi0_6 2.852981 1_555
Au0_6 Bi0_7 2.852981 1_554
Au0_7 Bi0_6 2.852981 1_555
Au0_7 Bi0_7 2.852981 1_555
