# generated using pymatgen
data_Sr19Li44
_symmetry_space_group_name_H-M   'P 1'
_cell_length_a   15.60056150
_cell_length_b   15.60056150
_cell_length_c   19.38166681
_cell_angle_alpha   113.73184730
_cell_angle_beta   113.73184730
_cell_angle_gamma   90.00000000
_symmetry_Int_Tables_number   1
_chemical_formula_structural   Sr19Li44
_chemical_formula_sum   'Sr38 Li88'
_cell_volume   3878.49574476
_cell_formula_units_Z   2
loop_
 _symmetry_equiv_pos_site_id
 _symmetry_equiv_pos_as_xyz
  1  'x, y, z'
loop_
 _atom_site_type_symbol
 _atom_site_label
 _atom_site_symmetry_multiplicity
 _atom_site_fract_x
 _atom_site_fract_y
 _atom_site_fract_z
 _atom_site_occupancy
  Sr  Sr0  1  0.75000000  0.25000000  0.50000000  1
  Sr  Sr1  1  0.50000000  0.50000000  -0.00000000  1
  Sr  Sr2  1  0.09542035  0.09542035  0.19084070  1
  Sr  Sr3  1  0.15457965  0.65457965  0.30915930  1
  Sr  Sr4  1  0.90457965  0.90457965  0.80915930  1
  Sr  Sr5  1  0.34542035  0.84542035  0.69084070  1
  Sr  Sr6  1  0.20071759  0.21421940  0.59999099  1
  Sr  Sr7  1  0.04928241  0.36422840  0.90000901  1
  Sr  Sr8  1  0.39927340  0.38577160  0.59999099  1
  Sr  Sr9  1  0.85072660  0.53578060  0.90000901  1
  Sr  Sr10  1  0.78578060  0.60072660  0.40000901  1
  Sr  Sr11  1  0.46421940  0.95071759  0.09999099  1
  Sr  Sr12  1  0.61422840  0.79928241  0.40000901  1
  Sr  Sr13  1  0.63577160  0.14927340  0.09999099  1
  Sr  Sr14  1  0.09259674  0.29766485  0.40598769  1
  Sr  Sr15  1  0.15740326  0.64167716  0.09401231  1
  Sr  Sr16  1  0.31339095  0.10832284  0.40598769  1
  Sr  Sr17  1  0.93660905  0.45233515  0.09401231  1
  Sr  Sr18  1  0.70233515  0.68660905  0.59401231  1
  Sr  Sr19  1  0.54766485  0.84259674  0.90598769  1
  Sr  Sr20  1  0.89167716  0.90740326  0.59401231  1
  Sr  Sr21  1  0.35832284  0.06339095  0.90598769  1
  Sr  Sr22  1  0.81082272  0.99603387  0.00111444  1
  Sr  Sr23  1  0.43917728  0.74491942  0.49888556  1
  Sr  Sr24  1  0.19029173  0.00508058  0.00111444  1
  Sr  Sr25  1  0.05970827  0.75396613  0.49888556  1
  Sr  Sr26  1  0.00396613  0.80970827  0.99888556  1
  Sr  Sr27  1  0.24603387  0.56082272  0.50111444  1
  Sr  Sr28  1  0.99491942  0.18917728  0.99888556  1
  Sr  Sr29  1  0.25508058  0.94029173  0.50111444  1
  Sr  Sr30  1  0.97813626  0.18142966  0.65104831  1
  Sr  Sr31  1  0.27186374  0.28038136  0.84895169  1
  Sr  Sr32  1  0.67291205  0.46961864  0.65104831  1
  Sr  Sr33  1  0.57708795  0.56857034  0.84895169  1
  Sr  Sr34  1  0.81857034  0.32708795  0.34895169  1
  Sr  Sr35  1  0.43142966  0.72813626  0.15104831  1
  Sr  Sr36  1  0.53038136  0.02186374  0.34895169  1
  Sr  Sr37  1  0.71961864  0.42291205  0.15104831  1
  Li  Li0  1  0.16310203  0.01973677  0.67439041  1
  Li  Li1  1  0.08689797  0.09534635  0.82560959  1
  Li  Li2  1  0.51128838  0.65465365  0.67439041  1
  Li  Li3  1  0.73871162  0.73026323  0.82560959  1
  Li  Li4  1  0.98026323  0.48871162  0.32560959  1
  Li  Li5  1  0.26973677  0.91310203  0.17439041  1
  Li  Li6  1  0.34534635  0.83689797  0.32560959  1
  Li  Li7  1  0.90465365  0.26128838  0.17439041  1
  Li  Li8  1  0.24083427  0.26421160  0.17588820  1
  Li  Li9  1  0.00916573  0.83832339  0.32411180  1
  Li  Li10  1  0.93505393  0.91167661  0.17588820  1
  Li  Li11  1  0.31494607  0.48578840  0.32411180  1
  Li  Li12  1  0.73578840  0.06494607  0.82411180  1
  Li  Li13  1  0.51421160  0.99083427  0.67588820  1
  Li  Li14  1  0.08832339  0.75916573  0.82411180  1
  Li  Li15  1  0.16167661  0.68505393  0.67588820  1
  Li  Li16  1  0.12500000  0.41678763  0.75000000  1
  Li  Li17  1  0.62500000  0.33321237  0.75000000  1
  Li  Li18  1  0.58321237  0.37500000  0.25000000  1
  Li  Li19  1  0.66678763  0.87500000  0.25000000  1
  Li  Li20  1  0.86837243  0.11746127  0.76281378  1
  Li  Li21  1  0.38162757  0.10464749  0.73718622  1
  Li  Li22  1  0.89444135  0.64535251  0.76281378  1
  Li  Li23  1  0.35555865  0.63253873  0.73718622  1
  Li  Li24  1  0.88253873  0.10555865  0.23718622  1
  Li  Li25  1  0.36746127  0.61837243  0.26281378  1
  Li  Li26  1  0.35464749  0.13162757  0.23718622  1
  Li  Li27  1  0.89535251  0.64444135  0.26281378  1
  Li  Li28  1  0.29374746  0.31961151  0.36323592  1
  Li  Li29  1  0.95625254  0.70637560  0.13676408  1
  Li  Li30  1  0.06948846  0.04362440  0.36323592  1
  Li  Li31  1  0.18051154  0.43038849  0.13676408  1
  Li  Li32  1  0.68038849  0.93051154  0.63676408  1
  Li  Li33  1  0.56961151  0.04374746  0.86323592  1
  Li  Li34  1  0.95637560  0.70625254  0.63676408  1
  Li  Li35  1  0.29362440  0.81948846  0.86323592  1
  Li  Li36  1  0.18269842  0.47317424  0.63158470  1
  Li  Li37  1  0.06730158  0.59158954  0.86841530  1
  Li  Li38  1  0.44888628  0.15841046  0.63158470  1
  Li  Li39  1  0.80111372  0.27682576  0.86841530  1
  Li  Li40  1  0.52682576  0.55111372  0.36841530  1
  Li  Li41  1  0.72317424  0.93269842  0.13158470  1
  Li  Li42  1  0.84158954  0.81730158  0.36841530  1
  Li  Li43  1  0.40841046  0.19888628  0.13158470  1
  Li  Li44  1  0.32969940  0.46673740  0.78645874  1
  Li  Li45  1  0.92030060  0.43027866  0.71354126  1
  Li  Li46  1  0.45675934  0.31972134  0.78645874  1
  Li  Li47  1  0.79324066  0.28326260  0.71354126  1
  Li  Li48  1  0.53326260  0.54324066  0.21354126  1
  Li  Li49  1  0.71673740  0.07969940  0.28645874  1
  Li  Li50  1  0.68027866  0.67030060  0.21354126  1
  Li  Li51  1  0.56972134  0.20675934  0.28645874  1
  Li  Li52  1  0.99190108  0.36001188  0.56637550  1
  Li  Li53  1  0.25809892  0.54363639  0.93362450  1
  Li  Li54  1  0.57447442  0.20636361  0.56637550  1
  Li  Li55  1  0.67552558  0.38998812  0.93362450  1
  Li  Li56  1  0.63998812  0.42552558  0.43362450  1
  Li  Li57  1  0.61001188  0.74190108  0.06637550  1
  Li  Li58  1  0.79363639  0.00809892  0.43362450  1
  Li  Li59  1  0.45636361  0.32447442  0.06637550  1
  Li  Li60  1  0.43924475  0.34237791  0.31076206  1
  Li  Li61  1  0.81075525  0.78161585  0.18923794  1
  Li  Li62  1  0.87151731  0.96838415  0.31076206  1
  Li  Li63  1  0.37848269  0.40762209  0.18923794  1
  Li  Li64  1  0.65762209  0.12848269  0.68923794  1
  Li  Li65  1  0.59237791  0.18924475  0.81076206  1
  Li  Li66  1  0.03161585  0.56075525  0.68923794  1
  Li  Li67  1  0.21838415  0.62151731  0.81076206  1
  Li  Li68  1  0.23598522  0.25045187  0.01441193  1
  Li  Li69  1  0.01401478  0.98603995  0.48558807  1
  Li  Li70  1  0.77842670  0.76396005  0.01441193  1
  Li  Li71  1  0.47157330  0.49954813  0.48558807  1
  Li  Li72  1  0.74954813  0.22157330  0.98558807  1
  Li  Li73  1  0.50045187  0.98598522  0.51441193  1
  Li  Li74  1  0.23603995  0.76401478  0.98558807  1
  Li  Li75  1  0.01396005  0.52842670  0.51441193  1
  Li  Li76  1  0.11332923  0.37500000  0.25000000  1
  Li  Li77  1  0.13667077  0.87500000  0.25000000  1
  Li  Li78  1  0.62500000  0.86332923  0.75000000  1
  Li  Li79  1  0.12500000  0.88667077  0.75000000  1
  Li  Li80  1  0.50012157  0.28126881  0.43768208  1
  Li  Li81  1  0.74987843  0.59358673  0.06231792  1
  Li  Li82  1  0.93756050  0.15641327  0.43768208  1
  Li  Li83  1  0.31243950  0.46873119  0.06231792  1
  Li  Li84  1  0.71873119  0.06243950  0.56231792  1
  Li  Li85  1  0.53126881  0.25012157  0.93768208  1
  Li  Li86  1  0.84358673  0.49987843  0.56231792  1
  Li  Li87  1  0.40641327  0.68756050  0.93768208  1
loop_
_geom_bond_atom_site_label_1
_geom_bond_atom_site_label_2
_geom_bond_distance
_geom_bond_site_symmetry_2
Sr0 Sr36 4.063979 1_555
Sr0 Sr32 4.063979 1_555
Sr0 Sr30 4.063979 1_555
Sr0 Sr34 4.063979 1_555
Sr1 Sr31 4.063979 1_554
Sr1 Sr37 4.063979 1_555
Sr1 Sr35 4.063979 1_555
Sr1 Sr33 4.063979 1_554
Sr2 Sr22 4.231777 1_445
Sr2 Sr24 4.231777 1_555
Sr2 Sr26 4.257228 1_544
Sr2 Sr28 4.257228 1_454
Sr6 Sr8 4.093611 1_555
Sr7 Sr9 4.093611 1_455
Sr10 Sr34 4.058540 1_555
Sr10 Sr12 4.093611 1_555
Sr10 Sr37 4.154618 1_555
Sr10 Sr25 4.167770 1_655
Sr10 Sr18 4.184868 1_555
Sr10 Sr20 4.503041 1_555
Sr11 Sr35 4.058540 1_555
Sr11 Sr13 4.093611 1_565
Sr11 Sr36 4.154618 1_565
Sr11 Sr24 4.167770 1_565
Sr11 Sr19 4.184868 1_554
Sr11 Sr21 4.503042 1_564
Sr12 Sr36 4.058539 1_565
Sr12 Sr35 4.154618 1_555
Sr12 Sr23 4.167770 1_555
Sr12 Sr20 4.184868 1_555
Sr12 Sr18 4.503042 1_555
Sr13 Sr37 4.058539 1_555
Sr13 Sr34 4.154618 1_555
Sr13 Sr22 4.167770 1_545
Sr13 Sr21 4.184868 1_554
Sr13 Sr19 4.503041 1_544
Sr14 Sr34 4.038892 1_455
Sr14 Sr27 4.042106 1_555
Sr14 Sr2 4.111305 1_555
Sr14 Sr6 4.184868 1_555
Sr14 Sr8 4.503041 1_555
Sr15 Sr35 4.038892 1_555
Sr15 Sr26 4.042106 1_554
Sr15 Sr3 4.111306 1_555
Sr15 Sr7 4.184868 1_554
Sr15 Sr9 4.503041 1_454
Sr16 Sr36 4.038892 1_555
Sr16 Sr29 4.042106 1_545
Sr16 Sr2 4.111305 1_555
Sr16 Sr8 4.184868 1_555
Sr16 Sr6 4.503042 1_555
Sr17 Sr37 4.038892 1_555
Sr17 Sr28 4.042106 1_554
Sr17 Sr3 4.111305 1_655
Sr17 Sr9 4.184868 1_554
Sr17 Sr7 4.503042 1_654
Sr18 Sr32 4.038892 1_555
Sr18 Sr23 4.042106 1_555
Sr18 Sr4 4.111305 1_555
Sr19 Sr33 4.038892 1_555
Sr19 Sr22 4.042106 1_556
Sr19 Sr5 4.111305 1_555
Sr20 Sr30 4.038892 1_565
Sr20 Sr25 4.042106 1_655
Sr20 Sr4 4.111306 1_555
Sr21 Sr31 4.038892 1_555
Sr21 Sr24 4.042106 1_556
Sr21 Sr5 4.111305 1_545
Sr22 Sr28 4.187362 1_564
Sr22 Sr26 4.187362 1_654
Sr22 Sr4 4.257228 1_554
Sr23 Sr27 4.187362 1_555
Sr23 Sr29 4.187362 1_555
Sr23 Sr3 4.231777 1_555
Sr23 Sr5 4.257228 1_555
Sr24 Sr28 4.187362 1_454
Sr24 Sr26 4.187363 1_544
Sr24 Sr4 4.257228 1_444
Sr25 Sr27 4.187362 1_555
Sr25 Sr29 4.187363 1_555
Sr25 Sr3 4.231777 1_555
Sr25 Sr5 4.257228 1_555
Sr26 Sr9 4.167770 1_455
Sr26 Sr4 4.231777 1_455
Sr27 Sr8 4.167770 1_555
Sr27 Sr5 4.231777 1_555
Sr27 Sr3 4.257228 1_555
Sr28 Sr7 4.167770 1_655
Sr28 Sr4 4.231777 1_545
Sr29 Sr6 4.167770 1_565
Sr29 Sr5 4.231777 1_555
Sr29 Sr3 4.257228 1_555
Sr30 Sr6 4.058540 1_655
Sr30 Sr7 4.154618 1_655
Sr30 Sr31 4.379464 1_655
Sr31 Sr7 4.058539 1_555
Sr31 Sr6 4.154618 1_555
Sr32 Sr8 4.058539 1_555
Sr32 Sr9 4.154618 1_555
Sr32 Sr33 4.379464 1_555
Sr33 Sr9 4.058540 1_555
Sr33 Sr8 4.154618 1_555
Sr34 Sr37 4.379464 1_555
Sr35 Sr36 4.379464 1_565
Li0 Li79 3.155946 1_545
Li0 Li21 3.196979 1_555
Li0 Li69 3.267635 1_545
Li0 Sr30 3.842132 1_455
Li0 Sr31 3.894305 1_555
Li0 Sr29 3.924579 1_545
Li0 Sr25 3.949021 1_545
Li0 Sr6 3.978908 1_555
Li1 Li79 3.155946 1_545
Li1 Li20 3.196979 1_455
Li1 Li68 3.267635 1_556
Li1 Sr31 3.842133 1_555
Li1 Sr30 3.894305 1_455
Li1 Sr28 3.924579 1_455
Li1 Sr24 3.949021 1_556
Li1 Sr7 3.978908 1_555
Li2 Li78 3.155946 1_555
Li2 Li23 3.196979 1_555
Li2 Li71 3.267635 1_555
Li2 Sr32 3.842133 1_555
Li2 Sr33 3.894305 1_555
Li2 Sr27 3.924579 1_555
Li2 Sr23 3.949021 1_555
Li2 Sr8 3.978908 1_555
Li3 Li78 3.155946 1_555
Li3 Li70 3.267635 1_556
Li3 Sr33 3.842132 1_555
Li3 Sr32 3.894305 1_555
Li3 Sr26 3.924579 1_655
Li3 Sr22 3.949021 1_556
Li3 Sr9 3.978908 1_555
Li4 Li76 3.155946 1_655
Li4 Li75 3.267635 1_655
Li4 Sr34 3.842132 1_555
Li4 Sr37 3.894305 1_555
Li4 Sr25 3.924579 1_655
Li4 Sr27 3.949021 1_655
Li4 Sr10 3.978908 1_555
Li5 Li77 3.155946 1_555
Li5 Li74 3.267635 1_554
Li5 Sr35 3.842132 1_555
Li5 Sr36 3.894305 1_565
Li5 Sr24 3.924579 1_565
Li5 Sr26 3.949021 1_554
Li5 Sr11 3.978908 1_555
Li6 Li77 3.155946 1_555
Li6 Li73 3.267635 1_555
Li6 Sr36 3.842133 1_565
Li6 Sr35 3.894305 1_555
Li6 Sr23 3.924579 1_555
Li6 Sr29 3.949021 1_555
Li6 Sr12 3.978908 1_555
Li7 Li76 3.155946 1_655
Li7 Li72 3.267635 1_554
Li7 Sr37 3.842133 1_555
Li7 Sr34 3.894305 1_555
Li7 Sr22 3.924579 1_545
Li7 Sr28 3.949021 1_554
Li7 Sr13 3.978908 1_555
Li8 Sr2 3.647962 1_555
Li8 Sr28 3.745845 1_454
Li8 Sr24 3.907236 1_555
Li9 Sr3 3.647961 1_555
Li9 Sr29 3.745845 1_555
Li9 Sr25 3.907237 1_555
Li10 Li61 2.961506 1_555
Li10 Li62 2.970305 1_555
Li10 Li70 3.019168 1_555
Li10 Li24 3.020316 1_565
Li10 Li29 3.031396 1_555
Li10 Li77 3.051024 1_655
Li10 Li30 3.110413 1_665
Li10 Li41 3.116553 1_555
Li10 Sr2 3.647961 1_665
Li10 Sr26 3.745845 1_654
Li10 Sr22 3.907237 1_555
Li11 Li60 2.961505 1_555
Li11 Li63 2.970305 1_555
Li11 Li71 3.019168 1_555
Li11 Li25 3.020316 1_555
Li11 Li28 3.031396 1_555
Li11 Li76 3.051024 1_555
Li11 Li31 3.110413 1_555
Li11 Li40 3.116553 1_555
Li11 Sr3 3.647962 1_555
Li11 Sr27 3.745845 1_555
Li11 Sr23 3.907236 1_555
Li12 Li65 2.961505 1_555
Li12 Li64 2.970305 1_555
Li12 Li72 3.019168 1_555
Li12 Li20 3.020316 1_555
Li12 Li33 3.031396 1_555
Li12 Li78 3.051024 1_545
Li12 Li32 3.110413 1_545
Li12 Li39 3.116553 1_555
Li12 Sr4 3.647962 1_545
Li12 Sr22 3.745845 1_546
Li12 Sr28 3.907236 1_555
Li13 Li64 2.961505 1_565
Li13 Li65 2.970305 1_565
Li13 Li73 3.019168 1_555
Li13 Li21 3.020316 1_565
Li13 Li32 3.031396 1_555
Li13 Li78 3.051024 1_555
Li13 Li33 3.110413 1_565
Li13 Li38 3.116553 1_565
Li13 Sr5 3.647962 1_555
Li13 Sr23 3.745845 1_555
Li13 Sr29 3.907236 1_555
Li14 Li67 2.961506 1_555
Li14 Li66 2.970305 1_555
Li14 Li74 3.019168 1_555
Li14 Li22 3.020316 1_455
Li14 Li35 3.031396 1_555
Li14 Li79 3.051024 1_555
Li14 Li34 3.110413 1_455
Li14 Li37 3.116553 1_555
Li14 Sr4 3.647961 1_455
Li14 Sr24 3.745845 1_566
Li14 Sr26 3.907237 1_555
Li15 Li66 2.961506 1_555
Li15 Li67 2.970305 1_555
Li15 Li75 3.019168 1_555
Li15 Li23 3.020316 1_555
Li15 Li34 3.031396 1_455
Li15 Li79 3.051024 1_555
Li15 Li35 3.110413 1_555
Li15 Li36 3.116553 1_555
Li15 Sr5 3.647961 1_555
Li15 Sr25 3.745845 1_555
Li15 Sr27 3.907237 1_555
Li16 Li44 3.007483 1_555
Li16 Li45 3.007483 1_455
Li16 Li53 3.045757 1_555
Li16 Li52 3.045757 1_455
Li16 Li67 3.049876 1_555
Li16 Li66 3.049876 1_555
Li16 Li37 3.184234 1_555
Li16 Li36 3.184234 1_555
Li16 Sr31 3.633751 1_555
Li16 Sr30 3.633751 1_455
Li16 Sr6 3.899230 1_555
Li16 Sr7 3.899230 1_555
Li17 Li47 3.007483 1_555
Li17 Li46 3.007483 1_555
Li17 Li54 3.045757 1_555
Li17 Li55 3.045757 1_555
Li17 Li64 3.049876 1_555
Li17 Li65 3.049876 1_555
Li17 Li38 3.184233 1_555
Li17 Li39 3.184234 1_555
Li17 Sr32 3.633751 1_555
Li17 Sr33 3.633751 1_555
Li17 Sr9 3.899230 1_555
Li17 Sr8 3.899230 1_555
Li18 Li48 3.007483 1_555
Li18 Li51 3.007483 1_555
Li18 Li59 3.045757 1_555
Li18 Li56 3.045757 1_555
Li18 Li63 3.049876 1_555
Li18 Li60 3.049876 1_555
Li18 Li43 3.184233 1_555
Li18 Li40 3.184234 1_555
Li18 Sr37 3.633751 1_555
Li18 Sr34 3.633751 1_555
Li18 Sr10 3.899230 1_555
Li18 Sr13 3.899230 1_555
Li19 Li49 3.007483 1_565
Li19 Li50 3.007483 1_555
Li19 Li58 3.045757 1_565
Li19 Li57 3.045757 1_555
Li19 Li62 3.049876 1_555
Li19 Li61 3.049876 1_555
Li19 Li42 3.184234 1_555
Li19 Li41 3.184234 1_555
Li19 Sr36 3.633751 1_565
Li19 Sr35 3.633751 1_555
Li19 Sr11 3.899230 1_555
Li19 Sr12 3.899230 1_555
Li20 Li39 3.017275 1_555
Li20 Li64 3.049000 1_555
Li20 Li47 3.172313 1_555
Li20 Li84 3.361609 1_555
Li20 Sr30 3.653256 1_555
Li20 Sr20 3.728604 1_545
Li20 Sr4 3.761414 1_545
Li20 Sr28 3.833142 1_555
Li20 Sr7 3.946647 1_655
Li21 Li38 3.017275 1_555
Li21 Li65 3.049000 1_555
Li21 Li46 3.172313 1_555
Li21 Li85 3.361609 1_555
Li21 Sr31 3.653256 1_555
Li21 Sr21 3.728604 1_555
Li21 Sr5 3.761414 1_545
Li21 Sr29 3.833142 1_545
Li21 Sr6 3.946647 1_555
Li22 Li37 3.017275 1_655
Li22 Li66 3.049000 1_655
Li22 Li45 3.172313 1_555
Li22 Li3 3.196979 1_555
Li22 Li86 3.361609 1_555
Li22 Sr32 3.653256 1_555
Li22 Sr18 3.728604 1_555
Li22 Sr4 3.761414 1_555
Li22 Sr26 3.833142 1_655
Li22 Sr9 3.946647 1_555
Li23 Li36 3.017275 1_555
Li23 Li67 3.049000 1_555
Li23 Li44 3.172313 1_555
Li23 Li87 3.361609 1_555
Li23 Sr33 3.653256 1_555
Li23 Sr19 3.728604 1_555
Li23 Sr5 3.761414 1_555
Li23 Sr27 3.833142 1_555
Li23 Sr8 3.946647 1_555
Li24 Li41 3.017275 1_545
Li24 Li62 3.049000 1_545
Li24 Li49 3.172313 1_555
Li24 Li7 3.196979 1_555
Li24 Li82 3.361609 1_555
Li24 Sr34 3.653256 1_555
Li24 Sr14 3.728604 1_655
Li24 Sr2 3.761414 1_655
Li24 Sr22 3.833142 1_545
Li24 Sr13 3.946647 1_555
Li25 Li40 3.017275 1_555
Li25 Li63 3.049000 1_555
Li25 Li48 3.172313 1_555
Li25 Li6 3.196979 1_555
Li25 Li83 3.361609 1_555
Li25 Sr35 3.653256 1_555
Li25 Sr15 3.728604 1_555
Li25 Sr3 3.761414 1_555
Li25 Sr23 3.833142 1_555
Li25 Sr12 3.946647 1_555
Li26 Li43 3.017275 1_555
Li26 Li8 3.020316 1_555
Li26 Li60 3.049000 1_555
Li26 Li51 3.172313 1_555
Li26 Li5 3.196979 1_545
Li26 Li80 3.361609 1_555
Li26 Sr36 3.653256 1_555
Li26 Sr16 3.728604 1_555
Li26 Sr2 3.761414 1_555
Li26 Sr24 3.833142 1_555
Li26 Sr11 3.946647 1_545
Li27 Li42 3.017275 1_555
Li27 Li9 3.020316 1_655
Li27 Li61 3.049000 1_555
Li27 Li50 3.172313 1_555
Li27 Li4 3.196979 1_555
Li27 Li81 3.361609 1_555
Li27 Sr37 3.653256 1_555
Li27 Sr17 3.728604 1_555
Li27 Sr3 3.761414 1_655
Li27 Sr25 3.833142 1_655
Li27 Sr10 3.946647 1_555
Li28 Li60 2.908875 1_555
Li28 Li8 3.110413 1_555
Li28 Li80 3.124223 1_555
Li28 Li76 3.168561 1_555
Li28 Li71 3.247474 1_555
Li28 Sr14 3.601741 1_555
Li28 Sr16 3.693183 1_555
Li28 Sr8 3.865104 1_555
Li28 Sr2 3.904122 1_555
Li28 Sr27 3.919519 1_555
Li29 Li61 2.908875 1_555
Li29 Li9 3.110413 1_655
Li29 Li81 3.124223 1_555
Li29 Li77 3.168561 1_655
Li29 Li70 3.247474 1_555
Li29 Sr15 3.601741 1_655
Li29 Sr17 3.693183 1_555
Li29 Sr9 3.865104 1_554
Li29 Sr3 3.904122 1_655
Li29 Sr26 3.919519 1_654
Li30 Li62 2.908875 1_445
Li30 Li9 3.031396 1_545
Li30 Li82 3.124224 1_455
Li30 Li77 3.168561 1_545
Li30 Li69 3.247474 1_545
Li30 Sr16 3.601741 1_555
Li30 Sr14 3.693183 1_555
Li30 Sr6 3.865104 1_555
Li30 Sr2 3.904122 1_555
Li30 Sr29 3.919519 1_545
Li31 Li63 2.908875 1_555
Li31 Li8 3.031396 1_555
Li31 Li83 3.124224 1_555
Li31 Li76 3.168561 1_555
Li31 Li68 3.247474 1_555
Li31 Sr17 3.601741 1_455
Li31 Sr15 3.693183 1_555
Li31 Sr7 3.865104 1_554
Li31 Sr3 3.904122 1_555
Li31 Sr28 3.919519 1_454
Li32 Li64 2.908875 1_565
Li32 Li84 3.124224 1_565
Li32 Li78 3.168561 1_555
Li32 Li73 3.247474 1_555
Li32 Sr18 3.601741 1_555
Li32 Sr20 3.693183 1_555
Li32 Sr12 3.865104 1_555
Li32 Sr4 3.904122 1_555
Li32 Sr23 3.919519 1_555
Li33 Li65 2.908875 1_555
Li33 Li85 3.124223 1_555
Li33 Li78 3.168561 1_545
Li33 Li72 3.247474 1_555
Li33 Sr19 3.601741 1_545
Li33 Sr21 3.693183 1_555
Li33 Sr13 3.865104 1_556
Li33 Sr5 3.904122 1_545
Li33 Sr22 3.919519 1_546
Li34 Li66 2.908875 1_655
Li34 Li86 3.124223 1_555
Li34 Li79 3.168561 1_655
Li34 Li75 3.247474 1_655
Li34 Sr20 3.601741 1_555
Li34 Sr18 3.693183 1_555
Li34 Sr10 3.865104 1_555
Li34 Sr4 3.904122 1_555
Li34 Sr25 3.919519 1_655
Li35 Li67 2.908875 1_555
Li35 Li87 3.124224 1_555
Li35 Li79 3.168561 1_555
Li35 Li74 3.247474 1_555
Li35 Sr21 3.601741 1_565
Li35 Sr19 3.693183 1_555
Li35 Sr11 3.865104 1_556
Li35 Sr5 3.904122 1_555
Li35 Sr24 3.919519 1_566
Li36 Li52 2.958009 1_455
Li36 Li44 2.996888 1_555
Li36 Li66 3.092212 1_555
Li36 Li75 3.097377 1_555
Li36 Li67 3.114574 1_555
Li36 Sr14 3.742666 1_555
Li36 Sr27 3.746294 1_555
Li36 Sr8 3.826612 1_555
Li36 Sr6 3.862861 1_555
Li37 Li53 2.958009 1_555
Li37 Li45 2.996888 1_455
Li37 Li67 3.092212 1_555
Li37 Li74 3.097377 1_555
Li37 Li66 3.114574 1_555
Li37 Sr15 3.742666 1_556
Li37 Sr26 3.746294 1_555
Li37 Sr9 3.826612 1_455
Li37 Sr7 3.862861 1_555
Li38 Li54 2.958009 1_555
Li38 Li46 2.996888 1_555
Li38 Li64 3.092212 1_555
Li38 Li73 3.097377 1_545
Li38 Li65 3.114574 1_555
Li38 Sr16 3.742666 1_555
Li38 Sr29 3.746294 1_545
Li38 Sr6 3.826612 1_555
Li38 Sr8 3.862861 1_555
Li39 Li55 2.958009 1_555
Li39 Li47 2.996888 1_555
Li39 Li65 3.092212 1_555
Li39 Li72 3.097377 1_555
Li39 Li64 3.114574 1_555
Li39 Sr17 3.742666 1_556
Li39 Sr28 3.746294 1_555
Li39 Sr7 3.826612 1_655
Li39 Sr9 3.862861 1_555
Li40 Li56 2.958009 1_555
Li40 Li48 2.996888 1_555
Li40 Li60 3.092212 1_555
Li40 Li71 3.097377 1_555
Li40 Li63 3.114574 1_555
Li40 Sr18 3.742666 1_555
Li40 Sr23 3.746294 1_555
Li40 Sr12 3.826612 1_555
Li40 Sr10 3.862861 1_555
Li41 Li57 2.958009 1_555
Li41 Li49 2.996888 1_565
Li41 Li61 3.092212 1_555
Li41 Li70 3.097377 1_555
Li41 Li62 3.114574 1_555
Li41 Sr19 3.742666 1_554
Li41 Sr22 3.746294 1_555
Li41 Sr13 3.826612 1_565
Li41 Sr11 3.862861 1_555
Li42 Li58 2.958009 1_565
Li42 Li50 2.996888 1_555
Li42 Li62 3.092212 1_555
Li42 Li69 3.097377 1_655
Li42 Li61 3.114574 1_555
Li42 Li9 3.116553 1_655
Li42 Sr20 3.742666 1_555
Li42 Sr25 3.746294 1_655
Li42 Sr10 3.826612 1_555
Li42 Sr12 3.862861 1_555
Li43 Li59 2.958009 1_555
Li43 Li51 2.996888 1_555
Li43 Li63 3.092212 1_555
Li43 Li68 3.097377 1_555
Li43 Li60 3.114574 1_555
Li43 Li8 3.116553 1_555
Li43 Sr21 3.742666 1_554
Li43 Sr24 3.746294 1_555
Li43 Sr11 3.826612 1_545
Li43 Sr13 3.862861 1_555
Li44 Li67 2.968342 1_555
Li44 Li46 3.031408 1_555
Li44 Li53 3.260805 1_555
Li44 Li87 3.307557 1_555
Li44 Sr33 3.684344 1_555
Li44 Sr1 3.725307 1_556
Li44 Sr31 3.800960 1_555
Li44 Sr6 3.913580 1_555
Li44 Sr8 3.913815 1_555
Li45 Li66 2.968342 1_655
Li45 Li47 3.031408 1_555
Li45 Li52 3.260805 1_555
Li45 Li86 3.307557 1_555
Li45 Sr32 3.684344 1_555
Li45 Sr0 3.725307 1_555
Li45 Sr30 3.800960 1_555
Li45 Sr7 3.913580 1_655
Li45 Sr9 3.913815 1_555
Li46 Li65 2.968342 1_555
Li46 Li55 3.260805 1_555
Li46 Li85 3.307557 1_555
Li46 Sr31 3.684344 1_555
Li46 Sr1 3.725307 1_556
Li46 Sr33 3.800960 1_555
Li46 Sr8 3.913580 1_555
Li46 Sr6 3.913815 1_555
Li47 Li64 2.968342 1_555
Li47 Li54 3.260805 1_555
Li47 Li84 3.307557 1_555
Li47 Sr30 3.684344 1_555
Li47 Sr0 3.725307 1_555
Li47 Sr32 3.800960 1_555
Li47 Sr9 3.913580 1_555
Li47 Sr7 3.913815 1_655
Li48 Li63 2.968342 1_555
Li48 Li50 3.031408 1_555
Li48 Li59 3.260805 1_555
Li48 Li83 3.307557 1_555
Li48 Sr35 3.684344 1_555
Li48 Sr1 3.725307 1_555
Li48 Sr37 3.800960 1_555
Li48 Sr10 3.913580 1_555
Li48 Sr12 3.913815 1_555
Li49 Li62 2.968342 1_545
Li49 Li51 3.031408 1_555
Li49 Li58 3.260805 1_555
Li49 Li82 3.307557 1_555
Li49 Sr34 3.684344 1_555
Li49 Sr0 3.725307 1_555
Li49 Sr36 3.800960 1_555
Li49 Sr11 3.913580 1_545
Li49 Sr13 3.913815 1_555
Li50 Li61 2.968342 1_555
Li50 Li57 3.260805 1_555
Li50 Li81 3.307557 1_555
Li50 Sr37 3.684344 1_555
Li50 Sr1 3.725307 1_555
Li50 Sr35 3.800960 1_555
Li50 Sr12 3.913580 1_555
Li50 Sr10 3.913815 1_555
Li51 Li60 2.968342 1_555
Li51 Li56 3.260805 1_555
Li51 Li80 3.307557 1_555
Li51 Sr36 3.684344 1_555
Li51 Sr0 3.725307 1_555
Li51 Sr34 3.800960 1_555
Li51 Sr13 3.913580 1_555
Li51 Sr11 3.913815 1_545
Li52 Li66 2.944791 1_655
Li52 Li82 2.991624 1_555
Li52 Li86 3.180026 1_555
Li52 Li75 3.231824 1_655
Li52 Sr0 3.627272 1_555
Li52 Sr34 3.797322 1_555
Li52 Sr30 3.803263 1_555
Li52 Sr14 3.817593 1_655
Li52 Sr6 3.961601 1_655
Li53 Li67 2.944791 1_555
Li53 Li83 2.991624 1_556
Li53 Li87 3.180025 1_555
Li53 Li74 3.231824 1_555
Li53 Sr1 3.627273 1_556
Li53 Sr35 3.797322 1_556
Li53 Sr31 3.803263 1_555
Li53 Sr15 3.817593 1_556
Li53 Sr7 3.961601 1_555
Li54 Li64 2.944791 1_555
Li54 Li80 2.991624 1_555
Li54 Li84 3.180025 1_555
Li54 Li73 3.231824 1_545
Li54 Sr0 3.627273 1_555
Li54 Sr36 3.797322 1_555
Li54 Sr32 3.803263 1_555
Li54 Sr16 3.817593 1_555
Li54 Sr8 3.961601 1_555
Li55 Li65 2.944791 1_555
Li55 Li81 2.991624 1_556
Li55 Li85 3.180026 1_555
Li55 Li72 3.231824 1_555
Li55 Sr1 3.627272 1_556
Li55 Sr37 3.797322 1_556
Li55 Sr33 3.803263 1_555
Li55 Sr17 3.817593 1_556
Li55 Sr9 3.961601 1_555
Li56 Li60 2.944791 1_555
Li56 Li86 2.991624 1_555
Li56 Li80 3.180026 1_555
Li56 Li71 3.231824 1_555
Li56 Sr0 3.627272 1_555
Li56 Sr32 3.797322 1_555
Li56 Sr34 3.803263 1_555
Li56 Sr18 3.817593 1_555
Li56 Sr10 3.961601 1_555
Li57 Li61 2.944791 1_555
Li57 Li87 2.991624 1_554
Li57 Li81 3.180026 1_555
Li57 Li70 3.231824 1_555
Li57 Sr1 3.627272 1_555
Li57 Sr33 3.797322 1_554
Li57 Sr35 3.803263 1_555
Li57 Sr19 3.817593 1_554
Li57 Sr11 3.961601 1_555
Li58 Li62 2.944791 1_545
Li58 Li84 2.991624 1_555
Li58 Li82 3.180025 1_555
Li58 Li69 3.231824 1_645
Li58 Sr0 3.627273 1_555
Li58 Sr30 3.797322 1_555
Li58 Sr36 3.803263 1_555
Li58 Sr20 3.817593 1_545
Li58 Sr12 3.961601 1_545
Li59 Li63 2.944791 1_555
Li59 Li85 2.991624 1_554
Li59 Li83 3.180025 1_555
Li59 Li68 3.231824 1_555
Li59 Sr1 3.627273 1_555
Li59 Sr31 3.797322 1_554
Li59 Sr37 3.803263 1_555
Li59 Sr21 3.817593 1_554
Li59 Sr13 3.961601 1_555
Li60 Li63 2.759485 1_555
Li60 Li80 2.805208 1_555
Li60 Li8 2.970305 1_555
Li60 Li71 3.112049 1_555
Li61 Li62 2.759485 1_555
Li61 Li81 2.805208 1_555
Li61 Li9 2.970305 1_655
Li61 Li70 3.112049 1_555
Li62 Li82 2.805208 1_565
Li62 Li9 2.961506 1_655
Li62 Li69 3.112049 1_655
Li63 Li83 2.805208 1_555
Li63 Li8 2.961505 1_555
Li63 Li68 3.112049 1_555
Li64 Li65 2.759485 1_555
Li64 Li84 2.805208 1_555
Li64 Li73 3.112049 1_545
Li65 Li85 2.805208 1_555
Li65 Li72 3.112049 1_555
Li66 Li67 2.759485 1_555
Li66 Li86 2.805208 1_455
Li66 Li75 3.112049 1_555
Li67 Li87 2.805208 1_555
Li67 Li74 3.112049 1_555
Li68 Li8 3.019168 1_555
Li68 Li83 3.231760 1_555
Li68 Sr31 3.669540 1_554
Li68 Sr28 3.742351 1_454
Li68 Sr24 3.779635 1_555
Li68 Sr7 3.810537 1_554
Li68 Sr21 3.855757 1_554
Li69 Li9 3.019168 1_555
Li69 Li82 3.231760 1_465
Li69 Sr30 3.669540 1_465
Li69 Sr29 3.742351 1_555
Li69 Sr25 3.779635 1_555
Li69 Sr6 3.810537 1_565
Li69 Sr20 3.855757 1_455
Li70 Li81 3.231760 1_555
Li70 Sr33 3.669540 1_554
Li70 Sr26 3.742351 1_654
Li70 Sr22 3.779635 1_555
Li70 Sr9 3.810538 1_554
Li70 Sr19 3.855757 1_554
Li71 Li80 3.231760 1_555
Li71 Sr32 3.669540 1_555
Li71 Sr27 3.742351 1_555
Li71 Sr23 3.779635 1_555
Li71 Sr8 3.810538 1_555
Li71 Sr18 3.855757 1_555
Li72 Li85 3.231760 1_555
Li72 Sr37 3.669540 1_556
Li72 Sr22 3.742351 1_546
Li72 Sr28 3.779635 1_555
Li72 Sr13 3.810538 1_556
Li72 Sr17 3.855757 1_556
Li73 Li84 3.231760 1_565
Li73 Sr36 3.669540 1_565
Li73 Sr23 3.742351 1_555
Li73 Sr29 3.779635 1_555
Li73 Sr12 3.810537 1_555
Li73 Sr16 3.855757 1_565
Li74 Li87 3.231760 1_555
Li74 Sr35 3.669540 1_556
Li74 Sr24 3.742351 1_566
Li74 Sr26 3.779635 1_555
Li74 Sr11 3.810537 1_556
Li74 Sr15 3.855757 1_556
Li75 Li86 3.231760 1_455
Li75 Sr34 3.669540 1_455
Li75 Sr25 3.742351 1_555
Li75 Sr27 3.779635 1_555
Li75 Sr10 3.810538 1_455
Li75 Sr14 3.855757 1_555
Li76 Li8 3.051024 1_555
Li76 Sr17 3.797837 1_455
Li76 Sr14 3.797837 1_555
Li77 Li9 3.051024 1_555
Li77 Sr16 3.797837 1_565
Li77 Sr15 3.797837 1_555
Li78 Sr18 3.797837 1_555
Li78 Sr19 3.797837 1_555
Li79 Sr21 3.797837 1_565
Li79 Sr20 3.797837 1_455
Li80 Sr16 3.656306 1_555
Li80 Sr0 3.684766 1_555
Li80 Sr32 3.774702 1_555
Li80 Sr36 3.822184 1_555
Li80 Sr8 3.858098 1_555
Li81 Sr17 3.656307 1_555
Li81 Sr1 3.684766 1_555
Li81 Sr33 3.774702 1_554
Li81 Sr37 3.822184 1_555
Li81 Sr9 3.858098 1_554
Li82 Sr14 3.656307 1_655
Li82 Sr0 3.684766 1_555
Li82 Sr30 3.774702 1_555
Li82 Sr34 3.822184 1_555
Li82 Sr6 3.858098 1_655
Li83 Sr15 3.656307 1_555
Li83 Sr1 3.684766 1_555
Li83 Sr31 3.774702 1_554
Li83 Sr35 3.822184 1_555
Li83 Sr7 3.858098 1_554
Li84 Sr20 3.656307 1_545
Li84 Sr0 3.684766 1_555
Li84 Sr36 3.774702 1_555
Li84 Sr30 3.822184 1_555
Li84 Sr12 3.858098 1_545
Li85 Sr21 3.656306 1_555
Li85 Sr1 3.684766 1_556
Li85 Sr37 3.774702 1_556
Li85 Sr31 3.822184 1_555
Li85 Sr13 3.858098 1_556
Li86 Sr18 3.656307 1_555
Li86 Sr0 3.684766 1_555
Li86 Sr34 3.774702 1_555
Li86 Sr32 3.822184 1_555
Li86 Sr10 3.858098 1_555
Li87 Sr19 3.656307 1_555
Li87 Sr1 3.684766 1_556
Li87 Sr35 3.774702 1_556
Li87 Sr33 3.822184 1_555
Li87 Sr11 3.858098 1_556
