# generated using pymatgen
data_Lu(FeO2)2
_symmetry_space_group_name_H-M   'P 1'
_cell_length_a   6.01222911
_cell_length_b   6.01222911
_cell_length_c   16.90650675
_cell_angle_alpha   93.36067679
_cell_angle_beta   93.36067679
_cell_angle_gamma   119.81651286
_symmetry_Int_Tables_number   1
_chemical_formula_structural   Lu(FeO2)2
_chemical_formula_sum   'Lu6 Fe12 O24'
_cell_volume   526.58285865
_cell_formula_units_Z   6
loop_
 _symmetry_equiv_pos_site_id
 _symmetry_equiv_pos_as_xyz
  1  'x, y, z'
loop_
 _atom_site_type_symbol
 _atom_site_label
 _atom_site_symmetry_multiplicity
 _atom_site_fract_x
 _atom_site_fract_y
 _atom_site_fract_z
 _atom_site_occupancy
  Lu  Lu0  1  0.74517300  0.74517300  0.23919900  1
  Lu  Lu1  1  0.25482700  0.25482700  0.76080100  1
  Lu  Lu2  1  0.08588900  0.41630000  0.25308200  1
  Lu  Lu3  1  0.41630000  0.08588900  0.25308200  1
  Lu  Lu4  1  0.91411100  0.58370000  0.74691800  1
  Lu  Lu5  1  0.58370000  0.91411100  0.74691800  1
  Fe  Fe0  1  0.69070000  0.02606100  0.07086000  1
  Fe  Fe1  1  0.02606100  0.69070000  0.07086000  1
  Fe  Fe2  1  0.30930000  0.97393900  0.92914000  1
  Fe  Fe3  1  0.97393900  0.30930000  0.92914000  1
  Fe  Fe4  1  0.13863400  0.13863400  0.42614600  1
  Fe  Fe5  1  0.86136600  0.86136600  0.57385400  1
  Fe  Fe6  1  0.35432400  0.35432400  0.07058600  1
  Fe  Fe7  1  0.64567600  0.64567600  0.92941400  1
  Fe  Fe8  1  0.47876000  0.80883900  0.42820500  1
  Fe  Fe9  1  0.80883900  0.47876000  0.42820500  1
  Fe  Fe10  1  0.52124000  0.19116100  0.57179500  1
  Fe  Fe11  1  0.19116100  0.52124000  0.57179500  1
  O  O0  1  0.20257800  0.20257800  0.55263500  1
  O  O1  1  0.79742200  0.79742200  0.44736500  1
  O  O2  1  0.38751100  0.38751100  0.19075900  1
  O  O3  1  0.61248900  0.61248900  0.80924100  1
  O  O4  1  0.69460700  0.69460700  0.06519000  1
  O  O5  1  0.30539300  0.30539300  0.93481000  1
  O  O6  1  0.01469400  0.35331400  0.05542000  1
  O  O7  1  0.35331400  0.01469400  0.05542000  1
  O  O8  1  0.98530600  0.64668600  0.94458000  1
  O  O9  1  0.64668600  0.98530600  0.94458000  1
  O  O10  1  0.76986800  0.44658100  0.31094400  1
  O  O11  1  0.44658100  0.76986800  0.31094400  1
  O  O12  1  0.23013200  0.55341900  0.68905600  1
  O  O13  1  0.55341900  0.23013200  0.68905600  1
  O  O14  1  0.09029500  0.09029500  0.30834300  1
  O  O15  1  0.90970500  0.90970500  0.69165700  1
  O  O16  1  0.14469900  0.49677000  0.44024000  1
  O  O17  1  0.49677000  0.14469900  0.44024000  1
  O  O18  1  0.85530100  0.50323000  0.55976000  1
  O  O19  1  0.50323000  0.85530100  0.55976000  1
  O  O20  1  0.07384600  0.72839900  0.18898300  1
  O  O21  1  0.72839900  0.07384600  0.18898300  1
  O  O22  1  0.92615400  0.27160100  0.81101700  1
  O  O23  1  0.27160100  0.92615400  0.81101700  1
loop_
_geom_bond_atom_site_label_1
_geom_bond_atom_site_label_2
_geom_bond_distance
_geom_bond_site_symmetry_2
Lu0 O2 2.215267 1_555
Lu0 O21 2.240661 1_565
Lu0 O20 2.240661 1_655
Lu0 O14 2.264308 1_665
Lu0 O10 2.283704 1_555
Lu0 O11 2.283704 1_555
Lu1 O3 2.215267 1_555
Lu1 O23 2.240661 1_545
Lu1 O22 2.240661 1_455
Lu1 O15 2.264308 1_445
Lu1 O12 2.283704 1_555
Lu1 O13 2.283704 1_555
Lu2 O2 2.223383 1_555
Lu2 O14 2.231289 1_555
Lu2 O20 2.250524 1_555
Lu2 O21 2.257808 1_455
Lu2 O11 2.258684 1_555
Lu2 O10 2.267397 1_455
Lu3 O2 2.223383 1_555
Lu3 O14 2.231289 1_555
Lu3 O21 2.250524 1_555
Lu3 O20 2.257808 1_545
Lu3 O10 2.258684 1_555
Lu3 O11 2.267397 1_545
Lu4 O3 2.223383 1_555
Lu4 O15 2.231289 1_555
Lu4 O22 2.250524 1_555
Lu4 O23 2.257808 1_655
Lu4 O13 2.258684 1_555
Lu4 O12 2.267397 1_655
Lu5 O3 2.223383 1_555
Lu5 O15 2.231289 1_555
Lu5 O23 2.250524 1_555
Lu5 O22 2.257808 1_565
Lu5 O12 2.258684 1_555
Lu5 O13 2.267397 1_565
Fe0 O21 1.984192 1_555
Fe0 O7 1.996337 1_555
Fe0 O4 2.001330 1_545
Fe0 O6 2.010526 1_655
Fe0 O9 2.120387 1_544
Fe1 O20 1.984192 1_555
Fe1 O6 1.996337 1_555
Fe1 O4 2.001330 1_455
Fe1 O7 2.010526 1_565
Fe1 O8 2.120387 1_454
Fe2 O23 1.984192 1_555
Fe2 O9 1.996337 1_555
Fe2 O5 2.001330 1_565
Fe2 O8 2.010526 1_455
Fe2 O7 2.120387 1_566
Fe3 O22 1.984192 1_555
Fe3 O8 1.996337 1_555
Fe3 O5 2.001330 1_655
Fe3 O9 2.010526 1_545
Fe3 O6 2.120387 1_656
Fe4 O14 1.978845 1_555
Fe4 O0 2.128137 1_555
Fe4 O1 2.129096 1_445
Fe4 O16 2.134270 1_555
Fe4 O17 2.134270 1_555
Fe5 O15 1.978845 1_555
Fe5 O1 2.128137 1_555
Fe5 O0 2.129096 1_665
Fe5 O19 2.134270 1_555
Fe5 O18 2.134270 1_555
Fe6 O2 2.018119 1_555
Fe6 O7 2.039945 1_555
Fe6 O6 2.039945 1_555
Fe6 O4 2.064186 1_555
Fe6 O5 2.279910 1_554
Fe7 O3 2.018119 1_555
Fe7 O8 2.039945 1_555
Fe7 O9 2.039945 1_555
Fe7 O5 2.064186 1_555
Fe7 O4 2.279910 1_556
Fe8 O1 1.959801 1_555
Fe8 O17 1.965294 1_565
Fe8 O11 1.969270 1_555
Fe8 O16 1.985143 1_555
Fe8 O19 2.212325 1_555
Fe9 O1 1.959801 1_555
Fe9 O16 1.965294 1_655
Fe9 O10 1.969270 1_555
Fe9 O17 1.985143 1_555
Fe9 O18 2.212325 1_555
Fe10 O0 1.959801 1_555
Fe10 O19 1.965294 1_545
Fe10 O13 1.969270 1_555
Fe10 O18 1.985143 1_555
Fe10 O17 2.212325 1_555
Fe11 O0 1.959801 1_555
Fe11 O18 1.965294 1_455
Fe11 O12 1.969270 1_555
Fe11 O19 1.985143 1_555
Fe11 O16 2.212325 1_555
