# generated using pymatgen
data_Ho5CuPb3
_symmetry_space_group_name_H-M   'P 1'
_cell_length_a   9.12602570
_cell_length_b   9.12602570
_cell_length_c   6.73109700
_cell_angle_alpha   90.00000000
_cell_angle_beta   90.00000000
_cell_angle_gamma   119.99999779
_symmetry_Int_Tables_number   1
_chemical_formula_structural   Ho5CuPb3
_chemical_formula_sum   'Ho10 Cu2 Pb6'
_cell_volume   485.48952614
_cell_formula_units_Z   2
loop_
 _symmetry_equiv_pos_site_id
 _symmetry_equiv_pos_as_xyz
  1  'x, y, z'
loop_
 _atom_site_type_symbol
 _atom_site_label
 _atom_site_symmetry_multiplicity
 _atom_site_fract_x
 _atom_site_fract_y
 _atom_site_fract_z
 _atom_site_occupancy
  Ho  Ho0  1  0.25093900  0.00000000  0.75000000  1
  Ho  Ho1  1  0.74906100  0.00000000  0.25000000  1
  Ho  Ho2  1  0.00000000  0.25093900  0.75000000  1
  Ho  Ho3  1  0.00000000  0.74906100  0.25000000  1
  Ho  Ho4  1  0.74906100  0.74906100  0.75000000  1
  Ho  Ho5  1  0.25093900  0.25093900  0.25000000  1
  Ho  Ho6  1  0.33333300  0.66666700  0.50000000  1
  Ho  Ho7  1  0.66666700  0.33333300  0.50000000  1
  Ho  Ho8  1  0.66666700  0.33333300  0.00000000  1
  Ho  Ho9  1  0.33333300  0.66666700  0.00000000  1
  Cu  Cu0  1  0.00000000  0.00000000  0.50000000  1
  Cu  Cu1  1  0.00000000  0.00000000  0.00000000  1
  Pb  Pb0  1  0.60495900  0.00000000  0.75000000  1
  Pb  Pb1  1  0.39504100  0.00000000  0.25000000  1
  Pb  Pb2  1  0.00000000  0.60495900  0.75000000  1
  Pb  Pb3  1  0.00000000  0.39504100  0.25000000  1
  Pb  Pb4  1  0.39504100  0.39504100  0.75000000  1
  Pb  Pb5  1  0.60495900  0.60495900  0.25000000  1
loop_
_geom_bond_atom_site_label_1
_geom_bond_atom_site_label_2
_geom_bond_distance
_geom_bond_site_symmetry_2
Ho0 Pb4 3.159986 1_555
Ho0 Pb2 3.159986 1_545
Ho0 Pb0 3.230796 1_555
Ho0 Pb1 3.613357 1_555
Ho0 Pb1 3.613357 1_556
Ho1 Pb5 3.159986 1_545
Ho1 Pb3 3.159986 1_655
Ho1 Pb1 3.230796 1_555
Ho1 Pb0 3.613357 1_554
Ho1 Pb0 3.613357 1_555
Ho2 Pb4 3.159986 1_555
Ho2 Pb0 3.159986 1_455
Ho2 Pb2 3.230796 1_555
Ho2 Pb3 3.613357 1_555
Ho2 Pb3 3.613357 1_556
Ho3 Pb5 3.159986 1_455
Ho3 Pb1 3.159986 1_565
Ho3 Pb3 3.230796 1_555
Ho3 Pb2 3.613357 1_555
Ho3 Pb2 3.613357 1_554
Ho4 Pb0 3.159985 1_565
Ho4 Pb2 3.159985 1_655
Ho4 Pb4 3.230796 1_555
Ho4 Pb5 3.613357 1_556
Ho4 Pb5 3.613357 1_555
Ho5 Pb1 3.159985 1_555
Ho5 Pb3 3.159985 1_555
Ho5 Pb5 3.230796 1_555
Ho5 Pb4 3.613357 1_554
Ho5 Pb4 3.613357 1_555
Ho6 Pb1 3.269490 1_565
Ho6 Pb2 3.269490 1_555
Ho6 Pb0 3.269492 1_565
Ho6 Pb3 3.269492 1_555
Ho6 Pb4 3.269497 1_555
Ho6 Pb5 3.269497 1_555
Ho7 Pb0 3.269490 1_555
Ho7 Pb3 3.269490 1_655
Ho7 Pb1 3.269492 1_555
Ho7 Pb2 3.269492 1_655
Ho7 Pb4 3.269497 1_555
Ho7 Pb5 3.269497 1_555
Ho8 Pb0 3.269490 1_554
Ho8 Pb3 3.269490 1_655
Ho8 Pb1 3.269492 1_555
Ho8 Pb2 3.269492 1_654
Ho8 Pb5 3.269497 1_555
Ho8 Pb4 3.269497 1_554
Ho9 Pb1 3.269490 1_565
Ho9 Pb2 3.269490 1_554
Ho9 Pb3 3.269492 1_555
Ho9 Pb0 3.269492 1_564
Ho9 Pb5 3.269497 1_555
Ho9 Pb4 3.269497 1_554
Cu0 Ho2 2.841861 1_555
Cu0 Ho1 2.841861 1_455
Cu0 Ho0 2.841861 1_555
Cu0 Ho3 2.841861 1_545
Cu0 Ho5 2.841861 1_555
Cu0 Ho4 2.841861 1_445
Cu1 Ho0 2.841861 1_554
Cu1 Ho1 2.841861 1_455
Cu1 Ho2 2.841861 1_554
Cu1 Ho3 2.841861 1_545
Cu1 Ho5 2.841861 1_555
Cu1 Ho4 2.841861 1_444
