# generated using pymatgen
data_Ca2Fe2O5
_symmetry_space_group_name_H-M   'P 1'
_cell_length_a   5.37057000
_cell_length_b   5.51466800
_cell_length_c   8.23656700
_cell_angle_alpha   90.00000000
_cell_angle_beta   90.00000000
_cell_angle_gamma   90.00000000
_symmetry_Int_Tables_number   1
_chemical_formula_structural   Ca2Fe2O5
_chemical_formula_sum   'Ca4 Fe4 O10'
_cell_volume   243.94166784
_cell_formula_units_Z   2
loop_
 _symmetry_equiv_pos_site_id
 _symmetry_equiv_pos_as_xyz
  1  'x, y, z'
loop_
 _atom_site_type_symbol
 _atom_site_label
 _atom_site_symmetry_multiplicity
 _atom_site_fract_x
 _atom_site_fract_y
 _atom_site_fract_z
 _atom_site_occupancy
  Ca  Ca0  1  0.96232100  0.78491900  0.50000000  1
  Ca  Ca1  1  0.46232100  0.21508100  0.00000000  1
  Ca  Ca2  1  0.55679000  0.29428000  0.50000000  1
  Ca  Ca3  1  0.05679000  0.70572000  0.00000000  1
  Fe  Fe0  1  0.48853600  0.74781900  0.71988800  1
  Fe  Fe1  1  0.98853600  0.25218100  0.78011200  1
  Fe  Fe2  1  0.98853600  0.25218100  0.21988800  1
  Fe  Fe3  1  0.48853600  0.74781900  0.28011200  1
  O  O0  1  0.87674200  0.29369300  0.00000000  1
  O  O1  1  0.37674200  0.70630700  0.50000000  1
  O  O2  1  0.73197800  0.02730100  0.30996100  1
  O  O3  1  0.23197800  0.97269900  0.19003900  1
  O  O4  1  0.79487000  0.52599000  0.68731600  1
  O  O5  1  0.29487000  0.47401000  0.81268400  1
  O  O6  1  0.73197800  0.02730100  0.69003900  1
  O  O7  1  0.23197800  0.97269900  0.80996100  1
  O  O8  1  0.29487000  0.47401000  0.18731600  1
  O  O9  1  0.79487000  0.52599000  0.31268400  1
loop_
_geom_bond_atom_site_label_1
_geom_bond_atom_site_label_2
_geom_bond_distance
_geom_bond_site_symmetry_2
Ca0 O1 2.267505 1_655
Ca0 O9 2.286489 1_555
Ca0 O4 2.286489 1_555
Ca0 O6 2.401472 1_565
Ca0 O2 2.401472 1_565
Ca1 O0 2.267505 1_555
Ca1 O8 2.286489 1_555
Ca1 O5 2.286489 1_554
Ca1 O7 2.401472 1_544
Ca1 O3 2.401472 1_545
Ca2 O6 2.345837 1_555
Ca2 O2 2.345837 1_555
Ca2 O9 2.376557 1_555
Ca2 O4 2.376557 1_555
Ca2 O1 2.469386 1_555
Ca3 O7 2.345837 1_554
Ca3 O3 2.345837 1_555
Ca3 O8 2.376557 1_555
Ca3 O5 2.376557 1_554
Ca3 O0 2.469386 1_455
Fe0 O1 1.921730 1_555
Fe0 O5 1.986450 1_555
Fe0 O7 1.996711 1_555
Fe0 O6 2.035989 1_565
Fe0 O4 2.067635 1_555
Fe1 O0 1.921730 1_556
Fe1 O4 1.986450 1_555
Fe1 O6 1.996711 1_555
Fe1 O7 2.035989 1_645
Fe1 O5 2.067635 1_655
Fe2 O0 1.921730 1_555
Fe2 O9 1.986450 1_555
Fe2 O2 1.996711 1_555
Fe2 O3 2.035989 1_645
Fe2 O8 2.067635 1_655
Fe3 O1 1.921730 1_555
Fe3 O8 1.986450 1_555
Fe3 O3 1.996711 1_555
Fe3 O2 2.035989 1_565
Fe3 O9 2.067635 1_555
