# generated using pymatgen
data_GeTe4Pb3
_symmetry_space_group_name_H-M   'P 1'
_cell_length_a   4.56376300
_cell_length_b   4.56376300
_cell_length_c   12.91662400
_cell_angle_alpha   90.00000000
_cell_angle_beta   90.00000000
_cell_angle_gamma   90.00000000
_symmetry_Int_Tables_number   1
_chemical_formula_structural   GeTe4Pb3
_chemical_formula_sum   'Ge1 Te4 Pb3'
_cell_volume   269.02657564
_cell_formula_units_Z   1
loop_
 _symmetry_equiv_pos_site_id
 _symmetry_equiv_pos_as_xyz
  1  'x, y, z'
loop_
 _atom_site_type_symbol
 _atom_site_label
 _atom_site_symmetry_multiplicity
 _atom_site_fract_x
 _atom_site_fract_y
 _atom_site_fract_z
 _atom_site_occupancy
  Ge  Ge0  1  0.00000000  0.00000000  0.00000000  1
  Te  Te0  1  0.00000000  0.00000000  0.23734000  1
  Te  Te1  1  0.50000000  0.50000000  0.00000000  1
  Te  Te2  1  0.00000000  0.00000000  0.76266000  1
  Te  Te3  1  0.50000000  0.50000000  0.50000000  1
  Pb  Pb0  1  0.50000000  0.50000000  0.75304600  1
  Pb  Pb1  1  0.00000000  0.00000000  0.50000000  1
  Pb  Pb2  1  0.50000000  0.50000000  0.24695400  1
loop_
_geom_bond_atom_site_label_1
_geom_bond_atom_site_label_2
_geom_bond_distance
_geom_bond_site_symmetry_2
Ge0 Te2 3.065632 1_554
Ge0 Te0 3.065632 1_555
Ge0 Te1 3.227068 1_455
Ge0 Te1 3.227068 1_545
Ge0 Te1 3.227068 1_555
Ge0 Te1 3.227068 1_445
Pb0 Te1 3.189812 1_556
Pb0 Te2 3.229456 1_565
Pb0 Te2 3.229456 1_655
Pb0 Te2 3.229456 1_665
Pb0 Te2 3.229456 1_555
Pb0 Te3 3.268500 1_555
Pb1 Te3 3.227068 1_555
Pb1 Te3 3.227068 1_545
Pb1 Te3 3.227068 1_445
Pb1 Te3 3.227068 1_455
Pb1 Te2 3.392680 1_555
Pb1 Te0 3.392680 1_555
Pb2 Te1 3.189812 1_555
Pb2 Te0 3.229456 1_565
Pb2 Te0 3.229456 1_555
Pb2 Te0 3.229456 1_665
Pb2 Te0 3.229456 1_655
Pb2 Te3 3.268500 1_555
