# generated using pymatgen
data_Mg30ZnCdO32
_symmetry_space_group_name_H-M   'P 1'
_cell_length_a   8.56657100
_cell_length_b   8.56657100
_cell_length_c   8.56780000
_cell_angle_alpha   90.00000000
_cell_angle_beta   90.00000000
_cell_angle_gamma   90.00000000
_symmetry_Int_Tables_number   1
_chemical_formula_structural   Mg30ZnCdO32
_chemical_formula_sum   'Mg30 Zn1 Cd1 O32'
_cell_volume   628.75775914
_cell_formula_units_Z   1
loop_
 _symmetry_equiv_pos_site_id
 _symmetry_equiv_pos_as_xyz
  1  'x, y, z'
loop_
 _atom_site_type_symbol
 _atom_site_label
 _atom_site_symmetry_multiplicity
 _atom_site_fract_x
 _atom_site_fract_y
 _atom_site_fract_z
 _atom_site_occupancy
  Mg  Mg0  1  0.00000000  0.50000000  0.00000000  1
  Mg  Mg1  1  0.50000000  0.00000000  0.00000000  1
  Mg  Mg2  1  0.00000000  0.00000000  0.50000000  1
  Mg  Mg3  1  0.00000000  0.50000000  0.50000000  1
  Mg  Mg4  1  0.50000000  0.00000000  0.50000000  1
  Mg  Mg5  1  0.50000000  0.50000000  0.50000000  1
  Mg  Mg6  1  0.24788000  0.24788000  0.00000000  1
  Mg  Mg7  1  0.24788000  0.75212000  0.00000000  1
  Mg  Mg8  1  0.75212000  0.24788000  0.00000000  1
  Mg  Mg9  1  0.75212000  0.75212000  0.00000000  1
  Mg  Mg10  1  0.24997900  0.24997900  0.50000000  1
  Mg  Mg11  1  0.24997900  0.75002100  0.50000000  1
  Mg  Mg12  1  0.75002100  0.24997900  0.50000000  1
  Mg  Mg13  1  0.75002100  0.75002100  0.50000000  1
  Mg  Mg14  1  0.00000000  0.24998900  0.24989800  1
  Mg  Mg15  1  0.00000000  0.75001100  0.24989800  1
  Mg  Mg16  1  0.50000000  0.24783000  0.25200500  1
  Mg  Mg17  1  0.50000000  0.75217000  0.25200500  1
  Mg  Mg18  1  0.00000000  0.24998900  0.75010200  1
  Mg  Mg19  1  0.00000000  0.75001100  0.75010200  1
  Mg  Mg20  1  0.50000000  0.24783000  0.74799500  1
  Mg  Mg21  1  0.50000000  0.75217000  0.74799500  1
  Mg  Mg22  1  0.24998900  0.00000000  0.24989800  1
  Mg  Mg23  1  0.24783000  0.50000000  0.25200500  1
  Mg  Mg24  1  0.75001100  0.00000000  0.24989800  1
  Mg  Mg25  1  0.75217000  0.50000000  0.25200500  1
  Mg  Mg26  1  0.24998900  0.00000000  0.75010200  1
  Mg  Mg27  1  0.24783000  0.50000000  0.74799500  1
  Mg  Mg28  1  0.75001100  0.00000000  0.75010200  1
  Mg  Mg29  1  0.75217000  0.50000000  0.74799500  1
  Zn  Zn0  1  0.00000000  0.00000000  0.00000000  1
  Cd  Cd0  1  0.50000000  0.50000000  0.00000000  1
  O  O0  1  0.00000000  0.00000000  0.25355300  1
  O  O1  1  0.00000000  0.50000000  0.25181100  1
  O  O2  1  0.50000000  0.00000000  0.25181100  1
  O  O3  1  0.50000000  0.50000000  0.26394200  1
  O  O4  1  0.00000000  0.00000000  0.74644700  1
  O  O5  1  0.00000000  0.50000000  0.74818900  1
  O  O6  1  0.50000000  0.00000000  0.74818900  1
  O  O7  1  0.50000000  0.50000000  0.73605800  1
  O  O8  1  0.25021300  0.25021300  0.24929900  1
  O  O9  1  0.25021300  0.74978700  0.24929900  1
  O  O10  1  0.74978700  0.25021300  0.24929900  1
  O  O11  1  0.74978700  0.74978700  0.24929900  1
  O  O12  1  0.25021300  0.25021300  0.75070100  1
  O  O13  1  0.25021300  0.74978700  0.75070100  1
  O  O14  1  0.74978700  0.25021300  0.75070100  1
  O  O15  1  0.74978700  0.74978700  0.75070100  1
  O  O16  1  0.00000000  0.25142700  0.00000000  1
  O  O17  1  0.00000000  0.74857300  0.00000000  1
  O  O18  1  0.50000000  0.23622300  0.00000000  1
  O  O19  1  0.50000000  0.76377700  0.00000000  1
  O  O20  1  0.00000000  0.24986000  0.50000000  1
  O  O21  1  0.00000000  0.75014000  0.50000000  1
  O  O22  1  0.50000000  0.24831900  0.50000000  1
  O  O23  1  0.50000000  0.75168100  0.50000000  1
  O  O24  1  0.25142700  0.00000000  0.00000000  1
  O  O25  1  0.23622300  0.50000000  0.00000000  1
  O  O26  1  0.74857300  0.00000000  0.00000000  1
  O  O27  1  0.76377700  0.50000000  0.00000000  1
  O  O28  1  0.24986000  0.00000000  0.50000000  1
  O  O29  1  0.24831900  0.50000000  0.50000000  1
  O  O30  1  0.75014000  0.00000000  0.50000000  1
  O  O31  1  0.75168100  0.50000000  0.50000000  1
loop_
_geom_bond_atom_site_label_1
_geom_bond_atom_site_label_2
_geom_bond_distance
_geom_bond_site_symmetry_2
Mg0 O25 2.023621 1_555
Mg0 O27 2.023621 1_455
Mg0 O17 2.129418 1_555
Mg0 O16 2.129418 1_555
Mg0 O1 2.157466 1_555
Mg0 O5 2.157466 1_554
Mg1 O18 2.023621 1_555
Mg1 O19 2.023621 1_545
Mg1 O26 2.129418 1_555
Mg1 O24 2.129418 1_555
Mg1 O6 2.157466 1_554
Mg1 O2 2.157466 1_555
Mg2 O4 2.111509 1_555
Mg2 O0 2.111509 1_555
Mg2 O30 2.140443 1_455
Mg2 O21 2.140443 1_545
Mg2 O20 2.140443 1_555
Mg2 O28 2.140443 1_555
Mg3 O1 2.126434 1_555
Mg3 O5 2.126434 1_555
Mg3 O29 2.127242 1_555
Mg3 O31 2.127242 1_455
Mg3 O20 2.142842 1_555
Mg3 O21 2.142842 1_555
Mg4 O6 2.126434 1_555
Mg4 O2 2.126434 1_555
Mg4 O22 2.127242 1_555
Mg4 O23 2.127242 1_545
Mg4 O28 2.142842 1_555
Mg4 O30 2.142842 1_555
Mg5 O7 2.022498 1_555
Mg5 O3 2.022498 1_555
Mg5 O23 2.156043 1_555
Mg5 O31 2.156043 1_555
Mg5 O22 2.156043 1_555
Mg5 O29 2.156043 1_555
Mg6 O16 2.123699 1_555
Mg6 O24 2.123699 1_555
Mg6 O8 2.136131 1_555
Mg6 O12 2.136131 1_554
Mg6 O25 2.162111 1_555
Mg6 O18 2.162111 1_555
Mg7 O24 2.123699 1_565
Mg7 O17 2.123699 1_555
Mg7 O9 2.136131 1_555
Mg7 O13 2.136131 1_554
Mg7 O19 2.162111 1_555
Mg7 O25 2.162111 1_555
Mg8 O16 2.123699 1_655
Mg8 O26 2.123699 1_555
Mg8 O10 2.136131 1_555
Mg8 O14 2.136131 1_554
Mg8 O27 2.162111 1_555
Mg8 O18 2.162111 1_555
Mg9 O26 2.123699 1_565
Mg9 O17 2.123699 1_655
Mg9 O11 2.136131 1_555
Mg9 O15 2.136131 1_554
Mg9 O27 2.162111 1_555
Mg9 O19 2.162111 1_555
Mg10 O20 2.141463 1_555
Mg10 O28 2.141463 1_555
Mg10 O22 2.141870 1_555
Mg10 O29 2.141870 1_555
Mg10 O12 2.147958 1_555
Mg10 O8 2.147958 1_555
Mg11 O21 2.141463 1_555
Mg11 O28 2.141463 1_565
Mg11 O29 2.141870 1_555
Mg11 O23 2.141870 1_555
Mg11 O13 2.147958 1_555
Mg11 O9 2.147958 1_555
Mg12 O30 2.141463 1_555
Mg12 O20 2.141463 1_655
Mg12 O22 2.141870 1_555
Mg12 O31 2.141870 1_555
Mg12 O14 2.147958 1_555
Mg12 O10 2.147958 1_555
Mg13 O30 2.141463 1_565
Mg13 O21 2.141463 1_655
Mg13 O31 2.141870 1_555
Mg13 O23 2.141870 1_555
Mg13 O15 2.147958 1_555
Mg13 O11 2.147958 1_555
Mg14 O16 2.141112 1_555
Mg14 O0 2.141777 1_555
Mg14 O1 2.141800 1_555
Mg14 O20 2.142824 1_555
Mg14 O8 2.143474 1_555
Mg14 O10 2.143474 1_455
Mg15 O17 2.141112 1_555
Mg15 O0 2.141777 1_565
Mg15 O1 2.141800 1_555
Mg15 O21 2.142824 1_555
Mg15 O9 2.143474 1_555
Mg15 O11 2.143474 1_455
Mg16 O2 2.123054 1_555
Mg16 O22 2.124776 1_555
Mg16 O10 2.140041 1_555
Mg16 O8 2.140041 1_555
Mg16 O18 2.161417 1_555
Mg16 O3 2.162652 1_555
Mg17 O2 2.123054 1_565
Mg17 O23 2.124776 1_555
Mg17 O11 2.140041 1_555
Mg17 O9 2.140041 1_555
Mg17 O19 2.161417 1_555
Mg17 O3 2.162652 1_555
Mg18 O16 2.141112 1_556
Mg18 O4 2.141777 1_555
Mg18 O5 2.141800 1_555
Mg18 O20 2.142824 1_555
Mg18 O12 2.143474 1_555
Mg18 O14 2.143474 1_455
Mg19 O17 2.141112 1_556
Mg19 O4 2.141777 1_565
Mg19 O5 2.141800 1_555
Mg19 O21 2.142824 1_555
Mg19 O13 2.143474 1_555
Mg19 O15 2.143474 1_455
Mg20 O6 2.123054 1_555
Mg20 O22 2.124776 1_555
Mg20 O14 2.140041 1_555
Mg20 O12 2.140041 1_555
Mg20 O18 2.161417 1_556
Mg20 O7 2.162652 1_555
Mg21 O6 2.123054 1_565
Mg21 O23 2.124776 1_555
Mg21 O15 2.140041 1_555
Mg21 O13 2.140041 1_555
Mg21 O19 2.161417 1_556
Mg21 O7 2.162652 1_555
Mg22 O24 2.141112 1_555
Mg22 O0 2.141777 1_555
Mg22 O2 2.141800 1_555
Mg22 O28 2.142824 1_555
Mg22 O8 2.143474 1_555
Mg22 O9 2.143474 1_545
Mg23 O1 2.123054 1_555
Mg23 O29 2.124776 1_555
Mg23 O9 2.140041 1_555
Mg23 O8 2.140041 1_555
Mg23 O25 2.161417 1_555
Mg23 O3 2.162652 1_555
Mg24 O26 2.141112 1_555
Mg24 O0 2.141777 1_655
Mg24 O2 2.141800 1_555
Mg24 O30 2.142824 1_555
Mg24 O10 2.143474 1_555
Mg24 O11 2.143474 1_545
Mg25 O1 2.123054 1_655
Mg25 O31 2.124776 1_555
Mg25 O11 2.140041 1_555
Mg25 O10 2.140041 1_555
Mg25 O27 2.161417 1_555
Mg25 O3 2.162652 1_555
Mg26 O24 2.141112 1_556
Mg26 O4 2.141777 1_555
Mg26 O6 2.141800 1_555
Mg26 O28 2.142824 1_555
Mg26 O12 2.143474 1_555
Mg26 O13 2.143474 1_545
Mg27 O5 2.123054 1_555
Mg27 O29 2.124776 1_555
Mg27 O13 2.140041 1_555
Mg27 O12 2.140041 1_555
Mg27 O25 2.161417 1_556
Mg27 O7 2.162652 1_555
Mg28 O26 2.141112 1_556
Mg28 O4 2.141777 1_655
Mg28 O6 2.141800 1_555
Mg28 O30 2.142824 1_555
Mg28 O14 2.143474 1_555
Mg28 O15 2.143474 1_545
Mg29 O5 2.123054 1_655
Mg29 O31 2.124776 1_555
Mg29 O15 2.140041 1_555
Mg29 O14 2.140041 1_555
Mg29 O27 2.161417 1_556
Mg29 O7 2.162652 1_555
Cd0 O19 2.259664 1_555
Cd0 O27 2.259664 1_555
Cd0 O25 2.259664 1_555
Cd0 O18 2.259664 1_555
Cd0 O3 2.261402 1_555
Cd0 O7 2.261402 1_554
O0 Zn0 2.172391 1_555
O4 Zn0 2.172391 1_556
O16 Zn0 2.153867 1_555
O17 Zn0 2.153867 1_565
O24 Zn0 2.153867 1_555
O26 Zn0 2.153867 1_655
