# generated using pymatgen
data_Ti3FeS6
_symmetry_space_group_name_H-M   'P 1'
_cell_length_a   5.93561219
_cell_length_b   5.93561219
_cell_length_c   11.59406900
_cell_angle_alpha   90.00000000
_cell_angle_beta   90.00000000
_cell_angle_gamma   120.00000213
_symmetry_Int_Tables_number   1
_chemical_formula_structural   Ti3FeS6
_chemical_formula_sum   'Ti6 Fe2 S12'
_cell_volume   353.75088854
_cell_formula_units_Z   2
loop_
 _symmetry_equiv_pos_site_id
 _symmetry_equiv_pos_as_xyz
  1  'x, y, z'
loop_
 _atom_site_type_symbol
 _atom_site_label
 _atom_site_symmetry_multiplicity
 _atom_site_fract_x
 _atom_site_fract_y
 _atom_site_fract_z
 _atom_site_occupancy
  Ti  Ti0  1  0.66666700  0.33333300  0.49910600  1
  Ti  Ti1  1  0.66666700  0.33333300  0.00089400  1
  Ti  Ti2  1  0.33333300  0.66666700  0.50089400  1
  Ti  Ti3  1  0.33333300  0.66666700  0.99910600  1
  Ti  Ti4  1  0.66666700  0.33333300  0.75000000  1
  Ti  Ti5  1  0.33333300  0.66666700  0.25000000  1
  Fe  Fe0  1  0.00000000  0.00000000  0.50000000  1
  Fe  Fe1  1  0.00000000  0.00000000  0.00000000  1
  S  S0  1  0.66822900  0.66610500  0.62445500  1
  S  S1  1  0.33389500  0.00212400  0.62445500  1
  S  S2  1  0.99787600  0.33177100  0.62445500  1
  S  S3  1  0.33389500  0.33177100  0.87554500  1
  S  S4  1  0.99787600  0.66610500  0.87554500  1
  S  S5  1  0.66822900  0.00212400  0.87554500  1
  S  S6  1  0.33177100  0.33389500  0.37554500  1
  S  S7  1  0.66610500  0.99787600  0.37554500  1
  S  S8  1  0.33177100  0.99787600  0.12445500  1
  S  S9  1  0.00212400  0.33389500  0.12445500  1
  S  S10  1  0.66610500  0.66822900  0.12445500  1
  S  S11  1  0.00212400  0.66822900  0.37554500  1
loop_
_geom_bond_atom_site_label_1
_geom_bond_atom_site_label_2
_geom_bond_distance
_geom_bond_site_symmetry_2
Fe0 S6 2.446439 1_555
Fe0 S0 2.446439 1_445
Fe0 S7 2.446439 1_445
Fe0 S1 2.446439 1_555
Fe0 S2 2.446439 1_455
Fe0 S11 2.446439 1_545
Fe1 S3 2.446439 1_554
Fe1 S10 2.446439 1_445
Fe1 S4 2.446439 1_444
Fe1 S9 2.446439 1_555
Fe1 S5 2.446439 1_454
Fe1 S8 2.446439 1_545
S0 Ti0 2.448531 1_555
S0 Ti4 2.449881 1_555
S0 Ti2 2.451594 1_555
S1 Ti0 2.448529 1_555
S1 Ti4 2.449878 1_555
S1 Ti2 2.451589 1_545
S2 Ti0 2.448526 1_555
S2 Ti4 2.449876 1_555
S2 Ti2 2.451591 1_655
S3 Ti1 2.448531 1_556
S3 Ti4 2.449881 1_555
S3 Ti3 2.451594 1_555
S4 Ti1 2.448529 1_556
S4 Ti4 2.449878 1_555
S4 Ti3 2.451589 1_655
S5 Ti1 2.448526 1_556
S5 Ti4 2.449876 1_555
S5 Ti3 2.451591 1_545
S6 Ti2 2.448531 1_555
S6 Ti5 2.449881 1_555
S6 Ti0 2.451594 1_555
S7 Ti2 2.448529 1_555
S7 Ti5 2.449878 1_555
S7 Ti0 2.451589 1_565
S8 Ti3 2.448526 1_554
S8 Ti5 2.449876 1_555
S8 Ti1 2.451591 1_565
S9 Ti3 2.448529 1_554
S9 Ti5 2.449878 1_555
S9 Ti1 2.451589 1_455
S10 Ti3 2.448531 1_554
S10 Ti5 2.449881 1_555
S10 Ti1 2.451594 1_555
S11 Ti2 2.448526 1_555
S11 Ti5 2.449876 1_555
S11 Ti0 2.451591 1_455
