# generated using pymatgen
data_SmMgSe3
_symmetry_space_group_name_H-M   'P 1'
_cell_length_a   6.99137300
_cell_length_b   6.99137307
_cell_length_c   19.47667800
_cell_angle_alpha   90.00000000
_cell_angle_beta   90.00000000
_cell_angle_gamma   119.99999492
_symmetry_Int_Tables_number   1
_chemical_formula_structural   SmMgSe3
_chemical_formula_sum   'Sm6 Mg6 Se18'
_cell_volume   824.46170640
_cell_formula_units_Z   6
loop_
 _symmetry_equiv_pos_site_id
 _symmetry_equiv_pos_as_xyz
  1  'x, y, z'
loop_
 _atom_site_type_symbol
 _atom_site_label
 _atom_site_symmetry_multiplicity
 _atom_site_fract_x
 _atom_site_fract_y
 _atom_site_fract_z
 _atom_site_occupancy
  Sm  Sm0  1  0.00000000  0.00000000  0.34895700  1
  Sm  Sm1  1  0.00000000  0.00000000  0.65104300  1
  Sm  Sm2  1  0.66666700  0.33333300  0.68229000  1
  Sm  Sm3  1  0.66666700  0.33333300  0.98437600  1
  Sm  Sm4  1  0.33333300  0.66666700  0.01562400  1
  Sm  Sm5  1  0.33333300  0.66666700  0.31771000  1
  Mg  Mg0  1  0.00000000  0.00000000  0.16147600  1
  Mg  Mg1  1  0.00000000  0.00000000  0.83852400  1
  Mg  Mg2  1  0.66666700  0.33333300  0.49480900  1
  Mg  Mg3  1  0.66666700  0.33333300  0.17185700  1
  Mg  Mg4  1  0.33333300  0.66666700  0.82814300  1
  Mg  Mg5  1  0.33333300  0.66666700  0.50519100  1
  Se  Se0  1  0.99455500  0.36488400  0.58255500  1
  Se  Se1  1  0.00544500  0.63511600  0.41744500  1
  Se  Se2  1  0.63511600  0.62967000  0.58255500  1
  Se  Se3  1  0.36488400  0.37033000  0.41744500  1
  Se  Se4  1  0.37033000  0.00544500  0.58255500  1
  Se  Se5  1  0.62967000  0.99455500  0.41744500  1
  Se  Se6  1  0.66122200  0.69821700  0.91588800  1
  Se  Se7  1  0.67211300  0.96844900  0.75077800  1
  Se  Se8  1  0.30178300  0.96300300  0.91588800  1
  Se  Se9  1  0.03155100  0.70366300  0.75077800  1
  Se  Se10  1  0.03699700  0.33877800  0.91588800  1
  Se  Se11  1  0.29633700  0.32788700  0.75077800  1
  Se  Se12  1  0.32788700  0.03155100  0.24922200  1
  Se  Se13  1  0.33877800  0.30178300  0.08411200  1
  Se  Se14  1  0.96844900  0.29633700  0.24922200  1
  Se  Se15  1  0.69821700  0.03699700  0.08411200  1
  Se  Se16  1  0.70366300  0.67211300  0.24922200  1
  Se  Se17  1  0.96300300  0.66122200  0.08411200  1
loop_
_geom_bond_atom_site_label_1
_geom_bond_atom_site_label_2
_geom_bond_distance
_geom_bond_site_symmetry_2
Mg0 Se17 2.708245 1_445
Mg0 Se13 2.708250 1_555
Mg0 Se15 2.708257 1_455
Mg0 Se12 2.778252 1_555
Mg0 Se16 2.778254 1_445
Mg0 Se14 2.778257 1_455
Mg1 Se10 2.708245 1_555
Mg1 Se6 2.708250 1_445
Mg1 Se8 2.708257 1_545
Mg1 Se7 2.778252 1_445
Mg1 Se11 2.778254 1_555
Mg1 Se9 2.778257 1_545
Mg2 Se5 2.708245 1_545
Mg2 Se1 2.708250 1_655
Mg2 Se3 2.708257 1_555
Mg2 Se2 2.778257 1_555
Mg2 Se0 2.778257 1_555
Mg2 Se4 2.778258 1_555
Mg3 Se14 2.708259 1_555
Mg3 Se12 2.708266 1_555
Mg3 Se16 2.708270 1_555
Mg3 Se15 2.778237 1_555
Mg3 Se17 2.778246 1_555
Mg3 Se13 2.778253 1_555
Mg4 Se9 2.708259 1_555
Mg4 Se7 2.708266 1_555
Mg4 Se11 2.708270 1_555
Mg4 Se8 2.778237 1_555
Mg4 Se10 2.778246 1_555
Mg4 Se6 2.778253 1_555
Mg5 Se4 2.708245 1_565
Mg5 Se0 2.708250 1_455
Mg5 Se2 2.708257 1_555
Mg5 Se3 2.778257 1_555
Mg5 Se1 2.778257 1_555
Mg5 Se5 2.778258 1_555
Se0 Sm1 2.895809 1_655
Se0 Sm2 2.927689 1_555
Se1 Sm0 2.895809 1_565
Se1 Sm5 2.927689 1_555
Se2 Sm1 2.895812 1_665
Se2 Sm2 2.927689 1_555
Se3 Sm0 2.895812 1_555
Se3 Sm5 2.927689 1_555
Se4 Sm1 2.895815 1_555
Se4 Sm2 2.927689 1_555
Se5 Sm0 2.895815 1_665
Se5 Sm5 2.927689 1_555
Se6 Sm3 2.895809 1_555
Se6 Sm4 2.927709 1_556
Se7 Sm2 2.895812 1_565
Se7 Sm1 2.927684 1_665
Se8 Sm3 2.895812 1_565
Se8 Sm4 2.927694 1_556
Se9 Sm2 2.895812 1_455
Se9 Sm1 2.927689 1_565
Se10 Sm3 2.895815 1_455
Se10 Sm4 2.927703 1_556
Se11 Sm2 2.895812 1_555
Se11 Sm1 2.927686 1_555
Se12 Sm5 2.895812 1_545
Se12 Sm0 2.927684 1_555
Se13 Sm4 2.895809 1_555
Se13 Sm3 2.927709 1_554
Se14 Sm5 2.895812 1_655
Se14 Sm0 2.927689 1_655
Se15 Sm4 2.895812 1_545
Se15 Sm3 2.927694 1_554
Se16 Sm5 2.895812 1_555
Se16 Sm0 2.927686 1_665
Se17 Sm4 2.895815 1_655
Se17 Sm3 2.927703 1_554
