# generated using pymatgen
data_BaCrO3
_symmetry_space_group_name_H-M   'P 1'
_cell_length_a   5.75035294
_cell_length_b   5.75035294
_cell_length_c   9.45207400
_cell_angle_alpha   90.00000000
_cell_angle_beta   90.00000000
_cell_angle_gamma   120.00001083
_symmetry_Int_Tables_number   1
_chemical_formula_structural   BaCrO3
_chemical_formula_sum   'Ba4 Cr4 O12'
_cell_volume   270.67409917
_cell_formula_units_Z   4
loop_
 _symmetry_equiv_pos_site_id
 _symmetry_equiv_pos_as_xyz
  1  'x, y, z'
loop_
 _atom_site_type_symbol
 _atom_site_label
 _atom_site_symmetry_multiplicity
 _atom_site_fract_x
 _atom_site_fract_y
 _atom_site_fract_z
 _atom_site_occupancy
  Ba  Ba0  1  0.66666700  0.33333300  0.75000000  1
  Ba  Ba1  1  0.33333300  0.66666700  0.25000000  1
  Ba  Ba2  1  0.00000000  0.00000000  0.50000000  1
  Ba  Ba3  1  0.00000000  0.00000000  0.00000000  1
  Cr  Cr0  1  0.33333300  0.66666700  0.88994000  1
  Cr  Cr1  1  0.66666700  0.33333300  0.38994000  1
  Cr  Cr2  1  0.66666700  0.33333300  0.11006000  1
  Cr  Cr3  1  0.33333300  0.66666700  0.61006000  1
  O  O0  1  0.62657600  0.81328800  0.75000000  1
  O  O1  1  0.81328800  0.62657600  0.25000000  1
  O  O2  1  0.81328800  0.18671200  0.25000000  1
  O  O3  1  0.18671200  0.81328800  0.75000000  1
  O  O4  1  0.18671200  0.37342400  0.75000000  1
  O  O5  1  0.37342400  0.18671200  0.25000000  1
  O  O6  1  0.50000000  0.00000000  0.50000000  1
  O  O7  1  0.50000000  0.50000000  0.00000000  1
  O  O8  1  0.50000000  0.00000000  0.00000000  1
  O  O9  1  0.50000000  0.50000000  0.50000000  1
  O  O10  1  0.00000000  0.50000000  0.50000000  1
  O  O11  1  0.00000000  0.50000000  0.00000000  1
loop_
_geom_bond_atom_site_label_1
_geom_bond_atom_site_label_2
_geom_bond_distance
_geom_bond_site_symmetry_2
Ba0 O0 2.882097 1_545
Ba0 O4 2.882097 1_655
Ba0 O3 2.882099 1_655
Ba0 O3 2.882099 1_545
Ba0 O4 2.882103 1_555
Ba0 O0 2.882103 1_555
Ba0 O10 2.887801 1_655
Ba0 O11 2.887801 1_656
Ba0 O8 2.887801 1_556
Ba0 O6 2.887801 1_555
Ba0 O7 2.887804 1_556
Ba0 O9 2.887804 1_555
Ba1 O5 2.882097 1_565
Ba1 O1 2.882097 1_455
Ba1 O2 2.882099 1_565
Ba1 O2 2.882099 1_455
Ba1 O1 2.882103 1_555
Ba1 O5 2.882103 1_555
Ba1 O10 2.887801 1_555
Ba1 O11 2.887801 1_555
Ba1 O8 2.887801 1_565
Ba1 O6 2.887801 1_565
Ba1 O9 2.887804 1_555
Ba1 O7 2.887804 1_555
Ba2 O9 2.875176 1_555
Ba2 O9 2.875176 1_445
Ba2 O10 2.875176 1_545
Ba2 O10 2.875176 1_555
Ba2 O6 2.875176 1_455
Ba2 O6 2.875176 1_555
Ba2 O1 3.007007 1_445
Ba2 O5 3.007007 1_555
Ba2 O4 3.007007 1_555
Ba2 O0 3.007007 1_445
Ba2 O3 3.007007 1_545
Ba2 O2 3.007007 1_455
Ba3 O7 2.875176 1_555
Ba3 O7 2.875176 1_445
Ba3 O8 2.875176 1_555
Ba3 O8 2.875176 1_455
Ba3 O11 2.875176 1_555
Ba3 O11 2.875176 1_545
Ba3 O5 3.007007 1_555
Ba3 O1 3.007007 1_445
Ba3 O4 3.007007 1_554
Ba3 O0 3.007007 1_444
Ba3 O3 3.007007 1_544
Ba3 O2 3.007007 1_455
Cr0 O8 1.959019 1_566
Cr0 O11 1.959019 1_556
Cr0 O7 1.959023 1_556
Cr0 O3 1.970321 1_555
Cr0 O0 1.970324 1_555
Cr0 O4 1.970324 1_555
Cr1 O10 1.959019 1_655
Cr1 O6 1.959019 1_555
Cr1 O9 1.959023 1_555
Cr1 O2 1.970321 1_555
Cr1 O1 1.970324 1_555
Cr1 O5 1.970324 1_555
Cr2 O8 1.959019 1_555
Cr2 O11 1.959019 1_655
Cr2 O7 1.959023 1_555
Cr2 O2 1.970321 1_555
Cr2 O1 1.970324 1_555
Cr2 O5 1.970324 1_555
Cr3 O10 1.959019 1_555
Cr3 O6 1.959019 1_565
Cr3 O9 1.959023 1_555
Cr3 O3 1.970321 1_555
Cr3 O0 1.970324 1_555
Cr3 O4 1.970324 1_555
