# generated using pymatgen
data_Sc2Se3
_symmetry_space_group_name_H-M   'P 1'
_cell_length_a   6.68332281
_cell_length_b   6.68332281
_cell_length_c   12.18549909
_cell_angle_alpha   100.58479358
_cell_angle_beta   100.58479358
_cell_angle_gamma   109.27882149
_symmetry_Int_Tables_number   1
_chemical_formula_structural   Sc2Se3
_chemical_formula_sum   'Sc8 Se12'
_cell_volume   487.19804639
_cell_formula_units_Z   4
loop_
 _symmetry_equiv_pos_site_id
 _symmetry_equiv_pos_as_xyz
  1  'x, y, z'
loop_
 _atom_site_type_symbol
 _atom_site_label
 _atom_site_symmetry_multiplicity
 _atom_site_fract_x
 _atom_site_fract_y
 _atom_site_fract_z
 _atom_site_occupancy
  Sc  Sc0  1  0.70801309  0.95801309  0.91602617  1
  Sc  Sc1  1  0.54198691  0.79198691  0.58397383  1
  Sc  Sc2  1  0.29198691  0.04198691  0.08397383  1
  Sc  Sc3  1  0.45801309  0.20801309  0.41602617  1
  Sc  Sc4  1  0.37383671  0.62383671  0.24767241  1
  Sc  Sc5  1  0.87616329  0.12616329  0.25232759  1
  Sc  Sc6  1  0.62616329  0.37616329  0.75232759  1
  Sc  Sc7  1  0.12383671  0.87383671  0.74767241  1
  Se  Se0  1  0.87049513  0.12049513  0.75000000  1
  Se  Se1  1  0.37950487  0.62950487  0.75000000  1
  Se  Se2  1  0.12950487  0.87950487  0.25000000  1
  Se  Se3  1  0.62049513  0.37049513  0.25000000  1
  Se  Se4  1  0.54580378  0.80180031  0.08699698  1
  Se  Se5  1  0.69819969  0.95419622  0.41300302  1
  Se  Se6  1  0.21480433  0.45880680  0.41300302  1
  Se  Se7  1  0.04119320  0.28519567  0.08699698  1
  Se  Se8  1  0.45419622  0.19819969  0.91300302  1
  Se  Se9  1  0.30180031  0.04580378  0.58699698  1
  Se  Se10  1  0.78519567  0.54119320  0.58699698  1
  Se  Se11  1  0.95880680  0.71480433  0.91300302  1
loop_
_geom_bond_atom_site_label_1
_geom_bond_atom_site_label_2
_geom_bond_distance
_geom_bond_site_symmetry_2
Sc0 Se11 2.693062 1_555
Sc0 Se8 2.693067 1_565
Sc0 Se0 2.699440 1_565
Sc0 Se1 2.699440 1_555
Sc0 Se7 2.736257 1_666
Sc0 Se4 2.736259 1_556
Sc1 Se10 2.693062 1_555
Sc1 Se9 2.693067 1_565
Sc1 Se1 2.699440 1_555
Sc1 Se0 2.699440 1_565
Sc1 Se6 2.736257 1_555
Sc1 Se5 2.736259 1_555
Sc2 Se7 2.693062 1_555
Sc2 Se4 2.693067 1_545
Sc2 Se2 2.699440 1_545
Sc2 Se3 2.699440 1_555
Sc2 Se11 2.736257 1_444
Sc2 Se8 2.736259 1_554
Sc3 Se6 2.693062 1_555
Sc3 Se5 2.693067 1_545
Sc3 Se3 2.699440 1_555
Sc3 Se2 2.699440 1_545
Sc3 Se10 2.736257 1_555
Sc3 Se9 2.736259 1_555
Sc4 Se5 2.689577 1_555
Sc4 Se6 2.689580 1_555
Sc4 Se4 2.710819 1_555
Sc4 Se7 2.710828 1_555
Sc4 Se2 2.725567 1_555
Sc4 Se3 2.725568 1_555
Sc5 Se4 2.689577 1_545
Sc5 Se7 2.689580 1_655
Sc5 Se5 2.710819 1_545
Sc5 Se6 2.710828 1_655
Sc5 Se3 2.725567 1_555
Sc5 Se2 2.725568 1_645
Sc6 Se9 2.689577 1_555
Sc6 Se10 2.689580 1_555
Sc6 Se8 2.710819 1_555
Sc6 Se11 2.710828 1_555
Sc6 Se0 2.725567 1_555
Sc6 Se1 2.725568 1_555
Sc7 Se8 2.689577 1_565
Sc7 Se11 2.689580 1_455
Sc7 Se9 2.710819 1_565
Sc7 Se10 2.710828 1_455
Sc7 Se1 2.725567 1_555
Sc7 Se0 2.725568 1_465
