# generated using pymatgen
data_TiZnP3WO12
_symmetry_space_group_name_H-M   'P 1'
_cell_length_a   8.70166934
_cell_length_b   8.70166927
_cell_length_c   8.70166907
_cell_angle_alpha   60.48287251
_cell_angle_beta   60.48287456
_cell_angle_gamma   60.48288471
_symmetry_Int_Tables_number   1
_chemical_formula_structural   TiZnP3WO12
_chemical_formula_sum   'Ti2 Zn2 P6 W2 O24'
_cell_volume   470.98492610
_cell_formula_units_Z   2
loop_
 _symmetry_equiv_pos_site_id
 _symmetry_equiv_pos_as_xyz
  1  'x, y, z'
loop_
 _atom_site_type_symbol
 _atom_site_label
 _atom_site_symmetry_multiplicity
 _atom_site_fract_x
 _atom_site_fract_y
 _atom_site_fract_z
 _atom_site_occupancy
  Ti  Ti0  1  0.14664000  0.14664000  0.14664000  1
  Ti  Ti1  1  0.64664000  0.64664000  0.64664000  1
  Zn  Zn0  1  0.00194100  0.00194100  0.00194100  1
  Zn  Zn1  1  0.50194100  0.50194100  0.50194100  1
  P  P0  1  0.04148000  0.44847100  0.75920100  1
  P  P1  1  0.44847100  0.75920100  0.04148000  1
  P  P2  1  0.75920100  0.04148000  0.44847100  1
  P  P3  1  0.25920100  0.94847100  0.54148000  1
  P  P4  1  0.54148000  0.25920100  0.94847100  1
  P  P5  1  0.94847100  0.54148000  0.25920100  1
  W  W0  1  0.35789400  0.35789400  0.35789400  1
  W  W1  1  0.85789400  0.85789400  0.85789400  1
  O  O0  1  0.09399100  0.50235600  0.33094400  1
  O  O1  1  0.33094400  0.09399100  0.50235600  1
  O  O2  1  0.05151700  0.25397200  0.91800000  1
  O  O3  1  0.50235600  0.33094400  0.09399100  1
  O  O4  1  0.00235600  0.59399100  0.83094400  1
  O  O5  1  0.23548000  0.43298000  0.60286000  1
  O  O6  1  0.25397200  0.91800000  0.05151700  1
  O  O7  1  0.43298000  0.60286000  0.23548000  1
  O  O8  1  0.19334900  0.00157800  0.37734400  1
  O  O9  1  0.60286000  0.23548000  0.43298000  1
  O  O10  1  0.10286000  0.93298000  0.73548000  1
  O  O11  1  0.37734400  0.19334900  0.00157800  1
  O  O12  1  0.59399100  0.83094400  0.00235600  1
  O  O13  1  0.91800000  0.05151700  0.25397200  1
  O  O14  1  0.41800000  0.75397200  0.55151700  1
  O  O15  1  0.83094400  0.00235600  0.59399100  1
  O  O16  1  0.55151700  0.41800000  0.75397200  1
  O  O17  1  0.73548000  0.10286000  0.93298000  1
  O  O18  1  0.75397200  0.55151700  0.41800000  1
  O  O19  1  0.00157800  0.37734400  0.19334900  1
  O  O20  1  0.50157800  0.69334900  0.87734400  1
  O  O21  1  0.93298000  0.73548000  0.10286000  1
  O  O22  1  0.69334900  0.87734400  0.50157800  1
  O  O23  1  0.87734400  0.50157800  0.69334900  1
loop_
_geom_bond_atom_site_label_1
_geom_bond_atom_site_label_2
_geom_bond_distance
_geom_bond_site_symmetry_2
O0 P5 1.501266 1_455
O0 W0 2.074689 1_555
O1 P3 1.501265 1_545
O1 W0 2.074688 1_555
O2 P0 1.565342 1_555
O2 Ti0 2.132066 1_556
O2 Zn0 2.138356 1_556
O3 P4 1.501266 1_554
O3 W0 2.074688 1_555
O4 P0 1.501266 1_555
O4 W1 2.074689 1_455
O5 P0 1.553127 1_555
O5 W0 2.134132 1_555
O5 Zn1 2.313615 1_555
O6 P1 1.565342 1_555
O6 Ti0 2.132066 1_565
O6 Zn0 2.138357 1_565
O7 P1 1.553127 1_555
O7 W0 2.134132 1_555
O7 Zn1 2.313615 1_555
O8 P3 1.573842 1_545
O8 Ti0 1.894769 1_555
O9 P2 1.553127 1_555
O9 W0 2.134132 1_555
O9 Zn1 2.313616 1_555
O10 P3 1.553127 1_555
O10 W1 2.134132 1_455
O10 Zn0 2.313616 1_566
O11 P4 1.573842 1_554
O11 Ti0 1.894769 1_555
O12 P1 1.501265 1_555
O12 W1 2.074688 1_554
O13 P2 1.565342 1_555
O13 Ti0 2.132066 1_655
O13 Zn0 2.138357 1_655
O14 P3 1.565342 1_555
O14 Ti1 2.132066 1_555
O14 Zn1 2.138357 1_555
O15 P2 1.501266 1_555
O15 W1 2.074688 1_545
O16 P4 1.565342 1_555
O16 Ti1 2.132066 1_555
O16 Zn1 2.138357 1_555
O17 P4 1.553127 1_555
O17 W1 2.134132 1_545
O17 Zn0 2.313616 1_656
O18 P5 1.565342 1_555
O18 Ti1 2.132066 1_555
O18 Zn1 2.138356 1_555
O19 P5 1.573842 1_455
O19 Ti0 1.894769 1_555
O20 P1 1.573842 1_556
O20 Ti1 1.894769 1_555
O21 P5 1.553127 1_555
O21 W1 2.134132 1_554
O21 Zn0 2.313615 1_665
O22 P2 1.573842 1_565
O22 Ti1 1.894769 1_555
O23 P0 1.573842 1_655
O23 Ti1 1.894769 1_555
