# generated using pymatgen
data_Cs2Pr10Ru2I17
_symmetry_space_group_name_H-M   'P 1'
_cell_length_a   11.79736127
_cell_length_b   11.79736127
_cell_length_c   10.19011625
_cell_angle_alpha   86.30739483
_cell_angle_beta   86.30739483
_cell_angle_gamma   107.41000731
_symmetry_Int_Tables_number   1
_chemical_formula_structural   Cs2Pr10Ru2I17
_chemical_formula_sum   'Cs2 Pr10 Ru2 I17'
_cell_volume   1345.23163468
_cell_formula_units_Z   1
loop_
 _symmetry_equiv_pos_site_id
 _symmetry_equiv_pos_as_xyz
  1  'x, y, z'
loop_
 _atom_site_type_symbol
 _atom_site_label
 _atom_site_symmetry_multiplicity
 _atom_site_fract_x
 _atom_site_fract_y
 _atom_site_fract_z
 _atom_site_occupancy
  Cs  Cs0  1  0.67428300  0.32571700  0.00000000  1
  Cs  Cs1  1  0.32571700  0.67428300  0.00000000  1
  Pr  Pr0  1  0.71000300  0.00548500  0.42774800  1
  Pr  Pr1  1  0.28999700  0.99451500  0.57225200  1
  Pr  Pr2  1  0.99451500  0.28999700  0.57225200  1
  Pr  Pr3  1  0.00548500  0.71000300  0.42774800  1
  Pr  Pr4  1  0.67133900  0.67133900  0.55550400  1
  Pr  Pr5  1  0.32866100  0.32866100  0.44449600  1
  Pr  Pr6  1  0.93494100  0.93494100  0.68796200  1
  Pr  Pr7  1  0.06505900  0.06505900  0.31203800  1
  Pr  Pr8  1  0.79266600  0.79266600  0.18099900  1
  Pr  Pr9  1  0.20733400  0.20733400  0.81900100  1
  Ru  Ru0  1  0.85999800  0.85999800  0.43098300  1
  Ru  Ru1  1  0.14000200  0.14000200  0.56901700  1
  I  I0  1  0.61672100  0.94981900  0.14069200  1
  I  I1  1  0.38327900  0.05018100  0.85930800  1
  I  I2  1  0.05018100  0.38327900  0.85930800  1
  I  I3  1  0.94981900  0.61672100  0.14069200  1
  I  I4  1  0.52623600  0.18892600  0.42147600  1
  I  I5  1  0.47376400  0.81107400  0.57852400  1
  I  I6  1  0.81107400  0.47376400  0.57852400  1
  I  I7  1  0.18892600  0.52623600  0.42147600  1
  I  I8  1  0.56352100  0.56352100  0.28355400  1
  I  I9  1  0.43647900  0.43647900  0.71644600  1
  I  I10  1  0.24598800  0.89981100  0.27672700  1
  I  I11  1  0.75401200  0.10018900  0.72327300  1
  I  I12  1  0.10018900  0.75401200  0.72327300  1
  I  I13  1  0.89981100  0.24598800  0.27672700  1
  I  I14  1  0.28835600  0.28835600  0.13320500  1
  I  I15  1  0.71164400  0.71164400  0.86679500  1
  I  I16  1  0.00000000  0.00000000  0.00000000  1
loop_
_geom_bond_atom_site_label_1
_geom_bond_atom_site_label_2
_geom_bond_distance
_geom_bond_site_symmetry_2
Cs0 I11 4.247087 1_554
Cs0 I13 4.247087 1_555
Cs0 I3 4.354771 1_555
Cs0 I1 4.354771 1_554
Cs0 I0 4.408611 1_545
Cs0 I2 4.408611 1_654
Cs0 I6 4.533782 1_554
Cs0 I4 4.533782 1_555
Cs0 I9 4.547363 1_554
Cs0 I8 4.547363 1_555
Cs0 I14 4.548830 1_555
Cs0 I15 4.548830 1_554
Cs1 I12 4.247087 1_554
Cs1 I10 4.247087 1_555
Cs1 I2 4.354771 1_554
Cs1 I0 4.354771 1_555
Cs1 I3 4.408611 1_455
Cs1 I1 4.408611 1_564
Cs1 I5 4.533782 1_554
Cs1 I7 4.533782 1_555
Cs1 I9 4.547363 1_554
Cs1 I8 4.547363 1_555
Cs1 I14 4.548830 1_555
Cs1 I15 4.548830 1_554
Pr0 Ru0 2.809982 1_545
Pr1 Ru1 2.809982 1_565
Pr2 Ru1 2.809982 1_655
Pr3 Ru0 2.809982 1_455
Pr4 Ru0 2.797407 1_555
Pr5 Ru1 2.797407 1_555
Pr6 Ru0 2.923925 1_555
Pr6 Ru1 2.986033 1_665
Pr7 Ru1 2.923925 1_555
Pr7 Ru0 2.986033 1_445
Pr8 Ru0 2.809754 1_555
Pr9 Ru1 2.809754 1_555
I0 Pr8 3.198292 1_555
I0 Pr0 3.229293 1_565
I1 Pr9 3.198292 1_555
I1 Pr1 3.229293 1_545
I2 Pr9 3.198292 1_555
I2 Pr2 3.229293 1_455
I3 Pr8 3.198292 1_555
I3 Pr3 3.229293 1_655
I4 Pr5 3.237943 1_555
I4 Pr1 3.249261 1_545
I4 Pr0 3.492164 1_555
I5 Pr4 3.237943 1_555
I5 Pr0 3.249261 1_565
I5 Pr1 3.492164 1_555
I6 Pr4 3.237943 1_555
I6 Pr3 3.249261 1_655
I6 Pr2 3.492164 1_555
I7 Pr5 3.237943 1_555
I7 Pr2 3.249261 1_455
I7 Pr3 3.492164 1_555
I8 Pr8 3.256829 1_555
I8 Pr4 3.294730 1_555
I8 Pr5 3.504130 1_555
I9 Pr9 3.256829 1_555
I9 Pr5 3.294730 1_555
I9 Pr4 3.504130 1_555
I10 Pr3 3.259521 1_555
I10 Pr1 3.297606 1_555
I10 Pr7 3.311727 1_565
I11 Pr2 3.259521 1_555
I11 Pr0 3.297606 1_555
I11 Pr6 3.311727 1_545
I12 Pr1 3.259521 1_555
I12 Pr3 3.297606 1_555
I12 Pr6 3.311727 1_455
I13 Pr0 3.259521 1_555
I13 Pr2 3.297606 1_555
I13 Pr7 3.311727 1_655
I14 Pr5 3.281404 1_555
I14 Pr7 3.436662 1_555
I14 Pr9 3.510030 1_554
I15 Pr4 3.281404 1_555
I15 Pr6 3.436662 1_555
I15 Pr8 3.510030 1_556
I16 Pr9 3.259623 1_554
I16 Pr8 3.259623 1_445
I16 Pr7 3.400719 1_555
I16 Pr6 3.400719 1_444
