# generated using pymatgen
data_CsSi2N3
_symmetry_space_group_name_H-M   'P 1'
_cell_length_a   5.71321158
_cell_length_b   5.91662138
_cell_length_c   5.22987400
_cell_angle_alpha   90.00000000
_cell_angle_beta   90.00000000
_cell_angle_gamma   121.18491354
_symmetry_Int_Tables_number   1
_chemical_formula_structural   CsSi2N3
_chemical_formula_sum   'Cs2 Si4 N6'
_cell_volume   151.23964408
_cell_formula_units_Z   2
loop_
 _symmetry_equiv_pos_site_id
 _symmetry_equiv_pos_as_xyz
  1  'x, y, z'
loop_
 _atom_site_type_symbol
 _atom_site_label
 _atom_site_symmetry_multiplicity
 _atom_site_fract_x
 _atom_site_fract_y
 _atom_site_fract_z
 _atom_site_occupancy
  Cs  Cs0  1  0.00000000  0.64875700  0.48881200  1
  Cs  Cs1  1  0.00000000  0.35124300  0.98881200  1
  Si  Si0  1  0.34797000  0.30905700  0.48797000  1
  Si  Si1  1  0.65203000  0.96108700  0.48797000  1
  Si  Si2  1  0.65203000  0.69094300  0.98797000  1
  Si  Si3  1  0.34797000  0.03891300  0.98797000  1
  N  N0  1  0.48114700  0.35971700  0.82013000  1
  N  N1  1  0.51885300  0.87857000  0.82013000  1
  N  N2  1  0.51885300  0.64028300  0.32013000  1
  N  N3  1  0.48114700  0.12143000  0.32013000  1
  N  N4  1  0.00000000  0.85090400  0.98298800  1
  N  N5  1  0.00000000  0.14909600  0.48298800  1
loop_
_geom_bond_atom_site_label_1
_geom_bond_atom_site_label_2
_geom_bond_distance
_geom_bond_site_symmetry_2
Cs0 N4 2.847808 1_555
Cs0 N3 2.862596 1_565
Cs0 N2 2.862596 1_455
Cs0 N4 2.903205 1_554
Cs0 N5 2.956462 1_555
Cs0 N5 2.960473 1_565
Cs0 N0 3.076410 1_455
Cs0 N1 3.076410 1_555
Cs0 N3 3.117989 1_455
Cs0 N2 3.117989 1_555
Cs1 N5 2.847808 1_556
Cs1 N1 2.862596 1_445
Cs1 N0 2.862596 1_555
Cs1 N5 2.903205 1_555
Cs1 N4 2.956462 1_555
Cs1 N4 2.960473 1_545
Cs1 N2 3.076410 1_556
Cs1 N3 3.076410 1_456
Cs1 N1 3.117989 1_555
Cs1 N0 3.117989 1_455
N0 Si0 1.857496 1_555
N0 Si3 1.859169 1_555
N0 Si2 1.892836 1_555
N1 Si1 1.857496 1_555
N1 Si2 1.859169 1_555
N1 Si3 1.892836 1_565
N2 Si2 1.857496 1_554
N2 Si1 1.859169 1_555
N2 Si0 1.892836 1_555
N3 Si3 1.857496 1_554
N3 Si0 1.859169 1_555
N3 Si1 1.892836 1_545
N4 Si3 1.702980 1_565
N4 Si2 1.702980 1_455
N5 Si1 1.702980 1_445
N5 Si0 1.702980 1_555
