# generated using pymatgen
data_Rb3HoO3
_symmetry_space_group_name_H-M   'P 1'
_cell_length_a   6.69449100
_cell_length_b   10.23606600
_cell_length_c   11.37194171
_cell_angle_alpha   73.56754284
_cell_angle_beta   90.00000000
_cell_angle_gamma   90.00000000
_symmetry_Int_Tables_number   1
_chemical_formula_structural   Rb3HoO3
_chemical_formula_sum   'Rb12 Ho4 O12'
_cell_volume   747.43520859
_cell_formula_units_Z   4
loop_
 _symmetry_equiv_pos_site_id
 _symmetry_equiv_pos_as_xyz
  1  'x, y, z'
loop_
 _atom_site_type_symbol
 _atom_site_label
 _atom_site_symmetry_multiplicity
 _atom_site_fract_x
 _atom_site_fract_y
 _atom_site_fract_z
 _atom_site_occupancy
  Rb  Rb0  1  0.47152200  0.74024900  0.92578500  1
  Rb  Rb1  1  0.98004200  0.10853600  0.27791300  1
  Rb  Rb2  1  0.95573600  0.47407800  0.16206600  1
  Rb  Rb3  1  0.45573600  0.52592200  0.33793400  1
  Rb  Rb4  1  0.48004200  0.89146400  0.22208700  1
  Rb  Rb5  1  0.97152200  0.25975100  0.57421500  1
  Rb  Rb6  1  0.02847800  0.74024900  0.42578500  1
  Rb  Rb7  1  0.51995800  0.10853600  0.77791300  1
  Rb  Rb8  1  0.54426400  0.47407800  0.66206600  1
  Rb  Rb9  1  0.04426400  0.52592200  0.83793400  1
  Rb  Rb10  1  0.01995800  0.89146400  0.72208700  1
  Rb  Rb11  1  0.52847800  0.25975100  0.07421500  1
  Ho  Ho0  1  0.00039600  0.83725400  0.05132700  1
  Ho  Ho1  1  0.50039600  0.16274600  0.44867300  1
  Ho  Ho2  1  0.49960400  0.83725400  0.55132700  1
  Ho  Ho3  1  0.99960400  0.16274600  0.94867300  1
  O  O0  1  0.12748900  0.29050200  0.04479500  1
  O  O1  1  0.81753300  0.00840600  0.07484500  1
  O  O2  1  0.66122300  0.28490300  0.29723600  1
  O  O3  1  0.16122300  0.71509700  0.20276400  1
  O  O4  1  0.31753300  0.99159400  0.42515500  1
  O  O5  1  0.62748900  0.70949800  0.45520500  1
  O  O6  1  0.37251100  0.29050200  0.54479500  1
  O  O7  1  0.68246700  0.00840600  0.57484500  1
  O  O8  1  0.83877700  0.28490300  0.79723600  1
  O  O9  1  0.33877700  0.71509700  0.70276400  1
  O  O10  1  0.18246700  0.99159400  0.92515500  1
  O  O11  1  0.87251100  0.70949800  0.95520500  1
loop_
_geom_bond_atom_site_label_1
_geom_bond_atom_site_label_2
_geom_bond_distance
_geom_bond_site_symmetry_2
Ho0 O11 2.108715 1_454
Ho0 O3 2.114269 1_555
Ho0 O10 2.181230 1_554
Ho0 O1 2.214600 1_465
Ho1 O6 2.108715 1_555
Ho1 O2 2.114269 1_555
Ho1 O7 2.181230 1_555
Ho1 O4 2.214600 1_545
Ho2 O5 2.108715 1_555
Ho2 O9 2.114269 1_555
Ho2 O4 2.181230 1_555
Ho2 O7 2.214600 1_565
Ho3 O0 2.108715 1_656
Ho3 O8 2.114269 1_555
Ho3 O1 2.181230 1_556
Ho3 O10 2.214600 1_645
O0 Rb11 2.712476 1_555
O0 Rb2 2.837133 1_455
O0 Rb9 2.905864 1_554
O0 Rb1 2.945817 1_455
O1 Rb4 2.864814 1_545
O1 Rb1 2.984279 1_555
O1 Rb11 3.217664 1_555
O2 Rb11 2.767245 1_555
O2 Rb1 2.843803 1_555
O2 Rb2 2.883699 1_555
O2 Rb3 2.973058 1_555
O3 Rb6 2.767245 1_555
O3 Rb4 2.843803 1_555
O3 Rb3 2.883699 1_555
O3 Rb2 2.973058 1_455
O4 Rb1 2.864814 1_465
O4 Rb4 2.984279 1_555
O4 Rb6 3.217664 1_555
O5 Rb6 2.712476 1_655
O5 Rb3 2.837133 1_555
O5 Rb8 2.905864 1_555
O5 Rb4 2.945817 1_555
O6 Rb5 2.712476 1_455
O6 Rb8 2.837133 1_555
O6 Rb3 2.905864 1_555
O6 Rb7 2.945817 1_555
O7 Rb10 2.864814 1_645
O7 Rb7 2.984279 1_555
O7 Rb5 3.217664 1_555
O8 Rb5 2.767245 1_555
O8 Rb7 2.843803 1_555
O8 Rb8 2.883699 1_555
O8 Rb9 2.973058 1_655
O9 Rb0 2.767245 1_555
O9 Rb10 2.843803 1_555
O9 Rb9 2.883699 1_555
O9 Rb8 2.973058 1_555
O10 Rb7 2.864814 1_565
O10 Rb10 2.984279 1_555
O10 Rb0 3.217664 1_555
O11 Rb0 2.712476 1_555
O11 Rb9 2.837133 1_655
O11 Rb2 2.905864 1_556
O11 Rb10 2.945817 1_655
