# generated using pymatgen
data_Lu5Ni2Sb
_symmetry_space_group_name_H-M   'P 1'
_cell_length_a   8.39383278
_cell_length_b   8.39383278
_cell_length_c   8.39383278
_cell_angle_alpha   127.84201771
_cell_angle_beta   127.84201771
_cell_angle_gamma   76.88109318
_symmetry_Int_Tables_number   1
_chemical_formula_structural   Lu5Ni2Sb
_chemical_formula_sum   'Lu10 Ni4 Sb2'
_cell_volume   358.07848327
_cell_formula_units_Z   2
loop_
 _symmetry_equiv_pos_site_id
 _symmetry_equiv_pos_as_xyz
  1  'x, y, z'
loop_
 _atom_site_type_symbol
 _atom_site_label
 _atom_site_symmetry_multiplicity
 _atom_site_fract_x
 _atom_site_fract_y
 _atom_site_fract_z
 _atom_site_occupancy
  Lu  Lu0  1  0.00000000  -0.00000000  0.00000000  1
  Lu  Lu1  1  0.50000000  0.50000000  0.00000000  1
  Lu  Lu2  1  0.79241050  0.29241050  0.81268136  1
  Lu  Lu3  1  0.20758950  0.70758950  0.18731864  1
  Lu  Lu4  1  0.47972914  0.97972914  0.18731864  1
  Lu  Lu5  1  0.29241050  0.47972914  0.50000000  1
  Lu  Lu6  1  0.02027086  0.20758950  0.50000000  1
  Lu  Lu7  1  0.52027086  0.02027086  0.81268136  1
  Lu  Lu8  1  0.70758950  0.52027086  0.50000000  1
  Lu  Lu9  1  0.97972914  0.79241050  0.50000000  1
  Ni  Ni0  1  0.13223564  0.63223564  0.76447228  1
  Ni  Ni1  1  0.86776436  0.36776436  0.23552772  1
  Ni  Ni2  1  0.63223564  0.86776436  0.50000000  1
  Ni  Ni3  1  0.36776436  0.13223564  0.50000000  1
  Sb  Sb0  1  0.25000000  0.25000000  0.00000000  1
  Sb  Sb1  1  0.75000000  0.75000000  0.00000000  1
loop_
_geom_bond_atom_site_label_1
_geom_bond_atom_site_label_2
_geom_bond_distance
_geom_bond_site_symmetry_2
Lu0 Ni0 2.884227 1_544
Lu0 Ni1 2.884227 1_455
Lu0 Ni2 2.884229 1_444
Lu0 Ni3 2.884229 1_555
Lu0 Sb0 3.287250 1_555
Lu0 Sb1 3.287250 1_445
Lu1 Ni1 2.884227 1_555
Lu1 Ni0 2.884227 1_554
Lu1 Ni3 2.884229 1_554
Lu1 Ni2 2.884229 1_555
Lu1 Sb0 3.287250 1_555
Lu1 Sb1 3.287250 1_555
Lu2 Ni2 2.787192 1_545
Lu2 Ni3 2.787192 1_555
Lu2 Ni1 2.840822 1_556
Lu2 Sb0 3.163517 1_656
Lu2 Sb1 3.163517 1_556
Lu3 Ni2 2.787192 1_555
Lu3 Ni3 2.787192 1_565
Lu3 Ni0 2.840822 1_554
Lu3 Sb1 3.163517 1_455
Lu3 Sb0 3.163517 1_555
Lu4 Ni2 2.787192 1_555
Lu4 Ni3 2.787192 1_565
Lu4 Ni0 2.840831 1_554
Lu4 Sb0 3.163517 1_565
Lu4 Sb1 3.163517 1_555
Lu5 Ni1 2.787191 1_455
Lu5 Ni0 2.787199 1_555
Lu5 Ni3 2.840831 1_555
Lu5 Sb0 3.163517 1_555
Lu5 Sb1 3.163517 1_556
Lu6 Ni0 2.787191 1_555
Lu6 Ni1 2.787199 1_455
Lu6 Ni3 2.840831 1_555
Lu6 Sb1 3.163517 1_445
Lu6 Sb0 3.163517 1_556
Lu7 Ni2 2.787192 1_545
Lu7 Ni3 2.787192 1_555
Lu7 Ni1 2.840831 1_556
Lu7 Sb1 3.163517 1_546
Lu7 Sb0 3.163517 1_556
Lu8 Ni0 2.787191 1_655
Lu8 Ni1 2.787199 1_555
Lu8 Ni2 2.840831 1_555
Lu8 Sb0 3.163517 1_555
Lu8 Sb1 3.163517 1_556
Lu9 Ni1 2.787191 1_555
Lu9 Ni0 2.787199 1_655
Lu9 Ni2 2.840831 1_555
Lu9 Sb1 3.163517 1_555
Lu9 Sb0 3.163517 1_666
