# generated using pymatgen
data_Zn7H10(CO8)2
_symmetry_space_group_name_H-M   'P 1'
_cell_length_a   8.09241164
_cell_length_b   8.09241164
_cell_length_c   16.20255029
_cell_angle_alpha   84.56214293
_cell_angle_beta   84.56214293
_cell_angle_gamma   39.95097196
_symmetry_Int_Tables_number   1
_chemical_formula_structural   Zn7H10(CO8)2
_chemical_formula_sum   'Zn14 H20 C4 O32'
_cell_volume   677.86696163
_cell_formula_units_Z   2
loop_
 _symmetry_equiv_pos_site_id
 _symmetry_equiv_pos_as_xyz
  1  'x, y, z'
loop_
 _atom_site_type_symbol
 _atom_site_label
 _atom_site_symmetry_multiplicity
 _atom_site_fract_x
 _atom_site_fract_y
 _atom_site_fract_z
 _atom_site_occupancy
  Zn  Zn0  1  0.57483700  0.02713900  0.68577800  1
  Zn  Zn1  1  0.42516300  0.97286100  0.31422200  1
  Zn  Zn2  1  0.97286100  0.42516300  0.81422200  1
  Zn  Zn3  1  0.02713900  0.57483700  0.18577800  1
  Zn  Zn4  1  0.47463100  0.96106700  0.90971100  1
  Zn  Zn5  1  0.52536900  0.03893300  0.09028900  1
  Zn  Zn6  1  0.03893300  0.52536900  0.59028900  1
  Zn  Zn7  1  0.96106700  0.47463100  0.40971100  1
  Zn  Zn8  1  0.38503500  0.89591100  0.53796100  1
  Zn  Zn9  1  0.61496500  0.10408900  0.46203900  1
  Zn  Zn10  1  0.10408900  0.61496500  0.96203900  1
  Zn  Zn11  1  0.89591100  0.38503500  0.03796100  1
  Zn  Zn12  1  0.78066100  0.21933900  0.75000000  1
  Zn  Zn13  1  0.21933900  0.78066100  0.25000000  1
  H  H0  1  0.91053700  0.92513800  0.57167800  1
  H  H1  1  0.08946300  0.07486200  0.42832200  1
  H  H2  1  0.07486200  0.08946300  0.92832200  1
  H  H3  1  0.92513800  0.91053700  0.07167800  1
  H  H4  1  0.54317900  0.20968200  0.94543600  1
  H  H5  1  0.45682100  0.79031800  0.05456400  1
  H  H6  1  0.79031800  0.45682100  0.55456400  1
  H  H7  1  0.20968200  0.54317900  0.44543600  1
  H  H8  1  0.38328400  0.28740000  0.81287000  1
  H  H9  1  0.61671600  0.71260000  0.18713000  1
  H  H10  1  0.71260000  0.61671600  0.68713000  1
  H  H11  1  0.28740000  0.38328400  0.31287000  1
  H  H12  1  0.20209100  0.12906700  0.66863700  1
  H  H13  1  0.79790900  0.87093300  0.33136300  1
  H  H14  1  0.87093300  0.79790900  0.83136300  1
  H  H15  1  0.12906700  0.20209100  0.16863700  1
  H  H16  1  0.21840700  0.97549200  0.78535900  1
  H  H17  1  0.78159300  0.02450800  0.21464100  1
  H  H18  1  0.02450800  0.78159300  0.71464100  1
  H  H19  1  0.97549200  0.21840700  0.28535900  1
  C  C0  1  0.39170600  0.56259100  0.62469500  1
  C  C1  1  0.60829400  0.43740900  0.37530500  1
  C  C2  1  0.43740900  0.60829400  0.87530500  1
  C  C3  1  0.56259100  0.39170600  0.12469500  1
  O  O0  1  0.53793700  0.39772800  0.84838500  1
  O  O1  1  0.46206300  0.60227200  0.15161500  1
  O  O2  1  0.60227200  0.46206300  0.65161500  1
  O  O3  1  0.39772800  0.53793700  0.34838500  1
  O  O4  1  0.86290900  0.92495400  0.74501600  1
  O  O5  1  0.13709100  0.07504600  0.25498400  1
  O  O6  1  0.07504600  0.13709100  0.75498400  1
  O  O7  1  0.92495400  0.86290900  0.24501600  1
  O  O8  1  0.78912900  0.92556400  0.56843000  1
  O  O9  1  0.21087100  0.07443600  0.43157000  1
  O  O10  1  0.07443600  0.21087100  0.93157000  1
  O  O11  1  0.92556400  0.78912900  0.06843000  1
  O  O12  1  0.36387900  0.18795800  0.79903400  1
  O  O13  1  0.63612100  0.81204200  0.20096600  1
  O  O14  1  0.81204200  0.63612100  0.70096600  1
  O  O15  1  0.18795800  0.36387900  0.29903400  1
  O  O16  1  0.29151300  0.12880100  0.62031600  1
  O  O17  1  0.70848700  0.87119900  0.37968400  1
  O  O18  1  0.87119900  0.70848700  0.87968400  1
  O  O19  1  0.12880100  0.29151300  0.12031600  1
  O  O20  1  0.58444900  0.76849800  0.02579100  1
  O  O21  1  0.41555100  0.23150200  0.97420900  1
  O  O22  1  0.23150200  0.41555100  0.47420900  1
  O  O23  1  0.76849800  0.58444900  0.52579100  1
  O  O24  1  0.53145500  0.68167000  0.85051400  1
  O  O25  1  0.46854500  0.31833000  0.14948600  1
  O  O26  1  0.31833000  0.46854500  0.64948600  1
  O  O27  1  0.68167000  0.53145500  0.35051400  1
  O  O28  1  0.25304100  0.76290400  0.57428400  1
  O  O29  1  0.74695900  0.23709600  0.42571600  1
  O  O30  1  0.23709600  0.74695900  0.92571600  1
  O  O31  1  0.76290400  0.25304100  0.07428400  1
loop_
_geom_bond_atom_site_label_1
_geom_bond_atom_site_label_2
_geom_bond_distance
_geom_bond_site_symmetry_2
H0 O8 0.986219 1_555
H1 O9 0.986219 1_555
H2 O10 0.986219 1_555
H3 O11 0.986219 1_555
H4 O21 0.979778 1_555
H5 O20 0.979778 1_555
H6 O23 0.979778 1_555
H7 O22 0.979778 1_555
H8 O12 0.978320 1_555
H9 O13 0.978320 1_555
H10 O14 0.978320 1_555
H11 O15 0.978320 1_555
H12 O16 1.013498 1_555
H12 O6 1.631188 1_555
H13 O17 1.013498 1_555
H13 O7 1.631188 1_555
H14 O18 1.013498 1_555
H14 O4 1.631188 1_555
H15 O19 1.013498 1_555
H15 O5 1.631188 1_555
H16 O6 0.979004 1_565
H17 O7 0.979004 1_545
H18 O4 0.979004 1_455
H19 O5 0.979004 1_655
C0 O26 1.297249 1_555
C0 O28 1.299200 1_555
C0 O2 1.305337 1_555
C1 O27 1.297249 1_555
C1 O29 1.299200 1_555
C1 O3 1.305337 1_555
C2 O24 1.297249 1_555
C2 O30 1.299200 1_555
C2 O0 1.305337 1_555
C3 O25 1.297249 1_555
C3 O31 1.299200 1_555
C3 O1 1.305337 1_555
O0 Zn12 1.994627 1_555
O1 Zn13 1.994627 1_555
O2 Zn12 1.994627 1_555
O3 Zn13 1.994627 1_555
O4 Zn12 1.928740 1_565
O4 Zn0 2.087487 1_565
O5 Zn13 1.928740 1_545
O5 Zn1 2.087487 1_545
O6 Zn12 1.928740 1_455
O6 Zn2 2.087487 1_455
O7 Zn13 1.928740 1_655
O7 Zn3 2.087487 1_655
O8 Zn9 1.977809 1_565
O8 Zn6 2.140327 1_655
O8 Zn0 2.187192 1_565
O9 Zn8 1.977809 1_545
O9 Zn7 2.140327 1_455
O9 Zn1 2.187192 1_545
O10 Zn11 1.977809 1_456
O10 Zn4 2.140327 1_545
O10 Zn2 2.187192 1_455
O11 Zn10 1.977809 1_654
O11 Zn5 2.140327 1_565
O11 Zn3 2.187192 1_655
O12 Zn2 2.094577 1_455
O12 Zn0 2.104280 1_555
O12 Zn4 2.132558 1_545
O13 Zn3 2.094577 1_655
O13 Zn1 2.104280 1_555
O13 Zn5 2.132558 1_565
O14 Zn0 2.094577 1_565
O14 Zn2 2.104280 1_555
O14 Zn6 2.132558 1_655
O15 Zn1 2.094577 1_545
O15 Zn3 2.104280 1_555
O15 Zn7 2.132558 1_455
O16 Zn8 2.000891 1_545
O16 Zn0 2.112386 1_555
O16 Zn6 2.132846 1_555
O17 Zn9 2.000891 1_565
O17 Zn1 2.112386 1_555
O17 Zn7 2.132846 1_555
O18 Zn10 2.000891 1_655
O18 Zn2 2.112386 1_555
O18 Zn4 2.132846 1_555
O19 Zn11 2.000891 1_455
O19 Zn3 2.112386 1_555
O19 Zn5 2.132846 1_555
O20 Zn11 2.001929 1_555
O20 Zn4 2.096089 1_554
O20 Zn5 2.201059 1_565
O21 Zn10 2.001929 1_555
O21 Zn5 2.096089 1_556
O21 Zn4 2.201059 1_545
O22 Zn9 2.001929 1_555
O22 Zn6 2.096089 1_555
O22 Zn7 2.201059 1_455
O23 Zn8 2.001929 1_555
O23 Zn7 2.096089 1_555
O23 Zn6 2.201059 1_655
O24 Zn4 2.230892 1_555
O24 Zn2 2.424691 1_555
O25 Zn5 2.230892 1_555
O25 Zn3 2.424691 1_555
O26 Zn6 2.230892 1_555
O26 Zn0 2.424691 1_555
O27 Zn7 2.230892 1_555
O27 Zn1 2.424691 1_555
O28 Zn8 2.041894 1_555
O29 Zn9 2.041894 1_555
O30 Zn10 2.041894 1_555
O31 Zn11 2.041894 1_555
