# generated using pymatgen
data_Nd2Tc2O7
_symmetry_space_group_name_H-M   'P 1'
_cell_length_a   7.39064652
_cell_length_b   7.39064652
_cell_length_c   7.39064652
_cell_angle_alpha   60.00000000
_cell_angle_beta   60.00000000
_cell_angle_gamma   60.00000000
_symmetry_Int_Tables_number   1
_chemical_formula_structural   Nd2Tc2O7
_chemical_formula_sum   'Nd4 Tc4 O14'
_cell_volume   285.45147782
_cell_formula_units_Z   2
loop_
 _symmetry_equiv_pos_site_id
 _symmetry_equiv_pos_as_xyz
  1  'x, y, z'
loop_
 _atom_site_type_symbol
 _atom_site_label
 _atom_site_symmetry_multiplicity
 _atom_site_fract_x
 _atom_site_fract_y
 _atom_site_fract_z
 _atom_site_occupancy
  Nd  Nd0  1  0.12500000  0.62500000  0.62500000  1
  Nd  Nd1  1  0.62500000  0.12500000  0.62500000  1
  Nd  Nd2  1  0.62500000  0.62500000  0.12500000  1
  Nd  Nd3  1  0.62500000  0.62500000  0.62500000  1
  Tc  Tc0  1  0.62500000  0.12500000  0.12500000  1
  Tc  Tc1  1  0.12500000  0.62500000  0.12500000  1
  Tc  Tc2  1  0.12500000  0.12500000  0.62500000  1
  Tc  Tc3  1  0.12500000  0.12500000  0.12500000  1
  O  O0  1  0.79389732  0.79389732  0.20610268  1
  O  O1  1  0.20610268  0.20610268  0.79389732  1
  O  O2  1  0.79389732  0.20610268  0.79389732  1
  O  O3  1  0.20610268  0.79389732  0.20610268  1
  O  O4  1  0.20610268  0.79389732  0.79389732  1
  O  O5  1  0.79389732  0.20610268  0.20610268  1
  O  O6  1  0.45610268  0.45610268  0.04389732  1
  O  O7  1  0.04389732  0.04389732  0.45610268  1
  O  O8  1  0.45610268  0.04389732  0.45610268  1
  O  O9  1  0.04389732  0.45610268  0.04389732  1
  O  O10  1  0.04389732  0.45610268  0.45610268  1
  O  O11  1  0.45610268  0.04389732  0.04389732  1
  O  O12  1  0.50000000  0.50000000  0.50000000  1
  O  O13  1  0.75000000  0.75000000  0.75000000  1
loop_
_geom_bond_atom_site_label_1
_geom_bond_atom_site_label_2
_geom_bond_distance
_geom_bond_site_symmetry_2
Nd0 O12 2.262914 1_555
Nd0 O13 2.262914 1_455
Nd0 O7 2.555418 1_565
Nd0 O9 2.555418 1_556
Nd0 O4 2.555418 1_555
Nd0 O1 2.555418 1_555
Nd0 O10 2.555418 1_555
Nd0 O3 2.555418 1_555
Nd1 O13 2.262914 1_545
Nd1 O12 2.262914 1_555
Nd1 O7 2.555418 1_655
Nd1 O11 2.555418 1_556
Nd1 O1 2.555418 1_555
Nd1 O8 2.555418 1_555
Nd1 O5 2.555418 1_555
Nd1 O2 2.555418 1_555
Nd2 O12 2.262914 1_555
Nd2 O13 2.262914 1_554
Nd2 O11 2.555418 1_565
Nd2 O9 2.555418 1_655
Nd2 O3 2.555418 1_555
Nd2 O6 2.555418 1_555
Nd2 O0 2.555418 1_555
Nd2 O5 2.555418 1_555
Nd3 O12 2.262914 1_555
Nd3 O13 2.262914 1_555
Nd3 O8 2.555418 1_565
Nd3 O6 2.555418 1_556
Nd3 O10 2.555418 1_655
Nd3 O4 2.555418 1_555
Nd3 O2 2.555418 1_555
Nd3 O0 2.555418 1_555
O0 Tc1 2.032835 1_655
O0 Tc0 2.032835 1_565
O1 Tc3 2.032835 1_556
O1 Tc2 2.032835 1_555
O2 Tc2 2.032835 1_655
O2 Tc0 2.032835 1_556
O3 Tc3 2.032835 1_565
O3 Tc1 2.032835 1_555
O4 Tc2 2.032835 1_565
O4 Tc1 2.032835 1_556
O5 Tc3 2.032835 1_655
O5 Tc0 2.032835 1_555
O6 Tc1 2.032835 1_555
O6 Tc0 2.032835 1_555
O7 Tc3 2.032835 1_555
O7 Tc2 2.032835 1_555
O8 Tc2 2.032835 1_555
O8 Tc0 2.032835 1_555
O9 Tc3 2.032835 1_555
O9 Tc1 2.032835 1_555
O10 Tc1 2.032835 1_555
O10 Tc2 2.032835 1_555
O11 Tc3 2.032835 1_555
O11 Tc0 2.032835 1_555
