# generated using pymatgen
data_Sm2InCuS5
_symmetry_space_group_name_H-M   'P 1'
_cell_length_a   3.86879900
_cell_length_b   11.50853200
_cell_length_c   16.62014200
_cell_angle_alpha   90.00000000
_cell_angle_beta   90.00000000
_cell_angle_gamma   90.00000000
_symmetry_Int_Tables_number   1
_chemical_formula_structural   Sm2InCuS5
_chemical_formula_sum   'Sm8 In4 Cu4 S20'
_cell_volume   739.99847812
_cell_formula_units_Z   4
loop_
 _symmetry_equiv_pos_site_id
 _symmetry_equiv_pos_as_xyz
  1  'x, y, z'
loop_
 _atom_site_type_symbol
 _atom_site_label
 _atom_site_symmetry_multiplicity
 _atom_site_fract_x
 _atom_site_fract_y
 _atom_site_fract_z
 _atom_site_occupancy
  Sm  Sm0  1  0.25000000  0.13439000  0.40414800  1
  Sm  Sm1  1  0.25000000  0.63439000  0.09585200  1
  Sm  Sm2  1  0.75000000  0.86561000  0.59585200  1
  Sm  Sm3  1  0.75000000  0.36561000  0.90414800  1
  Sm  Sm4  1  0.25000000  0.47414600  0.32007000  1
  Sm  Sm5  1  0.25000000  0.97414600  0.17993000  1
  Sm  Sm6  1  0.75000000  0.52585400  0.67993000  1
  Sm  Sm7  1  0.75000000  0.02585400  0.82007000  1
  In  In0  1  0.25000000  0.19457000  0.63851100  1
  In  In1  1  0.25000000  0.69457000  0.86148900  1
  In  In2  1  0.75000000  0.80543000  0.36148900  1
  In  In3  1  0.75000000  0.30543000  0.13851100  1
  Cu  Cu0  1  0.25000000  0.58208200  0.49588700  1
  Cu  Cu1  1  0.25000000  0.08208200  0.00411300  1
  Cu  Cu2  1  0.75000000  0.41791800  0.50411300  1
  Cu  Cu3  1  0.75000000  0.91791800  0.99588700  1
  S  S0  1  0.25000000  0.74125600  0.26827500  1
  S  S1  1  0.25000000  0.24125600  0.23172500  1
  S  S2  1  0.75000000  0.25874400  0.73172500  1
  S  S3  1  0.75000000  0.75874400  0.76827500  1
  S  S4  1  0.25000000  0.89111900  0.46460800  1
  S  S5  1  0.25000000  0.39111900  0.03539200  1
  S  S6  1  0.75000000  0.10888100  0.53539200  1
  S  S7  1  0.75000000  0.60888100  0.96460800  1
  S  S8  1  0.25000000  0.68425300  0.61248900  1
  S  S9  1  0.25000000  0.18425300  0.88751100  1
  S  S10  1  0.75000000  0.31574700  0.38751100  1
  S  S11  1  0.75000000  0.81574700  0.11248900  1
  S  S12  1  0.25000000  0.40400300  0.58040800  1
  S  S13  1  0.25000000  0.90400300  0.91959200  1
  S  S14  1  0.75000000  0.59599700  0.41959200  1
  S  S15  1  0.75000000  0.09599700  0.08040800  1
  S  S16  1  0.25000000  0.48608900  0.80501100  1
  S  S17  1  0.25000000  0.98608900  0.69498900  1
  S  S18  1  0.75000000  0.51391100  0.19498900  1
  S  S19  1  0.75000000  0.01391100  0.30501100  1
loop_
_geom_bond_atom_site_label_1
_geom_bond_atom_site_label_2
_geom_bond_distance
_geom_bond_site_symmetry_2
In0 S17 2.576392 1_545
In0 S2 2.586014 1_555
In0 S2 2.586014 1_455
In0 S12 2.596521 1_555
In0 S6 2.766169 1_555
In0 S6 2.766169 1_455
In1 S16 2.576392 1_555
In1 S3 2.586014 1_555
In1 S3 2.586014 1_455
In1 S13 2.596521 1_555
In1 S7 2.766169 1_455
In1 S7 2.766169 1_555
In2 S19 2.576392 1_565
In2 S0 2.586014 1_555
In2 S0 2.586014 1_655
In2 S14 2.596521 1_555
In2 S4 2.766169 1_555
In2 S4 2.766169 1_655
In3 S18 2.576392 1_555
In3 S1 2.586014 1_555
In3 S1 2.586014 1_655
In3 S15 2.596521 1_555
In3 S5 2.766169 1_555
In3 S5 2.766169 1_655
Cu0 S8 2.266763 1_555
Cu0 S14 2.318503 1_455
Cu0 S14 2.318503 1_555
Cu0 S12 2.484649 1_555
Cu0 Sm4 3.175171 1_555
Cu1 S9 2.266763 1_554
Cu1 S15 2.318503 1_555
Cu1 S15 2.318503 1_455
Cu1 S13 2.484649 1_544
Cu1 Sm5 3.175171 1_545
Cu2 S10 2.266763 1_555
Cu2 S12 2.318503 1_555
Cu2 S12 2.318503 1_655
Cu2 S14 2.484649 1_555
Cu2 Sm6 3.175171 1_555
Cu3 S11 2.266763 1_556
Cu3 S13 2.318503 1_555
Cu3 S13 2.318503 1_655
Cu3 S15 2.484649 1_566
Cu3 Sm7 3.175171 1_565
S0 Sm5 3.056062 1_555
S0 Sm1 3.118459 1_555
S0 Sm4 3.192302 1_555
S1 Sm4 3.056062 1_555
S1 Sm0 3.118459 1_555
S1 Sm5 3.192302 1_545
S2 Sm7 3.056062 1_555
S2 Sm3 3.118459 1_555
S2 Sm6 3.192302 1_555
S3 Sm6 3.056062 1_555
S3 Sm2 3.118459 1_555
S3 Sm7 3.192302 1_565
S4 Sm2 2.930210 1_455
S4 Sm2 2.930210 1_555
S4 Sm0 2.974560 1_565
S5 Sm3 2.930210 1_554
S5 Sm3 2.930210 1_454
S5 Sm1 2.974560 1_555
S6 Sm0 2.930210 1_655
S6 Sm0 2.930210 1_555
S6 Sm2 2.974560 1_545
S7 Sm1 2.930210 1_556
S7 Sm1 2.930210 1_656
S7 Sm3 2.974560 1_555
S8 Sm2 2.859120 1_555
S8 Sm2 2.859120 1_455
S8 Sm6 2.884680 1_455
S8 Sm6 2.884680 1_555
S9 Sm3 2.859120 1_555
S9 Sm3 2.859120 1_455
S9 Sm7 2.884680 1_455
S9 Sm7 2.884680 1_555
S10 Sm0 2.859120 1_555
S10 Sm0 2.859120 1_655
S10 Sm4 2.884680 1_555
S10 Sm4 2.884680 1_655
S11 Sm1 2.859120 1_555
S11 Sm1 2.859120 1_655
S11 Sm5 2.884680 1_655
S11 Sm5 2.884680 1_555
S12 Sm6 2.905919 1_455
S12 Sm6 2.905919 1_555
S13 Sm7 2.905919 1_465
S13 Sm7 2.905919 1_565
S14 Sm4 2.905919 1_555
S14 Sm4 2.905919 1_655
S15 Sm5 2.905919 1_545
S15 Sm5 2.905919 1_645
S16 Sm6 2.876284 1_455
S16 Sm6 2.876284 1_555
S16 Sm3 2.894686 1_455
S16 Sm3 2.894686 1_555
S17 Sm7 2.876284 1_465
S17 Sm7 2.876284 1_565
S17 Sm2 2.894686 1_455
S17 Sm2 2.894686 1_555
S18 Sm4 2.876284 1_655
S18 Sm4 2.876284 1_555
S18 Sm1 2.894686 1_655
S18 Sm1 2.894686 1_555
S19 Sm5 2.876284 1_545
S19 Sm5 2.876284 1_645
S19 Sm0 2.894686 1_555
S19 Sm0 2.894686 1_655
