# generated using pymatgen
data_Ca2YMnO5
_symmetry_space_group_name_H-M   'P 1'
_cell_length_a   9.11022831
_cell_length_b   9.11022831
_cell_length_c   9.11022831
_cell_angle_alpha   145.33061735
_cell_angle_beta   144.14061847
_cell_angle_gamma   50.73520568
_symmetry_Int_Tables_number   1
_chemical_formula_structural   Ca2YMnO5
_chemical_formula_sum   'Ca4 Y2 Mn2 O10'
_cell_volume   250.66841959
_cell_formula_units_Z   2
loop_
 _symmetry_equiv_pos_site_id
 _symmetry_equiv_pos_as_xyz
  1  'x, y, z'
loop_
 _atom_site_type_symbol
 _atom_site_label
 _atom_site_symmetry_multiplicity
 _atom_site_fract_x
 _atom_site_fract_y
 _atom_site_fract_z
 _atom_site_occupancy
  Ca  Ca0  1  0.87424000  0.89247200  0.96537700  1
  Ca  Ca1  1  0.57290400  0.59113700  0.96537700  1
  Ca  Ca2  1  0.12576000  0.09113700  0.01823200  1
  Ca  Ca3  1  0.42709600  0.39247200  0.01823200  1
  Y  Y0  1  0.21018300  0.71166000  0.42184400  1
  Y  Y1  1  0.78981700  0.21166000  0.50147700  1
  Mn  Mn0  1  0.00000000  0.51272000  0.51272000  1
  Mn  Mn1  1  0.50000000  0.01272000  0.51272000  1
  O  O0  1  0.17227500  0.30278600  0.97506100  1
  O  O1  1  0.82772500  0.80278600  0.13051100  1
  O  O2  1  0.79537700  0.42339900  0.47910600  1
  O  O3  1  0.20462300  0.68372900  0.62802300  1
  O  O4  1  0.44429300  0.92339900  0.62802300  1
  O  O5  1  0.55570700  0.18372900  0.47910600  1
  O  O6  1  0.76785300  0.77384300  0.51111500  1
  O  O7  1  0.23214700  0.74326200  0.00599100  1
  O  O8  1  0.23727100  0.24326200  0.51111500  1
  O  O9  1  0.76272900  0.27384300  0.00599100  1
loop_
_geom_bond_atom_site_label_1
_geom_bond_atom_site_label_2
_geom_bond_distance
_geom_bond_site_symmetry_2
Ca0 O4 2.319882 1_555
Ca0 O7 2.424391 1_656
Ca0 O2 2.447559 1_555
Ca0 O8 2.541735 1_666
Ca0 O1 2.569810 1_556
Ca0 O6 2.588719 1_555
Ca0 O9 2.695766 1_566
Ca1 O3 2.319877 1_555
Ca1 O9 2.424397 1_556
Ca1 O5 2.447563 1_555
Ca1 O6 2.541735 1_556
Ca1 O1 2.569818 1_556
Ca1 O8 2.588719 1_555
Ca1 O7 2.695766 1_556
Ca2 O5 2.319882 1_555
Ca2 O6 2.424395 1_444
Ca2 O3 2.447555 1_544
Ca2 O9 2.541736 1_455
Ca2 O0 2.569810 1_554
Ca2 O7 2.588725 1_545
Ca2 O8 2.695774 1_555
Ca3 O2 2.319882 1_555
Ca3 O8 2.424387 1_554
Ca3 O4 2.447557 1_544
Ca3 O7 2.541734 1_555
Ca3 O0 2.569819 1_554
Ca3 O9 2.588713 1_555
Ca3 O6 2.695763 1_555
Mn0 O6 1.941855 1_455
Mn0 O7 1.941860 1_556
Mn0 O9 1.993548 1_455
Mn0 O8 1.993549 1_555
Mn0 O3 2.194526 1_555
Mn0 O2 2.194533 1_455
Mn1 O9 1.941859 1_556
Mn1 O8 1.941860 1_555
Mn1 O7 1.993549 1_545
Mn1 O6 1.993552 1_545
Mn1 O5 2.194533 1_555
Mn1 O4 2.194542 1_545
O0 Y1 2.201571 1_455
O0 Y0 2.229875 1_556
O1 Y0 2.201573 1_655
O1 Y1 2.229872 1_565
O2 Y1 2.133587 1_555
O3 Y0 2.133587 1_555
O4 Y0 2.133587 1_555
O5 Y1 2.133587 1_555
