# generated using pymatgen
data_Zn2Ga2S5
_symmetry_space_group_name_H-M   'P 1'
_cell_length_a   15.25387899
_cell_length_b   15.25387899
_cell_length_c   15.25387929
_cell_angle_alpha   13.90759359
_cell_angle_beta   13.90759359
_cell_angle_gamma   13.90759659
_symmetry_Int_Tables_number   1
_chemical_formula_structural   Zn2Ga2S5
_chemical_formula_sum   'Zn2 Ga2 S5'
_cell_volume   178.44773658
_cell_formula_units_Z   1
loop_
 _symmetry_equiv_pos_site_id
 _symmetry_equiv_pos_as_xyz
  1  'x, y, z'
loop_
 _atom_site_type_symbol
 _atom_site_label
 _atom_site_symmetry_multiplicity
 _atom_site_fract_x
 _atom_site_fract_y
 _atom_site_fract_z
 _atom_site_occupancy
  Zn  Zn0  1  0.86663700  0.86663700  0.86663700  1
  Zn  Zn1  1  0.13336300  0.13336300  0.13336300  1
  Ga  Ga0  1  0.72376900  0.72376900  0.72376900  1
  Ga  Ga1  1  0.27623100  0.27623100  0.27623100  1
  S  S0  1  0.50000000  0.50000000  0.50000000  1
  S  S1  1  0.77246000  0.77246000  0.77246000  1
  S  S2  1  0.22754000  0.22754000  0.22754000  1
  S  S3  1  0.63206700  0.63206700  0.63206700  1
  S  S4  1  0.36793300  0.36793300  0.36793300  1
loop_
_geom_bond_atom_site_label_1
_geom_bond_atom_site_label_2
_geom_bond_distance
_geom_bond_site_symmetry_2
Ga0 S1 2.206299 1_555
Ga0 S4 2.363703 1_556
Ga0 S4 2.363704 1_565
Ga0 S4 2.363704 1_655
Ga1 S2 2.206299 1_555
Ga1 S3 2.363703 1_554
Ga1 S3 2.363704 1_455
Ga1 S3 2.363704 1_545
S0 Zn1 2.612411 1_556
S0 Zn0 2.612411 1_554
S0 Zn1 2.612411 1_565
S0 Zn1 2.612411 1_655
S0 Zn0 2.612411 1_545
S0 Zn0 2.612411 1_455
S1 Zn1 2.471442 1_665
S1 Zn1 2.471442 1_566
S1 Zn1 2.471442 1_656
S2 Zn0 2.471442 1_445
S2 Zn0 2.471442 1_544
S2 Zn0 2.471442 1_454
