# generated using pymatgen
data_NaMn2BiO6
_symmetry_space_group_name_H-M   'P 1'
_cell_length_a   5.45548744
_cell_length_b   5.45548744
_cell_length_c   5.45548726
_cell_angle_alpha   59.92402664
_cell_angle_beta   59.92402664
_cell_angle_gamma   59.92403271
_symmetry_Int_Tables_number   1
_chemical_formula_structural   NaMn2BiO6
_chemical_formula_sum   'Na1 Mn2 Bi1 O6'
_cell_volume   114.61372061
_cell_formula_units_Z   1
loop_
 _symmetry_equiv_pos_site_id
 _symmetry_equiv_pos_as_xyz
  1  'x, y, z'
loop_
 _atom_site_type_symbol
 _atom_site_label
 _atom_site_symmetry_multiplicity
 _atom_site_fract_x
 _atom_site_fract_y
 _atom_site_fract_z
 _atom_site_occupancy
  Na  Na0  1  0.73005000  0.73005000  0.73005000  1
  Mn  Mn0  1  0.99154500  0.99154600  0.99154600  1
  Mn  Mn1  1  0.49189700  0.49189700  0.49189700  1
  Bi  Bi0  1  0.21856300  0.21856300  0.21856300  1
  O  O0  1  0.66606000  0.25052500  0.82614800  1
  O  O1  1  0.25052500  0.82614800  0.66606000  1
  O  O2  1  0.82614800  0.66606000  0.25052500  1
  O  O3  1  0.17019700  0.31966600  0.76954700  1
  O  O4  1  0.76954700  0.17019700  0.31966600  1
  O  O5  1  0.31966600  0.76954700  0.17019700  1
loop_
_geom_bond_atom_site_label_1
_geom_bond_atom_site_label_2
_geom_bond_distance
_geom_bond_site_symmetry_2
Na0 O4 2.339117 1_565
Na0 O5 2.339117 1_556
Na0 O3 2.339118 1_655
Na0 O2 2.568593 1_555
Na0 O0 2.568593 1_555
Na0 O1 2.568593 1_555
Mn0 O0 1.943448 1_565
Mn0 O2 1.943449 1_556
Mn0 O1 1.943453 1_655
Mn0 O4 2.003398 1_566
Mn0 O3 2.003401 1_665
Mn0 O5 2.003403 1_656
Mn1 O3 1.954276 1_555
Mn1 O5 1.954276 1_555
Mn1 O4 1.954276 1_555
Mn1 O2 2.009413 1_555
Mn1 O0 2.009413 1_555
Mn1 O1 2.009413 1_555
Bi0 O0 2.321126 1_554
Bi0 O1 2.321126 1_545
Bi0 O2 2.321126 1_455
Bi0 O3 2.349923 1_554
Bi0 O4 2.349923 1_455
Bi0 O5 2.349923 1_545
