# generated using pymatgen
data_Ho2(Ga3Co)3
_symmetry_space_group_name_H-M   'P 1'
_cell_length_a   7.25727491
_cell_length_b   7.25726640
_cell_length_c   9.33950475
_cell_angle_alpha   90.00678923
_cell_angle_beta   90.00683709
_cell_angle_gamma   119.75631953
_symmetry_Int_Tables_number   1
_chemical_formula_structural   Ho2(Ga3Co)3
_chemical_formula_sum   'Ho4 Ga18 Co6'
_cell_volume   427.03383020
_cell_formula_units_Z   2
loop_
 _symmetry_equiv_pos_site_id
 _symmetry_equiv_pos_as_xyz
  1  'x, y, z'
loop_
 _atom_site_type_symbol
 _atom_site_label
 _atom_site_symmetry_multiplicity
 _atom_site_fract_x
 _atom_site_fract_y
 _atom_site_fract_z
 _atom_site_occupancy
  Ho  Ho0  1  0.33154205  0.00239571  0.74998771  1
  Ho  Ho1  1  0.00236379  0.33152188  0.74998730  1
  Ho  Ho2  1  0.66847835  0.99763634  0.25001248  1
  Ho  Ho3  1  0.99760576  0.66845957  0.25001202  1
  Ga  Ga0  1  0.66571172  -0.00138464  0.92939494  1
  Ga  Ga1  1  0.33421433  0.00133970  0.42940452  1
  Ga  Ga2  1  0.00135622  0.33422098  0.42940421  1
  Ga  Ga3  1  0.33426868  0.00137150  0.07061342  1
  Ga  Ga4  1  -0.00137073  0.66573106  0.92938598  1
  Ga  Ga5  1  0.00138535  0.33428769  0.07060500  1
  Ga  Ga6  1  0.33462808  0.33464061  0.55881206  1
  Ga  Ga7  1  0.33474057  0.33471645  0.94115940  1
  Ga  Ga8  1  0.66528137  0.66525744  0.05884059  1
  Ga  Ga9  1  0.66536012  0.66537269  0.44118811  1
  Ga  Ga10  1  0.87773445  0.87772661  0.74995673  1
  Ga  Ga11  1  0.12227322  0.12226596  0.25004278  1
  Ga  Ga12  1  0.33580262  0.54880885  0.25002331  1
  Ga  Ga13  1  0.54878159  0.33580730  0.25003409  1
  Ga  Ga14  1  0.66419357  0.45121928  0.74996543  1
  Ga  Ga15  1  0.45119169  0.66419811  0.74997618  1
  Ga  Ga16  1  0.66577961  -0.00135585  0.57059549  1
  Ga  Ga17  1  -0.00133940  0.66578625  0.57059553  1
  Co  Co0  1  0.32892383  0.67107647  -0.00000011  1
  Co  Co1  1  0.67109367  0.32890724  0.49999983  1
  Co  Co2  1  0.67108375  0.32891665  -0.00000027  1
  Co  Co3  1  0.32891352  0.67108728  0.49999981  1
  Co  Co4  1  -0.00000076  -0.00000815  0.00000242  1
  Co  Co5  1  0.00000198  -0.00000095  0.50000005  1
loop_
_geom_bond_atom_site_label_1
_geom_bond_atom_site_label_2
_geom_bond_distance
_geom_bond_site_symmetry_2
Ga0 Ga10 2.699275 1_545
Ga0 Ga8 2.703264 1_546
Ga0 Ga15 2.714713 1_545
Ga0 Ga3 2.752136 1_556
Ga0 Ga5 2.777768 1_656
Ga0 Ho0 2.958850 1_555
Ga0 Ho1 2.959133 1_655
Ga0 Ho2 2.994507 1_546
Ga1 Ga11 2.698465 1_555
Ga1 Ga6 2.702532 1_555
Ga1 Ga13 2.715286 1_555
Ga1 Ga16 2.752325 1_555
Ga1 Ga17 2.777468 1_545
Ga1 Ho3 2.958188 1_445
Ga1 Ho2 2.959426 1_545
Ga1 Ho0 2.994187 1_555
Ga2 Ga6 2.702327 1_555
Ga2 Ho2 2.958104 1_445
Ga2 Ho3 2.959413 1_455
Ga2 Ho1 2.994185 1_555
Ga3 Ga7 2.703082 1_554
Ga3 Ga4 2.777633 1_544
Ga3 Ho2 2.958910 1_545
Ga3 Ho3 2.959134 1_445
Ga3 Ho0 2.994583 1_554
Ga4 Ga8 2.703101 1_456
Ga4 Ga5 2.752137 1_556
Ga4 Ho1 2.958902 1_555
Ga4 Ho0 2.959140 1_565
Ga4 Ho3 2.994586 1_456
Ga5 Ga7 2.703255 1_554
Ga5 Ho3 2.958859 1_455
Ga5 Ho2 2.959131 1_445
Ga5 Ho1 2.994508 1_554
Ga6 Ga9 2.647938 1_555
Ga6 Ho0 2.991609 1_555
Ga6 Ho1 2.991630 1_555
Ga7 Ga8 2.646419 1_556
Ga7 Ho0 2.991364 1_555
Ga7 Ho1 2.991705 1_555
Ga8 Ho3 2.991374 1_555
Ga8 Ho2 2.991708 1_555
Ga9 Ho3 2.991617 1_555
Ga9 Ho2 2.991626 1_555
Ga10 Ga14 2.687181 1_555
Ga10 Ga15 2.687406 1_555
Ga10 Ga17 2.698458 1_655
Ga10 Ga16 2.698497 1_565
Ga10 Ga4 2.699104 1_655
Ga10 Ho1 2.950804 1_665
Ga10 Ho0 2.950823 1_665
Ga11 Ga13 2.687190 1_555
Ga11 Ga12 2.687404 1_555
Ga11 Ga2 2.698497 1_555
Ga11 Ga3 2.699104 1_555
Ga11 Ga5 2.699261 1_555
Ga11 Ho2 2.950805 1_445
Ga11 Ho3 2.950813 1_445
Ga12 Ga13 2.673986 1_555
Ga12 Ga5 2.714713 1_555
Ga12 Ga2 2.715274 1_555
Ga12 Ga9 2.759296 1_555
Ga12 Ga8 2.759598 1_555
Ga12 Ho2 2.938132 1_555
Ga12 Ho3 2.982205 1_455
Ga13 Ga3 2.714799 1_555
Ga13 Ga9 2.759257 1_555
Ga13 Ga8 2.759466 1_555
Ga13 Ho3 2.938071 1_555
Ga13 Ho2 2.982255 1_545
Ga14 Ga15 2.673988 1_555
Ga14 Ga4 2.714798 1_655
Ga14 Ga17 2.715282 1_655
Ga14 Ga6 2.759255 1_555
Ga14 Ga7 2.759484 1_555
Ga14 Ho0 2.938064 1_555
Ga14 Ho1 2.982255 1_655
Ga15 Ga16 2.715269 1_565
Ga15 Ga6 2.759291 1_555
Ga15 Ga7 2.759611 1_555
Ga15 Ho1 2.938137 1_555
Ga15 Ho0 2.982202 1_565
Ga16 Ga9 2.702321 1_545
Ga16 Ga2 2.777618 1_655
Ga16 Ho1 2.958103 1_655
Ga16 Ho0 2.959414 1_555
Ga16 Ho2 2.994185 1_545
Ga17 Ga9 2.702531 1_455
Ga17 Ga2 2.752325 1_555
Ga17 Ho0 2.958193 1_565
Ga17 Ho1 2.959423 1_555
Ga17 Ho3 2.994190 1_455
Co0 Ga4 2.467702 1_554
Co0 Ga3 2.467704 1_565
Co0 Ga12 2.507378 1_555
Co0 Ga15 2.507382 1_554
Co0 Ga0 2.508546 1_564
Co0 Ga5 2.508549 1_555
Co0 Ga8 2.522789 1_555
Co0 Ga7 2.522795 1_554
Co1 Ga16 2.467694 1_555
Co1 Ga2 2.467695 1_655
Co1 Ga14 2.506838 1_555
Co1 Ga13 2.506839 1_555
Co1 Ga17 2.508650 1_655
Co1 Ga1 2.508652 1_555
Co1 Ga9 2.523307 1_555
Co1 Ga6 2.523312 1_555
Co2 Ga0 2.467634 1_554
Co2 Ga5 2.467642 1_655
Co2 Ga14 2.507582 1_554
Co2 Ga13 2.507583 1_555
Co2 Ga4 2.508687 1_654
Co2 Ga3 2.508688 1_555
Co2 Ga8 2.522608 1_555
Co2 Ga7 2.522617 1_554
Co3 Ga1 2.467663 1_565
Co3 Ga17 2.467671 1_555
Co3 Ga15 2.506826 1_555
Co3 Ga12 2.506829 1_555
Co3 Ga16 2.508569 1_565
Co3 Ga2 2.508571 1_555
Co3 Ga6 2.523107 1_555
Co3 Ga9 2.523109 1_555
Co4 Ga11 2.499133 1_555
Co4 Ga10 2.499156 1_444
Co4 Ga8 2.499427 1_445
Co4 Ga7 2.499485 1_554
Co4 Ga4 2.509053 1_544
Co4 Ga3 2.509069 1_555
Co4 Ga0 2.509198 1_454
Co4 Ga5 2.509209 1_555
Co5 Ga6 2.498463 1_555
Co5 Ga9 2.498465 1_445
Co5 Ga10 2.498786 1_445
Co5 Ga11 2.498789 1_555
Co5 Ga17 2.508916 1_545
Co5 Ga1 2.508919 1_555
Co5 Ga2 2.508937 1_555
Co5 Ga16 2.508940 1_455
