# generated using pymatgen
data_Mg14NiSb
_symmetry_space_group_name_H-M   'P 1'
_cell_length_a   6.24295028
_cell_length_b   6.24294980
_cell_length_c   10.26229190
_cell_angle_alpha   90.00000000
_cell_angle_beta   90.00000000
_cell_angle_gamma   120.00000256
_symmetry_Int_Tables_number   1
_chemical_formula_structural   Mg14NiSb
_chemical_formula_sum   'Mg14 Ni1 Sb1'
_cell_volume   346.38151132
_cell_formula_units_Z   1
loop_
 _symmetry_equiv_pos_site_id
 _symmetry_equiv_pos_as_xyz
  1  'x, y, z'
loop_
 _atom_site_type_symbol
 _atom_site_label
 _atom_site_symmetry_multiplicity
 _atom_site_fract_x
 _atom_site_fract_y
 _atom_site_fract_z
 _atom_site_occupancy
  Mg  Mg0  1  0.16261642  0.83130771  0.12500000  1
  Mg  Mg1  1  0.16582832  0.83291366  0.62500000  1
  Mg  Mg2  1  0.66869229  0.33738358  0.12500000  1
  Mg  Mg3  1  0.66708634  0.33417168  0.62500000  1
  Mg  Mg4  1  0.66869229  0.83130771  0.12500000  1
  Mg  Mg5  1  0.66708634  0.83291366  0.62500000  1
  Mg  Mg6  1  0.32909275  0.17090725  0.35865445  1
  Mg  Mg7  1  0.32909275  0.17090725  0.89134555  1
  Mg  Mg8  1  0.32909275  0.65818650  0.35865445  1
  Mg  Mg9  1  0.32909275  0.65818650  0.89134555  1
  Mg  Mg10  1  0.84181350  0.17090725  0.35865445  1
  Mg  Mg11  1  0.84181350  0.17090725  0.89134555  1
  Mg  Mg12  1  0.83333300  0.66666700  0.37434053  1
  Mg  Mg13  1  0.83333300  0.66666700  0.87565947  1
  Ni  Ni0  1  0.16666700  0.33333300  0.12500000  1
  Sb  Sb0  1  0.16666700  0.33333300  0.62500000  1
loop_
_geom_bond_atom_site_label_1
_geom_bond_atom_site_label_2
_geom_bond_distance
_geom_bond_site_symmetry_2
Mg0 Mg9 3.020117 1_554
Mg0 Mg8 3.020117 1_555
Mg0 Mg7 3.020124 1_564
Mg0 Mg6 3.020124 1_565
Mg0 Mg2 3.083544 1_455
Mg0 Mg4 3.083544 1_455
Mg0 Mg13 3.117196 1_454
Mg0 Mg12 3.117196 1_455
Mg0 Ni0 3.121552 1_565
Mg0 Ni0 3.121552 1_555
Mg0 Mg2 3.159406 1_565
Mg0 Mg4 3.159406 1_555
Mg1 Sb0 3.121478 1_565
Mg1 Sb0 3.121478 1_555
Mg1 Mg12 3.138231 1_455
Mg1 Mg13 3.138231 1_455
Mg1 Mg9 3.288096 1_555
Mg1 Mg8 3.288096 1_555
Mg1 Mg6 3.288102 1_565
Mg1 Mg7 3.288102 1_565
Mg2 Mg6 3.020124 1_555
Mg2 Mg7 3.020124 1_554
Mg2 Mg4 3.083544 1_555
Mg2 Ni0 3.121552 1_655
Mg2 Ni0 3.121552 1_555
Mg2 Mg4 3.159406 1_545
Mg3 Sb0 3.121478 1_655
Mg3 Sb0 3.121478 1_555
Mg3 Mg6 3.288102 1_555
Mg3 Mg7 3.288102 1_555
Mg4 Mg9 3.020124 1_554
Mg4 Mg8 3.020124 1_555
Mg4 Ni0 3.121552 1_665
Mg4 Ni0 3.121552 1_555
Mg5 Sb0 3.121478 1_665
Mg5 Sb0 3.121478 1_555
Mg5 Mg8 3.288102 1_555
Mg5 Mg9 3.288102 1_555
Mg6 Ni0 2.972251 1_555
Mg6 Mg8 3.042060 1_555
Mg6 Mg8 3.200890 1_545
Mg6 Sb0 3.248954 1_555
Mg7 Ni0 2.972251 1_556
Mg7 Mg9 3.042060 1_555
Mg7 Mg9 3.200890 1_545
Mg7 Sb0 3.248954 1_555
Mg8 Ni0 2.972257 1_555
Mg8 Sb0 3.248959 1_555
Mg9 Ni0 2.972257 1_556
Mg9 Sb0 3.248959 1_555
Mg10 Ni0 2.972257 1_655
Mg10 Mg2 3.020117 1_555
Mg10 Mg4 3.020124 1_545
Mg10 Mg8 3.042060 1_655
Mg10 Mg6 3.042060 1_655
Mg10 Mg12 3.125959 1_545
Mg10 Mg12 3.125959 1_555
Mg10 Mg8 3.200890 1_545
Mg10 Mg6 3.200890 1_555
Mg10 Sb0 3.248959 1_655
Mg10 Mg3 3.288096 1_555
Mg10 Mg5 3.288102 1_545
Mg11 Ni0 2.972257 1_656
Mg11 Mg2 3.020117 1_556
Mg11 Mg4 3.020124 1_546
Mg11 Mg9 3.042060 1_655
Mg11 Mg7 3.042060 1_655
Mg11 Mg13 3.125959 1_545
Mg11 Mg13 3.125959 1_555
Mg11 Mg9 3.200890 1_545
Mg11 Mg7 3.200890 1_555
Mg11 Sb0 3.248959 1_655
Mg11 Mg3 3.288096 1_555
Mg11 Mg5 3.288102 1_545
Mg12 Mg4 3.117190 1_555
Mg12 Mg2 3.117196 1_555
Mg12 Mg6 3.125959 1_665
Mg12 Mg6 3.125959 1_555
Mg12 Mg8 3.125959 1_655
Mg12 Mg8 3.125959 1_555
Mg12 Mg5 3.138225 1_555
Mg12 Mg3 3.138231 1_555
Mg13 Mg4 3.117190 1_556
Mg13 Mg2 3.117196 1_556
Mg13 Mg7 3.125959 1_665
Mg13 Mg7 3.125959 1_555
Mg13 Mg9 3.125959 1_655
Mg13 Mg9 3.125959 1_555
Mg13 Mg5 3.138225 1_555
Mg13 Mg3 3.138231 1_555
