# generated using pymatgen
data_Fe74W13
_symmetry_space_group_name_H-M   'P 1'
_cell_length_a   7.68446917
_cell_length_b   7.68446917
_cell_length_c   19.33822649
_cell_angle_alpha   82.38990844
_cell_angle_beta   82.38990844
_cell_angle_gamma   109.47928093
_symmetry_Int_Tables_number   1
_chemical_formula_structural   Fe74W13
_chemical_formula_sum   'Fe74 W13'
_cell_volume   1047.87053439
_cell_formula_units_Z   1
loop_
 _symmetry_equiv_pos_site_id
 _symmetry_equiv_pos_as_xyz
  1  'x, y, z'
loop_
 _atom_site_type_symbol
 _atom_site_label
 _atom_site_symmetry_multiplicity
 _atom_site_fract_x
 _atom_site_fract_y
 _atom_site_fract_z
 _atom_site_occupancy
  Fe  Fe0  1  0.70925400  0.52341100  0.33320000  1
  Fe  Fe1  1  0.04200600  0.85688500  0.66666700  1
  Fe  Fe2  1  0.37578900  0.18994500  0.00013300  1
  Fe  Fe3  1  0.64541600  0.26987300  0.27002800  1
  Fe  Fe4  1  0.97944800  0.60349000  0.60327800  1
  Fe  Fe5  1  0.31195800  0.93678800  0.93698200  1
  Fe  Fe6  1  0.24877800  0.87323500  0.06330500  1
  Fe  Fe7  1  0.58227300  0.20710300  0.39635100  1
  Fe  Fe8  1  0.91605800  0.54010100  0.73005600  1
  Fe  Fe9  1  0.52341100  0.70925400  0.33320000  1
  Fe  Fe10  1  0.85688500  0.04200600  0.66666700  1
  Fe  Fe11  1  0.18994500  0.37578900  0.00013300  1
  Fe  Fe12  1  0.87323500  0.24877800  0.06330500  1
  Fe  Fe13  1  0.20710300  0.58227300  0.39635100  1
  Fe  Fe14  1  0.54010100  0.91605800  0.73005600  1
  Fe  Fe15  1  0.26987300  0.64541600  0.27002800  1
  Fe  Fe16  1  0.60349000  0.97944800  0.60327800  1
  Fe  Fe17  1  0.93678800  0.31195800  0.93698200  1
  Fe  Fe18  1  0.68654400  0.68654400  0.06179900  1
  Fe  Fe19  1  0.01963100  0.01963100  0.39492500  1
  Fe  Fe20  1  0.35301100  0.35301100  0.72868300  1
  Fe  Fe21  1  0.74957300  0.93943500  0.12517200  1
  Fe  Fe22  1  0.08317500  0.27306900  0.45845600  1
  Fe  Fe23  1  0.41570600  0.60587000  0.79187900  1
  Fe  Fe24  1  0.93943500  0.74957300  0.12517200  1
  Fe  Fe25  1  0.27306900  0.08317500  0.45845600  1
  Fe  Fe26  1  0.60587000  0.41570600  0.79187900  1
  Fe  Fe27  1  0.08167700  0.08167700  0.27153400  1
  Fe  Fe28  1  0.41502600  0.41502600  0.60465000  1
  Fe  Fe29  1  0.74789000  0.74789000  0.93840900  1
  Fe  Fe30  1  0.39794100  0.20807900  0.20816100  1
  Fe  Fe31  1  0.73108200  0.54091700  0.54145400  1
  Fe  Fe32  1  0.06485900  0.87496400  0.87487800  1
  Fe  Fe33  1  0.20807900  0.39794100  0.20816100  1
  Fe  Fe34  1  0.54091700  0.73108200  0.54145400  1
  Fe  Fe35  1  0.87496400  0.06485900  0.87487800  1
  Fe  Fe36  1  0.99998400  0.99998400  0.00009400  1
  Fe  Fe37  1  0.33341100  0.33341100  0.33323900  1
  Fe  Fe38  1  0.73536700  0.01129400  0.33328400  1
  Fe  Fe39  1  0.06713000  0.34364800  0.66666700  1
  Fe  Fe40  1  0.40198400  0.67791200  0.00004900  1
  Fe  Fe41  1  0.50924400  0.10738200  0.10719400  1
  Fe  Fe42  1  0.84297100  0.44085800  0.44080100  1
  Fe  Fe43  1  0.17556100  0.77463300  0.77404200  1
  Fe  Fe44  1  0.94977100  0.54790900  0.22614000  1
  Fe  Fe45  1  0.28293800  0.88201000  0.55929100  1
  Fe  Fe46  1  0.61710500  0.21499200  0.89253200  1
  Fe  Fe47  1  0.01129400  0.73536700  0.33328400  1
  Fe  Fe48  1  0.34364800  0.06713000  0.66666700  1
  Fe  Fe49  1  0.67791200  0.40198400  0.00004900  1
  Fe  Fe50  1  0.54790900  0.94977100  0.22614000  1
  Fe  Fe51  1  0.88201000  0.28293800  0.55929100  1
  Fe  Fe52  1  0.21499200  0.61710500  0.89253200  1
  Fe  Fe53  1  0.10738200  0.50924400  0.10719400  1
  Fe  Fe54  1  0.44085800  0.84297100  0.44080100  1
  Fe  Fe55  1  0.77463300  0.17556100  0.77404200  1
  Fe  Fe56  1  0.83926100  0.83926100  0.24131800  1
  Fe  Fe57  1  0.17308000  0.17308000  0.57567700  1
  Fe  Fe58  1  0.50596000  0.50596000  0.90747000  1
  Fe  Fe59  1  0.73197500  0.41020300  0.13400200  1
  Fe  Fe60  1  0.06568000  0.74237800  0.46734600  1
  Fe  Fe61  1  0.39879700  0.07738700  0.80047200  1
  Fe  Fe62  1  0.41020300  0.73197500  0.13400200  1
  Fe  Fe63  1  0.74237800  0.06568000  0.46734600  1
  Fe  Fe64  1  0.07738700  0.39879700  0.80047200  1
  Fe  Fe65  1  0.41391300  0.41391300  0.09201500  1
  Fe  Fe66  1  0.74676300  0.74676300  0.42586300  1
  Fe  Fe67  1  0.08209000  0.08209000  0.75765700  1
  Fe  Fe68  1  0.87753700  0.19931000  0.19933200  1
  Fe  Fe69  1  0.21119300  0.53260400  0.53286100  1
  Fe  Fe70  1  0.54305700  0.86635900  0.86598700  1
  Fe  Fe71  1  0.19931000  0.87753700  0.19933200  1
  Fe  Fe72  1  0.53260400  0.21119300  0.53286100  1
  Fe  Fe73  1  0.86635900  0.54305700  0.86598700  1
  W  W0  1  0.96622700  0.33349700  0.33313400  1
  W  W1  1  0.29490200  0.66662600  0.66666700  1
  W  W2  1  0.63269500  0.99996500  0.00019900  1
  W  W3  1  0.99996500  0.63269500  0.00019900  1
  W  W4  1  0.33349700  0.96622700  0.33313400  1
  W  W5  1  0.66662600  0.29490200  0.66666700  1
  W  W6  1  0.57795600  0.57795600  0.21115500  1
  W  W7  1  0.91459600  0.91459600  0.54251000  1
  W  W8  1  0.24420100  0.24420100  0.87796300  1
  W  W9  1  0.12244500  0.12244500  0.12217800  1
  W  W10  1  0.45549700  0.45549700  0.45537000  1
  W  W11  1  0.79043800  0.79043800  0.79082400  1
  W  W12  1  0.66704900  0.66704900  0.66666700  1
loop_
_geom_bond_atom_site_label_1
_geom_bond_atom_site_label_2
_geom_bond_distance
_geom_bond_site_symmetry_2
Fe0 Fe9 2.332201 1_555
Fe0 Fe47 2.349562 1_655
Fe0 Fe7 2.380754 1_555
Fe0 Fe3 2.383408 1_555
Fe0 Fe44 2.527651 1_555
Fe0 Fe42 2.537614 1_555
Fe0 Fe56 2.610868 1_555
Fe0 Fe66 2.619431 1_555
Fe0 W6 2.722986 1_555
Fe0 W10 2.725982 1_555
Fe0 Fe37 2.767663 1_555
Fe0 W0 2.819767 1_555
Fe1 Fe10 2.323141 1_465
Fe1 Fe48 2.342123 1_565
Fe1 Fe8 2.385239 1_455
Fe1 Fe4 2.385239 1_455
Fe1 Fe43 2.532559 1_555
Fe1 Fe45 2.532577 1_555
Fe1 Fe67 2.603939 1_565
Fe1 Fe57 2.603939 1_565
Fe1 W7 2.747751 1_455
Fe1 W11 2.747754 1_455
Fe1 W12 2.761688 1_455
Fe1 W1 2.794494 1_555
Fe2 Fe49 2.349553 1_555
Fe2 Fe5 2.380754 1_544
Fe2 Fe6 2.383408 1_545
Fe2 Fe41 2.527660 1_555
Fe2 Fe46 2.537607 1_554
Fe2 Fe65 2.610868 1_555
Fe2 Fe58 2.619431 1_554
Fe2 W9 2.722990 1_555
Fe2 W8 2.725986 1_554
Fe2 Fe36 2.767670 1_445
Fe2 W2 2.819761 1_545
Fe3 Fe30 2.328990 1_555
Fe3 Fe68 2.353780 1_555
Fe3 Fe7 2.377719 1_555
Fe3 Fe44 2.533088 1_555
Fe3 Fe38 2.533512 1_555
Fe3 Fe50 2.612392 1_545
Fe3 Fe59 2.613755 1_555
Fe3 W4 2.723982 1_545
Fe3 W6 2.725929 1_555
Fe3 Fe37 2.764713 1_555
Fe3 W0 2.820787 1_555
Fe4 Fe69 2.350227 1_655
Fe4 Fe8 2.386281 1_555
Fe4 Fe45 2.531150 1_655
Fe4 Fe60 2.609991 1_655
Fe4 Fe51 2.616391 1_555
Fe4 W7 2.747779 1_555
Fe4 W5 2.748149 1_555
Fe4 W12 2.768632 1_555
Fe4 W1 2.788277 1_655
Fe5 Fe70 2.350228 1_555
Fe5 Fe6 2.377719 1_556
Fe5 Fe52 2.614783 1_555
Fe5 Fe61 2.622715 1_565
Fe5 W8 2.723568 1_565
Fe5 W3 2.726486 1_456
Fe5 W2 2.821728 1_556
Fe6 Fe62 2.353795 1_555
Fe6 Fe71 2.613771 1_555
Fe6 W3 2.723982 1_455
Fe6 W9 2.725929 1_565
Fe6 W2 2.820787 1_555
Fe7 Fe72 2.622716 1_555
Fe7 W10 2.723568 1_555
Fe7 W4 2.726486 1_545
Fe7 W0 2.821728 1_555
Fe8 W11 2.747772 1_555
Fe8 W5 2.748145 1_555
Fe8 W12 2.768626 1_555
Fe8 W1 2.788283 1_655
Fe9 W6 2.722986 1_555
Fe9 W10 2.725982 1_555
Fe9 W4 2.819767 1_555
Fe10 Fe39 2.342123 1_655
Fe10 Fe14 2.385239 1_545
Fe10 Fe16 2.385239 1_545
Fe10 Fe55 2.532559 1_555
Fe10 Fe51 2.532577 1_555
Fe10 Fe67 2.603939 1_655
Fe10 Fe57 2.603939 1_655
Fe10 W7 2.747751 1_545
Fe10 W11 2.747754 1_545
Fe10 W12 2.761688 1_545
Fe10 W5 2.794494 1_555
Fe11 Fe2 2.332214 1_555
Fe11 Fe40 2.349553 1_555
Fe11 Fe17 2.380754 1_454
Fe11 Fe12 2.383408 1_455
Fe11 Fe53 2.527660 1_555
Fe11 Fe52 2.537607 1_554
Fe11 Fe65 2.610868 1_555
Fe11 Fe58 2.619431 1_554
Fe11 W9 2.722990 1_555
Fe11 W8 2.725986 1_554
Fe11 Fe36 2.767670 1_445
Fe11 W3 2.819761 1_455
Fe12 Fe21 2.328996 1_545
Fe12 Fe59 2.353795 1_555
Fe12 Fe17 2.377719 1_554
Fe12 Fe53 2.533090 1_655
Fe12 Fe49 2.533507 1_555
Fe12 Fe41 2.612401 1_555
Fe12 Fe68 2.613771 1_555
Fe12 W2 2.723982 1_545
Fe12 W9 2.725929 1_655
Fe12 Fe36 2.764713 1_545
Fe12 W3 2.820787 1_555
Fe13 Fe22 2.329622 1_555
Fe13 Fe60 2.350229 1_555
Fe13 Fe15 2.377719 1_555
Fe13 Fe9 2.380754 1_555
Fe13 Fe47 2.534200 1_555
Fe13 Fe54 2.538486 1_555
Fe13 Fe42 2.614776 1_455
Fe13 Fe69 2.622716 1_555
Fe13 W10 2.723568 1_555
Fe13 W0 2.726486 1_455
Fe13 Fe37 2.762459 1_555
Fe13 W4 2.821728 1_555
Fe14 Fe23 2.334026 1_555
Fe14 Fe61 2.350226 1_565
Fe14 Fe16 2.386281 1_555
Fe14 Fe55 2.531136 1_565
Fe14 Fe48 2.532080 1_565
Fe14 Fe70 2.609971 1_555
Fe14 Fe43 2.616396 1_555
Fe14 W11 2.747772 1_555
Fe14 W1 2.748145 1_555
Fe14 W12 2.768626 1_555
Fe14 W5 2.788283 1_565
Fe15 Fe33 2.328990 1_555
Fe15 Fe71 2.353780 1_555
Fe15 Fe9 2.383408 1_555
Fe15 Fe50 2.533088 1_555
Fe15 Fe47 2.533512 1_555
Fe15 Fe44 2.612392 1_455
Fe15 Fe62 2.613755 1_555
Fe15 W0 2.723982 1_455
Fe15 W6 2.725929 1_555
Fe15 Fe37 2.764713 1_555
Fe15 W4 2.820787 1_555
Fe16 Fe34 2.334045 1_555
Fe16 Fe72 2.350227 1_565
Fe16 Fe51 2.531150 1_565
Fe16 Fe48 2.532075 1_565
Fe16 Fe63 2.609991 1_565
Fe16 Fe45 2.616391 1_555
Fe16 W7 2.747779 1_555
Fe16 W1 2.748149 1_555
Fe16 W12 2.768632 1_555
Fe16 W5 2.788277 1_565
Fe17 Fe35 2.329610 1_555
Fe17 Fe73 2.350228 1_555
Fe17 Fe49 2.534195 1_556
Fe17 Fe52 2.538478 1_655
Fe17 Fe46 2.614783 1_555
Fe17 Fe64 2.622715 1_655
Fe17 W8 2.723568 1_655
Fe17 W2 2.726486 1_546
Fe17 Fe36 2.762459 1_546
Fe17 W3 2.821728 1_556
Fe18 Fe29 2.322513 1_554
Fe18 Fe65 2.354563 1_555
Fe18 Fe24 2.381869 1_555
Fe18 Fe21 2.381869 1_555
Fe18 Fe59 2.533591 1_555
Fe18 Fe62 2.533591 1_555
Fe18 Fe49 2.613013 1_555
Fe18 Fe40 2.613013 1_555
Fe18 W2 2.725134 1_555
Fe18 W3 2.725134 1_555
Fe18 Fe36 2.763172 1_555
Fe18 W6 2.827310 1_555
Fe19 Fe27 2.322532 1_555
Fe19 Fe66 2.356816 1_445
Fe19 Fe25 2.387284 1_555
Fe19 Fe22 2.387284 1_555
Fe19 Fe60 2.543538 1_545
Fe19 Fe63 2.543538 1_455
Fe19 Fe47 2.610226 1_545
Fe19 Fe38 2.610226 1_455
Fe19 W4 2.727666 1_545
Fe19 W0 2.727666 1_455
Fe19 Fe37 2.765836 1_555
Fe19 W7 2.791717 1_445
Fe20 Fe28 2.334614 1_555
Fe20 Fe67 2.339629 1_555
Fe20 Fe23 2.379450 1_555
Fe20 Fe26 2.379450 1_555
Fe20 Fe61 2.526795 1_555
Fe20 Fe64 2.526795 1_555
Fe20 Fe48 2.623894 1_555
Fe20 Fe39 2.623894 1_555
Fe20 W1 2.745840 1_555
Fe20 W5 2.745840 1_555
Fe20 W12 2.769197 1_555
Fe20 W8 2.826134 1_555
Fe21 Fe50 2.354141 1_555
Fe21 Fe24 2.382637 1_555
Fe21 Fe62 2.531578 1_555
Fe21 Fe56 2.533425 1_555
Fe21 Fe68 2.614205 1_565
Fe21 Fe41 2.614950 1_565
Fe21 W2 2.723880 1_555
Fe21 W9 2.727312 1_665
Fe21 Fe36 2.764393 1_555
Fe21 W6 2.823596 1_555
Fe22 Fe51 2.348775 1_455
Fe22 Fe25 2.383039 1_555
Fe22 Fe63 2.540155 1_455
Fe22 Fe57 2.552212 1_555
Fe22 Fe42 2.612233 1_455
Fe22 Fe69 2.615747 1_555
Fe22 W10 2.722554 1_555
Fe22 W0 2.730155 1_455
Fe22 Fe37 2.766020 1_555
Fe22 W7 2.790141 1_445
Fe23 Fe52 2.348025 1_555
Fe23 Fe26 2.386427 1_555
Fe23 Fe64 2.524904 1_555
Fe23 Fe58 2.525538 1_555
Fe23 Fe70 2.615953 1_555
Fe23 Fe43 2.617724 1_555
Fe23 W1 2.743684 1_555
Fe23 W11 2.749019 1_555
Fe23 W12 2.769252 1_555
Fe23 W8 2.825415 1_555
Fe24 Fe6 2.328996 1_655
Fe24 Fe44 2.354141 1_555
Fe24 Fe59 2.531578 1_555
Fe24 Fe56 2.533425 1_555
Fe24 Fe71 2.614205 1_655
Fe24 Fe53 2.614950 1_655
Fe24 W3 2.723880 1_555
Fe24 W9 2.727312 1_665
Fe24 Fe36 2.764393 1_555
Fe24 W6 2.823596 1_555
Fe25 Fe7 2.329622 1_555
Fe25 Fe45 2.348775 1_545
Fe25 Fe60 2.540155 1_545
Fe25 Fe57 2.552212 1_555
Fe25 Fe54 2.612233 1_545
Fe25 Fe72 2.615747 1_555
Fe25 W10 2.722554 1_555
Fe25 W4 2.730155 1_545
Fe25 Fe37 2.766020 1_555
Fe25 W7 2.790141 1_445
Fe26 Fe8 2.334026 1_555
Fe26 Fe46 2.348025 1_555
Fe26 Fe61 2.524904 1_555
Fe26 Fe58 2.525538 1_555
Fe26 Fe73 2.615953 1_555
Fe26 Fe55 2.617724 1_555
Fe26 W5 2.743684 1_555
Fe26 W11 2.749019 1_555
Fe26 W12 2.769252 1_555
Fe26 W8 2.825415 1_555
Fe27 Fe56 2.354572 1_445
Fe27 Fe33 2.381869 1_555
Fe27 Fe30 2.381869 1_555
Fe27 Fe71 2.533588 1_545
Fe27 Fe68 2.533588 1_455
Fe27 Fe47 2.613011 1_545
Fe27 Fe38 2.613011 1_455
Fe27 W0 2.725132 1_455
Fe27 W4 2.725132 1_545
Fe27 Fe37 2.763164 1_555
Fe27 W9 2.827310 1_555
Fe28 Fe57 2.339611 1_555
Fe28 Fe31 2.379456 1_555
Fe28 Fe34 2.379456 1_555
Fe28 Fe72 2.526794 1_555
Fe28 Fe69 2.526794 1_555
Fe28 Fe39 2.623895 1_555
Fe28 Fe48 2.623895 1_555
Fe28 W1 2.745852 1_555
Fe28 W5 2.745852 1_555
Fe28 W12 2.769217 1_555
Fe28 W10 2.826133 1_555
Fe29 Fe58 2.356825 1_555
Fe29 Fe32 2.387284 1_655
Fe29 Fe35 2.387284 1_565
Fe29 Fe73 2.543552 1_555
Fe29 Fe70 2.543552 1_555
Fe29 Fe49 2.610227 1_556
Fe29 Fe40 2.610227 1_556
Fe29 W3 2.727657 1_556
Fe29 W2 2.727657 1_556
Fe29 Fe36 2.765824 1_556
Fe29 W11 2.791719 1_555
Fe30 Fe41 2.354127 1_555
Fe30 Fe33 2.382637 1_555
Fe30 Fe71 2.531587 1_545
Fe30 Fe65 2.533425 1_555
Fe30 Fe59 2.614193 1_555
Fe30 Fe50 2.614954 1_545
Fe30 W4 2.723882 1_545
Fe30 W6 2.727304 1_555
Fe30 Fe37 2.764390 1_555
Fe30 W9 2.823596 1_555
Fe31 Fe4 2.334045 1_555
Fe31 Fe42 2.348019 1_555
Fe31 Fe34 2.386439 1_555
Fe31 Fe72 2.524887 1_555
Fe31 Fe66 2.525541 1_555
Fe31 Fe60 2.615962 1_655
Fe31 Fe51 2.617714 1_555
Fe31 W5 2.743695 1_555
Fe31 W7 2.749038 1_555
Fe31 W12 2.769273 1_555
Fe31 W10 2.825414 1_555
Fe32 Fe5 2.329610 1_555
Fe32 Fe43 2.348789 1_555
Fe32 Fe35 2.383051 1_465
Fe32 Fe73 2.540162 1_455
Fe32 Fe67 2.552214 1_565
Fe32 Fe52 2.612226 1_555
Fe32 Fe61 2.615742 1_565
Fe32 W8 2.722556 1_565
Fe32 W3 2.730136 1_456
Fe32 Fe36 2.766006 1_456
Fe32 W11 2.790153 1_455
Fe33 Fe53 2.354127 1_555
Fe33 Fe68 2.531587 1_455
Fe33 Fe65 2.533425 1_555
Fe33 Fe62 2.614193 1_555
Fe33 Fe44 2.614954 1_455
Fe33 W0 2.723882 1_455
Fe33 W6 2.727304 1_555
Fe33 Fe37 2.764390 1_555
Fe33 W9 2.823596 1_555
Fe34 Fe54 2.348019 1_555
Fe34 Fe69 2.524887 1_555
Fe34 Fe66 2.525541 1_555
Fe34 Fe63 2.615962 1_565
Fe34 Fe45 2.617714 1_555
Fe34 W1 2.743695 1_555
Fe34 W7 2.749038 1_555
Fe34 W12 2.769273 1_555
Fe34 W10 2.825414 1_555
Fe35 Fe55 2.348789 1_555
Fe35 Fe70 2.540162 1_545
Fe35 Fe67 2.552214 1_655
Fe35 Fe46 2.612226 1_555
Fe35 Fe64 2.615742 1_655
Fe35 W8 2.722556 1_655
Fe35 W2 2.730136 1_546
Fe35 Fe36 2.766006 1_546
Fe35 W11 2.790153 1_545
Fe36 Fe5 2.762459 1_654
Fe36 Fe6 2.764713 1_655
Fe36 W8 2.815161 1_664
Fe36 W9 2.816241 1_665
Fe36 W2 2.822104 1_555
Fe36 W3 2.822104 1_555
Fe37 Fe7 2.762459 1_555
Fe37 Fe9 2.767663 1_555
Fe37 W10 2.815161 1_555
Fe37 W6 2.816241 1_555
Fe37 W4 2.822104 1_545
Fe37 W0 2.822104 1_455
Fe38 Fe9 2.349562 1_545
Fe38 W0 2.518901 1_555
Fe38 Fe7 2.534200 1_555
Fe38 Fe56 2.549215 1_545
Fe38 Fe66 2.557620 1_545
Fe38 Fe50 2.680944 1_545
Fe38 Fe68 2.682835 1_555
Fe38 Fe54 2.684582 1_545
Fe38 Fe63 2.684713 1_555
Fe38 W4 2.990991 1_545
Fe39 W1 2.515203 1_555
Fe39 Fe4 2.532075 1_455
Fe39 Fe8 2.532080 1_455
Fe39 Fe57 2.533801 1_555
Fe39 Fe67 2.533801 1_555
Fe39 Fe55 2.673814 1_455
Fe39 Fe51 2.673820 1_455
Fe39 Fe64 2.683918 1_555
Fe39 Fe69 2.683939 1_555
Fe39 W5 2.973792 1_455
Fe40 W2 2.518904 1_555
Fe40 Fe6 2.533507 1_555
Fe40 Fe5 2.534195 1_554
Fe40 Fe65 2.549218 1_555
Fe40 Fe58 2.557623 1_554
Fe40 Fe53 2.680956 1_555
Fe40 Fe62 2.682852 1_555
Fe40 Fe52 2.684582 1_554
Fe40 Fe70 2.684711 1_554
Fe40 W3 2.990984 1_455
Fe41 W2 2.513399 1_545
Fe41 Fe6 2.533090 1_545
Fe41 Fe59 2.551762 1_555
Fe41 Fe50 2.555242 1_545
Fe41 Fe49 2.680956 1_555
Fe41 Fe65 2.682536 1_555
Fe41 Fe71 2.683973 1_545
Fe41 Fe62 2.684248 1_545
Fe41 W9 2.990388 1_555
Fe42 W0 2.523220 1_555
Fe42 Fe7 2.538486 1_555
Fe42 Fe60 2.542456 1_655
Fe42 Fe51 2.549800 1_555
Fe42 Fe63 2.681338 1_555
Fe42 Fe66 2.681729 1_555
Fe42 Fe47 2.684582 1_655
Fe42 Fe72 2.684834 1_555
Fe42 W10 2.994549 1_555
Fe43 W1 2.510225 1_555
Fe43 Fe8 2.531136 1_455
Fe43 Fe52 2.549800 1_555
Fe43 Fe61 2.549915 1_565
Fe43 Fe48 2.673814 1_565
Fe43 Fe67 2.681829 1_565
Fe43 Fe73 2.682696 1_455
Fe43 Fe64 2.687986 1_555
Fe43 W11 2.978974 1_455
Fe44 W0 2.513385 1_555
Fe44 Fe71 2.551756 1_655
Fe44 Fe53 2.555242 1_655
Fe44 Fe47 2.680944 1_655
Fe44 Fe56 2.682533 1_555
Fe44 Fe59 2.683970 1_555
Fe44 Fe68 2.684247 1_555
Fe44 W6 2.990392 1_555
Fe45 W1 2.510242 1_555
Fe45 Fe54 2.549800 1_555
Fe45 Fe72 2.549910 1_565
Fe45 Fe48 2.673820 1_565
Fe45 Fe57 2.681826 1_565
Fe45 Fe60 2.682702 1_555
Fe45 Fe69 2.687985 1_555
Fe45 W7 2.978974 1_455
Fe46 W2 2.523218 1_546
Fe46 Fe5 2.538478 1_545
Fe46 Fe73 2.542456 1_555
Fe46 Fe55 2.549800 1_555
Fe46 Fe70 2.681338 1_545
Fe46 Fe58 2.681731 1_555
Fe46 Fe49 2.684582 1_556
Fe46 Fe61 2.684838 1_555
Fe46 W8 2.994544 1_555
Fe47 W4 2.518901 1_555
Fe47 Fe56 2.549215 1_455
Fe47 Fe66 2.557620 1_455
Fe47 Fe71 2.682835 1_555
Fe47 Fe60 2.684713 1_555
Fe47 W0 2.990991 1_455
Fe48 W5 2.515203 1_555
Fe48 Fe57 2.533801 1_555
Fe48 Fe67 2.533801 1_555
Fe48 Fe61 2.683918 1_555
Fe48 Fe72 2.683939 1_555
Fe48 W1 2.973792 1_545
Fe49 W3 2.518904 1_555
Fe49 Fe65 2.549218 1_555
Fe49 Fe58 2.557623 1_554
Fe49 Fe59 2.682852 1_555
Fe49 Fe73 2.684711 1_554
Fe49 W2 2.990984 1_545
Fe50 W4 2.513385 1_555
Fe50 Fe9 2.527651 1_555
Fe50 Fe68 2.551756 1_565
Fe50 Fe56 2.682533 1_555
Fe50 Fe62 2.683970 1_555
Fe50 Fe71 2.684247 1_555
Fe50 W6 2.990392 1_555
Fe51 W5 2.510242 1_555
Fe51 Fe69 2.549910 1_655
Fe51 Fe57 2.681826 1_655
Fe51 Fe63 2.682702 1_555
Fe51 Fe72 2.687985 1_555
Fe51 W7 2.978974 1_545
Fe52 W3 2.523218 1_456
Fe52 Fe70 2.542456 1_555
Fe52 Fe73 2.681338 1_455
Fe52 Fe58 2.681731 1_555
Fe52 Fe64 2.684838 1_555
Fe52 W8 2.994544 1_555
Fe53 W3 2.513399 1_455
Fe53 Fe62 2.551762 1_555
Fe53 Fe6 2.612401 1_555
Fe53 Fe65 2.682536 1_555
Fe53 Fe68 2.683973 1_455
Fe53 Fe59 2.684248 1_455
Fe53 W9 2.990388 1_555
Fe54 W4 2.523220 1_555
Fe54 Fe9 2.537614 1_555
Fe54 Fe63 2.542456 1_565
Fe54 Fe7 2.614776 1_565
Fe54 Fe60 2.681338 1_555
Fe54 Fe66 2.681729 1_555
Fe54 Fe69 2.684834 1_555
Fe54 W10 2.994549 1_555
Fe55 W5 2.510225 1_555
Fe55 Fe64 2.549915 1_655
Fe55 Fe8 2.616396 1_555
Fe55 Fe67 2.681829 1_655
Fe55 Fe70 2.682696 1_545
Fe55 Fe61 2.687986 1_555
Fe55 W11 2.978974 1_545
Fe56 W6 2.517071 1_555
Fe56 Fe9 2.610868 1_555
Fe56 Fe68 2.683254 1_565
Fe56 Fe71 2.683254 1_655
Fe56 W9 2.994175 1_665
Fe57 W7 2.519085 1_445
Fe57 Fe72 2.682234 1_555
Fe57 Fe69 2.682234 1_555
Fe57 W10 3.002779 1_555
Fe58 W8 2.515405 1_555
Fe58 Fe73 2.686865 1_555
Fe58 Fe70 2.686865 1_555
Fe58 W11 2.974342 1_555
Fe59 W6 2.519501 1_555
Fe59 Fe68 2.552376 1_555
Fe59 Fe65 2.683255 1_555
Fe59 W3 2.987984 1_555
Fe60 W7 2.509849 1_455
Fe60 Fe69 2.547646 1_555
Fe60 Fe66 2.686870 1_455
Fe60 W4 2.995395 1_555
Fe61 W8 2.520525 1_555
Fe61 Fe70 2.547652 1_545
Fe61 Fe67 2.682218 1_555
Fe61 W5 2.979055 1_555
Fe62 W6 2.519501 1_555
Fe62 Fe71 2.552376 1_555
Fe62 Fe65 2.683255 1_555
Fe62 W2 2.987984 1_555
Fe63 Fe7 2.350229 1_555
Fe63 W7 2.509849 1_545
Fe63 Fe72 2.547646 1_555
Fe63 Fe66 2.686870 1_545
Fe63 W0 2.995395 1_555
Fe64 Fe8 2.350226 1_455
Fe64 W8 2.520525 1_555
Fe64 Fe73 2.547652 1_455
Fe64 Fe67 2.682218 1_555
Fe64 W1 2.979055 1_555
Fe65 W9 2.517071 1_555
Fe65 W6 2.994169 1_555
Fe66 W10 2.515405 1_555
Fe66 Fe9 2.619431 1_555
Fe66 W7 2.974364 1_555
Fe67 W11 2.519093 1_445
Fe67 W8 3.002767 1_555
Fe68 W9 2.519518 1_655
Fe68 W0 2.987968 1_555
Fe69 W10 2.520528 1_555
Fe69 W1 2.979066 1_555
Fe70 W11 2.509837 1_555
Fe70 W2 2.995399 1_556
Fe71 W9 2.519518 1_565
Fe71 W4 2.987968 1_555
Fe72 W10 2.520528 1_555
Fe72 W5 2.979066 1_555
Fe73 W11 2.509837 1_555
Fe73 Fe8 2.609971 1_555
Fe73 W3 2.995399 1_556
W1 W12 2.858670 1_555
W11 W12 2.858167 1_555
W12 W7 2.858172 1_555
W12 W5 2.858670 1_555
