# generated using pymatgen
data_CsRe2N3
_symmetry_space_group_name_H-M   'P 1'
_cell_length_a   9.51460018
_cell_length_b   14.60185190
_cell_length_c   7.35407451
_cell_angle_alpha   89.99999678
_cell_angle_beta   116.88993756
_cell_angle_gamma   39.88444504
_symmetry_Int_Tables_number   1
_chemical_formula_structural   CsRe2N3
_chemical_formula_sum   'Cs4 Re8 N12'
_cell_volume   464.43869195
_cell_formula_units_Z   4
loop_
 _symmetry_equiv_pos_site_id
 _symmetry_equiv_pos_as_xyz
  1  'x, y, z'
loop_
 _atom_site_type_symbol
 _atom_site_label
 _atom_site_symmetry_multiplicity
 _atom_site_fract_x
 _atom_site_fract_y
 _atom_site_fract_z
 _atom_site_occupancy
  Cs  Cs0  1  0.00000000  0.96619900  0.75000000  1
  Cs  Cs1  1  0.00000000  0.03380100  0.25000000  1
  Cs  Cs2  1  0.00000000  0.48828000  0.75000000  1
  Cs  Cs3  1  0.00000000  0.51172000  0.25000000  1
  Re  Re0  1  0.31345000  0.55362600  0.70775500  1
  Re  Re1  1  0.68655000  0.86707600  0.79224500  1
  Re  Re2  1  0.68655000  0.44637400  0.29224500  1
  Re  Re3  1  0.31345000  0.13292400  0.20775500  1
  Re  Re4  1  0.74837900  0.34714100  0.70597900  1
  Re  Re5  1  0.25162100  0.09552000  0.79402100  1
  Re  Re6  1  0.25162100  0.65285900  0.29402100  1
  Re  Re7  1  0.74837900  0.90448000  0.20597900  1
  N  N0  1  0.34356900  0.53292100  0.00577100  1
  N  N1  1  0.65643100  0.87649100  0.49422900  1
  N  N2  1  0.65643100  0.46707900  0.99422900  1
  N  N3  1  0.34356900  0.12350900  0.50577100  1
  N  N4  1  0.43341700  0.90406300  0.76366300  1
  N  N5  1  0.56658300  0.33748000  0.73633700  1
  N  N6  1  0.56658300  0.09593700  0.23633700  1
  N  N7  1  0.43341700  0.66252000  0.26366300  1
  N  N8  1  0.13883800  0.23286200  0.52285900  1
  N  N9  1  0.86116300  0.37169900  0.97714100  1
  N  N10  1  0.86116300  0.76713800  0.47714100  1
  N  N11  1  0.13883800  0.62830100  0.02285900  1
loop_
_geom_bond_atom_site_label_1
_geom_bond_atom_site_label_2
_geom_bond_distance
_geom_bond_site_symmetry_2
Cs0 N7 2.963784 1_556
Cs0 N6 2.963785 1_465
Cs0 N5 3.423755 1_465
Cs0 N4 3.423755 1_555
Cs1 N5 2.963784 1_454
Cs1 N4 2.963785 1_545
Cs1 N7 3.423755 1_545
Cs1 N6 3.423755 1_455
Cs2 N6 3.136329 1_556
Cs2 N7 3.136329 1_455
Cs3 N4 3.136329 1_454
Cs3 N5 3.136329 1_555
N0 N11 1.344568 1_555
N0 Re2 2.033931 1_555
N0 Re0 2.067777 1_554
N1 N10 1.344575 1_555
N1 Re3 2.033922 1_565
N1 Re1 2.067776 1_555
N2 N9 1.344574 1_555
N2 Re0 2.033931 1_555
N2 Re2 2.067777 1_556
N3 N8 1.344570 1_555
N3 Re1 2.033922 1_545
N3 Re3 2.067776 1_555
N4 Re1 1.918951 1_555
N4 Re5 1.945622 1_565
N5 Re0 1.918951 1_555
N5 Re4 1.945622 1_555
N6 Re3 1.918951 1_555
N6 Re7 1.945622 1_545
N7 Re2 1.918951 1_555
N7 Re6 1.945622 1_555
N8 Re5 1.977788 1_555
N8 Re2 1.980736 1_455
N9 Re4 1.977782 1_555
N9 Re3 1.980731 1_656
N10 Re7 1.977782 1_555
N10 Re0 1.980731 1_655
N11 Re6 1.977780 1_555
N11 Re1 1.980735 1_454
