# generated using pymatgen
data_Rb2Cu4H5(SO5)4
_symmetry_space_group_name_H-M   'P 1'
_cell_length_a   11.42491279
_cell_length_b   6.50584207
_cell_length_c   7.99033598
_cell_angle_alpha   88.64379212
_cell_angle_beta   65.31974043
_cell_angle_gamma   54.59682079
_symmetry_Int_Tables_number   1
_chemical_formula_structural   Rb2Cu4H5(SO5)4
_chemical_formula_sum   'Rb2 Cu4 H5 S4 O20'
_cell_volume   420.34475600
_cell_formula_units_Z   1
loop_
 _symmetry_equiv_pos_site_id
 _symmetry_equiv_pos_as_xyz
  1  'x, y, z'
loop_
 _atom_site_type_symbol
 _atom_site_label
 _atom_site_symmetry_multiplicity
 _atom_site_fract_x
 _atom_site_fract_y
 _atom_site_fract_z
 _atom_site_occupancy
  Rb  Rb0  1  0.00000000  0.50000000  0.50000000  1
  Rb  Rb1  1  0.50000000  0.50000000  0.50000000  1
  Cu  Cu0  1  0.25518000  0.99593400  0.99854800  1
  Cu  Cu1  1  0.25137500  0.49594600  0.99667700  1
  Cu  Cu2  1  0.74482000  0.00406600  0.00145200  1
  Cu  Cu3  1  0.74862500  0.50405400  0.00332300  1
  H  H0  1  0.19916300  0.30071500  0.81342800  1
  H  H1  1  0.29376900  0.70162100  0.20339100  1
  H  H2  1  0.50000000  0.50000000  0.00000000  1
  H  H3  1  0.70623100  0.29837900  0.79660900  1
  H  H4  1  0.80083700  0.69928500  0.18657200  1
  S  S0  1  0.42499600  0.07246800  0.28539800  1
  S  S1  1  0.07088700  0.93034600  0.71934500  1
  S  S2  1  0.92911300  0.06965400  0.28065500  1
  S  S3  1  0.57500400  0.92753200  0.71460200  1
  O  O0  1  0.03794600  0.15136000  0.22299600  1
  O  O1  1  0.03745000  0.77190500  0.22440800  1
  O  O2  1  0.32732400  0.17419800  0.18580800  1
  O  O3  1  0.32128400  0.17405600  0.49538300  1
  O  O4  1  0.16805700  0.32864000  0.95091000  1
  O  O5  1  0.34906500  0.65026600  0.06092400  1
  O  O6  1  0.17575400  0.82767200  0.50864600  1
  O  O7  1  0.53199500  0.15908200  0.22760500  1
  O  O8  1  0.17117100  0.82603300  0.81648400  1
  O  O9  1  0.46675400  0.22555000  0.77192200  1
  O  O10  1  0.53324600  0.77445000  0.22807800  1
  O  O11  1  0.82882900  0.17396700  0.18351600  1
  O  O12  1  0.46800500  0.84091800  0.77239500  1
  O  O13  1  0.82424600  0.17232800  0.49135400  1
  O  O14  1  0.65093500  0.34973400  0.93907600  1
  O  O15  1  0.83194300  0.67136000  0.04909000  1
  O  O16  1  0.67871600  0.82594400  0.50461700  1
  O  O17  1  0.67267600  0.82580200  0.81419200  1
  O  O18  1  0.96255000  0.22809500  0.77559200  1
  O  O19  1  0.96205500  0.84864000  0.77700400  1
loop_
_geom_bond_atom_site_label_1
_geom_bond_atom_site_label_2
_geom_bond_distance
_geom_bond_site_symmetry_2
Cu0 O4 1.897875 1_565
Cu0 O12 1.941753 1_555
Cu0 O0 1.964563 1_566
Cu0 O5 2.013658 1_556
Cu0 O2 2.546149 1_566
Cu0 O8 2.594356 1_555
Cu1 O4 1.932524 1_555
Cu1 O9 1.954072 1_555
Cu1 O1 1.965803 1_556
Cu1 O5 2.078073 1_556
Cu1 O8 2.489946 1_555
Cu1 O2 2.501842 1_556
Cu2 O15 1.897875 1_545
Cu2 O7 1.941753 1_555
Cu2 O19 1.964570 1_544
Cu2 O14 2.013658 1_554
Cu2 O17 2.546149 1_544
Cu2 O11 2.594356 1_555
Cu3 O15 1.932524 1_555
Cu3 O10 1.954072 1_555
Cu3 O18 1.965803 1_554
Cu3 O14 2.078073 1_554
Cu3 O11 2.489946 1_555
Cu3 O17 2.501842 1_554
H0 O4 0.987259 1_555
H1 O5 0.989680 1_555
H2 O5 1.238768 1_555
H2 O14 1.238768 1_554
H3 O14 0.989680 1_555
H4 O15 0.987259 1_555
O0 S2 1.522074 1_455
O0 Rb0 2.920373 1_555
O1 S2 1.511624 1_465
O1 Rb0 2.840279 1_555
O2 S0 1.475600 1_555
O2 Rb0 2.829792 1_555
O3 S0 1.463162 1_555
O3 Rb0 2.973823 1_555
O6 S1 1.468838 1_555
O6 Rb1 2.985909 1_555
O7 S0 1.529562 1_555
O7 Rb1 2.900853 1_555
O8 S1 1.480718 1_555
O8 Rb1 2.845176 1_555
O9 S3 1.513002 1_545
O9 Rb1 2.822442 1_555
O10 S0 1.513002 1_565
O10 Rb1 2.822442 1_555
O11 S2 1.480718 1_555
O11 Rb1 2.845176 1_555
O12 S3 1.529562 1_555
O12 Rb1 2.900853 1_555
O13 S2 1.468838 1_555
O13 Rb1 2.985909 1_555
O16 S3 1.463162 1_555
O16 Rb0 2.973823 1_655
O17 S3 1.475600 1_555
O17 Rb0 2.829792 1_655
O18 S1 1.511624 1_645
O18 Rb0 2.840279 1_655
O19 S1 1.522064 1_655
O19 Rb0 2.920380 1_655
