# generated using pymatgen
data_Dy2Fe17C3
_symmetry_space_group_name_H-M   'P 1'
_cell_length_a   6.50016259
_cell_length_b   6.50016259
_cell_length_c   6.50016226
_cell_angle_alpha   83.07101404
_cell_angle_beta   83.07101404
_cell_angle_gamma   83.07100941
_symmetry_Int_Tables_number   1
_chemical_formula_structural   Dy2Fe17C3
_chemical_formula_sum   'Dy2 Fe17 C3'
_cell_volume   269.07562291
_cell_formula_units_Z   1
loop_
 _symmetry_equiv_pos_site_id
 _symmetry_equiv_pos_as_xyz
  1  'x, y, z'
loop_
 _atom_site_type_symbol
 _atom_site_label
 _atom_site_symmetry_multiplicity
 _atom_site_fract_x
 _atom_site_fract_y
 _atom_site_fract_z
 _atom_site_occupancy
  Dy  Dy0  1  0.65829600  0.65829600  0.65829600  1
  Dy  Dy1  1  0.34170400  0.34170400  0.34170400  1
  Fe  Fe0  1  0.00000000  0.00000000  0.50000000  1
  Fe  Fe1  1  0.50000000  0.00000000  0.00000000  1
  Fe  Fe2  1  0.00000000  0.50000000  0.00000000  1
  Fe  Fe3  1  0.71695600  0.28304400  0.00000000  1
  Fe  Fe4  1  0.00000000  0.71695600  0.28304400  1
  Fe  Fe5  1  0.28304400  0.00000000  0.71695600  1
  Fe  Fe6  1  0.00000000  0.28304400  0.71695600  1
  Fe  Fe7  1  0.71695600  0.00000000  0.28304400  1
  Fe  Fe8  1  0.28304400  0.71695600  0.00000000  1
  Fe  Fe9  1  0.34411000  0.34411000  0.85574600  1
  Fe  Fe10  1  0.85574600  0.34411000  0.34411000  1
  Fe  Fe11  1  0.34411000  0.85574600  0.34411000  1
  Fe  Fe12  1  0.65589000  0.65589000  0.14425400  1
  Fe  Fe13  1  0.14425400  0.65589000  0.65589000  1
  Fe  Fe14  1  0.65589000  0.14425400  0.65589000  1
  Fe  Fe15  1  0.90405300  0.90405300  0.90405300  1
  Fe  Fe16  1  0.09594700  0.09594700  0.09594700  1
  C  C0  1  0.50000000  0.50000000  0.00000000  1
  C  C1  1  0.00000000  0.50000000  0.50000000  1
  C  C2  1  0.50000000  0.00000000  0.50000000  1
loop_
_geom_bond_atom_site_label_1
_geom_bond_atom_site_label_2
_geom_bond_distance
_geom_bond_site_symmetry_2
Dy0 Fe15 3.082658 1_555
Dy0 Fe1 3.318594 1_566
Dy0 Fe2 3.318594 1_656
Dy0 Fe0 3.318594 1_665
Dy1 Fe16 3.082658 1_555
Dy1 Fe2 3.318594 1_555
Dy1 Fe1 3.318594 1_555
Dy1 Fe0 3.318594 1_555
Fe0 Fe6 2.449451 1_555
Fe0 Fe5 2.449451 1_555
Fe0 Fe4 2.449451 1_545
Fe0 Fe7 2.449451 1_455
Fe0 Fe14 2.466883 1_455
Fe0 Fe13 2.466883 1_545
Fe0 Fe10 2.466883 1_455
Fe0 Fe11 2.466883 1_545
Fe0 Fe15 2.641851 1_445
Fe0 Fe16 2.641851 1_555
Fe1 Fe7 2.449451 1_555
Fe1 Fe5 2.449451 1_554
Fe1 Fe3 2.449451 1_555
Fe1 Fe8 2.449451 1_545
Fe1 Fe12 2.466883 1_545
Fe1 Fe9 2.466883 1_554
Fe1 Fe14 2.466883 1_554
Fe1 Fe11 2.466883 1_545
Fe1 Fe15 2.641851 1_544
Fe1 Fe16 2.641851 1_555
Fe2 Fe4 2.449451 1_555
Fe2 Fe6 2.449451 1_554
Fe2 Fe8 2.449451 1_555
Fe2 Fe3 2.449451 1_455
Fe2 Fe9 2.466883 1_554
Fe10 Fe2 2.466883 1_655
Fe10 Fe16 2.656020 1_655
Fe11 Fe16 2.656020 1_565
Fe12 Fe2 2.466883 1_655
Fe12 Fe15 2.656020 1_554
Fe13 Fe2 2.466883 1_556
Fe13 Fe15 2.656020 1_455
Fe14 Fe15 2.656020 1_545
Fe15 Fe16 2.407026 1_666
Fe15 Fe2 2.641851 1_656
Fe15 Fe7 2.720604 1_566
Fe15 Fe4 2.720604 1_656
Fe15 Fe3 2.720604 1_566
Fe15 Fe8 2.720604 1_656
Fe15 Fe5 2.720604 1_665
Fe15 Fe6 2.720604 1_665
Fe16 Fe2 2.641851 1_555
Fe16 Fe9 2.656020 1_554
Fe16 Fe6 2.720604 1_554
Fe16 Fe5 2.720604 1_554
Fe16 Fe3 2.720604 1_455
Fe16 Fe8 2.720604 1_545
Fe16 Fe4 2.720604 1_545
Fe16 Fe7 2.720604 1_455
C0 Fe8 1.870228 1_555
C0 Fe3 1.870228 1_555
C0 Fe9 1.907636 1_554
C0 Fe12 1.907636 1_555
C0 Dy1 2.490683 1_555
C0 Dy0 2.490683 1_554
C1 Fe6 1.870228 1_555
C1 Fe4 1.870228 1_555
C1 Fe10 1.907636 1_455
C1 Fe13 1.907636 1_555
C1 Dy1 2.490683 1_555
C1 Dy0 2.490683 1_455
C2 Fe5 1.870228 1_555
C2 Fe7 1.870228 1_555
C2 Fe11 1.907636 1_545
C2 Fe14 1.907636 1_555
C2 Dy1 2.490683 1_555
C2 Dy0 2.490683 1_545
