# generated using pymatgen
data_KDyO2
_symmetry_space_group_name_H-M   'P 1'
_cell_length_a   6.51500727
_cell_length_b   6.51500727
_cell_length_c   6.51500778
_cell_angle_alpha   30.72114927
_cell_angle_beta   30.72114927
_cell_angle_gamma   30.72115450
_symmetry_Int_Tables_number   1
_chemical_formula_structural   KDyO2
_chemical_formula_sum   'K1 Dy1 O2'
_cell_volume   63.99490387
_cell_formula_units_Z   1
loop_
 _symmetry_equiv_pos_site_id
 _symmetry_equiv_pos_as_xyz
  1  'x, y, z'
loop_
 _atom_site_type_symbol
 _atom_site_label
 _atom_site_symmetry_multiplicity
 _atom_site_fract_x
 _atom_site_fract_y
 _atom_site_fract_z
 _atom_site_occupancy
  K  K0  1  0.00000000  0.00000000  -0.00000000  1
  Dy  Dy0  1  0.50000000  0.50000000  0.50000000  1
  O  O0  1  0.22866973  0.22866973  0.22866973  1
  O  O1  1  0.77133027  0.77133027  0.77133027  1
loop_
_geom_bond_atom_site_label_1
_geom_bond_atom_site_label_2
_geom_bond_distance
_geom_bond_site_symmetry_2
K0 O1 2.786443 1_454
K0 O0 2.786443 1_545
K0 O1 2.786443 1_544
K0 O0 2.786443 1_455
K0 O0 2.786443 1_554
K0 O1 2.786443 1_445
Dy0 O1 2.302665 1_455
Dy0 O0 2.302665 1_655
Dy0 O0 2.302665 1_565
Dy0 O1 2.302665 1_545
Dy0 O1 2.302665 1_554
Dy0 O0 2.302665 1_556
