# generated using pymatgen
data_LiPr2(BrO2)2
_symmetry_space_group_name_H-M   'P 1'
_cell_length_a   4.35705284
_cell_length_b   6.32230794
_cell_length_c   7.62268326
_cell_angle_alpha   112.89213162
_cell_angle_beta   93.70288806
_cell_angle_gamma   103.30036904
_symmetry_Int_Tables_number   1
_chemical_formula_structural   LiPr2(BrO2)2
_chemical_formula_sum   'Li1 Pr2 Br2 O4'
_cell_volume   185.45162895
_cell_formula_units_Z   1
loop_
 _symmetry_equiv_pos_site_id
 _symmetry_equiv_pos_as_xyz
  1  'x, y, z'
loop_
 _atom_site_type_symbol
 _atom_site_label
 _atom_site_symmetry_multiplicity
 _atom_site_fract_x
 _atom_site_fract_y
 _atom_site_fract_z
 _atom_site_occupancy
  Li  Li0  1  0.89958500  0.43832500  0.74433600  1
  Pr  Pr0  1  0.71168600  0.15845500  0.31201400  1
  Pr  Pr1  1  0.17201500  0.95034900  0.64583000  1
  Br  Br0  1  0.56118900  0.74846400  0.88779400  1
  Br  Br1  1  0.24085900  0.31785300  0.06984800  1
  O  O0  1  0.93690300  0.54345400  0.52907100  1
  O  O1  1  0.26322700  0.23065700  0.47614000  1
  O  O2  1  0.71327000  0.08172000  0.60573400  1
  O  O3  1  0.15404300  0.98072300  0.33108600  1
loop_
_geom_bond_atom_site_label_1
_geom_bond_atom_site_label_2
_geom_bond_distance
_geom_bond_site_symmetry_2
Li0 O0 1.998498 1_555
Li0 O2 2.013015 1_555
Br0 Li0 2.661707 1_555
Br0 Li0 2.945191 1_455
Br0 Pr0 3.166793 1_566
Br0 Pr1 3.213975 1_555
Br1 Pr1 3.105934 1_544
Br1 Li0 3.234615 1_454
Br1 Pr0 3.246664 1_555
Br1 Pr0 3.266042 1_455
O0 Pr0 2.276684 1_555
O0 Pr1 2.312528 1_655
O1 O3 1.473999 1_545
O1 Pr0 2.423505 1_555
O1 Pr0 2.492201 1_455
O1 Pr1 2.549017 1_545
O2 Pr1 2.379243 1_645
O2 Pr1 2.394598 1_545
O2 Pr0 2.468368 1_555
O3 Pr0 2.466969 1_465
O3 Pr0 2.470559 1_565
O3 Pr1 2.477950 1_555
