# generated using pymatgen
data_Li4Fe5NiO12
_symmetry_space_group_name_H-M   'P 1'
_cell_length_a   5.11791100
_cell_length_b   5.11791100
_cell_length_c   10.32717334
_cell_angle_alpha   89.99249675
_cell_angle_beta   89.99249675
_cell_angle_gamma   118.72904127
_symmetry_Int_Tables_number   1
_chemical_formula_structural   Li4Fe5NiO12
_chemical_formula_sum   'Li4 Fe5 Ni1 O12'
_cell_volume   237.20196854
_cell_formula_units_Z   1
loop_
 _symmetry_equiv_pos_site_id
 _symmetry_equiv_pos_as_xyz
  1  'x, y, z'
loop_
 _atom_site_type_symbol
 _atom_site_label
 _atom_site_symmetry_multiplicity
 _atom_site_fract_x
 _atom_site_fract_y
 _atom_site_fract_z
 _atom_site_occupancy
  Li  Li0  1  0.34788400  0.85179800  0.75124400  1
  Li  Li1  1  0.14820200  0.65211600  0.24875600  1
  Li  Li2  1  0.85179800  0.34788400  0.75124400  1
  Li  Li3  1  0.65211600  0.14820200  0.24875600  1
  Fe  Fe0  1  0.16588400  0.83411600  0.50000000  1
  Fe  Fe1  1  0.66615300  0.33384700  0.00000000  1
  Fe  Fe2  1  0.33384700  0.66615300  0.00000000  1
  Fe  Fe3  1  0.83411600  0.16588400  0.50000000  1
  Fe  Fe4  1  0.50000000  0.50000000  0.50000000  1
  Ni  Ni0  1  0.00000000  0.00000000  0.00000000  1
  O  O0  1  0.33585700  0.96915700  0.10818300  1
  O  O1  1  0.03084300  0.66414300  0.89181700  1
  O  O2  1  0.47872600  0.83053500  0.39154300  1
  O  O3  1  0.83053500  0.47872600  0.39154300  1
  O  O4  1  0.16946500  0.52127400  0.60845700  1
  O  O5  1  0.83949000  0.83949000  0.59625800  1
  O  O6  1  0.52127400  0.16946500  0.60845700  1
  O  O7  1  0.96915700  0.33585700  0.10818300  1
  O  O8  1  0.64812400  0.64812400  0.09449900  1
  O  O9  1  0.66414300  0.03084300  0.89181700  1
  O  O10  1  0.35187600  0.35187600  0.90550100  1
  O  O11  1  0.16051000  0.16051000  0.40374200  1
loop_
_geom_bond_atom_site_label_1
_geom_bond_atom_site_label_2
_geom_bond_distance
_geom_bond_site_symmetry_2
Li0 O9 2.035222 1_565
Li0 O1 2.040488 1_555
Li0 O6 2.053573 1_565
Li0 O4 2.094225 1_555
Li1 O7 2.035222 1_455
Li1 O0 2.040488 1_555
Li1 O3 2.053573 1_455
Li1 O2 2.094225 1_555
Li2 O1 2.035222 1_655
Li2 O9 2.040488 1_555
Li2 O4 2.053573 1_655
Li2 O6 2.094225 1_555
Li3 O0 2.035222 1_545
Li3 O7 2.040488 1_555
Li3 O2 2.053573 1_545
Li3 O3 2.094225 1_555
Fe0 O11 1.955275 1_565
Fe0 O5 1.955275 1_455
Fe0 O4 1.961152 1_555
Fe0 O2 1.961152 1_555
Fe0 O6 2.123311 1_565
Fe0 O3 2.123311 1_455
Fe1 O7 1.907416 1_555
Fe1 O9 1.907416 1_554
Fe1 O10 1.921212 1_554
Fe1 O8 1.921212 1_555
Fe1 O1 2.134296 1_654
Fe1 O0 2.134296 1_545
Fe2 O0 1.907416 1_555
Fe2 O1 1.907416 1_554
Fe2 O10 1.921212 1_554
Fe2 O8 1.921212 1_555
Fe2 O9 2.134296 1_564
Fe2 O7 2.134296 1_455
Fe3 O11 1.955275 1_655
Fe3 O5 1.955275 1_545
Fe3 O3 1.961152 1_555
Fe3 O6 1.961152 1_555
Fe3 O4 2.123311 1_655
Fe3 O2 2.123311 1_545
Fe4 O5 2.030921 1_555
Fe4 O11 2.030921 1_555
Fe4 O2 2.074765 1_555
Fe4 O6 2.074765 1_555
Fe4 O3 2.074765 1_555
Fe4 O4 2.074765 1_555
Ni0 O8 2.078461 1_445
Ni0 O10 2.078461 1_554
Ni0 O0 2.118720 1_545
Ni0 O1 2.118720 1_544
Ni0 O7 2.118720 1_455
Ni0 O9 2.118720 1_454
