# generated using pymatgen
data_Zr2MnFe3
_symmetry_space_group_name_H-M   'P 1'
_cell_length_a   5.08256315
_cell_length_b   5.08256404
_cell_length_c   5.08257088
_cell_angle_alpha   58.94181599
_cell_angle_beta   58.94173045
_cell_angle_gamma   58.94178474
_symmetry_Int_Tables_number   1
_chemical_formula_structural   Zr2MnFe3
_chemical_formula_sum   'Zr2 Mn1 Fe3'
_cell_volume   90.59799829
_cell_formula_units_Z   1
loop_
 _symmetry_equiv_pos_site_id
 _symmetry_equiv_pos_as_xyz
  1  'x, y, z'
loop_
 _atom_site_type_symbol
 _atom_site_label
 _atom_site_symmetry_multiplicity
 _atom_site_fract_x
 _atom_site_fract_y
 _atom_site_fract_z
 _atom_site_occupancy
  Zr  Zr0  1  0.12455788  0.12455988  0.12455266  1
  Zr  Zr1  1  0.87544212  0.87544012  0.87544734  1
  Mn  Mn0  1  0.50000000  0.50000000  0.50000000  1
  Fe  Fe0  1  0.50000000  -0.00000000  0.50000000  1
  Fe  Fe1  1  0.00000000  0.50000000  0.50000000  1
  Fe  Fe2  1  0.50000000  0.50000000  0.00000000  1
loop_
_geom_bond_atom_site_label_1
_geom_bond_atom_site_label_2
_geom_bond_distance
_geom_bond_site_symmetry_2
Zr0 Zr1 3.074664 1_454
Zr0 Zr1 3.074677 1_544
Zr0 Zr1 3.074725 1_445
Zr0 Zr1 3.125961 1_444
Mn0 Zr0 2.935296 1_556
Mn0 Zr1 2.935296 1_554
Mn0 Zr0 2.935316 1_655
Mn0 Zr1 2.935316 1_455
Mn0 Zr1 2.935329 1_545
Mn0 Zr0 2.935329 1_565
Fe0 Fe1 2.500526 1_555
Fe0 Fe1 2.500526 1_645
Fe0 Fe2 2.500530 1_546
Fe0 Fe2 2.500530 1_555
Fe0 Mn0 2.541282 1_555
Fe0 Mn0 2.541282 1_545
Fe0 Zr1 2.948810 1_544
Fe0 Zr0 2.948810 1_556
Fe0 Zr0 2.948829 1_655
Fe0 Zr1 2.948829 1_445
Fe0 Zr0 2.991254 1_555
Fe0 Zr1 2.991254 1_545
Fe1 Fe2 2.500526 1_456
Fe1 Fe2 2.500526 1_555
Fe1 Mn0 2.541282 1_455
Fe1 Mn0 2.541282 1_555
Fe1 Zr0 2.948810 1_556
Fe1 Zr1 2.948810 1_454
Fe1 Zr1 2.948836 1_445
Fe1 Zr0 2.948836 1_565
Fe1 Zr0 2.991248 1_555
Fe1 Zr1 2.991248 1_455
Fe2 Mn0 2.541285 1_555
Fe2 Mn0 2.541285 1_554
Fe2 Zr1 2.948816 1_454
Fe2 Zr0 2.948816 1_655
Fe2 Zr1 2.948824 1_544
Fe2 Zr0 2.948824 1_565
Fe2 Zr0 2.991235 1_555
Fe2 Zr1 2.991235 1_554
