# generated using pymatgen
data_Hg2ClO6
_symmetry_space_group_name_H-M   'P 1'
_cell_length_a   14.65231900
_cell_length_b   7.38818800
_cell_length_c   11.30690202
_cell_angle_alpha   78.90668728
_cell_angle_beta   90.00000000
_cell_angle_gamma   90.00000000
_symmetry_Int_Tables_number   1
_chemical_formula_structural   Hg2ClO6
_chemical_formula_sum   'Hg16 Cl8 O48'
_cell_volume   1201.14773288
_cell_formula_units_Z   8
loop_
 _symmetry_equiv_pos_site_id
 _symmetry_equiv_pos_as_xyz
  1  'x, y, z'
loop_
 _atom_site_type_symbol
 _atom_site_label
 _atom_site_symmetry_multiplicity
 _atom_site_fract_x
 _atom_site_fract_y
 _atom_site_fract_z
 _atom_site_occupancy
  Hg  Hg0  1  0.74854500  0.52575700  0.32052200  1
  Hg  Hg1  1  0.24854500  0.97424300  0.67947800  1
  Hg  Hg2  1  0.25145500  0.47424300  0.67947800  1
  Hg  Hg3  1  0.75145500  0.02575700  0.32052200  1
  Hg  Hg4  1  0.54882100  0.30071500  0.26719000  1
  Hg  Hg5  1  0.04882100  0.19928500  0.73281000  1
  Hg  Hg6  1  0.45117900  0.69928500  0.73281000  1
  Hg  Hg7  1  0.95117900  0.80071500  0.26719000  1
  Hg  Hg8  1  0.68335200  0.59250100  0.67297200  1
  Hg  Hg9  1  0.18335200  0.90749900  0.32702800  1
  Hg  Hg10  1  0.31664800  0.40749900  0.32702800  1
  Hg  Hg11  1  0.81664800  0.09250100  0.67297200  1
  Hg  Hg12  1  0.61053300  0.66378900  0.96661400  1
  Hg  Hg13  1  0.11053300  0.83621100  0.03338600  1
  Hg  Hg14  1  0.38946700  0.33621100  0.03338600  1
  Hg  Hg15  1  0.88946700  0.16378900  0.96661400  1
  Cl  Cl0  1  0.64092300  0.14979800  0.96011700  1
  Cl  Cl1  1  0.14092300  0.35020200  0.03988300  1
  Cl  Cl2  1  0.35907700  0.85020200  0.03988300  1
  Cl  Cl3  1  0.85907700  0.64979800  0.96011700  1
  Cl  Cl4  1  0.97728900  0.25865600  0.40337200  1
  Cl  Cl5  1  0.47728900  0.24134400  0.59662800  1
  Cl  Cl6  1  0.02271100  0.74134400  0.59662800  1
  Cl  Cl7  1  0.52271100  0.75865600  0.40337200  1
  O  O0  1  0.59029800  0.28283900  0.01832400  1
  O  O1  1  0.09029800  0.21716100  0.98167600  1
  O  O2  1  0.40970200  0.71716100  0.98167600  1
  O  O3  1  0.90970200  0.78283900  0.01832400  1
  O  O4  1  0.70841300  0.25443500  0.87671100  1
  O  O5  1  0.20841300  0.24556500  0.12328900  1
  O  O6  1  0.29158700  0.74556500  0.12328900  1
  O  O7  1  0.79158700  0.75443500  0.87671100  1
  O  O8  1  0.57784400  0.05569300  0.89435200  1
  O  O9  1  0.07784400  0.44430700  0.10564800  1
  O  O10  1  0.42215600  0.94430700  0.10564800  1
  O  O11  1  0.92215600  0.55569300  0.89435200  1
  O  O12  1  0.68865000  0.01827900  0.05234200  1
  O  O13  1  0.18865000  0.48172100  0.94765800  1
  O  O14  1  0.31135000  0.98172100  0.94765800  1
  O  O15  1  0.81135000  0.51827900  0.05234200  1
  O  O16  1  0.93462800  0.39743300  0.30869500  1
  O  O17  1  0.43462800  0.10256700  0.69130500  1
  O  O18  1  0.06537200  0.60256700  0.69130500  1
  O  O19  1  0.56537200  0.89743300  0.30869500  1
  O  O20  1  0.95440000  0.30357100  0.52117300  1
  O  O21  1  0.45440000  0.19642900  0.47882700  1
  O  O22  1  0.04560000  0.69642900  0.47882700  1
  O  O23  1  0.54560000  0.80357100  0.52117300  1
  O  O24  1  0.57514900  0.24455800  0.61298800  1
  O  O25  1  0.07514900  0.25544200  0.38701200  1
  O  O26  1  0.42485100  0.75544200  0.38701200  1
  O  O27  1  0.92485100  0.74455800  0.61298800  1
  O  O28  1  0.93812000  0.07701400  0.39843400  1
  O  O29  1  0.43812000  0.42298600  0.60156600  1
  O  O30  1  0.06188000  0.92298600  0.60156600  1
  O  O31  1  0.56188000  0.57701400  0.39843400  1
  O  O32  1  0.91030000  0.19454800  0.78205700  1
  O  O33  1  0.41030000  0.30545200  0.21794300  1
  O  O34  1  0.08970000  0.80545200  0.21794300  1
  O  O35  1  0.58970000  0.69454800  0.78205700  1
  O  O36  1  0.68287100  0.27005200  0.33250100  1
  O  O37  1  0.18287100  0.22994800  0.66749900  1
  O  O38  1  0.31712900  0.72994800  0.66749900  1
  O  O39  1  0.81712900  0.77005200  0.33250100  1
  O  O40  1  0.76716700  0.46299300  0.57468700  1
  O  O41  1  0.26716700  0.03700700  0.42531300  1
  O  O42  1  0.23283300  0.53700700  0.42531300  1
  O  O43  1  0.73283300  0.96299300  0.57468700  1
  O  O44  1  0.88178100  0.11195500  0.14829200  1
  O  O45  1  0.38178100  0.38804500  0.85170800  1
  O  O46  1  0.11821900  0.88804500  0.85170800  1
  O  O47  1  0.61821900  0.61195500  0.14829200  1
loop_
_geom_bond_atom_site_label_1
_geom_bond_atom_site_label_2
_geom_bond_distance
_geom_bond_site_symmetry_2
Hg0 O39 2.092828 1_555
Hg0 O36 2.101171 1_555
Hg1 O38 2.092828 1_555
Hg1 O37 2.101171 1_565
Hg2 O37 2.092828 1_555
Hg2 O38 2.101171 1_555
Hg3 O36 2.092828 1_555
Hg3 O39 2.101171 1_545
Hg4 O36 2.095265 1_555
Hg4 O33 2.103160 1_555
Hg5 O37 2.095265 1_555
Hg5 O32 2.103160 1_455
Hg6 O38 2.095265 1_555
Hg6 O35 2.103160 1_555
Hg7 O39 2.095265 1_555
Hg7 O34 2.103160 1_655
Hg8 O40 2.016899 1_555
Hg8 O35 2.081002 1_555
Hg9 O41 2.016899 1_565
Hg9 O34 2.081002 1_555
Hg10 O42 2.016899 1_555
Hg10 O33 2.081002 1_555
Hg11 O43 2.016899 1_545
Hg11 O32 2.081002 1_555
Hg12 O47 2.019013 1_556
Hg12 O35 2.077723 1_555
Hg13 O46 2.019013 1_554
Hg13 O34 2.077723 1_555
Hg14 O45 2.019013 1_554
Hg14 O33 2.077723 1_555
Hg15 O44 2.019013 1_556
Hg15 O32 2.077723 1_555
Cl0 O8 1.445519 1_555
Cl0 O12 1.459686 1_556
Cl0 O4 1.477957 1_555
Cl0 O0 1.482725 1_556
Cl1 O9 1.445519 1_555
Cl1 O13 1.459686 1_554
Cl1 O5 1.477957 1_555
Cl1 O1 1.482725 1_554
Cl2 O10 1.445519 1_555
Cl2 O14 1.459686 1_554
Cl2 O6 1.477957 1_555
Cl2 O2 1.482725 1_554
Cl3 O11 1.445519 1_555
Cl3 O15 1.459686 1_556
Cl3 O7 1.477957 1_555
Cl3 O3 1.482725 1_556
Cl4 O25 1.446538 1_655
Cl4 O28 1.470479 1_555
Cl4 O16 1.471596 1_555
Cl4 O20 1.472010 1_555
Cl5 O24 1.446538 1_555
Cl5 O29 1.470479 1_555
Cl5 O17 1.471596 1_555
Cl5 O21 1.472010 1_555
Cl6 O27 1.446538 1_455
Cl6 O30 1.470479 1_555
Cl6 O18 1.471596 1_555
Cl6 O22 1.472010 1_555
Cl7 O26 1.446538 1_555
Cl7 O31 1.470479 1_555
Cl7 O19 1.471596 1_555
Cl7 O23 1.472010 1_555
