# generated using pymatgen
data_Ce4ZrO10
_symmetry_space_group_name_H-M   'P 1'
_cell_length_a   15.68822488
_cell_length_b   15.68822488
_cell_length_c   15.68822429
_cell_angle_alpha   14.04142848
_cell_angle_beta   14.04142848
_cell_angle_gamma   14.04142808
_symmetry_Int_Tables_number   1
_chemical_formula_structural   Ce4ZrO10
_chemical_formula_sum   'Ce4 Zr1 O10'
_cell_volume   197.82696877
_cell_formula_units_Z   1
loop_
 _symmetry_equiv_pos_site_id
 _symmetry_equiv_pos_as_xyz
  1  'x, y, z'
loop_
 _atom_site_type_symbol
 _atom_site_label
 _atom_site_symmetry_multiplicity
 _atom_site_fract_x
 _atom_site_fract_y
 _atom_site_fract_z
 _atom_site_occupancy
  Ce  Ce0  1  0.60277500  0.60277500  0.60277500  1
  Ce  Ce1  1  0.20081100  0.20081100  0.20081100  1
  Ce  Ce2  1  0.79918900  0.79918900  0.79918900  1
  Ce  Ce3  1  0.39722500  0.39722500  0.39722500  1
  Zr  Zr0  1  0.00000000  0.00000000  0.00000000  1
  O  O0  1  0.04647700  0.04647700  0.04647700  1
  O  O1  1  0.44880200  0.44880200  0.44880200  1
  O  O2  1  0.85023400  0.85023400  0.85023400  1
  O  O3  1  0.65286800  0.65286800  0.65286800  1
  O  O4  1  0.25240900  0.25240900  0.25240900  1
  O  O5  1  0.34713200  0.34713200  0.34713200  1
  O  O6  1  0.74759100  0.74759100  0.74759100  1
  O  O7  1  0.14976600  0.14976600  0.14976600  1
  O  O8  1  0.95352300  0.95352300  0.95352300  1
  O  O9  1  0.55119800  0.55119800  0.55119800  1
loop_
_geom_bond_atom_site_label_1
_geom_bond_atom_site_label_2
_geom_bond_distance
_geom_bond_site_symmetry_2
Ce0 O3 2.334011 1_555
Ce0 O4 2.352116 1_565
Ce0 O4 2.352116 1_655
Ce0 O4 2.352116 1_556
Ce0 O8 2.358181 1_545
Ce0 O8 2.358181 1_455
Ce0 O8 2.358181 1_554
Ce0 O9 2.403156 1_555
Ce1 O9 2.352446 1_545
Ce1 O9 2.352446 1_455
Ce1 O9 2.352446 1_554
Ce1 O2 2.355451 1_544
Ce1 O2 2.355451 1_454
Ce1 O2 2.355451 1_445
Ce1 O7 2.378368 1_555
Ce1 O4 2.404135 1_555
Ce2 O1 2.352446 1_565
Ce2 O1 2.352446 1_655
Ce2 O1 2.352446 1_556
Ce2 O7 2.355451 1_656
Ce2 O7 2.355451 1_566
Ce2 O7 2.355451 1_665
Ce2 O2 2.378368 1_555
Ce2 O6 2.404135 1_555
Ce3 O5 2.334011 1_555
Ce3 O6 2.352116 1_455
Ce3 O6 2.352116 1_545
Ce3 O6 2.352116 1_554
Ce3 O0 2.358181 1_565
Ce3 O0 2.358181 1_655
Ce3 O0 2.358181 1_556
Ce3 O1 2.403156 1_555
O0 Zr0 2.165529 1_555
O3 Zr0 2.305642 1_566
O3 Zr0 2.305642 1_656
O3 Zr0 2.305642 1_665
O5 Zr0 2.305642 1_655
O5 Zr0 2.305642 1_565
O5 Zr0 2.305642 1_556
O8 Zr0 2.165529 1_666
