# generated using pymatgen
data_CaEuHf4O12
_symmetry_space_group_name_H-M   'P 1'
_cell_length_a   5.61420057
_cell_length_b   5.61420057
_cell_length_c   8.02334347
_cell_angle_alpha   90.00000000
_cell_angle_beta   90.00000000
_cell_angle_gamma   91.41762548
_symmetry_Int_Tables_number   1
_chemical_formula_structural   CaEuHf4O12
_chemical_formula_sum   'Ca1 Eu1 Hf4 O12'
_cell_volume   252.81235052
_cell_formula_units_Z   1
loop_
 _symmetry_equiv_pos_site_id
 _symmetry_equiv_pos_as_xyz
  1  'x, y, z'
loop_
 _atom_site_type_symbol
 _atom_site_label
 _atom_site_symmetry_multiplicity
 _atom_site_fract_x
 _atom_site_fract_y
 _atom_site_fract_z
 _atom_site_occupancy
  Ca  Ca0  1  0.48223899  0.51776101  0.00000000  1
  Eu  Eu0  1  0.02852614  0.97147386  0.50000000  1
  Hf  Hf0  1  0.49929800  -0.00072031  0.25068188  1
  Hf  Hf1  1  0.49929800  -0.00072031  0.74931812  1
  Hf  Hf2  1  0.00072031  0.50070200  0.74931812  1
  Hf  Hf3  1  0.00072031  0.50070200  0.25068188  1
  O  O0  1  0.19747134  0.19767875  0.24929051  1
  O  O1  1  0.80232125  0.80252866  0.24929051  1
  O  O2  1  0.80232125  0.80252866  0.75070949  1
  O  O3  1  0.19747134  0.19767875  0.75070949  1
  O  O4  1  0.30439515  0.69560485  0.30383159  1
  O  O5  1  0.69617029  0.30382971  0.19613563  1
  O  O6  1  0.69617029  0.30382971  0.80386437  1
  O  O7  1  0.30439515  0.69560485  0.69616841  1
  O  O8  1  0.45032149  0.93927984  0.00000000  1
  O  O9  1  0.54932148  0.06138092  0.50000000  1
  O  O10  1  0.06072016  0.54967851  0.00000000  1
  O  O11  1  0.93861908  0.45067852  0.50000000  1
loop_
_geom_bond_atom_site_label_1
_geom_bond_atom_site_label_2
_geom_bond_distance
_geom_bond_site_symmetry_2
Ca0 O5 2.330848 1_555
Ca0 O6 2.330848 1_554
Ca0 O10 2.377682 1_555
Ca0 O8 2.377682 1_555
Eu0 O3 2.549330 1_565
Eu0 O0 2.549330 1_565
Eu0 O2 2.549330 1_455
Eu0 O1 2.549330 1_455
Eu0 O7 2.719080 1_555
Eu0 O4 2.719080 1_555
Eu0 O9 2.749538 1_465
Eu0 O11 2.749538 1_465
Eu0 O9 2.954768 1_565
Eu0 O11 2.954768 1_455
Hf0 O4 2.047810 1_545
Hf0 O9 2.048669 1_555
Hf0 O0 2.050747 1_555
Hf0 O1 2.051205 1_545
Hf0 O8 2.056659 1_545
Hf0 O5 2.059879 1_555
Hf1 O7 2.047810 1_545
Hf1 O9 2.048669 1_555
Hf1 O3 2.050747 1_555
Hf1 O2 2.051205 1_545
Hf1 O8 2.056659 1_546
Hf1 O6 2.059879 1_555
Hf2 O7 2.047810 1_555
Hf2 O11 2.048669 1_455
Hf2 O2 2.050747 1_455
Hf2 O3 2.051205 1_555
Hf2 O10 2.056659 1_556
Hf2 O6 2.059879 1_455
Hf3 O4 2.047810 1_555
Hf3 O11 2.048669 1_455
Hf3 O1 2.050747 1_455
Hf3 O0 2.051205 1_555
Hf3 O10 2.056659 1_555
Hf3 O5 2.059879 1_455
