# generated using pymatgen
data_MnNi3
_symmetry_space_group_name_H-M   'P 1'
_cell_length_a   3.54344920
_cell_length_b   3.54344611
_cell_length_c   3.54350610
_cell_angle_alpha   90.00000000
_cell_angle_beta   90.00000000
_cell_angle_gamma   90.00000000
_symmetry_Int_Tables_number   1
_chemical_formula_structural   MnNi3
_chemical_formula_sum   'Mn1 Ni3'
_cell_volume   44.49233801
_cell_formula_units_Z   1
loop_
 _symmetry_equiv_pos_site_id
 _symmetry_equiv_pos_as_xyz
  1  'x, y, z'
loop_
 _atom_site_type_symbol
 _atom_site_label
 _atom_site_symmetry_multiplicity
 _atom_site_fract_x
 _atom_site_fract_y
 _atom_site_fract_z
 _atom_site_occupancy
  Mn  Mn0  1  0.00000000  -0.00000000  -0.00000000  1
  Ni  Ni0  1  0.00000000  0.50000000  0.50000000  1
  Ni  Ni1  1  0.50000000  0.50000000  0.00000000  1
  Ni  Ni2  1  0.50000000  -0.00000000  0.50000000  1
loop_
_geom_bond_atom_site_label_1
_geom_bond_atom_site_label_2
_geom_bond_distance
_geom_bond_site_symmetry_2
Mn0 Ni1 2.505596 1_545
Mn0 Ni1 2.505596 1_455
Mn0 Ni1 2.505596 1_555
Mn0 Ni1 2.505596 1_445
Mn0 Ni0 2.505616 1_555
Mn0 Ni0 2.505616 1_545
Mn0 Ni0 2.505616 1_554
Mn0 Ni0 2.505616 1_544
Mn0 Ni2 2.505617 1_554
Mn0 Ni2 2.505617 1_555
Mn0 Ni2 2.505617 1_455
Mn0 Ni2 2.505617 1_454
Ni0 Ni2 2.505596 1_465
Ni0 Ni2 2.505596 1_455
Ni0 Ni2 2.505596 1_555
Ni0 Ni2 2.505596 1_565
Ni0 Ni1 2.505617 1_456
Ni0 Ni1 2.505617 1_556
Ni0 Ni1 2.505617 1_455
Ni0 Ni1 2.505617 1_555
Ni1 Ni2 2.505616 1_555
Ni1 Ni2 2.505616 1_565
Ni1 Ni2 2.505616 1_564
Ni1 Ni2 2.505616 1_554
