# generated using pymatgen
data_LiTb2RuO6
_symmetry_space_group_name_H-M   'P 1'
_cell_length_a   5.76151800
_cell_length_b   5.32699300
_cell_length_c   9.24108815
_cell_angle_alpha   55.57163548
_cell_angle_beta   90.00000000
_cell_angle_gamma   90.00000000
_symmetry_Int_Tables_number   1
_chemical_formula_structural   LiTb2RuO6
_chemical_formula_sum   'Li2 Tb4 Ru2 O12'
_cell_volume   233.94219613
_cell_formula_units_Z   2
loop_
 _symmetry_equiv_pos_site_id
 _symmetry_equiv_pos_as_xyz
  1  'x, y, z'
loop_
 _atom_site_type_symbol
 _atom_site_label
 _atom_site_symmetry_multiplicity
 _atom_site_fract_x
 _atom_site_fract_y
 _atom_site_fract_z
 _atom_site_occupancy
  Li  Li0  1  0.50000000  0.50000000  0.00000000  1
  Li  Li1  1  0.00000000  0.50000000  0.50000000  1
  Tb  Tb0  1  0.07958800  0.72866500  0.75168400  1
  Tb  Tb1  1  0.92041200  0.27133500  0.24831600  1
  Tb  Tb2  1  0.57958800  0.27133500  0.74831600  1
  Tb  Tb3  1  0.42041200  0.72866500  0.25168400  1
  Ru  Ru0  1  0.50000000  0.00000000  0.50000000  1
  Ru  Ru1  1  0.00000000  0.00000000  0.00000000  1
  O  O0  1  0.45765300  0.87214900  0.74515300  1
  O  O1  1  0.54234700  0.12785100  0.25484700  1
  O  O2  1  0.95765300  0.12785100  0.75484700  1
  O  O3  1  0.04234700  0.87214900  0.24515300  1
  O  O4  1  0.79508800  0.76545500  0.56214500  1
  O  O5  1  0.20491200  0.23454500  0.43785500  1
  O  O6  1  0.29508800  0.23454500  0.93785500  1
  O  O7  1  0.70491200  0.76545500  0.06214500  1
  O  O8  1  0.32083900  0.63919000  0.55567000  1
  O  O9  1  0.67916100  0.36081000  0.44433000  1
  O  O10  1  0.82083900  0.36081000  0.94433000  1
  O  O11  1  0.17916100  0.63919000  0.05567000  1
loop_
_geom_bond_atom_site_label_1
_geom_bond_atom_site_label_2
_geom_bond_distance
_geom_bond_site_symmetry_2
Li0 O1 2.063176 1_555
Li0 O0 2.063176 1_554
Li0 O6 2.154417 1_554
Li0 O7 2.154417 1_555
Li0 O10 2.159346 1_554
Li0 O11 2.159346 1_555
Li1 O3 2.063176 1_555
Li1 O2 2.063176 1_455
Li1 O5 2.154417 1_555
Li1 O4 2.154417 1_455
Li1 O9 2.159346 1_455
Li1 O8 2.159346 1_555
O0 Ru0 1.977651 1_565
O0 Tb2 2.255332 1_565
O0 Tb0 2.297906 1_555
O1 Ru0 1.977651 1_555
O1 Tb3 2.255332 1_545
O1 Tb1 2.297906 1_555
O2 Ru1 1.977651 1_656
O2 Tb0 2.255332 1_645
O2 Tb2 2.297906 1_555
O3 Ru1 1.977651 1_565
O3 Tb1 2.255332 1_465
O3 Tb3 2.297906 1_555
O4 Ru0 1.992496 1_565
O4 Tb0 2.324864 1_655
O4 Tb2 2.511818 1_555
O4 Tb1 2.712372 1_565
O5 Ru0 1.992496 1_555
O5 Tb1 2.324864 1_455
O5 Tb3 2.511818 1_555
O5 Tb0 2.712372 1_545
O6 Ru1 1.992496 1_556
O6 Tb2 2.324864 1_555
O6 Tb0 2.511818 1_555
O6 Tb3 2.712372 1_546
O7 Ru1 1.992496 1_665
O7 Tb3 2.324864 1_555
O7 Tb1 2.511818 1_555
O7 Tb2 2.712372 1_564
O8 Ru0 1.976438 1_565
O8 Tb2 2.299346 1_555
O8 Tb0 2.533093 1_555
O8 Tb3 2.633189 1_555
O9 Ru0 1.976438 1_555
O9 Tb3 2.299346 1_555
O9 Tb1 2.533093 1_555
O9 Tb2 2.633189 1_555
O10 Ru1 1.976438 1_656
O10 Tb0 2.299346 1_655
O10 Tb2 2.533093 1_555
O10 Tb1 2.633189 1_556
O11 Ru1 1.976438 1_565
O11 Tb1 2.299346 1_455
O11 Tb3 2.533093 1_555
O11 Tb0 2.633189 1_554
