# generated using pymatgen
data_VCo(PO4)2
_symmetry_space_group_name_H-M   'P 1'
_cell_length_a   8.53781501
_cell_length_b   8.53781501
_cell_length_c   8.53781484
_cell_angle_alpha   60.65851119
_cell_angle_beta   60.65851119
_cell_angle_gamma   60.65851277
_symmetry_Int_Tables_number   1
_chemical_formula_structural   VCo(PO4)2
_chemical_formula_sum   'V3 Co3 P6 O24'
_cell_volume   446.61598496
_cell_formula_units_Z   3
loop_
 _symmetry_equiv_pos_site_id
 _symmetry_equiv_pos_as_xyz
  1  'x, y, z'
loop_
 _atom_site_type_symbol
 _atom_site_label
 _atom_site_symmetry_multiplicity
 _atom_site_fract_x
 _atom_site_fract_y
 _atom_site_fract_z
 _atom_site_occupancy
  V  V0  1  0.64410300  0.64410300  0.64410300  1
  V  V1  1  0.85742300  0.85742300  0.85742300  1
  V  V2  1  0.35598800  0.35598800  0.35598800  1
  Co  Co0  1  0.00307500  0.00307500  0.00307500  1
  Co  Co1  1  0.14395100  0.14395100  0.14395100  1
  Co  Co2  1  0.50032000  0.50032000  0.50032000  1
  P  P0  1  0.95791700  0.24834200  0.54259400  1
  P  P1  1  0.54259400  0.95791700  0.24834200  1
  P  P2  1  0.24834200  0.54259400  0.95791700  1
  P  P3  1  0.75041800  0.45727700  0.04095100  1
  P  P4  1  0.45727700  0.04095100  0.75041800  1
  P  P5  1  0.04095100  0.75041800  0.45727700  1
  O  O0  1  0.50507700  0.12017500  0.30853900  1
  O  O1  1  0.30853900  0.50507700  0.12017500  1
  O  O2  1  0.12017500  0.30853900  0.50507700  1
  O  O3  1  0.94142400  0.08669200  0.74027300  1
  O  O4  1  0.98768200  0.19105200  0.38601600  1
  O  O5  1  0.76298600  0.41413100  0.56431500  1
  O  O6  1  0.74027300  0.94142400  0.08669200  1
  O  O7  1  0.56431500  0.76298600  0.41413100  1
  O  O8  1  0.81042000  0.61842400  0.00350800  1
  O  O9  1  0.41413100  0.56431500  0.76298600  1
  O  O10  1  0.90970900  0.26336900  0.05269700  1
  O  O11  1  0.61842400  0.00350800  0.81042000  1
  O  O12  1  0.38601600  0.98768200  0.19105200  1
  O  O13  1  0.08669200  0.74027300  0.94142400  1
  O  O14  1  0.58440200  0.44468100  0.23535000  1
  O  O15  1  0.19105200  0.38601600  0.98768200  1
  O  O16  1  0.44468100  0.23535000  0.58440200  1
  O  O17  1  0.26336900  0.05269700  0.90970900  1
  O  O18  1  0.23535000  0.58440200  0.44468100  1
  O  O19  1  0.00350800  0.81042000  0.61842400  1
  O  O20  1  0.05269700  0.90970900  0.26336900  1
  O  O21  1  0.88206200  0.68229800  0.50235800  1
  O  O22  1  0.68229800  0.50235800  0.88206200  1
  O  O23  1  0.50235800  0.88206200  0.68229800  1
loop_
_geom_bond_atom_site_label_1
_geom_bond_atom_site_label_2
_geom_bond_distance
_geom_bond_site_symmetry_2
Co0 O20 2.146936 1_545
Co0 O17 2.146936 1_554
Co0 O10 2.146936 1_455
Co0 O3 2.245105 1_454
Co0 O6 2.245105 1_445
Co0 O13 2.245105 1_544
Co1 O4 1.949215 1_455
Co1 O15 1.949215 1_554
Co1 O12 1.949215 1_545
Co1 O17 2.096761 1_554
Co1 O20 2.096761 1_545
Co1 O10 2.096761 1_455
Co2 O14 2.232990 1_555
Co2 O16 2.232990 1_555
Co2 O18 2.232990 1_555
Co2 O9 2.249170 1_555
Co2 O7 2.249170 1_555
Co2 O5 2.249170 1_555
O0 P1 1.545134 1_545
O0 V2 1.902698 1_555
O1 P2 1.545134 1_554
O1 V2 1.902698 1_555
O2 P0 1.545134 1_455
O2 V2 1.902698 1_555
O3 P0 1.564560 1_555
O3 V1 2.024959 1_545
O4 P0 1.508981 1_555
O5 P0 1.566487 1_555
O5 V0 2.007372 1_555
O6 P1 1.564560 1_555
O6 V1 2.024959 1_554
O7 P1 1.566487 1_555
O7 V0 2.007371 1_555
O8 P3 1.535181 1_555
O8 V1 1.923071 1_554
O9 P2 1.566487 1_555
O9 V0 2.007371 1_555
O10 P3 1.537815 1_555
O11 P4 1.535181 1_555
O11 V1 1.923071 1_545
O12 P1 1.508981 1_555
O13 P2 1.564560 1_555
O13 V1 2.024959 1_455
O14 P3 1.563418 1_555
O14 V2 2.037587 1_555
O15 P2 1.508981 1_555
O16 P4 1.563418 1_555
O16 V2 2.037587 1_555
O17 P4 1.537815 1_555
O18 P5 1.563418 1_555
O18 V2 2.037587 1_555
O19 P5 1.535181 1_555
O19 V1 1.923071 1_455
O20 P5 1.537815 1_555
O21 P5 1.539089 1_655
O21 V0 1.884531 1_555
O22 P3 1.539089 1_556
O22 V0 1.884531 1_555
O23 P4 1.539089 1_565
O23 V0 1.884531 1_555
