# generated using pymatgen
data_SrLaMnFeO6
_symmetry_space_group_name_H-M   'P 1'
_cell_length_a   5.53197336
_cell_length_b   5.53645647
_cell_length_c   7.83399696
_cell_angle_alpha   90.04475032
_cell_angle_beta   90.10638719
_cell_angle_gamma   89.99676962
_symmetry_Int_Tables_number   1
_chemical_formula_structural   SrLaMnFeO6
_chemical_formula_sum   'Sr2 La2 Mn2 Fe2 O12'
_cell_volume   239.93548712
_cell_formula_units_Z   2
loop_
 _symmetry_equiv_pos_site_id
 _symmetry_equiv_pos_as_xyz
  1  'x, y, z'
loop_
 _atom_site_type_symbol
 _atom_site_label
 _atom_site_symmetry_multiplicity
 _atom_site_fract_x
 _atom_site_fract_y
 _atom_site_fract_z
 _atom_site_occupancy
  Sr  Sr0  1  0.51756300  0.49863300  0.74965800  1
  Sr  Sr1  1  0.98255200  0.99763600  0.25104300  1
  La  La0  1  0.02591600  0.00486000  0.74979200  1
  La  La1  1  0.47342200  0.50384800  0.25076000  1
  Mn  Mn0  1  0.99911400  0.50022000  0.00022000  1
  Mn  Mn1  1  0.50080200  0.00005300  0.50010600  1
  Fe  Fe0  1  0.50302100  0.00036000  0.00005900  1
  Fe  Fe1  1  0.99683000  0.50023600  0.50010300  1
  O  O0  1  0.99427300  0.56335500  0.75630400  1
  O  O1  1  0.50470100  0.05904500  0.25427500  1
  O  O2  1  0.49033500  0.95589500  0.74559900  1
  O  O3  1  0.01270500  0.45228100  0.24361800  1
  O  O4  1  0.27003000  0.28228800  0.97343300  1
  O  O5  1  0.23164600  0.77633700  0.47532700  1
  O  O6  1  0.77709800  0.21446300  0.52944800  1
  O  O7  1  0.72047800  0.70743700  0.03130900  1
  O  O8  1  0.71468300  0.72368000  0.47007600  1
  O  O9  1  0.79063100  0.22220800  0.96831900  1
  O  O10  1  0.21784100  0.76939200  0.02592200  1
  O  O11  1  0.27636000  0.26777200  0.52462900  1
loop_
_geom_bond_atom_site_label_1
_geom_bond_atom_site_label_2
_geom_bond_distance
_geom_bond_site_symmetry_2
La0 O0 2.451220 1_445
La0 O9 2.465315 1_455
La0 O6 2.493009 1_455
La0 O2 2.583668 1_545
La0 O11 2.676377 1_555
La0 O4 2.690655 1_555
La0 O10 2.738968 1_546
La0 O5 2.742966 1_545
La0 O2 2.975330 1_445
La0 O0 3.097410 1_455
La0 O8 3.189128 1_445
La0 O7 3.232669 1_446
La1 O1 2.468866 1_555
La1 O7 2.471008 1_555
La1 O8 2.490570 1_555
La1 O3 2.565133 1_555
La1 O5 2.676602 1_555
La1 O10 2.693966 1_555
La1 O4 2.734536 1_554
La1 O11 2.740998 1_555
La1 O3 2.997534 1_655
La1 O1 3.078799 1_565
La1 O6 3.185464 1_555
La1 O9 3.227255 1_554
Mn0 O3 1.926696 1_655
Mn0 O10 1.929851 1_655
Mn0 O4 1.935593 1_654
Mn0 O7 1.937057 1_555
Mn0 O9 1.939144 1_554
Mn0 O0 1.942949 1_554
Mn1 O2 1.939829 1_545
Mn1 O11 1.943113 1_555
Mn1 O5 1.946168 1_545
Mn1 O6 1.948499 1_555
Mn1 O8 1.948544 1_545
Mn1 O1 1.953748 1_555
Fe0 O2 2.009488 1_544
Fe0 O1 2.017611 1_555
Fe0 O9 2.025843 1_554
Fe0 O7 2.033828 1_545
Fe0 O4 2.034799 1_554
Fe0 O10 2.041300 1_545
Fe1 O8 2.005189 1_555
Fe1 O6 2.008855 1_555
Fe1 O5 2.015780 1_655
Fe1 O11 2.020797 1_655
Fe1 O3 2.028625 1_655
Fe1 O0 2.037079 1_555
O0 Sr0 2.661808 1_555
O0 Sr0 2.917455 1_655
O1 Sr1 2.665378 1_545
O1 Sr1 2.908535 1_445
O2 Sr0 2.536300 1_555
O2 Sr0 3.008767 1_565
O3 Sr1 2.523376 1_445
O3 Sr1 3.024449 1_455
O4 Sr0 2.528907 1_555
O4 Sr1 3.124260 1_446
O5 Sr1 2.545849 1_455
O5 Sr0 3.078401 1_555
O6 Sr1 2.737645 1_545
O6 Sr0 2.741782 1_555
O7 Sr0 2.729811 1_554
O7 Sr1 2.762817 1_555
O8 Sr1 2.730287 1_555
O8 Sr0 2.748088 1_555
O9 Sr0 2.748210 1_555
O9 Sr1 2.752110 1_546
O10 Sr1 2.531042 1_455
O10 Sr0 3.112594 1_554
O11 Sr0 2.551426 1_555
O11 Sr1 3.074813 1_445
