# generated using pymatgen
data_NaUVO6
_symmetry_space_group_name_H-M   'P 1'
_cell_length_a   6.27036500
_cell_length_b   8.40903000
_cell_length_c   10.48639748
_cell_angle_alpha   90.00000000
_cell_angle_beta   99.05350887
_cell_angle_gamma   90.00000000
_symmetry_Int_Tables_number   1
_chemical_formula_structural   NaUVO6
_chemical_formula_sum   'Na4 U4 V4 O24'
_cell_volume   546.03506512
_cell_formula_units_Z   4
loop_
 _symmetry_equiv_pos_site_id
 _symmetry_equiv_pos_as_xyz
  1  'x, y, z'
loop_
 _atom_site_type_symbol
 _atom_site_label
 _atom_site_symmetry_multiplicity
 _atom_site_fract_x
 _atom_site_fract_y
 _atom_site_fract_z
 _atom_site_occupancy
  Na  Na0  1  0.96562500  0.29252000  0.67668300  1
  Na  Na1  1  0.03437500  0.79252000  0.82331700  1
  Na  Na2  1  0.03437500  0.70748000  0.32331700  1
  Na  Na3  1  0.96562500  0.20748000  0.17668300  1
  U  U0  1  0.51383500  0.47956000  0.81773200  1
  U  U1  1  0.48616500  0.97956000  0.68226800  1
  U  U2  1  0.48616500  0.52044000  0.18226800  1
  U  U3  1  0.51383500  0.02044000  0.31773200  1
  V  V0  1  0.37093200  0.14846300  0.95500900  1
  V  V1  1  0.62906800  0.64846300  0.54499100  1
  V  V2  1  0.62906800  0.85153700  0.04499100  1
  V  V3  1  0.37093200  0.35153700  0.45500900  1
  O  O0  1  0.55660400  0.06365600  0.10392200  1
  O  O1  1  0.44339600  0.56365600  0.39607800  1
  O  O2  1  0.44339600  0.93634400  0.89607800  1
  O  O3  1  0.55660400  0.43634400  0.60392200  1
  O  O4  1  0.45834200  0.34838300  0.00772600  1
  O  O5  1  0.54165800  0.84838300  0.49227400  1
  O  O6  1  0.54165800  0.65161700  0.99227400  1
  O  O7  1  0.45834200  0.15161700  0.50772600  1
  O  O8  1  0.38058500  0.21069600  0.78571000  1
  O  O9  1  0.61941500  0.71069600  0.71429000  1
  O  O10  1  0.61941500  0.78930400  0.21429000  1
  O  O11  1  0.38058500  0.28930400  0.28571000  1
  O  O12  1  0.22970000  0.53983100  0.77360500  1
  O  O13  1  0.77030000  0.03983100  0.72639500  1
  O  O14  1  0.77030000  0.46016900  0.22639500  1
  O  O15  1  0.22970000  0.96016900  0.27360500  1
  O  O16  1  0.79726400  0.41978100  0.85507000  1
  O  O17  1  0.20273600  0.91978100  0.64493000  1
  O  O18  1  0.20273600  0.58021900  0.14493000  1
  O  O19  1  0.79726400  0.08021900  0.35507000  1
  O  O20  1  0.11967100  0.13860700  0.97801500  1
  O  O21  1  0.88032900  0.63860700  0.52198500  1
  O  O22  1  0.88032900  0.86139300  0.02198500  1
  O  O23  1  0.11967100  0.36139300  0.47801500  1
loop_
_geom_bond_atom_site_label_1
_geom_bond_atom_site_label_2
_geom_bond_distance
_geom_bond_site_symmetry_2
Na0 O23 2.498384 1_655
Na0 O16 2.525956 1_555
Na0 O13 2.547114 1_555
Na0 O12 2.751382 1_655
Na0 O8 2.759438 1_655
Na0 O3 2.829621 1_555
Na1 O22 2.498384 1_456
Na1 O17 2.525956 1_555
Na1 O12 2.547114 1_555
Na1 O13 2.751382 1_465
Na1 O9 2.759438 1_455
Na1 O2 2.829621 1_555
Na2 O21 2.498384 1_455
Na2 O18 2.525956 1_555
Na2 O15 2.547114 1_555
Na2 O14 2.751382 1_455
Na2 O10 2.759438 1_455
Na2 O1 2.829621 1_555
Na3 O20 2.498384 1_654
Na3 O19 2.525956 1_555
Na3 O14 2.547114 1_555
Na3 O15 2.751382 1_645
Na3 O11 2.759438 1_655
Na3 O0 2.829621 1_555
O0 V0 1.931405 1_554
O0 V2 1.964270 1_545
O0 U3 2.328134 1_555
O1 V1 1.931405 1_555
O1 V3 1.964270 1_555
O1 U2 2.328134 1_555
O2 V2 1.931405 1_556
O2 V0 1.964270 1_565
O2 U1 2.328134 1_555
O3 V3 1.931405 1_555
O3 V1 1.964270 1_555
O3 U0 2.328134 1_555
O4 V0 1.826707 1_554
O4 U2 2.318044 1_555
O4 U0 2.350636 1_554
O5 V1 1.826707 1_555
O5 U3 2.318044 1_565
O5 U1 2.350636 1_555
O6 V2 1.826707 1_556
O6 U0 2.318044 1_555
O6 U2 2.350636 1_556
O7 V3 1.826707 1_555
O7 U1 2.318044 1_545
O7 U3 2.350636 1_555
O8 V0 1.860958 1_555
O8 U1 2.370364 1_545
O8 U0 2.415402 1_555
O9 V1 1.860958 1_555
O9 U0 2.370364 1_555
O9 U1 2.415402 1_555
O10 V2 1.860958 1_555
O10 U3 2.370364 1_565
O10 U2 2.415402 1_555
O11 V3 1.860958 1_555
O11 U2 2.370364 1_555
O11 U3 2.415402 1_555
O12 U0 1.840038 1_555
O13 U1 1.840038 1_545
O14 U2 1.840038 1_555
O15 U3 1.840038 1_565
O16 U0 1.829058 1_555
O17 U1 1.829058 1_555
O18 U2 1.829058 1_555
O19 U3 1.829058 1_555
O20 V0 1.633060 1_555
O21 V1 1.633060 1_555
O22 V2 1.633060 1_555
O23 V3 1.633060 1_555
