# generated using pymatgen
data_ZnCoF6
_symmetry_space_group_name_H-M   'P 1'
_cell_length_a   5.16133768
_cell_length_b   5.16087236
_cell_length_c   5.16105740
_cell_angle_alpha   56.39472148
_cell_angle_beta   56.39320070
_cell_angle_gamma   56.39164558
_symmetry_Int_Tables_number   1
_chemical_formula_structural   ZnCoF6
_chemical_formula_sum   'Zn1 Co1 F6'
_cell_volume   89.10150741
_cell_formula_units_Z   1
loop_
 _symmetry_equiv_pos_site_id
 _symmetry_equiv_pos_as_xyz
  1  'x, y, z'
loop_
 _atom_site_type_symbol
 _atom_site_label
 _atom_site_symmetry_multiplicity
 _atom_site_fract_x
 _atom_site_fract_y
 _atom_site_fract_z
 _atom_site_occupancy
  Zn  Zn0  1  0.50000000  0.50000000  0.50000000  1
  Co  Co0  1  0.00000000  0.00000000  0.00000000  1
  F  F0  1  0.62794027  0.90521117  0.22951727  1
  F  F1  1  0.90522910  0.22952513  0.62793315  1
  F  F2  1  0.77049055  0.37203833  0.09478304  1
  F  F3  1  0.09477090  0.77047487  0.37206685  1
  F  F4  1  0.37205973  0.09478883  0.77048273  1
  F  F5  1  0.22950945  0.62796167  0.90521696  1
loop_
_geom_bond_atom_site_label_1
_geom_bond_atom_site_label_2
_geom_bond_distance
_geom_bond_site_symmetry_2
Co0 F5 1.791492 1_544
Co0 F2 1.791492 1_455
Co0 F3 1.791722 1_545
Co0 F1 1.791722 1_454
Co0 F0 1.791803 1_445
Co0 F4 1.791803 1_554
F0 Zn0 2.008702 1_555
F1 Zn0 2.008836 1_555
F2 Zn0 2.008736 1_555
F3 Zn0 2.008836 1_555
F4 Zn0 2.008702 1_555
F5 Zn0 2.008736 1_555
