# generated using pymatgen
data_KTa2O6
_symmetry_space_group_name_H-M   'P 1'
_cell_length_a   7.54496093
_cell_length_b   7.54496093
_cell_length_c   7.54496093
_cell_angle_alpha   119.79292368
_cell_angle_beta   119.57848680
_cell_angle_gamma   90.54534139
_symmetry_Int_Tables_number   1
_chemical_formula_structural   KTa2O6
_chemical_formula_sum   'K2 Ta4 O12'
_cell_volume   305.13432542
_cell_formula_units_Z   2
loop_
 _symmetry_equiv_pos_site_id
 _symmetry_equiv_pos_as_xyz
  1  'x, y, z'
loop_
 _atom_site_type_symbol
 _atom_site_label
 _atom_site_symmetry_multiplicity
 _atom_site_fract_x
 _atom_site_fract_y
 _atom_site_fract_z
 _atom_site_occupancy
  K  K0  1  0.00000000  0.00000000  0.00000000  1
  K  K1  1  0.50000000  0.00000000  0.50000000  1
  Ta  Ta0  1  0.50000000  0.50000000  0.00000000  1
  Ta  Ta1  1  0.00000000  0.50000000  0.50000000  1
  Ta  Ta2  1  0.00000000  0.50000000  0.00000000  1
  Ta  Ta3  1  0.00000000  0.00000000  0.50000000  1
  O  O0  1  0.06199500  0.81199500  0.25000000  1
  O  O1  1  0.69112800  0.44112800  0.25000000  1
  O  O2  1  0.05693500  0.81004700  0.62010500  1
  O  O3  1  0.68994200  0.43683000  0.87989500  1
  O  O4  1  0.68994200  0.81004700  0.25311200  1
  O  O5  1  0.05693500  0.43683000  0.24688800  1
  O  O6  1  0.93800500  0.18800500  0.75000000  1
  O  O7  1  0.30887200  0.55887200  0.75000000  1
  O  O8  1  0.94306500  0.18995300  0.37989500  1
  O  O9  1  0.31005800  0.56317000  0.12010500  1
  O  O10  1  0.31005800  0.18995300  0.74688800  1
  O  O11  1  0.94306500  0.56317000  0.75311200  1
loop_
_geom_bond_atom_site_label_1
_geom_bond_atom_site_label_2
_geom_bond_distance
_geom_bond_site_symmetry_2
K0 O6 2.754862 1_454
K0 O0 2.754862 1_545
K0 O11 2.756679 1_444
K0 O2 2.756679 1_544
K0 O5 2.756679 1_555
K0 O8 2.756679 1_455
K1 O6 2.754862 1_555
K1 O0 2.754862 1_545
K1 O4 2.756679 1_545
K1 O10 2.756679 1_555
K1 O3 2.756679 1_555
K1 O9 2.756679 1_545
O0 Ta2 2.003400 1_555
O0 Ta3 2.003400 1_565
O1 Ta1 1.998545 1_655
O1 Ta0 1.998545 1_555
O2 Ta1 1.991987 1_555
O2 Ta3 1.994430 1_565
O3 Ta0 1.991987 1_556
O3 Ta2 1.994430 1_656
O4 Ta0 1.991987 1_555
O4 Ta3 1.994430 1_665
O5 Ta1 1.991987 1_555
O5 Ta2 1.994430 1_555
O6 Ta3 2.003400 1_655
O6 Ta2 2.003400 1_656
O7 Ta0 1.998545 1_556
O7 Ta1 1.998545 1_555
O8 Ta1 1.991987 1_655
O8 Ta3 1.994430 1_655
O9 Ta0 1.991987 1_555
O9 Ta2 1.994430 1_555
O10 Ta0 1.991987 1_556
O10 Ta3 1.994430 1_555
O11 Ta1 1.991987 1_655
O11 Ta2 1.994430 1_656
