# generated using pymatgen
data_TmMn2O5
_symmetry_space_group_name_H-M   'P 1'
_cell_length_a   5.66217084
_cell_length_b   7.14374602
_cell_length_c   8.40462117
_cell_angle_alpha   90.00000000
_cell_angle_beta   90.00000000
_cell_angle_gamma   90.00000000
_symmetry_Int_Tables_number   1
_chemical_formula_structural   TmMn2O5
_chemical_formula_sum   'Tm4 Mn8 O20'
_cell_volume   339.95944960
_cell_formula_units_Z   4
loop_
 _symmetry_equiv_pos_site_id
 _symmetry_equiv_pos_as_xyz
  1  'x, y, z'
loop_
 _atom_site_type_symbol
 _atom_site_label
 _atom_site_symmetry_multiplicity
 _atom_site_fract_x
 _atom_site_fract_y
 _atom_site_fract_z
 _atom_site_occupancy
  Tm  Tm0  1  0.50000000  0.36366299  0.32967273  1
  Tm  Tm1  1  0.50000000  0.63633701  0.67032727  1
  Tm  Tm2  1  0.50000000  0.13633701  0.82967273  1
  Tm  Tm3  1  0.50000000  0.86366299  0.17032727  1
  Mn  Mn0  1  -0.00000000  0.08685100  0.15181463  1
  Mn  Mn1  1  -0.00000000  0.91314900  0.84818537  1
  Mn  Mn2  1  -0.00000000  0.41314900  0.65181463  1
  Mn  Mn3  1  -0.00000000  0.58685100  0.34818537  1
  Mn  Mn4  1  0.24704104  -0.00000000  0.50000000  1
  Mn  Mn5  1  0.75295896  -0.00000000  0.50000000  1
  Mn  Mn6  1  0.75295896  0.50000000  0.00000000  1
  Mn  Mn7  1  0.24704104  0.50000000  0.00000000  1
  O  O0  1  0.23154234  -0.00000000  0.00000000  1
  O  O1  1  0.76845766  -0.00000000  0.00000000  1
  O  O2  1  0.76845766  0.50000000  0.50000000  1
  O  O3  1  0.23154234  0.50000000  0.50000000  1
  O  O4  1  -0.00000000  0.34731646  0.06903288  1
  O  O5  1  -0.00000000  0.65268354  0.93096712  1
  O  O6  1  -0.00000000  0.15268354  0.56903288  1
  O  O7  1  -0.00000000  0.84731646  0.43096712  1
  O  O8  1  0.50000000  0.33458702  0.05830889  1
  O  O9  1  0.50000000  0.66541298  0.94169111  1
  O  O10  1  0.50000000  0.16541298  0.55830889  1
  O  O11  1  0.50000000  0.83458702  0.44169111  1
  O  O12  1  0.25924883  0.10895218  0.29354667  1
  O  O13  1  0.74075117  0.89104782  0.70645333  1
  O  O14  1  0.25924883  0.89104782  0.70645333  1
  O  O15  1  0.74075117  0.39104782  0.79354667  1
  O  O16  1  0.74075117  0.10895218  0.29354667  1
  O  O17  1  0.25924883  0.60895218  0.20645333  1
  O  O18  1  0.74075117  0.60895218  0.20645333  1
  O  O19  1  0.25924883  0.39104782  0.79354667  1
loop_
_geom_bond_atom_site_label_1
_geom_bond_atom_site_label_2
_geom_bond_distance
_geom_bond_site_symmetry_2
Mn0 O16 1.897013 1_455
Mn0 O12 1.897013 1_555
Mn0 O1 1.931784 1_455
Mn0 O0 1.931784 1_555
Mn0 O4 1.986522 1_555
Mn1 O13 1.897013 1_455
Mn1 O14 1.897013 1_555
Mn1 O1 1.931784 1_466
Mn1 O0 1.931784 1_566
Mn1 O5 1.986522 1_555
Mn2 O15 1.897013 1_455
Mn2 O19 1.897013 1_555
Mn2 O3 1.931784 1_555
Mn2 O2 1.931784 1_455
Mn2 O6 1.986522 1_555
Mn3 O18 1.897013 1_455
Mn3 O17 1.897013 1_555
Mn3 O2 1.931784 1_455
Mn3 O3 1.931784 1_555
Mn3 O7 1.986522 1_555
Mn4 O6 1.866262 1_555
Mn4 O7 1.866262 1_545
Mn4 O14 1.902987 1_545
Mn4 O12 1.902987 1_555
Mn4 O11 1.920411 1_545
Mn4 O10 1.920411 1_555
Mn5 O7 1.866262 1_645
Mn5 O6 1.866262 1_655
Mn5 O13 1.902987 1_545
Mn5 O16 1.902987 1_555
Mn5 O11 1.920411 1_545
Mn5 O10 1.920411 1_555
Mn6 O5 1.866262 1_654
Mn6 O4 1.866262 1_655
Mn6 O15 1.902987 1_554
Mn6 O18 1.902987 1_555
Mn6 O8 1.920411 1_555
Mn6 O9 1.920411 1_554
Mn7 O4 1.866262 1_555
Mn7 O5 1.866262 1_554
Mn7 O19 1.902987 1_554
Mn7 O17 1.902987 1_555
Mn7 O8 1.920411 1_555
Mn7 O9 1.920411 1_554
O0 Tm3 2.304007 1_545
O0 Tm2 2.304007 1_554
O1 Tm3 2.304007 1_545
O1 Tm2 2.304007 1_554
O2 Tm0 2.304007 1_555
O2 Tm1 2.304007 1_555
O3 Tm1 2.304007 1_555
O3 Tm0 2.304007 1_555
O8 Tm0 2.290149 1_555
O8 Tm2 2.387112 1_554
O9 Tm1 2.290149 1_555
O9 Tm3 2.387112 1_556
O10 Tm2 2.290149 1_555
O10 Tm0 2.387112 1_555
O11 Tm3 2.290149 1_555
O11 Tm1 2.387112 1_555
O12 Tm0 2.293761 1_555
O12 Tm3 2.449742 1_545
O13 Tm1 2.293761 1_555
O13 Tm2 2.449742 1_565
O14 Tm1 2.293761 1_555
O14 Tm2 2.449742 1_565
O15 Tm2 2.293761 1_555
O15 Tm1 2.449742 1_555
O16 Tm0 2.293761 1_555
O16 Tm3 2.449742 1_545
O17 Tm3 2.293761 1_555
O17 Tm0 2.449742 1_555
O18 Tm3 2.293761 1_555
O18 Tm0 2.449742 1_555
O19 Tm2 2.293761 1_555
O19 Tm1 2.449742 1_555
