# generated using pymatgen
data_Ti3Nb3Sn2
_symmetry_space_group_name_H-M   'P 1'
_cell_length_a   5.28150853
_cell_length_b   5.28133823
_cell_length_c   5.28006318
_cell_angle_alpha   90.03262139
_cell_angle_beta   90.03338627
_cell_angle_gamma   90.03783454
_symmetry_Int_Tables_number   1
_chemical_formula_structural   Ti3Nb3Sn2
_chemical_formula_sum   'Ti3 Nb3 Sn2'
_cell_volume   147.27900726
_cell_formula_units_Z   1
loop_
 _symmetry_equiv_pos_site_id
 _symmetry_equiv_pos_as_xyz
  1  'x, y, z'
loop_
 _atom_site_type_symbol
 _atom_site_label
 _atom_site_symmetry_multiplicity
 _atom_site_fract_x
 _atom_site_fract_y
 _atom_site_fract_z
 _atom_site_occupancy
  Ti  Ti0  1  -0.00001716  0.74145078  0.25859237  1
  Ti  Ti1  1  0.74143638  0.25854699  -0.00002898  1
  Ti  Ti2  1  0.25855800  0.00004746  0.74141052  1
  Nb  Nb0  1  0.50000974  0.74383081  0.25625757  1
  Nb  Nb1  1  0.74382356  0.25615882  0.50002392  1
  Nb  Nb2  1  0.25618578  0.49997107  0.74374177  1
  Sn  Sn0  1  0.24432895  0.24429040  0.24431192  1
  Sn  Sn1  1  0.75567475  0.75570467  0.75568992  1
loop_
_geom_bond_atom_site_label_1
_geom_bond_atom_site_label_2
_geom_bond_distance
_geom_bond_site_symmetry_2
Nb0 Ti0 2.640672 1_655
Nb0 Ti0 2.640954 1_555
Nb0 Sn1 2.962555 1_555
Nb0 Sn0 2.963584 1_555
Nb0 Sn1 2.969355 1_554
Nb0 Sn0 2.969557 1_565
Nb1 Ti1 2.639813 1_556
Nb1 Ti1 2.640371 1_555
Nb1 Sn0 2.963432 1_555
Nb1 Sn1 2.963501 1_555
Nb1 Sn1 2.969213 1_545
Nb1 Sn0 2.969659 1_655
Nb2 Ti2 2.640325 1_555
Nb2 Ti2 2.641130 1_565
Nb2 Sn0 2.962575 1_555
Nb2 Sn1 2.963525 1_555
Nb2 Sn0 2.969368 1_556
Nb2 Sn1 2.969983 1_455
Sn0 Ti2 2.926163 1_555
Sn0 Ti1 2.926952 1_555
Sn0 Ti0 2.927394 1_555
Sn0 Ti2 2.952442 1_554
Sn0 Ti0 2.952879 1_545
Sn0 Ti1 2.953134 1_455
Sn1 Ti0 2.926348 1_655
Sn1 Ti1 2.926957 1_556
Sn1 Ti2 2.927235 1_565
Sn1 Ti0 2.952603 1_656
Sn1 Ti1 2.952694 1_566
Sn1 Ti2 2.953138 1_665
