# generated using pymatgen
data_Li4VAs2O9
_symmetry_space_group_name_H-M   'P 1'
_cell_length_a   9.00254300
_cell_length_b   9.00254300
_cell_length_c   9.65678600
_cell_angle_alpha   90.00000000
_cell_angle_beta   90.00000000
_cell_angle_gamma   90.00000000
_symmetry_Int_Tables_number   1
_chemical_formula_structural   Li4VAs2O9
_chemical_formula_sum   'Li16 V4 As8 O36'
_cell_volume   782.64175817
_cell_formula_units_Z   4
loop_
 _symmetry_equiv_pos_site_id
 _symmetry_equiv_pos_as_xyz
  1  'x, y, z'
loop_
 _atom_site_type_symbol
 _atom_site_label
 _atom_site_symmetry_multiplicity
 _atom_site_fract_x
 _atom_site_fract_y
 _atom_site_fract_z
 _atom_site_occupancy
  Li  Li0  1  0.87049000  0.09548700  0.09469400  1
  Li  Li1  1  0.87049000  0.90451300  0.59469400  1
  Li  Li2  1  0.90451300  0.12951000  0.40530600  1
  Li  Li3  1  0.90451300  0.87049000  0.90530600  1
  Li  Li4  1  0.09548700  0.87049000  0.40530600  1
  Li  Li5  1  0.09548700  0.12951000  0.90530600  1
  Li  Li6  1  0.12951000  0.90451300  0.09469400  1
  Li  Li7  1  0.12951000  0.09548700  0.59469400  1
  Li  Li8  1  0.37049000  0.40451300  0.40530600  1
  Li  Li9  1  0.37049000  0.59548700  0.90530600  1
  Li  Li10  1  0.40451300  0.37049000  0.09469400  1
  Li  Li11  1  0.40451300  0.62951000  0.59469400  1
  Li  Li12  1  0.59548700  0.37049000  0.59469400  1
  Li  Li13  1  0.59548700  0.62951000  0.09469400  1
  Li  Li14  1  0.62951000  0.59548700  0.40530600  1
  Li  Li15  1  0.62951000  0.40451300  0.90530600  1
  V  V0  1  0.00000000  0.50000000  0.32526500  1
  V  V1  1  0.00000000  0.50000000  0.82526500  1
  V  V2  1  0.50000000  0.00000000  0.17473500  1
  V  V3  1  0.50000000  0.00000000  0.67473500  1
  As  As0  1  0.81045700  0.18954300  0.75000000  1
  As  As1  1  0.81045700  0.81045700  0.25000000  1
  As  As2  1  0.18954300  0.81045700  0.75000000  1
  As  As3  1  0.18954300  0.18954300  0.25000000  1
  As  As4  1  0.31045700  0.31045700  0.75000000  1
  As  As5  1  0.31045700  0.68954300  0.25000000  1
  As  As6  1  0.68954300  0.31045700  0.25000000  1
  As  As7  1  0.68954300  0.68954300  0.75000000  1
  O  O0  1  0.81655900  0.61874700  0.27649600  1
  O  O1  1  0.81655900  0.38125300  0.77649600  1
  O  O2  1  0.90105100  0.12568500  0.60686600  1
  O  O3  1  0.90105100  0.87431500  0.10686600  1
  O  O4  1  0.87431500  0.09894900  0.89313400  1
  O  O5  1  0.87431500  0.90105100  0.39313400  1
  O  O6  1  0.88125300  0.31655900  0.27649600  1
  O  O7  1  0.88125300  0.68344100  0.77649600  1
  O  O8  1  0.00000000  0.50000000  0.49451200  1
  O  O9  1  0.00000000  0.50000000  0.99451200  1
  O  O10  1  0.11874700  0.31655900  0.77649600  1
  O  O11  1  0.11874700  0.68344100  0.27649600  1
  O  O12  1  0.12568500  0.90105100  0.89313400  1
  O  O13  1  0.12568500  0.09894900  0.39313400  1
  O  O14  1  0.09894900  0.12568500  0.10686600  1
  O  O15  1  0.09894900  0.87431500  0.60686600  1
  O  O16  1  0.18344100  0.38125300  0.27649600  1
  O  O17  1  0.18344100  0.61874700  0.77649600  1
  O  O18  1  0.31655900  0.88125300  0.22350400  1
  O  O19  1  0.31655900  0.11874700  0.72350400  1
  O  O20  1  0.40105100  0.62568500  0.39313400  1
  O  O21  1  0.40105100  0.37431500  0.89313400  1
  O  O22  1  0.37431500  0.40105100  0.60686600  1
  O  O23  1  0.37431500  0.59894900  0.10686600  1
  O  O24  1  0.38125300  0.81655900  0.72350400  1
  O  O25  1  0.38125300  0.18344100  0.22350400  1
  O  O26  1  0.50000000  0.00000000  0.50548800  1
  O  O27  1  0.50000000  0.00000000  0.00548800  1
  O  O28  1  0.61874700  0.81655900  0.22350400  1
  O  O29  1  0.61874700  0.18344100  0.72350400  1
  O  O30  1  0.62568500  0.40105100  0.10686600  1
  O  O31  1  0.62568500  0.59894900  0.60686600  1
  O  O32  1  0.59894900  0.37431500  0.39313400  1
  O  O33  1  0.59894900  0.62568500  0.89313400  1
  O  O34  1  0.68344100  0.88125300  0.72350400  1
  O  O35  1  0.68344100  0.11874700  0.22350400  1
loop_
_geom_bond_atom_site_label_1
_geom_bond_atom_site_label_2
_geom_bond_distance
_geom_bond_site_symmetry_2
Li0 O4 1.946976 1_554
Li0 O3 2.013463 1_545
Li0 O14 2.077929 1_655
Li0 O35 2.103969 1_555
Li1 O5 1.946976 1_555
Li1 O2 2.013463 1_565
Li1 O15 2.077929 1_655
Li1 O34 2.103969 1_555
Li2 O2 1.946976 1_555
Li2 O13 2.013463 1_655
Li2 O5 2.077929 1_545
Li2 O6 2.103969 1_555
Li3 O3 1.946976 1_556
Li3 O12 2.013463 1_655
Li3 O4 2.077929 1_565
Li3 O7 2.103969 1_555
Li4 O15 1.946976 1_555
Li4 O5 2.013463 1_455
Li4 O13 2.077929 1_565
Li4 O11 2.103969 1_555
Li5 O14 1.946976 1_556
Li5 O4 2.013463 1_455
Li5 O12 2.077929 1_545
Li5 O10 2.103969 1_555
Li6 O12 1.946976 1_554
Li6 O14 2.013463 1_565
Li6 O3 2.077929 1_455
Li6 O18 2.103969 1_555
Li7 O13 1.946976 1_555
Li7 O15 2.013463 1_545
Li7 O2 2.077929 1_455
Li7 O19 2.103969 1_555
Li8 O22 1.946976 1_555
Li8 O20 2.013463 1_555
Li8 O32 2.077929 1_555
Li8 O16 2.103969 1_555
Li9 O23 1.946976 1_556
Li9 O21 2.013463 1_555
Li9 O33 2.077929 1_555
Li9 O17 2.103969 1_555
Li10 O21 1.946976 1_554
Li10 O30 2.013463 1_555
Li10 O23 2.077929 1_555
Li10 O25 2.103969 1_555
Li11 O20 1.946976 1_555
Li11 O31 2.013463 1_555
Li11 O22 2.077929 1_555
Li11 O24 2.103969 1_555
Li12 O32 1.946976 1_555
Li12 O22 2.013463 1_555
Li12 O31 2.077929 1_555
Li12 O29 2.103969 1_555
Li13 O33 1.946976 1_554
Li13 O23 2.013463 1_555
Li13 O30 2.077929 1_555
Li13 O28 2.103969 1_555
Li14 O31 1.946976 1_555
Li14 O32 2.013463 1_555
Li14 O20 2.077929 1_555
Li14 O0 2.103969 1_555
Li15 O30 1.946976 1_556
Li15 O33 2.013463 1_555
Li15 O21 2.077929 1_555
Li15 O1 2.103969 1_555
As0 O4 1.704750 1_555
As0 O2 1.704750 1_555
As0 O29 1.745605 1_555
As0 O1 1.745605 1_555
As1 O5 1.704750 1_555
As1 O3 1.704750 1_555
As1 O0 1.745605 1_555
As1 O28 1.745605 1_555
As2 O15 1.704750 1_555
As2 O12 1.704750 1_555
As2 O17 1.745605 1_555
As2 O24 1.745605 1_555
As3 O14 1.704750 1_555
As3 O13 1.704750 1_555
As3 O25 1.745605 1_555
As3 O16 1.745605 1_555
As4 O22 1.704750 1_555
As4 O21 1.704750 1_555
As4 O10 1.745605 1_555
As4 O19 1.745605 1_555
As5 O20 1.704750 1_555
As5 O23 1.704750 1_555
As5 O18 1.745605 1_555
As5 O11 1.745605 1_555
As6 O30 1.704750 1_555
As6 O32 1.704750 1_555
As6 O6 1.745605 1_555
As6 O35 1.745605 1_555
As7 O31 1.704750 1_555
As7 O33 1.704750 1_555
As7 O7 1.745605 1_555
As7 O34 1.745605 1_555
O0 V0 2.022832 1_655
O1 V1 2.022832 1_655
O6 V0 2.022832 1_655
O7 V1 2.022832 1_655
O8 V0 1.634382 1_555
O9 V1 1.634382 1_555
O10 V1 2.022832 1_555
O11 V0 2.022832 1_555
O16 V0 2.022832 1_555
O17 V1 2.022832 1_555
O18 V2 2.022832 1_565
O19 V3 2.022832 1_555
O24 V3 2.022832 1_565
O25 V2 2.022832 1_555
O26 V3 1.634382 1_555
O27 V2 1.634382 1_555
O28 V2 2.022832 1_565
O29 V3 2.022832 1_555
O34 V3 2.022832 1_565
O35 V2 2.022832 1_555
