# generated using pymatgen
data_YbCu2
_symmetry_space_group_name_H-M   'P 1'
_cell_length_a   5.12042711
_cell_length_b   5.12042661
_cell_length_c   8.37391718
_cell_angle_alpha   90.00000000
_cell_angle_beta   90.00000000
_cell_angle_gamma   119.99999404
_symmetry_Int_Tables_number   1
_chemical_formula_structural   YbCu2
_chemical_formula_sum   'Yb4 Cu8'
_cell_volume   190.13919608
_cell_formula_units_Z   4
loop_
 _symmetry_equiv_pos_site_id
 _symmetry_equiv_pos_as_xyz
  1  'x, y, z'
loop_
 _atom_site_type_symbol
 _atom_site_label
 _atom_site_symmetry_multiplicity
 _atom_site_fract_x
 _atom_site_fract_y
 _atom_site_fract_z
 _atom_site_occupancy
  Yb  Yb0  1  0.66666700  0.33333400  0.55707646  1
  Yb  Yb1  1  0.33333300  0.66666600  0.44292354  1
  Yb  Yb2  1  0.33333300  0.66666600  0.05707646  1
  Yb  Yb3  1  0.66666700  0.33333400  0.94292354  1
  Cu  Cu0  1  0.00000000  0.00000000  0.50000000  1
  Cu  Cu1  1  0.00000000  0.00000000  0.00000000  1
  Cu  Cu2  1  0.16627833  0.33255666  0.75000000  1
  Cu  Cu3  1  0.16627833  0.83372167  0.75000000  1
  Cu  Cu4  1  0.66744334  0.83372167  0.75000000  1
  Cu  Cu5  1  0.83372167  0.66744334  0.25000000  1
  Cu  Cu6  1  0.83372167  0.16627833  0.25000000  1
  Cu  Cu7  1  0.33255666  0.16627833  0.25000000  1
loop_
_geom_bond_atom_site_label_1
_geom_bond_atom_site_label_2
_geom_bond_distance
_geom_bond_site_symmetry_2
Cu0 Cu6 2.560739 1_455
Cu0 Cu3 2.560739 1_545
Cu0 Cu2 2.560739 1_555
Cu0 Cu5 2.560739 1_445
Cu0 Cu7 2.560739 1_555
Cu0 Cu4 2.560739 1_445
Cu0 Yb1 2.994664 1_555
Cu0 Yb0 2.994664 1_445
Cu0 Yb0 2.994668 1_455
Cu0 Yb1 2.994668 1_545
Cu0 Yb0 2.994669 1_555
Cu0 Yb1 2.994669 1_445
Cu1 Cu6 2.560739 1_455
Cu1 Cu3 2.560739 1_544
Cu1 Cu2 2.560739 1_554
Cu1 Cu5 2.560739 1_445
Cu1 Cu7 2.560739 1_555
Cu1 Cu4 2.560739 1_444
Cu1 Yb2 2.994664 1_555
Cu1 Yb3 2.994664 1_444
Cu1 Yb3 2.994668 1_454
Cu1 Yb2 2.994668 1_545
Cu1 Yb3 2.994669 1_554
Cu1 Yb2 2.994669 1_445
Cu2 Cu3 2.554248 1_545
Cu2 Cu4 2.554248 1_445
Cu2 Cu3 2.566179 1_555
Cu2 Cu4 2.566179 1_555
Cu2 Yb2 2.967718 1_556
Cu2 Yb1 2.967718 1_555
Cu2 Yb3 3.027314 1_455
Cu2 Yb0 3.027314 1_455
Cu2 Yb3 3.027314 1_555
Cu2 Yb0 3.027314 1_555
Cu3 Cu4 2.554248 1_455
Cu3 Cu4 2.566179 1_555
Cu3 Yb2 2.967720 1_556
Cu3 Yb1 2.967720 1_555
Cu3 Yb3 3.027312 1_455
Cu3 Yb0 3.027312 1_455
Cu3 Yb3 3.027316 1_565
Cu3 Yb0 3.027316 1_565
Cu4 Yb2 2.967720 1_556
Cu4 Yb1 2.967720 1_555
Cu4 Yb3 3.027311 1_555
Cu4 Yb0 3.027311 1_555
Cu4 Yb3 3.027316 1_565
Cu4 Yb0 3.027316 1_565
Cu5 Cu6 2.554248 1_565
Cu5 Cu7 2.554248 1_665
Cu5 Cu6 2.566179 1_555
Cu5 Cu7 2.566179 1_555
Cu5 Yb0 2.967718 1_555
Cu5 Yb3 2.967718 1_554
Cu5 Yb1 3.027314 1_655
Cu5 Yb2 3.027314 1_655
Cu5 Yb1 3.027314 1_555
Cu5 Yb2 3.027314 1_555
Cu6 Cu7 2.554248 1_655
Cu6 Cu7 2.566179 1_555
Cu6 Yb0 2.967720 1_555
Cu6 Yb3 2.967720 1_554
Cu6 Yb1 3.027312 1_655
Cu6 Yb2 3.027312 1_655
Cu6 Yb1 3.027316 1_545
Cu6 Yb2 3.027316 1_545
Cu7 Yb0 2.967720 1_555
Cu7 Yb3 2.967720 1_554
Cu7 Yb1 3.027311 1_555
Cu7 Yb2 3.027311 1_555
Cu7 Yb1 3.027316 1_545
Cu7 Yb2 3.027316 1_545
