# generated using pymatgen
data_Li4Co7(OF7)2
_symmetry_space_group_name_H-M   'P 1'
_cell_length_a   6.05637100
_cell_length_b   6.19164738
_cell_length_c   10.46647897
_cell_angle_alpha   106.96038461
_cell_angle_beta   89.13423602
_cell_angle_gamma   119.16824496
_symmetry_Int_Tables_number   1
_chemical_formula_structural   Li4Co7(OF7)2
_chemical_formula_sum   'Li4 Co7 O2 F14'
_cell_volume   323.99063605
_cell_formula_units_Z   1
loop_
 _symmetry_equiv_pos_site_id
 _symmetry_equiv_pos_as_xyz
  1  'x, y, z'
loop_
 _atom_site_type_symbol
 _atom_site_label
 _atom_site_symmetry_multiplicity
 _atom_site_fract_x
 _atom_site_fract_y
 _atom_site_fract_z
 _atom_site_occupancy
  Li  Li0  1  0.46184200  0.58526500  0.32117500  1
  Li  Li1  1  0.03018900  0.88797100  0.18814200  1
  Li  Li2  1  0.53815800  0.41473500  0.67882500  1
  Li  Li3  1  0.96981100  0.11202900  0.81185800  1
  Co  Co0  1  0.50000000  0.00000000  0.00000000  1
  Co  Co1  1  0.74127500  0.26162200  0.24593600  1
  Co  Co2  1  0.00000000  0.50000000  0.00000000  1
  Co  Co3  1  0.00000000  0.00000000  0.50000000  1
  Co  Co4  1  0.50000000  0.50000000  0.00000000  1
  Co  Co5  1  0.00000000  0.50000000  0.50000000  1
  Co  Co6  1  0.25872500  0.73837800  0.75406400  1
  O  O0  1  0.16200200  0.42656300  0.89028800  1
  O  O1  1  0.83799800  0.57343700  0.10971200  1
  F  F0  1  0.14653000  0.88548800  0.87880700  1
  F  F1  1  0.37170100  0.10878700  0.12158500  1
  F  F2  1  0.90635200  0.14903300  0.61471800  1
  F  F3  1  0.66494900  0.91741600  0.36869800  1
  F  F4  1  0.61702100  0.35396700  0.87763700  1
  F  F5  1  0.38297900  0.64603300  0.12236300  1
  F  F6  1  0.65843800  0.39693100  0.37217800  1
  F  F7  1  0.11887900  0.37240500  0.37669600  1
  F  F8  1  0.62829900  0.89121300  0.87841500  1
  F  F9  1  0.88112100  0.62759500  0.62330400  1
  F  F10  1  0.34156200  0.60306900  0.62782200  1
  F  F11  1  0.85347000  0.11451200  0.12119300  1
  F  F12  1  0.33505100  0.08258400  0.63130200  1
  F  F13  1  0.09364800  0.85096700  0.38528200  1
loop_
_geom_bond_atom_site_label_1
_geom_bond_atom_site_label_2
_geom_bond_distance
_geom_bond_site_symmetry_2
Li1 O1 1.645594 1_455
Li3 O0 1.645594 1_655
Co0 F8 1.630059 1_544
Co0 F1 1.630059 1_555
Co0 F0 2.184570 1_544
Co0 F11 2.184570 1_555
Co1 F6 1.563097 1_555
Co1 F11 1.696665 1_555
Co1 F1 2.214541 1_555
Co1 F7 2.364604 1_655
Co1 O1 2.565493 1_555
Co2 O0 1.607536 1_554
Co2 O1 1.607536 1_455
Co2 F5 2.282011 1_555
Co2 F4 2.282011 1_454
Co3 F2 1.567799 1_455
Co3 F13 1.567799 1_545
Co3 F12 2.220497 1_555
Co3 F3 2.220497 1_445
Co4 F4 1.697546 1_554
Co4 F5 1.697546 1_555
Co4 O1 2.138890 1_555
Co4 O0 2.138890 1_554
Co5 F7 1.655162 1_555
Co5 F9 1.655162 1_455
Co5 F6 2.185185 1_455
Co5 F10 2.185185 1_555
Co6 F10 1.563097 1_555
Co6 F0 1.696665 1_555
Co6 F8 2.214541 1_555
Co6 F9 2.364604 1_455
Co6 O0 2.565493 1_555
F0 Li3 2.379787 1_465
F1 Li1 2.094802 1_545
F2 Li3 2.200744 1_555
F3 Li0 1.716328 1_555
F4 Li2 2.315526 1_555
F5 Li0 2.315526 1_555
F6 Li0 2.190472 1_555
F7 Li0 2.032490 1_555
F8 Li3 2.094802 1_565
F9 Li2 2.032490 1_555
F10 Li2 2.190472 1_555
F11 Li1 2.379787 1_645
F12 Li2 1.716328 1_555
F13 Li1 2.200744 1_555
