# generated using pymatgen
data_Li2Mn2P2(H4O5)3
_symmetry_space_group_name_H-M   'P 1'
_cell_length_a   4.83828100
_cell_length_b   11.54222967
_cell_length_c   12.12457236
_cell_angle_alpha   92.94755239
_cell_angle_beta   90.07430050
_cell_angle_gamma   102.09241233
_symmetry_Int_Tables_number   1
_chemical_formula_structural   Li2Mn2P2(H4O5)3
_chemical_formula_sum   'Li4 Mn4 P4 H24 O30'
_cell_volume   661.14090636
_cell_formula_units_Z   2
loop_
 _symmetry_equiv_pos_site_id
 _symmetry_equiv_pos_as_xyz
  1  'x, y, z'
loop_
 _atom_site_type_symbol
 _atom_site_label
 _atom_site_symmetry_multiplicity
 _atom_site_fract_x
 _atom_site_fract_y
 _atom_site_fract_z
 _atom_site_occupancy
  Li  Li0  1  0.22213700  0.21113100  0.92172000  1
  Li  Li1  1  0.98670400  0.21096200  0.42204200  1
  Li  Li2  1  0.01329600  0.78903800  0.57795800  1
  Li  Li3  1  0.77786300  0.78886900  0.07828000  1
  Mn  Mn0  1  0.42072400  0.49809200  0.87544600  1
  Mn  Mn1  1  0.92241500  0.50158600  0.62375700  1
  Mn  Mn2  1  0.07758500  0.49841400  0.37624300  1
  Mn  Mn3  1  0.57927600  0.50190800  0.12455400  1
  P  P0  1  0.80990300  0.32978000  0.78550800  1
  P  P1  1  0.52027000  0.33059200  0.28618900  1
  P  P2  1  0.47973000  0.66940800  0.71381100  1
  P  P3  1  0.19009700  0.67022000  0.21449200  1
  H  H0  1  0.46914000  0.03632800  0.85611800  1
  H  H1  1  0.83397600  0.06912900  0.76757600  1
  H  H2  1  0.56803100  0.03606600  0.35299600  1
  H  H3  1  0.02027200  0.17210000  0.62618400  1
  H  H4  1  0.24052500  0.07452400  0.26823700  1
  H  H5  1  0.14809700  0.16727800  0.12426600  1
  H  H6  1  0.32933700  0.22758900  0.59657500  1
  H  H7  1  0.89820900  0.22659700  0.09796700  1
  H  H8  1  0.90506400  0.53612500  0.92990600  1
  H  H9  1  0.36869400  0.46365100  0.57019600  1
  H  H10  1  0.63130600  0.53634900  0.42980400  1
  H  H11  1  0.09493600  0.46387500  0.07009400  1
  H  H12  1  0.10179100  0.77340300  0.90203300  1
  H  H13  1  0.67066300  0.77241100  0.40342500  1
  H  H14  1  0.85190300  0.83272200  0.87573400  1
  H  H15  1  0.75947500  0.92547600  0.73176300  1
  H  H16  1  0.97972800  0.82790000  0.37381600  1
  H  H17  1  0.43196900  0.96393400  0.64700400  1
  H  H18  1  0.22505100  0.98500600  0.93375700  1
  H  H19  1  0.16602400  0.93087100  0.23242400  1
  H  H20  1  0.23774300  0.01629700  0.56850000  1
  H  H21  1  0.53086000  0.96367200  0.14388200  1
  H  H22  1  0.76225700  0.98370300  0.43150000  1
  H  H23  1  0.77494900  0.01499400  0.06624300  1
  O  O0  1  0.33548600  0.06074600  0.90954600  1
  O  O1  1  0.72527100  0.05978500  0.40720300  1
  O  O2  1  0.16015100  0.17067800  0.56794600  1
  O  O3  1  0.92532100  0.22193600  0.81013700  1
  O  O4  1  0.00708900  0.16990100  0.06707600  1
  O  O5  1  0.73048100  0.33543700  0.66056800  1
  O  O6  1  0.29592200  0.22313200  0.31164100  1
  O  O7  1  0.54923600  0.34235300  0.85815000  1
  O  O8  1  0.60441900  0.33573000  0.16116800  1
  O  O9  1  0.79367700  0.34270400  0.35854700  1
  O  O10  1  0.04353400  0.44907900  0.80589000  1
  O  O11  1  0.18480700  0.43798100  0.53238100  1
  O  O12  1  0.40669600  0.44994300  0.30613500  1
  O  O13  1  0.74696400  0.56171100  0.96721800  1
  O  O14  1  0.25303600  0.43828900  0.03278200  1
  O  O15  1  0.59330400  0.55005700  0.69386500  1
  O  O16  1  0.81519300  0.56201900  0.46761900  1
  O  O17  1  0.95646600  0.55092100  0.19411000  1
  O  O18  1  0.20632300  0.65729600  0.64145300  1
  O  O19  1  0.39558100  0.66427000  0.83883200  1
  O  O20  1  0.45076400  0.65764700  0.14185000  1
  O  O21  1  0.70407800  0.77686800  0.68835900  1
  O  O22  1  0.26951900  0.66456300  0.33943200  1
  O  O23  1  0.99291100  0.83009900  0.93292400  1
  O  O24  1  0.07467900  0.77806400  0.18986300  1
  O  O25  1  0.83984900  0.82932200  0.43205400  1
  O  O26  1  0.27472900  0.94021500  0.59279700  1
  O  O27  1  0.68426100  0.99759900  0.75193000  1
  O  O28  1  0.66451400  0.93925400  0.09045400  1
  O  O29  1  0.31573900  0.00240100  0.24807000  1
loop_
_geom_bond_atom_site_label_1
_geom_bond_atom_site_label_2
_geom_bond_distance
_geom_bond_site_symmetry_2
Li0 O0 1.925660 1_555
Li0 O3 1.998889 1_455
Li0 O4 2.073299 1_556
Li0 O7 2.124056 1_555
Li1 O1 1.928584 1_555
Li1 O6 1.996556 1_655
Li1 O2 2.072220 1_655
Li1 O9 2.119106 1_555
Li2 O26 1.928584 1_555
Li2 O21 1.996556 1_455
Li2 O25 2.072220 1_455
Li2 O18 2.119106 1_555
Li3 O28 1.925660 1_555
Li3 O24 1.998889 1_655
Li3 O23 2.073299 1_554
Li3 O20 2.124056 1_555
Mn0 O13 1.922126 1_555
Mn0 O10 1.968778 1_555
Mn0 O19 2.018919 1_555
Mn0 O7 2.022800 1_555
Mn0 O14 2.162997 1_556
Mn0 O15 2.415514 1_555
Mn1 O11 1.920570 1_655
Mn1 O15 1.974568 1_555
Mn1 O5 2.020446 1_555
Mn1 O18 2.021927 1_655
Mn1 O16 2.150440 1_555
Mn1 O10 2.422871 1_655
Mn2 O16 1.920570 1_455
Mn2 O12 1.974568 1_555
Mn2 O22 2.020446 1_555
Mn2 O9 2.021927 1_455
Mn2 O11 2.150440 1_555
Mn2 O17 2.422871 1_455
Mn3 O14 1.922126 1_555
Mn3 O17 1.968778 1_555
Mn3 O8 2.018919 1_555
Mn3 O20 2.022800 1_555
Mn3 O13 2.162997 1_554
Mn3 O12 2.415514 1_555
H0 O0 0.987877 1_555
H1 O27 0.987572 1_545
H2 O1 0.989251 1_555
H3 O2 0.980605 1_555
H4 O29 0.995704 1_555
H4 O6 1.733524 1_555
H5 O4 0.978140 1_555
H6 O2 0.986186 1_555
H7 O4 0.982735 1_655
H8 O13 0.979182 1_555
H9 O11 0.981879 1_555
H10 O16 0.981879 1_555
H11 O14 0.979182 1_555
H12 O23 0.982735 1_455
H13 O25 0.986186 1_555
H14 O23 0.978140 1_555
H15 O27 0.995704 1_555
H15 O21 1.733524 1_555
H16 O25 0.980605 1_555
H17 O26 0.989251 1_555
H18 O0 0.983360 1_565
H19 O29 0.987572 1_565
H20 O26 0.991097 1_545
H21 O28 0.987877 1_555
H22 O1 0.991097 1_565
H23 O28 0.983360 1_545
O3 P0 1.509790 1_555
O5 P0 1.570303 1_555
O6 P1 1.512619 1_555
O7 P0 1.566455 1_555
O8 P1 1.570903 1_555
O9 P1 1.563958 1_555
O10 P0 1.595938 1_455
O12 P1 1.594176 1_555
O15 P2 1.594176 1_555
O17 P3 1.595938 1_655
O18 P2 1.563958 1_555
O19 P2 1.570903 1_555
O20 P3 1.566455 1_555
O21 P2 1.512619 1_555
O22 P3 1.570303 1_555
O24 P3 1.509790 1_555
