# generated using pymatgen
data_EuS2
_symmetry_space_group_name_H-M   'P 1'
_cell_length_a   4.03781180
_cell_length_b   7.92886844
_cell_length_c   8.38831089
_cell_angle_alpha   89.40115053
_cell_angle_beta   89.99787084
_cell_angle_gamma   89.99887889
_symmetry_Int_Tables_number   1
_chemical_formula_structural   EuS2
_chemical_formula_sum   'Eu4 S8'
_cell_volume   268.53944111
_cell_formula_units_Z   4
loop_
 _symmetry_equiv_pos_site_id
 _symmetry_equiv_pos_as_xyz
  1  'x, y, z'
loop_
 _atom_site_type_symbol
 _atom_site_label
 _atom_site_symmetry_multiplicity
 _atom_site_fract_x
 _atom_site_fract_y
 _atom_site_fract_z
 _atom_site_occupancy
  Eu  Eu0  1  0.26105350  0.37056179  0.29380739  1
  Eu  Eu1  1  0.76118622  0.12943488  0.70617412  1
  Eu  Eu2  1  0.73894650  0.62943821  0.70619261  1
  Eu  Eu3  1  0.23881378  0.87056512  0.29382588  1
  S  S0  1  0.83120595  0.40482340  0.00044760  1
  S  S1  1  0.33120833  0.09521259  0.99957442  1
  S  S2  1  0.16879405  0.59517660  0.99955240  1
  S  S3  1  0.66879167  0.90478741  0.00042558  1
  S  S4  1  0.25822861  0.37622119  0.63789206  1
  S  S5  1  0.75824456  0.12385001  0.36208003  1
  S  S6  1  0.74177139  0.62377881  0.36210794  1
  S  S7  1  0.24175544  0.87614999  0.63791997  1
loop_
_geom_bond_atom_site_label_1
_geom_bond_atom_site_label_2
_geom_bond_distance
_geom_bond_site_symmetry_2
Eu0 S6 2.855022 1_555
Eu0 S5 2.856800 1_555
Eu0 S5 2.872810 1_455
Eu0 S4 2.887129 1_555
Eu0 S6 2.963007 1_455
Eu0 S0 3.021272 1_455
Eu0 S2 3.051425 1_554
Eu0 S1 3.324275 1_554
Eu0 S0 3.378596 1_555
Eu1 S7 2.854830 1_645
Eu1 S4 2.856821 1_655
Eu1 S4 2.873627 1_555
Eu1 S5 2.887195 1_555
Eu1 S7 2.963805 1_545
Eu1 S1 3.021726 1_555
Eu1 S3 3.051603 1_546
Eu1 S0 3.324713 1_556
Eu1 S1 3.378579 1_655
Eu2 S4 2.855022 1_555
Eu2 S7 2.856800 1_555
Eu2 S7 2.872810 1_655
Eu2 S6 2.887129 1_555
Eu2 S4 2.963007 1_655
Eu2 S2 3.021272 1_655
Eu2 S0 3.051425 1_556
Eu2 S3 3.324275 1_556
Eu2 S2 3.378596 1_555
Eu3 S5 2.854830 1_465
Eu3 S6 2.856821 1_455
Eu3 S6 2.873627 1_555
Eu3 S7 2.887195 1_555
Eu3 S5 2.963805 1_565
Eu3 S3 3.021726 1_555
Eu3 S1 3.051603 1_564
Eu3 S2 3.324713 1_554
Eu3 S3 3.378579 1_455
S0 S2 2.033699 1_654
S1 S3 2.034072 1_546
