# generated using pymatgen
data_SrTh2Se5
_symmetry_space_group_name_H-M   'P 1'
_cell_length_a   7.95262790
_cell_length_b   8.78740642
_cell_length_c   12.65533523
_cell_angle_alpha   90.02803242
_cell_angle_beta   90.00000000
_cell_angle_gamma   90.00000000
_symmetry_Int_Tables_number   1
_chemical_formula_structural   SrTh2Se5
_chemical_formula_sum   'Sr4 Th8 Se20'
_cell_volume   884.39235045
_cell_formula_units_Z   4
loop_
 _symmetry_equiv_pos_site_id
 _symmetry_equiv_pos_as_xyz
  1  'x, y, z'
loop_
 _atom_site_type_symbol
 _atom_site_label
 _atom_site_symmetry_multiplicity
 _atom_site_fract_x
 _atom_site_fract_y
 _atom_site_fract_z
 _atom_site_occupancy
  Sr  Sr0  1  0.96589109  0.50556085  0.82582195  1
  Sr  Sr1  1  0.46589109  0.49443915  0.67417805  1
  Sr  Sr2  1  0.03410891  0.49443915  0.17417805  1
  Sr  Sr3  1  0.53410891  0.50556085  0.32582195  1
  Th  Th0  1  0.57383534  0.25180284  0.00825436  1
  Th  Th1  1  0.92616466  0.25180284  0.50825436  1
  Th  Th2  1  0.42616466  0.74819716  0.99174564  1
  Th  Th3  1  0.07383534  0.74819716  0.49174564  1
  Th  Th4  1  0.51780685  0.00206811  0.32047833  1
  Th  Th5  1  0.01780685  0.99793189  0.17952167  1
  Th  Th6  1  0.48219315  0.99793189  0.67952167  1
  Th  Th7  1  0.98219315  0.00206811  0.82047833  1
  Se  Se0  1  0.83961781  0.95750594  0.60136378  1
  Se  Se1  1  0.82830182  0.77497877  0.31491566  1
  Se  Se2  1  0.67169818  0.77497877  0.81491566  1
  Se  Se3  1  0.17169818  0.22502123  0.68508434  1
  Se  Se4  1  0.54287859  0.22184461  0.50174262  1
  Se  Se5  1  0.04287859  0.77815539  0.99825738  1
  Se  Se6  1  0.45712141  0.77815539  0.49825738  1
  Se  Se7  1  0.95712141  0.22184461  0.00174262  1
  Se  Se8  1  0.19733391  0.76441898  0.71669067  1
  Se  Se9  1  0.69733391  0.23558102  0.78330933  1
  Se  Se10  1  0.80266609  0.23558102  0.28330933  1
  Se  Se11  1  0.66038219  0.95750594  0.10136378  1
  Se  Se12  1  0.82840602  0.54087640  0.58924219  1
  Se  Se13  1  0.32840602  0.45912360  0.91075781  1
  Se  Se14  1  0.17159398  0.45912360  0.41075781  1
  Se  Se15  1  0.67159398  0.54087640  0.08924219  1
  Se  Se16  1  0.30266609  0.76441898  0.21669067  1
  Se  Se17  1  0.33961781  0.04249406  0.89863622  1
  Se  Se18  1  0.16038219  0.04249406  0.39863622  1
  Se  Se19  1  0.32830182  0.22502123  0.18508434  1
loop_
_geom_bond_atom_site_label_1
_geom_bond_atom_site_label_2
_geom_bond_distance
_geom_bond_site_symmetry_2
Se0 Th1 2.924571 1_565
Se0 Th3 2.962158 1_655
Se0 Th7 3.021133 1_565
Se0 Th6 3.030480 1_555
Se1 Th3 2.979367 1_655
Se1 Th5 3.008129 1_655
Se1 Th4 3.175554 1_565
Se1 Sr3 3.331383 1_555
Se1 Sr2 3.453122 1_655
Se2 Th2 2.979367 1_555
Se2 Th6 3.008129 1_555
Se2 Th7 3.175554 1_565
Se2 Sr0 3.331383 1_555
Se2 Sr1 3.453122 1_555
Se3 Th1 2.979367 1_455
Se3 Th7 3.008129 1_455
Se3 Th6 3.175554 1_545
Se3 Sr1 3.331383 1_555
Se3 Sr0 3.453122 1_455
Se4 Th4 3.004573 1_555
Se4 Th6 3.028297 1_545
Se4 Th1 3.060585 1_555
Se4 Sr1 3.296937 1_555
Se4 Sr3 3.344033 1_555
Se5 Th5 3.004573 1_556
Se5 Th7 3.028297 1_465
Se5 Th2 3.060585 1_555
Se5 Sr0 3.296937 1_455
Se5 Sr2 3.344033 1_556
Se6 Th6 3.004573 1_555
Se6 Th4 3.028297 1_565
Se6 Th3 3.060585 1_555
Se6 Sr3 3.296937 1_555
Se6 Sr1 3.344033 1_555
Se7 Th7 3.004573 1_554
Se7 Th5 3.028297 1_645
Se7 Th0 3.060585 1_555
Se7 Sr2 3.296937 1_655
Se7 Sr0 3.344033 1_554
Se8 Th7 3.001814 1_465
Se8 Th3 3.014719 1_555
Se8 Th6 3.092692 1_555
Se8 Sr0 3.236115 1_455
Se8 Sr1 3.236968 1_555
Se9 Th6 3.001814 1_545
Se9 Th0 3.014719 1_556
Se9 Th7 3.092692 1_555
Se9 Sr1 3.236115 1_555
Se9 Sr0 3.236968 1_555
Se10 Th5 3.001814 1_645
Se10 Th1 3.014719 1_555
Se10 Th4 3.092692 1_555
Se10 Sr2 3.236115 1_655
Se10 Sr3 3.236968 1_555
Se11 Th0 2.924571 1_565
Se11 Th2 2.962158 1_554
Se11 Th4 3.021133 1_565
Se11 Th5 3.030480 1_655
Se12 Th1 2.846927 1_555
Se12 Th3 2.941622 1_655
Se12 Sr1 3.103823 1_555
Se12 Sr0 3.202605 1_555
Se13 Th2 2.846927 1_555
Se13 Th0 2.941622 1_556
Se13 Sr0 3.103823 1_455
Se13 Sr1 3.202605 1_555
Se14 Th3 2.846927 1_555
Se14 Th1 2.941622 1_455
Se14 Sr3 3.103823 1_555
Se14 Sr2 3.202605 1_555
Se15 Th0 2.846927 1_555
Se15 Th2 2.941622 1_554
Se15 Sr2 3.103823 1_655
Se15 Sr3 3.202605 1_555
Se16 Th4 3.001814 1_565
Se16 Th2 3.014719 1_554
Se16 Th5 3.092692 1_555
Se16 Sr3 3.236115 1_555
Se16 Sr2 3.236968 1_555
Se17 Th2 2.924571 1_545
Se17 Th0 2.962158 1_556
Se17 Th6 3.021133 1_545
Se17 Th7 3.030480 1_455
Se18 Th3 2.924571 1_545
Se18 Th1 2.962158 1_455
Se18 Th5 3.021133 1_545
Se18 Th4 3.030480 1_555
Se19 Th0 2.979367 1_555
Se19 Th4 3.008129 1_555
Se19 Th5 3.175554 1_545
Se19 Sr2 3.331383 1_555
Se19 Sr3 3.453122 1_555
