# generated using pymatgen
data_CoH14SeN5O7
_symmetry_space_group_name_H-M   'P 1'
_cell_length_a   7.12781100
_cell_length_b   11.61020300
_cell_length_c   12.80266400
_cell_angle_alpha   90.00000000
_cell_angle_beta   90.00000000
_cell_angle_gamma   90.00000000
_symmetry_Int_Tables_number   1
_chemical_formula_structural   CoH14SeN5O7
_chemical_formula_sum   'Co4 H56 Se4 N20 O28'
_cell_volume   1059.48871820
_cell_formula_units_Z   4
loop_
 _symmetry_equiv_pos_site_id
 _symmetry_equiv_pos_as_xyz
  1  'x, y, z'
loop_
 _atom_site_type_symbol
 _atom_site_label
 _atom_site_symmetry_multiplicity
 _atom_site_fract_x
 _atom_site_fract_y
 _atom_site_fract_z
 _atom_site_occupancy
  Co  Co0  1  0.25000000  0.80317200  0.48926000  1
  Co  Co1  1  0.25000000  0.30317200  0.01074000  1
  Co  Co2  1  0.75000000  0.19682800  0.51074000  1
  Co  Co3  1  0.75000000  0.69682800  0.98926000  1
  H  H0  1  0.13298800  0.64439600  0.35240700  1
  H  H1  1  0.36701200  0.14439600  0.14759300  1
  H  H2  1  0.63298800  0.35560400  0.64759300  1
  H  H3  1  0.86701200  0.85560400  0.85240700  1
  H  H4  1  0.86701200  0.35560400  0.64759300  1
  H  H5  1  0.63298800  0.85560400  0.85240700  1
  H  H6  1  0.36701200  0.64439600  0.35240700  1
  H  H7  1  0.13298800  0.14439600  0.14759300  1
  H  H8  1  0.25000000  0.57658100  0.44378000  1
  H  H9  1  0.25000000  0.07658100  0.05622000  1
  H  H10  1  0.75000000  0.42341900  0.55622000  1
  H  H11  1  0.75000000  0.92341900  0.94378000  1
  H  H12  1  0.08684100  0.69912600  0.64673000  1
  H  H13  1  0.41315900  0.19912600  0.85327000  1
  H  H14  1  0.58684100  0.30087400  0.35327000  1
  H  H15  1  0.91315900  0.80087400  0.14673000  1
  H  H16  1  0.91315900  0.30087400  0.35327000  1
  H  H17  1  0.58684100  0.80087400  0.14673000  1
  H  H18  1  0.41315900  0.69912600  0.64673000  1
  H  H19  1  0.08684100  0.19912600  0.85327000  1
  H  H20  1  0.95376200  0.67058900  0.54206100  1
  H  H21  1  0.54623800  0.17058900  0.95793900  1
  H  H22  1  0.45376200  0.32941100  0.45793900  1
  H  H23  1  0.04623800  0.82941100  0.04206100  1
  H  H24  1  0.04623800  0.32941100  0.45793900  1
  H  H25  1  0.45376200  0.82941100  0.04206100  1
  H  H26  1  0.54623800  0.67058900  0.54206100  1
  H  H27  1  0.95376200  0.17058900  0.95793900  1
  H  H28  1  0.93633600  0.79738700  0.60250800  1
  H  H29  1  0.56366400  0.29738700  0.89749200  1
  H  H30  1  0.43633600  0.20261300  0.39749200  1
  H  H31  1  0.06366400  0.70261300  0.10250800  1
  H  H32  1  0.06366400  0.20261300  0.39749200  1
  H  H33  1  0.43633600  0.70261300  0.10250800  1
  H  H34  1  0.56366400  0.79738700  0.60250800  1
  H  H35  1  0.93633600  0.29738700  0.89749200  1
  H  H36  1  0.13399000  0.99456100  0.58203900  1
  H  H37  1  0.36601000  0.49456100  0.91796100  1
  H  H38  1  0.63399000  0.00543900  0.41796100  1
  H  H39  1  0.86601000  0.50543900  0.08203900  1
  H  H40  1  0.86601000  0.00543900  0.41796100  1
  H  H41  1  0.63399000  0.50543900  0.08203900  1
  H  H42  1  0.36601000  0.99456100  0.58203900  1
  H  H43  1  0.13399000  0.49456100  0.91796100  1
  H  H44  1  0.25000000  0.92249600  0.67224400  1
  H  H45  1  0.25000000  0.42249600  0.82775600  1
  H  H46  1  0.75000000  0.07750400  0.32775600  1
  H  H47  1  0.75000000  0.57750400  0.17224400  1
  H  H48  1  0.14043000  0.68030100  0.82674500  1
  H  H49  1  0.35957000  0.18030100  0.67325500  1
  H  H50  1  0.64043000  0.31969900  0.17325500  1
  H  H51  1  0.85957000  0.81969900  0.32674500  1
  H  H52  1  0.85957000  0.31969900  0.17325500  1
  H  H53  1  0.64043000  0.81969900  0.32674500  1
  H  H54  1  0.35957000  0.68030100  0.82674500  1
  H  H55  1  0.14043000  0.18030100  0.67325500  1
  Se  Se0  1  0.25000000  0.95308500  0.31527400  1
  Se  Se1  1  0.25000000  0.45308500  0.18472600  1
  Se  Se2  1  0.75000000  0.04691500  0.68472600  1
  Se  Se3  1  0.75000000  0.54691500  0.81527400  1
  N  N0  1  0.25000000  0.65043100  0.39880800  1
  N  N1  1  0.25000000  0.15043100  0.10119200  1
  N  N2  1  0.75000000  0.34956900  0.60119200  1
  N  N3  1  0.75000000  0.84956900  0.89880800  1
  N  N4  1  0.02922100  0.73349000  0.58019500  1
  N  N5  1  0.47077900  0.23349000  0.91980500  1
  N  N6  1  0.52922100  0.26651000  0.41980500  1
  N  N7  1  0.97077900  0.76651000  0.08019500  1
  N  N8  1  0.97077900  0.26651000  0.41980500  1
  N  N9  1  0.52922100  0.76651000  0.08019500  1
  N  N10  1  0.47077900  0.73349000  0.58019500  1
  N  N11  1  0.02922100  0.23349000  0.91980500  1
  N  N12  1  0.25000000  0.94352600  0.59418200  1
  N  N13  1  0.25000000  0.44352600  0.90581800  1
  N  N14  1  0.75000000  0.05647400  0.40581800  1
  N  N15  1  0.75000000  0.55647400  0.09418200  1
  N  N16  1  0.75000000  0.54554200  0.37562400  1
  N  N17  1  0.75000000  0.04554200  0.12437600  1
  N  N18  1  0.25000000  0.45445800  0.62437600  1
  N  N19  1  0.25000000  0.95445800  0.87562400  1
  O  O0  1  0.07306700  0.88257600  0.38981100  1
  O  O1  1  0.42693300  0.38257600  0.11018900  1
  O  O2  1  0.57306700  0.11742400  0.61018900  1
  O  O3  1  0.92693300  0.61742400  0.88981100  1
  O  O4  1  0.92693300  0.11742400  0.61018900  1
  O  O5  1  0.57306700  0.61742400  0.88981100  1
  O  O6  1  0.42693300  0.88257600  0.38981100  1
  O  O7  1  0.07306700  0.38257600  0.11018900  1
  O  O8  1  0.25000000  0.08937100  0.35834500  1
  O  O9  1  0.25000000  0.58937100  0.14165500  1
  O  O10  1  0.75000000  0.91062900  0.64165500  1
  O  O11  1  0.75000000  0.41062900  0.85834500  1
  O  O12  1  0.90369300  0.53172400  0.32841200  1
  O  O13  1  0.59630700  0.03172400  0.17158800  1
  O  O14  1  0.40369300  0.46827600  0.67158800  1
  O  O15  1  0.09630700  0.96827600  0.82841200  1
  O  O16  1  0.09630700  0.46827600  0.67158800  1
  O  O17  1  0.40369300  0.96827600  0.82841200  1
  O  O18  1  0.59630700  0.53172400  0.32841200  1
  O  O19  1  0.90369300  0.03172400  0.17158800  1
  O  O20  1  0.75000000  0.57245300  0.47308600  1
  O  O21  1  0.75000000  0.07245300  0.02691400  1
  O  O22  1  0.25000000  0.42754700  0.52691400  1
  O  O23  1  0.25000000  0.92754700  0.97308600  1
  O  O24  1  0.25000000  0.71731800  0.79398400  1
  O  O25  1  0.25000000  0.21731800  0.70601600  1
  O  O26  1  0.75000000  0.28268200  0.20601600  1
  O  O27  1  0.75000000  0.78268200  0.29398400  1
loop_
_geom_bond_atom_site_label_1
_geom_bond_atom_site_label_2
_geom_bond_distance
_geom_bond_site_symmetry_2
Co0 O6 2.015304 1_555
Co0 O0 2.015304 1_555
Co0 N12 2.111824 1_555
Co0 N0 2.117973 1_555
Co0 N10 2.118099 1_555
Co0 N4 2.118099 1_555
Co1 O7 2.015304 1_555
Co1 O1 2.015304 1_555
Co1 N13 2.111824 1_554
Co1 N1 2.117973 1_555
Co1 N5 2.118099 1_554
Co1 N11 2.118099 1_554
Co2 O4 2.015304 1_555
Co2 O2 2.015304 1_555
Co2 N14 2.111824 1_555
Co2 N2 2.117973 1_555
Co2 N8 2.118099 1_555
Co2 N6 2.118099 1_555
Co3 O3 2.015304 1_555
Co3 O5 2.015304 1_555
Co3 N15 2.111824 1_556
Co3 N3 2.117973 1_555
Co3 N9 2.118099 1_556
Co3 N7 2.118099 1_556
H0 N0 1.026369 1_555
H1 N1 1.026369 1_555
H2 N2 1.026369 1_555
H3 N3 1.026369 1_555
H4 N2 1.026369 1_555
H5 N3 1.026369 1_555
H6 N0 1.026369 1_555
H7 N1 1.026369 1_555
H8 N0 1.032792 1_555
H9 N1 1.032792 1_555
H10 N2 1.032792 1_555
H11 N3 1.032792 1_555
H12 N4 1.026384 1_555
H13 N5 1.026384 1_555
H14 N6 1.026384 1_555
H15 N7 1.026384 1_555
H16 N8 1.026384 1_555
H17 N9 1.026384 1_555
H18 N10 1.026384 1_555
H19 N11 1.026384 1_555
H20 N4 1.030036 1_655
H21 N5 1.030036 1_555
H22 N6 1.030036 1_555
H23 N7 1.030036 1_455
H24 N8 1.030036 1_455
H25 N9 1.030036 1_555
H26 N10 1.030036 1_555
H27 N11 1.030036 1_655
H28 N4 1.034548 1_655
H29 N5 1.034548 1_555
H30 N6 1.034548 1_555
H31 N7 1.034548 1_455
H32 N8 1.034548 1_455
H33 N9 1.034548 1_555
H34 N10 1.034548 1_555
H35 N11 1.034548 1_655
H36 N12 1.029085 1_555
H37 N13 1.029085 1_555
H38 N14 1.029085 1_555
H39 N15 1.029085 1_555
H40 N14 1.029085 1_555
H41 N15 1.029085 1_555
H42 N12 1.029085 1_555
H43 N13 1.029085 1_555
H44 N12 1.028795 1_555
H45 N13 1.028795 1_555
H46 N14 1.028795 1_555
H47 N15 1.028795 1_555
H48 O24 0.985179 1_555
H49 O25 0.985179 1_555
H50 O26 0.985179 1_555
H51 O27 0.985179 1_555
H52 O26 0.985179 1_555
H53 O27 0.985179 1_555
H54 O24 0.985179 1_555
H55 O25 0.985179 1_555
N16 O18 1.261425 1_555
N16 O12 1.261425 1_555
N16 O20 1.286296 1_555
N17 O19 1.261425 1_555
N17 O13 1.261425 1_555
N17 O21 1.286296 1_555
N18 O14 1.261425 1_555
N18 O16 1.261425 1_555
N18 O22 1.286296 1_555
N19 O15 1.261425 1_555
N19 O17 1.261425 1_555
N19 O23 1.286296 1_555
O0 Se0 1.780805 1_555
O1 Se1 1.780805 1_555
O2 Se2 1.780805 1_555
O3 Se3 1.780805 1_555
O4 Se2 1.780805 1_555
O5 Se3 1.780805 1_555
O6 Se0 1.780805 1_555
O7 Se1 1.780805 1_555
O8 Se0 1.675639 1_545
O9 Se1 1.675639 1_555
O10 Se2 1.675639 1_565
O11 Se3 1.675639 1_555
