# generated using pymatgen
data_Cs2Mn2Be3F12
_symmetry_space_group_name_H-M   'P 1'
_cell_length_a   10.53404700
_cell_length_b   10.53404700
_cell_length_c   10.53404700
_cell_angle_alpha   90.00000000
_cell_angle_beta   90.00000000
_cell_angle_gamma   90.00000000
_symmetry_Int_Tables_number   1
_chemical_formula_structural   Cs2Mn2Be3F12
_chemical_formula_sum   'Cs8 Mn8 Be12 F48'
_cell_volume   1168.92259946
_cell_formula_units_Z   4
loop_
 _symmetry_equiv_pos_site_id
 _symmetry_equiv_pos_as_xyz
  1  'x, y, z'
loop_
 _atom_site_type_symbol
 _atom_site_label
 _atom_site_symmetry_multiplicity
 _atom_site_fract_x
 _atom_site_fract_y
 _atom_site_fract_z
 _atom_site_occupancy
  Cs  Cs0  1  0.04830900  0.04830900  0.04830900  1
  Cs  Cs1  1  0.45169100  0.95169100  0.54830900  1
  Cs  Cs2  1  0.95169100  0.54830900  0.45169100  1
  Cs  Cs3  1  0.54830900  0.45169100  0.95169100  1
  Cs  Cs4  1  0.81592500  0.81592500  0.81592500  1
  Cs  Cs5  1  0.68407500  0.18407500  0.31592500  1
  Cs  Cs6  1  0.18407500  0.31592500  0.68407500  1
  Cs  Cs7  1  0.31592500  0.68407500  0.18407500  1
  Mn  Mn0  1  0.33514000  0.33514000  0.33514000  1
  Mn  Mn1  1  0.16486000  0.66486000  0.83514000  1
  Mn  Mn2  1  0.66486000  0.83514000  0.16486000  1
  Mn  Mn3  1  0.83514000  0.16486000  0.66486000  1
  Mn  Mn4  1  0.59858300  0.59858300  0.59858300  1
  Mn  Mn5  1  0.90141700  0.40141700  0.09858300  1
  Mn  Mn6  1  0.40141700  0.09858300  0.90141700  1
  Mn  Mn7  1  0.09858300  0.90141700  0.40141700  1
  Be  Be0  1  0.01971400  0.21511200  0.37567100  1
  Be  Be1  1  0.48028600  0.78488800  0.87567100  1
  Be  Be2  1  0.98028600  0.71511200  0.12432900  1
  Be  Be3  1  0.37567100  0.01971400  0.21511200  1
  Be  Be4  1  0.51971400  0.28488800  0.62432900  1
  Be  Be5  1  0.87567100  0.48028600  0.78488800  1
  Be  Be6  1  0.12432900  0.98028600  0.71511200  1
  Be  Be7  1  0.62432900  0.51971400  0.28488800  1
  Be  Be8  1  0.21511200  0.37567100  0.01971400  1
  Be  Be9  1  0.71511200  0.12432900  0.98028600  1
  Be  Be10  1  0.28488800  0.62432900  0.51971400  1
  Be  Be11  1  0.78488800  0.87567100  0.48028600  1
  F  F0  1  0.01470400  0.07299600  0.33312300  1
  F  F1  1  0.48529600  0.92700400  0.83312300  1
  F  F2  1  0.98529600  0.57299600  0.16687700  1
  F  F3  1  0.33312300  0.01470400  0.07299600  1
  F  F4  1  0.51470400  0.42700400  0.66687700  1
  F  F5  1  0.83312300  0.48529600  0.92700400  1
  F  F6  1  0.16687700  0.98529600  0.57299600  1
  F  F7  1  0.66687700  0.51470400  0.42700400  1
  F  F8  1  0.07299600  0.33312300  0.01470400  1
  F  F9  1  0.57299600  0.16687700  0.98529600  1
  F  F10  1  0.42700400  0.66687700  0.51470400  1
  F  F11  1  0.92700400  0.83312300  0.48529600  1
  F  F12  1  0.26767700  0.49920500  0.43979300  1
  F  F13  1  0.23232300  0.50079500  0.93979300  1
  F  F14  1  0.73232300  0.99920500  0.06020700  1
  F  F15  1  0.43979300  0.26767700  0.49920500  1
  F  F16  1  0.76767700  0.00079500  0.56020700  1
  F  F17  1  0.93979300  0.23232300  0.50079500  1
  F  F18  1  0.06020700  0.73232300  0.99920500  1
  F  F19  1  0.56020700  0.76767700  0.00079500  1
  F  F20  1  0.49920500  0.43979300  0.26767700  1
  F  F21  1  0.99920500  0.06020700  0.73232300  1
  F  F22  1  0.00079500  0.56020700  0.76767700  1
  F  F23  1  0.50079500  0.93979300  0.23232300  1
  F  F24  1  0.04421800  0.80167100  0.22877800  1
  F  F25  1  0.45578200  0.19832900  0.72877800  1
  F  F26  1  0.95578200  0.30167100  0.27122200  1
  F  F27  1  0.22877800  0.04421800  0.80167100  1
  F  F28  1  0.54421800  0.69832900  0.77122200  1
  F  F29  1  0.72877800  0.45578200  0.19832900  1
  F  F30  1  0.27122200  0.95578200  0.30167100  1
  F  F31  1  0.77122200  0.54421800  0.69832900  1
  F  F32  1  0.80167100  0.22877800  0.04421800  1
  F  F33  1  0.30167100  0.27122200  0.95578200  1
  F  F34  1  0.69832900  0.77122200  0.54421800  1
  F  F35  1  0.19832900  0.72877800  0.45578200  1
  F  F36  1  0.15899900  0.25834400  0.39913000  1
  F  F37  1  0.34100100  0.74165600  0.89913000  1
  F  F38  1  0.84100100  0.75834400  0.10087000  1
  F  F39  1  0.39913000  0.15899900  0.25834400  1
  F  F40  1  0.65899900  0.24165600  0.60087000  1
  F  F41  1  0.89913000  0.34100100  0.74165600  1
  F  F42  1  0.10087000  0.84100100  0.75834400  1
  F  F43  1  0.60087000  0.65899900  0.24165600  1
  F  F44  1  0.25834400  0.39913000  0.15899900  1
  F  F45  1  0.75834400  0.10087000  0.84100100  1
  F  F46  1  0.24165600  0.60087000  0.65899900  1
  F  F47  1  0.74165600  0.89913000  0.34100100  1
loop_
_geom_bond_atom_site_label_1
_geom_bond_atom_site_label_2
_geom_bond_distance
_geom_bond_site_symmetry_2
Cs0 F0 3.032228 1_555
Cs0 F3 3.032228 1_555
Cs0 F8 3.032228 1_555
Cs0 F32 3.219631 1_455
Cs0 F27 3.219631 1_554
Cs0 F24 3.219631 1_545
Cs0 F18 3.370894 1_544
Cs0 F14 3.370894 1_445
Cs0 F21 3.370894 1_454
Cs1 F6 3.032228 1_555
Cs1 F10 3.032228 1_555
Cs1 F1 3.032228 1_555
Cs1 F25 3.219631 1_565
Cs1 F30 3.219631 1_555
Cs1 F34 3.219631 1_555
Cs1 F23 3.370894 1_555
Cs1 F16 3.370894 1_565
Cs1 F15 3.370894 1_565
Cs2 F2 3.032228 1_555
Cs2 F7 3.032228 1_555
Cs2 F11 3.032228 1_555
Cs2 F35 3.219631 1_655
Cs2 F26 3.219631 1_555
Cs2 F31 3.219631 1_555
Cs2 F17 3.370894 1_555
Cs2 F22 3.370894 1_655
Cs2 F12 3.370894 1_655
Cs3 F9 3.032228 1_555
Cs3 F4 3.032228 1_555
Cs3 F5 3.032228 1_555
Cs3 F29 3.219631 1_556
Cs3 F33 3.219631 1_555
Cs3 F28 3.219631 1_555
Cs3 F13 3.370894 1_555
Cs3 F19 3.370894 1_556
Cs3 F20 3.370894 1_556
Cs4 F45 3.073669 1_565
Cs4 F42 3.073669 1_655
Cs4 F38 3.073669 1_556
Cs4 F28 3.154096 1_555
Cs4 F34 3.154096 1_555
Cs4 F31 3.154096 1_555
Cs4 F14 3.335395 1_556
Cs4 F21 3.335395 1_565
Cs4 F18 3.335395 1_655
Cs4 F16 3.362597 1_565
Cs4 F19 3.362597 1_556
Cs4 F22 3.362597 1_655
Cs5 F40 3.073669 1_555
Cs5 F47 3.073669 1_545
Cs5 F39 3.073669 1_555
Cs5 F26 3.154096 1_555
Cs5 F29 3.154096 1_555
Cs5 F32 3.154096 1_555
Cs5 F15 3.335395 1_555
Cs5 F23 3.335395 1_545
Cs5 F16 3.335395 1_555
Cs5 F14 3.362597 1_545
Cs5 F17 3.362597 1_555
Cs5 F20 3.362597 1_555
Cs6 F46 3.073669 1_555
Cs6 F41 3.073669 1_455
Cs6 F36 3.073669 1_555
Cs6 F33 3.154096 1_555
Cs6 F25 3.154096 1_555
Cs6 F27 3.154096 1_555
Cs6 F12 3.335395 1_555
Cs6 F17 3.335395 1_455
Cs6 F22 3.335395 1_555
Cs6 F21 3.362597 1_455
Cs6 F13 3.362597 1_555
Cs6 F15 3.362597 1_555
Cs7 F43 3.073669 1_555
Cs7 F37 3.073669 1_554
Cs7 F44 3.073669 1_555
Cs7 F30 3.154096 1_555
Cs7 F35 3.154096 1_555
Cs7 F24 3.154096 1_555
Cs7 F20 3.335395 1_555
Cs7 F13 3.335395 1_554
Cs7 F19 3.335395 1_555
Cs7 F23 3.362597 1_555
Cs7 F18 3.362597 1_554
Cs7 F12 3.362597 1_555
Be0 F36 1.556034 1_555
Be0 F0 1.563601 1_555
Be0 F17 1.574465 1_455
Be0 F26 1.579733 1_455
Be1 F37 1.556034 1_555
Be1 F1 1.563601 1_555
Be1 F19 1.574465 1_556
Be1 F28 1.579733 1_555
Be2 F38 1.556034 1_555
Be2 F2 1.563601 1_555
Be2 F18 1.574465 1_654
Be2 F24 1.579733 1_655
Be3 F39 1.556034 1_555
Be3 F3 1.563601 1_555
Be3 F23 1.574465 1_545
Be3 F30 1.579733 1_545
Be4 F40 1.556034 1_555
Be4 F4 1.563601 1_555
Be4 F15 1.574465 1_555
Be4 F25 1.579733 1_555
Be5 F41 1.556034 1_555
Be5 F5 1.563601 1_555
Be5 F22 1.574465 1_655
Be5 F31 1.579733 1_555
Be6 F42 1.556034 1_555
Be6 F6 1.563601 1_555
Be6 F21 1.574465 1_465
Be6 F27 1.579733 1_565
Be7 F43 1.556034 1_555
Be7 F7 1.563601 1_555
Be7 F20 1.574465 1_555
Be7 F29 1.579733 1_555
Be8 F44 1.556034 1_555
Be8 F8 1.563601 1_555
Be8 F13 1.574465 1_554
Be8 F33 1.579733 1_554
Be9 F45 1.556034 1_555
Be9 F9 1.563601 1_555
Be9 F14 1.574465 1_546
Be9 F32 1.579733 1_556
Be10 F46 1.556034 1_555
Be10 F10 1.563601 1_555
Be10 F12 1.574465 1_555
Be10 F35 1.579733 1_555
Be11 F47 1.556034 1_555
Be11 F11 1.563601 1_555
Be11 F16 1.574465 1_565
Be11 F34 1.579733 1_555
F0 Mn7 2.136597 1_545
F1 Mn6 2.136597 1_565
F2 Mn5 2.136597 1_555
F3 Mn6 2.136597 1_554
F4 Mn4 2.136597 1_555
F5 Mn5 2.136597 1_556
F6 Mn7 2.136597 1_555
F7 Mn4 2.136597 1_555
F8 Mn5 2.136597 1_455
F9 Mn6 2.136597 1_555
F10 Mn4 2.136597 1_555
F11 Mn7 2.136597 1_655
F12 Mn0 2.169626 1_555
F13 Mn1 2.169626 1_555
F14 Mn2 2.169626 1_555
F15 Mn0 2.169626 1_555
F16 Mn3 2.169626 1_555
F17 Mn3 2.169626 1_555
F18 Mn1 2.169626 1_555
F19 Mn2 2.169626 1_555
F20 Mn0 2.169626 1_555
F21 Mn3 2.169626 1_555
F22 Mn1 2.169626 1_555
F23 Mn2 2.169626 1_555
F24 Mn7 2.176984 1_555
F25 Mn6 2.176984 1_555
F26 Mn5 2.176984 1_555
F27 Mn6 2.176984 1_555
F28 Mn4 2.176984 1_555
F29 Mn5 2.176984 1_555
F30 Mn7 2.176984 1_555
F31 Mn4 2.176984 1_555
F32 Mn5 2.176984 1_555
F33 Mn6 2.176984 1_555
F34 Mn4 2.176984 1_555
F35 Mn7 2.176984 1_555
F36 Mn0 2.133450 1_555
F37 Mn1 2.133450 1_555
F38 Mn2 2.133450 1_555
F39 Mn0 2.133450 1_555
F40 Mn3 2.133450 1_555
F41 Mn3 2.133450 1_555
F42 Mn1 2.133450 1_555
F43 Mn2 2.133450 1_555
F44 Mn0 2.133450 1_555
F45 Mn3 2.133450 1_555
F46 Mn1 2.133450 1_555
F47 Mn2 2.133450 1_555
