# generated using pymatgen
data_TaAlFe4
_symmetry_space_group_name_H-M   'P 1'
_cell_length_a   4.77994269
_cell_length_b   4.77994269
_cell_length_c   7.69077800
_cell_angle_alpha   90.00000000
_cell_angle_beta   90.00000000
_cell_angle_gamma   120.00000958
_symmetry_Int_Tables_number   1
_chemical_formula_structural   TaAlFe4
_chemical_formula_sum   'Ta2 Al2 Fe8'
_cell_volume   152.17602815
_cell_formula_units_Z   2
loop_
 _symmetry_equiv_pos_site_id
 _symmetry_equiv_pos_as_xyz
  1  'x, y, z'
loop_
 _atom_site_type_symbol
 _atom_site_label
 _atom_site_symmetry_multiplicity
 _atom_site_fract_x
 _atom_site_fract_y
 _atom_site_fract_z
 _atom_site_occupancy
  Ta  Ta0  1  0.66666700  0.33333300  0.92342100  1
  Ta  Ta1  1  0.33333300  0.66666700  0.07657900  1
  Al  Al0  1  0.33333300  0.66666700  0.44429300  1
  Al  Al1  1  0.66666700  0.33333300  0.55570700  1
  Fe  Fe0  1  0.00000000  0.00000000  0.50000000  1
  Fe  Fe1  1  0.00000000  0.00000000  0.00000000  1
  Fe  Fe2  1  0.83053600  0.16946400  0.25160100  1
  Fe  Fe3  1  0.83053600  0.66107200  0.25160100  1
  Fe  Fe4  1  0.33892800  0.16946400  0.25160100  1
  Fe  Fe5  1  0.16946400  0.83053600  0.74839900  1
  Fe  Fe6  1  0.16946400  0.33892800  0.74839900  1
  Fe  Fe7  1  0.66107200  0.83053600  0.74839900  1
loop_
_geom_bond_atom_site_label_1
_geom_bond_atom_site_label_2
_geom_bond_distance
_geom_bond_site_symmetry_2
Ta0 Ta1 3.000565 1_546
Ta0 Ta1 3.000565 1_656
Ta0 Ta1 3.000573 1_556
Al0 Fe5 2.703820 1_555
Al0 Fe7 2.703822 1_555
Al0 Fe6 2.703822 1_555
Al0 Fe0 2.792756 1_565
Al0 Fe0 2.792760 1_555
Al0 Fe0 2.792760 1_665
Al0 Fe4 2.812235 1_565
Al0 Fe3 2.812235 1_455
Al0 Fe2 2.812237 1_565
Al0 Fe2 2.812237 1_455
Al0 Fe3 2.812239 1_555
Al0 Fe4 2.812239 1_555
Al0 Ta1 2.828007 1_555
Al0 Al1 2.889662 1_455
Al0 Al1 2.889662 1_565
Al0 Al1 2.889670 1_555
Al1 Fe2 2.703820 1_555
Al1 Fe4 2.703822 1_555
Al1 Fe3 2.703822 1_555
Al1 Fe0 2.792756 1_655
Al1 Fe0 2.792760 1_555
Al1 Fe0 2.792760 1_665
Al1 Fe6 2.812235 1_655
Al1 Fe7 2.812235 1_545
Al1 Fe5 2.812237 1_655
Al1 Fe5 2.812237 1_545
Al1 Fe7 2.812239 1_555
Al1 Fe6 2.812239 1_555
Al1 Ta0 2.828007 1_555
Fe0 Fe7 2.370231 1_445
Fe0 Fe6 2.370231 1_555
Fe0 Fe4 2.370231 1_555
Fe0 Fe3 2.370231 1_445
Fe0 Fe5 2.370231 1_545
Fe0 Fe2 2.370231 1_455
Fe1 Fe3 2.390124 1_445
Fe1 Fe4 2.390124 1_555
Fe1 Fe6 2.390124 1_554
Fe1 Fe7 2.390124 1_444
Fe1 Fe2 2.390124 1_455
Fe1 Fe5 2.390124 1_544
Fe1 Ta1 2.821844 1_545
Fe1 Ta0 2.821844 1_454
Fe1 Ta1 2.821847 1_555
Fe1 Ta1 2.821847 1_445
Fe1 Ta0 2.821847 1_554
Fe1 Ta0 2.821847 1_444
Fe2 Fe4 2.349858 1_555
Fe2 Fe3 2.349858 1_555
Fe2 Fe3 2.430085 1_545
Fe2 Fe4 2.430085 1_655
Fe2 Ta1 2.743057 1_545
Fe2 Ta1 2.743057 1_655
Fe2 Ta0 2.865480 1_554
Fe3 Fe4 2.349858 1_555
Fe3 Fe4 2.430084 1_665
Fe3 Ta1 2.743055 1_655
Fe3 Ta1 2.743060 1_555
Fe3 Ta0 2.865482 1_554
Fe4 Ta1 2.743055 1_545
Fe4 Ta1 2.743060 1_555
Fe4 Ta0 2.865482 1_554
Fe5 Fe6 2.349858 1_555
Fe5 Fe7 2.349858 1_555
Fe5 Fe7 2.430085 1_455
Fe5 Fe6 2.430085 1_565
Fe5 Ta0 2.743057 1_455
Fe5 Ta0 2.743057 1_565
Fe5 Ta1 2.865480 1_556
Fe6 Fe7 2.349858 1_555
Fe6 Fe7 2.430084 1_445
Fe6 Ta0 2.743055 1_455
Fe6 Ta0 2.743060 1_555
Fe6 Ta1 2.865482 1_556
Fe7 Ta0 2.743055 1_565
Fe7 Ta0 2.743060 1_555
Fe7 Ta1 2.865482 1_556
