# generated using pymatgen
data_Mg2ScMn3S8
_symmetry_space_group_name_H-M   'P 1'
_cell_length_a   7.36699580
_cell_length_b   7.36066192
_cell_length_c   7.36740226
_cell_angle_alpha   60.05863816
_cell_angle_beta   60.03895341
_cell_angle_gamma   60.03129859
_symmetry_Int_Tables_number   1
_chemical_formula_structural   Mg2ScMn3S8
_chemical_formula_sum   'Mg2 Sc1 Mn3 S8'
_cell_volume   282.76740475
_cell_formula_units_Z   1
loop_
 _symmetry_equiv_pos_site_id
 _symmetry_equiv_pos_as_xyz
  1  'x, y, z'
loop_
 _atom_site_type_symbol
 _atom_site_label
 _atom_site_symmetry_multiplicity
 _atom_site_fract_x
 _atom_site_fract_y
 _atom_site_fract_z
 _atom_site_occupancy
  Mg  Mg0  1  0.87495500  0.87465600  0.87504300  1
  Mg  Mg1  1  0.12503800  0.12533500  0.12496900  1
  Sc  Sc0  1  0.50001600  0.50006100  0.49990300  1
  Mn  Mn0  1  0.50003400  0.49997400  0.00000300  1
  Mn  Mn1  1  0.99999300  0.49998900  0.50001900  1
  Mn  Mn2  1  0.49999500  0.00000000  0.50002300  1
  S  S0  1  0.73845600  0.73865200  0.73873600  1
  S  S1  1  0.25297100  0.25336900  0.71872700  1
  S  S2  1  0.25321000  0.71835500  0.25316100  1
  S  S3  1  0.71878800  0.25339400  0.25290500  1
  S  S4  1  0.74676800  0.28164000  0.74683400  1
  S  S5  1  0.28120800  0.74659200  0.74711200  1
  S  S6  1  0.26153100  0.26133300  0.26128900  1
  S  S7  1  0.74704100  0.74664400  0.28127700  1
loop_
_geom_bond_atom_site_label_1
_geom_bond_atom_site_label_2
_geom_bond_distance
_geom_bond_site_symmetry_2
Mg0 S5 2.446425 1_655
Mg0 S7 2.447092 1_556
Mg0 S4 2.449106 1_565
Mg0 S0 2.457589 1_555
Mg1 S3 2.446407 1_455
Mg1 S1 2.447131 1_554
Mg1 S2 2.449089 1_545
Mg1 S6 2.457595 1_555
Mn0 S4 2.460308 1_554
Mn0 S2 2.460502 1_555
Mn0 S3 2.462553 1_555
Mn0 S5 2.462857 1_554
Mn0 S0 2.491371 1_554
Mn0 S6 2.491599 1_555
Mn1 S4 2.461621 1_555
Mn1 S2 2.461672 1_655
Mn1 S1 2.462647 1_655
Mn1 S7 2.462685 1_555
Mn1 S0 2.491877 1_555
Mn1 S6 2.491907 1_655
Mn2 S1 2.462973 1_555
Mn2 S7 2.463116 1_545
Mn2 S3 2.464582 1_555
Mn2 S5 2.464619 1_545
Mn2 S0 2.492439 1_545
Mn2 S6 2.492550 1_555
S1 Sc0 2.580185 1_555
S2 Sc0 2.580536 1_555
S3 Sc0 2.578904 1_555
S4 Sc0 2.581202 1_555
S5 Sc0 2.579296 1_555
S7 Sc0 2.579593 1_555
