# generated using pymatgen
data_Ba3Mo
_symmetry_space_group_name_H-M   'P 1'
_cell_length_a   6.21910455
_cell_length_b   6.21910455
_cell_length_c   6.21910455
_cell_angle_alpha   60.00000000
_cell_angle_beta   60.00000000
_cell_angle_gamma   60.00000000
_symmetry_Int_Tables_number   1
_chemical_formula_structural   Ba3Mo
_chemical_formula_sum   'Ba3 Mo1'
_cell_volume   170.08600309
_cell_formula_units_Z   1
loop_
 _symmetry_equiv_pos_site_id
 _symmetry_equiv_pos_as_xyz
  1  'x, y, z'
loop_
 _atom_site_type_symbol
 _atom_site_label
 _atom_site_symmetry_multiplicity
 _atom_site_fract_x
 _atom_site_fract_y
 _atom_site_fract_z
 _atom_site_occupancy
  Ba  Ba0  1  0.25000000  0.25000000  0.25000000  1
  Ba  Ba1  1  0.75000000  0.75000000  0.75000000  1
  Ba  Ba2  1  0.50000000  0.50000000  0.50000000  1
  Mo  Mo0  1  0.00000000  0.00000000  0.00000000  1
loop_
_geom_bond_atom_site_label_1
_geom_bond_atom_site_label_2
_geom_bond_distance
_geom_bond_site_symmetry_2
Ba0 Mo0 3.808408 1_565
Ba0 Ba2 3.808408 1_555
Ba0 Ba2 3.808408 1_554
Ba0 Mo0 3.808408 1_555
Ba0 Ba2 3.808408 1_545
Ba0 Mo0 3.808408 1_556
Ba0 Ba2 3.808408 1_455
Ba0 Mo0 3.808408 1_655
Ba1 Mo0 3.808408 1_665
Ba1 Mo0 3.808408 1_656
Ba1 Ba2 3.808408 1_555
Ba1 Ba2 3.808408 1_565
Ba1 Mo0 3.808408 1_666
Ba1 Ba2 3.808408 1_556
Ba1 Ba2 3.808408 1_655
Ba1 Mo0 3.808408 1_566
Ba2 Mo0 4.397571 1_566
Ba2 Mo0 4.397571 1_556
Ba2 Mo0 4.397571 1_565
Ba2 Mo0 4.397571 1_655
Ba2 Mo0 4.397571 1_665
Ba2 Mo0 4.397571 1_656
