# generated using pymatgen
data_BaNpO4
_symmetry_space_group_name_H-M   'P 1'
_cell_length_a   5.78227900
_cell_length_b   8.11699070
_cell_length_c   8.19200228
_cell_angle_alpha   90.00000000
_cell_angle_beta   90.00000000
_cell_angle_gamma   90.00000000
_symmetry_Int_Tables_number   1
_chemical_formula_structural   BaNpO4
_chemical_formula_sum   'Ba4 Np4 O16'
_cell_volume   384.48920929
_cell_formula_units_Z   4
loop_
 _symmetry_equiv_pos_site_id
 _symmetry_equiv_pos_as_xyz
  1  'x, y, z'
loop_
 _atom_site_type_symbol
 _atom_site_label
 _atom_site_symmetry_multiplicity
 _atom_site_fract_x
 _atom_site_fract_y
 _atom_site_fract_z
 _atom_site_occupancy
  Ba  Ba0  1  0.47794216  0.19637537  0.25000000  1
  Ba  Ba1  1  0.52205784  0.80362463  0.75000000  1
  Ba  Ba2  1  0.52205784  0.69637537  0.25000000  1
  Ba  Ba3  1  0.47794216  0.30362463  0.75000000  1
  Np  Np0  1  0.00000000  -0.00000000  0.00000000  1
  Np  Np1  1  0.00000000  -0.00000000  0.50000000  1
  Np  Np2  1  0.00000000  0.50000000  0.50000000  1
  Np  Np3  1  0.00000000  0.50000000  0.00000000  1
  O  O0  1  0.11682672  0.52482986  0.25000000  1
  O  O1  1  0.88317328  0.47517014  0.75000000  1
  O  O2  1  0.88317328  0.02482986  0.25000000  1
  O  O3  1  0.11682672  0.97517014  0.75000000  1
  O  O4  1  0.70566692  0.42577813  0.06741430  1
  O  O5  1  0.29433308  0.57422187  0.93258570  1
  O  O6  1  0.29433308  0.57422187  0.56741430  1
  O  O7  1  0.29433308  0.92577813  0.43258570  1
  O  O8  1  0.70566692  0.42577813  0.43258570  1
  O  O9  1  0.70566692  0.07422187  0.56741430  1
  O  O10  1  0.70566692  0.07422187  0.93258570  1
  O  O11  1  0.29433308  0.92577813  0.06741430  1
  O  O12  1  0.14412967  0.25000000  0.00000000  1
  O  O13  1  0.85587033  0.75000000  0.00000000  1
  O  O14  1  0.85587033  0.75000000  0.50000000  1
  O  O15  1  0.14412967  0.25000000  0.50000000  1
loop_
_geom_bond_atom_site_label_1
_geom_bond_atom_site_label_2
_geom_bond_distance
_geom_bond_site_symmetry_2
Ba0 O2 2.725668 1_555
Ba0 O8 2.727341 1_555
Ba0 O4 2.727341 1_555
Ba0 O12 2.847706 1_555
Ba0 O15 2.847706 1_555
Ba0 O7 2.861597 1_545
Ba0 O11 2.861597 1_545
Ba0 O9 3.078690 1_555
Ba0 O10 3.078690 1_554
Ba0 O0 3.386432 1_555
Ba1 O3 2.725668 1_555
Ba1 O5 2.727341 1_555
Ba1 O6 2.727341 1_555
Ba1 O14 2.847706 1_555
Ba1 O13 2.847706 1_556
Ba1 O10 2.861597 1_565
Ba1 O9 2.861597 1_565
Ba1 O11 3.078690 1_556
Ba1 O7 3.078690 1_555
Ba1 O1 3.386432 1_555
Ba2 O0 2.725668 1_555
Ba2 O7 2.727341 1_555
Ba2 O11 2.727341 1_555
Ba2 O13 2.847706 1_555
Ba2 O14 2.847706 1_555
Ba2 O8 2.861597 1_555
Ba2 O4 2.861597 1_555
Ba2 O6 3.078690 1_555
Ba2 O5 3.078690 1_554
Ba2 O2 3.386432 1_565
Ba3 O1 2.725668 1_555
Ba3 O10 2.727341 1_555
Ba3 O9 2.727341 1_555
Ba3 O15 2.847706 1_555
Ba3 O12 2.847706 1_556
Ba3 O5 2.861597 1_555
Ba3 O6 2.861597 1_555
Ba3 O4 3.078690 1_556
Ba3 O8 3.078690 1_555
Ba3 O3 3.386432 1_545
Np0 O10 1.887979 1_454
Np0 O11 1.887979 1_545
Np0 O3 2.165932 1_544
Np0 O2 2.165932 1_455
Np0 O13 2.193718 1_445
Np0 O12 2.193718 1_555
Np1 O9 1.887979 1_455
Np1 O7 1.887979 1_545
Np1 O3 2.165932 1_545
Np1 O2 2.165932 1_455
Np1 O14 2.193718 1_445
Np1 O15 2.193718 1_555
Np2 O6 1.887979 1_555
Np2 O8 1.887979 1_455
Np2 O0 2.165932 1_555
Np2 O1 2.165932 1_455
Np2 O14 2.193718 1_455
Np2 O15 2.193718 1_555
Np3 O4 1.887979 1_455
Np3 O5 1.887979 1_554
Np3 O1 2.165932 1_454
Np3 O0 2.165932 1_555
Np3 O13 2.193718 1_455
Np3 O12 2.193718 1_555
