# generated using pymatgen
data_K3DyF6
_symmetry_space_group_name_H-M   'P 1'
_cell_length_a   6.56833329
_cell_length_b   6.26656235
_cell_length_c   10.79023428
_cell_angle_alpha   55.93043121
_cell_angle_beta   90.00000000
_cell_angle_gamma   90.00000000
_symmetry_Int_Tables_number   1
_chemical_formula_structural   K3DyF6
_chemical_formula_sum   'K6 Dy2 F12'
_cell_volume   367.90313199
_cell_formula_units_Z   2
loop_
 _symmetry_equiv_pos_site_id
 _symmetry_equiv_pos_as_xyz
  1  'x, y, z'
loop_
 _atom_site_type_symbol
 _atom_site_label
 _atom_site_symmetry_multiplicity
 _atom_site_fract_x
 _atom_site_fract_y
 _atom_site_fract_z
 _atom_site_occupancy
  K  K0  1  0.50000000  0.50000000  0.00000000  1
  K  K1  1  -0.00000000  0.50000000  0.50000000  1
  K  K2  1  0.05860497  0.72522552  0.75518080  1
  K  K3  1  0.94139503  0.27477448  0.24481920  1
  K  K4  1  0.55860497  0.27477448  0.74481920  1
  K  K5  1  0.44139503  0.72522552  0.25518080  1
  Dy  Dy0  1  0.50000000  -0.00000000  0.50000000  1
  Dy  Dy1  1  -0.00000000  -0.00000000  0.00000000  1
  F  F0  1  0.77171051  0.75867447  0.57361680  1
  F  F1  1  0.22828949  0.24132553  0.42638320  1
  F  F2  1  0.27171051  0.24132553  0.92638320  1
  F  F3  1  0.72828949  0.75867447  0.07361680  1
  F  F4  1  0.43918517  0.89440151  0.72570124  1
  F  F5  1  0.56081483  0.10559849  0.27429876  1
  F  F6  1  0.93918517  0.10559849  0.77429876  1
  F  F7  1  0.06081483  0.89440151  0.22570124  1
  F  F8  1  0.32474626  0.66621821  0.55147710  1
  F  F9  1  0.67525374  0.33378179  0.44852290  1
  F  F10  1  0.82474626  0.33378179  0.94852290  1
  F  F11  1  0.17525374  0.66621821  0.05147710  1
loop_
_geom_bond_atom_site_label_1
_geom_bond_atom_site_label_2
_geom_bond_distance
_geom_bond_site_symmetry_2
Dy0 F8 2.169557 1_545
Dy0 F9 2.169557 1_555
Dy0 F4 2.173217 1_545
Dy0 F5 2.173217 1_555
Dy0 F1 2.181095 1_555
Dy0 F0 2.181095 1_545
Dy1 F11 2.169557 1_545
Dy1 F10 2.169557 1_454
Dy1 F7 2.173217 1_545
Dy1 F6 2.173217 1_454
Dy1 F3 2.181095 1_445
Dy1 F2 2.181095 1_554
F0 K1 2.636233 1_655
F0 K2 2.640648 1_655
F0 K4 2.879415 1_555
F1 K1 2.636233 1_555
F1 K3 2.640648 1_455
F1 K5 2.879415 1_555
F2 K0 2.636233 1_556
F2 K4 2.640648 1_555
F2 K2 2.879415 1_555
F3 K0 2.636233 1_555
F3 K5 2.640648 1_555
F3 K3 2.879415 1_555
F4 K0 2.613870 1_556
F4 K4 2.624963 1_565
F4 K2 2.663863 1_555
F5 K0 2.613870 1_555
F5 K5 2.624963 1_545
F5 K3 2.663863 1_555
F6 K1 2.613870 1_655
F6 K2 2.624963 1_645
F6 K4 2.663863 1_555
F7 K1 2.613870 1_555
F7 K3 2.624963 1_465
F7 K5 2.663863 1_555
F8 K1 2.567407 1_555
F8 K4 2.644876 1_555
F8 K2 2.989059 1_555
F8 K5 3.101730 1_555
F9 K1 2.567407 1_655
F9 K5 2.644876 1_555
F9 K3 2.989059 1_555
F9 K4 3.101730 1_555
F10 K0 2.567407 1_556
F10 K2 2.644876 1_655
F10 K4 2.989059 1_555
F10 K3 3.101730 1_556
F11 K0 2.567407 1_555
F11 K3 2.644876 1_455
F11 K5 2.989059 1_555
F11 K2 3.101730 1_554
