# generated using pymatgen
data_K2Na4Ca5(Si6O17)2
_symmetry_space_group_name_H-M   'P 1'
_cell_length_a   7.45436000
_cell_length_b   10.31260085
_cell_length_c   12.79594443
_cell_angle_alpha   111.28966864
_cell_angle_beta   90.00000000
_cell_angle_gamma   111.18742753
_symmetry_Int_Tables_number   1
_chemical_formula_structural   K2Na4Ca5(Si6O17)2
_chemical_formula_sum   'K2 Na4 Ca5 Si12 O34'
_cell_volume   844.78369366
_cell_formula_units_Z   1
loop_
 _symmetry_equiv_pos_site_id
 _symmetry_equiv_pos_as_xyz
  1  'x, y, z'
loop_
 _atom_site_type_symbol
 _atom_site_label
 _atom_site_symmetry_multiplicity
 _atom_site_fract_x
 _atom_site_fract_y
 _atom_site_fract_z
 _atom_site_occupancy
  K  K0  1  0.84188700  0.68377300  0.49958000  1
  K  K1  1  0.15874400  0.31748700  0.50166700  1
  Na  Na0  1  0.00131000  0.00262000  0.00105200  1
  Na  Na1  1  0.50051000  0.00102000  0.00299300  1
  Na  Na2  1  0.25693800  0.51387700  0.00941900  1
  Na  Na3  1  0.50346600  0.00693100  0.51882200  1
  Ca  Ca0  1  0.74414400  0.48828900  0.99324200  1
  Ca  Ca1  1  0.09116100  0.68112800  0.84525500  1
  Ca  Ca2  1  0.58996700  0.68112800  0.84525500  1
  Ca  Ca3  1  0.91299400  0.32089200  0.15708600  1
  Ca  Ca4  1  0.40789800  0.32089200  0.15708600  1
  Si  Si0  1  0.93410900  0.29216600  0.75144000  1
  Si  Si1  1  0.35805800  0.29216600  0.75144000  1
  Si  Si2  1  0.06343800  0.71364000  0.25276800  1
  Si  Si3  1  0.65020200  0.71364000  0.25276800  1
  Si  Si4  1  0.70093200  0.40186500  0.63264900  1
  Si  Si5  1  0.30075600  0.60151100  0.36819900  1
  Si  Si6  1  0.81000500  0.03738200  0.25119200  1
  Si  Si7  1  0.22737700  0.03738200  0.25119200  1
  Si  Si8  1  0.19068800  0.96435000  0.74889500  1
  Si  Si9  1  0.77366200  0.96435000  0.74889500  1
  Si  Si10  1  0.63401400  0.26802900  0.36951000  1
  Si  Si11  1  0.36694200  0.73388400  0.63058000  1
  O  O0  1  0.96475000  0.43765300  0.86379500  1
  O  O1  1  0.47290300  0.43765300  0.86379500  1
  O  O2  1  0.00750800  0.56393300  0.13935900  1
  O  O3  1  0.55642600  0.56393300  0.13935900  1
  O  O4  1  0.82833700  0.30091500  0.63964600  1
  O  O5  1  0.47257900  0.30091500  0.63964600  1
  O  O6  1  0.17339400  0.70158900  0.36099600  1
  O  O7  1  0.52819500  0.70158900  0.36099600  1
  O  O8  1  0.13883700  0.27767500  0.71072400  1
  O  O9  1  0.87078000  0.74156000  0.30442900  1
  O  O10  1  0.79103000  0.13188800  0.75730700  1
  O  O11  1  0.34085800  0.13188800  0.75730700  1
  O  O12  1  0.20876000  0.86890000  0.24073900  1
  O  O13  1  0.66014000  0.86890000  0.24073900  1
  O  O14  1  0.69800000  0.39599900  0.50185800  1
  O  O15  1  0.30293700  0.60587400  0.49889100  1
  O  O16  1  0.67694100  0.35388200  0.28415000  1
  O  O17  1  0.21473400  0.42946800  0.27992100  1
  O  O18  1  0.78738900  0.57477700  0.72004400  1
  O  O19  1  0.32499600  0.64999100  0.71701900  1
  O  O20  1  0.75887400  0.16104800  0.36234300  1
  O  O21  1  0.40217400  0.16104800  0.36234300  1
  O  O22  1  0.24401300  0.84217300  0.63747600  1
  O  O23  1  0.59816000  0.84217300  0.63747600  1
  O  O24  1  0.79851100  0.07068400  0.13972000  1
  O  O25  1  0.27217300  0.07068400  0.13972000  1
  O  O26  1  0.20148600  0.93099600  0.86024500  1
  O  O27  1  0.72951000  0.93099600  0.86024500  1
  O  O28  1  0.63636300  0.27272600  0.03905700  1
  O  O29  1  0.14289200  0.28578400  0.03933100  1
  O  O30  1  0.85823700  0.71647500  0.96239600  1
  O  O31  1  0.36757300  0.73514700  0.96034900  1
  O  O32  1  0.03124300  0.06248600  0.30046400  1
  O  O33  1  0.97009800  0.94019600  0.69913100  1
loop_
_geom_bond_atom_site_label_1
_geom_bond_atom_site_label_2
_geom_bond_distance
_geom_bond_site_symmetry_2
K0 O9 2.761357 1_555
K0 O33 2.774192 1_555
K0 O14 2.778572 1_555
K0 O22 3.022398 1_655
K0 O23 3.022404 1_555
K0 O6 3.032077 1_655
K0 O7 3.032083 1_555
K0 O16 3.294074 1_555
K0 O18 3.370362 1_555
K1 O32 2.779232 1_555
K1 O15 2.787010 1_555
K1 O8 2.846077 1_555
K1 O21 3.016854 1_555
K1 O20 3.016860 1_455
K1 O5 3.021181 1_555
K1 O4 3.021181 1_455
Na0 O25 2.406051 1_555
Na0 O24 2.406051 1_455
Na0 O27 2.418431 1_444
Na0 O26 2.418431 1_544
Na0 O29 2.571905 1_555
Na0 O30 2.599055 1_444
Na1 O31 2.397293 1_544
Na1 O28 2.469740 1_555
Na1 O24 2.538779 1_555
Na1 O25 2.538779 1_555
Na1 O26 2.589430 1_544
Na1 O27 2.589430 1_544
Na2 O29 2.368657 1_555
Na2 O31 2.441611 1_554
Na2 O0 2.555957 1_454
Na2 O1 2.555963 1_554
Na2 O2 2.561001 1_555
Na2 O3 2.561012 1_555
Na3 O23 2.903549 1_545
Na3 O22 2.903552 1_545
Na3 O4 2.955605 1_555
Na3 O5 2.955605 1_555
Ca0 O28 2.363541 1_556
Ca0 O30 2.375803 1_555
Ca0 O1 2.390236 1_555
Ca0 O0 2.390242 1_555
Ca0 O3 2.406726 1_556
Ca0 O2 2.406736 1_656
Ca1 O31 2.302036 1_555
Ca1 O30 2.335621 1_455
Ca1 O26 2.337147 1_555
Ca1 O18 2.413773 1_455
Ca1 O19 2.419916 1_555
Ca1 O0 2.443555 1_455
Ca2 O31 2.302042 1_555
Ca2 O30 2.335615 1_555
Ca2 O27 2.337147 1_555
Ca2 O18 2.413779 1_555
Ca2 O19 2.419910 1_555
Ca2 O1 2.443555 1_555
Ca3 O29 2.321799 1_655
Ca3 O24 2.329703 1_555
Ca3 O28 2.344108 1_555
Ca3 O17 2.384327 1_655
Ca3 O16 2.426238 1_555
Ca3 O2 2.442584 1_655
Ca4 O29 2.321799 1_555
Ca4 O25 2.329703 1_555
Ca4 O28 2.344108 1_555
Ca4 O17 2.384327 1_555
Ca4 O16 2.426238 1_555
Ca4 O3 2.442585 1_555
O0 Si0 1.598777 1_555
O1 Si1 1.598776 1_555
O2 Si2 1.603456 1_555
O3 Si3 1.603455 1_555
O4 Si4 1.666181 1_555
O4 Si0 1.679678 1_555
O5 Si4 1.666169 1_555
O5 Si1 1.679678 1_555
O6 Si5 1.659025 1_555
O6 Si2 1.674448 1_555
O7 Si5 1.659019 1_555
O7 Si3 1.674448 1_555
O8 Si0 1.652610 1_455
O8 Si1 1.652624 1_555
O9 Si2 1.656224 1_655
O9 Si3 1.656224 1_555
O10 Si0 1.640435 1_555
O10 Si9 1.648253 1_545
O11 Si1 1.640433 1_555
O11 Si8 1.648253 1_545
O12 Si2 1.638913 1_555
O12 Si7 1.647106 1_565
O13 Si3 1.638913 1_555
O13 Si6 1.647106 1_565
O14 Si4 1.652447 1_555
O14 Si10 1.661079 1_555
O15 Si11 1.655057 1_555
O15 Si5 1.656442 1_555
O16 Si10 1.605229 1_555
O17 Si5 1.599154 1_555
O18 Si4 1.602151 1_555
O19 Si11 1.602808 1_555
O20 Si10 1.661521 1_555
O20 Si6 1.681902 1_555
O21 Si10 1.661515 1_555
O21 Si7 1.681902 1_555
O22 Si11 1.662154 1_555
O22 Si8 1.683969 1_555
O23 Si11 1.662154 1_555
O23 Si9 1.683969 1_555
O24 Si6 1.592754 1_555
O25 Si7 1.592754 1_555
O26 Si8 1.590858 1_555
O27 Si9 1.590858 1_555
O32 Si7 1.660483 1_555
O32 Si6 1.660483 1_455
O33 Si9 1.661382 1_555
O33 Si8 1.661382 1_655
