# generated using pymatgen
data_CaLaMn2O6
_symmetry_space_group_name_H-M   'P 1'
_cell_length_a   5.54656900
_cell_length_b   7.64861200
_cell_length_c   11.02222600
_cell_angle_alpha   90.00000000
_cell_angle_beta   90.00000000
_cell_angle_gamma   90.00000000
_symmetry_Int_Tables_number   1
_chemical_formula_structural   CaLaMn2O6
_chemical_formula_sum   'Ca4 La4 Mn8 O24'
_cell_volume   467.60200225
_cell_formula_units_Z   4
loop_
 _symmetry_equiv_pos_site_id
 _symmetry_equiv_pos_as_xyz
  1  'x, y, z'
loop_
 _atom_site_type_symbol
 _atom_site_label
 _atom_site_symmetry_multiplicity
 _atom_site_fract_x
 _atom_site_fract_y
 _atom_site_fract_z
 _atom_site_occupancy
  Ca  Ca0  1  0.49685800  0.50000000  0.38348900  1
  Ca  Ca1  1  0.50314200  0.00000000  0.88348900  1
  Ca  Ca2  1  0.99580200  0.00000000  0.11317400  1
  Ca  Ca3  1  0.00419800  0.50000000  0.61317400  1
  La  La0  1  0.48478600  0.50000000  0.86736800  1
  La  La1  1  0.51521400  0.00000000  0.36736800  1
  La  La2  1  0.99259300  0.00000000  0.62770700  1
  La  La3  1  0.00740700  0.50000000  0.12770700  1
  Mn  Mn0  1  0.01067900  0.25158600  0.37142600  1
  Mn  Mn1  1  0.01067900  0.74841400  0.37142600  1
  Mn  Mn2  1  0.98932100  0.24841400  0.87142600  1
  Mn  Mn3  1  0.98932100  0.75158600  0.87142600  1
  Mn  Mn4  1  0.50583400  0.24826700  0.12203600  1
  Mn  Mn5  1  0.50583400  0.75173300  0.12203600  1
  Mn  Mn6  1  0.49416600  0.25173300  0.62203600  1
  Mn  Mn7  1  0.49416600  0.74826700  0.62203600  1
  O  O0  1  0.25412700  0.29490200  0.49706800  1
  O  O1  1  0.25412700  0.70509800  0.49706800  1
  O  O2  1  0.74587300  0.20509800  0.99706800  1
  O  O3  1  0.74587300  0.79490200  0.99706800  1
  O  O4  1  0.27782500  0.29557600  0.25324400  1
  O  O5  1  0.27782500  0.70442400  0.25324400  1
  O  O6  1  0.72217500  0.20442400  0.75324400  1
  O  O7  1  0.72217500  0.79557600  0.75324400  1
  O  O8  1  0.21949100  0.28937700  0.74181200  1
  O  O9  1  0.21949100  0.71062300  0.74181200  1
  O  O10  1  0.78050900  0.21062300  0.24181200  1
  O  O11  1  0.78050900  0.78937700  0.24181200  1
  O  O12  1  0.75939400  0.21393000  0.49498500  1
  O  O13  1  0.75939400  0.78607000  0.49498500  1
  O  O14  1  0.24060600  0.28607000  0.99498500  1
  O  O15  1  0.24060600  0.71393000  0.99498500  1
  O  O16  1  0.42703200  0.00000000  0.60618900  1
  O  O17  1  0.57296800  0.50000000  0.10618900  1
  O  O18  1  0.57766800  0.50000000  0.63149000  1
  O  O19  1  0.42233200  0.00000000  0.13149000  1
  O  O20  1  0.07552700  0.00000000  0.86351200  1
  O  O21  1  0.92447300  0.50000000  0.36351200  1
  O  O22  1  0.91795500  0.50000000  0.87922700  1
  O  O23  1  0.08204500  0.00000000  0.37922700  1
loop_
_geom_bond_atom_site_label_1
_geom_bond_atom_site_label_2
_geom_bond_distance
_geom_bond_site_symmetry_2
Ca0 O21 2.381995 1_555
Ca0 O0 2.416753 1_555
Ca0 O1 2.416753 1_555
Ca0 O5 2.445726 1_555
Ca0 O4 2.445726 1_555
Ca0 O18 2.770027 1_555
Ca0 O12 2.901419 1_555
Ca0 O13 2.901419 1_555
Ca1 O20 2.381995 1_555
Ca1 O2 2.416753 1_555
Ca1 O3 2.416753 1_545
Ca1 O6 2.445726 1_555
Ca1 O7 2.445726 1_545
Ca1 O19 2.770027 1_556
Ca1 O15 2.901419 1_545
Ca1 O14 2.901419 1_555
Ca2 O19 2.374376 1_655
Ca2 O2 2.453631 1_554
Ca2 O3 2.453631 1_544
Ca2 O10 2.455927 1_555
Ca2 O11 2.455927 1_545
Ca2 O20 2.787134 1_654
Ca2 O14 2.885868 1_654
Ca2 O15 2.885868 1_644
Ca3 O18 2.374376 1_455
Ca3 O0 2.453631 1_555
Ca3 O1 2.453631 1_555
Ca3 O8 2.455927 1_555
Ca3 O9 2.455927 1_555
Ca3 O21 2.787134 1_455
Ca3 O12 2.885868 1_455
Ca3 O13 2.885868 1_455
La0 O22 2.406155 1_555
La0 O14 2.547598 1_555
La0 O15 2.547598 1_555
La0 O8 2.583733 1_555
La0 O9 2.583733 1_555
La0 O18 2.650451 1_555
La0 O17 2.677393 1_556
La0 O7 2.902925 1_555
La0 O6 2.902925 1_555
La0 O2 3.037844 1_555
La0 O3 3.037844 1_555
La0 O22 3.146683 1_455
La1 O23 2.406155 1_555
La1 O13 2.547598 1_545
La1 O12 2.547598 1_555
La1 O10 2.583733 1_555
La1 O11 2.583733 1_545
La1 O19 2.650451 1_555
La1 O16 2.677393 1_555
La1 O4 2.902925 1_555
La1 O5 2.902925 1_545
La1 O1 3.037844 1_545
La1 O0 3.037844 1_555
La1 O23 3.146683 1_655
La2 O16 2.421290 1_655
La2 O13 2.547636 1_545
La2 O12 2.547636 1_555
La2 O6 2.570800 1_555
La2 O7 2.570800 1_545
La2 O20 2.639488 1_655
La2 O23 2.783380 1_655
La2 O9 2.839800 1_645
La2 O8 2.839800 1_655
La2 O1 3.043909 1_645
La2 O0 3.043909 1_655
La2 O16 3.145877 1_555
La3 O17 2.421290 1_455
La3 O14 2.547636 1_554
La3 O15 2.547636 1_554
La3 O5 2.570800 1_555
La3 O4 2.570800 1_555
La3 O21 2.639488 1_455
La3 O22 2.783380 1_454
La3 O11 2.839800 1_455
La3 O10 2.839800 1_455
La3 O3 3.043909 1_454
La3 O2 3.043909 1_454
La3 O17 3.145877 1_555
Mn0 O10 1.941393 1_455
Mn0 O21 1.961203 1_455
Mn0 O0 1.962371 1_555
Mn0 O23 1.966456 1_555
Mn0 O12 1.969849 1_455
Mn0 O4 2.001403 1_555
Mn1 O11 1.941393 1_455
Mn1 O21 1.961203 1_455
Mn1 O1 1.962371 1_555
Mn1 O23 1.966456 1_565
Mn1 O13 1.969849 1_455
Mn1 O5 2.001403 1_555
Mn2 O8 1.941393 1_655
Mn2 O20 1.961203 1_655
Mn2 O2 1.962371 1_555
Mn2 O22 1.966456 1_555
Mn2 O14 1.969849 1_655
Mn2 O6 2.001403 1_555
Mn3 O9 1.941393 1_655
Mn3 O20 1.961203 1_665
Mn3 O3 1.962371 1_555
Mn3 O22 1.966456 1_555
Mn3 O15 1.969849 1_655
Mn3 O7 2.001403 1_555
Mn4 O2 1.943947 1_554
Mn4 O4 1.954949 1_555
Mn4 O19 1.957340 1_555
Mn4 O17 1.968847 1_555
Mn4 O10 2.036391 1_555
Mn4 O14 2.051544 1_554
Mn5 O3 1.943947 1_554
Mn5 O5 1.954949 1_555
Mn5 O19 1.957340 1_565
Mn5 O17 1.968847 1_555
Mn5 O11 2.036391 1_555
Mn5 O15 2.051544 1_554
Mn6 O0 1.943947 1_555
Mn6 O6 1.954949 1_555
Mn6 O18 1.957340 1_555
Mn6 O16 1.968847 1_555
Mn6 O8 2.036391 1_555
Mn6 O12 2.051544 1_555
Mn7 O1 1.943947 1_555
Mn7 O7 1.954949 1_555
Mn7 O18 1.957340 1_555
Mn7 O16 1.968847 1_565
Mn7 O9 2.036391 1_555
Mn7 O13 2.051544 1_555
