# generated using pymatgen
data_Tb(VFe5)2
_symmetry_space_group_name_H-M   'P 1'
_cell_length_a   4.67769400
_cell_length_b   6.42359023
_cell_length_c   6.42359023
_cell_angle_alpha   97.32977180
_cell_angle_beta   111.35237611
_cell_angle_gamma   68.64762389
_symmetry_Int_Tables_number   1
_chemical_formula_structural   Tb(VFe5)2
_chemical_formula_sum   'Tb1 V2 Fe10'
_cell_volume   167.42268438
_cell_formula_units_Z   1
loop_
 _symmetry_equiv_pos_site_id
 _symmetry_equiv_pos_as_xyz
  1  'x, y, z'
loop_
 _atom_site_type_symbol
 _atom_site_label
 _atom_site_symmetry_multiplicity
 _atom_site_fract_x
 _atom_site_fract_y
 _atom_site_fract_z
 _atom_site_occupancy
  Tb  Tb0  1  0.00000000  0.00000000  0.00000000  1
  V  V0  1  0.00000000  0.35912200  0.35912200  1
  V  V1  1  0.00000000  0.64087800  0.64087800  1
  Fe  Fe0  1  0.72499100  0.77500900  0.22499100  1
  Fe  Fe1  1  0.27500900  0.22499100  0.77500900  1
  Fe  Fe2  1  0.50000000  0.77148300  0.77148300  1
  Fe  Fe3  1  0.50000000  0.22851700  0.22851700  1
  Fe  Fe4  1  0.50000000  0.00000000  0.50000000  1
  Fe  Fe5  1  0.00000000  0.00000000  0.50000000  1
  Fe  Fe6  1  0.50000000  0.50000000  0.00000000  1
  Fe  Fe7  1  0.00000000  0.50000000  0.00000000  1
  Fe  Fe8  1  0.64130100  0.35869900  0.64130100  1
  Fe  Fe9  1  0.35869900  0.64130100  0.35869900  1
loop_
_geom_bond_atom_site_label_1
_geom_bond_atom_site_label_2
_geom_bond_distance
_geom_bond_site_symmetry_2
Tb0 V0 3.047177 1_555
Tb0 V1 3.047177 1_544
V0 V1 2.390721 1_555
Fe0 Fe6 2.431429 1_555
Fe0 Fe4 2.431429 1_565
Fe0 Fe7 2.431429 1_655
Fe0 Fe5 2.431429 1_665
Fe0 Fe9 2.596655 1_555
Fe0 Fe9 2.596655 1_655
Fe0 V0 2.609919 1_655
Fe0 V1 2.609919 1_655
Fe0 Fe3 2.713391 1_565
Fe0 Fe2 2.713391 1_554
Fe0 Tb0 3.012148 1_565
Fe0 Tb0 3.012148 1_665
Fe1 Fe5 2.431429 1_555
Fe1 Fe4 2.431429 1_555
Fe1 Fe7 2.431429 1_556
Fe1 Fe6 2.431429 1_556
Fe1 Fe8 2.596655 1_455
Fe1 Fe8 2.596655 1_555
Fe1 V1 2.609919 1_555
Fe1 V0 2.609919 1_555
Fe1 Fe3 2.713391 1_556
Fe1 Fe2 2.713391 1_545
Fe1 Tb0 3.012148 1_656
Fe1 Tb0 3.012148 1_556
Fe2 Fe5 2.418486 1_565
Fe2 Fe6 2.418486 1_556
Fe2 Fe7 2.418486 1_656
Fe2 Fe4 2.418486 1_565
Fe2 V1 2.588107 1_655
Fe2 V1 2.588107 1_555
Fe2 Fe9 2.593721 1_555
Fe2 Fe8 2.593721 1_555
Fe2 Tb0 3.038069 1_566
Fe2 Tb0 3.038069 1_666
Fe3 Fe4 2.418486 1_555
Fe3 Fe5 2.418486 1_655
Fe3 Fe7 2.418486 1_555
Fe3 Fe6 2.418486 1_555
Fe3 V0 2.588107 1_655
Fe3 V0 2.588107 1_555
Fe3 Fe8 2.593721 1_555
Fe3 Fe9 2.593721 1_555
Fe3 Tb0 3.038069 1_555
Fe3 Tb0 3.038069 1_655
Fe4 Fe5 2.338847 1_655
Fe4 Fe5 2.338847 1_555
Fe4 V1 2.583245 1_645
Fe4 V0 2.583245 1_555
Fe4 Fe9 2.590033 1_545
Fe4 Fe8 2.590033 1_555
Fe4 Tb0 3.211795 1_656
Fe4 Tb0 3.211795 1_555
Fe5 V1 2.583245 1_545
Fe5 V0 2.583245 1_555
Fe5 Fe8 2.590033 1_455
Fe5 Fe9 2.590033 1_545
Fe5 Tb0 3.211795 1_555
Fe5 Tb0 3.211795 1_556
Fe6 Fe7 2.338847 1_555
Fe6 Fe7 2.338847 1_655
Fe6 V1 2.583245 1_554
Fe6 V0 2.583245 1_655
Fe6 Fe9 2.590033 1_555
Fe6 Fe8 2.590033 1_554
Fe6 Tb0 3.211795 1_655
Fe6 Tb0 3.211795 1_565
Fe7 V1 2.583245 1_554
Fe7 V0 2.583245 1_555
Fe7 Fe8 2.590033 1_454
Fe7 Fe9 2.590033 1_555
Fe7 Tb0 3.211795 1_555
Fe7 Tb0 3.211795 1_565
Fe8 Fe9 2.384142 1_555
Fe8 V1 2.884463 1_555
Fe8 V0 2.884463 1_655
Fe8 V1 2.884463 1_655
Fe8 V0 2.884463 1_555
Fe8 Tb0 3.026126 1_656
Fe9 V1 2.884463 1_555
Fe9 V0 2.884463 1_655
Fe9 V1 2.884463 1_655
Fe9 V0 2.884463 1_555
Fe9 Tb0 3.026126 1_565
