# generated using pymatgen
data_LiSm2SO2
_symmetry_space_group_name_H-M   'P 1'
_cell_length_a   3.65875900
_cell_length_b   3.65875904
_cell_length_c   8.47128300
_cell_angle_alpha   90.00000000
_cell_angle_beta   90.00000000
_cell_angle_gamma   120.00000866
_symmetry_Int_Tables_number   1
_chemical_formula_structural   LiSm2SO2
_chemical_formula_sum   'Li1 Sm2 S1 O2'
_cell_volume   98.20811984
_cell_formula_units_Z   1
loop_
 _symmetry_equiv_pos_site_id
 _symmetry_equiv_pos_as_xyz
  1  'x, y, z'
loop_
 _atom_site_type_symbol
 _atom_site_label
 _atom_site_symmetry_multiplicity
 _atom_site_fract_x
 _atom_site_fract_y
 _atom_site_fract_z
 _atom_site_occupancy
  Li  Li0  1  0.00000000  0.00000000  0.50000000  1
  Sm  Sm0  1  0.33333300  0.66666700  0.21425700  1
  Sm  Sm1  1  0.66666700  0.33333300  0.78574300  1
  S  S0  1  0.00000000  0.00000000  0.00000000  1
  O  O0  1  0.33333300  0.66666700  0.65021700  1
  O  O1  1  0.66666700  0.33333300  0.34978300  1
loop_
_geom_bond_atom_site_label_1
_geom_bond_atom_site_label_2
_geom_bond_distance
_geom_bond_site_symmetry_2
Li0 O1 2.466069 1_455
Li0 O0 2.466069 1_545
Li0 O0 2.466072 1_445
Li0 O1 2.466072 1_555
Li0 O1 2.466072 1_445
Li0 O0 2.466072 1_555
S0 Sm1 2.785050 1_454
S0 Sm0 2.785050 1_545
S0 Sm0 2.785052 1_445
S0 Sm1 2.785052 1_554
S0 Sm0 2.785052 1_555
S0 Sm1 2.785052 1_444
O0 Sm1 2.404215 1_455
O0 Sm1 2.404215 1_565
O0 Sm1 2.404221 1_555
O1 Sm0 2.404215 1_655
O1 Sm0 2.404215 1_545
O1 Sm0 2.404221 1_555
