# generated using pymatgen
data_NiAsPd
_symmetry_space_group_name_H-M   'P 1'
_cell_length_a   6.18456989
_cell_length_b   6.18456989
_cell_length_c   3.74621578
_cell_angle_alpha   90.00000000
_cell_angle_beta   90.00000000
_cell_angle_gamma   119.99999821
_symmetry_Int_Tables_number   1
_chemical_formula_structural   NiAsPd
_chemical_formula_sum   'Ni3 As3 Pd3'
_cell_volume   124.09161370
_cell_formula_units_Z   3
loop_
 _symmetry_equiv_pos_site_id
 _symmetry_equiv_pos_as_xyz
  1  'x, y, z'
loop_
 _atom_site_type_symbol
 _atom_site_label
 _atom_site_symmetry_multiplicity
 _atom_site_fract_x
 _atom_site_fract_y
 _atom_site_fract_z
 _atom_site_occupancy
  Ni  Ni0  1  -0.00000000  0.75068054  -0.00000000  1
  Ni  Ni1  1  0.24931946  0.24931946  -0.00000000  1
  Ni  Ni2  1  0.75068054  -0.00000000  0.00000000  1
  As  As0  1  0.33333300  0.66666700  -0.00000000  1
  As  As1  1  0.66666700  0.33333300  -0.00000000  1
  As  As2  1  -0.00000000  0.00000000  0.50000000  1
  Pd  Pd0  1  0.00000000  0.41050803  0.50000000  1
  Pd  Pd1  1  0.58949197  0.58949197  0.50000000  1
  Pd  Pd2  1  0.41050803  0.00000000  0.50000000  1
loop_
_geom_bond_atom_site_label_1
_geom_bond_atom_site_label_2
_geom_bond_distance
_geom_bond_site_symmetry_2
Ni0 Pd0 2.816841 1_554
Ni0 Pd0 2.816841 1_555
Ni0 Pd1 2.901205 1_455
Ni0 Pd1 2.901205 1_454
Ni0 Pd2 2.901205 1_564
Ni0 Pd2 2.901205 1_565
Ni1 Pd1 2.816841 1_554
Ni1 Pd1 2.816841 1_555
Ni1 Pd0 2.901205 1_555
Ni1 Pd0 2.901205 1_554
Ni1 Pd2 2.901205 1_555
Ni1 Pd2 2.901205 1_554
Ni2 Pd2 2.816841 1_555
Ni2 Pd2 2.816841 1_554
Ni2 Pd1 2.901205 1_544
Ni2 Pd1 2.901205 1_545
Ni2 Pd0 2.901205 1_654
Ni2 Pd0 2.901205 1_655
As0 Ni0 2.364526 1_555
As0 Ni2 2.364530 1_565
As0 Ni1 2.364532 1_555
As0 Pd2 2.646178 1_564
As0 Pd2 2.646178 1_565
As0 Pd0 2.646180 1_555
As0 Pd0 2.646180 1_554
As0 Pd1 2.646183 1_555
As0 Pd1 2.646183 1_554
As1 Ni2 2.364526 1_555
As1 Ni0 2.364530 1_655
As1 Ni1 2.364532 1_555
As1 Pd0 2.646178 1_654
As1 Pd0 2.646178 1_655
As1 Pd2 2.646180 1_554
As1 Pd2 2.646180 1_555
As1 Pd1 2.646183 1_555
As1 Pd1 2.646183 1_554
As2 Ni0 2.426127 1_546
As2 Ni2 2.426127 1_456
As2 Ni0 2.426127 1_545
As2 Ni2 2.426127 1_455
As2 Ni1 2.426127 1_555
As2 Ni1 2.426127 1_556
As2 Pd0 2.538816 1_555
As2 Pd2 2.538816 1_555
As2 Pd1 2.538816 1_445
