# generated using pymatgen
data_Si2O3
_symmetry_space_group_name_H-M   'P 1'
_cell_length_a   11.01437425
_cell_length_b   11.01437425
_cell_length_c   14.38517666
_cell_angle_alpha   53.63761352
_cell_angle_beta   53.63761352
_cell_angle_gamma   48.62494159
_symmetry_Int_Tables_number   1
_chemical_formula_structural   Si2O3
_chemical_formula_sum   'Si20 O30'
_cell_volume   994.52327709
_cell_formula_units_Z   10
loop_
 _symmetry_equiv_pos_site_id
 _symmetry_equiv_pos_as_xyz
  1  'x, y, z'
loop_
 _atom_site_type_symbol
 _atom_site_label
 _atom_site_symmetry_multiplicity
 _atom_site_fract_x
 _atom_site_fract_y
 _atom_site_fract_z
 _atom_site_occupancy
  Si  Si0  1  0.28000100  0.73155000  0.63394900  1
  Si  Si1  1  0.26845000  0.71999900  0.86605100  1
  Si  Si2  1  0.71999900  0.26845000  0.36605100  1
  Si  Si3  1  0.73155000  0.28000100  0.13394900  1
  Si  Si4  1  0.90206400  0.76634000  0.78113600  1
  Si  Si5  1  0.23366000  0.09793600  0.71886400  1
  Si  Si6  1  0.09793600  0.23366000  0.21886400  1
  Si  Si7  1  0.76634000  0.90206400  0.28113600  1
  Si  Si8  1  0.63052900  0.16536100  0.72825700  1
  Si  Si9  1  0.83463900  0.36947100  0.77174300  1
  Si  Si10  1  0.36947100  0.83463900  0.27174300  1
  Si  Si11  1  0.16536100  0.63052900  0.22825700  1
  Si  Si12  1  0.62625400  0.15366900  0.95608700  1
  Si  Si13  1  0.84633100  0.37374600  0.54391300  1
  Si  Si14  1  0.37374600  0.84633100  0.04391300  1
  Si  Si15  1  0.15366900  0.62625400  0.45608700  1
  Si  Si16  1  0.89397200  0.75006600  0.01339900  1
  Si  Si17  1  0.24993400  0.10602800  0.48660100  1
  Si  Si18  1  0.10602800  0.24993400  0.98660100  1
  Si  Si19  1  0.75006600  0.89397200  0.51339900  1
  O  O0  1  0.08838000  0.75829000  0.68089600  1
  O  O1  1  0.24171000  0.91162000  0.81910400  1
  O  O2  1  0.91162000  0.24171000  0.31910400  1
  O  O3  1  0.75829000  0.08838000  0.18089600  1
  O  O4  1  0.75029900  0.96149000  0.73715800  1
  O  O5  1  0.03851000  0.24970100  0.76284200  1
  O  O6  1  0.24970100  0.03851000  0.26284200  1
  O  O7  1  0.96149000  0.75029900  0.23715800  1
  O  O8  1  0.74566600  0.26333900  0.61519300  1
  O  O9  1  0.73666100  0.25433400  0.88480700  1
  O  O10  1  0.25433400  0.73666100  0.38480700  1
  O  O11  1  0.26333900  0.74566600  0.11519300  1
  O  O12  1  0.75238400  0.94777600  0.01500700  1
  O  O13  1  0.05222400  0.24761600  0.48499300  1
  O  O14  1  0.24761600  0.05222400  0.98499300  1
  O  O15  1  0.94777600  0.75238400  0.51500700  1
  O  O16  1  0.28005800  0.91467300  0.53012300  1
  O  O17  1  0.08532700  0.71994200  0.96987700  1
  O  O18  1  0.71994200  0.08532700  0.46987700  1
  O  O19  1  0.91467300  0.28005800  0.03012300  1
  O  O20  1  0.31837000  0.68163000  0.75000000  1
  O  O21  1  0.68163000  0.31837000  0.25000000  1
  O  O22  1  0.88730500  0.71701000  0.91900600  1
  O  O23  1  0.28299000  0.11269500  0.58099400  1
  O  O24  1  0.11269500  0.28299000  0.08099400  1
  O  O25  1  0.71701000  0.88730500  0.41900600  1
  O  O26  1  0.57235200  0.17943900  0.85801100  1
  O  O27  1  0.82056100  0.42764800  0.64198900  1
  O  O28  1  0.42764800  0.82056100  0.14198900  1
  O  O29  1  0.17943900  0.57235200  0.35801100  1
loop_
_geom_bond_atom_site_label_1
_geom_bond_atom_site_label_2
_geom_bond_distance
_geom_bond_site_symmetry_2
O0 Si4 1.643364 1_455
O0 Si0 1.649644 1_555
O1 Si5 1.643364 1_565
O1 Si1 1.649644 1_555
O2 Si6 1.643364 1_655
O2 Si2 1.649644 1_555
O3 Si7 1.643364 1_545
O3 Si3 1.649644 1_555
O4 Si4 1.645076 1_555
O4 Si8 1.655995 1_565
O5 Si5 1.645076 1_555
O5 Si9 1.655995 1_455
O6 Si6 1.645076 1_555
O6 Si10 1.655995 1_545
O7 Si7 1.645076 1_555
O7 Si11 1.655995 1_655
O8 Si8 1.643252 1_555
O8 Si13 1.647823 1_555
O9 Si9 1.643252 1_555
O9 Si12 1.647823 1_555
O10 Si10 1.643252 1_555
O10 Si15 1.647823 1_555
O11 Si11 1.643252 1_555
O11 Si14 1.647823 1_555
O12 Si16 1.643844 1_555
O12 Si12 1.656316 1_564
O13 Si17 1.643844 1_555
O13 Si13 1.656316 1_455
O14 Si18 1.643844 1_555
O14 Si14 1.656316 1_546
O15 Si19 1.643844 1_555
O15 Si15 1.656316 1_655
O16 Si17 1.643602 1_565
O16 Si0 1.651472 1_555
O17 Si16 1.643602 1_456
O17 Si1 1.651472 1_555
O18 Si19 1.643602 1_545
O18 Si2 1.651472 1_555
O19 Si18 1.643602 1_654
O19 Si3 1.651472 1_555
O20 Si0 1.645852 1_555
O20 Si1 1.645852 1_555
O21 Si3 1.645852 1_555
O21 Si2 1.645852 1_555
O22 Si4 1.646733 1_555
O22 Si16 1.649712 1_556
O23 Si5 1.646733 1_555
O23 Si17 1.649712 1_555
O24 Si6 1.646733 1_555
O24 Si18 1.649712 1_554
O25 Si7 1.646733 1_555
O25 Si19 1.649712 1_555
O26 Si8 1.646874 1_555
O26 Si12 1.648974 1_555
O27 Si9 1.646874 1_555
O27 Si13 1.648974 1_555
O28 Si10 1.646874 1_555
O28 Si14 1.648974 1_555
O29 Si11 1.646874 1_555
O29 Si15 1.648974 1_555
