# generated using pymatgen
data_MgFe2P2O9
_symmetry_space_group_name_H-M   'P 1'
_cell_length_a   6.31523100
_cell_length_b   7.38181100
_cell_length_c   14.23509200
_cell_angle_alpha   90.00000000
_cell_angle_beta   90.00000000
_cell_angle_gamma   90.00000000
_symmetry_Int_Tables_number   1
_chemical_formula_structural   MgFe2P2O9
_chemical_formula_sum   'Mg4 Fe8 P8 O36'
_cell_volume   663.60926492
_cell_formula_units_Z   4
loop_
 _symmetry_equiv_pos_site_id
 _symmetry_equiv_pos_as_xyz
  1  'x, y, z'
loop_
 _atom_site_type_symbol
 _atom_site_label
 _atom_site_symmetry_multiplicity
 _atom_site_fract_x
 _atom_site_fract_y
 _atom_site_fract_z
 _atom_site_occupancy
  Mg  Mg0  1  0.75000000  0.92280100  0.77340200  1
  Mg  Mg1  1  0.75000000  0.57719900  0.27340200  1
  Mg  Mg2  1  0.25000000  0.42280100  0.72659800  1
  Mg  Mg3  1  0.25000000  0.07719900  0.22659800  1
  Fe  Fe0  1  0.75000000  0.35755800  0.88142200  1
  Fe  Fe1  1  0.25000000  0.64244200  0.11857800  1
  Fe  Fe2  1  0.25000000  0.85755800  0.61857800  1
  Fe  Fe3  1  0.75000000  0.14244200  0.38142200  1
  Fe  Fe4  1  0.50000000  0.00000000  0.00000000  1
  Fe  Fe5  1  0.50000000  0.50000000  0.50000000  1
  Fe  Fe6  1  0.00000000  0.50000000  0.50000000  1
  Fe  Fe7  1  0.00000000  0.00000000  0.00000000  1
  P  P0  1  0.25000000  0.36368200  0.92670500  1
  P  P1  1  0.75000000  0.63631800  0.07329500  1
  P  P2  1  0.75000000  0.86368200  0.57329500  1
  P  P3  1  0.25000000  0.13631800  0.42670500  1
  P  P4  1  0.75000000  0.38269300  0.69519200  1
  P  P5  1  0.75000000  0.11730700  0.19519200  1
  P  P6  1  0.25000000  0.88269300  0.80480800  1
  P  P7  1  0.25000000  0.61730700  0.30480800  1
  O  O0  1  0.04004700  0.60701300  0.36327800  1
  O  O1  1  0.54004700  0.39298700  0.63672200  1
  O  O2  1  0.95995300  0.10701300  0.13672200  1
  O  O3  1  0.45995300  0.89298700  0.86327800  1
  O  O4  1  0.95995300  0.39298700  0.63672200  1
  O  O5  1  0.45995300  0.60701300  0.36327800  1
  O  O6  1  0.04004700  0.89298700  0.86327800  1
  O  O7  1  0.54004700  0.10701300  0.13672200  1
  O  O8  1  0.25000000  0.32512000  0.47532600  1
  O  O9  1  0.75000000  0.67488000  0.52467400  1
  O  O10  1  0.75000000  0.82512000  0.02467400  1
  O  O11  1  0.25000000  0.17488000  0.97532600  1
  O  O12  1  0.75000000  0.12964900  0.94981500  1
  O  O13  1  0.25000000  0.87035100  0.05018500  1
  O  O14  1  0.25000000  0.62964900  0.55018500  1
  O  O15  1  0.75000000  0.37035100  0.44981500  1
  O  O16  1  0.75000000  0.20328900  0.75355400  1
  O  O17  1  0.25000000  0.79671100  0.24644600  1
  O  O18  1  0.25000000  0.70328900  0.74644600  1
  O  O19  1  0.75000000  0.29671100  0.25355400  1
  O  O20  1  0.43775000  0.12358400  0.35766200  1
  O  O21  1  0.93775000  0.87641600  0.64233800  1
  O  O22  1  0.56225000  0.62358400  0.14233800  1
  O  O23  1  0.06225000  0.37641600  0.85766200  1
  O  O24  1  0.56225000  0.87641600  0.64233800  1
  O  O25  1  0.06225000  0.12358400  0.35766200  1
  O  O26  1  0.43775000  0.37641600  0.85766200  1
  O  O27  1  0.93775000  0.62358400  0.14233800  1
  O  O28  1  0.75000000  0.49274400  0.99725800  1
  O  O29  1  0.25000000  0.03868600  0.73217300  1
  O  O30  1  0.25000000  0.46131400  0.23217300  1
  O  O31  1  0.75000000  0.53868600  0.76782700  1
  O  O32  1  0.75000000  0.00725600  0.49725800  1
  O  O33  1  0.25000000  0.99274400  0.50274200  1
  O  O34  1  0.25000000  0.50725600  0.00274200  1
  O  O35  1  0.75000000  0.96131400  0.26782700  1
loop_
_geom_bond_atom_site_label_1
_geom_bond_atom_site_label_2
_geom_bond_distance
_geom_bond_site_symmetry_2
Mg0 O16 2.089698 1_565
Mg0 O24 2.236952 1_555
Mg0 O21 2.236952 1_555
Mg0 O6 2.245096 1_655
Mg0 O3 2.245096 1_555
Mg1 O19 2.089698 1_555
Mg1 O22 2.236952 1_555
Mg1 O27 2.236952 1_555
Mg1 O0 2.245096 1_655
Mg1 O5 2.245096 1_555
Mg2 O18 2.089698 1_555
Mg2 O26 2.236952 1_555
Mg2 O23 2.236952 1_555
Mg2 O1 2.245096 1_555
Mg2 O4 2.245096 1_455
Mg3 O17 2.089698 1_545
Mg3 O25 2.236952 1_555
Mg3 O20 2.236952 1_555
Mg3 O7 2.245096 1_555
Mg3 O2 2.245096 1_455
Fe0 O28 1.927389 1_555
Fe0 O12 1.943776 1_555
Fe0 O23 2.005564 1_655
Fe0 O26 2.005564 1_555
Fe0 O31 2.098217 1_555
Fe0 O16 2.147092 1_555
Fe1 O34 1.927389 1_555
Fe1 O13 1.943776 1_555
Fe1 O22 2.005564 1_555
Fe1 O27 2.005564 1_455
Fe1 O30 2.098217 1_555
Fe1 O17 2.147092 1_555
Fe2 O33 1.927389 1_555
Fe2 O14 1.943776 1_555
Fe2 O24 2.005564 1_555
Fe2 O21 2.005564 1_455
Fe2 O29 2.098217 1_565
Fe2 O18 2.147092 1_555
Fe3 O32 1.927389 1_555
Fe3 O15 1.943776 1_555
Fe3 O25 2.005564 1_655
Fe3 O20 2.005564 1_555
Fe3 O35 2.098217 1_545
Fe3 O19 2.147092 1_555
Fe4 O13 1.979626 1_545
Fe4 O12 1.979626 1_554
Fe4 O11 2.069421 1_554
Fe4 O10 2.069421 1_545
Fe4 O7 2.115626 1_555
Fe4 O3 2.115626 1_544
Fe5 O15 1.979626 1_555
Fe5 O14 1.979626 1_555
Fe5 O8 2.069421 1_555
Fe5 O9 2.069421 1_555
Fe5 O1 2.115626 1_555
Fe5 O5 2.115626 1_555
Fe6 O15 1.979626 1_455
Fe6 O14 1.979626 1_555
Fe6 O9 2.069421 1_455
Fe6 O8 2.069421 1_555
Fe6 O4 2.115626 1_455
Fe6 O0 2.115626 1_555
Fe7 O13 1.979626 1_545
Fe7 O12 1.979626 1_454
Fe7 O11 2.069421 1_554
Fe7 O10 2.069421 1_445
Fe7 O2 2.115626 1_455
Fe7 O6 2.115626 1_544
O0 P7 1.567340 1_555
O1 P4 1.567340 1_555
O2 P5 1.567340 1_555
O3 P6 1.567340 1_555
O4 P4 1.567340 1_555
O5 P7 1.567340 1_555
O6 P6 1.567340 1_555
O7 P5 1.567340 1_555
O8 P3 1.556097 1_555
O9 P2 1.556097 1_555
O10 P1 1.556097 1_555
O11 P0 1.556097 1_555
O16 P4 1.563346 1_555
O17 P7 1.563346 1_555
O18 P6 1.563346 1_555
O19 P5 1.563346 1_555
O20 P3 1.542934 1_555
O21 P2 1.542934 1_555
O22 P1 1.542934 1_555
O23 P0 1.542934 1_555
O24 P2 1.542934 1_555
O25 P3 1.542934 1_555
O26 P0 1.542934 1_555
O27 P1 1.542934 1_555
O28 P1 1.514869 1_556
O29 P6 1.547599 1_545
O30 P7 1.547599 1_555
O31 P4 1.547599 1_555
O32 P2 1.514869 1_545
O33 P3 1.514869 1_565
O34 P0 1.514869 1_554
O35 P5 1.547599 1_565
