# generated using pymatgen
data_Sr2Mn3P4(HO8)2
_symmetry_space_group_name_H-M   'P 1'
_cell_length_a   8.02220279
_cell_length_b   8.89289600
_cell_length_c   9.72187781
_cell_angle_alpha   90.00000000
_cell_angle_beta   101.52806984
_cell_angle_gamma   90.00000000
_symmetry_Int_Tables_number   1
_chemical_formula_structural   Sr2Mn3P4(HO8)2
_chemical_formula_sum   'Sr4 Mn6 P8 H4 O32'
_cell_volume   679.57340222
_cell_formula_units_Z   2
loop_
 _symmetry_equiv_pos_site_id
 _symmetry_equiv_pos_as_xyz
  1  'x, y, z'
loop_
 _atom_site_type_symbol
 _atom_site_label
 _atom_site_symmetry_multiplicity
 _atom_site_fract_x
 _atom_site_fract_y
 _atom_site_fract_z
 _atom_site_occupancy
  Sr  Sr0  1  0.57395500  0.02422300  0.73526800  1
  Sr  Sr1  1  0.42604500  0.52422300  0.76473200  1
  Sr  Sr2  1  0.42604500  0.97577700  0.26473200  1
  Sr  Sr3  1  0.57395500  0.47577700  0.23526800  1
  Mn  Mn0  1  0.00000000  0.00000000  0.00000000  1
  Mn  Mn1  1  0.00000000  0.50000000  0.50000000  1
  Mn  Mn2  1  0.89808100  0.64380800  0.90457800  1
  Mn  Mn3  1  0.10191900  0.14380800  0.59542200  1
  Mn  Mn4  1  0.10191900  0.35619200  0.09542200  1
  Mn  Mn5  1  0.89808100  0.85619200  0.40457800  1
  P  P0  1  0.14545700  0.79768500  0.73018200  1
  P  P1  1  0.85454300  0.29768500  0.76981800  1
  P  P2  1  0.85454300  0.20231500  0.26981800  1
  P  P3  1  0.14545700  0.70231500  0.23018200  1
  P  P4  1  0.65599700  0.78504700  0.06470300  1
  P  P5  1  0.34400300  0.28504700  0.43529700  1
  P  P6  1  0.34400300  0.21495300  0.93529700  1
  P  P7  1  0.65599700  0.71495300  0.56470300  1
  H  H0  1  0.40144500  0.83983900  0.93230700  1
  H  H1  1  0.59855500  0.33983900  0.56769300  1
  H  H2  1  0.59855500  0.16016100  0.06769300  1
  H  H3  1  0.40144500  0.66016100  0.43230700  1
  O  O0  1  0.05833100  0.82081200  0.85766200  1
  O  O1  1  0.94166900  0.32081200  0.64233800  1
  O  O2  1  0.94166900  0.17918800  0.14233800  1
  O  O3  1  0.05833100  0.67918800  0.35766200  1
  O  O4  1  0.06831600  0.90613600  0.60858300  1
  O  O5  1  0.93168400  0.40613600  0.89141700  1
  O  O6  1  0.93168400  0.09386400  0.39141700  1
  O  O7  1  0.06831600  0.59386400  0.10858300  1
  O  O8  1  0.12272400  0.63135500  0.68269800  1
  O  O9  1  0.87727600  0.13135500  0.81730200  1
  O  O10  1  0.87727600  0.36864500  0.31730200  1
  O  O11  1  0.12272400  0.86864500  0.18269800  1
  O  O12  1  0.34152800  0.82675200  0.77815900  1
  O  O13  1  0.65847200  0.32675200  0.72184100  1
  O  O14  1  0.65847200  0.17324800  0.22184100  1
  O  O15  1  0.34152800  0.67324800  0.27815900  1
  O  O16  1  0.70595000  0.80742400  0.22396600  1
  O  O17  1  0.29405000  0.30742400  0.27603400  1
  O  O18  1  0.29405000  0.19257600  0.77603400  1
  O  O19  1  0.70595000  0.69257600  0.72396600  1
  O  O20  1  0.76164900  0.87389800  0.97639900  1
  O  O21  1  0.23835100  0.37389800  0.52360100  1
  O  O22  1  0.23835100  0.12610200  0.02360100  1
  O  O23  1  0.76164900  0.62610200  0.47639900  1
  O  O24  1  0.65231100  0.61788700  0.01917400  1
  O  O25  1  0.34768900  0.11788700  0.48082600  1
  O  O26  1  0.34768900  0.38211300  0.98082600  1
  O  O27  1  0.65231100  0.88211300  0.51917400  1
  O  O28  1  0.46494900  0.84683400  0.03602200  1
  O  O29  1  0.53505100  0.34683400  0.46397800  1
  O  O30  1  0.53505100  0.15316600  0.96397800  1
  O  O31  1  0.46494900  0.65316600  0.53602200  1
loop_
_geom_bond_atom_site_label_1
_geom_bond_atom_site_label_2
_geom_bond_distance
_geom_bond_site_symmetry_2
Mn0 O11 2.188522 1_545
Mn0 O9 2.188522 1_454
Mn0 O22 2.188831 1_555
Mn0 O20 2.188831 1_444
Mn0 O2 2.220791 1_455
Mn0 O0 2.220791 1_544
Mn1 O8 2.188522 1_555
Mn1 O10 2.188522 1_455
Mn1 O23 2.188831 1_455
Mn1 O21 2.188831 1_555
Mn1 O1 2.220791 1_455
Mn1 O3 2.220791 1_555
Mn2 O19 2.136621 1_555
Mn2 O5 2.137779 1_555
Mn2 O0 2.138407 1_655
Mn2 O7 2.216581 1_656
Mn2 O24 2.461617 1_556
Mn2 O20 2.485493 1_555
Mn3 O18 2.136621 1_555
Mn3 O4 2.137779 1_545
Mn3 O1 2.138407 1_455
Mn3 O6 2.216581 1_455
Mn3 O25 2.461617 1_555
Mn3 O21 2.485493 1_555
Mn4 O17 2.136621 1_555
Mn4 O7 2.137779 1_555
Mn4 O2 2.138407 1_455
Mn4 O5 2.216581 1_454
Mn4 O26 2.461617 1_554
Mn4 O22 2.485493 1_555
Mn5 O16 2.136621 1_555
Mn5 O6 2.137779 1_565
Mn5 O3 2.138407 1_655
Mn5 O4 2.216581 1_655
Mn5 O27 2.461617 1_555
Mn5 O23 2.485493 1_555
H0 O28 1.036709 1_556
H0 O12 1.484081 1_555
H1 O29 1.036709 1_555
H1 O13 1.484081 1_555
H2 O30 1.036709 1_554
H2 O14 1.484081 1_555
H3 O31 1.036709 1_555
H3 O15 1.484081 1_555
O0 P0 1.553391 1_555
O1 P1 1.553391 1_555
O2 P2 1.553391 1_555
O3 P3 1.553391 1_555
O4 P0 1.555067 1_555
O5 P1 1.555067 1_555
O6 P2 1.555067 1_555
O7 P3 1.555067 1_555
O8 P0 1.549392 1_555
O8 Sr1 2.586313 1_555
O9 P1 1.549392 1_555
O9 Sr0 2.586313 1_555
O10 P2 1.549392 1_555
O10 Sr3 2.586313 1_555
O11 P3 1.549392 1_555
O11 Sr2 2.586313 1_555
O12 P0 1.570100 1_555
O12 Sr0 2.654266 1_565
O12 Sr1 2.783909 1_555
O13 P1 1.570100 1_555
O13 Sr1 2.654266 1_555
O13 Sr0 2.783909 1_555
O14 P2 1.570100 1_555
O14 Sr2 2.654266 1_545
O14 Sr3 2.783909 1_555
O15 P3 1.570100 1_555
O15 Sr3 2.654266 1_555
O15 Sr2 2.783909 1_555
O16 P4 1.532818 1_555
O16 Sr2 2.792182 1_555
O16 Sr3 3.142962 1_555
O17 P5 1.532818 1_555
O17 Sr3 2.792182 1_555
O17 Sr2 3.142962 1_545
O18 P6 1.532818 1_555
O18 Sr0 2.792182 1_555
O18 Sr1 3.142962 1_555
O19 P7 1.532818 1_555
O19 Sr1 2.792182 1_555
O19 Sr0 3.142962 1_565
O20 P4 1.539643 1_556
O20 Sr0 2.852883 1_565
O21 P5 1.539643 1_555
O21 Sr1 2.852883 1_555
O22 P6 1.539643 1_554
O22 Sr2 2.852883 1_545
O23 P7 1.539643 1_555
O23 Sr3 2.852883 1_555
O24 P4 1.549630 1_555
O24 Sr3 2.633170 1_555
O24 Sr1 2.883206 1_554
O25 P5 1.549630 1_555
O25 Sr2 2.633170 1_545
O25 Sr0 2.883206 1_555
O26 P6 1.549630 1_555
O26 Sr1 2.633170 1_555
O26 Sr3 2.883206 1_556
O27 P7 1.549630 1_555
O27 Sr0 2.633170 1_565
O27 Sr2 2.883206 1_555
O28 P4 1.599310 1_555
O28 Sr2 2.575567 1_555
O29 P5 1.599310 1_555
O29 Sr3 2.575567 1_555
O30 P6 1.599310 1_555
O30 Sr0 2.575567 1_555
O31 P7 1.599310 1_555
O31 Sr1 2.575567 1_555
