# generated using pymatgen
data_CaLaMg6
_symmetry_space_group_name_H-M   'P 1'
_cell_length_a   5.36433800
_cell_length_b   6.91913700
_cell_length_c   11.80570400
_cell_angle_alpha   90.00000000
_cell_angle_beta   90.00000000
_cell_angle_gamma   90.00000000
_symmetry_Int_Tables_number   1
_chemical_formula_structural   CaLaMg6
_chemical_formula_sum   'Ca2 La2 Mg12'
_cell_volume   438.18746956
_cell_formula_units_Z   2
loop_
 _symmetry_equiv_pos_site_id
 _symmetry_equiv_pos_as_xyz
  1  'x, y, z'
loop_
 _atom_site_type_symbol
 _atom_site_label
 _atom_site_symmetry_multiplicity
 _atom_site_fract_x
 _atom_site_fract_y
 _atom_site_fract_z
 _atom_site_occupancy
  Ca  Ca0  1  0.00000000  0.50000000  0.65765500  1
  Ca  Ca1  1  0.00000000  0.00000000  0.15765500  1
  La  La0  1  0.50000000  0.50000000  0.84190500  1
  La  La1  1  0.50000000  0.00000000  0.34190500  1
  Mg  Mg0  1  0.00000000  0.24644600  0.91630900  1
  Mg  Mg1  1  0.00000000  0.75355400  0.91630900  1
  Mg  Mg2  1  0.00000000  0.50000000  0.16556200  1
  Mg  Mg3  1  0.50000000  0.25040700  0.08301600  1
  Mg  Mg4  1  0.50000000  0.74959300  0.08301600  1
  Mg  Mg5  1  0.50000000  0.50000000  0.33622700  1
  Mg  Mg6  1  0.00000000  0.74644600  0.41630900  1
  Mg  Mg7  1  0.00000000  0.25355400  0.41630900  1
  Mg  Mg8  1  0.00000000  0.00000000  0.66556200  1
  Mg  Mg9  1  0.50000000  0.75040700  0.58301600  1
  Mg  Mg10  1  0.50000000  0.24959300  0.58301600  1
  Mg  Mg11  1  0.50000000  0.00000000  0.83622700  1
loop_
_geom_bond_atom_site_label_1
_geom_bond_atom_site_label_2
_geom_bond_distance
_geom_bond_site_symmetry_2
Ca0 Mg9 3.312459 1_455
Ca0 Mg9 3.312459 1_555
Ca0 Mg10 3.312459 1_455
Ca0 Mg10 3.312459 1_555
Ca0 Mg6 3.320537 1_555
Ca0 Mg7 3.320537 1_555
Ca0 La0 3.453336 1_455
Ca0 La0 3.453336 1_555
Ca0 Mg8 3.460828 1_565
Ca0 Mg8 3.460828 1_555
Ca0 Mg1 3.521684 1_555
Ca0 Mg0 3.521684 1_555
Ca1 Mg3 3.312459 1_455
Ca1 Mg3 3.312459 1_555
Ca1 Mg4 3.312459 1_445
Ca1 Mg4 3.312459 1_545
Ca1 Mg0 3.320537 1_554
Ca1 Mg1 3.320537 1_544
Ca1 La1 3.453336 1_455
Ca1 La1 3.453336 1_555
Ca1 Mg2 3.460828 1_545
Ca1 Mg2 3.460828 1_555
Ca1 Mg7 3.521684 1_555
Ca1 Mg6 3.521684 1_545
La0 Mg0 3.323166 1_555
La0 Mg1 3.323166 1_655
La0 Mg0 3.323166 1_655
La0 Mg1 3.323166 1_555
La0 Mg4 3.329399 1_556
La0 Mg3 3.329399 1_556
La0 Mg11 3.460218 1_565
La0 Mg11 3.460218 1_555
La0 Mg9 3.513301 1_555
La0 Mg10 3.513301 1_555
La1 Mg7 3.323166 1_555
La1 Mg7 3.323166 1_655
La1 Mg6 3.323166 1_645
La1 Mg6 3.323166 1_545
La1 Mg10 3.329399 1_555
La1 Mg9 3.329399 1_545
La1 Mg5 3.460218 1_545
La1 Mg5 3.460218 1_555
La1 Mg3 3.513301 1_555
La1 Mg4 3.513301 1_545
Mg0 Mg11 3.315953 1_555
Mg0 Mg11 3.315953 1_455
Mg0 Mg3 3.326886 1_556
Mg0 Mg3 3.326886 1_456
Mg0 Mg1 3.410387 1_545
Mg0 Mg8 3.416246 1_555
Mg0 Mg2 3.425897 1_556
Mg0 Mg1 3.508750 1_555
Mg1 Mg11 3.315953 1_565
Mg1 Mg11 3.315953 1_465
Mg1 Mg4 3.326886 1_456
Mg1 Mg4 3.326886 1_556
Mg1 Mg8 3.416246 1_565
Mg1 Mg2 3.425897 1_556
Mg2 Mg4 3.335585 1_555
Mg2 Mg4 3.335585 1_455
Mg2 Mg3 3.335585 1_455
Mg2 Mg3 3.335585 1_555
Mg2 Mg5 3.354628 1_455
Mg2 Mg5 3.354628 1_555
Mg2 Mg6 3.416246 1_555
Mg2 Mg7 3.416246 1_555
Mg3 Mg5 3.452323 1_555
Mg3 Mg4 3.453936 1_555
Mg3 Mg4 3.465201 1_545
Mg4 Mg5 3.452323 1_555
Mg5 Mg6 3.315953 1_655
Mg5 Mg6 3.315953 1_555
Mg5 Mg7 3.315953 1_655
Mg5 Mg7 3.315953 1_555
Mg5 Mg9 3.389763 1_555
Mg6 Mg9 3.326886 1_455
Mg6 Mg9 3.326886 1_555
Mg6 Mg7 3.410387 1_555
Mg6 Mg8 3.425897 1_565
Mg6 Mg7 3.508750 1_565
Mg7 Mg8 3.425897 1_555
Mg8 Mg9 3.335585 1_445
Mg8 Mg9 3.335585 1_545
Mg10 Mg7 3.326886 1_555
Mg10 Mg7 3.326886 1_655
Mg10 Mg8 3.335585 1_555
Mg10 Mg8 3.335585 1_655
Mg10 Mg5 3.389763 1_555
Mg10 Mg11 3.452323 1_555
Mg10 Mg9 3.453936 1_545
Mg10 Mg9 3.465201 1_555
Mg11 Mg8 3.354628 1_555
Mg11 Mg8 3.354628 1_655
Mg11 Mg3 3.389763 1_556
Mg11 Mg4 3.389763 1_546
Mg11 Mg9 3.452323 1_545
