# generated using pymatgen
data_Te4MoW
_symmetry_space_group_name_H-M   'P 1'
_cell_length_a   3.55670845
_cell_length_b   3.55670845
_cell_length_c   40.13600600
_cell_angle_alpha   90.00000000
_cell_angle_beta   90.00000000
_cell_angle_gamma   120.00000835
_symmetry_Int_Tables_number   1
_chemical_formula_structural   Te4MoW
_chemical_formula_sum   'Te8 Mo2 W2'
_cell_volume   439.70487559
_cell_formula_units_Z   2
loop_
 _symmetry_equiv_pos_site_id
 _symmetry_equiv_pos_as_xyz
  1  'x, y, z'
loop_
 _atom_site_type_symbol
 _atom_site_label
 _atom_site_symmetry_multiplicity
 _atom_site_fract_x
 _atom_site_fract_y
 _atom_site_fract_z
 _atom_site_occupancy
  Te  Te0  1  0.33333300  0.66666700  0.95127600  1
  Te  Te1  1  0.33333300  0.66666700  0.32708600  1
  Te  Te2  1  0.66666700  0.33333300  0.67291400  1
  Te  Te3  1  0.66666700  0.33333300  0.04872400  1
  Te  Te4  1  0.66666700  0.33333300  0.76350100  1
  Te  Te5  1  0.66666700  0.33333300  0.13913400  1
  Te  Te6  1  0.33333300  0.66666700  0.86086600  1
  Te  Te7  1  0.33333300  0.66666700  0.23649900  1
  Mo  Mo0  1  0.33333300  0.66666700  0.09393100  1
  Mo  Mo1  1  0.66666700  0.33333300  0.90606900  1
  W  W0  1  0.33333300  0.66666700  0.71819200  1
  W  W1  1  0.66666700  0.33333300  0.28180800  1
loop_
_geom_bond_atom_site_label_1
_geom_bond_atom_site_label_2
_geom_bond_distance
_geom_bond_site_symmetry_2
Te1 W1 2.742119 1_565
Te1 W1 2.742119 1_455
Te1 W1 2.742124 1_555
Te2 W0 2.742119 1_545
Te2 W0 2.742119 1_655
Te2 W0 2.742124 1_555
Te4 W0 2.742944 1_655
Te4 W0 2.742944 1_545
Te4 W0 2.742948 1_555
Te7 W1 2.742944 1_455
Te7 W1 2.742944 1_565
Te7 W1 2.742948 1_555
Mo0 Te5 2.740125 1_455
Mo0 Te5 2.740125 1_565
Mo0 Te5 2.740130 1_555
Mo0 Te3 2.740231 1_565
Mo0 Te3 2.740231 1_455
Mo0 Te3 2.740236 1_555
Mo1 Te6 2.740125 1_545
Mo1 Te6 2.740125 1_655
Mo1 Te6 2.740130 1_555
Mo1 Te0 2.740231 1_545
Mo1 Te0 2.740231 1_655
Mo1 Te0 2.740236 1_555
