# generated using pymatgen
data_CeGaAg
_symmetry_space_group_name_H-M   'P 1'
_cell_length_a   5.89835688
_cell_length_b   5.89478728
_cell_length_c   5.89478728
_cell_angle_alpha   133.08578816
_cell_angle_beta   103.89467388
_cell_angle_gamma   94.39188238
_symmetry_Int_Tables_number   1
_chemical_formula_structural   CeGaAg
_chemical_formula_sum   'Ce2 Ga2 Ag2'
_cell_volume   136.68348572
_cell_formula_units_Z   2
loop_
 _symmetry_equiv_pos_site_id
 _symmetry_equiv_pos_as_xyz
  1  'x, y, z'
loop_
 _atom_site_type_symbol
 _atom_site_label
 _atom_site_symmetry_multiplicity
 _atom_site_fract_x
 _atom_site_fract_y
 _atom_site_fract_z
 _atom_site_occupancy
  Ce  Ce0  1  0.06160124  0.06127829  0.00032295  1
  Ce  Ce1  1  0.50831616  0.00760616  0.50071000  1
  Ga  Ga0  1  0.50798655  0.70217406  0.80581449  1
  Ga  Ga1  1  0.89370892  0.70214452  0.19156439  1
  Ag  Ag0  1  0.09004009  0.37008081  0.71995927  1
  Ag  Ag1  1  0.65159304  0.36996315  0.28162989  1
loop_
_geom_bond_atom_site_label_1
_geom_bond_atom_site_label_2
_geom_bond_distance
_geom_bond_site_symmetry_2
Ce0 Ga1 3.195135 1_445
Ce0 Ga0 3.207155 1_444
Ce0 Ga0 3.422813 1_544
Ce0 Ga0 3.422819 1_555
Ce0 Ga1 3.437141 1_455
Ce0 Ga1 3.437141 1_444
Ce1 Ga1 3.140712 1_556
Ce1 Ga1 3.140712 1_545
Ce1 Ga0 3.152909 1_544
Ce1 Ga0 3.152916 1_555
Ce1 Ga0 3.301731 1_545
Ce1 Ga1 3.324085 1_445
Ga0 Ga1 2.804071 1_556
Ag0 Ga1 2.712939 1_456
Ag0 Ga1 2.712939 1_445
Ag0 Ga0 2.733814 1_555
Ag0 Ag1 3.186271 1_455
Ag0 Ce0 3.204611 1_556
Ag0 Ce0 3.224740 1_555
Ag0 Ce0 3.224740 1_566
Ag0 Ce1 3.299801 1_555
Ag0 Ce1 3.299801 1_566
Ag0 Ce1 3.314162 1_455
Ag1 Ga0 2.710059 1_544
Ag1 Ga0 2.710067 1_555
Ag1 Ga1 2.740760 1_555
Ag1 Ce0 3.210523 1_555
Ag1 Ce0 3.222894 1_666
Ag1 Ce0 3.222894 1_655
Ag1 Ce1 3.299891 1_565
Ag1 Ce1 3.299891 1_554
Ag1 Ce1 3.310725 1_555
