# generated using pymatgen
data_Sr5V3O13
_symmetry_space_group_name_H-M   'P 1'
_cell_length_a   10.08508809
_cell_length_b   10.08512924
_cell_length_c   7.44003613
_cell_angle_alpha   89.99999855
_cell_angle_beta   90.00002372
_cell_angle_gamma   120.00012584
_symmetry_Int_Tables_number   1
_chemical_formula_structural   Sr5V3O13
_chemical_formula_sum   'Sr10 V6 O26'
_cell_volume   655.33941540
_cell_formula_units_Z   2
loop_
 _symmetry_equiv_pos_site_id
 _symmetry_equiv_pos_as_xyz
  1  'x, y, z'
loop_
 _atom_site_type_symbol
 _atom_site_label
 _atom_site_symmetry_multiplicity
 _atom_site_fract_x
 _atom_site_fract_y
 _atom_site_fract_z
 _atom_site_occupancy
  Sr  Sr0  1  0.33333399  0.66666733  0.49521705  1
  Sr  Sr1  1  0.66666560  0.33333217  0.99521737  1
  Sr  Sr2  1  0.66666607  0.33333218  0.49803795  1
  Sr  Sr3  1  0.33333359  0.66666733  0.99803877  1
  Sr  Sr4  1  0.99009360  0.24604195  0.74596762  1
  Sr  Sr5  1  0.75395939  0.74405184  0.74596774  1
  Sr  Sr6  1  0.25594889  0.00990788  0.74596793  1
  Sr  Sr7  1  0.00990783  0.75395853  0.24596761  1
  Sr  Sr8  1  0.24604032  0.25594914  0.24596711  1
  Sr  Sr9  1  0.74405222  0.99009072  0.24596671  1
  V  V0  1  0.36625710  0.39950114  0.74584024  1
  V  V1  1  0.60049834  0.96675899  0.74583593  1
  V  V2  1  0.03323935  0.63374101  0.74583833  1
  V  V3  1  0.63374658  0.60049989  0.24583907  1
  V  V4  1  0.39950248  0.03324341  0.24583624  1
  V  V5  1  0.96675535  0.36625712  0.24583761  1
  O  O0  1  0.48357924  0.32043009  0.74509972  1
  O  O1  1  0.67956388  0.16313376  0.74509930  1
  O  O2  1  0.83685769  0.51642552  0.74510050  1
  O  O3  1  0.51641994  0.67957097  0.24510007  1
  O  O4  1  0.32043524  0.83686556  0.24510003  1
  O  O5  1  0.16313972  0.48357367  0.24510004  1
  O  O6  1  0.24960869  0.34581251  0.56132634  1
  O  O7  1  0.65418024  0.90379793  0.56133049  1
  O  O8  1  0.09619944  0.75038701  0.56133338  1
  O  O9  1  0.75039093  0.65418767  0.06132653  1
  O  O10  1  0.34582036  0.09620121  0.06133020  1
  O  O11  1  0.90380139  0.24961250  0.06133353  1
  O  O12  1  0.75258415  0.65931478  0.42862360  1
  O  O13  1  0.34068980  0.09326530  0.42861019  1
  O  O14  1  0.90673584  0.24742066  0.42861593  1
  O  O15  1  0.24741517  0.34068525  0.92862357  1
  O  O16  1  0.65931087  0.90673453  0.92860973  1
  O  O17  1  0.09326416  0.75257901  0.92861624  1
  O  O18  1  0.46765753  0.59706907  0.74832243  1
  O  O19  1  0.40294310  0.87059398  0.74832579  1
  O  O20  1  0.12940641  0.53234763  0.74832598  1
  O  O21  1  0.53234302  0.40293185  0.24832284  1
  O  O22  1  0.59705663  0.12940506  0.24832628  1
  O  O23  1  0.87059488  0.46765396  0.24832610  1
  O  O24  1  -0.00000007  0.00000028  0.73930863  1
  O  O25  1  0.00000107  -0.00000039  0.23930926  1
loop_
_geom_bond_atom_site_label_1
_geom_bond_atom_site_label_2
_geom_bond_distance
_geom_bond_site_symmetry_2
O0 V0 1.726110 1_555
O0 Sr2 2.562192 1_555
O0 Sr1 2.578548 1_555
O0 Sr6 2.808583 1_555
O1 V1 1.725948 1_545
O1 Sr2 2.562274 1_555
O1 Sr1 2.578640 1_555
O1 Sr4 2.808607 1_555
O2 V2 1.726003 1_655
O2 Sr2 2.562243 1_555
O2 Sr1 2.578597 1_555
O2 Sr5 2.808596 1_555
O3 V3 1.726152 1_555
O3 Sr3 2.562181 1_554
O3 Sr0 2.578538 1_555
O3 Sr9 2.808571 1_555
O4 V4 1.725974 1_565
O4 Sr3 2.562275 1_554
O4 Sr0 2.578635 1_555
O4 Sr7 2.808588 1_555
O5 V5 1.726026 1_455
O5 Sr3 2.562246 1_554
O5 Sr0 2.578605 1_555
O5 Sr8 2.808595 1_555
O6 V0 1.710172 1_555
O6 Sr8 2.509000 1_555
O6 Sr4 2.667590 1_455
O6 Sr0 2.948457 1_555
O7 V1 1.710097 1_555
O7 Sr9 2.509043 1_555
O7 Sr5 2.667653 1_555
O7 Sr0 2.948392 1_555
O8 V2 1.710109 1_555
O8 Sr7 2.509037 1_555
O8 Sr6 2.667615 1_565
O8 Sr0 2.948468 1_555
O9 V3 1.710143 1_555
O9 Sr5 2.508999 1_554
O9 Sr7 2.667602 1_655
O9 Sr1 2.948464 1_554
O10 V4 1.710084 1_555
O10 Sr6 2.509032 1_554
O10 Sr8 2.667673 1_555
O10 Sr1 2.948386 1_554
O11 V5 1.710095 1_555
O11 Sr4 2.509039 1_554
O11 Sr9 2.667616 1_545
O11 Sr1 2.948480 1_554
O12 V3 1.710761 1_555
O12 Sr5 2.508629 1_555
O12 Sr7 2.648682 1_655
O12 Sr2 2.996167 1_555
O13 V4 1.710686 1_555
O13 Sr6 2.508723 1_555
O13 Sr8 2.648711 1_555
O13 Sr2 2.996132 1_555
O14 V5 1.710722 1_555
O14 Sr4 2.508673 1_555
O14 Sr9 2.648709 1_545
O14 Sr2 2.996174 1_555
O15 V0 1.710778 1_555
O15 Sr8 2.508622 1_556
O15 Sr4 2.648664 1_455
O15 Sr3 2.996162 1_555
O16 V1 1.710697 1_555
O16 Sr9 2.508716 1_556
O16 Sr5 2.648691 1_555
O16 Sr3 2.996142 1_555
O17 V2 1.710727 1_555
O17 Sr7 2.508668 1_556
O17 Sr6 2.648700 1_565
O17 Sr3 2.996172 1_555
O18 V0 1.725852 1_555
O18 Sr5 2.500901 1_555
O18 Sr3 2.594310 1_555
O18 Sr0 2.612423 1_555
O19 V1 1.725735 1_555
O19 Sr6 2.500966 1_565
O19 Sr3 2.594310 1_555
O19 Sr0 2.612462 1_555
O20 V2 1.725787 1_555
O20 Sr4 2.500946 1_455
O20 Sr3 2.594308 1_555
O20 Sr0 2.612466 1_555
O21 V3 1.725854 1_555
O21 Sr8 2.500908 1_555
O21 Sr2 2.594305 1_555
O21 Sr1 2.612426 1_554
O22 V4 1.725725 1_555
O22 Sr9 2.500983 1_545
O22 Sr2 2.594306 1_555
O22 Sr1 2.612467 1_554
O23 V5 1.725760 1_555
O23 Sr7 2.500936 1_655
O23 Sr2 2.594316 1_555
O23 Sr1 2.612475 1_554
O24 Sr5 2.533266 1_445
O24 Sr6 2.533271 1_555
O24 Sr4 2.533278 1_455
O25 Sr9 2.533264 1_445
O25 Sr8 2.533265 1_555
O25 Sr7 2.533274 1_545
