# generated using pymatgen
data_SrCa7TiMn7O20
_symmetry_space_group_name_H-M   'P 1'
_cell_length_a   7.82583850
_cell_length_b   7.82583850
_cell_length_c   7.70377010
_cell_angle_alpha   88.89739502
_cell_angle_beta   88.89739502
_cell_angle_gamma   90.57959943
_symmetry_Int_Tables_number   1
_chemical_formula_structural   SrCa7TiMn7O20
_chemical_formula_sum   'Sr1 Ca7 Ti1 Mn7 O20'
_cell_volume   471.60710133
_cell_formula_units_Z   1
loop_
 _symmetry_equiv_pos_site_id
 _symmetry_equiv_pos_as_xyz
  1  'x, y, z'
loop_
 _atom_site_type_symbol
 _atom_site_label
 _atom_site_symmetry_multiplicity
 _atom_site_fract_x
 _atom_site_fract_y
 _atom_site_fract_z
 _atom_site_occupancy
  Sr  Sr0  1  0.25136500  0.25136500  0.25000000  1
  Ca  Ca0  1  0.27449300  0.27449300  0.70536100  1
  Ca  Ca1  1  0.25642900  0.73738000  0.26501900  1
  Ca  Ca2  1  0.26127500  0.73093000  0.71346500  1
  Ca  Ca3  1  0.73738000  0.25642900  0.26501900  1
  Ca  Ca4  1  0.73093000  0.26127500  0.71346500  1
  Ca  Ca5  1  0.74228000  0.74228000  0.26797700  1
  Ca  Ca6  1  0.73634800  0.73634800  0.71456200  1
  Ti  Ti0  1  0.99962400  0.99962400  0.99981400  1
  Mn  Mn0  1  0.00083700  0.00083700  0.51442500  1
  Mn  Mn1  1  0.99853800  0.49391400  0.00247500  1
  Mn  Mn2  1  0.00124900  0.50649400  0.49279100  1
  Mn  Mn3  1  0.49391400  0.99853800  0.00247500  1
  Mn  Mn4  1  0.50649400  0.00124900  0.49279100  1
  Mn  Mn5  1  0.50661200  0.50661200  0.99437300  1
  Mn  Mn6  1  0.50438800  0.50438800  0.49385600  1
  O  O0  1  0.94400700  0.94400700  0.78545800  1
  O  O1  1  0.01836900  0.52978500  0.24420700  1
  O  O2  1  0.99593500  0.51783300  0.75080600  1
  O  O3  1  0.52978500  0.01836900  0.24420700  1
  O  O4  1  0.51783300  0.99593500  0.75080600  1
  O  O5  1  0.50983400  0.50983400  0.74383600  1
  O  O6  1  0.21649300  0.95782200  0.05093800  1
  O  O7  1  0.25099800  0.00272000  0.51115700  1
  O  O8  1  0.25466900  0.50692000  0.00469300  1
  O  O9  1  0.26078900  0.50273000  0.48953600  1
  O  O10  1  0.75860700  0.00569000  0.47814100  1
  O  O11  1  0.74987800  0.51690800  0.03790000  1
  O  O12  1  0.74624800  0.50161000  0.47404100  1
  O  O13  1  0.95782200  0.21649300  0.05093800  1
  O  O14  1  0.00272000  0.25099800  0.51115700  1
  O  O15  1  0.00569000  0.75860700  0.47814100  1
  O  O16  1  0.50692000  0.25466900  0.00469300  1
  O  O17  1  0.50273000  0.26078900  0.48953600  1
  O  O18  1  0.51690800  0.74987800  0.03790000  1
  O  O19  1  0.50161000  0.74624800  0.47404100  1
loop_
_geom_bond_atom_site_label_1
_geom_bond_atom_site_label_2
_geom_bond_distance
_geom_bond_site_symmetry_2
Ca0 O9 2.421306 1_555
Ca0 O17 2.421306 1_555
Ca0 O5 2.616346 1_555
Ca0 O14 2.630735 1_555
Ca0 O7 2.630735 1_555
Ca0 O2 2.929426 1_455
Ca0 O4 2.929426 1_545
Ca0 O16 2.967074 1_556
Ca0 O8 2.967074 1_556
Ca1 O6 2.390608 1_555
Ca1 O1 2.469043 1_555
Ca1 O9 2.499239 1_555
Ca1 O19 2.529793 1_555
Ca1 O15 2.542979 1_555
Ca1 O18 2.660523 1_555
Ca1 O8 2.722998 1_555
Ca1 O7 2.838917 1_565
Ca2 O9 2.506779 1_555
Ca2 O19 2.609088 1_555
Ca2 O7 2.615390 1_565
Ca2 O5 2.627225 1_555
Ca2 O2 2.657861 1_455
Ca2 O15 2.732641 1_555
Ca2 O8 2.819890 1_556
Ca2 O4 2.894113 1_555
Ca2 O0 3.052748 1_455
Ca3 O13 2.390608 1_555
Ca3 O3 2.469043 1_555
Ca3 O17 2.499239 1_555
Ca3 O12 2.529793 1_555
Ca3 O10 2.542979 1_555
Ca3 O11 2.660523 1_555
Ca3 O16 2.722998 1_555
Ca3 O14 2.838917 1_655
Ca4 O17 2.506779 1_555
Ca4 O12 2.609088 1_555
Ca4 O14 2.615390 1_655
Ca4 O5 2.627225 1_555
Ca4 O4 2.657861 1_545
Ca4 O10 2.732641 1_555
Ca4 O16 2.819890 1_556
Ca4 O2 2.894113 1_555
Ca4 O0 3.052748 1_545
Ca5 O19 2.440573 1_555
Ca5 O12 2.440573 1_555
Ca5 O11 2.524728 1_555
Ca5 O18 2.524728 1_555
Ca5 O10 2.649176 1_565
Ca5 O15 2.649176 1_655
Ca5 O3 2.745257 1_565
Ca5 O1 2.745257 1_655
Ca6 O0 2.365401 1_555
Ca6 O5 2.498234 1_555
Ca6 O19 2.634827 1_555
Ca6 O12 2.634827 1_555
Ca6 O4 2.683831 1_555
Ca6 O2 2.683831 1_555
Ca6 O10 2.761004 1_565
Ca6 O15 2.761004 1_655
Ca6 O11 3.002370 1_556
Ca6 O18 3.002370 1_556
Mn0 O10 1.922112 1_455
Mn0 O15 1.922112 1_545
Mn0 O14 1.957300 1_555
Mn0 O7 1.957300 1_555
Mn0 O0 2.163275 1_445
Mn1 O1 1.897687 1_655
Mn1 O2 1.944744 1_554
Mn1 O11 1.970331 1_555
Mn1 O8 2.006412 1_655
Mn1 O13 2.214637 1_555
Mn2 O1 1.922167 1_555
Mn2 O15 1.973968 1_555
Mn2 O2 1.991027 1_455
Mn2 O14 2.001918 1_555
Mn2 O12 2.003620 1_455
Mn2 O9 2.031309 1_555
Mn3 O3 1.897687 1_565
Mn3 O4 1.944744 1_554
Mn3 O18 1.970331 1_555
Mn3 O16 2.006412 1_565
Mn3 O6 2.214637 1_555
Mn4 O3 1.922167 1_555
Mn4 O10 1.973968 1_555
Mn4 O4 1.991027 1_545
Mn4 O7 2.001918 1_555
Mn4 O19 2.003620 1_545
Mn4 O17 2.031309 1_555
Mn5 O5 1.929435 1_555
Mn5 O18 1.940552 1_556
Mn5 O11 1.940552 1_556
Mn5 O8 1.971766 1_556
Mn5 O16 1.971766 1_556
Mn6 O19 1.896351 1_555
Mn6 O12 1.896351 1_555
Mn6 O9 1.907214 1_555
Mn6 O17 1.907214 1_555
Mn6 O5 1.928361 1_555
O0 Ti0 1.776888 1_555
O1 Sr0 2.855518 1_555
O3 Sr0 2.855518 1_555
O6 Ti0 1.781729 1_454
O6 Sr0 2.800430 1_565
O7 Sr0 2.771836 1_555
O8 Sr0 2.724576 1_555
O9 Sr0 2.724397 1_555
O13 Ti0 1.781729 1_544
O13 Sr0 2.800430 1_655
O14 Sr0 2.771836 1_555
O16 Sr0 2.724576 1_555
O17 Sr0 2.724397 1_555
