# generated using pymatgen
data_H9C6N11
_symmetry_space_group_name_H-M   'P 1'
_cell_length_a   10.68725370
_cell_length_b   10.68725370
_cell_length_c   16.20988267
_cell_angle_alpha   86.61480479
_cell_angle_beta   86.61480479
_cell_angle_gamma   61.67342564
_symmetry_Int_Tables_number   1
_chemical_formula_structural   H9C6N11
_chemical_formula_sum   'H54 C36 N66'
_cell_volume   1625.89454844
_cell_formula_units_Z   6
loop_
 _symmetry_equiv_pos_site_id
 _symmetry_equiv_pos_as_xyz
  1  'x, y, z'
loop_
 _atom_site_type_symbol
 _atom_site_label
 _atom_site_symmetry_multiplicity
 _atom_site_fract_x
 _atom_site_fract_y
 _atom_site_fract_z
 _atom_site_occupancy
  H  H0  1  0.57652200  0.02069300  0.41163300  1
  H  H1  1  0.42347800  0.97930700  0.58836700  1
  H  H2  1  0.97930700  0.42347800  0.08836700  1
  H  H3  1  0.02069300  0.57652200  0.91163300  1
  H  H4  1  0.22111200  0.21110400  0.16581600  1
  H  H5  1  0.77888800  0.78889600  0.83418400  1
  H  H6  1  0.78889600  0.77888800  0.33418400  1
  H  H7  1  0.21110400  0.22111200  0.66581600  1
  H  H8  1  0.39944100  0.60184400  0.99928300  1
  H  H9  1  0.60055900  0.39815600  0.00071700  1
  H  H10  1  0.39815600  0.60055900  0.50071700  1
  H  H11  1  0.60184400  0.39944100  0.49928300  1
  H  H12  1  0.26456100  0.95947700  0.12658000  1
  H  H13  1  0.73543900  0.04052300  0.87342000  1
  H  H14  1  0.04052300  0.73543900  0.37342000  1
  H  H15  1  0.95947700  0.26456100  0.62658000  1
  H  H16  1  0.19067300  0.00412200  0.34456900  1
  H  H17  1  0.80932700  0.99587800  0.65543100  1
  H  H18  1  0.99587800  0.80932700  0.15543100  1
  H  H19  1  0.00412200  0.19067300  0.84456900  1
  H  H20  1  0.31720300  0.05551600  0.37352000  1
  H  H21  1  0.68279700  0.94448400  0.62648000  1
  H  H22  1  0.94448400  0.68279700  0.12648000  1
  H  H23  1  0.05551600  0.31720300  0.87352000  1
  H  H24  1  0.71228100  0.01939100  0.18738700  1
  H  H25  1  0.28771900  0.98060900  0.81261300  1
  H  H26  1  0.98060900  0.28771900  0.31261300  1
  H  H27  1  0.01939100  0.71228100  0.68738700  1
  H  H28  1  0.20068900  0.84183600  0.15853800  1
  H  H29  1  0.79931100  0.15816400  0.84146200  1
  H  H30  1  0.15816400  0.79931100  0.34146200  1
  H  H31  1  0.84183600  0.20068900  0.65853800  1
  H  H32  1  0.60037800  0.20482200  0.18151000  1
  H  H33  1  0.39962200  0.79517800  0.81849000  1
  H  H34  1  0.79517800  0.39962200  0.31849000  1
  H  H35  1  0.20482200  0.60037800  0.68151000  1
  H  H36  1  0.38758400  0.14328200  0.21037900  1
  H  H37  1  0.61241600  0.85671800  0.78962100  1
  H  H38  1  0.85671800  0.61241600  0.28962100  1
  H  H39  1  0.14328200  0.38758400  0.71037900  1
  H  H40  1  0.79304800  0.88345900  0.03310600  1
  H  H41  1  0.20695200  0.11654100  0.96689400  1
  H  H42  1  0.11654100  0.20695200  0.46689400  1
  H  H43  1  0.88345900  0.79304800  0.53310600  1
  H  H44  1  0.33273900  0.78403400  0.00392200  1
  H  H45  1  0.66726100  0.21596600  0.99607800  1
  H  H46  1  0.21596600  0.66726100  0.49607800  1
  H  H47  1  0.78403400  0.33273900  0.50392200  1
  H  H48  1  0.56736100  0.43263900  0.25000000  1
  H  H49  1  0.43263900  0.56736100  0.75000000  1
  H  H50  1  0.61213000  0.99271200  0.02213600  1
  H  H51  1  0.38787000  0.00728800  0.97786400  1
  H  H52  1  0.00728800  0.38787000  0.47786400  1
  H  H53  1  0.99271200  0.61213000  0.52213600  1
  C  C0  1  0.04957700  0.04800400  0.12952300  1
  C  C1  1  0.95042300  0.95199600  0.87047700  1
  C  C2  1  0.95199600  0.95042300  0.37047700  1
  C  C3  1  0.04800400  0.04957700  0.62952300  1
  C  C4  1  0.67500300  0.78162100  0.04846200  1
  C  C5  1  0.32499700  0.21837900  0.95153800  1
  C  C6  1  0.21837900  0.32499700  0.45153800  1
  C  C7  1  0.78162100  0.67500300  0.54846200  1
  C  C8  1  0.40323800  0.86041800  0.32407600  1
  C  C9  1  0.59676200  0.13958200  0.67592400  1
  C  C10  1  0.13958200  0.59676200  0.17592400  1
  C  C11  1  0.86041800  0.40323800  0.82407600  1
  C  C12  1  0.64090100  0.71713600  0.31049900  1
  C  C13  1  0.35909900  0.28286400  0.68950100  1
  C  C14  1  0.28286400  0.35909900  0.18950100  1
  C  C15  1  0.71713600  0.64090100  0.81049900  1
  C  C16  1  0.81132400  0.13576400  0.14802800  1
  C  C17  1  0.18867600  0.86423600  0.85197200  1
  C  C18  1  0.86423600  0.18867600  0.35197200  1
  C  C19  1  0.13576400  0.81132400  0.64802800  1
  C  C20  1  0.45784600  0.23081100  0.43485400  1
  C  C21  1  0.54215400  0.76918900  0.56514600  1
  C  C22  1  0.76918900  0.54215400  0.06514600  1
  C  C23  1  0.23081100  0.45784600  0.93485400  1
  C  C24  1  0.71651300  0.09864600  0.39181100  1
  C  C25  1  0.28348700  0.90135400  0.60818900  1
  C  C26  1  0.90135400  0.28348700  0.10818900  1
  C  C27  1  0.09864600  0.71651300  0.89181100  1
  C  C28  1  0.53858300  0.67552600  0.03284300  1
  C  C29  1  0.46141700  0.32447400  0.96715700  1
  C  C30  1  0.32447400  0.46141700  0.46715700  1
  C  C31  1  0.67552600  0.53858300  0.53284300  1
  C  C32  1  0.48768300  0.63853100  0.27730100  1
  C  C33  1  0.51231700  0.36146900  0.72269900  1
  C  C34  1  0.36147000  0.51231700  0.22269900  1
  C  C35  1  0.63853100  0.48768300  0.77730100  1
  N  N0  1  0.69231900  0.89961000  0.04520200  1
  N  N1  1  0.30768100  0.10039000  0.95479800  1
  N  N2  1  0.10039000  0.30768100  0.45479800  1
  N  N3  1  0.89961000  0.69231900  0.54520200  1
  N  N4  1  0.29402100  0.98556600  0.34573900  1
  N  N5  1  0.70597900  0.01443400  0.65426100  1
  N  N6  1  0.01443400  0.70597900  0.15426100  1
  N  N7  1  0.98556600  0.29402100  0.84573900  1
  N  N8  1  0.94047300  0.01892600  0.14558900  1
  N  N9  1  0.05952700  0.98107400  0.85441100  1
  N  N10  1  0.98107400  0.05952700  0.35441100  1
  N  N11  1  0.01892600  0.94047300  0.64558900  1
  N  N12  1  0.37250100  0.76079200  0.29577700  1
  N  N13  1  0.62749900  0.23920800  0.70422300  1
  N  N14  1  0.23920800  0.62749900  0.20422300  1
  N  N15  1  0.76079200  0.37250100  0.79577700  1
  N  N16  1  0.65642400  0.79090700  0.56642500  1
  N  N17  1  0.34357600  0.20909300  0.43357500  1
  N  N18  1  0.20909300  0.34357600  0.93357500  1
  N  N19  1  0.79090700  0.65642400  0.06642500  1
  N  N20  1  0.53509400  0.84544900  0.33121300  1
  N  N21  1  0.46490600  0.15455100  0.66878700  1
  N  N22  1  0.15455100  0.46490600  0.16878700  1
  N  N23  1  0.84544900  0.53509400  0.83121300  1
  N  N24  1  0.69755100  0.11817800  0.17107000  1
  N  N25  1  0.30244900  0.88182200  0.82893000  1
  N  N26  1  0.88182200  0.30244900  0.32893000  1
  N  N27  1  0.11817800  0.69755100  0.67107000  1
  N  N28  1  0.58445500  0.11181300  0.41513800  1
  N  N29  1  0.41554500  0.88818700  0.58486200  1
  N  N30  1  0.88818700  0.41554500  0.08486200  1
  N  N31  1  0.11181300  0.58445500  0.91513800  1
  N  N32  1  0.82138600  0.96247400  0.38914400  1
  N  N33  1  0.17861400  0.03752600  0.61085600  1
  N  N34  1  0.03752600  0.17861400  0.11085600  1
  N  N35  1  0.96247400  0.82138600  0.88914400  1
  N  N36  1  0.41263200  0.68558600  0.01675300  1
  N  N37  1  0.58736800  0.31441400  0.98324700  1
  N  N38  1  0.31441400  0.58736800  0.48324700  1
  N  N39  1  0.68558600  0.41263200  0.51675300  1
  N  N40  1  0.47442700  0.52557300  0.25000000  1
  N  N41  1  0.52557300  0.47442700  0.75000000  1
  N  N42  1  0.54418000  0.79929100  0.03603100  1
  N  N43  1  0.45582000  0.20070900  0.96396900  1
  N  N44  1  0.20070900  0.45582000  0.46396900  1
  N  N45  1  0.79929100  0.54418000  0.53603100  1
  N  N46  1  0.45689600  0.35036100  0.45556800  1
  N  N47  1  0.54310400  0.64963900  0.54443200  1
  N  N48  1  0.64963900  0.54310400  0.04443200  1
  N  N49  1  0.35036100  0.45689600  0.95556800  1
  N  N50  1  0.18244100  0.93696900  0.13011500  1
  N  N51  1  0.81755900  0.06303100  0.86988500  1
  N  N52  1  0.06303100  0.81755900  0.36988500  1
  N  N53  1  0.93696900  0.18244100  0.63011500  1
  N  N54  1  0.39245600  0.37503200  0.21537300  1
  N  N55  1  0.60754400  0.62496800  0.78462700  1
  N  N56  1  0.62496800  0.60754400  0.28462700  1
  N  N57  1  0.37503200  0.39245600  0.71537300  1
  N  N58  1  0.72926800  0.21485700  0.37177300  1
  N  N59  1  0.27073200  0.78514300  0.62822700  1
  N  N60  1  0.78514300  0.27073200  0.12822700  1
  N  N61  1  0.21485700  0.72926800  0.87177300  1
  N  N62  1  0.30362900  0.22497300  0.18307600  1
  N  N63  1  0.69637100  0.77502700  0.81692400  1
  N  N64  1  0.77502700  0.69637100  0.31692400  1
  N  N65  1  0.22497300  0.30362900  0.68307600  1
loop_
_geom_bond_atom_site_label_1
_geom_bond_atom_site_label_2
_geom_bond_distance
_geom_bond_site_symmetry_2
H0 N28 1.021861 1_555
H1 N29 1.021861 1_555
H2 N30 1.021861 1_555
H3 N31 1.021861 1_555
H4 N62 1.017862 1_555
H5 N63 1.017862 1_555
H6 N64 1.017862 1_555
H7 N65 1.017862 1_555
H8 N36 1.027338 1_556
H9 N37 1.027338 1_554
H10 N38 1.027338 1_555
H11 N39 1.027338 1_555
H12 N50 1.012015 1_555
H13 N51 1.012015 1_555
H14 N52 1.012015 1_555
H15 N53 1.012015 1_555
H16 N4 1.026541 1_545
H17 N5 1.026541 1_565
H18 N6 1.026541 1_655
H19 N7 1.026541 1_455
H20 N4 1.025544 1_545
H21 N5 1.025544 1_565
H22 N6 1.025544 1_655
H23 N7 1.025544 1_455
H24 N24 1.011726 1_555
H25 N25 1.011726 1_555
H26 N26 1.011726 1_555
H27 N27 1.011726 1_555
H28 N50 1.025248 1_555
H29 N51 1.025248 1_555
H30 N52 1.025248 1_555
H31 N53 1.025248 1_555
H32 N24 1.024574 1_555
H33 N25 1.024574 1_555
H34 N26 1.024574 1_555
H35 N27 1.024574 1_555
H36 N62 1.010459 1_555
H37 N63 1.010459 1_555
H38 N64 1.010459 1_555
H39 N65 1.010459 1_555
H40 N0 1.014819 1_555
H41 N1 1.014819 1_555
H42 N2 1.014819 1_555
H43 N3 1.014819 1_555
H44 N36 1.010885 1_555
H45 N37 1.010885 1_555
H46 N38 1.010885 1_555
H47 N39 1.010885 1_555
H48 N40 1.018224 1_555
H49 N41 1.018224 1_555
H50 N0 1.024190 1_555
H51 N1 1.024190 1_555
H52 N2 1.024190 1_555
H53 N3 1.024190 1_555
C0 N8 1.349985 1_455
C0 N50 1.351194 1_545
C0 N34 1.356722 1_555
C1 N9 1.349985 1_655
C1 N51 1.351194 1_565
C1 N35 1.356722 1_555
C2 N10 1.349985 1_565
C2 N52 1.351194 1_655
C2 N32 1.356722 1_555
C3 N11 1.349985 1_545
C3 N53 1.351194 1_455
C3 N33 1.356722 1_555
C4 N42 1.345092 1_555
C4 N19 1.353943 1_555
C4 N0 1.356295 1_555
C5 N43 1.345092 1_555
C5 N18 1.353943 1_555
C5 N1 1.356295 1_555
C6 N44 1.345092 1_555
C6 N17 1.353943 1_555
C6 N2 1.356295 1_555
C7 N45 1.345092 1_555
C7 N16 1.353943 1_555
C7 N3 1.356295 1_555
C8 N4 1.341695 1_555
C8 N20 1.351995 1_555
C8 N12 1.363589 1_555
C9 N5 1.341695 1_555
C9 N21 1.351995 1_555
C9 N13 1.363589 1_555
C10 N6 1.341695 1_555
C10 N22 1.351995 1_555
C10 N14 1.363589 1_555
C11 N7 1.341695 1_555
C11 N23 1.351995 1_555
C11 N15 1.363589 1_555
C12 N20 1.345322 1_555
C12 N64 1.351983 1_555
C12 N56 1.353655 1_555
C13 N21 1.345322 1_555
C13 N65 1.351983 1_555
C13 N57 1.353655 1_555
C14 N22 1.345322 1_555
C14 N62 1.351983 1_555
C14 N54 1.353655 1_555
C15 N23 1.345322 1_555
C15 N63 1.351983 1_555
C15 N55 1.353655 1_555
C16 N24 1.344709 1_555
C16 N8 1.352647 1_555
C16 N60 1.354568 1_555
C17 N25 1.344709 1_555
C17 N9 1.352647 1_555
C17 N61 1.354568 1_555
C18 N26 1.344709 1_555
C18 N10 1.352647 1_555
C18 N58 1.354568 1_555
C19 N27 1.344709 1_555
C19 N11 1.352647 1_555
C19 N59 1.354568 1_555
C20 N46 1.335371 1_555
C20 N17 1.348431 1_555
C20 N28 1.383577 1_555
C21 N47 1.335371 1_555
C21 N16 1.348431 1_555
C21 N29 1.383577 1_555
C22 N48 1.335371 1_555
C22 N19 1.348431 1_555
C22 N30 1.383577 1_555
C23 N49 1.335371 1_555
C23 N18 1.348431 1_555
C23 N31 1.383577 1_555
C24 N58 1.332061 1_555
C24 N32 1.352693 1_545
C24 N28 1.381826 1_555
C25 N59 1.332061 1_555
C25 N33 1.352693 1_565
C25 N29 1.381826 1_555
C26 N60 1.332061 1_555
C26 N34 1.352693 1_655
C26 N30 1.381826 1_555
C27 N61 1.332061 1_555
C27 N35 1.352693 1_455
C27 N31 1.381826 1_555
C28 N36 1.338768 1_555
C28 N42 1.356218 1_555
C28 N48 1.359321 1_555
C29 N37 1.338768 1_555
C29 N43 1.356218 1_555
C29 N49 1.359321 1_555
C30 N38 1.338768 1_555
C30 N44 1.356218 1_555
C30 N46 1.359321 1_555
C31 N39 1.338768 1_555
C31 N45 1.356218 1_555
C31 N47 1.359321 1_555
C32 N12 1.337377 1_555
C32 N56 1.353247 1_555
C32 N40 1.380607 1_555
C33 N13 1.337377 1_555
C33 N57 1.353247 1_555
C33 N41 1.380607 1_555
C34 N14 1.337383 1_555
C34 N54 1.353250 1_555
C34 N40 1.380597 1_555
C35 N15 1.337377 1_555
C35 N55 1.353247 1_555
C35 N41 1.380607 1_555
