# generated using pymatgen
data_Pr4CdNi
_symmetry_space_group_name_H-M   'P 1'
_cell_length_a   9.90634221
_cell_length_b   9.90633992
_cell_length_c   9.90634428
_cell_angle_alpha   60.00146954
_cell_angle_beta   60.00149046
_cell_angle_gamma   60.00149662
_symmetry_Int_Tables_number   1
_chemical_formula_structural   Pr4CdNi
_chemical_formula_sum   'Pr16 Cd4 Ni4'
_cell_volume   687.44759724
_cell_formula_units_Z   4
loop_
 _symmetry_equiv_pos_site_id
 _symmetry_equiv_pos_as_xyz
  1  'x, y, z'
loop_
 _atom_site_type_symbol
 _atom_site_label
 _atom_site_symmetry_multiplicity
 _atom_site_fract_x
 _atom_site_fract_y
 _atom_site_fract_z
 _atom_site_occupancy
  Pr  Pr0  1  0.34779636  0.34781867  0.34781405  1
  Pr  Pr1  1  0.34780070  0.34782135  0.95656921  1
  Pr  Pr2  1  0.34780189  0.95656851  0.34781903  1
  Pr  Pr3  1  0.95657249  0.34781521  0.34781078  1
  Pr  Pr4  1  0.80823233  0.19176930  0.19177222  1
  Pr  Pr5  1  0.19176950  0.80822576  0.80823296  1
  Pr  Pr6  1  0.19176944  0.80821934  0.19177032  1
  Pr  Pr7  1  0.80823968  0.19176958  0.80821867  1
  Pr  Pr8  1  0.19177022  0.19176933  0.80822200  1
  Pr  Pr9  1  0.80824351  0.80821562  0.19177018  1
  Pr  Pr10  1  0.93760700  0.56239446  0.56239215  1
  Pr  Pr11  1  0.56239451  0.93760367  0.93760558  1
  Pr  Pr12  1  0.56239372  0.93760296  0.56239496  1
  Pr  Pr13  1  0.93760836  0.56239556  0.93760437  1
  Pr  Pr14  1  0.56239159  0.56239570  0.93760467  1
  Pr  Pr15  1  0.93760825  0.93760272  0.56239530  1
  Cd  Cd0  1  0.57871967  0.57871345  0.57871192  1
  Cd  Cd1  1  0.57871911  0.57871291  0.26385521  1
  Cd  Cd2  1  0.57871850  0.26385453  0.57871151  1
  Cd  Cd3  1  0.26385005  0.57871695  0.57871494  1
  Ni  Ni0  1  0.14233747  0.14234349  0.14234435  1
  Ni  Ni1  1  0.14234084  0.14234706  0.57297079  1
  Ni  Ni2  1  0.14233971  0.57297268  0.14234663  1
  Ni  Ni3  1  0.57297011  0.14234519  0.14234619  1
loop_
_geom_bond_atom_site_label_1
_geom_bond_atom_site_label_2
_geom_bond_distance
_geom_bond_site_symmetry_2
Pr0 Pr10 3.576679 1_455
Pr0 Pr14 3.576844 1_554
Pr0 Pr12 3.576897 1_545
Pr1 Pr14 3.576671 1_555
Pr1 Pr13 3.576677 1_455
Pr1 Pr11 3.576889 1_545
Pr10 Pr3 3.576627 1_555
Pr10 Pr9 3.700850 1_555
Pr10 Pr6 3.700886 1_655
Pr10 Pr7 3.700891 1_555
Pr10 Pr8 3.700926 1_655
Pr10 Pr15 3.716962 1_555
Pr10 Pr13 3.716994 1_555
Pr10 Pr12 3.717051 1_555
Pr10 Pr14 3.717082 1_555
Pr11 Pr2 3.576858 1_556
Pr11 Pr7 3.700940 1_565
Pr11 Pr9 3.700958 1_556
Pr11 Pr8 3.700971 1_565
Pr11 Pr6 3.700981 1_556
Pr11 Pr14 3.716957 1_555
Pr11 Pr12 3.716973 1_555
Pr11 Pr13 3.717052 1_555
Pr11 Pr15 3.717063 1_555
Pr12 Pr2 3.576688 1_555
Pr12 Pr8 3.700924 1_565
Pr12 Pr5 3.700936 1_555
Pr12 Pr4 3.700977 1_565
Pr12 Pr9 3.700992 1_555
Pr12 Pr15 3.717004 1_555
Pr12 Pr14 3.717026 1_555
Pr13 Pr3 3.576795 1_556
Pr13 Pr9 3.700806 1_556
Pr13 Pr5 3.700828 1_655
Pr13 Pr4 3.700949 1_556
Pr13 Pr8 3.700981 1_655
Pr13 Pr15 3.717023 1_555
Pr13 Pr14 3.717024 1_555
Pr14 Pr5 3.700892 1_555
Pr14 Pr6 3.700899 1_556
Pr14 Pr7 3.700996 1_555
Pr14 Pr4 3.701006 1_556
Pr15 Pr2 3.576690 1_655
Pr15 Pr3 3.576846 1_565
Pr15 Pr7 3.700830 1_565
Pr15 Pr5 3.700873 1_655
Pr15 Pr4 3.700923 1_565
Pr15 Pr6 3.700977 1_655
Cd0 Cd1 3.119084 1_555
Cd0 Cd2 3.119107 1_555
Cd0 Cd3 3.119174 1_555
Cd0 Pr10 3.401296 1_555
Cd0 Pr12 3.401298 1_555
Cd0 Pr14 3.401318 1_555
Cd0 Pr3 3.547384 1_555
Cd0 Pr2 3.547441 1_555
Cd0 Pr1 3.547452 1_555
Cd0 Pr9 3.573730 1_555
Cd0 Pr7 3.573743 1_555
Cd0 Pr5 3.573798 1_555
Cd1 Cd2 3.119154 1_555
Cd1 Cd3 3.119225 1_555
Cd1 Pr14 3.401333 1_554
Cd1 Pr13 3.401385 1_554
Cd1 Pr11 3.401387 1_554
Cd1 Pr0 3.547397 1_555
Cd1 Pr3 3.547399 1_555
Cd1 Pr2 3.547453 1_555
Cd1 Pr9 3.573647 1_555
Cd1 Pr4 3.573712 1_555
Cd1 Pr6 3.573771 1_555
Cd2 Cd3 3.119235 1_555
Cd2 Pr12 3.401324 1_545
Cd2 Pr15 3.401392 1_545
Cd2 Pr11 3.401410 1_545
Cd2 Pr0 3.547398 1_555
Cd2 Pr3 3.547426 1_555
Cd2 Pr1 3.547485 1_555
Cd2 Pr7 3.573659 1_555
Cd2 Pr4 3.573686 1_555
Cd2 Pr8 3.573761 1_555
Cd3 Pr10 3.401262 1_455
Cd3 Pr15 3.401326 1_455
Cd3 Pr13 3.401345 1_455
Cd3 Pr0 3.547299 1_555
Cd3 Pr2 3.547366 1_555
Cd3 Pr1 3.547385 1_555
Cd3 Pr5 3.573665 1_555
Cd3 Pr6 3.573711 1_555
Cd3 Pr8 3.573731 1_555
Ni0 Pr2 2.885194 1_545
Ni0 Pr3 2.885194 1_455
Ni0 Pr1 2.885207 1_554
Ni0 Pr4 2.903913 1_455
Ni0 Pr8 2.904063 1_554
Ni0 Pr6 2.904081 1_545
Ni0 Pr15 3.574524 1_445
Ni0 Pr13 3.574527 1_454
Ni0 Pr11 3.574584 1_544
Ni1 Pr0 2.885121 1_555
Ni1 Pr3 2.885126 1_455
Ni1 Pr2 2.885134 1_545
Ni1 Pr8 2.903855 1_555
Ni1 Pr7 2.903916 1_455
Ni1 Pr5 2.904090 1_545
Ni1 Pr15 3.574442 1_445
Ni1 Pr10 3.574473 1_455
Ni1 Pr12 3.574529 1_545
Ni2 Pr3 2.885099 1_455
Ni2 Pr0 2.885099 1_555
Ni2 Pr1 2.885123 1_554
Ni2 Pr6 2.903822 1_555
Ni2 Pr9 2.903868 1_455
Ni2 Pr5 2.904013 1_554
Ni2 Pr13 3.574424 1_454
Ni2 Pr10 3.574460 1_455
Ni2 Pr14 3.574517 1_554
Ni3 Pr0 2.885228 1_555
Ni3 Pr2 2.885241 1_545
Ni3 Pr1 2.885252 1_554
Ni3 Pr4 2.903950 1_555
Ni3 Pr7 2.904155 1_554
Ni3 Pr9 2.904180 1_545
Ni3 Pr11 3.574488 1_544
Ni3 Pr12 3.574492 1_545
Ni3 Pr14 3.574500 1_554
