# generated using pymatgen
data_Nd12Si5Se28
_symmetry_space_group_name_H-M   'P 1'
_cell_length_a   10.61353400
_cell_length_b   12.13300308
_cell_length_c   12.21137729
_cell_angle_alpha   119.74706657
_cell_angle_beta   115.75455327
_cell_angle_gamma   90.00637984
_symmetry_Int_Tables_number   1
_chemical_formula_structural   Nd12Si5Se28
_chemical_formula_sum   'Nd12 Si5 Se28'
_cell_volume   1181.95780461
_cell_formula_units_Z   1
loop_
 _symmetry_equiv_pos_site_id
 _symmetry_equiv_pos_as_xyz
  1  'x, y, z'
loop_
 _atom_site_type_symbol
 _atom_site_label
 _atom_site_symmetry_multiplicity
 _atom_site_fract_x
 _atom_site_fract_y
 _atom_site_fract_z
 _atom_site_occupancy
  Nd  Nd0  1  0.76596800  0.21818800  0.63433900  1
  Nd  Nd1  1  0.77932700  0.70705700  0.65223800  1
  Nd  Nd2  1  0.87125500  0.99109600  0.21905800  1
  Nd  Nd3  1  0.87198400  0.51894200  0.23650500  1
  Nd  Nd4  1  0.34908300  0.94434900  0.12624500  1
  Nd  Nd5  1  0.36316800  0.46618600  0.13226700  1
  Nd  Nd6  1  0.22329900  0.82181800  0.34575600  1
  Nd  Nd7  1  0.22971300  0.31792800  0.36750900  1
  Nd  Nd8  1  0.13590100  0.02053700  0.77045600  1
  Nd  Nd9  1  0.12425300  0.53580800  0.77701900  1
  Nd  Nd10  1  0.63346000  0.06736900  0.86522900  1
  Nd  Nd11  1  0.65427800  0.58633200  0.87600100  1
  Si  Si0  1  0.66752900  0.26500600  0.33008400  1
  Si  Si1  1  0.66544500  0.76815800  0.33602900  1
  Si  Si2  1  0.33328200  0.67969800  0.66612600  1
  Si  Si3  1  0.33330900  0.18149300  0.66681200  1
  Si  Si4  1  0.99916400  0.28053500  0.99968100  1
  Se  Se0  1  0.66657400  0.45344900  0.33269700  1
  Se  Se1  1  0.66702500  0.95368500  0.33356400  1
  Se  Se2  1  0.33908900  0.37465500  0.67945400  1
  Se  Se3  1  0.32753300  0.86096500  0.65364900  1
  Se  Se4  1  0.09509800  0.81903000  0.83568200  1
  Se  Se5  1  0.08359700  0.31506500  0.84659700  1
  Se  Se6  1  0.74128800  0.85384000  0.90496200  1
  Se  Se7  1  0.76345200  0.34945300  0.91666600  1
  Se  Se8  1  0.15272000  0.50983000  0.23719200  1
  Se  Se9  1  0.16476900  0.03080100  0.25903900  1
  Se  Se10  1  0.91377200  0.24136200  0.14358800  1
  Se  Se11  1  0.90870800  0.73174000  0.16772400  1
  Se  Se12  1  0.22792700  0.21330000  0.08662300  1
  Se  Se13  1  0.26029600  0.69379600  0.09307500  1
  Se  Se14  1  0.83237600  0.51543800  0.73799000  1
  Se  Se15  1  0.85731100  0.05659400  0.77191800  1
  Se  Se16  1  0.58180800  0.07556700  0.10334600  1
  Se  Se17  1  0.58702800  0.58007300  0.10645700  1
  Se  Se18  1  0.51323100  0.22681300  0.40224200  1
  Se  Se19  1  0.52717700  0.73892300  0.42704100  1
  Se  Se20  1  0.89748100  0.26043300  0.46947100  1
  Se  Se21  1  0.89127800  0.77011100  0.48932200  1
  Se  Se22  1  0.41665200  0.71955100  0.89392100  1
  Se  Se23  1  0.41643700  0.22191400  0.89620900  1
  Se  Se24  1  0.47649400  0.56334700  0.58081900  1
  Se  Se25  1  0.48077200  0.06706100  0.58604100  1
  Se  Se26  1  0.10451600  0.53250000  0.51996100  1
  Se  Se27  1  0.10517400  0.03620200  0.52339800  1
loop_
_geom_bond_atom_site_label_1
_geom_bond_atom_site_label_2
_geom_bond_distance
_geom_bond_site_symmetry_2
Nd0 Se5 2.974371 1_655
Nd0 Se18 2.987755 1_555
Nd0 Se7 3.009059 1_555
Nd0 Se15 3.075724 1_555
Nd0 Se20 3.119332 1_555
Nd0 Se14 3.130521 1_555
Nd0 Se1 3.137265 1_545
Nd0 Se25 3.201021 1_555
Nd1 Se6 2.913354 1_555
Nd1 Se4 2.924136 1_655
Nd1 Se14 2.953401 1_555
Nd1 Se21 3.085334 1_555
Nd1 Se19 3.087643 1_555
Nd1 Se0 3.186296 1_555
Nd1 Se24 3.191427 1_555
Nd1 Se15 3.688354 1_565
Nd2 Se6 2.906986 1_554
Nd2 Se9 2.935911 1_665
Nd2 Se11 2.951687 1_555
Nd2 Se20 3.074240 1_565
Nd2 Se1 3.181710 1_555
Nd2 Se16 3.185900 1_565
Nd2 Se27 3.199698 1_665
Nd2 Se10 3.662136 1_565
Nd3 Se8 2.978185 1_655
Nd3 Se7 2.988233 1_554
Nd3 Se21 2.995693 1_555
Nd3 Se17 3.035532 1_555
Nd3 Se10 3.077711 1_555
Nd3 Se0 3.148887 1_555
Nd3 Se11 3.155898 1_555
Nd3 Se26 3.179660 1_655
Nd4 Se4 2.915726 1_554
Nd4 Se9 2.936993 1_565
Nd4 Se13 2.956210 1_555
Nd4 Se18 3.094080 1_565
Nd4 Se16 3.123313 1_565
Nd4 Se22 3.176773 1_554
Nd4 Se1 3.178116 1_555
Nd4 Se12 3.682799 1_565
Nd5 Se8 2.953823 1_555
Nd5 Se17 2.955674 1_555
Nd5 Se5 2.998618 1_554
Nd5 Se12 3.064624 1_555
Nd5 Se19 3.109761 1_555
Nd5 Se13 3.147326 1_555
Nd5 Se0 3.148037 1_555
Nd5 Se23 3.217391 1_554
Nd6 Se13 2.895631 1_555
Nd6 Se11 2.898684 1_455
Nd6 Se25 3.049105 1_565
Nd6 Se27 3.131807 1_565
Nd6 Se9 3.166957 1_565
Nd6 Se3 3.193530 1_555
Nd6 Se19 3.257020 1_555
Nd6 Se8 3.286946 1_555
Nd7 Se24 2.980637 1_555
Nd7 Se9 2.998799 1_555
Nd7 Se12 2.999900 1_555
Nd7 Se10 3.015706 1_455
Nd7 Se26 3.057795 1_555
Nd7 Se18 3.132694 1_555
Nd7 Se2 3.144374 1_555
Nd7 Se8 3.341937 1_555
Nd8 Se27 2.993038 1_555
Nd8 Se15 2.995485 1_455
Nd8 Se4 3.005226 1_545
Nd8 Se12 3.015264 1_556
Nd8 Se23 3.081382 1_555
Nd8 Se21 3.108016 1_445
Nd8 Se3 3.114688 1_545
Nd8 Se5 3.330837 1_555
Nd9 Se13 2.910302 1_556
Nd9 Se14 2.912861 1_455
Nd9 Se26 3.033570 1_555
Nd9 Se22 3.103102 1_555
Nd9 Se4 3.188634 1_555
Nd9 Se2 3.239108 1_555
Nd9 Se5 3.264622 1_555
Nd9 Se20 3.278956 1_455
Nd10 Se10 2.991883 1_556
Nd10 Se23 3.003158 1_555
Nd10 Se6 3.003768 1_545
Nd10 Se15 3.027373 1_555
Nd10 Se25 3.071703 1_555
Nd10 Se3 3.126771 1_545
Nd10 Se16 3.140645 1_556
Nd10 Se7 3.335308 1_555
Nd11 Se14 2.912633 1_555
Nd11 Se11 2.915017 1_556
Nd11 Se22 3.025018 1_555
Nd11 Se24 3.118139 1_555
Nd11 Se6 3.176280 1_555
Nd11 Se17 3.223741 1_556
Nd11 Se2 3.232808 1_555
Nd11 Se7 3.281215 1_555
Se0 Si0 2.270802 1_555
Se1 Si1 2.266243 1_555
Se2 Si3 2.270006 1_555
Se3 Si2 2.277804 1_555
Se5 Si4 2.589596 1_455
Se7 Si4 2.573564 1_555
Se8 Si4 2.586877 1_454
Se10 Si4 2.519567 1_554
Se12 Si4 2.511471 1_454
Se15 Si4 2.499156 1_555
Se16 Si0 2.296086 1_555
Se17 Si1 2.320099 1_555
Se18 Si0 2.309133 1_555
Se19 Si1 2.307169 1_555
Se20 Si0 2.310936 1_555
Se21 Si1 2.303588 1_555
Se22 Si2 2.297978 1_555
Se23 Si3 2.314035 1_555
Se24 Si2 2.303382 1_555
Se25 Si3 2.309357 1_555
Se26 Si2 2.310902 1_555
Se27 Si3 2.299506 1_555
