# generated using pymatgen
data_NdSi2Ru3
_symmetry_space_group_name_H-M   'P 1'
_cell_length_a   5.65250172
_cell_length_b   5.65250172
_cell_length_c   3.61901600
_cell_angle_alpha   90.00000000
_cell_angle_beta   90.00000000
_cell_angle_gamma   119.99999669
_symmetry_Int_Tables_number   1
_chemical_formula_structural   NdSi2Ru3
_chemical_formula_sum   'Nd1 Si2 Ru3'
_cell_volume   100.13883976
_cell_formula_units_Z   1
loop_
 _symmetry_equiv_pos_site_id
 _symmetry_equiv_pos_as_xyz
  1  'x, y, z'
loop_
 _atom_site_type_symbol
 _atom_site_label
 _atom_site_symmetry_multiplicity
 _atom_site_fract_x
 _atom_site_fract_y
 _atom_site_fract_z
 _atom_site_occupancy
  Nd  Nd0  1  0.00000000  0.00000000  0.00000000  1
  Si  Si0  1  0.33333300  0.66666700  0.00000000  1
  Si  Si1  1  0.66666700  0.33333300  0.00000000  1
  Ru  Ru0  1  0.00000000  0.50000000  0.50000000  1
  Ru  Ru1  1  0.50000000  0.50000000  0.50000000  1
  Ru  Ru2  1  0.50000000  0.00000000  0.50000000  1
loop_
_geom_bond_atom_site_label_1
_geom_bond_atom_site_label_2
_geom_bond_distance
_geom_bond_site_symmetry_2
Nd0 Si1 3.263470 1_455
Nd0 Si0 3.263470 1_545
Nd0 Si0 3.263475 1_445
Nd0 Si0 3.263475 1_555
Nd0 Si1 3.263475 1_555
Nd0 Si1 3.263475 1_445
Nd0 Ru2 3.355892 1_554
Nd0 Ru0 3.355892 1_544
Nd0 Ru0 3.355892 1_555
Nd0 Ru0 3.355892 1_545
Nd0 Ru2 3.355892 1_454
Nd0 Ru0 3.355892 1_554
Nd0 Ru2 3.355892 1_455
Nd0 Ru2 3.355892 1_555
Nd0 Ru1 3.355892 1_554
Nd0 Ru1 3.355892 1_444
Nd0 Ru1 3.355892 1_555
Nd0 Ru1 3.355892 1_445
Ru0 Si0 2.436571 1_555
Ru0 Si0 2.436571 1_556
Ru0 Si1 2.436571 1_456
Ru0 Si1 2.436571 1_455
Ru1 Si1 2.436574 1_556
Ru1 Si0 2.436574 1_556
Ru1 Si0 2.436574 1_555
Ru1 Si1 2.436574 1_555
Ru2 Si1 2.436571 1_555
Ru2 Si0 2.436571 1_546
Ru2 Si1 2.436571 1_556
Ru2 Si0 2.436571 1_545
