# generated using pymatgen
data_Rb(WO4)8
_symmetry_space_group_name_H-M   'P 1'
_cell_length_a   9.59899371
_cell_length_b   9.59899371
_cell_length_c   10.87647235
_cell_angle_alpha   68.25657811
_cell_angle_beta   68.25657811
_cell_angle_gamma   47.61851808
_symmetry_Int_Tables_number   1
_chemical_formula_structural   Rb(WO4)8
_chemical_formula_sum   'Rb1 W8 O32'
_cell_volume   676.87303386
_cell_formula_units_Z   1
loop_
 _symmetry_equiv_pos_site_id
 _symmetry_equiv_pos_as_xyz
  1  'x, y, z'
loop_
 _atom_site_type_symbol
 _atom_site_label
 _atom_site_symmetry_multiplicity
 _atom_site_fract_x
 _atom_site_fract_y
 _atom_site_fract_z
 _atom_site_occupancy
  Rb  Rb0  1  0.50000000  0.50000000  0.00000000  1
  W  W0  1  0.87882300  0.37611200  0.60068600  1
  W  W1  1  0.62388800  0.12117700  0.39931400  1
  W  W2  1  0.12117700  0.62388800  0.39931400  1
  W  W3  1  0.37611200  0.87882300  0.60068600  1
  W  W4  1  0.12351700  0.63094100  0.75857100  1
  W  W5  1  0.36905900  0.87648300  0.24142900  1
  W  W6  1  0.87648300  0.36905900  0.24142900  1
  W  W7  1  0.63094100  0.12351700  0.75857100  1
  O  O0  1  0.92219500  0.35746000  0.76129800  1
  O  O1  1  0.64254000  0.07780500  0.23870200  1
  O  O2  1  0.07780500  0.64254000  0.23870200  1
  O  O3  1  0.35746000  0.92219500  0.76129800  1
  O  O4  1  0.00000000  0.50000000  0.50000000  1
  O  O5  1  0.50000000  0.00000000  0.50000000  1
  O  O6  1  0.75166900  0.26877200  0.68445500  1
  O  O7  1  0.73122800  0.24833100  0.31554600  1
  O  O8  1  0.24833100  0.73122800  0.31554600  1
  O  O9  1  0.26877200  0.75166900  0.68445500  1
  O  O10  1  0.85202100  0.38891700  0.42177300  1
  O  O11  1  0.61108300  0.14797900  0.57822700  1
  O  O12  1  0.14797900  0.61108300  0.57822700  1
  O  O13  1  0.38891700  0.85202100  0.42177300  1
  O  O14  1  0.00702200  0.53031400  0.85655800  1
  O  O15  1  0.46968600  0.99297800  0.14344200  1
  O  O16  1  0.99297800  0.46968600  0.14344200  1
  O  O17  1  0.53031400  0.00702200  0.85655800  1
  O  O18  1  0.15707000  0.64714100  0.91532900  1
  O  O19  1  0.35285900  0.84293000  0.08467100  1
  O  O20  1  0.84293000  0.35285900  0.08467100  1
  O  O21  1  0.64714100  0.15707000  0.91532900  1
  O  O22  1  0.16015300  0.16015300  0.85217600  1
  O  O23  1  0.83984700  0.83984700  0.14782400  1
  O  O24  1  0.12738400  0.12738400  0.57569000  1
  O  O25  1  0.87261600  0.87261600  0.42431000  1
  O  O26  1  0.63366700  0.63366700  0.60940400  1
  O  O27  1  0.36633300  0.36633300  0.39059600  1
  O  O28  1  0.89455300  0.89455300  0.73210600  1
  O  O29  1  0.10544700  0.10544700  0.26789400  1
  O  O30  1  0.38736300  0.38736300  0.75143400  1
  O  O31  1  0.61263700  0.61263700  0.24856600  1
loop_
_geom_bond_atom_site_label_1
_geom_bond_atom_site_label_2
_geom_bond_distance
_geom_bond_site_symmetry_2
O0 W0 1.861086 1_555
O0 O22 2.057929 1_655
O1 W1 1.861086 1_555
O1 O23 2.057929 1_545
O2 W2 1.861086 1_555
O2 O23 2.057929 1_455
O3 W3 1.861086 1_555
O4 W0 1.980554 1_455
O4 W2 1.980554 1_555
O5 W3 1.980554 1_545
O5 W1 1.980554 1_555
O6 W0 1.886120 1_555
O6 W7 2.142500 1_555
O7 W1 1.886119 1_555
O7 W6 2.142499 1_555
O8 W2 1.886119 1_555
O8 W5 2.142499 1_555
O9 W3 1.886120 1_555
O9 W4 2.142500 1_555
O10 W6 1.953052 1_555
O10 W0 2.004761 1_555
O11 W7 1.953052 1_555
O11 W1 2.004761 1_555
O12 W4 1.953052 1_555
O12 W2 2.004761 1_555
O13 W5 1.953052 1_555
O13 W3 2.004761 1_555
O14 W4 1.769106 1_555
O15 W5 1.769106 1_555
O16 W6 1.769106 1_555
O17 W7 1.769106 1_555
O18 W4 1.925008 1_555
O18 Rb0 2.948432 1_556
O19 W5 1.925008 1_555
O19 Rb0 2.948432 1_555
O20 W6 1.925008 1_555
O20 Rb0 2.948432 1_555
O21 W7 1.925008 1_555
O21 Rb0 2.948432 1_556
O22 O3 2.057929 1_545
O24 W0 1.946186 1_455
O24 W3 1.946186 1_545
O25 W1 1.946186 1_565
O25 W2 1.946186 1_655
O26 W0 1.955512 1_555
O26 W3 1.955512 1_555
O27 W2 1.955512 1_555
O27 W1 1.955512 1_555
O28 W4 1.935939 1_655
O28 W7 1.935939 1_565
O29 W6 1.935939 1_455
O29 W5 1.935939 1_545
O30 W4 1.973024 1_555
O30 W7 1.973024 1_555
O31 W6 1.973024 1_555
O31 W5 1.973024 1_555
