# generated using pymatgen
data_Zn3Fe4(WO4)6
_symmetry_space_group_name_H-M   'P 1'
_cell_length_a   7.21697500
_cell_length_b   8.41068556
_cell_length_c   10.33678072
_cell_angle_alpha   105.07654553
_cell_angle_beta   104.32145365
_cell_angle_gamma   101.26237508
_symmetry_Int_Tables_number   1
_chemical_formula_structural   Zn3Fe4(WO4)6
_chemical_formula_sum   'Zn3 Fe4 W6 O24'
_cell_volume   563.95629797
_cell_formula_units_Z   1
loop_
 _symmetry_equiv_pos_site_id
 _symmetry_equiv_pos_as_xyz
  1  'x, y, z'
loop_
 _atom_site_type_symbol
 _atom_site_label
 _atom_site_symmetry_multiplicity
 _atom_site_fract_x
 _atom_site_fract_y
 _atom_site_fract_z
 _atom_site_occupancy
  Zn  Zn0  1  0.00000000  0.50000000  0.50000000  1
  Zn  Zn1  1  0.27682400  0.26736200  0.78810100  1
  Zn  Zn2  1  0.72317600  0.73263800  0.21189900  1
  Fe  Fe0  1  0.38535900  0.95138300  0.60412900  1
  Fe  Fe1  1  0.61464100  0.04861700  0.39587100  1
  Fe  Fe2  1  0.04171500  0.19854300  0.01214300  1
  Fe  Fe3  1  0.95828500  0.80145700  0.98785700  1
  W  W0  1  0.77515100  0.34027800  0.73198500  1
  W  W1  1  0.22484900  0.65972200  0.26801500  1
  W  W2  1  0.90149700  0.90086500  0.66187000  1
  W  W3  1  0.41180800  0.72303000  0.88192700  1
  W  W4  1  0.09850300  0.09913500  0.33813000  1
  W  W5  1  0.58819200  0.27697000  0.11807300  1
  O  O0  1  0.88989300  0.68207200  0.55463700  1
  O  O1  1  0.11010700  0.31792800  0.44536300  1
  O  O2  1  0.29790600  0.49819200  0.77420000  1
  O  O3  1  0.70209400  0.50180800  0.22580000  1
  O  O4  1  0.78058800  0.31534400  0.55189500  1
  O  O5  1  0.21941200  0.68465600  0.44810500  1
  O  O6  1  0.67067900  0.96649100  0.58234500  1
  O  O7  1  0.32932100  0.03350900  0.41765500  1
  O  O8  1  0.65153300  0.75100000  0.01509900  1
  O  O9  1  0.34846700  0.24900000  0.98490100  1
  O  O10  1  0.46904900  0.76595300  0.26393800  1
  O  O11  1  0.53095100  0.23404700  0.73606200  1
  O  O12  1  0.14755400  0.03098700  0.65559300  1
  O  O13  1  0.06791300  0.05096900  0.14449400  1
  O  O14  1  0.93208700  0.94903100  0.85550600  1
  O  O15  1  0.55795500  0.15399900  0.23352100  1
  O  O16  1  0.44204500  0.84600100  0.76647900  1
  O  O17  1  0.17605700  0.43578500  0.17729000  1
  O  O18  1  0.82394300  0.56421500  0.82271000  1
  O  O19  1  0.98131600  0.27305600  0.82609000  1
  O  O20  1  0.01868400  0.72694400  0.17391000  1
  O  O21  1  0.24296600  0.78804900  0.97127700  1
  O  O22  1  0.75703400  0.21195100  0.02872300  1
  O  O23  1  0.85244600  0.96901300  0.34440700  1
loop_
_geom_bond_atom_site_label_1
_geom_bond_atom_site_label_2
_geom_bond_distance
_geom_bond_site_symmetry_2
Fe0 O16 2.084466 1_555
Fe0 O12 2.095693 1_565
Fe0 O6 2.109268 1_555
Fe0 O7 2.184531 1_565
Fe0 O5 2.276150 1_555
Fe0 O11 2.290110 1_565
Fe1 O15 2.084466 1_555
Fe1 O23 2.095693 1_545
Fe1 O7 2.109268 1_555
Fe1 O6 2.184531 1_545
Fe1 O4 2.276150 1_555
Fe1 O10 2.290110 1_545
Fe2 O13 2.072446 1_555
Fe2 O17 2.118768 1_555
Fe2 O22 2.125524 1_455
Fe2 O19 2.144854 1_454
Fe2 O14 2.145134 1_444
Fe2 O9 2.272445 1_554
Fe3 O14 2.072446 1_555
Fe3 O18 2.118768 1_555
Fe3 O21 2.125524 1_655
Fe3 O20 2.144854 1_656
Fe3 O13 2.145134 1_666
Fe3 O8 2.272445 1_556
O0 W2 1.858697 1_555
O0 Zn0 1.882253 1_655
O1 W4 1.858697 1_555
O1 Zn0 1.882253 1_555
O2 W3 1.826542 1_555
O2 Zn1 1.963044 1_555
O3 W5 1.826542 1_555
O3 Zn2 1.963044 1_555
O4 W0 1.829523 1_555
O4 Zn0 2.258382 1_655
O5 W1 1.829523 1_555
O5 Zn0 2.258382 1_555
O6 W2 1.916519 1_555
O7 W4 1.916519 1_555
O8 W3 1.854138 1_554
O8 Zn2 2.025770 1_555
O9 W5 1.854138 1_556
O9 Zn1 2.025770 1_555
O10 W1 1.829575 1_555
O10 Zn2 2.083727 1_555
O11 W0 1.829575 1_555
O11 Zn1 2.083727 1_555
O12 W2 1.920989 1_445
O12 Zn1 1.981328 1_555
O13 W4 1.882493 1_555
O14 W2 1.882493 1_555
O15 W5 1.795607 1_555
O16 W3 1.795607 1_555
O17 W1 1.791537 1_555
O18 W0 1.791537 1_555
O19 W0 1.838031 1_555
O19 Zn1 2.269189 1_655
O20 W1 1.838031 1_555
O20 Zn2 2.269189 1_455
O21 W3 1.786390 1_555
O22 W5 1.786390 1_555
O23 W4 1.920989 1_665
O23 Zn2 1.981328 1_555
