# generated using pymatgen
data_DyPtF7
_symmetry_space_group_name_H-M   'P 1'
_cell_length_a   5.43507814
_cell_length_b   8.76905454
_cell_length_c   11.85089079
_cell_angle_alpha   62.34229027
_cell_angle_beta   90.00000000
_cell_angle_gamma   90.00000000
_symmetry_Int_Tables_number   1
_chemical_formula_structural   DyPtF7
_chemical_formula_sum   'Dy4 Pt4 F28'
_cell_volume   500.28109849
_cell_formula_units_Z   4
loop_
 _symmetry_equiv_pos_site_id
 _symmetry_equiv_pos_as_xyz
  1  'x, y, z'
loop_
 _atom_site_type_symbol
 _atom_site_label
 _atom_site_symmetry_multiplicity
 _atom_site_fract_x
 _atom_site_fract_y
 _atom_site_fract_z
 _atom_site_occupancy
  Dy  Dy0  1  0.76122209  0.81350852  0.76461442  1
  Dy  Dy1  1  0.26122209  0.18649148  0.73538558  1
  Dy  Dy2  1  0.23877791  0.18649148  0.23538558  1
  Dy  Dy3  1  0.73877791  0.81350852  0.26461442  1
  Pt  Pt0  1  0.75741923  0.27172945  0.95718527  1
  Pt  Pt1  1  0.25741923  0.72827055  0.54281473  1
  Pt  Pt2  1  0.24258077  0.72827055  0.04281473  1
  Pt  Pt3  1  0.74258077  0.27172945  0.45718527  1
  F  F0  1  0.43568094  0.70539837  0.91333922  1
  F  F1  1  0.93568094  0.29460163  0.58666078  1
  F  F2  1  0.56431906  0.29460163  0.08666078  1
  F  F3  1  0.06431906  0.70539837  0.41333922  1
  F  F4  1  0.43666459  0.27668420  0.54135544  1
  F  F5  1  0.93666459  0.72331580  0.95864456  1
  F  F6  1  0.56333541  0.72331580  0.45864456  1
  F  F7  1  0.06333541  0.27668420  0.04135544  1
  F  F8  1  0.77270491  0.52119816  0.85900126  1
  F  F9  1  0.27270491  0.47880184  0.64099874  1
  F  F10  1  0.22729509  0.47880184  0.14099874  1
  F  F11  1  0.72729509  0.52119816  0.35900126  1
  F  F12  1  0.75445977  0.02196025  0.05078692  1
  F  F13  1  0.25445977  0.97803975  0.44921308  1
  F  F14  1  0.24554023  0.97803975  0.94921308  1
  F  F15  1  0.74554023  0.02196025  0.55078692  1
  F  F16  1  0.95891983  0.72434411  0.63436393  1
  F  F17  1  0.45891983  0.27565589  0.86563607  1
  F  F18  1  0.04108017  0.27565589  0.36563607  1
  F  F19  1  0.54108017  0.72434411  0.13436393  1
  F  F20  1  0.05656543  0.74510538  0.17681835  1
  F  F21  1  0.55656543  0.25489462  0.32318165  1
  F  F22  1  0.94343457  0.25489462  0.82318165  1
  F  F23  1  0.44343457  0.74510538  0.67681835  1
  F  F24  1  0.40402600  0.96490117  0.23180736  1
  F  F25  1  0.90402600  0.03509883  0.26819264  1
  F  F26  1  0.59597400  0.03509883  0.76819264  1
  F  F27  1  0.09597400  0.96490117  0.73180736  1
loop_
_geom_bond_atom_site_label_1
_geom_bond_atom_site_label_2
_geom_bond_distance
_geom_bond_site_symmetry_2
Dy0 F26 2.158872 1_565
Dy0 F27 2.178221 1_655
Dy0 F23 2.237181 1_555
Dy0 F5 2.265785 1_555
Dy0 F8 2.272371 1_555
Dy0 F16 2.295435 1_555
Dy0 F15 2.338735 1_565
Dy0 F0 2.363168 1_555
Dy1 F27 2.158872 1_545
Dy1 F26 2.178221 1_555
Dy1 F22 2.237181 1_455
Dy1 F4 2.265785 1_555
Dy1 F9 2.272371 1_555
Dy1 F17 2.295435 1_555
Dy1 F14 2.338735 1_545
Dy1 F1 2.363168 1_455
Dy2 F24 2.158872 1_545
Dy2 F25 2.178221 1_455
Dy2 F21 2.237181 1_555
Dy2 F7 2.265785 1_555
Dy2 F10 2.272371 1_555
Dy2 F18 2.295435 1_555
Dy2 F13 2.338735 1_545
Dy2 F2 2.363168 1_555
Dy3 F25 2.158872 1_565
Dy3 F24 2.178221 1_555
Dy3 F20 2.237181 1_655
Dy3 F6 2.265785 1_555
Dy3 F11 2.272371 1_555
Dy3 F19 2.295435 1_555
Dy3 F12 2.338735 1_565
Dy3 F3 2.363168 1_655
F0 Pt2 1.944685 1_556
F1 Pt3 1.944685 1_555
F2 Pt0 1.944685 1_554
F3 Pt1 1.944685 1_555
F4 Pt3 1.949772 1_555
F5 Pt2 1.949772 1_656
F6 Pt1 1.949772 1_555
F7 Pt0 1.949772 1_454
F8 Pt0 1.945069 1_555
F9 Pt1 1.945069 1_555
F10 Pt2 1.945069 1_555
F11 Pt3 1.945069 1_555
F12 Pt0 1.942250 1_554
F13 Pt1 1.942250 1_555
F14 Pt2 1.942250 1_556
F15 Pt3 1.942250 1_555
F16 Pt1 1.943110 1_655
F17 Pt0 1.943110 1_555
F18 Pt3 1.943110 1_455
F19 Pt2 1.943110 1_555
F20 Pt2 1.945127 1_555
F21 Pt3 1.945127 1_555
F22 Pt0 1.945127 1_555
F23 Pt1 1.945127 1_555
