# generated using pymatgen
data_TaNiB
_symmetry_space_group_name_H-M   'P 1'
_cell_length_a   6.81092742
_cell_length_b   6.81092742
_cell_length_c   3.05278025
_cell_angle_alpha   90.00000000
_cell_angle_beta   90.00000000
_cell_angle_gamma   152.22306410
_symmetry_Int_Tables_number   1
_chemical_formula_structural   TaNiB
_chemical_formula_sum   'Ta2 Ni2 B2'
_cell_volume   65.99672823
_cell_formula_units_Z   2
loop_
 _symmetry_equiv_pos_site_id
 _symmetry_equiv_pos_as_xyz
  1  'x, y, z'
loop_
 _atom_site_type_symbol
 _atom_site_label
 _atom_site_symmetry_multiplicity
 _atom_site_fract_x
 _atom_site_fract_y
 _atom_site_fract_z
 _atom_site_occupancy
  Ta  Ta0  1  0.90118075  0.09881925  0.75000000  1
  Ta  Ta1  1  0.09881925  0.90118075  0.25000000  1
  Ni  Ni0  1  0.70433296  0.29566704  0.75000000  1
  Ni  Ni1  1  0.29566704  0.70433296  0.25000000  1
  B  B0  1  0.53541116  0.46458884  0.75000000  1
  B  B1  1  0.46458884  0.53541116  0.25000000  1
loop_
_geom_bond_atom_site_label_1
_geom_bond_atom_site_label_2
_geom_bond_distance
_geom_bond_site_symmetry_2
Ni0 Ni1 2.541906 1_546
Ni0 Ni1 2.541906 1_545
Ni0 Ni1 2.541906 1_656
Ni0 Ni1 2.541906 1_655
Ni0 Ta0 2.603040 1_555
Ni0 Ta1 2.636166 1_545
Ni0 Ta1 2.636166 1_546
Ni0 Ta1 2.636166 1_655
Ni0 Ta1 2.636166 1_656
Ni1 Ta1 2.603040 1_555
Ni1 Ta0 2.636166 1_564
Ni1 Ta0 2.636166 1_565
Ni1 Ta0 2.636166 1_455
Ni1 Ta0 2.636166 1_454
B0 B1 1.790796 1_556
B0 B1 1.790796 1_555
B0 Ni0 2.233757 1_555
B0 Ta1 2.388648 1_545
B0 Ta1 2.388648 1_656
B0 Ta1 2.388648 1_546
B0 Ta1 2.388648 1_655
B0 Ta0 2.413169 1_565
B0 Ta0 2.413169 1_455
B1 Ni1 2.233757 1_555
B1 Ta0 2.388648 1_564
B1 Ta0 2.388648 1_455
B1 Ta0 2.388648 1_565
B1 Ta0 2.388648 1_454
B1 Ta1 2.413169 1_655
B1 Ta1 2.413169 1_545
