# generated using pymatgen
data_Hf2CoCu
_symmetry_space_group_name_H-M   'P 1'
_cell_length_a   9.40931842
_cell_length_b   9.40931842
_cell_length_c   9.40931842
_cell_angle_alpha   119.88203942
_cell_angle_beta   118.42196593
_cell_angle_gamma   91.47969163
_symmetry_Int_Tables_number   1
_chemical_formula_structural   Hf2CoCu
_chemical_formula_sum   'Hf2 Co1 Cu1'
_cell_volume   596.27770090
_cell_formula_units_Z   1
loop_
 _symmetry_equiv_pos_site_id
 _symmetry_equiv_pos_as_xyz
  1  'x, y, z'
loop_
 _atom_site_type_symbol
 _atom_site_label
 _atom_site_symmetry_multiplicity
 _atom_site_fract_x
 _atom_site_fract_y
 _atom_site_fract_z
 _atom_site_occupancy
  Hf  Hf0  1  0.77706300  0.00000000  0.77706300  1
  Hf  Hf1  1  0.22293700  0.00000000  0.22293700  1
  Co  Co0  1  0.00000000  0.00000000  0.00000000  1
  Cu  Cu0  1  0.50000000  0.00000000  0.50000000  1
loop_
_geom_bond_atom_site_label_1
_geom_bond_atom_site_label_2
_geom_bond_distance
_geom_bond_site_symmetry_2
Co0 Hf1 2.147519 1_555
Co0 Hf0 2.147519 1_454
Cu0 Hf0 2.668906 1_555
Cu0 Hf1 2.668906 1_555
