# generated using pymatgen
data_Zn(BiO2)2
_symmetry_space_group_name_H-M   'P 1'
_cell_length_a   6.82642584
_cell_length_b   6.82642584
_cell_length_c   6.82642584
_cell_angle_alpha   60.00000000
_cell_angle_beta   60.00000000
_cell_angle_gamma   60.00000000
_symmetry_Int_Tables_number   1
_chemical_formula_structural   Zn(BiO2)2
_chemical_formula_sum   'Zn2 Bi4 O8'
_cell_volume   224.93919217
_cell_formula_units_Z   2
loop_
 _symmetry_equiv_pos_site_id
 _symmetry_equiv_pos_as_xyz
  1  'x, y, z'
loop_
 _atom_site_type_symbol
 _atom_site_label
 _atom_site_symmetry_multiplicity
 _atom_site_fract_x
 _atom_site_fract_y
 _atom_site_fract_z
 _atom_site_occupancy
  Zn  Zn0  1  0.25000000  0.25000000  0.25000000  1
  Zn  Zn1  1  0.00000000  0.00000000  0.00000000  1
  Bi  Bi0  1  0.62500000  0.62500000  0.12500000  1
  Bi  Bi1  1  0.12500000  0.62500000  0.62500000  1
  Bi  Bi2  1  0.62500000  0.62500000  0.62500000  1
  Bi  Bi3  1  0.62500000  0.12500000  0.62500000  1
  O  O0  1  0.37277300  0.87574200  0.87574200  1
  O  O1  1  0.87574200  0.87574200  0.37277300  1
  O  O2  1  0.87574200  0.87574200  0.87574200  1
  O  O3  1  0.87722700  0.37425800  0.37425800  1
  O  O4  1  0.37425800  0.87722700  0.37425800  1
  O  O5  1  0.37425800  0.37425800  0.87722700  1
  O  O6  1  0.87574200  0.37277300  0.87574200  1
  O  O7  1  0.37425800  0.37425800  0.37425800  1
loop_
_geom_bond_atom_site_label_1
_geom_bond_atom_site_label_2
_geom_bond_distance
_geom_bond_site_symmetry_2
Bi0 O2 2.420690 1_554
Bi0 O7 2.420690 1_555
Bi0 O3 2.420695 1_555
Bi0 O4 2.420695 1_555
Bi0 O6 2.420695 1_554
Bi0 O0 2.420695 1_554
Bi1 O2 2.420690 1_455
Bi1 O7 2.420690 1_555
Bi1 O4 2.420695 1_555
Bi1 O5 2.420695 1_555
Bi1 O1 2.420695 1_455
Bi1 O6 2.420695 1_455
Bi2 O6 2.420691 1_555
Bi2 O1 2.420691 1_555
Bi2 O0 2.420691 1_555
Bi2 O4 2.420691 1_555
Bi2 O5 2.420691 1_555
Bi2 O3 2.420691 1_555
Bi3 O2 2.420690 1_545
Bi3 O7 2.420690 1_555
Bi3 O3 2.420695 1_555
Bi3 O5 2.420695 1_555
Bi3 O0 2.420695 1_545
Bi3 O1 2.420695 1_545
O0 Zn1 2.077745 1_566
O1 Zn1 2.077745 1_665
O2 Zn1 2.077750 1_666
O3 Zn0 2.077745 1_655
O4 Zn0 2.077745 1_565
O5 Zn0 2.077745 1_556
O6 Zn1 2.077745 1_656
O7 Zn0 2.077750 1_555
