# generated using pymatgen
data_SmNi3Sn2
_symmetry_space_group_name_H-M   'P 1'
_cell_length_a   4.10239100
_cell_length_b   9.58246961
_cell_length_c   9.58246961
_cell_angle_alpha   119.99999730
_cell_angle_beta   90.00000000
_cell_angle_gamma   90.00000000
_symmetry_Int_Tables_number   1
_chemical_formula_structural   SmNi3Sn2
_chemical_formula_sum   'Sm3 Ni9 Sn6'
_cell_volume   326.22902292
_cell_formula_units_Z   3
loop_
 _symmetry_equiv_pos_site_id
 _symmetry_equiv_pos_as_xyz
  1  'x, y, z'
loop_
 _atom_site_type_symbol
 _atom_site_label
 _atom_site_symmetry_multiplicity
 _atom_site_fract_x
 _atom_site_fract_y
 _atom_site_fract_z
 _atom_site_occupancy
  Sm  Sm0  1  0.00000000  0.00000000  0.00000000  1
  Sm  Sm1  1  0.50000000  0.66666700  0.33333300  1
  Sm  Sm2  1  0.50000000  0.33333300  0.66666700  1
  Ni  Ni0  1  0.00000000  0.81492100  0.18507900  1
  Ni  Ni1  1  0.00000000  0.18507900  0.81492100  1
  Ni  Ni2  1  0.00000000  0.37015800  0.18507900  1
  Ni  Ni3  1  0.00000000  0.62984200  0.81492100  1
  Ni  Ni4  1  0.00000000  0.81492100  0.62984200  1
  Ni  Ni5  1  0.00000000  0.18507900  0.37015800  1
  Ni  Ni6  1  0.00000000  0.50000000  0.50000000  1
  Ni  Ni7  1  0.00000000  0.00000000  0.50000000  1
  Ni  Ni8  1  0.00000000  0.50000000  0.00000000  1
  Sn  Sn0  1  0.50000000  0.67742200  0.67742200  1
  Sn  Sn1  1  0.50000000  0.32257800  0.32257800  1
  Sn  Sn2  1  0.50000000  0.00000000  0.32257800  1
  Sn  Sn3  1  0.50000000  0.00000000  0.67742200  1
  Sn  Sn4  1  0.50000000  0.32257800  0.00000000  1
  Sn  Sn5  1  0.50000000  0.67742200  0.00000000  1
loop_
_geom_bond_atom_site_label_1
_geom_bond_atom_site_label_2
_geom_bond_distance
_geom_bond_site_symmetry_2
Sm1 Sn5 3.246910 1_555
Sm1 Sn2 3.246910 1_565
Sm1 Sn3 3.246915 1_565
Sm1 Sn4 3.246915 1_555
Sm1 Sn1 3.246920 1_555
Sm1 Sn0 3.246920 1_555
Sm2 Sn3 3.246910 1_555
Sm2 Sn4 3.246910 1_556
Sm2 Sn5 3.246915 1_556
Sm2 Sn2 3.246915 1_555
Sm2 Sn0 3.246920 1_555
Sm2 Sn1 3.246920 1_555
Ni0 Sn2 2.598466 1_465
Ni0 Sn5 2.598466 1_555
Ni0 Sn2 2.598466 1_565
Ni0 Sn5 2.598466 1_455
Ni0 Ni8 2.626789 1_555
Ni0 Ni7 2.626789 1_565
Ni0 Sm0 3.071816 1_565
Ni0 Ni3 3.071816 1_554
Ni0 Ni5 3.071816 1_565
Ni0 Sm1 3.203444 1_555
Ni0 Sm1 3.203444 1_455
Ni1 Sn3 2.598466 1_455
Ni1 Sn4 2.598466 1_556
Ni1 Sn4 2.598466 1_456
Ni1 Sn3 2.598466 1_555
Ni1 Ni7 2.626789 1_555
Ni1 Ni8 2.626789 1_556
Ni1 Sm0 3.071816 1_556
Ni1 Ni2 3.071816 1_556
Ni1 Ni4 3.071816 1_545
Ni1 Sm2 3.203444 1_455
Ni1 Sm2 3.203444 1_555
Ni2 Sn1 2.598466 1_555
Ni2 Sn1 2.598466 1_455
Ni2 Sn4 2.598466 1_455
Ni2 Sn4 2.598466 1_555
Ni2 Ni8 2.626789 1_555
Ni2 Ni6 2.626789 1_555
Ni2 Ni5 3.071816 1_555
Ni2 Sm0 3.071816 1_555
Ni2 Sm1 3.203450 1_555
Ni2 Sm1 3.203450 1_455
Ni3 Sn0 2.598466 1_455
Ni3 Sn0 2.598466 1_555
Ni3 Sn5 2.598466 1_456
Ni3 Sn5 2.598466 1_556
Ni3 Ni8 2.626789 1_556
Ni3 Ni6 2.626789 1_555
Ni3 Ni4 3.071816 1_555
Ni3 Sm0 3.071816 1_566
Ni3 Sm2 3.203450 1_555
Ni3 Sm2 3.203450 1_455
Ni4 Sn0 2.598466 1_455
Ni4 Sn0 2.598466 1_555
Ni4 Sn3 2.598466 1_565
Ni4 Sn3 2.598466 1_465
Ni4 Ni7 2.626789 1_565
Ni4 Ni6 2.626789 1_555
Ni4 Sm0 3.071816 1_566
Ni4 Sm1 3.203450 1_555
Ni4 Sm1 3.203450 1_455
Ni5 Sn1 2.598466 1_555
Ni5 Sn1 2.598466 1_455
Ni5 Sn2 2.598466 1_455
Ni5 Sn2 2.598466 1_555
Ni5 Ni7 2.626789 1_555
Ni5 Ni6 2.626789 1_555
Ni5 Sm0 3.071816 1_555
Ni5 Sm2 3.203450 1_555
Ni5 Sm2 3.203450 1_455
Ni6 Sn0 2.664185 1_455
Ni6 Sn0 2.664185 1_555
Ni6 Sn1 2.664185 1_555
Ni6 Sn1 2.664185 1_455
Ni6 Sm2 3.443749 1_555
Ni6 Sm2 3.443749 1_455
Ni6 Sm1 3.443749 1_555
Ni6 Sm1 3.443749 1_455
Ni7 Sn3 2.664185 1_455
Ni7 Sn2 2.664185 1_555
Ni7 Sn2 2.664185 1_455
Ni7 Sn3 2.664185 1_555
Ni7 Sm1 3.443743 1_445
Ni7 Sm2 3.443743 1_555
Ni7 Sm2 3.443743 1_455
Ni7 Sm1 3.443743 1_545
Ni8 Sn5 2.664185 1_555
Ni8 Sn4 2.664185 1_455
Ni8 Sn5 2.664185 1_455
Ni8 Sn4 2.664185 1_555
Ni8 Sm2 3.443743 1_554
Ni8 Sm1 3.443743 1_555
Ni8 Sm1 3.443743 1_455
Ni8 Sm2 3.443743 1_454
