# generated using pymatgen
data_NaFe3P3O13
_symmetry_space_group_name_H-M   'P 1'
_cell_length_a   6.38859300
_cell_length_b   7.62693100
_cell_length_c   10.40258837
_cell_angle_alpha   80.62336188
_cell_angle_beta   90.00000000
_cell_angle_gamma   90.00000000
_symmetry_Int_Tables_number   1
_chemical_formula_structural   NaFe3P3O13
_chemical_formula_sum   'Na2 Fe6 P6 O26'
_cell_volume   500.09738945
_cell_formula_units_Z   2
loop_
 _symmetry_equiv_pos_site_id
 _symmetry_equiv_pos_as_xyz
  1  'x, y, z'
loop_
 _atom_site_type_symbol
 _atom_site_label
 _atom_site_symmetry_multiplicity
 _atom_site_fract_x
 _atom_site_fract_y
 _atom_site_fract_z
 _atom_site_occupancy
  Na  Na0  1  0.75000000  0.33999900  0.18893000  1
  Na  Na1  1  0.25000000  0.66000100  0.81107000  1
  Fe  Fe0  1  0.25000000  0.64175000  0.19636800  1
  Fe  Fe1  1  0.75000000  0.35825000  0.80363200  1
  Fe  Fe2  1  0.25000000  0.21387100  0.43950100  1
  Fe  Fe3  1  0.50000000  0.00000000  0.00000000  1
  Fe  Fe4  1  0.75000000  0.78612900  0.56049900  1
  Fe  Fe5  1  0.00000000  0.00000000  0.00000000  1
  P  P0  1  0.25000000  0.78171100  0.48481900  1
  P  P1  1  0.75000000  0.21828900  0.51518100  1
  P  P2  1  0.25000000  0.25713500  0.76271100  1
  P  P3  1  0.75000000  0.74286500  0.23728900  1
  P  P4  1  0.75000000  0.68895500  0.88510800  1
  P  P5  1  0.25000000  0.31104500  0.11489200  1
  O  O0  1  0.75000000  0.64948900  0.74173700  1
  O  O1  1  0.55709000  0.25216300  0.42489400  1
  O  O2  1  0.25000000  0.20421000  0.62706100  1
  O  O3  1  0.54987600  0.79283800  0.90917600  1
  O  O4  1  0.75000000  0.35030200  0.61242400  1
  O  O5  1  0.75000000  0.12164000  0.90797200  1
  O  O6  1  0.25000000  0.64969800  0.38757600  1
  O  O7  1  0.04987600  0.20716200  0.09082400  1
  O  O8  1  0.25000000  0.97444600  0.40913200  1
  O  O9  1  0.75000000  0.02555400  0.59086800  1
  O  O10  1  0.05902700  0.37048800  0.78675300  1
  O  O11  1  0.25000000  0.87836000  0.09202800  1
  O  O12  1  0.55902700  0.62951200  0.21324700  1
  O  O13  1  0.75000000  0.49633300  0.95995100  1
  O  O14  1  0.75000000  0.79579000  0.37293900  1
  O  O15  1  0.45012400  0.20716200  0.09082400  1
  O  O16  1  0.94291000  0.25216300  0.42489400  1
  O  O17  1  0.44291000  0.74783700  0.57510600  1
  O  O18  1  0.44097300  0.37048800  0.78675300  1
  O  O19  1  0.25000000  0.35051100  0.25826300  1
  O  O20  1  0.75000000  0.91738400  0.13173100  1
  O  O21  1  0.25000000  0.08261600  0.86826900  1
  O  O22  1  0.94097300  0.62951200  0.21324700  1
  O  O23  1  0.95012400  0.79283800  0.90917600  1
  O  O24  1  0.05709000  0.74783700  0.57510600  1
  O  O25  1  0.25000000  0.50366700  0.04004900  1
loop_
_geom_bond_atom_site_label_1
_geom_bond_atom_site_label_2
_geom_bond_distance
_geom_bond_site_symmetry_2
Na0 O15 2.464779 1_555
Na0 O7 2.464779 1_655
Na0 O13 2.483957 1_554
Na0 O12 2.571031 1_555
Na0 O22 2.571031 1_555
Na0 O16 2.730764 1_555
Na0 O1 2.730764 1_555
Na1 O23 2.464779 1_455
Na1 O3 2.464779 1_555
Na1 O25 2.483957 1_556
Na1 O10 2.571031 1_555
Na1 O18 2.571031 1_555
Na1 O17 2.730764 1_555
Na1 O24 2.730764 1_555
Fe0 O11 1.948453 1_555
Fe0 O12 1.982891 1_555
Fe0 O22 1.982891 1_455
Fe0 O6 1.999829 1_555
Fe0 O25 2.076398 1_555
Fe0 O19 2.209646 1_555
Fe1 O5 1.948453 1_555
Fe1 O10 1.982891 1_655
Fe1 O18 1.982891 1_555
Fe1 O4 1.999829 1_555
Fe1 O13 2.076398 1_555
Fe1 O0 2.209646 1_555
Fe2 O8 1.903245 1_545
Fe2 O2 1.940467 1_555
Fe2 O16 1.985666 1_455
Fe2 O1 1.985666 1_555
Fe2 O19 2.000091 1_555
Fe3 O3 1.994253 1_544
Fe3 O15 1.994253 1_555
Fe3 O5 2.009642 1_554
Fe3 O11 2.009642 1_545
Fe3 O20 2.131760 1_545
Fe3 O21 2.131760 1_554
Fe4 O9 1.903245 1_565
Fe4 O14 1.940467 1_555
Fe4 O17 1.985666 1_555
Fe4 O24 1.985666 1_655
Fe4 O0 2.000091 1_555
Fe5 O23 1.994253 1_444
Fe5 O7 1.994253 1_555
Fe5 O5 2.009642 1_454
Fe5 O11 2.009642 1_545
Fe5 O20 2.131760 1_445
Fe5 O21 2.131760 1_554
O0 P4 1.568836 1_555
O1 P1 1.545535 1_555
O2 P2 1.529633 1_555
O3 P4 1.545854 1_555
O4 P1 1.539132 1_555
O6 P0 1.539132 1_555
O7 P5 1.545854 1_555
O8 P0 1.550358 1_555
O9 P1 1.550358 1_555
O10 P2 1.539138 1_555
O12 P3 1.539138 1_555
O13 P4 1.546529 1_555
O14 P3 1.529633 1_555
O15 P5 1.545854 1_555
O16 P1 1.545535 1_555
O17 P0 1.545535 1_555
O18 P2 1.539138 1_555
O19 P5 1.568836 1_555
O20 P3 1.581517 1_555
O21 P2 1.581517 1_555
O22 P3 1.539138 1_555
O23 P4 1.545854 1_555
O24 P0 1.545535 1_555
O25 P5 1.546529 1_555
