# generated using pymatgen
data_Tb2NiIr
_symmetry_space_group_name_H-M   'P 1'
_cell_length_a   4.84301394
_cell_length_b   4.84301394
_cell_length_c   4.84301394
_cell_angle_alpha   60.00000000
_cell_angle_beta   60.00000000
_cell_angle_gamma   60.00000000
_symmetry_Int_Tables_number   1
_chemical_formula_structural   Tb2NiIr
_chemical_formula_sum   'Tb2 Ni1 Ir1'
_cell_volume   80.32156470
_cell_formula_units_Z   1
loop_
 _symmetry_equiv_pos_site_id
 _symmetry_equiv_pos_as_xyz
  1  'x, y, z'
loop_
 _atom_site_type_symbol
 _atom_site_label
 _atom_site_symmetry_multiplicity
 _atom_site_fract_x
 _atom_site_fract_y
 _atom_site_fract_z
 _atom_site_occupancy
  Tb  Tb0  1  0.25000000  0.25000000  0.25000000  1
  Tb  Tb1  1  0.75000000  0.75000000  0.75000000  1
  Ni  Ni0  1  0.00000000  0.00000000  0.00000000  1
  Ir  Ir0  1  0.50000000  0.50000000  0.50000000  1
loop_
_geom_bond_atom_site_label_1
_geom_bond_atom_site_label_2
_geom_bond_distance
_geom_bond_site_symmetry_2
Ni0 Tb1 2.965728 1_544
Ni0 Tb0 2.965728 1_455
Ni0 Tb0 2.965728 1_554
Ni0 Tb0 2.965728 1_545
Ni0 Tb1 2.965728 1_444
Ni0 Tb1 2.965728 1_454
Ni0 Tb1 2.965728 1_445
Ni0 Tb0 2.965728 1_555
Ir0 Tb0 2.965728 1_655
Ir0 Tb1 2.965728 1_455
Ir0 Tb0 2.965728 1_556
Ir0 Tb1 2.965728 1_554
Ir0 Tb1 2.965728 1_555
Ir0 Tb0 2.965728 1_565
Ir0 Tb1 2.965728 1_545
Ir0 Tb0 2.965728 1_555
