# generated using pymatgen
data_CeMg2Fe
_symmetry_space_group_name_H-M   'P 1'
_cell_length_a   4.96675904
_cell_length_b   4.96675904
_cell_length_c   4.96675904
_cell_angle_alpha   60.00000000
_cell_angle_beta   60.00000000
_cell_angle_gamma   60.00000000
_symmetry_Int_Tables_number   1
_chemical_formula_structural   CeMg2Fe
_chemical_formula_sum   'Ce1 Mg2 Fe1'
_cell_volume   86.63717361
_cell_formula_units_Z   1
loop_
 _symmetry_equiv_pos_site_id
 _symmetry_equiv_pos_as_xyz
  1  'x, y, z'
loop_
 _atom_site_type_symbol
 _atom_site_label
 _atom_site_symmetry_multiplicity
 _atom_site_fract_x
 _atom_site_fract_y
 _atom_site_fract_z
 _atom_site_occupancy
  Ce  Ce0  1  0.00000000  0.00000000  0.00000000  1
  Mg  Mg0  1  0.75000000  0.75000000  0.75000000  1
  Mg  Mg1  1  0.25000000  0.25000000  0.25000000  1
  Fe  Fe0  1  0.50000000  0.50000000  0.50000000  1
loop_
_geom_bond_atom_site_label_1
_geom_bond_atom_site_label_2
_geom_bond_distance
_geom_bond_site_symmetry_2
Ce0 Mg0 3.041506 1_544
Ce0 Mg1 3.041506 1_455
Ce0 Mg1 3.041506 1_554
Ce0 Mg1 3.041506 1_555
Ce0 Mg1 3.041506 1_545
Ce0 Mg0 3.041506 1_444
Ce0 Mg0 3.041506 1_445
Ce0 Mg0 3.041506 1_454
Ce0 Fe0 3.512029 1_544
Ce0 Fe0 3.512029 1_445
Ce0 Fe0 3.512029 1_455
Ce0 Fe0 3.512029 1_545
Ce0 Fe0 3.512029 1_554
Ce0 Fe0 3.512029 1_454
Fe0 Mg0 3.041506 1_545
Fe0 Mg0 3.041506 1_555
Fe0 Mg1 3.041506 1_555
Fe0 Mg1 3.041506 1_565
Fe0 Mg0 3.041506 1_554
Fe0 Mg1 3.041506 1_655
Fe0 Mg0 3.041506 1_455
Fe0 Mg1 3.041506 1_556
