# generated using pymatgen
data_Li7Mn2(CoO4)3
_symmetry_space_group_name_H-M   'P 1'
_cell_length_a   2.93193500
_cell_length_b   5.95283300
_cell_length_c   12.91039300
_cell_angle_alpha   77.44518419
_cell_angle_beta   90.00000000
_cell_angle_gamma   90.00000000
_symmetry_Int_Tables_number   1
_chemical_formula_structural   Li7Mn2(CoO4)3
_chemical_formula_sum   'Li7 Mn2 Co3 O12'
_cell_volume   219.94125101
_cell_formula_units_Z   1
loop_
 _symmetry_equiv_pos_site_id
 _symmetry_equiv_pos_as_xyz
  1  'x, y, z'
loop_
 _atom_site_type_symbol
 _atom_site_label
 _atom_site_symmetry_multiplicity
 _atom_site_fract_x
 _atom_site_fract_y
 _atom_site_fract_z
 _atom_site_occupancy
  Li  Li0  1  0.00000000  0.18694600  0.64964700  1
  Li  Li1  1  0.50000000  0.00430000  0.49318400  1
  Li  Li2  1  0.00000000  0.81553900  0.34605700  1
  Li  Li3  1  0.50000000  0.65868800  0.17556300  1
  Li  Li4  1  0.00000000  0.49480300  0.00814600  1
  Li  Li5  1  0.50000000  0.34087200  0.82563900  1
  Li  Li6  1  0.50000000  0.49979100  0.49679700  1
  Mn  Mn0  1  0.00000000  0.00214600  0.00241700  1
  Mn  Mn1  1  0.50000000  0.83142300  0.83093100  1
  Co  Co0  1  0.00000000  0.66178100  0.64838600  1
  Co  Co1  1  0.00000000  0.34486600  0.34616700  1
  Co  Co2  1  0.50000000  0.16741200  0.18099000  1
  O  O0  1  0.00000000  0.75099400  0.50873600  1
  O  O1  1  0.50000000  0.57132900  0.33020900  1
  O  O2  1  0.00000000  0.39942700  0.16658300  1
  O  O3  1  0.50000000  0.22466600  0.99859500  1
  O  O4  1  0.00000000  0.05211700  0.84257100  1
  O  O5  1  0.50000000  0.89696600  0.68328900  1
  O  O6  1  0.00000000  0.61427200  0.83757900  1
  O  O7  1  0.50000000  0.43148600  0.67196200  1
  O  O8  1  0.00000000  0.25033300  0.48811300  1
  O  O9  1  0.50000000  0.08701000  0.32484600  1
  O  O10  1  0.00000000  0.93560000  0.15104700  1
  O  O11  1  0.50000000  0.77723500  0.99254600  1
loop_
_geom_bond_atom_site_label_1
_geom_bond_atom_site_label_2
_geom_bond_distance
_geom_bond_site_symmetry_2
Li0 O8 2.037019 1_555
Li0 O7 2.129193 1_455
Li0 O7 2.129193 1_555
Li0 O5 2.234173 1_445
Li0 O5 2.234173 1_545
Li0 O4 2.445158 1_555
Li1 O8 2.063176 1_555
Li1 O8 2.063176 1_655
Li1 O0 2.081220 1_545
Li1 O0 2.081220 1_645
Li1 O9 2.121436 1_555
Li1 O5 2.397963 1_545
Li2 O0 2.051305 1_555
Li2 O1 2.105611 1_555
Li2 O1 2.105611 1_455
Li2 O9 2.154805 1_565
Li2 O9 2.154805 1_465
Li2 O10 2.463152 1_555
Li3 O1 1.950699 1_555
Li3 O2 2.149926 1_555
Li3 O2 2.149926 1_655
Li3 O10 2.177079 1_655
Li3 O10 2.177079 1_555
Li3 O11 2.314307 1_554
Li4 O2 2.000366 1_555
Li4 O6 2.161970 1_554
Li4 O3 2.199180 1_554
Li4 O3 2.199180 1_454
Li4 O11 2.206600 1_554
Li4 O11 2.206600 1_454
Li5 O7 1.939606 1_555
Li5 O3 2.189286 1_555
Li5 O6 2.220510 1_655
Li5 O6 2.220510 1_555
Li5 O4 2.233415 1_555
Li5 O4 2.233415 1_655
Li6 O1 2.099703 1_555
Li6 O8 2.106936 1_555
Li6 O8 2.106936 1_655
Li6 O0 2.123477 1_555
Li6 O0 2.123477 1_655
Li6 O7 2.209009 1_555
Mn0 O10 1.873106 1_545
Mn0 O3 1.969190 1_554
Mn0 O3 1.969190 1_454
Mn0 O11 2.007989 1_444
Mn0 O11 2.007989 1_544
Mn0 O4 2.019990 1_554
Mn1 O5 1.860695 1_555
Mn1 O6 1.944009 1_655
Mn1 O6 1.944009 1_555
Mn1 O4 1.995852 1_665
Mn1 O4 1.995852 1_565
Mn1 O11 2.040829 1_555
Co0 O0 1.765319 1_555
Co0 O7 1.984864 1_555
Co0 O7 1.984864 1_455
Co0 O5 2.141594 1_455
Co0 O5 2.141594 1_555
Co0 O6 2.397028 1_555
Co1 O8 1.796296 1_555
Co1 O1 1.971833 1_555
Co1 O1 1.971833 1_455
Co1 O9 2.182811 1_555
Co1 O9 2.182811 1_455
Co1 O2 2.270144 1_555
Co2 O9 1.814375 1_555
Co2 O2 1.994878 1_555
Co2 O2 1.994878 1_655
Co2 O10 2.105860 1_545
Co2 O10 2.105860 1_645
Co2 O3 2.304840 1_554
