# generated using pymatgen
data_IrN5Cl3
_symmetry_space_group_name_H-M   'P 1'
_cell_length_a   6.27202200
_cell_length_b   7.38105800
_cell_length_c   17.17548900
_cell_angle_alpha   90.00000000
_cell_angle_beta   90.00000000
_cell_angle_gamma   90.00000000
_symmetry_Int_Tables_number   1
_chemical_formula_structural   IrN5Cl3
_chemical_formula_sum   'Ir4 N20 Cl12'
_cell_volume   795.12480423
_cell_formula_units_Z   4
loop_
 _symmetry_equiv_pos_site_id
 _symmetry_equiv_pos_as_xyz
  1  'x, y, z'
loop_
 _atom_site_type_symbol
 _atom_site_label
 _atom_site_symmetry_multiplicity
 _atom_site_fract_x
 _atom_site_fract_y
 _atom_site_fract_z
 _atom_site_occupancy
  Ir  Ir0  1  0.25000000  0.33702600  0.64671400  1
  Ir  Ir1  1  0.25000000  0.16297400  0.14671400  1
  Ir  Ir2  1  0.75000000  0.66297400  0.35328600  1
  Ir  Ir3  1  0.75000000  0.83702600  0.85328600  1
  N  N0  1  0.25000000  0.15439800  0.71076300  1
  N  N1  1  0.25000000  0.34560200  0.21076300  1
  N  N2  1  0.75000000  0.84560200  0.28923700  1
  N  N3  1  0.75000000  0.65439800  0.78923700  1
  N  N4  1  0.25000000  0.54201300  0.69886100  1
  N  N5  1  0.25000000  0.95798700  0.19886100  1
  N  N6  1  0.75000000  0.45798700  0.30113900  1
  N  N7  1  0.75000000  0.04201300  0.80113900  1
  N  N8  1  0.02490600  0.32896700  0.57630300  1
  N  N9  1  0.47509400  0.17103300  0.07630300  1
  N  N10  1  0.52490600  0.67103300  0.42369700  1
  N  N11  1  0.97509400  0.82896700  0.92369700  1
  N  N12  1  0.97509400  0.67103300  0.42369700  1
  N  N13  1  0.52490600  0.82896700  0.92369700  1
  N  N14  1  0.47509400  0.32896700  0.57630300  1
  N  N15  1  0.02490600  0.17103300  0.07630300  1
  N  N16  1  0.25000000  0.14628200  0.42570900  1
  N  N17  1  0.25000000  0.35371800  0.92570900  1
  N  N18  1  0.75000000  0.85371800  0.57429100  1
  N  N19  1  0.75000000  0.64628200  0.07429100  1
  Cl  Cl0  1  0.25000000  0.69054600  0.43561100  1
  Cl  Cl1  1  0.25000000  0.80945400  0.93561100  1
  Cl  Cl2  1  0.75000000  0.30945400  0.56438900  1
  Cl  Cl3  1  0.75000000  0.19054600  0.06438900  1
  Cl  Cl4  1  0.02706400  0.34150200  0.87052600  1
  Cl  Cl5  1  0.47293600  0.15849800  0.37052600  1
  Cl  Cl6  1  0.52706400  0.65849800  0.12947400  1
  Cl  Cl7  1  0.97293600  0.84150200  0.62947400  1
  Cl  Cl8  1  0.97293600  0.65849800  0.12947400  1
  Cl  Cl9  1  0.52706400  0.84150200  0.62947400  1
  Cl  Cl10  1  0.47293600  0.34150200  0.87052600  1
  Cl  Cl11  1  0.02706400  0.15849800  0.37052600  1
loop_
_geom_bond_atom_site_label_1
_geom_bond_atom_site_label_2
_geom_bond_distance
_geom_bond_site_symmetry_2
Ir0 N0 1.739894 1_555
Ir0 N4 1.758244 1_555
Ir0 N14 1.859896 1_555
Ir0 N8 1.859896 1_555
Ir1 N1 1.739894 1_555
Ir1 N5 1.758244 1_545
Ir1 N9 1.859896 1_555
Ir1 N15 1.859896 1_555
Ir2 N2 1.739894 1_555
Ir2 N6 1.758244 1_555
Ir2 N12 1.859896 1_555
Ir2 N10 1.859896 1_555
Ir3 N3 1.739894 1_555
Ir3 N7 1.758244 1_565
Ir3 N11 1.859896 1_555
Ir3 N13 1.859896 1_555
Cl0 N10 1.742280 1_555
Cl0 N12 1.742280 1_455
Cl1 N13 1.742280 1_555
Cl1 N11 1.742280 1_455
Cl2 N8 1.742280 1_655
Cl2 N14 1.742280 1_555
Cl3 N15 1.742280 1_655
Cl3 N9 1.742280 1_555
Cl4 N17 1.691619 1_555
Cl5 N16 1.691619 1_555
Cl6 N19 1.691619 1_555
Cl7 N18 1.691619 1_555
Cl8 N19 1.691619 1_555
Cl9 N18 1.691619 1_555
Cl10 N17 1.691619 1_555
Cl11 N16 1.691619 1_555
