# generated using pymatgen
data_LaCd11
_symmetry_space_group_name_H-M   'P 1'
_cell_length_a   9.38013942
_cell_length_b   9.38013735
_cell_length_c   9.38013942
_cell_angle_alpha   90.00000000
_cell_angle_beta   90.00000000
_cell_angle_gamma   90.00000000
_symmetry_Int_Tables_number   1
_chemical_formula_structural   LaCd11
_chemical_formula_sum   'La3 Cd33'
_cell_volume   825.33029077
_cell_formula_units_Z   3
loop_
 _symmetry_equiv_pos_site_id
 _symmetry_equiv_pos_as_xyz
  1  'x, y, z'
loop_
 _atom_site_type_symbol
 _atom_site_label
 _atom_site_symmetry_multiplicity
 _atom_site_fract_x
 _atom_site_fract_y
 _atom_site_fract_z
 _atom_site_occupancy
  La  La0  1  0.50000000  -0.00000000  -0.00000000  1
  La  La1  1  0.00000000  -0.00000000  0.50000000  1
  La  La2  1  0.00000000  0.50000000  -0.00000000  1
  Cd  Cd0  1  0.50000000  0.50000000  0.50000000  1
  Cd  Cd1  1  0.15750916  0.15750816  0.84249084  1
  Cd  Cd2  1  0.15750916  0.84249184  0.15750916  1
  Cd  Cd3  1  0.84249084  0.15750816  0.15750916  1
  Cd  Cd4  1  0.84249084  0.84249184  0.84249084  1
  Cd  Cd5  1  0.84249084  0.84249184  0.15750916  1
  Cd  Cd6  1  0.84249084  0.15750816  0.84249084  1
  Cd  Cd7  1  0.15750916  0.84249184  0.84249084  1
  Cd  Cd8  1  0.15750916  0.15750816  0.15750916  1
  Cd  Cd9  1  0.00000000  0.34539542  0.65460258  1
  Cd  Cd10  1  0.34539742  0.34539542  -0.00000000  1
  Cd  Cd11  1  0.34539642  -0.00000000  0.65460358  1
  Cd  Cd12  1  0.00000000  0.65460458  0.34539742  1
  Cd  Cd13  1  0.34539742  0.65460458  -0.00000000  1
  Cd  Cd14  1  0.34539642  -0.00000000  0.34539642  1
  Cd  Cd15  1  0.00000000  0.34539542  0.34539742  1
  Cd  Cd16  1  0.65460258  0.34539542  -0.00000000  1
  Cd  Cd17  1  0.65460358  -0.00000000  0.34539642  1
  Cd  Cd18  1  0.00000000  0.65460458  0.65460258  1
  Cd  Cd19  1  0.65460258  0.65460458  -0.00000000  1
  Cd  Cd20  1  0.65460358  -0.00000000  0.65460358  1
  Cd  Cd21  1  0.50000000  0.26669048  0.73330852  1
  Cd  Cd22  1  0.26669148  0.26669048  0.50000000  1
  Cd  Cd23  1  0.26669248  0.50000000  0.73330752  1
  Cd  Cd24  1  0.50000000  0.73330952  0.26669148  1
  Cd  Cd25  1  0.26669148  0.73330952  0.50000000  1
  Cd  Cd26  1  0.26669248  0.50000000  0.26669248  1
  Cd  Cd27  1  0.50000000  0.26669048  0.26669148  1
  Cd  Cd28  1  0.73330852  0.26669048  0.50000000  1
  Cd  Cd29  1  0.73330752  0.50000000  0.26669248  1
  Cd  Cd30  1  0.50000000  0.73330952  0.73330852  1
  Cd  Cd31  1  0.73330852  0.73330952  0.50000000  1
  Cd  Cd32  1  0.73330752  0.50000000  0.73330752  1
loop_
_geom_bond_atom_site_label_1
_geom_bond_atom_site_label_2
_geom_bond_distance
_geom_bond_site_symmetry_2
Cd0 Cd32 3.094946 1_555
Cd0 Cd29 3.094946 1_555
Cd0 Cd26 3.094946 1_555
Cd0 Cd23 3.094946 1_555
Cd0 Cd27 3.094965 1_555
Cd0 Cd31 3.094965 1_555
Cd0 Cd28 3.094965 1_555
Cd0 Cd25 3.094965 1_555
Cd0 Cd22 3.094965 1_555
Cd0 Cd24 3.094965 1_555
Cd0 Cd21 3.094965 1_555
Cd0 Cd30 3.094965 1_555
Cd1 Cd11 2.897416 1_555
Cd1 Cd9 2.897427 1_555
Cd1 Cd10 2.897427 1_556
Cd1 Cd7 2.954896 1_545
Cd1 Cd8 2.954916 1_556
Cd1 Cd6 2.954916 1_455
Cd1 Cd21 3.524007 1_555
Cd1 Cd22 3.524007 1_555
Cd1 Cd23 3.524020 1_555
Cd1 La1 3.832311 1_555
Cd1 La0 3.832311 1_556
Cd1 La2 3.832322 1_556
Cd2 Cd8 2.954896 1_565
Cd2 Cd5 2.954916 1_455
Cd2 Cd7 2.954916 1_554
Cd2 Cd25 3.524007 1_555
Cd2 Cd24 3.524007 1_555
Cd2 Cd26 3.524020 1_555
Cd2 La1 3.832311 1_565
Cd2 La0 3.832311 1_565
Cd2 La2 3.832322 1_555
Cd3 Cd5 2.954896 1_545
Cd3 Cd6 2.954916 1_554
Cd3 Cd8 2.954916 1_655
Cd3 La1 3.832311 1_655
Cd3 La0 3.832311 1_555
Cd3 La2 3.832322 1_655
Cd4 Cd6 2.954896 1_565
Cd4 Cd5 2.954916 1_556
Cd4 Cd7 2.954916 1_655
Cd4 La0 3.832311 1_566
Cd4 La1 3.832311 1_665
Cd4 La2 3.832322 1_656
Cd5 La1 3.832311 1_665
Cd5 La0 3.832311 1_565
Cd5 La2 3.832322 1_655
Cd6 Cd9 2.897427 1_655
Cd6 La1 3.832311 1_655
Cd6 La0 3.832311 1_556
Cd6 La2 3.832322 1_656
Cd7 La1 3.832311 1_565
Cd7 La0 3.832311 1_566
Cd7 La2 3.832322 1_556
Cd8 La1 3.832311 1_555
Cd8 La0 3.832311 1_555
Cd8 La2 3.832322 1_555
Cd9 La1 3.549610 1_555
Cd9 La2 3.549635 1_556
Cd10 Cd8 2.897427 1_555
Cd10 Cd16 2.900388 1_555
Cd10 Cd13 2.900424 1_555
Cd10 Cd21 2.984311 1_554
Cd10 Cd27 2.984311 1_555
Cd10 Cd23 2.984328 1_554
Cd10 Cd26 2.984328 1_555
Cd10 La0 3.549610 1_555
Cd10 La2 3.549635 1_555
Cd11 Cd7 2.897416 1_545
Cd11 Cd14 2.900406 1_555
Cd11 Cd20 2.900406 1_555
Cd11 Cd25 2.984307 1_545
Cd11 Cd30 2.984307 1_545
Cd11 Cd22 2.984307 1_555
Cd11 Cd21 2.984307 1_555
Cd11 La1 3.549623 1_555
Cd11 La0 3.549623 1_556
Cd12 Cd2 2.897427 1_555
Cd12 Cd5 2.897427 1_455
Cd12 Cd18 2.900388 1_555
Cd12 Cd15 2.900424 1_555
Cd12 Cd31 2.984311 1_455
Cd12 Cd25 2.984311 1_555
Cd12 Cd29 2.984328 1_455
Cd12 Cd26 2.984328 1_555
Cd12 La1 3.549610 1_565
Cd12 La2 3.549635 1_555
Cd13 Cd2 2.897427 1_555
Cd13 Cd7 2.897427 1_554
Cd13 Cd19 2.900388 1_555
Cd13 Cd30 2.984311 1_554
Cd13 Cd24 2.984311 1_555
Cd13 Cd23 2.984328 1_554
Cd13 Cd26 2.984328 1_555
Cd13 La0 3.549610 1_565
Cd13 La2 3.549635 1_555
Cd14 Cd8 2.897416 1_555
Cd14 Cd2 2.897416 1_545
Cd14 Cd17 2.900406 1_555
Cd14 Cd27 2.984307 1_555
Cd14 Cd25 2.984307 1_545
Cd14 Cd22 2.984307 1_555
Cd14 Cd24 2.984307 1_545
Cd14 La0 3.549623 1_555
Cd14 La1 3.549623 1_555
Cd15 Cd8 2.897427 1_555
Cd15 Cd3 2.897427 1_455
Cd15 Cd9 2.900388 1_555
Cd15 Cd28 2.984311 1_455
Cd15 Cd22 2.984311 1_555
Cd15 Cd29 2.984328 1_455
Cd15 Cd26 2.984328 1_555
Cd15 La1 3.549610 1_555
Cd15 La2 3.549635 1_555
Cd16 Cd3 2.897427 1_555
Cd16 Cd6 2.897427 1_554
Cd16 Cd19 2.900424 1_555
Cd16 Cd27 2.984311 1_555
Cd16 Cd21 2.984311 1_554
Cd16 Cd32 2.984328 1_554
Cd16 Cd29 2.984328 1_555
Cd16 La0 3.549610 1_555
Cd16 La2 3.549635 1_655
Cd17 Cd3 2.897416 1_555
Cd17 Cd5 2.897416 1_545
Cd17 Cd20 2.900406 1_555
Cd17 Cd24 2.984307 1_545
Cd17 Cd27 2.984307 1_555
Cd17 Cd28 2.984307 1_555
Cd17 Cd31 2.984307 1_545
Cd17 La0 3.549623 1_555
Cd17 La1 3.549623 1_655
Cd18 Cd7 2.897427 1_555
Cd18 Cd4 2.897427 1_455
Cd18 Cd9 2.900424 1_555
Cd18 Cd25 2.984311 1_555
Cd18 Cd31 2.984311 1_455
Cd18 Cd32 2.984328 1_455
Cd18 Cd23 2.984328 1_555
Cd18 La1 3.549610 1_565
Cd18 La2 3.549635 1_556
Cd19 Cd5 2.897427 1_555
Cd19 Cd4 2.897427 1_554
Cd19 Cd30 2.984311 1_554
Cd19 Cd24 2.984311 1_555
Cd19 Cd32 2.984328 1_554
Cd19 Cd29 2.984328 1_555
Cd19 La0 3.549610 1_565
Cd19 La2 3.549635 1_655
Cd20 Cd6 2.897416 1_555
Cd20 Cd4 2.897416 1_545
Cd20 Cd31 2.984307 1_545
Cd20 Cd21 2.984307 1_555
Cd20 Cd30 2.984307 1_545
Cd20 Cd28 2.984307 1_555
Cd20 La0 3.549623 1_556
Cd20 La1 3.549623 1_655
Cd21 Cd23 3.094959 1_555
Cd21 Cd32 3.094959 1_555
Cd21 Cd22 3.094959 1_555
Cd21 Cd28 3.094959 1_555
Cd21 Cd6 3.524007 1_555
Cd21 La0 3.537794 1_556
Cd22 Cd9 2.984311 1_555
Cd22 Cd23 3.094959 1_555
Cd22 Cd26 3.094959 1_555
Cd22 Cd27 3.094959 1_555
Cd22 Cd8 3.524007 1_555
Cd22 La1 3.537794 1_555
Cd23 Cd9 2.984328 1_555
Cd23 Cd25 3.094959 1_555
Cd23 Cd30 3.094959 1_555
Cd23 Cd7 3.524020 1_555
Cd23 La2 3.537815 1_556
Cd24 Cd29 3.094959 1_555
Cd24 Cd26 3.094959 1_555
Cd24 Cd31 3.094959 1_555
Cd24 Cd25 3.094959 1_555
Cd24 Cd5 3.524007 1_555
Cd24 La0 3.537794 1_565
Cd25 Cd26 3.094959 1_555
Cd25 Cd30 3.094959 1_555
Cd25 Cd7 3.524007 1_555
Cd25 La1 3.537794 1_565
Cd26 Cd27 3.094959 1_555
Cd26 Cd8 3.524020 1_555
Cd26 La2 3.537815 1_555
Cd27 Cd29 3.094959 1_555
Cd27 Cd28 3.094959 1_555
Cd27 Cd3 3.524007 1_555
Cd27 Cd8 3.524007 1_555
Cd27 La0 3.537794 1_555
Cd28 Cd9 2.984311 1_655
Cd28 Cd29 3.094959 1_555
Cd28 Cd32 3.094959 1_555
Cd28 Cd3 3.524007 1_555
Cd28 Cd6 3.524007 1_555
Cd28 La1 3.537794 1_655
Cd29 Cd31 3.094959 1_555
Cd29 Cd3 3.524020 1_555
Cd29 Cd5 3.524020 1_555
Cd29 La2 3.537815 1_655
Cd30 Cd32 3.094959 1_555
Cd30 Cd31 3.094959 1_555
Cd30 Cd7 3.524007 1_555
Cd30 Cd4 3.524007 1_555
Cd30 La0 3.537794 1_566
Cd31 Cd32 3.094959 1_555
Cd31 Cd4 3.524007 1_555
Cd31 Cd5 3.524007 1_555
Cd31 La1 3.537794 1_665
Cd32 Cd9 2.984328 1_655
Cd32 Cd6 3.524020 1_555
Cd32 Cd4 3.524020 1_555
Cd32 La2 3.537815 1_656
