# generated using pymatgen
data_BaSrCeSbO6
_symmetry_space_group_name_H-M   'P 1'
_cell_length_a   8.54544365
_cell_length_b   8.54992272
_cell_length_c   8.56177259
_cell_angle_alpha   90.00000000
_cell_angle_beta   90.00000000
_cell_angle_gamma   90.00000000
_symmetry_Int_Tables_number   1
_chemical_formula_structural   BaSrCeSbO6
_chemical_formula_sum   'Ba4 Sr4 Ce4 Sb4 O24'
_cell_volume   625.54778744
_cell_formula_units_Z   4
loop_
 _symmetry_equiv_pos_site_id
 _symmetry_equiv_pos_as_xyz
  1  'x, y, z'
loop_
 _atom_site_type_symbol
 _atom_site_label
 _atom_site_symmetry_multiplicity
 _atom_site_fract_x
 _atom_site_fract_y
 _atom_site_fract_z
 _atom_site_occupancy
  Ba  Ba0  1  -0.00000000  -0.00000000  0.00000000  1
  Ba  Ba1  1  0.50000000  0.50000000  0.50000000  1
  Ba  Ba2  1  -0.00000000  0.50000000  0.50000000  1
  Ba  Ba3  1  0.00000000  -0.00000000  0.50000000  1
  Sr  Sr0  1  0.50000000  -0.00000000  0.50000000  1
  Sr  Sr1  1  0.50000000  0.50000000  0.00000000  1
  Sr  Sr2  1  0.50000000  -0.00000000  0.00000000  1
  Sr  Sr3  1  0.00000000  0.50000000  0.00000000  1
  Ce  Ce0  1  0.74870610  0.74935968  0.75213667  1
  Ce  Ce1  1  0.25129390  0.25064032  0.75213667  1
  Ce  Ce2  1  0.25129390  0.74935968  0.24786333  1
  Ce  Ce3  1  0.74870610  0.25064032  0.24786333  1
  Sb  Sb0  1  0.25172403  0.25091087  0.24735034  1
  Sb  Sb1  1  0.74827597  0.74908913  0.24735034  1
  Sb  Sb2  1  0.74827597  0.25091087  0.75264966  1
  Sb  Sb3  1  0.25172403  0.74908913  0.75264966  1
  O  O0  1  0.01721436  0.21808855  0.27624625  1
  O  O1  1  0.98278564  0.78191145  0.27624625  1
  O  O2  1  0.98278564  0.21808855  0.72375375  1
  O  O3  1  0.01721436  0.78191145  0.72375375  1
  O  O4  1  0.28616859  0.01649154  0.20934279  1
  O  O5  1  0.28616859  0.98350846  0.79065721  1
  O  O6  1  0.71383141  0.98350846  0.20934279  1
  O  O7  1  0.71383141  0.01649154  0.79065721  1
  O  O8  1  0.21148368  0.28508811  0.01529362  1
  O  O9  1  0.78851632  0.28508811  0.98470638  1
  O  O10  1  0.21148368  0.71491189  0.98470638  1
  O  O11  1  0.78851632  0.71491189  0.01529362  1
  O  O12  1  0.48496044  0.28900389  0.21220885  1
  O  O13  1  0.51503956  0.71099611  0.21220885  1
  O  O14  1  0.51503956  0.28900389  0.78779115  1
  O  O15  1  0.48496044  0.71099611  0.78779115  1
  O  O16  1  0.22417638  0.48421909  0.28201892  1
  O  O17  1  0.22417638  0.51578091  0.71798108  1
  O  O18  1  0.77582362  0.51578091  0.28201892  1
  O  O19  1  0.77582362  0.48421909  0.71798108  1
  O  O20  1  0.29001655  0.21605655  0.48167219  1
  O  O21  1  0.70998345  0.21605655  0.51832781  1
  O  O22  1  0.29001655  0.78394345  0.51832781  1
  O  O23  1  0.70998345  0.78394345  0.48167219  1
loop_
_geom_bond_atom_site_label_1
_geom_bond_atom_site_label_2
_geom_bond_distance
_geom_bond_site_symmetry_2
Ba0 O3 3.015376 1_544
Ba0 O1 3.015376 1_445
Ba0 O0 3.015376 1_555
Ba0 O2 3.015376 1_454
Ba0 O7 3.035218 1_454
Ba0 O6 3.035218 1_445
Ba0 O4 3.035218 1_555
Ba0 O5 3.035218 1_544
Ba0 O9 3.037188 1_454
Ba0 O11 3.037188 1_445
Ba0 O8 3.037188 1_555
Ba0 O10 3.037188 1_544
Ba1 O16 3.009470 1_555
Ba1 O18 3.009470 1_555
Ba1 O17 3.009470 1_555
Ba1 O19 3.009470 1_555
Ba1 O23 3.022946 1_555
Ba1 O21 3.022946 1_555
Ba1 O22 3.022946 1_555
Ba1 O20 3.022946 1_555
Ba1 O14 3.056508 1_555
Ba1 O15 3.056508 1_555
Ba1 O12 3.056508 1_555
Ba1 O13 3.056508 1_555
Ba2 O18 2.677901 1_455
Ba2 O19 2.677901 1_455
Ba2 O16 2.677901 1_555
Ba2 O17 2.677901 1_555
Ba2 O0 3.082419 1_555
Ba2 O2 3.082419 1_455
Ba2 O1 3.082419 1_455
Ba2 O3 3.082419 1_555
Ba3 O1 2.677413 1_445
Ba3 O3 2.677413 1_545
Ba3 O2 2.677413 1_455
Ba3 O0 2.677413 1_555
Ba3 O20 3.095010 1_555
Ba3 O22 3.095010 1_545
Ba3 O23 3.095010 1_445
Ba3 O21 3.095010 1_455
Ce0 O19 2.297432 1_555
Ce0 O11 2.297584 1_556
Ce0 O15 2.297933 1_555
Ce0 O3 2.324079 1_655
Ce0 O7 2.326810 1_565
Ce0 O23 2.357793 1_555
Ce1 O17 2.297432 1_555
Ce1 O8 2.297584 1_556
Ce1 O14 2.297933 1_555
Ce1 O2 2.324079 1_455
Ce1 O5 2.326810 1_545
Ce1 O20 2.357793 1_555
Ce2 O16 2.297432 1_555
Ce2 O10 2.297584 1_554
Ce2 O13 2.297933 1_555
Ce2 O1 2.324079 1_455
Ce2 O4 2.326810 1_565
Ce2 O22 2.357793 1_555
Ce3 O18 2.297432 1_555
Ce3 O9 2.297584 1_554
Ce3 O12 2.297933 1_555
Ce3 O0 2.324079 1_655
Ce3 O6 2.326810 1_545
Ce3 O21 2.357793 1_555
O0 Sb0 2.038610 1_555
O1 Sb1 2.038610 1_555
O2 Sb2 2.038610 1_555
O3 Sb3 2.038610 1_555
O4 Sb0 2.051735 1_555
O4 Sr2 2.563465 1_555
O4 Sr0 3.090580 1_555
O5 Sb3 2.051735 1_555
O5 Sr2 2.563465 1_566
O5 Sr0 3.090580 1_565
O6 Sb1 2.051735 1_555
O6 Sr2 2.563465 1_565
O6 Sr0 3.090580 1_565
O7 Sb2 2.051735 1_555
O7 Sr2 2.563465 1_556
O7 Sr0 3.090580 1_555
O8 Sb0 2.037419 1_555
O8 Sr3 2.580606 1_555
O8 Sr1 3.077689 1_555
O9 Sb2 2.037419 1_555
O9 Sr3 2.580606 1_656
O9 Sr1 3.077689 1_556
O10 Sb3 2.037419 1_555
O10 Sr3 2.580606 1_556
O10 Sr1 3.077689 1_556
O11 Sb1 2.037419 1_555
O11 Sr3 2.580606 1_655
O11 Sr1 3.077689 1_555
O12 Sb0 2.041833 1_555
O12 Sr1 2.563592 1_555
O12 Sr2 3.069728 1_555
O13 Sb1 2.041833 1_555
O13 Sr1 2.563592 1_555
O13 Sr2 3.069728 1_565
O14 Sb2 2.041833 1_555
O14 Sr1 2.563592 1_556
O14 Sr2 3.069728 1_556
O15 Sb3 2.041833 1_555
O15 Sr1 2.563592 1_556
O15 Sr2 3.069728 1_566
O16 Sb0 2.030423 1_555
O16 Sr3 3.085169 1_555
O17 Sb3 2.030423 1_555
O17 Sr3 3.085169 1_556
O18 Sb1 2.030423 1_555
O18 Sr3 3.085169 1_655
O19 Sb2 2.030423 1_555
O19 Sr3 3.085169 1_656
O20 Sb0 2.054449 1_555
O20 Sr0 2.580096 1_555
O21 Sb2 2.054449 1_555
O21 Sr0 2.580096 1_555
O22 Sb3 2.054449 1_555
O22 Sr0 2.580096 1_565
O23 Sb1 2.054449 1_555
O23 Sr0 2.580096 1_565
