# generated using pymatgen
data_Na2RhW3(SO4)2
_symmetry_space_group_name_H-M   'P 1'
_cell_length_a   8.21448300
_cell_length_b   11.46490400
_cell_length_c   14.90781605
_cell_angle_alpha   55.91588594
_cell_angle_beta   90.00000000
_cell_angle_gamma   90.00000000
_symmetry_Int_Tables_number   1
_chemical_formula_structural   Na2RhW3(SO4)2
_chemical_formula_sum   'Na8 Rh4 W12 S8 O32'
_cell_volume   1162.80841597
_cell_formula_units_Z   4
loop_
 _symmetry_equiv_pos_site_id
 _symmetry_equiv_pos_as_xyz
  1  'x, y, z'
loop_
 _atom_site_type_symbol
 _atom_site_label
 _atom_site_symmetry_multiplicity
 _atom_site_fract_x
 _atom_site_fract_y
 _atom_site_fract_z
 _atom_site_occupancy
  Na  Na0  1  0.55015000  0.81222200  0.02341000  1
  Na  Na1  1  0.44985000  0.18777800  0.97659000  1
  Na  Na2  1  0.05015000  0.18777800  0.47659000  1
  Na  Na3  1  0.94985000  0.81222200  0.52341000  1
  Na  Na4  1  0.58440500  0.62654500  0.34872300  1
  Na  Na5  1  0.41559500  0.37345500  0.65127700  1
  Na  Na6  1  0.08440500  0.37345500  0.15127700  1
  Na  Na7  1  0.91559500  0.62654500  0.84872300  1
  Rh  Rh0  1  0.91301200  0.96294600  0.08906500  1
  Rh  Rh1  1  0.08698800  0.03705400  0.91093500  1
  Rh  Rh2  1  0.41301200  0.03705400  0.41093500  1
  Rh  Rh3  1  0.58698800  0.96294600  0.58906500  1
  W  W0  1  0.75122800  0.95641300  0.24228100  1
  W  W1  1  0.24877200  0.04358700  0.75771900  1
  W  W2  1  0.25122800  0.04358700  0.25771900  1
  W  W3  1  0.74877200  0.95641300  0.74228100  1
  W  W4  1  0.63352900  0.36940400  0.05921500  1
  W  W5  1  0.36647100  0.63059600  0.94078500  1
  W  W6  1  0.13352900  0.63059600  0.44078500  1
  W  W7  1  0.86647100  0.36940400  0.55921500  1
  W  W8  1  0.96412500  0.53202400  0.30894700  1
  W  W9  1  0.03587500  0.46797600  0.69105300  1
  W  W10  1  0.46412500  0.46797600  0.19105300  1
  W  W11  1  0.53587500  0.53202400  0.80894700  1
  S  S0  1  0.93293400  0.68855900  0.04439300  1
  S  S1  1  0.06706600  0.31144100  0.95560700  1
  S  S2  1  0.43293400  0.31144100  0.45560700  1
  S  S3  1  0.56706600  0.68855900  0.54439300  1
  S  S4  1  0.29769800  0.87656700  0.13675600  1
  S  S5  1  0.70230200  0.12343300  0.86324400  1
  S  S6  1  0.79769800  0.12343300  0.36324400  1
  S  S7  1  0.20230200  0.87656700  0.63675600  1
  O  O0  1  0.53016400  0.41572000  0.35203200  1
  O  O1  1  0.46983600  0.58428000  0.64796800  1
  O  O2  1  0.03016400  0.58428000  0.14796800  1
  O  O3  1  0.96983600  0.41572000  0.85203200  1
  O  O4  1  0.13032000  0.83452100  0.18279300  1
  O  O5  1  0.86968000  0.16547900  0.81720700  1
  O  O6  1  0.63032000  0.16547900  0.31720700  1
  O  O7  1  0.36968000  0.83452100  0.68279300  1
  O  O8  1  0.85349900  0.00187300  0.35598600  1
  O  O9  1  0.14650100  0.99812700  0.64401400  1
  O  O10  1  0.35349900  0.99812700  0.14401400  1
  O  O11  1  0.64650100  0.00187300  0.85598600  1
  O  O12  1  0.41368700  0.75837300  0.19715500  1
  O  O13  1  0.58631300  0.24162700  0.80284500  1
  O  O14  1  0.91368700  0.24162700  0.30284500  1
  O  O15  1  0.08631300  0.75837300  0.69715500  1
  O  O16  1  0.45248400  0.78771800  0.45802300  1
  O  O17  1  0.54751600  0.21228200  0.54197700  1
  O  O18  1  0.95248400  0.21228200  0.04197700  1
  O  O19  1  0.04751600  0.78771800  0.95802300  1
  O  O20  1  0.81649500  0.76167300  0.07318300  1
  O  O21  1  0.18350500  0.23832700  0.92681700  1
  O  O22  1  0.31649500  0.23832700  0.42681700  1
  O  O23  1  0.68350500  0.76167300  0.57318300  1
  O  O24  1  0.65159300  0.60310800  0.51152500  1
  O  O25  1  0.34840700  0.39689200  0.48847500  1
  O  O26  1  0.15159300  0.39689200  0.98847500  1
  O  O27  1  0.84840700  0.60310800  0.01152500  1
  O  O28  1  0.30418700  0.92817800  0.01955000  1
  O  O29  1  0.69581300  0.07182200  0.98045000  1
  O  O30  1  0.80418700  0.07182200  0.48045000  1
  O  O31  1  0.19581300  0.92817800  0.51955000  1
loop_
_geom_bond_atom_site_label_1
_geom_bond_atom_site_label_2
_geom_bond_distance
_geom_bond_site_symmetry_2
Na0 O20 2.278445 1_555
Na0 O11 2.345452 1_564
Na0 O28 2.401498 1_555
Na0 O12 2.560148 1_555
Na0 W5 3.317330 1_554
Na1 O21 2.278445 1_555
Na1 O10 2.345452 1_546
Na1 O29 2.401498 1_555
Na1 O13 2.560148 1_555
Na1 W4 3.317330 1_556
Na2 O22 2.278445 1_555
Na2 O9 2.345452 1_545
Na2 O30 2.401498 1_455
Na2 O14 2.560148 1_455
Na2 W7 3.317330 1_455
Na3 O23 2.278445 1_555
Na3 O8 2.345452 1_565
Na3 O31 2.401498 1_655
Na3 O15 2.560148 1_655
Na3 W6 3.317330 1_655
Na4 O12 2.351343 1_555
Na4 O24 2.352936 1_555
Na4 O0 2.430974 1_555
Na5 O13 2.351343 1_555
Na5 O25 2.352936 1_555
Na5 O1 2.430974 1_555
Na6 O14 2.351343 1_455
Na6 O26 2.352936 1_554
Na6 O2 2.430974 1_555
Na7 O15 2.351343 1_655
Na7 O27 2.352936 1_556
Na7 O3 2.430974 1_555
O0 S2 1.543493 1_555
O0 W10 2.191116 1_555
O1 S3 1.543493 1_555
O1 W11 2.191116 1_555
O2 S0 1.543493 1_455
O2 W8 2.191116 1_455
O3 S1 1.543493 1_655
O3 W9 2.191116 1_655
O4 S4 1.490974 1_555
O4 Rh0 2.236267 1_455
O5 S5 1.490974 1_555
O5 Rh1 2.236267 1_655
O6 S6 1.490974 1_555
O6 Rh2 2.236267 1_555
O7 S7 1.490974 1_555
O7 Rh3 2.236267 1_555
O8 S6 1.527468 1_555
O8 W0 2.200221 1_545
O9 S7 1.527468 1_555
O9 W1 2.200221 1_565
O10 S4 1.527468 1_555
O10 W2 2.200221 1_565
O11 S5 1.527468 1_555
O11 W3 2.200221 1_545
O12 S4 1.478936 1_555
O13 S5 1.478936 1_555
O14 S6 1.478936 1_555
O15 S7 1.478936 1_555
O16 S3 1.481749 1_555
O16 Rh2 2.553516 1_565
O17 S2 1.481749 1_555
O17 Rh3 2.553516 1_545
O18 S1 1.481749 1_654
O18 Rh0 2.553516 1_545
O19 S0 1.481749 1_456
O19 Rh1 2.553516 1_565
O20 S0 1.484914 1_555
O20 Rh0 2.573309 1_555
O21 S1 1.484914 1_555
O21 Rh1 2.573309 1_555
O22 S2 1.484914 1_555
O22 Rh2 2.573309 1_555
O23 S3 1.484914 1_555
O23 Rh3 2.573309 1_555
O24 S3 1.489976 1_555
O24 W7 2.943663 1_555
O25 S2 1.489976 1_555
O25 W6 2.943663 1_555
O26 S1 1.489976 1_555
O26 W5 2.943663 1_555
O27 S0 1.489976 1_555
O27 W4 2.943663 1_555
O28 S4 1.499055 1_555
O28 Rh1 2.257851 1_564
O29 S5 1.499055 1_555
O29 Rh0 2.257851 1_546
O30 S6 1.499055 1_555
O30 Rh3 2.257851 1_545
O31 S7 1.499055 1_555
O31 Rh2 2.257851 1_565
