# generated using pymatgen
data_Eu2NbSnO6
_symmetry_space_group_name_H-M   'P 1'
_cell_length_a   8.34722815
_cell_length_b   8.34722815
_cell_length_c   8.34722815
_cell_angle_alpha   90.00000000
_cell_angle_beta   90.00000000
_cell_angle_gamma   90.00000000
_symmetry_Int_Tables_number   1
_chemical_formula_structural   Eu2NbSnO6
_chemical_formula_sum   'Eu8 Nb4 Sn4 O24'
_cell_volume   581.60328651
_cell_formula_units_Z   4
loop_
 _symmetry_equiv_pos_site_id
 _symmetry_equiv_pos_as_xyz
  1  'x, y, z'
loop_
 _atom_site_type_symbol
 _atom_site_label
 _atom_site_symmetry_multiplicity
 _atom_site_fract_x
 _atom_site_fract_y
 _atom_site_fract_z
 _atom_site_occupancy
  Eu  Eu0  1  0.50000000  0.50000000  0.50000000  1
  Eu  Eu1  1  -0.00000000  0.00000000  0.00000000  1
  Eu  Eu2  1  -0.00000000  0.00000000  0.50000000  1
  Eu  Eu3  1  -0.00000000  0.50000000  0.00000000  1
  Eu  Eu4  1  0.50000000  0.00000000  0.00000000  1
  Eu  Eu5  1  0.50000000  0.50000000  0.00000000  1
  Eu  Eu6  1  0.50000000  0.00000000  0.50000000  1
  Eu  Eu7  1  -0.00000000  0.50000000  0.50000000  1
  Nb  Nb0  1  0.75000000  0.75000000  0.75000000  1
  Nb  Nb1  1  0.75000000  0.25000000  0.25000000  1
  Nb  Nb2  1  0.25000000  0.75000000  0.25000000  1
  Nb  Nb3  1  0.25000000  0.25000000  0.75000000  1
  Sn  Sn0  1  0.25000000  0.25000000  0.25000000  1
  Sn  Sn1  1  0.25000000  0.75000000  0.75000000  1
  Sn  Sn2  1  0.75000000  0.25000000  0.75000000  1
  Sn  Sn3  1  0.75000000  0.75000000  0.25000000  1
  O  O0  1  0.21117176  0.29843262  0.51377898  1
  O  O1  1  0.21117176  0.70156738  0.48622102  1
  O  O2  1  0.78882824  0.29843262  0.48622102  1
  O  O3  1  0.78882824  0.70156738  0.51377898  1
  O  O4  1  0.29843262  0.51377898  0.21117176  1
  O  O5  1  0.70156738  0.48622102  0.21117176  1
  O  O6  1  0.29843262  0.48622102  0.78882824  1
  O  O7  1  0.70156738  0.51377898  0.78882824  1
  O  O8  1  0.51377898  0.21117176  0.29843262  1
  O  O9  1  0.48622102  0.21117176  0.70156738  1
  O  O10  1  0.48622102  0.78882824  0.29843262  1
  O  O11  1  0.51377898  0.78882824  0.70156738  1
  O  O12  1  0.28882824  0.20156738  0.98622102  1
  O  O13  1  0.28882824  0.79843262  0.01377898  1
  O  O14  1  0.71117176  0.20156738  0.01377898  1
  O  O15  1  0.71117176  0.79843262  0.98622102  1
  O  O16  1  0.20156738  0.98622102  0.28882824  1
  O  O17  1  0.79843262  0.01377898  0.28882824  1
  O  O18  1  0.20156738  0.01377898  0.71117176  1
  O  O19  1  0.79843262  0.98622102  0.71117176  1
  O  O20  1  0.98622102  0.28882824  0.20156738  1
  O  O21  1  0.01377898  0.28882824  0.79843262  1
  O  O22  1  0.01377898  0.71117176  0.20156738  1
  O  O23  1  0.98622102  0.71117176  0.79843262  1
loop_
_geom_bond_atom_site_label_1
_geom_bond_atom_site_label_2
_geom_bond_distance
_geom_bond_site_symmetry_2
Eu0 O0 2.942218 1_555
Eu0 O9 2.942218 1_555
Eu0 O5 2.942218 1_555
Eu0 O4 2.942218 1_555
Eu0 O1 2.942218 1_555
Eu0 O8 2.942218 1_555
Eu0 O10 2.942218 1_555
Eu0 O2 2.942218 1_555
Eu0 O3 2.942218 1_555
Eu0 O11 2.942218 1_555
Eu0 O6 2.942218 1_555
Eu0 O7 2.942218 1_555
Eu1 O13 2.942218 1_545
Eu1 O15 2.942218 1_444
Eu1 O19 2.942218 1_444
Eu1 O14 2.942218 1_455
Eu1 O17 2.942218 1_455
Eu1 O22 2.942218 1_545
Eu1 O18 2.942218 1_554
Eu1 O21 2.942218 1_554
Eu1 O23 2.942218 1_444
Eu1 O16 2.942218 1_545
Eu1 O12 2.942218 1_554
Eu1 O20 2.942218 1_455
Eu2 O17 2.439516 1_455
Eu2 O16 2.439516 1_545
Eu2 O18 2.439516 1_555
Eu2 O19 2.439516 1_445
Eu3 O21 2.439516 1_554
Eu3 O20 2.439516 1_455
Eu3 O23 2.439516 1_454
Eu3 O22 2.439516 1_555
Eu4 O13 2.439516 1_545
Eu4 O12 2.439516 1_554
Eu4 O14 2.439516 1_555
Eu4 O15 2.439516 1_544
Eu5 O7 2.439516 1_554
Eu5 O5 2.439516 1_555
Eu5 O6 2.439516 1_554
Eu5 O4 2.439516 1_555
Eu6 O11 2.439516 1_545
Eu6 O10 2.439516 1_545
Eu6 O9 2.439516 1_555
Eu6 O8 2.439516 1_555
Eu7 O3 2.439516 1_455
Eu7 O1 2.439516 1_555
Eu7 O2 2.439516 1_455
Eu7 O0 2.439516 1_555
Nb0 O23 2.038736 1_555
Nb0 O15 2.038736 1_555
Nb0 O19 2.038736 1_555
Nb0 O7 2.038736 1_555
Nb0 O3 2.038736 1_555
Nb0 O11 2.038736 1_555
Nb1 O20 2.038736 1_555
Nb1 O5 2.038736 1_555
Nb1 O14 2.038736 1_555
Nb1 O8 2.038736 1_555
Nb1 O2 2.038736 1_555
Nb1 O17 2.038736 1_555
Nb2 O4 2.038736 1_555
Nb2 O1 2.038736 1_555
Nb2 O22 2.038736 1_555
Nb2 O16 2.038736 1_555
Nb2 O10 2.038736 1_555
Nb2 O13 2.038736 1_555
Nb3 O0 2.038736 1_555
Nb3 O21 2.038736 1_555
Nb3 O18 2.038736 1_555
Nb3 O12 2.038736 1_555
Nb3 O9 2.038736 1_555
Nb3 O6 2.038736 1_555
O0 Sn0 2.261971 1_555
O1 Sn1 2.261971 1_555
O2 Sn2 2.261971 1_555
O3 Sn3 2.261971 1_555
O4 Sn0 2.261971 1_555
O5 Sn3 2.261971 1_555
O6 Sn1 2.261971 1_555
O7 Sn2 2.261971 1_555
O8 Sn0 2.261971 1_555
O9 Sn2 2.261971 1_555
O10 Sn3 2.261971 1_555
O11 Sn1 2.261971 1_555
O12 Sn0 2.261971 1_556
O13 Sn1 2.261971 1_554
O14 Sn2 2.261971 1_554
O15 Sn3 2.261971 1_556
O16 Sn0 2.261971 1_565
O17 Sn3 2.261971 1_545
O18 Sn1 2.261971 1_545
O19 Sn2 2.261971 1_565
O20 Sn0 2.261971 1_655
O21 Sn2 2.261971 1_455
O22 Sn3 2.261971 1_455
O23 Sn1 2.261971 1_655
