# generated using pymatgen
data_RbNa3W2O17
_symmetry_space_group_name_H-M   'P 1'
_cell_length_a   8.78004474
_cell_length_b   8.78004474
_cell_length_c   10.92145800
_cell_angle_alpha   90.00000000
_cell_angle_beta   90.00000000
_cell_angle_gamma   120.00000554
_symmetry_Int_Tables_number   1
_chemical_formula_structural   RbNa3W2O17
_chemical_formula_sum   'Rb2 Na6 W4 O34'
_cell_volume   729.12952524
_cell_formula_units_Z   2
loop_
 _symmetry_equiv_pos_site_id
 _symmetry_equiv_pos_as_xyz
  1  'x, y, z'
loop_
 _atom_site_type_symbol
 _atom_site_label
 _atom_site_symmetry_multiplicity
 _atom_site_fract_x
 _atom_site_fract_y
 _atom_site_fract_z
 _atom_site_occupancy
  Rb  Rb0  1  0.00000000  0.00000000  0.75000000  1
  Rb  Rb1  1  0.00000000  0.00000000  0.25000000  1
  Na  Na0  1  0.63031300  0.09349200  0.75000000  1
  Na  Na1  1  0.36968700  0.90650800  0.25000000  1
  Na  Na2  1  0.46317900  0.36968700  0.75000000  1
  Na  Na3  1  0.53682100  0.63031300  0.25000000  1
  Na  Na4  1  0.90650800  0.53682100  0.75000000  1
  Na  Na5  1  0.09349200  0.46317900  0.25000000  1
  W  W0  1  0.66666700  0.33333300  0.45199200  1
  W  W1  1  0.33333300  0.66666700  0.54800800  1
  W  W2  1  0.33333300  0.66666700  0.95199200  1
  W  W3  1  0.66666700  0.33333300  0.04800800  1
  O  O0  1  0.95660300  0.30329500  0.75000000  1
  O  O1  1  0.04339700  0.69670500  0.25000000  1
  O  O2  1  0.34669100  0.04339700  0.75000000  1
  O  O3  1  0.65330900  0.95660300  0.25000000  1
  O  O4  1  0.69670500  0.65330900  0.75000000  1
  O  O5  1  0.30329500  0.34669100  0.25000000  1
  O  O6  1  0.81475000  0.05865000  0.95822000  1
  O  O7  1  0.18525000  0.94135000  0.04178000  1
  O  O8  1  0.24390000  0.18525000  0.95822000  1
  O  O9  1  0.18525000  0.94135000  0.45822000  1
  O  O10  1  0.75610000  0.81475000  0.04178000  1
  O  O11  1  0.81475000  0.05865000  0.54178000  1
  O  O12  1  0.94135000  0.75610000  0.95822000  1
  O  O13  1  0.75610000  0.81475000  0.45822000  1
  O  O14  1  0.05865000  0.24390000  0.04178000  1
  O  O15  1  0.24390000  0.18525000  0.54178000  1
  O  O16  1  0.05865000  0.24390000  0.45822000  1
  O  O17  1  0.94135000  0.75610000  0.54178000  1
  O  O18  1  0.53821200  0.68744100  0.89550000  1
  O  O19  1  0.46178800  0.31255900  0.10450000  1
  O  O20  1  0.14922900  0.46178800  0.89550000  1
  O  O21  1  0.46178800  0.31255900  0.39550000  1
  O  O22  1  0.85077100  0.53821200  0.10450000  1
  O  O23  1  0.53821200  0.68744100  0.60450000  1
  O  O24  1  0.31255900  0.85077100  0.89550000  1
  O  O25  1  0.85077100  0.53821200  0.39550000  1
  O  O26  1  0.68744100  0.14922900  0.10450000  1
  O  O27  1  0.14922900  0.46178800  0.60450000  1
  O  O28  1  0.68744100  0.14922900  0.39550000  1
  O  O29  1  0.31255900  0.85077100  0.60450000  1
  O  O30  1  0.66666700  0.33333300  0.88199400  1
  O  O31  1  0.33333300  0.66666700  0.11800600  1
  O  O32  1  0.33333300  0.66666700  0.38199400  1
  O  O33  1  0.66666700  0.33333300  0.61800600  1
loop_
_geom_bond_atom_site_label_1
_geom_bond_atom_site_label_2
_geom_bond_distance
_geom_bond_site_symmetry_2
Na0 O2 2.302028 1_555
Na0 O30 2.437683 1_555
Na0 O33 2.437683 1_555
Na0 O0 2.514618 1_555
Na0 O11 2.895288 1_555
Na0 O6 2.895288 1_555
Na0 O29 2.984075 1_545
Na0 O24 2.984075 1_545
Na1 O3 2.302028 1_555
Na1 O31 2.437683 1_555
Na1 O32 2.437683 1_555
Na1 O1 2.514618 1_555
Na1 O7 2.895288 1_555
Na1 O9 2.895288 1_555
Na1 O26 2.984075 1_565
Na1 O28 2.984075 1_565
Na2 O4 2.302025 1_555
Na2 O30 2.437690 1_555
Na2 O33 2.437690 1_555
Na2 O2 2.514617 1_555
Na2 O15 2.895287 1_555
Na2 O8 2.895287 1_555
Na2 O23 2.984075 1_555
Na2 O18 2.984075 1_555
Na3 O5 2.302025 1_555
Na3 O32 2.437690 1_555
Na3 O31 2.437690 1_555
Na3 O3 2.514617 1_555
Na3 O10 2.895287 1_555
Na3 O13 2.895287 1_555
Na3 O21 2.984075 1_555
Na3 O19 2.984075 1_555
Na4 O0 2.302020 1_555
Na4 O30 2.437686 1_555
Na4 O33 2.437686 1_555
Na4 O4 2.514625 1_555
Na4 O17 2.895288 1_555
Na4 O12 2.895288 1_555
Na4 O27 2.984075 1_655
Na4 O20 2.984075 1_655
Na5 O1 2.302020 1_555
Na5 O31 2.437686 1_555
Na5 O32 2.437686 1_555
Na5 O5 2.514625 1_555
Na5 O14 2.895288 1_555
Na5 O16 2.895288 1_555
Na5 O22 2.984075 1_455
Na5 O25 2.984075 1_455
O0 Rb0 2.872474 1_655
O1 Rb1 2.872474 1_565
O2 Rb0 2.872465 1_555
O3 Rb1 2.872465 1_665
O4 Rb0 2.872468 1_665
O5 Rb1 2.872468 1_555
O6 Rb0 2.986575 1_655
O7 Rb1 2.986575 1_565
O8 Rb0 2.986575 1_555
O9 Rb1 2.986575 1_565
O10 Rb1 2.986575 1_665
O11 Rb0 2.986575 1_655
O12 Rb0 2.986575 1_665
O13 Rb1 2.986575 1_665
O14 Rb1 2.986575 1_555
O15 Rb0 2.986575 1_555
O16 Rb1 2.986575 1_555
O17 Rb0 2.986575 1_665
O18 W2 1.822546 1_555
O19 W3 1.822546 1_555
O20 W2 1.822542 1_555
O21 W0 1.822546 1_555
O22 W3 1.822542 1_555
O23 W1 1.822546 1_555
O24 W2 1.822537 1_555
O25 W0 1.822542 1_555
O26 W3 1.822537 1_555
O27 W1 1.822542 1_555
O28 W0 1.822537 1_555
O29 W1 1.822537 1_555
O30 W3 1.813115 1_556
O31 W2 1.813115 1_554
O32 W1 1.813115 1_555
O33 W0 1.813115 1_555
