# generated using pymatgen
data_Ca16Mn14Al2O43
_symmetry_space_group_name_H-M   'P 1'
_cell_length_a   10.91249896
_cell_length_b   15.27123862
_cell_length_c   10.84008811
_cell_angle_alpha   90.12723622
_cell_angle_beta   91.35087047
_cell_angle_gamma   89.91121286
_symmetry_Int_Tables_number   1
_chemical_formula_structural   Ca16Mn14Al2O43
_chemical_formula_sum   'Ca32 Mn28 Al4 O86'
_cell_volume   1805.96368588
_cell_formula_units_Z   2
loop_
 _symmetry_equiv_pos_site_id
 _symmetry_equiv_pos_as_xyz
  1  'x, y, z'
loop_
 _atom_site_type_symbol
 _atom_site_label
 _atom_site_symmetry_multiplicity
 _atom_site_fract_x
 _atom_site_fract_y
 _atom_site_fract_z
 _atom_site_occupancy
  Ca  Ca0  1  0.00200568  0.11350560  0.50358242  1
  Ca  Ca1  1  0.00892759  0.11345807  0.00789884  1
  Ca  Ca2  1  0.00847955  0.62348251  0.50595101  1
  Ca  Ca3  1  0.01574217  0.61971484  0.99365415  1
  Ca  Ca4  1  0.53831972  0.12513336  0.49630479  1
  Ca  Ca5  1  0.52981135  0.12379670  -0.00002065  1
  Ca  Ca6  1  0.52995924  0.63499545  0.48471362  1
  Ca  Ca7  1  0.53943475  0.63040588  0.98713182  1
  Ca  Ca8  1  0.49899687  0.35896532  0.99989380  1
  Ca  Ca9  1  0.51051440  0.36020062  0.48952736  1
  Ca  Ca10  1  0.49962291  0.88942973  0.98550237  1
  Ca  Ca11  1  0.47924684  0.87833001  0.51773661  1
  Ca  Ca12  1  0.96148444  0.37970234  0.00774751  1
  Ca  Ca13  1  0.96145480  0.38479599  0.50230863  1
  Ca  Ca14  1  0.96958699  0.88160855  0.99941616  1
  Ca  Ca15  1  0.97106884  0.87192479  0.50686546  1
  Ca  Ca16  1  0.23262882  0.37491458  0.24955020  1
  Ca  Ca17  1  0.23170449  0.39226187  0.76578743  1
  Ca  Ca18  1  0.23765101  0.89296972  0.25866479  1
  Ca  Ca19  1  0.22848224  0.87521979  0.74396752  1
  Ca  Ca20  1  0.73526041  0.36278492  0.24420484  1
  Ca  Ca21  1  0.74301267  0.36467743  0.75449061  1
  Ca  Ca22  1  0.75082637  0.88418889  0.25113587  1
  Ca  Ca23  1  0.72392191  0.87976373  0.74148452  1
  Ca  Ca24  1  0.25971447  0.12910923  0.23027679  1
  Ca  Ca25  1  0.26355813  0.11711865  0.76253137  1
  Ca  Ca26  1  0.23326844  0.61752857  0.26624312  1
  Ca  Ca27  1  0.22970447  0.63478143  0.72552650  1
  Ca  Ca28  1  0.76941908  0.12003134  0.25815474  1
  Ca  Ca29  1  0.77776560  0.12229456  0.75743611  1
  Ca  Ca30  1  0.78618019  0.62382032  0.25484773  1
  Ca  Ca31  1  0.77752375  0.62649646  0.75658379  1
  Mn  Mn0  1  0.00631387  0.00281762  0.25206796  1
  Mn  Mn1  1  0.99897371  0.99784321  0.75070781  1
  Mn  Mn2  1  0.99527439  0.49158692  0.25421547  1
  Mn  Mn3  1  0.99280183  0.49670585  0.75409592  1
  Mn  Mn4  1  0.49509347  0.00588205  0.74629837  1
  Mn  Mn5  1  0.50981315  0.48971599  0.23364476  1
  Mn  Mn6  1  0.50632425  0.48933700  0.73081787  1
  Mn  Mn7  1  0.25235212  0.99852075  0.00112310  1
  Mn  Mn8  1  0.24379320  0.50034385  0.01788517  1
  Mn  Mn9  1  0.24254736  0.49455415  0.51370664  1
  Mn  Mn10  1  0.75081932  0.00000035  0.99770737  1
  Mn  Mn11  1  0.74710038  0.99914278  0.50001626  1
  Mn  Mn12  1  0.74542955  0.50181057  0.99780665  1
  Mn  Mn13  1  0.74324436  0.50265014  0.49584919  1
  Mn  Mn14  1  0.25257557  0.24329766  0.47795899  1
  Mn  Mn15  1  0.26953566  0.73615165  0.97127747  1
  Mn  Mn16  1  0.24920693  0.75401097  0.48711308  1
  Mn  Mn17  1  0.75979317  0.24443173  0.00664332  1
  Mn  Mn18  1  0.75564925  0.24866930  0.50523773  1
  Mn  Mn19  1  0.75042631  0.75208358  0.99856343  1
  Mn  Mn20  1  0.75131581  0.74874139  0.50265226  1
  Mn  Mn21  1  0.00602892  0.25008767  0.76336001  1
  Mn  Mn22  1  0.99692289  0.75391066  0.25820852  1
  Mn  Mn23  1  0.99304306  0.75253893  0.75077599  1
  Mn  Mn24  1  0.49960482  0.24289947  0.24982114  1
  Mn  Mn25  1  0.51120025  0.24395302  0.75644757  1
  Mn  Mn26  1  0.51756299  0.76627845  0.25816906  1
  Mn  Mn27  1  0.49922846  0.75061460  0.74355701  1
  Al  Al0  1  0.51272584  0.00013727  0.23207349  1
  Al  Al1  1  0.22729380  0.99953180  0.51668291  1
  Al  Al2  1  0.27356111  0.25104668  0.97897202  1
  Al  Al3  1  0.98482267  0.24702696  0.27285536  1
  O  O0  1  0.10177949  0.76447368  0.61190971  1
  O  O1  1  0.60910204  0.26094290  0.11303161  1
  O  O2  1  0.61414345  0.26785275  0.61378115  1
  O  O3  1  0.58761605  0.76763709  0.09765544  1
  O  O4  1  0.59627381  0.76065001  0.59635262  1
  O  O5  1  0.40884093  0.22578184  0.40219488  1
  O  O6  1  0.40927017  0.22727414  0.89539950  1
  O  O7  1  0.40064028  0.70969688  0.35027767  1
  O  O8  1  0.39582704  0.69268595  0.86255442  1
  O  O9  1  0.89711908  0.23141797  0.40863725  1
  O  O10  1  0.90479265  0.23217887  0.91162086  1
  O  O11  1  0.89481192  0.73226410  0.40688645  1
  O  O12  1  0.89281697  0.73092866  0.90144255  1
  O  O13  1  0.14416034  0.24135527  0.33564869  1
  O  O14  1  0.17314492  0.24841698  0.82436094  1
  O  O15  1  0.15875418  0.74895101  0.32835527  1
  O  O16  1  0.13068628  0.73139593  0.86359102  1
  O  O17  1  0.64936644  0.22772659  0.35800409  1
  O  O18  1  0.66087626  0.22841731  0.86260376  1
  O  O19  1  0.65425117  0.72290124  0.34993598  1
  O  O20  1  0.64104291  0.72643461  0.85073868  1
  O  O21  1  0.35500271  0.26577295  0.14480995  1
  O  O22  1  0.35493320  0.75800402  0.63563041  1
  O  O23  1  0.87104254  0.26856024  0.14841333  1
  O  O24  1  0.87055701  0.27455177  0.64264482  1
  O  O25  1  0.86024166  0.77576029  0.14176490  1
  O  O26  1  0.84674173  0.77173538  0.65074950  1
  O  O27  1  0.34978543  0.49660281  0.17056302  1
  O  O28  1  0.34862040  0.50892556  0.66355670  1
  O  O29  1  0.35946816  0.99195969  0.14721822  1
  O  O30  1  0.35127416  0.98746408  0.63409271  1
  O  O31  1  0.84777584  0.48008669  0.15330546  1
  O  O32  1  0.84507406  0.47755087  0.64848886  1
  O  O33  1  0.86245612  0.98072333  0.13622851  1
  O  O34  1  0.85286627  0.97968608  0.64511824  1
  O  O35  1  0.16358663  0.02194205  0.36138350  1
  O  O36  1  0.14730583  0.00864380  0.85195093  1
  O  O37  1  0.15477475  0.49574853  0.36037875  1
  O  O38  1  0.15569927  0.52191699  0.86438847  1
  O  O39  1  0.63269111  0.02059444  0.35934904  1
  O  O40  1  0.63922750  0.02551049  0.85297458  1
  O  O41  1  0.63084539  0.53213256  0.34223610  1
  O  O42  1  0.62915588  0.52785992  0.84059720  1
  O  O43  1  0.39559651  0.02278249  0.89405252  1
  O  O44  1  0.88667169  0.01443929  0.39031136  1
  O  O45  1  0.89288102  0.01771574  0.89169802  1
  O  O46  1  0.89364639  0.51834955  0.39969022  1
  O  O47  1  0.89079084  0.51615629  0.90016658  1
  O  O48  1  0.09569312  0.47288943  0.11592571  1
  O  O49  1  0.09568002  0.47767037  0.61728121  1
  O  O50  1  0.11204414  0.97790443  0.10372990  1
  O  O51  1  0.09535418  0.97803080  0.60685403  1
  O  O52  1  0.58747212  0.49261343  0.07882598  1
  O  O53  1  0.58541284  0.49306954  0.57631343  1
  O  O54  1  0.61505858  0.98124719  0.10641489  1
  O  O55  1  0.60034516  0.98627508  0.60433948  1
  O  O56  1  0.00372181  0.36979726  0.28809135  1
  O  O57  1  0.01043236  0.37493559  0.79654446  1
  O  O58  1  0.01111856  0.87885267  0.28722649  1
  O  O59  1  0.00846785  0.87506803  0.79049995  1
  O  O60  1  0.50846815  0.37053626  0.28367518  1
  O  O61  1  0.48301483  0.37146722  0.78180983  1
  O  O62  1  0.48216261  0.88863796  0.29306030  1
  O  O63  1  0.50194402  0.88122070  0.77469071  1
  O  O64  1  0.48484022  0.12010514  0.22159091  1
  O  O65  1  0.47486045  0.13058669  0.69900293  1
  O  O66  1  0.99468862  0.12794775  0.22146505  1
  O  O67  1  0.99877189  0.12594643  0.71791978  1
  O  O68  1  0.00716200  0.62673435  0.21856998  1
  O  O69  1  0.99198039  0.62408904  0.71765067  1
  O  O70  1  0.21206803  0.14809097  0.02687352  1
  O  O71  1  0.22484712  0.13142018  0.54287303  1
  O  O72  1  0.24209744  0.62836146  0.05173391  1
  O  O73  1  0.23358301  0.62295473  0.50461356  1
  O  O74  1  0.74908952  0.12203802  0.04397171  1
  O  O75  1  0.75132398  0.12479004  0.54262016  1
  O  O76  1  0.74425364  0.62847077  0.04053547  1
  O  O77  1  0.74298981  0.62547398  0.54214120  1
  O  O78  1  0.28477624  0.36617106  0.50866636  1
  O  O79  1  0.27189547  0.37578594  0.97865470  1
  O  O80  1  0.26610131  0.88093546  0.46870537  1
  O  O81  1  0.28849517  0.85569221  0.97951257  1
  O  O82  1  0.74453662  0.37617506  0.45987527  1
  O  O83  1  0.74625171  0.37343659  0.96957266  1
  O  O84  1  0.75024093  0.87354124  0.46393990  1
  O  O85  1  0.74953295  0.87637504  0.95582328  1
loop_
_geom_bond_atom_site_label_1
_geom_bond_atom_site_label_2
_geom_bond_distance
_geom_bond_site_symmetry_2
Ca0 O44 2.303310 1_455
Ca0 O67 2.331862 1_455
Ca0 O9 2.357549 1_455
Ca0 O71 2.474348 1_555
Ca0 O51 2.553645 1_545
Ca0 O35 2.747958 1_555
Ca0 O75 2.782962 1_455
Ca1 O70 2.284239 1_555
Ca1 O45 2.291379 1_454
Ca1 O66 2.333938 1_455
Ca1 O10 2.369323 1_454
Ca1 O50 2.564715 1_545
Ca1 O36 2.793013 1_554
Ca1 O33 2.954012 1_445
Ca2 O69 2.306120 1_455
Ca2 O11 2.321680 1_455
Ca2 O46 2.324812 1_455
Ca2 O73 2.456826 1_555
Ca2 O0 2.632953 1_555
Ca2 O49 2.696570 1_555
Ca3 O47 2.306876 1_455
Ca3 O12 2.370718 1_455
Ca3 O68 2.444217 1_556
Ca3 O72 2.538215 1_556
Ca3 O16 2.563317 1_555
Ca3 O38 2.571218 1_555
Ca3 O48 2.738261 1_556
Ca4 O5 2.309078 1_555
Ca4 O65 2.320608 1_555
Ca4 O75 2.366415 1_555
Ca4 O39 2.422747 1_555
Ca4 O17 2.504522 1_555
Ca4 O55 2.509085 1_545
Ca4 O2 2.645776 1_555
Ca5 O6 2.333193 1_554
Ca5 O43 2.400645 1_554
Ca5 O74 2.428998 1_555
Ca5 O64 2.463996 1_555
Ca5 O40 2.508271 1_554
Ca5 O1 2.565388 1_555
Ca5 O54 2.624837 1_545
Ca5 O18 2.633227 1_554
Ca6 O7 2.306946 1_555
Ca6 O4 2.371305 1_555
Ca6 O77 2.396665 1_555
Ca6 O19 2.425712 1_555
Ca6 O53 2.454966 1_555
Ca6 O41 2.475681 1_555
Ca7 O8 2.255084 1_555
Ca7 O76 2.295751 1_556
Ca7 O20 2.378647 1_555
Ca7 O52 2.381595 1_556
Ca7 O42 2.447788 1_555
Ca7 O3 2.462993 1_556
Ca8 O1 2.263107 1_556
Ca8 O61 2.374460 1_555
Ca8 O52 2.406083 1_556
Ca8 O6 2.495988 1_555
Ca8 O79 2.496411 1_555
Ca8 O21 2.663733 1_556
Ca8 O83 2.735136 1_555
Ca9 O60 2.236965 1_555
Ca9 O2 2.239096 1_555
Ca9 O53 2.372892 1_555
Ca9 O78 2.478478 1_555
Ca9 O5 2.507966 1_555
Ca9 O82 2.593364 1_555
Ca10 O54 2.278222 1_556
Ca10 O63 2.289109 1_555
Ca10 O81 2.360982 1_555
Ca10 O3 2.410158 1_556
Ca10 O43 2.523350 1_565
Ca10 O85 2.760427 1_555
Ca10 O29 2.823233 1_556
Ca10 O40 2.971458 1_565
Ca11 O55 2.299223 1_555
Ca11 O4 2.352688 1_555
Ca11 O80 2.373951 1_555
Ca11 O62 2.441900 1_555
Ca11 O30 2.526899 1_555
Ca11 O22 2.636271 1_555
Ca11 O63 2.790831 1_555
Ca11 O84 3.028373 1_555
Ca12 O48 2.337366 1_655
Ca12 O57 2.364114 1_654
Ca12 O83 2.377312 1_554
Ca12 O47 2.502163 1_554
Ca12 O23 2.503511 1_555
Ca12 O31 2.540686 1_555
Ca12 O10 2.550968 1_554
Ca13 O49 2.371254 1_655
Ca13 O56 2.388582 1_655
Ca13 O82 2.404481 1_555
Ca13 O46 2.431300 1_555
Ca13 O32 2.491918 1_555
Ca13 O24 2.494038 1_555
Ca13 O9 2.640285 1_555
Ca14 O59 2.315793 1_655
Ca14 O50 2.403053 1_656
Ca14 O33 2.433818 1_556
Ca14 O85 2.437836 1_555
Ca14 O45 2.518669 1_565
Ca14 O25 2.553743 1_556
Ca14 O12 2.660423 1_555
Ca15 O51 2.359991 1_655
Ca15 O58 2.433359 1_655
Ca15 O0 2.438899 1_655
Ca15 O84 2.443601 1_555
Ca15 O11 2.523603 1_555
Ca15 O34 2.586812 1_555
Ca15 O26 2.594447 1_555
Ca15 O44 2.670631 1_565
Ca16 O37 2.367198 1_555
Ca16 O27 2.426324 1_555
Ca16 O21 2.430348 1_555
Ca16 O13 2.453604 1_555
Ca16 O56 2.543689 1_555
Ca16 O48 2.543692 1_555
Ca16 O78 2.856102 1_555
Ca16 O79 2.977670 1_554
Ca16 O60 3.024727 1_555
Ca17 O79 2.352602 1_555
Ca17 O14 2.380469 1_555
Ca17 O38 2.403753 1_555
Ca17 O57 2.460071 1_555
Ca17 O28 2.472335 1_555
Ca17 O49 2.527193 1_555
Ca17 O61 2.761700 1_555
Ca17 O78 2.886727 1_555
Ca18 O80 2.298390 1_555
Ca18 O29 2.366832 1_555
Ca18 O35 2.408324 1_565
Ca18 O15 2.488572 1_555
Ca18 O50 2.505495 1_555
Ca18 O58 2.508252 1_555
Ca18 O62 2.686171 1_555
Ca19 O59 2.464938 1_555
Ca19 O30 2.498744 1_555
Ca19 O36 2.517778 1_565
Ca19 O22 2.558694 1_555
Ca19 O51 2.585771 1_555
Ca19 O0 2.593141 1_555
Ca19 O81 2.638415 1_555
Ca19 O16 2.780219 1_555
Ca19 O63 2.996386 1_555
Ca19 O80 3.023016 1_555
Ca20 O23 2.324557 1_555
Ca20 O82 2.346179 1_555
Ca20 O31 2.399811 1_555
Ca20 O1 2.498104 1_555
Ca20 O60 2.524055 1_555
Ca20 O17 2.593466 1_555
Ca21 O24 2.316817 1_555
Ca21 O83 2.334484 1_555
Ca21 O32 2.367926 1_555
Ca21 O2 2.527021 1_555
Ca21 O18 2.563782 1_555
Ca21 O61 2.861271 1_555
Ca21 O42 2.942748 1_555
Ca21 O57 2.947325 1_655
Ca22 O33 2.300865 1_555
Ca22 O84 2.313058 1_555
Ca22 O25 2.371698 1_555
Ca22 O54 2.597496 1_555
Ca22 O39 2.725672 1_565
Ca22 O58 2.859164 1_655
Ca22 O44 2.884521 1_565
Ca22 O19 2.897819 1_555
Ca22 O62 2.978025 1_555
Ca22 O3 2.994174 1_555
Ca23 O85 2.334327 1_555
Ca23 O34 2.341517 1_555
Ca23 O26 2.352327 1_555
Ca23 O63 2.457371 1_555
Ca23 O55 2.565896 1_555
Ca23 O40 2.702416 1_565
Ca23 O4 2.759720 1_555
Ca23 O20 2.787960 1_555
Ca24 O70 2.272512 1_555
Ca24 O35 2.425809 1_555
Ca24 O13 2.426020 1_555
Ca24 O64 2.464320 1_555
Ca24 O21 2.521111 1_555
Ca24 O29 2.532406 1_545
Ca24 O5 2.855346 1_555
Ca25 O36 2.316181 1_555
Ca25 O14 2.337119 1_555
Ca25 O71 2.418772 1_555
Ca25 O65 2.431131 1_555
Ca25 O43 2.467787 1_555
Ca25 O30 2.611467 1_545
Ca25 O6 2.705959 1_555
Ca25 O67 2.921357 1_455
Ca25 O70 2.969772 1_556
Ca26 O15 2.270961 1_555
Ca26 O37 2.299603 1_555
Ca26 O72 2.335805 1_555
Ca26 O7 2.463872 1_555
Ca26 O27 2.479734 1_555
Ca26 O68 2.512757 1_555
Ca26 O73 2.585023 1_555
Ca27 O16 2.376097 1_555
Ca27 O73 2.402480 1_555
Ca27 O28 2.420089 1_555
Ca27 O38 2.441705 1_555
Ca27 O8 2.479274 1_555
Ca27 O22 2.537129 1_555
Ca27 O69 2.598932 1_455
Ca27 O0 2.703602 1_555
Ca28 O74 2.327391 1_555
Ca28 O17 2.375910 1_555
Ca28 O39 2.413921 1_555
Ca28 O44 2.491414 1_555
Ca28 O66 2.502607 1_555
Ca28 O33 2.710641 1_545
Ca28 O9 2.717380 1_555
Ca28 O23 2.805668 1_555
Ca29 O75 2.340060 1_555
Ca29 O18 2.367927 1_555
Ca29 O40 2.372795 1_555
Ca29 O67 2.460139 1_555
Ca29 O45 2.482885 1_555
Ca29 O34 2.631847 1_545
Ca29 O10 2.723313 1_555
Ca29 O24 2.838950 1_555
Ca30 O19 2.341125 1_555
Ca30 O76 2.358385 1_555
Ca30 O41 2.412506 1_555
Ca30 O68 2.452939 1_655
Ca30 O46 2.520581 1_555
Ca30 O31 2.549699 1_555
Ca30 O11 2.601147 1_555
Ca30 O25 2.757687 1_555
Ca31 O77 2.346161 1_555
Ca31 O20 2.376301 1_555
Ca31 O69 2.387993 1_555
Ca31 O42 2.408918 1_555
Ca31 O12 2.548344 1_555
Ca31 O47 2.589231 1_555
Ca31 O26 2.619830 1_555
Ca31 O32 2.667175 1_555
Mn0 O58 1.932299 1_545
Mn0 O66 1.943639 1_455
Mn0 O33 2.015412 1_445
Mn0 O44 2.017955 1_455
Mn0 O50 2.035930 1_545
Mn0 O35 2.083050 1_555
Mn1 O51 1.924490 1_655
Mn1 O59 1.926925 1_655
Mn1 O36 1.941145 1_665
Mn1 O34 1.960360 1_555
Mn1 O45 1.961778 1_565
Mn1 O67 1.989085 1_565
Mn2 O56 1.898263 1_655
Mn2 O48 1.898461 1_655
Mn2 O31 1.932654 1_555
Mn2 O46 1.990463 1_555
Mn2 O37 2.064825 1_655
Mn2 O68 2.105332 1_655
Mn3 O49 1.902624 1_655
Mn3 O57 1.924919 1_655
Mn3 O32 1.976833 1_555
Mn3 O47 1.978545 1_555
Mn3 O69 1.985835 1_555
Mn3 O38 2.153471 1_655
Mn4 O63 1.930179 1_545
Mn4 O40 1.953234 1_555
Mn4 O55 1.963954 1_545
Mn4 O43 1.972338 1_555
Mn4 O30 1.982799 1_545
Mn4 O65 1.983938 1_555
Mn5 O27 1.863244 1_555
Mn5 O41 1.864302 1_555
Mn5 O52 1.898463 1_555
Mn5 O60 1.900438 1_555
Mn6 O42 1.866287 1_555
Mn6 O28 1.876953 1_555
Mn6 O53 1.903139 1_555
Mn6 O61 1.903358 1_555
Mn7 O50 1.940079 1_555
Mn7 O29 1.948715 1_555
Mn7 O36 1.966195 1_564
Mn7 O43 2.004269 1_564
Mn7 O81 2.228757 1_554
Mn7 O70 2.342696 1_565
Mn8 O38 1.930631 1_554
Mn8 O79 1.973279 1_554
Mn8 O72 1.988460 1_555
Mn8 O27 1.997548 1_555
Mn8 O48 2.000559 1_555
Mn9 O37 1.898764 1_555
Mn9 O73 1.965699 1_555
Mn9 O28 1.984240 1_555
Mn9 O49 1.995767 1_555
Mn9 O78 2.014220 1_555
Mn10 O74 1.929069 1_556
Mn10 O33 1.933936 1_546
Mn10 O54 1.936641 1_546
Mn10 O85 1.940753 1_545
Mn10 O45 1.970706 1_555
Mn10 O40 2.001832 1_555
Mn11 O34 1.951892 1_555
Mn11 O84 1.957110 1_555
Mn11 O44 1.968826 1_565
Mn11 O75 1.972942 1_565
Mn11 O39 1.975447 1_565
Mn11 O55 1.992369 1_555
Mn12 O47 1.940550 1_555
Mn12 O52 1.958294 1_556
Mn12 O83 1.983544 1_555
Mn12 O76 1.988035 1_556
Mn12 O31 2.027636 1_556
Mn12 O42 2.138192 1_555
Mn13 O77 1.940576 1_555
Mn13 O53 1.954694 1_555
Mn13 O82 1.969651 1_555
Mn13 O46 1.980089 1_555
Mn13 O32 2.008561 1_555
Mn13 O41 2.094107 1_555
Mn14 O71 1.876884 1_555
Mn14 O13 1.922031 1_555
Mn14 O5 1.928101 1_555
Mn14 O78 1.936238 1_555
Mn15 O81 1.839271 1_555
Mn15 O72 1.892124 1_556
Mn15 O16 1.892172 1_555
Mn15 O8 1.949154 1_555
Mn16 O80 1.958405 1_555
Mn16 O22 1.959322 1_555
Mn16 O15 1.965066 1_555
Mn16 O73 2.018636 1_555
Mn16 O0 2.131834 1_555
Mn16 O7 2.344489 1_555
Mn17 O18 1.892778 1_554
Mn17 O10 1.916974 1_554
Mn17 O74 1.917600 1_555
Mn17 O23 1.970341 1_555
Mn17 O83 2.016007 1_554
Mn17 O1 2.045612 1_555
Mn18 O9 1.903409 1_555
Mn18 O75 1.936463 1_555
Mn18 O24 1.964193 1_555
Mn18 O17 1.976449 1_555
Mn18 O2 1.984311 1_555
Mn18 O82 2.012136 1_555
Mn19 O12 1.923859 1_555
Mn19 O76 1.944399 1_556
Mn19 O85 1.954766 1_555
Mn19 O25 1.971707 1_556
Mn19 O20 2.013574 1_555
Mn19 O3 2.110530 1_556
Mn20 O11 1.915020 1_555
Mn20 O26 1.924775 1_555
Mn20 O77 1.934177 1_555
Mn20 O84 1.952370 1_555
Mn20 O19 1.983411 1_555
Mn20 O4 2.001630 1_555
Mn21 O14 1.925277 1_555
Mn21 O57 1.939894 1_555
Mn21 O67 1.958929 1_455
Mn21 O24 1.986616 1_455
Mn21 O10 1.991185 1_455
Mn22 O15 1.907660 1_655
Mn22 O58 1.938926 1_655
Mn22 O25 1.959813 1_555
Mn22 O68 1.991709 1_655
Mn22 O11 2.009132 1_555
Mn23 O59 1.925882 1_655
Mn23 O26 1.931018 1_555
Mn23 O16 1.941530 1_655
Mn23 O0 1.947642 1_655
Mn23 O69 1.993402 1_555
Mn23 O12 2.015027 1_555
Mn24 O64 1.905813 1_555
Mn24 O1 1.946480 1_555
Mn24 O21 1.955292 1_555
Mn24 O5 1.964043 1_555
Mn24 O60 1.984700 1_555
Mn24 O17 2.002364 1_555
Mn25 O65 1.878277 1_555
Mn25 O6 1.911147 1_555
Mn25 O2 1.967884 1_555
Mn25 O18 1.989895 1_555
Mn25 O61 1.990456 1_555
Mn26 O7 1.854410 1_555
Mn26 O19 1.892923 1_555
Mn26 O3 1.917103 1_555
Mn26 O62 1.945609 1_555
Mn27 O4 1.942301 1_555
Mn27 O22 1.942702 1_555
Mn27 O20 1.948470 1_555
Mn27 O8 1.948473 1_555
Mn27 O63 2.022276 1_555
Al0 O54 1.804073 1_545
Al0 O64 1.859977 1_555
Al0 O62 1.861383 1_545
Al0 O29 1.893754 1_545
Al0 O39 1.905020 1_555
Al1 O51 1.790388 1_555
Al1 O35 1.838779 1_565
Al1 O30 1.844810 1_555
Al1 O80 1.932299 1_555
Al1 O71 2.033608 1_565
Al2 O6 1.790469 1_555
Al2 O70 1.793114 1_556
Al2 O79 1.904992 1_555
Al2 O14 1.981056 1_555
Al2 O21 1.998907 1_556
Al3 O9 1.791070 1_555
Al3 O23 1.841522 1_555
Al3 O13 1.854226 1_655
Al3 O56 1.892910 1_655
Al3 O66 1.904348 1_555
