# generated using pymatgen
data_Zn2Cr5(PO4)6
_symmetry_space_group_name_H-M   'P 1'
_cell_length_a   6.38504900
_cell_length_b   7.98186508
_cell_length_c   9.43702430
_cell_angle_alpha   105.41379897
_cell_angle_beta   108.09124929
_cell_angle_gamma   101.32707348
_symmetry_Int_Tables_number   1
_chemical_formula_structural   Zn2Cr5(PO4)6
_chemical_formula_sum   'Zn2 Cr5 P6 O24'
_cell_volume   419.81780691
_cell_formula_units_Z   1
loop_
 _symmetry_equiv_pos_site_id
 _symmetry_equiv_pos_as_xyz
  1  'x, y, z'
loop_
 _atom_site_type_symbol
 _atom_site_label
 _atom_site_symmetry_multiplicity
 _atom_site_fract_x
 _atom_site_fract_y
 _atom_site_fract_z
 _atom_site_occupancy
  Zn  Zn0  1  0.29166500  0.31531300  0.79524000  1
  Zn  Zn1  1  0.70833500  0.68468700  0.20476000  1
  Cr  Cr0  1  0.04905900  0.21667300  0.02362100  1
  Cr  Cr1  1  0.95094100  0.78332700  0.97637900  1
  Cr  Cr2  1  0.00000000  0.50000000  0.50000000  1
  Cr  Cr3  1  0.61940500  0.04290700  0.39067900  1
  Cr  Cr4  1  0.38059500  0.95709300  0.60932100  1
  P  P0  1  0.22538500  0.64787100  0.26516700  1
  P  P1  1  0.77461500  0.35212900  0.73483300  1
  P  P2  1  0.60480500  0.26535100  0.13086300  1
  P  P3  1  0.39519500  0.73464900  0.86913700  1
  P  P4  1  0.09376300  0.09456200  0.33320100  1
  P  P5  1  0.90623700  0.90543800  0.66679900  1
  O  O0  1  0.11958200  0.03453800  0.65968400  1
  O  O1  1  0.88041800  0.96546200  0.34031600  1
  O  O2  1  0.07097100  0.04832800  0.15556700  1
  O  O3  1  0.92902900  0.95167200  0.84443300  1
  O  O4  1  0.31452300  0.04287900  0.41873600  1
  O  O5  1  0.68547700  0.95712100  0.58126400  1
  O  O6  1  0.20817600  0.44798300  0.20339100  1
  O  O7  1  0.79182400  0.55201700  0.79660900  1
  O  O8  1  0.11902700  0.29036300  0.41596900  1
  O  O9  1  0.88097300  0.70963700  0.58403100  1
  O  O10  1  0.45542600  0.76646400  0.26868900  1
  O  O11  1  0.54457400  0.23353600  0.73131100  1
  O  O12  1  0.22456400  0.70137600  0.43782300  1
  O  O13  1  0.77543600  0.29862400  0.56217700  1
  O  O14  1  0.55316900  0.13314700  0.21560000  1
  O  O15  1  0.44683100  0.86685300  0.78440000  1
  O  O16  1  0.01407300  0.68760600  0.15636200  1
  O  O17  1  0.98592700  0.31239400  0.84363800  1
  O  O18  1  0.75063100  0.21389500  0.03517900  1
  O  O19  1  0.24936900  0.78610500  0.96482100  1
  O  O20  1  0.36771300  0.25795000  0.00556300  1
  O  O21  1  0.63228700  0.74205000  0.99443700  1
  O  O22  1  0.72211600  0.46294100  0.25678300  1
  O  O23  1  0.27788400  0.53705900  0.74321700  1
loop_
_geom_bond_atom_site_label_1
_geom_bond_atom_site_label_2
_geom_bond_distance
_geom_bond_site_symmetry_2
Cr0 O18 1.938298 1_455
Cr0 O6 1.961314 1_555
Cr0 O17 2.004181 1_454
Cr0 O2 2.056855 1_555
Cr0 O20 2.063768 1_555
Cr0 O3 2.139604 1_444
Cr1 O19 1.938298 1_655
Cr1 O7 1.961314 1_555
Cr1 O16 2.004181 1_656
Cr1 O3 2.056855 1_555
Cr1 O21 2.063768 1_555
Cr1 O2 2.139604 1_666
Cr2 O9 2.043242 1_455
Cr2 O8 2.043242 1_555
Cr2 O12 2.258840 1_555
Cr2 O13 2.258840 1_455
Cr2 O23 2.325397 1_555
Cr2 O22 2.325397 1_455
Cr3 O14 1.935412 1_555
Cr3 O1 2.031241 1_545
Cr3 O5 2.044144 1_545
Cr3 O4 2.044424 1_555
Cr3 O13 2.054694 1_555
Cr3 O10 2.069759 1_545
Cr4 O15 1.935412 1_555
Cr4 O0 2.031241 1_565
Cr4 O4 2.044144 1_565
Cr4 O5 2.044424 1_555
Cr4 O12 2.054694 1_555
Cr4 O11 2.069759 1_565
O0 P5 1.569769 1_445
O0 Zn0 2.121808 1_555
O1 P4 1.569769 1_665
O1 Zn1 2.121808 1_555
O2 P4 1.570355 1_555
O3 P5 1.570355 1_555
O4 P4 1.583477 1_555
O5 P5 1.583477 1_555
O6 P0 1.514730 1_555
O7 P1 1.514730 1_555
O8 P4 1.500814 1_555
O9 P5 1.500814 1_555
O10 P0 1.568876 1_555
O10 Zn1 2.051221 1_555
O11 P1 1.568876 1_555
O11 Zn0 2.051221 1_555
O12 P0 1.572741 1_555
O13 P1 1.572741 1_555
O14 P2 1.528831 1_555
O15 P3 1.528831 1_555
O16 P0 1.567206 1_555
O16 Zn1 2.135786 1_455
O17 P1 1.567206 1_555
O17 Zn0 2.135786 1_655
O18 P2 1.525205 1_555
O19 P3 1.525205 1_555
O20 P2 1.584116 1_555
O20 Zn0 2.087294 1_554
O21 P3 1.584116 1_555
O21 Zn1 2.087294 1_556
O22 P2 1.564418 1_555
O22 Zn1 1.969197 1_555
O23 P3 1.564418 1_555
O23 Zn0 1.969197 1_555
