# generated using pymatgen
data_K2CuMoI6
_symmetry_space_group_name_H-M   'P 1'
_cell_length_a   8.06314853
_cell_length_b   8.06314853
_cell_length_c   8.06314853
_cell_angle_alpha   60.00000000
_cell_angle_beta   60.00000000
_cell_angle_gamma   60.00000000
_symmetry_Int_Tables_number   1
_chemical_formula_structural   K2CuMoI6
_chemical_formula_sum   'K2 Cu1 Mo1 I6'
_cell_volume   370.67985226
_cell_formula_units_Z   1
loop_
 _symmetry_equiv_pos_site_id
 _symmetry_equiv_pos_as_xyz
  1  'x, y, z'
loop_
 _atom_site_type_symbol
 _atom_site_label
 _atom_site_symmetry_multiplicity
 _atom_site_fract_x
 _atom_site_fract_y
 _atom_site_fract_z
 _atom_site_occupancy
  K  K0  1  0.75000000  0.75000000  0.75000000  1
  K  K1  1  0.25000000  0.25000000  0.25000000  1
  Cu  Cu0  1  0.00000000  0.00000000  0.00000000  1
  Mo  Mo0  1  0.50000000  0.50000000  0.50000000  1
  I  I0  1  0.74849400  0.74849400  0.25150600  1
  I  I1  1  0.74849400  0.25150600  0.25150600  1
  I  I2  1  0.25150600  0.25150600  0.74849400  1
  I  I3  1  0.74849400  0.25150600  0.74849400  1
  I  I4  1  0.25150600  0.74849400  0.25150600  1
  I  I5  1  0.25150600  0.74849400  0.74849400  1
loop_
_geom_bond_atom_site_label_1
_geom_bond_atom_site_label_2
_geom_bond_distance
_geom_bond_site_symmetry_2
Cu0 I5 2.867926 1_544
Cu0 I3 2.867926 1_454
Cu0 I1 2.867926 1_455
Cu0 I0 2.867926 1_445
Cu0 I2 2.867926 1_554
Cu0 I4 2.867926 1_545
I0 Mo0 2.833581 1_555
I0 K1 4.031611 1_655
I0 K1 4.031611 1_565
I0 K0 4.031611 1_554
I0 K0 4.031611 1_555
I1 Mo0 2.833581 1_555
I1 K1 4.031611 1_655
I1 K0 4.031611 1_554
I1 K1 4.031611 1_555
I1 K0 4.031611 1_545
I2 Mo0 2.833581 1_555
I2 K1 4.031611 1_556
I2 K0 4.031611 1_455
I2 K1 4.031611 1_555
I2 K0 4.031611 1_545
I3 Mo0 2.833581 1_555
I3 K1 4.031611 1_655
I3 K1 4.031611 1_556
I3 K0 4.031611 1_555
I3 K0 4.031611 1_545
I4 Mo0 2.833581 1_555
I4 K1 4.031611 1_565
I4 K0 4.031611 1_554
I4 K0 4.031611 1_455
I4 K1 4.031611 1_555
I5 Mo0 2.833581 1_555
I5 K1 4.031611 1_556
I5 K1 4.031611 1_565
I5 K0 4.031611 1_555
I5 K0 4.031611 1_455
