# generated using pymatgen
data_DyGaPd2
_symmetry_space_group_name_H-M   'P 1'
_cell_length_a   5.57862834
_cell_length_b   7.08981695
_cell_length_c   7.32079882
_cell_angle_alpha   90.00000000
_cell_angle_beta   89.99998128
_cell_angle_gamma   90.00000000
_symmetry_Int_Tables_number   1
_chemical_formula_structural   DyGaPd2
_chemical_formula_sum   'Dy4 Ga4 Pd8'
_cell_volume   289.54823604
_cell_formula_units_Z   4
loop_
 _symmetry_equiv_pos_site_id
 _symmetry_equiv_pos_as_xyz
  1  'x, y, z'
loop_
 _atom_site_type_symbol
 _atom_site_label
 _atom_site_symmetry_multiplicity
 _atom_site_fract_x
 _atom_site_fract_y
 _atom_site_fract_z
 _atom_site_occupancy
  Dy  Dy0  1  0.35547466  0.75000000  0.02996974  1
  Dy  Dy1  1  0.14452634  0.75000000  0.52996974  1
  Dy  Dy2  1  0.64452534  0.25000000  0.97003026  1
  Dy  Dy3  1  0.85547366  0.25000000  0.47003026  1
  Ga  Ga0  1  0.64321981  0.75000000  0.38398162  1
  Ga  Ga1  1  0.85678019  0.75000000  0.88398162  1
  Ga  Ga2  1  0.35678019  0.25000000  0.61601838  1
  Ga  Ga3  1  0.14321981  0.25000000  0.11601838  1
  Pd  Pd0  1  0.91182402  0.55158591  0.18338776  1
  Pd  Pd1  1  0.58817598  0.94841409  0.68338776  1
  Pd  Pd2  1  0.08817598  0.05158591  0.81661224  1
  Pd  Pd3  1  0.41182402  0.44841409  0.31661224  1
  Pd  Pd4  1  0.08817598  0.44841409  0.81661224  1
  Pd  Pd5  1  0.41182402  0.05158591  0.31661224  1
  Pd  Pd6  1  0.91182402  0.94841409  0.18338776  1
  Pd  Pd7  1  0.58817598  0.55158591  0.68338776  1
loop_
_geom_bond_atom_site_label_1
_geom_bond_atom_site_label_2
_geom_bond_distance
_geom_bond_site_symmetry_2
Dy0 Ga1 2.980256 1_454
Dy0 Ga1 2.993857 1_554
Dy0 Pd5 3.012336 1_565
Dy0 Pd3 3.012336 1_555
Dy0 Pd2 3.038929 1_564
Dy0 Pd4 3.038929 1_554
Dy0 Ga0 3.048507 1_555
Dy0 Pd0 3.060350 1_455
Dy0 Pd6 3.060350 1_455
Dy0 Pd1 3.178323 1_554
Dy0 Pd7 3.178323 1_554
Dy1 Ga0 2.980250 1_555
Dy1 Ga0 2.993863 1_455
Dy1 Pd2 3.012337 1_565
Dy1 Pd4 3.012337 1_555
Dy1 Pd5 3.038926 1_565
Dy1 Pd3 3.038926 1_555
Dy1 Ga1 3.048509 1_455
Dy1 Pd7 3.060346 1_555
Dy1 Pd1 3.060346 1_555
Dy1 Pd6 3.178326 1_455
Dy1 Pd0 3.178326 1_455
Dy2 Ga3 2.980256 1_656
Dy2 Ga3 2.993857 1_556
Dy2 Pd1 3.012336 1_545
Dy2 Pd7 3.012336 1_555
Dy2 Pd0 3.038929 1_556
Dy2 Pd6 3.038929 1_546
Dy2 Ga2 3.048507 1_555
Dy2 Pd2 3.060350 1_655
Dy2 Pd4 3.060350 1_655
Dy2 Pd5 3.178323 1_556
Dy2 Pd3 3.178323 1_556
Dy3 Ga2 2.980250 1_555
Dy3 Ga2 2.993863 1_655
Dy3 Pd6 3.012337 1_545
Dy3 Pd0 3.012337 1_555
Dy3 Pd7 3.038926 1_555
Dy3 Pd1 3.038926 1_545
Dy3 Ga3 3.048509 1_655
Dy3 Pd5 3.060346 1_555
Dy3 Pd3 3.060346 1_555
Dy3 Pd4 3.178326 1_655
Dy3 Pd2 3.178326 1_655
Ga0 Pd6 2.526006 1_555
Ga0 Pd0 2.526006 1_555
Ga0 Pd5 2.545868 1_565
Ga0 Pd3 2.545868 1_555
Ga0 Pd1 2.622507 1_555
Ga0 Pd7 2.622507 1_555
Ga1 Pd1 2.526006 1_555
Ga1 Pd7 2.526006 1_555
Ga1 Pd4 2.545868 1_655
Ga1 Pd2 2.545868 1_665
Ga1 Pd6 2.622507 1_556
Ga1 Pd0 2.622507 1_556
Ga2 Pd4 2.526006 1_555
Ga2 Pd2 2.526006 1_555
Ga2 Pd1 2.545868 1_545
Ga2 Pd7 2.545868 1_555
Ga2 Pd5 2.622507 1_555
Ga2 Pd3 2.622507 1_555
Ga3 Pd5 2.526006 1_555
Ga3 Pd3 2.526006 1_555
Ga3 Pd0 2.545868 1_455
Ga3 Pd6 2.545868 1_445
Ga3 Pd4 2.622507 1_554
Ga3 Pd2 2.622507 1_554
