# generated using pymatgen
data_SrHf7N10
_symmetry_space_group_name_H-M   'P 1'
_cell_length_a   6.55426372
_cell_length_b   6.87100900
_cell_length_c   13.45868745
_cell_angle_alpha   90.00000000
_cell_angle_beta   88.19506813
_cell_angle_gamma   90.00000000
_symmetry_Int_Tables_number   1
_chemical_formula_structural   SrHf7N10
_chemical_formula_sum   'Sr2 Hf14 N20'
_cell_volume   605.80326453
_cell_formula_units_Z   2
loop_
 _symmetry_equiv_pos_site_id
 _symmetry_equiv_pos_as_xyz
  1  'x, y, z'
loop_
 _atom_site_type_symbol
 _atom_site_label
 _atom_site_symmetry_multiplicity
 _atom_site_fract_x
 _atom_site_fract_y
 _atom_site_fract_z
 _atom_site_occupancy
  Sr  Sr0  1  0.88920000  0.06181300  0.61698900  1
  Sr  Sr1  1  0.88920000  0.93818700  0.11698900  1
  Hf  Hf0  1  0.59564100  0.04485700  0.82778900  1
  Hf  Hf1  1  0.59564100  0.95514300  0.32778900  1
  Hf  Hf2  1  0.40803400  0.96307900  0.03831000  1
  Hf  Hf3  1  0.40803400  0.03692100  0.53831000  1
  Hf  Hf4  1  0.12312000  0.41498500  0.07850100  1
  Hf  Hf5  1  0.12312000  0.58501500  0.57850100  1
  Hf  Hf6  1  0.69513100  0.40992200  0.98612100  1
  Hf  Hf7  1  0.69513100  0.59007800  0.48612100  1
  Hf  Hf8  1  0.88369200  0.60136100  0.78668000  1
  Hf  Hf9  1  0.88369200  0.39863900  0.28668000  1
  Hf  Hf10  1  0.31013500  0.59584700  0.87977500  1
  Hf  Hf11  1  0.31013500  0.40415300  0.37977500  1
  Hf  Hf12  1  0.50063000  0.41735800  0.68397000  1
  Hf  Hf13  1  0.50063000  0.58264200  0.18397000  1
  N  N0  1  0.83137400  0.88400900  0.78310600  1
  N  N1  1  0.83137400  0.11599100  0.28310600  1
  N  N2  1  0.65438700  0.11877000  0.98435600  1
  N  N3  1  0.65438700  0.88123000  0.48435600  1
  N  N4  1  0.37279200  0.87670200  0.88907500  1
  N  N5  1  0.37279200  0.12329800  0.38907500  1
  N  N6  1  0.17172100  0.13632600  0.06259700  1
  N  N7  1  0.17172100  0.86367400  0.56259700  1
  N  N8  1  0.20030800  0.53681700  0.73277900  1
  N  N9  1  0.20030800  0.46318300  0.23277900  1
  N  N10  1  0.51387700  0.12870600  0.67993100  1
  N  N11  1  0.51387700  0.87129400  0.17993100  1
  N  N12  1  0.79771600  0.48030500  0.13526500  1
  N  N13  1  0.79771600  0.51969500  0.63526500  1
  N  N14  1  0.99504700  0.51883000  0.93551400  1
  N  N15  1  0.99504700  0.48117000  0.43551400  1
  N  N16  1  0.59495600  0.44733000  0.83570800  1
  N  N17  1  0.59495600  0.55267000  0.33570800  1
  N  N18  1  0.40453800  0.55043400  0.03283500  1
  N  N19  1  0.40453800  0.44956600  0.53283500  1
loop_
_geom_bond_atom_site_label_1
_geom_bond_atom_site_label_2
_geom_bond_distance
_geom_bond_site_symmetry_2
Hf0 N0 1.977817 1_545
Hf0 N4 2.018111 1_545
Hf0 N10 2.155526 1_555
Hf0 N2 2.213033 1_555
Hf0 N16 2.767447 1_555
Hf1 N1 1.977817 1_565
Hf1 N5 2.018111 1_565
Hf1 N11 2.155526 1_555
Hf1 N3 2.213033 1_555
Hf1 N17 2.767447 1_555
Hf2 N6 1.972542 1_565
Hf2 N2 2.050596 1_564
Hf2 N4 2.113982 1_554
Hf2 N11 2.143649 1_555
Hf2 N18 2.836356 1_555
Hf3 N7 1.972542 1_545
Hf3 N3 2.050596 1_545
Hf3 N5 2.113982 1_555
Hf3 N10 2.143649 1_555
Hf3 N19 2.836356 1_555
Hf4 N6 1.951652 1_555
Hf4 N18 2.138834 1_555
Hf4 N9 2.177876 1_555
Hf4 N14 2.240287 1_454
Hf4 N12 2.287183 1_455
Hf5 N7 1.951652 1_555
Hf5 N19 2.138834 1_555
Hf5 N8 2.177876 1_555
Hf5 N15 2.240287 1_455
Hf5 N13 2.287183 1_455
Hf6 N2 2.018492 1_555
Hf6 N16 2.163081 1_555
Hf6 N12 2.190925 1_556
Hf6 N14 2.191715 1_555
Hf6 N18 2.208969 1_556
Hf7 N3 2.018492 1_555
Hf7 N17 2.163081 1_555
Hf7 N13 2.190925 1_555
Hf7 N15 2.191715 1_555
Hf7 N19 2.208969 1_555
Hf8 N0 1.972967 1_555
Hf8 N13 2.203989 1_555
Hf8 N8 2.221372 1_655
Hf8 N14 2.226836 1_555
Hf8 N16 2.249048 1_555
Hf9 N1 1.972967 1_555
Hf9 N12 2.203989 1_555
Hf9 N9 2.221372 1_655
Hf9 N15 2.226836 1_555
Hf9 N17 2.249048 1_555
Hf10 N4 1.977756 1_555
Hf10 N8 2.164796 1_555
Hf10 N18 2.191813 1_556
Hf10 N16 2.192774 1_555
Hf10 N14 2.238332 1_455
Hf11 N5 1.977756 1_555
Hf11 N9 2.164796 1_555
Hf11 N19 2.191813 1_555
Hf11 N17 2.192774 1_555
Hf11 N15 2.238332 1_455
Hf12 N10 1.985899 1_555
Hf12 N13 2.152957 1_555
Hf12 N19 2.159587 1_555
Hf12 N16 2.162110 1_555
Hf12 N8 2.213221 1_555
Hf13 N11 1.985899 1_555
Hf13 N12 2.152957 1_555
Hf13 N18 2.159587 1_555
Hf13 N17 2.162110 1_555
Hf13 N9 2.213221 1_555
N0 Sr0 2.565391 1_565
N1 Sr1 2.565391 1_545
N2 Sr1 2.695863 1_546
N3 Sr0 2.695863 1_565
N6 Sr1 2.394328 1_445
N7 Sr0 2.394328 1_465
N10 Sr0 2.617063 1_555
N11 Sr1 2.617063 1_555
N12 Sr1 3.210726 1_555
N13 Sr0 3.210726 1_555
