# generated using pymatgen
data_CaCO3
_symmetry_space_group_name_H-M   'P 1'
_cell_length_a   6.39363900
_cell_length_b   7.69701157
_cell_length_c   12.74171304
_cell_angle_alpha   93.77095471
_cell_angle_beta   98.92079031
_cell_angle_gamma   106.22137435
_symmetry_Int_Tables_number   1
_chemical_formula_structural   CaCO3
_chemical_formula_sum   'Ca10 C10 O30'
_cell_volume   590.85196897
_cell_formula_units_Z   10
loop_
 _symmetry_equiv_pos_site_id
 _symmetry_equiv_pos_as_xyz
  1  'x, y, z'
loop_
 _atom_site_type_symbol
 _atom_site_label
 _atom_site_symmetry_multiplicity
 _atom_site_fract_x
 _atom_site_fract_y
 _atom_site_fract_z
 _atom_site_occupancy
  Ca  Ca0  1  0.66369400  0.35028000  0.44255100  1
  Ca  Ca1  1  0.33630600  0.64972000  0.55744900  1
  Ca  Ca2  1  0.22722300  0.12013100  0.61862100  1
  Ca  Ca3  1  0.77277700  0.87986900  0.38137900  1
  Ca  Ca4  1  0.97319800  0.51817500  0.21247400  1
  Ca  Ca5  1  0.02680200  0.48182500  0.78752600  1
  Ca  Ca6  1  0.08964800  0.07126200  0.17228900  1
  Ca  Ca7  1  0.91035200  0.92873800  0.82771100  1
  Ca  Ca8  1  0.48741000  0.24894500  0.97851200  1
  Ca  Ca9  1  0.51259000  0.75105500  0.02148800  1
  C  C0  1  0.50190000  0.47972600  0.21070500  1
  C  C1  1  0.49810000  0.52027400  0.78929500  1
  C  C2  1  0.12367800  0.32165400  0.40097300  1
  C  C3  1  0.87632200  0.67834600  0.59902700  1
  C  C4  1  0.94189000  0.26284800  0.99386200  1
  C  C5  1  0.05811000  0.73715200  0.00613800  1
  C  C6  1  0.44997400  0.97109900  0.79940300  1
  C  C7  1  0.55002600  0.02890100  0.20059700  1
  C  C8  1  0.78342400  0.16087300  0.61559600  1
  C  C9  1  0.21657600  0.83912700  0.38440400  1
  O  O0  1  0.09522200  0.18836600  0.97848300  1
  O  O1  1  0.90477800  0.81163400  0.02151700  1
  O  O2  1  0.57756600  0.49530800  0.11988200  1
  O  O3  1  0.42243400  0.50469200  0.88011800  1
  O  O4  1  0.29736800  0.40527100  0.21216700  1
  O  O5  1  0.70263200  0.59472900  0.78783300  1
  O  O6  1  0.85153500  0.11804600  0.52857500  1
  O  O7  1  0.14846500  0.88195400  0.47142500  1
  O  O8  1  0.64886300  0.54011100  0.29812200  1
  O  O9  1  0.35113700  0.45988900  0.70187800  1
  O  O10  1  0.29703000  0.33631400  0.47390800  1
  O  O11  1  0.70297000  0.66368600  0.52609200  1
  O  O12  1  0.04203200  0.45967300  0.39758800  1
  O  O13  1  0.95796800  0.54032700  0.60241200  1
  O  O14  1  0.86404100  0.24600500  0.08324100  1
  O  O15  1  0.13595900  0.75399500  0.91675900  1
  O  O16  1  0.32683500  0.08084200  0.80372000  1
  O  O17  1  0.67316500  0.91915800  0.19628000  1
  O  O18  1  0.44909300  0.87953100  0.71179400  1
  O  O19  1  0.55090700  0.12046900  0.28820600  1
  O  O20  1  0.58148100  0.96372300  0.88810300  1
  O  O21  1  0.41851900  0.03627700  0.11189700  1
  O  O22  1  0.60276300  0.20392800  0.60751600  1
  O  O23  1  0.39723700  0.79607200  0.39248400  1
  O  O24  1  0.85386300  0.34429200  0.92231400  1
  O  O25  1  0.14613700  0.65570800  0.07768600  1
  O  O26  1  0.03090300  0.17719600  0.33594400  1
  O  O27  1  0.96909700  0.82280400  0.66405600  1
  O  O28  1  0.91249300  0.17264500  0.70764300  1
  O  O29  1  0.08750700  0.82735500  0.29235700  1
loop_
_geom_bond_atom_site_label_1
_geom_bond_atom_site_label_2
_geom_bond_distance
_geom_bond_site_symmetry_2
Ca0 O10 2.412956 1_555
Ca0 O19 2.430311 1_555
Ca0 O8 2.430530 1_555
Ca0 O22 2.481747 1_555
Ca0 O12 2.498770 1_655
Ca0 O11 2.501234 1_555
Ca0 O13 2.590475 1_555
Ca0 O6 2.624467 1_555
Ca1 O11 2.412956 1_555
Ca1 O18 2.430311 1_555
Ca1 O9 2.430530 1_555
Ca1 O23 2.481747 1_555
Ca1 O13 2.498770 1_455
Ca1 O10 2.501234 1_555
Ca1 O12 2.590475 1_555
Ca1 O7 2.624467 1_555
Ca2 O22 2.335229 1_555
Ca2 O16 2.407293 1_555
Ca2 O7 2.423028 1_545
Ca2 O6 2.491514 1_455
Ca2 O28 2.569287 1_455
Ca2 O10 2.571341 1_555
Ca2 O27 2.580048 1_445
Ca2 O9 2.609367 1_555
Ca2 O18 2.843563 1_545
Ca3 O23 2.335229 1_555
Ca3 O17 2.407293 1_555
Ca3 O6 2.423028 1_565
Ca3 O7 2.491514 1_655
Ca3 O29 2.569287 1_655
Ca3 O11 2.571341 1_555
Ca3 O26 2.580048 1_665
Ca3 O8 2.609367 1_555
Ca3 O19 2.843563 1_565
Ca4 O25 2.338142 1_655
Ca4 O29 2.390059 1_655
Ca4 O12 2.426573 1_655
Ca4 O14 2.441336 1_555
Ca4 O4 2.461578 1_655
Ca4 O8 2.528403 1_555
Ca4 O2 2.572893 1_555
Ca5 O24 2.338142 1_455
Ca5 O28 2.390059 1_455
Ca5 O13 2.426573 1_455
Ca5 O15 2.441336 1_555
Ca5 O5 2.461578 1_455
Ca5 O9 2.528403 1_555
Ca5 O3 2.572893 1_555
Ca6 O26 2.311820 1_555
Ca6 O21 2.424212 1_555
Ca6 O14 2.440109 1_455
Ca6 O29 2.497014 1_545
Ca6 O4 2.518466 1_555
Ca6 O1 2.559740 1_445
Ca6 O17 2.666945 1_445
Ca6 O0 2.685864 1_554
Ca6 O19 2.995617 1_555
Ca7 O27 2.311820 1_555
Ca7 O20 2.424212 1_555
Ca7 O15 2.440109 1_655
Ca7 O28 2.497014 1_565
Ca7 O5 2.518466 1_555
Ca7 O0 2.559740 1_665
Ca7 O16 2.666945 1_665
Ca7 O1 2.685864 1_556
Ca7 O18 2.995617 1_555
Ca8 O2 2.406394 1_556
Ca8 O0 2.418982 1_555
Ca8 O16 2.420336 1_555
Ca8 O21 2.440746 1_556
Ca8 O24 2.483869 1_555
Ca8 O3 2.497857 1_555
Ca8 O14 2.572491 1_556
Ca8 O20 2.669889 1_545
Ca9 O3 2.406394 1_554
Ca9 O1 2.418982 1_555
Ca9 O17 2.420336 1_555
Ca9 O20 2.440746 1_554
Ca9 O25 2.483869 1_555
Ca9 O2 2.497857 1_555
Ca9 O15 2.572491 1_554
Ca9 O21 2.669889 1_565
C0 O4 1.276369 1_555
C0 O8 1.304947 1_555
C0 O2 1.321781 1_555
C1 O5 1.276369 1_555
C1 O9 1.304947 1_555
C1 O3 1.321781 1_555
C2 O26 1.277736 1_555
C2 O10 1.304489 1_555
C2 O12 1.308352 1_555
C3 O27 1.277736 1_555
C3 O11 1.304489 1_555
C3 O13 1.308352 1_555
C4 O24 1.286074 1_555
C4 O0 1.298825 1_655
C4 O14 1.311747 1_556
C5 O25 1.286074 1_555
C5 O1 1.298825 1_455
C5 O15 1.311747 1_554
C6 O18 1.278757 1_555
C6 O16 1.309678 1_565
C6 O20 1.314498 1_555
C7 O19 1.278757 1_555
C7 O17 1.309678 1_545
C7 O21 1.314498 1_555
C8 O22 1.279103 1_555
C8 O28 1.307220 1_555
C8 O6 1.307520 1_555
C9 O23 1.279103 1_555
C9 O29 1.307220 1_555
C9 O7 1.307520 1_555
