# generated using pymatgen
data_Tb2EuS4
_symmetry_space_group_name_H-M   'P 1'
_cell_length_a   7.32975254
_cell_length_b   7.32974831
_cell_length_c   7.32974201
_cell_angle_alpha   109.27776174
_cell_angle_beta   109.27768409
_cell_angle_gamma   109.85868329
_symmetry_Int_Tables_number   1
_chemical_formula_structural   Tb2EuS4
_chemical_formula_sum   'Tb4 Eu2 S8'
_cell_volume   303.13179273
_cell_formula_units_Z   2
loop_
 _symmetry_equiv_pos_site_id
 _symmetry_equiv_pos_as_xyz
  1  'x, y, z'
loop_
 _atom_site_type_symbol
 _atom_site_label
 _atom_site_symmetry_multiplicity
 _atom_site_fract_x
 _atom_site_fract_y
 _atom_site_fract_z
 _atom_site_occupancy
  Tb  Tb0  1  0.50019806  0.87499946  0.12519865  1
  Tb  Tb1  1  0.12500171  0.25019869  0.62519735  1
  Tb  Tb2  1  0.74980072  0.37499906  0.87480256  1
  Tb  Tb3  1  0.62499985  0.49980332  0.37480288  1
  Eu  Eu0  1  0.25000138  0.75000158  0.49999949  1
  Eu  Eu1  1  0.00000023  0.00000011  -0.00000048  1
  S  S0  1  0.01146533  0.61347500  0.74771001  1
  S  S1  1  0.51375727  0.61576714  0.75229123  1
  S  S2  1  0.23853520  0.48624299  0.10201046  1
  S  S3  1  0.38652299  0.13423382  0.39799024  1
  S  S4  1  0.86347572  0.76146585  0.24770776  1
  S  S5  1  0.38423195  0.13652364  0.89799001  1
  S  S6  1  0.73624379  0.98853424  0.60201021  1
  S  S7  1  0.86576579  0.26375511  0.25228963  1
loop_
_geom_bond_atom_site_label_1
_geom_bond_atom_site_label_2
_geom_bond_distance
_geom_bond_site_symmetry_2
Eu0 S2 2.873728 1_555
Eu0 S5 2.873735 1_565
Eu0 S1 2.873739 1_555
Eu0 S4 2.873739 1_455
Eu0 S3 3.076012 1_565
Eu0 S6 3.076023 1_555
Eu0 S0 3.076046 1_555
Eu0 S7 3.076054 1_455
Eu1 S7 2.873726 1_455
Eu1 S6 2.873729 1_444
Eu1 S0 2.873731 1_544
Eu1 S3 2.873734 1_555
Eu1 S5 3.076012 1_554
Eu1 S4 3.076018 1_445
Eu1 S2 3.076024 1_555
Eu1 S1 3.076033 1_444
S0 Tb2 2.752977 1_455
S0 Tb3 2.823069 1_455
S0 Tb1 3.001520 1_555
S0 Tb0 3.074215 1_556
S1 Tb1 2.752974 1_555
S1 Tb0 2.823059 1_556
S1 Tb2 3.001519 1_555
S1 Tb3 3.074192 1_555
S2 Tb0 2.752974 1_555
S2 Tb3 2.823051 1_555
S2 Tb1 3.001527 1_554
S2 Tb2 3.074222 1_454
S3 Tb3 2.752981 1_555
S3 Tb0 2.823066 1_545
S3 Tb2 3.001529 1_555
S3 Tb1 3.074177 1_555
S4 Tb3 2.752982 1_555
S4 Tb2 2.823055 1_554
S4 Tb0 3.001515 1_555
S4 Tb1 3.074213 1_665
S5 Tb2 2.752975 1_555
S5 Tb1 2.823057 1_555
S5 Tb3 3.001532 1_556
S5 Tb0 3.074207 1_546
S6 Tb1 2.752991 1_665
S6 Tb2 2.823062 1_565
S6 Tb0 3.001517 1_555
S6 Tb3 3.074195 1_555
S7 Tb0 2.752978 1_545
S7 Tb1 2.823061 1_655
S7 Tb3 3.001532 1_555
S7 Tb2 3.074192 1_554
