# generated using pymatgen
data_Tb(Al5Ru)2
_symmetry_space_group_name_H-M   'P 1'
_cell_length_a   6.80990836
_cell_length_b   6.80990836
_cell_length_c   9.08028384
_cell_angle_alpha   90.00000000
_cell_angle_beta   90.00000000
_cell_angle_gamma   97.00593697
_symmetry_Int_Tables_number   1
_chemical_formula_structural   Tb(Al5Ru)2
_chemical_formula_sum   'Tb2 Al20 Ru4'
_cell_volume   417.95270578
_cell_formula_units_Z   2
loop_
 _symmetry_equiv_pos_site_id
 _symmetry_equiv_pos_as_xyz
  1  'x, y, z'
loop_
 _atom_site_type_symbol
 _atom_site_label
 _atom_site_symmetry_multiplicity
 _atom_site_fract_x
 _atom_site_fract_y
 _atom_site_fract_z
 _atom_site_occupancy
  Tb  Tb0  1  0.87343863  0.12656137  0.75000000  1
  Tb  Tb1  1  0.12656137  0.87343863  0.25000000  1
  Al  Al0  1  0.62331661  0.37668339  0.55008344  1
  Al  Al1  1  0.37668339  0.62331661  0.44991656  1
  Al  Al2  1  0.37668339  0.62331661  0.05008344  1
  Al  Al3  1  0.62331661  0.37668339  0.94991656  1
  Al  Al4  1  0.22690549  0.22690549  0.50000000  1
  Al  Al5  1  0.77309451  0.77309451  0.50000000  1
  Al  Al6  1  0.77309451  0.77309451  0.00000000  1
  Al  Al7  1  0.22690549  0.22690549  0.00000000  1
  Al  Al8  1  0.84171149  0.15828851  0.10053894  1
  Al  Al9  1  0.15828851  0.84171149  0.89946106  1
  Al  Al10  1  0.15828851  0.84171149  0.60053894  1
  Al  Al11  1  0.84171149  0.15828851  0.39946106  1
  Al  Al12  1  0.86004750  0.58945256  0.75000000  1
  Al  Al13  1  0.13995250  0.41054744  0.25000000  1
  Al  Al14  1  0.41054744  0.13995250  0.75000000  1
  Al  Al15  1  0.58945256  0.86004750  0.25000000  1
  Al  Al16  1  0.21928108  0.48105570  0.75000000  1
  Al  Al17  1  0.78071892  0.51894430  0.25000000  1
  Al  Al18  1  0.51894430  0.78071892  0.75000000  1
  Al  Al19  1  0.48105570  0.21928108  0.25000000  1
  Ru  Ru0  1  0.00000000  0.50000000  0.50000000  1
  Ru  Ru1  1  0.00000000  0.50000000  0.00000000  1
  Ru  Ru2  1  0.50000000  -0.00000000  0.00000000  1
  Ru  Ru3  1  0.50000000  -0.00000000  0.50000000  1
loop_
_geom_bond_atom_site_label_1
_geom_bond_atom_site_label_2
_geom_bond_distance
_geom_bond_site_symmetry_2
Al0 Al11 2.614190 1_555
Al0 Ru0 2.639448 1_655
Al0 Ru3 2.639448 1_555
Al0 Al1 2.675291 1_555
Al0 Al12 2.724671 1_555
Al0 Al14 2.724671 1_555
Al0 Al4 2.804087 1_555
Al0 Al5 2.804087 1_555
Al0 Al17 3.042852 1_555
Al0 Al19 3.042852 1_555
Al0 Tb0 3.131385 1_555
Al1 Al10 2.614190 1_555
Al1 Ru3 2.639448 1_565
Al1 Ru0 2.639448 1_555
Al1 Al15 2.724671 1_555
Al1 Al13 2.724671 1_555
Al1 Al4 2.804087 1_555
Al1 Al5 2.804087 1_555
Al1 Al18 3.042852 1_555
Al1 Al16 3.042852 1_555
Al1 Tb1 3.131385 1_555
Al2 Al9 2.614190 1_554
Al2 Ru2 2.639448 1_565
Al2 Ru1 2.639448 1_555
Al2 Al3 2.675291 1_554
Al2 Al7 2.804087 1_555
Al2 Al6 2.804087 1_555
Al2 Tb1 3.131385 1_555
Al3 Al8 2.614190 1_556
Al3 Ru1 2.639448 1_656
Al3 Ru2 2.639448 1_556
Al3 Al7 2.804087 1_556
Al3 Al6 2.804087 1_556
Al3 Tb0 3.131385 1_555
Al4 Ru0 2.558778 1_555
Al4 Ru3 2.558778 1_555
Al4 Tb0 3.318575 1_455
Al4 Tb1 3.318575 1_545
Al5 Ru0 2.558778 1_655
Al5 Ru3 2.558778 1_565
Al5 Tb0 3.318575 1_565
Al5 Tb1 3.318575 1_655
Al6 Ru2 2.558778 1_565
Al6 Ru1 2.558778 1_655
Al6 Al9 2.762898 1_654
Al6 Al8 2.762898 1_565
Al6 Tb0 3.318575 1_564
Al6 Tb1 3.318575 1_655
Al7 Ru1 2.558778 1_555
Al7 Ru2 2.558778 1_555
Al7 Al9 2.762898 1_544
Al7 Al8 2.762898 1_455
Al7 Tb0 3.318575 1_454
Al7 Tb1 3.318575 1_545
Al8 Ru1 2.607393 1_655
Al8 Ru2 2.607393 1_555
Al8 Tb0 3.199405 1_554
Al8 Tb1 3.207091 1_645
Al9 Ru2 2.607393 1_566
Al9 Ru1 2.607393 1_556
Al9 Tb1 3.199405 1_556
Al9 Tb0 3.207091 1_465
Al10 Ru0 2.607393 1_555
Al10 Ru3 2.607393 1_565
Al10 Al9 2.714298 1_555
Al10 Al5 2.762898 1_455
Al10 Al4 2.762898 1_565
Al10 Al12 2.840197 1_455
Al10 Al14 2.840197 1_565
Al10 Al16 2.880160 1_555
Al10 Al18 2.880160 1_555
Al10 Tb1 3.199405 1_555
Al10 Tb0 3.207091 1_465
Al11 Ru3 2.607393 1_555
Al11 Ru0 2.607393 1_655
Al11 Al8 2.714298 1_555
Al11 Al4 2.762898 1_655
Al11 Al5 2.762898 1_545
Al11 Al13 2.840197 1_655
Al11 Al15 2.840197 1_545
Al11 Al17 2.880160 1_555
Al11 Al19 2.880160 1_555
Al11 Tb0 3.199405 1_555
Al11 Tb1 3.207091 1_645
Al12 Ru1 2.564032 1_656
Al12 Ru0 2.564032 1_655
Al12 Al16 2.640083 1_655
Al12 Al6 2.692297 1_556
Al12 Al5 2.692297 1_555
Al12 Al3 2.724671 1_555
Al12 Al18 2.798280 1_555
Al12 Al9 2.840197 1_655
Al12 Tb0 3.164664 1_555
Al12 Tb0 3.647662 1_565
Al13 Ru0 2.564032 1_555
Al13 Ru1 2.564032 1_555
Al13 Al17 2.640083 1_455
Al13 Al7 2.692297 1_555
Al13 Al4 2.692297 1_555
Al13 Al2 2.724671 1_555
Al13 Al19 2.798280 1_555
Al13 Al8 2.840197 1_455
Al13 Tb1 3.164664 1_555
Al13 Tb1 3.647662 1_545
Al14 Ru2 2.564032 1_556
Al14 Ru3 2.564032 1_555
Al14 Al18 2.640083 1_545
Al14 Al7 2.692297 1_556
Al14 Al4 2.692297 1_555
Al14 Al3 2.724671 1_555
Al14 Al16 2.798280 1_555
Al14 Al9 2.840197 1_545
Al14 Tb0 3.164664 1_555
Al14 Tb0 3.647662 1_455
Al15 Ru3 2.564032 1_565
Al15 Ru2 2.564032 1_565
Al15 Al19 2.640083 1_565
Al15 Al6 2.692297 1_555
Al15 Al5 2.692297 1_555
Al15 Al2 2.724671 1_555
Al15 Al17 2.798280 1_555
Al15 Al8 2.840197 1_565
Al15 Tb1 3.164664 1_555
Al15 Tb1 3.647662 1_655
Al16 Al18 2.704231 1_555
Al16 Ru1 2.728875 1_556
Al16 Ru0 2.728875 1_555
Al16 Al7 2.858898 1_556
Al16 Al4 2.858898 1_555
Al16 Al9 2.880160 1_555
Al16 Al2 3.042852 1_556
Al16 Tb0 3.160310 1_455
Al17 Al19 2.704231 1_555
Al17 Ru1 2.728875 1_655
Al17 Ru0 2.728875 1_655
Al17 Al5 2.858898 1_555
Al17 Al6 2.858898 1_555
Al17 Al8 2.880160 1_555
Al17 Al3 3.042852 1_554
Al17 Tb1 3.160310 1_655
Al18 Ru2 2.728875 1_566
Al18 Ru3 2.728875 1_565
Al18 Al5 2.858898 1_555
Al18 Al6 2.858898 1_556
Al18 Al9 2.880160 1_555
Al18 Al2 3.042852 1_556
Al18 Tb0 3.160310 1_565
Al19 Ru3 2.728875 1_555
Al19 Ru2 2.728875 1_555
Al19 Al7 2.858898 1_555
Al19 Al4 2.858898 1_555
Al19 Al8 2.880160 1_555
Al19 Al3 3.042852 1_554
Al19 Tb1 3.160310 1_545
Ru0 Tb0 3.439278 1_455
Ru0 Tb1 3.439278 1_555
Ru1 Tb0 3.439278 1_454
Ru1 Tb1 3.439278 1_555
Ru2 Tb1 3.439278 1_545
Ru2 Tb0 3.439278 1_554
Ru3 Tb1 3.439278 1_545
Ru3 Tb0 3.439278 1_555
