# generated using pymatgen
data_LiNiO2
_symmetry_space_group_name_H-M   'P 1'
_cell_length_a   5.73173224
_cell_length_b   5.73933631
_cell_length_c   5.81088951
_cell_angle_alpha   119.97094624
_cell_angle_beta   60.07354650
_cell_angle_gamma   90.65160043
_symmetry_Int_Tables_number   1
_chemical_formula_structural   LiNiO2
_chemical_formula_sum   'Li4 Ni4 O8'
_cell_volume   136.12324803
_cell_formula_units_Z   4
loop_
 _symmetry_equiv_pos_site_id
 _symmetry_equiv_pos_as_xyz
  1  'x, y, z'
loop_
 _atom_site_type_symbol
 _atom_site_label
 _atom_site_symmetry_multiplicity
 _atom_site_fract_x
 _atom_site_fract_y
 _atom_site_fract_z
 _atom_site_occupancy
  Li  Li0  1  0.50000000  0.00000000  0.00000000  1
  Li  Li1  1  0.00000000  0.50000000  0.00000000  1
  Li  Li2  1  0.50000000  0.00000000  0.50000000  1
  Li  Li3  1  0.00000000  0.00000000  0.50000000  1
  Ni  Ni0  1  0.50000100  0.50000000  0.50000000  1
  Ni  Ni1  1  0.00000000  0.00000000  0.00000000  1
  Ni  Ni2  1  0.50000000  0.50000000  0.00000000  1
  Ni  Ni3  1  0.00000200  0.50000000  0.50000000  1
  O  O0  1  0.75391600  0.72145300  0.49993800  1
  O  O1  1  0.24608300  0.27854700  0.50006200  1
  O  O2  1  0.22840200  0.74175400  0.49947400  1
  O  O3  1  0.77159700  0.25824600  0.50052600  1
  O  O4  1  0.73185500  0.26807100  0.03691800  1
  O  O5  1  0.22998300  0.26956600  0.03965100  1
  O  O6  1  0.26814500  0.73192900  0.96308200  1
  O  O7  1  0.77001600  0.73043400  0.96034900  1
loop_
_geom_bond_atom_site_label_1
_geom_bond_atom_site_label_2
_geom_bond_distance
_geom_bond_site_symmetry_2
Li0 O6 2.021731 1_544
Li0 O4 2.021731 1_555
Li0 O7 2.045593 1_544
Li0 O5 2.045597 1_555
Li0 O0 2.075937 1_544
Li0 O1 2.075937 1_555
Li1 O4 2.022342 1_455
Li1 O6 2.022342 1_554
Li1 O5 2.046217 1_555
Li1 O7 2.046221 1_454
Li1 O0 2.075480 1_455
Li1 O1 2.075480 1_554
Li2 O3 2.137272 1_555
Li2 O2 2.137276 1_545
Li2 O0 2.173870 1_545
Li2 O1 2.173873 1_555
Li2 O7 2.233192 1_544
Li2 O5 2.233192 1_556
Li3 O2 1.986522 1_545
Li3 O3 1.986526 1_455
Li3 O1 2.119874 1_555
Li3 O0 2.119878 1_445
Li3 O6 2.221883 1_544
Li3 O4 2.221883 1_456
Ni0 O4 1.916334 1_555
Ni0 O6 1.916334 1_555
Ni0 O0 1.921301 1_555
Ni0 O1 1.921313 1_555
Ni0 O3 2.099205 1_555
Ni0 O2 2.099218 1_555
Ni1 O5 2.021103 1_555
Ni1 O7 2.021107 1_444
Ni1 O4 2.042146 1_455
Ni1 O6 2.042146 1_544
Ni1 O3 2.075551 1_455
Ni1 O2 2.075552 1_544
Ni2 O7 2.024734 1_554
Ni2 O5 2.024738 1_555
Ni2 O6 2.047915 1_554
Ni2 O4 2.047915 1_555
Ni2 O3 2.071192 1_554
Ni2 O2 2.071192 1_555
Ni3 O2 1.896822 1_555
Ni3 O3 1.896841 1_455
Ni3 O7 1.905023 1_455
Ni3 O5 1.905023 1_555
Ni3 O1 1.909605 1_555
Ni3 O0 1.909626 1_455
