# generated using pymatgen
data_BaMg14W
_symmetry_space_group_name_H-M   'P 1'
_cell_length_a   6.53511104
_cell_length_b   6.45057357
_cell_length_c   10.34854530
_cell_angle_alpha   90.00000000
_cell_angle_beta   90.00000000
_cell_angle_gamma   119.57300458
_symmetry_Int_Tables_number   1
_chemical_formula_structural   BaMg14W
_chemical_formula_sum   'Ba1 Mg14 W1'
_cell_volume   379.41442670
_cell_formula_units_Z   1
loop_
 _symmetry_equiv_pos_site_id
 _symmetry_equiv_pos_as_xyz
  1  'x, y, z'
loop_
 _atom_site_type_symbol
 _atom_site_label
 _atom_site_symmetry_multiplicity
 _atom_site_fract_x
 _atom_site_fract_y
 _atom_site_fract_z
 _atom_site_occupancy
  Ba  Ba0  1  0.12994889  0.31497394  0.12500000  1
  Mg  Mg0  1  0.17258353  0.33629126  0.62500000  1
  Mg  Mg1  1  0.16404433  0.83202167  0.62500000  1
  Mg  Mg2  1  0.63937377  0.31720116  0.12500000  1
  Mg  Mg3  1  0.66238181  0.33887425  0.62500000  1
  Mg  Mg4  1  0.63937377  0.82217161  0.12500000  1
  Mg  Mg5  1  0.66238181  0.82350656  0.62500000  1
  Mg  Mg6  1  0.34002496  0.15599877  0.37870603  1
  Mg  Mg7  1  0.34002496  0.15599877  0.87129397  1
  Mg  Mg8  1  0.34002496  0.68402719  0.37870603  1
  Mg  Mg9  1  0.34002496  0.68402719  0.87129397  1
  Mg  Mg10  1  0.82410433  0.16205266  0.39801909  1
  Mg  Mg11  1  0.82410433  0.16205266  0.85198091  1
  Mg  Mg12  1  0.86024538  0.68012319  0.35478502  1
  Mg  Mg13  1  0.86024538  0.68012319  0.89521498  1
  W  W0  1  0.20111284  0.85055592  0.12500000  1
loop_
_geom_bond_atom_site_label_1
_geom_bond_atom_site_label_2
_geom_bond_distance
_geom_bond_site_symmetry_2
Ba0 Mg4 3.213077 1_445
Ba0 Mg2 3.213078 1_455
Ba0 W0 3.250550 1_555
Ba0 W0 3.250550 1_545
Ba0 Mg11 3.317297 1_454
Ba0 Mg10 3.317297 1_455
Ba0 Mg4 3.322081 1_555
Ba0 Mg2 3.322081 1_555
Ba0 Mg7 3.349510 1_554
Ba0 Mg6 3.349510 1_555
Ba0 Mg9 3.349516 1_554
Ba0 Mg8 3.349516 1_555
Mg0 Mg11 3.072541 1_455
Mg0 Mg10 3.072541 1_455
Mg0 Mg5 3.192696 1_555
Mg0 Mg3 3.192696 1_555
Mg0 Mg7 3.209730 1_555
Mg0 Mg6 3.209730 1_555
Mg0 Mg8 3.209736 1_555
Mg0 Mg9 3.209736 1_555
Mg0 Mg1 3.225652 1_545
Mg0 Mg1 3.225652 1_555
Mg0 Mg5 3.342479 1_445
Mg0 Mg3 3.342479 1_455
Mg1 Mg9 3.132726 1_555
Mg1 Mg8 3.132726 1_555
Mg1 Mg7 3.132732 1_565
Mg1 Mg6 3.132732 1_565
Mg1 Mg3 3.251663 1_455
Mg1 Mg5 3.251663 1_455
Mg1 Mg3 3.284146 1_565
Mg1 Mg5 3.284147 1_555
Mg1 Mg13 3.286494 1_455
Mg1 Mg12 3.286494 1_455
Mg2 W0 2.958735 1_545
Mg2 Mg6 3.129469 1_555
Mg2 Mg7 3.129469 1_554
Mg2 Mg4 3.193225 1_545
Mg2 Mg4 3.257349 1_555
Mg2 W0 3.584203 1_655
Mg3 Mg5 3.126156 1_555
Mg3 Mg6 3.142109 1_555
Mg3 Mg7 3.142109 1_555
Mg3 Mg5 3.324417 1_545
Mg4 W0 2.958736 1_555
Mg4 Mg9 3.129470 1_554
Mg4 Mg8 3.129470 1_555
Mg4 W0 3.584203 1_655
Mg5 Mg9 3.142110 1_555
Mg5 Mg8 3.142110 1_555
Mg6 Mg8 3.044487 1_545
Mg6 W0 3.135891 1_545
Mg6 Mg8 3.406086 1_555
Mg7 Mg9 3.044487 1_545
Mg7 W0 3.135891 1_546
Mg7 Mg9 3.406086 1_555
Mg8 W0 3.135885 1_555
Mg9 W0 3.135885 1_556
Mg10 Mg3 3.020806 1_555
Mg10 Mg5 3.020813 1_545
Mg10 Mg8 3.150768 1_545
Mg10 Mg6 3.150768 1_555
Mg10 Mg12 3.262644 1_545
Mg10 Mg12 3.262644 1_555
Mg10 Mg8 3.396926 1_655
Mg10 Mg6 3.396926 1_655
Mg10 Mg2 3.410892 1_555
Mg10 Mg4 3.410898 1_545
Mg11 Mg3 3.020806 1_555
Mg11 Mg5 3.020813 1_545
Mg11 Mg9 3.150768 1_545
Mg11 Mg7 3.150768 1_555
Mg11 Mg13 3.262644 1_545
Mg11 Mg13 3.262644 1_555
Mg11 Mg9 3.396926 1_655
Mg11 Mg7 3.396926 1_655
Mg11 Mg2 3.410892 1_556
Mg11 Mg4 3.410898 1_546
Mg12 W0 3.067273 1_655
Mg12 Mg6 3.132856 1_665
Mg12 Mg8 3.132856 1_655
Mg12 Mg4 3.143747 1_555
Mg12 Mg2 3.143754 1_555
Mg12 Mg5 3.395205 1_555
Mg12 Mg3 3.395210 1_555
Mg12 Mg6 3.421165 1_555
Mg12 Mg8 3.421165 1_555
Mg13 W0 3.067273 1_656
Mg13 Mg7 3.132856 1_665
Mg13 Mg9 3.132856 1_655
Mg13 Mg4 3.143747 1_556
Mg13 Mg2 3.143754 1_556
Mg13 Mg5 3.395205 1_555
Mg13 Mg3 3.395210 1_555
Mg13 Mg7 3.421165 1_555
Mg13 Mg9 3.421165 1_555
