# generated using pymatgen
data_W2SeS3
_symmetry_space_group_name_H-M   'P 1'
_cell_length_a   3.21513594
_cell_length_b   3.21513595
_cell_length_c   35.20713084
_cell_angle_alpha   89.99988508
_cell_angle_beta   90.00006144
_cell_angle_gamma   119.99997694
_symmetry_Int_Tables_number   1
_chemical_formula_structural   W2SeS3
_chemical_formula_sum   'W4 Se2 S6'
_cell_volume   315.18101492
_cell_formula_units_Z   2
loop_
 _symmetry_equiv_pos_site_id
 _symmetry_equiv_pos_as_xyz
  1  'x, y, z'
loop_
 _atom_site_type_symbol
 _atom_site_label
 _atom_site_symmetry_multiplicity
 _atom_site_fract_x
 _atom_site_fract_y
 _atom_site_fract_z
 _atom_site_occupancy
  W  W0  1  0.33332784  0.66667149  0.09382640  1
  W  W1  1  0.33333796  0.66666262  0.46976240  1
  W  W2  1  0.66666752  0.33333447  0.27997443  1
  W  W3  1  0.66666535  0.33333229  0.65935033  1
  Se  Se0  1  0.66667392  0.33332897  0.42147430  1
  Se  Se1  1  0.66667389  0.33332536  0.51808154  1
  S  S0  1  0.33333446  0.66666720  0.32397054  1
  S  S1  1  0.33333211  0.66666448  0.70332508  1
  S  S2  1  0.66666034  0.33334013  0.04984140  1
  S  S3  1  0.66666029  0.33333820  0.13782877  1
  S  S4  1  0.33333439  0.66666841  0.23596648  1
  S  S5  1  0.33333194  0.66666636  0.61534733  1
loop_
_geom_bond_atom_site_label_1
_geom_bond_atom_site_label_2
_geom_bond_distance
_geom_bond_site_symmetry_2
Se0 W1 2.517134 1_655
Se0 W1 2.517137 1_545
Se0 W1 2.517147 1_555
Se1 W1 2.517872 1_545
Se1 W1 2.517873 1_655
Se1 W1 2.517889 1_555
S0 W2 2.417649 1_565
S0 W2 2.417650 1_555
S0 W2 2.417650 1_455
S1 W3 2.417167 1_555
S1 W3 2.417168 1_455
S1 W3 2.417168 1_565
S2 W0 2.417395 1_555
S2 W0 2.417401 1_655
S2 W0 2.417401 1_545
S3 W0 2.417786 1_555
S3 W0 2.417793 1_655
S3 W0 2.417793 1_545
S4 W2 2.417915 1_555
S4 W2 2.417917 1_455
S4 W2 2.417918 1_565
S5 W3 2.417804 1_555
S5 W3 2.417805 1_455
S5 W3 2.417806 1_565
