# generated using pymatgen
data_Li5FeO4
_symmetry_space_group_name_H-M   'P 1'
_cell_length_a   9.06335862
_cell_length_b   9.10340278
_cell_length_c   9.11419535
_cell_angle_alpha   90.00000000
_cell_angle_beta   90.00000000
_cell_angle_gamma   90.00000000
_symmetry_Int_Tables_number   1
_chemical_formula_structural   Li5FeO4
_chemical_formula_sum   'Li40 Fe8 O32'
_cell_volume   751.98859840
_cell_formula_units_Z   8
loop_
 _symmetry_equiv_pos_site_id
 _symmetry_equiv_pos_as_xyz
  1  'x, y, z'
loop_
 _atom_site_type_symbol
 _atom_site_label
 _atom_site_symmetry_multiplicity
 _atom_site_fract_x
 _atom_site_fract_y
 _atom_site_fract_z
 _atom_site_occupancy
  Li  Li0  1  0.10402421  0.61842475  0.15539383  1
  Li  Li1  1  0.60402421  0.38157525  0.34460617  1
  Li  Li2  1  0.39597579  0.11842475  0.84460617  1
  Li  Li3  1  0.89597579  0.88157525  0.65539383  1
  Li  Li4  1  0.89597579  0.38157525  0.84460617  1
  Li  Li5  1  0.39597579  0.61842475  0.65539383  1
  Li  Li6  1  0.60402421  0.88157525  0.15539383  1
  Li  Li7  1  0.10402421  0.11842475  0.34460617  1
  Li  Li8  1  0.16138469  0.38974477  0.38134791  1
  Li  Li9  1  0.66138469  0.61025523  0.11865209  1
  Li  Li10  1  0.33861531  0.88974477  0.61865209  1
  Li  Li11  1  0.83861531  0.11025523  0.88134791  1
  Li  Li12  1  0.83861531  0.61025523  0.61865209  1
  Li  Li13  1  0.33861531  0.38974477  0.88134791  1
  Li  Li14  1  0.66138469  0.11025523  0.38134791  1
  Li  Li15  1  0.16138469  0.88974477  0.11865209  1
  Li  Li16  1  0.89285716  0.62702554  0.35303173  1
  Li  Li17  1  0.39285716  0.37297446  0.14696827  1
  Li  Li18  1  0.60714284  0.12702554  0.64696827  1
  Li  Li19  1  0.87546878  0.64663443  0.88066906  1
  Li  Li20  1  0.10714284  0.37297446  0.64696827  1
  Li  Li21  1  0.60714284  0.62702554  0.85303173  1
  Li  Li22  1  0.39285716  0.87297446  0.35303173  1
  Li  Li23  1  0.89285716  0.12702554  0.14696827  1
  Li  Li24  1  0.85652072  0.38860756  0.10779227  1
  Li  Li25  1  0.35652072  0.61139244  0.39220773  1
  Li  Li26  1  0.64347928  0.88860756  0.89220773  1
  Li  Li27  1  0.14347928  0.11139244  0.60779227  1
  Li  Li28  1  0.14347928  0.61139244  0.89220773  1
  Li  Li29  1  0.64347928  0.38860756  0.60779227  1
  Li  Li30  1  0.35652072  0.11139244  0.10779227  1
  Li  Li31  1  0.85652072  0.88860756  0.39220773  1
  Li  Li32  1  0.87546878  0.14663443  0.61933094  1
  Li  Li33  1  0.37546878  0.85336557  0.88066906  1
  Li  Li34  1  0.62453122  0.64663443  0.38066906  1
  Li  Li35  1  0.12453122  0.35336557  0.11933094  1
  Li  Li36  1  0.12453122  0.85336557  0.38066906  1
  Li  Li37  1  0.62453122  0.14663443  0.11933094  1
  Li  Li38  1  0.37546878  0.35336557  0.61933094  1
  Li  Li39  1  0.10714284  0.87297446  0.85303173  1
  Fe  Fe0  1  0.88198382  0.35348997  0.38407862  1
  Fe  Fe1  1  0.38198382  0.64651003  0.11592138  1
  Fe  Fe2  1  0.61801618  0.85348997  0.61592138  1
  Fe  Fe3  1  0.11801618  0.14651003  0.88407862  1
  Fe  Fe4  1  0.11801618  0.64651003  0.61592138  1
  Fe  Fe5  1  0.61801618  0.35348997  0.88407862  1
  Fe  Fe6  1  0.38198382  0.14651003  0.38407862  1
  Fe  Fe7  1  0.88198382  0.85348997  0.11592138  1
  O  O0  1  0.75379662  0.49493791  0.46625333  1
  O  O1  1  0.25379662  0.50506209  0.03374667  1
  O  O2  1  0.74620338  0.99493791  0.53374667  1
  O  O3  1  0.24620338  0.00506209  0.96625333  1
  O  O4  1  0.24620338  0.50506209  0.53374667  1
  O  O5  1  0.74620338  0.49493791  0.96625333  1
  O  O6  1  0.25379662  0.00506209  0.46625333  1
  O  O7  1  0.75379662  0.99493791  0.03374667  1
  O  O8  1  0.99960963  0.46796877  0.25587333  1
  O  O9  1  0.49960963  0.53203123  0.24412667  1
  O  O10  1  0.50039037  0.96796877  0.74412667  1
  O  O11  1  0.00039037  0.03203123  0.75587333  1
  O  O12  1  0.00039037  0.53203123  0.74412667  1
  O  O13  1  0.50039037  0.46796877  0.75587333  1
  O  O14  1  0.49960963  0.03203123  0.25587333  1
  O  O15  1  0.99960963  0.96796877  0.24412667  1
  O  O16  1  0.75791687  0.25169810  0.25294167  1
  O  O17  1  0.25791687  0.74830190  0.24705833  1
  O  O18  1  0.74208313  0.75169810  0.74705833  1
  O  O19  1  0.24208313  0.24830190  0.75294167  1
  O  O20  1  0.01875476  0.74873301  0.00353827  1
  O  O21  1  0.74208313  0.25169810  0.75294167  1
  O  O22  1  0.25791687  0.24830190  0.25294167  1
  O  O23  1  0.75791687  0.75169810  0.24705833  1
  O  O24  1  0.01875476  0.24873301  0.49646173  1
  O  O25  1  0.51875476  0.75126699  0.00353827  1
  O  O26  1  0.48124524  0.74873301  0.50353827  1
  O  O27  1  0.98124524  0.25126699  0.99646173  1
  O  O28  1  0.98124524  0.75126699  0.50353827  1
  O  O29  1  0.48124524  0.24873301  0.99646173  1
  O  O30  1  0.51875476  0.25126699  0.49646173  1
  O  O31  1  0.24208313  0.74830190  0.74705833  1
loop_
_geom_bond_atom_site_label_1
_geom_bond_atom_site_label_2
_geom_bond_distance
_geom_bond_site_symmetry_2
Li0 O8 1.900057 1_455
Li0 O20 1.979904 1_555
Li0 O17 2.010295 1_555
Li0 O1 2.033935 1_555
Li1 O9 1.900057 1_555
Li1 O30 1.979904 1_555
Li1 O16 2.010295 1_555
Li1 O0 2.033935 1_555
Li2 O10 1.900057 1_545
Li2 O29 1.979904 1_555
Li2 O19 2.010295 1_555
Li2 O3 2.033935 1_555
Li3 O11 1.900057 1_665
Li3 O28 1.979904 1_555
Li3 O18 2.010295 1_555
Li3 O2 2.033935 1_555
Li4 O12 1.900057 1_655
Li4 O27 1.979904 1_555
Li4 O21 2.010295 1_555
Li4 O5 2.033935 1_555
Li5 O13 1.900057 1_555
Li5 O26 1.979904 1_555
Li5 O31 2.010295 1_555
Li5 O4 2.033935 1_555
Li6 O14 1.900057 1_565
Li6 O25 1.979904 1_555
Li6 O23 2.010295 1_555
Li6 O7 2.033935 1_555
Li7 O15 1.900057 1_445
Li7 O24 1.979904 1_555
Li7 O22 2.010295 1_555
Li7 O6 2.033935 1_555
Li8 O4 1.903235 1_555
Li8 O22 1.947576 1_555
Li8 O8 1.991163 1_455
Li8 O24 2.102308 1_555
Li9 O5 1.903235 1_554
Li9 O23 1.947576 1_555
Li9 O9 1.991163 1_555
Li9 O25 2.102308 1_555
Li10 O6 1.903235 1_565
Li10 O31 1.947576 1_555
Li10 O10 1.991163 1_555
Li10 O26 2.102308 1_555
Li11 O7 1.903235 1_546
Li11 O21 1.947576 1_555
Li11 O11 1.991163 1_655
Li11 O27 2.102308 1_555
Li12 O0 1.903235 1_555
Li12 O18 1.947576 1_555
Li12 O12 1.991163 1_655
Li12 O28 2.102308 1_555
Li13 O1 1.903235 1_556
Li13 O19 1.947576 1_555
Li13 O13 1.991163 1_555
Li13 O29 2.102308 1_555
Li14 O2 1.903235 1_545
Li14 O16 1.947576 1_555
Li14 O14 1.991163 1_555
Li14 O30 2.102308 1_555
Li15 O3 1.903235 1_564
Li15 O17 1.947576 1_555
Li15 O15 1.991163 1_455
Li15 O20 2.102308 1_555
Li16 O23 1.927887 1_555
Li16 O28 1.950037 1_555
Li16 O8 1.953677 1_555
Li16 O0 2.024658 1_555
Li17 O22 1.927887 1_555
Li17 O29 1.950037 1_554
Li17 O9 1.953677 1_555
Li17 O1 2.024658 1_555
Li18 O21 1.927887 1_555
Li18 O30 1.950037 1_555
Li18 O10 1.953677 1_545
Li18 O2 2.024658 1_545
Li19 O20 1.950497 1_656
Li19 O18 1.964482 1_555
Li19 O5 1.971822 1_555
Li19 O12 1.979658 1_655
Li20 O19 1.927887 1_555
Li20 O24 1.950037 1_555
Li20 O12 1.953677 1_555
Li20 O4 2.024658 1_555
Li21 O18 1.927887 1_555
Li21 O25 1.950037 1_556
Li21 O13 1.953677 1_555
Li21 O5 2.024658 1_555
Li22 O17 1.927887 1_555
Li22 O26 1.950037 1_555
Li22 O14 1.953677 1_565
Li22 O6 2.024658 1_565
Li23 O16 1.927887 1_555
Li23 O27 1.950037 1_554
Li23 O15 1.953677 1_545
Li23 O7 2.024658 1_545
Li24 O5 1.897574 1_554
Li24 O27 1.967388 1_554
Li24 O8 2.006323 1_555
Li24 O16 2.025377 1_555
Li25 O4 1.897574 1_555
Li25 O26 1.967388 1_555
Li25 O9 2.006323 1_555
Li25 O17 2.025377 1_555
Li26 O7 1.897574 1_556
Li26 O25 1.967388 1_556
Li26 O10 2.006323 1_555
Li26 O18 2.025377 1_555
Li27 O6 1.897574 1_555
Li27 O24 1.967388 1_555
Li27 O11 2.006323 1_555
Li27 O19 2.025377 1_555
Li28 O1 1.897574 1_556
Li28 O20 1.967388 1_556
Li28 O12 2.006323 1_555
Li28 O31 2.025377 1_555
Li29 O0 1.897574 1_555
Li29 O30 1.967388 1_555
Li29 O13 2.006323 1_555
Li29 O21 2.025377 1_555
Li30 O3 1.897574 1_554
Li30 O29 1.967388 1_554
Li30 O14 2.006323 1_555
Li30 O22 2.025377 1_555
Li31 O2 1.897574 1_555
Li31 O28 1.967388 1_555
Li31 O15 2.006323 1_555
Li31 O23 2.025377 1_555
Li32 O24 1.950497 1_655
Li32 O21 1.964482 1_555
Li32 O2 1.971822 1_545
Li32 O11 1.979658 1_655
Li33 O25 1.950497 1_556
Li33 O31 1.964482 1_555
Li33 O3 1.971822 1_565
Li33 O10 1.979658 1_555
Li34 O26 1.950497 1_555
Li34 O23 1.964482 1_555
Li34 O0 1.971822 1_555
Li34 O9 1.979658 1_555
Li35 O27 1.950497 1_454
Li35 O22 1.964482 1_555
Li35 O1 1.971822 1_555
Li35 O8 1.979658 1_455
Li36 O28 1.950497 1_455
Li36 O17 1.964482 1_555
Li36 O6 1.971822 1_565
Li36 O15 1.979658 1_455
Li37 O29 1.950497 1_554
Li37 O16 1.964482 1_555
Li37 O7 1.971822 1_545
Li37 O14 1.979658 1_555
Li38 O30 1.950497 1_555
Li38 O19 1.964482 1_555
Li38 O4 1.971822 1_555
Li38 O13 1.979658 1_555
Li39 O31 1.927887 1_555
Li39 O20 1.950037 1_556
Li39 O11 1.953677 1_565
Li39 O3 2.024658 1_565
Fe0 O24 1.869548 1_655
Fe0 O16 1.884575 1_555
Fe0 O0 1.889125 1_555
Fe0 O8 1.894194 1_555
Fe1 O25 1.869548 1_555
Fe1 O17 1.884575 1_555
Fe1 O1 1.889125 1_555
Fe1 O9 1.894194 1_555
Fe2 O26 1.869548 1_555
Fe2 O18 1.884575 1_555
Fe2 O2 1.889125 1_555
Fe2 O10 1.894194 1_555
Fe3 O27 1.869548 1_455
Fe3 O19 1.884575 1_555
Fe3 O3 1.889125 1_555
Fe3 O11 1.894194 1_555
Fe4 O28 1.869548 1_455
Fe4 O31 1.884575 1_555
Fe4 O4 1.889125 1_555
Fe4 O12 1.894194 1_555
Fe5 O29 1.869548 1_555
Fe5 O21 1.884575 1_555
Fe5 O5 1.889125 1_555
Fe5 O13 1.894194 1_555
Fe6 O30 1.869548 1_555
Fe6 O22 1.884575 1_555
Fe6 O6 1.889125 1_555
Fe6 O14 1.894194 1_555
Fe7 O20 1.869548 1_655
Fe7 O23 1.884575 1_555
Fe7 O7 1.889125 1_555
Fe7 O15 1.894194 1_555
