# generated using pymatgen
data_Pr7Ir3
_symmetry_space_group_name_H-M   'P 1'
_cell_length_a   10.19604901
_cell_length_b   10.19604901
_cell_length_c   6.44724489
_cell_angle_alpha   90.00000000
_cell_angle_beta   90.00000000
_cell_angle_gamma   120.00000045
_symmetry_Int_Tables_number   1
_chemical_formula_structural   Pr7Ir3
_chemical_formula_sum   'Pr14 Ir6'
_cell_volume   580.45509149
_cell_formula_units_Z   2
loop_
 _symmetry_equiv_pos_site_id
 _symmetry_equiv_pos_as_xyz
  1  'x, y, z'
loop_
 _atom_site_type_symbol
 _atom_site_label
 _atom_site_symmetry_multiplicity
 _atom_site_fract_x
 _atom_site_fract_y
 _atom_site_fract_z
 _atom_site_occupancy
  Pr  Pr0  1  0.33333300  0.66666700  0.47603111  1
  Pr  Pr1  1  0.66666700  0.33333300  0.97603111  1
  Pr  Pr2  1  0.12641139  0.87358861  0.24510653  1
  Pr  Pr3  1  0.74717822  0.87358861  0.24510653  1
  Pr  Pr4  1  0.12641139  0.25282178  0.24510653  1
  Pr  Pr5  1  0.87358861  0.12641139  0.74510653  1
  Pr  Pr6  1  0.25282178  0.12641139  0.74510653  1
  Pr  Pr7  1  0.87358861  0.74717822  0.74510653  1
  Pr  Pr8  1  0.53894405  0.46105595  0.43686338  1
  Pr  Pr9  1  0.92211190  0.46105595  0.43686338  1
  Pr  Pr10  1  0.53894405  0.07788810  0.43686338  1
  Pr  Pr11  1  0.46105595  0.53894405  0.93686338  1
  Pr  Pr12  1  0.07788810  0.53894405  0.93686338  1
  Pr  Pr13  1  0.46105595  0.92211190  0.93686338  1
  Ir  Ir0  1  0.81255286  0.18744714  0.19303505  1
  Ir  Ir1  1  0.37489429  0.18744714  0.19303505  1
  Ir  Ir2  1  0.81255286  0.62510571  0.19303505  1
  Ir  Ir3  1  0.18744714  0.81255286  0.69303505  1
  Ir  Ir4  1  0.62510571  0.81255286  0.69303505  1
  Ir  Ir5  1  0.18744714  0.37489429  0.69303505  1
loop_
_geom_bond_atom_site_label_1
_geom_bond_atom_site_label_2
_geom_bond_distance
_geom_bond_site_symmetry_2
Ir0 Pr9 2.895749 1_555
Ir0 Pr10 2.895749 1_555
Ir0 Pr1 2.931727 1_554
Ir0 Pr4 2.943583 1_655
Ir0 Pr3 2.943583 1_545
Ir0 Pr5 3.082508 1_554
Ir1 Pr10 2.895749 1_555
Ir1 Pr8 2.895749 1_555
Ir1 Pr1 2.931735 1_554
Ir1 Pr4 2.943573 1_555
Ir1 Pr2 2.943580 1_545
Ir1 Pr6 3.082511 1_554
Ir2 Pr9 2.895749 1_555
Ir2 Pr8 2.895749 1_555
Ir2 Pr1 2.931735 1_554
Ir2 Pr3 2.943573 1_555
Ir2 Pr2 2.943580 1_655
Ir2 Pr7 3.082511 1_554
Ir3 Pr13 2.895749 1_555
Ir3 Pr12 2.895749 1_555
Ir3 Pr0 2.931727 1_555
Ir3 Pr6 2.943583 1_565
Ir3 Pr7 2.943583 1_455
Ir3 Pr2 3.082508 1_555
Ir4 Pr13 2.895749 1_555
Ir4 Pr11 2.895749 1_555
Ir4 Pr0 2.931735 1_555
Ir4 Pr7 2.943573 1_555
Ir4 Pr5 2.943580 1_565
Ir4 Pr3 3.082511 1_555
Ir5 Pr12 2.895749 1_555
Ir5 Pr11 2.895749 1_555
Ir5 Pr0 2.931735 1_555
Ir5 Pr6 2.943573 1_555
Ir5 Pr5 2.943580 1_455
Ir5 Pr4 3.082511 1_555
