# generated using pymatgen
data_HoSi3
_symmetry_space_group_name_H-M   'P 1'
_cell_length_a   7.41066003
_cell_length_b   7.41066003
_cell_length_c   7.41066003
_cell_angle_alpha   121.85128219
_cell_angle_beta   121.85128219
_cell_angle_gamma   86.82232005
_symmetry_Int_Tables_number   1
_chemical_formula_structural   HoSi3
_chemical_formula_sum   'Ho4 Si12'
_cell_volume   279.25688558
_cell_formula_units_Z   4
loop_
 _symmetry_equiv_pos_site_id
 _symmetry_equiv_pos_as_xyz
  1  'x, y, z'
loop_
 _atom_site_type_symbol
 _atom_site_label
 _atom_site_symmetry_multiplicity
 _atom_site_fract_x
 _atom_site_fract_y
 _atom_site_fract_z
 _atom_site_occupancy
  Ho  Ho0  1  0.82957100  0.82957100  0.00000000  1
  Ho  Ho1  1  0.17042900  0.17042900  0.00000000  1
  Ho  Ho2  1  0.25000000  0.75000000  0.50000000  1
  Ho  Ho3  1  0.75000000  0.25000000  0.50000000  1
  Si  Si0  1  0.32797400  0.00000000  0.32797400  1
  Si  Si1  1  0.67202600  0.00000000  0.67202600  1
  Si  Si2  1  0.00000000  0.67202600  0.67202600  1
  Si  Si3  1  0.00000000  0.32797400  0.32797400  1
  Si  Si4  1  0.19986200  0.19986200  0.62743300  1
  Si  Si5  1  0.57242900  0.57242900  0.37256700  1
  Si  Si6  1  0.19986200  0.57242900  0.00000000  1
  Si  Si7  1  0.57242900  0.19986200  0.00000000  1
  Si  Si8  1  0.80013800  0.80013800  0.37256700  1
  Si  Si9  1  0.42757100  0.42757100  0.62743300  1
  Si  Si10  1  0.80013800  0.42757100  0.00000000  1
  Si  Si11  1  0.42757100  0.80013800  0.00000000  1
loop_
_geom_bond_atom_site_label_1
_geom_bond_atom_site_label_2
_geom_bond_distance
_geom_bond_site_symmetry_2
Ho0 Si2 2.991159 1_654
Ho0 Si0 2.991159 1_665
Ho0 Si3 2.991159 1_665
Ho0 Si1 2.991159 1_564
Ho0 Si8 2.999094 1_555
Ho0 Si11 2.999094 1_555
Ho0 Si9 2.999094 1_554
Ho0 Si10 2.999094 1_555
Ho0 Si7 3.252943 1_565
Ho0 Si6 3.252943 1_655
Ho0 Si4 3.252943 1_665
Ho0 Si5 3.252943 1_554
Ho1 Si0 2.991159 1_555
Ho1 Si1 2.991159 1_454
Ho1 Si2 2.991159 1_544
Ho1 Si3 2.991159 1_555
Ho1 Si4 2.999094 1_554
Ho1 Si6 2.999094 1_555
Ho1 Si7 2.999094 1_555
Ho1 Si5 2.999094 1_555
Ho1 Si8 3.252943 1_444
Ho1 Si9 3.252943 1_555
Ho1 Si11 3.252943 1_545
Ho1 Si10 3.252943 1_455
Ho2 Si1 2.963167 1_565
Ho2 Si2 2.963167 1_555
Ho2 Si3 2.963167 1_555
Ho2 Si0 2.963167 1_565
Ho2 Si4 3.009007 1_565
Ho2 Si6 3.009007 1_555
Ho2 Si7 3.009007 1_566
Ho2 Si5 3.009007 1_555
Ho2 Si9 3.009007 1_555
Ho2 Si8 3.009007 1_455
Ho2 Si10 3.009007 1_455
Ho2 Si11 3.009007 1_556
Ho3 Si0 2.963167 1_555
Ho3 Si1 2.963167 1_555
Ho3 Si2 2.963167 1_655
Ho3 Si3 2.963167 1_655
Ho3 Si4 3.009007 1_655
Ho3 Si7 3.009007 1_555
Ho3 Si6 3.009007 1_656
Ho3 Si8 3.009007 1_545
Ho3 Si5 3.009007 1_555
Ho3 Si11 3.009007 1_545
Ho3 Si10 3.009007 1_556
Ho3 Si9 3.009007 1_555
Si0 Si1 2.477978 1_555
Si0 Si11 2.572655 1_545
Si0 Si9 2.572655 1_555
Si0 Si6 2.572655 1_545
Si0 Si4 2.572655 1_555
Si1 Si7 2.572655 1_556
Si1 Si5 2.572655 1_545
Si1 Si10 2.572655 1_556
Si1 Si8 2.572655 1_545
Si2 Si3 2.477978 1_555
Si2 Si5 2.572655 1_455
Si2 Si6 2.572655 1_556
Si2 Si8 2.572655 1_455
Si3 Si9 2.572655 1_555
Si3 Si7 2.572655 1_455
Si3 Si4 2.572655 1_555
Si4 Si9 2.451700 1_555
Si4 Si6 2.683353 1_556
Si4 Si7 2.683353 1_556
Si5 Si8 2.451700 1_555
Si5 Si7 2.683353 1_555
Si5 Si6 2.683353 1_555
Si10 Si7 2.451700 1_555
Si10 Si3 2.572655 1_655
Si10 Si8 2.683353 1_555
Si10 Si9 2.683353 1_554
Si11 Si6 2.451700 1_555
Si11 Si2 2.572655 1_554
Si11 Si9 2.683353 1_554
Si11 Si8 2.683353 1_555
