# generated using pymatgen
data_NdBMoO6
_symmetry_space_group_name_H-M   'P 1'
_cell_length_a   4.17410400
_cell_length_b   10.30134800
_cell_length_c   12.03834956
_cell_angle_alpha   63.19101727
_cell_angle_beta   90.00000000
_cell_angle_gamma   90.00000000
_symmetry_Int_Tables_number   1
_chemical_formula_structural   NdBMoO6
_chemical_formula_sum   'Nd4 B4 Mo4 O24'
_cell_volume   461.99774550
_cell_formula_units_Z   4
loop_
 _symmetry_equiv_pos_site_id
 _symmetry_equiv_pos_as_xyz
  1  'x, y, z'
loop_
 _atom_site_type_symbol
 _atom_site_label
 _atom_site_symmetry_multiplicity
 _atom_site_fract_x
 _atom_site_fract_y
 _atom_site_fract_z
 _atom_site_occupancy
  Nd  Nd0  1  0.70604400  0.80519700  0.02975800  1
  Nd  Nd1  1  0.20604400  0.19480300  0.47024200  1
  Nd  Nd2  1  0.29395600  0.19480300  0.97024200  1
  Nd  Nd3  1  0.79395600  0.80519700  0.52975800  1
  B  B0  1  0.82974600  0.00448000  0.19061300  1
  B  B1  1  0.32974600  0.99552000  0.30938700  1
  B  B2  1  0.17025400  0.99552000  0.80938700  1
  B  B3  1  0.67025400  0.00448000  0.69061300  1
  Mo  Mo0  1  0.79905500  0.35468400  0.18266600  1
  Mo  Mo1  1  0.29905500  0.64531600  0.31733400  1
  Mo  Mo2  1  0.20094500  0.64531600  0.81733400  1
  Mo  Mo3  1  0.70094500  0.35468400  0.68266600  1
  O  O0  1  0.15650800  0.03159900  0.19912200  1
  O  O1  1  0.65650800  0.96840100  0.30087800  1
  O  O2  1  0.84349200  0.96840100  0.80087800  1
  O  O3  1  0.34349200  0.03159900  0.69912200  1
  O  O4  1  0.72555900  0.00142700  0.08645600  1
  O  O5  1  0.22555900  0.99857300  0.41354400  1
  O  O6  1  0.27444100  0.99857300  0.91354400  1
  O  O7  1  0.77444100  0.00142700  0.58645600  1
  O  O8  1  0.22464300  0.33795400  0.19944200  1
  O  O9  1  0.72464300  0.66204600  0.30055800  1
  O  O10  1  0.77535700  0.66204600  0.80055800  1
  O  O11  1  0.27535700  0.33795400  0.69944200  1
  O  O12  1  0.21427900  0.74146500  0.14770100  1
  O  O13  1  0.71427900  0.25853500  0.35229900  1
  O  O14  1  0.78572100  0.25853500  0.85229900  1
  O  O15  1  0.28572100  0.74146500  0.64770100  1
  O  O16  1  0.72733900  0.54566800  0.10397200  1
  O  O17  1  0.22733900  0.45433200  0.39602800  1
  O  O18  1  0.27266100  0.45433200  0.89602800  1
  O  O19  1  0.77266100  0.54566800  0.60397200  1
  O  O20  1  0.71637800  0.25925100  0.09065900  1
  O  O21  1  0.21637800  0.74074900  0.40934100  1
  O  O22  1  0.28362200  0.74074900  0.90934100  1
  O  O23  1  0.78362200  0.25925100  0.59065900  1
loop_
_geom_bond_atom_site_label_1
_geom_bond_atom_site_label_2
_geom_bond_distance
_geom_bond_site_symmetry_2
Nd0 O16 2.408140 1_555
Nd0 O4 2.408997 1_565
Nd0 O12 2.412388 1_555
Nd0 O12 2.471148 1_655
Nd0 O22 2.553289 1_554
Nd0 O2 2.563010 1_554
Nd0 O6 2.580152 1_554
Nd0 O9 2.910625 1_555
Nd0 O6 3.006754 1_654
Nd0 O22 3.036872 1_654
Nd1 O17 2.408140 1_555
Nd1 O5 2.408997 1_545
Nd1 O13 2.412388 1_455
Nd1 O13 2.471148 1_555
Nd1 O23 2.553289 1_455
Nd1 O3 2.563010 1_555
Nd1 O7 2.580152 1_455
Nd1 O8 2.910625 1_555
Nd1 O7 3.006754 1_555
Nd1 O23 3.036872 1_555
Nd2 O18 2.408140 1_555
Nd2 O6 2.408997 1_545
Nd2 O14 2.412388 1_555
Nd2 O14 2.471148 1_455
Nd2 O20 2.553289 1_556
Nd2 O0 2.563010 1_556
Nd2 O4 2.580152 1_556
Nd2 O11 2.910625 1_555
Nd2 O4 3.006754 1_456
Nd2 O20 3.036872 1_456
Nd3 O19 2.408140 1_555
Nd3 O7 2.408997 1_565
Nd3 O15 2.412388 1_655
Nd3 O15 2.471148 1_555
Nd3 O21 2.553289 1_655
Nd3 O1 2.563010 1_555
Nd3 O5 2.580152 1_655
Nd3 O10 2.910625 1_555
Nd3 O5 3.006754 1_555
Nd3 O21 3.036872 1_555
B0 O4 1.340857 1_555
B0 O0 1.405232 1_655
B0 O1 1.406422 1_545
B1 O5 1.340857 1_555
B1 O1 1.405232 1_555
B1 O0 1.406422 1_565
B2 O6 1.340857 1_555
B2 O2 1.405232 1_455
B2 O3 1.406422 1_565
B3 O7 1.340857 1_555
B3 O3 1.405232 1_555
B3 O2 1.406422 1_545
Mo0 O16 1.782272 1_555
Mo0 O8 1.787418 1_655
Mo0 O20 1.815096 1_555
Mo0 O13 1.857939 1_555
Mo0 O8 2.405794 1_555
Mo1 O17 1.782272 1_555
Mo1 O9 1.787418 1_555
Mo1 O21 1.815096 1_555
Mo1 O12 1.857939 1_555
Mo1 O9 2.405794 1_455
Mo2 O18 1.782272 1_555
Mo2 O10 1.787418 1_455
Mo2 O22 1.815096 1_555
Mo2 O15 1.857939 1_555
Mo2 O10 2.405794 1_555
Mo3 O19 1.782272 1_555
Mo3 O11 1.787418 1_555
Mo3 O23 1.815096 1_555
Mo3 O14 1.857939 1_555
Mo3 O11 2.405794 1_655
