# generated using pymatgen
data_Eu3Ge5
_symmetry_space_group_name_H-M   'P 1'
_cell_length_a   15.17261871
_cell_length_b   15.17261387
_cell_length_c   25.79610960
_cell_angle_alpha   90.00000000
_cell_angle_beta   90.00000000
_cell_angle_gamma   107.52027437
_symmetry_Int_Tables_number   1
_chemical_formula_structural   Eu3Ge5
_chemical_formula_sum   'Eu6 Ge10'
_cell_volume   5662.99503086
_cell_formula_units_Z   2
loop_
 _symmetry_equiv_pos_site_id
 _symmetry_equiv_pos_as_xyz
  1  'x, y, z'
loop_
 _atom_site_type_symbol
 _atom_site_label
 _atom_site_symmetry_multiplicity
 _atom_site_fract_x
 _atom_site_fract_y
 _atom_site_fract_z
 _atom_site_occupancy
  Eu  Eu0  1  0.20393008  0.79606992  -0.00000000  1
  Eu  Eu1  1  0.65516032  0.65516032  0.25000000  1
  Eu  Eu2  1  0.20393008  0.79606992  0.50000000  1
  Eu  Eu3  1  0.79606992  0.20393008  -0.00000000  1
  Eu  Eu4  1  0.79606992  0.20393008  0.50000000  1
  Eu  Eu5  1  0.34483968  0.34483968  0.75000000  1
  Ge  Ge0  1  0.90851171  0.51247805  0.75000000  1
  Ge  Ge1  1  0.48752195  0.09148829  0.25000000  1
  Ge  Ge2  1  0.04420292  0.04420292  0.25000000  1
  Ge  Ge3  1  0.51247805  0.90851171  0.75000000  1
  Ge  Ge4  1  0.30768399  0.30768399  0.05394798  1
  Ge  Ge5  1  0.09148829  0.48752195  0.25000000  1
  Ge  Ge6  1  0.30768399  0.30768399  0.44605202  1
  Ge  Ge7  1  0.95579708  0.95579708  0.75000000  1
  Ge  Ge8  1  0.69231601  0.69231601  0.55394798  1
  Ge  Ge9  1  0.69231601  0.69231601  0.94605202  1
loop_
_geom_bond_atom_site_label_1
_geom_bond_atom_site_label_2
_geom_bond_distance
_geom_bond_site_symmetry_2
