# generated using pymatgen
data_Zn(MoO2)2
_symmetry_space_group_name_H-M   'P 1'
_cell_length_a   3.25005800
_cell_length_b   7.59158763
_cell_length_c   7.77005299
_cell_angle_alpha   81.01544972
_cell_angle_beta   79.87500307
_cell_angle_gamma   79.67750574
_symmetry_Int_Tables_number   1
_chemical_formula_structural   Zn(MoO2)2
_chemical_formula_sum   'Zn2 Mo4 O8'
_cell_volume   184.12644752
_cell_formula_units_Z   2
loop_
 _symmetry_equiv_pos_site_id
 _symmetry_equiv_pos_as_xyz
  1  'x, y, z'
loop_
 _atom_site_type_symbol
 _atom_site_label
 _atom_site_symmetry_multiplicity
 _atom_site_fract_x
 _atom_site_fract_y
 _atom_site_fract_z
 _atom_site_occupancy
  Zn  Zn0  1  0.29534400  0.93021200  0.88534900  1
  Zn  Zn1  1  0.67486400  0.08448000  0.08356300  1
  Mo  Mo0  1  0.36014100  0.82864300  0.44982900  1
  Mo  Mo1  1  0.86135200  0.50986800  0.79477600  1
  Mo  Mo2  1  0.16176500  0.51188800  0.17221100  1
  Mo  Mo3  1  0.65967000  0.19443000  0.51721000  1
  O  O0  1  0.16150800  0.33055800  0.38173600  1
  O  O1  1  0.58124000  0.65306200  0.25095900  1
  O  O2  1  0.44207800  0.37020100  0.71555600  1
  O  O3  1  0.85888600  0.69278000  0.58565700  1
  O  O4  1  0.82920000  0.99840000  0.32880400  1
  O  O5  1  0.25499800  0.65392500  0.91004300  1
  O  O6  1  0.18814200  0.02567200  0.63697800  1
  O  O7  1  0.76536400  0.36907900  0.05588600  1
loop_
_geom_bond_atom_site_label_1
_geom_bond_atom_site_label_2
_geom_bond_distance
_geom_bond_site_symmetry_2
Mo0 O3 2.113640 1_555
Mo0 O3 2.118805 1_455
Mo0 O1 2.142540 1_555
Mo0 O4 2.165790 1_555
Mo0 O6 2.181345 1_565
Mo0 O4 2.217615 1_455
Mo1 O3 1.965786 1_555
Mo1 O2 2.035576 1_655
Mo1 O2 2.092014 1_555
Mo1 O7 2.139052 1_556
Mo1 O5 2.189694 1_555
Mo1 O5 2.201176 1_655
Mo2 O0 1.960966 1_555
Mo2 O1 2.038885 1_455
Mo2 O1 2.098425 1_555
Mo2 O5 2.148987 1_554
Mo2 O7 2.182009 1_555
Mo2 O7 2.206386 1_455
Mo3 O0 2.111204 1_555
Mo3 O0 2.120576 1_655
Mo3 O2 2.139344 1_555
Mo3 O6 2.164647 1_555
Mo3 O4 2.182736 1_545
Mo3 O6 2.204174 1_655
O4 Zn1 2.034543 1_565
O5 Zn0 2.101751 1_555
O6 Zn0 2.019905 1_545
O7 Zn1 2.204803 1_555
