# generated using pymatgen
data_Sr2EuTaO6
_symmetry_space_group_name_H-M   'P 1'
_cell_length_a   5.87880771
_cell_length_b   6.07549900
_cell_length_c   8.39717027
_cell_angle_alpha   90.00000000
_cell_angle_beta   90.04397225
_cell_angle_gamma   90.00000000
_symmetry_Int_Tables_number   1
_chemical_formula_structural   Sr2EuTaO6
_chemical_formula_sum   'Sr4 Eu2 Ta2 O12'
_cell_volume   299.91904233
_cell_formula_units_Z   2
loop_
 _symmetry_equiv_pos_site_id
 _symmetry_equiv_pos_as_xyz
  1  'x, y, z'
loop_
 _atom_site_type_symbol
 _atom_site_label
 _atom_site_symmetry_multiplicity
 _atom_site_fract_x
 _atom_site_fract_y
 _atom_site_fract_z
 _atom_site_occupancy
  Sr  Sr0  1  0.01263800  0.45260400  0.25350100  1
  Sr  Sr1  1  0.98736200  0.54739600  0.74649900  1
  Sr  Sr2  1  0.48736200  0.95260400  0.24649900  1
  Sr  Sr3  1  0.51263800  0.04739600  0.75350100  1
  Eu  Eu0  1  0.00000000  0.00000000  0.50000000  1
  Eu  Eu1  1  0.50000000  0.50000000  0.00000000  1
  Ta  Ta0  1  0.00000000  0.00000000  0.00000000  1
  Ta  Ta1  1  0.50000000  0.50000000  0.50000000  1
  O  O0  1  0.90931200  0.03694200  0.23112400  1
  O  O1  1  0.09068800  0.96305800  0.76887600  1
  O  O2  1  0.59068800  0.53694200  0.26887600  1
  O  O3  1  0.40931200  0.46305800  0.73112400  1
  O  O4  1  0.18662000  0.72912800  0.05503900  1
  O  O5  1  0.81338000  0.27087200  0.94496100  1
  O  O6  1  0.31338000  0.22912800  0.44496100  1
  O  O7  1  0.68662000  0.77087200  0.55503900  1
  O  O8  1  0.27612600  0.18856700  0.04177300  1
  O  O9  1  0.72387400  0.81143300  0.95822700  1
  O  O10  1  0.22387400  0.68856700  0.45822700  1
  O  O11  1  0.77612600  0.31143300  0.54177300  1
loop_
_geom_bond_atom_site_label_1
_geom_bond_atom_site_label_2
_geom_bond_distance
_geom_bond_site_symmetry_2
Eu0 O1 2.330324 1_545
Eu0 O0 2.330324 1_455
Eu0 O11 2.331520 1_455
Eu0 O10 2.331520 1_545
Eu0 O6 2.355171 1_555
Eu0 O7 2.355171 1_445
Eu1 O2 2.330324 1_555
Eu1 O3 2.330324 1_554
Eu1 O9 2.331520 1_554
Eu1 O8 2.331520 1_555
Eu1 O4 2.355171 1_555
Eu1 O5 2.355171 1_554
O0 Ta0 2.025550 1_655
O0 Sr2 2.536317 1_545
O0 Sr0 2.604135 1_655
O1 Ta0 2.025550 1_566
O1 Sr3 2.536317 1_565
O1 Sr1 2.604135 1_455
O2 Ta1 2.025550 1_555
O2 Sr0 2.536317 1_655
O2 Sr2 2.604135 1_555
O3 Ta1 2.025550 1_555
O3 Sr1 2.536317 1_455
O3 Sr3 2.604135 1_555
O4 Ta0 2.030943 1_565
O4 Sr0 2.578470 1_555
O4 Sr2 2.747667 1_555
O4 Sr1 3.049451 1_454
O5 Ta0 2.030943 1_656
O5 Sr1 2.578470 1_555
O5 Sr3 2.747667 1_555
O5 Sr0 3.049451 1_656
O6 Ta1 2.030943 1_555
O6 Sr2 2.578470 1_545
O6 Sr0 2.747667 1_555
O6 Sr3 3.049451 1_555
O7 Ta1 2.030943 1_555
O7 Sr3 2.578470 1_565
O7 Sr1 2.747667 1_555
O7 Sr2 3.049451 1_555
O8 Ta0 2.017358 1_555
O8 Sr2 2.559177 1_545
O8 Sr0 2.852703 1_555
O8 Sr3 2.921243 1_554
O9 Ta0 2.017358 1_666
O9 Sr3 2.559177 1_565
O9 Sr1 2.852703 1_555
O9 Sr2 2.921243 1_556
O10 Ta1 2.017358 1_555
O10 Sr0 2.559177 1_555
O10 Sr2 2.852703 1_555
O10 Sr1 2.921243 1_455
O11 Ta1 2.017358 1_555
O11 Sr1 2.559177 1_555
O11 Sr3 2.852703 1_555
O11 Sr0 2.921243 1_655
