# generated using pymatgen
data_Eu2Ge
_symmetry_space_group_name_H-M   'P 1'
_cell_length_a   4.97731362
_cell_length_b   7.72125521
_cell_length_c   9.40728309
_cell_angle_alpha   90.00000000
_cell_angle_beta   90.00000000
_cell_angle_gamma   90.00000000
_symmetry_Int_Tables_number   1
_chemical_formula_structural   Eu2Ge
_chemical_formula_sum   'Eu8 Ge4'
_cell_volume   361.53231919
_cell_formula_units_Z   4
loop_
 _symmetry_equiv_pos_site_id
 _symmetry_equiv_pos_as_xyz
  1  'x, y, z'
loop_
 _atom_site_type_symbol
 _atom_site_label
 _atom_site_symmetry_multiplicity
 _atom_site_fract_x
 _atom_site_fract_y
 _atom_site_fract_z
 _atom_site_occupancy
  Eu  Eu0  1  0.75000000  0.47824944  0.17971554  1
  Eu  Eu1  1  0.75000000  0.97824944  0.32028446  1
  Eu  Eu2  1  0.25000000  0.52175056  0.82028446  1
  Eu  Eu3  1  0.25000000  0.02175056  0.67971554  1
  Eu  Eu4  1  0.75000000  0.34583565  0.57780606  1
  Eu  Eu5  1  0.75000000  0.84583565  0.92219394  1
  Eu  Eu6  1  0.25000000  0.65416435  0.42219394  1
  Eu  Eu7  1  0.25000000  0.15416435  0.07780606  1
  Ge  Ge0  1  0.75000000  0.25143841  0.89498086  1
  Ge  Ge1  1  0.75000000  0.75143841  0.60501914  1
  Ge  Ge2  1  0.25000000  0.74856159  0.10501914  1
  Ge  Ge3  1  0.25000000  0.24856159  0.39498086  1
loop_
_geom_bond_atom_site_label_1
_geom_bond_atom_site_label_2
_geom_bond_distance
_geom_bond_site_symmetry_2
Eu0 Ge0 3.200269 1_554
Eu0 Ge2 3.323158 1_555
Eu0 Ge2 3.323158 1_655
Eu0 Ge3 3.665994 1_555
Eu0 Ge3 3.665994 1_655
Eu1 Ge1 3.200269 1_555
Eu1 Ge3 3.323158 1_565
Eu1 Ge3 3.323158 1_665
Eu1 Ge2 3.665994 1_655
Eu1 Ge2 3.665994 1_555
Eu2 Ge2 3.200269 1_556
Eu2 Ge0 3.323158 1_455
Eu2 Ge0 3.323158 1_555
Eu2 Ge1 3.665994 1_555
Eu2 Ge1 3.665994 1_455
Eu3 Ge3 3.200269 1_555
Eu3 Ge1 3.323158 1_445
Eu3 Ge1 3.323158 1_545
Eu3 Ge0 3.665994 1_455
Eu3 Ge0 3.665994 1_555
Eu4 Ge0 3.071486 1_555
Eu4 Ge3 3.116977 1_655
Eu4 Ge3 3.116977 1_555
Eu4 Ge1 3.142208 1_555
Eu5 Ge1 3.071486 1_555
Eu5 Ge2 3.116977 1_556
Eu5 Ge2 3.116977 1_656
Eu5 Ge0 3.142208 1_565
Eu6 Ge2 3.071486 1_555
Eu6 Ge1 3.116977 1_555
Eu6 Ge1 3.116977 1_455
Eu6 Ge3 3.142208 1_555
Eu7 Ge3 3.071486 1_555
Eu7 Ge0 3.116977 1_554
Eu7 Ge0 3.116977 1_454
Eu7 Ge2 3.142208 1_545
