# generated using pymatgen
data_HoB4Rh7
_symmetry_space_group_name_H-M   'P 1'
_cell_length_a   5.83139400
_cell_length_b   11.11248448
_cell_length_c   19.23519120
_cell_angle_alpha   90.00000280
_cell_angle_beta   90.00000000
_cell_angle_gamma   90.00000000
_symmetry_Int_Tables_number   1
_chemical_formula_structural   HoB4Rh7
_chemical_formula_sum   'Ho8 B32 Rh56'
_cell_volume   1246.46492136
_cell_formula_units_Z   8
loop_
 _symmetry_equiv_pos_site_id
 _symmetry_equiv_pos_as_xyz
  1  'x, y, z'
loop_
 _atom_site_type_symbol
 _atom_site_label
 _atom_site_symmetry_multiplicity
 _atom_site_fract_x
 _atom_site_fract_y
 _atom_site_fract_z
 _atom_site_occupancy
  Ho  Ho0_0  1  0.00000000  0.00000150  0.00000000  1
  Ho  Ho0_1  1  0.00000000  0.00000150  0.50000000  1
  Ho  Ho0_2  1  0.00000000  0.50000150  0.00000000  1
  Ho  Ho0_3  1  0.00000000  0.50000150  0.50000000  1
  Ho  Ho0_4  1  0.50000000  0.00000150  0.00000000  1
  Ho  Ho0_5  1  0.50000000  0.00000150  0.50000000  1
  Ho  Ho0_6  1  0.50000000  0.50000150  0.00000000  1
  Ho  Ho0_7  1  0.50000000  0.50000150  0.50000000  1
  B  B0_0  1  0.00000000  0.49984000  0.16708350  1
  B  B0_1  1  0.00000000  0.49984000  0.66708350  1
  B  B0_2  1  0.00000000  0.99984000  0.16708350  1
  B  B0_3  1  0.00000000  0.99984000  0.66708350  1
  B  B0_4  1  0.50000000  0.49984000  0.16708350  1
  B  B0_5  1  0.50000000  0.49984000  0.66708350  1
  B  B0_6  1  0.50000000  0.99984000  0.16708350  1
  B  B0_7  1  0.50000000  0.99984000  0.66708350  1
  B  B1_0  1  0.00000000  0.25016200  0.41639000  1
  B  B1_1  1  0.00000000  0.25016200  0.91639000  1
  B  B1_2  1  0.00000000  0.75016200  0.41639000  1
  B  B1_3  1  0.00000000  0.75016200  0.91639000  1
  B  B1_4  1  0.50000000  0.25016200  0.41639000  1
  B  B1_5  1  0.50000000  0.25016200  0.91639000  1
  B  B1_6  1  0.50000000  0.75016200  0.41639000  1
  B  B1_7  1  0.50000000  0.75016200  0.91639000  1
  B  B2_0  1  0.00000000  0.25016200  0.08361000  1
  B  B2_1  1  0.00000000  0.25016200  0.58361000  1
  B  B2_2  1  0.00000000  0.75016200  0.08361000  1
  B  B2_3  1  0.00000000  0.75016200  0.58361000  1
  B  B2_4  1  0.50000000  0.25016200  0.08361000  1
  B  B2_5  1  0.50000000  0.25016200  0.58361000  1
  B  B2_6  1  0.50000000  0.75016200  0.08361000  1
  B  B2_7  1  0.50000000  0.75016200  0.58361000  1
  B  B3_0  1  0.00000000  0.49984000  0.33291650  1
  B  B3_1  1  0.00000000  0.49984000  0.83291650  1
  B  B3_2  1  0.00000000  0.99984000  0.33291650  1
  B  B3_3  1  0.00000000  0.99984000  0.83291650  1
  B  B3_4  1  0.50000000  0.49984000  0.33291650  1
  B  B3_5  1  0.50000000  0.49984000  0.83291650  1
  B  B3_6  1  0.50000000  0.99984000  0.33291650  1
  B  B3_7  1  0.50000000  0.99984000  0.83291650  1
  Rh  Rh0_0  1  0.25000000  0.00290100  0.25000000  1
  Rh  Rh0_1  1  0.25000000  0.00290100  0.75000000  1
  Rh  Rh0_2  1  0.25000000  0.50290100  0.25000000  1
  Rh  Rh0_3  1  0.25000000  0.50290100  0.75000000  1
  Rh  Rh0_4  1  0.75000000  0.00290100  0.25000000  1
  Rh  Rh0_5  1  0.75000000  0.00290100  0.75000000  1
  Rh  Rh0_6  1  0.75000000  0.50290100  0.25000000  1
  Rh  Rh0_7  1  0.75000000  0.50290100  0.75000000  1
  Rh  Rh1_0  1  0.25000000  0.25158950  0.00000000  1
  Rh  Rh1_1  1  0.25000000  0.25158950  0.50000000  1
  Rh  Rh1_2  1  0.25000000  0.75158950  0.00000000  1
  Rh  Rh1_3  1  0.25000000  0.75158950  0.50000000  1
  Rh  Rh1_4  1  0.75000000  0.25158950  0.00000000  1
  Rh  Rh1_5  1  0.75000000  0.25158950  0.50000000  1
  Rh  Rh1_6  1  0.75000000  0.75158950  0.00000000  1
  Rh  Rh1_7  1  0.75000000  0.75158950  0.50000000  1
  Rh  Rh2_0  1  0.25000000  0.12464500  0.12440550  1
  Rh  Rh2_1  1  0.25000000  0.12464500  0.62440550  1
  Rh  Rh2_2  1  0.25000000  0.62464500  0.12440550  1
  Rh  Rh2_3  1  0.25000000  0.62464500  0.62440550  1
  Rh  Rh2_4  1  0.75000000  0.12464500  0.12440550  1
  Rh  Rh2_5  1  0.75000000  0.12464500  0.62440550  1
  Rh  Rh2_6  1  0.75000000  0.62464500  0.12440550  1
  Rh  Rh2_7  1  0.75000000  0.62464500  0.62440550  1
  Rh  Rh3_0  1  0.25000000  0.37295650  0.37335350  1
  Rh  Rh3_1  1  0.25000000  0.37295650  0.87335350  1
  Rh  Rh3_2  1  0.25000000  0.87295650  0.37335350  1
  Rh  Rh3_3  1  0.25000000  0.87295650  0.87335350  1
  Rh  Rh3_4  1  0.75000000  0.37295650  0.37335350  1
  Rh  Rh3_5  1  0.75000000  0.37295650  0.87335350  1
  Rh  Rh3_6  1  0.75000000  0.87295650  0.37335350  1
  Rh  Rh3_7  1  0.75000000  0.87295650  0.87335350  1
  Rh  Rh4_0  1  0.25000000  0.37295650  0.12664650  1
  Rh  Rh4_1  1  0.25000000  0.37295650  0.62664650  1
  Rh  Rh4_2  1  0.25000000  0.87295650  0.12664650  1
  Rh  Rh4_3  1  0.25000000  0.87295650  0.62664650  1
  Rh  Rh4_4  1  0.75000000  0.37295650  0.12664650  1
  Rh  Rh4_5  1  0.75000000  0.37295650  0.62664650  1
  Rh  Rh4_6  1  0.75000000  0.87295650  0.12664650  1
  Rh  Rh4_7  1  0.75000000  0.87295650  0.62664650  1
  Rh  Rh5_0  1  0.25000000  0.12464500  0.37559450  1
  Rh  Rh5_1  1  0.25000000  0.12464500  0.87559450  1
  Rh  Rh5_2  1  0.25000000  0.62464500  0.37559450  1
  Rh  Rh5_3  1  0.25000000  0.62464500  0.87559450  1
  Rh  Rh5_4  1  0.75000000  0.12464500  0.37559450  1
  Rh  Rh5_5  1  0.75000000  0.12464500  0.87559450  1
  Rh  Rh5_6  1  0.75000000  0.62464500  0.37559450  1
  Rh  Rh5_7  1  0.75000000  0.62464500  0.87559450  1
  Rh  Rh6_0  1  0.00000000  0.25020100  0.25000000  1
  Rh  Rh6_1  1  0.00000000  0.25020100  0.75000000  1
  Rh  Rh6_2  1  0.00000000  0.75020100  0.25000000  1
  Rh  Rh6_3  1  0.00000000  0.75020100  0.75000000  1
  Rh  Rh6_4  1  0.50000000  0.25020100  0.25000000  1
  Rh  Rh6_5  1  0.50000000  0.25020100  0.75000000  1
  Rh  Rh6_6  1  0.50000000  0.75020100  0.25000000  1
  Rh  Rh6_7  1  0.50000000  0.75020100  0.75000000  1
loop_
_geom_bond_atom_site_label_1
_geom_bond_atom_site_label_2
_geom_bond_distance
_geom_bond_site_symmetry_2
Ho0_0 Ho0_4 2.915697 1_555
Ho0_0 Ho0_4 2.915697 1_455
Ho0_0 Rh1_2 3.121785 1_545
Ho0_0 Rh1_6 3.121785 1_445
Ho0_0 Rh2_4 3.125715 1_455
Ho0_0 Rh2_0 3.125715 1_555
Ho0_0 Rh5_1 3.125715 1_554
Ho0_0 Rh5_5 3.125715 1_454
Ho0_0 Rh1_0 3.153037 1_555
Ho0_0 Rh1_4 3.153037 1_455
Ho0_0 Rh3_7 3.170630 1_444
Ho0_0 Rh3_3 3.170630 1_544
Ho0_0 Rh4_6 3.170630 1_445
Ho0_0 Rh4_2 3.170630 1_545
Ho0_1 Ho0_5 2.915697 1_555
Ho0_1 Ho0_5 2.915697 1_455
Ho0_1 Rh1_7 3.121785 1_445
Ho0_1 Rh1_3 3.121785 1_545
Ho0_1 Rh2_1 3.125715 1_555
Ho0_1 Rh2_5 3.125715 1_455
Ho0_1 Rh5_0 3.125715 1_555
Ho0_1 Rh5_4 3.125715 1_455
Ho0_1 Rh1_1 3.153037 1_555
Ho0_1 Rh1_5 3.153037 1_455
Ho0_1 Rh3_6 3.170630 1_445
Ho0_1 Rh3_2 3.170630 1_545
Ho0_1 Rh4_7 3.170630 1_445
Ho0_1 Rh4_3 3.170630 1_545
Ho0_2 Ho0_6 2.915697 1_555
Ho0_2 Ho0_6 2.915697 1_455
Ho0_2 Rh1_0 3.121785 1_555
Ho0_2 Rh1_4 3.121785 1_455
Ho0_2 Rh2_6 3.125715 1_455
Ho0_2 Rh2_2 3.125715 1_555
Ho0_2 Rh5_3 3.125715 1_554
Ho0_2 Rh5_7 3.125715 1_454
Ho0_2 Rh1_2 3.153037 1_555
Ho0_2 Rh1_6 3.153037 1_455
Ho0_2 Rh3_1 3.170630 1_554
Ho0_2 Rh3_5 3.170630 1_454
Ho0_2 Rh4_0 3.170630 1_555
Ho0_2 Rh4_4 3.170630 1_455
Ho0_3 Ho0_7 2.915697 1_555
Ho0_3 Ho0_7 2.915697 1_455
Ho0_3 Rh1_1 3.121785 1_555
Ho0_3 Rh1_5 3.121785 1_455
Ho0_3 Rh2_7 3.125715 1_455
Ho0_3 Rh2_3 3.125715 1_555
Ho0_3 Rh5_6 3.125715 1_455
Ho0_3 Rh5_2 3.125715 1_555
Ho0_3 Rh1_3 3.153037 1_555
Ho0_3 Rh1_7 3.153037 1_455
Ho0_3 Rh3_0 3.170630 1_555
Ho0_3 Rh3_4 3.170630 1_455
Ho0_3 Rh4_5 3.170630 1_455
Ho0_3 Rh4_1 3.170630 1_555
Ho0_4 Rh1_2 3.121785 1_545
Ho0_4 Rh1_6 3.121785 1_545
Ho0_4 Rh2_0 3.125715 1_555
Ho0_4 Rh2_4 3.125715 1_555
Ho0_4 Rh5_1 3.125715 1_554
Ho0_4 Rh5_5 3.125715 1_554
Ho0_4 Rh1_4 3.153037 1_555
Ho0_4 Rh1_0 3.153037 1_555
Ho0_4 Rh3_7 3.170630 1_544
Ho0_4 Rh3_3 3.170630 1_544
Ho0_4 Rh4_6 3.170630 1_545
Ho0_4 Rh4_2 3.170630 1_545
Ho0_5 Rh1_7 3.121785 1_545
Ho0_5 Rh1_3 3.121785 1_545
Ho0_5 Rh2_1 3.125715 1_555
Ho0_5 Rh2_5 3.125715 1_555
Ho0_5 Rh5_0 3.125715 1_555
Ho0_5 Rh5_4 3.125715 1_555
Ho0_5 Rh1_1 3.153037 1_555
Ho0_5 Rh1_5 3.153037 1_555
Ho0_5 Rh3_2 3.170630 1_545
Ho0_5 Rh3_6 3.170630 1_545
Ho0_5 Rh4_3 3.170630 1_545
Ho0_5 Rh4_7 3.170630 1_545
Ho0_6 Rh1_4 3.121785 1_555
Ho0_6 Rh1_0 3.121785 1_555
Ho0_6 Rh2_2 3.125715 1_555
Ho0_6 Rh2_6 3.125715 1_555
Ho0_6 Rh5_3 3.125715 1_554
Ho0_6 Rh5_7 3.125715 1_554
Ho0_6 Rh1_2 3.153037 1_555
Ho0_6 Rh1_6 3.153037 1_555
Ho0_6 Rh3_1 3.170630 1_554
Ho0_6 Rh3_5 3.170630 1_554
Ho0_6 Rh4_0 3.170630 1_555
Ho0_6 Rh4_4 3.170630 1_555
Ho0_7 Rh1_1 3.121785 1_555
Ho0_7 Rh1_5 3.121785 1_555
Ho0_7 Rh2_3 3.125715 1_555
Ho0_7 Rh2_7 3.125715 1_555
Ho0_7 Rh5_2 3.125715 1_555
Ho0_7 Rh5_6 3.125715 1_555
Ho0_7 Rh1_3 3.153037 1_555
Ho0_7 Rh1_7 3.153037 1_555
Ho0_7 Rh3_0 3.170630 1_555
Ho0_7 Rh3_4 3.170630 1_555
Ho0_7 Rh4_1 3.170630 1_555
Ho0_7 Rh4_5 3.170630 1_555
B0_0 Rh0_2 2.161072 1_555
B0_0 Rh0_6 2.161072 1_455
B0_0 Rh4_0 2.172186 1_555
B0_0 Rh4_4 2.172186 1_455
B0_0 Rh2_2 2.173179 1_555
B0_0 Rh2_6 2.173179 1_455
B0_0 Ho0_2 3.213884 1_555
B0_1 Rh0_3 2.161072 1_555
B0_1 Rh0_7 2.161072 1_455
B0_1 Rh4_1 2.172186 1_555
B0_1 Rh4_5 2.172186 1_455
B0_1 Rh2_3 2.173179 1_555
B0_1 Rh2_7 2.173179 1_455
B0_1 Ho0_3 3.213884 1_555
B0_2 Rh0_0 2.161072 1_565
B0_2 Rh0_4 2.161072 1_465
B0_2 Rh4_2 2.172186 1_555
B0_2 Rh4_6 2.172186 1_455
B0_2 Rh2_4 2.173179 1_465
B0_2 Rh2_0 2.173179 1_565
B0_2 Ho0_0 3.213884 1_565
B0_3 Rh0_5 2.161072 1_465
B0_3 Rh0_1 2.161072 1_565
B0_3 Rh4_3 2.172186 1_555
B0_3 Rh4_7 2.172186 1_455
B0_3 Rh2_1 2.173179 1_565
B0_3 Rh2_5 2.173179 1_465
B0_3 Ho0_1 3.213884 1_565
B0_4 Rh0_2 2.161072 1_555
B0_4 Rh0_6 2.161072 1_555
B0_4 Rh4_4 2.172186 1_555
B0_4 Rh4_0 2.172186 1_555
B0_4 Rh2_2 2.173179 1_555
B0_4 Rh2_6 2.173179 1_555
B0_4 Ho0_6 3.213884 1_555
B0_5 Rh0_3 2.161072 1_555
B0_5 Rh0_7 2.161072 1_555
B0_5 Rh4_1 2.172186 1_555
B0_5 Rh4_5 2.172186 1_555
B0_5 Rh2_3 2.173179 1_555
B0_5 Rh2_7 2.173179 1_555
B0_5 Ho0_7 3.213884 1_555
B0_6 Rh0_0 2.161072 1_565
B0_6 Rh0_4 2.161072 1_565
B0_6 Rh4_2 2.172186 1_555
B0_6 Rh4_6 2.172186 1_555
B0_6 Rh2_0 2.173179 1_565
B0_6 Rh2_4 2.173179 1_565
B0_6 Ho0_4 3.213884 1_565
B0_7 Rh0_1 2.161072 1_565
B0_7 Rh0_5 2.161072 1_565
B0_7 Rh4_3 2.172186 1_555
B0_7 Rh4_7 2.172186 1_555
B0_7 Rh2_1 2.173179 1_565
B0_7 Rh2_5 2.173179 1_565
B0_7 Ho0_5 3.213884 1_565
B1_0 Rh3_0 2.161620 1_555
B1_0 Rh3_4 2.161620 1_455
B1_0 Rh5_0 2.164850 1_555
B1_0 Rh5_4 2.164850 1_455
B1_0 Rh1_1 2.170727 1_555
B1_0 Rh1_5 2.170727 1_455
B1_0 Ho0_3 3.208509 1_555
B1_0 Ho0_1 3.211597 1_555
B1_1 Rh3_1 2.161620 1_555
B1_1 Rh3_5 2.161620 1_455
B1_1 Rh5_1 2.164850 1_555
B1_1 Rh5_5 2.164850 1_455
B1_1 Rh1_4 2.170727 1_456
B1_1 Rh1_0 2.170727 1_556
B1_1 Ho0_2 3.208509 1_556
B1_1 Ho0_0 3.211597 1_556
B1_2 Rh3_2 2.161620 1_555
B1_2 Rh3_6 2.161620 1_455
B1_2 Rh5_2 2.164850 1_555
B1_2 Rh5_6 2.164850 1_455
B1_2 Rh1_3 2.170727 1_555
B1_2 Rh1_7 2.170727 1_455
B1_2 Ho0_1 3.208509 1_565
B1_2 Ho0_3 3.211597 1_555
B1_3 Rh3_3 2.161620 1_555
B1_3 Rh3_7 2.161620 1_455
B1_3 Rh5_3 2.164850 1_555
B1_3 Rh5_7 2.164850 1_455
B1_3 Rh1_2 2.170727 1_556
B1_3 Rh1_6 2.170727 1_456
B1_3 Ho0_0 3.208509 1_566
B1_3 Ho0_2 3.211597 1_556
B1_4 Rh3_0 2.161620 1_555
B1_4 Rh3_4 2.161620 1_555
B1_4 Rh5_0 2.164850 1_555
B1_4 Rh5_4 2.164850 1_555
B1_4 Rh1_1 2.170727 1_555
B1_4 Rh1_5 2.170727 1_555
B1_4 Ho0_7 3.208509 1_555
B1_4 Ho0_5 3.211597 1_555
B1_5 Rh3_1 2.161620 1_555
B1_5 Rh3_5 2.161620 1_555
B1_5 Rh5_1 2.164850 1_555
B1_5 Rh5_5 2.164850 1_555
B1_5 Rh1_0 2.170727 1_556
B1_5 Rh1_4 2.170727 1_556
B1_5 Ho0_6 3.208509 1_556
B1_5 Ho0_4 3.211597 1_556
B1_6 Rh3_2 2.161620 1_555
B1_6 Rh3_6 2.161620 1_555
B1_6 Rh5_2 2.164850 1_555
B1_6 Rh5_6 2.164850 1_555
B1_6 Rh1_7 2.170727 1_555
B1_6 Rh1_3 2.170727 1_555
B1_6 Ho0_5 3.208509 1_565
B1_6 Ho0_7 3.211597 1_555
B1_7 Rh3_3 2.161620 1_555
B1_7 Rh3_7 2.161620 1_555
B1_7 Rh5_3 2.164850 1_555
B1_7 Rh5_7 2.164850 1_555
B1_7 Rh1_6 2.170727 1_556
B1_7 Rh1_2 2.170727 1_556
B1_7 Ho0_4 3.208509 1_566
B1_7 Ho0_6 3.211597 1_556
B2_0 Rh4_0 2.161620 1_555
B2_0 Rh4_4 2.161620 1_455
B2_0 Rh2_0 2.164850 1_555
B2_0 Rh2_4 2.164850 1_455
B2_0 Rh1_0 2.170727 1_555
B2_0 Rh1_4 2.170727 1_455
B2_0 Ho0_2 3.208509 1_555
B2_0 Ho0_0 3.211596 1_555
B2_1 Rh4_5 2.161620 1_455
B2_1 Rh4_1 2.161620 1_555
B2_1 Rh2_1 2.164850 1_555
B2_1 Rh2_5 2.164850 1_455
B2_1 Rh1_1 2.170727 1_555
B2_1 Rh1_5 2.170727 1_455
B2_1 Ho0_3 3.208509 1_555
B2_1 Ho0_1 3.211596 1_555
B2_2 Rh4_6 2.161620 1_455
B2_2 Rh4_2 2.161620 1_555
B2_2 Rh2_2 2.164850 1_555
B2_2 Rh2_6 2.164850 1_455
B2_2 Rh1_2 2.170727 1_555
B2_2 Rh1_6 2.170727 1_455
B2_2 Ho0_0 3.208509 1_565
B2_2 Ho0_2 3.211596 1_555
B2_3 Rh4_7 2.161620 1_455
B2_3 Rh4_3 2.161620 1_555
B2_3 Rh2_7 2.164850 1_455
B2_3 Rh2_3 2.164850 1_555
B2_3 Rh1_3 2.170727 1_555
B2_3 Rh1_7 2.170727 1_455
B2_3 Ho0_1 3.208509 1_565
B2_3 Ho0_3 3.211596 1_555
B2_4 Rh4_0 2.161620 1_555
B2_4 Rh4_4 2.161620 1_555
B2_4 Rh2_0 2.164850 1_555
B2_4 Rh2_4 2.164850 1_555
B2_4 Rh1_0 2.170727 1_555
B2_4 Rh1_4 2.170727 1_555
B2_4 Ho0_6 3.208509 1_555
B2_4 Ho0_4 3.211596 1_555
B2_5 Rh4_1 2.161620 1_555
B2_5 Rh4_5 2.161620 1_555
B2_5 Rh2_1 2.164850 1_555
B2_5 Rh2_5 2.164850 1_555
B2_5 Rh1_1 2.170727 1_555
B2_5 Rh1_5 2.170727 1_555
B2_5 Ho0_7 3.208509 1_555
B2_5 Ho0_5 3.211596 1_555
B2_6 Rh4_6 2.161620 1_555
B2_6 Rh4_2 2.161620 1_555
B2_6 Rh2_2 2.164850 1_555
B2_6 Rh2_6 2.164850 1_555
B2_6 Rh1_2 2.170727 1_555
B2_6 Rh1_6 2.170727 1_555
B2_6 Ho0_4 3.208509 1_565
B2_6 Ho0_6 3.211596 1_555
B2_7 Rh4_3 2.161620 1_555
B2_7 Rh4_7 2.161620 1_555
B2_7 Rh2_3 2.164850 1_555
B2_7 Rh2_7 2.164850 1_555
B2_7 Rh1_3 2.170727 1_555
B2_7 Rh1_7 2.170727 1_555
B2_7 Ho0_5 3.208509 1_565
B2_7 Ho0_7 3.211596 1_555
B3_0 Rh0_2 2.161072 1_555
B3_0 Rh0_6 2.161072 1_455
B3_0 Rh3_0 2.172186 1_555
B3_0 Rh3_4 2.172186 1_455
B3_0 Rh5_2 2.173179 1_555
B3_0 Rh5_6 2.173179 1_455
B3_0 Ho0_3 3.213884 1_555
B3_1 Rh0_3 2.161072 1_555
B3_1 Rh0_7 2.161072 1_455
B3_1 Rh3_1 2.172186 1_555
B3_1 Rh3_5 2.172186 1_455
B3_1 Rh5_3 2.173179 1_555
B3_1 Rh5_7 2.173179 1_455
B3_1 Ho0_2 3.213884 1_556
B3_2 Rh0_0 2.161072 1_565
B3_2 Rh0_4 2.161072 1_465
B3_2 Rh3_2 2.172186 1_555
B3_2 Rh3_6 2.172186 1_455
B3_2 Rh5_0 2.173179 1_565
B3_2 Rh5_4 2.173179 1_465
B3_2 Ho0_1 3.213884 1_565
B3_3 Rh0_5 2.161072 1_465
B3_3 Rh0_1 2.161072 1_565
B3_3 Rh3_7 2.172186 1_455
B3_3 Rh3_3 2.172186 1_555
B3_3 Rh5_5 2.173179 1_465
B3_3 Rh5_1 2.173179 1_565
B3_3 Ho0_0 3.213884 1_566
B3_4 Rh0_2 2.161072 1_555
B3_4 Rh0_6 2.161072 1_555
B3_4 Rh3_4 2.172186 1_555
B3_4 Rh3_0 2.172186 1_555
B3_4 Rh5_2 2.173179 1_555
B3_4 Rh5_6 2.173179 1_555
B3_4 Ho0_7 3.213884 1_555
B3_5 Rh0_3 2.161072 1_555
B3_5 Rh0_7 2.161072 1_555
B3_5 Rh3_1 2.172186 1_555
B3_5 Rh3_5 2.172186 1_555
B3_5 Rh5_3 2.173179 1_555
B3_5 Rh5_7 2.173179 1_555
B3_5 Ho0_6 3.213884 1_556
B3_6 Rh0_0 2.161072 1_565
B3_6 Rh0_4 2.161072 1_565
B3_6 Rh3_2 2.172186 1_555
B3_6 Rh3_6 2.172186 1_555
B3_6 Rh5_0 2.173179 1_565
B3_6 Rh5_4 2.173179 1_565
B3_6 Ho0_5 3.213884 1_565
B3_7 Rh0_1 2.161072 1_565
B3_7 Rh0_5 2.161072 1_565
B3_7 Rh3_7 2.172186 1_555
B3_7 Rh3_3 2.172186 1_555
B3_7 Rh5_1 2.173179 1_565
B3_7 Rh5_5 2.173179 1_565
B3_7 Ho0_4 3.213884 1_566
Rh0_0 Rh6_0 3.110863 1_555
Rh0_0 Rh6_4 3.110863 1_555
Rh0_0 Rh6_2 3.163999 1_545
Rh0_0 Rh6_6 3.163999 1_545
Rh0_1 Rh6_5 3.110863 1_555
Rh0_1 Rh6_1 3.110863 1_555
Rh0_1 Rh6_3 3.163999 1_545
Rh0_1 Rh6_7 3.163999 1_545
Rh0_2 Rh6_2 3.110863 1_555
Rh0_2 Rh6_6 3.110863 1_555
Rh0_2 Rh6_0 3.163999 1_555
Rh0_2 Rh6_4 3.163999 1_555
Rh0_3 Rh6_7 3.110863 1_555
Rh0_3 Rh6_3 3.110863 1_555
Rh0_3 Rh6_5 3.163999 1_555
Rh0_3 Rh6_1 3.163999 1_555
Rh0_4 Rh6_0 3.110863 1_655
Rh0_4 Rh6_4 3.110863 1_555
Rh0_4 Rh6_2 3.163999 1_645
Rh0_4 Rh6_6 3.163999 1_545
Rh0_5 Rh6_1 3.110863 1_655
Rh0_5 Rh6_5 3.110863 1_555
Rh0_5 Rh6_7 3.163999 1_545
Rh0_5 Rh6_3 3.163999 1_645
Rh0_6 Rh6_2 3.110863 1_655
Rh0_6 Rh6_6 3.110863 1_555
Rh0_6 Rh6_4 3.163999 1_555
Rh0_6 Rh6_0 3.163999 1_655
Rh0_7 Rh6_3 3.110863 1_655
Rh0_7 Rh6_7 3.110863 1_555
Rh0_7 Rh6_1 3.163999 1_655
Rh0_7 Rh6_5 3.163999 1_555
Rh2_0 Rh6_4 3.147740 1_555
Rh2_0 Rh6_0 3.147740 1_555
Rh2_1 Rh6_5 3.147740 1_555
Rh2_1 Rh6_1 3.147740 1_555
Rh2_2 Rh6_2 3.147740 1_555
Rh2_2 Rh6_6 3.147740 1_555
Rh2_3 Rh6_3 3.147740 1_555
Rh2_3 Rh6_7 3.147740 1_555
Rh2_4 Rh6_0 3.147740 1_655
Rh2_4 Rh6_4 3.147740 1_555
Rh2_5 Rh6_1 3.147740 1_655
Rh2_5 Rh6_5 3.147740 1_555
Rh2_6 Rh6_2 3.147740 1_655
Rh2_6 Rh6_6 3.147740 1_555
Rh2_7 Rh6_3 3.147740 1_655
Rh2_7 Rh6_7 3.147740 1_555
Rh3_0 Rh6_0 3.100964 1_555
Rh3_0 Rh6_4 3.100964 1_555
Rh3_1 Rh6_5 3.100964 1_555
Rh3_1 Rh6_1 3.100964 1_555
Rh3_2 Rh6_6 3.100964 1_555
Rh3_2 Rh6_2 3.100964 1_555
Rh3_3 Rh6_7 3.100964 1_555
Rh3_3 Rh6_3 3.100964 1_555
Rh3_4 Rh6_0 3.100964 1_655
Rh3_4 Rh6_4 3.100964 1_555
Rh3_5 Rh6_1 3.100964 1_655
Rh3_5 Rh6_5 3.100964 1_555
Rh3_6 Rh6_6 3.100964 1_555
Rh3_6 Rh6_2 3.100964 1_655
Rh3_7 Rh6_3 3.100964 1_655
Rh3_7 Rh6_7 3.100964 1_555
Rh4_0 Rh6_0 3.100965 1_555
Rh4_0 Rh6_4 3.100965 1_555
Rh4_1 Rh6_1 3.100965 1_555
Rh4_1 Rh6_5 3.100965 1_555
Rh4_2 Rh6_6 3.100965 1_555
Rh4_2 Rh6_2 3.100965 1_555
Rh4_3 Rh6_3 3.100965 1_555
Rh4_3 Rh6_7 3.100965 1_555
Rh4_4 Rh6_4 3.100965 1_555
Rh4_4 Rh6_0 3.100965 1_655
Rh4_5 Rh6_1 3.100965 1_655
Rh4_5 Rh6_5 3.100965 1_555
Rh4_6 Rh6_6 3.100965 1_555
Rh4_6 Rh6_2 3.100965 1_655
Rh4_7 Rh6_3 3.100965 1_655
Rh4_7 Rh6_7 3.100965 1_555
Rh5_0 Rh6_0 3.147740 1_555
Rh5_0 Rh6_4 3.147740 1_555
Rh5_1 Rh6_5 3.147740 1_555
Rh5_1 Rh6_1 3.147740 1_555
Rh5_2 Rh6_2 3.147740 1_555
Rh5_2 Rh6_6 3.147740 1_555
Rh5_3 Rh6_7 3.147740 1_555
Rh5_3 Rh6_3 3.147740 1_555
Rh5_4 Rh6_4 3.147740 1_555
Rh5_4 Rh6_0 3.147740 1_655
Rh5_5 Rh6_1 3.147740 1_655
Rh5_5 Rh6_5 3.147740 1_555
Rh5_6 Rh6_2 3.147740 1_655
Rh5_6 Rh6_6 3.147740 1_555
Rh5_7 Rh6_3 3.147740 1_655
Rh5_7 Rh6_7 3.147740 1_555
Rh6_0 Rh6_4 2.915697 1_555
Rh6_0 Rh6_4 2.915697 1_455
Rh6_1 Rh6_5 2.915697 1_555
Rh6_1 Rh6_5 2.915697 1_455
Rh6_2 Rh6_6 2.915697 1_555
Rh6_2 Rh6_6 2.915697 1_455
Rh6_3 Rh6_7 2.915697 1_555
Rh6_3 Rh6_7 2.915697 1_455
