# generated using pymatgen
data_Te7RhCl7
_symmetry_space_group_name_H-M   'P 1'
_cell_length_a   9.55465700
_cell_length_b   10.41021259
_cell_length_c   11.75838853
_cell_angle_alpha   68.81616556
_cell_angle_beta   66.65503254
_cell_angle_gamma   66.83431912
_symmetry_Int_Tables_number   1
_chemical_formula_structural   Te7RhCl7
_chemical_formula_sum   'Te14 Rh2 Cl14'
_cell_volume   957.53888843
_cell_formula_units_Z   2
loop_
 _symmetry_equiv_pos_site_id
 _symmetry_equiv_pos_as_xyz
  1  'x, y, z'
loop_
 _atom_site_type_symbol
 _atom_site_label
 _atom_site_symmetry_multiplicity
 _atom_site_fract_x
 _atom_site_fract_y
 _atom_site_fract_z
 _atom_site_occupancy
  Te  Te0  1  0.79432900  0.05078100  0.29738000  1
  Te  Te1  1  0.20567100  0.94921900  0.70262000  1
  Te  Te2  1  0.65748100  0.28584900  0.11886200  1
  Te  Te3  1  0.34251900  0.71415100  0.88113800  1
  Te  Te4  1  0.06933700  0.15028500  0.19552300  1
  Te  Te5  1  0.93066300  0.84971500  0.80447700  1
  Te  Te6  1  0.95846500  0.33797000  0.98527900  1
  Te  Te7  1  0.04153500  0.66203000  0.01472100  1
  Te  Te8  1  0.80895700  0.05496900  0.96972900  1
  Te  Te9  1  0.19104300  0.94503100  0.03027100  1
  Te  Te10  1  0.66091700  0.76490900  0.27160000  1
  Te  Te11  1  0.33908300  0.23509100  0.72840000  1
  Te  Te12  1  0.05739600  0.65763600  0.33775100  1
  Te  Te13  1  0.94260400  0.34236400  0.66224900  1
  Rh  Rh0  1  0.92768400  0.85207500  0.15755700  1
  Rh  Rh1  1  0.07231600  0.14792500  0.84244300  1
  Cl  Cl0  1  0.67611100  0.74154500  0.03866200  1
  Cl  Cl1  1  0.32388900  0.25845500  0.96133800  1
  Cl  Cl2  1  0.80317700  0.49721600  0.30869400  1
  Cl  Cl3  1  0.19682300  0.50278400  0.69130600  1
  Cl  Cl4  1  0.65048100  0.74316500  0.49161900  1
  Cl  Cl5  1  0.34951900  0.25683500  0.50838100  1
  Cl  Cl6  1  0.47256000  0.03244800  0.26796400  1
  Cl  Cl7  1  0.52744000  0.96755200  0.73203600  1
  Cl  Cl8  1  0.20760300  0.46567800  0.20534900  1
  Cl  Cl9  1  0.79239700  0.53432200  0.79465100  1
  Cl  Cl10  1  0.31886900  0.67477000  0.28486700  1
  Cl  Cl11  1  0.68113100  0.32523000  0.71513300  1
  Cl  Cl12  1  0.98029300  0.84328100  0.46738400  1
  Cl  Cl13  1  0.01970700  0.15671900  0.53261600  1
loop_
_geom_bond_atom_site_label_1
_geom_bond_atom_site_label_2
_geom_bond_distance
_geom_bond_site_symmetry_2
Te0 Te2 2.837163 1_555
Te0 Te4 2.857008 1_655
Te1 Te3 2.837163 1_555
Te1 Te5 2.857008 1_455
Te2 Te6 2.839646 1_554
Te2 Te8 3.040443 1_554
Te3 Te7 2.839646 1_556
Te3 Te9 3.040443 1_556
Te4 Te6 2.829719 1_454
Te4 Te9 2.991401 1_545
Te5 Te7 2.829719 1_656
Te5 Te8 2.991401 1_565
Rh0 Te12 2.670255 1_655
Rh0 Te7 2.679264 1_655
Rh0 Te0 2.707305 1_565
Rh0 Te10 2.711052 1_555
Rh0 Te8 2.711986 1_564
Rh0 Te9 2.718932 1_655
Rh1 Te13 2.670255 1_455
Rh1 Te6 2.679264 1_455
Rh1 Te1 2.707305 1_545
Rh1 Te11 2.711052 1_555
Rh1 Te9 2.711986 1_546
Rh1 Te8 2.718932 1_455
Cl0 Te10 2.778628 1_555
Cl0 Te5 3.061364 1_554
Cl1 Te11 2.778628 1_555
Cl1 Te4 3.061364 1_556
Cl2 Te10 2.532763 1_555
Cl3 Te11 2.532763 1_555
Cl4 Te10 2.478747 1_555
Cl5 Te11 2.478747 1_555
Cl6 Te10 2.651220 1_545
Cl7 Te11 2.651220 1_565
Cl8 Te12 2.588042 1_555
Cl8 Te7 2.945454 1_555
Cl9 Te13 2.588042 1_555
Cl9 Te6 2.945454 1_555
Cl10 Te12 2.387289 1_555
Cl11 Te13 2.387289 1_555
Cl12 Te12 2.592292 1_655
Cl12 Te0 2.914364 1_565
Cl13 Te13 2.592292 1_455
Cl13 Te1 2.914364 1_545
