# generated using pymatgen
data_Mg14ZrC
_symmetry_space_group_name_H-M   'P 1'
_cell_length_a   6.28510754
_cell_length_b   6.28510705
_cell_length_c   9.89338495
_cell_angle_alpha   90.00000000
_cell_angle_beta   90.00000000
_cell_angle_gamma   120.00000258
_symmetry_Int_Tables_number   1
_chemical_formula_structural   Mg14ZrC
_chemical_formula_sum   'Mg14 Zr1 C1'
_cell_volume   338.45498909
_cell_formula_units_Z   1
loop_
 _symmetry_equiv_pos_site_id
 _symmetry_equiv_pos_as_xyz
  1  'x, y, z'
loop_
 _atom_site_type_symbol
 _atom_site_label
 _atom_site_symmetry_multiplicity
 _atom_site_fract_x
 _atom_site_fract_y
 _atom_site_fract_z
 _atom_site_occupancy
  Mg  Mg0  1  0.17911320  0.83955610  0.12500000  1
  Mg  Mg1  1  0.15966618  0.82983259  0.62500000  1
  Mg  Mg2  1  0.66044390  0.32088680  0.12500000  1
  Mg  Mg3  1  0.67016741  0.34033382  0.62500000  1
  Mg  Mg4  1  0.66044390  0.83955610  0.12500000  1
  Mg  Mg5  1  0.67016741  0.82983259  0.62500000  1
  Mg  Mg6  1  0.32185294  0.17814706  0.39043758  1
  Mg  Mg7  1  0.32185294  0.17814706  0.85956242  1
  Mg  Mg8  1  0.32185294  0.64370688  0.39043758  1
  Mg  Mg9  1  0.32185294  0.64370688  0.85956242  1
  Mg  Mg10  1  0.85629312  0.17814706  0.39043758  1
  Mg  Mg11  1  0.85629312  0.17814706  0.85956242  1
  Mg  Mg12  1  0.83333300  0.66666700  0.36406718  1
  Mg  Mg13  1  0.83333300  0.66666700  0.88593282  1
  Zr  Zr0  1  0.16666700  0.33333300  0.12500000  1
  C  C0  1  0.16666700  0.33333300  0.62500000  1
loop_
_geom_bond_atom_site_label_1
_geom_bond_atom_site_label_2
_geom_bond_distance
_geom_bond_site_symmetry_2
Mg0 Mg13 3.022649 1_454
Mg0 Mg12 3.022649 1_455
Mg0 Mg2 3.025215 1_565
Mg0 Mg4 3.025215 1_555
Mg0 Zr0 3.143284 1_555
Mg0 Zr0 3.143284 1_565
Mg0 Mg9 3.212575 1_554
Mg0 Mg8 3.212575 1_555
Mg0 Mg7 3.212581 1_564
Mg0 Mg6 3.212581 1_565
Mg0 Mg2 3.259892 1_455
Mg0 Mg4 3.259892 1_455
Mg1 Mg8 2.997550 1_555
Mg1 Mg9 2.997550 1_555
Mg1 Mg6 2.997557 1_565
Mg1 Mg7 2.997557 1_565
Mg1 Mg3 3.076552 1_455
Mg1 Mg5 3.076552 1_455
Mg1 Mg12 3.133570 1_455
Mg1 Mg13 3.133570 1_455
Mg1 Mg3 3.208555 1_565
Mg1 Mg5 3.208555 1_555
Mg2 Mg4 3.025215 1_545
Mg2 Zr0 3.143284 1_655
Mg2 Zr0 3.143284 1_555
Mg2 Mg7 3.212581 1_554
Mg2 Mg6 3.212581 1_555
Mg2 Mg4 3.259892 1_555
Mg3 Mg6 2.997557 1_555
Mg3 Mg7 2.997557 1_555
Mg3 Mg5 3.076552 1_555
Mg3 Mg5 3.208555 1_545
Mg4 Zr0 3.143284 1_555
Mg4 Zr0 3.143284 1_665
Mg4 Mg9 3.212581 1_554
Mg4 Mg8 3.212581 1_555
Mg5 Mg9 2.997557 1_555
Mg5 Mg8 2.997557 1_555
Mg6 Zr0 3.122540 1_555
Mg7 Zr0 3.122540 1_556
Mg8 Zr0 3.122546 1_555
Mg9 Zr0 3.122546 1_556
Mg10 Mg3 2.997550 1_555
Mg10 Mg5 2.997557 1_545
Mg10 Zr0 3.122546 1_655
Mg10 Mg12 3.155840 1_545
Mg10 Mg12 3.155840 1_555
Mg10 Mg2 3.212575 1_555
Mg10 Mg4 3.212581 1_545
Mg11 Mg3 2.997550 1_555
Mg11 Mg5 2.997557 1_545
Mg11 Zr0 3.122546 1_656
Mg11 Mg13 3.155840 1_545
Mg11 Mg13 3.155840 1_555
Mg11 Mg2 3.212575 1_556
Mg11 Mg4 3.212581 1_546
Mg12 Mg4 3.022642 1_555
Mg12 Mg2 3.022649 1_555
Mg12 Mg5 3.133563 1_555
Mg12 Mg3 3.133570 1_555
Mg12 Mg6 3.155840 1_665
Mg12 Mg6 3.155840 1_555
Mg12 Mg8 3.155840 1_555
Mg12 Mg8 3.155840 1_655
Mg13 Mg4 3.022642 1_556
Mg13 Mg2 3.022649 1_556
Mg13 Mg5 3.133563 1_555
Mg13 Mg3 3.133570 1_555
Mg13 Mg7 3.155840 1_665
Mg13 Mg7 3.155840 1_555
Mg13 Mg9 3.155840 1_555
Mg13 Mg9 3.155840 1_655
C0 Mg7 2.870408 1_555
C0 Mg6 2.870408 1_555
C0 Mg8 2.870415 1_555
C0 Mg9 2.870415 1_555
C0 Mg10 2.870415 1_455
C0 Mg11 2.870415 1_455
