# generated using pymatgen
data_CaMg14Bi
_symmetry_space_group_name_H-M   'P 1'
_cell_length_a   6.57699513
_cell_length_b   6.40011836
_cell_length_c   10.55966491
_cell_angle_alpha   90.00000000
_cell_angle_beta   90.00000000
_cell_angle_gamma   119.11430116
_symmetry_Int_Tables_number   1
_chemical_formula_structural   CaMg14Bi
_chemical_formula_sum   'Ca1 Mg14 Bi1'
_cell_volume   388.33232616
_cell_formula_units_Z   1
loop_
 _symmetry_equiv_pos_site_id
 _symmetry_equiv_pos_as_xyz
  1  'x, y, z'
loop_
 _atom_site_type_symbol
 _atom_site_label
 _atom_site_symmetry_multiplicity
 _atom_site_fract_x
 _atom_site_fract_y
 _atom_site_fract_z
 _atom_site_occupancy
  Ca  Ca0  1  0.16483587  0.33241744  0.12500000  1
  Mg  Mg0  1  0.16549917  0.33274908  0.62500000  1
  Mg  Mg1  1  0.16452313  0.83226106  0.62500000  1
  Mg  Mg2  1  0.66591609  0.33012583  0.12500000  1
  Mg  Mg3  1  0.66666586  0.33426578  0.62500000  1
  Mg  Mg4  1  0.66591609  0.83578926  0.12500000  1
  Mg  Mg5  1  0.66666586  0.83239908  0.62500000  1
  Mg  Mg6  1  0.33806424  0.16971077  0.38472678  1
  Mg  Mg7  1  0.33806424  0.16971077  0.86527322  1
  Mg  Mg8  1  0.33806424  0.66835447  0.38472678  1
  Mg  Mg9  1  0.33806424  0.66835447  0.86527322  1
  Mg  Mg10  1  0.82968972  0.16484536  0.38107087  1
  Mg  Mg11  1  0.82968972  0.16484536  0.86892913  1
  Mg  Mg12  1  0.82820338  0.66410219  0.37697706  1
  Mg  Mg13  1  0.82820338  0.66410219  0.87302294  1
  Bi  Bi0  1  0.17193481  0.83596690  0.12500000  1
loop_
_geom_bond_atom_site_label_1
_geom_bond_atom_site_label_2
_geom_bond_distance
_geom_bond_site_symmetry_2
Ca0 Mg4 3.274282 1_445
Ca0 Mg2 3.274282 1_455
Ca0 Mg4 3.302763 1_555
Ca0 Mg2 3.302763 1_555
Ca0 Mg11 3.319676 1_454
Ca0 Mg10 3.319676 1_455
Ca0 Mg6 3.325503 1_555
Ca0 Mg7 3.325503 1_554
Ca0 Mg8 3.325509 1_555
Ca0 Mg9 3.325509 1_554
Mg0 Mg7 3.157024 1_555
Mg0 Mg6 3.157024 1_555
Mg0 Mg9 3.157030 1_555
Mg0 Mg8 3.157030 1_555
Mg0 Mg1 3.200064 1_545
Mg0 Mg1 3.200064 1_555
Mg0 Mg10 3.218384 1_455
Mg0 Mg11 3.218384 1_455
Mg0 Mg5 3.285558 1_445
Mg0 Mg3 3.285558 1_455
Mg0 Mg5 3.291459 1_555
Mg0 Mg3 3.291459 1_555
Mg1 Mg8 3.163184 1_555
Mg1 Mg9 3.163184 1_555
Mg1 Mg6 3.163190 1_565
Mg1 Mg7 3.163190 1_565
Mg1 Mg13 3.254826 1_455
Mg1 Mg12 3.254826 1_455
Mg1 Mg3 3.274834 1_455
Mg1 Mg5 3.274835 1_455
Mg1 Mg3 3.302160 1_565
Mg1 Mg5 3.302161 1_555
Mg2 Mg4 3.163813 1_545
Mg2 Mg4 3.236306 1_555
Mg2 Mg6 3.327364 1_555
Mg2 Mg7 3.327364 1_554
Mg3 Mg7 3.162673 1_555
Mg3 Mg6 3.162673 1_555
Mg3 Mg5 3.188112 1_555
Mg3 Mg5 3.212006 1_545
Mg4 Mg8 3.327364 1_555
Mg4 Mg9 3.327364 1_554
Mg5 Mg9 3.162673 1_555
Mg5 Mg8 3.162673 1_555
Mg6 Mg8 3.191379 1_555
Mg6 Mg8 3.208740 1_545
Mg7 Mg9 3.191379 1_555
Mg7 Mg9 3.208740 1_545
Mg10 Mg3 3.176711 1_555
Mg10 Mg5 3.176718 1_545
Mg10 Mg12 3.200363 1_545
Mg10 Mg12 3.200363 1_555
Mg10 Mg8 3.248912 1_545
Mg10 Mg6 3.248913 1_555
Mg10 Mg2 3.271041 1_555
Mg10 Mg4 3.271047 1_545
Mg10 Mg8 3.328761 1_655
Mg10 Mg6 3.328761 1_655
Mg11 Mg3 3.176711 1_555
Mg11 Mg5 3.176718 1_545
Mg11 Mg13 3.200363 1_545
Mg11 Mg13 3.200363 1_555
Mg11 Mg9 3.248912 1_545
Mg11 Mg7 3.248913 1_555
Mg11 Mg2 3.271041 1_556
Mg11 Mg4 3.271047 1_546
Mg11 Mg9 3.328761 1_655
Mg11 Mg7 3.328761 1_655
Mg12 Mg5 3.203421 1_555
Mg12 Mg3 3.203427 1_555
Mg12 Mg6 3.238006 1_555
Mg12 Mg8 3.238006 1_555
Mg12 Mg4 3.250812 1_555
Mg12 Mg2 3.250818 1_555
Mg12 Mg6 3.341197 1_665
Mg12 Mg8 3.341198 1_655
Mg13 Mg5 3.203421 1_555
Mg13 Mg3 3.203427 1_555
Mg13 Mg7 3.238006 1_555
Mg13 Mg9 3.238006 1_555
Mg13 Mg4 3.250812 1_556
Mg13 Mg2 3.250818 1_556
Mg13 Mg7 3.341197 1_665
Mg13 Mg9 3.341198 1_655
Bi0 Ca0 3.200319 1_555
Bi0 Ca0 3.200319 1_565
Bi0 Mg2 3.249466 1_565
Bi0 Mg4 3.249466 1_555
Bi0 Mg13 3.313723 1_454
Bi0 Mg12 3.313723 1_455
Bi0 Mg8 3.317712 1_555
Bi0 Mg9 3.317712 1_554
Bi0 Mg6 3.317718 1_565
Bi0 Mg7 3.317718 1_564
Bi0 Mg2 3.327529 1_455
Bi0 Mg4 3.327530 1_455
