# generated using pymatgen
data_Y4Cu13Si2(SbO14)2
_symmetry_space_group_name_H-M   'P 1'
_cell_length_a   5.49058068
_cell_length_b   9.05577903
_cell_length_c   12.58533953
_cell_angle_alpha   88.55852708
_cell_angle_beta   77.41117332
_cell_angle_gamma   83.28537927
_symmetry_Int_Tables_number   1
_chemical_formula_structural   Y4Cu13Si2(SbO14)2
_chemical_formula_sum   'Y4 Cu13 Si2 Sb2 O28'
_cell_volume   606.52897057
_cell_formula_units_Z   1
loop_
 _symmetry_equiv_pos_site_id
 _symmetry_equiv_pos_as_xyz
  1  'x, y, z'
loop_
 _atom_site_type_symbol
 _atom_site_label
 _atom_site_symmetry_multiplicity
 _atom_site_fract_x
 _atom_site_fract_y
 _atom_site_fract_z
 _atom_site_occupancy
  Y  Y0  1  0.08569800  0.65284300  0.40758800  1
  Y  Y1  1  0.50960500  0.34680400  0.40711100  1
  Y  Y2  1  0.91675600  0.34602300  0.59225700  1
  Y  Y3  1  0.49291700  0.65287200  0.59278900  1
  Cu  Cu0  1  0.91985700  0.63742900  0.74410100  1
  Cu  Cu1  1  0.65863000  0.32489100  0.11917900  1
  Cu  Cu2  1  0.33385700  0.36227600  0.74417300  1
  Cu  Cu3  1  0.07996600  0.36355500  0.25526900  1
  Cu  Cu4  1  0.34016900  0.67410400  0.88140800  1
  Cu  Cu5  1  0.30914800  0.00059200  0.38007300  1
  Cu  Cu6  1  0.22231300  0.67409500  0.11895300  1
  Cu  Cu7  1  0.00207200  0.99970400  0.00013900  1
  Cu  Cu8  1  0.43054100  0.99932000  0.14217600  1
  Cu  Cu9  1  0.77818900  0.32398000  0.88059100  1
  Cu  Cu10  1  0.66313400  0.63804800  0.25530400  1
  Cu  Cu11  1  0.57423300  0.99799000  0.85559200  1
  Cu  Cu12  1  0.68595800  0.00201200  0.61877200  1
  Si  Si0  1  0.23783700  0.29032800  0.99959500  1
  Si  Si1  1  0.76309300  0.70968300  0.99971400  1
  Sb  Sb0  1  0.86488200  0.99997500  0.27118500  1
  Sb  Sb1  1  0.13464200  0.99949100  0.72829200  1
  O  O0  1  0.70003900  0.41749700  0.24861000  1
  O  O1  1  0.10681000  0.38897400  0.42144200  1
  O  O2  1  0.94059700  0.34142200  0.00023100  1
  O  O3  1  0.28983400  0.10714900  0.99916100  1
  O  O4  1  0.89592300  0.61112300  0.57957500  1
  O  O5  1  0.29713300  0.58307700  0.75157700  1
  O  O6  1  0.97527100  0.10268900  0.61160100  1
  O  O7  1  0.02486000  0.89600600  0.38734700  1
  O  O8  1  0.71572300  0.89257600  0.99870300  1
  O  O9  1  0.13421600  0.89652000  0.14778700  1
  O  O10  1  0.30749900  0.35624400  0.10826200  1
  O  O11  1  0.04891300  0.58452900  0.24914100  1
  O  O12  1  0.40978700  0.89652900  0.61155900  1
  O  O13  1  0.71933400  0.10376800  0.14806600  1
  O  O14  1  0.58370200  0.64511700  0.10842500  1
  O  O15  1  0.05916900  0.65640800  0.00032600  1
  O  O16  1  0.28276000  0.89572400  0.85052200  1
  O  O17  1  0.86600300  0.10449400  0.85009600  1
  O  O18  1  0.58774400  0.10320700  0.38774700  1
  O  O19  1  0.11514100  0.14615400  0.27676200  1
  O  O20  1  0.87800500  0.85383000  0.72774900  1
  O  O21  1  0.41517400  0.35708800  0.89134500  1
  O  O22  1  0.39188100  0.14620900  0.72353000  1
  O  O23  1  0.52833600  0.38941000  0.57861300  1
  O  O24  1  0.69238300  0.64227600  0.89164900  1
  O  O25  1  0.60700700  0.85547600  0.27439700  1
  O  O26  1  0.94971600  0.41774100  0.75184300  1
  O  O27  1  0.47458500  0.61163600  0.42147500  1
loop_
_geom_bond_atom_site_label_1
_geom_bond_atom_site_label_2
_geom_bond_distance
_geom_bond_site_symmetry_2
Cu0 O20 1.957171 1_555
Cu0 O26 1.978688 1_555
Cu0 O24 1.997592 1_555
Cu0 O5 2.094345 1_655
Cu0 O4 2.124198 1_555
Cu1 O0 1.919154 1_555
Cu1 O2 1.921691 1_555
Cu1 O10 1.949830 1_555
Cu1 O13 2.028090 1_555
Cu2 O22 1.959902 1_555
Cu2 O5 1.988553 1_555
Cu2 O21 1.995853 1_555
Cu2 O26 2.091913 1_455
Cu2 O23 2.146588 1_555
Cu3 O19 1.973183 1_555
Cu3 O11 1.989364 1_555
Cu3 O10 1.991830 1_555
Cu3 O0 2.105464 1_455
Cu3 O1 2.148243 1_555
Cu4 O15 1.919680 1_556
Cu4 O5 1.920105 1_555
Cu4 O24 1.953441 1_555
Cu4 O16 2.035803 1_555
Cu5 O18 1.901054 1_555
Cu5 O7 1.902861 1_545
Cu5 O19 2.179894 1_555
Cu5 O25 2.192625 1_545
Cu6 O11 1.919007 1_555
Cu6 O15 1.919764 1_555
Cu6 O14 1.946533 1_555
Cu6 O9 2.038433 1_555
Cu7 O8 1.945072 1_454
Cu7 O3 1.947726 1_564
Cu7 O9 2.279089 1_555
Cu7 O13 2.291359 1_465
Cu7 O16 2.300491 1_554
Cu7 O17 2.320243 1_464
Cu8 O9 1.954366 1_555
Cu8 O13 1.954453 1_565
Cu8 O3 2.265231 1_564
Cu8 O8 2.268921 1_554
Cu8 O25 2.388147 1_555
Cu8 O19 2.435611 1_565
Cu9 O26 1.919887 1_555
Cu9 O2 1.928067 1_556
Cu9 O21 1.955918 1_555
Cu9 O17 2.015936 1_555
Cu10 O25 1.969574 1_555
Cu10 O0 1.985848 1_555
Cu10 O14 1.987531 1_555
Cu10 O11 2.101829 1_655
Cu10 O27 2.142788 1_555
Cu11 O17 1.952183 1_565
Cu11 O16 1.953699 1_555
Cu11 O8 2.260254 1_555
Cu11 O3 2.275802 1_565
Cu11 O20 2.345540 1_555
Cu11 O22 2.421841 1_565
Cu12 O12 1.903438 1_545
Cu12 O6 1.906493 1_555
Cu12 O22 2.171657 1_555
Cu12 O20 2.236188 1_545
O0 Y1 2.159948 1_555
O1 Y1 2.168302 1_555
O1 Y2 2.221860 1_455
O1 Y0 2.382606 1_555
O2 Si0 1.641812 1_654
O3 Si0 1.649933 1_555
O4 Y3 2.171157 1_555
O4 Y0 2.231896 1_655
O4 Y2 2.392973 1_555
O5 Y3 2.169692 1_555
O6 Sb1 2.023789 1_645
O6 Y2 2.204495 1_555
O7 Sb0 2.022962 1_455
O7 Y0 2.205056 1_555
O8 Si1 1.646385 1_555
O9 Sb0 2.055363 1_455
O10 Si0 1.641783 1_554
O11 Y0 2.160283 1_555
O12 Sb1 2.020395 1_555
O12 Y3 2.208281 1_555
O13 Sb0 2.052770 1_545
O14 Si1 1.640395 1_554
O15 Si1 1.642362 1_454
O16 Sb1 2.050533 1_555
O17 Sb1 2.046807 1_645
O18 Sb0 2.025998 1_545
O18 Y1 2.206778 1_555
O19 Sb0 2.029141 1_445
O20 Sb1 2.040791 1_655
O21 Si0 1.639382 1_555
O22 Sb1 2.040017 1_545
O23 Y2 2.166183 1_555
O23 Y1 2.228479 1_555
O23 Y3 2.379020 1_555
O24 Si1 1.643288 1_555
O25 Sb0 2.030842 1_555
O26 Y2 2.177142 1_555
O27 Y0 2.168410 1_555
O27 Y3 2.223061 1_555
O27 Y1 2.391679 1_555
