# generated using pymatgen
data_Sm2Co16Ag
_symmetry_space_group_name_H-M   'P 1'
_cell_length_a   6.35946013
_cell_length_b   6.35945966
_cell_length_c   6.35946013
_cell_angle_alpha   83.56764821
_cell_angle_beta   83.56764681
_cell_angle_gamma   83.56764821
_symmetry_Int_Tables_number   1
_chemical_formula_structural   Sm2Co16Ag
_chemical_formula_sum   'Sm2 Co16 Ag1'
_cell_volume   252.67388275
_cell_formula_units_Z   1
loop_
 _symmetry_equiv_pos_site_id
 _symmetry_equiv_pos_as_xyz
  1  'x, y, z'
loop_
 _atom_site_type_symbol
 _atom_site_label
 _atom_site_symmetry_multiplicity
 _atom_site_fract_x
 _atom_site_fract_y
 _atom_site_fract_z
 _atom_site_occupancy
  Sm  Sm0  1  0.65228200  0.65228200  0.65228200  1
  Sm  Sm1  1  0.34390000  0.34390000  0.34390000  1
  Co  Co0  1  0.71124800  0.00098200  0.28983800  1
  Co  Co1  1  0.00098200  0.28983800  0.71124800  1
  Co  Co2  1  0.28983800  0.71124800  0.00098200  1
  Co  Co3  1  0.00098200  0.71124800  0.28983800  1
  Co  Co4  1  0.71124800  0.28983800  0.00098200  1
  Co  Co5  1  0.28983800  0.00098200  0.71124800  1
  Co  Co6  1  0.34425000  0.84795500  0.34425000  1
  Co  Co7  1  0.84795500  0.34425000  0.34425000  1
  Co  Co8  1  0.34425000  0.34425000  0.84795500  1
  Co  Co9  1  0.64946800  0.15831800  0.64946800  1
  Co  Co10  1  0.15831800  0.64946800  0.64946800  1
  Co  Co11  1  0.64946800  0.64946800  0.15831800  1
  Co  Co12  1  0.00615600  0.48778200  0.00615600  1
  Co  Co13  1  0.48778200  0.00615600  0.00615600  1
  Co  Co14  1  0.00615600  0.00615600  0.48778200  1
  Co  Co15  1  0.10805400  0.10805400  0.10805400  1
  Ag  Ag0  1  0.89782600  0.89782600  0.89782600  1
loop_
_geom_bond_atom_site_label_1
_geom_bond_atom_site_label_2
_geom_bond_distance
_geom_bond_site_symmetry_2
Co0 Co14 2.378049 1_655
Co0 Co13 2.413709 1_555
Co0 Co4 2.448025 1_555
Co0 Co3 2.455465 1_645
Co0 Co7 2.510566 1_555
Co0 Co11 2.557430 1_545
Co0 Co9 2.570882 1_555
Co0 Co6 2.601236 1_545
Co0 Co15 2.779027 1_655
Co0 Sm1 3.029528 1_555
Co0 Sm0 3.036168 1_545
Co1 Co12 2.378049 1_556
Co1 Co14 2.413708 1_555
Co1 Co5 2.448025 1_555
Co1 Co4 2.455466 1_456
Co1 Co8 2.510566 1_555
Co1 Co9 2.557430 1_455
Co1 Co10 2.570882 1_555
Co1 Co7 2.601236 1_455
Co1 Co15 2.779027 1_556
Co1 Sm1 3.029528 1_555
Co1 Sm0 3.036168 1_455
Co2 Co3 2.448025 1_555
Co2 Co5 2.455465 1_564
Co2 Co6 2.510566 1_555
Co2 Co8 2.601236 1_554
Co2 Sm1 3.029528 1_555
Co2 Sm0 3.036168 1_554
Co3 Co6 2.510566 1_555
Co3 Co7 2.601236 1_455
Co3 Sm1 3.029528 1_555
Co3 Sm0 3.036168 1_455
Co4 Co7 2.510566 1_555
Co4 Co9 2.557430 1_554
Co4 Co8 2.601236 1_554
Co4 Sm1 3.029528 1_555
Co4 Sm0 3.036168 1_554
Co5 Co8 2.510566 1_555
Co5 Co9 2.570882 1_555
Co5 Co6 2.601236 1_545
Co5 Sm1 3.029528 1_555
Co5 Sm0 3.036168 1_545
Co6 Sm0 2.998438 1_555
Co6 Sm1 3.153445 1_565
Co6 Sm1 3.206018 1_555
Co7 Co9 2.455653 1_555
Co7 Sm0 2.998438 1_555
Co7 Sm1 3.153445 1_655
Co7 Sm1 3.206018 1_555
Co8 Co9 2.455653 1_555
Co8 Sm0 2.998438 1_555
Co8 Sm1 3.153445 1_556
Co8 Sm1 3.206018 1_555
Co9 Sm1 2.960349 1_555
Co9 Sm0 3.145464 1_555
Co9 Sm0 3.214214 1_545
Co10 Co8 2.455653 1_555
Co10 Co6 2.455653 1_555
Co10 Co14 2.519436 1_565
Co10 Co12 2.519436 1_556
Co10 Co5 2.557430 1_565
Co10 Co2 2.557431 1_556
Co10 Co3 2.570882 1_555
Co10 Sm1 2.960349 1_555
Co10 Sm0 3.145465 1_555
Co10 Sm0 3.214214 1_455
Co11 Co7 2.455653 1_555
Co11 Co6 2.455653 1_555
Co11 Co13 2.519436 1_565
Co11 Co12 2.519436 1_655
Co11 Co3 2.557431 1_655
Co11 Co4 2.570882 1_555
Co11 Co2 2.570882 1_555
Co11 Sm1 2.960349 1_555
Co11 Sm0 3.145465 1_555
Co11 Sm0 3.214214 1_554
Co12 Co4 2.378049 1_455
Co12 Co7 2.397837 1_455
Co12 Co8 2.397837 1_554
Co12 Co2 2.413708 1_555
Co12 Co3 2.413708 1_555
Co12 Co15 2.462572 1_555
Co12 Sm1 3.196388 1_555
Co13 Co2 2.378049 1_545
Co13 Co5 2.378049 1_554
Co13 Co8 2.397837 1_554
Co13 Co6 2.397837 1_545
Co13 Co4 2.413708 1_555
Co13 Co15 2.462572 1_555
Co13 Co9 2.519436 1_554
Co13 Sm1 3.196388 1_555
Co14 Co3 2.378049 1_545
Co14 Co7 2.397837 1_455
Co14 Co6 2.397837 1_545
Co14 Co5 2.413709 1_555
Co14 Co15 2.462572 1_555
Co14 Co9 2.519436 1_455
Co14 Sm1 3.196388 1_555
Co15 Co8 2.576944 1_554
Co15 Co7 2.576944 1_455
Co15 Co6 2.576944 1_545
Co15 Co3 2.779027 1_545
Co15 Co2 2.779027 1_545
Co15 Co5 2.779027 1_554
Co15 Co4 2.779027 1_455
Co15 Sm1 2.874159 1_555
Ag0 Co15 2.561963 1_666
Ag0 Co12 2.655261 1_656
Ag0 Co14 2.655261 1_665
Ag0 Co13 2.655261 1_566
Ag0 Co11 2.668312 1_556
Ag0 Co10 2.668312 1_655
Ag0 Co9 2.668312 1_565
Ag0 Co4 2.753626 1_566
Ag0 Co1 2.753626 1_665
Ag0 Co5 2.753626 1_665
Ag0 Co0 2.753626 1_566
Ag0 Co3 2.753626 1_656
Ag0 Co2 2.753626 1_656
Ag0 Sm0 2.992344 1_555
