# generated using pymatgen
data_CoRhS4
_symmetry_space_group_name_H-M   'P 1'
_cell_length_a   5.63934248
_cell_length_b   5.64345070
_cell_length_c   5.66721739
_cell_angle_alpha   90.05311546
_cell_angle_beta   90.00002453
_cell_angle_gamma   89.99999247
_symmetry_Int_Tables_number   1
_chemical_formula_structural   CoRhS4
_chemical_formula_sum   'Co2 Rh2 S8'
_cell_volume   180.36110667
_cell_formula_units_Z   2
loop_
 _symmetry_equiv_pos_site_id
 _symmetry_equiv_pos_as_xyz
  1  'x, y, z'
loop_
 _atom_site_type_symbol
 _atom_site_label
 _atom_site_symmetry_multiplicity
 _atom_site_fract_x
 _atom_site_fract_y
 _atom_site_fract_z
 _atom_site_occupancy
  Co  Co0  1  0.50000000  0.00000000  0.50000000  1
  Co  Co1  1  -0.00000000  0.50000000  0.50000000  1
  Rh  Rh0  1  0.50000000  0.50000000  0.00000000  1
  Rh  Rh1  1  -0.00000000  0.00000000  0.00000000  1
  S  S0  1  0.89336325  0.60642299  0.88818841  1
  S  S1  1  0.39337456  0.89356664  0.11181134  1
  S  S2  1  0.10819797  0.10922208  0.60302737  1
  S  S3  1  0.60819557  0.39078824  0.39696962  1
  S  S4  1  0.10663675  0.39357701  0.11181159  1
  S  S5  1  0.60662544  0.10643336  0.88818866  1
  S  S6  1  0.89180203  0.89077792  0.39697263  1
  S  S7  1  0.39180443  0.60921176  0.60303038  1
loop_
_geom_bond_atom_site_label_1
_geom_bond_atom_site_label_2
_geom_bond_distance
_geom_bond_site_symmetry_2
Co0 S5 2.357895 1_555
Co0 S1 2.357895 1_545
Co0 S3 2.362069 1_555
Co0 S7 2.362069 1_545
Co0 S6 2.366875 1_545
Co0 S2 2.366875 1_555
Co1 S4 2.357895 1_555
Co1 S0 2.357895 1_455
Co1 S2 2.362014 1_555
Co1 S6 2.362014 1_455
Co1 S7 2.366877 1_555
Co1 S3 2.366877 1_455
Rh0 S4 2.384081 1_555
Rh0 S0 2.384081 1_554
Rh0 S5 2.386135 1_554
Rh0 S1 2.386135 1_555
Rh0 S3 2.411624 1_555
Rh0 S7 2.411624 1_554
Rh1 S1 2.384155 1_545
Rh1 S5 2.384155 1_454
Rh1 S0 2.386206 1_444
Rh1 S4 2.386206 1_555
Rh1 S6 2.411658 1_445
Rh1 S2 2.411658 1_554
S0 S4 2.120922 1_656
S1 S5 2.120916 1_564
S2 S6 2.090440 1_445
S3 S7 2.090375 1_555
