# generated using pymatgen
data_Li9Mn7O16
_symmetry_space_group_name_H-M   'P 1'
_cell_length_a   5.83286300
_cell_length_b   6.01284289
_cell_length_c   10.10706853
_cell_angle_alpha   87.15553415
_cell_angle_beta   106.64827645
_cell_angle_gamma   118.38382118
_symmetry_Int_Tables_number   1
_chemical_formula_structural   Li9Mn7O16
_chemical_formula_sum   'Li9 Mn7 O16'
_cell_volume   297.20917037
_cell_formula_units_Z   1
loop_
 _symmetry_equiv_pos_site_id
 _symmetry_equiv_pos_as_xyz
  1  'x, y, z'
loop_
 _atom_site_type_symbol
 _atom_site_label
 _atom_site_symmetry_multiplicity
 _atom_site_fract_x
 _atom_site_fract_y
 _atom_site_fract_z
 _atom_site_occupancy
  Li  Li0  1  0.00528400  0.75463100  0.24910000  1
  Li  Li1  1  0.00000000  0.00000000  0.00000000  1
  Li  Li2  1  0.99471600  0.24536900  0.75090000  1
  Li  Li3  1  0.49462500  0.24397600  0.24613500  1
  Li  Li4  1  0.50000000  0.50000000  0.00000000  1
  Li  Li5  1  0.50537500  0.75602400  0.75386500  1
  Li  Li6  1  0.50000000  0.00000000  0.50000000  1
  Li  Li7  1  0.00000000  0.50000000  0.50000000  1
  Li  Li8  1  0.00000000  0.50000000  0.00000000  1
  Mn  Mn0  1  0.99465000  0.24465000  0.24485300  1
  Mn  Mn1  1  0.50000000  0.00000000  0.00000000  1
  Mn  Mn2  1  0.00535000  0.75535000  0.75514700  1
  Mn  Mn3  1  0.00000000  0.00000000  0.50000000  1
  Mn  Mn4  1  0.48790300  0.73714300  0.24487800  1
  Mn  Mn5  1  0.51209700  0.26285700  0.75512200  1
  Mn  Mn6  1  0.50000000  0.50000000  0.50000000  1
  O  O0  1  0.22202300  0.11589000  0.37360800  1
  O  O1  1  0.24614800  0.38469300  0.13795200  1
  O  O2  1  0.26657000  0.67569900  0.88291400  1
  O  O3  1  0.72165100  0.61729700  0.37169700  1
  O  O4  1  0.71840200  0.85919200  0.11721000  1
  O  O5  1  0.72477300  0.12398400  0.87398700  1
  O  O6  1  0.73004800  0.36940400  0.62219200  1
  O  O7  1  0.24016700  0.89106900  0.63030100  1
  O  O8  1  0.73343000  0.32430100  0.11708600  1
  O  O9  1  0.75385200  0.61530700  0.86204800  1
  O  O10  1  0.77797700  0.88411000  0.62639200  1
  O  O11  1  0.27522700  0.87601600  0.12601300  1
  O  O12  1  0.28159800  0.14080800  0.88279000  1
  O  O13  1  0.27834900  0.38270300  0.62830300  1
  O  O14  1  0.26995200  0.63059600  0.37780800  1
  O  O15  1  0.75983300  0.10893100  0.36969900  1
loop_
_geom_bond_atom_site_label_1
_geom_bond_atom_site_label_2
_geom_bond_distance
_geom_bond_site_symmetry_2
Li0 O14 2.116447 1_555
Li0 O11 2.121130 1_555
Li0 O4 2.147379 1_455
Li0 O0 2.156180 1_565
Li0 O3 2.174501 1_455
Li0 O8 2.493857 1_455
Li1 O12 2.123988 1_554
Li1 O4 2.123988 1_445
Li1 O5 2.151076 1_454
Li1 O11 2.151076 1_545
Li1 O1 2.317633 1_555
Li1 O9 2.317633 1_444
Li2 O6 2.116447 1_555
Li2 O5 2.121130 1_555
Li2 O12 2.147379 1_655
Li2 O10 2.156180 1_545
Li2 O13 2.174501 1_655
Li2 O2 2.493857 1_655
Li3 O1 2.044032 1_555
Li3 O8 2.052698 1_555
Li3 O15 2.144441 1_555
Li3 O11 2.165918 1_545
Li3 O0 2.166191 1_555
Li3 O3 2.212815 1_555
Li4 O12 2.112864 1_554
Li4 O4 2.112864 1_555
Li4 O2 2.165787 1_554
Li4 O8 2.165787 1_555
Li4 O1 2.174427 1_555
Li4 O9 2.174427 1_554
Li5 O9 2.044032 1_555
Li5 O2 2.052698 1_555
Li5 O7 2.144441 1_555
Li5 O5 2.165918 1_565
Li5 O10 2.166191 1_555
Li5 O13 2.212815 1_555
Li6 O10 2.132001 1_545
Li6 O0 2.132001 1_555
Li6 O7 2.138833 1_545
Li6 O15 2.138833 1_555
Li6 O6 2.179081 1_555
Li6 O14 2.179081 1_545
Li7 O14 2.112733 1_555
Li7 O6 2.112733 1_455
Li7 O13 2.146292 1_555
Li7 O3 2.146292 1_455
Li7 O7 2.311816 1_555
Li7 O15 2.311816 1_455
Li8 O1 2.046836 1_555
Li8 O9 2.046836 1_454
Li8 O2 2.074275 1_554
Li8 O8 2.074275 1_455
Li8 O11 2.230353 1_555
Li8 O5 2.230353 1_454
Mn0 O1 1.916208 1_655
Mn0 O8 1.929637 1_555
Mn0 O0 1.984715 1_655
Mn0 O15 1.989855 1_555
Mn0 O4 2.277596 1_545
Mn0 O14 2.302132 1_655
Mn1 O12 1.950447 1_554
Mn1 O4 1.950447 1_545
Mn1 O11 1.957056 1_545
Mn1 O5 1.957056 1_554
Mn1 O8 1.959132 1_555
Mn1 O2 1.959132 1_544
Mn2 O9 1.916208 1_455
Mn2 O2 1.929637 1_555
Mn2 O10 1.984715 1_455
Mn2 O7 1.989855 1_555
Mn2 O12 2.277596 1_565
Mn2 O6 2.302132 1_455
Mn3 O0 1.948374 1_555
Mn3 O10 1.948374 1_445
Mn3 O7 1.963529 1_545
Mn3 O15 1.963529 1_455
Mn3 O13 2.269479 1_555
Mn3 O3 2.269479 1_445
Mn4 O11 1.926335 1_555
Mn4 O3 1.965253 1_555
Mn4 O14 1.987604 1_555
Mn4 O4 1.993276 1_555
Mn4 O1 2.039708 1_555
Mn4 O15 2.206132 1_565
Mn5 O5 1.926335 1_555
Mn5 O13 1.965253 1_555
Mn5 O6 1.987604 1_555
Mn5 O12 1.993276 1_555
Mn5 O9 2.039708 1_555
Mn5 O7 2.206132 1_545
Mn6 O3 1.963023 1_555
Mn6 O13 1.963023 1_555
Mn6 O6 1.974431 1_555
Mn6 O14 1.974431 1_555
Mn6 O10 2.267312 1_555
Mn6 O0 2.267312 1_555
