# generated using pymatgen
data_K2TiF5
_symmetry_space_group_name_H-M   'P 1'
_cell_length_a   7.58933900
_cell_length_b   13.09006200
_cell_length_c   20.98014800
_cell_angle_alpha   90.00000000
_cell_angle_beta   90.00000000
_cell_angle_gamma   90.00000000
_symmetry_Int_Tables_number   1
_chemical_formula_structural   K2TiF5
_chemical_formula_sum   'K32 Ti16 F80'
_cell_volume   2084.27108372
_cell_formula_units_Z   16
loop_
 _symmetry_equiv_pos_site_id
 _symmetry_equiv_pos_as_xyz
  1  'x, y, z'
loop_
 _atom_site_type_symbol
 _atom_site_label
 _atom_site_symmetry_multiplicity
 _atom_site_fract_x
 _atom_site_fract_y
 _atom_site_fract_z
 _atom_site_occupancy
  K  K0  1  0.50000000  0.92984600  0.75000000  1
  K  K1  1  0.00000000  0.57015400  0.25000000  1
  K  K2  1  0.50000000  0.07015400  0.25000000  1
  K  K3  1  0.00000000  0.42984600  0.75000000  1
  K  K4  1  0.50982300  0.73359300  0.50589500  1
  K  K5  1  0.99017700  0.76640700  0.00589500  1
  K  K6  1  0.00982300  0.76640700  0.49410500  1
  K  K7  1  0.49017700  0.73359300  0.99410500  1
  K  K8  1  0.49017700  0.26640700  0.49410500  1
  K  K9  1  0.00982300  0.23359300  0.99410500  1
  K  K10  1  0.99017700  0.23359300  0.50589500  1
  K  K11  1  0.50982300  0.26640700  0.00589500  1
  K  K12  1  0.50000000  0.46382000  0.75000000  1
  K  K13  1  0.00000000  0.03618000  0.25000000  1
  K  K14  1  0.50000000  0.53618000  0.25000000  1
  K  K15  1  0.00000000  0.96382000  0.75000000  1
  K  K16  1  0.84781800  0.48333100  0.58295500  1
  K  K17  1  0.65218200  0.01666900  0.08295500  1
  K  K18  1  0.34781800  0.01666900  0.41704500  1
  K  K19  1  0.15218200  0.48333100  0.91704500  1
  K  K20  1  0.15218200  0.51666900  0.41704500  1
  K  K21  1  0.34781800  0.98333100  0.91704500  1
  K  K22  1  0.65218200  0.98333100  0.58295500  1
  K  K23  1  0.84781800  0.51666900  0.08295500  1
  K  K24  1  0.14422600  0.71418000  0.66421100  1
  K  K25  1  0.35577400  0.78582000  0.16421100  1
  K  K26  1  0.64422600  0.78582000  0.33578900  1
  K  K27  1  0.85577400  0.71418000  0.83578900  1
  K  K28  1  0.85577400  0.28582000  0.33578900  1
  K  K29  1  0.64422600  0.21418000  0.83578900  1
  K  K30  1  0.35577400  0.21418000  0.66421100  1
  K  K31  1  0.14422600  0.28582000  0.16421100  1
  Ti  Ti0  1  0.66174300  0.69865400  0.67179000  1
  Ti  Ti1  1  0.83825700  0.80134600  0.17179000  1
  Ti  Ti2  1  0.16174300  0.80134600  0.32821000  1
  Ti  Ti3  1  0.33825700  0.69865400  0.82821000  1
  Ti  Ti4  1  0.33825700  0.30134600  0.32821000  1
  Ti  Ti5  1  0.16174300  0.19865400  0.82821000  1
  Ti  Ti6  1  0.83825700  0.19865400  0.67179000  1
  Ti  Ti7  1  0.66174300  0.30134600  0.17179000  1
  Ti  Ti8  1  0.33467300  0.50039000  0.57682600  1
  Ti  Ti9  1  0.16532700  0.99961000  0.07682600  1
  Ti  Ti10  1  0.83467300  0.99961000  0.42317400  1
  Ti  Ti11  1  0.66532700  0.50039000  0.92317400  1
  Ti  Ti12  1  0.66532700  0.49961000  0.42317400  1
  Ti  Ti13  1  0.83467300  0.00039000  0.92317400  1
  Ti  Ti14  1  0.16532700  0.00039000  0.57682600  1
  Ti  Ti15  1  0.33467300  0.49961000  0.07682600  1
  F  F0  1  0.22373900  0.62491100  0.53876300  1
  F  F1  1  0.27626100  0.87508900  0.03876300  1
  F  F2  1  0.72373900  0.87508900  0.46123700  1
  F  F3  1  0.77626100  0.62491100  0.96123700  1
  F  F4  1  0.77626100  0.37508900  0.46123700  1
  F  F5  1  0.72373900  0.12491100  0.96123700  1
  F  F6  1  0.27626100  0.12491100  0.53876300  1
  F  F7  1  0.22373900  0.37508900  0.03876300  1
  F  F8  1  0.79434300  0.58119000  0.70345900  1
  F  F9  1  0.70565700  0.91881000  0.20345900  1
  F  F10  1  0.29434300  0.91881000  0.29654100  1
  F  F11  1  0.20565700  0.58119000  0.79654100  1
  F  F12  1  0.20565700  0.41881000  0.29654100  1
  F  F13  1  0.29434300  0.08119000  0.79654100  1
  F  F14  1  0.70565700  0.08119000  0.70345900  1
  F  F15  1  0.79434300  0.41881000  0.20345900  1
  F  F16  1  0.17306600  0.41321700  0.53022000  1
  F  F17  1  0.32693400  0.08678300  0.03022000  1
  F  F18  1  0.67306600  0.08678300  0.46978000  1
  F  F19  1  0.82693400  0.41321700  0.96978000  1
  F  F20  1  0.82693400  0.58678300  0.46978000  1
  F  F21  1  0.67306600  0.91321700  0.96978000  1
  F  F22  1  0.32693400  0.91321700  0.53022000  1
  F  F23  1  0.17306600  0.58678300  0.03022000  1
  F  F24  1  0.80045100  0.79903000  0.72233500  1
  F  F25  1  0.69954900  0.70097000  0.22233500  1
  F  F26  1  0.30045100  0.70097000  0.27766500  1
  F  F27  1  0.19954900  0.79903000  0.77766500  1
  F  F28  1  0.19954900  0.20097000  0.27766500  1
  F  F29  1  0.30045100  0.29903000  0.77766500  1
  F  F30  1  0.69954900  0.29903000  0.72233500  1
  F  F31  1  0.80045100  0.20097000  0.22233500  1
  F  F32  1  0.81564000  0.70152000  0.59637300  1
  F  F33  1  0.68436000  0.79848000  0.09637300  1
  F  F34  1  0.31564000  0.79848000  0.40362700  1
  F  F35  1  0.18436000  0.70152000  0.90362700  1
  F  F36  1  0.18436000  0.29848000  0.40362700  1
  F  F37  1  0.31564000  0.20152000  0.90362700  1
  F  F38  1  0.68436000  0.20152000  0.59637300  1
  F  F39  1  0.81564000  0.29848000  0.09637300  1
  F  F40  1  0.50964300  0.80481300  0.64032500  1
  F  F41  1  0.99035700  0.69518700  0.14032500  1
  F  F42  1  0.00964300  0.69518700  0.35967500  1
  F  F43  1  0.49035700  0.80481300  0.85967500  1
  F  F44  1  0.49035700  0.19518700  0.35967500  1
  F  F45  1  0.00964300  0.30481300  0.85967500  1
  F  F46  1  0.99035700  0.30481300  0.64032500  1
  F  F47  1  0.50964300  0.19518700  0.14032500  1
  F  F48  1  0.46885800  0.38907800  0.61322300  1
  F  F49  1  0.03114200  0.11092200  0.11322300  1
  F  F50  1  0.96885800  0.11092200  0.38677700  1
  F  F51  1  0.53114200  0.38907800  0.88677700  1
  F  F52  1  0.53114200  0.61092200  0.38677700  1
  F  F53  1  0.96885800  0.88907800  0.88677700  1
  F  F54  1  0.03114200  0.88907800  0.61322300  1
  F  F55  1  0.46885800  0.61092200  0.11322300  1
  F  F56  1  0.17729000  0.51097900  0.65181000  1
  F  F57  1  0.32271000  0.98902100  0.15181000  1
  F  F58  1  0.67729000  0.98902100  0.34819000  1
  F  F59  1  0.82271000  0.51097900  0.84819000  1
  F  F60  1  0.82271000  0.48902100  0.34819000  1
  F  F61  1  0.67729000  0.01097900  0.84819000  1
  F  F62  1  0.32271000  0.01097900  0.65181000  1
  F  F63  1  0.17729000  0.48902100  0.15181000  1
  F  F64  1  0.50000000  0.68370400  0.75000000  1
  F  F65  1  0.00000000  0.81629600  0.25000000  1
  F  F66  1  0.50000000  0.31629600  0.25000000  1
  F  F67  1  0.00000000  0.18370400  0.75000000  1
  F  F68  1  0.50000000  0.50000000  0.50000000  1
  F  F69  1  0.00000000  0.00000000  0.00000000  1
  F  F70  1  0.00000000  0.00000000  0.50000000  1
  F  F71  1  0.50000000  0.50000000  0.00000000  1
  F  F72  1  0.50417200  0.59684400  0.62276600  1
  F  F73  1  0.99582800  0.90315600  0.12276600  1
  F  F74  1  0.00417200  0.90315600  0.37723400  1
  F  F75  1  0.49582800  0.59684400  0.87723400  1
  F  F76  1  0.49582800  0.40315600  0.37723400  1
  F  F77  1  0.00417200  0.09684400  0.87723400  1
  F  F78  1  0.99582800  0.09684400  0.62276600  1
  F  F79  1  0.50417200  0.40315600  0.12276600  1
loop_
_geom_bond_atom_site_label_1
_geom_bond_atom_site_label_2
_geom_bond_distance
_geom_bond_site_symmetry_2
F0 Ti8 2.000848 1_555
F0 K6 2.635174 1_555
F0 K4 2.685799 1_555
F0 K24 2.942214 1_555
F0 K20 2.970472 1_555
F1 Ti9 2.000848 1_555
F1 K7 2.635174 1_554
F1 K5 2.685799 1_455
F1 K25 2.942214 1_555
F1 K21 2.970472 1_554
F2 Ti10 2.000848 1_555
F2 K4 2.635174 1_555
F2 K6 2.685799 1_655
F2 K26 2.942214 1_555
F2 K22 2.970472 1_555
F3 Ti11 2.000848 1_555
F3 K5 2.635174 1_556
F3 K7 2.685799 1_555
F3 K27 2.942214 1_555
F3 K23 2.970472 1_556
F4 Ti12 2.000848 1_555
F4 K10 2.635174 1_555
F4 K8 2.685799 1_555
F4 K28 2.942214 1_555
F4 K16 2.970472 1_555
F5 Ti13 2.000848 1_555
F5 K11 2.635174 1_556
F5 K9 2.685799 1_655
F5 K29 2.942214 1_555
F5 K17 2.970472 1_556
F6 Ti14 2.000848 1_555
F6 K8 2.635174 1_555
F6 K10 2.685799 1_455
F6 K30 2.942214 1_555
F6 K18 2.970472 1_555
F7 Ti15 2.000848 1_555
F7 K9 2.635174 1_554
F7 K11 2.685799 1_555
F7 K31 2.942214 1_555
F7 K19 2.970472 1_554
F8 Ti0 1.954082 1_555
F8 K3 2.704495 1_655
F8 K16 2.863105 1_555
F8 K12 2.881677 1_555
F9 Ti1 1.954082 1_555
F9 K2 2.704495 1_565
F9 K17 2.863105 1_565
F9 K13 2.881677 1_665
F10 Ti2 1.954082 1_555
F10 K2 2.704495 1_565
F10 K18 2.863105 1_565
F10 K13 2.881677 1_565
F11 Ti3 1.954082 1_555
F11 K3 2.704495 1_555
F11 K19 2.863105 1_555
F11 K12 2.881677 1_555
F12 Ti4 1.954082 1_555
F12 K1 2.704495 1_555
F12 K20 2.863105 1_555
F12 K14 2.881677 1_555
F13 Ti5 1.954082 1_555
F13 K0 2.704495 1_545
F13 K21 2.863105 1_545
F13 K15 2.881677 1_545
F14 Ti6 1.954082 1_555
F14 K0 2.704495 1_545
F14 K22 2.863105 1_545
F14 K15 2.881677 1_645
F15 Ti7 1.954082 1_555
F15 K1 2.704495 1_655
F15 K23 2.863105 1_555
F15 K14 2.881677 1_555
F16 Ti8 1.939712 1_555
F16 K20 2.738041 1_555
F16 K10 2.777692 1_455
F16 K16 2.856489 1_455
F16 K8 3.171634 1_555
F17 Ti9 1.939712 1_545
F17 K21 2.738041 1_544
F17 K11 2.777692 1_555
F17 K17 2.856489 1_555
F17 K9 3.171634 1_554
F18 Ti10 1.939712 1_545
F18 K22 2.738041 1_545
F18 K8 2.777692 1_555
F18 K18 2.856489 1_555
F18 K10 3.171634 1_555
F19 Ti11 1.939712 1_555
F19 K23 2.738041 1_556
F19 K9 2.777692 1_655
F19 K19 2.856489 1_655
F19 K11 3.171634 1_556
F20 Ti12 1.939712 1_555
F20 K16 2.738041 1_555
F20 K6 2.777692 1_655
F20 K20 2.856489 1_655
F20 K4 3.171634 1_555
F21 Ti13 1.939712 1_565
F21 K17 2.738041 1_566
F21 K7 2.777692 1_555
F21 K21 2.856489 1_555
F21 K5 3.171634 1_556
F22 Ti14 1.939712 1_565
F22 K18 2.738041 1_565
F22 K4 2.777692 1_555
F22 K22 2.856489 1_555
F22 K6 3.171634 1_555
F23 Ti15 1.939712 1_555
F23 K19 2.738041 1_554
F23 K5 2.777692 1_455
F23 K23 2.856489 1_455
F23 K7 3.171634 1_554
F24 Ti0 1.989755 1_555
F24 K27 2.660012 1_555
F24 K15 2.698806 1_655
F24 K0 2.910083 1_555
F24 K24 3.086698 1_655
F25 Ti1 1.989755 1_555
F25 K26 2.660012 1_555
F25 K14 2.698806 1_555
F25 K1 2.910083 1_655
F25 K25 3.086698 1_555
F26 Ti2 1.989755 1_555
F26 K25 2.660012 1_555
F26 K14 2.698806 1_555
F26 K1 2.910083 1_555
F26 K26 3.086698 1_555
F27 Ti3 1.989755 1_555
F27 K24 2.660012 1_555
F27 K15 2.698806 1_555
F27 K0 2.910083 1_555
F27 K27 3.086698 1_455
F28 Ti4 1.989755 1_555
F28 K31 2.660012 1_555
F28 K13 2.698806 1_555
F28 K2 2.910083 1_555
F28 K28 3.086698 1_455
F29 Ti5 1.989755 1_555
F29 K30 2.660012 1_555
F29 K12 2.698806 1_555
F29 K3 2.910083 1_555
F29 K29 3.086698 1_555
F30 Ti6 1.989755 1_555
F30 K29 2.660012 1_555
F30 K12 2.698806 1_555
F30 K3 2.910083 1_655
F30 K30 3.086698 1_555
F31 Ti7 1.989755 1_555
F31 K28 2.660012 1_555
F31 K13 2.698806 1_655
F31 K2 2.910083 1_555
F31 K31 3.086698 1_655
F32 Ti0 1.967009 1_555
F32 K6 2.738043 1_655
F32 K24 2.876091 1_655
F32 K16 2.880319 1_555
F32 K4 3.027605 1_555
F33 Ti1 1.967009 1_555
F33 K7 2.738043 1_554
F33 K25 2.876091 1_555
F33 K17 2.880319 1_565
F33 K5 3.027605 1_555
F34 Ti2 1.967009 1_555
F34 K4 2.738043 1_555
F34 K26 2.876091 1_555
F34 K18 2.880319 1_565
F34 K6 3.027605 1_555
F35 Ti3 1.967009 1_555
F35 K5 2.738043 1_456
F35 K27 2.876091 1_455
F35 K19 2.880319 1_555
F35 K7 3.027605 1_555
F36 Ti4 1.967009 1_555
F36 K10 2.738043 1_455
F36 K28 2.876091 1_455
F36 K20 2.880319 1_555
F36 K8 3.027605 1_555
F37 Ti5 1.967009 1_555
F37 K11 2.738043 1_556
F37 K29 2.876091 1_555
F37 K21 2.880319 1_545
F37 K9 3.027605 1_555
F38 Ti6 1.967009 1_555
F38 K8 2.738043 1_555
F38 K30 2.876091 1_555
F38 K22 2.880319 1_545
F38 K10 3.027605 1_555
F39 Ti7 1.967009 1_555
F39 K9 2.738043 1_654
F39 K31 2.876091 1_655
F39 K23 2.880319 1_555
F39 K11 3.027605 1_555
F40 Ti0 1.923369 1_555
F40 K0 2.824659 1_555
F40 K22 2.842474 1_555
F40 K4 2.970450 1_555
F40 K24 3.057729 1_555
F41 Ti1 1.923369 1_555
F41 K1 2.824659 1_655
F41 K23 2.842474 1_555
F41 K5 2.970450 1_555
F41 K25 3.057729 1_655
F42 Ti2 1.923369 1_555
F42 K1 2.824659 1_555
F42 K20 2.842474 1_555
F42 K6 2.970450 1_555
F42 K26 3.057729 1_455
F43 Ti3 1.923369 1_555
F43 K0 2.824659 1_555
F43 K21 2.842474 1_555
F43 K7 2.970450 1_555
F43 K27 3.057729 1_555
F44 Ti4 1.923369 1_555
F44 K2 2.824659 1_555
F44 K18 2.842474 1_555
F44 K8 2.970450 1_555
F44 K28 3.057729 1_555
F45 Ti5 1.923369 1_555
F45 K3 2.824659 1_555
F45 K19 2.842474 1_555
F45 K9 2.970450 1_555
F45 K29 3.057729 1_455
F46 Ti6 1.923369 1_555
F46 K3 2.824659 1_655
F46 K16 2.842474 1_555
F46 K10 2.970450 1_555
F46 K30 3.057729 1_655
F47 Ti7 1.923369 1_555
F47 K2 2.824659 1_555
F47 K17 2.842474 1_555
F47 K11 2.970450 1_555
F47 K31 3.057729 1_555
F48 Ti8 1.934756 1_555
F48 K30 2.668777 1_555
F48 K8 2.974936 1_555
F48 K12 3.041003 1_555
F48 K16 3.193300 1_555
F49 Ti9 1.934756 1_545
F49 K31 2.668777 1_555
F49 K9 2.974936 1_554
F49 K13 3.041003 1_555
F49 K17 3.193300 1_455
F50 Ti10 1.934756 1_545
F50 K28 2.668777 1_555
F50 K10 2.974936 1_555
F50 K13 3.041003 1_655
F50 K18 3.193300 1_655
F51 Ti11 1.934756 1_555
F51 K29 2.668777 1_555
F51 K11 2.974936 1_556
F51 K12 3.041003 1_555
F51 K19 3.193300 1_555
F52 Ti12 1.934756 1_555
F52 K26 2.668777 1_555
F52 K4 2.974936 1_555
F52 K14 3.041003 1_555
F52 K20 3.193300 1_555
F53 Ti13 1.934756 1_565
F53 K27 2.668777 1_555
F53 K5 2.974936 1_556
F53 K15 3.041003 1_655
F53 K21 3.193300 1_655
F54 Ti14 1.934756 1_565
F54 K24 2.668777 1_555
F54 K6 2.974936 1_555
F54 K15 3.041003 1_555
F54 K22 3.193300 1_455
F55 Ti15 1.934756 1_555
F55 K25 2.668777 1_555
F55 K7 2.974936 1_554
F55 K14 3.041003 1_555
F55 K23 3.193300 1_555
F56 Ti8 1.980092 1_555
F56 K3 2.679943 1_555
F56 K24 2.684362 1_555
F56 K16 2.910359 1_455
F56 K12 3.259326 1_555
F57 Ti9 1.980092 1_555
F57 K2 2.679943 1_565
F57 K25 2.684362 1_555
F57 K17 2.910359 1_565
F57 K13 3.259326 1_565
F58 Ti10 1.980092 1_555
F58 K2 2.679943 1_565
F58 K26 2.684362 1_555
F58 K18 2.910359 1_565
F58 K13 3.259326 1_665
F59 Ti11 1.980092 1_555
F59 K3 2.679943 1_655
F59 K27 2.684362 1_555
F59 K19 2.910359 1_655
F59 K12 3.259326 1_555
F60 Ti12 1.980092 1_555
F60 K1 2.679943 1_655
F60 K28 2.684362 1_555
F60 K20 2.910359 1_655
F60 K14 3.259326 1_555
F61 Ti13 1.980092 1_555
F61 K0 2.679943 1_545
F61 K29 2.684362 1_555
F61 K21 2.910359 1_545
F61 K15 3.259326 1_645
F62 Ti14 1.980092 1_555
F62 K0 2.679943 1_545
F62 K30 2.684362 1_555
F62 K22 2.910359 1_545
F62 K15 3.259326 1_545
F63 Ti15 1.980092 1_555
F63 K1 2.679943 1_555
F63 K31 2.684362 1_555
F63 K23 2.910359 1_455
F63 K14 3.259326 1_555
F64 Ti0 2.058524 1_555
F64 Ti3 2.058524 1_555
F64 K12 2.878295 1_555
F65 Ti2 2.058524 1_555
F65 Ti1 2.058524 1_455
F65 K13 2.878295 1_565
F66 Ti7 2.058524 1_555
F66 Ti4 2.058524 1_555
F66 K14 2.878295 1_555
F67 Ti5 2.058524 1_555
F67 Ti6 2.058524 1_455
F67 K15 2.878295 1_545
F68 Ti8 2.042626 1_555
F68 Ti12 2.042626 1_555
F68 K4 3.061155 1_555
F68 K8 3.061155 1_555
F68 K16 3.169336 1_555
F68 K20 3.169336 1_555
F69 Ti9 2.042626 1_545
F69 Ti13 2.042626 1_454
F69 K5 3.061155 1_445
F69 K9 3.061155 1_554
F69 K21 3.169336 1_544
F69 K17 3.169336 1_455
F70 Ti14 2.042626 1_555
F70 Ti10 2.042626 1_445
F70 K10 3.061155 1_455
F70 K6 3.061155 1_545
F70 K18 3.169336 1_555
F70 K22 3.169336 1_445
F71 Ti15 2.042626 1_555
F71 Ti11 2.042626 1_554
F71 K7 3.061155 1_554
F71 K11 3.061155 1_555
F71 K23 3.169336 1_555
F71 K19 3.169336 1_554
F72 Ti8 2.043987 1_555
F72 Ti0 2.064956 1_555
F72 K4 3.036164 1_555
F72 K16 3.115671 1_555
F72 K12 3.187277 1_555
F73 Ti9 2.043987 1_655
F73 Ti1 2.064956 1_555
F73 K5 3.036164 1_555
F73 K17 3.115671 1_565
F73 K13 3.187277 1_665
F74 Ti10 2.043987 1_455
F74 Ti2 2.064956 1_555
F74 K6 3.036164 1_555
F74 K18 3.115671 1_565
F74 K13 3.187277 1_565
F75 Ti11 2.043987 1_555
F75 Ti3 2.064956 1_555
F75 K7 3.036164 1_555
F75 K19 3.115671 1_555
F75 K12 3.187277 1_555
F76 Ti12 2.043987 1_555
F76 Ti4 2.064956 1_555
F76 K8 3.036164 1_555
F76 K20 3.115671 1_555
F76 K14 3.187277 1_555
F77 Ti13 2.043987 1_455
F77 Ti5 2.064956 1_555
F77 K9 3.036164 1_555
F77 K21 3.115671 1_545
F77 K15 3.187277 1_545
F78 Ti14 2.043987 1_655
F78 Ti6 2.064956 1_555
F78 K10 3.036164 1_555
F78 K22 3.115671 1_545
F78 K15 3.187277 1_645
F79 Ti15 2.043987 1_555
F79 Ti7 2.064956 1_555
F79 K11 3.036164 1_555
F79 K23 3.115671 1_555
F79 K14 3.187277 1_555
