# generated using pymatgen
data_Cs2CeTa6(Br5O)3
_symmetry_space_group_name_H-M   'P 1'
_cell_length_a   9.65340620
_cell_length_b   9.65340620
_cell_length_c   18.41268590
_cell_angle_alpha   90.00000000
_cell_angle_beta   90.00000000
_cell_angle_gamma   120.00000627
_symmetry_Int_Tables_number   1
_chemical_formula_structural   Cs2CeTa6(Br5O)3
_chemical_formula_sum   'Cs4 Ce2 Ta12 Br30 O6'
_cell_volume   1485.96613255
_cell_formula_units_Z   2
loop_
 _symmetry_equiv_pos_site_id
 _symmetry_equiv_pos_as_xyz
  1  'x, y, z'
loop_
 _atom_site_type_symbol
 _atom_site_label
 _atom_site_symmetry_multiplicity
 _atom_site_fract_x
 _atom_site_fract_y
 _atom_site_fract_z
 _atom_site_occupancy
  Cs  Cs0  1  0.66666700  0.33333300  0.95302287  1
  Cs  Cs1  1  0.33333300  0.66666700  0.04697713  1
  Cs  Cs2  1  0.66666700  0.33333300  0.54697709  1
  Cs  Cs3  1  0.33333300  0.66666700  0.45302291  1
  Ce  Ce0  1  0.33333300  0.66666700  0.74999997  1
  Ce  Ce1  1  0.66666700  0.33333300  0.25000003  1
  Ta  Ta0  1  0.81124885  0.82821332  0.81313022  1
  Ta  Ta1  1  0.18875115  0.17178668  0.18686978  1
  Ta  Ta2  1  0.01696447  0.18875115  0.81313022  1
  Ta  Ta3  1  0.01696389  0.82821330  0.68686976  1
  Ta  Ta4  1  0.98303553  0.81124885  0.18686978  1
  Ta  Ta5  1  0.98303611  0.17178670  0.31313024  1
  Ta  Ta6  1  0.17178668  0.98303553  0.81313022  1
  Ta  Ta7  1  0.17178670  0.18875058  0.68686976  1
  Ta  Ta8  1  0.82821332  0.01696447  0.18686978  1
  Ta  Ta9  1  0.82821330  0.81124942  0.31313024  1
  Ta  Ta10  1  0.81124942  0.98303611  0.68686976  1
  Ta  Ta11  1  0.18875058  0.01696389  0.31313024  1
  Br  Br0  1  0.78723384  0.57446745  0.74999987  1
  Br  Br1  1  0.21276616  0.42553255  0.25000013  1
  Br  Br2  1  0.78723361  0.21276616  0.74999987  1
  Br  Br3  1  0.21276639  0.78723384  0.25000013  1
  Br  Br4  1  0.42553255  0.21276639  0.74999987  1
  Br  Br5  1  0.57446745  0.78723361  0.25000013  1
  Br  Br6  1  0.79761697  0.01849875  0.91216825  1
  Br  Br7  1  0.20238303  0.98150125  0.08783175  1
  Br  Br8  1  0.22088178  0.20238303  0.91216825  1
  Br  Br9  1  0.22088101  0.01849768  0.58783180  1
  Br  Br10  1  0.77911822  0.79761697  0.08783175  1
  Br  Br11  1  0.77911899  0.98150232  0.41216820  1
  Br  Br12  1  0.98150125  0.77911822  0.91216825  1
  Br  Br13  1  0.98150232  0.20238333  0.58783180  1
  Br  Br14  1  0.01849875  0.22088178  0.08783175  1
  Br  Br15  1  0.01849768  0.79761667  0.41216820  1
  Br  Br16  1  0.79761667  0.77911899  0.58783180  1
  Br  Br17  1  0.20238333  0.22088101  0.41216820  1
  Br  Br18  1  0.52971904  0.60570201  0.88176356  1
  Br  Br19  1  0.47028096  0.39429799  0.11823644  1
  Br  Br20  1  0.07598298  0.47028096  0.88176356  1
  Br  Br21  1  0.07598229  0.60570162  0.61823646  1
  Br  Br22  1  0.92401702  0.52971904  0.11823644  1
  Br  Br23  1  0.92401771  0.39429838  0.38176354  1
  Br  Br24  1  0.39429799  0.92401702  0.88176356  1
  Br  Br25  1  0.39429838  0.47028067  0.61823646  1
  Br  Br26  1  0.60570201  0.07598298  0.11823644  1
  Br  Br27  1  0.60570162  0.52971933  0.38176354  1
  Br  Br28  1  0.52971933  0.92401771  0.61823646  1
  Br  Br29  1  0.47028067  0.07598229  0.38176354  1
  O  O0  1  0.18043101  0.36086016  0.75000016  1
  O  O1  1  0.81956899  0.63913984  0.24999984  1
  O  O2  1  0.18042916  0.81956899  0.75000016  1
  O  O3  1  0.81957084  0.18043101  0.24999984  1
  O  O4  1  0.63913984  0.81957084  0.75000016  1
  O  O5  1  0.36086016  0.18042916  0.24999984  1
loop_
_geom_bond_atom_site_label_1
_geom_bond_atom_site_label_2
_geom_bond_distance
_geom_bond_site_symmetry_2
Ce0 O2 2.556566 1_555
Ce0 O4 2.556574 1_555
Ce0 O0 2.556574 1_555
Ce1 O3 2.556566 1_555
Ce1 O5 2.556574 1_555
Ce1 O1 2.556574 1_555
Br0 Ta3 2.614792 1_655
Br0 Ta0 2.614797 1_555
Br0 Cs2 4.247114 1_555
Br0 Cs0 4.247118 1_555
Br1 Ta5 2.614792 1_455
Br1 Ta1 2.614797 1_555
Br1 Cs3 4.247114 1_555
Br1 Cs1 4.247118 1_555
Br2 Ta10 2.614792 1_545
Br2 Ta2 2.614797 1_655
Br2 Cs2 4.247110 1_555
Br2 Cs0 4.247114 1_555
Br3 Ta11 2.614792 1_565
Br3 Ta4 2.614797 1_455
Br3 Cs3 4.247110 1_555
Br3 Cs1 4.247114 1_555
Br4 Ta7 2.614792 1_555
Br4 Ta6 2.614797 1_545
Br4 Cs2 4.247114 1_555
Br4 Cs0 4.247118 1_555
Br5 Ta9 2.614792 1_555
Br5 Ta8 2.614797 1_565
Br5 Cs3 4.247114 1_555
Br5 Cs1 4.247118 1_555
Br6 Ta0 2.637918 1_545
Br6 Ta2 2.651421 1_655
Br6 Cs0 3.904184 1_555
Br7 Ta1 2.637918 1_565
Br7 Ta4 2.651421 1_455
Br7 Cs1 3.904184 1_555
Br8 Ta2 2.637918 1_555
Br8 Ta6 2.651421 1_545
Br8 Cs0 3.904193 1_555
Br9 Ta3 2.637913 1_545
Br9 Ta7 2.651420 1_555
Br9 Cs2 3.904198 1_555
Br10 Ta4 2.637918 1_555
Br10 Ta8 2.651421 1_565
Br10 Cs1 3.904193 1_555
Br11 Ta5 2.637913 1_565
Br11 Ta9 2.651420 1_555
Br11 Cs3 3.904198 1_555
Br12 Ta6 2.637918 1_655
Br12 Ta0 2.651421 1_555
Br12 Cs0 3.904190 1_555
Br13 Ta7 2.637913 1_655
Br13 Ta10 2.651420 1_545
Br13 Cs2 3.904192 1_555
Br14 Ta8 2.637918 1_455
Br14 Ta1 2.651421 1_555
Br14 Cs1 3.904190 1_555
Br15 Ta9 2.637913 1_455
Br15 Ta11 2.651420 1_565
Br15 Cs3 3.904192 1_555
Br16 Ta10 2.637913 1_555
Br16 Ta3 2.651420 1_655
Br16 Cs2 3.904201 1_555
Br17 Ta11 2.637913 1_555
Br17 Ta5 2.651420 1_455
Br17 Cs3 3.904201 1_555
Br18 Ta0 2.785540 1_555
Br18 Ce0 3.307895 1_555
Br18 Cs0 3.722685 1_555
Br18 Cs1 3.782859 1_556
Br19 Ta1 2.785540 1_555
Br19 Ce1 3.307895 1_555
Br19 Cs1 3.722685 1_555
Br19 Cs0 3.782859 1_554
Br20 Ta2 2.785540 1_555
Br20 Ce0 3.307890 1_555
Br20 Cs0 3.722676 1_455
Br20 Cs1 3.782855 1_556
Br21 Ta3 2.785543 1_555
Br21 Ce0 3.307891 1_555
Br21 Cs2 3.722672 1_455
Br21 Cs3 3.782856 1_555
Br22 Ta4 2.785540 1_555
Br22 Ce1 3.307890 1_555
Br22 Cs1 3.722676 1_655
Br22 Cs0 3.782855 1_554
Br23 Ta5 2.785543 1_555
Br23 Ce1 3.307891 1_555
Br23 Cs3 3.722672 1_655
Br23 Cs2 3.782856 1_555
Br24 Ta6 2.785540 1_555
Br24 Ce0 3.307889 1_555
Br24 Cs0 3.722677 1_565
Br24 Cs1 3.782853 1_556
Br25 Ta7 2.785542 1_555
Br25 Ce0 3.307898 1_555
Br25 Cs2 3.722680 1_555
Br25 Cs3 3.782862 1_555
Br26 Ta8 2.785540 1_555
Br26 Ce1 3.307889 1_555
Br26 Cs1 3.722677 1_545
Br26 Cs0 3.782853 1_554
Br27 Ta9 2.785542 1_555
Br27 Ce1 3.307898 1_555
Br27 Cs3 3.722680 1_555
Br27 Cs2 3.782862 1_555
Br28 Ta10 2.785543 1_555
Br28 Ce0 3.307893 1_555
Br28 Cs2 3.722671 1_565
Br28 Cs3 3.782858 1_555
Br29 Ta11 2.785543 1_555
Br29 Ce1 3.307893 1_555
Br29 Cs3 3.722671 1_545
Br29 Cs2 3.782858 1_555
O0 Ta2 1.994965 1_555
O0 Ta7 1.994966 1_555
O1 Ta4 1.994965 1_555
O1 Ta9 1.994966 1_555
O2 Ta6 1.994965 1_555
O2 Ta3 1.994966 1_555
O3 Ta8 1.994965 1_555
O3 Ta5 1.994966 1_555
O4 Ta0 1.994965 1_555
O4 Ta10 1.994966 1_555
O5 Ta1 1.994965 1_555
O5 Ta11 1.994966 1_555
