# generated using pymatgen
data_Zn3Co2O7
_symmetry_space_group_name_H-M   'P 1'
_cell_length_a   9.38369957
_cell_length_b   9.38369957
_cell_length_c   5.06108100
_cell_angle_alpha   90.00000000
_cell_angle_beta   90.00000000
_cell_angle_gamma   148.79181961
_symmetry_Int_Tables_number   1
_chemical_formula_structural   Zn3Co2O7
_chemical_formula_sum   'Zn6 Co4 O14'
_cell_volume   230.91186556
_cell_formula_units_Z   2
loop_
 _symmetry_equiv_pos_site_id
 _symmetry_equiv_pos_as_xyz
  1  'x, y, z'
loop_
 _atom_site_type_symbol
 _atom_site_label
 _atom_site_symmetry_multiplicity
 _atom_site_fract_x
 _atom_site_fract_y
 _atom_site_fract_z
 _atom_site_occupancy
  Zn  Zn0  1  0.24717500  0.24717500  0.29433200  1
  Zn  Zn1  1  0.75282500  0.75282500  0.79433200  1
  Zn  Zn2  1  0.03477400  0.42941100  0.19808000  1
  Zn  Zn3  1  0.96522600  0.57058900  0.69808000  1
  Zn  Zn4  1  0.42941100  0.03477400  0.19808000  1
  Zn  Zn5  1  0.57058900  0.96522600  0.69808000  1
  Co  Co0  1  0.84957000  0.64754200  0.24806400  1
  Co  Co1  1  0.15043000  0.35245800  0.74806400  1
  Co  Co2  1  0.35245800  0.15043000  0.74806400  1
  Co  Co3  1  0.64754200  0.84957000  0.24806400  1
  O  O0  1  0.65089800  0.05355100  0.30823000  1
  O  O1  1  0.34910200  0.94644900  0.80823000  1
  O  O2  1  0.94644900  0.34910200  0.80823000  1
  O  O3  1  0.05355100  0.65089800  0.30823000  1
  O  O4  1  0.44088100  0.69911100  0.93880300  1
  O  O5  1  0.55911900  0.30088900  0.43880300  1
  O  O6  1  0.30088900  0.55911900  0.43880300  1
  O  O7  1  0.69911100  0.44088100  0.93880300  1
  O  O8  1  0.99457600  0.14598000  0.05977100  1
  O  O9  1  0.00542400  0.85402000  0.55977100  1
  O  O10  1  0.63022600  0.63022600  0.17977000  1
  O  O11  1  0.36977400  0.36977400  0.67977000  1
  O  O12  1  0.14598000  0.99457600  0.05977100  1
  O  O13  1  0.85402000  0.00542400  0.55977100  1
loop_
_geom_bond_atom_site_label_1
_geom_bond_atom_site_label_2
_geom_bond_distance
_geom_bond_site_symmetry_2
Co0 O7 1.876268 1_554
Co0 O9 1.880028 1_655
Co0 O3 1.911641 1_655
Co0 O12 1.937847 1_655
Co0 O5 1.943180 1_555
Co0 O10 1.951975 1_555
Co1 O6 1.876268 1_555
Co1 O8 1.880028 1_456
Co1 O2 1.911641 1_455
Co1 O13 1.937847 1_455
Co1 O4 1.943180 1_555
Co1 O11 1.951975 1_555
Co2 O5 1.876268 1_555
Co2 O12 1.880028 1_546
Co2 O1 1.911641 1_545
Co2 O9 1.937847 1_545
Co2 O7 1.943180 1_555
Co2 O11 1.951975 1_555
Co3 O4 1.876268 1_554
Co3 O13 1.880028 1_565
Co3 O0 1.911641 1_565
Co3 O8 1.937847 1_565
Co3 O6 1.943180 1_555
Co3 O10 1.951975 1_555
O0 Zn2 1.998358 1_655
O0 Zn4 2.008735 1_555
O0 Zn5 2.019753 1_545
O1 Zn3 1.998358 1_455
O1 Zn5 2.008735 1_555
O1 Zn4 2.019753 1_566
O2 Zn5 1.998358 1_545
O2 Zn3 2.008735 1_555
O2 Zn2 2.019753 1_656
O3 Zn4 1.998358 1_565
O3 Zn2 2.008735 1_555
O3 Zn3 2.019753 1_455
O4 Zn5 2.000590 1_555
O4 Zn2 2.480236 1_556
O5 Zn4 2.000590 1_555
O5 Zn3 2.480236 1_555
O6 Zn2 2.000590 1_555
O6 Zn5 2.480236 1_555
O7 Zn3 2.000590 1_555
O7 Zn4 2.480236 1_556
O8 Zn0 2.019699 1_655
O8 Zn2 2.447409 1_655
O8 Zn1 2.499081 1_544
O9 Zn1 2.019699 1_455
O9 Zn3 2.447409 1_455
O9 Zn0 2.499081 1_565
O10 Zn0 2.018778 1_555
O10 Zn1 2.046559 1_554
O11 Zn1 2.018778 1_555
O11 Zn0 2.046559 1_555
O12 Zn0 2.019699 1_565
O12 Zn4 2.447409 1_565
O12 Zn1 2.499081 1_454
O13 Zn1 2.019699 1_545
O13 Zn5 2.447409 1_545
O13 Zn0 2.499081 1_655
