# generated using pymatgen
data_EuAl3Pd2
_symmetry_space_group_name_H-M   'P 1'
_cell_length_a   4.34042700
_cell_length_b   9.66922296
_cell_length_c   9.66850221
_cell_angle_alpha   120.00247422
_cell_angle_beta   90.00000000
_cell_angle_gamma   90.00000000
_symmetry_Int_Tables_number   1
_chemical_formula_structural   EuAl3Pd2
_chemical_formula_sum   'Eu3 Al9 Pd6'
_cell_volume   351.40103414
_cell_formula_units_Z   3
loop_
 _symmetry_equiv_pos_site_id
 _symmetry_equiv_pos_as_xyz
  1  'x, y, z'
loop_
 _atom_site_type_symbol
 _atom_site_label
 _atom_site_symmetry_multiplicity
 _atom_site_fract_x
 _atom_site_fract_y
 _atom_site_fract_z
 _atom_site_occupancy
  Eu  Eu0  1  0.50000000  0.33331900  0.66672800  1
  Eu  Eu1  1  0.50000000  0.66659100  0.33327200  1
  Eu  Eu2  1  0.00000000  0.00000000  0.00000000  1
  Al  Al0  1  0.50000000  0.30245800  0.00000000  1
  Al  Al1  1  0.50000000  0.69754900  0.69755700  1
  Al  Al2  1  0.50000000  0.99999300  0.30244300  1
  Al  Al3  1  0.50000000  0.69754100  0.00000000  1
  Al  Al4  1  0.50000000  0.30244900  0.30244500  1
  Al  Al5  1  0.50000000  0.00000400  0.69755500  1
  Al  Al6  1  0.00000000  0.50000000  0.00000000  1
  Al  Al7  1  0.00000000  0.50000000  0.50000100  1
  Al  Al8  1  0.00000000  0.99999900  0.49999900  1
  Pd  Pd0  1  0.00000000  0.18398800  0.36797700  1
  Pd  Pd1  1  0.00000000  0.18397100  0.81602200  1
  Pd  Pd2  1  0.00000000  0.63205100  0.81602300  1
  Pd  Pd3  1  0.00000000  0.81601100  0.63202300  1
  Pd  Pd4  1  0.00000000  0.36794900  0.18397800  1
  Pd  Pd5  1  0.00000000  0.81602900  0.18397700  1
loop_
_geom_bond_atom_site_label_1
_geom_bond_atom_site_label_2
_geom_bond_distance
_geom_bond_site_symmetry_2
Eu0 Pd1 3.311095 1_655
Eu0 Pd1 3.311095 1_555
Eu0 Pd0 3.311643 1_655
Eu0 Pd0 3.311643 1_555
Eu0 Pd2 3.311664 1_555
Eu0 Pd2 3.311664 1_655
Eu1 Pd4 3.311094 1_555
Eu1 Pd4 3.311094 1_655
Eu1 Pd3 3.311643 1_655
Eu1 Pd3 3.311643 1_555
Eu1 Pd5 3.311670 1_555
Eu1 Pd5 3.311670 1_655
Eu2 Pd5 3.081044 1_545
Eu2 Pd4 3.081052 1_555
Eu2 Pd2 3.081052 1_544
Eu2 Pd1 3.081052 1_554
Eu2 Pd3 3.081057 1_544
Eu2 Pd0 3.081057 1_555
Al0 Pd1 2.673655 1_654
Al0 Pd1 2.673655 1_554
Al0 Pd4 2.673655 1_555
Al0 Pd4 2.673655 1_655
Al0 Eu1 3.381342 1_555
Al0 Eu0 3.381342 1_554
Al1 Pd2 2.673626 1_655
Al1 Pd2 2.673626 1_555
Al1 Pd3 2.673787 1_655
Al1 Pd3 2.673787 1_555
Al1 Eu1 3.382358 1_555
Al1 Eu0 3.382638 1_555
Al2 Pd5 2.673626 1_655
Al2 Pd5 2.673626 1_555
Al2 Pd0 2.673782 1_565
Al2 Pd0 2.673782 1_665
Al2 Eu0 3.382353 1_565
Al2 Eu1 3.382648 1_555
Al3 Pd2 2.673650 1_654
Al3 Pd2 2.673650 1_554
Al3 Pd5 2.673651 1_555
Al3 Pd5 2.673651 1_655
Al3 Eu0 3.381828 1_554
Al3 Eu1 3.381828 1_555
Al4 Pd4 2.673640 1_555
Al4 Pd4 2.673640 1_655
Al4 Pd0 2.673773 1_655
Al4 Pd0 2.673773 1_555
Al4 Eu1 3.381798 1_555
Al4 Eu0 3.382706 1_555
Al5 Pd1 2.673640 1_655
Al5 Pd1 2.673640 1_555
Al5 Pd3 2.673773 1_645
Al5 Pd3 2.673773 1_545
Al5 Eu0 3.381798 1_555
Al5 Eu1 3.382706 1_545
Al6 Pd2 2.658145 1_554
Al6 Pd5 2.658153 1_555
Al6 Pd1 2.658153 1_554
Al6 Pd4 2.658154 1_555
Al6 Eu0 3.535048 1_554
Al6 Eu0 3.535048 1_454
Al6 Eu1 3.535048 1_455
Al6 Eu1 3.535048 1_555
Al7 Pd2 2.657919 1_555
Al7 Pd4 2.657928 1_555
Al7 Pd3 2.658065 1_555
Al7 Pd0 2.658072 1_555
Al7 Eu1 3.535530 1_455
Al7 Eu1 3.535530 1_555
Al7 Eu0 3.536112 1_555
Al7 Eu0 3.536112 1_455
Al8 Pd5 2.657918 1_555
Al8 Pd1 2.657928 1_565
Al8 Pd0 2.658065 1_565
Al8 Pd3 2.658072 1_555
Al8 Eu0 3.535530 1_565
Al8 Eu0 3.535530 1_465
Al8 Eu1 3.536112 1_555
Al8 Eu1 3.536112 1_455
