# generated using pymatgen
data_UNiAs
_symmetry_space_group_name_H-M   'P 1'
_cell_length_a   4.05887111
_cell_length_b   4.05887111
_cell_length_c   15.60265417
_cell_angle_alpha   90.00000000
_cell_angle_beta   90.00000000
_cell_angle_gamma   120.00001718
_symmetry_Int_Tables_number   1
_chemical_formula_structural   UNiAs
_chemical_formula_sum   'U4 Ni4 As4'
_cell_volume   222.60738136
_cell_formula_units_Z   4
loop_
 _symmetry_equiv_pos_site_id
 _symmetry_equiv_pos_as_xyz
  1  'x, y, z'
loop_
 _atom_site_type_symbol
 _atom_site_label
 _atom_site_symmetry_multiplicity
 _atom_site_fract_x
 _atom_site_fract_y
 _atom_site_fract_z
 _atom_site_occupancy
  U  U0  1  -0.00000000  0.00000000  0.25000000  1
  U  U1  1  0.00000000  -0.00000000  0.75000000  1
  U  U2  1  0.00000000  -0.00000000  0.00000000  1
  U  U3  1  0.00000000  -0.00000000  0.50000000  1
  Ni  Ni0  1  0.33333300  0.66666700  0.15452200  1
  Ni  Ni1  1  0.66666700  0.33333300  0.84547800  1
  Ni  Ni2  1  0.66666700  0.33333300  0.65452200  1
  Ni  Ni3  1  0.33333300  0.66666700  0.34547800  1
  As  As0  1  0.33333300  0.66666700  0.61928948  1
  As  As1  1  0.66666700  0.33333300  0.38071052  1
  As  As2  1  0.66666700  0.33333300  0.11928948  1
  As  As3  1  0.33333300  0.66666700  0.88071052  1
loop_
_geom_bond_atom_site_label_1
_geom_bond_atom_site_label_2
_geom_bond_distance
_geom_bond_site_symmetry_2
Ni0 U0 2.776816 1_565
Ni0 U0 2.776818 1_555
Ni0 U0 2.776818 1_665
Ni1 U1 2.776816 1_655
Ni1 U1 2.776818 1_665
Ni1 U1 2.776818 1_555
Ni2 U1 2.776816 1_655
Ni2 U1 2.776818 1_555
Ni2 U1 2.776818 1_665
Ni3 U0 2.776816 1_565
Ni3 U0 2.776818 1_555
Ni3 U0 2.776818 1_665
As0 Ni2 2.407002 1_455
As0 Ni2 2.407002 1_565
As0 Ni2 2.407009 1_555
As0 U3 2.992600 1_565
As0 U3 2.992602 1_665
As0 U3 2.992602 1_555
As0 U1 3.106565 1_565
As0 U1 3.106567 1_555
As0 U1 3.106567 1_665
As1 Ni3 2.407002 1_545
As1 Ni3 2.407002 1_655
As1 Ni3 2.407009 1_555
As1 U3 2.992600 1_655
As1 U3 2.992602 1_555
As1 U3 2.992602 1_665
As1 U0 3.106565 1_655
As1 U0 3.106567 1_555
As1 U0 3.106567 1_665
As2 Ni0 2.407002 1_655
As2 Ni0 2.407002 1_545
As2 Ni0 2.407009 1_555
As2 U2 2.992600 1_655
As2 U2 2.992602 1_555
As2 U2 2.992602 1_665
As2 U0 3.106565 1_655
As2 U0 3.106567 1_555
As2 U0 3.106567 1_665
As3 Ni1 2.407002 1_455
As3 Ni1 2.407002 1_565
As3 Ni1 2.407009 1_555
As3 U2 2.992600 1_566
As3 U2 2.992602 1_556
As3 U2 2.992602 1_666
As3 U1 3.106565 1_565
As3 U1 3.106567 1_555
As3 U1 3.106567 1_665
