# generated using pymatgen
data_CaRuN2
_symmetry_space_group_name_H-M   'P 1'
_cell_length_a   5.48791600
_cell_length_b   10.79233900
_cell_length_c   15.44916100
_cell_angle_alpha   90.00000000
_cell_angle_beta   90.00000000
_cell_angle_gamma   90.00000000
_symmetry_Int_Tables_number   1
_chemical_formula_structural   CaRuN2
_chemical_formula_sum   'Ca16 Ru16 N32'
_cell_volume   915.01440875
_cell_formula_units_Z   16
loop_
 _symmetry_equiv_pos_site_id
 _symmetry_equiv_pos_as_xyz
  1  'x, y, z'
loop_
 _atom_site_type_symbol
 _atom_site_label
 _atom_site_symmetry_multiplicity
 _atom_site_fract_x
 _atom_site_fract_y
 _atom_site_fract_z
 _atom_site_occupancy
  Ca  Ca0  1  0.72271800  0.00736600  0.43239800  1
  Ca  Ca1  1  0.22271800  0.49263400  0.56760200  1
  Ca  Ca2  1  0.27728200  0.50736600  0.06760200  1
  Ca  Ca3  1  0.77728200  0.99263400  0.93239800  1
  Ca  Ca4  1  0.27728200  0.99263400  0.56760200  1
  Ca  Ca5  1  0.77728200  0.50736600  0.43239800  1
  Ca  Ca6  1  0.72271800  0.49263400  0.93239800  1
  Ca  Ca7  1  0.22271800  0.00736600  0.06760200  1
  Ca  Ca8  1  0.91137400  0.28372100  0.30910900  1
  Ca  Ca9  1  0.41137400  0.21627900  0.69089100  1
  Ca  Ca10  1  0.08862600  0.78372100  0.19089100  1
  Ca  Ca11  1  0.58862600  0.71627900  0.80910900  1
  Ca  Ca12  1  0.08862600  0.71627900  0.69089100  1
  Ca  Ca13  1  0.58862600  0.78372100  0.30910900  1
  Ca  Ca14  1  0.91137400  0.21627900  0.80910900  1
  Ca  Ca15  1  0.41137400  0.28372100  0.19089100  1
  Ru  Ru0  1  0.72189200  0.01835100  0.19163600  1
  Ru  Ru1  1  0.22189200  0.48164900  0.80836400  1
  Ru  Ru2  1  0.27810800  0.51835100  0.30836400  1
  Ru  Ru3  1  0.77810800  0.98164900  0.69163600  1
  Ru  Ru4  1  0.27810800  0.98164900  0.80836400  1
  Ru  Ru5  1  0.77810800  0.51835100  0.19163600  1
  Ru  Ru6  1  0.72189200  0.48164900  0.69163600  1
  Ru  Ru7  1  0.22189200  0.01835100  0.30836400  1
  Ru  Ru8  1  0.87621200  0.27804700  0.06295400  1
  Ru  Ru9  1  0.37621200  0.22195300  0.93704600  1
  Ru  Ru10  1  0.12378800  0.77804700  0.43704600  1
  Ru  Ru11  1  0.62378800  0.72195300  0.56295400  1
  Ru  Ru12  1  0.12378800  0.72195300  0.93704600  1
  Ru  Ru13  1  0.62378800  0.77804700  0.06295400  1
  Ru  Ru14  1  0.87621200  0.22195300  0.56295400  1
  Ru  Ru15  1  0.37621200  0.27804700  0.43704600  1
  N  N0  1  0.61236600  0.45464000  0.29203900  1
  N  N1  1  0.11236500  0.04536000  0.70796100  1
  N  N2  1  0.38763400  0.95464000  0.20796100  1
  N  N3  1  0.88763400  0.54536000  0.79203900  1
  N  N4  1  0.38763400  0.54536000  0.70796100  1
  N  N5  1  0.88763400  0.95464000  0.29203900  1
  N  N6  1  0.61236600  0.04536000  0.79203900  1
  N  N7  1  0.11236500  0.45464000  0.20796100  1
  N  N8  1  0.72094900  0.27157900  0.45510800  1
  N  N9  1  0.22094900  0.22842100  0.54489200  1
  N  N10  1  0.27905100  0.77157900  0.04489200  1
  N  N11  1  0.77905100  0.72842100  0.95510800  1
  N  N12  1  0.27905100  0.72842100  0.54489200  1
  N  N13  1  0.77905100  0.77157900  0.45510800  1
  N  N14  1  0.72094900  0.22842100  0.95510800  1
  N  N15  1  0.22094900  0.27157900  0.04489200  1
  N  N16  1  0.71228500  0.43746100  0.08141600  1
  N  N17  1  0.21228500  0.06253900  0.91858400  1
  N  N18  1  0.28771500  0.93746100  0.41858400  1
  N  N19  1  0.78771500  0.56253900  0.58141600  1
  N  N20  1  0.28771500  0.56253900  0.91858400  1
  N  N21  1  0.78771500  0.93746100  0.08141600  1
  N  N22  1  0.71228500  0.06253900  0.58141600  1
  N  N23  1  0.21228500  0.43746100  0.41858400  1
  N  N24  1  0.79693700  0.18855500  0.16821200  1
  N  N25  1  0.29693700  0.31144500  0.83178800  1
  N  N26  1  0.20306300  0.68855500  0.33178800  1
  N  N27  1  0.70306300  0.81144500  0.66821200  1
  N  N28  1  0.20306300  0.81144500  0.83178800  1
  N  N29  1  0.70306300  0.68855500  0.16821200  1
  N  N30  1  0.79693700  0.31144500  0.66821200  1
  N  N31  1  0.29693700  0.18855500  0.33178800  1
loop_
_geom_bond_atom_site_label_1
_geom_bond_atom_site_label_2
_geom_bond_distance
_geom_bond_site_symmetry_2
Ca0 N22 2.378649 1_555
Ca0 N5 2.417642 1_545
Ca0 N18 2.512714 1_545
Ca0 N13 2.587302 1_545
Ca0 N8 2.872996 1_555
Ca1 N23 2.378649 1_555
Ca1 N4 2.417642 1_555
Ca1 N19 2.512714 1_455
Ca1 N12 2.587302 1_555
Ca1 N9 2.872996 1_555
Ca2 N20 2.378649 1_554
Ca2 N7 2.417644 1_555
Ca2 N16 2.512714 1_555
Ca2 N15 2.587302 1_555
Ca2 N10 2.872996 1_555
Ca3 N21 2.378649 1_556
Ca3 N6 2.417642 1_565
Ca3 N17 2.512714 1_665
Ca3 N14 2.587302 1_565
Ca3 N11 2.872996 1_555
Ca4 N18 2.378649 1_555
Ca4 N1 2.417644 1_565
Ca4 N22 2.512714 1_565
Ca4 N9 2.587302 1_565
Ca4 N12 2.872996 1_555
Ca5 N19 2.378649 1_555
Ca5 N0 2.417642 1_555
Ca5 N23 2.512714 1_655
Ca5 N8 2.587302 1_555
Ca5 N13 2.872996 1_555
Ca6 N16 2.378649 1_556
Ca6 N3 2.417642 1_555
Ca6 N20 2.512714 1_555
Ca6 N11 2.587302 1_555
Ca6 N14 2.872996 1_555
Ca7 N17 2.378649 1_554
Ca7 N2 2.417642 1_545
Ca7 N21 2.512714 1_445
Ca7 N10 2.587302 1_545
Ca7 N15 2.872996 1_555
Ca8 N31 2.377985 1_655
Ca8 N0 2.482903 1_555
Ca8 N24 2.487462 1_555
Ca8 N8 2.489344 1_555
Ca8 N7 2.657281 1_655
Ca8 N23 2.887995 1_655
Ca9 N30 2.377985 1_555
Ca9 N1 2.482907 1_555
Ca9 N25 2.487462 1_555
Ca9 N9 2.489344 1_555
Ca9 N6 2.657284 1_555
Ca9 N22 2.887995 1_555
Ca10 N29 2.377985 1_455
Ca10 N2 2.482903 1_555
Ca10 N26 2.487462 1_555
Ca10 N10 2.489344 1_555
Ca10 N5 2.657284 1_455
Ca10 N21 2.887995 1_455
Ca11 N28 2.377985 1_555
Ca11 N3 2.482903 1_555
Ca11 N27 2.487462 1_555
Ca11 N11 2.489344 1_555
Ca11 N4 2.657284 1_555
Ca11 N20 2.887995 1_555
Ca12 N27 2.377985 1_455
Ca12 N4 2.482903 1_555
Ca12 N28 2.487462 1_555
Ca12 N12 2.489344 1_555
Ca12 N3 2.657284 1_455
Ca12 N19 2.887995 1_455
Ca13 N26 2.377985 1_555
Ca13 N5 2.482903 1_555
Ca13 N29 2.487462 1_555
Ca13 N13 2.489344 1_555
Ca13 N2 2.657284 1_555
Ca13 N18 2.887995 1_555
Ca14 N25 2.377985 1_655
Ca14 N6 2.482903 1_555
Ca14 N30 2.487462 1_555
Ca14 N14 2.489344 1_555
Ca14 N1 2.657281 1_655
Ca14 N17 2.887995 1_655
Ca15 N24 2.377985 1_555
Ca15 N7 2.482907 1_555
Ca15 N31 2.487462 1_555
Ca15 N15 2.489344 1_555
Ca15 N0 2.657284 1_555
Ca15 N16 2.887995 1_555
N0 Ru5 1.925138 1_555
N0 Ru2 1.975181 1_555
N1 Ru4 1.925140 1_545
N1 Ru3 1.975176 1_445
N2 Ru7 1.925138 1_565
N2 Ru0 1.975181 1_565
N3 Ru6 1.925138 1_555
N3 Ru1 1.975181 1_655
N4 Ru1 1.925138 1_555
N4 Ru6 1.975181 1_555
N5 Ru0 1.925138 1_565
N5 Ru7 1.975181 1_665
N6 Ru3 1.925138 1_545
N6 Ru4 1.975181 1_545
N7 Ru2 1.925140 1_555
N7 Ru5 1.975176 1_455
N8 Ru15 1.913629 1_555
N8 Ru14 1.946499 1_555
N9 Ru14 1.913629 1_455
N9 Ru15 1.946499 1_555
N10 Ru13 1.913629 1_555
N10 Ru12 1.946499 1_554
N11 Ru12 1.913629 1_655
N11 Ru13 1.946499 1_556
N12 Ru11 1.913629 1_555
N12 Ru10 1.946499 1_555
N13 Ru10 1.913629 1_655
N13 Ru11 1.946499 1_555
N14 Ru9 1.913629 1_555
N14 Ru8 1.946499 1_556
N15 Ru8 1.913629 1_455
N15 Ru9 1.946499 1_554
N16 Ru5 1.947345 1_555
N16 Ru8 1.962298 1_555
N17 Ru4 1.947345 1_545
N17 Ru9 1.962298 1_555
N18 Ru7 1.947345 1_565
N18 Ru10 1.962298 1_555
N19 Ru6 1.947345 1_555
N19 Ru11 1.962298 1_555
N20 Ru1 1.947345 1_555
N20 Ru12 1.962298 1_555
N21 Ru0 1.947345 1_565
N21 Ru13 1.962298 1_555
N22 Ru3 1.947345 1_545
N22 Ru14 1.962298 1_555
N23 Ru2 1.947345 1_555
N23 Ru15 1.962298 1_555
N24 Ru0 1.916969 1_555
N24 Ru8 1.940735 1_555
N25 Ru1 1.916969 1_555
N25 Ru9 1.940735 1_555
N26 Ru2 1.916969 1_555
N26 Ru10 1.940735 1_555
N27 Ru3 1.916969 1_555
N27 Ru11 1.940735 1_555
N28 Ru4 1.916969 1_555
N28 Ru12 1.940735 1_555
N29 Ru5 1.916969 1_555
N29 Ru13 1.940735 1_555
N30 Ru6 1.916969 1_555
N30 Ru14 1.940735 1_555
N31 Ru7 1.916969 1_555
N31 Ru15 1.940735 1_555
