# generated using pymatgen
data_NaAlH2
_symmetry_space_group_name_H-M   'P 1'
_cell_length_a   6.94364239
_cell_length_b   6.94364239
_cell_length_c   6.94364239
_cell_angle_alpha   128.38790372
_cell_angle_beta   128.38790372
_cell_angle_gamma   75.99747675
_symmetry_Int_Tables_number   1
_chemical_formula_structural   NaAlH2
_chemical_formula_sum   'Na4 Al4 H8'
_cell_volume   199.98210001
_cell_formula_units_Z   4
loop_
 _symmetry_equiv_pos_site_id
 _symmetry_equiv_pos_as_xyz
  1  'x, y, z'
loop_
 _atom_site_type_symbol
 _atom_site_label
 _atom_site_symmetry_multiplicity
 _atom_site_fract_x
 _atom_site_fract_y
 _atom_site_fract_z
 _atom_site_occupancy
  Na  Na0  1  0.87500000  0.62500000  0.25000000  1
  Na  Na1  1  0.37500000  0.62500000  0.75000000  1
  Na  Na2  1  0.37500000  0.62500000  0.25000000  1
  Na  Na3  1  0.37500000  0.12500000  0.75000000  1
  Al  Al0  1  0.37500000  0.12500000  0.25000000  1
  Al  Al1  1  0.87500000  0.12500000  0.75000000  1
  Al  Al2  1  0.87500000  0.12500000  0.25000000  1
  Al  Al3  1  0.87500000  0.62500000  0.75000000  1
  H  H0  1  0.17436400  0.36078400  0.18642000  1
  H  H1  1  0.17436400  0.98794400  0.81358000  1
  H  H2  1  0.11078400  0.42436400  0.68642000  1
  H  H3  1  0.57563600  0.88921600  0.31358000  1
  H  H4  1  0.73794400  0.42436400  0.31358000  1
  H  H5  1  0.57563600  0.26205600  0.68642000  1
  H  H6  1  0.63921600  0.82563600  0.81358000  1
  H  H7  1  0.01205600  0.82563600  0.18642000  1
loop_
_geom_bond_atom_site_label_1
_geom_bond_atom_site_label_2
_geom_bond_distance
_geom_bond_site_symmetry_2
Al0 H3 1.961178 1_545
Al0 H0 1.961178 1_555
Al0 H1 1.961178 1_544
Al0 H5 1.961178 1_555
Al1 H1 1.961178 1_645
Al1 H3 1.961178 1_545
Al1 H0 1.961178 1_656
Al1 H5 1.961178 1_555
Al2 H7 1.961178 1_645
Al2 H2 1.961178 1_655
Al2 H6 1.961178 1_544
Al2 H4 1.961178 1_555
Al3 H6 1.961178 1_555
Al3 H7 1.961178 1_656
Al3 H4 1.961178 1_555
Al3 H2 1.961178 1_655
H0 Na2 2.229054 1_555
H0 Na0 2.483937 1_455
H0 Na1 2.483937 1_555
H1 Na3 2.229054 1_565
H1 Na0 2.483937 1_455
H1 Na1 2.483937 1_555
H2 Na1 2.229054 1_555
H2 Na2 2.483937 1_556
H2 Na3 2.483937 1_555
H3 Na2 2.229054 1_555
H3 Na1 2.483937 1_554
H3 Na0 2.483937 1_555
H4 Na0 2.229054 1_555
H4 Na3 2.483937 1_554
H4 Na2 2.483937 1_555
H5 Na3 2.229054 1_555
H5 Na0 2.483937 1_556
H5 Na1 2.483937 1_555
H6 Na1 2.229054 1_555
H6 Na2 2.483937 1_555
H6 Na3 2.483937 1_565
H7 Na0 2.229054 1_455
H7 Na2 2.483937 1_555
H7 Na3 2.483937 1_565
