# generated using pymatgen
data_YTe2
_symmetry_space_group_name_H-M   'P 1'
_cell_length_a   4.44731860
_cell_length_b   4.44731860
_cell_length_c   8.91584706
_cell_angle_alpha   90.00000000
_cell_angle_beta   90.00000000
_cell_angle_gamma   90.00000000
_symmetry_Int_Tables_number   1
_chemical_formula_structural   YTe2
_chemical_formula_sum   'Y2 Te4'
_cell_volume   176.34335363
_cell_formula_units_Z   2
loop_
 _symmetry_equiv_pos_site_id
 _symmetry_equiv_pos_as_xyz
  1  'x, y, z'
loop_
 _atom_site_type_symbol
 _atom_site_label
 _atom_site_symmetry_multiplicity
 _atom_site_fract_x
 _atom_site_fract_y
 _atom_site_fract_z
 _atom_site_occupancy
  Y  Y0  1  -0.00000000  0.50000000  0.72843731  1
  Y  Y1  1  0.50000000  0.00000000  0.27156269  1
  Te  Te0  1  0.00000000  0.00000000  0.00000000  1
  Te  Te1  1  0.50000000  0.50000000  -0.00000000  1
  Te  Te2  1  0.00000000  0.50000000  0.37198296  1
  Te  Te3  1  0.50000000  0.00000000  0.62801704  1
loop_
_geom_bond_atom_site_label_1
_geom_bond_atom_site_label_2
_geom_bond_distance
_geom_bond_site_symmetry_2
Te0 Te1 3.144729 1_445
Te0 Te1 3.144729 1_455
Te0 Te1 3.144729 1_545
Te0 Te1 3.144729 1_555
Te0 Y0 3.287389 1_544
Te0 Y1 3.287389 1_455
Te0 Y0 3.287389 1_554
Te0 Y1 3.287389 1_555
Te1 Y1 3.287389 1_565
Te1 Y0 3.287389 1_654
Te1 Y0 3.287389 1_554
Te1 Y1 3.287389 1_555
Te2 Y0 3.178092 1_555
Te2 Y1 3.269700 1_565
Te2 Y1 3.269700 1_465
Te2 Y1 3.269700 1_555
Te2 Y1 3.269700 1_455
Te3 Y1 3.178092 1_555
Te3 Y0 3.269700 1_545
Te3 Y0 3.269700 1_655
Te3 Y0 3.269700 1_555
Te3 Y0 3.269700 1_645
