# generated using pymatgen
data_Mg4Si7
_symmetry_space_group_name_H-M   'P 1'
_cell_length_a   3.99670500
_cell_length_b   8.42678123
_cell_length_c   12.46590128
_cell_angle_alpha   84.10157454
_cell_angle_beta   84.49256903
_cell_angle_gamma   87.24662499
_symmetry_Int_Tables_number   1
_chemical_formula_structural   Mg4Si7
_chemical_formula_sum   'Mg8 Si14'
_cell_volume   415.38383984
_cell_formula_units_Z   2
loop_
 _symmetry_equiv_pos_site_id
 _symmetry_equiv_pos_as_xyz
  1  'x, y, z'
loop_
 _atom_site_type_symbol
 _atom_site_label
 _atom_site_symmetry_multiplicity
 _atom_site_fract_x
 _atom_site_fract_y
 _atom_site_fract_z
 _atom_site_occupancy
  Mg  Mg0  1  0.17009000  0.94380900  0.02858400  1
  Mg  Mg1  1  0.26204000  0.29609900  0.46843200  1
  Mg  Mg2  1  0.71346900  0.19485000  0.68038200  1
  Mg  Mg3  1  0.76863500  0.61078700  0.34686900  1
  Mg  Mg4  1  0.33150600  0.47540700  0.18601900  1
  Mg  Mg5  1  0.18861500  0.67015100  0.78800600  1
  Mg  Mg6  1  0.70558800  0.58895500  0.58829700  1
  Mg  Mg7  1  0.71425100  0.99299100  0.39203900  1
  Si  Si0  1  0.71882300  0.22051800  0.10801800  1
  Si  Si1  1  0.54870700  0.65238200  0.97559900  1
  Si  Si2  1  0.72090900  0.89568300  0.86292100  1
  Si  Si3  1  0.04807500  0.48134800  0.99274900  1
  Si  Si4  1  0.22153100  0.75208800  0.45159500  1
  Si  Si5  1  0.20737600  0.96692500  0.57073000  1
  Si  Si6  1  0.15488600  0.30118100  0.85579900  1
  Si  Si7  1  0.71606400  0.74987800  0.14435200  1
  Si  Si8  1  0.20129100  0.12745300  0.21239000  1
  Si  Si9  1  0.65146700  0.15713500  0.92182100  1
  Si  Si10  1  0.20074700  0.40674400  0.67108500  1
  Si  Si11  1  0.82518700  0.30360200  0.31550000  1
  Si  Si12  1  0.24314700  0.84274500  0.25867100  1
  Si  Si13  1  0.69133600  0.87293700  0.67654100  1
loop_
_geom_bond_atom_site_label_1
_geom_bond_atom_site_label_2
_geom_bond_distance
_geom_bond_site_symmetry_2
Mg0 Si7 2.709918 1_455
Mg0 Si9 2.837845 1_564
Mg0 Si8 2.909064 1_565
Mg0 Si2 2.913656 1_554
Mg0 Si1 2.922588 1_554
Mg0 Si2 2.933579 1_454
Mg0 Si12 2.944856 1_555
Mg0 Si9 2.996511 1_464
Mg0 Si7 3.048284 1_555
Mg0 Si0 3.065661 1_465
Mg1 Si11 2.700084 1_455
Mg1 Si10 2.766708 1_555
Mg1 Si11 2.805273 1_555
Mg1 Si5 2.940420 1_545
Mg2 Si10 2.655650 1_555
Mg2 Si10 2.691237 1_655
Mg2 Si13 2.723852 1_545
Mg2 Si9 2.981416 1_555
Mg2 Si5 3.018529 1_645
Mg2 Si6 3.137217 1_555
Mg2 Si6 3.161045 1_655
Mg3 Si11 2.653229 1_555
Mg3 Si7 2.694684 1_555
Mg3 Si4 2.716380 1_655
Mg3 Si4 2.724853 1_555
Mg3 Si12 2.853135 1_655
Mg3 Si12 3.007919 1_555
Mg4 Si3 2.753907 1_554
Mg4 Si0 2.788564 1_555
Mg4 Si7 2.814777 1_555
Mg4 Si11 2.823213 1_455
Mg4 Si11 2.907065 1_555
Mg4 Si1 2.956595 1_554
Mg4 Si8 2.981941 1_555
Mg5 Si2 2.768877 1_455
Mg5 Si10 2.773935 1_555
Mg5 Si1 2.848801 1_555
Mg5 Si13 2.862481 1_555
Mg5 Si3 2.887408 1_555
Mg5 Si13 2.918339 1_455
Mg5 Si6 3.142932 1_555
Mg6 Si10 2.658207 1_555
Mg6 Si10 2.667126 1_655
Mg6 Si13 2.730562 1_555
Mg6 Si4 2.856966 1_655
Mg6 Si4 2.903861 1_555
Mg7 Si11 2.734044 1_565
Mg7 Si5 2.861849 1_555
Mg7 Si12 2.887267 1_655
Mg7 Si4 2.888578 1_555
Mg7 Si4 2.892495 1_655
Mg7 Si8 2.990293 1_665
Mg7 Si12 3.028988 1_555
Mg7 Si5 3.097595 1_655
Si0 Si8 2.452711 1_555
Si0 Si9 2.476666 1_554
Si0 Si8 2.480467 1_655
Si0 Si3 2.809490 1_654
Si0 Si11 2.823553 1_555
Si1 Si3 2.418366 1_655
Si1 Si2 2.451179 1_555
Si1 Si7 2.495170 1_556
Si1 Si3 2.501617 1_555
Si2 Si9 2.388481 1_565
Si3 Si6 2.394235 1_555
Si4 Si5 2.452126 1_555
Si6 Si9 2.431142 1_455
Si6 Si9 2.442648 1_555
Si10 Si6 2.375006 1_555
Si11 Si8 2.433504 1_655
Si12 Si7 2.405387 1_555
Si12 Si8 2.410880 1_565
Si12 Si4 2.442091 1_555
Si12 Si7 2.836351 1_455
Si13 Si2 2.365437 1_555
Si13 Si5 2.457824 1_655
Si13 Si5 2.497251 1_555
