# generated using pymatgen
data_Ca3SiCSO25
_symmetry_space_group_name_H-M   'P 1'
_cell_length_a   10.54101800
_cell_length_b   10.64157700
_cell_length_c   10.64569533
_cell_angle_alpha   62.83283679
_cell_angle_beta   90.00000000
_cell_angle_gamma   90.00000000
_symmetry_Int_Tables_number   1
_chemical_formula_structural   Ca3SiCSO25
_chemical_formula_sum   'Ca6 Si2 C2 S2 O50'
_cell_volume   1062.41825917
_cell_formula_units_Z   2
loop_
 _symmetry_equiv_pos_site_id
 _symmetry_equiv_pos_as_xyz
  1  'x, y, z'
loop_
 _atom_site_type_symbol
 _atom_site_label
 _atom_site_symmetry_multiplicity
 _atom_site_fract_x
 _atom_site_fract_y
 _atom_site_fract_z
 _atom_site_occupancy
  Ca  Ca0  1  0.32677800  0.03811400  0.82139100  1
  Ca  Ca1  1  0.21903200  0.27035400  0.04819800  1
  Ca  Ca2  1  0.24656100  0.65895500  0.17280000  1
  Ca  Ca3  1  0.82677800  0.96188600  0.17860900  1
  Ca  Ca4  1  0.71903200  0.72964600  0.95180200  1
  Ca  Ca5  1  0.74656100  0.34104500  0.82720000  1
  Si  Si0  1  0.12635000  0.99530600  0.02956900  1
  Si  Si1  1  0.62635000  0.00469400  0.97043100  1
  C  C0  1  0.47624700  0.34751700  0.31385200  1
  C  C1  1  0.97624700  0.65248300  0.68614800  1
  S  S0  1  0.06833900  0.35516400  0.30414000  1
  S  S1  1  0.56833900  0.64483600  0.69586000  1
  O  O0  1  0.08417600  0.21119400  0.42022800  1
  O  O1  1  0.11392900  0.36112200  0.16715000  1
  O  O2  1  0.14937300  0.45799500  0.32913600  1
  O  O3  1  0.58417600  0.78880600  0.57977200  1
  O  O4  1  0.61392900  0.63887800  0.83285000  1
  O  O5  1  0.64937300  0.54200500  0.67086400  1
  O  O6  1  0.93388100  0.39690200  0.29231500  1
  O  O7  1  0.43388100  0.60309800  0.70768500  1
  O  O8  1  0.49902800  0.22775600  0.39982400  1
  O  O9  1  0.43173400  0.39621600  0.17756900  1
  O  O10  1  0.49719300  0.45795800  0.34495400  1
  O  O11  1  0.99902800  0.77224400  0.60017600  1
  O  O12  1  0.93173400  0.60378400  0.82243100  1
  O  O13  1  0.99719300  0.54204200  0.65504600  1
  O  O14  1  0.98780800  0.02512500  0.77549800  1
  O  O15  1  0.97866500  0.09309500  0.00034000  1
  O  O16  1  0.99047900  0.85371200  0.11724700  1
  O  O17  1  0.48780800  0.97487500  0.22450200  1
  O  O18  1  0.47866500  0.90690500  0.99966000  1
  O  O19  1  0.49047900  0.14628800  0.88275300  1
  O  O20  1  0.21507900  0.13486600  0.93747200  1
  O  O21  1  0.15874600  0.98273700  0.20096100  1
  O  O22  1  0.20242200  0.87807100  0.99908000  1
  O  O23  1  0.71507900  0.86513400  0.06252800  1
  O  O24  1  0.65874600  0.01726300  0.79903900  1
  O  O25  1  0.70242200  0.12192900  0.00092000  1
  O  O26  1  0.55652600  0.03266600  0.71553300  1
  O  O27  1  0.41793800  0.28609600  0.14013000  1
  O  O28  1  0.44954300  0.59225200  0.24886700  1
  O  O29  1  0.05652600  0.96733400  0.28446700  1
  O  O30  1  0.91793800  0.71390400  0.85987000  1
  O  O31  1  0.94954300  0.40774800  0.75113300  1
  O  O32  1  0.29625400  0.31934200  0.61437200  1
  O  O33  1  0.29085600  0.03999600  0.41360200  1
  O  O34  1  0.27074100  0.59230500  0.96837700  1
  O  O35  1  0.79625400  0.68065800  0.38562800  1
  O  O36  1  0.79085600  0.96000400  0.58639800  1
  O  O37  1  0.77074100  0.40769500  0.03162300  1
  O  O38  1  0.26488300  0.42154400  0.63202600  1
  O  O39  1  0.30722300  0.91179900  0.47848700  1
  O  O40  1  0.23448900  0.67770900  0.84921500  1
  O  O41  1  0.76488300  0.57845600  0.36797400  1
  O  O42  1  0.80722300  0.08820100  0.52151300  1
  O  O43  1  0.73448900  0.32229100  0.15078500  1
  O  O44  1  0.99044900  0.22336200  0.00171800  1
  O  O45  1  0.02444100  0.71902900  0.19268100  1
  O  O46  1  0.08143400  0.02958400  0.70410500  1
  O  O47  1  0.49044900  0.77663800  0.99828200  1
  O  O48  1  0.52444100  0.28097100  0.80731900  1
  O  O49  1  0.58143400  0.97041600  0.29589500  1
loop_
_geom_bond_atom_site_label_1
_geom_bond_atom_site_label_2
_geom_bond_distance
_geom_bond_site_symmetry_2
Ca0 O20 2.266133 1_555
Ca0 O22 2.292421 1_545
Ca0 O19 2.327261 1_555
Ca0 O18 2.386373 1_545
Ca0 O26 2.682910 1_555
Ca0 O32 2.809621 1_555
Ca0 O46 2.891197 1_555
Ca1 O1 2.209291 1_555
Ca1 O20 2.240978 1_554
Ca1 O27 2.351940 1_555
Ca1 O44 2.554710 1_455
Ca1 O21 2.805549 1_545
Ca2 O22 2.266233 1_554
Ca2 O2 2.267730 1_555
Ca2 O28 2.283145 1_555
Ca2 O45 2.461513 1_555
Ca2 O34 2.591036 1_554
Ca3 O23 2.266133 1_555
Ca3 O25 2.292421 1_565
Ca3 O16 2.327261 1_555
Ca3 O15 2.386373 1_565
Ca3 O29 2.682910 1_655
Ca3 O35 2.809621 1_555
Ca3 O49 2.891197 1_555
Ca4 O4 2.209291 1_555
Ca4 O23 2.240978 1_556
Ca4 O30 2.351940 1_555
Ca4 O47 2.554710 1_555
Ca4 O24 2.805549 1_565
Ca5 O25 2.266233 1_556
Ca5 O5 2.267730 1_555
Ca5 O31 2.283145 1_555
Ca5 O48 2.461513 1_555
Ca5 O37 2.591036 1_556
C0 O8 1.205979 1_555
C0 O10 1.376581 1_555
C0 O9 1.380956 1_555
C1 O11 1.205979 1_555
C1 O13 1.376581 1_555
C1 O12 1.380956 1_555
O0 S0 1.474245 1_555
O1 S0 1.509080 1_555
O2 S0 1.504592 1_555
O3 S1 1.474245 1_555
O4 S1 1.509080 1_555
O5 S1 1.504592 1_555
O6 S0 1.473388 1_655
O7 S1 1.473388 1_555
O10 O28 1.416348 1_555
O12 O30 1.407033 1_555
O13 O31 1.416348 1_555
O14 O46 1.233272 1_655
O15 O44 1.398533 1_555
O15 Si0 1.818657 1_645
O16 O45 1.332738 1_655
O16 Si0 1.977008 1_655
O17 O49 1.233272 1_555
O18 O47 1.398533 1_555
O18 Si1 1.818657 1_565
O19 O48 1.332738 1_555
O19 Si1 1.977008 1_555
O20 Si0 1.646817 1_546
O21 O29 1.358345 1_555
O21 Si0 1.800212 1_555
O22 Si0 1.635404 1_556
O23 Si1 1.646817 1_564
O24 O26 1.358345 1_555
O24 Si1 1.800212 1_555
O25 Si1 1.635404 1_554
O27 O9 1.407033 1_555
O32 O38 1.230520 1_555
O33 O39 1.227793 1_545
O34 O40 1.236302 1_555
O35 O41 1.230520 1_555
O36 O42 1.227793 1_565
O37 O43 1.236302 1_555
