# generated using pymatgen
data_ErGePd
_symmetry_space_group_name_H-M   'P 1'
_cell_length_a   11.31901552
_cell_length_b   11.31901552
_cell_length_c   11.31901552
_cell_angle_alpha   157.65137904
_cell_angle_beta   140.74449524
_cell_angle_gamma   45.63560353
_symmetry_Int_Tables_number   1
_chemical_formula_structural   ErGePd
_chemical_formula_sum   'Er6 Ge6 Pd6'
_cell_volume   348.06251830
_cell_formula_units_Z   6
loop_
 _symmetry_equiv_pos_site_id
 _symmetry_equiv_pos_as_xyz
  1  'x, y, z'
loop_
 _atom_site_type_symbol
 _atom_site_label
 _atom_site_symmetry_multiplicity
 _atom_site_fract_x
 _atom_site_fract_y
 _atom_site_fract_z
 _atom_site_occupancy
  Er  Er0  1  0.53496300  0.00000000  0.53496300  1
  Er  Er1  1  0.20185700  0.66672500  0.53513200  1
  Er  Er2  1  0.86840700  0.33327500  0.53513200  1
  Er  Er3  1  0.95182400  0.50000000  0.45182400  1
  Er  Er4  1  0.29147900  0.83295500  0.45852400  1
  Er  Er5  1  0.62556900  0.16704500  0.45852400  1
  Ge  Ge0  1  0.08785300  0.93442600  0.15342600  1
  Ge  Ge1  1  0.21900000  0.06557400  0.15342600  1
  Ge  Ge2  1  0.60147000  0.76439100  0.83707900  1
  Ge  Ge3  1  0.07268800  0.23560900  0.83707900  1
  Ge  Ge4  1  0.74743500  0.59321100  0.15422400  1
  Ge  Ge5  1  0.56101200  0.40678900  0.15422400  1
  Pd  Pd0  1  0.72206000  0.89553300  0.82652700  1
  Pd  Pd1  1  0.93099400  0.10446700  0.82652700  1
  Pd  Pd2  1  0.89967400  0.73324100  0.16643300  1
  Pd  Pd3  1  0.43319200  0.26675900  0.16643300  1
  Pd  Pd4  1  0.39380600  0.57173400  0.82207200  1
  Pd  Pd5  1  0.25033700  0.42826600  0.82207200  1
loop_
_geom_bond_atom_site_label_1
_geom_bond_atom_site_label_2
_geom_bond_distance
_geom_bond_site_symmetry_2
Er0 Ge4 3.068735 1_556
Er0 Ge4 3.068735 1_545
Er0 Ge5 3.068739 1_545
Er0 Ge5 3.068742 1_556
Er0 Pd1 3.109255 1_555
Er0 Pd0 3.109255 1_545
Er0 Pd4 3.110148 1_555
Er0 Pd4 3.110148 1_544
Er0 Pd5 3.110153 1_544
Er0 Pd5 3.110156 1_555
Er0 Ge0 3.207777 1_545
Er0 Ge1 3.207785 1_555
Er1 Pd4 2.947852 1_555
Er1 Pd1 3.002618 1_465
Er1 Pd1 3.002618 1_454
Er1 Ge3 3.024224 1_565
Er1 Ge3 3.024224 1_554
Er1 Ge2 3.070057 1_555
Er1 Pd2 3.128437 1_455
Er1 Ge1 3.174238 1_555
Er1 Ge1 3.174238 1_566
Er1 Pd3 3.188364 1_566
Er1 Pd3 3.188364 1_555
Er1 Ge4 3.277652 1_455
Er2 Pd5 2.947842 1_655
Er2 Pd0 3.002618 1_555
Er2 Pd0 3.002618 1_544
Er2 Ge2 3.024224 1_555
Er2 Ge2 3.024224 1_544
Er2 Ge3 3.070057 1_655
Er2 Pd3 3.128437 1_555
Er2 Ge0 3.174244 1_656
Er2 Ge0 3.174247 1_645
Er2 Pd2 3.188364 1_556
Er2 Pd2 3.188364 1_545
Er2 Ge5 3.277650 1_555
Er3 Ge4 2.984006 1_555
Er3 Ge5 2.984016 1_555
Er3 Ge0 3.005684 1_656
Er3 Ge0 3.005688 1_645
Er3 Ge1 3.005689 1_655
Er3 Ge1 3.005689 1_666
Er3 Pd4 3.188637 1_655
Er3 Pd5 3.188638 1_655
Er3 Pd1 3.235939 1_565
Er3 Pd1 3.235939 1_554
Er3 Pd0 3.235939 1_555
Er3 Pd0 3.235939 1_544
Er4 Pd3 3.036314 1_555
Er4 Pd3 3.036314 1_566
Er4 Pd2 3.043468 1_455
Er4 Ge5 3.065925 1_555
Er4 Ge5 3.065928 1_566
Er4 Pd0 3.088060 1_555
Er4 Ge3 3.128995 1_565
Er4 Ge3 3.128995 1_554
Er4 Pd5 3.137461 1_554
Er4 Pd5 3.137464 1_565
Er4 Ge0 3.140987 1_555
Er4 Ge2 3.214568 1_555
Er5 Pd2 3.036314 1_556
Er5 Pd2 3.036314 1_545
Er5 Pd3 3.043468 1_555
Er5 Ge4 3.065934 1_556
Er5 Ge4 3.065934 1_545
Er5 Pd1 3.088060 1_555
Er5 Ge2 3.128995 1_555
Er5 Ge2 3.128995 1_544
Er5 Pd4 3.137468 1_555
Er5 Pd4 3.137468 1_544
Er5 Ge1 3.140983 1_555
Er5 Ge3 3.214568 1_655
Ge0 Pd5 2.544178 1_554
Ge0 Pd5 2.544186 1_565
Ge0 Pd0 2.614965 1_454
Ge0 Ge1 2.736581 1_565
Ge1 Pd4 2.544185 1_555
Ge1 Pd4 2.544185 1_544
Ge1 Pd1 2.614958 1_454
Ge2 Pd3 2.549124 1_555
Ge2 Pd3 2.549124 1_566
Ge2 Pd2 2.587475 1_556
Ge2 Pd0 2.737643 1_555
Ge3 Pd2 2.549124 1_456
Ge3 Pd2 2.549124 1_445
Ge3 Pd3 2.587475 1_556
Ge3 Pd1 2.737643 1_455
Ge4 Pd4 2.565230 1_554
Ge4 Pd1 2.565856 1_565
Ge4 Pd1 2.565856 1_554
Ge4 Pd2 2.923402 1_555
Ge5 Pd5 2.565230 1_554
Ge5 Pd0 2.565855 1_555
Ge5 Pd0 2.565859 1_544
Ge5 Pd3 2.923392 1_555
Pd4 Pd5 2.993677 1_555
