# generated using pymatgen
data_K3Eu
_symmetry_space_group_name_H-M   'P 1'
_cell_length_a   9.16956232
_cell_length_b   9.16956232
_cell_length_c   7.44648700
_cell_angle_alpha   90.00000000
_cell_angle_beta   90.00000000
_cell_angle_gamma   120.00000229
_symmetry_Int_Tables_number   1
_chemical_formula_structural   K3Eu
_chemical_formula_sum   'K6 Eu2'
_cell_volume   542.22466620
_cell_formula_units_Z   2
loop_
 _symmetry_equiv_pos_site_id
 _symmetry_equiv_pos_as_xyz
  1  'x, y, z'
loop_
 _atom_site_type_symbol
 _atom_site_label
 _atom_site_symmetry_multiplicity
 _atom_site_fract_x
 _atom_site_fract_y
 _atom_site_fract_z
 _atom_site_occupancy
  K  K0  1  0.16838900  0.33677800  0.25000000  1
  K  K1  1  0.66322200  0.83161100  0.25000000  1
  K  K2  1  0.16838900  0.83161100  0.25000000  1
  K  K3  1  0.83161100  0.66322200  0.75000000  1
  K  K4  1  0.33677800  0.16838900  0.75000000  1
  K  K5  1  0.83161100  0.16838900  0.75000000  1
  Eu  Eu0  1  0.33333300  0.66666700  0.75000000  1
  Eu  Eu1  1  0.66666700  0.33333300  0.25000000  1
loop_
_geom_bond_atom_site_label_1
_geom_bond_atom_site_label_2
_geom_bond_distance
_geom_bond_site_symmetry_2
K0 K1 4.537402 1_555
K0 K2 4.537402 1_555
K0 K5 4.584195 1_454
K0 K5 4.584195 1_455
K0 K4 4.584195 1_555
K0 K4 4.584195 1_554
K0 K1 4.632160 1_445
K0 K2 4.632160 1_545
K1 K2 4.537402 1_555
K1 K5 4.584195 1_565
K1 K5 4.584195 1_564
K1 K3 4.584195 1_555
K1 K3 4.584195 1_554
K1 K2 4.632160 1_655
K2 K3 4.584195 1_455
K2 K3 4.584195 1_454
K2 K4 4.584195 1_564
K2 K4 4.584195 1_565
K3 K4 4.537402 1_555
K3 K5 4.537402 1_555
K3 K4 4.632160 1_665
K3 K5 4.632160 1_565
K4 K5 4.537402 1_555
K4 K5 4.632160 1_455
Eu0 K2 4.552492 1_556
Eu0 K2 4.552492 1_555
Eu0 K1 4.552497 1_555
Eu0 K1 4.552497 1_556
Eu0 K0 4.552497 1_555
Eu0 K0 4.552497 1_556
Eu0 K4 4.584858 1_565
Eu0 K3 4.584858 1_455
Eu0 K5 4.584863 1_565
Eu0 K5 4.584863 1_455
Eu0 K3 4.584867 1_555
Eu0 K4 4.584867 1_555
Eu1 K5 4.552492 1_554
Eu1 K5 4.552492 1_555
Eu1 K3 4.552497 1_554
Eu1 K3 4.552497 1_555
Eu1 K4 4.552497 1_555
Eu1 K4 4.552497 1_554
Eu1 K0 4.584858 1_655
Eu1 K1 4.584858 1_545
Eu1 K2 4.584863 1_655
Eu1 K2 4.584863 1_545
Eu1 K1 4.584867 1_555
Eu1 K0 4.584867 1_555
