# generated using pymatgen
data_RbLi(C2N3)2
_symmetry_space_group_name_H-M   'P 1'
_cell_length_a   7.54438500
_cell_length_b   7.54438500
_cell_length_c   8.87073552
_cell_angle_alpha   115.16586575
_cell_angle_beta   115.16586575
_cell_angle_gamma   90.00000000
_symmetry_Int_Tables_number   1
_chemical_formula_structural   RbLi(C2N3)2
_chemical_formula_sum   'Rb2 Li2 C8 N12'
_cell_volume   403.39814310
_cell_formula_units_Z   2
loop_
 _symmetry_equiv_pos_site_id
 _symmetry_equiv_pos_as_xyz
  1  'x, y, z'
loop_
 _atom_site_type_symbol
 _atom_site_label
 _atom_site_symmetry_multiplicity
 _atom_site_fract_x
 _atom_site_fract_y
 _atom_site_fract_z
 _atom_site_occupancy
  Rb  Rb0  1  0.25000000  0.25000000  0.50000000  1
  Rb  Rb1  1  0.75000000  0.75000000  0.50000000  1
  Li  Li0  1  0.25000000  0.75000000  0.50000000  1
  Li  Li1  1  0.75000000  0.25000000  0.50000000  1
  C  C0  1  0.72795600  0.61009200  0.83804800  1
  C  C1  1  0.11009200  0.22795600  0.83804800  1
  C  C2  1  0.61009200  0.11009200  0.83804800  1
  C  C3  1  0.22795600  0.72795600  0.83804800  1
  C  C4  1  0.27204400  0.38990800  0.16195200  1
  C  C5  1  0.88990800  0.77204400  0.16195200  1
  C  C6  1  0.38990800  0.88990800  0.16195200  1
  C  C7  1  0.77204400  0.27204400  0.16195200  1
  N  N0  1  0.75271900  0.74728100  0.00000000  1
  N  N1  1  0.24728100  0.25271900  0.00000000  1
  N  N2  1  0.74728100  0.24728100  0.00000000  1
  N  N3  1  0.25271900  0.75271900  0.00000000  1
  N  N4  1  0.69252100  0.49101400  0.68353500  1
  N  N5  1  0.99101400  0.19252100  0.68353500  1
  N  N6  1  0.49101400  0.99101400  0.68353500  1
  N  N7  1  0.19252100  0.69252100  0.68353500  1
  N  N8  1  0.30747900  0.50898600  0.31646500  1
  N  N9  1  0.00898600  0.80747900  0.31646500  1
  N  N10  1  0.50898600  0.00898600  0.31646500  1
  N  N11  1  0.80747900  0.30747900  0.31646500  1
loop_
_geom_bond_atom_site_label_1
_geom_bond_atom_site_label_2
_geom_bond_distance
_geom_bond_site_symmetry_2
Li0 N6 2.056130 1_555
Li0 N9 2.056130 1_555
Li0 N8 2.056130 1_555
Li0 N7 2.056130 1_555
Li1 N10 2.056130 1_555
Li1 N4 2.056130 1_555
Li1 N5 2.056130 1_555
Li1 N11 2.056130 1_555
C0 N4 1.182511 1_555
C0 N0 1.295064 1_556
C1 N5 1.182511 1_455
C1 N1 1.295064 1_556
C2 N6 1.182511 1_545
C2 N2 1.295064 1_556
C3 N7 1.182511 1_555
C3 N3 1.295065 1_556
C4 N8 1.182511 1_555
C4 N1 1.295064 1_555
C5 N9 1.182511 1_655
C5 N0 1.295064 1_555
C6 N10 1.182511 1_565
C6 N3 1.295064 1_555
C7 N11 1.182511 1_555
C7 N2 1.295065 1_555
N4 Rb0 3.156316 1_555
N4 Rb1 3.156316 1_555
N5 Rb1 3.156316 1_545
N5 Rb0 3.156316 1_655
N6 Rb0 3.156316 1_565
N6 Rb1 3.156316 1_555
N7 Rb0 3.156316 1_555
N7 Rb1 3.156316 1_455
N8 Rb1 3.156316 1_555
N8 Rb0 3.156316 1_555
N9 Rb0 3.156316 1_565
N9 Rb1 3.156316 1_455
N10 Rb0 3.156316 1_555
N10 Rb1 3.156316 1_545
N11 Rb1 3.156316 1_555
N11 Rb0 3.156316 1_655
