# generated using pymatgen
data_MgVAs2O7
_symmetry_space_group_name_H-M   'P 1'
_cell_length_a   8.01155837
_cell_length_b   7.81037911
_cell_length_c   10.54482811
_cell_angle_alpha   58.14415936
_cell_angle_beta   90.00000000
_cell_angle_gamma   90.00000000
_symmetry_Int_Tables_number   1
_chemical_formula_structural   MgVAs2O7
_chemical_formula_sum   'Mg4 V4 As8 O28'
_cell_volume   560.44112353
_cell_formula_units_Z   4
loop_
 _symmetry_equiv_pos_site_id
 _symmetry_equiv_pos_as_xyz
  1  'x, y, z'
loop_
 _atom_site_type_symbol
 _atom_site_label
 _atom_site_symmetry_multiplicity
 _atom_site_fract_x
 _atom_site_fract_y
 _atom_site_fract_z
 _atom_site_occupancy
  Mg  Mg0  1  0.07304624  0.72950197  0.88161881  1
  Mg  Mg1  1  0.57304624  0.27049803  0.61838119  1
  Mg  Mg2  1  0.92695376  0.27049803  0.11838119  1
  Mg  Mg3  1  0.42695376  0.72950197  0.38161881  1
  V  V0  1  0.94796640  0.18600800  0.70394987  1
  V  V1  1  0.44796640  0.81399200  0.79605013  1
  V  V2  1  0.05203360  0.81399200  0.29605013  1
  V  V3  1  0.55203360  0.18600800  0.20394987  1
  As  As0  1  0.77759924  0.53025592  0.76760169  1
  As  As1  1  0.27759924  0.46974408  0.73239831  1
  As  As2  1  0.22240076  0.46974408  0.23239831  1
  As  As3  1  0.72240076  0.53025592  0.26760169  1
  As  As4  1  0.71605342  0.94970407  0.97437443  1
  As  As5  1  0.21605342  0.05029593  0.52562557  1
  As  As6  1  0.28394658  0.05029593  0.02562557  1
  As  As7  1  0.78394658  0.94970407  0.47437443  1
  O  O0  1  0.68678229  0.24488587  0.06821484  1
  O  O1  1  0.18678229  0.75511413  0.43178516  1
  O  O2  1  0.31321771  0.75511413  0.93178516  1
  O  O3  1  0.81321771  0.24488587  0.56821484  1
  O  O4  1  0.60169144  0.64010201  0.78142034  1
  O  O5  1  0.10169144  0.35989799  0.71857966  1
  O  O6  1  0.39830856  0.35989799  0.21857966  1
  O  O7  1  0.89830856  0.64010201  0.28142034  1
  O  O8  1  0.92497794  0.51973986  0.88548602  1
  O  O9  1  0.42497794  0.48026014  0.61451398  1
  O  O10  1  0.07502206  0.48026014  0.11451398  1
  O  O11  1  0.57502206  0.51973986  0.38548602  1
  O  O12  1  0.83349471  0.67710778  0.58125295  1
  O  O13  1  0.33349471  0.32289222  0.91874705  1
  O  O14  1  0.16650529  0.32289222  0.41874705  1
  O  O15  1  0.66650529  0.67710778  0.08125295  1
  O  O16  1  0.91172381  0.99205738  0.32300549  1
  O  O17  1  0.41172381  0.00794262  0.17699451  1
  O  O18  1  0.08827619  0.00794262  0.67699451  1
  O  O19  1  0.58827619  0.99205738  0.82300549  1
  O  O20  1  0.74588647  0.30751649  0.27928376  1
  O  O21  1  0.24588647  0.69248351  0.22071624  1
  O  O22  1  0.25411353  0.69248351  0.72071624  1
  O  O23  1  0.75411353  0.30751649  0.77928376  1
  O  O24  1  0.59140170  0.93756425  0.38859960  1
  O  O25  1  0.09140170  0.06243575  0.11140040  1
  O  O26  1  0.40859830  0.06243575  0.61140040  1
  O  O27  1  0.90859830  0.93756425  0.88859960  1
loop_
_geom_bond_atom_site_label_1
_geom_bond_atom_site_label_2
_geom_bond_distance
_geom_bond_site_symmetry_2
Mg0 O8 2.005604 1_455
Mg0 O2 2.033199 1_555
Mg0 O18 2.108767 1_565
Mg0 O27 2.123258 1_455
Mg0 O10 2.185078 1_556
Mg0 O22 2.363155 1_555
Mg1 O9 2.005604 1_555
Mg1 O3 2.033199 1_555
Mg1 O19 2.108767 1_545
Mg1 O26 2.123258 1_555
Mg1 O11 2.185078 1_555
Mg1 O23 2.363155 1_555
Mg2 O10 2.005604 1_655
Mg2 O0 2.033199 1_555
Mg2 O16 2.108767 1_545
Mg2 O25 2.123258 1_655
Mg2 O8 2.185078 1_554
Mg2 O20 2.363155 1_555
Mg3 O11 2.005604 1_555
Mg3 O1 2.033199 1_555
Mg3 O17 2.108767 1_565
Mg3 O24 2.123258 1_555
Mg3 O9 2.185078 1_555
Mg3 O21 2.363155 1_555
As0 O8 1.684734 1_555
As0 O23 1.688446 1_555
As0 O4 1.695691 1_555
As0 O12 1.731562 1_555
As1 O9 1.684734 1_555
As1 O22 1.688446 1_555
As1 O5 1.695691 1_555
As1 O13 1.731562 1_555
As2 O10 1.684734 1_555
As2 O21 1.688446 1_555
As2 O6 1.695691 1_555
As2 O14 1.731562 1_555
As3 O11 1.684734 1_555
As3 O20 1.688446 1_555
As3 O7 1.695691 1_555
As3 O15 1.731562 1_555
As4 O19 1.774193 1_555
As4 O27 1.815811 1_555
As4 O15 1.851454 1_556
As4 O23 2.463026 1_565
As5 O18 1.774193 1_555
As5 O26 1.815811 1_555
As5 O14 1.851454 1_555
As5 O22 2.463026 1_545
As6 O17 1.774193 1_555
As6 O25 1.815811 1_555
As6 O13 1.851454 1_554
As6 O21 2.463026 1_545
As7 O16 1.774193 1_555
As7 O24 1.815811 1_555
As7 O12 1.851454 1_555
As7 O20 2.463026 1_565
O0 V3 1.652497 1_555
O1 V2 1.652497 1_555
O2 V1 1.652497 1_555
O3 V0 1.652497 1_555
O4 V1 1.899028 1_555
O5 V0 1.899028 1_455
O6 V3 1.899028 1_555
O7 V2 1.899028 1_655
O16 V2 1.922466 1_655
O17 V3 1.922466 1_555
O18 V0 1.922466 1_455
O19 V1 1.922466 1_555
O20 V3 2.177036 1_555
O21 V2 2.177036 1_555
O22 V1 2.177036 1_555
O23 V0 2.177036 1_555
O24 V3 1.915151 1_565
O25 V2 1.915151 1_545
O26 V1 1.915151 1_545
O27 V0 1.915151 1_565
