# generated using pymatgen
data_Sm2Co16Ge
_symmetry_space_group_name_H-M   'P 1'
_cell_length_a   6.31485780
_cell_length_b   6.31485806
_cell_length_c   6.31485780
_cell_angle_alpha   83.18296987
_cell_angle_beta   83.18297530
_cell_angle_gamma   83.18296987
_symmetry_Int_Tables_number   1
_chemical_formula_structural   Sm2Co16Ge
_chemical_formula_sum   'Sm2 Co16 Ge1'
_cell_volume   246.87078707
_cell_formula_units_Z   1
loop_
 _symmetry_equiv_pos_site_id
 _symmetry_equiv_pos_as_xyz
  1  'x, y, z'
loop_
 _atom_site_type_symbol
 _atom_site_label
 _atom_site_symmetry_multiplicity
 _atom_site_fract_x
 _atom_site_fract_y
 _atom_site_fract_z
 _atom_site_occupancy
  Sm  Sm0  1  0.65588600  0.65588600  0.65588600  1
  Sm  Sm1  1  0.34892000  0.34892000  0.34892000  1
  Co  Co0  1  0.70983700  0.99815200  0.28702800  1
  Co  Co1  1  0.99815200  0.28702800  0.70983700  1
  Co  Co2  1  0.28702800  0.70983700  0.99815200  1
  Co  Co3  1  0.99815200  0.70983700  0.28702800  1
  Co  Co4  1  0.70983700  0.28702800  0.99815200  1
  Co  Co5  1  0.28702800  0.99815200  0.70983700  1
  Co  Co6  1  0.34938700  0.85150200  0.34938700  1
  Co  Co7  1  0.85150200  0.34938700  0.34938700  1
  Co  Co8  1  0.34938700  0.34938700  0.85150200  1
  Co  Co9  1  0.65529400  0.15011600  0.65529400  1
  Co  Co10  1  0.15011600  0.65529400  0.65529400  1
  Co  Co11  1  0.65529400  0.65529400  0.15011600  1
  Co  Co12  1  0.99671500  0.50278900  0.99671500  1
  Co  Co13  1  0.50278900  0.99671500  0.99671500  1
  Co  Co14  1  0.99671500  0.99671500  0.50278900  1
  Co  Co15  1  0.90051300  0.90051300  0.90051300  1
  Ge  Ge0  1  0.09744600  0.09744600  0.09744600  1
loop_
_geom_bond_atom_site_label_1
_geom_bond_atom_site_label_2
_geom_bond_distance
_geom_bond_site_symmetry_2
Co0 Co13 2.376199 1_554
Co0 Co14 2.391128 1_555
Co0 Co3 2.417174 1_555
Co0 Co4 2.421877 1_564
Co0 Co11 2.499180 1_555
Co0 Co6 2.528790 1_555
Co0 Co7 2.576221 1_565
Co0 Co9 2.590148 1_565
Co0 Co15 2.696436 1_554
Co0 Ge0 2.703352 1_665
Co0 Sm0 3.000730 1_555
Co0 Sm1 3.008197 1_565
Co1 Co14 2.376199 1_545
Co1 Co12 2.391128 1_555
Co1 Co4 2.417174 1_555
Co1 Co5 2.421877 1_645
Co1 Co9 2.499180 1_555
Co1 Co7 2.528790 1_555
Co1 Co8 2.576221 1_655
Co1 Co10 2.590149 1_655
Co1 Co15 2.696436 1_545
Co1 Ge0 2.703352 1_656
Co1 Sm0 3.000730 1_555
Co1 Sm1 3.008197 1_655
Co2 Co5 2.417174 1_555
Co2 Co3 2.421877 1_456
Co2 Co8 2.528790 1_555
Co2 Co6 2.576221 1_556
Co2 Ge0 2.703352 1_566
Co2 Sm0 3.000730 1_555
Co2 Sm1 3.008197 1_556
Co3 Co7 2.528790 1_555
Co3 Co6 2.576221 1_655
Co3 Ge0 2.703352 1_665
Co3 Sm0 3.000730 1_555
Co3 Sm1 3.008197 1_655
Co4 Co9 2.499180 1_555
Co4 Co8 2.528790 1_555
Co4 Co7 2.576221 1_556
Co4 Ge0 2.703352 1_656
Co4 Sm0 3.000730 1_555
Co4 Sm1 3.008197 1_556
Co5 Co6 2.528790 1_555
Co5 Co8 2.576221 1_565
Co5 Co9 2.590148 1_565
Co5 Ge0 2.703352 1_566
Co5 Sm0 3.000730 1_555
Co5 Sm1 3.008197 1_565
Co6 Ge0 2.627206 1_565
Co6 Sm0 2.961820 1_555
Co6 Sm1 3.140427 1_565
Co6 Sm1 3.174437 1_555
Co7 Co9 2.464795 1_555
Co7 Ge0 2.627206 1_655
Co7 Sm0 2.961820 1_555
Co7 Sm1 3.140427 1_655
Co7 Sm1 3.174437 1_555
Co8 Co9 2.464795 1_555
Co8 Ge0 2.627206 1_556
Co8 Sm0 2.961820 1_555
Co8 Sm1 3.140427 1_556
Co8 Sm1 3.174437 1_555
Co9 Sm1 2.966084 1_555
Co9 Sm0 3.120110 1_545
Co9 Sm0 3.194758 1_555
Co10 Co14 2.397295 1_455
Co10 Co12 2.397295 1_455
Co10 Co8 2.464795 1_555
Co10 Co6 2.464795 1_555
Co10 Co2 2.499180 1_555
Co10 Co5 2.499180 1_555
Co10 Co15 2.586631 1_455
Co10 Co3 2.590148 1_455
Co10 Sm1 2.966084 1_555
Co10 Sm0 3.120110 1_455
Co10 Sm0 3.194758 1_555
Co11 Co13 2.397295 1_554
Co11 Co12 2.397295 1_554
Co11 Co7 2.464795 1_555
Co11 Co6 2.464795 1_555
Co11 Co3 2.499180 1_555
Co11 Co15 2.586631 1_554
Co11 Co2 2.590148 1_554
Co11 Co4 2.590149 1_554
Co11 Sm1 2.966084 1_555
Co11 Sm0 3.120110 1_554
Co11 Sm0 3.194758 1_555
Co12 Co3 2.376199 1_556
Co12 Co2 2.376199 1_655
Co12 Co4 2.391128 1_555
Co12 Co7 2.439887 1_556
Co12 Co8 2.439887 1_655
Co12 Co15 2.531656 1_555
Co12 Ge0 2.585385 1_656
Co12 Sm0 3.211090 1_555
Co12 Sm1 3.314491 1_656
Co13 Co4 2.376199 1_565
Co13 Co5 2.391128 1_555
Co13 Co2 2.391128 1_555
Co13 Co9 2.397295 1_565
Co13 Co8 2.439887 1_565
Co13 Co6 2.439887 1_556
Co13 Co15 2.531656 1_555
Co13 Ge0 2.585385 1_566
Co13 Sm0 3.211091 1_555
Co13 Sm1 3.314491 1_566
Co14 Co5 2.376199 1_655
Co14 Co3 2.391128 1_555
Co14 Co9 2.397295 1_565
Co14 Co7 2.439887 1_565
Co14 Co6 2.439887 1_655
Co14 Co15 2.531656 1_555
Co14 Ge0 2.585385 1_665
Co14 Sm0 3.211091 1_555
Co14 Sm1 3.314491 1_665
Co15 Ge0 2.396059 1_666
Co15 Co9 2.586631 1_565
Co15 Co3 2.696436 1_556
Co15 Co2 2.696436 1_655
Co15 Co5 2.696436 1_655
Co15 Co4 2.696436 1_565
Co15 Sm0 2.976345 1_555
Ge0 Sm1 3.059652 1_555
