# generated using pymatgen
data_Ce2Ge6Pt
_symmetry_space_group_name_H-M   'P 1'
_cell_length_a   4.14672200
_cell_length_b   4.17340800
_cell_length_c   11.25956195
_cell_angle_alpha   90.00000000
_cell_angle_beta   100.61112745
_cell_angle_gamma   90.00000000
_symmetry_Int_Tables_number   1
_chemical_formula_structural   Ce2Ge6Pt
_chemical_formula_sum   'Ce2 Ge6 Pt1'
_cell_volume   191.52541877
_cell_formula_units_Z   1
loop_
 _symmetry_equiv_pos_site_id
 _symmetry_equiv_pos_as_xyz
  1  'x, y, z'
loop_
 _atom_site_type_symbol
 _atom_site_label
 _atom_site_symmetry_multiplicity
 _atom_site_fract_x
 _atom_site_fract_y
 _atom_site_fract_z
 _atom_site_occupancy
  Ce  Ce0  1  0.77921000  0.50000000  0.55842100  1
  Ce  Ce1  1  0.11423100  0.50000000  0.22846200  1
  Ge  Ge0  1  0.49417000  0.50000000  0.98833900  1
  Ge  Ge1  1  0.38125500  0.50000000  0.76251100  1
  Ge  Ge2  1  0.99389800  0.00000000  0.98779600  1
  Ge  Ge3  1  0.88109200  0.00000000  0.76218400  1
  Ge  Ge4  1  0.66896500  0.00000000  0.33792900  1
  Ge  Ge5  1  0.23608100  0.00000000  0.47216100  1
  Pt  Pt0  1  0.55809900  0.00000000  0.11619700  1
loop_
_geom_bond_atom_site_label_1
_geom_bond_atom_site_label_2
_geom_bond_distance
_geom_bond_site_symmetry_2
Ce0 Ge1 3.066008 1_655
Ce0 Ge1 3.066008 1_555
Ce0 Ge3 3.072390 1_565
Ce0 Ge3 3.072390 1_555
Ce0 Ge5 3.092650 1_555
Ce0 Ge5 3.092650 1_565
Ce0 Ge5 3.092655 1_655
Ce0 Ge5 3.092655 1_665
Ce0 Ge4 3.210741 1_555
Ce0 Ge4 3.210741 1_565
Ce1 Ge4 3.181323 1_465
Ce1 Ge4 3.181323 1_455
Ce1 Ge4 3.181326 1_565
Ce1 Ge4 3.181326 1_555
Ce1 Pt0 3.193244 1_465
Ce1 Pt0 3.193244 1_455
Ce1 Pt0 3.193246 1_555
Ce1 Pt0 3.193246 1_565
Ce1 Ge0 3.370584 1_454
Ce1 Ge0 3.370586 1_554
Ce1 Ge2 3.383538 1_464
Ce1 Ge2 3.383538 1_454
Ce1 Ge5 3.410023 1_565
Ce1 Ge5 3.410023 1_555
Ge0 Ge1 2.499243 1_555
Ge0 Pt0 2.521226 1_556
Ge0 Pt0 2.521226 1_566
Ge0 Ge2 2.941630 1_555
Ge0 Ge2 2.941630 1_565
Ge0 Ge2 2.941633 1_465
Ge0 Ge2 2.941633 1_455
Ge1 Ge3 2.941626 1_465
Ge1 Ge3 2.941626 1_455
Ge1 Ge3 2.941629 1_565
Ge1 Ge3 2.941629 1_555
Ge2 Ge3 2.496852 1_555
Ge2 Pt0 2.513584 1_556
Ge2 Pt0 2.513587 1_656
Ge4 Pt0 2.453912 1_555
Ge4 Ge5 2.550623 1_655
Ge4 Ge5 2.550623 1_555
