# generated using pymatgen
data_DyCrTeO6
_symmetry_space_group_name_H-M   'P 1'
_cell_length_a   5.11654733
_cell_length_b   5.11654742
_cell_length_c   9.69640800
_cell_angle_alpha   90.00000000
_cell_angle_beta   90.00000000
_cell_angle_gamma   119.99999938
_symmetry_Int_Tables_number   1
_chemical_formula_structural   DyCrTeO6
_chemical_formula_sum   'Dy2 Cr2 Te2 O12'
_cell_volume   219.83433028
_cell_formula_units_Z   2
loop_
 _symmetry_equiv_pos_site_id
 _symmetry_equiv_pos_as_xyz
  1  'x, y, z'
loop_
 _atom_site_type_symbol
 _atom_site_label
 _atom_site_symmetry_multiplicity
 _atom_site_fract_x
 _atom_site_fract_y
 _atom_site_fract_z
 _atom_site_occupancy
  Dy  Dy0  1  -0.00000000  -0.00000000  0.50000000  1
  Dy  Dy1  1  -0.00000000  -0.00000000  -0.00000000  1
  Cr  Cr0  1  0.33333300  0.66666700  0.25000000  1
  Cr  Cr1  1  0.66666700  0.33333300  0.75000000  1
  Te  Te0  1  0.33333300  0.66666700  0.75000000  1
  Te  Te1  1  0.66666700  0.33333300  0.25000000  1
  O  O0  1  0.64316925  0.63432144  0.35996239  1
  O  O1  1  0.99115219  0.35683075  0.35996239  1
  O  O2  1  0.36567856  0.00884781  0.35996239  1
  O  O3  1  0.35683075  0.36567856  0.64003761  1
  O  O4  1  0.00884781  0.64316925  0.64003761  1
  O  O5  1  0.63432144  0.99115219  0.64003761  1
  O  O6  1  0.36567856  0.35683075  0.14003761  1
  O  O7  1  0.99115219  0.63432144  0.14003761  1
  O  O8  1  0.64316925  0.00884781  0.14003761  1
  O  O9  1  0.63432144  0.64316925  0.85996239  1
  O  O10  1  0.00884781  0.36567856  0.85996239  1
  O  O11  1  0.35683075  0.99115219  0.85996239  1
loop_
_geom_bond_atom_site_label_1
_geom_bond_atom_site_label_2
_geom_bond_distance
_geom_bond_site_symmetry_2
Dy0 O2 2.293866 1_555
Dy0 O5 2.293866 1_445
Dy0 O4 2.293866 1_545
Dy0 O1 2.293866 1_455
Dy0 O0 2.293866 1_445
Dy0 O3 2.293866 1_555
Dy1 O8 2.293866 1_455
Dy1 O11 2.293866 1_544
Dy1 O7 2.293866 1_445
Dy1 O10 2.293866 1_554
Dy1 O6 2.293866 1_555
Dy1 O9 2.293866 1_444
Cr0 O7 1.984881 1_455
Cr0 O2 1.984881 1_565
Cr0 O1 1.984883 1_455
Cr0 O8 1.984883 1_565
Cr0 O0 1.984885 1_555
Cr0 O6 1.984885 1_555
Cr1 O10 1.984881 1_655
Cr1 O5 1.984881 1_545
Cr1 O4 1.984883 1_655
Cr1 O11 1.984883 1_545
Cr1 O3 1.984885 1_555
Cr1 O9 1.984885 1_555
O0 Te1 1.925654 1_555
O1 Te1 1.925649 1_555
O2 Te1 1.925651 1_555
O3 Te0 1.925654 1_555
O4 Te0 1.925649 1_555
O5 Te0 1.925651 1_555
O6 Te1 1.925654 1_555
O7 Te1 1.925651 1_555
O8 Te1 1.925649 1_555
O9 Te0 1.925654 1_555
O10 Te0 1.925651 1_555
O11 Te0 1.925649 1_555
