# generated using pymatgen
data_Mg(AgO2)2
_symmetry_space_group_name_H-M   'P 1'
_cell_length_a   5.57779409
_cell_length_b   6.34398315
_cell_length_c   10.99830303
_cell_angle_alpha   90.64284283
_cell_angle_beta   89.97792530
_cell_angle_gamma   90.00190145
_symmetry_Int_Tables_number   1
_chemical_formula_structural   Mg(AgO2)2
_chemical_formula_sum   'Mg4 Ag8 O16'
_cell_volume   389.15517705
_cell_formula_units_Z   4
loop_
 _symmetry_equiv_pos_site_id
 _symmetry_equiv_pos_as_xyz
  1  'x, y, z'
loop_
 _atom_site_type_symbol
 _atom_site_label
 _atom_site_symmetry_multiplicity
 _atom_site_fract_x
 _atom_site_fract_y
 _atom_site_fract_z
 _atom_site_occupancy
  Mg  Mg0  1  0.86506500  0.24913400  0.74994700  1
  Mg  Mg1  1  0.13523600  0.75012800  0.25013900  1
  Mg  Mg2  1  0.57973500  0.25071600  0.25027800  1
  Mg  Mg3  1  0.41915900  0.74964900  0.74967500  1
  Ag  Ag0  1  0.53495800  0.74943100  0.46478700  1
  Ag  Ag1  1  0.53561500  0.75111800  0.03540900  1
  Ag  Ag2  1  0.46451700  0.25036600  0.53492600  1
  Ag  Ag3  1  0.46489800  0.24924800  0.96483900  1
  Ag  Ag4  1  0.99991000  0.49987400  0.49996900  1
  Ag  Ag5  1  0.00045700  0.00019500  0.00010800  1
  Ag  Ag6  1  0.99994800  0.00010100  0.49990600  1
  Ag  Ag7  1  0.00039400  0.49988900  0.00011300  1
  O  O0  1  0.89527300  0.74351400  0.38616400  1
  O  O1  1  0.89573300  0.75757000  0.11413700  1
  O  O2  1  0.10496300  0.25638300  0.61383300  1
  O  O3  1  0.10538300  0.24253400  0.88584700  1
  O  O4  1  0.22309000  0.74403500  0.58603300  1
  O  O5  1  0.22234800  0.75616700  0.91449100  1
  O  O6  1  0.77611100  0.25597500  0.41394600  1
  O  O7  1  0.77779900  0.24408300  0.08563500  1
  O  O8  1  0.64917300  0.50190800  0.68379700  1
  O  O9  1  0.64930900  0.99708700  0.81626100  1
  O  O10  1  0.35051100  0.00243900  0.31857100  1
  O  O11  1  0.35104800  0.49838400  0.18128300  1
  O  O12  1  0.35046600  0.49799500  0.31615100  1
  O  O13  1  0.35039000  0.00298800  0.18382400  1
  O  O14  1  0.64872800  0.99738700  0.68146300  1
  O  O15  1  0.64978300  0.50169900  0.81847000  1
loop_
_geom_bond_atom_site_label_1
_geom_bond_atom_site_label_2
_geom_bond_distance
_geom_bond_site_symmetry_2
Mg0 O2 2.008409 1_655
Mg0 O3 2.008863 1_655
Mg0 O14 2.132521 1_545
Mg0 O15 2.132952 1_555
Mg0 O9 2.135959 1_545
Mg0 O8 2.139605 1_555
Mg1 O1 2.006832 1_455
Mg1 O0 2.007799 1_455
Mg1 O10 2.131648 1_565
Mg1 O11 2.131998 1_555
Mg1 O12 2.133933 1_555
Mg1 O13 2.137960 1_565
Mg2 O6 2.107443 1_555
Mg2 O7 2.120847 1_555
Mg2 O12 2.143618 1_555
Mg2 O13 2.148330 1_555
Mg2 O11 2.167764 1_555
Mg2 O10 2.169191 1_555
Mg3 O4 2.106324 1_555
Mg3 O5 2.118836 1_555
Mg3 O8 2.148250 1_555
Mg3 O9 2.150153 1_555
Mg3 O14 2.167517 1_555
Mg3 O15 2.174657 1_555
Ag0 O0 2.187746 1_555
Ag0 O4 2.191942 1_555
Ag0 O12 2.493669 1_555
Ag0 O10 2.506013 1_565
Ag1 O1 2.187849 1_555
Ag1 O5 2.196721 1_554
Ag1 O13 2.495050 1_565
Ag1 O11 2.502170 1_555
Ag2 O2 2.185093 1_555
Ag2 O6 2.188982 1_555
Ag2 O8 2.496149 1_555
Ag2 O14 2.507647 1_545
Ag3 O3 2.185938 1_555
Ag3 O7 2.194300 1_556
Ag3 O9 2.495505 1_545
Ag3 O15 2.505270 1_555
Ag4 O0 2.083353 1_555
Ag4 O2 2.083693 1_655
Ag4 O4 2.193802 1_655
Ag4 O6 2.194408 1_555
Ag4 O12 2.811954 1_655
Ag4 O8 2.812731 1_555
Ag5 O1 2.079878 1_445
Ag5 O3 2.080401 1_554
Ag5 O5 2.186700 1_544
Ag5 O7 2.188083 1_455
Ag5 O13 2.809797 1_555
Ag5 O9 2.815543 1_444
Ag6 O0 2.123746 1_545
Ag6 O2 2.123981 1_655
Ag6 O4 2.262944 1_645
Ag6 O6 2.263417 1_555
Ag6 O10 2.792648 1_655
Ag6 O14 2.796989 1_545
Ag7 O1 2.130565 1_455
Ag7 O3 2.131040 1_554
Ag7 O7 2.256780 1_455
Ag7 O5 2.257453 1_554
Ag7 O11 2.792719 1_555
Ag7 O15 2.796289 1_454
O10 O13 1.482032 1_555
O11 O12 1.483351 1_555
O14 O9 1.482577 1_555
O15 O8 1.481195 1_555
