# generated using pymatgen
data_K3YCl6
_symmetry_space_group_name_H-M   'P 1'
_cell_length_a   7.71085876
_cell_length_b   12.66190531
_cell_length_c   13.03584079
_cell_angle_alpha   97.79385436
_cell_angle_beta   107.19158212
_cell_angle_gamma   90.00576367
_symmetry_Int_Tables_number   1
_chemical_formula_structural   K3YCl6
_chemical_formula_sum   'K12 Y4 Cl24'
_cell_volume   1203.56163466
_cell_formula_units_Z   4
loop_
 _symmetry_equiv_pos_site_id
 _symmetry_equiv_pos_as_xyz
  1  'x, y, z'
loop_
 _atom_site_type_symbol
 _atom_site_label
 _atom_site_symmetry_multiplicity
 _atom_site_fract_x
 _atom_site_fract_y
 _atom_site_fract_z
 _atom_site_occupancy
  K  K0  1  0.70989805  0.05287687  0.88466060  1
  K  K1  1  0.29009704  0.94710506  0.11532522  1
  K  K2  1  0.82524102  0.44718855  0.11522316  1
  K  K3  1  0.17481887  0.55283231  0.88480299  1
  K  K4  1  0.52402106  0.35326639  0.69128124  1
  K  K5  1  0.47598120  0.64677956  0.30874566  1
  K  K6  1  0.83286872  0.14682748  0.30887226  1
  K  K7  1  0.16711792  0.85317652  0.69114783  1
  K  K8  1  0.34197367  0.30881714  0.32563025  1
  K  K9  1  0.65801765  0.69119573  0.67437814  1
  K  K10  1  0.01596604  0.19128281  0.67447389  1
  K  K11  1  0.98403010  0.80872293  0.32550947  1
  Y  Y0  1  0.19016829  0.24998520  0.00007877  1
  Y  Y1  1  0.80982895  0.74999945  0.99991614  1
  Y  Y2  1  0.49999372  0.00000204  0.49999753  1
  Y  Y3  1  -0.00000026  0.50000265  0.50000014  1
  Cl  Cl0  1  0.36899170  0.07195478  0.66148958  1
  Cl  Cl1  1  0.63099531  0.92803811  0.33850255  1
  Cl  Cl2  1  0.70776745  0.42793199  0.33841942  1
  Cl  Cl3  1  0.29223938  0.57208151  0.66156867  1
  Cl  Cl4  1  0.47541760  0.18012655  0.13769493  1
  Cl  Cl5  1  0.52454043  0.81984585  0.86232637  1
  Cl  Cl6  1  0.33751149  0.31982508  0.86230052  1
  Cl  Cl7  1  0.66247645  0.68017252  0.13769300  1
  Cl  Cl8  1  0.20040106  0.03328896  0.35064844  1
  Cl  Cl9  1  0.79958489  0.96671135  0.64934732  1
  Cl  Cl10  1  0.84955486  0.46668932  0.64927329  1
  Cl  Cl11  1  0.15046518  0.53331428  0.35073335  1
  Cl  Cl12  1  0.13518764  0.71952388  0.13312731  1
  Cl  Cl13  1  0.86481658  0.28045627  0.86686457  1
  Cl  Cl14  1  0.00162527  0.78030143  0.86650474  1
  Cl  Cl15  1  0.99835822  0.21969044  0.13348848  1
  Cl  Cl16  1  0.25732981  0.44460514  0.10325043  1
  Cl  Cl17  1  0.74267934  0.55538318  0.89674104  1
  Cl  Cl18  1  0.15397220  0.05541004  0.89683526  1
  Cl  Cl19  1  0.84606423  0.94457837  0.10314729  1
  Cl  Cl20  1  0.63217758  0.19423946  0.49973240  1
  Cl  Cl21  1  0.36781430  0.80576243  0.50026309  1
  Cl  Cl22  1  0.13260619  0.30578538  0.50034919  1
  Cl  Cl23  1  0.86740179  0.69421996  0.49965449  1
loop_
_geom_bond_atom_site_label_1
_geom_bond_atom_site_label_2
_geom_bond_distance
_geom_bond_site_symmetry_2
Cl0 Y2 2.649392 1_555
Cl0 K10 3.150454 1_555
Cl0 K7 3.300248 1_545
Cl0 K0 3.331960 1_555
Cl0 K4 3.690092 1_555
Cl1 Y2 2.649456 1_565
Cl1 K11 3.150467 1_555
Cl1 K6 3.300232 1_565
Cl1 K1 3.331954 1_555
Cl1 K5 3.689474 1_555
Cl2 Y3 2.649451 1_655
Cl2 K8 3.148204 1_555
Cl2 K5 3.302361 1_555
Cl2 K2 3.331032 1_555
Cl2 K6 3.687294 1_555
Cl3 Y3 2.649432 1_555
Cl3 K9 3.148022 1_555
Cl3 K4 3.302028 1_555
Cl3 K3 3.331275 1_555
Cl3 K7 3.687246 1_555
Cl4 Y0 2.633777 1_555
Cl4 K6 3.061653 1_555
Cl4 K8 3.181780 1_555
Cl4 K1 3.217440 1_545
Cl5 Y1 2.633737 1_555
Cl5 K7 3.061604 1_555
Cl5 K9 3.181846 1_555
Cl5 K0 3.217745 1_565
Cl6 Y0 2.633525 1_556
Cl6 K4 3.060865 1_555
Cl6 K10 3.181383 1_555
Cl6 K3 3.216789 1_555
Cl7 Y1 2.633484 1_554
Cl7 K5 3.061030 1_555
Cl7 K11 3.181398 1_555
Cl7 K2 3.216719 1_555
Cl8 Y2 2.620831 1_555
Cl8 K6 3.113781 1_455
Cl8 K11 3.224780 1_445
Cl8 K1 3.380238 1_545
Cl8 K8 3.739979 1_555
Cl9 Y2 2.620841 1_565
Cl9 K7 3.113753 1_655
Cl9 K10 3.224905 1_665
Cl9 K0 3.380038 1_565
Cl9 K9 3.739865 1_555
Cl10 Y3 2.620518 1_655
Cl10 K4 3.112614 1_555
Cl10 K9 3.225439 1_555
Cl10 K3 3.383205 1_655
Cl10 K10 3.738614 1_655
Cl11 Y3 2.620543 1_555
Cl11 K5 3.112631 1_555
Cl11 K8 3.225226 1_555
Cl11 K2 3.382853 1_455
Cl11 K11 3.738732 1_455
Cl12 Y1 2.658019 1_454
Cl12 K11 3.143800 1_455
Cl12 K5 3.164015 1_555
Cl12 K1 3.182589 1_555
Cl12 K3 3.709301 1_554
Cl13 Y0 2.657981 1_656
Cl13 K10 3.143776 1_655
Cl13 K4 3.164113 1_555
Cl13 K0 3.182572 1_555
Cl13 K2 3.709754 1_556
Cl14 Y1 2.657113 1_455
Cl14 K9 3.142592 1_455
Cl14 K7 3.162518 1_555
Cl14 K3 3.183503 1_555
Cl14 K1 3.715568 1_556
Cl15 Y0 2.657152 1_655
Cl15 K8 3.142794 1_655
Cl15 K6 3.162752 1_555
Cl15 K2 3.183573 1_555
Cl15 K0 3.715654 1_554
Cl16 Y0 2.615096 1_555
Cl16 K3 3.221697 1_554
Cl16 K2 3.381152 1_455
Cl16 K8 3.466892 1_555
Cl16 K5 3.470033 1_555
Cl17 Y1 2.615066 1_555
Cl17 K2 3.221846 1_556
Cl17 K3 3.381390 1_655
Cl17 K9 3.466886 1_555
Cl17 K4 3.469341 1_555
Cl18 Y0 2.614868 1_556
Cl18 K1 3.222882 1_546
Cl18 K0 3.380631 1_455
Cl18 K10 3.467560 1_555
Cl18 K7 3.472064 1_545
Cl19 Y1 2.614839 1_554
Cl19 K0 3.222822 1_564
Cl19 K1 3.380301 1_655
Cl19 K11 3.467416 1_555
Cl19 K6 3.472621 1_565
Cl20 Y2 2.662986 1_555
Cl20 K10 3.160092 1_655
Cl20 K8 3.186624 1_555
Cl20 K6 3.288844 1_555
Cl20 K4 3.294349 1_555
Cl21 Y2 2.663000 1_565
Cl21 K11 3.160144 1_455
Cl21 K9 3.186640 1_555
Cl21 K7 3.289153 1_555
Cl21 K5 3.293796 1_555
Cl22 Y3 2.663420 1_555
Cl22 K8 3.161102 1_555
Cl22 K10 3.187830 1_555
Cl22 K4 3.289182 1_555
Cl22 K6 3.293840 1_455
Cl23 Y3 2.663395 1_655
Cl23 K9 3.161238 1_555
Cl23 K11 3.188015 1_555
Cl23 K5 3.289032 1_555
Cl23 K7 3.293853 1_655
