# generated using pymatgen
data_TmMoC2
_symmetry_space_group_name_H-M   'P 1'
_cell_length_a   3.34414600
_cell_length_b   5.66623200
_cell_length_c   10.73944400
_cell_angle_alpha   90.00000000
_cell_angle_beta   90.00000000
_cell_angle_gamma   90.00000000
_symmetry_Int_Tables_number   1
_chemical_formula_structural   TmMoC2
_chemical_formula_sum   'Tm4 Mo4 C8'
_cell_volume   203.49857854
_cell_formula_units_Z   4
loop_
 _symmetry_equiv_pos_site_id
 _symmetry_equiv_pos_as_xyz
  1  'x, y, z'
loop_
 _atom_site_type_symbol
 _atom_site_label
 _atom_site_symmetry_multiplicity
 _atom_site_fract_x
 _atom_site_fract_y
 _atom_site_fract_z
 _atom_site_occupancy
  Tm  Tm0  1  0.25000000  0.08546800  0.86299500  1
  Tm  Tm1  1  0.25000000  0.58546800  0.63700500  1
  Tm  Tm2  1  0.75000000  0.91453200  0.13700500  1
  Tm  Tm3  1  0.75000000  0.41453200  0.36299500  1
  Mo  Mo0  1  0.25000000  0.40042000  0.10937700  1
  Mo  Mo1  1  0.25000000  0.90042000  0.39062300  1
  Mo  Mo2  1  0.75000000  0.59958000  0.89062300  1
  Mo  Mo3  1  0.75000000  0.09958000  0.60937700  1
  C  C0  1  0.25000000  0.15878500  0.24696000  1
  C  C1  1  0.25000000  0.65878500  0.25304000  1
  C  C2  1  0.75000000  0.84121500  0.75304000  1
  C  C3  1  0.75000000  0.34121500  0.74696000  1
  C  C4  1  0.25000000  0.72976500  0.98716500  1
  C  C5  1  0.25000000  0.22976500  0.51283500  1
  C  C6  1  0.75000000  0.27023500  0.01283500  1
  C  C7  1  0.75000000  0.77023500  0.48716500  1
loop_
_geom_bond_atom_site_label_1
_geom_bond_atom_site_label_2
_geom_bond_distance
_geom_bond_site_symmetry_2
C0 Mo0 2.014397 1_555
C0 Mo1 2.126872 1_545
C0 Tm2 2.470969 1_445
C0 Tm2 2.470969 1_545
C0 Tm3 2.539424 1_555
C0 Tm3 2.539424 1_455
C1 Mo1 2.014397 1_555
C1 Mo0 2.126872 1_555
C1 Tm3 2.470969 1_555
C1 Tm3 2.470969 1_455
C1 Tm2 2.539424 1_455
C1 Tm2 2.539424 1_555
C2 Mo2 2.014397 1_555
C2 Mo3 2.126872 1_565
C2 Tm0 2.470969 1_665
C2 Tm0 2.470969 1_565
C2 Tm1 2.539424 1_655
C2 Tm1 2.539424 1_555
C3 Mo3 2.014397 1_555
C3 Mo2 2.126872 1_555
C3 Tm1 2.470969 1_655
C3 Tm1 2.470969 1_555
C3 Tm0 2.539424 1_655
C3 Tm0 2.539424 1_555
C4 Mo2 2.101175 1_555
C4 Mo2 2.101175 1_455
C4 Mo0 2.281474 1_556
C4 Tm0 2.416711 1_565
C4 Tm2 2.545862 1_456
C4 Tm2 2.545862 1_556
C5 Mo3 2.101175 1_555
C5 Mo3 2.101175 1_455
C5 Mo1 2.281474 1_545
C5 Tm1 2.416711 1_555
C5 Tm3 2.545862 1_555
C5 Tm3 2.545862 1_455
C6 Mo0 2.101175 1_655
C6 Mo0 2.101175 1_555
C6 Mo2 2.281474 1_554
C6 Tm2 2.416711 1_545
C6 Tm0 2.545862 1_654
C6 Tm0 2.545862 1_554
C7 Mo1 2.101175 1_555
C7 Mo1 2.101175 1_655
C7 Mo3 2.281474 1_565
C7 Tm3 2.416711 1_555
C7 Tm1 2.545862 1_655
C7 Tm1 2.545862 1_555
