# generated using pymatgen
data_SrCaMn2O6
_symmetry_space_group_name_H-M   'P 1'
_cell_length_a   5.38068607
_cell_length_b   5.38151907
_cell_length_c   7.76148600
_cell_angle_alpha   90.00022049
_cell_angle_beta   90.00029674
_cell_angle_gamma   89.98144125
_symmetry_Int_Tables_number   1
_chemical_formula_structural   SrCaMn2O6
_chemical_formula_sum   'Sr2 Ca2 Mn4 O12'
_cell_volume   224.74363130
_cell_formula_units_Z   2
loop_
 _symmetry_equiv_pos_site_id
 _symmetry_equiv_pos_as_xyz
  1  'x, y, z'
loop_
 _atom_site_type_symbol
 _atom_site_label
 _atom_site_symmetry_multiplicity
 _atom_site_fract_x
 _atom_site_fract_y
 _atom_site_fract_z
 _atom_site_occupancy
  Sr  Sr0  1  0.50000000  0.00000000  0.25005200  1
  Sr  Sr1  1  0.00000000  0.50000000  0.75005900  1
  Ca  Ca0  1  0.00000000  0.50000000  0.24994000  1
  Ca  Ca1  1  0.50000000  0.00000000  0.74994800  1
  Mn  Mn0  1  0.00000200  0.00000200  0.50001000  1
  Mn  Mn1  1  0.49999900  0.50000100  0.50000200  1
  Mn  Mn2  1  0.50000100  0.49999800  0.00000800  1
  Mn  Mn3  1  0.00000000  0.99999900  0.99999500  1
  O  O0  1  0.50000000  0.49999900  0.25000300  1
  O  O1  1  0.00000000  0.99999900  0.75001300  1
  O  O2  1  0.99999900  0.00000100  0.25000000  1
  O  O3  1  0.49999900  0.50000100  0.75001600  1
  O  O4  1  0.20212800  0.29786000  0.48913700  1
  O  O5  1  0.70213200  0.79786300  0.98913500  1
  O  O6  1  0.79787200  0.70214000  0.48913700  1
  O  O7  1  0.29786700  0.20213700  0.98913500  1
  O  O8  1  0.79789800  0.29789400  0.01085200  1
  O  O9  1  0.29790200  0.79789200  0.51085100  1
  O  O10  1  0.20210100  0.70210600  0.01085300  1
  O  O11  1  0.70209800  0.20210800  0.51085200  1
loop_
_geom_bond_atom_site_label_1
_geom_bond_atom_site_label_2
_geom_bond_distance
_geom_bond_site_symmetry_2
Ca0 O8 2.410346 1_455
Ca0 O10 2.410353 1_555
Ca0 O4 2.410832 1_555
Ca0 O6 2.410834 1_455
Ca0 O0 2.690343 1_555
Ca0 O0 2.690343 1_455
Ca0 O2 2.690754 1_455
Ca0 O2 2.690765 1_465
Ca1 O9 2.410395 1_545
Ca1 O11 2.410404 1_555
Ca1 O5 2.410774 1_545
Ca1 O7 2.410779 1_555
Ca1 O1 2.690343 1_645
Ca1 O1 2.690343 1_545
Ca1 O3 2.690754 1_545
Ca1 O3 2.690765 1_555
Mn0 O9 1.938623 1_545
Mn0 O11 1.938630 1_455
Mn0 O4 1.939189 1_555
Mn0 O6 1.939218 1_445
Mn0 O1 1.940395 1_545
Mn0 O2 1.940449 1_455
Mn1 O9 1.938658 1_555
Mn1 O11 1.938673 1_555
Mn1 O4 1.939178 1_555
Mn1 O6 1.939182 1_555
Mn1 O0 1.940364 1_555
Mn1 O3 1.940480 1_555
Mn2 O8 1.938593 1_555
Mn2 O10 1.938619 1_555
Mn2 O7 1.939226 1_554
Mn2 O5 1.939236 1_554
Mn2 O3 1.940309 1_554
Mn2 O0 1.940333 1_555
Mn3 O10 1.938682 1_556
Mn3 O8 1.938693 1_466
Mn3 O5 1.939148 1_455
Mn3 O7 1.939151 1_565
Mn3 O1 1.940232 1_555
Mn3 O2 1.940410 1_466
O0 Sr0 2.690754 1_555
O0 Sr0 2.690765 1_565
O1 Sr1 2.690754 1_555
O1 Sr1 2.690765 1_565
O2 Sr0 2.690338 1_555
O2 Sr0 2.690348 1_655
O3 Sr1 2.690338 1_555
O3 Sr1 2.690348 1_655
O4 Sr1 2.542959 1_555
O4 Sr0 2.929170 1_555
O5 Sr0 2.542930 1_566
O5 Sr1 2.929123 1_655
O6 Sr1 2.542957 1_655
O6 Sr0 2.929168 1_565
O7 Sr0 2.542930 1_556
O7 Sr1 2.929117 1_555
O8 Sr1 2.542332 1_654
O8 Sr0 2.930488 1_555
O9 Sr0 2.542364 1_565
O9 Sr1 2.930534 1_555
O10 Sr1 2.542320 1_554
O10 Sr0 2.930468 1_565
O11 Sr0 2.542355 1_555
O11 Sr1 2.930510 1_655
