# generated using pymatgen
data_Li9Mn2Co5O16
_symmetry_space_group_name_H-M   'P 1'
_cell_length_a   2.96912400
_cell_length_b   7.79256039
_cell_length_c   12.58283118
_cell_angle_alpha   88.90008152
_cell_angle_beta   89.69097144
_cell_angle_gamma   81.55865770
_symmetry_Int_Tables_number   1
_chemical_formula_structural   Li9Mn2Co5O16
_chemical_formula_sum   'Li9 Mn2 Co5 O16'
_cell_volume   287.92200122
_cell_formula_units_Z   1
loop_
 _symmetry_equiv_pos_site_id
 _symmetry_equiv_pos_as_xyz
  1  'x, y, z'
loop_
 _atom_site_type_symbol
 _atom_site_label
 _atom_site_symmetry_multiplicity
 _atom_site_fract_x
 _atom_site_fract_y
 _atom_site_fract_z
 _atom_site_occupancy
  Li  Li0  1  0.19825000  0.62193700  0.05740400  1
  Li  Li1  1  0.93794100  0.12588800  0.31139100  1
  Li  Li2  1  0.68500700  0.62514300  0.56525200  1
  Li  Li3  1  0.79409600  0.38132600  0.93226900  1
  Li  Li4  1  0.55653500  0.87623200  0.18886700  1
  Li  Li5  1  0.30946200  0.37545100  0.43834900  1
  Li  Li6  1  0.44948700  0.11287500  0.81158500  1
  Li  Li7  1  0.06793800  0.87177900  0.69697700  1
  Li  Li8  1  0.60684800  0.75909700  0.87084900  1
  Mn  Mn0  1  0.00936600  0.99302000  0.99649800  1
  Mn  Mn1  1  0.50039900  0.00113100  0.50135800  1
  Co  Co0  1  0.74436000  0.49998100  0.24625400  1
  Co  Co1  1  0.24358700  0.51076400  0.75547500  1
  Co  Co2  1  0.38316600  0.24728400  0.12450100  1
  Co  Co3  1  0.13014500  0.74739900  0.37586400  1
  Co  Co4  1  0.86825100  0.25293100  0.62945600  1
  O  O0  1  0.57458300  0.83486600  0.02827100  1
  O  O1  1  0.33095700  0.31987700  0.26926000  1
  O  O2  1  0.13454600  0.81508200  0.52443200  1
  O  O3  1  0.22438600  0.54975400  0.89192200  1
  O  O4  1  0.00346300  0.07175200  0.14833400  1
  O  O5  1  0.71714900  0.56790900  0.39810200  1
  O  O6  1  0.87866800  0.32118000  0.77410600  1
  O  O7  1  0.45461300  0.06910300  0.65041500  1
  O  O8  1  0.74924300  0.42715700  0.09613400  1
  O  O9  1  0.54325100  0.93090500  0.35081100  1
  O  O10  1  0.28822100  0.43468500  0.60842600  1
  O  O11  1  0.43947100  0.16663500  0.97979700  1
  O  O12  1  0.15757000  0.67950500  0.22351600  1
  O  O13  1  0.86244000  0.19053400  0.47713900  1
  O  O14  1  0.02273200  0.94691300  0.85540700  1
  O  O15  1  0.63387100  0.67190600  0.72157500  1
loop_
_geom_bond_atom_site_label_1
_geom_bond_atom_site_label_2
_geom_bond_distance
_geom_bond_site_symmetry_2
Li0 O8 2.113971 1_555
Li0 O12 2.145219 1_555
Li0 O0 2.156994 1_555
Li0 O3 2.165298 1_554
Li0 O8 2.208463 1_455
Li0 O0 2.323442 1_455
Li1 O1 2.099602 1_655
Li1 O9 2.101317 1_545
Li1 O4 2.104802 1_655
Li1 O13 2.157731 1_555
Li1 O9 2.227932 1_645
Li1 O1 2.234689 1_555
Li2 O15 2.008215 1_555
Li2 O10 2.088364 1_555
Li2 O2 2.096523 1_555
Li2 O5 2.157060 1_555
Li2 O2 2.186206 1_655
Li2 O10 2.214657 1_655
Li3 O3 2.017994 1_655
Li3 O3 2.042922 1_555
Li3 O6 2.058942 1_555
Li3 O8 2.099524 1_556
Li3 O11 2.176506 1_555
Li3 O11 2.420975 1_655
Li4 O0 2.051582 1_555
Li4 O9 2.088750 1_555
Li4 O12 2.108397 1_555
Li4 O4 2.126674 1_565
Li4 O4 2.213328 1_665
Li4 O12 2.214575 1_655
Li5 O13 2.073013 1_555
Li5 O5 2.113799 1_555
Li5 O13 2.145646 1_455
Li5 O1 2.178112 1_555
Li5 O5 2.191946 1_455
Li5 O10 2.196537 1_555
Li6 O14 2.007062 1_545
Li6 O14 2.051830 1_645
Li6 O7 2.062513 1_555
Li6 O11 2.164721 1_555
Li6 O6 2.213878 1_455
Li6 O6 2.247779 1_555
Li7 O14 2.086551 1_555
Li7 O7 2.121842 1_565
Li7 O15 2.136327 1_555
Li7 O15 2.179267 1_455
Li7 O2 2.225882 1_555
Li7 O7 2.275665 1_465
Li8 O15 2.006842 1_555
Li8 O14 2.054660 1_655
Li8 O0 2.075491 1_556
Li8 O14 2.105972 1_555
Li8 O3 2.131916 1_555
Li8 O3 2.281200 1_655
Mn0 O14 1.817136 1_555
Mn0 O0 1.946229 1_456
Mn0 O0 1.968795 1_556
Mn0 O11 1.999692 1_565
Mn0 O11 2.014571 1_465
Mn0 O4 2.017006 1_566
Mn1 O2 1.951662 1_545
Mn1 O7 1.957296 1_555
Mn1 O13 1.967678 1_555
Mn1 O9 1.980106 1_545
Mn1 O2 2.218033 1_645
Mn1 O13 2.242171 1_455
Co0 O8 1.982112 1_555
Co0 O5 1.990482 1_555
Co0 O12 2.007209 1_655
Co0 O1 2.011589 1_555
Co0 O12 2.085376 1_555
Co0 O1 2.087860 1_655
Co1 O3 1.748473 1_555
Co1 O15 1.871602 1_555
Co1 O10 1.951671 1_555
Co1 O6 1.966055 1_455
Co1 O15 2.087195 1_455
Co1 O6 2.228614 1_555
Co2 O4 1.914491 1_555
Co2 O1 1.916398 1_555
Co2 O8 1.922863 1_555
Co2 O11 1.935969 1_554
Co2 O4 2.145580 1_655
Co2 O8 2.201868 1_455
Co3 O2 1.952733 1_555
Co3 O12 1.996477 1_555
Co3 O5 2.005766 1_455
Co3 O9 2.035228 1_555
Co3 O5 2.084899 1_555
Co3 O9 2.106603 1_455
Co4 O6 1.907667 1_555
Co4 O13 1.987107 1_555
Co4 O7 2.031855 1_555
Co4 O10 2.032594 1_655
Co4 O10 2.077575 1_555
Co4 O7 2.100200 1_655
