# generated using pymatgen
data_Er4Sb3
_symmetry_space_group_name_H-M   'P 1'
_cell_length_a   7.86352835
_cell_length_b   7.86387516
_cell_length_c   7.86372015
_cell_angle_alpha   109.47261708
_cell_angle_beta   109.47175489
_cell_angle_gamma   109.47218925
_symmetry_Int_Tables_number   1
_chemical_formula_structural   Er4Sb3
_chemical_formula_sum   'Er8 Sb6'
_cell_volume   374.32142489
_cell_formula_units_Z   2
loop_
 _symmetry_equiv_pos_site_id
 _symmetry_equiv_pos_as_xyz
  1  'x, y, z'
loop_
 _atom_site_type_symbol
 _atom_site_label
 _atom_site_symmetry_multiplicity
 _atom_site_fract_x
 _atom_site_fract_y
 _atom_site_fract_z
 _atom_site_occupancy
  Er  Er0  1  0.14470252  0.14469821  0.14469339  1
  Er  Er1  1  0.85526669  0.49999976  0.99999461  1
  Er  Er2  1  0.99999248  0.85526991  0.50000005  1
  Er  Er3  1  0.49999770  -0.00000416  0.85526954  1
  Er  Er4  1  0.00000611  0.35530747  0.49999928  1
  Er  Er5  1  0.49999457  -0.00000778  0.35529900  1
  Er  Er6  1  0.35529874  0.49999243  0.00000195  1
  Er  Er7  1  0.64473052  0.64473229  0.64473184  1
  Sb  Sb0  1  0.25001720  0.62507671  0.37507802  1
  Sb  Sb1  1  0.37512118  0.25002920  0.62511647  1
  Sb  Sb2  1  0.12490214  0.75000307  0.87491724  1
  Sb  Sb3  1  0.87490756  0.12490479  0.75001742  1
  Sb  Sb4  1  0.62506883  0.37510936  0.24999703  1
  Sb  Sb5  1  0.74999375  0.87489075  0.12488416  1
loop_
_geom_bond_atom_site_label_1
_geom_bond_atom_site_label_2
_geom_bond_distance
_geom_bond_site_symmetry_2
Er0 Sb3 3.037373 1_454
Er0 Sb2 3.037449 1_544
Er0 Sb5 3.037501 1_445
Er0 Sb4 3.254003 1_555
Er0 Sb0 3.254179 1_555
Er0 Sb1 3.254412 1_555
Er1 Sb2 3.037864 1_655
Er1 Sb3 3.037935 1_555
Er1 Sb0 3.037947 1_656
Er1 Sb1 3.252350 1_555
Er1 Sb5 3.252660 1_556
Er1 Sb4 3.252812 1_556
Er2 Sb3 3.037967 1_565
Er2 Sb5 3.037998 1_555
Er2 Sb1 3.038102 1_665
Er2 Sb4 3.252595 1_555
Er2 Sb2 3.252816 1_655
Er2 Sb0 3.253022 1_655
Er3 Sb5 3.037921 1_546
Er3 Sb2 3.037940 1_545
Er3 Sb4 3.038040 1_556
Er3 Sb3 3.252601 1_555
Er3 Sb0 3.252750 1_545
Er3 Sb1 3.252827 1_555
Er4 Sb2 3.037563 1_555
Er4 Sb0 3.037579 1_555
Er4 Sb4 3.037724 1_455
Er4 Sb1 3.254333 1_555
Er4 Sb5 3.254410 1_445
Er4 Sb3 3.254547 1_455
Er5 Sb0 3.037487 1_545
Er5 Sb3 3.037545 1_555
Er5 Sb1 3.037606 1_555
Er5 Sb2 3.254129 1_544
Er5 Sb5 3.254417 1_545
Er5 Sb4 3.254540 1_555
Er6 Sb4 3.037285 1_555
Er6 Sb1 3.037436 1_554
Er6 Sb5 3.037473 1_555
Er6 Sb0 3.254077 1_555
Er6 Sb3 3.254148 1_454
Er6 Sb2 3.254422 1_554
Er7 Sb0 3.037747 1_555
Er7 Sb1 3.037806 1_555
Er7 Sb4 3.037817 1_555
Er7 Sb5 3.252514 1_556
Er7 Sb2 3.252571 1_655
Er7 Sb3 3.252669 1_565
