# generated using pymatgen
data_Tb2Pt
_symmetry_space_group_name_H-M   'P 1'
_cell_length_a   4.78209314
_cell_length_b   7.14642308
_cell_length_c   8.81196039
_cell_angle_alpha   90.00248922
_cell_angle_beta   90.00001242
_cell_angle_gamma   90.00000000
_symmetry_Int_Tables_number   1
_chemical_formula_structural   Tb2Pt
_chemical_formula_sum   'Tb8 Pt4'
_cell_volume   301.14751944
_cell_formula_units_Z   4
loop_
 _symmetry_equiv_pos_site_id
 _symmetry_equiv_pos_as_xyz
  1  'x, y, z'
loop_
 _atom_site_type_symbol
 _atom_site_label
 _atom_site_symmetry_multiplicity
 _atom_site_fract_x
 _atom_site_fract_y
 _atom_site_fract_z
 _atom_site_occupancy
  Tb  Tb0  1  0.75000000  0.14275866  0.91705526  1
  Tb  Tb1  1  0.25000000  0.85727607  0.08295345  1
  Tb  Tb2  1  0.75000000  0.64274763  0.58297838  1
  Tb  Tb3  1  0.25000000  0.35720716  0.41701938  1
  Tb  Tb4  1  0.75000000  0.00766189  0.33325774  1
  Tb  Tb5  1  0.25000000  0.99240891  0.66672670  1
  Tb  Tb6  1  0.75000000  0.50761399  0.16669797  1
  Tb  Tb7  1  0.25000000  0.49232940  0.83332535  1
  Pt  Pt0  1  0.75000000  0.74102403  0.90980260  1
  Pt  Pt1  1  0.25000000  0.25897875  0.09020801  1
  Pt  Pt2  1  0.75000000  0.24094759  0.59023289  1
  Pt  Pt3  1  0.25000000  0.75904493  0.40974127  1
loop_
_geom_bond_atom_site_label_1
_geom_bond_atom_site_label_2
_geom_bond_distance
_geom_bond_site_symmetry_2
Pt0 Tb6 2.811989 1_556
Pt0 Tb0 2.871674 1_565
Pt0 Tb1 2.955547 1_656
Pt0 Tb1 2.955548 1_556
Pt0 Tb2 2.964332 1_555
Pt0 Tb7 3.054484 1_555
Pt0 Tb7 3.054484 1_655
Pt1 Tb7 2.811647 1_554
Pt1 Tb1 2.871446 1_545
Pt1 Tb0 2.955492 1_454
Pt1 Tb0 2.955492 1_554
Pt1 Tb3 2.964141 1_555
Pt1 Tb6 3.054262 1_555
Pt1 Tb6 3.054262 1_455
Pt2 Tb4 2.811911 1_555
Pt2 Tb2 2.872147 1_555
Pt2 Tb3 2.955885 1_555
Pt2 Tb3 2.955885 1_655
Pt2 Tb0 2.964228 1_555
Pt2 Tb5 3.053902 1_645
Pt2 Tb5 3.053902 1_545
Pt3 Tb5 2.812316 1_555
Pt3 Tb3 2.872422 1_555
Pt3 Tb2 2.956068 1_555
Pt3 Tb2 2.956068 1_455
Pt3 Tb1 2.964003 1_555
Pt3 Tb4 3.054207 1_465
Pt3 Tb4 3.054208 1_565
