# generated using pymatgen
data_Ba2YGaTe5
_symmetry_space_group_name_H-M   'P 1'
_cell_length_a   10.47559942
_cell_length_b   10.47559942
_cell_length_c   14.31024259
_cell_angle_alpha   90.00000000
_cell_angle_beta   90.00000000
_cell_angle_gamma   155.19520719
_symmetry_Int_Tables_number   1
_chemical_formula_structural   Ba2YGaTe5
_chemical_formula_sum   'Ba4 Y2 Ga2 Te10'
_cell_volume   658.81841704
_cell_formula_units_Z   2
loop_
 _symmetry_equiv_pos_site_id
 _symmetry_equiv_pos_as_xyz
  1  'x, y, z'
loop_
 _atom_site_type_symbol
 _atom_site_label
 _atom_site_symmetry_multiplicity
 _atom_site_fract_x
 _atom_site_fract_y
 _atom_site_fract_z
 _atom_site_occupancy
  Ba  Ba0  1  0.87262143  0.12737857  0.17933461  1
  Ba  Ba1  1  0.12737857  0.87262143  0.67933461  1
  Ba  Ba2  1  0.87881384  0.12118616  0.81776668  1
  Ba  Ba3  1  0.12118616  0.87881384  0.31776668  1
  Y  Y0  1  0.79532770  0.20467230  0.47895957  1
  Y  Y1  1  0.20467230  0.79532770  0.97895957  1
  Ga  Ga0  1  0.56045525  0.43954475  0.07639440  1
  Ga  Ga1  1  0.43954475  0.56045525  0.57639440  1
  Te  Te0  1  0.64916587  0.35083413  0.49730232  1
  Te  Te1  1  0.35083413  0.64916587  0.99730232  1
  Te  Te2  1  0.70415654  0.29584346  0.83534777  1
  Te  Te3  1  0.29584346  0.70415654  0.33534777  1
  Te  Te4  1  0.68638864  0.31361136  0.13181035  1
  Te  Te5  1  0.31361136  0.68638864  0.63181035  1
  Te  Te6  1  0.49894777  0.50105223  0.23375269  1
  Te  Te7  1  0.50105223  0.49894777  0.73375269  1
  Te  Te8  1  0.95345465  0.04654535  0.46975161  1
  Te  Te9  1  0.04654535  0.95345465  0.96975161  1
loop_
_geom_bond_atom_site_label_1
_geom_bond_atom_site_label_2
_geom_bond_distance
_geom_bond_site_symmetry_2
Ba0 Te1 3.470805 1_544
Ba0 Te1 3.470805 1_654
Ba0 Te6 3.514306 1_545
Ba0 Te6 3.514306 1_655
Ba0 Te3 3.537617 1_545
Ba0 Te3 3.537617 1_655
Ba0 Te4 3.870955 1_555
Ba1 Te0 3.470805 1_455
Ba1 Te0 3.470805 1_565
Ba1 Te7 3.514306 1_565
Ba1 Te7 3.514306 1_455
Ba1 Te2 3.537617 1_455
Ba1 Te2 3.537617 1_565
Ba1 Te5 3.870955 1_555
Ba2 Te1 3.462753 1_655
Ba2 Te1 3.462753 1_545
Ba2 Te7 3.572660 1_655
Ba2 Te7 3.572660 1_545
Ba2 Te2 3.582729 1_555
Ba2 Te5 3.731421 1_545
Ba2 Te5 3.731421 1_655
Ba2 Te9 4.063267 1_645
Ba3 Te0 3.462753 1_455
Ba3 Te0 3.462753 1_565
Ba3 Te6 3.572660 1_565
Ba3 Te6 3.572660 1_455
Ba3 Te3 3.582729 1_555
Ba3 Te4 3.731421 1_565
Ba3 Te4 3.731421 1_455
Ba3 Te8 4.063267 1_465
Ga0 Te6 2.579688 1_555
Ga0 Te4 2.696145 1_555
Ga0 Te9 2.733503 1_544
Ga0 Te9 2.733503 1_654
Ga1 Te7 2.579688 1_555
Ga1 Te5 2.696145 1_555
Ga1 Te8 2.733503 1_455
Ga1 Te8 2.733503 1_565
Te0 Y0 3.002299 1_555
Te1 Y1 3.002299 1_555
Te2 Y1 3.047248 1_655
Te2 Y1 3.047248 1_545
Te3 Y0 3.047248 1_565
Te3 Y0 3.047248 1_455
Te4 Y1 3.160139 1_654
Te4 Y1 3.160139 1_544
Te5 Y0 3.160139 1_455
Te5 Y0 3.160139 1_565
Te8 Y0 3.238318 1_555
Te9 Y1 3.238318 1_555
