# generated using pymatgen
data_Sr2SbN3
_symmetry_space_group_name_H-M   'P 1'
_cell_length_a   6.57207024
_cell_length_b   11.72023344
_cell_length_c   12.46368067
_cell_angle_alpha   90.00000047
_cell_angle_beta   90.00529496
_cell_angle_gamma   153.08382318
_symmetry_Int_Tables_number   1
_chemical_formula_structural   Sr2SbN3
_chemical_formula_sum   'Sr8 Sb4 N12'
_cell_volume   434.59255995
_cell_formula_units_Z   4
loop_
 _symmetry_equiv_pos_site_id
 _symmetry_equiv_pos_as_xyz
  1  'x, y, z'
loop_
 _atom_site_type_symbol
 _atom_site_label
 _atom_site_symmetry_multiplicity
 _atom_site_fract_x
 _atom_site_fract_y
 _atom_site_fract_z
 _atom_site_occupancy
  Sr  Sr0  1  0.50031400  0.03970300  0.85619900  1
  Sr  Sr1  1  0.49968600  0.53938900  0.64380100  1
  Sr  Sr2  1  0.49968600  0.96029700  0.14380100  1
  Sr  Sr3  1  0.50031400  0.46061100  0.35619900  1
  Sr  Sr4  1  0.49996400  0.86677700  0.57605300  1
  Sr  Sr5  1  0.50003600  0.36681300  0.92394700  1
  Sr  Sr6  1  0.50003600  0.13322300  0.42394700  1
  Sr  Sr7  1  0.49996400  0.63318700  0.07605300  1
  Sb  Sb0  1  0.50011200  0.24603900  0.65965700  1
  Sb  Sb1  1  0.49988800  0.74592700  0.84034300  1
  Sb  Sb2  1  0.49988800  0.75396100  0.34034300  1
  Sb  Sb3  1  0.50011200  0.25407300  0.15965700  1
  N  N0  1  0.00000000  0.56590400  0.75000000  1
  N  N1  1  0.00000000  0.43409600  0.25000000  1
  N  N2  1  0.50070800  0.07664000  0.64165700  1
  N  N3  1  0.49929200  0.57593200  0.85834300  1
  N  N4  1  0.49929200  0.92336000  0.35834300  1
  N  N5  1  0.50070800  0.42406800  0.14165700  1
  N  N6  1  0.49976000  0.15262400  0.03018200  1
  N  N7  1  0.50024000  0.65286400  0.46981800  1
  N  N8  1  0.50024000  0.84737600  0.96981800  1
  N  N9  1  0.49976000  0.34713600  0.53018200  1
  N  N10  1  0.00000000  0.06568900  0.75000000  1
  N  N11  1  0.00000000  0.93431100  0.25000000  1
loop_
_geom_bond_atom_site_label_1
_geom_bond_atom_site_label_2
_geom_bond_distance
_geom_bond_site_symmetry_2
N0 Sb1 2.037294 1_555
N0 Sb0 2.037294 1_455
N0 Sr5 2.696266 1_455
N0 Sr4 2.696266 1_555
N1 Sb3 2.037294 1_455
N1 Sb2 2.037294 1_555
N1 Sr7 2.696266 1_555
N1 Sr6 2.696266 1_455
N2 Sb0 2.001502 1_555
N2 Sr4 2.587856 1_545
N2 Sr0 2.708432 1_555
N2 Sr6 2.794269 1_555
N2 Sr1 3.003192 1_655
N2 Sr1 3.009221 1_445
N3 Sb1 2.001502 1_555
N3 Sr5 2.587856 1_555
N3 Sr1 2.708432 1_555
N3 Sr7 2.794269 1_556
N3 Sr0 3.003192 1_455
N3 Sr0 3.009221 1_665
N4 Sb2 2.001502 1_555
N4 Sr6 2.587856 1_565
N4 Sr2 2.708432 1_555
N4 Sr4 2.794269 1_555
N4 Sr3 3.003192 1_455
N4 Sr3 3.009221 1_665
N5 Sb3 2.001502 1_555
N5 Sr7 2.587856 1_555
N5 Sr3 2.708432 1_555
N5 Sr5 2.794269 1_554
N5 Sr2 3.003192 1_655
N5 Sr2 3.009221 1_445
N6 Sb3 2.003241 1_555
N6 Sr0 2.542127 1_554
N6 Sr2 2.661665 1_545
N6 Sr5 2.836706 1_554
N6 Sr7 3.037686 1_445
N6 Sr7 3.038646 1_655
N7 Sb2 2.003241 1_555
N7 Sr1 2.542127 1_555
N7 Sr3 2.661665 1_555
N7 Sr4 2.836706 1_555
N7 Sr6 3.037686 1_665
N7 Sr6 3.038646 1_455
N8 Sb1 2.003241 1_555
N8 Sr2 2.542127 1_556
N8 Sr0 2.661665 1_565
N8 Sr7 2.836706 1_556
N8 Sr5 3.037686 1_665
N8 Sr5 3.038646 1_455
N9 Sb0 2.003241 1_555
N9 Sr3 2.542127 1_555
N9 Sr1 2.661665 1_555
N9 Sr6 2.836706 1_555
N9 Sr4 3.037686 1_445
N9 Sr4 3.038646 1_655
N10 Sb0 2.037104 1_555
N10 Sb1 2.037104 1_445
N10 Sr4 2.696455 1_445
N10 Sr5 2.696455 1_555
N11 Sb2 2.037104 1_455
N11 Sb3 2.037104 1_565
N11 Sr6 2.696455 1_565
N11 Sr7 2.696455 1_455
