# generated using pymatgen
data_BaSnO3
_symmetry_space_group_name_H-M   'P 1'
_cell_length_a   5.92323473
_cell_length_b   5.92323473
_cell_length_c   5.92323473
_cell_angle_alpha   120.00541408
_cell_angle_beta   119.85501993
_cell_angle_gamma   90.12095949
_symmetry_Int_Tables_number   1
_chemical_formula_structural   BaSnO3
_chemical_formula_sum   'Ba2 Sn2 O6'
_cell_volume   147.10169951
_cell_formula_units_Z   2
loop_
 _symmetry_equiv_pos_site_id
 _symmetry_equiv_pos_as_xyz
  1  'x, y, z'
loop_
 _atom_site_type_symbol
 _atom_site_label
 _atom_site_symmetry_multiplicity
 _atom_site_fract_x
 _atom_site_fract_y
 _atom_site_fract_z
 _atom_site_occupancy
  Ba  Ba0  1  0.24998300  0.75000000  0.49998300  1
  Ba  Ba1  1  0.75001700  0.25000000  0.50001700  1
  Sn  Sn0  1  0.00000000  0.00000000  0.00000000  1
  Sn  Sn1  1  0.50000000  0.50000000  0.00000000  1
  O  O0  1  0.76546300  0.26546300  0.00000000  1
  O  O1  1  0.23453700  0.73453700  0.00000000  1
  O  O2  1  0.72605400  0.75000000  0.97605400  1
  O  O3  1  0.76546300  0.76546300  0.50000000  1
  O  O4  1  0.23453700  0.23453700  0.50000000  1
  O  O5  1  0.27394600  0.25000000  0.02394600  1
loop_
_geom_bond_atom_site_label_1
_geom_bond_atom_site_label_2
_geom_bond_distance
_geom_bond_site_symmetry_2
Ba0 O2 2.826057 1_555
Ba0 O1 2.871629 1_555
Ba0 O4 2.871629 1_565
Ba0 O0 2.871629 1_455
Ba0 O3 2.871629 1_455
Ba0 O5 2.964790 1_555
Ba0 O5 2.964790 1_566
Ba0 O4 3.054438 1_555
Ba0 O1 3.054438 1_556
Ba0 O0 3.054438 1_566
Ba0 O3 3.054438 1_555
Ba0 O2 3.110153 1_454
Ba1 O5 2.826057 1_555
Ba1 O3 2.871629 1_545
Ba1 O4 2.871629 1_655
Ba1 O1 2.871629 1_656
Ba1 O0 2.871629 1_556
Ba1 O2 2.964790 1_555
Ba1 O2 2.964790 1_544
Ba1 O3 3.054438 1_555
Ba1 O1 3.054438 1_545
Ba1 O0 3.054438 1_555
Ba1 O4 3.054438 1_555
Ba1 O5 3.110153 1_656
O0 Sn0 2.100378 1_655
O0 Sn1 2.100378 1_555
O1 Sn0 2.100378 1_565
O1 Sn1 2.100378 1_555
O2 Sn0 2.096792 1_666
O2 Sn1 2.096792 1_556
O3 Sn0 2.100378 1_666
O3 Sn1 2.100378 1_555
O4 Sn1 2.100378 1_556
O4 Sn0 2.100378 1_555
O5 Sn0 2.096792 1_555
O5 Sn1 2.096792 1_555
