# generated using pymatgen
data_Ca(NiS2)2
_symmetry_space_group_name_H-M   'P 1'
_cell_length_a   7.34373972
_cell_length_b   7.34373972
_cell_length_c   7.34373972
_cell_angle_alpha   123.23154443
_cell_angle_beta   123.23154443
_cell_angle_gamma   84.48837856
_symmetry_Int_Tables_number   1
_chemical_formula_structural   Ca(NiS2)2
_chemical_formula_sum   'Ca2 Ni4 S8'
_cell_volume   265.03125116
_cell_formula_units_Z   2
loop_
 _symmetry_equiv_pos_site_id
 _symmetry_equiv_pos_as_xyz
  1  'x, y, z'
loop_
 _atom_site_type_symbol
 _atom_site_label
 _atom_site_symmetry_multiplicity
 _atom_site_fract_x
 _atom_site_fract_y
 _atom_site_fract_z
 _atom_site_occupancy
  Ca  Ca0  1  0.50000000  0.50000000  0.00000000  1
  Ca  Ca1  1  0.25000000  0.75000000  0.50000000  1
  Ni  Ni0  1  0.87500000  0.12500000  0.25000000  1
  Ni  Ni1  1  0.37500000  0.12500000  0.25000000  1
  Ni  Ni2  1  0.87500000  0.62500000  0.75000000  1
  Ni  Ni3  1  0.87500000  0.12500000  0.75000000  1
  S  S0  1  0.69128700  0.90053100  0.79075600  1
  S  S1  1  0.09946900  0.89022500  0.79075600  1
  S  S2  1  0.09946900  0.30871300  0.20924400  1
  S  S3  1  0.05871300  0.34946900  0.70924400  1
  S  S4  1  0.64022500  0.34946900  0.29075600  1
  S  S5  1  0.65053100  0.35977500  0.70924400  1
  S  S6  1  0.10977500  0.90053100  0.20924400  1
  S  S7  1  0.65053100  0.94128700  0.29075600  1
loop_
_geom_bond_atom_site_label_1
_geom_bond_atom_site_label_2
_geom_bond_distance
_geom_bond_site_symmetry_2
Ca0 S5 2.607713 1_554
Ca0 S4 2.607713 1_555
Ca0 S3 2.607713 1_554
Ca0 S7 2.607713 1_555
Ca1 S2 2.607713 1_555
Ca1 S1 2.607713 1_555
Ca1 S0 2.607713 1_555
Ca1 S6 2.607713 1_555
Ni0 S6 2.293125 1_645
Ni0 S4 2.293125 1_555
Ni0 S3 2.293125 1_655
Ni0 S0 2.293125 1_544
Ni0 S7 2.457171 1_545
Ni0 S2 2.457171 1_655
Ni1 S1 2.293125 1_544
Ni1 S5 2.293125 1_555
Ni1 S2 2.293125 1_555
Ni1 S7 2.293125 1_545
Ni1 S6 2.457171 1_545
Ni1 S4 2.457171 1_555
Ni2 S0 2.293125 1_555
Ni2 S4 2.293125 1_555
Ni2 S6 2.293125 1_656
Ni2 S3 2.293125 1_655
Ni2 S1 2.457171 1_655
Ni2 S5 2.457171 1_555
Ni3 S7 2.293125 1_545
Ni3 S2 2.293125 1_656
Ni3 S1 2.293125 1_645
Ni3 S5 2.293125 1_555
Ni3 S3 2.457171 1_655
Ni3 S0 2.457171 1_545
