# generated using pymatgen
data_Nd23Mg4Ru7
_symmetry_space_group_name_H-M   'P 1'
_cell_length_a   10.07952219
_cell_length_b   10.07952219
_cell_length_c   22.64545185
_cell_angle_alpha   90.00000000
_cell_angle_beta   90.00000000
_cell_angle_gamma   119.99999860
_symmetry_Int_Tables_number   1
_chemical_formula_structural   Nd23Mg4Ru7
_chemical_formula_sum   'Nd46 Mg8 Ru14'
_cell_volume   1992.46875079
_cell_formula_units_Z   2
loop_
 _symmetry_equiv_pos_site_id
 _symmetry_equiv_pos_as_xyz
  1  'x, y, z'
loop_
 _atom_site_type_symbol
 _atom_site_label
 _atom_site_symmetry_multiplicity
 _atom_site_fract_x
 _atom_site_fract_y
 _atom_site_fract_z
 _atom_site_occupancy
  Nd  Nd0  1  0.20871493  0.41742986  0.71844836  1
  Nd  Nd1  1  0.20871493  0.79128507  0.71844836  1
  Nd  Nd2  1  0.79128507  0.58257014  0.21844836  1
  Nd  Nd3  1  0.58257014  0.79128507  0.71844836  1
  Nd  Nd4  1  0.79128507  0.20871493  0.21844836  1
  Nd  Nd5  1  0.41742986  0.20871493  0.21844836  1
  Nd  Nd6  1  0.79205433  0.58410866  0.94865621  1
  Nd  Nd7  1  0.79205433  0.20794567  0.94865621  1
  Nd  Nd8  1  0.20794567  0.41589134  0.44865621  1
  Nd  Nd9  1  0.41589134  0.20794567  0.94865621  1
  Nd  Nd10  1  0.20794567  0.79205433  0.44865621  1
  Nd  Nd11  1  0.58410866  0.79205433  0.44865621  1
  Nd  Nd12  1  0.20881016  0.41762032  0.99145383  1
  Nd  Nd13  1  0.20881016  0.79118984  0.99145383  1
  Nd  Nd14  1  0.79118984  0.58237968  0.49145383  1
  Nd  Nd15  1  0.58237968  0.79118984  0.99145383  1
  Nd  Nd16  1  0.79118984  0.20881016  0.49145383  1
  Nd  Nd17  1  0.41762032  0.20881016  0.49145383  1
  Nd  Nd18  1  0.87276209  0.74552418  0.63550323  1
  Nd  Nd19  1  0.87276209  0.12723791  0.63550323  1
  Nd  Nd20  1  0.12723791  0.25447582  0.13550323  1
  Nd  Nd21  1  0.25447582  0.12723791  0.63550323  1
  Nd  Nd22  1  0.12723791  0.87276209  0.13550323  1
  Nd  Nd23  1  0.74552418  0.87276209  0.13550323  1
  Nd  Nd24  1  0.45924643  0.91849286  0.85546812  1
  Nd  Nd25  1  0.45924643  0.54075357  0.85546812  1
  Nd  Nd26  1  0.54075357  0.08150714  0.35546812  1
  Nd  Nd27  1  0.08150714  0.54075357  0.85546812  1
  Nd  Nd28  1  0.54075357  0.45924643  0.35546812  1
  Nd  Nd29  1  0.91849286  0.45924643  0.35546812  1
  Nd  Nd30  1  -0.00000000  0.00000000  0.00313241  1
  Nd  Nd31  1  -0.00000000  0.00000000  0.50313241  1
  Nd  Nd32  1  0.45878285  0.91756571  0.58456967  1
  Nd  Nd33  1  0.45878285  0.54121715  0.58456967  1
  Nd  Nd34  1  0.54121715  0.08243429  0.08456967  1
  Nd  Nd35  1  0.08243429  0.54121715  0.58456967  1
  Nd  Nd36  1  0.54121715  0.45878285  0.08456967  1
  Nd  Nd37  1  0.91756571  0.45878285  0.08456967  1
  Nd  Nd38  1  0.79196186  0.58392371  0.78120687  1
  Nd  Nd39  1  0.79196186  0.20803814  0.78120687  1
  Nd  Nd40  1  0.20803814  0.41607629  0.28120687  1
  Nd  Nd41  1  0.41607629  0.20803814  0.78120687  1
  Nd  Nd42  1  0.20803814  0.79196186  0.28120687  1
  Nd  Nd43  1  0.58392371  0.79196186  0.28120687  1
  Nd  Nd44  1  0.66666700  0.33333300  0.64481942  1
  Nd  Nd45  1  0.33333300  0.66666700  0.14481942  1
  Mg  Mg0  1  -0.00000000  0.00000000  0.75139389  1
  Mg  Mg1  1  -0.00000000  0.00000000  0.25139389  1
  Mg  Mg2  1  0.10482500  0.20965000  0.86303013  1
  Mg  Mg3  1  0.10482500  0.89517500  0.86303013  1
  Mg  Mg4  1  0.89517500  0.79035000  0.36303013  1
  Mg  Mg5  1  0.79035000  0.89517500  0.86303013  1
  Mg  Mg6  1  0.89517500  0.10482500  0.36303013  1
  Mg  Mg7  1  0.20965000  0.10482500  0.36303013  1
  Ru  Ru0  1  0.51767539  0.03535078  0.70908563  1
  Ru  Ru1  1  0.51767539  0.48232461  0.70908563  1
  Ru  Ru2  1  0.48232461  0.96464922  0.20908563  1
  Ru  Ru3  1  0.96464922  0.48232461  0.70908563  1
  Ru  Ru4  1  0.48232461  0.51767539  0.20908563  1
  Ru  Ru5  1  0.03535078  0.51767539  0.20908563  1
  Ru  Ru6  1  0.66666700  0.33333300  0.86743776  1
  Ru  Ru7  1  0.33333300  0.66666700  0.36743776  1
  Ru  Ru8  1  0.14693582  0.29387165  0.56255680  1
  Ru  Ru9  1  0.14693582  0.85306418  0.56255680  1
  Ru  Ru10  1  0.85306418  0.70612835  0.06255680  1
  Ru  Ru11  1  0.70612835  0.85306418  0.56255680  1
  Ru  Ru12  1  0.85306418  0.14693582  0.06255680  1
  Ru  Ru13  1  0.29387165  0.14693582  0.06255680  1
loop_
_geom_bond_atom_site_label_1
_geom_bond_atom_site_label_2
_geom_bond_distance
_geom_bond_site_symmetry_2
Nd0 Ru3 2.851996 1_455
Nd0 Ru1 2.851996 1_555
Nd1 Ru0 2.851996 1_565
Nd1 Ru3 2.851996 1_455
Nd2 Ru5 2.851996 1_655
Nd2 Ru4 2.851996 1_555
Nd3 Ru0 2.851996 1_565
Nd3 Ru1 2.851996 1_555
Nd4 Ru5 2.851996 1_655
Nd4 Ru2 2.851996 1_545
Nd5 Ru2 2.851996 1_545
Nd5 Ru4 2.851996 1_555
Nd6 Ru10 2.790598 1_556
Nd6 Ru6 2.859145 1_555
Nd7 Ru12 2.790598 1_556
Nd7 Ru6 2.859138 1_555
Nd8 Ru8 2.790598 1_555
Nd8 Ru7 2.859145 1_555
Nd9 Ru13 2.790598 1_556
Nd9 Ru6 2.859145 1_555
Nd10 Ru9 2.790598 1_555
Nd10 Ru7 2.859138 1_555
Nd11 Ru11 2.790598 1_555
Nd11 Ru7 2.859145 1_555
Nd12 Ru13 3.620906 1_556
Nd12 Ru12 3.620906 1_456
Nd13 Ru10 3.620906 1_456
Nd13 Ru13 3.620906 1_566
Nd14 Ru11 3.620906 1_555
Nd14 Ru9 3.620906 1_655
Nd15 Ru10 3.620906 1_556
Nd15 Ru12 3.620906 1_566
Nd16 Ru8 3.620906 1_655
Nd16 Ru11 3.620906 1_545
Nd17 Ru8 3.620906 1_555
Nd17 Ru9 3.620906 1_545
Nd18 Ru9 2.923243 1_655
Nd18 Ru11 2.923243 1_555
Nd18 Ru3 3.623463 1_555
Nd18 Ru1 3.623463 1_555
Nd19 Ru8 2.923243 1_655
Nd19 Ru11 2.923243 1_545
Nd19 Ru3 3.623463 1_555
Nd19 Ru0 3.623463 1_555
Nd20 Ru12 2.923243 1_455
Nd20 Ru13 2.923243 1_555
Nd20 Ru5 3.623463 1_555
Nd20 Ru4 3.623463 1_555
Nd21 Ru9 2.923243 1_545
Nd21 Ru8 2.923243 1_555
Nd21 Ru0 3.623463 1_555
Nd21 Ru1 3.623463 1_555
Nd22 Ru13 2.923243 1_565
Nd22 Ru10 2.923243 1_455
Nd22 Ru2 3.623463 1_555
Nd22 Ru5 3.623463 1_555
Nd23 Ru12 2.923243 1_565
Nd23 Ru10 2.923243 1_555
Nd23 Ru2 3.623463 1_555
Nd23 Ru4 3.623463 1_555
Nd24 Ru0 3.468297 1_565
Nd24 Ru6 3.631321 1_565
Nd25 Ru1 3.468297 1_555
Nd25 Ru6 3.631330 1_555
Nd26 Ru2 3.468297 1_545
Nd26 Ru7 3.631321 1_545
Nd27 Ru3 3.468297 1_455
Nd27 Ru6 3.631321 1_455
Nd28 Ru4 3.468297 1_555
Nd28 Ru7 3.631330 1_555
Nd29 Ru5 3.468297 1_655
Nd29 Ru7 3.631321 1_655
Nd30 Ru12 2.896783 1_455
Nd30 Ru13 2.896783 1_555
Nd30 Ru10 2.896783 1_445
Nd31 Ru9 2.896783 1_545
Nd31 Ru8 2.896783 1_555
Nd31 Ru11 2.896783 1_445
Nd32 Ru11 2.916803 1_555
Nd32 Ru9 2.916804 1_555
Nd32 Ru0 3.001322 1_565
Nd33 Ru8 2.916804 1_555
Nd33 Ru11 2.916804 1_555
Nd33 Ru1 3.001322 1_555
Nd34 Ru13 2.916803 1_555
Nd34 Ru12 2.916804 1_555
Nd34 Ru2 3.001322 1_545
Nd35 Ru8 2.916803 1_555
Nd35 Ru9 2.916804 1_555
Nd35 Ru3 3.001322 1_455
Nd36 Ru10 2.916804 1_555
Nd36 Ru13 2.916804 1_555
Nd36 Ru4 3.001322 1_555
Nd37 Ru10 2.916803 1_555
Nd37 Ru12 2.916804 1_555
Nd37 Ru5 3.001322 1_655
Nd38 Ru3 2.920331 1_555
Nd38 Ru1 2.920331 1_555
Nd38 Ru6 2.932246 1_555
Nd39 Ru3 2.920331 1_555
Nd39 Ru0 2.920331 1_555
Nd39 Ru6 2.932239 1_555
Nd40 Ru5 2.920331 1_555
Nd40 Ru4 2.920331 1_555
Nd40 Ru7 2.932246 1_555
Nd41 Ru0 2.920331 1_555
Nd41 Ru1 2.920331 1_555
Nd41 Ru6 2.932246 1_555
Nd42 Ru2 2.920331 1_555
Nd42 Ru5 2.920331 1_555
Nd42 Ru7 2.932239 1_555
Nd43 Ru2 2.920331 1_555
Nd43 Ru4 2.920331 1_555
Nd43 Ru7 2.932246 1_555
Nd44 Ru3 2.980579 1_555
Nd44 Ru0 2.980579 1_555
Nd44 Ru1 2.980586 1_555
Nd45 Ru2 2.980579 1_555
Nd45 Ru5 2.980579 1_555
Nd45 Ru4 2.980586 1_555
Mg0 Mg3 3.120925 1_545
Mg0 Mg5 3.120925 1_445
Mg0 Mg2 3.120925 1_555
Mg0 Nd19 3.438292 1_455
Mg0 Nd18 3.438292 1_445
Mg0 Nd21 3.438292 1_555
Mg0 Nd39 3.694196 1_455
Mg0 Nd38 3.694196 1_445
Mg0 Nd41 3.694196 1_555
Mg0 Nd1 3.719391 1_545
Mg0 Nd0 3.719391 1_555
Mg0 Nd3 3.719391 1_445
Mg1 Mg6 3.120925 1_455
Mg1 Mg4 3.120925 1_445
Mg1 Mg7 3.120925 1_555
Mg1 Nd22 3.438292 1_545
Mg1 Nd20 3.438292 1_555
Mg1 Nd23 3.438292 1_445
Mg1 Nd42 3.694196 1_545
Mg1 Nd43 3.694196 1_445
Mg1 Nd40 3.694196 1_555
Mg1 Nd4 3.719391 1_455
Mg1 Nd5 3.719391 1_555
Mg1 Nd2 3.719391 1_445
Mg2 Mg3 3.169758 1_545
Mg2 Mg5 3.169758 1_445
Mg2 Nd12 3.428319 1_555
Mg2 Nd27 3.465107 1_555
Mg2 Nd25 3.465107 1_555
Mg2 Nd39 3.650615 1_455
Mg2 Nd41 3.650615 1_555
Mg2 Nd30 3.662652 1_556
Mg2 Nd9 3.693883 1_555
Mg2 Nd7 3.693883 1_455
Mg2 Nd0 3.742926 1_555
Mg3 Mg5 3.169758 1_455
Mg3 Nd13 3.428319 1_555
Mg3 Nd27 3.465107 1_555
Mg3 Nd24 3.465107 1_555
Mg3 Nd38 3.650615 1_455
Mg3 Nd41 3.650615 1_565
Mg3 Nd30 3.662652 1_566
Mg3 Nd6 3.693883 1_455
Mg3 Nd9 3.693883 1_565
Mg3 Nd1 3.742926 1_555
Mg4 Mg6 3.169758 1_565
Mg4 Mg7 3.169758 1_665
Mg4 Nd14 3.428319 1_555
Mg4 Nd29 3.465107 1_555
Mg4 Nd28 3.465107 1_555
Mg4 Nd42 3.650615 1_655
Mg4 Nd43 3.650615 1_555
Mg4 Nd31 3.662652 1_665
Mg4 Nd11 3.693883 1_555
Mg4 Nd10 3.693883 1_655
Mg4 Nd2 3.742926 1_555
Mg5 Nd15 3.428319 1_555
Mg5 Nd24 3.465107 1_555
Mg5 Nd25 3.465107 1_555
Mg5 Nd39 3.650615 1_565
Mg5 Nd38 3.650615 1_555
Mg5 Nd30 3.662652 1_666
Mg5 Nd6 3.693883 1_555
Mg5 Nd7 3.693883 1_565
Mg5 Nd3 3.742926 1_555
Mg6 Mg7 3.169758 1_655
Mg6 Nd16 3.428319 1_555
Mg6 Nd26 3.465107 1_555
Mg6 Nd29 3.465107 1_555
Mg6 Nd43 3.650615 1_545
Mg6 Nd40 3.650615 1_655
Mg6 Nd31 3.662652 1_655
Mg6 Nd11 3.693883 1_545
Mg6 Nd8 3.693883 1_655
Mg6 Nd4 3.742926 1_555
Mg7 Nd17 3.428319 1_555
Mg7 Nd26 3.465107 1_555
Mg7 Nd28 3.465107 1_555
Mg7 Nd42 3.650615 1_545
Mg7 Nd40 3.650615 1_555
Mg7 Nd31 3.662652 1_555
Mg7 Nd8 3.693883 1_555
Mg7 Nd10 3.693883 1_545
Mg7 Nd5 3.742926 1_555
