# generated using pymatgen
data_Ba4CaFe4Cu2F28
_symmetry_space_group_name_H-M   'P 1'
_cell_length_a   7.59795181
_cell_length_b   7.59795181
_cell_length_c   15.19483763
_cell_angle_alpha   89.37204547
_cell_angle_beta   89.37204547
_cell_angle_gamma   42.22358031
_symmetry_Int_Tables_number   1
_chemical_formula_structural   Ba4CaFe4Cu2F28
_chemical_formula_sum   'Ba4 Ca1 Fe4 Cu2 F28'
_cell_volume   589.44712972
_cell_formula_units_Z   1
loop_
 _symmetry_equiv_pos_site_id
 _symmetry_equiv_pos_as_xyz
  1  'x, y, z'
loop_
 _atom_site_type_symbol
 _atom_site_label
 _atom_site_symmetry_multiplicity
 _atom_site_fract_x
 _atom_site_fract_y
 _atom_site_fract_z
 _atom_site_occupancy
  Ba  Ba0  1  0.75468800  0.87562500  0.38359700  1
  Ba  Ba1  1  0.87857500  0.73958700  0.86548900  1
  Ba  Ba2  1  0.26041300  0.12142500  0.13451100  1
  Ba  Ba3  1  0.12437500  0.24531200  0.61640300  1
  Ca  Ca0  1  0.59047600  0.40952400  0.00000000  1
  Fe  Fe0  1  0.86127100  0.90015800  0.61993800  1
  Fe  Fe1  1  0.15069500  0.08997600  0.87716500  1
  Fe  Fe2  1  0.91002400  0.84930500  0.12283500  1
  Fe  Fe3  1  0.09984200  0.13872900  0.38006200  1
  Cu  Cu0  1  0.49787100  0.50119600  0.75052700  1
  Cu  Cu1  1  0.49880400  0.50212900  0.24947300  1
  F  F0  1  0.93939000  0.07829100  0.09532300  1
  F  F1  1  0.61494200  0.10946300  0.20291300  1
  F  F2  1  0.38188300  0.88400200  0.29059600  1
  F  F3  1  0.14289400  0.34925000  0.33313200  1
  F  F4  1  0.49729800  0.39812700  0.35393100  1
  F  F5  1  0.60187300  0.50270200  0.64606900  1
  F  F6  1  0.11599800  0.61811700  0.70940400  1
  F  F7  1  0.92170900  0.06061000  0.90467700  1
  F  F8  1  0.01679200  0.63187200  0.53311300  1
  F  F9  1  0.85431500  0.64562000  0.14913000  1
  F  F10  1  0.58594900  0.15509600  0.54145200  1
  F  F11  1  0.65075000  0.85710600  0.66686800  1
  F  F12  1  0.18566600  0.58256700  0.03903300  1
  F  F13  1  0.41743300  0.81433400  0.96096700  1
  F  F14  1  0.39471600  0.50161600  0.86088600  1
  F  F15  1  0.96723300  0.35083500  0.97360700  1
  F  F16  1  0.31128200  0.84900100  0.77170800  1
  F  F17  1  0.04969000  0.93667700  0.39882500  1
  F  F18  1  0.68879500  0.15594400  0.73331400  1
  F  F19  1  0.84405600  0.31120500  0.26668600  1
  F  F20  1  0.89053700  0.38505800  0.79708700  1
  F  F21  1  0.84490400  0.41405100  0.45854800  1
  F  F22  1  0.64916500  0.03276700  0.02639300  1
  F  F23  1  0.15099900  0.68871800  0.22829200  1
  F  F24  1  0.49838400  0.60528400  0.13911400  1
  F  F25  1  0.06332300  0.95031000  0.60117500  1
  F  F26  1  0.36812800  0.98320800  0.46688700  1
  F  F27  1  0.35438000  0.14568500  0.85087000  1
loop_
_geom_bond_atom_site_label_1
_geom_bond_atom_site_label_2
_geom_bond_distance
_geom_bond_site_symmetry_2
Ba0 F17 2.616534 1_655
Ba0 F8 2.664913 1_655
Ba0 F26 2.698461 1_555
Ba0 F3 2.798108 1_655
Ba0 F10 2.813898 1_565
Ba0 F4 2.875707 1_565
Ba0 F1 2.997434 1_565
Ba0 F2 3.137374 1_555
Ba0 F23 3.199535 1_655
Ba0 F3 3.223103 1_565
Ba0 F21 3.230369 1_555
Ba1 F6 2.686866 1_655
Ba1 F27 2.690010 1_565
Ba1 F7 2.762480 1_565
Ba1 F20 2.835704 1_555
Ba1 F14 2.854518 1_655
Ba1 F22 2.872846 1_566
Ba1 F15 2.974591 1_555
Ba1 F18 3.047721 1_565
Ba1 F27 3.053595 1_655
Ba1 F12 3.124775 1_656
Ba2 F2 2.686866 1_545
Ba2 F9 2.690010 1_455
Ba2 F0 2.762480 1_455
Ba2 F1 2.835704 1_555
Ba2 F24 2.854518 1_545
Ba2 F15 2.872846 1_454
Ba2 F22 2.974591 1_555
Ba2 F19 3.047721 1_455
Ba2 F9 3.053595 1_545
Ba2 F13 3.124775 1_544
Ba3 F25 2.616534 1_545
Ba3 F26 2.664913 1_545
Ba3 F8 2.698461 1_555
Ba3 F11 2.798108 1_545
Ba3 F21 2.813898 1_455
Ba3 F5 2.875707 1_455
Ba3 F20 2.997434 1_455
Ba3 F6 3.137374 1_555
Ba3 F16 3.199535 1_545
Ba3 F11 3.223103 1_455
Ba3 F10 3.230369 1_555
Ca0 F12 2.351251 1_555
Ca0 F13 2.351251 1_554
Ca0 F0 2.362738 1_555
Ca0 F7 2.362738 1_554
Ca0 F24 2.380169 1_555
Ca0 F14 2.380169 1_554
Ca0 F22 2.577261 1_555
Ca0 F15 2.577261 1_554
Cu0 F5 1.768990 1_555
Cu0 F14 1.842242 1_555
Cu0 F18 1.850623 1_555
Cu0 F16 1.885950 1_555
Cu0 F6 2.410012 1_555
Cu0 F20 2.512704 1_555
Cu1 F4 1.768990 1_555
Cu1 F24 1.842242 1_555
Cu1 F19 1.850623 1_555
Cu1 F23 1.885950 1_555
Cu1 F2 2.410012 1_555
Cu1 F1 2.512704 1_555
F0 Fe2 1.951532 1_545
F1 Fe2 1.960532 1_545
F2 Fe3 2.009279 1_565
F3 Fe3 1.979594 1_555
F6 Fe0 2.009279 1_455
F7 Fe1 1.951532 1_655
F8 Fe0 1.936326 1_455
F9 Fe2 1.920089 1_555
F10 Fe0 1.884952 1_545
F11 Fe0 1.979594 1_555
F12 Fe2 1.956213 1_455
F13 Fe1 1.956213 1_565
F15 Fe1 1.986425 1_655
F16 Fe1 2.030148 1_565
F17 Fe3 1.854100 1_565
F18 Fe0 2.171181 1_545
F19 Fe3 2.171181 1_655
F20 Fe1 1.960532 1_655
F21 Fe3 1.884952 1_655
F22 Fe2 1.986425 1_545
F23 Fe2 2.030148 1_455
F25 Fe0 1.854100 1_455
F26 Fe3 1.936326 1_565
F27 Fe1 1.920089 1_555
