# generated using pymatgen
data_Mg2Zn
_symmetry_space_group_name_H-M   'P 1'
_cell_length_a   6.18522477
_cell_length_b   6.18522477
_cell_length_c   29.16493600
_cell_angle_alpha   90.00000000
_cell_angle_beta   90.00000000
_cell_angle_gamma   120.00000822
_symmetry_Int_Tables_number   1
_chemical_formula_structural   Mg2Zn
_chemical_formula_sum   'Mg32 Zn16'
_cell_volume   966.27912235
_cell_formula_units_Z   16
loop_
 _symmetry_equiv_pos_site_id
 _symmetry_equiv_pos_as_xyz
  1  'x, y, z'
loop_
 _atom_site_type_symbol
 _atom_site_label
 _atom_site_symmetry_multiplicity
 _atom_site_fract_x
 _atom_site_fract_y
 _atom_site_fract_z
 _atom_site_occupancy
  Mg  Mg0_0  1  0.00000000  0.00000000  0.25000000  1
  Mg  Mg0_1  1  0.00000000  0.00000000  0.75000000  1
  Mg  Mg0_2  1  0.00000000  0.50000000  0.25000000  1
  Mg  Mg0_3  1  0.00000000  0.50000000  0.75000000  1
  Mg  Mg0_4  1  0.50000000  0.00000000  0.25000000  1
  Mg  Mg0_5  1  0.50000000  0.00000000  0.75000000  1
  Mg  Mg0_6  1  0.50000000  0.50000000  0.25000000  1
  Mg  Mg0_7  1  0.50000000  0.50000000  0.75000000  1
  Mg  Mg1_0  1  0.33333350  0.16666650  0.15839600  1
  Mg  Mg1_1  1  0.33333350  0.16666650  0.65839600  1
  Mg  Mg1_2  1  0.33333350  0.66666650  0.15839600  1
  Mg  Mg1_3  1  0.33333350  0.66666650  0.65839600  1
  Mg  Mg1_4  1  0.83333350  0.16666650  0.15839600  1
  Mg  Mg1_5  1  0.83333350  0.16666650  0.65839600  1
  Mg  Mg1_6  1  0.83333350  0.66666650  0.15839600  1
  Mg  Mg1_7  1  0.83333350  0.66666650  0.65839600  1
  Mg  Mg2_0  1  0.33333350  0.16666650  0.00000000  1
  Mg  Mg2_1  1  0.33333350  0.16666650  0.50000000  1
  Mg  Mg2_2  1  0.33333350  0.66666650  0.00000000  1
  Mg  Mg2_3  1  0.33333350  0.66666650  0.50000000  1
  Mg  Mg2_4  1  0.83333350  0.16666650  0.00000000  1
  Mg  Mg2_5  1  0.83333350  0.16666650  0.50000000  1
  Mg  Mg2_6  1  0.83333350  0.66666650  0.00000000  1
  Mg  Mg2_7  1  0.83333350  0.66666650  0.50000000  1
  Mg  Mg3_0  1  0.33333350  0.16666650  0.34160400  1
  Mg  Mg3_1  1  0.33333350  0.16666650  0.84160400  1
  Mg  Mg3_2  1  0.33333350  0.66666650  0.34160400  1
  Mg  Mg3_3  1  0.33333350  0.66666650  0.84160400  1
  Mg  Mg3_4  1  0.83333350  0.16666650  0.34160400  1
  Mg  Mg3_5  1  0.83333350  0.16666650  0.84160400  1
  Mg  Mg3_6  1  0.83333350  0.66666650  0.34160400  1
  Mg  Mg3_7  1  0.83333350  0.66666650  0.84160400  1
  Zn  Zn0_0  1  0.00000000  0.00000000  0.07930800  1
  Zn  Zn0_1  1  0.00000000  0.00000000  0.57930800  1
  Zn  Zn0_2  1  0.00000000  0.50000000  0.07930800  1
  Zn  Zn0_3  1  0.00000000  0.50000000  0.57930800  1
  Zn  Zn0_4  1  0.50000000  0.00000000  0.07930800  1
  Zn  Zn0_5  1  0.50000000  0.00000000  0.57930800  1
  Zn  Zn0_6  1  0.50000000  0.50000000  0.07930800  1
  Zn  Zn0_7  1  0.50000000  0.50000000  0.57930800  1
  Zn  Zn1_0  1  0.00000000  0.00000000  0.42069200  1
  Zn  Zn1_1  1  0.00000000  0.00000000  0.92069200  1
  Zn  Zn1_2  1  0.00000000  0.50000000  0.42069200  1
  Zn  Zn1_3  1  0.00000000  0.50000000  0.92069200  1
  Zn  Zn1_4  1  0.50000000  0.00000000  0.42069200  1
  Zn  Zn1_5  1  0.50000000  0.00000000  0.92069200  1
  Zn  Zn1_6  1  0.50000000  0.50000000  0.42069200  1
  Zn  Zn1_7  1  0.50000000  0.50000000  0.92069200  1
loop_
_geom_bond_atom_site_label_1
_geom_bond_atom_site_label_2
_geom_bond_distance
_geom_bond_site_symmetry_2
Mg0_0 Mg0_6 3.092612 1_445
Mg0_0 Mg0_6 3.092612 1_555
Mg0_0 Mg0_2 3.092612 1_545
Mg0_0 Mg0_4 3.092612 1_455
Mg0_0 Mg0_4 3.092612 1_555
Mg0_0 Mg0_2 3.092612 1_555
Mg0_0 Mg3_4 3.213356 1_455
Mg0_0 Mg1_4 3.213356 1_455
Mg0_0 Mg3_6 3.213357 1_445
Mg0_0 Mg3_0 3.213357 1_555
Mg0_0 Mg1_0 3.213357 1_555
Mg0_0 Mg1_6 3.213357 1_445
Mg0_1 Mg0_7 3.092612 1_555
Mg0_1 Mg0_7 3.092612 1_445
Mg0_1 Mg0_5 3.092612 1_555
Mg0_1 Mg0_3 3.092612 1_545
Mg0_1 Mg0_3 3.092612 1_555
Mg0_1 Mg0_5 3.092612 1_455
Mg0_1 Mg3_5 3.213356 1_455
Mg0_1 Mg1_5 3.213356 1_455
Mg0_1 Mg3_7 3.213357 1_445
Mg0_1 Mg3_1 3.213357 1_555
Mg0_1 Mg1_1 3.213357 1_555
Mg0_1 Mg1_7 3.213357 1_445
Mg0_2 Mg0_4 3.092612 1_565
Mg0_2 Mg0_4 3.092612 1_455
Mg0_2 Mg0_6 3.092612 1_555
Mg0_2 Mg0_6 3.092612 1_455
Mg0_2 Mg3_6 3.213356 1_455
Mg0_2 Mg1_6 3.213356 1_455
Mg0_2 Mg3_4 3.213357 1_455
Mg0_2 Mg3_2 3.213357 1_555
Mg0_2 Mg1_2 3.213357 1_555
Mg0_2 Mg1_4 3.213357 1_455
Mg0_3 Mg0_5 3.092612 1_565
Mg0_3 Mg0_5 3.092612 1_455
Mg0_3 Mg0_7 3.092612 1_455
Mg0_3 Mg0_7 3.092612 1_555
Mg0_3 Mg3_7 3.213356 1_455
Mg0_3 Mg1_7 3.213356 1_455
Mg0_3 Mg3_5 3.213357 1_455
Mg0_3 Mg3_3 3.213357 1_555
Mg0_3 Mg1_5 3.213357 1_455
Mg0_3 Mg1_3 3.213357 1_555
Mg0_4 Mg0_6 3.092612 1_555
Mg0_4 Mg0_6 3.092612 1_545
Mg0_4 Mg3_0 3.213356 1_555
Mg0_4 Mg1_0 3.213356 1_555
Mg0_4 Mg3_2 3.213357 1_545
Mg0_4 Mg3_4 3.213357 1_555
Mg0_4 Mg1_2 3.213357 1_545
Mg0_4 Mg1_4 3.213357 1_555
Mg0_5 Mg0_7 3.092612 1_545
Mg0_5 Mg0_7 3.092612 1_555
Mg0_5 Mg3_1 3.213356 1_555
Mg0_5 Mg1_1 3.213356 1_555
Mg0_5 Mg3_5 3.213357 1_555
Mg0_5 Mg3_3 3.213357 1_545
Mg0_5 Mg1_5 3.213357 1_555
Mg0_5 Mg1_3 3.213357 1_545
Mg0_6 Mg3_2 3.213356 1_555
Mg0_6 Mg1_2 3.213356 1_555
Mg0_6 Mg3_6 3.213357 1_555
Mg0_6 Mg3_0 3.213357 1_555
Mg0_6 Mg1_0 3.213357 1_555
Mg0_6 Mg1_6 3.213357 1_555
Mg0_7 Mg3_3 3.213356 1_555
Mg0_7 Mg1_3 3.213356 1_555
Mg0_7 Mg3_7 3.213357 1_555
Mg0_7 Mg3_1 3.213357 1_555
Mg0_7 Mg1_7 3.213357 1_555
Mg0_7 Mg1_1 3.213357 1_555
Mg1_0 Zn0_4 2.916927 1_555
Mg1_0 Zn0_6 2.916929 1_555
Mg1_0 Zn0_0 2.916929 1_555
Mg1_1 Zn0_5 2.916927 1_555
Mg1_1 Zn0_7 2.916929 1_555
Mg1_1 Zn0_1 2.916929 1_555
Mg1_2 Zn0_6 2.916927 1_555
Mg1_2 Zn0_2 2.916929 1_555
Mg1_2 Zn0_4 2.916929 1_565
Mg1_3 Zn0_7 2.916927 1_555
Mg1_3 Zn0_3 2.916929 1_555
Mg1_3 Zn0_5 2.916929 1_565
Mg1_4 Zn0_0 2.916927 1_655
Mg1_4 Zn0_2 2.916929 1_655
Mg1_4 Zn0_4 2.916929 1_555
Mg1_5 Zn0_1 2.916927 1_655
Mg1_5 Zn0_3 2.916929 1_655
Mg1_5 Zn0_5 2.916929 1_555
Mg1_6 Zn0_2 2.916927 1_655
Mg1_6 Zn0_6 2.916929 1_555
Mg1_6 Zn0_0 2.916929 1_665
Mg1_7 Zn0_3 2.916927 1_655
Mg1_7 Zn0_1 2.916929 1_665
Mg1_7 Zn0_7 2.916929 1_555
Mg2_0 Zn0_4 2.922004 1_555
Mg2_0 Zn1_5 2.922004 1_554
Mg2_0 Zn0_6 2.922005 1_555
Mg2_0 Zn0_0 2.922005 1_555
Mg2_0 Zn1_7 2.922005 1_554
Mg2_0 Zn1_1 2.922005 1_554
Mg2_1 Zn0_5 2.922004 1_555
Mg2_1 Zn1_4 2.922004 1_555
Mg2_1 Zn0_7 2.922005 1_555
Mg2_1 Zn0_1 2.922005 1_555
Mg2_1 Zn1_6 2.922005 1_555
Mg2_1 Zn1_0 2.922005 1_555
Mg2_2 Zn0_6 2.922004 1_555
Mg2_2 Zn1_7 2.922004 1_554
Mg2_2 Zn0_4 2.922005 1_565
Mg2_2 Zn0_2 2.922005 1_555
Mg2_2 Zn1_5 2.922005 1_564
Mg2_2 Zn1_3 2.922005 1_554
Mg2_3 Zn0_7 2.922004 1_555
Mg2_3 Zn1_6 2.922004 1_555
Mg2_3 Zn0_3 2.922005 1_555
Mg2_3 Zn0_5 2.922005 1_565
Mg2_3 Zn1_4 2.922005 1_565
Mg2_3 Zn1_2 2.922005 1_555
Mg2_4 Zn0_0 2.922004 1_655
Mg2_4 Zn1_1 2.922004 1_654
Mg2_4 Zn0_2 2.922005 1_655
Mg2_4 Zn0_4 2.922005 1_555
Mg2_4 Zn1_5 2.922005 1_554
Mg2_4 Zn1_3 2.922005 1_654
Mg2_5 Zn0_1 2.922004 1_655
Mg2_5 Zn1_0 2.922004 1_655
Mg2_5 Zn0_3 2.922005 1_655
Mg2_5 Zn0_5 2.922005 1_555
Mg2_5 Zn1_2 2.922005 1_655
Mg2_5 Zn1_4 2.922005 1_555
Mg2_6 Zn0_2 2.922004 1_655
Mg2_6 Zn1_3 2.922004 1_654
Mg2_6 Zn0_0 2.922005 1_665
Mg2_6 Zn0_6 2.922005 1_555
Mg2_6 Zn1_1 2.922005 1_664
Mg2_6 Zn1_7 2.922005 1_554
Mg2_7 Zn0_3 2.922004 1_655
Mg2_7 Zn1_2 2.922004 1_655
Mg2_7 Zn0_1 2.922005 1_665
Mg2_7 Zn0_7 2.922005 1_555
Mg2_7 Zn1_6 2.922005 1_555
Mg2_7 Zn1_0 2.922005 1_665
Mg3_0 Zn1_4 2.916927 1_555
Mg3_0 Zn1_6 2.916929 1_555
Mg3_0 Zn1_0 2.916929 1_555
Mg3_1 Zn1_5 2.916927 1_555
Mg3_1 Zn1_7 2.916929 1_555
Mg3_1 Zn1_1 2.916929 1_555
Mg3_2 Zn1_6 2.916927 1_555
Mg3_2 Zn1_2 2.916929 1_555
Mg3_2 Zn1_4 2.916929 1_565
Mg3_3 Zn1_7 2.916927 1_555
Mg3_3 Zn1_3 2.916929 1_555
Mg3_3 Zn1_5 2.916929 1_565
Mg3_4 Zn1_0 2.916927 1_655
Mg3_4 Zn1_2 2.916929 1_655
Mg3_4 Zn1_4 2.916929 1_555
Mg3_5 Zn1_1 2.916927 1_655
Mg3_5 Zn1_3 2.916929 1_655
Mg3_5 Zn1_5 2.916929 1_555
Mg3_6 Zn1_2 2.916927 1_655
Mg3_6 Zn1_6 2.916929 1_555
Mg3_6 Zn1_0 2.916929 1_665
Mg3_7 Zn1_3 2.916927 1_655
Mg3_7 Zn1_7 2.916929 1_555
Mg3_7 Zn1_1 2.916929 1_665
