# generated using pymatgen
data_NaCrH12(SO4)2
_symmetry_space_group_name_H-M   'P 1'
_cell_length_a   10.07561812
_cell_length_b   10.07561812
_cell_length_c   10.07561812
_cell_angle_alpha   90.00000000
_cell_angle_beta   90.00000000
_cell_angle_gamma   90.00000000
_symmetry_Int_Tables_number   1
_chemical_formula_structural   NaCrH12(SO4)2
_chemical_formula_sum   'Na4 Cr4 H48 S8 O32'
_cell_volume   1022.85741139
_cell_formula_units_Z   4
loop_
 _symmetry_equiv_pos_site_id
 _symmetry_equiv_pos_as_xyz
  1  'x, y, z'
loop_
 _atom_site_type_symbol
 _atom_site_label
 _atom_site_symmetry_multiplicity
 _atom_site_fract_x
 _atom_site_fract_y
 _atom_site_fract_z
 _atom_site_occupancy
  Na  Na0  1  -0.00000000  0.00000000  -0.00000000  1
  Na  Na1  1  0.50000000  0.00000000  0.50000000  1
  Na  Na2  1  -0.00000000  0.50000000  0.50000000  1
  Na  Na3  1  0.50000000  0.50000000  -0.00000000  1
  Cr  Cr0  1  0.50000000  0.50000000  0.50000000  1
  Cr  Cr1  1  -0.00000000  0.50000000  -0.00000000  1
  Cr  Cr2  1  0.50000000  0.00000000  -0.00000000  1
  Cr  Cr3  1  -0.00000000  0.00000000  0.50000000  1
  H  H0  1  0.01893613  0.95074883  0.27065189  1
  H  H1  1  0.98106387  0.04925117  0.72934811  1
  H  H2  1  0.48106387  0.04925117  0.77065189  1
  H  H3  1  0.98106387  0.45074883  0.22934811  1
  H  H4  1  0.27065189  0.01893613  0.95074883  1
  H  H5  1  0.51893613  0.95074883  0.22934811  1
  H  H6  1  0.01893613  0.54925117  0.77065189  1
  H  H7  1  0.72934811  0.98106387  0.04925117  1
  H  H8  1  0.51893613  0.54925117  0.72934811  1
  H  H9  1  0.77065189  0.48106387  0.04925117  1
  H  H10  1  0.48106387  0.45074883  0.27065189  1
  H  H11  1  0.22934811  0.51893613  0.95074883  1
  H  H12  1  0.22934811  0.98106387  0.45074883  1
  H  H13  1  0.77065189  0.01893613  0.54925117  1
  H  H14  1  0.72934811  0.51893613  0.54925117  1
  H  H15  1  0.27065189  0.48106387  0.45074883  1
  H  H16  1  0.95074883  0.27065189  0.01893613  1
  H  H17  1  0.04925117  0.72934811  0.98106387  1
  H  H18  1  0.45074883  0.22934811  0.98106387  1
  H  H19  1  0.54925117  0.77065189  0.01893613  1
  H  H20  1  0.54925117  0.72934811  0.51893613  1
  H  H21  1  0.45074883  0.27065189  0.48106387  1
  H  H22  1  0.04925117  0.77065189  0.48106387  1
  H  H23  1  0.95074883  0.22934811  0.51893613  1
  H  H24  1  0.28095216  0.48707359  0.37606553  1
  H  H25  1  0.71904784  0.51292641  0.62393447  1
  H  H26  1  0.21904784  0.51292641  0.87606553  1
  H  H27  1  0.71904784  0.98707359  0.12393447  1
  H  H28  1  0.37606553  0.28095216  0.48707359  1
  H  H29  1  0.78095216  0.48707359  0.12393447  1
  H  H30  1  0.28095216  0.01292641  0.87606553  1
  H  H31  1  0.62393447  0.71904784  0.51292641  1
  H  H32  1  0.78095216  0.01292641  0.62393447  1
  H  H33  1  0.87606553  0.21904784  0.51292641  1
  H  H34  1  0.21904784  0.98707359  0.37606553  1
  H  H35  1  0.12393447  0.78095216  0.48707359  1
  H  H36  1  0.12393447  0.71904784  0.98707359  1
  H  H37  1  0.87606553  0.28095216  0.01292641  1
  H  H38  1  0.62393447  0.78095216  0.01292641  1
  H  H39  1  0.37606553  0.21904784  0.98707359  1
  H  H40  1  0.48707359  0.37606553  0.28095216  1
  H  H41  1  0.51292641  0.62393447  0.71904784  1
  H  H42  1  0.98707359  0.12393447  0.71904784  1
  H  H43  1  0.01292641  0.87606553  0.28095216  1
  H  H44  1  0.01292641  0.62393447  0.78095216  1
  H  H45  1  0.98707359  0.37606553  0.21904784  1
  H  H46  1  0.51292641  0.87606553  0.21904784  1
  H  H47  1  0.48707359  0.12393447  0.78095216  1
  S  S0  1  0.18611352  0.18611352  0.18611352  1
  S  S1  1  0.81388648  0.81388648  0.81388648  1
  S  S2  1  0.31388648  0.81388648  0.68611352  1
  S  S3  1  0.81388648  0.68611352  0.31388648  1
  S  S4  1  0.68611352  0.18611352  0.31388648  1
  S  S5  1  0.18611352  0.31388648  0.68611352  1
  S  S6  1  0.68611352  0.31388648  0.81388648  1
  S  S7  1  0.31388648  0.68611352  0.18611352  1
  O  O0  1  0.26971492  0.26971492  0.26971492  1
  O  O1  1  0.73028508  0.73028508  0.73028508  1
  O  O2  1  0.23028508  0.73028508  0.76971492  1
  O  O3  1  0.73028508  0.76971492  0.23028508  1
  O  O4  1  0.76971492  0.26971492  0.23028508  1
  O  O5  1  0.26971492  0.23028508  0.76971492  1
  O  O6  1  0.76971492  0.23028508  0.73028508  1
  O  O7  1  0.23028508  0.76971492  0.26971492  1
  O  O8  1  0.05962621  0.14561746  0.25472041  1
  O  O9  1  0.94037379  0.85438254  0.74527959  1
  O  O10  1  0.44037379  0.85438254  0.75472041  1
  O  O11  1  0.94037379  0.64561746  0.24527959  1
  O  O12  1  0.25472041  0.05962621  0.14561746  1
  O  O13  1  0.55962621  0.14561746  0.24527959  1
  O  O14  1  0.05962621  0.35438254  0.75472041  1
  O  O15  1  0.74527959  0.94037379  0.85438254  1
  O  O16  1  0.55962621  0.35438254  0.74527959  1
  O  O17  1  0.75472041  0.44037379  0.85438254  1
  O  O18  1  0.44037379  0.64561746  0.25472041  1
  O  O19  1  0.24527959  0.55962621  0.14561746  1
  O  O20  1  0.24527959  0.94037379  0.64561746  1
  O  O21  1  0.75472041  0.05962621  0.35438254  1
  O  O22  1  0.74527959  0.55962621  0.35438254  1
  O  O23  1  0.25472041  0.44037379  0.64561746  1
  O  O24  1  0.14561746  0.25472041  0.05962621  1
  O  O25  1  0.85438254  0.74527959  0.94037379  1
  O  O26  1  0.64561746  0.24527959  0.94037379  1
  O  O27  1  0.35438254  0.75472041  0.05962621  1
  O  O28  1  0.35438254  0.74527959  0.55962621  1
  O  O29  1  0.64561746  0.25472041  0.44037379  1
  O  O30  1  0.85438254  0.75472041  0.44037379  1
  O  O31  1  0.14561746  0.24527959  0.55962621  1
loop_
_geom_bond_atom_site_label_1
_geom_bond_atom_site_label_2
_geom_bond_distance
_geom_bond_site_symmetry_2
Cr0 H21 2.371194 1_555
Cr0 H8 2.371194 1_555
Cr0 H10 2.371194 1_555
Cr0 H15 2.371194 1_555
Cr0 H20 2.371194 1_555
Cr0 H14 2.371194 1_555
Cr1 H11 2.371194 1_554
Cr1 H17 2.371194 1_554
Cr1 H9 2.371194 1_455
Cr1 H6 2.371194 1_554
Cr1 H16 2.371194 1_455
Cr1 H3 2.371194 1_455
Cr2 H4 2.371194 1_554
Cr2 H7 2.371194 1_545
Cr2 H2 2.371194 1_554
Cr2 H19 2.371194 1_545
Cr2 H18 2.371194 1_554
Cr2 H5 2.371194 1_545
Cr3 H23 2.371194 1_455
Cr3 H12 2.371194 1_545
Cr3 H22 2.371194 1_545
Cr3 H0 2.371194 1_545
Cr3 H1 2.371194 1_455
Cr3 H13 2.371194 1_455
H0 H43 0.762013 1_555
H1 H42 0.762013 1_555
H2 H47 0.762013 1_555
H3 H45 0.762013 1_555
H10 H40 0.762013 1_555
H11 H26 0.762013 1_555
H12 H34 0.762013 1_555
H13 H32 0.762013 1_555
H14 H25 0.762013 1_555
H15 H24 0.762013 1_555
H16 H37 0.762013 1_555
H17 H36 0.762013 1_555
H18 H39 0.762013 1_555
H19 H38 0.762013 1_555
H20 H31 0.762013 1_555
H21 H28 0.762013 1_555
H22 H35 0.762013 1_555
H23 H33 0.762013 1_555
H27 H7 0.762013 1_555
H29 H9 0.762013 1_555
H30 H4 0.762013 1_555
H41 H8 0.762013 1_555
H44 H6 0.762013 1_555
H46 H5 0.762013 1_555
O0 S0 1.458968 1_555
O1 S1 1.458968 1_555
O2 S2 1.458968 1_555
O3 S3 1.458968 1_555
O4 S4 1.458968 1_555
O5 S5 1.458968 1_555
O6 S6 1.458968 1_555
O7 S7 1.458968 1_555
O8 S0 1.506158 1_555
O9 S1 1.506158 1_555
O10 S2 1.506158 1_555
O11 S3 1.506158 1_555
O12 S0 1.506158 1_555
O13 S4 1.506158 1_555
O14 S5 1.506158 1_555
O15 S1 1.506158 1_555
O16 S6 1.506158 1_555
O17 S6 1.506158 1_555
O18 S7 1.506158 1_555
O19 S7 1.506158 1_555
O20 S2 1.506158 1_555
O21 S4 1.506158 1_555
O22 S3 1.506158 1_555
O23 S5 1.506158 1_555
O24 S0 1.506158 1_555
O25 S1 1.506158 1_555
O26 S6 1.506158 1_555
O27 S7 1.506158 1_555
O28 S2 1.506158 1_555
O29 S4 1.506158 1_555
O30 S3 1.506158 1_555
O31 S5 1.506158 1_555
