# generated using pymatgen
data_Sr4ZnCu(WO6)2
_symmetry_space_group_name_H-M   'P 1'
_cell_length_a   5.63695400
_cell_length_b   5.63695400
_cell_length_c   8.22660500
_cell_angle_alpha   90.00000000
_cell_angle_beta   90.00000000
_cell_angle_gamma   90.00000000
_symmetry_Int_Tables_number   1
_chemical_formula_structural   Sr4ZnCu(WO6)2
_chemical_formula_sum   'Sr4 Zn1 Cu1 W2 O12'
_cell_volume   261.40243380
_cell_formula_units_Z   1
loop_
 _symmetry_equiv_pos_site_id
 _symmetry_equiv_pos_as_xyz
  1  'x, y, z'
loop_
 _atom_site_type_symbol
 _atom_site_label
 _atom_site_symmetry_multiplicity
 _atom_site_fract_x
 _atom_site_fract_y
 _atom_site_fract_z
 _atom_site_occupancy
  Sr  Sr0  1  0.00000000  0.50000000  0.25004500  1
  Sr  Sr1  1  0.50000000  0.00000000  0.74995500  1
  Sr  Sr2  1  0.50000000  0.00000000  0.25004500  1
  Sr  Sr3  1  0.00000000  0.50000000  0.74995500  1
  Zn  Zn0  1  0.00000000  0.00000000  0.00000000  1
  Cu  Cu0  1  0.50000000  0.50000000  0.50000000  1
  W  W0  1  0.50000000  0.50000000  0.00000000  1
  W  W1  1  0.00000000  0.00000000  0.50000000  1
  O  O0  1  0.00000000  0.00000000  0.26237500  1
  O  O1  1  0.50000000  0.50000000  0.76261600  1
  O  O2  1  0.50000000  0.50000000  0.23738400  1
  O  O3  1  0.00000000  0.00000000  0.73762500  1
  O  O4  1  0.71816400  0.79702900  0.50000000  1
  O  O5  1  0.21762700  0.29924200  0.00000000  1
  O  O6  1  0.78237300  0.70075800  0.00000000  1
  O  O7  1  0.28183600  0.20297100  0.50000000  1
  O  O8  1  0.70075800  0.21762700  0.00000000  1
  O  O9  1  0.20297100  0.71816400  0.50000000  1
  O  O10  1  0.79702900  0.28183600  0.50000000  1
  O  O11  1  0.29924200  0.78237300  0.00000000  1
loop_
_geom_bond_atom_site_label_1
_geom_bond_atom_site_label_2
_geom_bond_distance
_geom_bond_site_symmetry_2
Cu0 O4 2.077443 1_555
Cu0 O10 2.077443 1_555
Cu0 O9 2.077443 1_555
Cu0 O7 2.077443 1_555
Cu0 O1 2.160438 1_555
Cu0 O2 2.160438 1_555
O0 W1 1.954847 1_555
O0 Zn0 2.158455 1_555
O0 Sr2 2.820302 1_455
O0 Sr0 2.820302 1_545
O0 Sr2 2.820302 1_555
O0 Sr0 2.820302 1_555
O1 W0 1.952864 1_556
O1 Sr1 2.820401 1_565
O1 Sr1 2.820401 1_555
O1 Sr3 2.820401 1_555
O1 Sr3 2.820401 1_655
O2 W0 1.952864 1_555
O2 Sr0 2.820401 1_555
O2 Sr0 2.820401 1_655
O2 Sr2 2.820401 1_555
O2 Sr2 2.820401 1_565
O3 W1 1.954847 1_555
O3 Zn0 2.158455 1_556
O3 Sr3 2.820302 1_555
O3 Sr1 2.820302 1_455
O3 Sr1 2.820302 1_555
O3 Sr3 2.820302 1_545
O4 W1 1.957807 1_665
O4 Sr1 2.655128 1_565
O4 Sr2 2.655128 1_565
O4 Sr3 3.091223 1_655
O4 Sr0 3.091223 1_655
O5 W0 1.953010 1_555
O5 Zn0 2.085728 1_555
O5 Sr0 2.648948 1_555
O5 Sr3 2.648948 1_554
O5 Sr2 3.100042 1_555
O5 Sr1 3.100042 1_554
O6 W0 1.953010 1_555
O6 Zn0 2.085728 1_665
O6 Sr0 2.648948 1_655
O6 Sr3 2.648948 1_654
O6 Sr2 3.100042 1_565
O6 Sr1 3.100042 1_564
O7 W1 1.957807 1_555
O7 Sr1 2.655128 1_555
O7 Sr2 2.655128 1_555
O7 Sr3 3.091223 1_555
O7 Sr0 3.091223 1_555
O8 W0 1.953010 1_555
O8 Zn0 2.085728 1_655
O8 Sr2 2.648948 1_555
O8 Sr1 2.648948 1_554
O8 Sr0 3.100042 1_655
O8 Sr3 3.100042 1_654
O9 W1 1.957807 1_565
O9 Sr3 2.655128 1_555
O9 Sr0 2.655128 1_555
O9 Sr1 3.091223 1_565
O9 Sr2 3.091223 1_565
O10 W1 1.957807 1_655
O10 Sr3 2.655128 1_655
O10 Sr0 2.655128 1_655
O10 Sr1 3.091223 1_555
O10 Sr2 3.091223 1_555
O11 W0 1.953010 1_555
O11 Zn0 2.085728 1_565
O11 Sr2 2.648948 1_565
O11 Sr1 2.648948 1_564
O11 Sr0 3.100042 1_555
O11 Sr3 3.100042 1_554
