# generated using pymatgen
data_Ca2TaInO6
_symmetry_space_group_name_H-M   'P 1'
_cell_length_a   5.77576500
_cell_length_b   5.57418000
_cell_length_c   9.75757261
_cell_angle_alpha   55.19010314
_cell_angle_beta   90.00000000
_cell_angle_gamma   90.00000000
_symmetry_Int_Tables_number   1
_chemical_formula_structural   Ca2TaInO6
_chemical_formula_sum   'Ca4 Ta2 In2 O12'
_cell_volume   257.93021864
_cell_formula_units_Z   2
loop_
 _symmetry_equiv_pos_site_id
 _symmetry_equiv_pos_as_xyz
  1  'x, y, z'
loop_
 _atom_site_type_symbol
 _atom_site_label
 _atom_site_symmetry_multiplicity
 _atom_site_fract_x
 _atom_site_fract_y
 _atom_site_fract_z
 _atom_site_occupancy
  Ca  Ca0  1  0.44473800  0.23557400  0.75000600  1
  Ca  Ca1  1  0.55526200  0.76442600  0.24999400  1
  Ca  Ca2  1  0.94473800  0.76442600  0.74999400  1
  Ca  Ca3  1  0.05526200  0.23557400  0.25000600  1
  Ta  Ta0  1  0.00000000  0.50000000  0.50000000  1
  Ta  Ta1  1  0.50000000  0.50000000  0.00000000  1
  In  In0  1  0.00000000  0.00000000  0.00000000  1
  In  In1  1  0.50000000  0.00000000  0.50000000  1
  O  O0  1  0.03895700  0.36855500  0.73817900  1
  O  O1  1  0.96104300  0.63144500  0.26182100  1
  O  O2  1  0.53895700  0.63144500  0.76182100  1
  O  O3  1  0.46104300  0.36855500  0.23817900  1
  O  O4  1  0.68913600  0.84456700  0.94642700  1
  O  O5  1  0.31086400  0.15543300  0.05357300  1
  O  O6  1  0.18913600  0.15543300  0.55357300  1
  O  O7  1  0.81086400  0.84456700  0.44642700  1
  O  O8  1  0.21145500  0.74260400  0.94140000  1
  O  O9  1  0.78854500  0.25739600  0.05860000  1
  O  O10  1  0.71145500  0.25739600  0.55860000  1
  O  O11  1  0.28854500  0.74260400  0.44140000  1
loop_
_geom_bond_atom_site_label_1
_geom_bond_atom_site_label_2
_geom_bond_distance
_geom_bond_site_symmetry_2
Ca0 O2 2.338634 1_555
Ca0 O10 2.369956 1_555
Ca0 O4 2.376351 1_545
Ca0 O0 2.440907 1_555
Ca0 O8 2.644821 1_545
Ca0 O6 2.651482 1_555
Ca0 O5 2.839120 1_556
Ca0 O11 2.855280 1_555
Ca1 O3 2.338634 1_555
Ca1 O11 2.369956 1_555
Ca1 O5 2.376351 1_565
Ca1 O1 2.440907 1_555
Ca1 O9 2.644821 1_565
Ca1 O7 2.651482 1_555
Ca1 O4 2.839120 1_554
Ca1 O10 2.855280 1_555
Ca2 O0 2.338634 1_655
Ca2 O8 2.369956 1_655
Ca2 O6 2.376351 1_665
Ca2 O2 2.440907 1_555
Ca2 O10 2.644821 1_565
Ca2 O4 2.651482 1_555
Ca2 O7 2.839120 1_555
Ca2 O9 2.855280 1_556
Ca3 O1 2.338634 1_455
Ca3 O9 2.369956 1_455
Ca3 O7 2.376351 1_445
Ca3 O3 2.440907 1_555
Ca3 O11 2.644821 1_545
Ca3 O5 2.651482 1_555
Ca3 O6 2.839120 1_555
Ca3 O8 2.855280 1_554
In0 O5 2.182833 1_555
In0 O4 2.182833 1_444
In0 O1 2.192178 1_445
In0 O0 2.192178 1_554
In0 O9 2.194033 1_455
In0 O8 2.194033 1_544
In1 O7 2.182833 1_545
In1 O6 2.182833 1_555
In1 O3 2.192178 1_555
In1 O2 2.192178 1_545
In1 O10 2.194033 1_555
In1 O11 2.194033 1_545
O0 Ta0 2.011105 1_555
O1 Ta0 2.011105 1_655
O2 Ta1 2.011105 1_556
O3 Ta1 2.011105 1_555
O4 Ta1 2.002327 1_556
O5 Ta1 2.002327 1_555
O6 Ta0 2.002327 1_555
O7 Ta0 2.002327 1_655
O8 Ta1 2.012545 1_556
O9 Ta1 2.012545 1_555
O10 Ta0 2.012545 1_655
O11 Ta0 2.012545 1_555
