# generated using pymatgen
data_Ca3Si2SnO9
_symmetry_space_group_name_H-M   'P 1'
_cell_length_a   10.20129000
_cell_length_b   7.41559400
_cell_length_c   10.53477628
_cell_angle_alpha   88.80368668
_cell_angle_beta   90.00000000
_cell_angle_gamma   90.00000000
_symmetry_Int_Tables_number   1
_chemical_formula_structural   Ca3Si2SnO9
_chemical_formula_sum   'Ca12 Si8 Sn4 O36'
_cell_volume   796.76762896
_cell_formula_units_Z   4
loop_
 _symmetry_equiv_pos_site_id
 _symmetry_equiv_pos_as_xyz
  1  'x, y, z'
loop_
 _atom_site_type_symbol
 _atom_site_label
 _atom_site_symmetry_multiplicity
 _atom_site_fract_x
 _atom_site_fract_y
 _atom_site_fract_z
 _atom_site_occupancy
  Ca  Ca0  1  0.92067600  0.36382600  0.11132400  1
  Ca  Ca1  1  0.42067600  0.63617400  0.38867600  1
  Ca  Ca2  1  0.07932400  0.63617400  0.88867600  1
  Ca  Ca3  1  0.57932400  0.36382600  0.61132400  1
  Ca  Ca4  1  0.33334700  0.88064400  0.08351300  1
  Ca  Ca5  1  0.83334700  0.11935600  0.41648700  1
  Ca  Ca6  1  0.66665300  0.11935600  0.91648700  1
  Ca  Ca7  1  0.16665300  0.88064400  0.58351300  1
  Ca  Ca8  1  0.30427400  0.37188100  0.09563600  1
  Ca  Ca9  1  0.80427400  0.62811900  0.40436400  1
  Ca  Ca10  1  0.69572600  0.62811900  0.90436400  1
  Ca  Ca11  1  0.19572600  0.37188100  0.59563600  1
  Si  Si0  1  0.13677700  0.59882100  0.30528300  1
  Si  Si1  1  0.63677700  0.40117900  0.19471700  1
  Si  Si2  1  0.86322300  0.40117900  0.69471700  1
  Si  Si3  1  0.36322300  0.59882100  0.80528300  1
  Si  Si4  1  0.12548500  0.16701700  0.31584300  1
  Si  Si5  1  0.62548500  0.83298300  0.18415700  1
  Si  Si6  1  0.87451500  0.83298300  0.68415700  1
  Si  Si7  1  0.37451500  0.16701700  0.81584300  1
  Sn  Sn0  1  0.55847600  0.87978700  0.61790400  1
  Sn  Sn1  1  0.05847600  0.12021300  0.88209600  1
  Sn  Sn2  1  0.44152400  0.12021300  0.38209600  1
  Sn  Sn3  1  0.94152400  0.87978700  0.11790400  1
  O  O0  1  0.39151300  0.34086100  0.48271600  1
  O  O1  1  0.89151300  0.65913900  0.01728400  1
  O  O2  1  0.60848700  0.65913900  0.51728400  1
  O  O3  1  0.10848700  0.34086100  0.98271600  1
  O  O4  1  0.11672100  0.90910500  0.00828400  1
  O  O5  1  0.61672100  0.09089500  0.49171600  1
  O  O6  1  0.88327900  0.09089500  0.99171600  1
  O  O7  1  0.38327900  0.90910500  0.50828400  1
  O  O8  1  0.16897500  0.61940600  0.45493400  1
  O  O9  1  0.66897500  0.38059400  0.04506600  1
  O  O10  1  0.83102500  0.38059400  0.54506600  1
  O  O11  1  0.33102500  0.61940600  0.95493400  1
  O  O12  1  0.99898700  0.69554900  0.26322800  1
  O  O13  1  0.49898700  0.30445100  0.23677200  1
  O  O14  1  0.89085500  0.85575400  0.53250000  1
  O  O15  1  0.00101300  0.30445100  0.73677200  1
  O  O16  1  0.23319000  0.64537200  0.72049800  1
  O  O17  1  0.73319000  0.35462800  0.77950200  1
  O  O18  1  0.76681000  0.35462800  0.27950200  1
  O  O19  1  0.26681000  0.64537200  0.22049800  1
  O  O20  1  0.76875600  0.89638100  0.23902800  1
  O  O21  1  0.26875600  0.10361900  0.26097200  1
  O  O22  1  0.23124400  0.10361900  0.76097200  1
  O  O23  1  0.73124400  0.89638100  0.73902800  1
  O  O24  1  0.39274400  0.38278400  0.76952000  1
  O  O25  1  0.89274400  0.61721600  0.73048000  1
  O  O26  1  0.60725600  0.61721600  0.23048000  1
  O  O27  1  0.10725600  0.38278400  0.26952000  1
  O  O28  1  0.00236300  0.91583800  0.75750100  1
  O  O29  1  0.50236300  0.08416200  0.74249900  1
  O  O30  1  0.99763700  0.08416200  0.24249900  1
  O  O31  1  0.49763700  0.91583800  0.25750100  1
  O  O32  1  0.60914500  0.85575400  0.03250000  1
  O  O33  1  0.10914500  0.14424600  0.46750000  1
  O  O34  1  0.39085500  0.14424600  0.96750000  1
  O  O35  1  0.50101300  0.69554900  0.76322800  1
loop_
_geom_bond_atom_site_label_1
_geom_bond_atom_site_label_2
_geom_bond_distance
_geom_bond_site_symmetry_2
Ca0 O3 2.354783 1_654
Ca0 O18 2.366925 1_555
Ca0 O1 2.403152 1_555
Ca0 O6 2.436410 1_554
Ca0 O27 2.535692 1_655
Ca0 O30 2.589849 1_555
Ca0 O9 2.663084 1_555
Ca1 O2 2.354783 1_555
Ca1 O19 2.366925 1_555
Ca1 O0 2.403152 1_555
Ca1 O7 2.436410 1_555
Ca1 O26 2.535692 1_555
Ca1 O31 2.589849 1_555
Ca1 O8 2.663084 1_555
Ca2 O1 2.354783 1_456
Ca2 O16 2.366925 1_555
Ca2 O3 2.403152 1_555
Ca2 O4 2.436410 1_556
Ca2 O25 2.535692 1_455
Ca2 O28 2.589849 1_555
Ca2 O11 2.663084 1_555
Ca3 O0 2.354783 1_555
Ca3 O17 2.366925 1_555
Ca3 O2 2.403152 1_555
Ca3 O5 2.436410 1_555
Ca3 O24 2.535692 1_555
Ca3 O29 2.589849 1_555
Ca3 O10 2.663084 1_555
Ca4 O19 2.341379 1_555
Ca4 O4 2.355664 1_555
Ca4 O34 2.357799 1_564
Ca4 O11 2.387011 1_554
Ca4 O31 2.501315 1_555
Ca4 O21 2.606199 1_565
Ca4 O32 2.871023 1_555
Ca5 O18 2.341379 1_555
Ca5 O5 2.355664 1_555
Ca5 O14 2.357799 1_545
Ca5 O10 2.387011 1_555
Ca5 O30 2.501315 1_555
Ca5 O20 2.606199 1_545
Ca5 O33 2.871023 1_655
Ca6 O17 2.341379 1_555
Ca6 O6 2.355664 1_555
Ca6 O32 2.357799 1_546
Ca6 O9 2.387011 1_556
Ca6 O29 2.501315 1_555
Ca6 O23 2.606199 1_545
Ca6 O34 2.871023 1_555
Ca7 O16 2.341379 1_555
Ca7 O7 2.355664 1_555
Ca7 O33 2.357799 1_565
Ca7 O8 2.387011 1_555
Ca7 O28 2.501315 1_555
Ca7 O22 2.606199 1_565
Ca7 O14 2.871023 1_455
Ca8 O3 2.338501 1_554
Ca8 O11 2.350999 1_554
Ca8 O34 2.355197 1_554
Ca8 O19 2.470000 1_555
Ca8 O13 2.524907 1_555
Ca8 O21 2.641551 1_555
Ca8 O27 2.721721 1_555
Ca9 O2 2.338501 1_555
Ca9 O10 2.350999 1_555
Ca9 O14 2.355197 1_555
Ca9 O18 2.470000 1_555
Ca9 O12 2.524907 1_555
Ca9 O20 2.641551 1_555
Ca9 O26 2.721721 1_555
Ca10 O1 2.338501 1_556
Ca10 O9 2.350999 1_556
Ca10 O32 2.355197 1_556
Ca10 O17 2.470000 1_555
Ca10 O35 2.524907 1_555
Ca10 O23 2.641551 1_555
Ca10 O25 2.721721 1_555
Ca11 O0 2.338501 1_555
Ca11 O8 2.350999 1_555
Ca11 O33 2.355197 1_555
Ca11 O16 2.470000 1_555
Ca11 O15 2.524907 1_555
Ca11 O22 2.641551 1_555
Ca11 O24 2.721721 1_555
O0 Sn2 2.033123 1_555
O1 Sn3 2.033123 1_555
O2 Sn0 2.033123 1_555
O3 Sn1 2.033123 1_555
O4 Sn1 2.117572 1_564
O4 Sn3 2.136494 1_455
O5 Sn0 2.117572 1_545
O5 Sn2 2.136494 1_555
O6 Sn3 2.117572 1_546
O6 Sn1 2.136494 1_655
O7 Sn2 2.117572 1_565
O7 Sn0 2.136494 1_555
O8 Si0 1.620714 1_555
O9 Si1 1.620714 1_555
O10 Si2 1.620714 1_555
O11 Si3 1.620714 1_555
O12 Si0 1.635035 1_655
O12 Sn3 2.113459 1_555
O13 Si1 1.635035 1_555
O13 Sn2 2.113459 1_555
O14 Si6 1.611705 1_555
O15 Si2 1.635035 1_455
O15 Sn1 2.113459 1_555
O16 Si3 1.632083 1_555
O17 Si2 1.632083 1_555
O18 Si1 1.632083 1_555
O19 Si0 1.632083 1_555
O20 Si5 1.643972 1_555
O20 Sn3 2.180863 1_555
O21 Si4 1.643972 1_555
O21 Sn2 2.180863 1_555
O22 Si7 1.643972 1_555
O22 Sn1 2.180863 1_555
O23 Si6 1.643972 1_555
O23 Sn0 2.180863 1_555
O24 Si7 1.673396 1_555
O24 Si3 1.680589 1_555
O25 Si6 1.673396 1_555
O25 Si2 1.680589 1_555
O26 Si5 1.673396 1_555
O26 Si1 1.680589 1_555
O27 Si4 1.673396 1_555
O27 Si0 1.680589 1_555
O28 Si6 1.641742 1_455
O28 Sn1 2.104883 1_565
O29 Si7 1.641742 1_555
O29 Sn0 2.104883 1_545
O30 Si4 1.641742 1_655
O30 Sn3 2.104883 1_545
O31 Si5 1.641742 1_555
O31 Sn2 2.104883 1_565
O32 Si5 1.611705 1_555
O33 Si4 1.611705 1_555
O34 Si7 1.611705 1_555
O35 Si3 1.635035 1_555
O35 Sn0 2.113459 1_555
