# generated using pymatgen
data_La3BeVS7
_symmetry_space_group_name_H-M   'P 1'
_cell_length_a   10.19544579
_cell_length_b   10.19544579
_cell_length_c   5.94881900
_cell_angle_alpha   90.00000000
_cell_angle_beta   90.00000000
_cell_angle_gamma   119.99999866
_symmetry_Int_Tables_number   1
_chemical_formula_structural   La3BeVS7
_chemical_formula_sum   'La6 Be2 V2 S14'
_cell_volume   535.51770355
_cell_formula_units_Z   2
loop_
 _symmetry_equiv_pos_site_id
 _symmetry_equiv_pos_as_xyz
  1  'x, y, z'
loop_
 _atom_site_type_symbol
 _atom_site_label
 _atom_site_symmetry_multiplicity
 _atom_site_fract_x
 _atom_site_fract_y
 _atom_site_fract_z
 _atom_site_occupancy
  La  La0  1  0.74853100  0.13699900  0.74719500  1
  La  La1  1  0.38846800  0.25146900  0.74719500  1
  La  La2  1  0.86300100  0.61153200  0.74719500  1
  La  La3  1  0.25146900  0.86300100  0.24719500  1
  La  La4  1  0.61153200  0.74853100  0.24719500  1
  La  La5  1  0.13699900  0.38846800  0.24719500  1
  Be  Be0  1  0.66666700  0.33333300  0.16072100  1
  Be  Be1  1  0.33333300  0.66666700  0.66072100  1
  V  V0  1  0.00000000  0.00000000  0.51693900  1
  V  V1  1  0.00000000  0.00000000  0.01693900  1
  S  S0  1  0.85872900  0.07611700  0.26789500  1
  S  S1  1  0.21738800  0.14127100  0.26789500  1
  S  S2  1  0.92388300  0.78261200  0.26789500  1
  S  S3  1  0.14127100  0.92388300  0.76789500  1
  S  S4  1  0.78261200  0.85872900  0.76789500  1
  S  S5  1  0.07611700  0.21738800  0.76789500  1
  S  S6  1  0.88697200  0.40493900  0.03131800  1
  S  S7  1  0.51796700  0.11302800  0.03131800  1
  S  S8  1  0.59506100  0.48203300  0.03131800  1
  S  S9  1  0.11302800  0.59506100  0.53131800  1
  S  S10  1  0.48203300  0.88697200  0.53131800  1
  S  S11  1  0.40493900  0.51796700  0.53131800  1
  S  S12  1  0.66666700  0.33333300  0.51392100  1
  S  S13  1  0.33333300  0.66666700  0.01392100  1
loop_
_geom_bond_atom_site_label_1
_geom_bond_atom_site_label_2
_geom_bond_distance
_geom_bond_site_symmetry_2
La0 S7 2.804959 1_556
La0 S12 2.880957 1_555
La0 S6 2.907879 1_556
La0 S10 2.933185 1_545
La0 S5 3.017345 1_655
La0 S4 3.028327 1_545
La0 S0 3.236465 1_555
La0 S0 3.455400 1_556
La1 S8 2.804959 1_556
La1 S12 2.880965 1_555
La1 S7 2.907879 1_556
La1 S11 2.933185 1_555
La1 S3 3.017345 1_545
La1 S5 3.028327 1_555
La1 S1 3.236465 1_555
La1 S1 3.455400 1_556
La2 S6 2.804959 1_556
La2 S12 2.880963 1_555
La2 S8 2.907879 1_556
La2 S9 2.933185 1_655
La2 S4 3.017345 1_555
La2 S3 3.028327 1_655
La2 S2 3.236465 1_555
La2 S2 3.455400 1_556
La3 S10 2.804959 1_555
La3 S13 2.880957 1_555
La3 S9 2.907879 1_555
La3 S7 2.933185 1_565
La3 S2 3.017345 1_455
La3 S1 3.028327 1_565
La3 S3 3.236465 1_554
La3 S3 3.455400 1_555
La4 S11 2.804959 1_555
La4 S13 2.880965 1_555
La4 S10 2.907879 1_555
La4 S8 2.933185 1_555
La4 S0 3.017345 1_565
La4 S2 3.028327 1_555
La4 S4 3.236465 1_554
La4 S4 3.455400 1_555
La5 S9 2.804959 1_555
La5 S13 2.880963 1_555
La5 S11 2.907879 1_555
La5 S6 2.933185 1_455
La5 S1 3.017345 1_555
La5 S0 3.028327 1_455
La5 S5 3.236465 1_554
La5 S5 3.455400 1_555
Be0 S12 2.101123 1_555
Be0 S6 2.128563 1_555
Be0 S7 2.128565 1_555
Be0 S8 2.128572 1_555
Be1 S13 2.101123 1_556
Be1 S9 2.128563 1_555
Be1 S10 2.128565 1_555
Be1 S11 2.128572 1_555
S0 V0 2.447330 1_655
S0 V1 2.454232 1_655
S1 V0 2.447330 1_555
S1 V1 2.454232 1_555
S2 V0 2.447330 1_665
S2 V1 2.454232 1_665
S3 V1 2.447330 1_566
S3 V0 2.454232 1_565
S4 V1 2.447330 1_666
S4 V0 2.454232 1_665
S5 V1 2.447330 1_556
S5 V0 2.454232 1_555
