# generated using pymatgen
data_Mg5Si6
_symmetry_space_group_name_H-M   'P 1'
_cell_length_a   4.32578100
_cell_length_b   6.78120536
_cell_length_c   14.43246103
_cell_angle_alpha   96.57203142
_cell_angle_beta   98.19625570
_cell_angle_gamma   90.51821357
_symmetry_Int_Tables_number   1
_chemical_formula_structural   Mg5Si6
_chemical_formula_sum   'Mg10 Si12'
_cell_volume   416.14544843
_cell_formula_units_Z   2
loop_
 _symmetry_equiv_pos_site_id
 _symmetry_equiv_pos_as_xyz
  1  'x, y, z'
loop_
 _atom_site_type_symbol
 _atom_site_label
 _atom_site_symmetry_multiplicity
 _atom_site_fract_x
 _atom_site_fract_y
 _atom_site_fract_z
 _atom_site_occupancy
  Mg  Mg0  1  0.64076100  0.00304900  0.01997400  1
  Mg  Mg1  1  0.37541700  0.50498400  0.49600300  1
  Mg  Mg2  1  0.94812400  0.69796100  0.63817700  1
  Mg  Mg3  1  0.79292600  0.28075800  0.34583500  1
  Mg  Mg4  1  0.20942600  0.23711600  0.16144200  1
  Mg  Mg5  1  0.56895600  0.60628900  0.88085000  1
  Mg  Mg6  1  0.90621500  0.20871400  0.57263700  1
  Mg  Mg7  1  0.83586100  0.79851400  0.41522900  1
  Mg  Mg8  1  0.17400800  0.69701700  0.09169400  1
  Mg  Mg9  1  0.10563700  0.28229000  0.94740400  1
  Si  Si0  1  0.09209800  0.86116400  0.92120700  1
  Si  Si1  1  0.65356700  0.41332400  0.05124500  1
  Si  Si2  1  0.32957400  0.11366300  0.43870000  1
  Si  Si3  1  0.41649300  0.89988200  0.55768600  1
  Si  Si4  1  0.99494800  0.00714000  0.77822300  1
  Si  Si5  1  0.73307500  0.93975600  0.20488300  1
  Si  Si6  1  0.27904500  0.56125000  0.30290800  1
  Si  Si7  1  0.46987600  0.43446700  0.68895300  1
  Si  Si8  1  0.00535400  0.37124200  0.77005700  1
  Si  Si9  1  0.73547600  0.57538700  0.21272900  1
  Si  Si10  1  0.26850600  0.91989200  0.28881000  1
  Si  Si11  1  0.46806800  0.08239800  0.71181500  1
loop_
_geom_bond_atom_site_label_1
_geom_bond_atom_site_label_2
_geom_bond_distance
_geom_bond_site_symmetry_2
Mg0 Si0 2.696436 1_544
Mg0 Si0 2.698705 1_644
Mg0 Si5 2.725257 1_545
Mg0 Si1 2.765832 1_555
Mg1 Si2 2.684473 1_555
Mg1 Si3 2.719513 1_555
Mg1 Si6 2.828577 1_555
Mg1 Si7 2.852076 1_555
Mg2 Si4 2.725368 1_565
Mg2 Si3 2.858749 1_555
Mg2 Si3 2.883460 1_655
Mg2 Si7 2.945295 1_555
Mg2 Si7 2.953773 1_655
Mg2 Si8 3.071408 1_655
Mg3 Si2 2.824417 1_655
Mg3 Si2 2.858360 1_555
Mg3 Si5 2.883534 1_545
Mg3 Si9 2.914682 1_555
Mg3 Si6 2.982736 1_555
Mg3 Si6 2.998755 1_655
Mg4 Si6 2.806419 1_555
Mg4 Si10 2.975411 1_545
Mg4 Si1 2.985491 1_555
Mg4 Si1 3.022506 1_455
Mg4 Si5 3.047591 1_445
Mg4 Si5 3.091497 1_545
Mg4 Si9 3.166181 1_555
Mg4 Si9 3.184689 1_455
Mg5 Si0 2.785351 1_555
Mg5 Si0 2.787584 1_655
Mg5 Si7 2.850531 1_555
Mg5 Si1 2.895275 1_556
Mg5 Si8 2.998787 1_655
Mg5 Si8 3.045663 1_555
Mg6 Si2 2.872543 1_655
Mg6 Si8 2.905358 1_655
Mg6 Si3 2.933628 1_545
Mg6 Si2 2.947053 1_555
Mg6 Si7 3.015270 1_555
Mg6 Si7 3.046968 1_655
Mg6 Si3 3.069339 1_645
Mg6 Si11 3.116911 1_655
Mg6 Si11 3.132217 1_555
Mg7 Si3 2.958568 1_555
Mg7 Si2 2.964548 1_665
Mg7 Si10 2.966234 1_655
Mg7 Si10 3.022135 1_555
Mg7 Si3 3.030031 1_655
Mg7 Si6 3.039204 1_655
Mg7 Si6 3.039368 1_555
Mg7 Si2 3.099817 1_565
Mg7 Si9 3.103774 1_555
Mg8 Si0 2.793627 1_554
Mg8 Si1 2.898274 1_455
Mg8 Si1 2.916429 1_555
Mg8 Si9 2.928590 1_455
Mg8 Si9 2.964297 1_555
Mg8 Si10 3.036055 1_555
Mg8 Si5 3.057115 1_455
Mg8 Si5 3.068035 1_555
Mg9 Si8 2.672996 1_555
Mg9 Si1 2.701445 1_556
Mg9 Si1 2.724343 1_456
Mg9 Si0 2.836397 1_545
Mg9 Si4 2.877531 1_455
Si0 Si4 2.375466 1_465
Si1 Si9 2.436445 1_555
Si2 Si3 2.363806 1_545
Si4 Si8 2.485606 1_655
Si5 Si9 2.486415 1_555
Si6 Si9 2.521761 1_555
Si6 Si9 2.528252 1_455
Si7 Si8 2.505841 1_655
Si7 Si8 2.522235 1_555
Si10 Si2 2.378293 1_565
Si10 Si6 2.463911 1_555
Si10 Si5 2.468395 1_455
Si10 Si5 2.500085 1_555
Si11 Si3 2.398570 1_545
Si11 Si4 2.425655 1_555
Si11 Si7 2.447361 1_555
Si11 Si4 2.453574 1_455
