# generated using pymatgen
data_Sr2Ca2Mn3FeO12
_symmetry_space_group_name_H-M   'P 1'
_cell_length_a   7.68507100
_cell_length_b   7.73595800
_cell_length_c   7.73773010
_cell_angle_alpha   89.99081814
_cell_angle_beta   90.00000000
_cell_angle_gamma   90.00000000
_symmetry_Int_Tables_number   1
_chemical_formula_structural   Sr2Ca2Mn3FeO12
_chemical_formula_sum   'Sr4 Ca4 Mn6 Fe2 O24'
_cell_volume   460.01877673
_cell_formula_units_Z   2
loop_
 _symmetry_equiv_pos_site_id
 _symmetry_equiv_pos_as_xyz
  1  'x, y, z'
loop_
 _atom_site_type_symbol
 _atom_site_label
 _atom_site_symmetry_multiplicity
 _atom_site_fract_x
 _atom_site_fract_y
 _atom_site_fract_z
 _atom_site_occupancy
  Sr  Sr0  1  0.50000000  0.74958400  0.25036300  1
  Sr  Sr1  1  0.00000000  0.74969200  0.25034100  1
  Sr  Sr2  1  0.00000000  0.25034000  0.25035800  1
  Sr  Sr3  1  0.50000000  0.25033200  0.74965900  1
  Ca  Ca0  1  0.50000000  0.74954000  0.74953500  1
  Ca  Ca1  1  0.00000000  0.74943600  0.74951500  1
  Ca  Ca2  1  0.50000000  0.25052100  0.25049300  1
  Ca  Ca3  1  0.00000000  0.25055100  0.74954500  1
  Mn  Mn0  1  0.25002400  0.00002900  0.50089700  1
  Mn  Mn1  1  0.74997600  0.00002900  0.50089700  1
  Mn  Mn2  1  0.25003400  0.49994900  0.99889000  1
  Mn  Mn3  1  0.74996600  0.49994900  0.99889000  1
  Mn  Mn4  1  0.25004100  0.49994900  0.50100100  1
  Mn  Mn5  1  0.74995900  0.49994900  0.50100100  1
  Fe  Fe0  1  0.25002700  0.00003300  0.99876000  1
  Fe  Fe1  1  0.74997300  0.00003300  0.99876000  1
  O  O0  1  0.25002100  0.74627600  0.99520500  1
  O  O1  1  0.74997900  0.74627600  0.99520500  1
  O  O2  1  0.25001200  0.74938800  0.50527100  1
  O  O3  1  0.74998800  0.74938800  0.50527100  1
  O  O4  1  0.24996300  0.25374400  0.99928400  1
  O  O5  1  0.75003700  0.25374400  0.99928400  1
  O  O6  1  0.24997600  0.25061800  0.50046700  1
  O  O7  1  0.75002400  0.25061800  0.50046700  1
  O  O8  1  0.25201000  0.00208800  0.25381000  1
  O  O9  1  0.74799000  0.00208800  0.25381000  1
  O  O10  1  0.24807300  0.99798700  0.74624000  1
  O  O11  1  0.75192700  0.99798700  0.74624000  1
  O  O12  1  0.25244400  0.49756300  0.25062900  1
  O  O13  1  0.74755600  0.49756300  0.25062900  1
  O  O14  1  0.24758900  0.50237600  0.74938000  1
  O  O15  1  0.75241100  0.50237600  0.74938000  1
  O  O16  1  0.50000000  0.99996300  0.99925600  1
  O  O17  1  0.00000000  0.00002000  0.99551600  1
  O  O18  1  0.50000000  0.99997300  0.50067300  1
  O  O19  1  0.00000000  0.00003000  0.50496100  1
  O  O20  1  0.50000000  0.50002300  0.99964200  1
  O  O21  1  0.00000000  0.49998100  0.99489700  1
  O  O22  1  0.50000000  0.50001800  0.50035600  1
  O  O23  1  0.00000000  0.49997600  0.50519800  1
loop_
_geom_bond_atom_site_label_1
_geom_bond_atom_site_label_2
_geom_bond_distance
_geom_bond_site_symmetry_2
Ca0 O2 2.695033 1_555
Ca0 O3 2.695033 1_555
Ca0 O0 2.702739 1_555
Ca0 O1 2.702739 1_555
Ca0 O14 2.723738 1_555
Ca0 O15 2.723738 1_555
Ca0 O10 2.728190 1_555
Ca0 O11 2.728190 1_555
Ca0 O22 2.728500 1_555
Ca0 O18 2.731323 1_555
Ca0 O20 2.733114 1_555
Ca0 O16 2.736396 1_555
Ca1 O3 2.695056 1_455
Ca1 O2 2.695056 1_555
Ca1 O15 2.696902 1_455
Ca1 O14 2.696902 1_555
Ca1 O23 2.701699 1_555
Ca1 O0 2.703070 1_555
Ca1 O1 2.703070 1_455
Ca1 O21 2.707012 1_555
Ca1 O11 2.707821 1_455
Ca1 O10 2.707821 1_555
Ca1 O19 2.708820 1_565
Ca1 O17 2.717032 1_565
Ca2 O12 2.696624 1_555
Ca2 O13 2.696624 1_555
Ca2 O8 2.706727 1_555
Ca2 O9 2.706727 1_555
Ca2 O7 2.726395 1_555
Ca2 O6 2.726395 1_555
Ca2 O22 2.732106 1_555
Ca2 O5 2.733364 1_554
Ca2 O4 2.733364 1_554
Ca2 O20 2.737111 1_554
Ca2 O18 2.739151 1_545
Ca2 O16 2.745431 1_544
Ca3 O23 2.701236 1_555
Ca3 O21 2.707145 1_555
Ca3 O19 2.709012 1_555
Ca3 O17 2.716142 1_555
Ca3 O7 2.721220 1_455
Ca3 O6 2.721220 1_555
Ca3 O15 2.723149 1_455
Ca3 O14 2.723149 1_555
Ca3 O4 2.724889 1_555
Ca3 O5 2.724889 1_455
Ca3 O10 2.729961 1_545
Ca3 O11 2.729961 1_445
Mn0 O10 1.898520 1_545
Mn0 O8 1.912017 1_555
Mn0 O18 1.921084 1_545
Mn0 O19 1.921709 1_555
Mn0 O6 1.938548 1_555
Mn0 O2 1.939238 1_545
Mn1 O11 1.898520 1_545
Mn1 O9 1.912017 1_555
Mn1 O18 1.921084 1_545
Mn1 O19 1.921709 1_655
Mn1 O7 1.938548 1_555
Mn1 O3 1.939238 1_545
Mn2 O4 1.904634 1_555
Mn2 O0 1.905784 1_555
Mn2 O20 1.921015 1_555
Mn2 O21 1.921777 1_555
Mn2 O14 1.930821 1_555
Mn2 O12 1.948061 1_556
Mn3 O5 1.904634 1_555
Mn3 O1 1.905784 1_555
Mn3 O20 1.921015 1_555
Mn3 O21 1.921777 1_655
Mn3 O15 1.930821 1_555
Mn3 O13 1.948061 1_556
Mn4 O22 1.920959 1_555
Mn4 O23 1.921857 1_555
Mn4 O14 1.922077 1_555
Mn4 O6 1.928819 1_555
Mn4 O2 1.929938 1_555
Mn4 O12 1.937490 1_555
Mn5 O22 1.920959 1_555
Mn5 O23 1.921857 1_655
Mn5 O15 1.922077 1_555
Mn5 O7 1.928819 1_555
Mn5 O3 1.929938 1_555
Mn5 O13 1.937490 1_555
Fe0 O16 1.921064 1_545
Fe0 O17 1.921639 1_555
Fe0 O10 1.954056 1_545
Fe0 O4 1.962703 1_555
Fe0 O0 1.963251 1_545
Fe0 O8 1.973633 1_556
Fe1 O16 1.921064 1_545
Fe1 O17 1.921639 1_655
Fe1 O11 1.954056 1_545
Fe1 O5 1.962703 1_555
Fe1 O1 1.963251 1_545
Fe1 O9 1.973633 1_556
O0 Sr0 2.754878 1_556
O0 Sr1 2.754989 1_556
O1 Sr0 2.754878 1_556
O1 Sr1 2.754989 1_656
O2 Sr0 2.753419 1_555
O2 Sr1 2.753670 1_555
O3 Sr0 2.753419 1_555
O3 Sr1 2.753670 1_655
O4 Sr3 2.724681 1_555
O4 Sr2 2.732234 1_556
O5 Sr3 2.724681 1_555
O5 Sr2 2.732234 1_656
O6 Sr3 2.722106 1_555
O6 Sr2 2.726877 1_555
O7 Sr3 2.722106 1_555
O7 Sr2 2.726877 1_655
O8 Sr2 2.727591 1_555
O8 Sr0 2.729194 1_545
O8 Sr1 2.750264 1_545
O9 Sr2 2.727591 1_655
O9 Sr0 2.729194 1_545
O9 Sr1 2.750264 1_645
O10 Sr3 2.749531 1_565
O11 Sr3 2.749531 1_565
O12 Sr0 2.724057 1_555
O12 Sr2 2.724240 1_555
O12 Sr1 2.751016 1_555
O13 Sr0 2.724057 1_555
O13 Sr2 2.724240 1_655
O13 Sr1 2.751016 1_655
O14 Sr3 2.750371 1_555
O15 Sr3 2.750371 1_555
O16 Sr3 2.734985 1_565
O16 Sr0 2.743301 1_556
O17 Sr1 2.763472 1_546
O17 Sr2 2.763965 1_556
O18 Sr3 2.732032 1_565
O18 Sr0 2.739431 1_555
O19 Sr2 2.762149 1_555
O19 Sr1 2.762838 1_545
O20 Sr3 2.733824 1_555
O20 Sr0 2.737158 1_556
O21 Sr2 2.763269 1_556
O21 Sr1 2.763996 1_556
O22 Sr3 2.729638 1_555
O22 Sr0 2.732757 1_555
O23 Sr2 2.760249 1_555
O23 Sr1 2.760334 1_555
