# generated using pymatgen
data_LiHo(SO4)2
_symmetry_space_group_name_H-M   'P 1'
_cell_length_a   7.55715800
_cell_length_b   7.55715800
_cell_length_c   5.86485300
_cell_angle_alpha   90.00000000
_cell_angle_beta   90.00000000
_cell_angle_gamma   90.00000000
_symmetry_Int_Tables_number   1
_chemical_formula_structural   LiHo(SO4)2
_chemical_formula_sum   'Li2 Ho2 S4 O16'
_cell_volume   334.94549096
_cell_formula_units_Z   2
loop_
 _symmetry_equiv_pos_site_id
 _symmetry_equiv_pos_as_xyz
  1  'x, y, z'
loop_
 _atom_site_type_symbol
 _atom_site_label
 _atom_site_symmetry_multiplicity
 _atom_site_fract_x
 _atom_site_fract_y
 _atom_site_fract_z
 _atom_site_occupancy
  Li  Li0  1  0.00000000  0.50000000  0.75000000  1
  Li  Li1  1  0.50000000  0.00000000  0.25000000  1
  Ho  Ho0  1  0.00000000  0.50000000  0.25000000  1
  Ho  Ho1  1  0.50000000  0.00000000  0.75000000  1
  S  S0  1  0.77711300  0.72288700  0.75000000  1
  S  S1  1  0.22288700  0.27711300  0.75000000  1
  S  S2  1  0.72288700  0.22288700  0.25000000  1
  S  S3  1  0.27711300  0.77711300  0.25000000  1
  O  O0  1  0.91277400  0.68314900  0.56642800  1
  O  O1  1  0.08722600  0.31685100  0.56642800  1
  O  O2  1  0.58722600  0.18314900  0.06642800  1
  O  O3  1  0.41277400  0.81685100  0.06642800  1
  O  O4  1  0.68314900  0.08722600  0.43357200  1
  O  O5  1  0.31685100  0.91277400  0.43357200  1
  O  O6  1  0.81685100  0.58722600  0.93357200  1
  O  O7  1  0.18314900  0.41277400  0.93357200  1
  O  O8  1  0.59642800  0.70858800  0.65509900  1
  O  O9  1  0.40357200  0.29141200  0.65509900  1
  O  O10  1  0.90357200  0.20858800  0.15509900  1
  O  O11  1  0.09642800  0.79141200  0.15509900  1
  O  O12  1  0.29141200  0.59642800  0.34490100  1
  O  O13  1  0.70858800  0.40357200  0.34490100  1
  O  O14  1  0.20858800  0.09642800  0.84490100  1
  O  O15  1  0.79141200  0.90357200  0.84490100  1
loop_
_geom_bond_atom_site_label_1
_geom_bond_atom_site_label_2
_geom_bond_distance
_geom_bond_site_symmetry_2
Li0 O7 1.873320 1_555
Li0 O6 1.873320 1_455
Li0 O1 1.873320 1_555
Li0 O0 1.873320 1_455
Li1 O2 1.873320 1_555
Li1 O4 1.873320 1_555
Li1 O5 1.873320 1_545
Li1 O3 1.873320 1_545
Ho0 O12 2.385520 1_555
Ho0 O13 2.385520 1_455
Ho0 O11 2.385520 1_555
Ho0 O10 2.385520 1_455
Ho0 O0 2.407119 1_455
Ho0 O1 2.407119 1_555
Ho0 O7 2.407119 1_554
Ho0 O6 2.407119 1_454
Ho1 O8 2.385520 1_545
Ho1 O9 2.385520 1_555
Ho1 O14 2.385520 1_555
Ho1 O15 2.385520 1_545
Ho1 O2 2.407119 1_556
Ho1 O3 2.407119 1_546
Ho1 O4 2.407119 1_555
Ho1 O5 2.407119 1_545
O0 S0 1.516694 1_555
O1 S1 1.516694 1_555
O2 S2 1.516694 1_555
O3 S3 1.516694 1_555
O4 S2 1.516694 1_555
O5 S3 1.516694 1_555
O6 S0 1.516694 1_555
O7 S1 1.516694 1_555
O8 S0 1.478497 1_555
O9 S1 1.478497 1_555
O10 S2 1.478497 1_555
O11 S3 1.478497 1_555
O12 S3 1.478497 1_555
O13 S2 1.478497 1_555
O14 S1 1.478497 1_555
O15 S0 1.478497 1_555
