# generated using pymatgen
data_LuZr3F15
_symmetry_space_group_name_H-M   'P 1'
_cell_length_a   8.01094535
_cell_length_b   8.01094535
_cell_length_c   8.01548900
_cell_angle_alpha   79.87170552
_cell_angle_beta   79.87170552
_cell_angle_gamma   100.07674584
_symmetry_Int_Tables_number   1
_chemical_formula_structural   LuZr3F15
_chemical_formula_sum   'Lu2 Zr6 F30'
_cell_volume   487.10788493
_cell_formula_units_Z   2
loop_
 _symmetry_equiv_pos_site_id
 _symmetry_equiv_pos_as_xyz
  1  'x, y, z'
loop_
 _atom_site_type_symbol
 _atom_site_label
 _atom_site_symmetry_multiplicity
 _atom_site_fract_x
 _atom_site_fract_y
 _atom_site_fract_z
 _atom_site_occupancy
  Lu  Lu0  1  0.67769085  0.32230915  0.75000000  1
  Lu  Lu1  1  0.32230915  0.67769085  0.25000000  1
  Zr  Zr0  1  0.25129919  0.74870081  0.75000000  1
  Zr  Zr1  1  0.74870081  0.25129919  0.25000000  1
  Zr  Zr2  1  0.82187974  0.74965959  0.32586146  1
  Zr  Zr3  1  0.25034041  0.17812026  0.17413854  1
  Zr  Zr4  1  0.17812026  0.25034041  0.67413854  1
  Zr  Zr5  1  0.74965959  0.82187974  0.82586146  1
  F  F0  1  0.14806203  0.18089662  0.94794271  1
  F  F1  1  0.68386414  0.55882969  0.85030935  1
  F  F2  1  0.04307006  0.65333214  0.31822023  1
  F  F3  1  0.65333214  0.04307006  0.81822023  1
  F  F4  1  0.55882969  0.68386414  0.35030935  1
  F  F5  1  0.18089662  0.14806203  0.44794271  1
  F  F6  1  0.85193797  0.81910338  0.05205729  1
  F  F7  1  0.31613586  0.44117031  0.14969065  1
  F  F8  1  0.95692994  0.34666786  0.68177977  1
  F  F9  1  0.34666786  0.95692994  0.18177977  1
  F  F10  1  0.44117031  0.31613586  0.64969065  1
  F  F11  1  0.81910338  0.85193797  0.55205729  1
  F  F12  1  0.96675380  0.03324620  0.75000000  1
  F  F13  1  0.54203956  0.75179216  0.03198015  1
  F  F14  1  0.24820784  0.45796044  0.46801985  1
  F  F15  1  0.45796044  0.24820784  0.96801985  1
  F  F16  1  0.75179216  0.54203956  0.53198015  1
  F  F17  1  0.03324620  0.96675380  0.25000000  1
  F  F18  1  0.21894158  0.72557138  0.00640615  1
  F  F19  1  0.22432752  0.48876223  0.78262154  1
  F  F20  1  0.99098316  0.72067435  0.77632418  1
  F  F21  1  0.72067435  0.99098316  0.27632418  1
  F  F22  1  0.48876223  0.22432752  0.28262154  1
  F  F23  1  0.72557138  0.21894158  0.50640615  1
  F  F24  1  0.78105842  0.27442862  0.99359385  1
  F  F25  1  0.77567248  0.51123777  0.21737846  1
  F  F26  1  0.00901684  0.27932565  0.22367582  1
  F  F27  1  0.27932565  0.00901684  0.72367582  1
  F  F28  1  0.51123777  0.77567248  0.71737846  1
  F  F29  1  0.27442862  0.78105842  0.49359385  1
loop_
_geom_bond_atom_site_label_1
_geom_bond_atom_site_label_2
_geom_bond_distance
_geom_bond_site_symmetry_2
F0 Zr3 2.115115 1_556
F0 Zr4 2.126479 1_555
F1 Zr5 2.046120 1_555
F1 Lu0 2.180824 1_555
F2 Zr2 2.048403 1_455
F2 Lu1 2.172701 1_555
F3 Zr5 2.048403 1_545
F3 Lu0 2.172701 1_555
F4 Zr2 2.046120 1_555
F4 Lu1 2.180824 1_555
F5 Zr4 2.115115 1_555
F5 Zr3 2.126479 1_555
F6 Zr5 2.115115 1_554
F6 Zr2 2.126479 1_555
F7 Zr3 2.046120 1_555
F7 Lu1 2.180824 1_555
F8 Zr4 2.048403 1_655
F8 Lu0 2.172701 1_555
F9 Zr3 2.048403 1_565
F9 Lu1 2.172701 1_555
F10 Zr4 2.046120 1_555
F10 Lu0 2.180824 1_555
F11 Zr2 2.115115 1_555
F11 Zr5 2.126479 1_555
F12 Zr5 2.120583 1_545
F12 Zr4 2.120583 1_655
F13 Zr5 2.047358 1_554
F13 Lu1 2.166185 1_555
F14 Zr4 2.047358 1_555
F14 Lu1 2.166185 1_555
F15 Zr3 2.047358 1_556
F15 Lu0 2.166185 1_555
F16 Zr2 2.047358 1_555
F16 Lu0 2.166185 1_555
F17 Zr2 2.120583 1_455
F17 Zr3 2.120583 1_565
F18 Zr0 1.996834 1_554
F18 Lu1 2.249794 1_555
F19 Zr0 2.020504 1_555
F19 Zr4 2.234074 1_555
F20 Zr0 2.026936 1_655
F20 Zr5 2.223528 1_555
F21 Zr1 2.026936 1_565
F21 Zr2 2.223528 1_555
F22 Zr1 2.020504 1_555
F22 Zr3 2.234074 1_555
F23 Zr1 1.996834 1_555
F23 Lu0 2.249794 1_555
F24 Zr1 1.996834 1_556
F24 Lu0 2.249794 1_555
F25 Zr1 2.020504 1_555
F25 Zr2 2.234074 1_555
F26 Zr1 2.026936 1_455
F26 Zr3 2.223528 1_555
F27 Zr0 2.026936 1_545
F27 Zr4 2.223528 1_555
F28 Zr0 2.020504 1_555
F28 Zr5 2.234074 1_555
F29 Zr0 1.996834 1_555
F29 Lu1 2.249794 1_555
