# generated using pymatgen
data_Ba6Mg(P2O7)3
_symmetry_space_group_name_H-M   'P 1'
_cell_length_a   7.27626099
_cell_length_b   9.52072788
_cell_length_c   9.91693475
_cell_angle_alpha   121.38532980
_cell_angle_beta   90.00000000
_cell_angle_gamma   90.00000000
_symmetry_Int_Tables_number   1
_chemical_formula_structural   Ba6Mg(P2O7)3
_chemical_formula_sum   'Ba6 Mg1 P6 O21'
_cell_volume   586.47986270
_cell_formula_units_Z   1
loop_
 _symmetry_equiv_pos_site_id
 _symmetry_equiv_pos_as_xyz
  1  'x, y, z'
loop_
 _atom_site_type_symbol
 _atom_site_label
 _atom_site_symmetry_multiplicity
 _atom_site_fract_x
 _atom_site_fract_y
 _atom_site_fract_z
 _atom_site_occupancy
  Ba  Ba0  1  0.50000000  0.39437331  0.37059020  1
  Ba  Ba1  1  0.50000000  0.99995037  0.66347476  1
  Ba  Ba2  1  0.50000000  0.60562248  0.97619773  1
  Ba  Ba3  1  -0.00000000  0.29833124  0.00328602  1
  Ba  Ba4  1  -0.00000000  0.70168198  0.70496098  1
  Ba  Ba5  1  -0.00000000  0.99995604  0.27052391  1
  Mg  Mg0  1  0.50000000  0.99995751  0.32120597  1
  P  P0  1  0.21976457  0.66602686  0.32702973  1
  P  P1  1  0.78023543  0.66602686  0.32702973  1
  P  P2  1  0.21972244  0.33402544  0.66103929  1
  P  P3  1  0.78027756  0.33402544  0.66103929  1
  P  P4  1  0.28045865  0.99998475  0.98773886  1
  P  P5  1  0.71954135  0.99998475  0.98773886  1
  O  O0  1  0.30271292  0.51539638  0.18256401  1
  O  O1  1  0.25497878  0.67031007  0.48197842  1
  O  O2  1  0.26638558  0.83063925  0.34191559  1
  O  O3  1  0.69728708  0.51539638  0.18256401  1
  O  O4  1  0.74502122  0.67031007  0.48197842  1
  O  O5  1  0.73361442  0.83063925  0.34191559  1
  O  O6  1  0.25498323  0.32992035  0.81184118  1
  O  O7  1  0.26608430  0.16925609  0.51144445  1
  O  O8  1  0.30278016  0.48449839  0.66700747  1
  O  O9  1  0.74501677  0.32992035  0.81184118  1
  O  O10  1  0.73391570  0.16925609  0.51144445  1
  O  O11  1  0.69721984  0.48449839  0.66700747  1
  O  O12  1  0.22509796  0.84120368  0.98152751  1
  O  O13  1  0.22500292  0.15870348  0.14034681  1
  O  O14  1  0.20731715  0.00002162  0.84090935  1
  O  O15  1  0.77490204  0.84120368  0.98152751  1
  O  O16  1  0.77499708  0.15870348  0.14034681  1
  O  O17  1  0.79268285  0.00002162  0.84090935  1
  O  O18  1  -0.00000000  0.36798235  0.65177287  1
  O  O19  1  -0.00000000  0.63232214  0.28387119  1
  O  O20  1  0.50000000  0.00004986  0.95332603  1
loop_
_geom_bond_atom_site_label_1
_geom_bond_atom_site_label_2
_geom_bond_distance
_geom_bond_site_symmetry_2
Ba0 O1 2.877118 1_555
Ba0 O4 2.877118 1_555
Ba0 O8 2.968051 1_555
Ba0 O11 2.968051 1_555
Ba0 O16 2.985884 1_555
Ba0 O13 2.985884 1_555
Ba0 O3 3.017126 1_555
Ba0 O0 3.017126 1_555
Ba1 O14 2.762305 1_565
Ba1 O17 2.762305 1_565
Ba1 O20 2.873943 1_565
Ba1 O10 3.209292 1_565
Ba1 O7 3.209292 1_565
Ba1 O5 3.209788 1_555
Ba1 O2 3.209788 1_555
Ba1 O4 3.222433 1_555
Ba1 O1 3.222433 1_555
Ba1 O9 3.224609 1_565
Ba1 O6 3.224609 1_565
Ba2 O6 2.875552 1_555
Ba2 O9 2.875552 1_555
Ba2 O3 2.969504 1_556
Ba2 O0 2.969504 1_556
Ba2 O15 2.985125 1_555
Ba2 O12 2.985125 1_555
Ba2 O11 3.017926 1_555
Ba2 O8 3.017926 1_555
Ba3 O6 2.780628 1_554
Ba3 O9 2.780628 1_454
Ba3 O17 2.858548 1_454
Ba3 O14 2.858548 1_554
Ba3 O13 2.859557 1_555
Ba3 O16 2.859557 1_455
Ba3 O0 2.907976 1_555
Ba3 O3 2.907976 1_455
Ba3 O19 2.939040 1_555
Ba4 O4 2.780870 1_455
Ba4 O1 2.780870 1_555
Ba4 O17 2.858750 1_465
Ba4 O14 2.858750 1_565
Ba4 O15 2.859152 1_455
Ba4 O12 2.859152 1_555
Ba4 O11 2.908658 1_455
Ba4 O8 2.908658 1_555
Ba4 O18 2.937087 1_555
Ba5 O7 2.836130 1_565
Ba5 O10 2.836130 1_465
Ba5 O2 2.836471 1_555
Ba5 O5 2.836471 1_455
Ba5 O16 2.943384 1_465
Ba5 O13 2.943384 1_565
Ba5 O15 2.944307 1_454
Ba5 O12 2.944307 1_554
Mg0 O5 2.423865 1_555
Mg0 O2 2.423865 1_555
Mg0 O10 2.426278 1_565
Mg0 O7 2.426278 1_565
O0 P0 1.527559 1_555
O1 P0 1.537282 1_555
O2 P0 1.533655 1_555
O3 P1 1.527559 1_555
O4 P1 1.537282 1_555
O5 P1 1.533655 1_555
O6 P2 1.537768 1_555
O7 P2 1.533468 1_555
O8 P2 1.527351 1_555
O9 P3 1.537768 1_555
O10 P3 1.533468 1_555
O11 P3 1.527351 1_555
O12 P4 1.534385 1_555
O13 P4 1.534490 1_544
O14 P4 1.550480 1_545
O15 P5 1.534385 1_555
O16 P5 1.534490 1_544
O17 P5 1.550480 1_545
O18 P3 1.643148 1_455
O18 P2 1.643148 1_555
O19 P0 1.643201 1_555
O19 P1 1.643201 1_455
O20 P5 1.633555 1_545
O20 P4 1.633555 1_545
