# generated using pymatgen
data_VCoAs
_symmetry_space_group_name_H-M   'P 1'
_cell_length_a   3.72938142
_cell_length_b   5.99658416
_cell_length_c   6.88111885
_cell_angle_alpha   89.99749475
_cell_angle_beta   90.00000152
_cell_angle_gamma   89.99999990
_symmetry_Int_Tables_number   1
_chemical_formula_structural   VCoAs
_chemical_formula_sum   'V4 Co4 As4'
_cell_volume   153.88624229
_cell_formula_units_Z   4
loop_
 _symmetry_equiv_pos_site_id
 _symmetry_equiv_pos_as_xyz
  1  'x, y, z'
loop_
 _atom_site_type_symbol
 _atom_site_label
 _atom_site_symmetry_multiplicity
 _atom_site_fract_x
 _atom_site_fract_y
 _atom_site_fract_z
 _atom_site_occupancy
  V  V0  1  0.25000002  0.52629321  0.17777619  1
  V  V1  1  0.74999998  0.47370679  0.82222381  1
  V  V2  1  0.74999997  0.97369742  0.67773969  1
  V  V3  1  0.25000003  0.02630258  0.32226031  1
  Co  Co0  1  0.25000002  0.64164828  0.55761222  1
  Co  Co1  1  0.74999998  0.35835172  0.44238778  1
  Co  Co2  1  0.74999998  0.85832564  0.05763589  1
  Co  Co3  1  0.25000002  0.14167436  0.94236411  1
  As  As0  1  0.24999993  0.75921481  0.87562624  1
  As  As1  1  0.75000007  0.24078519  0.12437376  1
  As  As2  1  0.75000005  0.74075660  0.37563142  1
  As  As3  1  0.24999995  0.25924340  0.62436858  1
loop_
_geom_bond_atom_site_label_1
_geom_bond_atom_site_label_2
_geom_bond_distance
_geom_bond_site_symmetry_2
Co0 V0 2.703714 1_555
Co0 V1 2.794013 1_555
Co0 V1 2.794014 1_455
Co0 V3 2.818308 1_565
Co0 V2 2.850477 1_555
Co0 V2 2.850478 1_455
Co1 V1 2.703714 1_555
Co1 V0 2.794013 1_555
Co1 V0 2.794014 1_655
Co1 V2 2.818308 1_545
Co1 V3 2.850477 1_555
Co1 V3 2.850478 1_655
Co2 V2 2.704081 1_554
Co2 V3 2.794205 1_565
Co2 V3 2.794205 1_665
Co2 V1 2.818488 1_554
Co2 V0 2.850383 1_555
Co2 V0 2.850383 1_655
Co3 V3 2.704081 1_556
Co3 V2 2.794205 1_545
Co3 V2 2.794205 1_445
Co3 V0 2.818488 1_556
Co3 V1 2.850383 1_555
Co3 V1 2.850383 1_455
As0 Co0 2.299082 1_555
As0 Co2 2.323562 1_456
As0 Co2 2.323562 1_556
As0 Co3 2.338996 1_565
As0 V0 2.504674 1_556
As0 V1 2.557998 1_455
As0 V1 2.557998 1_555
As0 V2 2.642973 1_455
As0 V2 2.642974 1_555
As1 Co1 2.299082 1_555
As1 Co3 2.323562 1_654
As1 Co3 2.323562 1_554
As1 Co2 2.338996 1_545
As1 V1 2.504674 1_554
As1 V0 2.557998 1_655
As1 V0 2.557998 1_555
As1 V3 2.642973 1_655
As1 V3 2.642974 1_555
As2 Co2 2.298907 1_555
As2 Co0 2.323423 1_655
As2 Co0 2.323423 1_555
As2 Co1 2.338660 1_555
As2 V2 2.504602 1_555
As2 V3 2.558098 1_665
As2 V3 2.558098 1_565
As2 V0 2.642864 1_655
As2 V0 2.642864 1_555
As3 Co3 2.298907 1_555
As3 Co1 2.323423 1_455
As3 Co1 2.323423 1_555
As3 Co0 2.338660 1_555
As3 V3 2.504602 1_555
As3 V2 2.558098 1_445
As3 V2 2.558098 1_545
As3 V1 2.642864 1_455
As3 V1 2.642864 1_555
