# generated using pymatgen
data_CaNdAlO4
_symmetry_space_group_name_H-M   'P 1'
_cell_length_a   6.64862043
_cell_length_b   6.64862043
_cell_length_c   6.64862043
_cell_angle_alpha   147.60804005
_cell_angle_beta   147.60804005
_cell_angle_gamma   46.46431546
_symmetry_Int_Tables_number   1
_chemical_formula_structural   CaNdAlO4
_chemical_formula_sum   'Ca1 Nd1 Al1 O4'
_cell_volume   84.04278703
_cell_formula_units_Z   1
loop_
 _symmetry_equiv_pos_site_id
 _symmetry_equiv_pos_as_xyz
  1  'x, y, z'
loop_
 _atom_site_type_symbol
 _atom_site_label
 _atom_site_symmetry_multiplicity
 _atom_site_fract_x
 _atom_site_fract_y
 _atom_site_fract_z
 _atom_site_occupancy
  Ca  Ca0  1  0.64281400  0.64281400  0.00000000  1
  Nd  Nd0  1  0.35769300  0.35769300  0.00000000  1
  Al  Al0  1  0.00899600  0.00899600  0.00000000  1
  O  O0  1  0.83138400  0.83138400  0.00000000  1
  O  O1  1  0.16563200  0.16563200  0.00000000  1
  O  O2  1  0.49674100  0.99674100  0.50000000  1
  O  O3  1  0.99674100  0.49674100  0.50000000  1
loop_
_geom_bond_atom_site_label_1
_geom_bond_atom_site_label_2
_geom_bond_distance
_geom_bond_site_symmetry_2
Ca0 O0 2.304141 1_555
Ca0 O3 2.573863 1_555
Ca0 O2 2.573863 1_555
Ca0 O2 2.573863 1_544
Ca0 O3 2.573863 1_454
Ca0 O1 2.637379 1_554
Ca0 O1 2.637379 1_666
Ca0 O1 2.637379 1_655
Ca0 O1 2.637379 1_565
Nd0 O1 2.346798 1_555
Nd0 O3 2.515098 1_454
Nd0 O2 2.515098 1_544
Nd0 O2 2.515098 1_555
Nd0 O3 2.515098 1_555
Nd0 O0 2.642229 1_455
Nd0 O0 2.642229 1_556
Nd0 O0 2.642229 1_545
Nd0 O0 2.642229 1_444
Al0 O3 1.860494 1_455
Al0 O2 1.860494 1_444
Al0 O2 1.860494 1_545
Al0 O3 1.860494 1_444
Al0 O1 1.913939 1_555
Al0 O0 2.170245 1_445
