# generated using pymatgen
data_TbNdFe17
_symmetry_space_group_name_H-M   'P 1'
_cell_length_a   6.37659171
_cell_length_b   6.37659235
_cell_length_c   6.37659171
_cell_angle_alpha   82.55556109
_cell_angle_beta   82.55555916
_cell_angle_gamma   82.55556109
_symmetry_Int_Tables_number   1
_chemical_formula_structural   TbNdFe17
_chemical_formula_sum   'Tb1 Nd1 Fe17'
_cell_volume   253.24305868
_cell_formula_units_Z   1
loop_
 _symmetry_equiv_pos_site_id
 _symmetry_equiv_pos_as_xyz
  1  'x, y, z'
loop_
 _atom_site_type_symbol
 _atom_site_label
 _atom_site_symmetry_multiplicity
 _atom_site_fract_x
 _atom_site_fract_y
 _atom_site_fract_z
 _atom_site_occupancy
  Tb  Tb0  1  0.34334400  0.34334400  0.34334400  1
  Nd  Nd0  1  0.65581400  0.65581400  0.65581400  1
  Fe  Fe0  1  0.33934500  0.33934500  0.84742200  1
  Fe  Fe1  1  0.33934500  0.84742200  0.33934500  1
  Fe  Fe2  1  0.84742200  0.33934500  0.33934500  1
  Fe  Fe3  1  0.65970200  0.65970200  0.15280000  1
  Fe  Fe4  1  0.65970200  0.15280000  0.65970200  1
  Fe  Fe5  1  0.15280000  0.65970200  0.65970200  1
  Fe  Fe6  1  0.70972700  0.00124900  0.28936800  1
  Fe  Fe7  1  0.00124900  0.28936800  0.70972700  1
  Fe  Fe8  1  0.28936800  0.70972700  0.00124900  1
  Fe  Fe9  1  0.00124900  0.70972700  0.28936800  1
  Fe  Fe10  1  0.70972700  0.28936800  0.00124900  1
  Fe  Fe11  1  0.28936800  0.00124900  0.70972700  1
  Fe  Fe12  1  0.00098000  0.49923200  0.00098000  1
  Fe  Fe13  1  0.49923200  0.00098000  0.00098000  1
  Fe  Fe14  1  0.00098000  0.00098000  0.49923200  1
  Fe  Fe15  1  0.91075900  0.91075900  0.91075900  1
  Fe  Fe16  1  0.08988500  0.08988500  0.08988500  1
loop_
_geom_bond_atom_site_label_1
_geom_bond_atom_site_label_2
_geom_bond_distance
_geom_bond_site_symmetry_2
Fe0 Fe12 2.407228 1_556
Fe0 Fe13 2.407229 1_556
Fe0 Fe4 2.475165 1_555
Fe0 Fe5 2.475165 1_555
Fe0 Fe7 2.502289 1_555
Fe0 Fe11 2.502289 1_555
Fe0 Fe16 2.613841 1_556
Fe0 Fe10 2.639311 1_556
Fe0 Fe8 2.639311 1_556
Fe0 Nd0 3.068361 1_555
Fe0 Tb0 3.169125 1_556
Fe0 Tb0 3.207914 1_555
Fe1 Fe14 2.407228 1_565
Fe1 Fe13 2.407228 1_565
Fe1 Fe3 2.475165 1_555
Fe1 Fe5 2.475165 1_555
Fe1 Fe9 2.502289 1_555
Fe1 Fe8 2.502289 1_555
Fe1 Fe16 2.613841 1_565
Fe1 Fe11 2.639311 1_565
Fe1 Fe6 2.639311 1_565
Fe1 Nd0 3.068361 1_555
Fe1 Tb0 3.169125 1_565
Fe1 Tb0 3.207914 1_555
Fe2 Fe4 2.475165 1_555
Fe2 Fe3 2.475165 1_555
Fe2 Fe6 2.502289 1_555
Fe2 Fe7 2.639311 1_655
Fe2 Fe9 2.639311 1_655
Fe2 Nd0 3.068361 1_555
Fe2 Tb0 3.169125 1_655
Fe2 Tb0 3.207914 1_555
Fe3 Fe9 2.519298 1_655
Fe3 Fe6 2.519298 1_565
Fe3 Fe8 2.632195 1_555
Fe3 Tb0 3.065844 1_555
Fe3 Nd0 3.175713 1_554
Fe3 Nd0 3.201301 1_555
Fe4 Fe7 2.519298 1_655
Fe4 Fe6 2.632195 1_555
Fe4 Tb0 3.065844 1_555
Fe4 Nd0 3.175714 1_545
Fe4 Nd0 3.201301 1_555
Fe5 Fe8 2.519298 1_556
Fe5 Fe9 2.632195 1_555
Fe5 Fe7 2.632195 1_555
Fe5 Tb0 3.065844 1_555
Fe5 Nd0 3.175713 1_455
Fe5 Nd0 3.201301 1_555
Fe6 Fe9 2.452693 1_645
Fe6 Tb0 3.000120 1_555
Fe6 Nd0 3.014042 1_545
Fe7 Tb0 3.000120 1_555
Fe7 Nd0 3.014042 1_455
Fe8 Fe9 2.424062 1_555
Fe8 Tb0 3.000120 1_555
Fe8 Nd0 3.014042 1_554
Fe9 Tb0 3.000120 1_555
Fe9 Nd0 3.014042 1_455
Fe10 Fe13 2.413360 1_555
Fe10 Fe6 2.424062 1_555
Fe10 Fe12 2.425413 1_655
Fe10 Fe7 2.452693 1_654
Fe10 Fe2 2.502289 1_555
Fe10 Fe4 2.519298 1_554
Fe10 Fe3 2.632195 1_555
Fe10 Fe15 2.678078 1_544
Fe10 Fe16 2.680207 1_655
Fe10 Tb0 3.000120 1_555
Fe10 Nd0 3.014042 1_554
Fe11 Fe14 2.413360 1_555
Fe11 Fe7 2.424062 1_555
Fe11 Fe13 2.425413 1_556
Fe11 Fe8 2.452693 1_546
Fe11 Fe5 2.519298 1_545
Fe11 Fe4 2.632195 1_555
Fe11 Fe15 2.678078 1_445
Fe11 Fe16 2.680207 1_556
Fe11 Tb0 3.000120 1_555
Fe11 Nd0 3.014042 1_545
Fe12 Fe2 2.407228 1_455
Fe12 Fe9 2.413360 1_555
Fe12 Fe8 2.413360 1_555
Fe12 Fe3 2.419463 1_455
Fe12 Fe5 2.419463 1_554
Fe12 Fe7 2.425413 1_554
Fe12 Fe16 2.602403 1_555
Fe12 Fe15 2.617522 1_454
Fe12 Tb0 3.260434 1_555
Fe12 Nd0 3.286633 1_454
Fe13 Fe6 2.413360 1_555
Fe13 Fe4 2.419463 1_554
Fe13 Fe3 2.419463 1_545
Fe13 Fe8 2.425413 1_545
Fe13 Fe16 2.602402 1_555
Fe13 Fe15 2.617521 1_544
Fe13 Tb0 3.260434 1_555
Fe13 Nd0 3.286633 1_544
Fe14 Fe2 2.407229 1_455
Fe14 Fe7 2.413360 1_555
Fe14 Fe4 2.419463 1_455
Fe14 Fe5 2.419463 1_545
Fe14 Fe6 2.425413 1_455
Fe14 Fe9 2.425413 1_545
Fe14 Fe16 2.602402 1_555
Fe14 Fe15 2.617521 1_445
Fe14 Tb0 3.260434 1_555
Fe14 Nd0 3.286633 1_445
Fe15 Fe16 2.219949 1_666
Fe15 Fe5 2.625138 1_655
Fe15 Fe3 2.625138 1_556
Fe15 Fe4 2.625138 1_565
Fe15 Fe6 2.678078 1_566
Fe15 Fe8 2.678078 1_656
Fe15 Fe9 2.678078 1_656
Fe15 Fe7 2.678078 1_665
Fe15 Nd0 3.159592 1_555
Fe16 Fe2 2.613841 1_455
Fe16 Fe6 2.680207 1_455
Fe16 Fe7 2.680207 1_554
Fe16 Fe9 2.680207 1_545
Fe16 Fe8 2.680207 1_545
Fe16 Tb0 3.141175 1_555
