# generated using pymatgen
data_Cr5NiS8
_symmetry_space_group_name_H-M   'P 1'
_cell_length_a   6.40990500
_cell_length_b   6.60498206
_cell_length_c   6.74819326
_cell_angle_alpha   105.60975433
_cell_angle_beta   105.39917214
_cell_angle_gamma   116.12688275
_symmetry_Int_Tables_number   1
_chemical_formula_structural   Cr5NiS8
_chemical_formula_sum   'Cr5 Ni1 S8'
_cell_volume   221.34561709
_cell_formula_units_Z   1
loop_
 _symmetry_equiv_pos_site_id
 _symmetry_equiv_pos_as_xyz
  1  'x, y, z'
loop_
 _atom_site_type_symbol
 _atom_site_label
 _atom_site_symmetry_multiplicity
 _atom_site_fract_x
 _atom_site_fract_y
 _atom_site_fract_z
 _atom_site_occupancy
  Cr  Cr0  1  0.23578700  0.72010300  0.47738800  1
  Cr  Cr1  1  0.23290700  0.70836300  0.97670500  1
  Cr  Cr2  1  0.76709300  0.29163700  0.02329500  1
  Cr  Cr3  1  0.76421300  0.27989700  0.52261200  1
  Cr  Cr4  1  0.00000000  0.00000000  0.50000000  1
  Ni  Ni0  1  0.00000000  0.00000000  0.00000000  1
  S  S0  1  0.20808200  0.44471000  0.15568900  1
  S  S1  1  0.21485300  0.44863700  0.65473300  1
  S  S2  1  0.78514700  0.55136300  0.34526700  1
  S  S3  1  0.79191800  0.55529000  0.84431100  1
  S  S4  1  0.70644700  0.97770000  0.67264700  1
  S  S5  1  0.70705700  0.97582000  0.17148900  1
  S  S6  1  0.29294300  0.02418000  0.82851100  1
  S  S7  1  0.29355300  0.02230000  0.32735300  1
loop_
_geom_bond_atom_site_label_1
_geom_bond_atom_site_label_2
_geom_bond_distance
_geom_bond_site_symmetry_2
Cr0 S0 2.332078 1_555
Cr0 S2 2.375495 1_455
Cr0 S1 2.386081 1_555
Cr0 S7 2.404576 1_565
Cr0 S4 2.427803 1_555
Cr0 S6 2.472272 1_565
Cr1 S1 2.315762 1_555
Cr1 S3 2.338005 1_455
Cr1 S0 2.346628 1_556
Cr1 S5 2.446562 1_556
Cr1 S6 2.473757 1_565
Cr1 S7 2.492159 1_566
Cr2 S2 2.315762 1_555
Cr2 S0 2.338005 1_655
Cr2 S3 2.346628 1_554
Cr2 S6 2.446562 1_554
Cr2 S5 2.473757 1_545
Cr2 S4 2.492159 1_544
Cr3 S3 2.332078 1_555
Cr3 S1 2.375495 1_655
Cr3 S2 2.386081 1_555
Cr3 S4 2.404576 1_545
Cr3 S7 2.427803 1_555
Cr3 S5 2.472272 1_545
Cr4 S1 2.396809 1_555
Cr4 S2 2.396809 1_445
Cr4 S5 2.408415 1_445
Cr4 S6 2.408415 1_555
Cr4 S4 2.435602 1_445
Cr4 S7 2.435602 1_555
Ni0 S0 2.378048 1_555
Ni0 S3 2.378048 1_444
Ni0 S4 2.411521 1_444
Ni0 S7 2.411521 1_555
Ni0 S6 2.424870 1_554
Ni0 S5 2.424870 1_445
