# generated using pymatgen
data_KAl3(SiO4)3
_symmetry_space_group_name_H-M   'P 1'
_cell_length_a   5.31785372
_cell_length_b   5.31785372
_cell_length_c   20.64132764
_cell_angle_alpha   87.43271573
_cell_angle_beta   87.43271573
_cell_angle_gamma   120.25621565
_symmetry_Int_Tables_number   1
_chemical_formula_structural   KAl3(SiO4)3
_chemical_formula_sum   'K2 Al6 Si6 O24'
_cell_volume   502.16972986
_cell_formula_units_Z   2
loop_
 _symmetry_equiv_pos_site_id
 _symmetry_equiv_pos_as_xyz
  1  'x, y, z'
loop_
 _atom_site_type_symbol
 _atom_site_label
 _atom_site_symmetry_multiplicity
 _atom_site_fract_x
 _atom_site_fract_y
 _atom_site_fract_z
 _atom_site_occupancy
  K  K0  1  0.10867000  0.90752700  0.73867200  1
  K  K1  1  0.90752700  0.10867000  0.23867200  1
  Al  Al0  1  0.81343700  0.63156600  0.50290900  1
  Al  Al1  1  0.37344000  0.17876700  0.00270000  1
  Al  Al2  1  0.17876700  0.37344000  0.50270000  1
  Al  Al3  1  0.63156600  0.81343700  0.00290900  1
  Al  Al4  1  0.80290400  0.28530700  0.63480000  1
  Al  Al5  1  0.28530700  0.80290400  0.13480000  1
  Si  Si0  1  0.70817100  0.18934800  0.86732100  1
  Si  Si1  1  0.18934800  0.70817100  0.36732100  1
  Si  Si2  1  0.39754900  0.53211100  0.86796200  1
  Si  Si3  1  0.45974700  0.59657200  0.63695600  1
  Si  Si4  1  0.59657200  0.45974700  0.13695600  1
  Si  Si5  1  0.53211100  0.39754900  0.36796200  1
  O  O0  1  0.01329300  0.93865400  0.96496500  1
  O  O1  1  0.08245600  0.99442800  0.52897800  1
  O  O2  1  0.99442800  0.08245600  0.02897800  1
  O  O3  1  0.93865400  0.01329300  0.46496500  1
  O  O4  1  0.06073800  0.39719000  0.84663700  1
  O  O5  1  0.53797800  0.92071300  0.65514600  1
  O  O6  1  0.92071300  0.53797800  0.15514600  1
  O  O7  1  0.39719000  0.06073800  0.34663700  1
  O  O8  1  0.88828200  0.38852100  0.55099900  1
  O  O9  1  0.62284800  0.12557600  0.94454000  1
  O  O10  1  0.12557600  0.62284800  0.44454000  1
  O  O11  1  0.38852100  0.88828200  0.05099900  1
  O  O12  1  0.13019600  0.36216000  0.66816500  1
  O  O13  1  0.58738900  0.87270800  0.83470700  1
  O  O14  1  0.87270800  0.58738900  0.33470700  1
  O  O15  1  0.36216000  0.13019600  0.16816500  1
  O  O16  1  0.43034000  0.52369200  0.94557100  1
  O  O17  1  0.48134400  0.57358000  0.55605600  1
  O  O18  1  0.57358000  0.48134400  0.05605600  1
  O  O19  1  0.52369200  0.43034000  0.44557100  1
  O  O20  1  0.68443000  0.50975900  0.66835800  1
  O  O21  1  0.53955600  0.34905200  0.83455800  1
  O  O22  1  0.34905200  0.53955600  0.33455800  1
  O  O23  1  0.50975900  0.68443000  0.16835800  1
loop_
_geom_bond_atom_site_label_1
_geom_bond_atom_site_label_2
_geom_bond_distance
_geom_bond_site_symmetry_2
K0 O12 2.714272 1_565
K0 O20 2.725786 1_455
K0 O5 2.768520 1_555
K1 O15 2.714272 1_655
K1 O23 2.725786 1_545
K1 O6 2.768520 1_555
Al0 O8 1.803639 1_555
Al0 O1 1.854665 1_655
Al0 O19 1.880220 1_555
Al0 O3 1.904275 1_565
Al0 O17 1.914350 1_555
Al0 O10 2.027910 1_655
Al1 O11 1.838659 1_545
Al1 O2 1.858975 1_455
Al1 O18 1.863534 1_555
Al1 O9 1.883127 1_554
Al1 O0 1.914018 1_544
Al1 O16 2.015335 1_554
Al2 O8 1.838659 1_455
Al2 O1 1.858975 1_545
Al2 O17 1.863534 1_555
Al2 O10 1.883127 1_555
Al2 O3 1.914018 1_455
Al2 O19 2.015335 1_555
Al3 O11 1.803639 1_555
Al3 O2 1.854665 1_565
Al3 O16 1.880220 1_554
Al3 O0 1.904275 1_654
Al3 O18 1.914350 1_555
Al3 O9 2.027910 1_564
Al4 O5 1.744062 1_545
Al4 O12 1.756819 1_655
Al4 O8 1.758677 1_555
Al4 O20 1.759040 1_555
Al5 O6 1.744062 1_455
Al5 O15 1.756819 1_565
Al5 O11 1.758677 1_555
Al5 O23 1.759040 1_555
O0 O2 1.580089 1_466
O1 O3 1.580089 1_465
O4 Si0 1.648293 1_455
O4 Si2 1.649395 1_555
O5 Si3 1.623153 1_555
O6 Si4 1.623153 1_555
O7 Si1 1.648293 1_545
O7 Si5 1.649395 1_555
O9 Si0 1.610320 1_555
O10 Si1 1.610320 1_555
O12 Si3 1.632666 1_555
O13 Si0 1.658753 1_565
O13 Si2 1.659769 1_555
O14 Si1 1.658753 1_655
O14 Si5 1.659769 1_555
O15 Si4 1.632666 1_555
O16 Si2 1.620226 1_555
O17 Si3 1.682828 1_555
O18 Si4 1.682828 1_555
O19 Si5 1.620226 1_555
O20 Si3 1.630746 1_555
O21 Si2 1.657613 1_555
O21 Si0 1.659195 1_555
O22 Si5 1.657613 1_555
O22 Si1 1.659195 1_555
O23 Si4 1.630746 1_555
