# generated using pymatgen
data_Sm2Fe5Co12C
_symmetry_space_group_name_H-M   'P 1'
_cell_length_a   6.41385272
_cell_length_b   6.35959156
_cell_length_c   6.41385272
_cell_angle_alpha   83.83536191
_cell_angle_beta   83.64431890
_cell_angle_gamma   83.83536191
_symmetry_Int_Tables_number   1
_chemical_formula_structural   Sm2Fe5Co12C
_chemical_formula_sum   'Sm2 Fe5 Co12 C1'
_cell_volume   257.29611791
_cell_formula_units_Z   1
loop_
 _symmetry_equiv_pos_site_id
 _symmetry_equiv_pos_as_xyz
  1  'x, y, z'
loop_
 _atom_site_type_symbol
 _atom_site_label
 _atom_site_symmetry_multiplicity
 _atom_site_fract_x
 _atom_site_fract_y
 _atom_site_fract_z
 _atom_site_occupancy
  Sm  Sm0  1  0.65745700  0.64199100  0.65745700  1
  Sm  Sm1  1  0.34254300  0.35800900  0.34254300  1
  Fe  Fe0  1  0.90418000  0.90273600  0.90418000  1
  Fe  Fe1  1  0.09582000  0.09726400  0.09582000  1
  Fe  Fe2  1  0.00000000  0.50000000  0.00000000  1
  Fe  Fe3  1  0.50000000  0.00000000  0.00000000  1
  Fe  Fe4  1  0.00000000  0.00000000  0.50000000  1
  Co  Co0  1  0.34647100  0.85563600  0.34647100  1
  Co  Co1  1  0.85437600  0.34790300  0.34137900  1
  Co  Co2  1  0.34137900  0.34790300  0.85437600  1
  Co  Co3  1  0.65352900  0.14436400  0.65352900  1
  Co  Co4  1  0.14562400  0.65209700  0.65862100  1
  Co  Co5  1  0.65862100  0.65209700  0.14562400  1
  Co  Co6  1  0.71764000  0.00000000  0.28236000  1
  Co  Co7  1  0.99983200  0.28269600  0.71796100  1
  Co  Co8  1  0.28203900  0.71730400  0.00016800  1
  Co  Co9  1  0.00016800  0.71730400  0.28203900  1
  Co  Co10  1  0.71796100  0.28269600  0.99983200  1
  Co  Co11  1  0.28236000  0.00000000  0.71764000  1
  C  C0  1  0.50000000  0.00000000  0.50000000  1
loop_
_geom_bond_atom_site_label_1
_geom_bond_atom_site_label_2
_geom_bond_distance
_geom_bond_site_symmetry_2
Fe0 Fe1 2.353666 1_666
Fe0 Fe2 2.592842 1_656
Fe0 Fe3 2.620138 1_566
Fe0 Fe4 2.620138 1_665
Fe0 Sm0 3.072387 1_555
Fe1 Fe2 2.592842 1_555
Fe1 Fe3 2.620138 1_555
Fe1 Fe4 2.620138 1_555
Fe1 Sm1 3.072387 1_555
Fe2 Sm0 3.268901 1_454
Fe2 Sm1 3.268901 1_555
Fe3 Sm1 3.334641 1_555
Fe3 Sm0 3.334641 1_544
Fe4 Sm1 3.334641 1_555
Fe4 Sm0 3.334641 1_445
Co0 Fe4 2.454038 1_565
Co0 Fe3 2.454038 1_565
Co0 Co4 2.563956 1_555
Co0 Co5 2.563956 1_555
Co0 Co8 2.564982 1_555
Co0 Co9 2.564982 1_555
Co0 Fe1 2.653561 1_565
Co1 Fe2 2.426631 1_655
Co1 Fe4 2.466938 1_655
Co1 Co5 2.490171 1_555
Co1 Co10 2.536484 1_554
Co1 Co6 2.545151 1_555
Co1 Co3 2.563956 1_555
Co1 Co9 2.595986 1_655
Co1 Fe1 2.624583 1_655
Co1 Co7 2.660243 1_555
Co1 Sm0 2.990501 1_555
Co1 Sm1 3.139433 1_655
Co1 Sm1 3.275739 1_555
Co2 Fe2 2.426631 1_556
Co2 Fe3 2.466938 1_556
Co2 Co4 2.490171 1_555
Co2 Co7 2.536484 1_455
Co2 Co3 2.563956 1_555
Co2 Co8 2.595986 1_556
Co2 Fe1 2.624583 1_556
Co2 Sm0 2.990501 1_555
Co2 Sm1 3.139433 1_556
Co2 Sm1 3.275739 1_555
Co3 Fe3 2.454038 1_556
Co3 Fe4 2.454038 1_655
Co3 Co7 2.564982 1_555
Co3 Fe0 2.653561 1_545
Co4 Fe2 2.426631 1_556
Co4 Fe4 2.466938 1_565
Co4 Co8 2.536484 1_556
Co4 Co7 2.595986 1_455
Co4 Fe0 2.624583 1_455
Co4 Co9 2.660243 1_555
Co4 Sm1 2.990501 1_555
Co4 Sm0 3.139433 1_455
Co4 Sm0 3.275739 1_555
Co5 Fe2 2.426631 1_655
Co5 Fe3 2.466938 1_565
Co5 Co9 2.536484 1_655
Co5 Co6 2.545151 1_565
Co5 Fe0 2.624583 1_554
Co5 Co8 2.660243 1_555
Co5 Sm1 2.990501 1_555
Co5 Sm0 3.139433 1_554
Co5 Sm0 3.275739 1_555
Co6 Fe4 2.405836 1_655
Co6 Fe3 2.405836 1_555
Co6 Co9 2.411672 1_645
Co6 Fe1 2.686698 1_655
Co6 Fe0 2.686698 1_544
Co7 Fe2 2.391613 1_656
Co7 Fe4 2.392813 1_655
Co7 Fe0 2.679212 1_545
Co7 Fe1 2.683992 1_656
Co7 Sm0 3.019010 1_555
Co7 Sm1 3.108940 1_655
Co8 Fe2 2.391613 1_555
Co8 Fe3 2.392813 1_565
Co8 Co9 2.411063 1_555
Co8 Fe1 2.679212 1_565
Co8 Fe0 2.683992 1_454
Co8 Sm1 3.019010 1_555
Co8 Sm0 3.108940 1_554
Co9 Fe2 2.391613 1_555
Co9 Fe4 2.392813 1_565
Co9 Fe1 2.679212 1_565
Co9 Fe0 2.683992 1_454
Co9 Sm1 3.019010 1_555
Co9 Sm0 3.108940 1_455
Co10 Fe2 2.391613 1_656
Co10 Fe3 2.392813 1_556
Co10 Co7 2.411063 1_555
Co10 Co6 2.411672 1_556
Co10 Co3 2.564982 1_555
Co10 Co5 2.595986 1_556
Co10 Co2 2.660243 1_555
Co10 Fe0 2.679212 1_545
Co10 Fe1 2.683992 1_656
Co10 Sm0 3.019010 1_555
Co10 Sm1 3.108940 1_556
Co11 Fe3 2.405836 1_556
Co11 Fe4 2.405836 1_555
Co11 Co8 2.411672 1_546
Co11 Co7 2.411672 1_455
Co11 Co2 2.545151 1_555
Co11 Co4 2.545151 1_545
Co11 Fe1 2.686698 1_556
Co11 Fe0 2.686698 1_445
C0 Co3 1.839900 1_555
C0 Co0 1.839900 1_545
C0 Co11 1.861645 1_555
C0 Co6 1.861645 1_555
C0 Sm1 2.541995 1_555
C0 Sm0 2.541995 1_545
