# generated using pymatgen
data_Ba2Cu4As5H3O20
_symmetry_space_group_name_H-M   'P 1'
_cell_length_a   7.93318903
_cell_length_b   7.93538869
_cell_length_c   13.92392478
_cell_angle_alpha   89.40717062
_cell_angle_beta   89.75641287
_cell_angle_gamma   90.00404612
_symmetry_Int_Tables_number   1
_chemical_formula_structural   Ba2Cu4As5H3O20
_chemical_formula_sum   'Ba4 Cu8 As10 H6 O40'
_cell_volume   876.49713280
_cell_formula_units_Z   2
loop_
 _symmetry_equiv_pos_site_id
 _symmetry_equiv_pos_as_xyz
  1  'x, y, z'
loop_
 _atom_site_type_symbol
 _atom_site_label
 _atom_site_symmetry_multiplicity
 _atom_site_fract_x
 _atom_site_fract_y
 _atom_site_fract_z
 _atom_site_occupancy
  Ba  Ba0  1  0.23993600  0.75313200  0.32230400  1
  Ba  Ba1  1  0.25127000  0.75830900  0.82261900  1
  Ba  Ba2  1  0.74321300  0.24281200  0.67256900  1
  Ba  Ba3  1  0.75513500  0.24427200  0.17245000  1
  Cu  Cu0  1  0.42609100  0.18008600  0.44600300  1
  Cu  Cu1  1  0.07602800  0.31409900  0.44695400  1
  Cu  Cu2  1  0.68632200  0.57459800  0.94736400  1
  Cu  Cu3  1  0.82039500  0.92485900  0.94564800  1
  Cu  Cu4  1  0.56864200  0.82275100  0.55484900  1
  Cu  Cu5  1  0.92634600  0.68029700  0.55385200  1
  Cu  Cu6  1  0.32038600  0.42680600  0.05317600  1
  Cu  Cu7  1  0.17842400  0.06973600  0.05545800  1
  As  As0  1  0.25147500  0.25190100  0.25024900  1
  As  As1  1  0.75178800  0.74689600  0.75017900  1
  As  As2  1  0.98858800  0.67833700  0.10148700  1
  As  As3  1  0.50794600  0.82730300  0.09095800  1
  As  As4  1  0.17843400  0.01132300  0.60217800  1
  As  As5  1  0.32765900  0.49208500  0.59027100  1
  As  As6  1  0.01201900  0.32495400  0.90671100  1
  As  As7  1  0.49447900  0.17521600  0.90869500  1
  As  As8  1  0.82388400  0.99229700  0.40835800  1
  As  As9  1  0.67421300  0.50973700  0.40707200  1
  H  H0  1  0.63875400  0.64454000  0.20426900  1
  H  H1  1  0.14441600  0.36112400  0.70380800  1
  H  H2  1  0.13976300  0.14156700  0.78157100  1
  H  H3  1  0.36442500  0.34907200  0.79062400  1
  H  H4  1  0.65229000  0.86420300  0.29077200  1
  H  H5  1  0.85881500  0.63998800  0.28079900  1
  O  O0  1  0.95529000  0.76884900  0.21092600  1
  O  O1  1  0.54196100  0.72356300  0.20435100  1
  O  O2  1  0.26843800  0.04436300  0.71179900  1
  O  O3  1  0.22348400  0.45775700  0.70353400  1
  O  O4  1  0.03893600  0.21994100  0.79501900  1
  O  O5  1  0.47415700  0.29311100  0.80075300  1
  O  O6  1  0.70574900  0.97476200  0.30130600  1
  O  O7  1  0.77909600  0.53975400  0.29455600  1
  O  O8  1  0.81619100  0.55127800  0.07180200  1
  O  O9  1  0.67753400  0.95516600  0.06652500  1
  O  O10  1  0.05074300  0.18372000  0.57175600  1
  O  O11  1  0.45492600  0.32268300  0.56644200  1
  O  O12  1  0.18827600  0.44617600  0.92671000  1
  O  O13  1  0.31885200  0.05186000  0.93052000  1
  O  O14  1  0.94344600  0.81446400  0.42804700  1
  O  O15  1  0.54934000  0.68349200  0.42926000  1
  O  O16  1  0.16909900  0.56385400  0.12454300  1
  O  O17  1  0.33170900  0.93083800  0.12864000  1
  O  O18  1  0.06490700  0.82955500  0.62515300  1
  O  O19  1  0.43198600  0.66700400  0.62794700  1
  O  O20  1  0.83520000  0.43219600  0.87350900  1
  O  O21  1  0.66903900  0.06711400  0.87207800  1
  O  O22  1  0.93286900  0.16749100  0.37326700  1
  O  O23  1  0.56751400  0.33361400  0.37235800  1
  O  O24  1  0.01960700  0.82315000  0.00806100  1
  O  O25  1  0.48002300  0.67727300  0.00476500  1
  O  O26  1  0.32278600  0.98127900  0.50915000  1
  O  O27  1  0.17675400  0.52074100  0.50383100  1
  O  O28  1  0.97915200  0.17721900  0.99619700  1
  O  O29  1  0.52476500  0.31842100  0.99872500  1
  O  O30  1  0.67930000  0.02376700  0.49895900  1
  O  O31  1  0.82096900  0.47807700  0.49577900  1
  O  O32  1  0.16637100  0.40526100  0.32382200  1
  O  O33  1  0.33165500  0.09425900  0.32425500  1
  O  O34  1  0.90653200  0.83161600  0.82318300  1
  O  O35  1  0.59557500  0.66610900  0.82481000  1
  O  O36  1  0.83331600  0.59105400  0.67722100  1
  O  O37  1  0.66714400  0.90267000  0.67695400  1
  O  O38  1  0.09672900  0.16850900  0.17708600  1
  O  O39  1  0.40844200  0.33469300  0.17715700  1
loop_
_geom_bond_atom_site_label_1
_geom_bond_atom_site_label_2
_geom_bond_distance
_geom_bond_site_symmetry_2
Ba0 O0 2.746935 1_455
Ba0 O33 2.803445 1_565
Ba0 O14 2.814725 1_455
Ba0 O32 2.821315 1_555
Ba0 O1 2.909973 1_555
Ba0 O15 2.926150 1_555
Ba0 O17 3.113608 1_555
Ba0 O27 3.151703 1_555
Ba0 O16 3.201996 1_555
Ba0 O26 3.254226 1_555
Ba1 O2 2.734577 1_565
Ba1 O34 2.796090 1_455
Ba1 O35 2.827986 1_555
Ba1 O13 2.837263 1_565
Ba1 O12 2.899098 1_555
Ba1 O3 2.927638 1_555
Ba1 O19 3.152049 1_555
Ba1 O18 3.172969 1_555
Ba1 O25 3.185058 1_556
Ba1 O24 3.208858 1_556
Ba2 O37 2.765757 1_545
Ba2 O11 2.797394 1_555
Ba2 O5 2.807731 1_555
Ba2 O10 2.850800 1_655
Ba2 O36 2.855790 1_555
Ba2 O4 2.910570 1_655
Ba2 O30 3.036312 1_555
Ba2 O31 3.133249 1_555
Ba2 O21 3.148488 1_555
Ba2 O20 3.274654 1_555
Ba3 O38 2.776734 1_655
Ba3 O6 2.803744 1_545
Ba3 O9 2.809813 1_545
Ba3 O8 2.838506 1_555
Ba3 O39 2.843142 1_555
Ba3 O7 2.917173 1_555
Ba3 O28 3.074784 1_554
Ba3 O29 3.089620 1_554
Ba3 O22 3.190020 1_555
Ba3 O23 3.236003 1_555
Cu0 O23 1.938731 1_555
Cu0 O26 1.974480 1_545
Cu0 O33 1.983301 1_555
Cu0 O11 2.046345 1_555
Cu0 O30 2.472151 1_555
Cu1 O22 1.931433 1_455
Cu1 O32 1.985005 1_555
Cu1 O27 1.996666 1_555
Cu1 O10 2.022417 1_555
Cu1 O31 2.501325 1_455
Cu2 O20 1.934759 1_555
Cu2 O35 1.985546 1_555
Cu2 O25 1.995913 1_556
Cu2 O8 2.026428 1_556
Cu2 O29 2.499677 1_555
Cu3 O21 1.937046 1_565
Cu3 O24 1.975246 1_656
Cu3 O34 1.984539 1_555
Cu3 O9 2.041389 1_556
Cu3 O28 2.475532 1_565
Cu4 O19 1.924352 1_555
Cu4 O30 1.972066 1_565
Cu4 O37 1.984185 1_555
Cu4 O15 2.084419 1_555
Cu4 O26 2.405387 1_555
Cu5 O18 1.905313 1_655
Cu5 O31 1.990012 1_555
Cu5 O36 1.990211 1_555
Cu5 O14 2.044440 1_555
Cu5 O27 2.457918 1_655
Cu6 O16 1.903427 1_555
Cu6 O29 1.986620 1_554
Cu6 O39 1.996652 1_555
Cu6 O12 2.057410 1_554
Cu6 O25 2.444023 1_555
Cu7 O17 1.928580 1_545
Cu7 O28 1.975900 1_454
Cu7 O38 1.980067 1_555
Cu7 O13 2.067889 1_554
Cu7 O24 2.425961 1_545
As0 O39 1.730121 1_555
As0 O32 1.733875 1_555
As0 O38 1.734138 1_555
As0 O33 1.735029 1_555
As1 O37 1.731565 1_555
As1 O36 1.732098 1_555
As1 O35 1.732559 1_555
As1 O34 1.736927 1_555
As2 O0 1.710831 1_555
As2 O16 1.725437 1_655
As2 O24 1.743453 1_655
As2 O8 1.752473 1_555
As3 O17 1.705254 1_555
As3 O25 1.714237 1_555
As3 O9 1.715821 1_555
As3 O1 1.794467 1_555
As4 O2 1.710510 1_555
As4 O18 1.726792 1_545
As4 O26 1.743535 1_545
As4 O10 1.751848 1_555
As5 O19 1.704547 1_555
As5 O27 1.714683 1_555
As5 O11 1.715541 1_555
As5 O3 1.795645 1_555
As6 O20 1.703864 1_455
As6 O28 1.720996 1_455
As6 O12 1.722420 1_555
As6 O4 1.784000 1_555
As7 O21 1.707852 1_555
As7 O29 1.718297 1_555
As7 O13 1.726800 1_555
As7 O5 1.770072 1_555
As8 O22 1.703289 1_565
As8 O14 1.720648 1_555
As8 O30 1.721538 1_565
As8 O6 1.770783 1_555
As9 O23 1.709012 1_555
As9 O31 1.717563 1_555
As9 O15 1.727527 1_555
As9 O7 1.784561 1_555
H0 O1 0.991433 1_555
H1 O3 0.990624 1_555
H2 O4 1.030956 1_555
H2 O2 1.608733 1_555
H3 O5 0.987272 1_555
H4 O6 0.987025 1_555
H5 O7 1.032015 1_555
H5 O0 1.597160 1_555
