# generated using pymatgen
data_SrMg6Al
_symmetry_space_group_name_H-M   'P 1'
_cell_length_a   5.14399900
_cell_length_b   6.80170200
_cell_length_c   11.60790700
_cell_angle_alpha   90.00000000
_cell_angle_beta   90.00000000
_cell_angle_gamma   90.00000000
_symmetry_Int_Tables_number   1
_chemical_formula_structural   SrMg6Al
_chemical_formula_sum   'Sr2 Mg12 Al2'
_cell_volume   406.13684983
_cell_formula_units_Z   2
loop_
 _symmetry_equiv_pos_site_id
 _symmetry_equiv_pos_as_xyz
  1  'x, y, z'
loop_
 _atom_site_type_symbol
 _atom_site_label
 _atom_site_symmetry_multiplicity
 _atom_site_fract_x
 _atom_site_fract_y
 _atom_site_fract_z
 _atom_site_occupancy
  Sr  Sr0  1  0.50000000  0.50000000  0.17002800  1
  Sr  Sr1  1  0.50000000  0.00000000  0.67002800  1
  Mg  Mg0  1  0.00000000  0.23065000  0.07600900  1
  Mg  Mg1  1  0.00000000  0.76935000  0.07600900  1
  Mg  Mg2  1  0.00000000  0.50000000  0.83347800  1
  Mg  Mg3  1  0.50000000  0.23862700  0.91840600  1
  Mg  Mg4  1  0.50000000  0.76137300  0.91840600  1
  Mg  Mg5  1  0.50000000  0.50000000  0.66350900  1
  Mg  Mg6  1  0.00000000  0.73065000  0.57600900  1
  Mg  Mg7  1  0.00000000  0.26935000  0.57600900  1
  Mg  Mg8  1  0.00000000  0.00000000  0.33347800  1
  Mg  Mg9  1  0.50000000  0.73862700  0.41840600  1
  Mg  Mg10  1  0.50000000  0.26137300  0.41840600  1
  Mg  Mg11  1  0.50000000  0.00000000  0.16350900  1
  Al  Al0  1  0.00000000  0.50000000  0.34415500  1
  Al  Al1  1  0.00000000  0.00000000  0.84415500  1
loop_
_geom_bond_atom_site_label_1
_geom_bond_atom_site_label_2
_geom_bond_distance
_geom_bond_site_symmetry_2
Mg0 Mg1 3.137625 1_545
Mg0 Mg3 3.156736 1_554
Mg0 Mg3 3.156736 1_454
Mg0 Mg11 3.179306 1_455
Mg0 Mg11 3.179306 1_555
Mg0 Sr0 3.341051 1_555
Mg0 Sr0 3.341051 1_455
Mg0 Mg2 3.358891 1_554
Mg0 Mg8 3.375405 1_555
Mg1 Mg4 3.156736 1_554
Mg1 Mg4 3.156736 1_454
Mg1 Mg11 3.179306 1_465
Mg1 Mg11 3.179306 1_565
Mg1 Sr0 3.341051 1_455
Mg1 Sr0 3.341051 1_555
Mg1 Mg2 3.358891 1_554
Mg1 Mg8 3.375405 1_565
Mg2 Mg5 3.241581 1_455
Mg2 Mg5 3.241581 1_555
Mg2 Mg4 3.278347 1_555
Mg2 Mg4 3.278347 1_455
Mg2 Mg3 3.278347 1_555
Mg2 Mg3 3.278347 1_455
Mg2 Mg6 3.375405 1_555
Mg2 Mg7 3.375405 1_555
Mg3 Mg4 3.246139 1_545
Mg3 Sr1 3.308610 1_555
Mg3 Sr0 3.419299 1_556
Mg3 Mg5 3.451829 1_555
Mg3 Mg4 3.555563 1_555
Mg4 Sr1 3.308610 1_565
Mg4 Sr0 3.419299 1_556
Mg4 Mg5 3.451829 1_555
Mg5 Mg7 3.179306 1_555
Mg5 Mg7 3.179306 1_655
Mg5 Mg6 3.179306 1_555
Mg5 Mg6 3.179306 1_655
Mg5 Mg9 3.275536 1_555
Mg5 Sr1 3.401693 1_555
Mg5 Sr1 3.401693 1_565
Mg6 Mg7 3.137625 1_555
Mg6 Mg9 3.156736 1_455
Mg6 Mg9 3.156736 1_555
Mg6 Sr1 3.341051 1_565
Mg6 Sr1 3.341051 1_465
Mg6 Mg8 3.358891 1_565
Mg7 Sr1 3.341051 1_455
Mg7 Sr1 3.341051 1_555
Mg7 Mg8 3.358891 1_555
Mg8 Mg9 3.278347 1_545
Mg8 Mg9 3.278347 1_445
Mg9 Sr0 3.308610 1_555
Mg9 Sr1 3.419299 1_565
Mg10 Mg7 3.156736 1_655
Mg10 Mg7 3.156736 1_555
Mg10 Mg9 3.246139 1_555
Mg10 Mg5 3.275536 1_555
Mg10 Mg8 3.278347 1_655
Mg10 Mg8 3.278347 1_555
Mg10 Sr0 3.308610 1_555
Mg10 Sr1 3.419299 1_555
Mg10 Mg11 3.451829 1_555
Mg10 Mg9 3.555563 1_545
Mg11 Mg8 3.241581 1_555
Mg11 Mg8 3.241581 1_655
Mg11 Mg3 3.275536 1_554
Mg11 Mg4 3.275536 1_544
Mg11 Sr0 3.401693 1_545
Mg11 Sr0 3.401693 1_555
Mg11 Mg9 3.451829 1_545
Al0 Mg6 3.115202 1_555
Al0 Mg7 3.115202 1_555
Al0 Mg9 3.161077 1_555
Al0 Mg9 3.161077 1_455
Al0 Mg10 3.161077 1_455
Al0 Mg10 3.161077 1_555
Al0 Sr0 3.271182 1_455
Al0 Sr0 3.271182 1_555
Al1 Mg0 3.115202 1_556
Al1 Mg1 3.115202 1_546
Al1 Mg3 3.161077 1_455
Al1 Mg3 3.161077 1_555
Al1 Mg4 3.161077 1_445
Al1 Mg4 3.161077 1_545
Al1 Sr1 3.271182 1_455
Al1 Sr1 3.271182 1_555
