# generated using pymatgen
data_Gd2(Al3Rh)3
_symmetry_space_group_name_H-M   'P 1'
_cell_length_a   7.51749686
_cell_length_b   7.51749686
_cell_length_c   9.46669435
_cell_angle_alpha   90.00000000
_cell_angle_beta   90.00000000
_cell_angle_gamma   119.29324310
_symmetry_Int_Tables_number   1
_chemical_formula_structural   Gd2(Al3Rh)3
_chemical_formula_sum   'Gd4 Al18 Rh6'
_cell_volume   466.57835463
_cell_formula_units_Z   2
loop_
 _symmetry_equiv_pos_site_id
 _symmetry_equiv_pos_as_xyz
  1  'x, y, z'
loop_
 _atom_site_type_symbol
 _atom_site_label
 _atom_site_symmetry_multiplicity
 _atom_site_fract_x
 _atom_site_fract_y
 _atom_site_fract_z
 _atom_site_occupancy
  Gd  Gd0  1  0.99462197  0.67190120  0.25000000  1
  Gd  Gd1  1  0.00537803  0.32809880  0.75000000  1
  Gd  Gd2  1  0.67190120  0.99462197  0.25000000  1
  Gd  Gd3  1  0.32809880  0.00537803  0.75000000  1
  Al  Al0  1  0.13017481  0.13017481  0.25000000  1
  Al  Al1  1  0.86982519  0.86982519  0.75000000  1
  Al  Al2  1  0.00198454  0.33571015  0.07388787  1
  Al  Al3  1  0.99801546  0.66428985  0.92611213  1
  Al  Al4  1  0.99801546  0.66428985  0.57388787  1
  Al  Al5  1  0.33571015  0.00198454  0.42611213  1
  Al  Al6  1  0.00198454  0.33571015  0.42611213  1
  Al  Al7  1  0.66428985  0.99801546  0.57388787  1
  Al  Al8  1  0.66428985  0.99801546  0.92611213  1
  Al  Al9  1  0.33571015  0.00198454  0.07388787  1
  Al  Al10  1  0.33373757  0.33373757  0.54632538  1
  Al  Al11  1  0.66626243  0.66626243  0.45367462  1
  Al  Al12  1  0.66626243  0.66626243  0.04632538  1
  Al  Al13  1  0.33373757  0.33373757  0.95367462  1
  Al  Al14  1  0.33997289  0.54911810  0.25000000  1
  Al  Al15  1  0.66002711  0.45088190  0.75000000  1
  Al  Al16  1  0.54911810  0.33997289  0.25000000  1
  Al  Al17  1  0.45088190  0.66002711  0.75000000  1
  Rh  Rh0  1  0.67199983  0.32800017  -0.00000000  1
  Rh  Rh1  1  0.32800017  0.67199983  -0.00000000  1
  Rh  Rh2  1  0.32800017  0.67199983  0.50000000  1
  Rh  Rh3  1  0.67199983  0.32800017  0.50000000  1
  Rh  Rh4  1  -0.00000000  0.00000000  -0.00000000  1
  Rh  Rh5  1  -0.00000000  0.00000000  0.50000000  1
loop_
_geom_bond_atom_site_label_1
_geom_bond_atom_site_label_2
_geom_bond_distance
_geom_bond_site_symmetry_2
Al0 Rh4 2.565017 1_555
Al0 Rh5 2.565017 1_555
Al0 Al16 2.746920 1_555
Al0 Al14 2.746920 1_555
Al0 Al9 2.748206 1_555
Al0 Al2 2.748206 1_555
Al0 Al6 2.748206 1_555
Al0 Al5 2.748206 1_555
Al0 Gd2 3.077595 1_445
Al0 Gd0 3.077595 1_445
Al1 Rh4 2.565017 1_666
Al1 Rh5 2.565017 1_665
Al1 Al15 2.746920 1_555
Al1 Al17 2.746920 1_555
Al1 Al3 2.748206 1_555
Al1 Al7 2.748206 1_555
Al1 Al4 2.748206 1_555
Al1 Al8 2.748206 1_555
Al1 Gd1 3.077595 1_665
Al1 Gd3 3.077595 1_665
Al2 Rh0 2.550607 1_455
Al2 Rh4 2.611839 1_555
Al2 Rh1 2.612257 1_555
Al2 Al3 2.851569 1_454
Al2 Al8 2.922297 1_444
Al2 Gd2 3.047204 1_445
Al2 Gd0 3.050709 1_455
Al2 Gd1 3.067020 1_554
Al3 Rh1 2.550607 1_656
Al3 Rh4 2.611839 1_666
Al3 Rh0 2.612257 1_556
Al3 Al9 2.922297 1_666
Al3 Gd3 3.047204 1_665
Al3 Gd1 3.050709 1_655
Al3 Gd0 3.067020 1_556
Al4 Rh2 2.550607 1_655
Al4 Rh5 2.611839 1_665
Al4 Rh3 2.612257 1_555
Al4 Al6 2.851569 1_655
Al4 Al5 2.922297 1_665
Al4 Gd3 3.047204 1_665
Al4 Gd1 3.050709 1_655
Al4 Gd0 3.067020 1_555
Al5 Rh2 2.550607 1_545
Al5 Rh5 2.611839 1_555
Al5 Rh3 2.612257 1_555
Al5 Al7 2.851569 1_545
Al5 Gd0 3.047204 1_445
Al5 Gd2 3.050709 1_545
Al5 Gd3 3.067020 1_555
Al6 Rh3 2.550607 1_455
Al6 Rh5 2.611839 1_555
Al6 Rh2 2.612257 1_555
Al6 Al7 2.922297 1_445
Al6 Gd2 3.047204 1_445
Al6 Gd0 3.050709 1_455
Al6 Gd1 3.067020 1_555
Al7 Rh3 2.550607 1_565
Al7 Rh5 2.611839 1_665
Al7 Rh2 2.612257 1_555
Al7 Gd1 3.047204 1_665
Al7 Gd3 3.050709 1_565
Al7 Gd2 3.067020 1_555
Al8 Rh0 2.550607 1_566
Al8 Rh4 2.611839 1_666
Al8 Rh1 2.612257 1_556
Al8 Al9 2.851569 1_566
Al8 Gd1 3.047204 1_665
Al8 Gd3 3.050709 1_565
Al8 Gd2 3.067020 1_556
Al9 Rh1 2.550607 1_545
Al9 Rh4 2.611839 1_555
Al9 Rh0 2.612257 1_555
Al9 Gd0 3.047204 1_445
Al9 Gd2 3.050709 1_545
Al9 Gd3 3.067020 1_554
Al10 Rh5 2.573270 1_555
Al10 Rh3 2.601495 1_555
Al10 Rh2 2.601495 1_555
Al10 Al11 2.674332 1_555
Al10 Al6 2.747963 1_555
Al10 Al5 2.747963 1_555
Al10 Al15 2.897591 1_555
Al10 Al17 2.897591 1_555
Al10 Gd3 3.116132 1_555
Al10 Gd1 3.116132 1_555
Al11 Rh5 2.573270 1_665
Al11 Rh3 2.601495 1_555
Al11 Rh2 2.601495 1_555
Al11 Al7 2.747963 1_555
Al11 Al4 2.747963 1_555
Al11 Al16 2.897591 1_555
Al11 Al14 2.897591 1_555
Al11 Gd2 3.116132 1_555
Al11 Gd0 3.116132 1_555
Al12 Rh4 2.573270 1_665
Al12 Rh0 2.601495 1_555
Al12 Rh1 2.601495 1_555
Al12 Al13 2.674332 1_554
Al12 Al8 2.747963 1_554
Al12 Al3 2.747963 1_554
Al12 Al16 2.897591 1_555
Al12 Al14 2.897591 1_555
Al12 Gd2 3.116132 1_555
Al12 Gd0 3.116132 1_555
Al13 Rh4 2.573270 1_556
Al13 Rh0 2.601495 1_556
Al13 Rh1 2.601495 1_556
Al13 Al9 2.747963 1_556
Al13 Al2 2.747963 1_556
Al13 Al15 2.897591 1_555
Al13 Al17 2.897591 1_555
Al13 Gd3 3.116132 1_555
Al13 Gd1 3.116132 1_555
Al14 Rh1 2.558113 1_555
Al14 Rh2 2.558113 1_555
Al14 Al16 2.713465 1_555
Al14 Al6 2.796476 1_555
Al14 Al2 2.796476 1_555
Al14 Gd2 3.043847 1_555
Al14 Gd0 3.152307 1_455
Al15 Rh3 2.558113 1_555
Al15 Rh0 2.558113 1_556
Al15 Al17 2.713465 1_555
Al15 Al3 2.796476 1_555
Al15 Al4 2.796476 1_555
Al15 Gd3 3.043847 1_555
Al15 Gd1 3.152307 1_655
Al16 Rh3 2.558113 1_555
Al16 Rh0 2.558113 1_555
Al16 Al5 2.796476 1_555
Al16 Al9 2.796476 1_555
Al16 Gd0 3.043847 1_555
Al16 Gd2 3.152307 1_545
Al17 Rh2 2.558113 1_555
Al17 Rh1 2.558113 1_556
Al17 Al7 2.796476 1_555
Al17 Al8 2.796476 1_555
Al17 Gd1 3.043847 1_555
Al17 Gd3 3.152307 1_565
