# generated using pymatgen
data_Sr2Mg
_symmetry_space_group_name_H-M   'P 1'
_cell_length_a   15.09524380
_cell_length_b   15.09524380
_cell_length_c   17.53357781
_cell_angle_alpha   79.09925949
_cell_angle_beta   79.09925949
_cell_angle_gamma   32.75173944
_symmetry_Int_Tables_number   1
_chemical_formula_structural   Sr2Mg
_chemical_formula_sum   'Sr32 Mg16'
_cell_volume   2119.06196347
_cell_formula_units_Z   16
loop_
 _symmetry_equiv_pos_site_id
 _symmetry_equiv_pos_as_xyz
  1  'x, y, z'
loop_
 _atom_site_type_symbol
 _atom_site_label
 _atom_site_symmetry_multiplicity
 _atom_site_fract_x
 _atom_site_fract_y
 _atom_site_fract_z
 _atom_site_occupancy
  Sr  Sr0_0  1  0.00333150  0.00333150  0.01432850  1
  Sr  Sr0_1  1  0.00333150  0.00333150  0.51432850  1
  Sr  Sr0_2  1  0.00333150  0.50333150  0.01432850  1
  Sr  Sr0_3  1  0.00333150  0.50333150  0.51432850  1
  Sr  Sr0_4  1  0.50333150  0.00333150  0.01432850  1
  Sr  Sr0_5  1  0.50333150  0.00333150  0.51432850  1
  Sr  Sr0_6  1  0.50333150  0.50333150  0.01432850  1
  Sr  Sr0_7  1  0.50333150  0.50333150  0.51432850  1
  Sr  Sr1_0  1  0.16777100  0.16777100  0.18315300  1
  Sr  Sr1_1  1  0.16777100  0.16777100  0.68315300  1
  Sr  Sr1_2  1  0.16777100  0.66777100  0.18315300  1
  Sr  Sr1_3  1  0.16777100  0.66777100  0.68315300  1
  Sr  Sr1_4  1  0.66777100  0.16777100  0.18315300  1
  Sr  Sr1_5  1  0.66777100  0.16777100  0.68315300  1
  Sr  Sr1_6  1  0.66777100  0.66777100  0.18315300  1
  Sr  Sr1_7  1  0.66777100  0.66777100  0.68315300  1
  Sr  Sr2_0  1  0.31673250  0.31673250  0.32778000  1
  Sr  Sr2_1  1  0.31673250  0.31673250  0.82778000  1
  Sr  Sr2_2  1  0.31673250  0.81673250  0.32778000  1
  Sr  Sr2_3  1  0.31673250  0.81673250  0.82778000  1
  Sr  Sr2_4  1  0.81673250  0.31673250  0.32778000  1
  Sr  Sr2_5  1  0.81673250  0.31673250  0.82778000  1
  Sr  Sr2_6  1  0.81673250  0.81673250  0.32778000  1
  Sr  Sr2_7  1  0.81673250  0.81673250  0.82778000  1
  Sr  Sr3_0  1  0.14514850  0.14514850  0.45740050  1
  Sr  Sr3_1  1  0.14514850  0.14514850  0.95740050  1
  Sr  Sr3_2  1  0.14514850  0.64514850  0.45740050  1
  Sr  Sr3_3  1  0.14514850  0.64514850  0.95740050  1
  Sr  Sr3_4  1  0.64514850  0.14514850  0.45740050  1
  Sr  Sr3_5  1  0.64514850  0.14514850  0.95740050  1
  Sr  Sr3_6  1  0.64514850  0.64514850  0.45740050  1
  Sr  Sr3_7  1  0.64514850  0.64514850  0.95740050  1
  Mg  Mg0_0  1  0.31149300  0.31149300  0.12853300  1
  Mg  Mg0_1  1  0.31149300  0.31149300  0.62853300  1
  Mg  Mg0_2  1  0.31149300  0.81149300  0.12853300  1
  Mg  Mg0_3  1  0.31149300  0.81149300  0.62853300  1
  Mg  Mg0_4  1  0.81149300  0.31149300  0.12853300  1
  Mg  Mg0_5  1  0.81149300  0.31149300  0.62853300  1
  Mg  Mg0_6  1  0.81149300  0.81149300  0.12853300  1
  Mg  Mg0_7  1  0.81149300  0.81149300  0.62853300  1
  Mg  Mg1_0  1  0.47219000  0.47219000  0.30547200  1
  Mg  Mg1_1  1  0.47219000  0.47219000  0.80547200  1
  Mg  Mg1_2  1  0.47219000  0.97219000  0.30547200  1
  Mg  Mg1_3  1  0.47219000  0.97219000  0.80547200  1
  Mg  Mg1_4  1  0.97219000  0.47219000  0.30547200  1
  Mg  Mg1_5  1  0.97219000  0.47219000  0.80547200  1
  Mg  Mg1_6  1  0.97219000  0.97219000  0.30547200  1
  Mg  Mg1_7  1  0.97219000  0.97219000  0.80547200  1
loop_
_geom_bond_atom_site_label_1
_geom_bond_atom_site_label_2
_geom_bond_distance
_geom_bond_site_symmetry_2
Sr0_0 Sr2_3 4.028820 1_544
Sr0_0 Sr2_5 4.028820 1_454
Sr0_0 Sr3_1 4.031658 1_554
Sr0_0 Sr1_4 4.067004 1_455
Sr0_0 Sr1_2 4.067004 1_545
Sr0_0 Sr3_5 4.071483 1_454
Sr0_0 Sr3_3 4.071483 1_544
Sr0_0 Sr0_6 4.255914 1_455
Sr0_0 Sr0_6 4.255914 1_545
Sr0_1 Sr2_4 4.028820 1_455
Sr0_1 Sr2_2 4.028820 1_545
Sr0_1 Sr3_0 4.031658 1_555
Sr0_1 Sr1_5 4.067004 1_455
Sr0_1 Sr1_3 4.067004 1_545
Sr0_1 Sr3_4 4.071483 1_455
Sr0_1 Sr3_2 4.071483 1_545
Sr0_1 Sr0_7 4.255914 1_545
Sr0_1 Sr0_7 4.255914 1_455
Sr0_2 Sr2_7 4.028820 1_454
Sr0_2 Sr2_1 4.028820 1_554
Sr0_2 Sr3_3 4.031658 1_554
Sr0_2 Sr1_6 4.067004 1_455
Sr0_2 Sr1_0 4.067004 1_555
Sr0_2 Sr3_7 4.071483 1_454
Sr0_2 Sr3_1 4.071483 1_554
Sr0_2 Sr0_4 4.255914 1_465
Sr0_2 Sr0_4 4.255914 1_555
Sr0_3 Sr2_0 4.028820 1_555
Sr0_3 Sr2_6 4.028820 1_455
Sr0_3 Sr3_2 4.031658 1_555
Sr0_3 Sr1_1 4.067004 1_555
Sr0_3 Sr1_7 4.067004 1_455
Sr0_3 Sr3_6 4.071483 1_455
Sr0_3 Sr3_0 4.071483 1_555
Sr0_3 Sr0_5 4.255914 1_555
Sr0_3 Sr0_5 4.255914 1_465
Sr0_4 Sr2_1 4.028820 1_554
Sr0_4 Sr2_7 4.028820 1_544
Sr0_4 Sr3_5 4.031658 1_554
Sr0_4 Sr1_0 4.067004 1_555
Sr0_4 Sr1_6 4.067004 1_545
Sr0_4 Sr3_1 4.071483 1_554
Sr0_4 Sr3_7 4.071483 1_544
Sr0_5 Sr2_0 4.028820 1_555
Sr0_5 Sr2_6 4.028820 1_545
Sr0_5 Sr3_4 4.031658 1_555
Sr0_5 Sr1_1 4.067004 1_555
Sr0_5 Sr1_7 4.067004 1_545
Sr0_5 Sr3_6 4.071483 1_545
Sr0_5 Sr3_0 4.071483 1_555
Sr0_6 Sr2_3 4.028820 1_554
Sr0_6 Sr2_5 4.028820 1_554
Sr0_6 Sr3_7 4.031658 1_554
Sr0_6 Sr1_4 4.067004 1_555
Sr0_6 Sr1_2 4.067004 1_555
Sr0_6 Sr3_3 4.071483 1_554
Sr0_6 Sr3_5 4.071483 1_554
Sr0_7 Sr2_4 4.028820 1_555
Sr0_7 Sr2_2 4.028820 1_555
Sr0_7 Sr3_6 4.031658 1_555
Sr0_7 Sr1_3 4.067004 1_555
Sr0_7 Sr1_5 4.067004 1_555
Sr0_7 Sr3_4 4.071483 1_555
Sr0_7 Sr3_2 4.071483 1_555
Sr1_0 Sr2_4 4.074104 1_455
Sr1_0 Sr2_2 4.074104 1_545
Sr1_0 Sr3_1 4.137584 1_554
Sr1_0 Sr1_6 4.255914 1_545
Sr1_0 Sr1_6 4.255914 1_455
Sr1_1 Sr2_5 4.074104 1_455
Sr1_1 Sr2_3 4.074104 1_545
Sr1_1 Sr3_0 4.137584 1_555
Sr1_1 Sr1_7 4.255914 1_545
Sr1_1 Sr1_7 4.255914 1_455
Sr1_2 Sr2_6 4.074104 1_455
Sr1_2 Sr2_0 4.074104 1_555
Sr1_2 Sr3_3 4.137584 1_554
Sr1_2 Sr1_4 4.255914 1_555
Sr1_2 Sr1_4 4.255914 1_465
Sr1_3 Sr2_1 4.074104 1_555
Sr1_3 Sr2_7 4.074104 1_455
Sr1_3 Sr3_2 4.137584 1_555
Sr1_3 Sr1_5 4.255914 1_555
Sr1_3 Sr1_5 4.255914 1_465
Sr1_4 Sr2_6 4.074104 1_545
Sr1_4 Sr2_0 4.074104 1_555
Sr1_4 Sr3_5 4.137584 1_554
Sr1_5 Sr2_1 4.074104 1_555
Sr1_5 Sr2_7 4.074104 1_545
Sr1_5 Sr3_4 4.137584 1_555
Sr1_6 Sr2_4 4.074104 1_555
Sr1_6 Sr2_2 4.074104 1_555
Sr1_6 Sr3_7 4.137584 1_554
Sr1_7 Sr2_5 4.074104 1_555
Sr1_7 Sr2_3 4.074104 1_555
Sr1_7 Sr3_6 4.137584 1_555
Sr2_0 Sr3_4 4.109446 1_555
Sr2_0 Sr3_2 4.109446 1_555
Sr2_0 Sr2_6 4.255914 1_545
Sr2_0 Sr2_6 4.255914 1_455
Sr2_1 Sr3_5 4.109446 1_555
Sr2_1 Sr3_3 4.109446 1_555
Sr2_1 Sr2_7 4.255914 1_545
Sr2_1 Sr2_7 4.255914 1_455
Sr2_2 Sr3_0 4.109446 1_565
Sr2_2 Sr3_6 4.109446 1_555
Sr2_2 Sr2_4 4.255914 1_465
Sr2_2 Sr2_4 4.255914 1_555
Sr2_3 Sr3_7 4.109446 1_555
Sr2_3 Sr3_1 4.109446 1_565
Sr2_3 Sr2_5 4.255914 1_555
Sr2_3 Sr2_5 4.255914 1_465
Sr2_4 Sr3_0 4.109446 1_655
Sr2_4 Sr3_6 4.109446 1_555
Sr2_5 Sr3_7 4.109446 1_555
Sr2_5 Sr3_1 4.109446 1_655
Sr2_6 Sr3_4 4.109446 1_565
Sr2_6 Sr3_2 4.109446 1_655
Sr2_7 Sr3_3 4.109446 1_655
Sr2_7 Sr3_5 4.109446 1_565
Sr3_0 Sr3_6 4.255914 1_545
Sr3_0 Sr3_6 4.255914 1_455
Sr3_1 Sr3_7 4.255914 1_545
Sr3_1 Sr3_7 4.255914 1_455
Sr3_2 Sr3_4 4.255914 1_465
Sr3_2 Sr3_4 4.255914 1_555
Sr3_3 Sr3_5 4.255914 1_465
Sr3_3 Sr3_5 4.255914 1_555
Mg0_0 Sr2_0 3.526567 1_555
Mg0_0 Sr0_4 3.564532 1_555
Mg0_0 Sr0_2 3.564532 1_555
Mg0_0 Sr1_4 4.010514 1_555
Mg0_0 Sr1_2 4.010514 1_555
Mg0_0 Sr3_3 4.066572 1_554
Mg0_0 Sr3_5 4.066572 1_554
Mg0_0 Sr1_0 4.083650 1_555
Mg0_1 Sr2_1 3.526567 1_555
Mg0_1 Sr0_5 3.564532 1_555
Mg0_1 Sr0_3 3.564532 1_555
Mg0_1 Sr1_5 4.010514 1_555
Mg0_1 Sr1_3 4.010514 1_555
Mg0_1 Sr3_2 4.066572 1_555
Mg0_1 Sr3_4 4.066572 1_555
Mg0_1 Sr1_1 4.083650 1_555
Mg0_2 Sr2_2 3.526567 1_555
Mg0_2 Sr0_6 3.564532 1_555
Mg0_2 Sr0_0 3.564532 1_565
Mg0_2 Sr1_6 4.010514 1_555
Mg0_2 Sr1_0 4.010514 1_565
Mg0_2 Sr3_7 4.066572 1_554
Mg0_2 Sr3_1 4.066572 1_564
Mg0_2 Sr1_2 4.083650 1_555
Mg0_3 Sr2_3 3.526567 1_555
Mg0_3 Sr0_1 3.564532 1_565
Mg0_3 Sr0_7 3.564532 1_555
Mg0_3 Sr1_7 4.010514 1_555
Mg0_3 Sr1_1 4.010514 1_565
Mg0_3 Sr3_0 4.066572 1_565
Mg0_3 Sr3_6 4.066572 1_555
Mg0_3 Sr1_3 4.083650 1_555
Mg0_4 Sr2_4 3.526567 1_555
Mg0_4 Sr0_6 3.564532 1_555
Mg0_4 Sr0_0 3.564532 1_655
Mg0_4 Sr1_6 4.010514 1_555
Mg0_4 Sr1_0 4.010514 1_655
Mg0_4 Sr3_7 4.066572 1_554
Mg0_4 Sr3_1 4.066572 1_654
Mg0_4 Sr1_4 4.083650 1_555
Mg0_5 Sr2_5 3.526567 1_555
Mg0_5 Sr0_1 3.564532 1_655
Mg0_5 Sr0_7 3.564532 1_555
Mg0_5 Sr1_7 4.010514 1_555
Mg0_5 Sr1_1 4.010514 1_655
Mg0_5 Sr3_0 4.066572 1_655
Mg0_5 Sr3_6 4.066572 1_555
Mg0_5 Sr1_5 4.083650 1_555
Mg0_6 Sr2_6 3.526567 1_555
Mg0_6 Sr0_4 3.564532 1_565
Mg0_6 Sr0_2 3.564532 1_655
Mg0_6 Sr1_2 4.010514 1_655
Mg0_6 Sr1_4 4.010514 1_565
Mg0_6 Sr3_5 4.066572 1_564
Mg0_6 Sr3_3 4.066572 1_654
Mg0_6 Sr1_6 4.083650 1_555
Mg0_7 Sr2_7 3.526567 1_555
Mg0_7 Sr0_3 3.564532 1_655
Mg0_7 Sr0_5 3.564532 1_565
Mg0_7 Sr1_5 4.010514 1_565
Mg0_7 Sr1_3 4.010514 1_655
Mg0_7 Sr3_4 4.066572 1_565
Mg0_7 Sr3_2 4.066572 1_655
Mg0_7 Sr1_7 4.083650 1_555
Mg1_0 Sr2_4 3.550041 1_555
Mg1_0 Sr2_2 3.550041 1_555
Mg1_0 Sr1_2 3.597951 1_555
Mg1_0 Sr1_4 3.597951 1_555
Mg1_0 Sr3_4 3.776346 1_555
Mg1_0 Sr3_2 3.776346 1_555
Mg1_0 Sr0_7 3.940317 1_555
Mg1_1 Sr2_5 3.550041 1_555
Mg1_1 Sr2_3 3.550041 1_555
Mg1_1 Sr1_5 3.597951 1_555
Mg1_1 Sr1_3 3.597951 1_555
Mg1_1 Sr3_3 3.776346 1_555
Mg1_1 Sr3_5 3.776346 1_555
Mg1_1 Sr0_6 3.940317 1_556
Mg1_2 Sr2_0 3.550041 1_565
Mg1_2 Sr2_6 3.550041 1_555
Mg1_2 Sr1_6 3.597951 1_555
Mg1_2 Sr1_0 3.597951 1_565
Mg1_2 Sr3_6 3.776346 1_555
Mg1_2 Sr3_0 3.776346 1_565
Mg1_2 Sr0_5 3.940317 1_565
Mg1_3 Sr2_7 3.550041 1_555
Mg1_3 Sr2_1 3.550041 1_565
Mg1_3 Sr1_7 3.597951 1_555
Mg1_3 Sr1_1 3.597951 1_565
Mg1_3 Sr3_7 3.776346 1_555
Mg1_3 Sr3_1 3.776346 1_565
Mg1_3 Sr0_4 3.940317 1_566
Mg1_4 Sr2_6 3.550041 1_555
Mg1_4 Sr2_0 3.550041 1_655
Mg1_4 Sr1_0 3.597951 1_655
Mg1_4 Sr1_6 3.597951 1_555
Mg1_4 Sr3_6 3.776346 1_555
Mg1_4 Sr3_0 3.776346 1_655
Mg1_4 Sr0_3 3.940317 1_655
Mg1_5 Sr2_7 3.550041 1_555
Mg1_5 Sr2_1 3.550041 1_655
Mg1_5 Sr1_1 3.597951 1_655
Mg1_5 Sr1_7 3.597951 1_555
Mg1_5 Sr3_7 3.776346 1_555
Mg1_5 Sr3_1 3.776346 1_655
Mg1_5 Sr0_2 3.940317 1_656
Mg1_6 Sr2_2 3.550041 1_655
Mg1_6 Sr2_4 3.550041 1_565
Mg1_6 Sr1_4 3.597951 1_565
Mg1_6 Sr1_2 3.597951 1_655
Mg1_6 Sr3_2 3.776346 1_655
Mg1_6 Sr3_4 3.776346 1_565
Mg1_6 Sr0_1 3.940317 1_665
Mg1_7 Sr2_5 3.550041 1_565
Mg1_7 Sr2_3 3.550041 1_655
Mg1_7 Sr1_5 3.597951 1_565
Mg1_7 Sr1_3 3.597951 1_655
Mg1_7 Sr3_3 3.776346 1_655
Mg1_7 Sr3_5 3.776346 1_565
Mg1_7 Sr0_0 3.940317 1_666
