# generated using pymatgen
data_YCoO3
_symmetry_space_group_name_H-M   'P 1'
_cell_length_a   5.23728232
_cell_length_b   5.74594314
_cell_length_c   7.48923591
_cell_angle_alpha   90.64402726
_cell_angle_beta   89.99110148
_cell_angle_gamma   90.09990999
_symmetry_Int_Tables_number   1
_chemical_formula_structural   YCoO3
_chemical_formula_sum   'Y4 Co4 O12'
_cell_volume   225.35994113
_cell_formula_units_Z   4
loop_
 _symmetry_equiv_pos_site_id
 _symmetry_equiv_pos_as_xyz
  1  'x, y, z'
loop_
 _atom_site_type_symbol
 _atom_site_label
 _atom_site_symmetry_multiplicity
 _atom_site_fract_x
 _atom_site_fract_y
 _atom_site_fract_z
 _atom_site_occupancy
  Y  Y0  1  0.02158459  0.91657677  0.74665230  1
  Y  Y1  1  0.47775903  0.41635955  0.74664822  1
  Y  Y2  1  0.52224117  0.58364062  0.25335193  1
  Y  Y3  1  0.97841548  0.08342319  0.25334767  1
  Co  Co0  1  0.50000007  1.00000001  0.50000006  1
  Co  Co1  1  -0.00000004  0.50000003  0.50000005  1
  Co  Co2  1  0.50000001  -0.00000000  0.00000005  1
  Co  Co3  1  1.00000000  0.49999999  0.00000007  1
  O  O0  1  0.80672054  0.81416253  0.05259441  1
  O  O1  1  0.30630280  0.68542598  0.94757521  1
  O  O2  1  0.29894370  0.67988745  0.55456169  1
  O  O3  1  0.60855555  0.03126053  0.74719090  1
  O  O4  1  0.79866830  0.82043689  0.44558190  1
  O  O5  1  0.10888236  0.46853253  0.25339311  1
  O  O6  1  0.20133171  0.17956315  0.55441819  1
  O  O7  1  0.39144454  0.96873943  0.25280924  1
  O  O8  1  0.70105640  0.32011256  0.44543847  1
  O  O9  1  0.69369695  0.31457402  0.05242485  1
  O  O10  1  0.89111750  0.53146744  0.74660699  1
  O  O11  1  0.19327933  0.18583735  0.94740568  1
loop_
_geom_bond_atom_site_label_1
_geom_bond_atom_site_label_2
_geom_bond_distance
_geom_bond_site_symmetry_2
Co0 O4 1.916600 1_555
Co0 O6 1.916600 1_565
Co0 O7 1.942986 1_555
Co0 O3 1.942986 1_565
Co0 O8 2.160780 1_565
Co0 O2 2.160780 1_555
Co1 O8 1.916162 1_455
Co1 O2 1.916163 1_555
Co1 O5 1.939441 1_555
Co1 O10 1.939441 1_455
Co1 O4 2.166046 1_455
Co1 O6 2.166047 1_555
Co2 O0 1.972681 1_545
Co2 O11 1.972681 1_554
Co2 O3 1.986760 1_554
Co2 O7 1.986760 1_545
Co2 O9 2.104322 1_555
Co2 O1 2.104323 1_544
Co3 O1 1.966219 1_654
Co3 O9 1.966220 1_555
Co3 O5 1.991890 1_655
Co3 O10 1.991891 1_554
Co3 O0 2.104444 1_555
Co3 O11 2.104445 1_654
O0 Y3 2.325088 1_565
O0 Y2 2.504404 1_555
O0 Y0 2.624830 1_654
O1 Y1 2.326606 1_555
O1 Y0 2.510860 1_555
O1 Y2 2.626506 1_556
O2 Y1 2.300814 1_555
O2 Y0 2.447762 1_555
O2 Y2 2.595317 1_555
O3 Y0 2.262383 1_645
O3 Y1 2.317553 1_555
O4 Y3 2.299102 1_565
O4 Y2 2.443265 1_555
O4 Y0 2.592835 1_655
O5 Y2 2.262556 1_555
O5 Y3 2.314769 1_455
O6 Y0 2.299102 1_545
O6 Y1 2.443267 1_555
O6 Y3 2.592836 1_455
O7 Y3 2.262383 1_465
O7 Y2 2.317552 1_555
O8 Y2 2.300814 1_555
O8 Y3 2.447763 1_555
O8 Y1 2.595317 1_555
O9 Y2 2.326606 1_555
O9 Y3 2.510861 1_555
O9 Y1 2.626504 1_554
O10 Y1 2.262554 1_555
O10 Y0 2.314769 1_655
O11 Y0 2.325088 1_545
O11 Y1 2.504405 1_555
O11 Y3 2.624829 1_456
