# generated using pymatgen
data_Cr6Cd(CuO6)2
_symmetry_space_group_name_H-M   'P 1'
_cell_length_a   13.38425005
_cell_length_b   13.38425005
_cell_length_c   13.38425005
_cell_angle_alpha   153.60536559
_cell_angle_beta   153.60536559
_cell_angle_gamma   37.67345282
_symmetry_Int_Tables_number   1
_chemical_formula_structural   Cr6Cd(CuO6)2
_chemical_formula_sum   'Cr12 Cd2 Cu4 O24'
_cell_volume   473.11669297
_cell_formula_units_Z   2
loop_
 _symmetry_equiv_pos_site_id
 _symmetry_equiv_pos_as_xyz
  1  'x, y, z'
loop_
 _atom_site_type_symbol
 _atom_site_label
 _atom_site_symmetry_multiplicity
 _atom_site_fract_x
 _atom_site_fract_y
 _atom_site_fract_z
 _atom_site_occupancy
  Cr  Cr0  1  0.70785900  0.95737600  0.24951700  1
  Cr  Cr1  1  0.03955300  0.29283600  0.25328300  1
  Cr  Cr2  1  0.37729900  0.62416000  0.24686100  1
  Cr  Cr3  1  0.37729900  0.13043700  0.75313900  1
  Cr  Cr4  1  0.70785900  0.45834200  0.75048300  1
  Cr  Cr5  1  0.03955300  0.78627000  0.74671700  1
  Cr  Cr6  1  0.54165800  0.29214100  0.24951700  1
  Cr  Cr7  1  0.86956300  0.62270100  0.24686100  1
  Cr  Cr8  1  0.21373000  0.96044700  0.25328300  1
  Cr  Cr9  1  0.70716400  0.96044700  0.74671700  1
  Cr  Cr10  1  0.04262400  0.29214100  0.75048300  1
  Cr  Cr11  1  0.37584000  0.62270100  0.75313900  1
  Cd  Cd0  1  0.83524500  0.83524500  0.00000000  1
  Cd  Cd1  1  0.16475500  0.16475500  0.00000000  1
  Cu  Cu0  1  0.50000000  0.50000000  0.00000000  1
  Cu  Cu1  1  0.91814600  0.41814600  0.50000000  1
  Cu  Cu2  1  0.25000000  0.75000000  0.50000000  1
  Cu  Cu3  1  0.58185400  0.08185400  0.50000000  1
  O  O0  1  0.59177400  0.88260800  0.70916600  1
  O  O1  1  0.92638200  0.21343700  0.71294400  1
  O  O2  1  0.26489700  0.54233100  0.72256600  1
  O  O3  1  0.59457700  0.37307400  0.22150300  1
  O  O4  1  0.92698900  0.70370500  0.22328400  1
  O  O5  1  0.25797400  0.03967400  0.21829900  1
  O  O6  1  0.50049300  0.21343700  0.28705600  1
  O  O7  1  0.81976500  0.54233100  0.27743400  1
  O  O8  1  0.17344200  0.88260800  0.29083400  1
  O  O9  1  0.15157100  0.37307400  0.77849700  1
  O  O10  1  0.48042000  0.70370500  0.77671600  1
  O  O11  1  0.82137500  0.03967400  0.78170100  1
  O  O12  1  0.78656300  0.07361800  0.28705600  1
  O  O13  1  0.11739200  0.40822600  0.29083400  1
  O  O14  1  0.45766900  0.73510300  0.27743400  1
  O  O15  1  0.29629500  0.51958000  0.22328400  1
  O  O16  1  0.62692600  0.84842900  0.22150300  1
  O  O17  1  0.96032600  0.17862500  0.21829900  1
  O  O18  1  0.45766900  0.18023500  0.72256600  1
  O  O19  1  0.78656300  0.49950700  0.71294400  1
  O  O20  1  0.11739200  0.82655800  0.70916600  1
  O  O21  1  0.29629500  0.07301100  0.77671600  1
  O  O22  1  0.62692600  0.40542300  0.77849700  1
  O  O23  1  0.96032600  0.74202600  0.78170100  1
loop_
_geom_bond_atom_site_label_1
_geom_bond_atom_site_label_2
_geom_bond_distance
_geom_bond_site_symmetry_2
Cr0 O12 2.007095 1_565
Cr0 O6 2.014179 1_565
Cr0 O1 2.014180 1_565
Cr0 O4 2.049012 1_555
Cr0 O10 2.049012 1_554
Cr0 O16 2.057560 1_555
Cr1 O13 1.985347 1_555
Cr1 O17 2.018558 1_455
Cr1 O2 2.031865 1_555
Cr1 O7 2.031865 1_455
Cr1 O11 2.043499 1_454
Cr1 O5 2.043503 1_555
Cr2 O0 2.011327 1_555
Cr2 O8 2.011327 1_555
Cr2 O9 2.029779 1_554
Cr2 O3 2.029779 1_555
Cr2 O14 2.044716 1_555
Cr2 O15 2.057263 1_555
Cr3 O0 2.011323 1_545
Cr3 O8 2.011327 1_545
Cr3 O3 2.029779 1_556
Cr3 O9 2.029783 1_555
Cr3 O18 2.044729 1_555
Cr3 O21 2.057263 1_555
Cr4 O19 2.007108 1_555
Cr4 O6 2.014179 1_555
Cr4 O1 2.014184 1_555
Cr4 O4 2.049012 1_556
Cr4 O10 2.049017 1_555
Cr4 O22 2.057560 1_555
Cr5 O20 1.985347 1_555
Cr5 O23 2.018571 1_455
Cr5 O7 2.031865 1_455
Cr5 O2 2.031865 1_555
Cr5 O5 2.043499 1_566
Cr5 O11 2.043499 1_465
Cr6 O6 2.007108 1_555
Cr6 O19 2.014179 1_555
Cr6 O12 2.014184 1_555
Cr6 O21 2.049012 1_554
Cr6 O15 2.049017 1_555
Cr6 O3 2.057560 1_555
Cr7 O13 2.011323 1_655
Cr7 O20 2.011327 1_655
Cr7 O22 2.029779 1_554
Cr7 O16 2.029783 1_555
Cr7 O7 2.044729 1_555
Cr7 O4 2.057263 1_555
Cr8 O8 1.985347 1_555
Cr8 O5 2.018571 1_565
Cr8 O14 2.031865 1_555
Cr8 O18 2.031865 1_565
Cr8 O23 2.043499 1_454
Cr8 O17 2.043499 1_465
Cr9 O0 1.985347 1_555
Cr9 O11 2.018558 1_565
Cr9 O14 2.031865 1_555
Cr9 O18 2.031865 1_565
Cr9 O17 2.043499 1_566
Cr9 O23 2.043503 1_555
Cr10 O1 2.007095 1_455
Cr10 O19 2.014179 1_455
Cr10 O12 2.014180 1_455
Cr10 O21 2.049012 1_555
Cr10 O15 2.049012 1_556
Cr10 O9 2.057560 1_555
Cr11 O13 2.011327 1_555
Cr11 O20 2.011327 1_555
Cr11 O16 2.029779 1_556
Cr11 O22 2.029779 1_555
Cr11 O2 2.044716 1_555
Cr11 O10 2.057263 1_555
Cd0 O19 2.144472 1_554
Cd0 O12 2.144477 1_565
Cd0 O8 2.144526 1_655
Cd0 O0 2.144526 1_554
Cd1 O6 2.144472 1_555
Cd1 O1 2.144477 1_454
Cd1 O20 2.144526 1_544
Cd1 O13 2.144526 1_555
Cu0 O7 2.006214 1_555
Cu0 O14 2.006214 1_555
Cu0 O18 2.006214 1_554
Cu0 O2 2.006214 1_554
Cu1 O23 2.026271 1_555
Cu1 O17 2.026280 1_555
Cu1 O3 2.049569 1_555
Cu1 O9 2.049569 1_655
Cu2 O21 2.058039 1_565
Cu2 O4 2.058039 1_455
Cu2 O10 2.058044 1_555
Cu2 O15 2.058044 1_555
Cu3 O5 2.026271 1_555
Cu3 O11 2.026280 1_555
Cu3 O22 2.049569 1_555
Cu3 O16 2.049569 1_545
