# generated using pymatgen
data_U5VSb3
_symmetry_space_group_name_H-M   'P 1'
_cell_length_a   9.12857848
_cell_length_b   9.12857848
_cell_length_c   5.93381100
_cell_angle_alpha   90.00000000
_cell_angle_beta   90.00000000
_cell_angle_gamma   120.00000346
_symmetry_Int_Tables_number   1
_chemical_formula_structural   U5VSb3
_chemical_formula_sum   'U10 V2 Sb6'
_cell_volume   428.22363421
_cell_formula_units_Z   2
loop_
 _symmetry_equiv_pos_site_id
 _symmetry_equiv_pos_as_xyz
  1  'x, y, z'
loop_
 _atom_site_type_symbol
 _atom_site_label
 _atom_site_symmetry_multiplicity
 _atom_site_fract_x
 _atom_site_fract_y
 _atom_site_fract_z
 _atom_site_occupancy
  U  U0  1  0.25797500  0.00000000  0.75000000  1
  U  U1  1  0.74202500  0.00000000  0.25000000  1
  U  U2  1  0.00000000  0.25797500  0.75000000  1
  U  U3  1  0.00000000  0.74202500  0.25000000  1
  U  U4  1  0.74202500  0.74202500  0.75000000  1
  U  U5  1  0.25797500  0.25797500  0.25000000  1
  U  U6  1  0.33333300  0.66666700  0.50000000  1
  U  U7  1  0.66666700  0.33333300  0.50000000  1
  U  U8  1  0.66666700  0.33333300  0.00000000  1
  U  U9  1  0.33333300  0.66666700  0.00000000  1
  V  V0  1  0.00000000  0.00000000  0.50000000  1
  V  V1  1  0.00000000  0.00000000  0.00000000  1
  Sb  Sb0  1  0.61614700  0.00000000  0.75000000  1
  Sb  Sb1  1  0.38385300  0.00000000  0.25000000  1
  Sb  Sb2  1  0.00000000  0.61614700  0.75000000  1
  Sb  Sb3  1  0.00000000  0.38385300  0.25000000  1
  Sb  Sb4  1  0.38385300  0.38385300  0.75000000  1
  Sb  Sb5  1  0.61614700  0.61614700  0.25000000  1
loop_
_geom_bond_atom_site_label_1
_geom_bond_atom_site_label_2
_geom_bond_distance
_geom_bond_site_symmetry_2
U0 V1 2.783235 1_556
U0 V0 2.783235 1_555
U1 V1 2.783235 1_655
U1 V0 2.783235 1_655
U2 V1 2.783235 1_556
U2 V0 2.783235 1_555
U3 V1 2.783235 1_565
U3 V0 2.783235 1_565
U4 V1 2.783235 1_666
U4 V0 2.783235 1_665
U5 V1 2.783235 1_555
U5 V0 2.783235 1_555
U6 U9 2.966906 1_556
U6 U9 2.966906 1_555
U7 U8 2.966906 1_555
U7 U8 2.966906 1_556
Sb0 U2 3.093898 1_655
Sb0 U4 3.093898 1_545
Sb0 U1 3.181655 1_556
Sb0 U1 3.181655 1_555
Sb0 U7 3.204528 1_555
Sb0 U8 3.204528 1_556
Sb0 U9 3.204531 1_546
Sb0 U6 3.204531 1_545
Sb0 U0 3.269601 1_555
Sb1 U3 3.093898 1_545
Sb1 U5 3.093898 1_555
Sb1 U0 3.181655 1_554
Sb1 U0 3.181655 1_555
Sb1 U9 3.204528 1_545
Sb1 U6 3.204528 1_545
Sb1 U8 3.204531 1_555
Sb1 U7 3.204531 1_555
Sb1 U1 3.269601 1_555
Sb2 U0 3.093898 1_565
Sb2 U4 3.093898 1_455
Sb2 U3 3.181655 1_555
Sb2 U3 3.181655 1_556
Sb2 U9 3.204528 1_556
Sb2 U6 3.204528 1_555
Sb2 U8 3.204531 1_456
Sb2 U7 3.204531 1_455
Sb2 U2 3.269601 1_555
Sb3 U1 3.093898 1_455
Sb3 U5 3.093898 1_555
Sb3 U2 3.181655 1_555
Sb3 U2 3.181655 1_554
Sb3 U7 3.204528 1_455
Sb3 U8 3.204528 1_455
Sb3 U9 3.204531 1_555
Sb3 U6 3.204531 1_555
Sb3 U3 3.269601 1_555
Sb4 U2 3.093898 1_555
Sb4 U0 3.093898 1_555
Sb4 U5 3.181655 1_556
Sb4 U5 3.181655 1_555
Sb4 U8 3.204536 1_556
Sb4 U9 3.204536 1_556
Sb4 U7 3.204536 1_555
Sb4 U6 3.204536 1_555
Sb4 U4 3.269601 1_555
Sb5 U3 3.093898 1_655
Sb5 U1 3.093898 1_565
Sb5 U4 3.181655 1_554
Sb5 U4 3.181655 1_555
Sb5 U9 3.204536 1_555
Sb5 U7 3.204536 1_555
Sb5 U6 3.204536 1_555
Sb5 U8 3.204536 1_555
Sb5 U5 3.269601 1_555
