# generated using pymatgen
data_CaHfMg14O16
_symmetry_space_group_name_H-M   'P 1'
_cell_length_a   4.38539000
_cell_length_b   8.70430900
_cell_length_c   8.73095100
_cell_angle_alpha   90.00000000
_cell_angle_beta   90.00000000
_cell_angle_gamma   90.00000000
_symmetry_Int_Tables_number   1
_chemical_formula_structural   CaHfMg14O16
_chemical_formula_sum   'Ca1 Hf1 Mg14 O16'
_cell_volume   333.27602498
_cell_formula_units_Z   1
loop_
 _symmetry_equiv_pos_site_id
 _symmetry_equiv_pos_as_xyz
  1  'x, y, z'
loop_
 _atom_site_type_symbol
 _atom_site_label
 _atom_site_symmetry_multiplicity
 _atom_site_fract_x
 _atom_site_fract_y
 _atom_site_fract_z
 _atom_site_occupancy
  Ca  Ca0  1  0.00000000  0.00000000  0.00000000  1
  Hf  Hf0  1  0.00000000  0.00000000  0.50000000  1
  Mg  Mg0  1  0.00000000  0.50000000  0.00000000  1
  Mg  Mg1  1  0.00000000  0.50000000  0.50000000  1
  Mg  Mg2  1  0.50000000  0.00000000  0.24742500  1
  Mg  Mg3  1  0.50000000  0.00000000  0.75257500  1
  Mg  Mg4  1  0.50000000  0.50000000  0.24971600  1
  Mg  Mg5  1  0.50000000  0.50000000  0.75028400  1
  Mg  Mg6  1  0.50000000  0.25758300  0.00000000  1
  Mg  Mg7  1  0.50000000  0.25690000  0.50000000  1
  Mg  Mg8  1  0.50000000  0.74241700  0.00000000  1
  Mg  Mg9  1  0.50000000  0.74310000  0.50000000  1
  Mg  Mg10  1  0.00000000  0.25983300  0.24723200  1
  Mg  Mg11  1  0.00000000  0.25983300  0.75276800  1
  Mg  Mg12  1  0.00000000  0.74016700  0.24723200  1
  Mg  Mg13  1  0.00000000  0.74016700  0.75276800  1
  O  O0  1  0.00000000  0.26405500  0.00000000  1
  O  O1  1  0.00000000  0.25490800  0.50000000  1
  O  O2  1  0.00000000  0.73594500  0.00000000  1
  O  O3  1  0.00000000  0.74509200  0.50000000  1
  O  O4  1  0.50000000  0.25013300  0.24930400  1
  O  O5  1  0.50000000  0.25013300  0.75069600  1
  O  O6  1  0.50000000  0.74986700  0.24930400  1
  O  O7  1  0.50000000  0.74986700  0.75069600  1
  O  O8  1  0.50000000  0.00000000  0.00000000  1
  O  O9  1  0.50000000  0.00000000  0.50000000  1
  O  O10  1  0.50000000  0.50000000  0.00000000  1
  O  O11  1  0.50000000  0.50000000  0.50000000  1
  O  O12  1  0.00000000  0.00000000  0.25791100  1
  O  O13  1  0.00000000  0.00000000  0.74208900  1
  O  O14  1  0.00000000  0.50000000  0.25256500  1
  O  O15  1  0.00000000  0.50000000  0.74743500  1
loop_
_geom_bond_atom_site_label_1
_geom_bond_atom_site_label_2
_geom_bond_distance
_geom_bond_site_symmetry_2
Ca0 O8 2.192695 1_555
Ca0 O8 2.192695 1_455
Ca0 O12 2.251808 1_555
Ca0 O13 2.251808 1_554
Ca0 O0 2.298416 1_555
Ca0 O2 2.298416 1_545
Hf0 O12 2.113667 1_555
Hf0 O13 2.113667 1_555
Hf0 O9 2.192695 1_555
Hf0 O9 2.192695 1_455
Hf0 O1 2.218798 1_555
Hf0 O3 2.218798 1_545
Mg0 O2 2.053738 1_555
Mg0 O0 2.053738 1_555
Mg0 O10 2.192695 1_455
Mg0 O10 2.192695 1_555
Mg0 O14 2.205133 1_555
Mg0 O15 2.205133 1_554
Mg1 O1 2.133357 1_555
Mg1 O3 2.133357 1_555
Mg1 O15 2.160343 1_555
Mg1 O14 2.160343 1_555
Mg1 O11 2.192695 1_455
Mg1 O11 2.192695 1_555
Mg2 O8 2.160256 1_555
Mg2 O4 2.177297 1_555
Mg2 O6 2.177297 1_545
Mg2 O12 2.194605 1_655
Mg2 O12 2.194605 1_555
Mg2 O9 2.205220 1_555
Mg3 O8 2.160256 1_556
Mg3 O5 2.177297 1_555
Mg3 O7 2.177297 1_545
Mg3 O13 2.194605 1_655
Mg3 O13 2.194605 1_555
Mg3 O9 2.205220 1_555
Mg4 O6 2.174923 1_555
Mg4 O4 2.174923 1_555
Mg4 O10 2.180258 1_555
Mg4 O11 2.185217 1_555
Mg4 O14 2.192836 1_555
Mg4 O14 2.192836 1_655
Mg5 O7 2.174923 1_555
Mg5 O5 2.174923 1_555
Mg5 O10 2.180258 1_556
Mg5 O11 2.185217 1_555
Mg5 O15 2.192836 1_555
Mg5 O15 2.192836 1_655
Mg6 O10 2.110072 1_555
Mg6 O5 2.177627 1_554
Mg6 O4 2.177627 1_555
Mg6 O0 2.193419 1_555
Mg6 O0 2.193419 1_655
Mg6 O8 2.242082 1_555
Mg7 O11 2.116018 1_555
Mg7 O4 2.189607 1_555
Mg7 O5 2.189607 1_555
Mg7 O1 2.192764 1_555
Mg7 O1 2.192764 1_655
Mg7 O9 2.236137 1_555
Mg8 O10 2.110072 1_555
Mg8 O7 2.177627 1_554
Mg8 O6 2.177627 1_555
Mg8 O2 2.193419 1_655
Mg8 O2 2.193419 1_555
Mg8 O8 2.242082 1_565
Mg9 O11 2.116018 1_555
Mg9 O6 2.189607 1_555
Mg9 O7 2.189607 1_555
Mg9 O3 2.192764 1_555
Mg9 O3 2.192764 1_655
Mg9 O9 2.236137 1_565
Mg10 O14 2.091006 1_555
Mg10 O0 2.158883 1_555
Mg10 O4 2.194395 1_455
Mg10 O4 2.194395 1_555
Mg10 O1 2.207321 1_555
Mg10 O12 2.263588 1_555
Mg11 O15 2.091006 1_555
Mg11 O0 2.158883 1_556
Mg11 O5 2.194395 1_555
Mg11 O5 2.194395 1_455
Mg11 O1 2.207321 1_555
Mg11 O13 2.263588 1_555
Mg12 O14 2.091006 1_555
Mg12 O2 2.158883 1_555
Mg12 O6 2.194395 1_555
Mg12 O6 2.194395 1_455
Mg12 O3 2.207321 1_555
Mg12 O12 2.263588 1_565
Mg13 O15 2.091006 1_555
Mg13 O2 2.158883 1_556
Mg13 O7 2.194395 1_555
Mg13 O7 2.194395 1_455
Mg13 O3 2.207321 1_555
Mg13 O13 2.263588 1_565
