# generated using pymatgen
data_MgSi2
_symmetry_space_group_name_H-M   'P 1'
_cell_length_a   12.93513904
_cell_length_b   3.50441635
_cell_length_c   5.14448010
_cell_angle_alpha   70.66604591
_cell_angle_beta   70.21959125
_cell_angle_gamma   74.36210422
_symmetry_Int_Tables_number   1
_chemical_formula_structural   MgSi2
_chemical_formula_sum   'Mg4 Si8'
_cell_volume   203.78072465
_cell_formula_units_Z   4
loop_
 _symmetry_equiv_pos_site_id
 _symmetry_equiv_pos_as_xyz
  1  'x, y, z'
loop_
 _atom_site_type_symbol
 _atom_site_label
 _atom_site_symmetry_multiplicity
 _atom_site_fract_x
 _atom_site_fract_y
 _atom_site_fract_z
 _atom_site_occupancy
  Mg  Mg0  1  0.94000200  0.21276500  0.04446700  1
  Mg  Mg1  1  0.18703000  0.97769000  0.00237900  1
  Mg  Mg2  1  0.37535800  0.46904900  0.64430100  1
  Mg  Mg3  1  0.56165000  0.94664100  0.31037300  1
  Si  Si0  1  0.03633300  0.40336500  0.44489400  1
  Si  Si1  1  0.87149900  0.98002300  0.63805100  1
  Si  Si2  1  0.72923700  0.45379700  0.94481800  1
  Si  Si3  1  0.31519600  0.22175000  0.26068100  1
  Si  Si4  1  0.76485600  0.70901100  0.41023000  1
  Si  Si5  1  0.15786400  0.72140700  0.57157200  1
  Si  Si6  1  0.45512200  0.71248700  0.99767600  1
  Si  Si7  1  0.60575400  0.19196700  0.73062900  1
loop_
_geom_bond_atom_site_label_1
_geom_bond_atom_site_label_2
_geom_bond_distance
_geom_bond_site_symmetry_2
Mg0 Si1 2.772078 1_545
Mg0 Si2 2.797605 1_554
Mg0 Si0 2.827724 1_654
Mg0 Si1 2.931651 1_544
Mg0 Si1 2.938244 1_554
Mg0 Si4 2.975734 1_555
Mg0 Si4 2.976769 1_545
Mg0 Mg1 3.027615 1_645
Mg0 Si0 3.056054 1_655
Mg0 Si0 3.131244 1_645
Mg1 Si5 2.686432 1_555
Mg1 Si5 2.815568 1_554
Mg1 Si5 2.838674 1_564
Mg1 Si3 2.872941 1_565
Mg1 Si3 2.885231 1_555
Mg1 Si0 2.980771 1_565
Mg1 Si0 3.018410 1_555
Mg1 Mg2 3.049752 1_554
Mg1 Mg2 3.068645 1_564
Mg2 Si3 2.790525 1_555
Mg2 Si6 2.805022 1_555
Mg2 Si3 2.818537 1_565
Mg2 Si5 2.826458 1_555
Mg2 Si6 2.828801 1_545
Mg2 Si3 2.878436 1_556
Mg2 Mg3 3.001956 1_545
Mg2 Mg3 3.004618 1_555
Mg2 Si7 3.011959 1_555
Mg2 Si6 3.021696 1_554
Mg3 Si4 2.704991 1_555
Mg3 Si7 2.715651 1_564
Mg3 Si7 2.840563 1_565
Mg3 Si6 2.853742 1_554
Mg3 Si7 2.868704 1_555
Mg3 Si6 2.887450 1_564
Mg3 Si2 2.915350 1_564
Mg3 Si2 2.931176 1_554
Mg3 Si3 3.144694 1_565
Si0 Si5 2.498826 1_545
Si0 Si5 2.501420 1_555
Si0 Si1 2.651345 1_445
Si0 Si1 2.681431 1_455
Si1 Si4 2.591544 1_555
Si1 Si2 2.599172 1_565
Si1 Si4 2.648531 1_565
Si1 Si2 2.685972 1_555
Si2 Si4 2.512273 1_555
Si2 Si7 2.694100 1_555
Si2 Si7 2.744725 1_565
Si3 Si6 2.547867 1_544
Si3 Si6 2.558128 1_554
Si3 Si5 2.737863 1_555
Si3 Si5 2.763687 1_545
Si4 Si7 2.736817 1_565
Si4 Si7 2.823508 1_555
Si6 Si7 2.632867 1_565
Si6 Si7 2.634901 1_555
