# generated using pymatgen
data_ErUTe4
_symmetry_space_group_name_H-M   'P 1'
_cell_length_a   8.03513355
_cell_length_b   8.05245125
_cell_length_c   8.05245314
_cell_angle_alpha   149.43409987
_cell_angle_beta   135.34166784
_cell_angle_gamma   55.10770574
_symmetry_Int_Tables_number   1
_chemical_formula_structural   ErUTe4
_chemical_formula_sum   'Er1 U1 Te4'
_cell_volume   185.03249966
_cell_formula_units_Z   1
loop_
 _symmetry_equiv_pos_site_id
 _symmetry_equiv_pos_as_xyz
  1  'x, y, z'
loop_
 _atom_site_type_symbol
 _atom_site_label
 _atom_site_symmetry_multiplicity
 _atom_site_fract_x
 _atom_site_fract_y
 _atom_site_fract_z
 _atom_site_occupancy
  Er  Er0  1  0.85966151  0.85878033  0.00094553  1
  U  U0  1  0.13597389  0.13682912  -0.00087141  1
  Te  Te0  1  0.70897049  0.20879658  0.50010733  1
  Te  Te1  1  0.29499689  0.79437924  0.50071018  1
  Te  Te2  1  0.75291806  0.50136961  0.25149624  1
  Te  Te3  1  0.24748015  0.49984511  0.74761313  1
loop_
_geom_bond_atom_site_label_1
_geom_bond_atom_site_label_2
_geom_bond_distance
_geom_bond_site_symmetry_2
Er0 Te0 3.012678 1_565
Er0 Te0 3.013002 1_554
Er0 Te1 3.189813 1_554
Er0 Te1 3.192544 1_655
Er0 Te3 3.287659 1_665
Er0 Te3 3.288053 1_654
Er0 Te2 3.314671 1_565
Er0 Te2 3.314947 1_554
Te0 U0 3.221265 1_656
Te0 U0 3.226647 1_555
Te1 U0 3.090357 1_566
Te1 U0 3.090604 1_555
Te2 Te3 3.032389 1_655
Te2 Te3 3.079900 1_554
Te2 U0 3.241670 1_666
Te2 U0 3.241728 1_655
Te3 U0 3.263091 1_555
Te3 U0 3.263151 1_566
