# generated using pymatgen
data_Rb2NdCl5
_symmetry_space_group_name_H-M   'P 1'
_cell_length_a   8.21530084
_cell_length_b   8.92525017
_cell_length_c   13.19241348
_cell_angle_alpha   90.00000000
_cell_angle_beta   90.00000000
_cell_angle_gamma   90.00000000
_symmetry_Int_Tables_number   1
_chemical_formula_structural   Rb2NdCl5
_chemical_formula_sum   'Rb8 Nd4 Cl20'
_cell_volume   967.31544981
_cell_formula_units_Z   4
loop_
 _symmetry_equiv_pos_site_id
 _symmetry_equiv_pos_as_xyz
  1  'x, y, z'
loop_
 _atom_site_type_symbol
 _atom_site_label
 _atom_site_symmetry_multiplicity
 _atom_site_fract_x
 _atom_site_fract_y
 _atom_site_fract_z
 _atom_site_occupancy
  Rb  Rb0  1  0.55575625  0.49494564  0.82890814  1
  Rb  Rb1  1  0.44424375  0.50505436  0.17109186  1
  Rb  Rb2  1  0.05575625  0.50505436  0.67109186  1
  Rb  Rb3  1  0.44424375  -0.00505436  0.17109186  1
  Rb  Rb4  1  0.94424375  0.49494564  0.32890814  1
  Rb  Rb5  1  0.55575625  0.00505436  0.82890814  1
  Rb  Rb6  1  0.94424375  0.00505436  0.32890814  1
  Rb  Rb7  1  0.05575625  -0.00505436  0.67109186  1
  Nd  Nd0  1  0.57233603  0.75000000  0.50484746  1
  Nd  Nd1  1  0.42766397  0.25000000  0.49515254  1
  Nd  Nd2  1  0.07233603  0.25000000  0.99515254  1
  Nd  Nd3  1  0.92766397  0.75000000  0.00484746  1
  Cl  Cl0  1  0.84464425  0.75000000  0.80085472  1
  Cl  Cl1  1  0.15535575  0.25000000  0.19914528  1
  Cl  Cl2  1  0.34464425  0.25000000  0.69914528  1
  Cl  Cl3  1  0.65535575  0.75000000  0.30085472  1
  Cl  Cl4  1  0.37903687  0.75000000  0.67653691  1
  Cl  Cl5  1  0.62096313  0.25000000  0.32346309  1
  Cl  Cl6  1  0.87903687  0.25000000  0.82346309  1
  Cl  Cl7  1  0.12096313  0.75000000  0.17653691  1
  Cl  Cl8  1  0.91119505  0.75000000  0.51003820  1
  Cl  Cl9  1  0.08880495  0.25000000  0.48996180  1
  Cl  Cl10  1  0.41119505  0.25000000  0.98996180  1
  Cl  Cl11  1  0.58880495  0.75000000  0.01003820  1
  Cl  Cl12  1  0.66287212  0.04227077  0.57282954  1
  Cl  Cl13  1  0.33712788  0.95772923  0.42717046  1
  Cl  Cl14  1  0.16287212  0.95772923  0.92717046  1
  Cl  Cl15  1  0.33712788  0.54227077  0.42717046  1
  Cl  Cl16  1  0.83712788  0.04227077  0.07282954  1
  Cl  Cl17  1  0.66287212  0.45772923  0.57282954  1
  Cl  Cl18  1  0.83712788  0.45772923  0.07282954  1
  Cl  Cl19  1  0.16287212  0.54227077  0.92717046  1
loop_
_geom_bond_atom_site_label_1
_geom_bond_atom_site_label_2
_geom_bond_distance
_geom_bond_site_symmetry_2
Cl0 Nd3 2.776237 1_556
Cl0 Rb7 3.273834 1_665
Cl0 Rb2 3.273834 1_655
Cl0 Rb5 3.309326 1_565
Cl0 Rb0 3.309326 1_555
Cl1 Nd2 2.776237 1_554
Cl1 Rb6 3.273834 1_455
Cl1 Rb4 3.273834 1_455
Cl1 Rb3 3.309326 1_555
Cl1 Rb1 3.309326 1_555
Cl2 Nd1 2.776237 1_555
Cl2 Rb0 3.273834 1_555
Cl2 Rb5 3.273834 1_555
Cl2 Rb2 3.309326 1_555
Cl2 Rb7 3.309326 1_555
Cl3 Nd0 2.776237 1_555
Cl3 Rb3 3.273834 1_565
Cl3 Rb1 3.273834 1_555
Cl3 Rb6 3.309326 1_565
Cl3 Rb4 3.309326 1_555
Cl4 Nd0 2.766224 1_555
Cl4 Rb5 3.366083 1_565
Cl4 Rb0 3.366083 1_555
Cl4 Rb2 3.440663 1_555
Cl4 Rb7 3.440663 1_565
Cl5 Nd1 2.766224 1_555
Cl5 Rb3 3.366083 1_555
Cl5 Rb1 3.366083 1_555
Cl5 Rb6 3.440663 1_555
Cl5 Rb4 3.440663 1_555
Cl6 Nd2 2.766224 1_655
Cl6 Rb7 3.366083 1_655
Cl6 Rb2 3.366083 1_655
Cl6 Rb0 3.440663 1_555
Cl6 Rb5 3.440663 1_555
Cl7 Nd3 2.766224 1_455
Cl7 Rb6 3.366083 1_465
Cl7 Rb4 3.366083 1_455
Cl7 Rb3 3.440663 1_565
Cl7 Rb1 3.440663 1_555
Cl8 Nd0 2.784671 1_555
Cl8 Rb7 3.271727 1_665
Cl8 Rb2 3.271727 1_655
Cl8 Rb6 3.311455 1_565
Cl8 Rb4 3.311455 1_555
Cl9 Nd1 2.784671 1_555
Cl9 Rb4 3.271727 1_455
Cl9 Rb6 3.271727 1_455
Cl9 Rb7 3.311455 1_555
Cl9 Rb2 3.311455 1_555
Cl10 Nd2 2.784671 1_555
Cl10 Rb5 3.271727 1_555
Cl10 Rb0 3.271727 1_555
Cl10 Rb1 3.311455 1_556
Cl10 Rb3 3.311455 1_556
Cl11 Nd3 2.784671 1_555
Cl11 Rb3 3.271727 1_565
Cl11 Rb1 3.271727 1_555
Cl11 Rb5 3.311455 1_564
Cl11 Rb0 3.311455 1_554
Cl12 Nd0 2.856972 1_545
Cl12 Nd1 2.867291 1_555
Cl12 Rb7 3.503805 1_655
Cl12 Rb5 3.506792 1_555
Cl13 Nd1 2.856972 1_565
Cl13 Nd0 2.867291 1_555
Cl13 Rb6 3.503805 1_465
Cl13 Rb3 3.506792 1_565
Cl14 Nd2 2.856972 1_565
Cl14 Nd3 2.867291 1_456
Cl14 Rb5 3.503805 1_565
Cl14 Rb7 3.506792 1_565
Cl15 Nd1 2.856972 1_555
Cl15 Nd0 2.867291 1_555
Cl15 Rb4 3.503805 1_455
Cl15 Rb1 3.506792 1_555
Cl16 Nd3 2.856972 1_545
Cl16 Nd2 2.867291 1_654
Cl16 Rb3 3.503805 1_555
Cl16 Rb6 3.506792 1_555
Cl17 Nd0 2.856972 1_555
Cl17 Nd1 2.867291 1_555
Cl17 Rb2 3.503805 1_655
Cl17 Rb0 3.506792 1_555
Cl18 Nd3 2.856972 1_555
Cl18 Nd2 2.867291 1_654
Cl18 Rb1 3.503805 1_555
Cl18 Rb4 3.506792 1_555
Cl19 Nd2 2.856972 1_555
Cl19 Nd3 2.867291 1_456
Cl19 Rb0 3.503805 1_555
Cl19 Rb2 3.506792 1_555
