# generated using pymatgen
data_ErCo3Ni2
_symmetry_space_group_name_H-M   'P 1'
_cell_length_a   4.02729000
_cell_length_b   4.81456200
_cell_length_c   4.81288765
_cell_angle_alpha   120.01150259
_cell_angle_beta   90.00000000
_cell_angle_gamma   90.00000000
_symmetry_Int_Tables_number   1
_chemical_formula_structural   ErCo3Ni2
_chemical_formula_sum   'Er1 Co3 Ni2'
_cell_volume   80.80824842
_cell_formula_units_Z   1
loop_
 _symmetry_equiv_pos_site_id
 _symmetry_equiv_pos_as_xyz
  1  'x, y, z'
loop_
 _atom_site_type_symbol
 _atom_site_label
 _atom_site_symmetry_multiplicity
 _atom_site_fract_x
 _atom_site_fract_y
 _atom_site_fract_z
 _atom_site_occupancy
  Er  Er0  1  0.00000000  0.99997100  0.00000000  1
  Co  Co0  1  0.50000000  0.50000600  0.00000000  1
  Co  Co1  1  0.50000000  0.49999700  0.50001000  1
  Co  Co2  1  0.50000000  0.99998800  0.49999000  1
  Ni  Ni0  1  0.00000000  0.33334400  0.66675000  1
  Ni  Ni1  1  0.00000000  0.66659300  0.33325000  1
loop_
_geom_bond_atom_site_label_1
_geom_bond_atom_site_label_2
_geom_bond_distance
_geom_bond_site_symmetry_2
Er0 Ni0 2.778747 1_565
Er0 Ni1 2.778747 1_554
Er0 Ni1 2.779181 1_565
Er0 Ni0 2.779184 1_564
Er0 Ni0 2.779201 1_554
Er0 Ni1 2.779205 1_555
Co0 Co1 2.406374 1_554
Co0 Co2 2.406377 1_555
Co0 Co2 2.406511 1_544
Co0 Co1 2.406514 1_555
Co0 Ni0 2.446156 1_554
Co0 Ni0 2.446156 1_654
Co0 Ni1 2.446156 1_655
Co0 Ni1 2.446156 1_555
Co0 Er0 3.138305 1_555
Co0 Er0 3.138305 1_655
Co0 Er0 3.138563 1_545
Co0 Er0 3.138563 1_645
Co1 Co2 2.407276 1_545
Co1 Co2 2.407286 1_555
Co1 Ni1 2.446681 1_555
Co1 Ni1 2.446681 1_655
Co1 Ni0 2.446769 1_655
Co1 Ni0 2.446769 1_555
Co1 Er0 3.137726 1_556
Co1 Er0 3.137726 1_656
Co1 Er0 3.137859 1_645
Co1 Er0 3.137859 1_545
Co2 Ni0 2.446681 1_565
Co2 Ni0 2.446681 1_665
Co2 Ni1 2.446773 1_555
Co2 Ni1 2.446773 1_655
Co2 Er0 3.137724 1_655
Co2 Er0 3.137724 1_555
Co2 Er0 3.137860 1_556
Co2 Er0 3.137860 1_656
