# generated using pymatgen
data_H5PbC2SBrN6
_symmetry_space_group_name_H-M   'P 1'
_cell_length_a   11.78509900
_cell_length_b   7.76733000
_cell_length_c   9.98920659
_cell_angle_alpha   76.50929016
_cell_angle_beta   90.00000000
_cell_angle_gamma   90.00000000
_symmetry_Int_Tables_number   1
_chemical_formula_structural   H5PbC2SBrN6
_chemical_formula_sum   'H20 Pb4 C8 S4 Br4 N24'
_cell_volume   889.16918360
_cell_formula_units_Z   4
loop_
 _symmetry_equiv_pos_site_id
 _symmetry_equiv_pos_as_xyz
  1  'x, y, z'
loop_
 _atom_site_type_symbol
 _atom_site_label
 _atom_site_symmetry_multiplicity
 _atom_site_fract_x
 _atom_site_fract_y
 _atom_site_fract_z
 _atom_site_occupancy
  H  H0  1  0.39737800  0.36059500  0.05401000  1
  H  H1  1  0.60262200  0.63940500  0.94599000  1
  H  H2  1  0.89737800  0.13940500  0.94599000  1
  H  H3  1  0.10262200  0.86059500  0.05401000  1
  H  H4  1  0.56903300  0.83588600  0.84552400  1
  H  H5  1  0.43096700  0.16411400  0.15447600  1
  H  H6  1  0.06903300  0.66411400  0.15447600  1
  H  H7  1  0.93096700  0.33588600  0.84552400  1
  H  H8  1  0.61465400  0.83576900  0.21312200  1
  H  H9  1  0.38534600  0.16423100  0.78687800  1
  H  H10  1  0.11465400  0.66423100  0.78687800  1
  H  H11  1  0.88534600  0.33576900  0.21312200  1
  H  H12  1  0.89974200  0.78324100  0.05896700  1
  H  H13  1  0.10025800  0.21675900  0.94103300  1
  H  H14  1  0.39974200  0.71675900  0.94103300  1
  H  H15  1  0.60025800  0.28324100  0.05896700  1
  H  H16  1  0.71973600  0.78783300  0.09674000  1
  H  H17  1  0.28026400  0.21216700  0.90326000  1
  H  H18  1  0.21973600  0.71216700  0.90326000  1
  H  H19  1  0.78026400  0.28783300  0.09674000  1
  Pb  Pb0  1  0.65694700  0.57085600  0.64919200  1
  Pb  Pb1  1  0.34305300  0.42914400  0.35080800  1
  Pb  Pb2  1  0.15694700  0.92914400  0.35080800  1
  Pb  Pb3  1  0.84305300  0.07085600  0.64919200  1
  C  C0  1  0.89335100  0.87463700  0.24067600  1
  C  C1  1  0.10664900  0.12536300  0.75932400  1
  C  C2  1  0.39335100  0.62536300  0.75932400  1
  C  C3  1  0.60664900  0.37463700  0.24067600  1
  C  C4  1  0.76373000  0.91098000  0.39056800  1
  C  C5  1  0.23627000  0.08902000  0.60943200  1
  C  C6  1  0.26373000  0.58902000  0.60943200  1
  C  C7  1  0.73627000  0.41098000  0.39056800  1
  S  S0  1  0.63404300  0.91998800  0.46648500  1
  S  S1  1  0.36595700  0.08001200  0.53351500  1
  S  S2  1  0.13404300  0.58001200  0.53351500  1
  S  S3  1  0.86595700  0.41998800  0.46648500  1
  Br  Br0  1  0.36938800  0.81512200  0.14496300  1
  Br  Br1  1  0.63061200  0.18487800  0.85503700  1
  Br  Br2  1  0.86938800  0.68487800  0.85503700  1
  Br  Br3  1  0.13061200  0.31512200  0.14496300  1
  N  N0  1  0.94668900  0.92148300  0.34434900  1
  N  N1  1  0.05331100  0.07851700  0.65565100  1
  N  N2  1  0.44668900  0.57851700  0.65565100  1
  N  N3  1  0.55331100  0.42148300  0.34434900  1
  N  N4  1  0.86569200  0.94391700  0.43747200  1
  N  N5  1  0.13430800  0.05608300  0.56252800  1
  N  N6  1  0.36569200  0.55608300  0.56252800  1
  N  N7  1  0.63430800  0.44391700  0.43747200  1
  N  N8  1  0.94359900  0.84593100  0.12368600  1
  N  N9  1  0.05640100  0.15406900  0.87631400  1
  N  N10  1  0.44359900  0.65406900  0.87631400  1
  N  N11  1  0.55640100  0.34593100  0.12368600  1
  N  N12  1  0.77978200  0.86708700  0.26491100  1
  N  N13  1  0.22021800  0.13291300  0.73508900  1
  N  N14  1  0.27978200  0.63291300  0.73508900  1
  N  N15  1  0.72021800  0.36708700  0.26491100  1
  N  N16  1  0.44023500  0.29887400  0.14096600  1
  N  N17  1  0.55976500  0.70112600  0.85903400  1
  N  N18  1  0.94023500  0.20112600  0.85903400  1
  N  N19  1  0.05976500  0.79887400  0.14096600  1
  N  N20  1  0.69610900  0.82826100  0.18155100  1
  N  N21  1  0.30389100  0.17173900  0.81844900  1
  N  N22  1  0.19610900  0.67173900  0.81844900  1
  N  N23  1  0.80389100  0.32826100  0.18155100  1
loop_
_geom_bond_atom_site_label_1
_geom_bond_atom_site_label_2
_geom_bond_distance
_geom_bond_site_symmetry_2
H0 N16 1.022322 1_555
H1 N17 1.022322 1_555
H2 N18 1.022322 1_555
H3 N19 1.022322 1_555
H4 N17 1.029499 1_555
H5 N16 1.029499 1_555
H6 N19 1.029499 1_555
H7 N18 1.029499 1_555
H8 N20 1.016343 1_555
H9 N21 1.016343 1_555
H10 N22 1.016343 1_555
H11 N23 1.016343 1_555
H12 N8 1.033962 1_555
H13 N9 1.033962 1_555
H14 N10 1.033962 1_555
H15 N11 1.033962 1_555
H16 N20 1.008961 1_555
H17 N21 1.008961 1_555
H18 N22 1.008961 1_555
H19 N23 1.008961 1_555
Pb0 S0 2.906645 1_555
Pb1 S1 2.906645 1_555
Pb2 S2 2.906645 1_555
Pb3 S3 2.906645 1_555
C0 N0 1.332606 1_555
C0 N12 1.358968 1_555
C0 N8 1.373928 1_555
C1 N1 1.332606 1_555
C1 N13 1.358968 1_555
C1 N9 1.373928 1_555
C2 N2 1.332606 1_555
C2 N14 1.358968 1_555
C2 N10 1.373928 1_555
C3 N3 1.332606 1_555
C3 N15 1.358968 1_555
C3 N11 1.373928 1_555
C4 N4 1.335972 1_555
C4 N12 1.388254 1_555
C4 S0 1.714840 1_555
C5 N5 1.335972 1_555
C5 N13 1.388254 1_555
C5 S1 1.714840 1_555
C6 N6 1.335972 1_555
C6 N14 1.388254 1_555
C6 S2 1.714840 1_555
C7 N7 1.335972 1_555
C7 N15 1.388254 1_555
C7 S3 1.714840 1_555
Br0 Pb1 3.230520 1_555
Br1 Pb0 3.230520 1_555
Br2 Pb3 3.230520 1_565
Br3 Pb2 3.230520 1_545
N0 N4 1.372039 1_555
N0 Pb2 2.479827 1_655
N1 N5 1.372039 1_555
N1 Pb3 2.479827 1_455
N2 N6 1.372039 1_555
N2 Pb0 2.479827 1_555
N3 N7 1.372039 1_555
N3 Pb1 2.479827 1_555
N4 Pb3 2.547377 1_565
N5 Pb2 2.547377 1_545
N6 Pb1 2.547377 1_555
N7 Pb0 2.547377 1_555
N10 N17 1.417107 1_555
N11 N16 1.417107 1_555
N12 N20 1.368900 1_555
N13 N21 1.368900 1_555
N14 N22 1.368900 1_555
N15 N23 1.368900 1_555
N16 Pb1 2.778313 1_555
N17 Pb0 2.778313 1_555
N18 N9 1.417107 1_655
N18 Pb3 2.778313 1_555
N19 N8 1.417107 1_455
N19 Pb2 2.778313 1_555
