# generated using pymatgen
data_Mg6GaCo
_symmetry_space_group_name_H-M   'P 1'
_cell_length_a   4.81138000
_cell_length_b   6.06236700
_cell_length_c   10.41630500
_cell_angle_alpha   90.00000000
_cell_angle_beta   90.00000000
_cell_angle_gamma   90.00000000
_symmetry_Int_Tables_number   1
_chemical_formula_structural   Mg6GaCo
_chemical_formula_sum   'Mg12 Ga2 Co2'
_cell_volume   303.82644387
_cell_formula_units_Z   2
loop_
 _symmetry_equiv_pos_site_id
 _symmetry_equiv_pos_as_xyz
  1  'x, y, z'
loop_
 _atom_site_type_symbol
 _atom_site_label
 _atom_site_symmetry_multiplicity
 _atom_site_fract_x
 _atom_site_fract_y
 _atom_site_fract_z
 _atom_site_occupancy
  Mg  Mg0  1  0.00000000  0.25449000  0.08673000  1
  Mg  Mg1  1  0.00000000  0.74551000  0.08673000  1
  Mg  Mg2  1  0.00000000  0.50000000  0.83409100  1
  Mg  Mg3  1  0.50000000  0.23580100  0.90938700  1
  Mg  Mg4  1  0.50000000  0.76419900  0.90938700  1
  Mg  Mg5  1  0.50000000  0.50000000  0.66675200  1
  Mg  Mg6  1  0.00000000  0.75449000  0.58673000  1
  Mg  Mg7  1  0.00000000  0.24551000  0.58673000  1
  Mg  Mg8  1  0.00000000  0.00000000  0.33409100  1
  Mg  Mg9  1  0.50000000  0.73580100  0.40938700  1
  Mg  Mg10  1  0.50000000  0.26419900  0.40938700  1
  Mg  Mg11  1  0.50000000  0.00000000  0.16675200  1
  Ga  Ga0  1  0.50000000  0.50000000  0.17441900  1
  Ga  Ga1  1  0.50000000  0.00000000  0.67441900  1
  Co  Co0  1  0.00000000  0.50000000  0.33250400  1
  Co  Co1  1  0.00000000  0.00000000  0.83250400  1
loop_
_geom_bond_atom_site_label_1
_geom_bond_atom_site_label_2
_geom_bond_distance
_geom_bond_site_symmetry_2
Mg0 Mg1 2.976743 1_555
Mg0 Mg11 2.976977 1_555
Mg0 Mg11 2.976977 1_455
Mg0 Mg8 3.003177 1_555
Mg0 Mg2 3.023307 1_554
Mg0 Mg3 3.035218 1_554
Mg0 Mg3 3.035218 1_454
Mg0 Mg1 3.085624 1_545
Mg1 Mg11 2.976977 1_565
Mg1 Mg11 2.976977 1_465
Mg1 Mg8 3.003177 1_565
Mg1 Mg2 3.023307 1_554
Mg1 Mg4 3.035218 1_554
Mg1 Mg4 3.035218 1_454
Mg2 Mg5 2.970788 1_455
Mg2 Mg5 2.970788 1_555
Mg2 Mg4 2.994634 1_455
Mg2 Mg3 2.994634 1_555
Mg2 Mg4 2.994634 1_555
Mg2 Mg3 2.994634 1_455
Mg2 Mg6 3.003177 1_555
Mg2 Mg7 3.003177 1_555
Mg3 Mg4 2.859024 1_545
Mg3 Mg5 2.992140 1_555
Mg3 Mg4 3.203343 1_555
Mg4 Mg5 2.992140 1_555
Mg5 Mg7 2.976977 1_655
Mg5 Mg6 2.976977 1_555
Mg5 Mg6 2.976977 1_655
Mg5 Mg7 2.976977 1_555
Mg5 Mg9 3.038117 1_555
Mg6 Mg7 2.976743 1_565
Mg6 Mg8 3.023307 1_565
Mg6 Mg9 3.035218 1_455
Mg6 Mg9 3.035218 1_555
Mg6 Mg7 3.085624 1_555
Mg7 Mg8 3.023307 1_555
Mg8 Mg9 2.994634 1_545
Mg8 Mg9 2.994634 1_445
Mg10 Mg9 2.859024 1_555
Mg10 Mg11 2.992140 1_555
Mg10 Mg8 2.994634 1_655
Mg10 Mg8 2.994634 1_555
Mg10 Mg7 3.035218 1_555
Mg10 Mg7 3.035218 1_655
Mg10 Mg5 3.038117 1_555
Mg10 Mg9 3.203343 1_545
Mg11 Mg8 2.970788 1_555
Mg11 Mg8 2.970788 1_655
Mg11 Mg9 2.992140 1_545
Mg11 Mg3 3.038117 1_554
Mg11 Mg4 3.038117 1_544
Ga0 Mg9 2.834388 1_555
Ga0 Mg10 2.834388 1_555
Ga0 Mg1 2.972690 1_655
Ga0 Mg1 2.972690 1_555
Ga0 Mg0 2.972690 1_555
Ga0 Mg0 2.972690 1_655
Ga0 Mg11 3.032235 1_555
Ga0 Mg11 3.032235 1_565
Ga0 Mg4 3.191639 1_554
Ga0 Mg3 3.191639 1_554
Ga1 Mg3 2.834388 1_555
Ga1 Mg4 2.834388 1_545
Ga1 Mg7 2.972690 1_655
Ga1 Mg6 2.972690 1_645
Ga1 Mg6 2.972690 1_545
Ga1 Mg7 2.972690 1_555
Ga1 Mg5 3.032235 1_545
Ga1 Mg5 3.032235 1_555
Ga1 Mg9 3.191639 1_545
Ga1 Mg10 3.191639 1_555
Co0 Mg9 2.910703 1_455
Co0 Mg9 2.910703 1_555
Co0 Mg10 2.910703 1_455
Co0 Mg10 2.910703 1_555
Co0 Ga0 2.915277 1_555
Co0 Ga0 2.915277 1_455
Co0 Mg1 2.961274 1_555
Co0 Mg0 2.961274 1_555
Co0 Mg8 3.031229 1_565
Co0 Mg8 3.031229 1_555
Co0 Mg7 3.064748 1_555
Co0 Mg6 3.064748 1_555
Co1 Mg4 2.910703 1_445
Co1 Mg4 2.910703 1_545
Co1 Mg3 2.910703 1_455
Co1 Mg3 2.910703 1_555
Co1 Ga1 2.915277 1_555
Co1 Ga1 2.915277 1_455
Co1 Mg6 2.961274 1_545
Co1 Mg7 2.961274 1_555
Co1 Mg2 3.031229 1_545
Co1 Mg2 3.031229 1_555
Co1 Mg1 3.064748 1_546
Co1 Mg0 3.064748 1_556
