# generated using pymatgen
data_Si4Te2H44Pd(C8Cl)2
_symmetry_space_group_name_H-M   'P 1'
_cell_length_a   6.82894988
_cell_length_b   13.06753181
_cell_length_c   20.87473704
_cell_angle_alpha   95.15021471
_cell_angle_beta   90.00000000
_cell_angle_gamma   105.14689047
_symmetry_Int_Tables_number   1
_chemical_formula_structural   Si4Te2H44Pd(C8Cl)2
_chemical_formula_sum   'Si8 Te4 H88 Pd2 C32 Cl4'
_cell_volume   1790.30167981
_cell_formula_units_Z   2
loop_
 _symmetry_equiv_pos_site_id
 _symmetry_equiv_pos_as_xyz
  1  'x, y, z'
loop_
 _atom_site_type_symbol
 _atom_site_label
 _atom_site_symmetry_multiplicity
 _atom_site_fract_x
 _atom_site_fract_y
 _atom_site_fract_z
 _atom_site_occupancy
  Si  Si0  1  0.39031840  0.32518244  0.14119836  1
  Si  Si1  1  0.06513597  0.67481756  0.35880164  1
  Si  Si2  1  0.60968160  0.67481756  0.85880164  1
  Si  Si3  1  0.93486403  0.32518244  0.64119836  1
  Si  Si4  1  0.39129383  0.15232759  0.88831461  1
  Si  Si5  1  0.23896624  0.84767241  0.61168539  1
  Si  Si6  1  0.60870617  0.84767241  0.11168539  1
  Si  Si7  1  0.76103376  0.15232759  0.38831461  1
  Te  Te0  1  0.69850770  0.32522171  0.00642675  1
  Te  Te1  1  0.37328599  0.67477829  0.49357325  1
  Te  Te2  1  0.30149230  0.67477829  0.99357325  1
  Te  Te3  1  0.62671401  0.32522171  0.50642675  1
  H  H0  1  0.31932820  0.34052410  0.02440413  1
  H  H1  1  0.97880410  0.65947590  0.47559587  1
  H  H2  1  0.68067180  0.65947590  0.97559587  1
  H  H3  1  0.02119590  0.34052410  0.52440413  1
  H  H4  1  0.49332842  0.45741386  0.06047020  1
  H  H5  1  0.03591455  0.54258614  0.43952980  1
  H  H6  1  0.50667158  0.54258614  0.93952980  1
  H  H7  1  0.96408545  0.45741386  0.56047020  1
  H  H8  1  0.68192745  0.31321070  0.87923867  1
  H  H9  1  0.36871675  0.68678930  0.62076133  1
  H  H10  1  0.31807255  0.68678930  0.12076133  1
  H  H11  1  0.63128325  0.31321070  0.37923867  1
  H  H12  1  0.46222170  0.35044291  0.90868691  1
  H  H13  1  0.11177879  0.64955709  0.59131309  1
  H  H14  1  0.53777830  0.64955709  0.09131309  1
  H  H15  1  0.88822121  0.35044291  0.40868691  1
  H  H16  1  0.58558725  0.28957077  0.23262180  1
  H  H17  1  0.29601647  0.71042923  0.26737820  1
  H  H18  1  0.41441275  0.71042923  0.76737820  1
  H  H19  1  0.70398353  0.28957077  0.73262180  1
  H  H20  1  0.66616413  0.23642588  0.15882488  1
  H  H21  1  0.42973824  0.76357412  0.34117512  1
  H  H22  1  0.33383587  0.76357412  0.84117512  1
  H  H23  1  0.57026176  0.23642588  0.65882488  1
  H  H24  1  0.74784715  0.37586322  0.18253670  1
  H  H25  1  0.37198393  0.62413678  0.31746330  1
  H  H26  1  0.25215285  0.62413678  0.81746330  1
  H  H27  1  0.62801607  0.37586322  0.68253670  1
  H  H28  1  0.42956827  0.50207158  0.20227880  1
  H  H29  1  0.92749669  0.49792842  0.29772120  1
  H  H30  1  0.57043173  0.49792842  0.79772120  1
  H  H31  1  0.07250331  0.50207158  0.70227880  1
  H  H32  1  0.18923676  0.45957778  0.16157052  1
  H  H33  1  0.72965898  0.54042222  0.33842948  1
  H  H34  1  0.81076324  0.54042222  0.83842948  1
  H  H35  1  0.27034102  0.45957778  0.66157052  1
  H  H36  1  0.23151411  0.40357943  0.23338228  1
  H  H37  1  0.82793468  0.59642057  0.26661772  1
  H  H38  1  0.76848589  0.59642057  0.76661772  1
  H  H39  1  0.17206532  0.40357943  0.73338228  1
  H  H40  1  0.14175983  0.17630826  0.18521125  1
  H  H41  1  0.96545157  0.82369174  0.31478875  1
  H  H42  1  0.85824017  0.82369174  0.81478875  1
  H  H43  1  0.03454843  0.17630826  0.68521125  1
  H  H44  1  0.04478506  0.20648353  0.11230193  1
  H  H45  1  0.83830153  0.79351647  0.38769807  1
  H  H46  1  0.95521494  0.79351647  0.88769807  1
  H  H47  1  0.16169847  0.20648353  0.61230193  1
  H  H48  1  0.22763348  0.13108632  0.11024606  1
  H  H49  1  0.09654716  0.86891368  0.38975394  1
  H  H50  1  0.77236652  0.86891368  0.88975394  1
  H  H51  1  0.90345284  0.13108632  0.61024606  1
  H  H52  1  0.64837910  0.08000398  0.82782047  1
  H  H53  1  0.56837511  0.91999602  0.67217953  1
  H  H54  1  0.35162090  0.91999602  0.17217953  1
  H  H55  1  0.43162489  0.08000398  0.32782047  1
  H  H56  1  0.66523307  0.06449860  0.91118021  1
  H  H57  1  0.60073447  0.93550140  0.58881979  1
  H  H58  1  0.33476693  0.93550140  0.08881979  1
  H  H59  1  0.39926553  0.06449860  0.41118021  1
  H  H60  1  0.46705738  0.97746022  0.86210440  1
  H  H61  1  0.48959716  0.02253978  0.63789560  1
  H  H62  1  0.53294262  0.02253978  0.13789560  1
  H  H63  1  0.51040284  0.97746022  0.36210440  1
  H  H64  1  0.10400691  0.02670079  0.93556295  1
  H  H65  1  0.07730612  0.97329921  0.56443705  1
  H  H66  1  0.89599309  0.97329921  0.06443705  1
  H  H67  1  0.92269388  0.02670079  0.43556295  1
  H  H68  1  0.28799603  0.09011811  0.99642580  1
  H  H69  1  0.19787792  0.90988189  0.50357420  1
  H  H70  1  0.71200397  0.90988189  0.00357420  1
  H  H71  1  0.80212208  0.09011811  0.49642580  1
  H  H72  1  0.11978753  0.15957257  0.96696241  1
  H  H73  1  0.96021496  0.84042743  0.53303759  1
  H  H74  1  0.88021247  0.84042743  0.03303759  1
  H  H75  1  0.03978504  0.15957257  0.46696241  1
  H  H76  1  0.14775144  0.07499112  0.79761468  1
  H  H77  1  0.07276032  0.92500888  0.70238532  1
  H  H78  1  0.85224856  0.92500888  0.20238532  1
  H  H79  1  0.92723968  0.07499112  0.29761468  1
  H  H80  1  0.13822750  0.20741133  0.82311086  1
  H  H81  1  0.93081617  0.79258867  0.67688914  1
  H  H82  1  0.86177250  0.79258867  0.17688914  1
  H  H83  1  0.06918383  0.20741133  0.32311086  1
  H  H84  1  0.33807717  0.18522261  0.77372714  1
  H  H85  1  0.15285456  0.81477739  0.72627286  1
  H  H86  1  0.66192283  0.81477739  0.22627286  1
  H  H87  1  0.84714544  0.18522261  0.27372714  1
  Pd  Pd0  1  0.00000000  0.50000000  0.00000000  1
  Pd  Pd1  1  0.50000000  0.50000000  0.50000000  1
  C  C0  1  0.45175136  0.37018863  0.05728029  1
  C  C1  1  0.08156273  0.62981137  0.44271971  1
  C  C2  1  0.54824864  0.62981137  0.94271971  1
  C  C3  1  0.91843727  0.37018863  0.55728029  1
  C  C4  1  0.55320709  0.29297178  0.91163194  1
  C  C5  1  0.26023531  0.70702822  0.58836806  1
  C  C6  1  0.44679291  0.70702822  0.08836806  1
  C  C7  1  0.73976469  0.29297178  0.41163194  1
  C  C8  1  0.61939629  0.30465377  0.18235356  1
  C  C9  1  0.31474252  0.69534623  0.31764644  1
  C  C10  1  0.38060371  0.69534623  0.81764644  1
  C  C11  1  0.68525748  0.30465377  0.68235356  1
  C  C12  1  0.30139280  0.43270858  0.18872688  1
  C  C13  1  0.86868422  0.56729142  0.31127312  1
  C  C14  1  0.69860720  0.56729142  0.81127312  1
  C  C15  1  0.13131578  0.43270858  0.68872688  1
  C  C16  1  0.18212456  0.19772348  0.13624662  1
  C  C17  1  0.98440109  0.80227652  0.36375338  1
  C  C18  1  0.81787544  0.80227652  0.86375338  1
  C  C19  1  0.01559891  0.19772348  0.63624662  1
  C  C20  1  0.55905472  0.06039705  0.87088632  1
  C  C21  1  0.49865766  0.93960295  0.62911368  1
  C  C22  1  0.44094528  0.93960295  0.12911368  1
  C  C23  1  0.50134234  0.06039705  0.37088632  1
  C  C24  1  0.20982029  0.10288186  0.95305217  1
  C  C25  1  0.10693843  0.89711814  0.54694783  1
  C  C26  1  0.79017971  0.89711814  0.04694783  1
  C  C27  1  0.89306157  0.10288186  0.45305217  1
  C  C28  1  0.24056895  0.15578883  0.81351631  1
  C  C29  1  0.08478012  0.84421117  0.68648369  1
  C  C30  1  0.75943105  0.84421117  0.18648369  1
  C  C31  1  0.91521988  0.15578883  0.31351631  1
  Cl  Cl0  1  0.90298179  0.58270274  0.09485357  1
  Cl  Cl1  1  0.32027905  0.41729726  0.40514643  1
  Cl  Cl2  1  0.09701821  0.41729726  0.90514643  1
  Cl  Cl3  1  0.67972095  0.58270274  0.59485357  1
loop_
_geom_bond_atom_site_label_1
_geom_bond_atom_site_label_2
_geom_bond_distance
_geom_bond_site_symmetry_2
Pd0 Te0 2.659116 1_455
Pd0 Te2 2.659116 1_554
Pd1 Te1 2.659116 1_555
Pd1 Te3 2.659116 1_555
C0 H4 1.096123 1_555
C0 H0 1.099123 1_555
C0 Si0 1.909608 1_555
C0 Te0 2.171902 1_555
C1 H5 1.096123 1_555
C1 H1 1.099123 1_455
C1 Si1 1.909608 1_555
C1 Te1 2.171902 1_555
C2 H6 1.096123 1_555
C2 H2 1.099123 1_555
C2 Si2 1.909608 1_555
C2 Te2 2.171902 1_555
C3 H7 1.096123 1_555
C3 H3 1.099123 1_655
C3 Si3 1.909608 1_555
C3 Te3 2.171902 1_555
C4 H12 1.098175 1_555
C4 H8 1.100225 1_555
C4 Si4 1.901232 1_555
C4 Te0 2.170169 1_556
C5 H13 1.098175 1_555
C5 H9 1.100225 1_555
C5 Si5 1.901232 1_555
C5 Te1 2.170169 1_555
C6 H14 1.098175 1_555
C6 H10 1.100225 1_555
C6 Si6 1.901232 1_555
C6 Te2 2.170169 1_554
C7 H15 1.098175 1_555
C7 H11 1.100225 1_555
C7 Si7 1.901232 1_555
C7 Te3 2.170169 1_555
C8 H16 1.098458 1_555
C8 H24 1.099161 1_555
C8 H20 1.099235 1_555
C8 Si0 1.875615 1_555
C9 H17 1.098458 1_555
C9 H25 1.099161 1_555
C9 H21 1.099235 1_555
C9 Si1 1.875615 1_555
C10 H18 1.098458 1_555
C10 H26 1.099161 1_555
C10 H22 1.099235 1_555
C10 Si2 1.875615 1_555
C11 H19 1.098458 1_555
C11 H27 1.099161 1_555
C11 H23 1.099235 1_555
C11 Si3 1.875615 1_555
C12 H28 1.098684 1_555
C12 H32 1.098873 1_555
C12 H36 1.100149 1_555
C12 Si0 1.876983 1_555
C13 H29 1.098684 1_555
C13 H33 1.098873 1_555
C13 H37 1.100149 1_555
C13 Si1 1.876983 1_655
C14 H30 1.098684 1_555
C14 H34 1.098873 1_555
C14 H38 1.100149 1_555
C14 Si2 1.876983 1_555
C15 H31 1.098684 1_555
C15 H35 1.098873 1_555
C15 H39 1.100149 1_555
C15 Si3 1.876983 1_455
C16 H48 1.098181 1_555
C16 H44 1.099522 1_555
C16 H40 1.100033 1_555
C16 Si0 1.880896 1_555
C17 H49 1.098181 1_655
C17 H45 1.099522 1_555
C17 H41 1.100033 1_555
C17 Si1 1.880896 1_655
C18 H50 1.098181 1_555
C18 H46 1.099522 1_555
C18 H42 1.100033 1_555
C18 Si2 1.880896 1_555
C19 H51 1.098181 1_455
C19 H47 1.099522 1_555
C19 H43 1.100033 1_555
C19 Si3 1.880896 1_455
C20 H52 1.097995 1_555
C20 H56 1.098959 1_555
C20 H60 1.100630 1_545
C20 Si4 1.878487 1_555
C21 H53 1.097995 1_555
C21 H57 1.098959 1_555
C21 H61 1.100630 1_565
C21 Si5 1.878486 1_555
C22 H54 1.097995 1_555
C22 H58 1.098959 1_555
C22 H62 1.100630 1_565
C22 Si6 1.878487 1_555
C23 H55 1.097995 1_555
C23 H59 1.098959 1_555
C23 H63 1.100630 1_545
C23 Si7 1.878486 1_555
C24 H64 1.097850 1_555
C24 H68 1.098290 1_555
C24 H72 1.100241 1_555
C24 Si4 1.875586 1_555
C25 H65 1.097850 1_555
C25 H69 1.098290 1_555
C25 H73 1.100241 1_455
C25 Si5 1.875586 1_555
C26 H66 1.097850 1_555
C26 H70 1.098290 1_555
C26 H74 1.100241 1_555
C26 Si6 1.875586 1_555
C27 H67 1.097850 1_555
C27 H71 1.098290 1_555
C27 H75 1.100241 1_655
C27 Si7 1.875586 1_555
C28 H84 1.097598 1_555
C28 H80 1.098057 1_555
C28 H76 1.101845 1_555
C28 Si4 1.880545 1_555
C29 H85 1.097598 1_555
C29 H81 1.098057 1_455
C29 H77 1.101845 1_555
C29 Si5 1.880545 1_555
C30 H86 1.097598 1_555
C30 H82 1.098057 1_555
C30 H78 1.101845 1_555
C30 Si6 1.880545 1_555
C31 H87 1.097598 1_555
C31 H83 1.098057 1_655
C31 H79 1.101845 1_555
C31 Si7 1.880545 1_555
Cl0 Pd0 2.348931 1_655
Cl1 Pd1 2.348931 1_555
Cl2 Pd0 2.348931 1_556
Cl3 Pd1 2.348931 1_555
