# generated using pymatgen
data_ThH8(CO3)4
_symmetry_space_group_name_H-M   'P 1'
_cell_length_a   8.09854100
_cell_length_b   8.07971120
_cell_length_c   10.60903183
_cell_angle_alpha   69.74773674
_cell_angle_beta   67.56212931
_cell_angle_gamma   59.92288165
_symmetry_Int_Tables_number   1
_chemical_formula_structural   ThH8(CO3)4
_chemical_formula_sum   'Th2 H16 C8 O24'
_cell_volume   544.73290310
_cell_formula_units_Z   2
loop_
 _symmetry_equiv_pos_site_id
 _symmetry_equiv_pos_as_xyz
  1  'x, y, z'
loop_
 _atom_site_type_symbol
 _atom_site_label
 _atom_site_symmetry_multiplicity
 _atom_site_fract_x
 _atom_site_fract_y
 _atom_site_fract_z
 _atom_site_occupancy
  Th  Th0  1  0.23053400  0.25000000  0.75000000  1
  Th  Th1  1  0.76946600  0.75000000  0.25000000  1
  H  H0  1  0.40051800  0.55796600  0.61848600  1
  H  H1  1  0.57697000  0.94203400  0.88151400  1
  H  H2  1  0.59948200  0.44203400  0.38151400  1
  H  H3  1  0.42303000  0.05796600  0.11848600  1
  H  H4  1  0.45946800  0.47114200  0.76174400  1
  H  H5  1  0.69235400  0.02885800  0.73825600  1
  H  H6  1  0.54053200  0.52885800  0.23825600  1
  H  H7  1  0.30764600  0.97114200  0.26174400  1
  H  H8  1  0.00581200  0.83007100  0.65664900  1
  H  H9  1  0.49253200  0.66992900  0.84335100  1
  H  H10  1  0.99418800  0.16992900  0.34335100  1
  H  H11  1  0.50746800  0.33007100  0.15664900  1
  H  H12  1  0.98677300  0.04703300  0.62456900  1
  H  H13  1  0.65837600  0.45296700  0.87543100  1
  H  H14  1  0.01322700  0.95296700  0.37543100  1
  H  H15  1  0.34162400  0.54703300  0.12456900  1
  C  C0  1  0.53839500  0.07859100  0.45714100  1
  C  C1  1  0.07412800  0.42140900  0.04285900  1
  C  C2  1  0.46160500  0.92140900  0.54285900  1
  C  C3  1  0.92587200  0.57859100  0.95714100  1
  C  C4  1  0.02829700  0.58273200  0.48900800  1
  C  C5  1  0.10003700  0.91726800  0.01099200  1
  C  C6  1  0.97170300  0.41726800  0.51099200  1
  C  C7  1  0.89996300  0.08273200  0.98900800  1
  O  O0  1  0.13034600  0.55914100  0.56385100  1
  O  O1  1  0.25333800  0.94085900  0.93614900  1
  O  O2  1  0.86965400  0.44085900  0.43614900  1
  O  O3  1  0.74666200  0.05914100  0.06385100  1
  O  O4  1  0.39627100  0.45692700  0.70203500  1
  O  O5  1  0.55523400  0.04307300  0.79796500  1
  O  O6  1  0.60372900  0.54307300  0.29796500  1
  O  O7  1  0.44476600  0.95692700  0.20203500  1
  O  O8  1  0.48201700  0.21884900  0.51469500  1
  O  O9  1  0.21556000  0.28115100  0.98530500  1
  O  O10  1  0.51798300  0.78115100  0.48530500  1
  O  O11  1  0.78444000  0.71884900  0.01469500  1
  O  O12  1  0.03516200  0.26846800  0.60293500  1
  O  O13  1  0.90656500  0.23153200  0.89706500  1
  O  O14  1  0.96483800  0.73153200  0.39706500  1
  O  O15  1  0.09343500  0.76846800  0.10293500  1
  O  O16  1  0.34971800  0.94419800  0.66288900  1
  O  O17  1  0.95680500  0.55580200  0.83711100  1
  O  O18  1  0.65028200  0.05580200  0.33711100  1
  O  O19  1  0.04319500  0.44419800  0.16288900  1
  O  O20  1  0.91572600  0.96402200  0.66776700  1
  O  O21  1  0.54751500  0.53597800  0.83223300  1
  O  O22  1  0.08427400  0.03597800  0.33223300  1
  O  O23  1  0.45248500  0.46402200  0.16776700  1
loop_
_geom_bond_atom_site_label_1
_geom_bond_atom_site_label_2
_geom_bond_distance
_geom_bond_site_symmetry_2
H0 O4 0.978371 1_555
H1 O5 0.978370 1_565
H2 O6 0.978371 1_555
H3 O7 0.978370 1_545
H4 O4 1.016451 1_555
H4 O21 1.547506 1_555
H5 O5 1.016444 1_555
H5 O20 1.547506 1_545
H6 O6 1.016451 1_555
H6 O23 1.547506 1_555
H7 O7 1.016444 1_555
H7 O22 1.547506 1_565
H8 O20 0.974048 1_455
H9 O21 0.974048 1_555
H10 O22 0.974048 1_655
H11 O23 0.974048 1_555
H12 O20 0.981657 1_545
H13 O21 0.981663 1_555
H14 O22 0.981657 1_565
H15 O23 0.981663 1_555
C0 O18 1.261267 1_555
C0 O8 1.270094 1_555
C1 O19 1.261265 1_555
C1 O9 1.270089 1_554
C2 O16 1.261267 1_555
C2 O10 1.270094 1_555
C3 O17 1.261265 1_555
C3 O11 1.270089 1_556
C4 O0 1.260181 1_555
C4 O14 1.269836 1_455
C5 O1 1.260181 1_554
C5 O15 1.269836 1_555
C6 O2 1.260181 1_555
C6 O12 1.269836 1_655
C7 O3 1.260181 1_556
C7 O13 1.269836 1_555
O0 Th0 2.564001 1_555
O1 Th0 2.564001 1_565
O2 Th1 2.564001 1_555
O3 Th1 2.564001 1_545
O4 Th0 2.448415 1_555
O5 Th0 2.448421 1_555
O6 Th1 2.448415 1_555
O7 Th1 2.448421 1_555
O8 Th0 2.546208 1_555
O9 Th0 2.546205 1_555
O10 Th1 2.546208 1_555
O11 Th1 2.546205 1_555
O12 Th0 2.539020 1_555
O13 Th0 2.539020 1_655
O14 Th1 2.539020 1_555
O15 Th1 2.539020 1_455
O16 Th0 2.529826 1_565
O17 Th0 2.529826 1_655
O18 Th1 2.529826 1_545
O19 Th1 2.529826 1_455
