# generated using pymatgen
data_Mn2(Co7B2)3
_symmetry_space_group_name_H-M   'P 1'
_cell_length_a   7.34468985
_cell_length_b   7.34468985
_cell_length_c   7.34468985
_cell_angle_alpha   60.00000000
_cell_angle_beta   60.00000000
_cell_angle_gamma   60.00000000
_symmetry_Int_Tables_number   1
_chemical_formula_structural   Mn2(Co7B2)3
_chemical_formula_sum   'Mn2 Co21 B6'
_cell_volume   280.15952097
_cell_formula_units_Z   1
loop_
 _symmetry_equiv_pos_site_id
 _symmetry_equiv_pos_as_xyz
  1  'x, y, z'
loop_
 _atom_site_type_symbol
 _atom_site_label
 _atom_site_symmetry_multiplicity
 _atom_site_fract_x
 _atom_site_fract_y
 _atom_site_fract_z
 _atom_site_occupancy
  Mn  Mn0  1  0.25000000  0.25000000  0.25000000  1
  Mn  Mn1  1  0.75000000  0.75000000  0.75000000  1
  Co  Co0  1  0.00000000  0.00000000  0.00000000  1
  Co  Co1  1  0.86261900  0.37912700  0.37912700  1
  Co  Co2  1  0.37912700  0.86261900  0.37912700  1
  Co  Co3  1  0.37912700  0.37912700  0.86261900  1
  Co  Co4  1  0.37912700  0.37912700  0.37912700  1
  Co  Co5  1  0.13738100  0.62087300  0.62087300  1
  Co  Co6  1  0.62087300  0.13738100  0.62087300  1
  Co  Co7  1  0.62087300  0.62087300  0.13738100  1
  Co  Co8  1  0.62087300  0.62087300  0.62087300  1
  Co  Co9  1  0.66204900  0.00000000  0.00000000  1
  Co  Co10  1  0.66204900  0.00000000  0.33795100  1
  Co  Co11  1  0.66204900  0.33795100  0.00000000  1
  Co  Co12  1  0.00000000  0.66204900  0.33795100  1
  Co  Co13  1  0.00000000  0.66204900  0.00000000  1
  Co  Co14  1  0.33795100  0.66204900  0.00000000  1
  Co  Co15  1  0.00000000  0.33795100  0.66204900  1
  Co  Co16  1  0.33795100  0.00000000  0.66204900  1
  Co  Co17  1  0.00000000  0.00000000  0.66204900  1
  Co  Co18  1  0.33795100  0.00000000  0.00000000  1
  Co  Co19  1  0.00000000  0.33795100  0.00000000  1
  Co  Co20  1  0.00000000  0.00000000  0.33795100  1
  B  B0  1  0.72346400  0.27653600  0.27653600  1
  B  B1  1  0.72346400  0.27653600  0.72346400  1
  B  B2  1  0.72346400  0.72346400  0.27653600  1
  B  B3  1  0.27653600  0.72346400  0.72346400  1
  B  B4  1  0.27653600  0.72346400  0.27653600  1
  B  B5  1  0.27653600  0.27653600  0.72346400  1
loop_
_geom_bond_atom_site_label_1
_geom_bond_atom_site_label_2
_geom_bond_distance
_geom_bond_site_symmetry_2
Co0 Co16 2.482145 1_554
Co0 Co15 2.482145 1_554
Co0 Co18 2.482145 1_555
Co0 Co9 2.482145 1_455
Co0 Co10 2.482145 1_455
Co0 Co12 2.482145 1_545
Co0 Co11 2.482145 1_455
Co0 Co13 2.482145 1_545
Co0 Co19 2.482145 1_555
Co0 Co14 2.482145 1_545
Co0 Co17 2.482145 1_554
Co0 Co20 2.482145 1_555
Co1 Mn0 2.323091 1_655
Co2 Mn0 2.323091 1_565
Co3 Mn0 2.323091 1_556
Co4 Mn0 2.323091 1_555
Co5 Mn1 2.323091 1_455
Co6 Mn1 2.323091 1_545
Co7 Mn1 2.323091 1_554
Co8 Mn1 2.323091 1_555
B0 Co1 2.070772 1_555
B0 Co6 2.070772 1_555
B0 Co4 2.070772 1_555
B0 Co7 2.070772 1_555
B0 Co10 2.080557 1_555
B0 Co19 2.080557 1_655
B0 Co11 2.080557 1_555
B0 Co20 2.080557 1_655
B1 Co3 2.070772 1_555
B1 Co6 2.070772 1_555
B1 Co1 2.070772 1_555
B1 Co8 2.070772 1_555
B1 Co11 2.080557 1_556
B1 Co9 2.080557 1_556
B1 Co17 2.080557 1_655
B1 Co15 2.080557 1_655
B2 Co7 2.070772 1_555
B2 Co1 2.070772 1_555
B2 Co2 2.070772 1_555
B2 Co8 2.070772 1_555
B2 Co9 2.080557 1_565
B2 Co12 2.080557 1_655
B2 Co13 2.080557 1_655
B2 Co10 2.080557 1_565
B3 Co3 2.070772 1_555
B3 Co5 2.070772 1_555
B3 Co2 2.070772 1_555
B3 Co8 2.070772 1_555
B3 Co17 2.080557 1_565
B3 Co16 2.080557 1_565
B3 Co14 2.080557 1_556
B3 Co13 2.080557 1_556
B4 Co2 2.070772 1_555
B4 Co5 2.070772 1_555
B4 Co4 2.070772 1_555
B4 Co7 2.070772 1_555
B4 Co14 2.080557 1_555
B4 Co20 2.080557 1_565
B4 Co12 2.080557 1_555
B4 Co18 2.080557 1_565
B5 Co3 2.070772 1_555
B5 Co6 2.070772 1_555
B5 Co5 2.070772 1_555
B5 Co4 2.070772 1_555
B5 Co19 2.080557 1_556
B5 Co18 2.080557 1_556
B5 Co15 2.080557 1_555
B5 Co16 2.080557 1_555
