# generated using pymatgen
data_Tm2Ge5Ru3
_symmetry_space_group_name_H-M   'P 1'
_cell_length_a   8.44961922
_cell_length_b   8.44961922
_cell_length_c   8.44961922
_cell_angle_alpha   140.27103362
_cell_angle_beta   108.84316680
_cell_angle_gamma   84.71813998
_symmetry_Int_Tables_number   1
_chemical_formula_structural   Tm2Ge5Ru3
_chemical_formula_sum   'Tm4 Ge10 Ru6'
_cell_volume   352.52011953
_cell_formula_units_Z   2
loop_
 _symmetry_equiv_pos_site_id
 _symmetry_equiv_pos_as_xyz
  1  'x, y, z'
loop_
 _atom_site_type_symbol
 _atom_site_label
 _atom_site_symmetry_multiplicity
 _atom_site_fract_x
 _atom_site_fract_y
 _atom_site_fract_z
 _atom_site_occupancy
  Tm  Tm0  1  0.87055700  0.13915900  0.73139700  1
  Tm  Tm1  1  0.12944300  0.86084100  0.26860300  1
  Tm  Tm2  1  0.40776200  0.63915900  0.76860300  1
  Tm  Tm3  1  0.59223800  0.36084100  0.23139700  1
  Ge  Ge0  1  0.50000000  0.25000000  0.75000000  1
  Ge  Ge1  1  0.50000000  0.75000000  0.25000000  1
  Ge  Ge2  1  0.20690100  0.45690100  0.25000000  1
  Ge  Ge3  1  0.79309900  0.04309900  0.25000000  1
  Ge  Ge4  1  0.79309900  0.54309900  0.75000000  1
  Ge  Ge5  1  0.20690100  0.95690100  0.75000000  1
  Ge  Ge6  1  0.08849700  0.41229800  0.67619900  1
  Ge  Ge7  1  0.91150300  0.58770200  0.32380100  1
  Ge  Ge8  1  0.73610000  0.91229800  0.82380100  1
  Ge  Ge9  1  0.26390000  0.08770200  0.17619900  1
  Ru  Ru0  1  0.00000000  0.25000000  0.25000000  1
  Ru  Ru1  1  0.00000000  0.75000000  0.75000000  1
  Ru  Ru2  1  0.26034400  0.35204100  0.90830300  1
  Ru  Ru3  1  0.73965600  0.64795900  0.09169700  1
  Ru  Ru4  1  0.44373800  0.85204100  0.59169700  1
  Ru  Ru5  1  0.55626200  0.14795900  0.40830300  1
loop_
_geom_bond_atom_site_label_1
_geom_bond_atom_site_label_2
_geom_bond_distance
_geom_bond_site_symmetry_2
Ge0 Ru3 2.507487 1_556
Ge0 Ru5 2.507487 1_555
Ge0 Ru2 2.507487 1_555
Ge0 Ru4 2.507487 1_545
Ge0 Tm2 3.202649 1_555
Ge0 Tm3 3.202649 1_556
Ge0 Tm1 3.202655 1_545
Ge0 Tm0 3.202657 1_555
Ge1 Ru3 2.507487 1_555
Ge1 Ru5 2.507487 1_565
Ge1 Ru2 2.507487 1_554
Ge1 Ru4 2.507487 1_555
Ge1 Tm2 3.202649 1_554
Ge1 Tm3 3.202649 1_555
Ge1 Tm0 3.202655 1_565
Ge1 Tm1 3.202657 1_555
Ge2 Ru4 2.481662 1_555
Ge2 Ru2 2.481662 1_554
Ge2 Ru0 2.583670 1_555
Ge2 Ge9 2.697742 1_555
Ge2 Ge7 2.697744 1_455
Ge2 Ge5 2.871152 1_555
Ge2 Ge5 2.871152 1_544
Ge2 Tm0 3.122689 1_454
Ge2 Tm2 3.122693 1_555
Ge2 Tm3 3.306437 1_555
Ge2 Tm1 3.306438 1_555
Ge3 Ru3 2.481662 1_545
Ge3 Ru5 2.481662 1_555
Ge3 Ru0 2.583670 1_655
Ge3 Ge6 2.697744 1_655
Ge3 Ge8 2.697745 1_544
Ge3 Ge4 2.871152 1_544
Ge3 Ge4 2.871152 1_555
Ge3 Tm1 3.122686 1_645
Ge3 Tm3 3.122693 1_555
Ge3 Tm0 3.306436 1_555
Ge3 Tm2 3.306437 1_544
Ge4 Ru3 2.481662 1_556
Ge4 Ru5 2.481662 1_555
Ge4 Ru1 2.583670 1_655
Ge4 Ge8 2.697742 1_555
Ge4 Ge6 2.697744 1_655
Ge4 Tm1 3.122689 1_656
Ge4 Tm3 3.122693 1_555
Ge4 Tm2 3.306437 1_555
Ge4 Tm0 3.306438 1_555
Ge5 Ru4 2.481662 1_555
Ge5 Ru2 2.481662 1_565
Ge5 Ru1 2.583670 1_555
Ge5 Ge7 2.697744 1_455
Ge5 Ge9 2.697745 1_566
Ge5 Tm0 3.122686 1_465
Ge5 Tm2 3.122693 1_555
Ge5 Tm1 3.306436 1_555
Ge5 Tm3 3.306437 1_566
Ge6 Ru2 2.402957 1_555
Ge6 Ru1 2.502322 1_555
Ge6 Ru0 2.502322 1_555
Ge6 Tm2 2.975043 1_555
Ge6 Tm1 3.079259 1_545
Ge6 Tm1 3.079264 1_556
Ge6 Tm0 3.453718 1_455
Ge7 Ru3 2.402957 1_555
Ge7 Ru1 2.502322 1_655
Ge7 Ru0 2.502322 1_655
Ge7 Tm3 2.975043 1_555
Ge7 Tm0 3.079259 1_565
Ge7 Tm0 3.079264 1_554
Ge7 Tm1 3.453718 1_655
Ge8 Ru4 2.402964 1_555
Ge8 Ru1 2.502314 1_655
Ge8 Ru0 2.502318 1_666
Ge8 Tm0 2.975043 1_565
Ge8 Tm3 3.079262 1_555
Ge8 Tm3 3.079267 1_566
Ge8 Tm2 3.453730 1_555
Ge9 Ru5 2.402964 1_555
Ge9 Ru0 2.502314 1_555
Ge9 Ru1 2.502318 1_544
Ge9 Tm1 2.975043 1_545
Ge9 Tm2 3.079262 1_555
Ge9 Tm2 3.079267 1_544
Ge9 Tm3 3.453730 1_555
Ru0 Tm1 3.472083 1_545
Ru0 Tm2 3.472085 1_555
Ru0 Tm3 3.472085 1_455
Ru0 Tm0 3.472086 1_454
Ru1 Tm0 3.472083 1_465
Ru1 Tm2 3.472085 1_555
Ru1 Tm3 3.472085 1_455
Ru1 Tm1 3.472086 1_556
Ru2 Tm0 3.176834 1_455
Ru2 Tm3 3.178644 1_556
Ru2 Tm1 3.184693 1_545
Ru2 Tm1 3.184698 1_556
Ru3 Tm1 3.176834 1_655
Ru3 Tm2 3.178644 1_554
Ru3 Tm0 3.184693 1_565
Ru3 Tm0 3.184698 1_554
Ru4 Tm2 3.176842 1_555
Ru4 Tm1 3.178648 1_555
Ru4 Tm3 3.184694 1_566
Ru4 Tm3 3.184694 1_555
Ru5 Tm3 3.176842 1_555
Ru5 Tm0 3.178648 1_555
Ru5 Tm2 3.184694 1_555
Ru5 Tm2 3.184694 1_544
