# generated using pymatgen
data_Li6Mn3V(PO4)6
_symmetry_space_group_name_H-M   'P 1'
_cell_length_a   8.75780100
_cell_length_b   8.70487600
_cell_length_c   12.31033711
_cell_angle_alpha   88.72997983
_cell_angle_beta   90.00000000
_cell_angle_gamma   90.00000000
_symmetry_Int_Tables_number   1
_chemical_formula_structural   Li6Mn3V(PO4)6
_chemical_formula_sum   'Li12 Mn6 V2 P12 O48'
_cell_volume   938.25504311
_cell_formula_units_Z   2
loop_
 _symmetry_equiv_pos_site_id
 _symmetry_equiv_pos_as_xyz
  1  'x, y, z'
loop_
 _atom_site_type_symbol
 _atom_site_label
 _atom_site_symmetry_multiplicity
 _atom_site_fract_x
 _atom_site_fract_y
 _atom_site_fract_z
 _atom_site_occupancy
  Li  Li0  1  0.08054200  0.32570500  0.05363500  1
  Li  Li1  1  0.69432600  0.32382400  0.99151300  1
  Li  Li2  1  0.77216300  0.45810100  0.56885800  1
  Li  Li3  1  0.27216300  0.54189900  0.43114200  1
  Li  Li4  1  0.19432600  0.67617600  0.00848700  1
  Li  Li5  1  0.58054200  0.67429500  0.94636500  1
  Li  Li6  1  0.41503100  0.82756000  0.55111400  1
  Li  Li7  1  0.80527100  0.83135300  0.48420500  1
  Li  Li8  1  0.71881700  0.95903300  0.07490300  1
  Li  Li9  1  0.21881700  0.04096700  0.92509700  1
  Li  Li10  1  0.30527100  0.16864700  0.51579500  1
  Li  Li11  1  0.91503100  0.17244000  0.44888600  1
  Mn  Mn0  1  0.45808700  0.49443600  0.64112800  1
  Mn  Mn1  1  0.95808700  0.50556400  0.35887200  1
  Mn  Mn2  1  0.04047200  0.99610900  0.14143900  1
  Mn  Mn3  1  0.54047200  0.00389100  0.85856100  1
  Mn  Mn4  1  0.96355400  0.99816900  0.64665200  1
  Mn  Mn5  1  0.46355400  0.00183100  0.35334800  1
  V  V0  1  0.53029700  0.49538100  0.14384800  1
  V  V1  1  0.03029700  0.50461900  0.85615200  1
  P  P0  1  0.25249400  0.28795400  0.25996700  1
  P  P1  1  0.37972000  0.35240200  0.90118200  1
  P  P2  1  0.09722200  0.34961200  0.60340600  1
  P  P3  1  0.59722200  0.65038800  0.39659400  1
  P  P4  1  0.87972000  0.64759800  0.09881800  1
  P  P5  1  0.75249400  0.71204600  0.74003300  1
  P  P6  1  0.24782200  0.78919200  0.75338800  1
  P  P7  1  0.11804300  0.85514900  0.39221900  1
  P  P8  1  0.40160500  0.85175300  0.09410800  1
  P  P9  1  0.90160500  0.14824700  0.90589200  1
  P  P10  1  0.61804300  0.14485100  0.60778100  1
  P  P11  1  0.74782200  0.21080800  0.24661200  1
  O  O0  1  0.86387700  0.29349400  0.31854400  1
  O  O1  1  0.89714300  0.33048100  0.90140000  1
  O  O2  1  0.67857800  0.32311600  0.15704000  1
  O  O3  1  0.59718100  0.31700800  0.57959300  1
  O  O4  1  0.38144500  0.35981700  0.18317500  1
  O  O5  1  0.20914900  0.39838000  0.93173200  1
  O  O6  1  0.40827600  0.39225800  0.78352300  1
  O  O7  1  0.97043600  0.39269100  0.52110400  1
  O  O8  1  0.25537200  0.40120700  0.56117000  1
  O  O9  1  0.18058200  0.42220600  0.31766500  1
  O  O10  1  0.05746800  0.41782000  0.71543900  1
  O  O11  1  0.49741200  0.44237200  0.97459500  1
  O  O12  1  0.99741200  0.55762800  0.02540500  1
  O  O13  1  0.55746800  0.58218000  0.28456100  1
  O  O14  1  0.68058200  0.57779400  0.68233500  1
  O  O15  1  0.75537200  0.59879300  0.43883000  1
  O  O16  1  0.90827600  0.60774200  0.21647700  1
  O  O17  1  0.70914900  0.60162000  0.06826800  1
  O  O18  1  0.47043600  0.60730900  0.47889600  1
  O  O19  1  0.88144500  0.64018300  0.81682500  1
  O  O20  1  0.17857800  0.67688400  0.84296000  1
  O  O21  1  0.39714300  0.66951900  0.09860000  1
  O  O22  1  0.09718100  0.68299200  0.42040700  1
  O  O23  1  0.36387700  0.70650600  0.68145600  1
  O  O24  1  0.64459700  0.79305800  0.81815900  1
  O  O25  1  0.89718200  0.82078100  0.07282500  1
  O  O26  1  0.60841600  0.83032600  0.39210700  1
  O  O27  1  0.82266500  0.82117000  0.65258300  1
  O  O28  1  0.12535400  0.85214100  0.67388100  1
  O  O29  1  0.52484800  0.88830000  0.00429100  1
  O  O30  1  0.28627800  0.89663600  0.42792000  1
  O  O31  1  0.10459400  0.88161200  0.26794200  1
  O  O32  1  0.24010900  0.89659100  0.05419300  1
  O  O33  1  0.32257800  0.92063200  0.81603500  1
  O  O34  1  0.45337300  0.92382200  0.19794400  1
  O  O35  1  0.99762500  0.95064500  0.45357600  1
  O  O36  1  0.49762500  0.04935500  0.54642400  1
  O  O37  1  0.95337300  0.07617800  0.80205600  1
  O  O38  1  0.82257800  0.07936800  0.18396500  1
  O  O39  1  0.74010900  0.10340900  0.94580700  1
  O  O40  1  0.02484800  0.11170000  0.99570900  1
  O  O41  1  0.60459400  0.11838800  0.73205800  1
  O  O42  1  0.78627800  0.10336400  0.57208000  1
  O  O43  1  0.62535400  0.14785900  0.32611900  1
  O  O44  1  0.39718200  0.17921900  0.92717500  1
  O  O45  1  0.32266500  0.17883000  0.34741700  1
  O  O46  1  0.10841600  0.16967400  0.60789300  1
  O  O47  1  0.14459700  0.20694200  0.18184100  1
loop_
_geom_bond_atom_site_label_1
_geom_bond_atom_site_label_2
_geom_bond_distance
_geom_bond_site_symmetry_2
Li0 O47 1.949885 1_555
Li0 O5 1.969446 1_554
Li0 O40 2.067761 1_554
Li0 O12 2.166912 1_455
Li0 O1 2.467829 1_454
Li1 O11 2.018112 1_555
Li1 O2 2.042228 1_556
Li1 O39 2.050990 1_555
Li1 O1 2.094301 1_555
Li2 O7 1.923495 1_555
Li2 O14 1.935155 1_555
Li2 O3 1.966510 1_555
Li2 O15 1.999208 1_555
Li3 O18 1.923495 1_555
Li3 O9 1.935155 1_555
Li3 O22 1.966510 1_555
Li3 O8 1.999208 1_555
Li4 O12 2.018112 1_455
Li4 O20 2.042228 1_554
Li4 O32 2.050990 1_555
Li4 O21 2.094301 1_555
Li5 O24 1.949885 1_555
Li5 O17 1.969446 1_556
Li5 O29 2.067761 1_556
Li5 O11 2.166912 1_555
Li5 O21 2.467829 1_556
Li6 O23 1.952115 1_555
Li6 O30 1.972956 1_555
Li6 O36 2.061361 1_565
Li6 O18 2.185692 1_555
Li7 O35 2.010225 1_555
Li7 O26 2.063533 1_555
Li7 O27 2.078311 1_555
Li7 O15 2.156695 1_555
Li8 O38 1.946257 1_565
Li8 O25 1.972425 1_555
Li8 O29 2.011013 1_555
Li8 O39 2.012790 1_564
Li9 O33 1.946257 1_545
Li9 O44 1.972425 1_555
Li9 O40 2.011013 1_555
Li9 O32 2.012790 1_546
Li10 O36 2.010225 1_555
Li10 O46 2.063533 1_555
Li10 O45 2.078311 1_555
Li10 O8 2.156695 1_555
Li11 O0 1.952115 1_555
Li11 O42 1.972956 1_555
Li11 O35 2.061361 1_545
Li11 O7 2.185692 1_555
Mn0 O6 1.996263 1_555
Mn0 O23 2.091820 1_555
Mn0 O3 2.120153 1_555
Mn0 O14 2.144080 1_555
Mn0 O8 2.194244 1_555
Mn0 O18 2.208764 1_555
Mn1 O16 1.996263 1_555
Mn1 O0 2.091820 1_555
Mn1 O22 2.120153 1_655
Mn1 O9 2.144080 1_655
Mn1 O15 2.194244 1_555
Mn1 O7 2.208764 1_555
Mn2 O31 1.914444 1_555
Mn2 O40 2.041945 1_564
Mn2 O38 2.111317 1_465
Mn2 O47 2.118405 1_565
Mn2 O25 2.162105 1_455
Mn2 O32 2.236533 1_555
Mn3 O41 1.914444 1_555
Mn3 O29 2.041945 1_546
Mn3 O33 2.111317 1_545
Mn3 O24 2.118405 1_545
Mn3 O44 2.162105 1_555
Mn3 O39 2.236533 1_555
Mn4 O28 1.928012 1_655
Mn4 O27 1.974012 1_555
Mn4 O46 2.008595 1_665
Mn4 O42 2.013554 1_565
Mn4 O37 2.046098 1_565
Mn4 O35 2.439895 1_555
Mn5 O43 1.928012 1_555
Mn5 O45 1.974012 1_555
Mn5 O26 2.008595 1_545
Mn5 O30 2.013554 1_545
Mn5 O34 2.046098 1_545
Mn5 O36 2.439895 1_555
O0 P11 1.537364 1_555
O1 P9 1.586544 1_555
O1 V1 1.982552 1_655
O2 P11 1.578475 1_555
O2 V0 1.987616 1_555
O3 P10 1.541609 1_555
O4 P0 1.591901 1_555
O4 V0 1.816874 1_555
O5 P1 1.593679 1_555
O5 V1 2.033773 1_555
O6 P1 1.502852 1_555
O7 P2 1.543761 1_655
O8 P2 1.542743 1_555
O9 P0 1.517784 1_555
O10 P2 1.553105 1_555
O10 V1 1.919931 1_555
O11 P1 1.588671 1_555
O11 V0 2.163265 1_556
O12 P4 1.588671 1_555
O12 V1 2.163265 1_654
O13 P3 1.553105 1_555
O13 V0 1.919931 1_555
O14 P5 1.517784 1_555
O15 P3 1.542743 1_555
O16 P4 1.502852 1_555
O17 P4 1.593679 1_555
O17 V0 2.033773 1_555
O18 P3 1.543761 1_555
O19 P5 1.591901 1_555
O19 V1 1.816874 1_655
O20 P6 1.578475 1_555
O20 V1 1.987616 1_555
O21 P8 1.586544 1_555
O21 V0 1.982552 1_555
O22 P7 1.541609 1_555
O23 P6 1.537364 1_555
O24 P5 1.531424 1_555
O25 P4 1.541771 1_555
O26 P3 1.569153 1_555
O27 P5 1.547126 1_555
O28 P6 1.544287 1_555
O29 P8 1.572613 1_555
O30 P7 1.581589 1_555
O31 P7 1.546572 1_555
O32 P8 1.544560 1_555
O33 P6 1.540008 1_555
O34 P8 1.506189 1_555
O35 P7 1.549694 1_655
O36 P10 1.549694 1_555
O37 P9 1.506189 1_555
O38 P11 1.540008 1_555
O39 P9 1.544560 1_555
O40 P9 1.572613 1_455
O41 P10 1.546572 1_555
O42 P10 1.581589 1_555
O43 P11 1.544287 1_555
O44 P1 1.541771 1_555
O45 P0 1.547126 1_555
O46 P2 1.569153 1_555
O47 P0 1.531424 1_555
