# generated using pymatgen
data_KNdF4
_symmetry_space_group_name_H-M   'P 1'
_cell_length_a   3.73516181
_cell_length_b   6.20815306
_cell_length_c   15.51256762
_cell_angle_alpha   90.00000000
_cell_angle_beta   90.00000000
_cell_angle_gamma   90.00000000
_symmetry_Int_Tables_number   1
_chemical_formula_structural   KNdF4
_chemical_formula_sum   'K4 Nd4 F16'
_cell_volume   359.71249512
_cell_formula_units_Z   4
loop_
 _symmetry_equiv_pos_site_id
 _symmetry_equiv_pos_as_xyz
  1  'x, y, z'
loop_
 _atom_site_type_symbol
 _atom_site_label
 _atom_site_symmetry_multiplicity
 _atom_site_fract_x
 _atom_site_fract_y
 _atom_site_fract_z
 _atom_site_occupancy
  K  K0  1  0.25000000  0.72305501  0.70252245  1
  K  K1  1  0.75000000  0.27694499  0.29747755  1
  K  K2  1  0.75000000  0.77694499  0.20252245  1
  K  K3  1  0.25000000  0.22305501  0.79747755  1
  Nd  Nd0  1  0.25000000  0.25126808  0.06091442  1
  Nd  Nd1  1  0.75000000  0.74873192  0.93908558  1
  Nd  Nd2  1  0.75000000  0.24873192  0.56091442  1
  Nd  Nd3  1  0.25000000  0.75126808  0.43908558  1
  F  F0  1  0.25000000  0.60340015  0.86524938  1
  F  F1  1  0.75000000  0.39659985  0.13475062  1
  F  F2  1  0.75000000  0.89659985  0.36524938  1
  F  F3  1  0.25000000  0.10340015  0.63475062  1
  F  F4  1  0.25000000  0.63689985  0.03642588  1
  F  F5  1  0.75000000  0.36310015  0.96357412  1
  F  F6  1  0.75000000  0.86310015  0.53642588  1
  F  F7  1  0.25000000  0.13689985  0.46357412  1
  F  F8  1  0.25000000  0.50521523  0.55880572  1
  F  F9  1  0.75000000  0.49478477  0.44119428  1
  F  F10  1  0.75000000  0.99478477  0.05880572  1
  F  F11  1  0.25000000  0.00521523  0.94119428  1
  F  F12  1  0.25000000  0.58772277  0.30591946  1
  F  F13  1  0.75000000  0.41227723  0.69408054  1
  F  F14  1  0.75000000  0.91227723  0.80591946  1
  F  F15  1  0.25000000  0.08772277  0.19408054  1
loop_
_geom_bond_atom_site_label_1
_geom_bond_atom_site_label_2
_geom_bond_distance
_geom_bond_site_symmetry_2
F0 Nd1 2.369349 1_455
F0 Nd1 2.369349 1_555
F0 K3 2.584709 1_555
F0 K0 2.631342 1_555
F1 Nd0 2.369349 1_655
F1 Nd0 2.369349 1_555
F1 K2 2.584709 1_555
F1 K1 2.631342 1_555
F2 Nd3 2.369349 1_655
F2 Nd3 2.369349 1_555
F2 K1 2.584709 1_565
F2 K2 2.631342 1_555
F3 Nd2 2.369349 1_555
F3 Nd2 2.369349 1_455
F3 K0 2.584709 1_545
F3 K3 2.631342 1_555
F4 Nd0 2.424013 1_555
F4 Nd1 2.499993 1_554
F4 Nd1 2.499993 1_454
F5 Nd1 2.424013 1_555
F5 Nd0 2.499993 1_556
F5 Nd0 2.499993 1_656
F6 Nd2 2.424013 1_565
F6 Nd3 2.499993 1_555
F6 Nd3 2.499993 1_655
F7 Nd3 2.424013 1_545
F7 Nd2 2.499993 1_555
F7 Nd2 2.499993 1_455
F8 Nd3 2.404668 1_555
F8 Nd2 2.454447 1_455
F8 Nd2 2.454447 1_555
F8 K0 2.607534 1_555
F9 Nd2 2.404668 1_555
F9 Nd3 2.454447 1_655
F9 Nd3 2.454447 1_555
F9 K1 2.607534 1_555
F10 Nd1 2.404668 1_554
F10 Nd0 2.454447 1_665
F10 Nd0 2.454447 1_565
F10 K2 2.607534 1_555
F11 Nd0 2.404668 1_556
F11 Nd1 2.454447 1_445
F11 Nd1 2.454447 1_545
F11 K3 2.607534 1_555
F12 Nd3 2.301778 1_555
F12 K1 2.688387 1_555
F12 K1 2.688387 1_455
F12 K2 2.727727 1_455
F12 K2 2.727727 1_555
F13 Nd2 2.301778 1_555
F13 K0 2.688387 1_555
F13 K0 2.688387 1_655
F13 K3 2.727727 1_555
F13 K3 2.727727 1_655
F14 Nd1 2.301778 1_555
F14 K3 2.688387 1_665
F14 K3 2.688387 1_565
F14 K0 2.727727 1_555
F14 K0 2.727727 1_655
F15 Nd0 2.301778 1_555
F15 K2 2.688387 1_545
F15 K2 2.688387 1_445
F15 K1 2.727727 1_555
F15 K1 2.727727 1_455
