# generated using pymatgen
data_U6H24C8S7(NO21)2
_symmetry_space_group_name_H-M   'P 1'
_cell_length_a   10.61287083
_cell_length_b   10.82557320
_cell_length_c   23.17041289
_cell_angle_alpha   90.00000000
_cell_angle_beta   90.00000000
_cell_angle_gamma   119.35214564
_symmetry_Int_Tables_number   1
_chemical_formula_structural   U6H24C8S7(NO21)2
_chemical_formula_sum   'U12 H48 C16 S14 N4 O84'
_cell_volume   2320.31256688
_cell_formula_units_Z   2
loop_
 _symmetry_equiv_pos_site_id
 _symmetry_equiv_pos_as_xyz
  1  'x, y, z'
loop_
 _atom_site_type_symbol
 _atom_site_label
 _atom_site_symmetry_multiplicity
 _atom_site_fract_x
 _atom_site_fract_y
 _atom_site_fract_z
 _atom_site_occupancy
  U  U0  1  0.78783763  0.49066279  0.97642578  1
  U  U1  1  0.29717484  0.50933721  0.02357422  1
  U  U2  1  0.21216237  0.50933721  0.47642578  1
  U  U3  1  0.70282516  0.49066279  0.52357422  1
  U  U4  1  0.50633927  0.48811571  0.75311424  1
  U  U5  1  0.01822356  0.51188429  0.24688576  1
  U  U6  1  0.49366073  0.51188429  0.25311424  1
  U  U7  1  0.98177644  0.48811571  0.74688576  1
  U  U8  1  0.35245168  0.94127183  0.88481521  1
  U  U9  1  0.41117985  0.05872817  0.11518479  1
  U  U10  1  0.64754832  0.05872817  0.38481521  1
  U  U11  1  0.58882015  0.94127183  0.61518479  1
  H  H0  1  0.13914985  0.18936019  0.87396205  1
  H  H1  1  0.94978966  0.81063981  0.12603795  1
  H  H2  1  0.86085015  0.81063981  0.37396205  1
  H  H3  1  0.05021034  0.18936019  0.62603795  1
  H  H4  1  0.04945141  0.21771867  0.81413067  1
  H  H5  1  0.83173274  0.78228133  0.18586933  1
  H  H6  1  0.95054859  0.78228133  0.31413067  1
  H  H7  1  0.16826726  0.21771867  0.68586933  1
  H  H8  1  0.08861892  0.07357795  0.81304590  1
  H  H9  1  0.01504097  0.92642205  0.18695410  1
  H  H10  1  0.91138108  0.92642205  0.31304590  1
  H  H11  1  0.98495903  0.07357795  0.68695410  1
  H  H12  1  0.82131738  0.92798176  0.78999706  1
  H  H13  1  0.89333562  0.07201824  0.21000294  1
  H  H14  1  0.17868262  0.07201824  0.28999706  1
  H  H15  1  0.10666438  0.92798176  0.71000294  1
  H  H16  1  0.78772737  0.07193785  0.80486992  1
  H  H17  1  0.71578952  0.92806215  0.19513008  1
  H  H18  1  0.21227263  0.92806215  0.30486992  1
  H  H19  1  0.28421048  0.07193785  0.69513008  1
  H  H20  1  0.69515154  0.91054132  0.84529614  1
  H  H21  1  0.78461022  0.08945868  0.15470386  1
  H  H22  1  0.30484846  0.08945868  0.34529614  1
  H  H23  1  0.21538978  0.91054132  0.65470386  1
  H  H24  1  0.94959390  0.86392382  0.86753679  1
  H  H25  1  0.08567008  0.13607618  0.13246321  1
  H  H26  1  0.05040610  0.13607618  0.36753679  1
  H  H27  1  0.91432992  0.86392382  0.63246321  1
  H  H28  1  0.81825928  0.85390796  0.91880597  1
  H  H29  1  0.96435132  0.14609204  0.08119403  1
  H  H30  1  0.18174072  0.14609204  0.41880597  1
  H  H31  1  0.03564868  0.85390796  0.58119403  1
  H  H32  1  0.00803355  0.96995933  0.93142114  1
  H  H33  1  0.03807423  0.03004067  0.06857886  1
  H  H34  1  0.99196645  0.03004067  0.43142114  1
  H  H35  1  0.96192577  0.96995933  0.56857886  1
  H  H36  1  0.78228065  0.05223280  0.93476276  1
  H  H37  1  0.73004785  0.94776720  0.06523724  1
  H  H38  1  0.21771935  0.94776720  0.43476276  1
  H  H39  1  0.26995215  0.05223280  0.56523724  1
  H  H40  1  0.86788402  0.20576424  0.88946068  1
  H  H41  1  0.66211978  0.79423576  0.11053932  1
  H  H42  1  0.13211598  0.79423576  0.38946068  1
  H  H43  1  0.33788022  0.20576424  0.61053932  1
  H  H44  1  0.97327024  0.17563204  0.94193148  1
  H  H45  1  0.79763820  0.82436796  0.05806852  1
  H  H46  1  0.02672976  0.82436796  0.44193148  1
  H  H47  1  0.20236180  0.17563204  0.55806852  1
  C  C0  1  0.05820174  0.13781617  0.84002109  1
  C  C1  1  0.92038557  0.86218383  0.15997891  1
  C  C2  1  0.94179826  0.86218383  0.34002109  1
  C  C3  1  0.07961443  0.13781617  0.65997891  1
  C  C4  1  0.79659154  0.98372611  0.82379783  1
  C  C5  1  0.81286543  0.01627389  0.17620217  1
  C  C6  1  0.20340846  0.01627389  0.32379783  1
  C  C7  1  0.18713457  0.98372611  0.67620217  1
  C  C8  1  0.92280653  0.92356159  0.89866227  1
  C  C9  1  0.99924494  0.07643841  0.10133773  1
  C  C10  1  0.07719347  0.07643841  0.39866227  1
  C  C11  1  0.00075506  0.92356159  0.60133773  1
  C  C12  1  0.88207245  0.12476406  0.91200251  1
  C  C13  1  0.75730838  0.87523594  0.08799749  1
  C  C14  1  0.11792755  0.87523594  0.41200251  1
  C  C15  1  0.24269162  0.12476406  0.58799749  1
  S  S0  1  0.65728854  0.29798901  0.83721166  1
  S  S1  1  0.35929953  0.70201099  0.16278834  1
  S  S2  1  0.34271146  0.70201099  0.33721166  1
  S  S3  1  0.64070047  0.29798901  0.66278834  1
  S  S4  1  0.37839807  0.22938300  0.98015395  1
  S  S5  1  0.14901508  0.77061700  0.01984605  1
  S  S6  1  0.62160193  0.77061700  0.48015395  1
  S  S7  1  0.85098492  0.22938300  0.51984605  1
  S  S8  1  0.57242620  0.45390152  0.10469955  1
  S  S9  1  0.11852468  0.54609848  0.89530045  1
  S  S10  1  0.42757380  0.54609848  0.60469955  1
  S  S11  1  0.88147532  0.45390152  0.39530045  1
  S  S12  1  0.38641954  0.77283908  0.75000000  1
  S  S13  1  0.61358046  0.22716092  0.25000000  1
  N  N0  1  0.91508375  0.04208275  0.86823455  1
  N  N1  1  0.87300101  0.95791725  0.13176545  1
  N  N2  1  0.08491625  0.95791725  0.36823455  1
  N  N3  1  0.12699899  0.04208275  0.63176545  1
  O  O0  1  0.82802751  0.37096940  0.01517391  1
  O  O1  1  0.45705811  0.62903060  0.98482609  1
  O  O2  1  0.17197249  0.62903060  0.51517391  1
  O  O3  1  0.54294189  0.37096940  0.48482609  1
  O  O4  1  0.74900271  0.60778374  0.93457351  1
  O  O5  1  0.14121897  0.39221626  0.06542649  1
  O  O6  1  0.25099729  0.39221626  0.43457351  1
  O  O7  1  0.85878103  0.60778374  0.56542649  1
  O  O8  1  0.71889976  0.32966686  0.89602277  1
  O  O9  1  0.38923291  0.67033314  0.10397723  1
  O  O10  1  0.28110024  0.67033314  0.39602277  1
  O  O11  1  0.61076709  0.32966686  0.60397723  1
  O  O12  1  0.53473658  0.33214614  0.97985554  1
  O  O13  1  0.20259044  0.66785386  0.02014446  1
  O  O14  1  0.46526342  0.66785386  0.47985554  1
  O  O15  1  0.79740956  0.33214614  0.52014446  1
  O  O16  1  0.69338168  0.53980790  0.06461216  1
  O  O17  1  0.15357378  0.46019210  0.93538784  1
  O  O18  1  0.30661832  0.46019210  0.56461216  1
  O  O19  1  0.84642622  0.53980790  0.43538784  1
  O  O20  1  0.98842214  0.69671068  0.02244914  1
  O  O21  1  0.29171146  0.30328932  0.97755086  1
  O  O22  1  0.01157786  0.30328932  0.52244914  1
  O  O23  1  0.70828854  0.69671068  0.47755086  1
  O  O24  1  0.99642718  0.56254268  0.91766462  1
  O  O25  1  0.43388450  0.43745732  0.08233538  1
  O  O26  1  0.00357282  0.43745732  0.41766462  1
  O  O27  1  0.56611550  0.56254268  0.58233538  1
  O  O28  1  0.32835157  0.35772127  0.77731458  1
  O  O29  1  0.97063029  0.64227873  0.22268542  1
  O  O30  1  0.67164843  0.64227873  0.27731458  1
  O  O31  1  0.02936971  0.35772127  0.72268542  1
  O  O32  1  0.68201006  0.62069771  0.72805233  1
  O  O33  1  0.06131235  0.37930229  0.27194767  1
  O  O34  1  0.31798994  0.37930229  0.22805233  1
  O  O35  1  0.93868765  0.62069771  0.77194767  1
  O  O36  1  0.45624884  0.68210583  0.75116612  1
  O  O37  1  0.77414301  0.31789417  0.24883388  1
  O  O38  1  0.54375116  0.31789417  0.25116612  1
  O  O39  1  0.22585699  0.68210583  0.74883388  1
  O  O40  1  0.53245200  0.60333623  0.83978233  1
  O  O41  1  0.92911576  0.39666377  0.16021767  1
  O  O42  1  0.46754800  0.39666377  0.33978233  1
  O  O43  1  0.07088424  0.60333623  0.66021767  1
  O  O44  1  0.61084495  0.40288956  0.82046421  1
  O  O45  1  0.20795539  0.59711044  0.17953579  1
  O  O46  1  0.38915505  0.59711044  0.32046421  1
  O  O47  1  0.79204461  0.40288956  0.67953579  1
  O  O48  1  0.77116038  0.30915059  0.79623309  1
  O  O49  1  0.46200979  0.69084941  0.20376691  1
  O  O50  1  0.22883962  0.69084941  0.29623309  1
  O  O51  1  0.53799021  0.30915059  0.70376691  1
  O  O52  1  0.39437560  0.47020747  0.66121408  1
  O  O53  1  0.92416813  0.52979253  0.33878592  1
  O  O54  1  0.60562440  0.52979253  0.16121408  1
  O  O55  1  0.07583187  0.47020747  0.83878592  1
  O  O56  1  0.20810031  0.92512298  0.83897067  1
  O  O57  1  0.28297733  0.07487702  0.16102933  1
  O  O58  1  0.79189969  0.07487702  0.33897067  1
  O  O59  1  0.71702267  0.92512298  0.66102933  1
  O  O60  1  0.50054280  0.95771799  0.92798741  1
  O  O61  1  0.54282481  0.04228201  0.07201259  1
  O  O62  1  0.49945720  0.04228201  0.42798741  1
  O  O63  1  0.45717519  0.95771799  0.57201259  1
  O  O64  1  0.19730666  0.85702510  0.96628666  1
  O  O65  1  0.34028156  0.14297490  0.03371334  1
  O  O66  1  0.80269334  0.14297490  0.46628666  1
  O  O67  1  0.65971844  0.85702510  0.53371334  1
  O  O68  1  0.34082276  0.13598456  0.92872100  1
  O  O69  1  0.20483820  0.86401544  0.07127900  1
  O  O70  1  0.65917724  0.86401544  0.42872100  1
  O  O71  1  0.79516180  0.13598456  0.57127900  1
  O  O72  1  0.53306527  0.15305731  0.83396037  1
  O  O73  1  0.38000795  0.84694269  0.16603963  1
  O  O74  1  0.46693473  0.84694269  0.33396037  1
  O  O75  1  0.61999205  0.15305731  0.66603963  1
  O  O76  1  0.43367408  0.86238205  0.80205269  1
  O  O77  1  0.57129203  0.13761795  0.19794731  1
  O  O78  1  0.56632592  0.13761795  0.30205269  1
  O  O79  1  0.42870797  0.86238205  0.69794731  1
  O  O80  1  0.24665902  0.68779080  0.88716796  1
  O  O81  1  0.55886822  0.31220920  0.11283204  1
  O  O82  1  0.75334098  0.31220920  0.38716796  1
  O  O83  1  0.44113178  0.68779080  0.61283204  1
loop_
_geom_bond_atom_site_label_1
_geom_bond_atom_site_label_2
_geom_bond_distance
_geom_bond_site_symmetry_2
C0 H4 1.093368 1_555
C0 H0 1.094492 1_555
C0 H8 1.094782 1_555
C0 N0 1.505071 1_455
C1 H5 1.093368 1_555
C1 H1 1.094492 1_555
C1 H9 1.094782 1_655
C1 N1 1.505071 1_555
C2 H6 1.093368 1_555
C2 H2 1.094492 1_555
C2 H10 1.094782 1_555
C2 N2 1.505071 1_655
C3 H7 1.093368 1_555
C3 H3 1.094492 1_555
C3 H11 1.094782 1_455
C3 N3 1.505071 1_555
C4 H20 1.094827 1_555
C4 H16 1.095982 1_565
C4 H12 1.096194 1_555
C4 N0 1.503925 1_565
C5 H21 1.094827 1_555
C5 H17 1.095982 1_545
C5 H13 1.096194 1_555
C5 N1 1.503925 1_545
C6 H22 1.094827 1_555
C6 H18 1.095982 1_545
C6 H14 1.096194 1_555
C6 N2 1.503925 1_545
C7 H23 1.094827 1_555
C7 H19 1.095982 1_565
C7 H15 1.096194 1_555
C7 N3 1.503925 1_565
C8 H28 1.094217 1_555
C8 H24 1.094390 1_555
C8 H32 1.095975 1_655
C8 N0 1.501037 1_565
C9 H29 1.094217 1_555
C9 H25 1.094390 1_655
C9 H33 1.095975 1_655
C9 N1 1.501037 1_545
C10 H30 1.094217 1_555
C10 H26 1.094390 1_555
C10 H34 1.095975 1_455
C10 N2 1.501037 1_545
C11 H31 1.094217 1_555
C11 H27 1.094390 1_455
C11 H35 1.095975 1_455
C11 N3 1.501037 1_565
C12 H40 1.092624 1_555
C12 H44 1.094715 1_555
C12 H36 1.095922 1_555
C12 N0 1.503250 1_555
C13 H41 1.092624 1_555
C13 H45 1.094716 1_555
C13 H37 1.095922 1_555
C13 N1 1.503250 1_555
C14 H42 1.092624 1_555
C14 H46 1.094715 1_555
C14 H38 1.095922 1_555
C14 N2 1.503250 1_555
C15 H43 1.092624 1_555
C15 H47 1.094716 1_555
C15 H39 1.095922 1_555
C15 N3 1.503250 1_555
O0 U0 1.791305 1_554
O1 U1 1.791305 1_556
O2 U2 1.791305 1_555
O3 U3 1.791305 1_555
O4 U0 1.797255 1_555
O5 U1 1.797255 1_555
O6 U2 1.797255 1_555
O7 U3 1.797255 1_555
O8 S0 1.477232 1_555
O8 U0 2.406962 1_555
O9 S1 1.477232 1_555
O9 U1 2.406962 1_555
O10 S2 1.477232 1_555
O10 U2 2.406962 1_555
O11 S3 1.477232 1_555
O11 U3 2.406962 1_555
O12 S4 1.476834 1_555
O12 U0 2.376437 1_555
O13 S5 1.476834 1_555
O13 U1 2.376437 1_555
O14 S6 1.476834 1_555
O14 U2 2.376437 1_555
O15 S7 1.476834 1_555
O15 U3 2.376437 1_555
O16 S8 1.484963 1_555
O16 U0 2.446617 1_554
O17 S9 1.484963 1_555
O17 U1 2.446617 1_556
O18 S10 1.484963 1_555
O18 U2 2.446617 1_555
O19 S11 1.484963 1_555
O19 U3 2.446617 1_555
O20 S5 1.487198 1_655
O20 U0 2.447295 1_554
O21 S4 1.487197 1_555
O21 U1 2.447295 1_556
O22 S7 1.487198 1_455
O22 U2 2.447295 1_555
O23 S6 1.487197 1_555
O23 U3 2.447295 1_555
O24 S9 1.485080 1_655
O24 U0 2.381409 1_555
O25 S8 1.485080 1_555
O25 U1 2.381409 1_555
O26 S11 1.485080 1_455
O26 U2 2.381409 1_555
O27 S10 1.485080 1_555
O27 U3 2.381409 1_555
O28 U4 1.805861 1_555
O29 U5 1.805861 1_655
O30 U6 1.805861 1_555
O31 U7 1.805861 1_455
O32 U4 1.802718 1_555
O33 U5 1.802718 1_555
O34 U6 1.802718 1_555
O35 U7 1.802718 1_555
O36 S12 1.492770 1_555
O36 U4 2.406102 1_555
O37 S13 1.492770 1_555
O37 U5 2.406102 1_655
O38 S13 1.492770 1_555
O38 U6 2.406102 1_555
O39 S12 1.492770 1_555
O39 U7 2.406102 1_455
O40 U4 2.307890 1_555
O41 U5 2.307890 1_655
O42 U6 2.307890 1_555
O43 U7 2.307890 1_455
O44 S0 1.493948 1_555
O44 U4 2.349419 1_555
O45 S1 1.493948 1_555
O45 U5 2.349419 1_555
O46 S2 1.493948 1_555
O46 U6 2.349419 1_555
O47 S3 1.493948 1_555
O47 U7 2.349419 1_555
O48 S0 1.494479 1_555
O48 U7 2.410749 1_555
O49 S1 1.494479 1_555
O49 U6 2.410749 1_555
O50 S2 1.494479 1_555
O50 U5 2.410749 1_555
O51 S3 1.494479 1_555
O51 U4 2.410749 1_555
O52 S10 1.493328 1_555
O52 U4 2.399561 1_555
O53 S11 1.493328 1_555
O53 U5 2.399561 1_655
O54 S8 1.493328 1_555
O54 U6 2.399561 1_555
O55 S9 1.493328 1_555
O55 U7 2.399561 1_455
O56 U8 1.800922 1_555
O57 U9 1.800922 1_555
O58 U10 1.800922 1_555
O59 U11 1.800922 1_555
O60 U8 1.796709 1_555
O61 U9 1.796709 1_555
O62 U10 1.796709 1_555
O63 U11 1.796709 1_555
O64 S5 1.485848 1_556
O64 U8 2.373647 1_555
O65 S4 1.485848 1_554
O65 U9 2.373647 1_555
O66 S7 1.485848 1_555
O66 U10 2.373647 1_555
O67 S6 1.485848 1_555
O67 U11 2.373647 1_555
O68 S4 1.485346 1_555
O68 U8 2.397570 1_545
O69 S5 1.485346 1_555
O69 U9 2.397570 1_565
O70 S6 1.485346 1_555
O70 U10 2.397570 1_565
O71 S7 1.485346 1_555
O71 U11 2.397570 1_545
O72 S0 1.475667 1_555
O72 U8 2.451692 1_545
O73 S1 1.475667 1_555
O73 U9 2.451692 1_565
O74 S2 1.475667 1_555
O74 U10 2.451692 1_565
O75 S3 1.475667 1_555
O75 U11 2.451692 1_545
O76 S12 1.472822 1_555
O76 U8 2.423112 1_555
O77 S13 1.472822 1_555
O77 U9 2.423112 1_555
O78 S13 1.472822 1_555
O78 U10 2.423112 1_555
O79 S12 1.472822 1_555
O79 U11 2.423112 1_555
O80 S9 1.480772 1_555
O80 U8 2.402731 1_555
O81 S8 1.480772 1_555
O81 U9 2.402731 1_555
O82 S11 1.480772 1_555
O82 U10 2.402731 1_555
O83 S10 1.480772 1_555
O83 U11 2.402731 1_555
