# generated using pymatgen
data_HoCrO2
_symmetry_space_group_name_H-M   'P 1'
_cell_length_a   6.10112500
_cell_length_b   6.10112500
_cell_length_c   7.25712174
_cell_angle_alpha   114.85695508
_cell_angle_beta   114.85695508
_cell_angle_gamma   90.00000000
_symmetry_Int_Tables_number   1
_chemical_formula_structural   HoCrO2
_chemical_formula_sum   'Ho4 Cr4 O8'
_cell_volume   217.22192085
_cell_formula_units_Z   4
loop_
 _symmetry_equiv_pos_site_id
 _symmetry_equiv_pos_as_xyz
  1  'x, y, z'
loop_
 _atom_site_type_symbol
 _atom_site_label
 _atom_site_symmetry_multiplicity
 _atom_site_fract_x
 _atom_site_fract_y
 _atom_site_fract_z
 _atom_site_occupancy
  Ho  Ho0  1  0.62500000  0.87500000  0.25000000  1
  Ho  Ho1  1  0.62500000  0.37500000  0.25000000  1
  Ho  Ho2  1  0.62500000  0.37500000  0.75000000  1
  Ho  Ho3  1  0.12500000  0.37500000  0.75000000  1
  Cr  Cr0  1  0.12500000  0.37500000  0.25000000  1
  Cr  Cr1  1  0.12500000  0.87500000  0.25000000  1
  Cr  Cr2  1  0.12500000  0.87500000  0.75000000  1
  Cr  Cr3  1  0.62500000  0.87500000  0.75000000  1
  O  O0  1  0.39832200  0.17286800  0.34654400  1
  O  O1  1  0.94822100  0.17367600  0.34654400  1
  O  O2  1  0.42367600  0.14832200  0.84654400  1
  O  O3  1  0.85167800  0.57713200  0.15345600  1
  O  O4  1  0.42286800  0.69822100  0.84654400  1
  O  O5  1  0.30177900  0.57632400  0.15345600  1
  O  O6  1  0.82632400  0.60167800  0.65345600  1
  O  O7  1  0.82713200  0.05177900  0.65345600  1
loop_
_geom_bond_atom_site_label_1
_geom_bond_atom_site_label_2
_geom_bond_distance
_geom_bond_site_symmetry_2
Ho0 O0 2.334609 1_565
Ho0 O3 2.334609 1_555
Ho0 O1 2.337823 1_565
Ho0 O5 2.337823 1_555
Ho0 O7 2.359315 1_565
Ho0 O4 2.359315 1_554
Ho1 O1 2.334605 1_555
Ho1 O5 2.334605 1_555
Ho1 O3 2.337827 1_555
Ho1 O0 2.337827 1_555
Ho1 O6 2.359316 1_555
Ho1 O2 2.359316 1_554
Ho2 O2 2.334609 1_555
Ho2 O6 2.334609 1_555
Ho2 O7 2.337823 1_555
Ho2 O4 2.337823 1_555
Ho2 O0 2.359316 1_555
Ho2 O3 2.359316 1_556
Ho3 O7 2.334605 1_455
Ho3 O4 2.334605 1_555
Ho3 O2 2.337827 1_555
Ho3 O6 2.337827 1_455
Ho3 O1 2.359315 1_455
Ho3 O5 2.359315 1_556
Cr0 O5 2.126425 1_555
Cr0 O1 2.126425 1_455
Cr0 O0 2.129954 1_555
Cr0 O3 2.129954 1_455
Cr1 O3 2.126421 1_455
Cr1 O0 2.126421 1_565
Cr1 O1 2.129958 1_465
Cr1 O5 2.129958 1_555
Cr2 O4 2.126425 1_555
Cr2 O7 2.126425 1_465
Cr2 O6 2.129954 1_455
Cr2 O2 2.129954 1_565
Cr3 O6 2.126421 1_555
Cr3 O2 2.126421 1_565
Cr3 O7 2.129958 1_565
Cr3 O4 2.129958 1_555
