# generated using pymatgen
data_Nd5Si3O13
_symmetry_space_group_name_H-M   'P 1'
_cell_length_a   9.69461623
_cell_length_b   9.69461623
_cell_length_c   7.09041400
_cell_angle_alpha   90.00000000
_cell_angle_beta   90.00000000
_cell_angle_gamma   120.00000156
_symmetry_Int_Tables_number   1
_chemical_formula_structural   Nd5Si3O13
_chemical_formula_sum   'Nd10 Si6 O26'
_cell_volume   577.11646154
_cell_formula_units_Z   2
loop_
 _symmetry_equiv_pos_site_id
 _symmetry_equiv_pos_as_xyz
  1  'x, y, z'
loop_
 _atom_site_type_symbol
 _atom_site_label
 _atom_site_symmetry_multiplicity
 _atom_site_fract_x
 _atom_site_fract_y
 _atom_site_fract_z
 _atom_site_occupancy
  Nd  Nd0  1  0.23052900  0.23901600  0.09067500  1
  Nd  Nd1  1  0.76098400  0.99151300  0.09067500  1
  Nd  Nd2  1  0.76947100  0.76098400  0.59067500  1
  Nd  Nd3  1  0.00848700  0.76947100  0.09067500  1
  Nd  Nd4  1  0.23901600  0.00848700  0.59067500  1
  Nd  Nd5  1  0.99151300  0.23052900  0.59067500  1
  Nd  Nd6  1  0.33333300  0.66666700  0.84617700  1
  Nd  Nd7  1  0.66666700  0.33333300  0.34617700  1
  Nd  Nd8  1  0.33333300  0.66666700  0.34297300  1
  Nd  Nd9  1  0.66666700  0.33333300  0.84297300  1
  Si  Si0  1  0.39797100  0.02788700  0.09029400  1
  Si  Si1  1  0.97211300  0.37008300  0.09029400  1
  Si  Si2  1  0.60202900  0.97211300  0.59029400  1
  Si  Si3  1  0.62991700  0.60202900  0.09029400  1
  Si  Si4  1  0.02788700  0.62991700  0.59029400  1
  Si  Si5  1  0.37008300  0.39797100  0.59029400  1
  O  O0  1  0.32649200  0.08221700  0.26901600  1
  O  O1  1  0.91778300  0.24427500  0.26901600  1
  O  O2  1  0.67350800  0.91778300  0.76901600  1
  O  O3  1  0.75572500  0.67350800  0.26901600  1
  O  O4  1  0.08221700  0.75572500  0.76901600  1
  O  O5  1  0.24427500  0.32649200  0.76901600  1
  O  O6  1  0.59370300  0.12103900  0.10386700  1
  O  O7  1  0.87896100  0.47266400  0.10386700  1
  O  O8  1  0.40629700  0.87896100  0.60386700  1
  O  O9  1  0.52733600  0.40629700  0.10386700  1
  O  O10  1  0.12103900  0.52733600  0.60386700  1
  O  O11  1  0.47266400  0.59370300  0.60386700  1
  O  O12  1  0.25636300  0.35557900  0.40208600  1
  O  O13  1  0.64442100  0.90078400  0.40208600  1
  O  O14  1  0.74363700  0.64442100  0.90208600  1
  O  O15  1  0.09921600  0.74363700  0.40208600  1
  O  O16  1  0.35557900  0.09921600  0.90208600  1
  O  O17  1  0.90078400  0.25636300  0.90208600  1
  O  O18  1  0.16640200  0.48204900  0.08793600  1
  O  O19  1  0.51795100  0.68435300  0.08793600  1
  O  O20  1  0.83359800  0.51795100  0.58793600  1
  O  O21  1  0.31564700  0.83359800  0.08793600  1
  O  O22  1  0.48204900  0.31564700  0.58793600  1
  O  O23  1  0.68435300  0.16640200  0.58793600  1
  O  O24  1  0.00000000  0.00000000  0.04453100  1
  O  O25  1  0.00000000  0.00000000  0.54453100  1
loop_
_geom_bond_atom_site_label_1
_geom_bond_atom_site_label_2
_geom_bond_distance
_geom_bond_site_symmetry_2
Nd0 O24 2.300529 1_555
Nd0 O5 2.413607 1_554
Nd0 O12 2.435589 1_555
Nd0 O0 2.487852 1_555
Nd0 O9 2.500389 1_555
Nd0 O16 2.595698 1_554
Nd0 O18 2.720827 1_555
Nd1 O24 2.300529 1_665
Nd1 O2 2.413607 1_554
Nd1 O13 2.435589 1_555
Nd1 O1 2.487852 1_565
Nd1 O6 2.500389 1_565
Nd1 O17 2.595698 1_564
Nd1 O19 2.720826 1_555
Nd2 O25 2.300529 1_665
Nd2 O3 2.413607 1_555
Nd2 O14 2.435589 1_555
Nd2 O2 2.487852 1_555
Nd2 O11 2.500389 1_555
Nd2 O13 2.595698 1_555
Nd2 O20 2.720827 1_555
Nd3 O24 2.300529 1_565
Nd3 O4 2.413607 1_554
Nd3 O15 2.435589 1_555
Nd3 O3 2.487852 1_455
Nd3 O7 2.500389 1_455
Nd3 O14 2.595698 1_454
Nd3 O21 2.720826 1_555
Nd4 O25 2.300529 1_555
Nd4 O0 2.413607 1_555
Nd4 O16 2.435589 1_555
Nd4 O4 2.487852 1_545
Nd4 O8 2.500389 1_545
Nd4 O15 2.595698 1_545
Nd4 O22 2.720826 1_555
Nd5 O25 2.300529 1_655
Nd5 O1 2.413607 1_555
Nd5 O17 2.435589 1_555
Nd5 O5 2.487852 1_655
Nd5 O10 2.500389 1_655
Nd5 O12 2.595698 1_655
Nd5 O23 2.720826 1_555
Nd6 O21 2.421623 1_556
Nd6 O18 2.421627 1_556
Nd6 O19 2.421630 1_556
Nd6 O8 2.496426 1_555
Nd6 O10 2.496427 1_555
Nd6 O11 2.496432 1_555
Nd7 O23 2.421623 1_555
Nd7 O20 2.421627 1_555
Nd7 O22 2.421630 1_555
Nd7 O6 2.496426 1_555
Nd7 O7 2.496427 1_555
Nd7 O9 2.496432 1_555
Nd8 O21 2.489154 1_555
Nd8 O18 2.489158 1_555
Nd8 O19 2.489161 1_555
Nd8 O8 2.588876 1_555
Nd8 O10 2.588877 1_555
Nd8 O11 2.588883 1_555
Nd8 O15 2.752730 1_555
Nd8 O13 2.752737 1_555
Nd8 O12 2.752739 1_555
Nd9 O23 2.489154 1_555
Nd9 O20 2.489158 1_555
Nd9 O22 2.489161 1_555
Nd9 O6 2.588876 1_556
Nd9 O7 2.588877 1_556
Nd9 O9 2.588883 1_556
Nd9 O17 2.752730 1_555
Nd9 O16 2.752737 1_555
Nd9 O14 2.752739 1_555
O0 Si0 1.651797 1_555
O1 Si1 1.651792 1_555
O2 Si2 1.651797 1_555
O3 Si3 1.651792 1_555
O4 Si4 1.651792 1_555
O5 Si5 1.651792 1_555
O6 Si0 1.646773 1_555
O7 Si1 1.646782 1_555
O8 Si2 1.646773 1_555
O9 Si3 1.646774 1_555
O10 Si4 1.646782 1_555
O11 Si5 1.646774 1_555
O12 Si5 1.646837 1_555
O13 Si2 1.646843 1_555
O14 Si3 1.646837 1_556
O15 Si4 1.646838 1_555
O16 Si0 1.646843 1_556
O17 Si1 1.646838 1_556
O18 Si1 1.637610 1_455
O19 Si3 1.637618 1_555
O20 Si4 1.637610 1_655
O21 Si0 1.637609 1_565
O22 Si5 1.637618 1_555
O23 Si2 1.637609 1_545
