# generated using pymatgen
data_K2MgMo2(H2O5)2
_symmetry_space_group_name_H-M   'P 1'
_cell_length_a   6.00896200
_cell_length_b   6.55026950
_cell_length_c   7.95639400
_cell_angle_alpha   111.39243018
_cell_angle_beta   96.77129923
_cell_angle_gamma   109.07338526
_symmetry_Int_Tables_number   1
_chemical_formula_structural   K2MgMo2(H2O5)2
_chemical_formula_sum   'K2 Mg1 Mo2 H4 O10'
_cell_volume   265.39073332
_cell_formula_units_Z   1
loop_
 _symmetry_equiv_pos_site_id
 _symmetry_equiv_pos_as_xyz
  1  'x, y, z'
loop_
 _atom_site_type_symbol
 _atom_site_label
 _atom_site_symmetry_multiplicity
 _atom_site_fract_x
 _atom_site_fract_y
 _atom_site_fract_z
 _atom_site_occupancy
  K  K0  1  0.08435500  0.45654500  0.24630800  1
  K  K1  1  0.91564500  0.54345500  0.75369200  1
  Mg  Mg0  1  0.00000000  0.00000000  0.00000000  1
  Mo  Mo0  1  0.57197300  0.90457300  0.76077600  1
  Mo  Mo1  1  0.42802700  0.09542700  0.23922400  1
  H  H0  1  0.63763800  0.58215700  0.28439100  1
  H  H1  1  0.36236200  0.41784300  0.71560900  1
  H  H2  1  0.74839200  0.75129400  0.37626600  1
  H  H3  1  0.25160800  0.24870600  0.62373400  1
  O  O0  1  0.74011600  0.20257200  0.62055000  1
  O  O1  1  0.25988400  0.79742800  0.37945000  1
  O  O2  1  0.62018000  0.73340200  0.61648900  1
  O  O3  1  0.37982000  0.26659800  0.38351100  1
  O  O4  1  0.70557000  0.84112300  0.92136500  1
  O  O5  1  0.29443000  0.15887700  0.07863500  1
  O  O6  1  0.21920000  0.81879200  0.89009400  1
  O  O7  1  0.78080000  0.18120800  0.10990600  1
  O  O8  1  0.79569600  0.72083500  0.25767800  1
  O  O9  1  0.20430400  0.27916500  0.74232200  1
loop_
_geom_bond_atom_site_label_1
_geom_bond_atom_site_label_2
_geom_bond_distance
_geom_bond_site_symmetry_2
K0 O1 1.921504 1_555
K0 O7 1.926908 1_455
K1 O0 1.921504 1_555
K1 O6 1.926908 1_655
Mg0 O4 1.632562 1_444
Mg0 O5 1.632562 1_555
Mg0 O7 2.108241 1_455
Mg0 O6 2.108241 1_544
Mo0 O2 1.417971 1_555
Mo0 O4 1.677291 1_555
Mo0 O6 2.454698 1_555
Mo1 O3 1.417971 1_555
Mo1 O5 1.677291 1_555
Mo1 O7 2.454698 1_555
H0 H2 1.008607 1_555
H0 O8 1.181934 1_555
H1 H3 1.008607 1_555
H1 O9 1.181934 1_555
H2 O8 0.986832 1_555
H3 O9 0.986832 1_555
