# generated using pymatgen
data_LuN3O13
_symmetry_space_group_name_H-M   'P 1'
_cell_length_a   9.89523200
_cell_length_b   7.46807100
_cell_length_c   15.09092908
_cell_angle_alpha   65.33500876
_cell_angle_beta   90.00000000
_cell_angle_gamma   90.00000000
_symmetry_Int_Tables_number   1
_chemical_formula_structural   LuN3O13
_chemical_formula_sum   'Lu4 N12 O52'
_cell_volume   1013.44735307
_cell_formula_units_Z   4
loop_
 _symmetry_equiv_pos_site_id
 _symmetry_equiv_pos_as_xyz
  1  'x, y, z'
loop_
 _atom_site_type_symbol
 _atom_site_label
 _atom_site_symmetry_multiplicity
 _atom_site_fract_x
 _atom_site_fract_y
 _atom_site_fract_z
 _atom_site_occupancy
  Lu  Lu0  1  0.96798700  0.23268100  0.22371600  1
  Lu  Lu1  1  0.53201300  0.23268100  0.72371600  1
  Lu  Lu2  1  0.03201300  0.76731900  0.77628400  1
  Lu  Lu3  1  0.46798700  0.76731900  0.27628400  1
  N  N0  1  0.96420100  0.81806300  0.32647900  1
  N  N1  1  0.53579900  0.81806300  0.82647900  1
  N  N2  1  0.03579900  0.18193700  0.67352100  1
  N  N3  1  0.46420100  0.18193700  0.17352100  1
  N  N4  1  0.09878100  0.25375900  0.38109600  1
  N  N5  1  0.40121900  0.25375900  0.88109600  1
  N  N6  1  0.90121900  0.74624100  0.61890400  1
  N  N7  1  0.59878100  0.74624100  0.11890400  1
  N  N8  1  0.94659200  0.64931200  0.11140000  1
  N  N9  1  0.55340800  0.64931200  0.61140000  1
  N  N10  1  0.05340800  0.35068800  0.88860000  1
  N  N11  1  0.44659200  0.35068800  0.38860000  1
  O  O0  1  0.07056000  0.91900900  0.28108300  1
  O  O1  1  0.42944000  0.91900900  0.78108300  1
  O  O2  1  0.92944000  0.08099100  0.71891700  1
  O  O3  1  0.57056000  0.08099100  0.21891700  1
  O  O4  1  0.85655900  0.92636700  0.31070700  1
  O  O5  1  0.64344100  0.92636700  0.81070700  1
  O  O6  1  0.14344100  0.07363300  0.68929300  1
  O  O7  1  0.35655900  0.07363300  0.18929300  1
  O  O8  1  0.96794600  0.64313100  0.37812400  1
  O  O9  1  0.53205400  0.64313100  0.87812400  1
  O  O10  1  0.03205400  0.35686900  0.62187600  1
  O  O11  1  0.46794600  0.35686900  0.12187600  1
  O  O12  1  0.97250800  0.20787400  0.38072200  1
  O  O13  1  0.52749200  0.20787400  0.88072200  1
  O  O14  1  0.02749200  0.79212600  0.61927800  1
  O  O15  1  0.47250800  0.79212600  0.11927800  1
  O  O16  1  0.16398500  0.28441300  0.30175000  1
  O  O17  1  0.33601500  0.28441300  0.80175000  1
  O  O18  1  0.83601500  0.71558700  0.69825000  1
  O  O19  1  0.66398500  0.71558700  0.19825000  1
  O  O20  1  0.15236200  0.26586800  0.45125900  1
  O  O21  1  0.34763800  0.26586800  0.95125900  1
  O  O22  1  0.84763800  0.73413200  0.54874100  1
  O  O23  1  0.65236200  0.73413200  0.04874100  1
  O  O24  1  0.92618100  0.52352400  0.07375800  1
  O  O25  1  0.57381900  0.52352400  0.57375800  1
  O  O26  1  0.07381900  0.47647600  0.92624200  1
  O  O27  1  0.42618100  0.47647600  0.42624200  1
  O  O28  1  0.96796300  0.57027900  0.20359000  1
  O  O29  1  0.53203700  0.57027900  0.70359000  1
  O  O30  1  0.03203700  0.42972100  0.79641000  1
  O  O31  1  0.46796300  0.42972100  0.29641000  1
  O  O32  1  0.94631900  0.82705000  0.06201400  1
  O  O33  1  0.55368100  0.82705000  0.56201400  1
  O  O34  1  0.05368100  0.17295000  0.93798600  1
  O  O35  1  0.44631900  0.17295000  0.43798600  1
  O  O36  1  0.82774500  0.17652500  0.08573600  1
  O  O37  1  0.67225500  0.17652500  0.58573600  1
  O  O38  1  0.17225500  0.82347500  0.91426400  1
  O  O39  1  0.32774500  0.82347500  0.41426400  1
  O  O40  1  0.75148000  0.31927400  0.23662700  1
  O  O41  1  0.74852000  0.31927400  0.73662700  1
  O  O42  1  0.24852000  0.68072600  0.76337300  1
  O  O43  1  0.25148000  0.68072600  0.26337300  1
  O  O44  1  0.13971900  0.29604900  0.11281600  1
  O  O45  1  0.36028100  0.29604900  0.61281600  1
  O  O46  1  0.86028100  0.70395100  0.88718400  1
  O  O47  1  0.63971900  0.70395100  0.38718400  1
  O  O48  1  0.75094400  0.27670500  0.52066000  1
  O  O49  1  0.74905600  0.27670500  0.02066000  1
  O  O50  1  0.24905600  0.72329500  0.47934000  1
  O  O51  1  0.25094400  0.72329500  0.97934000  1
loop_
_geom_bond_atom_site_label_1
_geom_bond_atom_site_label_2
_geom_bond_distance
_geom_bond_site_symmetry_2
Lu0 O40 2.269613 1_555
Lu0 O44 2.291621 1_655
Lu0 O12 2.298665 1_555
Lu0 O0 2.361036 1_645
Lu0 O4 2.380269 1_545
Lu0 O16 2.382683 1_655
Lu0 O28 2.410315 1_555
Lu0 O24 2.430559 1_555
Lu0 O36 2.676984 1_555
Lu1 O41 2.269613 1_555
Lu1 O45 2.291621 1_555
Lu1 O13 2.298665 1_555
Lu1 O1 2.361036 1_545
Lu1 O5 2.380269 1_545
Lu1 O17 2.382683 1_555
Lu1 O29 2.410315 1_555
Lu1 O25 2.430559 1_555
Lu1 O37 2.676984 1_555
Lu2 O42 2.269613 1_555
Lu2 O46 2.291621 1_455
Lu2 O14 2.298665 1_555
Lu2 O2 2.361036 1_465
Lu2 O6 2.380269 1_565
Lu2 O18 2.382683 1_455
Lu2 O30 2.410315 1_555
Lu2 O26 2.430559 1_555
Lu2 O38 2.676984 1_555
Lu3 O43 2.269613 1_555
Lu3 O47 2.291621 1_555
Lu3 O15 2.298665 1_555
Lu3 O3 2.361036 1_565
Lu3 O7 2.380269 1_565
Lu3 O19 2.382683 1_555
Lu3 O31 2.410315 1_555
Lu3 O27 2.430559 1_555
Lu3 O39 2.676984 1_555
N0 O8 1.210658 1_555
N0 O4 1.297959 1_555
N0 O0 1.309290 1_655
N1 O9 1.210658 1_555
N1 O5 1.297959 1_555
N1 O1 1.309290 1_555
N2 O10 1.210658 1_555
N2 O6 1.297959 1_555
N2 O2 1.309290 1_455
N3 O11 1.210658 1_555
N3 O7 1.297959 1_555
N3 O3 1.309290 1_555
N4 O20 1.220783 1_555
N4 O16 1.293714 1_555
N4 O12 1.296272 1_455
N5 O21 1.220783 1_555
N5 O17 1.293714 1_555
N5 O13 1.296272 1_555
N6 O22 1.220783 1_555
N6 O18 1.293714 1_555
N6 O14 1.296272 1_655
N7 O23 1.220783 1_555
N7 O19 1.293714 1_555
N7 O15 1.296272 1_555
N8 O32 1.221343 1_555
N8 O28 1.281901 1_555
N8 O24 1.300505 1_555
N9 O33 1.221343 1_555
N9 O29 1.281901 1_555
N9 O25 1.300505 1_555
N10 O34 1.221343 1_555
N10 O30 1.281901 1_555
N10 O26 1.300505 1_555
N11 O35 1.221343 1_555
N11 O31 1.281901 1_555
N11 O27 1.300505 1_555
O36 O49 1.231761 1_555
O37 O48 1.231761 1_555
O38 O51 1.231761 1_555
O39 O50 1.231761 1_555
