# generated using pymatgen
data_Ca2YCrO5
_symmetry_space_group_name_H-M   'P 1'
_cell_length_a   8.91492168
_cell_length_b   8.91492168
_cell_length_c   8.91492168
_cell_angle_alpha   144.34075231
_cell_angle_beta   142.82360109
_cell_angle_gamma   52.46273701
_symmetry_Int_Tables_number   1
_chemical_formula_structural   Ca2YCrO5
_chemical_formula_sum   'Ca4 Y2 Cr2 O10'
_cell_volume   248.12467631
_cell_formula_units_Z   2
loop_
 _symmetry_equiv_pos_site_id
 _symmetry_equiv_pos_as_xyz
  1  'x, y, z'
loop_
 _atom_site_type_symbol
 _atom_site_label
 _atom_site_symmetry_multiplicity
 _atom_site_fract_x
 _atom_site_fract_y
 _atom_site_fract_z
 _atom_site_occupancy
  Ca  Ca0  1  0.37601700  0.90274600  0.47364900  1
  Ca  Ca1  1  0.07090300  0.59763200  0.47364900  1
  Ca  Ca2  1  0.62398300  0.09763200  0.52672900  1
  Ca  Ca3  1  0.92909700  0.40274600  0.52672900  1
  Y  Y0  1  0.70505300  0.71015600  0.91520900  1
  Y  Y1  1  0.29494700  0.21015600  0.00510300  1
  Cr  Cr0  1  0.50000000  0.51649500  0.01649500  1
  Cr  Cr1  1  0.00000000  0.01649400  0.01649400  1
  O  O0  1  0.67038100  0.30324500  0.47362600  1
  O  O1  1  0.32961900  0.80324500  0.63286500  1
  O  O2  1  0.29693800  0.41198600  0.96212600  1
  O  O3  1  0.70306200  0.66518800  0.11504800  1
  O  O4  1  0.94986000  0.91198600  0.11504800  1
  O  O5  1  0.05014000  0.16518800  0.96212600  1
  O  O6  1  0.26163100  0.77918400  0.00341400  1
  O  O7  1  0.73836900  0.74178300  0.51755300  1
  O  O8  1  0.72423000  0.24178300  0.00341400  1
  O  O9  1  0.27577000  0.27918400  0.51755300  1
loop_
_geom_bond_atom_site_label_1
_geom_bond_atom_site_label_2
_geom_bond_distance
_geom_bond_site_symmetry_2
Ca0 O4 2.313554 1_455
Ca0 O7 2.428320 1_555
Ca0 O8 2.439457 1_566
Ca0 O1 2.530081 1_555
Ca0 O2 2.578457 1_554
Ca0 O6 2.622915 1_555
Ca0 O9 2.642419 1_565
Ca0 O2 2.989523 1_565
Ca1 O3 2.313554 1_455
Ca1 O9 2.428320 1_555
Ca1 O6 2.439457 1_556
Ca1 O1 2.530066 1_555
Ca1 O5 2.578457 1_554
Ca1 O8 2.622915 1_455
Ca1 O7 2.642419 1_455
Ca1 O5 2.989523 1_565
Ca2 O5 2.313554 1_655
Ca2 O6 2.428320 1_545
Ca2 O9 2.439457 1_555
Ca2 O0 2.530073 1_555
Ca2 O3 2.578457 1_545
Ca2 O7 2.622915 1_545
Ca2 O8 2.642419 1_556
Ca2 O3 2.989523 1_556
Ca3 O2 2.313554 1_655
Ca3 O8 2.428320 1_555
Ca3 O7 2.439457 1_555
Ca3 O0 2.530073 1_555
Ca3 O4 2.578457 1_545
Ca3 O9 2.622915 1_655
Ca3 O6 2.642419 1_656
Ca3 O4 2.989523 1_556
Cr0 O9 1.987253 1_554
Cr0 O8 1.987253 1_555
Cr0 O6 1.999593 1_555
Cr0 O7 1.999593 1_555
Cr0 O3 2.074431 1_555
Cr0 O2 2.074431 1_554
Cr1 O7 1.987249 1_444
Cr1 O6 1.987249 1_545
Cr1 O8 1.999596 1_455
Cr1 O9 1.999596 1_555
Cr1 O5 2.074432 1_554
Cr1 O4 2.074432 1_445
O0 Y1 2.193468 1_555
O0 Y0 2.230163 1_555
O1 Y0 2.193466 1_555
O1 Y1 2.230160 1_566
O2 Y1 2.134145 1_556
O3 Y0 2.134145 1_554
O4 Y0 2.134145 1_554
O5 Y1 2.134145 1_556
