# generated using pymatgen
data_Mg14ZnFeO16
_symmetry_space_group_name_H-M   'P 1'
_cell_length_a   8.54545500
_cell_length_b   8.54545500
_cell_length_c   4.26303000
_cell_angle_alpha   90.00000000
_cell_angle_beta   90.00000000
_cell_angle_gamma   90.00000000
_symmetry_Int_Tables_number   1
_chemical_formula_structural   Mg14ZnFeO16
_chemical_formula_sum   'Mg14 Zn1 Fe1 O16'
_cell_volume   311.30691808
_cell_formula_units_Z   1
loop_
 _symmetry_equiv_pos_site_id
 _symmetry_equiv_pos_as_xyz
  1  'x, y, z'
loop_
 _atom_site_type_symbol
 _atom_site_label
 _atom_site_symmetry_multiplicity
 _atom_site_fract_x
 _atom_site_fract_y
 _atom_site_fract_z
 _atom_site_occupancy
  Mg  Mg0  1  0.50000000  0.00000000  0.00000000  1
  Mg  Mg1  1  0.00000000  0.50000000  0.00000000  1
  Mg  Mg2  1  0.25005900  0.00000000  0.50000000  1
  Mg  Mg3  1  0.74994100  0.00000000  0.50000000  1
  Mg  Mg4  1  0.24906100  0.50000000  0.50000000  1
  Mg  Mg5  1  0.75093900  0.50000000  0.50000000  1
  Mg  Mg6  1  0.00000000  0.25005900  0.50000000  1
  Mg  Mg7  1  0.50000000  0.24906100  0.50000000  1
  Mg  Mg8  1  0.00000000  0.74994100  0.50000000  1
  Mg  Mg9  1  0.50000000  0.75093900  0.50000000  1
  Mg  Mg10  1  0.24972100  0.24972100  0.00000000  1
  Mg  Mg11  1  0.75027900  0.24972100  0.00000000  1
  Mg  Mg12  1  0.24972100  0.75027900  0.00000000  1
  Mg  Mg13  1  0.75027900  0.75027900  0.00000000  1
  Zn  Zn0  1  0.00000000  0.00000000  0.00000000  1
  Fe  Fe0  1  0.50000000  0.50000000  0.00000000  1
  O  O0  1  0.00000000  0.25310700  0.00000000  1
  O  O1  1  0.50000000  0.24541000  0.00000000  1
  O  O2  1  0.00000000  0.74689300  0.00000000  1
  O  O3  1  0.50000000  0.75459000  0.00000000  1
  O  O4  1  0.25012000  0.25012000  0.50000000  1
  O  O5  1  0.74988000  0.25012000  0.50000000  1
  O  O6  1  0.25012000  0.74988000  0.50000000  1
  O  O7  1  0.74988000  0.74988000  0.50000000  1
  O  O8  1  0.00000000  0.00000000  0.50000000  1
  O  O9  1  0.50000000  0.00000000  0.50000000  1
  O  O10  1  0.00000000  0.50000000  0.50000000  1
  O  O11  1  0.50000000  0.50000000  0.50000000  1
  O  O12  1  0.25310700  0.00000000  0.00000000  1
  O  O13  1  0.74689300  0.00000000  0.00000000  1
  O  O14  1  0.24541000  0.50000000  0.00000000  1
  O  O15  1  0.75459000  0.50000000  0.00000000  1
loop_
_geom_bond_atom_site_label_1
_geom_bond_atom_site_label_2
_geom_bond_distance
_geom_bond_site_symmetry_2
Mg0 O1 2.097140 1_555
Mg0 O3 2.097140 1_545
Mg0 O12 2.109813 1_555
Mg0 O13 2.109813 1_555
Mg0 O9 2.131515 1_554
Mg0 O9 2.131515 1_555
Mg1 O14 2.097140 1_555
Mg1 O15 2.097140 1_455
Mg1 O0 2.109813 1_555
Mg1 O2 2.109813 1_555
Mg1 O10 2.131515 1_555
Mg1 O10 2.131515 1_554
Mg2 O12 2.131674 1_556
Mg2 O12 2.131674 1_555
Mg2 O9 2.135860 1_555
Mg2 O8 2.136868 1_555
Mg2 O4 2.137389 1_555
Mg2 O6 2.137389 1_545
Mg3 O13 2.131674 1_555
Mg3 O13 2.131674 1_556
Mg3 O9 2.135860 1_555
Mg3 O8 2.136868 1_655
Mg3 O5 2.137389 1_555
Mg3 O7 2.137389 1_545
Mg4 O10 2.128340 1_555
Mg4 O14 2.131743 1_555
Mg4 O14 2.131743 1_556
Mg4 O4 2.135357 1_555
Mg4 O6 2.135357 1_555
Mg4 O11 2.144388 1_555
Mg5 O10 2.128340 1_655
Mg5 O15 2.131743 1_556
Mg5 O15 2.131743 1_555
Mg5 O7 2.135357 1_555
Mg5 O5 2.135357 1_555
Mg5 O11 2.144388 1_555
Mg6 O0 2.131674 1_556
Mg6 O0 2.131674 1_555
Mg6 O10 2.135860 1_555
Mg6 O8 2.136868 1_555
Mg6 O4 2.137389 1_555
Mg6 O5 2.137389 1_455
Mg7 O9 2.128340 1_555
Mg7 O1 2.131743 1_556
Mg7 O1 2.131743 1_555
Mg7 O4 2.135357 1_555
Mg7 O5 2.135357 1_555
Mg7 O11 2.144388 1_555
Mg8 O2 2.131674 1_555
Mg8 O2 2.131674 1_556
Mg8 O10 2.135860 1_555
Mg8 O8 2.136868 1_565
Mg8 O7 2.137389 1_455
Mg8 O6 2.137389 1_555
Mg9 O9 2.128340 1_565
Mg9 O3 2.131743 1_556
Mg9 O3 2.131743 1_555
Mg9 O6 2.135357 1_555
Mg9 O7 2.135357 1_555
Mg9 O11 2.144388 1_555
Mg10 O4 2.131520 1_554
Mg10 O4 2.131520 1_555
Mg10 O0 2.134176 1_555
Mg10 O12 2.134176 1_555
Mg10 O14 2.139065 1_555
Mg10 O1 2.139065 1_555
Mg11 O5 2.131520 1_555
Mg11 O5 2.131520 1_554
Mg11 O13 2.134176 1_555
Mg11 O0 2.134176 1_655
Mg11 O15 2.139065 1_555
Mg11 O1 2.139065 1_555
Mg12 O6 2.131520 1_555
Mg12 O6 2.131520 1_554
Mg12 O2 2.134176 1_555
Mg12 O12 2.134176 1_565
Mg12 O14 2.139065 1_555
Mg12 O3 2.139065 1_555
Mg13 O7 2.131520 1_555
Mg13 O7 2.131520 1_554
Mg13 O13 2.134176 1_565
Mg13 O2 2.134176 1_655
Mg13 O15 2.139065 1_555
Mg13 O3 2.139065 1_555
Fe0 O11 2.131515 1_554
Fe0 O11 2.131515 1_555
Fe0 O14 2.175587 1_555
Fe0 O1 2.175587 1_555
Fe0 O15 2.175587 1_555
Fe0 O3 2.175587 1_555
O0 Zn0 2.162914 1_555
O2 Zn0 2.162914 1_565
O8 Zn0 2.131515 1_556
O8 Zn0 2.131515 1_555
O12 Zn0 2.162914 1_555
O13 Zn0 2.162914 1_655
