# generated using pymatgen
data_MgGa2
_symmetry_space_group_name_H-M   'P 1'
_cell_length_a   14.94255642
_cell_length_b   14.94255642
_cell_length_c   10.07020800
_cell_angle_alpha   90.00000000
_cell_angle_beta   90.00000000
_cell_angle_gamma   155.37838792
_symmetry_Int_Tables_number   1
_chemical_formula_structural   MgGa2
_chemical_formula_sum   'Mg16 Ga32'
_cell_volume   936.76843928
_cell_formula_units_Z   16
loop_
 _symmetry_equiv_pos_site_id
 _symmetry_equiv_pos_as_xyz
  1  'x, y, z'
loop_
 _atom_site_type_symbol
 _atom_site_label
 _atom_site_symmetry_multiplicity
 _atom_site_fract_x
 _atom_site_fract_y
 _atom_site_fract_z
 _atom_site_occupancy
  Mg  Mg0_0  1  0.14106300  0.35893700  0.12500000  1
  Mg  Mg0_1  1  0.14106300  0.35893700  0.62500000  1
  Mg  Mg0_2  1  0.14106300  0.85893700  0.12500000  1
  Mg  Mg0_3  1  0.14106300  0.85893700  0.62500000  1
  Mg  Mg0_4  1  0.64106300  0.35893700  0.12500000  1
  Mg  Mg0_5  1  0.64106300  0.35893700  0.62500000  1
  Mg  Mg0_6  1  0.64106300  0.85893700  0.12500000  1
  Mg  Mg0_7  1  0.64106300  0.85893700  0.62500000  1
  Mg  Mg1_0  1  0.35893700  0.14106300  0.37500000  1
  Mg  Mg1_1  1  0.35893700  0.14106300  0.87500000  1
  Mg  Mg1_2  1  0.35893700  0.64106300  0.37500000  1
  Mg  Mg1_3  1  0.35893700  0.64106300  0.87500000  1
  Mg  Mg1_4  1  0.85893700  0.14106300  0.37500000  1
  Mg  Mg1_5  1  0.85893700  0.14106300  0.87500000  1
  Mg  Mg1_6  1  0.85893700  0.64106300  0.37500000  1
  Mg  Mg1_7  1  0.85893700  0.64106300  0.87500000  1
  Ga  Ga0_0  1  0.30314450  0.19685550  0.12500000  1
  Ga  Ga0_1  1  0.30314450  0.19685550  0.62500000  1
  Ga  Ga0_2  1  0.30314450  0.69685550  0.12500000  1
  Ga  Ga0_3  1  0.30314450  0.69685550  0.62500000  1
  Ga  Ga0_4  1  0.80314450  0.19685550  0.12500000  1
  Ga  Ga0_5  1  0.80314450  0.19685550  0.62500000  1
  Ga  Ga0_6  1  0.80314450  0.69685550  0.12500000  1
  Ga  Ga0_7  1  0.80314450  0.69685550  0.62500000  1
  Ga  Ga1_0  1  0.47412750  0.02587250  0.12500000  1
  Ga  Ga1_1  1  0.47412750  0.02587250  0.62500000  1
  Ga  Ga1_2  1  0.47412750  0.52587250  0.12500000  1
  Ga  Ga1_3  1  0.47412750  0.52587250  0.62500000  1
  Ga  Ga1_4  1  0.97412750  0.02587250  0.12500000  1
  Ga  Ga1_5  1  0.97412750  0.02587250  0.62500000  1
  Ga  Ga1_6  1  0.97412750  0.52587250  0.12500000  1
  Ga  Ga1_7  1  0.97412750  0.52587250  0.62500000  1
  Ga  Ga2_0  1  0.02587250  0.47412750  0.37500000  1
  Ga  Ga2_1  1  0.02587250  0.47412750  0.87500000  1
  Ga  Ga2_2  1  0.02587250  0.97412750  0.37500000  1
  Ga  Ga2_3  1  0.02587250  0.97412750  0.87500000  1
  Ga  Ga2_4  1  0.52587250  0.47412750  0.37500000  1
  Ga  Ga2_5  1  0.52587250  0.47412750  0.87500000  1
  Ga  Ga2_6  1  0.52587250  0.97412750  0.37500000  1
  Ga  Ga2_7  1  0.52587250  0.97412750  0.87500000  1
  Ga  Ga3_0  1  0.19685550  0.30314450  0.37500000  1
  Ga  Ga3_1  1  0.19685550  0.30314450  0.87500000  1
  Ga  Ga3_2  1  0.19685550  0.80314450  0.37500000  1
  Ga  Ga3_3  1  0.19685550  0.80314450  0.87500000  1
  Ga  Ga3_4  1  0.69685550  0.30314450  0.37500000  1
  Ga  Ga3_5  1  0.69685550  0.30314450  0.87500000  1
  Ga  Ga3_6  1  0.69685550  0.80314450  0.37500000  1
  Ga  Ga3_7  1  0.69685550  0.80314450  0.87500000  1
loop_
_geom_bond_atom_site_label_1
_geom_bond_atom_site_label_2
_geom_bond_distance
_geom_bond_site_symmetry_2
Mg0_0 Mg1_4 3.123386 1_455
Mg0_0 Mg1_2 3.123386 1_555
Mg0_0 Mg1_3 3.123386 1_554
Mg0_0 Mg1_5 3.123386 1_454
Mg0_0 Mg0_6 3.185972 1_445
Mg0_0 Mg0_6 3.185972 1_555
Mg0_1 Mg1_3 3.123386 1_555
Mg0_1 Mg1_5 3.123386 1_455
Mg0_1 Mg1_2 3.123386 1_555
Mg0_1 Mg1_4 3.123386 1_455
Mg0_1 Mg0_7 3.185972 1_445
Mg0_1 Mg0_7 3.185972 1_555
Mg0_2 Mg1_6 3.123386 1_455
Mg0_2 Mg1_7 3.123386 1_454
Mg0_2 Mg1_1 3.123386 1_564
Mg0_2 Mg1_0 3.123386 1_565
Mg0_2 Mg0_4 3.185972 1_565
Mg0_2 Mg0_4 3.185972 1_455
Mg0_3 Mg1_7 3.123386 1_455
Mg0_3 Mg1_1 3.123386 1_565
Mg0_3 Mg1_6 3.123386 1_455
Mg0_3 Mg1_0 3.123386 1_565
Mg0_3 Mg0_5 3.185972 1_565
Mg0_3 Mg0_5 3.185972 1_455
Mg0_4 Mg1_0 3.123386 1_555
Mg0_4 Mg1_6 3.123386 1_555
Mg0_4 Mg1_1 3.123386 1_554
Mg0_4 Mg1_7 3.123386 1_554
Mg0_5 Mg1_1 3.123386 1_555
Mg0_5 Mg1_7 3.123386 1_555
Mg0_5 Mg1_0 3.123386 1_555
Mg0_5 Mg1_6 3.123386 1_555
Mg0_6 Mg1_4 3.123386 1_565
Mg0_6 Mg1_5 3.123386 1_564
Mg0_6 Mg1_2 3.123386 1_555
Mg0_6 Mg1_3 3.123386 1_554
Mg0_7 Mg1_5 3.123386 1_565
Mg0_7 Mg1_4 3.123386 1_565
Mg0_7 Mg1_3 3.123386 1_555
Mg0_7 Mg1_2 3.123386 1_555
Mg1_0 Mg1_6 3.185972 1_445
Mg1_0 Mg1_6 3.185972 1_555
Mg1_1 Mg1_7 3.185972 1_445
Mg1_1 Mg1_7 3.185972 1_555
Mg1_2 Mg1_4 3.185972 1_455
Mg1_2 Mg1_4 3.185972 1_565
Mg1_3 Mg1_5 3.185972 1_455
Mg1_3 Mg1_5 3.185972 1_565
Ga0_0 Ga1_4 2.803651 1_455
Ga0_0 Ga1_2 2.803651 1_555
Ga0_0 Mg1_0 2.998631 1_555
Ga0_0 Mg1_1 2.998631 1_554
Ga0_0 Mg0_2 3.021139 1_545
Ga0_0 Mg0_4 3.021139 1_555
Ga0_0 Ga2_4 3.083787 1_555
Ga0_0 Ga2_2 3.083787 1_545
Ga0_0 Ga2_5 3.083787 1_554
Ga0_0 Ga2_3 3.083787 1_544
Ga0_0 Ga0_6 3.185972 1_445
Ga0_0 Ga0_6 3.185972 1_555
Ga0_1 Ga1_5 2.803651 1_455
Ga0_1 Ga1_3 2.803651 1_555
Ga0_1 Mg1_1 2.998631 1_555
Ga0_1 Mg1_0 2.998631 1_555
Ga0_1 Mg0_3 3.021139 1_545
Ga0_1 Mg0_5 3.021139 1_555
Ga0_1 Ga2_4 3.083787 1_555
Ga0_1 Ga2_5 3.083787 1_555
Ga0_1 Ga2_3 3.083787 1_545
Ga0_1 Ga2_2 3.083787 1_545
Ga0_1 Ga0_7 3.185972 1_445
Ga0_1 Ga0_7 3.185972 1_555
Ga0_2 Ga1_6 2.803651 1_455
Ga0_2 Ga1_0 2.803651 1_565
Ga0_2 Mg1_2 2.998631 1_555
Ga0_2 Mg1_3 2.998631 1_554
Ga0_2 Mg0_6 3.021139 1_555
Ga0_2 Mg0_0 3.021139 1_555
Ga0_2 Ga2_0 3.083787 1_555
Ga0_2 Ga2_1 3.083787 1_554
Ga0_2 Ga2_6 3.083787 1_555
Ga0_2 Ga2_7 3.083787 1_554
Ga0_2 Ga0_4 3.185972 1_455
Ga0_2 Ga0_4 3.185972 1_565
Ga0_3 Ga1_7 2.803651 1_455
Ga0_3 Ga1_1 2.803651 1_565
Ga0_3 Mg1_3 2.998631 1_555
Ga0_3 Mg1_2 2.998631 1_555
Ga0_3 Mg0_7 3.021139 1_555
Ga0_3 Mg0_1 3.021139 1_555
Ga0_3 Ga2_1 3.083787 1_555
Ga0_3 Ga2_0 3.083787 1_555
Ga0_3 Ga2_7 3.083787 1_555
Ga0_3 Ga2_6 3.083787 1_555
Ga0_3 Ga0_5 3.185972 1_455
Ga0_3 Ga0_5 3.185972 1_565
Ga0_4 Ga1_6 2.803651 1_555
Ga0_4 Ga1_0 2.803651 1_555
Ga0_4 Mg1_4 2.998631 1_555
Ga0_4 Mg1_5 2.998631 1_554
Ga0_4 Mg0_6 3.021139 1_545
Ga0_4 Mg0_0 3.021139 1_655
Ga0_4 Ga2_0 3.083787 1_655
Ga0_4 Ga2_1 3.083787 1_654
Ga0_4 Ga2_7 3.083787 1_544
Ga0_4 Ga2_6 3.083787 1_545
Ga0_5 Ga1_1 2.803651 1_555
Ga0_5 Ga1_7 2.803651 1_555
Ga0_5 Mg1_5 2.998631 1_555
Ga0_5 Mg1_4 2.998631 1_555
Ga0_5 Mg0_7 3.021139 1_545
Ga0_5 Mg0_1 3.021139 1_655
Ga0_5 Ga2_7 3.083787 1_545
Ga0_5 Ga2_1 3.083787 1_655
Ga0_5 Ga2_0 3.083787 1_655
Ga0_5 Ga2_6 3.083787 1_545
Ga0_6 Ga1_4 2.803651 1_565
Ga0_6 Ga1_2 2.803651 1_555
Ga0_6 Mg1_6 2.998631 1_555
Ga0_6 Mg1_7 2.998631 1_554
Ga0_6 Mg0_2 3.021139 1_655
Ga0_6 Mg0_4 3.021139 1_555
Ga0_6 Ga2_2 3.083787 1_655
Ga0_6 Ga2_3 3.083787 1_654
Ga0_6 Ga2_4 3.083787 1_555
Ga0_6 Ga2_5 3.083787 1_554
Ga0_7 Ga1_5 2.803651 1_565
Ga0_7 Ga1_3 2.803651 1_555
Ga0_7 Mg1_7 2.998631 1_555
Ga0_7 Mg1_6 2.998631 1_555
Ga0_7 Mg0_3 3.021139 1_655
Ga0_7 Mg0_5 3.021139 1_555
Ga0_7 Ga2_3 3.083787 1_655
Ga0_7 Ga2_2 3.083787 1_655
Ga0_7 Ga2_5 3.083787 1_555
Ga0_7 Ga2_4 3.083787 1_555
Ga1_0 Mg0_4 2.901678 1_555
Ga1_0 Mg0_2 2.901678 1_545
Ga1_0 Ga2_6 2.936107 1_545
Ga1_0 Ga2_7 2.936107 1_544
Ga1_0 Ga3_2 3.083787 1_545
Ga1_0 Ga3_4 3.083787 1_555
Ga1_0 Ga3_3 3.083787 1_544
Ga1_0 Ga3_5 3.083787 1_554
Ga1_0 Ga1_6 3.185972 1_445
Ga1_0 Ga1_6 3.185972 1_555
Ga1_1 Mg0_5 2.901678 1_555
Ga1_1 Mg0_3 2.901678 1_545
Ga1_1 Ga2_7 2.936107 1_545
Ga1_1 Ga2_6 2.936107 1_545
Ga1_1 Ga3_4 3.083787 1_555
Ga1_1 Ga3_3 3.083787 1_545
Ga1_1 Ga3_5 3.083787 1_555
Ga1_1 Ga3_2 3.083787 1_545
Ga1_1 Ga1_7 3.185972 1_445
Ga1_1 Ga1_7 3.185972 1_555
Ga1_2 Mg0_0 2.901678 1_555
Ga1_2 Mg0_6 2.901678 1_555
Ga1_2 Ga2_4 2.936107 1_555
Ga1_2 Ga2_5 2.936107 1_554
Ga1_2 Ga3_0 3.083787 1_555
Ga1_2 Ga3_1 3.083787 1_554
Ga1_2 Ga3_6 3.083787 1_555
Ga1_2 Ga3_7 3.083787 1_554
Ga1_2 Ga1_4 3.185972 1_455
Ga1_2 Ga1_4 3.185972 1_565
Ga1_3 Mg0_1 2.901678 1_555
Ga1_3 Mg0_7 2.901678 1_555
Ga1_3 Ga2_5 2.936107 1_555
Ga1_3 Ga2_4 2.936107 1_555
Ga1_3 Ga3_1 3.083787 1_555
Ga1_3 Ga3_0 3.083787 1_555
Ga1_3 Ga3_7 3.083787 1_555
Ga1_3 Ga3_6 3.083787 1_555
Ga1_3 Ga1_5 3.185972 1_455
Ga1_3 Ga1_5 3.185972 1_565
Ga1_4 Mg0_0 2.901678 1_655
Ga1_4 Mg0_6 2.901678 1_545
Ga1_4 Ga2_2 2.936107 1_645
Ga1_4 Ga2_3 2.936107 1_644
Ga1_4 Ga3_0 3.083787 1_655
Ga1_4 Ga3_6 3.083787 1_545
Ga1_4 Ga3_1 3.083787 1_654
Ga1_4 Ga3_7 3.083787 1_544
Ga1_5 Mg0_1 2.901678 1_655
Ga1_5 Mg0_7 2.901678 1_545
Ga1_5 Ga2_3 2.936107 1_645
Ga1_5 Ga2_2 2.936107 1_645
Ga1_5 Ga3_1 3.083787 1_655
Ga1_5 Ga3_7 3.083787 1_545
Ga1_5 Ga3_0 3.083787 1_655
Ga1_5 Ga3_6 3.083787 1_545
Ga1_6 Mg0_2 2.901678 1_655
Ga1_6 Mg0_4 2.901678 1_555
Ga1_6 Ga2_0 2.936107 1_655
Ga1_6 Ga2_1 2.936107 1_654
Ga1_6 Ga3_2 3.083787 1_655
Ga1_6 Ga3_3 3.083787 1_654
Ga1_6 Ga3_5 3.083787 1_554
Ga1_6 Ga3_4 3.083787 1_555
Ga1_7 Mg0_3 2.901678 1_655
Ga1_7 Mg0_5 2.901678 1_555
Ga1_7 Ga2_1 2.936107 1_655
Ga1_7 Ga2_0 2.936107 1_655
Ga1_7 Ga3_3 3.083787 1_655
Ga1_7 Ga3_2 3.083787 1_655
Ga1_7 Ga3_5 3.083787 1_555
Ga1_7 Ga3_4 3.083787 1_555
Ga2_0 Ga3_4 2.803651 1_455
Ga2_0 Ga3_2 2.803651 1_555
Ga2_0 Mg1_2 2.901678 1_555
Ga2_0 Mg1_4 2.901678 1_455
Ga2_0 Ga2_6 3.185972 1_445
Ga2_0 Ga2_6 3.185972 1_555
Ga2_1 Ga3_5 2.803651 1_455
Ga2_1 Ga3_3 2.803651 1_555
Ga2_1 Mg1_3 2.901678 1_555
Ga2_1 Mg1_5 2.901678 1_455
Ga2_1 Ga2_7 3.185972 1_445
Ga2_1 Ga2_7 3.185972 1_555
Ga2_2 Ga3_0 2.803651 1_565
Ga2_2 Ga3_6 2.803651 1_455
Ga2_2 Mg1_0 2.901678 1_565
Ga2_2 Mg1_6 2.901678 1_455
Ga2_2 Ga2_4 3.185972 1_565
Ga2_2 Ga2_4 3.185972 1_455
Ga2_3 Ga3_1 2.803651 1_565
Ga2_3 Ga3_7 2.803651 1_455
Ga2_3 Mg1_1 2.901678 1_565
Ga2_3 Mg1_7 2.901678 1_455
Ga2_3 Ga2_5 3.185972 1_455
Ga2_3 Ga2_5 3.185972 1_565
Ga2_4 Ga3_0 2.803651 1_555
Ga2_4 Ga3_6 2.803651 1_555
Ga2_4 Mg1_0 2.901678 1_555
Ga2_4 Mg1_6 2.901678 1_555
Ga2_5 Ga3_1 2.803651 1_555
Ga2_5 Ga3_7 2.803651 1_555
Ga2_5 Mg1_1 2.901678 1_555
Ga2_5 Mg1_7 2.901678 1_555
Ga2_6 Ga3_4 2.803651 1_565
Ga2_6 Ga3_2 2.803651 1_555
Ga2_6 Mg1_4 2.901678 1_565
Ga2_6 Mg1_2 2.901678 1_555
Ga2_7 Ga3_5 2.803651 1_565
Ga2_7 Ga3_3 2.803651 1_555
Ga2_7 Mg1_5 2.901678 1_565
Ga2_7 Mg1_3 2.901678 1_555
Ga3_0 Mg0_0 2.998631 1_555
Ga3_0 Mg0_1 2.998631 1_555
Ga3_0 Mg1_4 3.021139 1_455
Ga3_0 Mg1_2 3.021139 1_555
Ga3_0 Ga3_6 3.185972 1_445
Ga3_0 Ga3_6 3.185972 1_555
Ga3_1 Mg0_1 2.998631 1_555
Ga3_1 Mg0_0 2.998631 1_556
Ga3_1 Mg1_5 3.021139 1_455
Ga3_1 Mg1_3 3.021139 1_555
Ga3_1 Ga3_7 3.185972 1_445
Ga3_1 Ga3_7 3.185972 1_555
Ga3_2 Mg0_2 2.998631 1_555
Ga3_2 Mg0_3 2.998631 1_555
Ga3_2 Mg1_6 3.021139 1_455
Ga3_2 Mg1_0 3.021139 1_565
Ga3_2 Ga3_4 3.185972 1_565
Ga3_2 Ga3_4 3.185972 1_455
Ga3_3 Mg0_3 2.998631 1_555
Ga3_3 Mg0_2 2.998631 1_556
Ga3_3 Mg1_7 3.021139 1_455
Ga3_3 Mg1_1 3.021139 1_565
Ga3_3 Ga3_5 3.185972 1_565
Ga3_3 Ga3_5 3.185972 1_455
Ga3_4 Mg0_4 2.998631 1_555
Ga3_4 Mg0_5 2.998631 1_555
Ga3_4 Mg1_6 3.021139 1_555
Ga3_4 Mg1_0 3.021139 1_555
Ga3_5 Mg0_5 2.998631 1_555
Ga3_5 Mg0_4 2.998631 1_556
Ga3_5 Mg1_7 3.021139 1_555
Ga3_5 Mg1_1 3.021139 1_555
Ga3_6 Mg0_6 2.998631 1_555
Ga3_6 Mg0_7 2.998631 1_555
Ga3_6 Mg1_4 3.021139 1_565
Ga3_6 Mg1_2 3.021139 1_555
Ga3_7 Mg0_6 2.998631 1_556
Ga3_7 Mg0_7 2.998631 1_555
Ga3_7 Mg1_5 3.021139 1_565
Ga3_7 Mg1_3 3.021139 1_555
