# generated using pymatgen
data_ErFeC6N6O5
_symmetry_space_group_name_H-M   'P 1'
_cell_length_a   7.44975828
_cell_length_b   7.44975828
_cell_length_c   13.40854500
_cell_angle_alpha   90.00000000
_cell_angle_beta   90.00000000
_cell_angle_gamma   120.00000246
_symmetry_Int_Tables_number   1
_chemical_formula_structural   ErFeC6N6O5
_chemical_formula_sum   'Er2 Fe2 C12 N12 O10'
_cell_volume   644.46099511
_cell_formula_units_Z   2
loop_
 _symmetry_equiv_pos_site_id
 _symmetry_equiv_pos_as_xyz
  1  'x, y, z'
loop_
 _atom_site_type_symbol
 _atom_site_label
 _atom_site_symmetry_multiplicity
 _atom_site_fract_x
 _atom_site_fract_y
 _atom_site_fract_z
 _atom_site_occupancy
  Er  Er0  1  0.33333300  0.66666700  0.75000000  1
  Er  Er1  1  0.66666700  0.33333300  0.25000000  1
  Fe  Fe0  1  0.00000000  0.00000000  0.00000000  1
  Fe  Fe1  1  0.00000000  0.00000000  0.50000000  1
  C  C0  1  0.75224400  0.89025300  0.91797900  1
  C  C1  1  0.24775600  0.10974700  0.08202100  1
  C  C2  1  0.13800900  0.24775600  0.91797900  1
  C  C3  1  0.24775600  0.10974700  0.41797900  1
  C  C4  1  0.86199100  0.75224400  0.08202100  1
  C  C5  1  0.75224400  0.89025300  0.58202100  1
  C  C6  1  0.10974700  0.86199100  0.91797900  1
  C  C7  1  0.86199100  0.75224400  0.41797900  1
  C  C8  1  0.89025300  0.13800900  0.08202100  1
  C  C9  1  0.13800900  0.24775600  0.58202100  1
  C  C10  1  0.89025300  0.13800900  0.41797900  1
  C  C11  1  0.10974700  0.86199100  0.58202100  1
  N  N0  1  0.60882900  0.82317700  0.86444000  1
  N  N1  1  0.39117100  0.17682300  0.13556000  1
  N  N2  1  0.21434800  0.39117100  0.86444000  1
  N  N3  1  0.39117100  0.17682300  0.36444000  1
  N  N4  1  0.78565200  0.60882900  0.13556000  1
  N  N5  1  0.60882900  0.82317700  0.63556000  1
  N  N6  1  0.17682300  0.78565200  0.86444000  1
  N  N7  1  0.78565200  0.60882900  0.36444000  1
  N  N8  1  0.82317700  0.21434800  0.13556000  1
  N  N9  1  0.21434800  0.39117100  0.63556000  1
  N  N10  1  0.82317700  0.21434800  0.36444000  1
  N  N11  1  0.17682300  0.78565200  0.63556000  1
  O  O0  1  0.66666700  0.33333300  0.84909600  1
  O  O1  1  0.33333300  0.66666700  0.15090400  1
  O  O2  1  0.33333300  0.66666700  0.34909600  1
  O  O3  1  0.66666700  0.33333300  0.65090400  1
  O  O4  1  0.88095600  0.42088700  0.75000000  1
  O  O5  1  0.11904400  0.57911300  0.25000000  1
  O  O6  1  0.53993100  0.11904400  0.75000000  1
  O  O7  1  0.46006900  0.88095600  0.25000000  1
  O  O8  1  0.57911300  0.46006900  0.75000000  1
  O  O9  1  0.42088700  0.53993100  0.25000000  1
loop_
_geom_bond_atom_site_label_1
_geom_bond_atom_site_label_2
_geom_bond_distance
_geom_bond_site_symmetry_2
Er0 N11 2.352301 1_555
Er0 N6 2.352301 1_555
Er0 N5 2.352305 1_555
Er0 N0 2.352305 1_555
Er0 N9 2.352306 1_555
Er0 N2 2.352306 1_555
Er0 O6 2.922238 1_565
Er0 O4 2.922239 1_455
Er0 O8 2.922245 1_555
Er1 N8 2.352301 1_555
Er1 N10 2.352301 1_555
Er1 N1 2.352305 1_555
Er1 N3 2.352305 1_555
Er1 N4 2.352306 1_555
Er1 N7 2.352306 1_555
Er1 O7 2.922238 1_545
Er1 O5 2.922239 1_655
Er1 O9 2.922245 1_555
C0 N0 1.171607 1_555
C0 Fe0 1.943096 1_666
C1 N1 1.171607 1_555
C1 Fe0 1.943096 1_555
C2 N2 1.171607 1_555
C2 Fe0 1.943096 1_556
C3 N3 1.171607 1_555
C3 Fe1 1.943096 1_555
C4 N4 1.171607 1_555
C4 Fe0 1.943096 1_665
C5 N5 1.171607 1_555
C5 Fe1 1.943096 1_665
C6 N6 1.171607 1_555
C6 Fe0 1.943096 1_566
C7 N7 1.171607 1_555
C7 Fe1 1.943096 1_665
C8 N8 1.171607 1_555
C8 Fe0 1.943096 1_655
C9 N9 1.171607 1_555
C9 Fe1 1.943096 1_555
C10 N10 1.171607 1_555
C10 Fe1 1.943096 1_655
C11 N11 1.171607 1_555
C11 Fe1 1.943096 1_565
O0 O4 1.923072 1_555
O0 O6 1.923072 1_555
O0 O8 1.923077 1_555
O1 O5 1.923072 1_555
O1 O7 1.923072 1_555
O1 O9 1.923077 1_555
O2 O5 1.923072 1_555
O2 O7 1.923072 1_555
O2 O9 1.923077 1_555
O3 O4 1.923072 1_555
O3 O6 1.923072 1_555
O3 O8 1.923077 1_555
