# generated using pymatgen
data_ErGaNi
_symmetry_space_group_name_H-M   'P 1'
_cell_length_a   4.17836800
_cell_length_b   5.26181399
_cell_length_c   5.69279526
_cell_angle_alpha   93.14931318
_cell_angle_beta   111.52992972
_cell_angle_gamma   66.60635141
_symmetry_Int_Tables_number   1
_chemical_formula_structural   ErGaNi
_chemical_formula_sum   'Er2 Ga2 Ni2'
_cell_volume   106.25147785
_cell_formula_units_Z   2
loop_
 _symmetry_equiv_pos_site_id
 _symmetry_equiv_pos_as_xyz
  1  'x, y, z'
loop_
 _atom_site_type_symbol
 _atom_site_label
 _atom_site_symmetry_multiplicity
 _atom_site_fract_x
 _atom_site_fract_y
 _atom_site_fract_z
 _atom_site_occupancy
  Er  Er0  1  0.74436800  0.69912800  0.18786400  1
  Er  Er1  1  0.25563200  0.30087200  0.81213600  1
  Ga  Ga0  1  0.57379900  0.25179500  0.39939200  1
  Ga  Ga1  1  0.42620100  0.74820500  0.60060800  1
  Ni  Ni0  1  0.04680100  0.11226400  0.20586600  1
  Ni  Ni1  1  0.95319900  0.88773600  0.79413400  1
loop_
_geom_bond_atom_site_label_1
_geom_bond_atom_site_label_2
_geom_bond_distance
_geom_bond_site_symmetry_2
Er0 Ni0 2.825589 1_655
Er0 Ni0 2.897387 1_665
Er0 Ni0 2.897388 1_565
Er0 Ga0 3.002332 1_565
Er0 Ni1 3.022886 1_554
Er0 Ni1 3.022887 1_454
Er0 Ga1 3.050965 1_655
Er0 Ga1 3.050967 1_555
Er0 Ga1 3.093655 1_554
Er0 Ga0 3.125983 1_555
Er0 Ga0 3.125986 1_655
Er1 Ni1 2.825589 1_455
Er1 Ni1 2.897387 1_445
Er1 Ni1 2.897388 1_545
Er1 Ga1 3.002332 1_545
Er1 Ni0 3.022886 1_556
Er1 Ni0 3.022887 1_656
Er1 Ga0 3.050965 1_455
Er1 Ga0 3.050967 1_555
Er1 Ga0 3.093655 1_556
Er1 Ga1 3.125983 1_555
Er1 Ga1 3.125986 1_455
Ga0 Ni0 2.452726 1_655
Ga0 Ni0 2.452729 1_555
Ga0 Ni1 2.584434 1_545
Ga0 Ga1 2.725009 1_555
Ga1 Ni1 2.452726 1_455
Ga1 Ni1 2.452729 1_555
Ga1 Ni0 2.584434 1_565
Ni0 Ni1 2.536224 1_444
