# generated using pymatgen
data_Rb2TeSe4
_symmetry_space_group_name_H-M   'P 1'
_cell_length_a   7.07356240
_cell_length_b   7.07356240
_cell_length_c   5.32286457
_cell_angle_alpha   70.22747190
_cell_angle_beta   70.22747190
_cell_angle_gamma   75.78807050
_symmetry_Int_Tables_number   1
_chemical_formula_structural   Rb2TeSe4
_chemical_formula_sum   'Rb2 Te1 Se4'
_cell_volume   233.25498978
_cell_formula_units_Z   1
loop_
 _symmetry_equiv_pos_site_id
 _symmetry_equiv_pos_as_xyz
  1  'x, y, z'
loop_
 _atom_site_type_symbol
 _atom_site_label
 _atom_site_symmetry_multiplicity
 _atom_site_fract_x
 _atom_site_fract_y
 _atom_site_fract_z
 _atom_site_occupancy
  Rb  Rb0  1  0.32262073  0.32262073  0.33727397  1
  Rb  Rb1  1  0.67737927  0.67737927  0.66272603  1
  Te  Te0  1  -0.00000000  0.00000000  0.00000000  1
  Se  Se0  1  0.84713768  0.31616016  0.26585969  1
  Se  Se1  1  0.31616016  0.84713768  0.26585969  1
  Se  Se2  1  0.15286232  0.68383984  0.73414031  1
  Se  Se3  1  0.68383984  0.15286232  0.73414031  1
loop_
_geom_bond_atom_site_label_1
_geom_bond_atom_site_label_2
_geom_bond_distance
_geom_bond_site_symmetry_2
Rb0 Se1 3.522925 1_545
Rb0 Se0 3.522925 1_455
Rb0 Se2 3.586377 1_555
Rb0 Se3 3.586377 1_555
Rb0 Se1 3.589775 1_555
Rb0 Se0 3.589775 1_555
Rb0 Se3 3.718731 1_554
Rb0 Se2 3.718731 1_554
Rb0 Te0 3.810998 1_556
Rb1 Se2 3.522925 1_655
Rb1 Se3 3.522925 1_565
Rb1 Se0 3.586377 1_555
Rb1 Se1 3.586377 1_555
Rb1 Se3 3.589775 1_555
Rb1 Se2 3.589775 1_555
Rb1 Se1 3.718731 1_556
Rb1 Se0 3.718731 1_556
Rb1 Te0 3.810998 1_665
Se0 Se3 2.375016 1_555
Se0 Te0 2.844600 1_655
Se1 Se2 2.375016 1_555
Se1 Te0 2.844600 1_565
Se2 Te0 2.844600 1_566
Se3 Te0 2.844600 1_656
