# generated using pymatgen
data_MgSn3
_symmetry_space_group_name_H-M   'P 1'
_cell_length_a   12.98560246
_cell_length_b   12.98560246
_cell_length_c   12.98560246
_cell_angle_alpha   149.84973736
_cell_angle_beta   130.30720530
_cell_angle_gamma   59.22974805
_symmetry_Int_Tables_number   1
_chemical_formula_structural   MgSn3
_chemical_formula_sum   'Mg8 Sn24'
_cell_volume   832.16218449
_cell_formula_units_Z   8
loop_
 _symmetry_equiv_pos_site_id
 _symmetry_equiv_pos_as_xyz
  1  'x, y, z'
loop_
 _atom_site_type_symbol
 _atom_site_label
 _atom_site_symmetry_multiplicity
 _atom_site_fract_x
 _atom_site_fract_y
 _atom_site_fract_z
 _atom_site_occupancy
  Mg  Mg0_0  1  0.33433700  0.00000000  0.33433700  1
  Mg  Mg0_1  1  0.33433700  0.00000000  0.83433700  1
  Mg  Mg0_2  1  0.33433700  0.50000000  0.33433700  1
  Mg  Mg0_3  1  0.33433700  0.50000000  0.83433700  1
  Mg  Mg0_4  1  0.83433700  0.00000000  0.33433700  1
  Mg  Mg0_5  1  0.83433700  0.00000000  0.83433700  1
  Mg  Mg0_6  1  0.83433700  0.50000000  0.33433700  1
  Mg  Mg0_7  1  0.83433700  0.50000000  0.83433700  1
  Sn  Sn0_0  1  0.08475350  0.25000000  0.33475350  1
  Sn  Sn0_1  1  0.08475350  0.25000000  0.83475350  1
  Sn  Sn0_2  1  0.08475350  0.75000000  0.33475350  1
  Sn  Sn0_3  1  0.08475350  0.75000000  0.83475350  1
  Sn  Sn0_4  1  0.58475350  0.25000000  0.33475350  1
  Sn  Sn0_5  1  0.58475350  0.25000000  0.83475350  1
  Sn  Sn0_6  1  0.58475350  0.75000000  0.33475350  1
  Sn  Sn0_7  1  0.58475350  0.75000000  0.83475350  1
  Sn  Sn1_0  1  0.12591200  0.12712350  0.49878850  1
  Sn  Sn1_1  1  0.12591200  0.12712350  0.99878850  1
  Sn  Sn1_2  1  0.12591200  0.62712350  0.49878850  1
  Sn  Sn1_3  1  0.12591200  0.62712350  0.99878850  1
  Sn  Sn1_4  1  0.62591200  0.12712350  0.49878850  1
  Sn  Sn1_5  1  0.62591200  0.12712350  0.99878850  1
  Sn  Sn1_6  1  0.62591200  0.62712350  0.49878850  1
  Sn  Sn1_7  1  0.62591200  0.62712350  0.99878850  1
  Sn  Sn2_0  1  0.37166450  0.37287650  0.49878850  1
  Sn  Sn2_1  1  0.37166450  0.37287650  0.99878850  1
  Sn  Sn2_2  1  0.37166450  0.87287650  0.49878850  1
  Sn  Sn2_3  1  0.37166450  0.87287650  0.99878850  1
  Sn  Sn2_4  1  0.87166450  0.37287650  0.49878850  1
  Sn  Sn2_5  1  0.87166450  0.37287650  0.99878850  1
  Sn  Sn2_6  1  0.87166450  0.87287650  0.49878850  1
  Sn  Sn2_7  1  0.87166450  0.87287650  0.99878850  1
loop_
_geom_bond_atom_site_label_1
_geom_bond_atom_site_label_2
_geom_bond_distance
_geom_bond_site_symmetry_2
Mg0_0 Sn0_0 3.204668 1_555
Mg0_0 Sn0_3 3.204668 1_544
Mg0_0 Sn0_6 3.212397 1_545
Mg0_0 Sn0_5 3.212397 1_555
Mg0_0 Mg0_3 3.377366 1_544
Mg0_0 Mg0_3 3.377366 1_555
Mg0_0 Sn2_3 3.379391 1_544
Mg0_0 Sn2_0 3.379393 1_555
Mg0_0 Sn1_0 3.379396 1_555
Mg0_0 Sn1_3 3.379396 1_544
Mg0_0 Sn1_4 3.385121 1_555
Mg0_0 Sn2_2 3.385124 1_545
Mg0_1 Sn0_1 3.204668 1_555
Mg0_1 Sn0_2 3.204668 1_545
Mg0_1 Sn0_7 3.212397 1_545
Mg0_1 Sn0_4 3.212397 1_556
Mg0_1 Mg0_2 3.377366 1_545
Mg0_1 Mg0_2 3.377366 1_556
Mg0_1 Sn2_2 3.379391 1_545
Mg0_1 Sn2_1 3.379393 1_555
Mg0_1 Sn1_1 3.379396 1_555
Mg0_1 Sn1_2 3.379396 1_545
Mg0_1 Sn1_5 3.385121 1_555
Mg0_1 Sn2_3 3.385124 1_545
Mg0_2 Sn0_2 3.204668 1_555
Mg0_2 Sn0_1 3.204668 1_554
Mg0_2 Sn0_7 3.212397 1_555
Mg0_2 Sn0_4 3.212397 1_555
Mg0_2 Sn2_1 3.379391 1_554
Mg0_2 Sn2_2 3.379393 1_555
Mg0_2 Sn1_1 3.379396 1_554
Mg0_2 Sn1_2 3.379396 1_555
Mg0_2 Sn1_6 3.385121 1_555
Mg0_2 Sn2_0 3.385124 1_555
Mg0_3 Sn0_0 3.204668 1_555
Mg0_3 Sn0_3 3.204668 1_555
Mg0_3 Sn0_6 3.212397 1_556
Mg0_3 Sn0_5 3.212397 1_555
Mg0_3 Sn2_0 3.379391 1_555
Mg0_3 Sn2_3 3.379393 1_555
Mg0_3 Sn1_3 3.379396 1_555
Mg0_3 Sn1_0 3.379396 1_555
Mg0_3 Sn1_7 3.385121 1_555
Mg0_3 Sn2_1 3.385124 1_555
Mg0_4 Sn0_4 3.204668 1_555
Mg0_4 Sn0_7 3.204668 1_544
Mg0_4 Sn0_1 3.212397 1_655
Mg0_4 Sn0_2 3.212397 1_645
Mg0_4 Mg0_7 3.377366 1_544
Mg0_4 Mg0_7 3.377366 1_555
Mg0_4 Sn2_7 3.379391 1_544
Mg0_4 Sn2_4 3.379393 1_555
Mg0_4 Sn1_4 3.379396 1_555
Mg0_4 Sn1_7 3.379396 1_544
Mg0_4 Sn1_0 3.385121 1_655
Mg0_4 Sn2_6 3.385124 1_545
Mg0_5 Sn0_5 3.204668 1_555
Mg0_5 Sn0_6 3.204668 1_545
Mg0_5 Sn0_0 3.212397 1_656
Mg0_5 Sn0_3 3.212397 1_645
Mg0_5 Mg0_6 3.377366 1_545
Mg0_5 Mg0_6 3.377366 1_556
Mg0_5 Sn2_6 3.379391 1_545
Mg0_5 Sn2_5 3.379393 1_555
Mg0_5 Sn1_5 3.379396 1_555
Mg0_5 Sn1_6 3.379396 1_545
Mg0_5 Sn1_1 3.385121 1_655
Mg0_5 Sn2_7 3.385124 1_545
Mg0_6 Sn0_5 3.204668 1_554
Mg0_6 Sn0_6 3.204668 1_555
Mg0_6 Sn0_0 3.212397 1_655
Mg0_6 Sn0_3 3.212397 1_655
Mg0_6 Sn2_5 3.379391 1_554
Mg0_6 Sn2_6 3.379393 1_555
Mg0_6 Sn1_6 3.379396 1_555
Mg0_6 Sn1_5 3.379396 1_554
Mg0_6 Sn1_2 3.385121 1_655
Mg0_6 Sn2_4 3.385124 1_555
Mg0_7 Sn0_4 3.204668 1_555
Mg0_7 Sn0_7 3.204668 1_555
Mg0_7 Sn0_1 3.212397 1_655
Mg0_7 Sn0_2 3.212397 1_656
Mg0_7 Sn2_4 3.379391 1_555
Mg0_7 Sn2_7 3.379393 1_555
Mg0_7 Sn1_7 3.379396 1_555
Mg0_7 Sn1_4 3.379396 1_555
Mg0_7 Sn1_3 3.385121 1_655
Mg0_7 Sn2_5 3.385124 1_555
Sn0_0 Sn2_0 3.301733 1_555
Sn0_0 Sn1_0 3.301739 1_555
Sn0_0 Sn0_3 3.377366 1_544
Sn0_0 Sn0_3 3.377366 1_555
Sn0_0 Sn1_2 3.459782 1_555
Sn0_0 Sn1_1 3.459782 1_554
Sn0_0 Sn2_7 3.459787 1_444
Sn0_0 Sn2_4 3.459788 1_455
Sn0_1 Sn2_1 3.301733 1_555
Sn0_1 Sn1_1 3.301739 1_555
Sn0_1 Sn0_2 3.377366 1_545
Sn0_1 Sn0_2 3.377366 1_556
Sn0_1 Sn1_3 3.459782 1_555
Sn0_1 Sn1_0 3.459782 1_555
Sn0_1 Sn2_6 3.459787 1_445
Sn0_1 Sn2_5 3.459788 1_455
Sn0_2 Sn2_2 3.301733 1_555
Sn0_2 Sn1_2 3.301739 1_555
Sn0_2 Sn1_0 3.459782 1_565
Sn0_2 Sn1_3 3.459782 1_554
Sn0_2 Sn2_5 3.459787 1_454
Sn0_2 Sn2_6 3.459788 1_455
Sn0_3 Sn2_3 3.301733 1_555
Sn0_3 Sn1_3 3.301739 1_555
Sn0_3 Sn1_2 3.459782 1_555
Sn0_3 Sn1_1 3.459782 1_565
Sn0_3 Sn2_4 3.459787 1_455
Sn0_3 Sn2_7 3.459788 1_455
Sn0_4 Sn2_4 3.301733 1_555
Sn0_4 Sn1_4 3.301739 1_555
Sn0_4 Sn0_7 3.377366 1_555
Sn0_4 Sn0_7 3.377366 1_544
Sn0_4 Sn1_6 3.459782 1_555
Sn0_4 Sn1_5 3.459782 1_554
Sn0_4 Sn2_3 3.459787 1_544
Sn0_4 Sn2_0 3.459788 1_555
Sn0_5 Sn2_5 3.301733 1_555
Sn0_5 Sn1_5 3.301739 1_555
Sn0_5 Sn0_6 3.377366 1_545
Sn0_5 Sn0_6 3.377366 1_556
Sn0_5 Sn1_7 3.459782 1_555
Sn0_5 Sn1_4 3.459782 1_555
Sn0_5 Sn2_2 3.459787 1_545
Sn0_5 Sn2_1 3.459788 1_555
Sn0_6 Sn2_6 3.301733 1_555
Sn0_6 Sn1_6 3.301739 1_555
Sn0_6 Sn1_4 3.459782 1_565
Sn0_6 Sn1_7 3.459782 1_554
Sn0_6 Sn2_1 3.459787 1_554
Sn0_6 Sn2_2 3.459788 1_555
Sn0_7 Sn2_7 3.301733 1_555
Sn0_7 Sn1_7 3.301739 1_555
Sn0_7 Sn1_5 3.459782 1_565
Sn0_7 Sn1_6 3.459782 1_555
Sn0_7 Sn2_0 3.459787 1_555
Sn0_7 Sn2_3 3.459788 1_555
Sn1_0 Sn2_2 3.209961 1_545
Sn1_0 Sn2_1 3.209963 1_555
Sn1_0 Sn2_7 3.209966 1_444
Sn1_0 Sn2_4 3.209968 1_455
Sn1_0 Sn1_3 3.377366 1_555
Sn1_0 Sn1_3 3.377366 1_544
Sn1_1 Sn2_3 3.209961 1_545
Sn1_1 Sn2_0 3.209963 1_556
Sn1_1 Sn2_6 3.209966 1_445
Sn1_1 Sn2_5 3.209968 1_455
Sn1_1 Sn1_2 3.377366 1_545
Sn1_1 Sn1_2 3.377366 1_556
Sn1_2 Sn2_0 3.209961 1_555
Sn1_2 Sn2_3 3.209963 1_555
Sn1_2 Sn2_5 3.209966 1_454
Sn1_2 Sn2_6 3.209968 1_455
Sn1_3 Sn2_1 3.209961 1_555
Sn1_3 Sn2_2 3.209963 1_556
Sn1_3 Sn2_4 3.209966 1_455
Sn1_3 Sn2_7 3.209968 1_455
Sn1_4 Sn2_6 3.209961 1_545
Sn1_4 Sn2_5 3.209963 1_555
Sn1_4 Sn2_3 3.209966 1_544
Sn1_4 Sn2_0 3.209968 1_555
Sn1_4 Sn1_7 3.377366 1_544
Sn1_4 Sn1_7 3.377366 1_555
Sn1_5 Sn2_7 3.209961 1_545
Sn1_5 Sn2_4 3.209963 1_556
Sn1_5 Sn2_2 3.209966 1_545
Sn1_5 Sn2_1 3.209968 1_555
Sn1_5 Sn1_6 3.377366 1_545
Sn1_5 Sn1_6 3.377366 1_556
Sn1_6 Sn2_4 3.209961 1_555
Sn1_6 Sn2_7 3.209963 1_555
Sn1_6 Sn2_1 3.209966 1_554
Sn1_6 Sn2_2 3.209968 1_555
Sn1_7 Sn2_5 3.209961 1_555
Sn1_7 Sn2_6 3.209963 1_556
Sn1_7 Sn2_0 3.209966 1_555
Sn1_7 Sn2_3 3.209968 1_555
Sn2_0 Sn2_3 3.377366 1_544
Sn2_0 Sn2_3 3.377366 1_555
Sn2_1 Sn2_2 3.377366 1_545
Sn2_1 Sn2_2 3.377366 1_556
Sn2_4 Sn2_7 3.377366 1_555
Sn2_4 Sn2_7 3.377366 1_544
Sn2_5 Sn2_6 3.377366 1_545
Sn2_5 Sn2_6 3.377366 1_556
