# generated using pymatgen
data_TbReB4
_symmetry_space_group_name_H-M   'P 1'
_cell_length_a   3.61881767
_cell_length_b   5.97870667
_cell_length_c   11.55830459
_cell_angle_alpha   90.00029350
_cell_angle_beta   90.00001360
_cell_angle_gamma   89.99998648
_symmetry_Int_Tables_number   1
_chemical_formula_structural   TbReB4
_chemical_formula_sum   'Tb4 Re4 B16'
_cell_volume   250.07373675
_cell_formula_units_Z   4
loop_
 _symmetry_equiv_pos_site_id
 _symmetry_equiv_pos_as_xyz
  1  'x, y, z'
loop_
 _atom_site_type_symbol
 _atom_site_label
 _atom_site_symmetry_multiplicity
 _atom_site_fract_x
 _atom_site_fract_y
 _atom_site_fract_z
 _atom_site_occupancy
  Tb  Tb0  1  0.00000008  0.62626489  0.34964415  1
  Tb  Tb1  1  -0.00000002  0.37372967  0.65032223  1
  Tb  Tb2  1  -0.00000027  0.12626945  0.15032970  1
  Tb  Tb3  1  0.00000010  0.87372371  0.84970446  1
  Re  Re0  1  0.00000043  0.63255494  0.08696952  1
  Re  Re1  1  0.00000028  0.36745052  0.91308789  1
  Re  Re2  1  0.00000002  0.13256270  0.41301624  1
  Re  Re3  1  -0.00000097  0.86744557  0.58692627  1
  B  B0  1  0.50000038  0.78665805  0.18444196  1
  B  B1  1  0.49999989  0.21333881  0.81556516  1
  B  B2  1  0.50000021  0.28666349  0.31555013  1
  B  B3  1  0.49999983  0.71333448  0.68444272  1
  B  B4  1  0.49999999  0.86261053  0.03145349  1
  B  B5  1  0.50000006  0.13738272  0.96856950  1
  B  B6  1  0.50000013  0.36261640  0.46854524  1
  B  B7  1  0.49999984  0.63738065  0.53143146  1
  B  B8  1  0.49999992  0.88634727  0.45284859  1
  B  B9  1  0.49999999  0.11365827  0.54712778  1
  B  B10  1  0.50000012  0.38634968  0.04714713  1
  B  B11  1  0.50000009  0.61365369  0.95287665  1
  B  B12  1  0.49999992  0.97692579  0.30834435  1
  B  B13  1  0.49999984  0.02307744  0.69164835  1
  B  B14  1  0.50000004  0.47692708  0.19164732  1
  B  B15  1  0.50000010  0.52307418  0.80835972  1
loop_
_geom_bond_atom_site_label_1
_geom_bond_atom_site_label_2
_geom_bond_distance
_geom_bond_site_symmetry_2
Re0 Re1 2.559558 1_554
Re0 Tb0 3.036306 1_555
Re0 Tb2 3.041260 1_565
Re0 Tb3 3.098340 1_554
Re0 Tb2 3.114267 1_555
Re1 Tb1 3.037358 1_555
Re1 Tb3 3.041397 1_545
Re1 Tb2 3.098136 1_556
Re1 Tb3 3.114259 1_555
Re2 Re3 2.559876 1_545
Re2 Tb2 3.036444 1_555
Re2 Tb0 3.041229 1_555
Re2 Tb1 3.098740 1_555
Re2 Tb0 3.114364 1_545
Re3 Tb3 3.037502 1_555
Re3 Tb1 3.041375 1_555
Re3 Tb0 3.098534 1_555
Re3 Tb1 3.114349 1_565
B0 B4 1.825665 1_555
B0 B12 1.828915 1_555
B0 B14 1.853663 1_555
B0 Re0 2.322084 1_555
B0 Re0 2.322085 1_655
B0 Tb2 2.748107 1_665
B0 Tb2 2.748109 1_565
B0 Tb0 2.799924 1_655
B0 Tb0 2.799926 1_555
B1 B5 1.825848 1_555
B1 B13 1.829022 1_555
B1 B15 1.853689 1_555
B1 Re1 2.322386 1_555
B1 Re1 2.322388 1_655
B1 Tb3 2.748169 1_545
B1 Tb3 2.748170 1_645
B1 Tb1 2.800241 1_555
B1 Tb1 2.800242 1_655
B2 B6 1.825736 1_555
B2 Re2 2.322047 1_655
B2 Re2 2.322049 1_555
B2 Tb0 2.748031 1_655
B2 Tb0 2.748031 1_555
B2 Tb2 2.800063 1_655
B2 Tb2 2.800065 1_555
B3 B7 1.825918 1_555
B3 Re3 2.322353 1_655
B3 Re3 2.322357 1_555
B3 Tb1 2.748090 1_555
B3 Tb1 2.748090 1_655
B3 Tb3 2.800379 1_555
B3 Tb3 2.800380 1_655
B4 B5 1.796394 1_564
B4 Re0 2.361679 1_555
B4 Re0 2.361681 1_655
B4 Tb2 2.765263 1_665
B4 Tb2 2.765264 1_565
B4 Tb3 2.773330 1_554
B4 Tb3 2.773331 1_654
B5 Re1 2.361613 1_555
B5 Re1 2.361615 1_655
B5 Tb3 2.765199 1_545
B5 Tb3 2.765199 1_645
B5 Tb2 2.773427 1_656
B5 Tb2 2.773429 1_556
B6 B9 1.743693 1_555
B6 B7 1.796354 1_555
B6 Re2 2.361710 1_655
B6 Re2 2.361711 1_555
B6 Tb0 2.765378 1_555
B6 Tb0 2.765379 1_655
B6 Tb1 2.773574 1_655
B6 Tb1 2.773575 1_555
B7 B8 1.743738 1_555
B7 Re3 2.361640 1_655
B7 Re3 2.361644 1_555
B7 Tb1 2.765328 1_655
B7 Tb1 2.765328 1_555
B7 Tb0 2.773665 1_555
B7 Tb0 2.773666 1_655
B8 B9 1.741953 1_565
B8 Re2 2.377574 1_565
B8 Re2 2.377575 1_665
B8 Re3 2.385021 1_655
B8 Re3 2.385026 1_555
B8 Tb0 2.667351 1_555
B8 Tb0 2.667352 1_655
B9 Re3 2.377486 1_645
B9 Re3 2.377492 1_545
B9 Re2 2.385278 1_555
B9 Re2 2.385279 1_655
B9 Tb1 2.667262 1_555
B9 Tb1 2.667262 1_655
B10 B11 1.741866 1_554
B10 B5 1.743700 1_554
B10 B14 1.755774 1_555
B10 Re0 2.377511 1_555
B10 Re0 2.377513 1_655
B10 Re1 2.384883 1_554
B10 Re1 2.384884 1_654
B10 Tb2 2.667237 1_655
B10 Tb2 2.667240 1_555
B11 B4 1.743644 1_556
B11 B15 1.755962 1_555
B11 Re1 2.377428 1_555
B11 Re1 2.377429 1_655
B11 Re0 2.385136 1_556
B11 Re0 2.385137 1_656
B11 Tb3 2.667149 1_555
B11 Tb3 2.667150 1_655
B12 B8 1.755826 1_555
B12 B2 1.853702 1_565
B12 Re2 2.367167 1_565
B12 Re2 2.367167 1_665
B12 Tb2 2.721559 1_665
B12 Tb2 2.721559 1_565
B12 Tb0 2.810186 1_655
B12 Tb0 2.810186 1_555
B13 B9 1.756010 1_555
B13 B3 1.853734 1_545
B13 Re3 2.367450 1_645
B13 Re3 2.367454 1_545
B13 Tb3 2.721900 1_545
B13 Tb3 2.721901 1_645
B13 Tb1 2.810198 1_555
B13 Tb1 2.810200 1_655
B14 B2 1.828912 1_555
B14 Re0 2.367184 1_555
B14 Re0 2.367187 1_655
B14 Tb0 2.721403 1_655
B14 Tb0 2.721403 1_555
B14 Tb2 2.810202 1_655
B14 Tb2 2.810204 1_555
B15 B3 1.829029 1_555
B15 Re1 2.367473 1_555
B15 Re1 2.367474 1_655
B15 Tb1 2.721732 1_655
B15 Tb1 2.721732 1_555
B15 Tb3 2.810220 1_555
B15 Tb3 2.810220 1_655
