# generated using pymatgen
data_YMg14Mn
_symmetry_space_group_name_H-M   'P 1'
_cell_length_a   6.45256946
_cell_length_b   6.36356099
_cell_length_c   10.27913239
_cell_angle_alpha   90.00000000
_cell_angle_beta   90.00000000
_cell_angle_gamma   119.54473421
_symmetry_Int_Tables_number   1
_chemical_formula_structural   YMg14Mn
_chemical_formula_sum   'Y1 Mg14 Mn1'
_cell_volume   367.19276688
_cell_formula_units_Z   1
loop_
 _symmetry_equiv_pos_site_id
 _symmetry_equiv_pos_as_xyz
  1  'x, y, z'
loop_
 _atom_site_type_symbol
 _atom_site_label
 _atom_site_symmetry_multiplicity
 _atom_site_fract_x
 _atom_site_fract_y
 _atom_site_fract_z
 _atom_site_occupancy
  Y  Y0  1  0.16000550  0.83000225  0.12500000  1
  Mg  Mg0  1  0.16521389  0.33260644  0.62500000  1
  Mg  Mg1  1  0.16691941  0.83345921  0.62500000  1
  Mg  Mg2  1  0.65736358  0.33757857  0.12500000  1
  Mg  Mg3  1  0.66614833  0.33143103  0.62500000  1
  Mg  Mg4  1  0.65736358  0.81978401  0.12500000  1
  Mg  Mg5  1  0.66614833  0.83471631  0.62500000  1
  Mg  Mg6  1  0.33294412  0.17242758  0.37580946  1
  Mg  Mg7  1  0.33294412  0.17242758  0.87419054  1
  Mg  Mg8  1  0.33294412  0.66051753  0.37580946  1
  Mg  Mg9  1  0.33294412  0.66051753  0.87419054  1
  Mg  Mg10  1  0.84211076  0.17105588  0.36370414  1
  Mg  Mg11  1  0.84211076  0.17105588  0.88629586  1
  Mg  Mg12  1  0.83144559  0.66572330  0.38213990  1
  Mg  Mg13  1  0.83144559  0.66572330  0.86786010  1
  Mn  Mn0  1  0.18194820  0.34097360  0.12500000  1
loop_
_geom_bond_atom_site_label_1
_geom_bond_atom_site_label_2
_geom_bond_distance
_geom_bond_site_symmetry_2
Mg0 Mg7 3.139969 1_555
Mg0 Mg6 3.139969 1_555
Mg0 Mg9 3.139975 1_555
Mg0 Mg8 3.139975 1_555
Mg0 Mg1 3.181795 1_545
Mg0 Mg1 3.181795 1_555
Mg0 Mg5 3.216573 1_445
Mg0 Mg3 3.216573 1_455
Mg0 Mg5 3.236009 1_555
Mg0 Mg3 3.236009 1_555
Mg0 Mg10 3.240947 1_455
Mg0 Mg11 3.240947 1_455
Mg1 Mg12 3.127044 1_455
Mg1 Mg13 3.127044 1_455
Mg1 Mg9 3.175313 1_555
Mg1 Mg8 3.175313 1_555
Mg1 Mg7 3.175319 1_565
Mg1 Mg6 3.175319 1_565
Mg1 Mg3 3.217372 1_565
Mg1 Mg5 3.217372 1_555
Mg1 Mg3 3.235212 1_455
Mg1 Mg5 3.235212 1_455
Mg2 Mg4 3.068544 1_555
Mg2 Mn0 3.078361 1_555
Mg2 Mg6 3.156507 1_555
Mg2 Mg7 3.156507 1_554
Mg2 Y0 3.211766 1_655
Mg2 Y0 3.241795 1_545
Mg2 Mg4 3.295017 1_545
Mg2 Mn0 3.374318 1_655
Mg3 Mg5 3.160874 1_545
Mg3 Mg7 3.172072 1_555
Mg3 Mg6 3.172072 1_555
Mg3 Mg5 3.202687 1_555
Mg4 Mn0 3.078361 1_555
Mg4 Mg8 3.156507 1_555
Mg4 Mg9 3.156507 1_554
Mg4 Y0 3.211766 1_655
Mg4 Y0 3.241795 1_555
Mg4 Mn0 3.374318 1_665
Mg5 Mg9 3.172072 1_555
Mg5 Mg8 3.172072 1_555
Mg6 Mg8 3.105990 1_555
Mg6 Mn0 3.126797 1_555
Mg6 Y0 3.200317 1_545
Mg6 Mg8 3.257571 1_545
Mg7 Mg9 3.105990 1_555
Mg7 Mn0 3.126797 1_556
Mg7 Y0 3.200317 1_546
Mg7 Mg9 3.257571 1_545
Mg8 Mn0 3.126803 1_555
Mg8 Y0 3.200311 1_555
Mg9 Mn0 3.126803 1_556
Mg9 Y0 3.200311 1_556
Mg10 Mn0 3.108022 1_655
Mg10 Mg2 3.132143 1_555
Mg10 Mg4 3.132149 1_545
Mg10 Mg8 3.165288 1_655
Mg10 Mg6 3.165288 1_655
Mg10 Mg12 3.187981 1_545
Mg10 Mg12 3.187981 1_555
Mg10 Mg3 3.269173 1_555
Mg10 Mg5 3.269179 1_545
Mg10 Mg8 3.292098 1_545
Mg10 Mg6 3.292099 1_555
Mg11 Mn0 3.108022 1_656
Mg11 Mg2 3.132143 1_556
Mg11 Mg4 3.132149 1_546
Mg11 Mg9 3.165288 1_655
Mg11 Mg7 3.165288 1_655
Mg11 Mg13 3.187981 1_545
Mg11 Mg13 3.187981 1_555
Mg11 Mg3 3.269173 1_555
Mg11 Mg5 3.269179 1_545
Mg11 Mg9 3.292098 1_545
Mg11 Mg7 3.292099 1_555
Mg12 Mg5 3.107612 1_555
Mg12 Mg3 3.107619 1_555
Mg12 Mg6 3.201071 1_555
Mg12 Mg8 3.201071 1_555
Mg12 Mg4 3.208629 1_555
Mg12 Mg2 3.208635 1_555
Mg12 Y0 3.223063 1_655
Mg12 Mg6 3.253067 1_665
Mg12 Mg8 3.253068 1_655
Mg13 Mg5 3.107612 1_555
Mg13 Mg3 3.107619 1_555
Mg13 Mg7 3.201071 1_555
Mg13 Mg9 3.201071 1_555
Mg13 Mg4 3.208629 1_556
Mg13 Mg2 3.208635 1_556
Mg13 Y0 3.223063 1_656
Mg13 Mg7 3.253067 1_665
Mg13 Mg9 3.253068 1_655
Mn0 Y0 3.184164 1_545
Mn0 Y0 3.184164 1_555
