# generated using pymatgen
data_La3YSb3
_symmetry_space_group_name_H-M   'P 1'
_cell_length_a   8.28204326
_cell_length_b   8.28204326
_cell_length_c   9.58220949
_cell_angle_alpha   55.04800098
_cell_angle_beta   55.04800098
_cell_angle_gamma   70.80930671
_symmetry_Int_Tables_number   1
_chemical_formula_structural   La3YSb3
_chemical_formula_sum   'La6 Y2 Sb6'
_cell_volume   441.54872903
_cell_formula_units_Z   2
loop_
 _symmetry_equiv_pos_site_id
 _symmetry_equiv_pos_as_xyz
  1  'x, y, z'
loop_
 _atom_site_type_symbol
 _atom_site_label
 _atom_site_symmetry_multiplicity
 _atom_site_fract_x
 _atom_site_fract_y
 _atom_site_fract_z
 _atom_site_occupancy
  La  La0  1  0.99962800  0.13902100  0.10838000  1
  La  La1  1  0.86097900  0.00037200  0.89162000  1
  La  La2  1  0.49961600  0.85556200  0.75098500  1
  La  La3  1  0.14443800  0.50038400  0.24901500  1
  La  La4  1  0.99955700  0.64640500  0.60375400  1
  La  La5  1  0.35359500  0.00044300  0.39624600  1
  Y  Y0  1  0.63913100  0.49947200  0.25043700  1
  Y  Y1  1  0.50052800  0.36086900  0.74956300  1
  Sb  Sb0  1  0.86468700  0.13531300  0.50000000  1
  Sb  Sb1  1  0.62481600  0.37518400  0.00000000  1
  Sb  Sb2  1  0.26131600  0.25747600  0.62087300  1
  Sb  Sb3  1  0.74252400  0.73868400  0.37912700  1
  Sb  Sb4  1  0.12544600  0.61626100  0.87753000  1
  Sb  Sb5  1  0.38373900  0.87455400  0.12247000  1
loop_
_geom_bond_atom_site_label_1
_geom_bond_atom_site_label_2
_geom_bond_distance
_geom_bond_site_symmetry_2
La0 Sb0 3.227560 1_555
La0 Sb5 3.241657 1_645
La0 Sb3 3.273237 1_545
La0 Sb4 3.413257 1_654
La0 Sb1 3.451811 1_555
La0 Sb2 3.468171 1_654
La1 Sb0 3.227560 1_555
La1 Sb4 3.241657 1_645
La1 Sb2 3.273237 1_655
La1 Sb5 3.413257 1_546
La1 Sb1 3.451811 1_556
La1 Sb3 3.468171 1_546
La2 Sb0 3.191109 1_565
La2 Sb5 3.200772 1_556
La2 Sb2 3.205450 1_565
La2 Sb1 3.441356 1_556
La2 Sb4 3.461232 1_555
La2 Sb3 3.484121 1_555
La3 Sb0 3.191109 1_455
La3 Sb4 3.200772 1_554
La3 Sb3 3.205450 1_455
La3 Sb1 3.441356 1_555
La3 Sb5 3.461232 1_555
La3 Sb2 3.484121 1_555
La4 Sb4 3.200606 1_655
La4 Sb2 3.211470 1_655
La4 Sb1 3.225479 1_556
La4 Sb3 3.470473 1_555
La4 Sb5 3.481070 1_655
La4 Sb0 3.509730 1_565
La5 Sb5 3.200606 1_545
La5 Sb3 3.211470 1_545
La5 Sb1 3.225479 1_555
La5 Sb2 3.470473 1_555
La5 Sb4 3.481070 1_545
La5 Sb0 3.509730 1_455
Sb0 Y1 3.384552 1_555
Sb0 Y0 3.384552 1_555
Sb1 Y1 3.173153 1_554
Sb1 Y0 3.173153 1_555
Sb2 Y0 3.106963 1_555
Sb2 Y1 3.362033 1_555
Sb3 Y1 3.106963 1_555
Sb3 Y0 3.362033 1_555
Sb4 Y1 3.148824 1_555
Sb4 Y0 3.469451 1_456
Sb5 Y0 3.148824 1_555
Sb5 Y1 3.469451 1_564
