# generated using pymatgen
data_KCaCoC6(S3O5)2
_symmetry_space_group_name_H-M   'P 1'
_cell_length_a   11.74295900
_cell_length_b   12.11076200
_cell_length_c   13.66919700
_cell_angle_alpha   90.00000000
_cell_angle_beta   90.00000000
_cell_angle_gamma   90.00000000
_symmetry_Int_Tables_number   1
_chemical_formula_structural   KCaCoC6(S3O5)2
_chemical_formula_sum   'K4 Ca4 Co4 C24 S24 O40'
_cell_volume   1943.98100322
_cell_formula_units_Z   4
loop_
 _symmetry_equiv_pos_site_id
 _symmetry_equiv_pos_as_xyz
  1  'x, y, z'
loop_
 _atom_site_type_symbol
 _atom_site_label
 _atom_site_symmetry_multiplicity
 _atom_site_fract_x
 _atom_site_fract_y
 _atom_site_fract_z
 _atom_site_occupancy
  K  K0  1  0.81137900  0.15246600  0.53061800  1
  K  K1  1  0.18862100  0.65246600  0.96938200  1
  K  K2  1  0.31137900  0.34753400  0.46938200  1
  K  K3  1  0.68862100  0.84753400  0.03061800  1
  Ca  Ca0  1  0.83905000  0.02168100  0.78724000  1
  Ca  Ca1  1  0.16095000  0.52168100  0.71276000  1
  Ca  Ca2  1  0.33905000  0.47831900  0.21276000  1
  Ca  Ca3  1  0.66095000  0.97831900  0.28724000  1
  Co  Co0  1  0.81554900  0.45960400  0.27954600  1
  Co  Co1  1  0.18445100  0.95960400  0.22045400  1
  Co  Co2  1  0.31554900  0.04039600  0.72045400  1
  Co  Co3  1  0.68445100  0.54039600  0.77954600  1
  C  C0  1  0.68953500  0.23651000  0.32566300  1
  C  C1  1  0.31046500  0.73651000  0.17433700  1
  C  C2  1  0.18953500  0.26349000  0.67433700  1
  C  C3  1  0.81046500  0.76349000  0.82566300  1
  C  C4  1  0.67190400  0.69099700  0.26942400  1
  C  C5  1  0.32809600  0.19099700  0.23057600  1
  C  C6  1  0.17190400  0.80900300  0.73057600  1
  C  C7  1  0.82809600  0.30900300  0.76942400  1
  C  C8  1  0.72673800  0.22307900  0.21873000  1
  C  C9  1  0.27326200  0.72307900  0.28127000  1
  C  C10  1  0.22673800  0.27692100  0.78127000  1
  C  C11  1  0.77326200  0.77692100  0.71873000  1
  C  C12  1  0.74721000  0.63476700  0.32327200  1
  C  C13  1  0.25279000  0.13476700  0.17672800  1
  C  C14  1  0.24721000  0.86523300  0.67672800  1
  C  C15  1  0.75279000  0.36523300  0.82327200  1
  C  C16  1  0.08074200  0.42871500  0.28114600  1
  C  C17  1  0.91925800  0.92871500  0.21885400  1
  C  C18  1  0.58074200  0.07128500  0.71885400  1
  C  C19  1  0.41925800  0.57128500  0.78114600  1
  C  C20  1  0.06165000  0.50419700  0.19345700  1
  C  C21  1  0.93835000  0.00419700  0.30654300  1
  C  C22  1  0.56165000  0.99580300  0.80654300  1
  C  C23  1  0.43835000  0.49580300  0.69345700  1
  S  S0  1  0.71329000  0.35858500  0.38514600  1
  S  S1  1  0.28671000  0.85858500  0.11485400  1
  S  S2  1  0.21329000  0.14141500  0.61485400  1
  S  S3  1  0.78671000  0.64141500  0.88514600  1
  S  S4  1  0.63069600  0.55183100  0.22681300  1
  S  S5  1  0.36930400  0.05183100  0.27318700  1
  S  S6  1  0.13069600  0.94816900  0.77318700  1
  S  S7  1  0.86930400  0.44816900  0.72681300  1
  S  S8  1  0.78378100  0.33478200  0.16042600  1
  S  S9  1  0.21621900  0.83478200  0.33957400  1
  S  S10  1  0.28378100  0.16521800  0.83957400  1
  S  S11  1  0.71621900  0.66521800  0.66042600  1
  S  S12  1  0.84402200  0.59013000  0.39908400  1
  S  S13  1  0.15597800  0.09013000  0.10091600  1
  S  S14  1  0.34402200  0.90987000  0.60091600  1
  S  S15  1  0.65597800  0.40987000  0.89908400  1
  S  S16  1  0.96583000  0.37030300  0.33606300  1
  S  S17  1  0.03417000  0.87030300  0.16393700  1
  S  S18  1  0.46583000  0.12969700  0.66393700  1
  S  S19  1  0.53417000  0.62969700  0.83606300  1
  S  S20  1  0.92683100  0.54811000  0.16940100  1
  S  S21  1  0.07316900  0.04811000  0.33059900  1
  S  S22  1  0.42683100  0.95189000  0.83059900  1
  S  S23  1  0.57316900  0.45189000  0.66940100  1
  O  O0  1  0.64409500  0.15500700  0.36717800  1
  O  O1  1  0.35590500  0.65500700  0.13282200  1
  O  O2  1  0.14409500  0.34499300  0.63282200  1
  O  O3  1  0.85590500  0.84499300  0.86717800  1
  O  O4  1  0.62904000  0.78455100  0.25052900  1
  O  O5  1  0.37096000  0.28455100  0.24947100  1
  O  O6  1  0.12904000  0.71544900  0.74947100  1
  O  O7  1  0.87096000  0.21544900  0.75052900  1
  O  O8  1  0.71289000  0.13006200  0.18041500  1
  O  O9  1  0.28711000  0.63006200  0.31958500  1
  O  O10  1  0.21289000  0.36993800  0.81958500  1
  O  O11  1  0.78711000  0.86993800  0.68041500  1
  O  O12  1  0.93460900  0.81617900  0.45450400  1
  O  O13  1  0.06539100  0.31617900  0.04549600  1
  O  O14  1  0.43460900  0.68382100  0.54549600  1
  O  O15  1  0.56539100  0.18382100  0.95450400  1
  O  O16  1  0.18169200  0.40918000  0.30724100  1
  O  O17  1  0.81830800  0.90918000  0.19275900  1
  O  O18  1  0.68169200  0.09082000  0.69275900  1
  O  O19  1  0.31830800  0.59082000  0.80724100  1
  O  O20  1  0.14811100  0.53026000  0.14347100  1
  O  O21  1  0.85188900  0.03026000  0.35652900  1
  O  O22  1  0.64811100  0.96974000  0.85652900  1
  O  O23  1  0.35188900  0.46974000  0.64347100  1
  O  O24  1  0.02419800  0.32598900  0.96269200  1
  O  O25  1  0.97580200  0.82598900  0.53730800  1
  O  O26  1  0.52419800  0.17401100  0.03730800  1
  O  O27  1  0.47580200  0.67401100  0.46269200  1
  O  O28  1  0.98403300  0.07465600  0.92107100  1
  O  O29  1  0.01596700  0.57465600  0.57892900  1
  O  O30  1  0.48403300  0.42534400  0.07892900  1
  O  O31  1  0.51596700  0.92534400  0.42107100  1
  O  O32  1  0.97848800  0.48574800  0.77686200  1
  O  O33  1  0.02151200  0.98574800  0.72313800  1
  O  O34  1  0.47848800  0.01425200  0.22313800  1
  O  O35  1  0.52151200  0.51425200  0.27686200  1
  O  O36  1  0.89817000  0.05737500  0.97570600  1
  O  O37  1  0.10183000  0.55737500  0.52429400  1
  O  O38  1  0.39817000  0.44262500  0.02429400  1
  O  O39  1  0.60183000  0.94262500  0.47570600  1
loop_
_geom_bond_atom_site_label_1
_geom_bond_atom_site_label_2
_geom_bond_distance
_geom_bond_site_symmetry_2
K0 O18 2.790839 1_555
K0 O21 2.842444 1_555
K0 O0 2.975067 1_555
K0 O7 3.179217 1_555
K0 S0 3.392956 1_555
K1 O19 2.790839 1_555
K1 O20 2.842444 1_556
K1 O1 2.975067 1_556
K1 O6 3.179217 1_555
K1 S1 3.392956 1_556
K2 O16 2.790839 1_555
K2 O23 2.842444 1_555
K2 O2 2.975067 1_555
K2 O5 3.179217 1_555
K2 S2 3.392956 1_555
K3 O17 2.790839 1_555
K3 O22 2.842444 1_554
K3 O3 2.975067 1_554
K3 O4 3.179217 1_555
K3 S3 3.392956 1_554
Ca0 O33 2.355434 1_645
Ca0 O18 2.404907 1_555
Ca0 O3 2.410809 1_545
Ca0 O11 2.425172 1_545
Ca0 O7 2.428811 1_555
Ca0 O22 2.513992 1_545
Ca0 O28 2.580074 1_555
Ca0 O36 2.702876 1_555
Ca1 O32 2.355434 1_455
Ca1 O19 2.404907 1_555
Ca1 O2 2.410809 1_555
Ca1 O10 2.425172 1_555
Ca1 O6 2.428811 1_555
Ca1 O23 2.513992 1_555
Ca1 O29 2.580074 1_555
Ca1 O37 2.702876 1_555
Ca2 O35 2.355434 1_555
Ca2 O16 2.404907 1_555
Ca2 O1 2.410809 1_555
Ca2 O9 2.425172 1_555
Ca2 O5 2.428811 1_555
Ca2 O20 2.513992 1_555
Ca2 O30 2.580074 1_555
Ca2 O38 2.702876 1_555
Ca3 O34 2.355434 1_565
Ca3 O17 2.404907 1_555
Ca3 O0 2.410809 1_565
Ca3 O8 2.425172 1_565
Ca3 O4 2.428811 1_555
Ca3 O21 2.513992 1_565
Ca3 O31 2.580074 1_555
Ca3 O39 2.702876 1_555
Co0 S16 2.209251 1_555
Co0 S0 2.241054 1_555
Co0 S8 2.252920 1_555
Co0 S20 2.263493 1_555
Co0 S12 2.297944 1_555
Co0 S4 2.545420 1_555
Co1 S17 2.209251 1_555
Co1 S1 2.241054 1_555
Co1 S9 2.252920 1_555
Co1 S21 2.263493 1_565
Co1 S13 2.297944 1_565
Co1 S5 2.545420 1_565
Co2 S18 2.209251 1_555
Co2 S2 2.241054 1_555
Co2 S10 2.252920 1_555
Co2 S22 2.263493 1_545
Co2 S14 2.297944 1_545
Co2 S6 2.545420 1_545
Co3 S19 2.209251 1_555
Co3 S3 2.241054 1_555
Co3 S11 2.252920 1_555
Co3 S23 2.263493 1_555
Co3 S15 2.297944 1_555
Co3 S7 2.545420 1_555
C0 O0 1.257399 1_555
C0 S0 1.710161 1_555
C1 O1 1.257399 1_555
C1 S1 1.710161 1_555
C2 O2 1.257399 1_555
C2 S2 1.710161 1_555
C3 O3 1.257399 1_555
C3 S3 1.710161 1_555
C4 O4 1.266405 1_555
C5 O5 1.266405 1_555
C6 O6 1.266405 1_555
C7 O7 1.266405 1_555
C8 O8 1.252901 1_555
C8 S8 1.707031 1_555
C9 O9 1.252901 1_555
C9 S9 1.707031 1_555
C10 O10 1.252901 1_555
C10 S10 1.707031 1_555
C11 O11 1.252901 1_555
C11 S11 1.707031 1_555
C12 C4 1.336990 1_555
C12 S12 1.630515 1_555
C12 S4 2.149271 1_555
C12 Co0 2.345509 1_555
C13 C5 1.336990 1_555
C13 S13 1.630515 1_555
C13 S5 2.149271 1_555
C13 Co1 2.345509 1_545
C14 C6 1.336990 1_555
C14 S14 1.630515 1_555
C14 S6 2.149271 1_555
C14 Co2 2.345509 1_565
C15 C7 1.336990 1_555
C15 S15 1.630515 1_555
C15 S7 2.149271 1_555
C15 Co3 2.345509 1_555
C16 O16 1.260357 1_555
C16 S16 1.698482 1_455
C17 O17 1.260357 1_555
C17 S17 1.698482 1_655
C18 O18 1.260357 1_555
C18 S18 1.698482 1_555
C19 O19 1.260357 1_555
C19 S19 1.698482 1_555
C20 O20 1.263858 1_555
C20 S20 1.702175 1_455
C21 O21 1.263858 1_555
C21 S21 1.702175 1_655
C22 O22 1.263858 1_555
C22 S22 1.702175 1_555
C23 O23 1.263858 1_555
C23 S23 1.702175 1_555
O12 O25 1.236618 1_555
O13 O24 1.236618 1_554
O14 O27 1.236618 1_555
O15 O26 1.236618 1_556
O28 O36 1.272075 1_555
O29 O37 1.272075 1_555
O30 O38 1.272075 1_555
O31 O39 1.272075 1_555
O32 S7 1.522843 1_555
O33 S6 1.522843 1_555
O34 S5 1.522843 1_555
O35 S4 1.522843 1_555
