# generated using pymatgen
data_LuSiPt
_symmetry_space_group_name_H-M   'P 1'
_cell_length_a   4.22466543
_cell_length_b   6.81656433
_cell_length_c   7.36055250
_cell_angle_alpha   90.00359318
_cell_angle_beta   90.00000000
_cell_angle_gamma   90.00000000
_symmetry_Int_Tables_number   1
_chemical_formula_structural   LuSiPt
_chemical_formula_sum   'Lu4 Si4 Pt4'
_cell_volume   211.96700958
_cell_formula_units_Z   4
loop_
 _symmetry_equiv_pos_site_id
 _symmetry_equiv_pos_as_xyz
  1  'x, y, z'
loop_
 _atom_site_type_symbol
 _atom_site_label
 _atom_site_symmetry_multiplicity
 _atom_site_fract_x
 _atom_site_fract_y
 _atom_site_fract_z
 _atom_site_occupancy
  Lu  Lu0  1  0.25000000  0.99709287  0.79777605  1
  Lu  Lu1  1  0.25000000  0.49706008  0.70217824  1
  Lu  Lu2  1  0.75000000  0.00289041  0.20222067  1
  Lu  Lu3  1  0.75000000  0.50293695  0.29781945  1
  Si  Si0  1  0.25000000  0.81048930  0.41100202  1
  Si  Si1  1  0.25000000  0.31042152  0.08885994  1
  Si  Si2  1  0.75000000  0.18950761  0.58899266  1
  Si  Si3  1  0.75000000  0.68957179  0.91112274  1
  Pt  Pt0  1  0.25000000  0.20169051  0.41594226  1
  Pt  Pt1  1  0.25000000  0.70156691  0.08419308  1
  Pt  Pt2  1  0.75000000  0.79835689  0.58413192  1
  Pt  Pt3  1  0.75000000  0.29841517  0.91575897  1
loop_
_geom_bond_atom_site_label_1
_geom_bond_atom_site_label_2
_geom_bond_distance
_geom_bond_site_symmetry_2
Lu0 Pt1 2.916005 1_556
Lu0 Si2 2.923038 1_565
Lu0 Si2 2.923038 1_465
Lu0 Pt2 2.961379 1_555
Lu0 Pt2 2.961379 1_455
Lu0 Si1 3.025168 1_566
Lu0 Pt3 3.071600 1_465
Lu0 Pt3 3.071600 1_565
Lu0 Si3 3.090700 1_455
Lu0 Si3 3.090700 1_555
Lu0 Si0 3.118043 1_555
Lu0 Pt0 3.137595 1_565
Lu1 Pt0 2.914122 1_555
Lu1 Si3 2.923872 1_555
Lu1 Si3 2.923872 1_455
Lu1 Pt3 2.960937 1_555
Lu1 Pt3 2.960937 1_455
Lu1 Si0 3.026324 1_555
Lu1 Pt2 3.071688 1_555
Lu1 Pt2 3.071688 1_455
Lu1 Si2 3.090454 1_555
Lu1 Si2 3.090454 1_455
Lu1 Si1 3.117665 1_556
Lu1 Pt1 3.138357 1_556
Lu2 Pt3 2.916237 1_554
Lu2 Si0 2.922988 1_645
Lu2 Si0 2.922988 1_545
Lu2 Pt0 2.961881 1_655
Lu2 Pt0 2.961881 1_555
Lu2 Si3 3.025193 1_544
Lu2 Pt1 3.071698 1_645
Lu2 Pt1 3.071698 1_545
Lu2 Si1 3.090774 1_555
Lu2 Si1 3.090774 1_655
Lu2 Si2 3.118067 1_555
Lu2 Pt2 3.137911 1_545
Lu3 Pt2 2.914766 1_555
Lu3 Si1 2.923941 1_555
Lu3 Si1 2.923941 1_655
Lu3 Pt1 2.961069 1_555
Lu3 Pt1 2.961069 1_655
Lu3 Si2 3.026308 1_555
Lu3 Pt0 3.071618 1_555
Lu3 Pt0 3.071618 1_655
Lu3 Si0 3.090448 1_655
Lu3 Si0 3.090448 1_555
Lu3 Si3 3.117756 1_554
Lu3 Pt3 3.138703 1_554
Pt0 Si2 2.468054 1_455
Pt0 Si2 2.468054 1_555
Pt0 Si1 2.519057 1_555
Pt0 Si0 2.666894 1_545
Pt1 Si3 2.468081 1_554
Pt1 Si3 2.468081 1_454
Pt1 Si0 2.517429 1_555
Pt1 Si1 2.666491 1_555
Pt2 Si0 2.468344 1_655
Pt2 Si0 2.468344 1_555
Pt2 Si3 2.518522 1_555
Pt2 Si2 2.666542 1_565
Pt3 Si1 2.468200 1_656
Pt3 Si1 2.468200 1_556
Pt3 Si2 2.517100 1_555
Pt3 Si3 2.666565 1_555
