# generated using pymatgen
data_SmAsSe
_symmetry_space_group_name_H-M   'P 1'
_cell_length_a   3.95587371
_cell_length_b   4.01928304
_cell_length_c   17.84364131
_cell_angle_alpha   90.00000000
_cell_angle_beta   90.00000000
_cell_angle_gamma   90.00000000
_symmetry_Int_Tables_number   1
_chemical_formula_structural   SmAsSe
_chemical_formula_sum   'Sm4 As4 Se4'
_cell_volume   283.70990183
_cell_formula_units_Z   4
loop_
 _symmetry_equiv_pos_site_id
 _symmetry_equiv_pos_as_xyz
  1  'x, y, z'
loop_
 _atom_site_type_symbol
 _atom_site_label
 _atom_site_symmetry_multiplicity
 _atom_site_fract_x
 _atom_site_fract_y
 _atom_site_fract_z
 _atom_site_occupancy
  Sm  Sm0  1  0.75000000  0.72995238  0.63978324  1
  Sm  Sm1  1  0.25000000  0.27004762  0.36021676  1
  Sm  Sm2  1  0.75000000  0.77004762  0.13978324  1
  Sm  Sm3  1  0.25000000  0.22995238  0.86021676  1
  As  As0  1  0.25000000  0.70226027  0.99775556  1
  As  As1  1  0.75000000  0.29773973  0.00224444  1
  As  As2  1  0.25000000  0.79773973  0.49775556  1
  As  As3  1  0.75000000  0.20226027  0.50224444  1
  Se  Se0  1  0.75000000  0.73233049  0.81251527  1
  Se  Se1  1  0.25000000  0.26766951  0.18748473  1
  Se  Se2  1  0.75000000  0.76766951  0.31251527  1
  Se  Se3  1  0.25000000  0.23233049  0.68748473  1
loop_
_geom_bond_atom_site_label_1
_geom_bond_atom_site_label_2
_geom_bond_distance
_geom_bond_site_symmetry_2
As0 As1 2.561668 1_556
As0 As1 2.561668 1_456
As0 Sm3 3.102701 1_555
As0 Sm2 3.226313 1_556
As0 Sm2 3.226313 1_456
As0 Sm3 3.243681 1_565
As1 Sm2 3.102701 1_555
As1 Sm3 3.226313 1_654
As1 Sm3 3.226313 1_554
As1 Sm2 3.243681 1_545
As2 As3 2.561668 1_565
As2 As3 2.561668 1_465
As2 Sm1 3.102701 1_565
As2 Sm0 3.226313 1_455
As2 Sm0 3.226313 1_555
As2 Sm1 3.243681 1_555
As3 Sm0 3.102701 1_545
As3 Sm1 3.226313 1_555
As3 Sm1 3.226313 1_655
As3 Sm0 3.243681 1_555
Se0 Sm3 2.938887 1_565
Se0 Sm3 2.938887 1_665
Se0 Sm3 2.951930 1_555
Se0 Sm3 2.951930 1_655
Se0 Sm0 3.082183 1_555
Se1 Sm2 2.938887 1_445
Se1 Sm2 2.938887 1_545
Se1 Sm2 2.951930 1_555
Se1 Sm2 2.951930 1_455
Se1 Sm1 3.082183 1_555
Se2 Sm1 2.938887 1_655
Se2 Sm1 2.938887 1_555
Se2 Sm1 2.951930 1_565
Se2 Sm1 2.951930 1_665
Se2 Sm2 3.082183 1_555
Se3 Sm0 2.938887 1_455
Se3 Sm0 2.938887 1_555
Se3 Sm0 2.951930 1_545
Se3 Sm0 2.951930 1_445
Se3 Sm3 3.082183 1_555
