# generated using pymatgen
data_Sr2LaGaO5
_symmetry_space_group_name_H-M   'P 1'
_cell_length_a   6.87879523
_cell_length_b   6.87879523
_cell_length_c   7.52525091
_cell_angle_alpha   62.59430025
_cell_angle_beta   62.59430025
_cell_angle_gamma   89.59376090
_symmetry_Int_Tables_number   1
_chemical_formula_structural   Sr2LaGaO5
_chemical_formula_sum   'Sr4 La2 Ga2 O10'
_cell_volume   270.99977773
_cell_formula_units_Z   2
loop_
 _symmetry_equiv_pos_site_id
 _symmetry_equiv_pos_as_xyz
  1  'x, y, z'
loop_
 _atom_site_type_symbol
 _atom_site_label
 _atom_site_symmetry_multiplicity
 _atom_site_fract_x
 _atom_site_fract_y
 _atom_site_fract_z
 _atom_site_occupancy
  Sr  Sr0  1  0.25000000  0.25000000  0.50000000  1
  Sr  Sr1  1  0.75000000  0.75000000  0.50000000  1
  Sr  Sr2  1  0.82415400  0.67584600  0.00000000  1
  Sr  Sr3  1  0.17584600  0.32415400  0.00000000  1
  La  La0  1  0.68081900  0.18081900  0.00000000  1
  La  La1  1  0.31918100  0.81918100  0.00000000  1
  Ga  Ga0  1  0.75174700  0.25174700  0.49650600  1
  Ga  Ga1  1  0.24825300  0.74825300  0.50349400  1
  O  O0  1  0.21386000  0.99840600  0.28773400  1
  O  O1  1  0.49840600  0.71386000  0.28773400  1
  O  O2  1  0.00287700  0.50287700  0.29034500  1
  O  O3  1  0.70677800  0.20677800  0.29034500  1
  O  O4  1  0.78614000  0.00159400  0.71226600  1
  O  O5  1  0.50159400  0.28614000  0.71226600  1
  O  O6  1  0.99712300  0.49712300  0.70965500  1
  O  O7  1  0.29322200  0.79322200  0.70965500  1
  O  O8  1  0.50000000  0.50000000  0.00000000  1
  O  O9  1  0.00000000  0.00000000  0.00000000  1
loop_
_geom_bond_atom_site_label_1
_geom_bond_atom_site_label_2
_geom_bond_distance
_geom_bond_site_symmetry_2
La0 O6 2.357208 1_554
La0 O3 2.357208 1_555
La0 O8 2.515737 1_555
La0 O9 2.515737 1_655
La0 O1 2.780982 1_545
La0 O0 2.780982 1_545
La0 O5 2.780982 1_554
La0 O4 2.780982 1_554
La1 O7 2.357208 1_554
La1 O2 2.357208 1_555
La1 O9 2.515737 1_565
La1 O8 2.515737 1_555
La1 O1 2.780982 1_555
La1 O5 2.780982 1_564
La1 O4 2.780982 1_564
La1 O0 2.780982 1_555
Ga0 O4 1.851767 1_555
Ga0 O5 1.851767 1_555
Ga0 O3 1.866330 1_555
Ga0 O2 1.866330 1_655
Ga1 O1 1.851767 1_555
Ga1 O0 1.851767 1_555
Ga1 O6 1.866330 1_455
Ga1 O7 1.866330 1_555
O0 Sr3 2.413335 1_565
O0 Sr0 2.919781 1_565
O0 Sr1 2.919781 1_455
O1 Sr2 2.413335 1_555
O1 Sr1 2.919781 1_555
O1 Sr0 2.919781 1_555
O2 Sr2 2.785647 1_455
O2 Sr3 2.785647 1_555
O2 Sr0 2.881883 1_555
O2 Sr1 2.881883 1_455
O3 Sr3 2.785647 1_655
O3 Sr2 2.785647 1_555
O3 Sr1 2.881883 1_545
O3 Sr0 2.881883 1_555
O4 Sr2 2.413335 1_546
O4 Sr1 2.919781 1_545
O4 Sr0 2.919781 1_655
O5 Sr3 2.413335 1_556
O5 Sr0 2.919781 1_555
O5 Sr1 2.919781 1_555
O6 Sr2 2.785647 1_556
O6 Sr3 2.785647 1_656
O6 Sr1 2.881883 1_555
O6 Sr0 2.881883 1_655
O7 Sr2 2.785647 1_456
O7 Sr3 2.785647 1_556
O7 Sr1 2.881883 1_555
O7 Sr0 2.881883 1_565
O8 Sr3 2.544280 1_555
O8 Sr2 2.544280 1_555
O8 Sr0 2.863684 1_555
O8 Sr1 2.863684 1_554
O9 Sr2 2.544280 1_445
O9 Sr3 2.544280 1_555
O9 Sr0 2.863684 1_554
O9 Sr1 2.863684 1_445
