# generated using pymatgen
data_TiH24C6I3(N2O)6
_symmetry_space_group_name_H-M   'P 1'
_cell_length_a   11.46738108
_cell_length_b   11.46738108
_cell_length_c   11.46738111
_cell_angle_alpha   104.11706017
_cell_angle_beta   104.11706017
_cell_angle_gamma   104.11705999
_symmetry_Int_Tables_number   1
_chemical_formula_structural   TiH24C6I3(N2O)6
_chemical_formula_sum   'Ti2 H48 C12 I6 N24 O12'
_cell_volume   1342.44376971
_cell_formula_units_Z   2
loop_
 _symmetry_equiv_pos_site_id
 _symmetry_equiv_pos_as_xyz
  1  'x, y, z'
loop_
 _atom_site_type_symbol
 _atom_site_label
 _atom_site_symmetry_multiplicity
 _atom_site_fract_x
 _atom_site_fract_y
 _atom_site_fract_z
 _atom_site_occupancy
  Ti  Ti0  1  0.25000000  0.25000000  0.25000000  1
  Ti  Ti1  1  0.75000000  0.75000000  0.75000000  1
  H  H0  1  0.13452900  0.61019800  0.51013700  1
  H  H1  1  0.51013700  0.13452900  0.61019800  1
  H  H2  1  0.61019800  0.51013700  0.13452900  1
  H  H3  1  0.01013700  0.11019800  0.63452900  1
  H  H4  1  0.63452900  0.01013700  0.11019800  1
  H  H5  1  0.11019800  0.63452900  0.01013700  1
  H  H6  1  0.86547100  0.38980200  0.48986300  1
  H  H7  1  0.48986300  0.86547100  0.38980200  1
  H  H8  1  0.38980200  0.48986300  0.86547100  1
  H  H9  1  0.98986300  0.88980200  0.36547100  1
  H  H10  1  0.36547100  0.98986300  0.88980200  1
  H  H11  1  0.88980200  0.36547100  0.98986300  1
  H  H12  1  0.13336300  0.47184300  0.55017000  1
  H  H13  1  0.55017000  0.13336300  0.47184300  1
  H  H14  1  0.47184300  0.55017000  0.13336300  1
  H  H15  1  0.05017000  0.97184300  0.63336300  1
  H  H16  1  0.63336300  0.05017000  0.97184300  1
  H  H17  1  0.97184300  0.63336300  0.05017000  1
  H  H18  1  0.86663700  0.52815700  0.44983000  1
  H  H19  1  0.44983000  0.86663700  0.52815700  1
  H  H20  1  0.52815700  0.44983000  0.86663700  1
  H  H21  1  0.94983000  0.02815700  0.36663700  1
  H  H22  1  0.36663700  0.94983000  0.02815700  1
  H  H23  1  0.02815700  0.36663700  0.94983000  1
  H  H24  1  0.21151400  0.64026200  0.34057900  1
  H  H25  1  0.34057900  0.21151400  0.64026200  1
  H  H26  1  0.64026200  0.34057900  0.21151400  1
  H  H27  1  0.84057900  0.14026200  0.71151400  1
  H  H28  1  0.71151400  0.84057900  0.14026200  1
  H  H29  1  0.14026200  0.71151400  0.84057900  1
  H  H30  1  0.78848600  0.35973800  0.65942100  1
  H  H31  1  0.65942100  0.78848600  0.35973800  1
  H  H32  1  0.35973800  0.65942100  0.78848600  1
  H  H33  1  0.15942100  0.85973800  0.28848600  1
  H  H34  1  0.28848600  0.15942100  0.85973800  1
  H  H35  1  0.85973800  0.28848600  0.15942100  1
  H  H36  1  0.27294700  0.52887500  0.26711300  1
  H  H37  1  0.26711300  0.27294700  0.52887500  1
  H  H38  1  0.52887500  0.26711300  0.27294700  1
  H  H39  1  0.76711300  0.02887500  0.77294700  1
  H  H40  1  0.77294700  0.76711300  0.02887500  1
  H  H41  1  0.02887500  0.77294700  0.76711300  1
  H  H42  1  0.72705300  0.47112500  0.73288700  1
  H  H43  1  0.73288700  0.72705300  0.47112500  1
  H  H44  1  0.47112500  0.73288700  0.72705300  1
  H  H45  1  0.23288700  0.97112500  0.22705300  1
  H  H46  1  0.22705300  0.23288700  0.97112500  1
  H  H47  1  0.97112500  0.22705300  0.23288700  1
  C  C0  1  0.20262300  0.48618700  0.40470300  1
  C  C1  1  0.40470300  0.20262300  0.48618700  1
  C  C2  1  0.48618700  0.40470300  0.20262300  1
  C  C3  1  0.90470300  0.98618700  0.70262300  1
  C  C4  1  0.70262300  0.90470300  0.98618700  1
  C  C5  1  0.98618700  0.70262300  0.90470300  1
  C  C6  1  0.79737700  0.51381300  0.59529700  1
  C  C7  1  0.59529700  0.79737700  0.51381300  1
  C  C8  1  0.51381300  0.59529700  0.79737700  1
  C  C9  1  0.09529700  0.01381300  0.29737700  1
  C  C10  1  0.29737700  0.09529700  0.01381300  1
  C  C11  1  0.01381300  0.29737700  0.09529700  1
  I  I0  1  0.88066400  0.61933600  0.25000000  1
  I  I1  1  0.25000000  0.88066400  0.61933600  1
  I  I2  1  0.61933600  0.25000000  0.88066400  1
  I  I3  1  0.75000000  0.11933600  0.38066400  1
  I  I4  1  0.38066400  0.75000000  0.11933600  1
  I  I5  1  0.11933600  0.38066400  0.75000000  1
  N  N0  1  0.14536200  0.52236900  0.48956300  1
  N  N1  1  0.48956300  0.14536200  0.52236900  1
  N  N2  1  0.52236900  0.48956300  0.14536200  1
  N  N3  1  0.98956300  0.02236900  0.64536200  1
  N  N4  1  0.64536200  0.98956300  0.02236900  1
  N  N5  1  0.02236900  0.64536200  0.98956300  1
  N  N6  1  0.85463800  0.47763100  0.51043700  1
  N  N7  1  0.51043700  0.85463800  0.47763100  1
  N  N8  1  0.47763100  0.51043700  0.85463800  1
  N  N9  1  0.01043700  0.97763100  0.35463800  1
  N  N10  1  0.35463800  0.01043700  0.97763100  1
  N  N11  1  0.97763100  0.35463800  0.01043700  1
  N  N12  1  0.23414600  0.55951400  0.33467600  1
  N  N13  1  0.33467600  0.23414600  0.55951400  1
  N  N14  1  0.55951400  0.33467600  0.23414600  1
  N  N15  1  0.83467600  0.05951400  0.73414600  1
  N  N16  1  0.73414600  0.83467600  0.05951400  1
  N  N17  1  0.05951400  0.73414600  0.83467600  1
  N  N18  1  0.76585400  0.44048600  0.66532400  1
  N  N19  1  0.66532400  0.76585400  0.44048600  1
  N  N20  1  0.44048600  0.66532400  0.76585400  1
  N  N21  1  0.16532400  0.94048600  0.26585400  1
  N  N22  1  0.26585400  0.16532400  0.94048600  1
  N  N23  1  0.94048600  0.26585400  0.16532400  1
  O  O0  1  0.22572400  0.38052900  0.39064600  1
  O  O1  1  0.39064600  0.22572400  0.38052900  1
  O  O2  1  0.38052900  0.39064600  0.22572400  1
  O  O3  1  0.89064600  0.88052900  0.72572400  1
  O  O4  1  0.72572400  0.89064600  0.88052900  1
  O  O5  1  0.88052900  0.72572400  0.89064600  1
  O  O6  1  0.77427600  0.61947100  0.60935400  1
  O  O7  1  0.60935400  0.77427600  0.61947100  1
  O  O8  1  0.61947100  0.60935400  0.77427600  1
  O  O9  1  0.10935400  0.11947100  0.27427600  1
  O  O10  1  0.27427600  0.10935400  0.11947100  1
  O  O11  1  0.11947100  0.27427600  0.10935400  1
loop_
_geom_bond_atom_site_label_1
_geom_bond_atom_site_label_2
_geom_bond_distance
_geom_bond_site_symmetry_2
H0 N0 1.022204 1_555
H1 N1 1.022204 1_555
H2 N2 1.022204 1_555
H3 N3 1.022204 1_455
H4 N4 1.022204 1_545
H5 N5 1.022204 1_554
H6 N6 1.022204 1_555
H7 N7 1.022204 1_555
H8 N8 1.022204 1_555
H9 N9 1.022204 1_655
H10 N10 1.022204 1_565
H11 N11 1.022204 1_556
H12 N0 1.020716 1_555
H13 N1 1.020716 1_555
H14 N2 1.020716 1_555
H15 N3 1.020716 1_465
H16 N4 1.020716 1_546
H17 N5 1.020716 1_654
H18 N6 1.020716 1_555
H19 N7 1.020716 1_555
H20 N8 1.020716 1_555
H21 N9 1.020716 1_645
H22 N10 1.020716 1_564
H23 N11 1.020716 1_456
H24 N12 1.012214 1_555
H25 N13 1.012214 1_555
H26 N14 1.012214 1_555
H27 N15 1.012214 1_555
H28 N16 1.012214 1_555
H29 N17 1.012214 1_555
H30 N18 1.012214 1_555
H31 N19 1.012214 1_555
H32 N20 1.012214 1_555
H33 N21 1.012214 1_555
H34 N22 1.012214 1_555
H35 N23 1.012214 1_555
H36 N12 1.016526 1_555
H37 N13 1.016526 1_555
H38 N14 1.016526 1_555
H39 N15 1.016526 1_555
H40 N16 1.016526 1_555
H41 N17 1.016526 1_555
H42 N18 1.016526 1_555
H43 N19 1.016526 1_555
H44 N20 1.016526 1_555
H45 N21 1.016526 1_555
H46 N22 1.016526 1_555
H47 N23 1.016526 1_555
C0 O0 1.283087 1_555
C0 N0 1.340870 1_555
C0 N12 1.343614 1_555
C1 O1 1.283087 1_555
C1 N1 1.340870 1_555
C1 N13 1.343614 1_555
C2 O2 1.283087 1_555
C2 N2 1.340870 1_555
C2 N14 1.343614 1_555
C3 O3 1.283087 1_555
C3 N3 1.340870 1_565
C3 N15 1.343614 1_565
C4 O4 1.283087 1_555
C4 N4 1.340870 1_556
C4 N16 1.343614 1_556
C5 O5 1.283087 1_555
C5 N5 1.340870 1_655
C5 N17 1.343614 1_655
C6 O6 1.283087 1_555
C6 N6 1.340870 1_555
C6 N18 1.343614 1_555
C7 O7 1.283087 1_555
C7 N7 1.340870 1_555
C7 N19 1.343614 1_555
C8 O8 1.283087 1_555
C8 N8 1.340870 1_555
C8 N20 1.343614 1_555
C9 O9 1.283087 1_555
C9 N9 1.340870 1_545
C9 N21 1.343614 1_545
C10 O10 1.283087 1_555
C10 N10 1.340870 1_554
C10 N22 1.343614 1_554
C11 O11 1.283087 1_555
C11 N11 1.340870 1_455
C11 N23 1.343614 1_455
O0 Ti0 2.040561 1_555
O1 Ti0 2.040561 1_555
O2 Ti0 2.040561 1_555
O3 Ti1 2.040561 1_555
O4 Ti1 2.040561 1_555
O5 Ti1 2.040561 1_555
O6 Ti1 2.040561 1_555
O7 Ti1 2.040561 1_555
O8 Ti1 2.040561 1_555
O9 Ti0 2.040561 1_555
O10 Ti0 2.040561 1_555
O11 Ti0 2.040561 1_555
