# generated using pymatgen
data_Sc2Ga8Co
_symmetry_space_group_name_H-M   'P 1'
_cell_length_a   4.08366161
_cell_length_b   4.08366161
_cell_length_c   10.68052723
_cell_angle_alpha   90.00000000
_cell_angle_beta   90.00000000
_cell_angle_gamma   90.00000000
_symmetry_Int_Tables_number   1
_chemical_formula_structural   Sc2Ga8Co
_chemical_formula_sum   'Sc2 Ga8 Co1'
_cell_volume   178.11159235
_cell_formula_units_Z   1
loop_
 _symmetry_equiv_pos_site_id
 _symmetry_equiv_pos_as_xyz
  1  'x, y, z'
loop_
 _atom_site_type_symbol
 _atom_site_label
 _atom_site_symmetry_multiplicity
 _atom_site_fract_x
 _atom_site_fract_y
 _atom_site_fract_z
 _atom_site_occupancy
  Sc  Sc0  1  -0.00000000  -0.00000000  0.30855413  1
  Sc  Sc1  1  0.00000000  0.00000000  0.69144587  1
  Ga  Ga0  1  0.00000000  0.50000000  0.12088008  1
  Ga  Ga1  1  -0.00000000  0.50000000  0.87911992  1
  Ga  Ga2  1  0.50000000  0.00000000  0.12088008  1
  Ga  Ga3  1  0.50000000  -0.00000000  0.87911992  1
  Ga  Ga4  1  0.50000000  0.50000000  0.30596899  1
  Ga  Ga5  1  0.50000000  0.50000000  0.69403101  1
  Ga  Ga6  1  0.00000000  0.50000000  0.50000000  1
  Ga  Ga7  1  0.50000000  0.00000000  0.50000000  1
  Co  Co0  1  0.00000000  0.00000000  0.00000000  1
loop_
_geom_bond_atom_site_label_1
_geom_bond_atom_site_label_2
_geom_bond_distance
_geom_bond_site_symmetry_2
Ga0 Ga1 2.582126 1_554
Ga0 Ga4 2.842006 1_555
Ga0 Ga4 2.842006 1_455
Ga0 Sc0 2.861280 1_565
Ga0 Sc0 2.861280 1_555
Ga0 Ga2 2.887585 1_565
Ga0 Ga2 2.887585 1_555
Ga0 Ga2 2.887585 1_465
Ga0 Ga2 2.887585 1_455
Ga1 Ga5 2.842006 1_555
Ga1 Ga5 2.842006 1_455
Ga1 Sc1 2.861280 1_555
Ga1 Sc1 2.861280 1_565
Ga1 Ga3 2.887585 1_455
Ga1 Ga3 2.887585 1_465
Ga1 Ga3 2.887585 1_555
Ga1 Ga3 2.887585 1_565
Ga2 Ga3 2.582126 1_554
Ga2 Ga4 2.842006 1_555
Ga2 Ga4 2.842006 1_545
Ga2 Sc0 2.861280 1_655
Ga2 Sc0 2.861280 1_555
Ga3 Ga5 2.842006 1_545
Ga3 Ga5 2.842006 1_555
Ga3 Sc1 2.861280 1_555
Ga3 Sc1 2.861280 1_655
Ga4 Sc0 2.887717 1_555
Ga4 Sc0 2.887717 1_655
Ga4 Sc0 2.887717 1_665
Ga4 Sc0 2.887717 1_565
Ga4 Ga7 2.909248 1_555
Ga4 Ga7 2.909248 1_565
Ga4 Ga6 2.909248 1_655
Ga4 Ga6 2.909248 1_555
Ga5 Sc1 2.887717 1_665
Ga5 Sc1 2.887717 1_555
Ga5 Sc1 2.887717 1_655
Ga5 Sc1 2.887717 1_565
Ga5 Ga7 2.909248 1_555
Ga5 Ga7 2.909248 1_565
Ga5 Ga6 2.909248 1_655
Ga5 Ga6 2.909248 1_555
Ga6 Ga7 2.887585 1_565
Ga6 Ga7 2.887585 1_555
Ga6 Ga7 2.887585 1_455
Ga6 Ga7 2.887585 1_465
Ga6 Sc1 2.889645 1_555
Ga6 Sc0 2.889645 1_565
Ga6 Sc0 2.889645 1_555
Ga6 Sc1 2.889645 1_565
Ga7 Sc1 2.889645 1_555
Ga7 Sc0 2.889645 1_655
Ga7 Sc0 2.889645 1_555
Ga7 Sc1 2.889645 1_655
Co0 Ga2 2.415764 1_555
Co0 Ga1 2.415764 1_554
Co0 Ga3 2.415764 1_454
Co0 Ga0 2.415764 1_545
Co0 Ga0 2.415764 1_555
Co0 Ga1 2.415764 1_544
Co0 Ga2 2.415764 1_455
Co0 Ga3 2.415764 1_554
