# generated using pymatgen
data_LiH6IO7
_symmetry_space_group_name_H-M   'P 1'
_cell_length_a   5.76104233
_cell_length_b   5.87481478
_cell_length_c   9.78276471
_cell_angle_alpha   102.93094240
_cell_angle_beta   94.79998461
_cell_angle_gamma   114.50305311
_symmetry_Int_Tables_number   1
_chemical_formula_structural   LiH6IO7
_chemical_formula_sum   'Li2 H12 I2 O14'
_cell_volume   287.76594165
_cell_formula_units_Z   2
loop_
 _symmetry_equiv_pos_site_id
 _symmetry_equiv_pos_as_xyz
  1  'x, y, z'
loop_
 _atom_site_type_symbol
 _atom_site_label
 _atom_site_symmetry_multiplicity
 _atom_site_fract_x
 _atom_site_fract_y
 _atom_site_fract_z
 _atom_site_occupancy
  Li  Li0  1  0.24910300  0.26454900  0.99151200  1
  Li  Li1  1  0.75089700  0.73545100  0.00848800  1
  H  H0  1  0.80426200  0.45894400  0.73241600  1
  H  H1  1  0.19573800  0.54105600  0.26758400  1
  H  H2  1  0.28093400  0.94088500  0.72917300  1
  H  H3  1  0.71906600  0.05911500  0.27082700  1
  H  H4  1  0.36866100  0.59289300  0.58713100  1
  H  H5  1  0.63133900  0.40710700  0.41286900  1
  H  H6  1  0.94633100  0.19589000  0.56678400  1
  H  H7  1  0.05366900  0.80411000  0.43321600  1
  H  H8  1  0.70741400  0.26859500  0.98342600  1
  H  H9  1  0.29258600  0.73140500  0.01657400  1
  H  H10  1  0.68155300  0.36704400  0.14210000  1
  H  H11  1  0.31844700  0.63295600  0.85790000  1
  I  I0  1  0.82798500  0.89112400  0.71705600  1
  I  I1  1  0.17201500  0.10887600  0.28294400  1
  O  O0  1  0.20795100  0.06017400  0.77390400  1
  O  O1  1  0.79204900  0.93982600  0.22609600  1
  O  O2  1  0.64575500  0.38108800  0.04586900  1
  O  O3  1  0.35424500  0.61891200  0.95413100  1
  O  O4  1  0.44338900  0.74398800  0.67665700  1
  O  O5  1  0.55661100  0.25601200  0.32334300  1
  O  O6  1  0.82957600  0.06674500  0.89627000  1
  O  O7  1  0.17042400  0.93325500  0.10373000  1
  O  O8  1  0.84455400  0.18291400  0.64612300  1
  O  O9  1  0.15544600  0.81708600  0.35387700  1
  O  O10  1  0.83318200  0.70326300  0.54112100  1
  O  O11  1  0.16681800  0.29673700  0.45887900  1
  O  O12  1  0.80462500  0.61257100  0.80177900  1
  O  O13  1  0.19537500  0.38742900  0.19822100  1
loop_
_geom_bond_atom_site_label_1
_geom_bond_atom_site_label_2
_geom_bond_distance
_geom_bond_site_symmetry_2
Li0 O3 2.041176 1_555
Li0 O2 2.075884 1_556
Li0 O13 2.083971 1_556
Li0 O0 2.136612 1_555
Li0 O6 2.206545 1_455
Li0 O7 2.346581 1_546
Li1 O2 2.041176 1_555
Li1 O3 2.075884 1_554
Li1 O12 2.083971 1_554
Li1 O1 2.136612 1_555
Li1 O7 2.206545 1_655
Li1 O6 2.346581 1_564
H0 O12 0.999558 1_555
H1 O13 0.999558 1_555
H2 O0 0.998674 1_565
H3 O1 0.998674 1_545
H4 O4 1.006130 1_555
H4 O11 1.747609 1_555
H5 O5 1.006130 1_555
H5 O10 1.747609 1_555
H6 O8 1.008757 1_555
H6 O11 1.720140 1_655
H7 O9 1.008757 1_555
H7 O10 1.720140 1_455
H8 O2 0.993205 1_556
H8 O6 1.722977 1_555
H9 O3 0.993205 1_554
H9 O7 1.722977 1_555
H10 O2 0.975688 1_555
H11 O3 0.975688 1_555
I0 O6 1.821598 1_565
I0 O10 1.834972 1_555
I0 O12 1.956027 1_555
I0 O0 1.957836 1_665
I0 O8 1.958799 1_565
I0 O4 1.981035 1_555
I1 O7 1.821598 1_545
I1 O11 1.834972 1_555
I1 O13 1.956027 1_555
I1 O1 1.957836 1_445
I1 O9 1.958799 1_545
I1 O5 1.981035 1_555
