# generated using pymatgen
data_Fe3B7IO13
_symmetry_space_group_name_H-M   'P 1'
_cell_length_a   8.64460095
_cell_length_b   8.64460095
_cell_length_c   8.64460155
_cell_angle_alpha   60.15420994
_cell_angle_beta   60.15420994
_cell_angle_gamma   60.15420607
_symmetry_Int_Tables_number   1
_chemical_formula_structural   Fe3B7IO13
_chemical_formula_sum   'Fe6 B14 I2 O26'
_cell_volume   458.38899132
_cell_formula_units_Z   2
loop_
 _symmetry_equiv_pos_site_id
 _symmetry_equiv_pos_as_xyz
  1  'x, y, z'
loop_
 _atom_site_type_symbol
 _atom_site_label
 _atom_site_symmetry_multiplicity
 _atom_site_fract_x
 _atom_site_fract_y
 _atom_site_fract_z
 _atom_site_occupancy
  Fe  Fe0  1  0.03328586  0.49767362  0.49766051  1
  Fe  Fe1  1  0.49767362  0.49766051  0.03328586  1
  Fe  Fe2  1  0.49766051  0.03328586  0.49767362  1
  Fe  Fe3  1  0.99767362  0.53328586  0.99766051  1
  Fe  Fe4  1  0.53328586  0.99766051  0.99767362  1
  Fe  Fe5  1  0.99766051  0.99767362  0.53328586  1
  B  B0  1  0.25859924  0.76580352  0.26049683  1
  B  B1  1  0.76580352  0.26049683  0.25859924  1
  B  B2  1  0.26049683  0.25859924  0.76580352  1
  B  B3  1  0.26580352  0.75859924  0.76049683  1
  B  B4  1  0.75859924  0.76049683  0.26580352  1
  B  B5  1  0.76049683  0.26580352  0.75859924  1
  B  B6  1  0.28143186  0.58367240  0.58633020  1
  B  B7  1  0.58367240  0.58633020  0.28143186  1
  B  B8  1  0.58633020  0.28143186  0.58367240  1
  B  B9  1  0.08367240  0.78143186  0.08633020  1
  B  B10  1  0.78143186  0.08633020  0.08367240  1
  B  B11  1  0.08633020  0.08367240  0.78143186  1
  B  B12  1  0.11308527  0.11308527  0.11308527  1
  B  B13  1  0.61308527  0.61308527  0.61308527  1
  I  I0  1  0.26788206  0.26788206  0.26788206  1
  I  I1  1  0.76788206  0.76788206  0.76788206  1
  O  O0  1  0.49992834  0.49992834  0.49992834  1
  O  O1  1  -0.00007166  -0.00007166  -0.00007166  1
  O  O2  1  0.44443342  0.76310014  0.21840225  1
  O  O3  1  0.76310014  0.21840225  0.44443342  1
  O  O4  1  0.21840225  0.44443342  0.76310014  1
  O  O5  1  0.26310014  0.94443342  0.71840225  1
  O  O6  1  0.94443342  0.71840225  0.26310014  1
  O  O7  1  0.71840225  0.26310014  0.94443342  1
  O  O8  1  0.25726705  0.73061575  0.11351506  1
  O  O9  1  0.73061575  0.11351506  0.25726705  1
  O  O10  1  0.11351506  0.25726705  0.73061575  1
  O  O11  1  0.23061575  0.75726705  0.61351506  1
  O  O12  1  0.75726705  0.61351506  0.23061575  1
  O  O13  1  0.61351506  0.23061575  0.75726705  1
  O  O14  1  0.95719520  0.27477572  0.11789414  1
  O  O15  1  0.27477572  0.11789414  0.95719520  1
  O  O16  1  0.11789414  0.95719520  0.27477572  1
  O  O17  1  0.77477572  0.45719520  0.61789414  1
  O  O18  1  0.45719520  0.61789414  0.77477572  1
  O  O19  1  0.61789414  0.77477572  0.45719520  1
  O  O20  1  0.20291996  0.62403016  0.44718344  1
  O  O21  1  0.62403016  0.44718344  0.20291996  1
  O  O22  1  0.44718344  0.20291996  0.62403016  1
  O  O23  1  0.12403016  0.70291996  0.94718344  1
  O  O24  1  0.70291996  0.94718344  0.12403016  1
  O  O25  1  0.94718344  0.12403016  0.70291996  1
loop_
_geom_bond_atom_site_label_1
_geom_bond_atom_site_label_2
_geom_bond_distance
_geom_bond_site_symmetry_2
Fe0 O20 2.004224 1_555
Fe0 O17 2.073923 1_455
Fe0 O6 2.140740 1_455
Fe0 O10 2.155307 1_555
Fe0 I0 2.812912 1_555
Fe0 I1 3.307438 1_455
Fe1 O21 2.004224 1_555
Fe1 O18 2.073923 1_554
Fe1 O7 2.140740 1_554
Fe1 O8 2.155307 1_555
Fe1 I0 2.812913 1_555
Fe1 I1 3.307438 1_554
Fe2 O22 2.004224 1_555
Fe2 O19 2.073923 1_545
Fe2 O5 2.140740 1_545
Fe2 O9 2.155307 1_555
Fe2 I0 2.812912 1_555
Fe2 I1 3.307438 1_545
Fe3 O23 2.004224 1_655
Fe3 O14 2.073923 1_556
Fe3 O4 2.140740 1_655
Fe3 O12 2.155307 1_556
Fe3 I1 2.812912 1_555
Fe3 I0 3.307438 1_656
Fe4 O24 2.004224 1_556
Fe4 O15 2.073923 1_565
Fe4 O2 2.140740 1_556
Fe4 O13 2.155307 1_565
Fe4 I1 2.812912 1_555
Fe4 I0 3.307438 1_566
Fe5 O25 2.004224 1_565
Fe5 O16 2.073923 1_655
Fe5 O3 2.140740 1_565
Fe5 O11 2.155307 1_655
Fe5 I1 2.812913 1_555
Fe5 I0 3.307438 1_665
B0 O2 1.450149 1_555
B0 O8 1.452524 1_555
B0 O20 1.477670 1_555
B0 O16 1.510922 1_555
B1 O3 1.450149 1_555
B1 O9 1.452524 1_555
B1 O21 1.477670 1_555
B1 O14 1.510922 1_555
B2 O4 1.450149 1_555
B2 O10 1.452524 1_555
B2 O22 1.477670 1_555
B2 O15 1.510922 1_555
B3 O5 1.450149 1_555
B3 O11 1.452524 1_555
B3 O23 1.477670 1_555
B3 O18 1.510922 1_555
B4 O6 1.450149 1_555
B4 O12 1.452524 1_555
B4 O24 1.477670 1_555
B4 O19 1.510922 1_555
B5 O7 1.450149 1_555
B5 O13 1.452524 1_555
B5 O25 1.477670 1_555
B5 O17 1.510922 1_555
B6 O4 1.440173 1_555
B6 O11 1.446474 1_555
B6 O20 1.479343 1_555
B6 O0 1.556463 1_555
B7 O2 1.440173 1_555
B7 O12 1.446474 1_555
B7 O21 1.479343 1_555
B7 O0 1.556463 1_555
B8 O3 1.440173 1_555
B8 O13 1.446474 1_555
B8 O22 1.479343 1_555
B8 O0 1.556463 1_555
B9 O6 1.440173 1_455
B9 O8 1.446474 1_555
B9 O23 1.479343 1_554
B9 O1 1.556463 1_565
B10 O7 1.440173 1_554
B10 O9 1.446474 1_555
B10 O24 1.479343 1_545
B10 O1 1.556463 1_655
B11 O5 1.440173 1_545
B11 O10 1.446474 1_555
B11 O25 1.479343 1_455
B11 O1 1.556463 1_556
B12 O14 1.377941 1_455
B12 O15 1.377941 1_554
B12 O16 1.377941 1_545
B13 O17 1.377941 1_555
B13 O19 1.377941 1_555
B13 O18 1.377941 1_555
