# generated using pymatgen
data_Sm5Mg41
_symmetry_space_group_name_H-M   'P 1'
_cell_length_a   11.59191948
_cell_length_b   11.59191948
_cell_length_c   11.59191948
_cell_angle_alpha   101.50073046
_cell_angle_beta   101.50073046
_cell_angle_gamma   126.95869653
_symmetry_Int_Tables_number   1
_chemical_formula_structural   Sm5Mg41
_chemical_formula_sum   'Sm5 Mg41'
_cell_volume   1113.68796640
_cell_formula_units_Z   1
loop_
 _symmetry_equiv_pos_site_id
 _symmetry_equiv_pos_as_xyz
  1  'x, y, z'
loop_
 _atom_site_type_symbol
 _atom_site_label
 _atom_site_symmetry_multiplicity
 _atom_site_fract_x
 _atom_site_fract_y
 _atom_site_fract_z
 _atom_site_occupancy
  Sm  Sm0  1  0.00000000  0.00000000  0.00000000  1
  Sm  Sm1  1  0.76389800  0.42869900  0.19259800  1
  Sm  Sm2  1  0.23610200  0.57130100  0.80740200  1
  Sm  Sm3  1  0.42869900  0.23610200  0.66480100  1
  Sm  Sm4  1  0.57130100  0.76389800  0.33519900  1
  Mg  Mg0  1  0.50000000  0.50000000  0.00000000  1
  Mg  Mg1  1  0.50000000  0.00000000  0.00000000  1
  Mg  Mg2  1  0.00000000  0.50000000  0.00000000  1
  Mg  Mg3  1  0.00000000  0.00000000  0.50000000  1
  Mg  Mg4  1  0.50000000  0.50000000  0.50000000  1
  Mg  Mg5  1  0.00956000  0.40253000  0.41209000  1
  Mg  Mg6  1  0.99044000  0.59747000  0.58791000  1
  Mg  Mg7  1  0.40253000  0.99044000  0.39297000  1
  Mg  Mg8  1  0.59747000  0.00956000  0.60703000  1
  Mg  Mg9  1  0.87790000  0.22191500  0.09981500  1
  Mg  Mg10  1  0.12210000  0.77808500  0.90018500  1
  Mg  Mg11  1  0.22191500  0.12210000  0.34401500  1
  Mg  Mg12  1  0.77808500  0.87790000  0.65598500  1
  Mg  Mg13  1  0.65872700  0.21733700  0.87606400  1
  Mg  Mg14  1  0.34127300  0.78266300  0.12393600  1
  Mg  Mg15  1  0.21733700  0.34127300  0.55861000  1
  Mg  Mg16  1  0.78266300  0.65872700  0.44139000  1
  Mg  Mg17  1  0.62579400  0.91367000  0.83429100  1
  Mg  Mg18  1  0.07937900  0.79150300  0.16570900  1
  Mg  Mg19  1  0.91367000  0.07937900  0.28787600  1
  Mg  Mg20  1  0.79150300  0.62579400  0.71212400  1
  Mg  Mg21  1  0.37420600  0.08633000  0.16570900  1
  Mg  Mg22  1  0.92062100  0.20849700  0.83429100  1
  Mg  Mg23  1  0.08633000  0.92062100  0.71212400  1
  Mg  Mg24  1  0.20849700  0.37420600  0.28787600  1
  Mg  Mg25  1  0.38724500  0.17418200  0.94074300  1
  Mg  Mg26  1  0.23343900  0.44650300  0.05925700  1
  Mg  Mg27  1  0.17418200  0.23343900  0.78693700  1
  Mg  Mg28  1  0.44650300  0.38724500  0.21306300  1
  Mg  Mg29  1  0.61275500  0.82581800  0.05925700  1
  Mg  Mg30  1  0.76656100  0.55349700  0.94074300  1
  Mg  Mg31  1  0.82581800  0.76656100  0.21306300  1
  Mg  Mg32  1  0.55349700  0.61275500  0.78693700  1
  Mg  Mg33  1  0.66450500  0.10800900  0.28974500  1
  Mg  Mg34  1  0.81826400  0.37476000  0.71025500  1
  Mg  Mg35  1  0.10800900  0.81826400  0.44350400  1
  Mg  Mg36  1  0.37476000  0.66450500  0.55649600  1
  Mg  Mg37  1  0.33549500  0.89199100  0.71025500  1
  Mg  Mg38  1  0.18173600  0.62524000  0.28974500  1
  Mg  Mg39  1  0.89199100  0.18173600  0.55649600  1
  Mg  Mg40  1  0.62524000  0.33549500  0.44350400  1
loop_
_geom_bond_atom_site_label_1
_geom_bond_atom_site_label_2
_geom_bond_distance
_geom_bond_site_symmetry_2
Mg0 Mg32 3.019311 1_554
Mg0 Mg28 3.019311 1_555
Mg0 Mg31 3.019313 1_555
Mg0 Mg27 3.019313 1_554
Mg0 Mg29 3.019313 1_555
Mg0 Mg25 3.019313 1_554
Mg0 Mg26 3.019317 1_555
Mg0 Mg30 3.019317 1_554
Mg1 Mg14 2.952937 1_545
Mg1 Mg13 2.952937 1_554
Mg1 Mg17 2.987093 1_544
Mg1 Mg21 2.987093 1_555
Mg1 Mg33 3.063171 1_555
Mg1 Mg37 3.063171 1_544
Mg1 Mg29 3.102490 1_545
Mg1 Mg25 3.102490 1_554
Mg1 Mg9 3.222925 1_555
Mg1 Mg10 3.222925 1_544
Mg1 Sm1 3.689207 1_555
Mg1 Sm2 3.689207 1_544
Mg2 Mg22 2.987093 1_454
Mg2 Mg38 3.063171 1_555
Mg2 Mg34 3.063171 1_454
Mg2 Mg30 3.102481 1_454
Mg2 Mg26 3.102481 1_555
Mg2 Mg9 3.222925 1_455
Mg2 Sm1 3.689215 1_455
Mg2 Sm2 3.689215 1_554
Mg3 Mg35 3.063171 1_545
Mg3 Mg39 3.063171 1_455
Mg3 Mg31 3.102490 1_445
Mg3 Sm3 3.689205 1_555
Mg3 Sm4 3.689205 1_445
Mg4 Mg40 3.063171 1_555
Mg4 Sm3 3.689205 1_555
Mg4 Sm4 3.689205 1_555
Mg5 Mg6 2.873184 1_455
Mg5 Mg9 3.278520 1_455
Mg5 Sm1 3.623855 1_455
Mg6 Sm2 3.623855 1_655
Mg7 Mg8 2.873184 1_565
Mg7 Sm3 3.623862 1_565
Mg8 Sm4 3.623862 1_545
Mg9 Sm1 3.463618 1_555
Mg9 Sm0 3.715332 1_655
Mg10 Mg20 3.090944 1_455
Mg10 Mg23 3.090944 1_555
Mg10 Mg21 3.201973 1_566
Mg10 Mg18 3.201973 1_556
Mg10 Mg14 3.215624 1_556
Mg10 Mg2 3.222925 1_556
Mg10 Mg6 3.278520 1_455
Mg10 Sm2 3.463618 1_555
Mg10 Mg37 3.480385 1_555
Mg10 Mg34 3.480385 1_455
Mg10 Mg25 3.513277 1_565
Mg10 Mg30 3.513278 1_455
Mg10 Sm0 3.715332 1_566
Mg11 Mg21 3.090944 1_555
Mg11 Mg18 3.090944 1_545
Mg11 Mg24 3.201973 1_555
Mg11 Mg19 3.201973 1_455
Mg11 Mg15 3.215624 1_555
Mg11 Mg3 3.222925 1_555
Mg11 Mg4 3.222925 1_555
Mg11 Mg7 3.278520 1_545
Mg11 Sm3 3.463615 1_555
Mg11 Mg35 3.480385 1_545
Mg11 Mg40 3.480385 1_555
Mg11 Mg31 3.513277 1_445
Mg11 Mg28 3.513280 1_555
Mg11 Sm0 3.715332 1_555
Mg12 Mg22 3.090944 1_565
Mg12 Mg17 3.090944 1_555
Mg12 Mg20 3.201973 1_555
Mg12 Mg23 3.201973 1_655
Mg12 Mg16 3.215624 1_555
Mg12 Mg3 3.222925 1_665
Mg12 Mg4 3.222925 1_555
Mg12 Mg8 3.278520 1_565
Mg12 Sm4 3.463615 1_555
Mg12 Mg39 3.480385 1_565
Mg12 Mg36 3.480385 1_555
Mg12 Mg27 3.513277 1_665
Mg12 Mg32 3.513280 1_555
Mg12 Sm0 3.715332 1_666
Mg13 Mg2 2.952937 1_656
Mg13 Mg37 3.033530 1_545
Mg13 Mg34 3.033530 1_555
Mg13 Mg30 3.148538 1_555
Mg13 Mg25 3.148549 1_555
Mg13 Mg8 3.177456 1_555
Mg13 Mg9 3.215624 1_556
Mg13 Mg17 3.225195 1_545
Mg13 Mg22 3.225195 1_555
Mg13 Sm3 3.385357 1_555
Mg13 Sm1 3.462965 1_556
Mg14 Mg2 2.952937 1_555
Mg14 Mg38 3.033530 1_555
Mg14 Mg33 3.033530 1_565
Mg14 Mg26 3.148538 1_555
Mg14 Mg29 3.148549 1_555
Mg14 Mg7 3.177456 1_555
Mg14 Mg18 3.225195 1_555
Mg14 Mg21 3.225195 1_565
Mg14 Sm4 3.385357 1_555
Mg14 Sm2 3.462965 1_554
Mg15 Mg3 2.952937 1_555
Mg15 Mg4 2.952937 1_555
Mg15 Mg39 3.033530 1_455
Mg15 Mg36 3.033530 1_555
Mg15 Mg32 3.148543 1_555
Mg15 Mg27 3.148549 1_555
Mg15 Mg5 3.177456 1_555
Mg15 Mg24 3.225195 1_555
Mg15 Mg19 3.225195 1_455
Mg15 Sm2 3.385349 1_555
Mg15 Sm3 3.462955 1_555
Mg16 Mg4 2.952937 1_555
Mg16 Mg3 2.952937 1_665
Mg16 Mg40 3.033530 1_555
Mg16 Mg35 3.033530 1_655
Mg16 Mg28 3.148543 1_555
Mg16 Mg31 3.148549 1_555
Mg16 Mg6 3.177456 1_555
Mg16 Mg20 3.225195 1_555
Mg16 Mg23 3.225195 1_655
Mg16 Sm1 3.385349 1_555
Mg16 Sm4 3.462955 1_555
Mg17 Mg32 2.951084 1_555
Mg17 Mg29 2.981872 1_556
Mg17 Mg22 3.052066 1_565
Mg17 Mg8 3.089494 1_565
Mg17 Mg36 3.102841 1_555
Mg17 Mg9 3.201973 1_566
Mg17 Mg37 3.219343 1_555
Mg17 Sm2 3.693391 1_555
Mg17 Sm0 3.768083 1_666
Mg18 Mg31 2.951089 1_455
Mg18 Mg30 2.981872 1_454
Mg18 Mg2 2.987093 1_555
Mg18 Mg21 3.052066 1_565
Mg18 Mg7 3.089494 1_555
Mg18 Mg35 3.102841 1_555
Mg18 Mg38 3.219343 1_555
Mg18 Sm1 3.693401 1_455
Mg18 Sm0 3.768083 1_565
Mg19 Mg29 2.951089 1_545
Mg19 Mg31 2.981872 1_545
Mg19 Mg3 2.987093 1_655
Mg19 Mg24 3.052066 1_655
Mg19 Mg5 3.089494 1_655
Mg19 Mg9 3.090944 1_555
Mg19 Mg33 3.102841 1_555
Mg19 Mg39 3.219343 1_555
Mg19 Sm4 3.693395 1_545
Mg19 Sm0 3.768083 1_655
Mg20 Mg30 2.951094 1_555
Mg20 Mg32 2.981883 1_555
Mg20 Mg4 2.987093 1_555
Mg20 Mg23 3.052066 1_655
Mg20 Mg6 3.089494 1_555
Mg20 Mg34 3.102841 1_555
Mg20 Mg40 3.219343 1_555
Mg20 Sm3 3.693395 1_555
Mg20 Sm0 3.768083 1_666
Mg21 Mg28 2.951084 1_555
Mg21 Mg25 2.981872 1_554
Mg21 Mg7 3.089494 1_545
Mg21 Mg40 3.102841 1_555
Mg21 Mg33 3.219343 1_555
Mg21 Sm1 3.693391 1_555
Mg21 Sm0 3.768083 1_555
Mg22 Mg27 2.951089 1_655
Mg22 Mg26 2.981872 1_656
Mg22 Mg8 3.089494 1_555
Mg22 Mg39 3.102841 1_555
Mg22 Mg9 3.201973 1_556
Mg22 Mg34 3.219343 1_555
Mg22 Sm2 3.693401 1_655
Mg22 Sm0 3.768083 1_656
Mg23 Mg25 2.951089 1_565
Mg23 Mg27 2.981872 1_565
Mg23 Mg3 2.987093 1_565
Mg23 Mg6 3.089494 1_455
Mg23 Mg37 3.102841 1_555
Mg23 Mg35 3.219343 1_555
Mg23 Sm3 3.693395 1_565
Mg23 Sm0 3.768083 1_566
Mg24 Mg26 2.951094 1_555
Mg24 Mg28 2.981883 1_555
Mg24 Mg4 2.987093 1_555
Mg24 Mg5 3.089494 1_555
Mg24 Mg9 3.090944 1_455
Mg24 Mg38 3.102841 1_555
Mg24 Mg36 3.219343 1_555
Mg24 Sm4 3.693395 1_555
Mg24 Sm0 3.768083 1_555
Mg25 Mg28 3.243914 1_556
Mg25 Mg27 3.243919 1_555
Mg25 Mg37 3.422698 1_545
Mg25 Sm3 3.477280 1_555
Mg25 Sm1 3.504786 1_556
Mg25 Sm0 3.947506 1_556
Mg26 Mg27 3.243924 1_554
Mg26 Mg28 3.243937 1_555
Mg26 Mg38 3.422691 1_555
Mg26 Sm4 3.477278 1_555
Mg26 Sm2 3.504785 1_554
Mg26 Mg9 3.513278 1_455
Mg26 Sm0 3.947516 1_555
Mg27 Mg3 3.102490 1_555
Mg27 Mg39 3.422698 1_455
Mg27 Sm2 3.477282 1_555
Mg27 Sm3 3.504781 1_555
Mg27 Sm0 3.947506 1_556
Mg28 Mg4 3.102493 1_555
Mg28 Mg40 3.422691 1_555
Mg28 Sm1 3.477265 1_555
Mg28 Sm4 3.504786 1_555
Mg28 Sm0 3.947512 1_555
Mg29 Mg32 3.243914 1_554
Mg29 Mg31 3.243919 1_555
Mg29 Mg33 3.422698 1_565
Mg29 Sm4 3.477280 1_555
Mg29 Sm2 3.504786 1_554
Mg29 Mg9 3.513277 1_565
Mg29 Sm0 3.947506 1_665
Mg30 Mg31 3.243924 1_556
Mg30 Mg32 3.243937 1_555
Mg30 Mg34 3.422691 1_555
Mg30 Sm3 3.477278 1_555
Mg30 Sm1 3.504785 1_556
Mg30 Sm0 3.947516 1_666
Mg31 Mg35 3.422698 1_655
Mg31 Sm1 3.477282 1_555
Mg31 Sm4 3.504781 1_555
Mg31 Sm0 3.947506 1_665
Mg32 Mg4 3.102493 1_555
Mg32 Mg36 3.422691 1_555
Mg32 Sm2 3.477265 1_555
Mg32 Sm3 3.504786 1_555
Mg32 Sm0 3.947512 1_666
Mg33 Mg5 3.008729 1_655
Mg33 Mg7 3.103845 1_545
Mg33 Mg39 3.198485 1_555
Mg33 Mg40 3.198485 1_555
Mg33 Mg9 3.480385 1_555
Mg33 Sm4 3.638559 1_545
Mg33 Sm1 3.667588 1_555
Mg34 Mg6 3.008729 1_555
Mg34 Mg8 3.103845 1_555
Mg34 Mg39 3.198485 1_555
Mg34 Mg40 3.198485 1_555
Mg34 Sm3 3.638559 1_555
Mg34 Sm2 3.667595 1_655
Mg35 Mg7 3.008729 1_555
Mg35 Mg6 3.103845 1_455
Mg35 Mg37 3.198485 1_555
Mg35 Mg38 3.198485 1_555
Mg35 Sm1 3.638555 1_455
Mg35 Sm3 3.667594 1_565
Mg36 Mg8 3.008729 1_565
Mg36 Mg4 3.063171 1_555
Mg36 Mg5 3.103845 1_555
Mg36 Mg37 3.198485 1_555
Mg36 Mg38 3.198485 1_555
Mg36 Sm2 3.638548 1_555
Mg36 Sm4 3.667594 1_555
Mg37 Mg6 3.008729 1_455
Mg37 Mg8 3.103845 1_565
Mg37 Sm3 3.638559 1_565
Mg37 Sm2 3.667588 1_555
Mg38 Mg5 3.008729 1_555
Mg38 Mg7 3.103845 1_555
Mg38 Mg9 3.480385 1_455
Mg38 Sm4 3.638559 1_555
Mg38 Sm1 3.667595 1_455
Mg39 Mg8 3.008729 1_555
Mg39 Mg5 3.103845 1_655
Mg39 Sm2 3.638555 1_655
Mg39 Sm4 3.667594 1_545
Mg40 Mg7 3.008729 1_545
Mg40 Mg6 3.103845 1_555
Mg40 Sm1 3.638548 1_555
Mg40 Sm3 3.667594 1_555
