# generated using pymatgen
data_La2CdRh2
_symmetry_space_group_name_H-M   'P 1'
_cell_length_a   3.87470197
_cell_length_b   7.76560966
_cell_length_c   7.76560966
_cell_angle_alpha   90.00119924
_cell_angle_beta   90.00000000
_cell_angle_gamma   90.00000000
_symmetry_Int_Tables_number   1
_chemical_formula_structural   La2CdRh2
_chemical_formula_sum   'La4 Cd2 Rh4'
_cell_volume   233.66271426
_cell_formula_units_Z   2
loop_
 _symmetry_equiv_pos_site_id
 _symmetry_equiv_pos_as_xyz
  1  'x, y, z'
loop_
 _atom_site_type_symbol
 _atom_site_label
 _atom_site_symmetry_multiplicity
 _atom_site_fract_x
 _atom_site_fract_y
 _atom_site_fract_z
 _atom_site_occupancy
  La  La0  1  0.50000000  0.66605885  0.83394115  1
  La  La1  1  0.50000000  0.83397418  0.33397418  1
  La  La2  1  0.50000000  0.16602582  0.66602582  1
  La  La3  1  0.50000000  0.33394115  0.16605885  1
  Cd  Cd0  1  -0.00000000  0.00000000  0.00000000  1
  Cd  Cd1  1  0.00000000  0.50000000  0.50000000  1
  Rh  Rh0  1  0.00000000  0.36010114  0.86010114  1
  Rh  Rh1  1  0.00000000  0.13989207  0.36010793  1
  Rh  Rh2  1  -0.00000000  0.86010793  0.63989207  1
  Rh  Rh3  1  -0.00000000  0.63989886  0.13989886  1
loop_
_geom_bond_atom_site_label_1
_geom_bond_atom_site_label_2
_geom_bond_distance
_geom_bond_site_symmetry_2
La0 Rh2 2.880100 1_655
La0 Rh2 2.880100 1_555
La0 Rh3 3.072417 1_556
La0 Rh3 3.072417 1_656
La0 Rh0 3.072417 1_655
La0 Rh0 3.072417 1_555
La1 Rh3 2.880280 1_555
La1 Rh3 2.880280 1_655
La1 Rh1 3.072158 1_565
La1 Rh1 3.072158 1_665
La1 Rh2 3.072158 1_655
La1 Rh2 3.072158 1_555
La2 Rh0 2.880280 1_655
La2 Rh0 2.880280 1_555
La2 Rh1 3.072158 1_555
La2 Rh1 3.072158 1_655
La2 Rh2 3.072158 1_545
La2 Rh2 3.072158 1_645
La3 Rh1 2.880100 1_555
La3 Rh1 2.880100 1_655
La3 Rh3 3.072417 1_555
La3 Rh3 3.072417 1_655
La3 Rh0 3.072417 1_654
La3 Rh0 3.072417 1_554
Cd0 Rh2 3.000033 1_544
Cd0 Rh1 3.000033 1_555
Cd0 Rh0 3.000045 1_554
Cd0 Rh3 3.000045 1_545
Cd0 La0 3.484409 1_444
Cd0 La0 3.484409 1_544
Cd0 La3 3.484409 1_455
Cd0 La3 3.484409 1_555
Cd0 La1 3.484545 1_445
Cd0 La2 3.484545 1_554
Cd0 La1 3.484545 1_545
Cd0 La2 3.484545 1_454
Cd1 Rh1 3.000033 1_555
Cd1 Rh2 3.000033 1_555
Cd1 Rh3 3.000045 1_555
Cd1 Rh0 3.000045 1_555
Cd1 La0 3.484409 1_555
Cd1 La3 3.484409 1_455
Cd1 La0 3.484409 1_455
Cd1 La3 3.484409 1_555
Cd1 La1 3.484545 1_455
Cd1 La1 3.484545 1_555
Cd1 La2 3.484545 1_555
Cd1 La2 3.484545 1_455
