# generated using pymatgen
data_Fe3(PO5)2
_symmetry_space_group_name_H-M   'P 1'
_cell_length_a   7.40744800
_cell_length_b   7.38889000
_cell_length_c   7.48049106
_cell_angle_alpha   61.04189575
_cell_angle_beta   90.00000000
_cell_angle_gamma   90.00000000
_symmetry_Int_Tables_number   1
_chemical_formula_structural   Fe3(PO5)2
_chemical_formula_sum   'Fe6 P4 O20'
_cell_volume   358.23915899
_cell_formula_units_Z   2
loop_
 _symmetry_equiv_pos_site_id
 _symmetry_equiv_pos_as_xyz
  1  'x, y, z'
loop_
 _atom_site_type_symbol
 _atom_site_label
 _atom_site_symmetry_multiplicity
 _atom_site_fract_x
 _atom_site_fract_y
 _atom_site_fract_z
 _atom_site_occupancy
  Fe  Fe0  1  0.50000000  0.50000000  0.00000000  1
  Fe  Fe1  1  0.00000000  0.00000000  0.00000000  1
  Fe  Fe2  1  0.22522100  0.77776600  0.73597200  1
  Fe  Fe3  1  0.72522100  0.72223400  0.26402800  1
  Fe  Fe4  1  0.77477900  0.22223400  0.26402800  1
  Fe  Fe5  1  0.27477900  0.27776600  0.73597200  1
  P  P0  1  0.37268100  0.00193000  0.25210600  1
  P  P1  1  0.87268100  0.49807000  0.74789400  1
  P  P2  1  0.62731900  0.99807000  0.74789400  1
  P  P3  1  0.12731900  0.50193000  0.25210600  1
  O  O0  1  0.49856800  0.19154700  0.19992300  1
  O  O1  1  0.99856800  0.30845300  0.80007700  1
  O  O2  1  0.50143200  0.80845300  0.80007700  1
  O  O3  1  0.00143200  0.69154700  0.19992300  1
  O  O4  1  0.48690200  0.82354500  0.26686700  1
  O  O5  1  0.98690200  0.67645500  0.73313300  1
  O  O6  1  0.51309800  0.17645500  0.73313300  1
  O  O7  1  0.01309800  0.32354500  0.26686700  1
  O  O8  1  0.26097900  0.58209700  0.06861200  1
  O  O9  1  0.76097900  0.91790300  0.93138800  1
  O  O10  1  0.73902100  0.41790300  0.93138800  1
  O  O11  1  0.23902100  0.08209700  0.06861200  1
  O  O12  1  0.23426000  0.44145600  0.44681700  1
  O  O13  1  0.73426000  0.05854400  0.55318300  1
  O  O14  1  0.76574000  0.55854400  0.55318300  1
  O  O15  1  0.26574000  0.94145600  0.44681700  1
  O  O16  1  0.35548400  0.50272700  0.78905400  1
  O  O17  1  0.85548400  0.99727300  0.21094600  1
  O  O18  1  0.64451600  0.49727300  0.21094600  1
  O  O19  1  0.14451600  0.00272700  0.78905400  1
loop_
_geom_bond_atom_site_label_1
_geom_bond_atom_site_label_2
_geom_bond_distance
_geom_bond_site_symmetry_2
Fe0 O18 1.898841 1_555
Fe0 O16 1.898841 1_554
Fe0 O10 2.016849 1_554
Fe0 O8 2.016849 1_555
Fe0 O0 2.032373 1_555
Fe0 O2 2.032373 1_554
Fe1 O17 1.898841 1_445
Fe1 O19 1.898841 1_554
Fe1 O11 2.016849 1_555
Fe1 O9 2.016849 1_444
Fe1 O3 2.032373 1_545
Fe1 O1 2.032373 1_454
Fe2 O5 1.921619 1_455
Fe2 O15 1.923093 1_555
Fe2 O19 1.979177 1_565
Fe2 O16 2.106489 1_555
Fe2 O2 2.138422 1_555
Fe2 O8 2.206462 1_556
Fe3 O4 1.921619 1_555
Fe3 O14 1.923093 1_555
Fe3 O18 1.979177 1_555
Fe3 O17 2.106489 1_555
Fe3 O3 2.138422 1_655
Fe3 O9 2.206462 1_554
Fe4 O7 1.921619 1_655
Fe4 O13 1.923093 1_555
Fe4 O17 1.979177 1_545
Fe4 O18 2.106489 1_555
Fe4 O0 2.138422 1_555
Fe4 O10 2.206462 1_554
Fe5 O6 1.921619 1_555
Fe5 O12 1.923093 1_555
Fe5 O16 1.979177 1_555
Fe5 O19 2.106489 1_555
Fe5 O1 2.138422 1_455
Fe5 O11 2.206462 1_556
O0 P0 1.566942 1_555
O1 P1 1.566942 1_555
O2 P2 1.566942 1_555
O3 P3 1.566942 1_555
O4 P0 1.524606 1_565
O5 P1 1.524606 1_555
O6 P2 1.524606 1_545
O7 P3 1.524606 1_555
O8 P3 1.558173 1_555
O9 P2 1.558173 1_555
O10 P1 1.558173 1_555
O11 P0 1.558173 1_555
O12 P3 1.522644 1_555
O13 P2 1.522644 1_545
O14 P1 1.522644 1_555
O15 P0 1.522644 1_565
