# generated using pymatgen
data_Ce2Cu(NO)2
_symmetry_space_group_name_H-M   'P 1'
_cell_length_a   6.59853348
_cell_length_b   6.59853348
_cell_length_c   6.59853348
_cell_angle_alpha   145.55153953
_cell_angle_beta   145.55153953
_cell_angle_gamma   49.51336062
_symmetry_Int_Tables_number   1
_chemical_formula_structural   Ce2Cu(NO)2
_chemical_formula_sum   'Ce2 Cu1 N2 O2'
_cell_volume   91.50509580
_cell_formula_units_Z   1
loop_
 _symmetry_equiv_pos_site_id
 _symmetry_equiv_pos_as_xyz
  1  'x, y, z'
loop_
 _atom_site_type_symbol
 _atom_site_label
 _atom_site_symmetry_multiplicity
 _atom_site_fract_x
 _atom_site_fract_y
 _atom_site_fract_z
 _atom_site_occupancy
  Ce  Ce0  1  0.64047400  0.64047400  0.00000000  1
  Ce  Ce1  1  0.35952600  0.35952600  0.00000000  1
  Cu  Cu0  1  0.00000000  0.00000000  0.00000000  1
  N  N0  1  0.00000000  0.50000000  0.50000000  1
  N  N1  1  0.50000000  0.00000000  0.50000000  1
  O  O0  1  0.25000000  0.75000000  0.50000000  1
  O  O1  1  0.75000000  0.25000000  0.50000000  1
loop_
_geom_bond_atom_site_label_1
_geom_bond_atom_site_label_2
_geom_bond_distance
_geom_bond_site_symmetry_2
Ce0 O0 2.353850 1_655
Ce0 O1 2.353850 1_565
Ce0 O0 2.353850 1_554
Ce0 O1 2.353850 1_554
Ce0 N0 2.579109 1_655
Ce0 N1 2.579109 1_565
Ce0 N0 2.579109 1_554
Ce0 N1 2.579109 1_554
Ce1 O1 2.353850 1_454
Ce1 O0 2.353850 1_544
Ce1 O1 2.353850 1_555
Ce1 O0 2.353850 1_555
Ce1 N1 2.579109 1_554
Ce1 N0 2.579109 1_554
Ce1 N1 2.579109 1_565
Ce1 N0 2.579109 1_655
Cu0 N0 1.953905 1_555
Cu0 N1 1.953905 1_454
Cu0 N1 1.953905 1_555
Cu0 N0 1.953905 1_544
