# generated using pymatgen
data_Co(CO3)2
_symmetry_space_group_name_H-M   'P 1'
_cell_length_a   8.15830900
_cell_length_b   8.64731200
_cell_length_c   9.57783357
_cell_angle_alpha   85.04626789
_cell_angle_beta   90.00000000
_cell_angle_gamma   90.00000000
_symmetry_Int_Tables_number   1
_chemical_formula_structural   Co(CO3)2
_chemical_formula_sum   'Co4 C8 O24'
_cell_volume   673.16779587
_cell_formula_units_Z   4
loop_
 _symmetry_equiv_pos_site_id
 _symmetry_equiv_pos_as_xyz
  1  'x, y, z'
loop_
 _atom_site_type_symbol
 _atom_site_label
 _atom_site_symmetry_multiplicity
 _atom_site_fract_x
 _atom_site_fract_y
 _atom_site_fract_z
 _atom_site_occupancy
  Co  Co0  1  0.00000000  0.50000000  0.50000000  1
  Co  Co1  1  0.50000000  0.50000000  0.00000000  1
  Co  Co2  1  0.50000000  0.00000000  0.50000000  1
  Co  Co3  1  0.00000000  0.00000000  0.00000000  1
  C  C0  1  0.69217700  0.39919500  0.29870500  1
  C  C1  1  0.19217700  0.60080500  0.20129500  1
  C  C2  1  0.30782300  0.60080500  0.70129500  1
  C  C3  1  0.80782300  0.39919500  0.79870500  1
  C  C4  1  0.83980600  0.82935600  0.54914500  1
  C  C5  1  0.33980600  0.17064400  0.95085500  1
  C  C6  1  0.16019400  0.17064400  0.45085500  1
  C  C7  1  0.66019400  0.82935600  0.04914500  1
  O  O0  1  0.78419300  0.40193000  0.39273600  1
  O  O1  1  0.28419300  0.59807000  0.10726400  1
  O  O2  1  0.21580700  0.59807000  0.60726400  1
  O  O3  1  0.71580700  0.40193000  0.89273600  1
  O  O4  1  0.60442500  0.40993200  0.20115100  1
  O  O5  1  0.10442500  0.59006800  0.29884900  1
  O  O6  1  0.39557500  0.59006800  0.79884900  1
  O  O7  1  0.89557500  0.40993200  0.70115100  1
  O  O8  1  0.86085600  0.70596700  0.50756200  1
  O  O9  1  0.36085600  0.29403300  0.99243800  1
  O  O10  1  0.13914400  0.29403300  0.49243800  1
  O  O11  1  0.63914400  0.70596700  0.00756200  1
  O  O12  1  0.82234200  0.95069500  0.59127000  1
  O  O13  1  0.32234200  0.04930500  0.90873000  1
  O  O14  1  0.17765800  0.04930500  0.40873000  1
  O  O15  1  0.67765800  0.95069500  0.09127000  1
  O  O16  1  0.58564800  0.10064600  0.35190400  1
  O  O17  1  0.08564800  0.89935400  0.14809600  1
  O  O18  1  0.41435200  0.89935400  0.64809600  1
  O  O19  1  0.91435200  0.10064600  0.85190400  1
  O  O20  1  0.49883700  0.80756500  0.45784100  1
  O  O21  1  0.99883700  0.19243500  0.04215900  1
  O  O22  1  0.50116300  0.19243500  0.54215900  1
  O  O23  1  0.00116300  0.80756500  0.95784100  1
loop_
_geom_bond_atom_site_label_1
_geom_bond_atom_site_label_2
_geom_bond_distance
_geom_bond_site_symmetry_2
Co0 O10 2.118569 1_555
Co0 O8 2.118569 1_455
Co0 O5 2.187464 1_555
Co0 O7 2.187464 1_455
Co0 O2 2.241626 1_555
Co0 O0 2.241626 1_455
Co1 O11 2.118569 1_555
Co1 O9 2.118569 1_554
Co1 O4 2.187464 1_555
Co1 O6 2.187464 1_554
Co1 O3 2.241626 1_554
Co1 O1 2.241626 1_555
Co2 O16 1.744839 1_555
Co2 O18 1.744839 1_545
Co2 O22 1.745918 1_555
Co2 O20 1.745918 1_545
Co3 O17 1.744839 1_545
Co3 O19 1.744839 1_454
Co3 O21 1.745918 1_455
Co3 O23 1.745918 1_544
C0 O0 1.174259 1_555
C0 O4 1.174386 1_555
C1 O1 1.174259 1_555
C1 O5 1.174386 1_555
C2 O2 1.174259 1_555
C2 O6 1.174386 1_555
C3 O3 1.174259 1_555
C3 O7 1.174386 1_555
C4 O12 1.164961 1_555
C4 O8 1.183198 1_555
C5 O13 1.164961 1_555
C5 O9 1.183198 1_555
C6 O14 1.164961 1_555
C6 O10 1.183198 1_555
C7 O15 1.164961 1_555
C7 O11 1.183198 1_555
