# generated using pymatgen
data_CaVSi4H12O11
_symmetry_space_group_name_H-M   'P 1'
_cell_length_a   9.76966600
_cell_length_b   10.23696900
_cell_length_c   14.08754100
_cell_angle_alpha   90.00000000
_cell_angle_beta   90.00000000
_cell_angle_gamma   90.00000000
_symmetry_Int_Tables_number   1
_chemical_formula_structural   CaVSi4H12O11
_chemical_formula_sum   'Ca4 V4 Si16 H48 O44'
_cell_volume   1408.91988193
_cell_formula_units_Z   4
loop_
 _symmetry_equiv_pos_site_id
 _symmetry_equiv_pos_as_xyz
  1  'x, y, z'
loop_
 _atom_site_type_symbol
 _atom_site_label
 _atom_site_symmetry_multiplicity
 _atom_site_fract_x
 _atom_site_fract_y
 _atom_site_fract_z
 _atom_site_occupancy
  Ca  Ca0  1  0.11669400  0.15400100  0.25000000  1
  Ca  Ca1  1  0.88330600  0.84599900  0.75000000  1
  Ca  Ca2  1  0.61669400  0.34599900  0.75000000  1
  Ca  Ca3  1  0.38330600  0.65400100  0.25000000  1
  V  V0  1  0.08969000  0.47944000  0.25000000  1
  V  V1  1  0.91031000  0.52056000  0.75000000  1
  V  V2  1  0.58969000  0.02056000  0.75000000  1
  V  V3  1  0.41031000  0.97944000  0.25000000  1
  Si  Si0  1  0.31428200  0.10387000  0.04377200  1
  Si  Si1  1  0.68571800  0.89613000  0.95622800  1
  Si  Si2  1  0.81428200  0.39613000  0.95622800  1
  Si  Si3  1  0.68571800  0.89613000  0.54377200  1
  Si  Si4  1  0.18571800  0.60387000  0.04377200  1
  Si  Si5  1  0.31428200  0.10387000  0.45622800  1
  Si  Si6  1  0.18571800  0.60387000  0.45622800  1
  Si  Si7  1  0.81428200  0.39613000  0.54377200  1
  Si  Si8  1  0.10572100  0.32657400  0.03703400  1
  Si  Si9  1  0.89427900  0.67342600  0.96296600  1
  Si  Si10  1  0.60572100  0.17342600  0.96296600  1
  Si  Si11  1  0.89427900  0.67342600  0.53703400  1
  Si  Si12  1  0.39427900  0.82657400  0.03703400  1
  Si  Si13  1  0.10572100  0.32657400  0.46296600  1
  Si  Si14  1  0.39427900  0.82657400  0.46296600  1
  Si  Si15  1  0.60572100  0.17342600  0.53703400  1
  H  H0  1  0.44161400  0.37596200  0.15369400  1
  H  H1  1  0.55838600  0.62403800  0.84630600  1
  H  H2  1  0.94161400  0.12403800  0.84630600  1
  H  H3  1  0.55838600  0.62403800  0.65369400  1
  H  H4  1  0.05838600  0.87596200  0.15369400  1
  H  H5  1  0.44161400  0.37596200  0.34630600  1
  H  H6  1  0.05838600  0.87596200  0.34630600  1
  H  H7  1  0.94161400  0.12403800  0.65369400  1
  H  H8  1  0.39940500  0.37388500  0.62521100  1
  H  H9  1  0.60059500  0.62611500  0.37478900  1
  H  H10  1  0.89940500  0.12611500  0.37478900  1
  H  H11  1  0.60059500  0.62611500  0.12521100  1
  H  H12  1  0.10059500  0.87388500  0.62521100  1
  H  H13  1  0.39940500  0.37388500  0.87478900  1
  H  H14  1  0.10059500  0.87388500  0.87478900  1
  H  H15  1  0.89940500  0.12611500  0.12521100  1
  H  H16  1  0.58420300  0.55416400  0.12581900  1
  H  H17  1  0.41579700  0.44583600  0.87418100  1
  H  H18  1  0.08420300  0.94583600  0.87418100  1
  H  H19  1  0.41579700  0.44583600  0.62581900  1
  H  H20  1  0.91579700  0.05416400  0.12581900  1
  H  H21  1  0.58420300  0.55416400  0.37418100  1
  H  H22  1  0.91579700  0.05416400  0.37418100  1
  H  H23  1  0.08420300  0.94583600  0.62581900  1
  H  H24  1  0.95755200  0.10090600  0.60309800  1
  H  H25  1  0.04244800  0.89909400  0.39690200  1
  H  H26  1  0.45755200  0.39909400  0.39690200  1
  H  H27  1  0.04244800  0.89909400  0.10309800  1
  H  H28  1  0.54244800  0.60090600  0.60309800  1
  H  H29  1  0.95755200  0.10090600  0.89690200  1
  H  H30  1  0.54244800  0.60090600  0.89690200  1
  H  H31  1  0.45755200  0.39909400  0.10309800  1
  H  H32  1  0.40094700  0.32500500  0.25000000  1
  H  H33  1  0.59905300  0.67499500  0.75000000  1
  H  H34  1  0.90094700  0.17499500  0.75000000  1
  H  H35  1  0.09905300  0.82500500  0.25000000  1
  H  H36  1  0.74245000  0.16477100  0.25000000  1
  H  H37  1  0.25755000  0.83522900  0.75000000  1
  H  H38  1  0.24245000  0.33522900  0.75000000  1
  H  H39  1  0.75755000  0.66477100  0.25000000  1
  H  H40  1  0.77383800  0.23238100  0.25000000  1
  H  H41  1  0.22616200  0.76761900  0.75000000  1
  H  H42  1  0.27383800  0.26761900  0.75000000  1
  H  H43  1  0.72616200  0.73238100  0.25000000  1
  H  H44  1  0.74466600  0.41510900  0.25000000  1
  H  H45  1  0.25533400  0.58489100  0.75000000  1
  H  H46  1  0.24466600  0.08489100  0.75000000  1
  H  H47  1  0.75533400  0.91510900  0.25000000  1
  O  O0  1  0.09567500  0.33112400  0.15308000  1
  O  O1  1  0.90432500  0.66887600  0.84692000  1
  O  O2  1  0.59567500  0.16887600  0.84692000  1
  O  O3  1  0.90432500  0.66887600  0.65308000  1
  O  O4  1  0.40432500  0.83112400  0.15308000  1
  O  O5  1  0.09567500  0.33112400  0.34692000  1
  O  O6  1  0.40432500  0.83112400  0.34692000  1
  O  O7  1  0.59567500  0.16887600  0.65308000  1
  O  O8  1  0.68652000  0.04344500  0.00304800  1
  O  O9  1  0.31348000  0.95655500  0.99695200  1
  O  O10  1  0.18652000  0.45655500  0.99695200  1
  O  O11  1  0.31348000  0.95655500  0.50304800  1
  O  O12  1  0.81348000  0.54344500  0.00304800  1
  O  O13  1  0.68652000  0.04344500  0.49695200  1
  O  O14  1  0.81348000  0.54344500  0.49695200  1
  O  O15  1  0.18652000  0.45655500  0.50304800  1
  O  O16  1  0.18414800  0.19096800  0.49482700  1
  O  O17  1  0.81585200  0.80903200  0.50517300  1
  O  O18  1  0.68414800  0.30903200  0.50517300  1
  O  O19  1  0.81585200  0.80903200  0.99482700  1
  O  O20  1  0.31585200  0.69096800  0.49482700  1
  O  O21  1  0.18414800  0.19096800  0.00517300  1
  O  O22  1  0.31585200  0.69096800  0.00517300  1
  O  O23  1  0.68414800  0.30903200  0.99482700  1
  O  O24  1  0.45403800  0.17979900  0.01163800  1
  O  O25  1  0.54596200  0.82020100  0.98836200  1
  O  O26  1  0.95403800  0.32020100  0.98836200  1
  O  O27  1  0.54596200  0.82020100  0.51163800  1
  O  O28  1  0.04596200  0.67979900  0.01163800  1
  O  O29  1  0.45403800  0.17979900  0.48836200  1
  O  O30  1  0.04596200  0.67979900  0.48836200  1
  O  O31  1  0.95403800  0.32020100  0.51163800  1
  O  O32  1  0.29870600  0.08753300  0.15836500  1
  O  O33  1  0.70129400  0.91246700  0.84163500  1
  O  O34  1  0.79870600  0.41246700  0.84163500  1
  O  O35  1  0.70129400  0.91246700  0.65836500  1
  O  O36  1  0.20129400  0.58753300  0.15836500  1
  O  O37  1  0.29870600  0.08753300  0.34163500  1
  O  O38  1  0.20129400  0.58753300  0.34163500  1
  O  O39  1  0.79870600  0.41246700  0.65836500  1
  O  O40  1  0.56714200  0.03373100  0.25000000  1
  O  O41  1  0.43285800  0.96626900  0.75000000  1
  O  O42  1  0.06714200  0.46626900  0.75000000  1
  O  O43  1  0.93285800  0.53373100  0.25000000  1
loop_
_geom_bond_atom_site_label_1
_geom_bond_atom_site_label_2
_geom_bond_distance
_geom_bond_site_symmetry_2
Ca0 O0 2.279055 1_555
Ca0 O5 2.279055 1_555
Ca0 O37 2.300309 1_555
Ca0 O32 2.300309 1_555
Ca1 O3 2.279055 1_555
Ca1 O1 2.279055 1_555
Ca1 O33 2.300309 1_555
Ca1 O35 2.300309 1_555
Ca2 O7 2.279055 1_555
Ca2 O2 2.279055 1_555
Ca2 O34 2.300309 1_555
Ca2 O39 2.300309 1_555
Ca3 O6 2.279055 1_555
Ca3 O4 2.279055 1_555
Ca3 O38 2.300309 1_555
Ca3 O36 2.300309 1_555
H0 H31 0.767050 1_555
H1 H30 0.767050 1_555
H2 H29 0.767050 1_555
H10 H22 0.753817 1_555
H11 H16 0.753817 1_555
H12 H23 0.753817 1_555
H13 H17 0.753817 1_555
H14 H18 0.753817 1_555
H15 H20 0.753817 1_555
H19 H8 0.753817 1_555
H21 H9 0.753817 1_555
H24 H7 0.767050 1_555
H25 H6 0.767050 1_555
H26 H5 0.767050 1_555
H27 H4 0.767050 1_555
H28 H3 0.767050 1_555
H36 H40 0.757012 1_555
H37 H41 0.757012 1_555
H38 H42 0.757012 1_555
H39 H43 0.757012 1_555
O0 Si8 1.638408 1_555
O0 V0 2.042766 1_555
O1 Si9 1.638408 1_555
O1 V1 2.042766 1_555
O2 Si10 1.638408 1_555
O2 V2 2.042766 1_555
O3 Si11 1.638408 1_555
O3 V1 2.042766 1_555
O4 Si12 1.638408 1_555
O4 V3 2.042766 1_555
O5 Si13 1.638408 1_555
O5 V0 2.042766 1_555
O6 Si14 1.638408 1_555
O6 V3 2.042766 1_555
O7 Si15 1.638408 1_555
O7 V2 2.042766 1_555
O8 Si1 1.646010 1_544
O8 Si10 1.646962 1_554
O9 Si0 1.646010 1_566
O9 Si12 1.646962 1_556
O10 Si4 1.646010 1_556
O10 Si8 1.646962 1_556
O11 Si5 1.646010 1_565
O11 Si14 1.646962 1_555
O12 Si2 1.646010 1_554
O12 Si9 1.646962 1_554
O13 Si3 1.646010 1_545
O13 Si15 1.646962 1_555
O14 Si7 1.646010 1_555
O14 Si11 1.646962 1_555
O15 Si6 1.646010 1_555
O15 Si13 1.646962 1_555
O16 Si5 1.645307 1_555
O16 Si13 1.647912 1_555
O17 Si3 1.645307 1_555
O17 Si11 1.647912 1_555
O18 Si7 1.645307 1_555
O18 Si15 1.647912 1_555
O19 Si1 1.645307 1_555
O19 Si9 1.647912 1_555
O20 Si6 1.645307 1_555
O20 Si14 1.647912 1_555
O21 Si0 1.645307 1_555
O21 Si8 1.647912 1_555
O22 Si4 1.645307 1_555
O22 Si12 1.647912 1_555
O23 Si2 1.645307 1_555
O23 Si10 1.647912 1_555
O24 Si10 1.634137 1_554
O24 Si0 1.635032 1_555
O25 Si12 1.634137 1_556
O25 Si1 1.635032 1_555
O26 Si8 1.634137 1_656
O26 Si2 1.635032 1_555
O27 Si14 1.634137 1_555
O27 Si3 1.635032 1_555
O28 Si9 1.634137 1_454
O28 Si4 1.635032 1_555
O29 Si15 1.634137 1_555
O29 Si5 1.635032 1_555
O30 Si11 1.634137 1_455
O30 Si6 1.635032 1_555
O31 Si13 1.634137 1_655
O31 Si7 1.635032 1_555
O32 Si0 1.630092 1_555
O32 V3 2.019832 1_545
O33 Si1 1.630092 1_555
O33 V2 2.019832 1_565
O34 Si2 1.630092 1_555
O34 V1 2.019832 1_555
O35 Si3 1.630092 1_555
O35 V2 2.019832 1_565
O36 Si4 1.630092 1_555
O36 V0 2.019832 1_555
O37 Si5 1.630092 1_555
O37 V3 2.019832 1_545
O38 Si6 1.630092 1_555
O38 V0 2.019832 1_555
O39 Si7 1.630092 1_555
O39 V1 2.019832 1_555
O40 V3 1.629881 1_545
O41 V2 1.629881 1_565
O42 V1 1.629881 1_455
O43 V0 1.629881 1_655
