# generated using pymatgen
data_Al6Ge5
_symmetry_space_group_name_H-M   'P 1'
_cell_length_a   7.66944866
_cell_length_b   7.66944866
_cell_length_c   7.66944842
_cell_angle_alpha   96.60735138
_cell_angle_beta   96.60735138
_cell_angle_gamma   96.60733447
_symmetry_Int_Tables_number   1
_chemical_formula_structural   Al6Ge5
_chemical_formula_sum   'Al12 Ge10'
_cell_volume   441.36855510
_cell_formula_units_Z   2
loop_
 _symmetry_equiv_pos_site_id
 _symmetry_equiv_pos_as_xyz
  1  'x, y, z'
loop_
 _atom_site_type_symbol
 _atom_site_label
 _atom_site_symmetry_multiplicity
 _atom_site_fract_x
 _atom_site_fract_y
 _atom_site_fract_z
 _atom_site_occupancy
  Al  Al0  1  0.01518849  0.92847709  0.32984598  1
  Al  Al1  1  0.32984598  0.01518849  0.92847709  1
  Al  Al2  1  0.92847709  0.32984598  0.01518849  1
  Al  Al3  1  0.82984598  0.42847709  0.51518849  1
  Al  Al4  1  0.51518849  0.82984598  0.42847709  1
  Al  Al5  1  0.42847709  0.51518849  0.82984598  1
  Al  Al6  1  0.98481151  0.07152291  0.67015402  1
  Al  Al7  1  0.67015402  0.98481151  0.07152291  1
  Al  Al8  1  0.07152291  0.67015402  0.98481151  1
  Al  Al9  1  0.17015402  0.57152291  0.48481151  1
  Al  Al10  1  0.48481151  0.17015402  0.57152291  1
  Al  Al11  1  0.57152291  0.48481151  0.17015402  1
  Ge  Ge0  1  0.90005855  0.59994145  0.25000000  1
  Ge  Ge1  1  0.25000000  0.90005855  0.59994145  1
  Ge  Ge2  1  0.59994145  0.25000000  0.90005855  1
  Ge  Ge3  1  0.75000000  0.09994145  0.40005855  1
  Ge  Ge4  1  0.40005855  0.75000000  0.09994145  1
  Ge  Ge5  1  0.09994145  0.40005855  0.75000000  1
  Ge  Ge6  1  0.35629193  0.35629193  0.35629193  1
  Ge  Ge7  1  0.85629193  0.85629193  0.85629193  1
  Ge  Ge8  1  0.64370807  0.64370807  0.64370807  1
  Ge  Ge9  1  0.14370807  0.14370807  0.14370807  1
loop_
_geom_bond_atom_site_label_1
_geom_bond_atom_site_label_2
_geom_bond_distance
_geom_bond_site_symmetry_2
Al0 Ge9 2.495202 1_565
Al0 Ge0 2.551855 1_455
Al0 Ge3 2.619240 1_465
Al0 Ge1 2.630101 1_555
Al1 Ge9 2.495202 1_556
Al1 Ge1 2.551855 1_545
Al1 Ge4 2.619240 1_546
Al1 Ge2 2.630102 1_555
Al2 Ge9 2.495202 1_655
Al2 Ge2 2.551855 1_554
Al2 Ge5 2.619240 1_654
Al2 Ge0 2.630101 1_555
Al3 Ge8 2.495202 1_555
Al3 Ge3 2.551855 1_555
Al3 Ge0 2.619240 1_555
Al3 Ge5 2.630101 1_655
Al4 Ge8 2.495202 1_555
Al4 Ge4 2.551855 1_555
Al4 Ge1 2.619240 1_555
Al4 Ge3 2.630102 1_565
Al5 Ge8 2.495202 1_555
Al5 Ge5 2.551855 1_555
Al5 Ge2 2.619240 1_555
Al5 Ge4 2.630101 1_556
Al6 Ge7 2.495202 1_545
Al6 Ge5 2.551855 1_655
Al6 Ge1 2.619240 1_645
Al6 Ge3 2.630101 1_555
Al7 Ge7 2.495202 1_554
Al7 Ge3 2.551855 1_565
Al7 Ge2 2.619240 1_564
Al7 Ge4 2.630102 1_555
Al8 Ge7 2.495202 1_455
Al8 Ge4 2.551855 1_556
Al8 Ge0 2.619240 1_456
Al8 Ge5 2.630101 1_555
Al9 Ge6 2.495202 1_555
Al9 Ge1 2.551855 1_555
Al9 Ge5 2.619240 1_555
Al9 Ge0 2.630101 1_455
Al10 Ge6 2.495202 1_555
Al10 Ge2 2.551855 1_555
Al10 Ge3 2.619240 1_555
Al10 Ge1 2.630102 1_545
Al11 Ge6 2.495202 1_555
Al11 Ge0 2.551855 1_555
Al11 Ge4 2.619240 1_555
Al11 Ge2 2.630101 1_554
Ge6 Ge9 2.477787 1_555
Ge7 Ge8 2.477787 1_555
