# generated using pymatgen
data_LiRhO2
_symmetry_space_group_name_H-M   'P 1'
_cell_length_a   5.98938937
_cell_length_b   5.98938937
_cell_length_c   5.98938937
_cell_angle_alpha   60.00000000
_cell_angle_beta   60.00000000
_cell_angle_gamma   60.00000000
_symmetry_Int_Tables_number   1
_chemical_formula_structural   LiRhO2
_chemical_formula_sum   'Li4 Rh4 O8'
_cell_volume   151.92618938
_cell_formula_units_Z   4
loop_
 _symmetry_equiv_pos_site_id
 _symmetry_equiv_pos_as_xyz
  1  'x, y, z'
loop_
 _atom_site_type_symbol
 _atom_site_label
 _atom_site_symmetry_multiplicity
 _atom_site_fract_x
 _atom_site_fract_y
 _atom_site_fract_z
 _atom_site_occupancy
  Li  Li0  1  0.12500000  0.12500000  0.62500000  1
  Li  Li1  1  0.12500000  0.12500000  0.12500000  1
  Li  Li2  1  0.62500000  0.12500000  0.12500000  1
  Li  Li3  1  0.12500000  0.62500000  0.12500000  1
  Rh  Rh0  1  0.62500000  0.62500000  0.62500000  1
  Rh  Rh1  1  0.12500000  0.62500000  0.62500000  1
  Rh  Rh2  1  0.62500000  0.62500000  0.12500000  1
  Rh  Rh3  1  0.62500000  0.12500000  0.62500000  1
  O  O0  1  0.39477514  0.86840829  0.86840829  1
  O  O1  1  0.38159171  0.85522486  0.38159171  1
  O  O2  1  0.86840829  0.86840829  0.86840829  1
  O  O3  1  0.86840829  0.86840829  0.39477514  1
  O  O4  1  0.86840829  0.39477514  0.86840829  1
  O  O5  1  0.38159171  0.38159171  0.85522486  1
  O  O6  1  0.85522486  0.38159171  0.38159171  1
  O  O7  1  0.38159171  0.38159171  0.38159171  1
loop_
_geom_bond_atom_site_label_1
_geom_bond_atom_site_label_2
_geom_bond_distance
_geom_bond_site_symmetry_2
Li0 O2 2.174836 1_445
Li0 O7 2.174836 1_555
Li0 O0 2.174836 1_545
Li0 O6 2.174836 1_455
Li0 O1 2.174836 1_545
Li0 O4 2.174836 1_455
Li1 O0 2.174836 1_544
Li1 O6 2.174836 1_455
Li1 O1 2.174836 1_545
Li1 O3 2.174836 1_445
Li1 O5 2.174836 1_554
Li1 O4 2.174836 1_454
Li2 O2 2.174836 1_544
Li2 O7 2.174836 1_555
Li2 O3 2.174836 1_545
Li2 O5 2.174836 1_554
Li2 O1 2.174836 1_545
Li2 O4 2.174836 1_554
Li3 O7 2.174836 1_555
Li3 O2 2.174836 1_454
Li3 O3 2.174836 1_455
Li3 O5 2.174836 1_554
Li3 O6 2.174836 1_455
Li3 O0 2.174836 1_554
O0 Rh3 2.063247 1_565
O0 Rh2 2.063247 1_556
O0 Rh0 2.063247 1_555
O1 Rh1 2.063247 1_555
O1 Rh2 2.063247 1_555
O1 Rh0 2.063247 1_555
O2 Rh2 2.063247 1_556
O2 Rh1 2.063247 1_655
O2 Rh3 2.063247 1_565
O3 Rh3 2.063247 1_565
O3 Rh1 2.063247 1_655
O3 Rh0 2.063247 1_555
O4 Rh2 2.063247 1_556
O4 Rh1 2.063247 1_655
O4 Rh0 2.063247 1_555
O5 Rh3 2.063247 1_555
O5 Rh1 2.063247 1_555
O5 Rh0 2.063247 1_555
O6 Rh3 2.063247 1_555
O6 Rh2 2.063247 1_555
O6 Rh0 2.063247 1_555
O7 Rh3 2.063247 1_555
O7 Rh1 2.063247 1_555
O7 Rh2 2.063247 1_555
