# generated using pymatgen
data_BaNaNbBiO6
_symmetry_space_group_name_H-M   'P 1'
_cell_length_a   5.99992966
_cell_length_b   5.99992966
_cell_length_c   5.99992966
_cell_angle_alpha   60.00000000
_cell_angle_beta   60.00000000
_cell_angle_gamma   60.00000000
_symmetry_Int_Tables_number   1
_chemical_formula_structural   BaNaNbBiO6
_chemical_formula_sum   'Ba1 Na1 Nb1 Bi1 O6'
_cell_volume   152.72969319
_cell_formula_units_Z   1
loop_
 _symmetry_equiv_pos_site_id
 _symmetry_equiv_pos_as_xyz
  1  'x, y, z'
loop_
 _atom_site_type_symbol
 _atom_site_label
 _atom_site_symmetry_multiplicity
 _atom_site_fract_x
 _atom_site_fract_y
 _atom_site_fract_z
 _atom_site_occupancy
  Ba  Ba0  1  0.25000000  0.25000000  0.25000000  1
  Na  Na0  1  0.75000000  0.75000000  0.75000000  1
  Nb  Nb0  1  0.50000000  0.50000000  0.50000000  1
  Bi  Bi0  1  0.00000000  0.00000000  -0.00000000  1
  O  O0  1  0.73687243  0.26312757  0.26312757  1
  O  O1  1  0.26312757  0.73687243  0.73687243  1
  O  O2  1  0.73687243  0.26312757  0.73687243  1
  O  O3  1  0.26312757  0.73687243  0.26312757  1
  O  O4  1  0.73687243  0.73687243  0.26312757  1
  O  O5  1  0.26312757  0.26312757  0.73687243  1
loop_
_geom_bond_atom_site_label_1
_geom_bond_atom_site_label_2
_geom_bond_distance
_geom_bond_site_symmetry_2
Ba0 O5 3.002032 1_554
Ba0 O2 3.002032 1_554
Ba0 O3 3.002032 1_545
Ba0 O4 3.002032 1_545
Ba0 O1 3.002032 1_545
Ba0 O0 3.002032 1_555
Ba0 O0 3.002032 1_455
Ba0 O4 3.002032 1_455
Ba0 O1 3.002032 1_554
Ba0 O2 3.002032 1_455
Ba0 O3 3.002032 1_555
Ba0 O5 3.002032 1_555
Na0 O4 3.002032 1_555
Na0 O3 3.002032 1_655
Na0 O5 3.002032 1_565
Na0 O1 3.002032 1_655
Na0 O5 3.002032 1_655
Na0 O3 3.002032 1_556
Na0 O0 3.002032 1_556
Na0 O2 3.002032 1_555
Na0 O2 3.002032 1_565
Na0 O1 3.002032 1_555
Na0 O4 3.002032 1_556
Na0 O0 3.002032 1_565
Nb0 O5 2.009906 1_555
Nb0 O3 2.009906 1_555
Nb0 O0 2.009906 1_555
Nb0 O2 2.009906 1_555
Nb0 O4 2.009906 1_555
Nb0 O1 2.009906 1_555
Bi0 O4 2.232685 1_445
Bi0 O1 2.232685 1_544
Bi0 O2 2.232685 1_454
Bi0 O5 2.232685 1_554
Bi0 O0 2.232685 1_455
Bi0 O3 2.232685 1_545
