# generated using pymatgen
data_Lu3(P3Pd10)2
_symmetry_space_group_name_H-M   'P 1'
_cell_length_a   8.58073746
_cell_length_b   8.58074294
_cell_length_c   8.58073885
_cell_angle_alpha   60.00006313
_cell_angle_beta   59.99998923
_cell_angle_gamma   59.99997206
_symmetry_Int_Tables_number   1
_chemical_formula_structural   Lu3(P3Pd10)2
_chemical_formula_sum   'Lu3 P6 Pd20'
_cell_volume   446.74456021
_cell_formula_units_Z   1
loop_
 _symmetry_equiv_pos_site_id
 _symmetry_equiv_pos_as_xyz
  1  'x, y, z'
loop_
 _atom_site_type_symbol
 _atom_site_label
 _atom_site_symmetry_multiplicity
 _atom_site_fract_x
 _atom_site_fract_y
 _atom_site_fract_z
 _atom_site_occupancy
  Lu  Lu0  1  0.24999887  0.24999736  0.24999952  1
  Lu  Lu1  1  0.75000091  0.75000901  0.74999464  1
  Lu  Lu2  1  0.99998768  0.99999594  0.00001899  1
  P  P0  1  0.73644383  0.26355839  0.26355467  1
  P  P1  1  0.26355922  0.73644286  0.73643917  1
  P  P2  1  0.26355752  0.73644183  0.26355540  1
  P  P3  1  0.73644290  0.26355884  0.73643936  1
  P  P4  1  0.26354897  0.26354995  0.73644968  1
  P  P5  1  0.73644501  0.73644550  0.26355342  1
  Pd  Pd0  1  0.38322039  0.38321933  0.38321864  1
  Pd  Pd1  1  0.61678239  0.61678238  0.61677675  1
  Pd  Pd2  1  0.38322062  0.38322107  0.85033604  1
  Pd  Pd3  1  0.38322042  0.85034268  0.38321739  1
  Pd  Pd4  1  0.61678119  0.61678396  0.14965433  1
  Pd  Pd5  1  0.61677992  0.14966179  0.61677778  1
  Pd  Pd6  1  0.85034186  0.38322007  0.38321670  1
  Pd  Pd7  1  0.14966244  0.61677977  0.61677754  1
  Pd  Pd8  1  0.34443684  1.00001131  -0.00000132  1
  Pd  Pd9  1  0.65555521  1.00001120  -0.00000591  1
  Pd  Pd10  1  -0.00000180  0.34444493  0.65556560  1
  Pd  Pd11  1  1.00000114  0.65554927  0.34444766  1
  Pd  Pd12  1  1.00000871  0.34444242  -0.00000417  1
  Pd  Pd13  1  0.65556365  1.00000132  0.34444450  1
  Pd  Pd14  1  1.00001211  0.65555640  -0.00000246  1
  Pd  Pd15  1  0.34444645  -0.00000159  0.65556362  1
  Pd  Pd16  1  -0.00000158  -0.00000944  0.34444241  1
  Pd  Pd17  1  -0.00000463  -0.00000601  0.65557024  1
  Pd  Pd18  1  0.65555714  0.34443193  0.99999960  1
  Pd  Pd19  1  0.34443163  0.65555856  0.99999923  1
loop_
_geom_bond_atom_site_label_1
_geom_bond_atom_site_label_2
_geom_bond_distance
_geom_bond_site_symmetry_2
Lu0 Pd3 2.800040 1_545
Lu0 Pd6 2.800053 1_455
Lu0 Pd0 2.800094 1_555
Lu0 Pd2 2.800101 1_554
Lu0 Pd8 3.314331 1_545
Lu0 Pd12 3.314358 1_455
Lu0 Pd9 3.314373 1_545
Lu0 Pd14 3.314375 1_455
Lu0 Pd18 3.314387 1_554
Lu0 Pd11 3.314392 1_455
Lu0 Pd19 3.314405 1_554
Lu0 Pd16 3.314464 1_555
Lu0 Pd13 3.314473 1_545
Lu0 Pd15 3.314481 1_555
Lu0 Pd17 3.314486 1_555
Lu0 Pd10 3.314492 1_555
Lu1 Pd5 2.800027 1_565
Lu1 Pd4 2.800075 1_556
Lu1 Pd7 2.800084 1_655
Lu1 Pd1 2.800097 1_555
Lu1 Pd16 3.314316 1_665
Lu1 Pd17 3.314326 1_665
Lu1 Pd13 3.314340 1_555
Lu1 Pd15 3.314344 1_565
Lu1 Pd11 3.314399 1_555
Lu1 Pd10 3.314407 1_655
Lu1 Pd9 3.314411 1_556
Lu1 Pd8 3.314456 1_556
Lu1 Pd12 3.314479 1_556
Lu1 Pd14 3.314479 1_556
Lu1 Pd19 3.314528 1_555
Lu1 Pd18 3.314562 1_555
Lu2 Pd13 2.955418 1_555
Lu2 Pd16 2.955430 1_665
Lu2 Pd18 2.955491 1_564
Lu2 Pd9 2.955526 1_555
Lu2 Pd11 2.955533 1_555
Lu2 Pd14 2.955534 1_555
Lu2 Pd19 2.955555 1_654
Lu2 Pd12 2.955598 1_565
Lu2 Pd17 2.955600 1_664
Lu2 Pd8 2.955607 1_655
Lu2 Pd10 2.955649 1_664
Lu2 Pd15 2.955695 1_664
Lu2 P5 3.198139 1_555
Lu2 P0 3.198165 1_565
Lu2 P2 3.198217 1_655
Lu2 P4 3.198274 1_664
Lu2 P3 3.198327 1_564
Lu2 P1 3.198376 1_654
P0 Pd13 2.365582 1_545
P0 Pd16 2.365644 1_655
P0 Pd18 2.365645 1_554
P0 Pd12 2.365665 1_555
P0 Pd6 2.474887 1_555
P0 Pd0 2.474897 1_555
P0 Pd5 2.474898 1_555
P0 Pd4 2.474916 1_555
P1 Pd14 2.365574 1_456
P1 Pd19 2.365579 1_555
P1 Pd17 2.365599 1_565
P1 Pd15 2.365648 1_565
P1 Pd7 2.474886 1_555
P1 Pd3 2.474888 1_555
P1 Pd2 2.474889 1_555
P1 Pd1 2.474895 1_555
P2 Pd16 2.365585 1_565
P2 Pd19 2.365634 1_554
P2 Pd11 2.365634 1_455
P2 Pd8 2.365674 1_555
P2 Pd7 2.474891 1_555
P2 Pd0 2.474894 1_555
P2 Pd4 2.474899 1_555
P2 Pd3 2.474915 1_555
P3 Pd9 2.365572 1_546
P3 Pd18 2.365579 1_555
P3 Pd17 2.365607 1_655
P3 Pd10 2.365643 1_655
P3 Pd5 2.474886 1_555
P3 Pd2 2.474889 1_555
P3 Pd6 2.474895 1_555
P3 Pd1 2.474901 1_555
P4 Pd12 2.365531 1_456
P4 Pd8 2.365534 1_546
P4 Pd10 2.365534 1_555
P4 Pd15 2.365545 1_555
P4 Pd2 2.474940 1_555
P4 Pd7 2.474947 1_555
P4 Pd5 2.474951 1_555
P4 Pd0 2.474954 1_555
P5 Pd11 2.365629 1_555
P5 Pd14 2.365651 1_555
P5 Pd13 2.365653 1_555
P5 Pd9 2.365671 1_555
P5 Pd1 2.474899 1_555
P5 Pd3 2.474906 1_555
P5 Pd4 2.474906 1_555
P5 Pd6 2.474915 1_555
Pd0 Pd11 3.002779 1_455
Pd0 Pd13 3.002799 1_545
Pd0 Pd15 3.002824 1_555
Pd0 Pd18 3.002826 1_554
Pd0 Pd10 3.002833 1_555
Pd0 Pd19 3.002839 1_554
Pd1 Pd11 3.002766 1_555
Pd1 Pd15 3.002805 1_565
Pd1 Pd13 3.002809 1_555
Pd1 Pd10 3.002809 1_655
Pd1 Pd19 3.002844 1_555
Pd1 Pd18 3.002846 1_555
Pd2 Pd8 3.002752 1_546
Pd2 Pd9 3.002754 1_546
Pd3 Pd8 3.002813 1_555
Pd3 Pd9 3.002836 1_555
Pd4 Pd9 3.002859 1_555
Pd4 Pd8 3.002860 1_555
Pd5 Pd9 3.002789 1_546
Pd5 Pd8 3.002816 1_546
Pd8 Pd9 2.669605 1_555
Pd10 Pd11 2.669567 1_455
Pd10 Pd12 2.955500 1_456
Pd10 Pd18 2.955528 1_455
Pd10 Pd15 2.955612 1_555
Pd10 Pd17 2.955637 1_555
Pd10 Pd7 3.002775 1_555
Pd10 Pd6 3.002889 1_455
Pd11 Pd16 2.955528 1_665
Pd11 Pd19 2.955544 1_654
Pd11 Pd14 2.955559 1_555
Pd11 Pd13 2.955590 1_555
Pd11 Pd6 3.002778 1_555
Pd11 Pd7 3.002793 1_655
Pd12 Pd14 2.669611 1_555
Pd12 Pd8 2.955460 1_645
Pd12 Pd16 2.955632 1_655
Pd12 Pd18 2.955677 1_554
Pd12 Pd2 3.002751 1_654
Pd12 Pd7 3.002793 1_654
Pd12 Pd6 3.002808 1_555
Pd12 Pd4 3.002853 1_555
Pd13 Pd15 2.669623 1_565
Pd13 Pd16 2.955449 1_665
Pd13 Pd18 2.955534 1_564
Pd13 Pd9 2.955633 1_555
Pd13 Pd5 3.002754 1_565
Pd13 Pd3 3.002869 1_555
Pd14 Pd19 2.955390 1_654
Pd14 Pd17 2.955488 1_664
Pd14 Pd9 2.955685 1_555
Pd14 Pd2 3.002756 1_654
Pd14 Pd7 3.002822 1_654
Pd14 Pd6 3.002830 1_555
Pd14 Pd4 3.002885 1_555
Pd15 Pd8 2.955521 1_546
Pd15 Pd19 2.955534 1_545
Pd15 Pd17 2.955635 1_555
Pd15 Pd5 3.002767 1_555
Pd15 Pd3 3.002868 1_545
Pd16 Pd17 2.669708 1_555
Pd16 Pd8 2.955558 1_545
Pd16 Pd7 3.002776 1_545
Pd16 Pd5 3.002821 1_455
Pd16 Pd3 3.002835 1_545
Pd16 Pd6 3.002882 1_455
Pd17 Pd9 2.955480 1_446
Pd17 Pd7 3.002813 1_545
Pd17 Pd5 3.002819 1_455
Pd17 Pd3 3.002869 1_545
Pd17 Pd6 3.002886 1_455
Pd18 Pd19 2.669691 1_555
Pd18 Pd9 2.955418 1_546
Pd18 Pd2 3.002778 1_555
Pd18 Pd4 3.002901 1_556
Pd19 Pd8 2.955680 1_556
Pd19 Pd2 3.002784 1_555
Pd19 Pd4 3.002889 1_556
