# generated using pymatgen
data_CeCuSi2Ni
_symmetry_space_group_name_H-M   'P 1'
_cell_length_a   5.62099702
_cell_length_b   5.62099702
_cell_length_c   5.62099702
_cell_angle_alpha   137.76158241
_cell_angle_beta   137.76158241
_cell_angle_gamma   61.26834297
_symmetry_Int_Tables_number   1
_chemical_formula_structural   CeCuSi2Ni
_chemical_formula_sum   'Ce1 Cu1 Si2 Ni1'
_cell_volume   79.35446457
_cell_formula_units_Z   1
loop_
 _symmetry_equiv_pos_site_id
 _symmetry_equiv_pos_as_xyz
  1  'x, y, z'
loop_
 _atom_site_type_symbol
 _atom_site_label
 _atom_site_symmetry_multiplicity
 _atom_site_fract_x
 _atom_site_fract_y
 _atom_site_fract_z
 _atom_site_occupancy
  Ce  Ce0  1  0.00000000  0.00000000  0.00000000  1
  Cu  Cu0  1  0.25000000  0.75000000  0.50000000  1
  Si  Si0  1  0.62423600  0.62423600  0.00000000  1
  Si  Si1  1  0.37576400  0.37576400  0.00000000  1
  Ni  Ni0  1  0.75000000  0.25000000  0.50000000  1
loop_
_geom_bond_atom_site_label_1
_geom_bond_atom_site_label_2
_geom_bond_distance
_geom_bond_site_symmetry_2
Ce0 Si0 3.106099 1_455
Ce0 Si0 3.106099 1_444
Ce0 Si1 3.106099 1_545
Ce0 Si1 3.106099 1_556
Ce0 Si1 3.106099 1_444
Ce0 Si1 3.106099 1_455
Ce0 Si0 3.106099 1_556
Ce0 Si0 3.106099 1_545
Ce0 Cu0 3.154334 1_444
Ce0 Ni0 3.154334 1_555
Ce0 Ni0 3.154334 1_455
Ce0 Ni0 3.154334 1_454
Ce0 Cu0 3.154334 1_545
Ce0 Cu0 3.154334 1_555
Ce0 Cu0 3.154334 1_544
Ce0 Ni0 3.154334 1_444
Cu0 Si1 2.362574 1_555
Cu0 Si1 2.362574 1_566
Cu0 Si0 2.362574 1_556
Cu0 Si0 2.362574 1_455
Cu0 Ni0 2.864205 1_454
Cu0 Ni0 2.864205 1_465
Cu0 Ni0 2.864205 1_566
Cu0 Ni0 2.864205 1_555
Si0 Si1 2.403480 1_555
Ni0 Si1 2.362574 1_656
Ni0 Si0 2.362574 1_545
Ni0 Si1 2.362574 1_555
Ni0 Si0 2.362574 1_556
