# generated using pymatgen
data_Cs2Mg(MoO6)2
_symmetry_space_group_name_H-M   'P 1'
_cell_length_a   6.21250452
_cell_length_b   9.19400037
_cell_length_c   12.40938900
_cell_angle_alpha   90.00000000
_cell_angle_beta   90.00000000
_cell_angle_gamma   106.83587146
_symmetry_Int_Tables_number   1
_chemical_formula_structural   Cs2Mg(MoO6)2
_chemical_formula_sum   'Cs4 Mg2 Mo4 O24'
_cell_volume   678.41642362
_cell_formula_units_Z   2
loop_
 _symmetry_equiv_pos_site_id
 _symmetry_equiv_pos_as_xyz
  1  'x, y, z'
loop_
 _atom_site_type_symbol
 _atom_site_label
 _atom_site_symmetry_multiplicity
 _atom_site_fract_x
 _atom_site_fract_y
 _atom_site_fract_z
 _atom_site_occupancy
  Cs  Cs0  1  0.67600200  0.44584000  0.31499100  1
  Cs  Cs1  1  0.82399800  0.05416000  0.81499100  1
  Cs  Cs2  1  0.32399800  0.55416000  0.68500900  1
  Cs  Cs3  1  0.17600200  0.94584000  0.18500900  1
  Mg  Mg0  1  0.50000000  0.00000000  0.50000000  1
  Mg  Mg1  1  0.00000000  0.50000000  0.00000000  1
  Mo  Mo0  1  0.10458300  0.23348700  0.46218400  1
  Mo  Mo1  1  0.39541700  0.26651300  0.96218300  1
  Mo  Mo2  1  0.89541700  0.76651300  0.53781700  1
  Mo  Mo3  1  0.60458300  0.73348700  0.03781700  1
  O  O0  1  0.23366400  0.42622600  0.43869800  1
  O  O1  1  0.26633600  0.07377400  0.93869800  1
  O  O2  1  0.76633600  0.57377400  0.56130200  1
  O  O3  1  0.73366400  0.92622600  0.06130200  1
  O  O4  1  0.31494400  0.13570700  0.43847400  1
  O  O5  1  0.18505600  0.36429300  0.93847400  1
  O  O6  1  0.68505600  0.86429300  0.56152600  1
  O  O7  1  0.81494400  0.63570700  0.06152600  1
  O  O8  1  0.94293500  0.79284700  0.39212500  1
  O  O9  1  0.55706500  0.70715300  0.89212500  1
  O  O10  1  0.05706500  0.20715300  0.60787500  1
  O  O11  1  0.44293500  0.29284700  0.10787500  1
  O  O12  1  0.89850700  0.15328100  0.34457800  1
  O  O13  1  0.60149300  0.34671900  0.84457800  1
  O  O14  1  0.10149300  0.84671900  0.65542200  1
  O  O15  1  0.39850700  0.65328100  0.15542200  1
  O  O16  1  0.23563400  0.78992800  0.50246500  1
  O  O17  1  0.26436600  0.71007200  0.00246500  1
  O  O18  1  0.76436600  0.21007200  0.49753500  1
  O  O19  1  0.73563400  0.28992800  0.99753500  1
  O  O20  1  0.59386100  0.98336100  0.33692000  1
  O  O21  1  0.90613900  0.51663900  0.83692000  1
  O  O22  1  0.40613900  0.01663900  0.66308000  1
  O  O23  1  0.09386100  0.48336100  0.16308000  1
loop_
_geom_bond_atom_site_label_1
_geom_bond_atom_site_label_2
_geom_bond_distance
_geom_bond_site_symmetry_2
Cs0 O11 3.082392 1_555
Cs0 O0 3.107046 1_555
Cs0 O23 3.145300 1_655
Cs0 O2 3.264766 1_555
Cs0 O8 3.283304 1_555
Cs0 O18 3.289494 1_555
Cs0 O12 3.381468 1_555
Cs0 O4 3.435824 1_555
Cs0 O15 3.526330 1_555
Cs0 O7 3.579483 1_555
Cs1 O10 3.082392 1_655
Cs1 O1 3.107046 1_655
Cs1 O22 3.145300 1_555
Cs1 O3 3.264766 1_546
Cs1 O9 3.283304 1_545
Cs1 O19 3.289494 1_555
Cs1 O13 3.381468 1_555
Cs1 O5 3.435824 1_655
Cs1 O14 3.526330 1_645
Cs1 O6 3.579483 1_545
Cs2 O9 3.082392 1_555
Cs2 O2 3.107046 1_555
Cs2 O21 3.145300 1_455
Cs2 O0 3.264766 1_555
Cs2 O10 3.283304 1_555
Cs2 O16 3.289494 1_555
Cs2 O14 3.381468 1_555
Cs2 O6 3.435824 1_555
Cs2 O13 3.526330 1_555
Cs2 O5 3.579483 1_555
Cs3 O8 3.082392 1_455
Cs3 O3 3.107046 1_455
Cs3 O20 3.145300 1_555
Cs3 O1 3.264766 1_564
Cs3 O11 3.283304 1_565
Cs3 O17 3.289494 1_555
Cs3 O15 3.381468 1_555
Cs3 O7 3.435824 1_455
Cs3 O12 3.526330 1_465
Cs3 O4 3.579483 1_565
Mg0 O4 2.071784 1_555
Mg0 O6 2.071784 1_545
Mg0 O22 2.123806 1_555
Mg0 O20 2.123806 1_545
Mg0 O18 2.142703 1_555
Mg0 O16 2.142703 1_545
Mg1 O7 2.071784 1_455
Mg1 O5 2.071784 1_554
Mg1 O23 2.123806 1_555
Mg1 O21 2.123806 1_454
Mg1 O17 2.142703 1_555
Mg1 O19 2.142703 1_454
Mo0 O0 1.744992 1_555
Mo0 O4 1.811963 1_555
Mo0 O10 1.836572 1_555
Mo0 O12 1.940580 1_455
Mo0 O18 2.107729 1_455
Mo1 O1 1.744990 1_555
Mo1 O5 1.811961 1_555
Mo1 O11 1.836584 1_556
Mo1 O13 1.940571 1_555
Mo1 O19 2.107732 1_555
Mo2 O2 1.744990 1_555
Mo2 O6 1.811961 1_555
Mo2 O8 1.836584 1_555
Mo2 O14 1.940571 1_655
Mo2 O16 2.107732 1_655
Mo3 O3 1.744990 1_555
Mo3 O7 1.811961 1_555
Mo3 O9 1.836584 1_554
Mo3 O15 1.940571 1_555
Mo3 O17 2.107732 1_555
