# generated using pymatgen
data_Na2TeO5
_symmetry_space_group_name_H-M   'P 1'
_cell_length_a   5.88026700
_cell_length_b   6.70713400
_cell_length_c   7.64927025
_cell_angle_alpha   63.99710291
_cell_angle_beta   90.00000000
_cell_angle_gamma   90.00000000
_symmetry_Int_Tables_number   1
_chemical_formula_structural   Na2TeO5
_chemical_formula_sum   'Na4 Te2 O10'
_cell_volume   271.14619231
_cell_formula_units_Z   2
loop_
 _symmetry_equiv_pos_site_id
 _symmetry_equiv_pos_as_xyz
  1  'x, y, z'
loop_
 _atom_site_type_symbol
 _atom_site_label
 _atom_site_symmetry_multiplicity
 _atom_site_fract_x
 _atom_site_fract_y
 _atom_site_fract_z
 _atom_site_occupancy
  Na  Na0  1  0.50000000  0.00000000  0.00000000  1
  Na  Na1  1  0.00000000  0.00000000  0.00000000  1
  Na  Na2  1  0.75000000  0.32864600  0.34270800  1
  Na  Na3  1  0.25000000  0.67135400  0.65729200  1
  Te  Te0  1  0.75000000  0.78976300  0.42047400  1
  Te  Te1  1  0.25000000  0.21023700  0.57952600  1
  O  O0  1  0.25000000  0.85543300  0.28913400  1
  O  O1  1  0.75000000  0.14456700  0.71086600  1
  O  O2  1  0.94238600  0.66268300  0.28157500  1
  O  O3  1  0.05761400  0.94425700  0.71842500  1
  O  O4  1  0.55761400  0.66268300  0.28157500  1
  O  O5  1  0.44238600  0.94425700  0.71842500  1
  O  O6  1  0.05761400  0.33731700  0.71842500  1
  O  O7  1  0.94238600  0.05574300  0.28157500  1
  O  O8  1  0.44238600  0.33731700  0.71842500  1
  O  O9  1  0.55761400  0.05574300  0.28157500  1
loop_
_geom_bond_atom_site_label_1
_geom_bond_atom_site_label_2
_geom_bond_distance
_geom_bond_site_symmetry_2
Na0 O8 2.366362 1_554
Na0 O4 2.366362 1_545
Na0 O5 2.366366 1_544
Na0 O9 2.366366 1_555
Na0 O1 2.472321 1_554
Na0 O0 2.472321 1_545
Na1 O2 2.366362 1_445
Na1 O6 2.366362 1_554
Na1 O3 2.366366 1_544
Na1 O7 2.366366 1_455
Na1 O1 2.472321 1_454
Na1 O0 2.472321 1_545
Na2 O9 2.366291 1_555
Na2 O7 2.366291 1_555
Na2 O4 2.366297 1_555
Na2 O2 2.366297 1_555
Na2 O1 2.531067 1_555
Na3 O5 2.366291 1_555
Na3 O3 2.366291 1_555
Na3 O8 2.366297 1_555
Na3 O6 2.366297 1_555
Na3 O0 2.531067 1_555
O2 Te0 1.982220 1_555
O3 Te1 1.982224 1_565
O4 Te0 1.982220 1_555
O5 Te1 1.982224 1_565
O6 Te1 1.982220 1_555
O7 Te0 1.982224 1_545
O8 Te1 1.982220 1_555
O9 Te0 1.982224 1_545
