# generated using pymatgen
data_MgMnVP2(HO5)2
_symmetry_space_group_name_H-M   'P 1'
_cell_length_a   5.44598257
_cell_length_b   7.43717106
_cell_length_c   5.23155872
_cell_angle_alpha   111.26691233
_cell_angle_beta   95.19521991
_cell_angle_gamma   108.07897464
_symmetry_Int_Tables_number   1
_chemical_formula_structural   MgMnVP2(HO5)2
_chemical_formula_sum   'Mg1 Mn1 V1 P2 H2 O10'
_cell_volume   182.71359956
_cell_formula_units_Z   1
loop_
 _symmetry_equiv_pos_site_id
 _symmetry_equiv_pos_as_xyz
  1  'x, y, z'
loop_
 _atom_site_type_symbol
 _atom_site_label
 _atom_site_symmetry_multiplicity
 _atom_site_fract_x
 _atom_site_fract_y
 _atom_site_fract_z
 _atom_site_occupancy
  Mg  Mg0  1  0.50614300  0.00261800  0.99500800  1
  Mn  Mn0  1  0.00577400  0.00206000  0.99488700  1
  V  V0  1  0.00592700  0.50220800  0.99506200  1
  P  P0  1  0.36145600  0.25628000  0.63255600  1
  P  P1  1  0.65026100  0.74808400  0.35683400  1
  H  H0  1  0.96767400  0.30974000  0.32229000  1
  H  H1  1  0.04422700  0.69423000  0.66826200  1
  O  O0  1  0.11875600  0.76029400  0.87590100  1
  O  O1  1  0.15686700  0.36472300  0.66746000  1
  O  O2  1  0.35984600  0.59826300  0.25106100  1
  O  O3  1  0.32048300  0.13092400  0.30638300  1
  O  O4  1  0.30280600  0.10288900  0.77367700  1
  O  O5  1  0.70878100  0.90135900  0.21537200  1
  O  O6  1  0.69107300  0.87369300  0.68302300  1
  O  O7  1  0.65193800  0.40586700  0.73825600  1
  O  O8  1  0.85474800  0.63962300  0.32199000  1
  O  O9  1  0.89324000  0.24418100  0.11447900  1
loop_
_geom_bond_atom_site_label_1
_geom_bond_atom_site_label_2
_geom_bond_distance
_geom_bond_site_symmetry_2
Mg0 O5 2.007300 1_546
Mg0 O4 2.007450 1_555
Mg0 O3 2.087088 1_556
Mg0 O6 2.087918 1_545
Mg0 O9 2.158378 1_556
Mg0 O0 2.162070 1_545
Mn0 O3 1.962992 1_556
Mn0 O6 1.964384 1_445
Mn0 O0 1.985739 1_545
Mn0 O9 1.986616 1_456
Mn0 O5 2.172598 1_446
Mn0 O4 2.175781 1_555
H0 O9 0.998492 1_555
H1 O0 0.997671 1_555
O0 V0 2.157726 1_555
O1 P0 1.553367 1_555
O1 V0 2.040615 1_555
O2 P1 1.532854 1_555
O2 V0 2.000720 1_554
O3 P0 1.574363 1_555
O4 P0 1.541436 1_555
O5 P1 1.542055 1_555
O6 P1 1.574851 1_555
O7 P0 1.532656 1_555
O7 V0 2.002543 1_655
O8 P1 1.552969 1_555
O8 V0 2.038826 1_654
O9 V0 2.158155 1_654
