# generated using pymatgen
data_CaHo(CoO3)2
_symmetry_space_group_name_H-M   'P 1'
_cell_length_a   5.25327900
_cell_length_b   5.57465100
_cell_length_c   7.42751600
_cell_angle_alpha   90.00000000
_cell_angle_beta   90.00000000
_cell_angle_gamma   90.00000000
_symmetry_Int_Tables_number   1
_chemical_formula_structural   CaHo(CoO3)2
_chemical_formula_sum   'Ca2 Ho2 Co4 O12'
_cell_volume   217.51626951
_cell_formula_units_Z   2
loop_
 _symmetry_equiv_pos_site_id
 _symmetry_equiv_pos_as_xyz
  1  'x, y, z'
loop_
 _atom_site_type_symbol
 _atom_site_label
 _atom_site_symmetry_multiplicity
 _atom_site_fract_x
 _atom_site_fract_y
 _atom_site_fract_z
 _atom_site_occupancy
  Ca  Ca0  1  0.48466800  0.19050800  0.00000000  1
  Ca  Ca1  1  0.98466800  0.80949200  0.50000000  1
  Ho  Ho0  1  0.02143900  0.67719000  0.00000000  1
  Ho  Ho1  1  0.52143900  0.32281000  0.50000000  1
  Co  Co0  1  0.99945200  0.24573200  0.74912100  1
  Co  Co1  1  0.99945200  0.24573200  0.25087900  1
  Co  Co2  1  0.49945200  0.75426800  0.24912100  1
  Co  Co3  1  0.49945200  0.75426800  0.75087900  1
  O  O0  1  0.10428300  0.22759800  0.50000000  1
  O  O1  1  0.19830600  0.94080300  0.80010500  1
  O  O2  1  0.19830600  0.94080300  0.19989500  1
  O  O3  1  0.29164900  0.45592800  0.79561700  1
  O  O4  1  0.29164900  0.45592800  0.20438300  1
  O  O5  1  0.41523000  0.72271800  0.50000000  1
  O  O6  1  0.60428300  0.77240200  0.00000000  1
  O  O7  1  0.69830600  0.05919700  0.30010500  1
  O  O8  1  0.69830600  0.05919700  0.69989500  1
  O  O9  1  0.79164900  0.54407200  0.70438300  1
  O  O10  1  0.79164900  0.54407200  0.29561700  1
  O  O11  1  0.91523000  0.27728200  0.00000000  1
loop_
_geom_bond_atom_site_label_1
_geom_bond_atom_site_label_2
_geom_bond_distance
_geom_bond_site_symmetry_2
Ca0 O11 2.313011 1_555
Ca0 O3 2.349882 1_554
Ca0 O4 2.349882 1_555
Ca0 O6 2.414012 1_545
Ca0 O2 2.530841 1_545
Ca0 O1 2.530841 1_544
Ca0 O8 2.600768 1_554
Ca0 O7 2.600768 1_555
Ca1 O5 2.313011 1_655
Ca1 O10 2.349882 1_555
Ca1 O9 2.349882 1_555
Ca1 O0 2.414012 1_665
Ca1 O8 2.530841 1_565
Ca1 O7 2.530841 1_565
Ca1 O2 2.600768 1_655
Ca1 O1 2.600768 1_655
Ho0 O6 2.254798 1_455
Ho0 O1 2.286322 1_554
Ho0 O2 2.286322 1_555
Ho0 O11 2.298107 1_455
Ho0 O4 2.416789 1_555
Ho0 O3 2.416789 1_554
Ho0 O10 2.613236 1_455
Ho0 O9 2.613236 1_454
Ho1 O0 2.254798 1_555
Ho1 O7 2.286322 1_555
Ho1 O8 2.286322 1_555
Ho1 O5 2.298107 1_555
Ho1 O10 2.416789 1_555
Ho1 O9 2.416789 1_555
Ho1 O3 2.613236 1_555
Ho1 O4 2.613236 1_555
Co0 O11 1.923272 1_556
Co0 O8 1.928145 1_555
Co0 O0 1.933208 1_655
Co0 O3 1.961762 1_655
Co0 O9 2.016966 1_555
Co0 O1 2.030821 1_645
Co1 O11 1.923272 1_555
Co1 O7 1.928145 1_555
Co1 O0 1.933208 1_655
Co1 O4 1.961762 1_655
Co1 O10 2.016966 1_555
Co1 O2 2.030821 1_645
Co2 O5 1.923272 1_555
Co2 O2 1.928145 1_555
Co2 O6 1.933208 1_555
Co2 O10 1.961762 1_555
Co2 O4 2.016966 1_555
Co2 O7 2.030821 1_565
Co3 O5 1.923272 1_555
Co3 O1 1.928145 1_555
Co3 O6 1.933208 1_556
Co3 O9 1.961762 1_555
Co3 O3 2.016966 1_555
Co3 O8 2.030821 1_565
