# generated using pymatgen
data_Dy2Fe17C
_symmetry_space_group_name_H-M   'P 1'
_cell_length_a   6.43953733
_cell_length_b   6.43953733
_cell_length_c   6.41207173
_cell_angle_alpha   83.33979001
_cell_angle_beta   83.33979001
_cell_angle_gamma   83.62886946
_symmetry_Int_Tables_number   1
_chemical_formula_structural   Dy2Fe17C
_chemical_formula_sum   'Dy2 Fe17 C1'
_cell_volume   261.03215971
_cell_formula_units_Z   1
loop_
 _symmetry_equiv_pos_site_id
 _symmetry_equiv_pos_as_xyz
  1  'x, y, z'
loop_
 _atom_site_type_symbol
 _atom_site_label
 _atom_site_symmetry_multiplicity
 _atom_site_fract_x
 _atom_site_fract_y
 _atom_site_fract_z
 _atom_site_occupancy
  Dy  Dy0  1  0.65992700  0.65992700  0.65233100  1
  Dy  Dy1  1  0.34007300  0.34007300  0.34766900  1
  Fe  Fe0  1  0.90299000  0.90299000  0.90272300  1
  Fe  Fe1  1  0.09701000  0.09701000  0.09727700  1
  Fe  Fe2  1  0.34320700  0.34320700  0.84880900  1
  Fe  Fe3  1  0.34325300  0.84929200  0.34440200  1
  Fe  Fe4  1  0.84929200  0.34325300  0.34440200  1
  Fe  Fe5  1  0.65679300  0.65679300  0.15119100  1
  Fe  Fe6  1  0.65674700  0.15070800  0.65559800  1
  Fe  Fe7  1  0.15070800  0.65674700  0.65559800  1
  Fe  Fe8  1  0.28537900  0.71462100  0.00000000  1
  Fe  Fe9  1  0.71030300  0.00027000  0.29045100  1
  Fe  Fe10  1  0.99973000  0.28969700  0.70954900  1
  Fe  Fe11  1  0.28969700  0.99973000  0.70954900  1
  Fe  Fe12  1  0.00027000  0.71030300  0.29045100  1
  Fe  Fe13  1  0.71462100  0.28537900  0.00000000  1
  Fe  Fe14  1  0.00000000  0.00000000  0.50000000  1
  Fe  Fe15  1  0.00000000  0.50000000  0.00000000  1
  Fe  Fe16  1  0.50000000  0.00000000  0.00000000  1
  C  C0  1  0.50000000  0.50000000  0.00000000  1
loop_
_geom_bond_atom_site_label_1
_geom_bond_atom_site_label_2
_geom_bond_distance
_geom_bond_site_symmetry_2
Dy0 Fe9 3.016019 1_565
Dy0 Fe12 3.016019 1_655
Dy0 Fe0 3.031019 1_555
Dy0 Fe4 3.060647 1_555
Dy0 Fe3 3.060647 1_555
Dy0 Fe10 3.071190 1_555
Dy0 Fe11 3.071190 1_555
Dy0 Fe6 3.160680 1_565
Dy0 Fe7 3.160680 1_655
Dy0 Fe14 3.258450 1_665
Dy0 Fe6 3.279093 1_555
Dy0 Fe7 3.279093 1_555
Dy0 Fe15 3.305351 1_656
Dy0 Fe16 3.305351 1_566
Dy1 Fe10 3.016019 1_455
Dy1 Fe11 3.016019 1_545
Dy1 Fe1 3.031019 1_555
Dy1 Fe6 3.060647 1_555
Dy1 Fe7 3.060647 1_555
Dy1 Fe12 3.071190 1_555
Dy1 Fe9 3.071190 1_555
Dy1 Fe3 3.160680 1_545
Dy1 Fe4 3.160680 1_455
Dy1 Fe14 3.258450 1_555
Dy1 Fe3 3.279093 1_555
Dy1 Fe4 3.279093 1_555
Dy1 Fe16 3.305351 1_555
Dy1 Fe15 3.305351 1_555
Fe0 Fe1 2.397449 1_666
Fe0 Fe14 2.605176 1_665
Fe0 Fe16 2.620843 1_566
Fe0 Fe15 2.620843 1_656
Fe0 Fe5 2.636523 1_556
Fe0 Fe6 2.646710 1_565
Fe0 Fe7 2.646710 1_655
Fe0 Fe13 2.727961 1_566
Fe0 Fe8 2.727961 1_656
Fe0 Fe10 2.751964 1_565
Fe0 Fe11 2.751964 1_655
Fe0 Fe12 2.754292 1_656
Fe0 Fe9 2.754292 1_566
Fe1 Fe14 2.605176 1_555
Fe1 Fe16 2.620843 1_555
Fe1 Fe15 2.620843 1_555
Fe1 Fe2 2.636523 1_554
Fe1 Fe4 2.646710 1_455
Fe1 Fe3 2.646710 1_545
Fe1 Fe13 2.727961 1_455
Fe1 Fe8 2.727961 1_545
Fe1 Fe12 2.751964 1_545
Fe1 Fe9 2.751964 1_455
Fe1 Fe11 2.754292 1_544
Fe1 Fe10 2.754292 1_454
Fe2 Fe7 2.523601 1_555
Fe2 Fe6 2.523601 1_555
Fe3 Fe7 2.499954 1_555
Fe3 Fe5 2.523601 1_555
Fe3 Fe8 2.544514 1_555
Fe3 Fe9 2.625639 1_565
Fe4 Fe6 2.499954 1_555
Fe4 Fe5 2.523601 1_555
Fe4 Fe9 2.546892 1_555
Fe5 Fe9 2.550872 1_565
Fe6 Fe9 2.608450 1_555
Fe7 Fe8 2.544514 1_556
Fe10 Fe14 2.421920 1_655
Fe10 Fe15 2.426691 1_656
Fe10 Fe13 2.458910 1_556
Fe10 Fe11 2.489871 1_645
Fe10 Fe6 2.546892 1_555
Fe10 Fe2 2.550872 1_655
Fe10 Fe4 2.608450 1_555
Fe10 Fe7 2.625639 1_655
Fe11 Fe14 2.421920 1_565
Fe11 Fe16 2.426691 1_566
Fe11 Fe8 2.458910 1_556
Fe11 Fe7 2.546892 1_555
Fe11 Fe2 2.550872 1_565
Fe11 Fe3 2.608450 1_555
Fe11 Fe6 2.625639 1_565
Fe12 Fe14 2.421920 1_565
Fe12 Fe15 2.426691 1_555
Fe12 Fe8 2.458910 1_555
Fe12 Fe9 2.489871 1_465
Fe12 Fe3 2.546892 1_555
Fe12 Fe5 2.550872 1_455
Fe12 Fe7 2.608450 1_555
Fe12 Fe4 2.625639 1_455
Fe13 Fe16 2.418872 1_555
Fe13 Fe15 2.418872 1_655
Fe13 Fe9 2.458910 1_555
Fe13 Fe6 2.544514 1_554
Fe13 Fe4 2.544514 1_555
Fe14 Fe9 2.421920 1_455
Fe14 Fe4 2.461718 1_455
Fe14 Fe3 2.461718 1_545
Fe14 Fe7 2.461718 1_545
Fe14 Fe6 2.461718 1_455
Fe15 Fe8 2.418872 1_555
Fe15 Fe4 2.457771 1_455
Fe15 Fe7 2.457771 1_554
Fe15 Fe2 2.465481 1_554
Fe15 Fe5 2.465481 1_455
Fe16 Fe8 2.418872 1_545
Fe16 Fe9 2.426691 1_555
Fe16 Fe3 2.457771 1_545
Fe16 Fe6 2.457771 1_554
Fe16 Fe2 2.465481 1_554
Fe16 Fe5 2.465481 1_545
C0 Fe13 1.842895 1_555
C0 Fe8 1.842895 1_555
C0 Fe5 1.912868 1_555
C0 Fe2 1.912868 1_554
C0 Dy1 2.502236 1_555
C0 Dy0 2.502236 1_554
