# generated using pymatgen
data_CsLiH4W2SO3
_symmetry_space_group_name_H-M   'P 1'
_cell_length_a   10.01208893
_cell_length_b   5.35318500
_cell_length_c   5.23955722
_cell_angle_alpha   120.72002168
_cell_angle_beta   116.47214579
_cell_angle_gamma   90.00000000
_symmetry_Int_Tables_number   1
_chemical_formula_structural   CsLiH4W2SO3
_chemical_formula_sum   'Cs1 Li1 H4 W2 S1 O3'
_cell_volume   206.42531821
_cell_formula_units_Z   1
loop_
 _symmetry_equiv_pos_site_id
 _symmetry_equiv_pos_as_xyz
  1  'x, y, z'
loop_
 _atom_site_type_symbol
 _atom_site_label
 _atom_site_symmetry_multiplicity
 _atom_site_fract_x
 _atom_site_fract_y
 _atom_site_fract_z
 _atom_site_occupancy
  Cs  Cs0  1  0.05141300  0.00165800  0.00331700  1
  Li  Li0  1  0.72442800  0.53456800  0.06913500  1
  H  H0  1  0.27938600  0.53406100  0.68261400  1
  H  H1  1  0.27938600  0.14855300  0.68261400  1
  H  H2  1  0.51445500  0.35317000  0.70633900  1
  H  H3  1  0.30481600  0.59640200  0.19280500  1
  W  W0  1  0.38450800  0.83906200  0.67812500  1
  W  W1  1  0.44585100  0.50610300  0.01220700  1
  S  S0  1  0.78425500  0.23705900  0.47411700  1
  O  O0  1  0.84740200  0.43252300  0.86504500  1
  O  O1  1  0.67905000  0.39891600  0.32494100  1
  O  O2  1  0.67905000  0.92602500  0.32494100  1
loop_
_geom_bond_atom_site_label_1
_geom_bond_atom_site_label_2
_geom_bond_distance
_geom_bond_site_symmetry_2
Cs0 H1 2.897236 1_555
Cs0 H0 2.897238 1_555
Cs0 O0 3.225655 1_444
Cs0 O0 3.225664 1_454
Li0 O0 1.880103 1_554
Li0 O2 2.016790 1_555
Li0 O1 2.016794 1_555
H0 W1 1.865610 1_556
H0 W0 1.958416 1_555
H1 W1 1.865607 1_556
H1 W0 1.958420 1_545
H2 W1 1.830653 1_556
H2 Li0 1.878102 1_556
H3 W0 1.899087 1_555
H3 W1 1.961340 1_555
O0 S0 1.531609 1_555
O1 S0 1.558550 1_555
O1 W1 2.452621 1_555
O2 S0 1.558554 1_565
O2 W1 2.452624 1_555
