# generated using pymatgen
data_Er2Re3Si5
_symmetry_space_group_name_H-M   'P 1'
_cell_length_a   10.92458826
_cell_length_b   10.92457716
_cell_length_c   5.46717251
_cell_angle_alpha   89.99999439
_cell_angle_beta   90.00004110
_cell_angle_gamma   89.99989658
_symmetry_Int_Tables_number   1
_chemical_formula_structural   Er2Re3Si5
_chemical_formula_sum   'Er8 Re12 Si20'
_cell_volume   652.48794435
_cell_formula_units_Z   4
loop_
 _symmetry_equiv_pos_site_id
 _symmetry_equiv_pos_as_xyz
  1  'x, y, z'
loop_
 _atom_site_type_symbol
 _atom_site_label
 _atom_site_symmetry_multiplicity
 _atom_site_fract_x
 _atom_site_fract_y
 _atom_site_fract_z
 _atom_site_occupancy
  Er  Er0  1  0.57828382  0.73748970  0.50000016  1
  Er  Er1  1  0.42171775  0.26251045  0.49999974  1
  Er  Er2  1  0.07827980  0.76249759  0.00000008  1
  Er  Er3  1  0.92171795  0.23750277  -0.00000045  1
  Er  Er4  1  0.26250073  0.57827779  0.49999932  1
  Er  Er5  1  0.73749935  0.42172357  0.50000038  1
  Er  Er6  1  0.23749280  0.07828576  -0.00000006  1
  Er  Er7  1  0.76250691  0.92171331  -0.00000014  1
  Re  Re0  1  0.87554257  0.85250584  0.50000044  1
  Re  Re1  1  0.12445740  0.14749376  0.49999980  1
  Re  Re2  1  0.37553777  0.64748706  0.00000054  1
  Re  Re3  1  0.62446280  0.35251256  0.00000111  1
  Re  Re4  1  0.14748854  0.87553615  0.49999986  1
  Re  Re5  1  0.85251167  0.12446340  0.50000002  1
  Re  Re6  1  0.35250739  0.37554330  -0.00000028  1
  Re  Re7  1  0.64749326  0.62445736  0.00000012  1
  Re  Re8  1  0.50000038  0.00000003  0.24999936  1
  Re  Re9  1  -0.00000179  0.50000010  0.74999837  1
  Re  Re10  1  -0.00000144  0.50000016  0.25000036  1
  Re  Re11  1  0.50000071  -0.00000000  0.74999953  1
  Si  Si0  1  0.67207911  0.17208089  0.25000171  1
  Si  Si1  1  0.32792150  0.82791868  0.25000247  1
  Si  Si2  1  0.17207787  0.32792490  0.74999713  1
  Si  Si3  1  0.82792188  0.67207521  0.74999810  1
  Si  Si4  1  0.82792187  0.67207541  0.25000219  1
  Si  Si5  1  0.17207829  0.32792507  0.25000230  1
  Si  Si6  1  0.67207918  0.17208115  0.74999866  1
  Si  Si7  1  0.32792153  0.82791847  0.74999784  1
  Si  Si8  1  0.50000171  0.50000028  0.25638107  1
  Si  Si9  1  0.00000007  0.00000014  0.75637248  1
  Si  Si10  1  0.50000051  0.49999984  0.74362291  1
  Si  Si11  1  -0.00000010  -0.00000008  0.24362758  1
  Si  Si12  1  0.68622046  0.97255769  0.49999957  1
  Si  Si13  1  0.31378053  0.02744210  0.49999996  1
  Si  Si14  1  0.18621542  0.52744281  -0.00000069  1
  Si  Si15  1  0.81378234  0.47255739  0.00000003  1
  Si  Si16  1  0.02744381  0.68621668  0.49999993  1
  Si  Si17  1  0.97255532  0.31378296  0.49999884  1
  Si  Si18  1  0.47255930  0.18621948  -0.00000033  1
  Si  Si19  1  0.52744103  0.81378025  0.00000000  1
loop_
_geom_bond_atom_site_label_1
_geom_bond_atom_site_label_2
_geom_bond_distance
_geom_bond_site_symmetry_2
Er0 Si12 2.825802 1_555
Er0 Si19 2.911293 1_556
Er0 Si19 2.911293 1_555
Er0 Si8 3.039183 1_555
Er0 Si10 3.039200 1_555
Er0 Re7 3.093373 1_556
Er0 Re7 3.093374 1_555
Er0 Si3 3.133106 1_555
Er0 Si4 3.133107 1_555
Er0 Si1 3.213225 1_555
Er0 Si7 3.213226 1_555
Er0 Re11 3.289962 1_565
Er0 Re8 3.289966 1_565
Er1 Si13 2.825808 1_555
Er1 Si18 2.911291 1_556
Er1 Si18 2.911293 1_555
Er1 Si8 3.039192 1_555
Er1 Si10 3.039195 1_555
Er1 Re6 3.093378 1_555
Er1 Re6 3.093379 1_556
Er1 Si5 3.133118 1_555
Er1 Si2 3.133123 1_555
Er1 Si0 3.213221 1_555
Er1 Si6 3.213221 1_555
Er1 Re11 3.289963 1_555
Er1 Re8 3.289964 1_555
Er2 Si14 2.825662 1_555
Er2 Si16 2.911249 1_555
Er2 Si16 2.911250 1_554
Er2 Si11 3.039315 1_565
Er2 Si9 3.039316 1_564
Er2 Re4 3.093399 1_555
Er2 Re4 3.093401 1_554
Er2 Si1 3.133170 1_555
Er2 Si7 3.133171 1_554
Er2 Si3 3.213175 1_454
Er2 Si4 3.213177 1_455
Er2 Re10 3.289839 1_555
Er2 Re9 3.289843 1_554
Er3 Si15 2.825660 1_555
Er3 Si17 2.911246 1_555
Er3 Si17 2.911254 1_554
Er3 Si9 3.039323 1_654
Er3 Si11 3.039326 1_655
Er3 Re5 3.093394 1_554
Er3 Re5 3.093400 1_555
Er3 Si6 3.133140 1_554
Er3 Si0 3.133146 1_555
Er3 Si2 3.213196 1_654
Er3 Si5 3.213199 1_655
Er3 Re9 3.289837 1_654
Er3 Re10 3.289837 1_655
Er4 Si16 2.825700 1_555
Er4 Si14 2.911261 1_555
Er4 Si14 2.911262 1_556
Er4 Si8 3.039275 1_555
Er4 Si10 3.039276 1_555
Er4 Re2 3.093390 1_555
Er4 Re2 3.093400 1_556
Er4 Si1 3.133147 1_555
Er4 Si7 3.133149 1_555
Er4 Si5 3.213114 1_555
Er4 Si2 3.213119 1_555
Er4 Re10 3.289872 1_555
Er4 Re9 3.289877 1_555
Er5 Si17 2.825699 1_555
Er5 Si15 2.911249 1_556
Er5 Si15 2.911254 1_555
Er5 Si8 3.039242 1_555
Er5 Si10 3.039262 1_555
Er5 Re3 3.093393 1_555
Er5 Re3 3.093402 1_556
Er5 Si6 3.133163 1_555
Er5 Si0 3.133167 1_555
Er5 Si3 3.213106 1_555
Er5 Si4 3.213109 1_555
Er5 Re9 3.289835 1_655
Er5 Re10 3.289845 1_655
Er6 Si18 2.825776 1_555
Er6 Si13 2.911286 1_555
Er6 Si13 2.911287 1_554
Er6 Si9 3.039246 1_554
Er6 Si11 3.039250 1_555
Er6 Re1 3.093383 1_554
Er6 Re1 3.093384 1_555
Er6 Si2 3.133127 1_554
Er6 Si5 3.133127 1_555
Er6 Si1 3.213278 1_545
Er6 Si7 3.213280 1_544
Er6 Re8 3.289945 1_555
Er6 Re11 3.289952 1_554
Er7 Si19 2.825766 1_555
Er7 Si12 2.911283 1_555
Er7 Si12 2.911285 1_554
Er7 Si11 3.039252 1_665
Er7 Si9 3.039255 1_664
Er7 Re0 3.093381 1_554
Er7 Re0 3.093385 1_555
Er7 Si4 3.133114 1_555
Er7 Si3 3.133115 1_554
Er7 Si6 3.213279 1_564
Er7 Si0 3.213279 1_565
Er7 Re11 3.289936 1_564
Er7 Re8 3.289940 1_565
Re0 Si12 2.449038 1_555
Re0 Si4 2.454401 1_555
Re0 Si3 2.454401 1_555
Re0 Si16 2.460481 1_655
Re0 Si9 2.531707 1_665
Re0 Si11 2.531708 1_665
Re1 Si13 2.449047 1_555
Re1 Si2 2.454404 1_555
Re1 Si5 2.454407 1_555
Re1 Si17 2.460488 1_455
Re1 Si9 2.531704 1_555
Re1 Si11 2.531705 1_555
Re2 Si14 2.449000 1_555
Re2 Si7 2.454411 1_554
Re2 Si1 2.454411 1_555
Re2 Si19 2.460533 1_555
Re2 Si10 2.531704 1_554
Re2 Si8 2.531715 1_555
Re3 Si15 2.448977 1_555
Re3 Si0 2.454407 1_555
Re3 Si6 2.454411 1_554
Re3 Si18 2.460534 1_555
Re3 Si10 2.531702 1_554
Re3 Si8 2.531705 1_555
Re4 Si16 2.448975 1_555
Re4 Si1 2.454414 1_555
Re4 Si7 2.454415 1_555
Re4 Si13 2.460543 1_565
Re4 Si11 2.531702 1_565
Re4 Si9 2.531705 1_565
Re5 Si17 2.448970 1_555
Re5 Si0 2.454412 1_555
Re5 Si6 2.454414 1_555
Re5 Si12 2.460535 1_545
Re5 Si9 2.531698 1_655
Re5 Si11 2.531700 1_655
Re6 Si18 2.449053 1_555
Re6 Si5 2.454399 1_555
Re6 Si2 2.454402 1_554
Re6 Si14 2.460491 1_555
Re6 Si10 2.531709 1_554
Re6 Si8 2.531733 1_555
Re7 Si19 2.449047 1_555
Re7 Si4 2.454391 1_555
Re7 Si3 2.454392 1_554
Re7 Si15 2.460471 1_555
Re7 Si10 2.531712 1_554
Re7 Si8 2.531714 1_555
Re8 Si18 2.469138 1_555
Re8 Si19 2.469140 1_545
Re8 Si12 2.469148 1_545
Re8 Si13 2.469148 1_555
Re8 Si0 2.658582 1_555
Re8 Si1 2.658587 1_545
Re9 Si16 2.469115 1_555
Re9 Si15 2.469117 1_456
Re9 Si17 2.469120 1_455
Re9 Si14 2.469126 1_556
Re9 Si3 2.658515 1_455
Re9 Si2 2.658541 1_555
Re10 Si15 2.469115 1_455
Re10 Si16 2.469118 1_555
Re10 Si17 2.469118 1_455
Re10 Si14 2.469124 1_555
Re10 Si4 2.658519 1_455
Re10 Si5 2.658541 1_555
Re10 Re9 2.733575 1_555
Re10 Re9 2.733597 1_554
Re11 Si18 2.469140 1_556
Re11 Si19 2.469142 1_546
Re11 Si12 2.469146 1_545
Re11 Si13 2.469146 1_555
Re11 Si6 2.658583 1_555
Re11 Si7 2.658591 1_545
Re11 Re8 2.733585 1_556
Re11 Re8 2.733587 1_555
Si0 Si18 2.577397 1_555
Si0 Si12 2.577417 1_545
Si0 Si6 2.733570 1_555
Si0 Si6 2.733603 1_554
Si1 Si19 2.577397 1_555
Si1 Si13 2.577418 1_565
Si1 Si7 2.733561 1_555
Si1 Si7 2.733612 1_554
Si2 Si5 2.733558 1_555
Si2 Si5 2.733615 1_556
Si3 Si4 2.733564 1_555
Si3 Si4 2.733609 1_556
Si10 Si8 2.663835 1_555
Si11 Si9 2.663908 1_554
Si12 Si6 2.577423 1_565
Si13 Si7 2.577421 1_545
Si14 Si2 2.577379 1_554
Si14 Si5 2.577379 1_555
Si15 Si3 2.577378 1_554
Si15 Si4 2.577381 1_555
Si16 Si4 2.577406 1_455
Si16 Si3 2.577409 1_455
Si17 Si2 2.577414 1_655
Si17 Si5 2.577415 1_655
Si18 Si6 2.577396 1_554
Si19 Si7 2.577394 1_554
