# generated using pymatgen
data_H18AuN6Cl
_symmetry_space_group_name_H-M   'P 1'
_cell_length_a   11.67356800
_cell_length_b   14.45827700
_cell_length_c   7.39156600
_cell_angle_alpha   90.00000000
_cell_angle_beta   90.00000000
_cell_angle_gamma   90.00000000
_symmetry_Int_Tables_number   1
_chemical_formula_structural   H18AuN6Cl
_chemical_formula_sum   'H72 Au4 N24 Cl4'
_cell_volume   1247.54614213
_cell_formula_units_Z   4
loop_
 _symmetry_equiv_pos_site_id
 _symmetry_equiv_pos_as_xyz
  1  'x, y, z'
loop_
 _atom_site_type_symbol
 _atom_site_label
 _atom_site_symmetry_multiplicity
 _atom_site_fract_x
 _atom_site_fract_y
 _atom_site_fract_z
 _atom_site_occupancy
  H  H0  1  0.81271800  0.90802000  0.58458900  1
  H  H1  1  0.68728200  0.59198000  0.08458900  1
  H  H2  1  0.31271800  0.59198000  0.41541100  1
  H  H3  1  0.18728200  0.90802000  0.91541100  1
  H  H4  1  0.18728200  0.09198000  0.41541100  1
  H  H5  1  0.31271800  0.40802000  0.91541100  1
  H  H6  1  0.68728200  0.40802000  0.58458900  1
  H  H7  1  0.81271800  0.09198000  0.08458900  1
  H  H8  1  0.92801300  0.83586700  0.60420500  1
  H  H9  1  0.57198700  0.66413300  0.10420500  1
  H  H10  1  0.42801300  0.66413300  0.39579500  1
  H  H11  1  0.07198700  0.83586700  0.89579500  1
  H  H12  1  0.07198700  0.16413300  0.39579500  1
  H  H13  1  0.42801300  0.33586700  0.89579500  1
  H  H14  1  0.57198700  0.33586700  0.60420500  1
  H  H15  1  0.92801300  0.16413300  0.10420500  1
  H  H16  1  0.87285300  0.86034600  0.40395200  1
  H  H17  1  0.62714700  0.63965400  0.90395200  1
  H  H18  1  0.37285300  0.63965400  0.59604800  1
  H  H19  1  0.12714700  0.86034600  0.09604800  1
  H  H20  1  0.12714700  0.13965400  0.59604800  1
  H  H21  1  0.37285300  0.36034600  0.09604800  1
  H  H22  1  0.62714700  0.36034600  0.40395200  1
  H  H23  1  0.87285300  0.13965400  0.90395200  1
  H  H24  1  0.16925400  0.87342800  0.37005100  1
  H  H25  1  0.33074600  0.62657200  0.87005100  1
  H  H26  1  0.66925400  0.62657200  0.62994900  1
  H  H27  1  0.83074600  0.87342800  0.12994900  1
  H  H28  1  0.83074600  0.12657200  0.62994900  1
  H  H29  1  0.66925400  0.37342800  0.12994900  1
  H  H30  1  0.33074600  0.37342800  0.37005100  1
  H  H31  1  0.16925400  0.12657200  0.87005100  1
  H  H32  1  0.27791000  0.80033000  0.35081200  1
  H  H33  1  0.22209000  0.69967000  0.85081200  1
  H  H34  1  0.77791000  0.69967000  0.64918800  1
  H  H35  1  0.72209000  0.80033000  0.14918800  1
  H  H36  1  0.72209000  0.19967000  0.64918800  1
  H  H37  1  0.77791000  0.30033000  0.14918800  1
  H  H38  1  0.22209000  0.30033000  0.35081200  1
  H  H39  1  0.27791000  0.19967000  0.85081200  1
  H  H40  1  0.16190800  0.77237000  0.46946100  1
  H  H41  1  0.33809200  0.72763000  0.96946100  1
  H  H42  1  0.66190800  0.72763000  0.53053900  1
  H  H43  1  0.83809200  0.77237000  0.03053900  1
  H  H44  1  0.83809200  0.22763000  0.53053900  1
  H  H45  1  0.66190800  0.27237000  0.03053900  1
  H  H46  1  0.33809200  0.27237000  0.46946100  1
  H  H47  1  0.16190800  0.22763000  0.96946100  1
  H  H48  1  0.63103800  0.00013100  0.67523700  1
  H  H49  1  0.86896200  0.49986900  0.17523700  1
  H  H50  1  0.13103800  0.49986900  0.32476300  1
  H  H51  1  0.36896200  0.00013100  0.82476300  1
  H  H52  1  0.36896200  0.99986900  0.32476300  1
  H  H53  1  0.13103800  0.50013100  0.82476300  1
  H  H54  1  0.86896200  0.50013100  0.67523700  1
  H  H55  1  0.63103800  0.99986900  0.17523700  1
  H  H56  1  0.60037800  0.90479600  0.56425900  1
  H  H57  1  0.89962200  0.59520400  0.06425900  1
  H  H58  1  0.10037800  0.59520400  0.43574100  1
  H  H59  1  0.39962200  0.90479600  0.93574100  1
  H  H60  1  0.39962200  0.09520400  0.43574100  1
  H  H61  1  0.10037800  0.40479600  0.93574100  1
  H  H62  1  0.89962200  0.40479600  0.56425900  1
  H  H63  1  0.60037800  0.09520400  0.06425900  1
  H  H64  1  0.64677700  0.89908500  0.77532400  1
  H  H65  1  0.85322300  0.60091500  0.27532400  1
  H  H66  1  0.14677700  0.60091500  0.22467600  1
  H  H67  1  0.35322300  0.89908500  0.72467600  1
  H  H68  1  0.35322300  0.10091500  0.22467600  1
  H  H69  1  0.14677700  0.39908500  0.72467600  1
  H  H70  1  0.85322300  0.39908500  0.77532400  1
  H  H71  1  0.64677700  0.10091500  0.27532400  1
  Au  Au0  1  0.00000000  0.00000000  0.50000000  1
  Au  Au1  1  0.50000000  0.50000000  0.00000000  1
  Au  Au2  1  0.50000000  0.50000000  0.50000000  1
  Au  Au3  1  0.00000000  0.00000000  0.00000000  1
  N  N0  1  0.89149400  0.88862600  0.52717600  1
  N  N1  1  0.60850600  0.61137400  0.02717600  1
  N  N2  1  0.39149400  0.61137400  0.47282400  1
  N  N3  1  0.10850600  0.88862600  0.97282400  1
  N  N4  1  0.10850600  0.11137400  0.47282400  1
  N  N5  1  0.39149400  0.38862600  0.97282400  1
  N  N6  1  0.60850600  0.38862600  0.52717600  1
  N  N7  1  0.89149400  0.11137400  0.02717600  1
  N  N8  1  0.21683600  0.82498400  0.43739800  1
  N  N9  1  0.28316400  0.67501600  0.93739800  1
  N  N10  1  0.71683600  0.67501600  0.56260200  1
  N  N11  1  0.78316400  0.82498400  0.06260200  1
  N  N12  1  0.78316400  0.17501600  0.56260200  1
  N  N13  1  0.71683600  0.32498400  0.06260200  1
  N  N14  1  0.28316400  0.32498400  0.43739800  1
  N  N15  1  0.21683600  0.17501600  0.93739800  1
  N  N16  1  0.65654700  0.93321500  0.65490700  1
  N  N17  1  0.84345300  0.56678500  0.15490700  1
  N  N18  1  0.15654700  0.56678500  0.34509300  1
  N  N19  1  0.34345300  0.93321500  0.84509300  1
  N  N20  1  0.34345300  0.06678500  0.34509300  1
  N  N21  1  0.15654700  0.43321500  0.84509300  1
  N  N22  1  0.84345300  0.43321500  0.65490700  1
  N  N23  1  0.65654700  0.06678500  0.15490700  1
  Cl  Cl0  1  0.00000000  0.71366600  0.75000000  1
  Cl  Cl1  1  0.50000000  0.78633400  0.25000000  1
  Cl  Cl2  1  0.00000000  0.28633400  0.25000000  1
  Cl  Cl3  1  0.50000000  0.21366600  0.75000000  1
loop_
_geom_bond_atom_site_label_1
_geom_bond_atom_site_label_2
_geom_bond_distance
_geom_bond_site_symmetry_2
H0 N0 1.050893 1_555
H1 N1 1.050893 1_555
H2 N2 1.050893 1_555
H3 N3 1.050893 1_555
H4 N4 1.050893 1_555
H5 N5 1.050893 1_555
H6 N6 1.050893 1_555
H7 N7 1.050893 1_555
H8 N0 1.042969 1_555
H9 N1 1.042969 1_555
H10 N2 1.042969 1_555
H11 N3 1.042969 1_555
H12 N4 1.042969 1_555
H13 N5 1.042969 1_555
H14 N6 1.042969 1_555
H15 N7 1.042969 1_555
H16 N0 1.021825 1_555
H17 N1 1.021825 1_556
H18 N2 1.021825 1_555
H19 N3 1.021825 1_554
H20 N4 1.021825 1_555
H21 N5 1.021825 1_554
H22 N6 1.021825 1_555
H23 N7 1.021825 1_556
H24 N8 1.023189 1_555
H25 N9 1.023189 1_555
H26 N10 1.023189 1_555
H27 N11 1.023189 1_555
H28 N12 1.023189 1_555
H29 N13 1.023189 1_555
H30 N14 1.023189 1_555
H31 N15 1.023189 1_555
H32 N8 1.022236 1_555
H33 N9 1.022236 1_555
H34 N10 1.022236 1_555
H35 N11 1.022236 1_555
H36 N12 1.022236 1_555
H37 N13 1.022236 1_555
H38 N14 1.022236 1_555
H39 N15 1.022236 1_555
H40 N8 1.022736 1_555
H41 N9 1.022736 1_555
H42 N10 1.022736 1_555
H43 N11 1.022736 1_555
H44 N12 1.022736 1_555
H45 N13 1.022736 1_555
H46 N14 1.022736 1_555
H47 N15 1.022736 1_555
H48 N16 1.023373 1_545
H49 N17 1.023373 1_555
H50 N18 1.023373 1_555
H51 N19 1.023373 1_545
H52 N20 1.023373 1_565
H53 N21 1.023373 1_555
H54 N22 1.023373 1_555
H55 N23 1.023373 1_565
H56 N16 1.023574 1_555
H57 N17 1.023574 1_555
H58 N18 1.023574 1_555
H59 N19 1.023574 1_555
H60 N20 1.023574 1_555
H61 N21 1.023574 1_555
H62 N22 1.023574 1_555
H63 N23 1.023574 1_555
H64 N16 1.024078 1_555
H65 N17 1.024078 1_555
H66 N18 1.024078 1_555
H67 N19 1.024078 1_555
H68 N20 1.024078 1_555
H69 N21 1.024078 1_555
H70 N22 1.024078 1_555
H71 N23 1.024078 1_555
Au0 N0 2.058579 1_445
Au0 N4 2.058579 1_555
Au1 N1 2.058579 1_555
Au1 N5 2.058579 1_554
Au2 N6 2.058579 1_555
Au2 N2 2.058579 1_555
Au3 N7 2.058579 1_455
Au3 N3 2.058579 1_544
