# generated using pymatgen
data_ZrN
_symmetry_space_group_name_H-M   'P 1'
_cell_length_a   3.21662974
_cell_length_b   3.21662974
_cell_length_c   5.70940000
_cell_angle_alpha   90.00000000
_cell_angle_beta   90.00000000
_cell_angle_gamma   119.99999475
_symmetry_Int_Tables_number   1
_chemical_formula_structural   ZrN
_chemical_formula_sum   'Zr2 N2'
_cell_volume   51.15914441
_cell_formula_units_Z   2
loop_
 _symmetry_equiv_pos_site_id
 _symmetry_equiv_pos_as_xyz
  1  'x, y, z'
loop_
 _atom_site_type_symbol
 _atom_site_label
 _atom_site_symmetry_multiplicity
 _atom_site_fract_x
 _atom_site_fract_y
 _atom_site_fract_z
 _atom_site_occupancy
  Zr  Zr0  1  0.00000000  0.00000000  0.50000000  1
  Zr  Zr1  1  0.00000000  0.00000000  0.00000000  1
  N  N0  1  0.33333300  0.66666700  0.25000000  1
  N  N1  1  0.66666700  0.33333300  0.75000000  1
loop_
_geom_bond_atom_site_label_1
_geom_bond_atom_site_label_2
_geom_bond_distance
_geom_bond_site_symmetry_2
N0 Zr0 2.342269 1_565
N0 Zr1 2.342269 1_565
N0 Zr1 2.342271 1_665
N0 Zr0 2.342271 1_555
N0 Zr1 2.342271 1_555
N0 Zr0 2.342271 1_665
N1 Zr0 2.342269 1_655
N1 Zr1 2.342269 1_656
N1 Zr0 2.342271 1_555
N1 Zr1 2.342271 1_666
N1 Zr1 2.342271 1_556
N1 Zr0 2.342271 1_665
