# generated using pymatgen
data_K3Ti8O17
_symmetry_space_group_name_H-M   'P 1'
_cell_length_a   8.07122770
_cell_length_b   8.07122770
_cell_length_c   12.09284482
_cell_angle_alpha   84.89616903
_cell_angle_beta   84.89616903
_cell_angle_gamma   27.27547690
_symmetry_Int_Tables_number   1
_chemical_formula_structural   K3Ti8O17
_chemical_formula_sum   'K3 Ti8 O17'
_cell_volume   359.50173037
_cell_formula_units_Z   1
loop_
 _symmetry_equiv_pos_site_id
 _symmetry_equiv_pos_as_xyz
  1  'x, y, z'
loop_
 _atom_site_type_symbol
 _atom_site_label
 _atom_site_symmetry_multiplicity
 _atom_site_fract_x
 _atom_site_fract_y
 _atom_site_fract_z
 _atom_site_occupancy
  K  K0  1  0.55765597  0.55765597  0.16502765  1
  K  K1  1  0.44281632  0.44281632  0.82324185  1
  K  K2  1  0.50933593  0.50933593  0.46213526  1
  Ti  Ti0  1  0.84833667  0.84833667  0.32365526  1
  Ti  Ti1  1  0.15134648  0.15134648  0.67523282  1
  Ti  Ti2  1  0.75696962  0.75696962  0.83107082  1
  Ti  Ti3  1  0.24240474  0.24240474  0.16993154  1
  Ti  Ti4  1  0.88870105  0.88870105  0.07036586  1
  Ti  Ti5  1  0.11054712  0.11054712  0.92886782  1
  Ti  Ti6  1  0.80370974  0.80370974  0.57823984  1
  Ti  Ti7  1  0.19893357  0.19893357  0.42346004  1
  O  O0  1  0.82785849  0.82785849  0.93608134  1
  O  O1  1  0.17218881  0.17218881  0.06462637  1
  O  O2  1  0.72633102  0.72633102  0.43371864  1
  O  O3  1  0.27404703  0.27404703  0.56691470  1
  O  O4  1  0.63730404  0.63730404  0.91324116  1
  O  O5  1  0.36244879  0.36244879  0.08914033  1
  O  O6  1  0.68572327  0.68572327  0.67498777  1
  O  O7  1  0.31506212  0.31506212  0.32533585  1
  O  O8  1  0.89283687  0.89283687  0.46364950  1
  O  O9  1  0.10757406  0.10757406  0.53553439  1
  O  O10  1  0.00007863  0.00007863  0.00009243  1
  O  O11  1  0.84990562  0.84990562  0.70878801  1
  O  O12  1  0.14928976  0.14928976  0.29409593  1
  O  O13  1  0.77105780  0.77105780  0.18768947  1
  O  O14  1  0.22856677  0.22856677  0.81338692  1
  O  O15  1  0.93928920  0.93928920  0.22670315  1
  O  O16  1  0.06258351  0.06258351  0.77580626  1
loop_
_geom_bond_atom_site_label_1
_geom_bond_atom_site_label_2
_geom_bond_distance
_geom_bond_site_symmetry_2
K0 O15 2.715188 1_545
K0 O15 2.715188 1_455
K0 O1 2.815054 1_655
K0 O1 2.815054 1_565
K0 O12 2.921449 1_655
K0 O12 2.921449 1_565
K0 O10 2.957270 1_565
K0 O10 2.957270 1_655
K1 O16 2.698766 1_655
K1 O16 2.698766 1_565
K1 O11 2.833897 1_545
K1 O11 2.833897 1_455
K1 O0 2.878413 1_545
K1 O0 2.878413 1_455
K1 O10 3.058429 1_566
K1 O10 3.058429 1_656
K2 O8 2.637383 1_455
K2 O8 2.637383 1_545
K2 O9 2.652331 1_655
K2 O9 2.652331 1_565
O0 Ti2 1.762896 1_555
O0 Ti4 1.957485 1_556
O1 Ti3 1.758340 1_555
O1 Ti5 1.980133 1_554
O2 Ti7 1.957417 1_565
O2 Ti7 1.957417 1_655
O2 Ti6 2.217257 1_555
O2 Ti0 2.228967 1_555
O3 Ti6 1.966866 1_545
O3 Ti6 1.966866 1_455
O3 Ti7 2.184526 1_555
O3 Ti1 2.226923 1_555
O4 Ti5 1.954221 1_565
O4 Ti5 1.954221 1_655
O4 Ti2 2.042028 1_555
O5 Ti4 1.955924 1_545
O5 Ti4 1.955924 1_455
O5 Ti3 2.040590 1_555
O6 Ti1 1.977915 1_655
O6 Ti1 1.977915 1_565
O6 Ti6 2.097175 1_555
O6 Ti2 2.279916 1_555
O7 Ti0 1.972955 1_455
O7 Ti0 1.972955 1_545
O7 Ti7 2.081109 1_555
O7 Ti3 2.285390 1_555
O8 Ti6 1.876268 1_555
O8 Ti0 1.889367 1_555
O9 Ti7 1.880222 1_555
O9 Ti1 1.880907 1_555
O10 Ti5 1.863254 1_554
O10 Ti4 1.871656 1_445
O11 Ti6 1.796365 1_555
O11 Ti2 1.979270 1_555
O12 Ti7 1.810203 1_555
O12 Ti3 1.996665 1_555
O13 Ti3 1.971658 1_655
O13 Ti3 1.971658 1_565
O13 Ti0 2.130268 1_555
O13 Ti4 2.222487 1_555
O14 Ti2 1.970612 1_545
O14 Ti2 1.970612 1_455
O14 Ti1 2.151541 1_555
O14 Ti5 2.214625 1_555
O15 Ti0 1.761841 1_555
O15 Ti4 2.116295 1_555
O16 Ti1 1.762969 1_555
O16 Ti5 2.060857 1_555
