# generated using pymatgen
data_ZnCo(Si2O5)2
_symmetry_space_group_name_H-M   'P 1'
_cell_length_a   7.30577500
_cell_length_b   7.30577500
_cell_length_c   14.94198100
_cell_angle_alpha   90.00000000
_cell_angle_beta   90.00000000
_cell_angle_gamma   90.00000000
_symmetry_Int_Tables_number   1
_chemical_formula_structural   ZnCo(Si2O5)2
_chemical_formula_sum   'Zn4 Co4 Si16 O40'
_cell_volume   797.51849894
_cell_formula_units_Z   4
loop_
 _symmetry_equiv_pos_site_id
 _symmetry_equiv_pos_as_xyz
  1  'x, y, z'
loop_
 _atom_site_type_symbol
 _atom_site_label
 _atom_site_symmetry_multiplicity
 _atom_site_fract_x
 _atom_site_fract_y
 _atom_site_fract_z
 _atom_site_occupancy
  Zn  Zn0  1  0.50000000  0.50000000  0.50000000  1
  Zn  Zn1  1  0.00000000  0.00000000  0.50000000  1
  Zn  Zn2  1  0.00000000  0.00000000  0.00000000  1
  Zn  Zn3  1  0.50000000  0.50000000  0.00000000  1
  Co  Co0  1  0.50000000  0.00000000  0.57052700  1
  Co  Co1  1  0.00000000  0.50000000  0.92947300  1
  Co  Co2  1  0.00000000  0.50000000  0.42947300  1
  Co  Co3  1  0.50000000  0.00000000  0.07052700  1
  Si  Si0  1  0.16085200  0.24018400  0.64500100  1
  Si  Si1  1  0.83914800  0.75981600  0.64500100  1
  Si  Si2  1  0.24018400  0.16085200  0.85499900  1
  Si  Si3  1  0.74018400  0.33914800  0.64500100  1
  Si  Si4  1  0.25981600  0.66085200  0.64500100  1
  Si  Si5  1  0.33914800  0.74018400  0.85499900  1
  Si  Si6  1  0.66085200  0.25981600  0.85499900  1
  Si  Si7  1  0.75981600  0.83914800  0.85499900  1
  Si  Si8  1  0.33914800  0.25981600  0.35499900  1
  Si  Si9  1  0.66085200  0.74018400  0.35499900  1
  Si  Si10  1  0.25981600  0.33914800  0.14500100  1
  Si  Si11  1  0.75981600  0.16085200  0.35499900  1
  Si  Si12  1  0.24018400  0.83914800  0.35499900  1
  Si  Si13  1  0.16085200  0.75981600  0.14500100  1
  Si  Si14  1  0.83914800  0.24018400  0.14500100  1
  Si  Si15  1  0.74018400  0.66085200  0.14500100  1
  O  O0  1  0.23307900  0.08570600  0.57577900  1
  O  O1  1  0.76692100  0.91429400  0.57577900  1
  O  O2  1  0.08570600  0.23307900  0.92422100  1
  O  O3  1  0.58570600  0.26692100  0.57577900  1
  O  O4  1  0.41429400  0.73307900  0.57577900  1
  O  O5  1  0.26692100  0.58570600  0.92422100  1
  O  O6  1  0.73307900  0.41429400  0.92422100  1
  O  O7  1  0.91429400  0.76692100  0.92422100  1
  O  O8  1  0.26692100  0.41429400  0.42422100  1
  O  O9  1  0.73307900  0.58570600  0.42422100  1
  O  O10  1  0.41429400  0.26692100  0.07577900  1
  O  O11  1  0.91429400  0.23307900  0.42422100  1
  O  O12  1  0.08570600  0.76692100  0.42422100  1
  O  O13  1  0.23307900  0.91429400  0.07577900  1
  O  O14  1  0.76692100  0.08570600  0.07577900  1
  O  O15  1  0.25220400  0.05844400  0.37408000  1
  O  O16  1  0.58570600  0.73307900  0.07577900  1
  O  O17  1  0.75220400  0.55844400  0.62592000  1
  O  O18  1  0.44155600  0.24779600  0.87408000  1
  O  O19  1  0.94155600  0.25220400  0.62592000  1
  O  O20  1  0.05844400  0.74779600  0.62592000  1
  O  O21  1  0.25220400  0.94155600  0.87408000  1
  O  O22  1  0.74779600  0.05844400  0.87408000  1
  O  O23  1  0.55844400  0.75220400  0.87408000  1
  O  O24  1  0.69471700  0.69471700  0.25000000  1
  O  O25  1  0.80528300  0.19471700  0.25000000  1
  O  O26  1  0.19471700  0.80528300  0.25000000  1
  O  O27  1  0.30528300  0.30528300  0.25000000  1
  O  O28  1  0.80528300  0.80528300  0.75000000  1
  O  O29  1  0.69471700  0.30528300  0.75000000  1
  O  O30  1  0.30528300  0.69471700  0.75000000  1
  O  O31  1  0.19471700  0.19471700  0.75000000  1
  O  O32  1  0.94155600  0.74779600  0.12592000  1
  O  O33  1  0.75220400  0.44155600  0.12592000  1
  O  O34  1  0.24779600  0.55844400  0.12592000  1
  O  O35  1  0.44155600  0.75220400  0.37408000  1
  O  O36  1  0.55844400  0.24779600  0.37408000  1
  O  O37  1  0.05844400  0.25220400  0.12592000  1
  O  O38  1  0.74779600  0.94155600  0.37408000  1
  O  O39  1  0.24779600  0.44155600  0.62592000  1
loop_
_geom_bond_atom_site_label_1
_geom_bond_atom_site_label_2
_geom_bond_distance
_geom_bond_site_symmetry_2
Co0 O3 2.049628 1_555
Co0 O1 2.049628 1_545
Co0 O0 2.049628 1_555
Co0 O4 2.049628 1_545
Co1 O5 2.049628 1_555
Co1 O7 2.049628 1_455
Co1 O2 2.049628 1_555
Co1 O6 2.049628 1_455
Co2 O8 2.049628 1_555
Co2 O12 2.049628 1_555
Co2 O9 2.049628 1_455
Co2 O11 2.049628 1_455
Co3 O10 2.049628 1_555
Co3 O14 2.049628 1_555
Co3 O16 2.049628 1_545
Co3 O13 2.049628 1_545
O0 Si0 1.619241 1_555
O0 Zn1 2.138631 1_555
O1 Si1 1.619241 1_555
O1 Zn1 2.138631 1_665
O2 Si2 1.619241 1_555
O2 Zn2 2.138631 1_556
O3 Si3 1.619241 1_555
O3 Zn0 2.138631 1_555
O4 Si4 1.619241 1_555
O4 Zn0 2.138631 1_555
O5 Si5 1.619241 1_555
O5 Zn3 2.138631 1_556
O6 Si6 1.619241 1_555
O6 Zn3 2.138631 1_556
O7 Si7 1.619241 1_555
O7 Zn2 2.138631 1_666
O8 Si8 1.619241 1_555
O8 Zn0 2.138631 1_555
O9 Si9 1.619241 1_555
O9 Zn0 2.138631 1_555
O10 Si10 1.619241 1_555
O10 Zn3 2.138631 1_555
O11 Si11 1.619241 1_555
O11 Zn1 2.138631 1_655
O12 Si12 1.619241 1_555
O12 Zn1 2.138631 1_565
O13 Si13 1.619241 1_555
O13 Zn2 2.138631 1_565
O14 Si14 1.619241 1_555
O14 Zn2 2.138631 1_655
O15 Si8 1.627613 1_555
O15 Si12 1.629666 1_545
O16 Si15 1.619241 1_555
O16 Zn3 2.138631 1_555
O17 Si1 1.627613 1_555
O17 Si3 1.629666 1_555
O18 Si2 1.627613 1_555
O18 Si6 1.629666 1_555
O19 Si3 1.627613 1_555
O19 Si0 1.629666 1_655
O20 Si4 1.627613 1_555
O20 Si1 1.629666 1_455
O21 Si5 1.627613 1_555
O21 Si2 1.629666 1_565
O22 Si6 1.627613 1_555
O22 Si7 1.629666 1_545
O23 Si7 1.627613 1_555
O23 Si5 1.629666 1_555
O24 Si15 1.622645 1_555
O24 Si9 1.622645 1_555
O25 Si14 1.622645 1_555
O25 Si11 1.622645 1_555
O26 Si12 1.622645 1_555
O26 Si13 1.622645 1_555
O27 Si10 1.622645 1_555
O27 Si8 1.622645 1_555
O28 Si7 1.622645 1_555
O28 Si1 1.622645 1_555
O29 Si6 1.622645 1_555
O29 Si3 1.622645 1_555
O30 Si5 1.622645 1_555
O30 Si4 1.622645 1_555
O31 Si2 1.622645 1_555
O31 Si0 1.622645 1_555
O32 Si15 1.627613 1_555
O32 Si13 1.629666 1_655
O33 Si14 1.627613 1_555
O33 Si15 1.629666 1_555
O34 Si13 1.627613 1_555
O34 Si10 1.629666 1_555
O35 Si12 1.627613 1_555
O35 Si9 1.629666 1_555
O36 Si11 1.627613 1_555
O36 Si8 1.629666 1_555
O37 Si10 1.627613 1_555
O37 Si14 1.629666 1_455
O38 Si9 1.627613 1_555
O38 Si11 1.629666 1_565
O39 Si0 1.627613 1_555
O39 Si4 1.629666 1_555
