# generated using pymatgen
data_CaSeO4
_symmetry_space_group_name_H-M   'P 1'
_cell_length_a   7.09449655
_cell_length_b   6.69768018
_cell_length_c   8.31861649
_cell_angle_alpha   53.02990657
_cell_angle_beta   90.00000000
_cell_angle_gamma   90.00000000
_symmetry_Int_Tables_number   1
_chemical_formula_structural   CaSeO4
_chemical_formula_sum   'Ca4 Se4 O16'
_cell_volume   315.80313420
_cell_formula_units_Z   4
loop_
 _symmetry_equiv_pos_site_id
 _symmetry_equiv_pos_as_xyz
  1  'x, y, z'
loop_
 _atom_site_type_symbol
 _atom_site_label
 _atom_site_symmetry_multiplicity
 _atom_site_fract_x
 _atom_site_fract_y
 _atom_site_fract_z
 _atom_site_occupancy
  Ca  Ca0  1  0.35025787  0.81305971  0.77892323  1
  Ca  Ca1  1  0.14974213  0.81305971  0.27892323  1
  Ca  Ca2  1  0.64974213  0.18694029  0.22107677  1
  Ca  Ca3  1  0.85025787  0.18694029  0.72107677  1
  Se  Se0  1  0.33790536  0.30967061  0.80529799  1
  Se  Se1  1  0.16209464  0.30967061  0.30529799  1
  Se  Se2  1  0.66209464  0.69032939  0.19470201  1
  Se  Se3  1  0.83790536  0.69032939  0.69470201  1
  O  O0  1  0.49993529  0.17692834  0.75521192  1
  O  O1  1  0.00006471  0.17692834  0.25521192  1
  O  O2  1  0.50006471  0.82307166  0.24478808  1
  O  O3  1  -0.00006471  0.82307166  0.74478808  1
  O  O4  1  0.15499314  0.11684783  0.89318029  1
  O  O5  1  0.34500686  0.11684783  0.39318029  1
  O  O6  1  0.84500686  0.88315217  0.10681971  1
  O  O7  1  0.65499314  0.88315217  0.60681971  1
  O  O8  1  0.39796730  0.34233859  0.98023892  1
  O  O9  1  0.10203270  0.34233859  0.48023892  1
  O  O10  1  0.60203270  0.65766141  0.01976108  1
  O  O11  1  0.89796730  0.65766141  0.51976108  1
  O  O12  1  0.28974314  0.60011363  0.61391135  1
  O  O13  1  0.21025686  0.60011363  0.11391135  1
  O  O14  1  0.71025686  0.39988637  0.38608865  1
  O  O15  1  0.78974314  0.39988637  0.88608865  1
loop_
_geom_bond_atom_site_label_1
_geom_bond_atom_site_label_2
_geom_bond_distance
_geom_bond_site_symmetry_2
Ca0 O10 2.404069 1_556
Ca0 O13 2.450636 1_556
Ca0 O7 2.477023 1_555
Ca0 O3 2.497849 1_555
Ca0 O12 2.541162 1_555
Ca0 O8 2.551143 1_555
Ca0 O0 2.554928 1_565
Ca0 O5 2.566122 1_565
Ca1 O11 2.404069 1_455
Ca1 O12 2.450636 1_555
Ca1 O6 2.477023 1_455
Ca1 O2 2.497849 1_555
Ca1 O13 2.541162 1_555
Ca1 O9 2.551143 1_555
Ca1 O1 2.554928 1_565
Ca1 O4 2.566122 1_564
Ca2 O8 2.404069 1_554
Ca2 O15 2.450636 1_554
Ca2 O5 2.477023 1_555
Ca2 O1 2.497849 1_655
Ca2 O14 2.541162 1_555
Ca2 O10 2.551143 1_555
Ca2 O2 2.554928 1_545
Ca2 O7 2.566122 1_545
Ca3 O9 2.404069 1_655
Ca3 O14 2.450636 1_555
Ca3 O4 2.477023 1_655
Ca3 O0 2.497849 1_555
Ca3 O15 2.541162 1_555
Ca3 O11 2.551143 1_555
Ca3 O3 2.554928 1_645
Ca3 O6 2.566122 1_546
O0 Se0 1.652567 1_555
O1 Se1 1.652567 1_555
O2 Se2 1.652567 1_555
O3 Se3 1.652567 1_455
O4 Se0 1.658515 1_555
O5 Se1 1.658515 1_555
O6 Se2 1.658515 1_555
O7 Se3 1.658515 1_555
O8 Se0 1.652340 1_555
O9 Se1 1.652340 1_555
O10 Se2 1.652340 1_555
O11 Se3 1.652340 1_555
O12 Se0 1.646358 1_555
O13 Se1 1.646358 1_555
O14 Se2 1.646358 1_555
O15 Se3 1.646358 1_555
