# generated using pymatgen
data_CaYMg6O8
_symmetry_space_group_name_H-M   'P 1'
_cell_length_a   8.89519398
_cell_length_b   4.51744233
_cell_length_c   4.51744233
_cell_angle_alpha   90.00000000
_cell_angle_beta   90.00000000
_cell_angle_gamma   90.00000000
_symmetry_Int_Tables_number   1
_chemical_formula_structural   CaYMg6O8
_chemical_formula_sum   'Ca1 Y1 Mg6 O8'
_cell_volume   181.52676050
_cell_formula_units_Z   1
loop_
 _symmetry_equiv_pos_site_id
 _symmetry_equiv_pos_as_xyz
  1  'x, y, z'
loop_
 _atom_site_type_symbol
 _atom_site_label
 _atom_site_symmetry_multiplicity
 _atom_site_fract_x
 _atom_site_fract_y
 _atom_site_fract_z
 _atom_site_occupancy
  Ca  Ca0  1  0.00000000  0.00000000  0.00000000  1
  Y  Y0  1  0.00000000  0.50000000  0.50000000  1
  Mg  Mg0  1  0.50000000  0.00000000  0.00000000  1
  Mg  Mg1  1  0.50000000  0.50000000  0.50000000  1
  Mg  Mg2  1  0.26887029  0.00000000  0.50000000  1
  Mg  Mg3  1  0.73112971  0.00000000  0.50000000  1
  Mg  Mg4  1  0.26887029  0.50000000  0.00000000  1
  Mg  Mg5  1  0.73112971  0.50000000  0.00000000  1
  O  O0  1  0.26716130  0.00000000  0.00000000  1
  O  O1  1  0.73283870  0.00000000  0.00000000  1
  O  O2  1  0.26222338  0.50000000  0.50000000  1
  O  O3  1  0.73777662  0.50000000  0.50000000  1
  O  O4  1  0.00000000  0.00000000  0.50000000  1
  O  O5  1  0.50000000  0.00000000  0.50000000  1
  O  O6  1  0.00000000  0.50000000  0.00000000  1
  O  O7  1  0.50000000  0.50000000  0.00000000  1
loop_
_geom_bond_atom_site_label_1
_geom_bond_atom_site_label_2
_geom_bond_distance
_geom_bond_site_symmetry_2
Ca0 O6 2.258721 1_555
Ca0 O4 2.258721 1_555
Ca0 O4 2.258721 1_554
Ca0 O6 2.258721 1_545
Ca0 O0 2.376452 1_555
Ca0 O1 2.376452 1_455
Mg0 O1 2.071145 1_555
Mg0 O0 2.071145 1_555
Mg0 O7 2.258721 1_545
Mg0 O7 2.258721 1_555
Mg0 O5 2.258721 1_554
Mg0 O5 2.258721 1_555
Mg1 O2 2.115069 1_555
Mg1 O3 2.115069 1_555
Mg1 O5 2.258721 1_565
Mg1 O7 2.258721 1_555
Mg1 O7 2.258721 1_556
Mg1 O5 2.258721 1_555
Mg2 O5 2.055944 1_555
Mg2 O0 2.258772 1_555
Mg2 O0 2.258772 1_556
Mg2 O2 2.259495 1_555
Mg2 O2 2.259495 1_545
Mg2 O4 2.391653 1_555
Mg3 O5 2.055944 1_555
Mg3 O1 2.258772 1_555
Mg3 O1 2.258772 1_556
Mg3 O3 2.259495 1_545
Mg3 O3 2.259495 1_555
Mg3 O4 2.391653 1_655
Mg4 O7 2.055944 1_555
Mg4 O0 2.258772 1_555
Mg4 O0 2.258772 1_565
Mg4 O2 2.259495 1_555
Mg4 O2 2.259495 1_554
Mg4 O6 2.391653 1_555
Mg5 O7 2.055944 1_555
Mg5 O1 2.258772 1_555
Mg5 O1 2.258772 1_565
Mg5 O3 2.259495 1_555
Mg5 O3 2.259495 1_554
Mg5 O6 2.391653 1_655
O2 Y0 2.332528 1_555
O3 Y0 2.332528 1_655
O4 Y0 2.258721 1_545
O4 Y0 2.258721 1_555
O6 Y0 2.258721 1_554
O6 Y0 2.258721 1_555
