# generated using pymatgen
data_Li7Mn2(CoO4)3
_symmetry_space_group_name_H-M   'P 1'
_cell_length_a   3.03594900
_cell_length_b   7.54569811
_cell_length_c   9.93662236
_cell_angle_alpha   101.70819505
_cell_angle_beta   94.43164610
_cell_angle_gamma   97.67542550
_symmetry_Int_Tables_number   1
_chemical_formula_structural   Li7Mn2(CoO4)3
_chemical_formula_sum   'Li7 Mn2 Co3 O12'
_cell_volume   219.61711698
_cell_formula_units_Z   1
loop_
 _symmetry_equiv_pos_site_id
 _symmetry_equiv_pos_as_xyz
  1  'x, y, z'
loop_
 _atom_site_type_symbol
 _atom_site_label
 _atom_site_symmetry_multiplicity
 _atom_site_fract_x
 _atom_site_fract_y
 _atom_site_fract_z
 _atom_site_occupancy
  Li  Li0  1  0.74989300  0.99830500  0.74613900  1
  Li  Li1  1  0.25010700  0.00169500  0.25386100  1
  Li  Li2  1  0.42145500  0.33287200  0.74788000  1
  Li  Li3  1  0.92035500  0.33620000  0.25781300  1
  Li  Li4  1  0.07964500  0.66380000  0.74218700  1
  Li  Li5  1  0.57854500  0.66712800  0.25212000  1
  Li  Li6  1  0.50000000  0.50000000  0.50000000  1
  Mn  Mn0  1  0.66300300  0.83087900  0.99962800  1
  Mn  Mn1  1  0.33699700  0.16912100  0.00037200  1
  Co  Co0  1  0.15737400  0.82305800  0.50186200  1
  Co  Co1  1  0.84262600  0.17694200  0.49813800  1
  Co  Co2  1  0.00000000  0.50000000  0.00000000  1
  O  O0  1  0.23668700  0.92300300  0.88282100  1
  O  O1  1  0.73932200  0.93177500  0.39195600  1
  O  O2  1  0.90181800  0.25928600  0.88497300  1
  O  O3  1  0.39361000  0.24276000  0.38522600  1
  O  O4  1  0.57637800  0.58494800  0.88373900  1
  O  O5  1  0.05836000  0.61338600  0.38488100  1
  O  O6  1  0.26067800  0.06822500  0.60804400  1
  O  O7  1  0.76331300  0.07699700  0.11717900  1
  O  O8  1  0.94164000  0.38661400  0.61511900  1
  O  O9  1  0.42362200  0.41505200  0.11626100  1
  O  O10  1  0.60639000  0.75724000  0.61477400  1
  O  O11  1  0.09818200  0.74071400  0.11502700  1
loop_
_geom_bond_atom_site_label_1
_geom_bond_atom_site_label_2
_geom_bond_distance
_geom_bond_site_symmetry_2
Li0 O10 1.984747 1_555
Li0 O2 2.133167 1_565
Li0 O6 2.134334 1_565
Li0 O0 2.139839 1_655
Li0 O6 2.229379 1_665
Li0 O0 2.235791 1_555
Li1 O3 1.984747 1_555
Li1 O11 2.133167 1_545
Li1 O1 2.134334 1_545
Li1 O7 2.139839 1_455
Li1 O1 2.229379 1_445
Li1 O7 2.235791 1_555
Li2 O8 2.025986 1_455
Li2 O4 2.069387 1_555
Li2 O2 2.122993 1_555
Li2 O6 2.159958 1_555
Li2 O8 2.183295 1_555
Li2 O2 2.248981 1_455
Li3 O3 2.125118 1_655
Li3 O7 2.131713 1_555
Li3 O5 2.180999 1_655
Li3 O9 2.204125 1_555
Li3 O3 2.243068 1_555
Li3 O9 2.257384 1_655
Li4 O10 2.125118 1_455
Li4 O0 2.131713 1_555
Li4 O8 2.180999 1_455
Li4 O4 2.204125 1_555
Li4 O10 2.243068 1_555
Li4 O4 2.257384 1_455
Li5 O5 2.025986 1_655
Li5 O9 2.069387 1_555
Li5 O11 2.122993 1_555
Li5 O1 2.159958 1_555
Li5 O5 2.183295 1_555
Li5 O11 2.248981 1_655
Li6 O10 2.012422 1_555
Li6 O3 2.012422 1_555
Li6 O5 2.074814 1_555
Li6 O8 2.074814 1_555
Li6 O5 2.285498 1_655
Li6 O8 2.285498 1_455
Mn0 O4 1.947938 1_555
Mn0 O7 1.954380 1_566
Mn0 O0 1.959884 1_555
Mn0 O11 1.961094 1_656
Mn0 O11 2.242106 1_556
Mn0 O0 2.276016 1_655
Mn1 O9 1.947938 1_555
Mn1 O0 1.954380 1_544
Mn1 O7 1.959884 1_555
Mn1 O2 1.961094 1_454
Mn1 O2 2.242106 1_554
Mn1 O7 2.276016 1_455
Co0 O5 1.737011 1_555
Co0 O10 1.879994 1_555
Co0 O6 1.906730 1_565
Co0 O1 1.975851 1_455
Co0 O10 2.144260 1_455
Co0 O1 2.293844 1_555
Co1 O8 1.737011 1_555
Co1 O3 1.879994 1_555
Co1 O1 1.906730 1_545
Co1 O6 1.975851 1_655
Co1 O3 2.144260 1_655
Co1 O6 2.293844 1_555
Co2 O2 1.911687 1_454
Co2 O11 1.911687 1_555
Co2 O4 1.921102 1_454
Co2 O9 1.921102 1_555
Co2 O4 2.262911 1_554
Co2 O9 2.262911 1_455
