# generated using pymatgen
data_Sr2YTlV2O7
_symmetry_space_group_name_H-M   'P 1'
_cell_length_a   3.78854000
_cell_length_b   4.02251300
_cell_length_c   13.04117800
_cell_angle_alpha   90.00000000
_cell_angle_beta   90.00000000
_cell_angle_gamma   90.00000000
_symmetry_Int_Tables_number   1
_chemical_formula_structural   Sr2YTlV2O7
_chemical_formula_sum   'Sr2 Y1 Tl1 V2 O7'
_cell_volume   198.74039834
_cell_formula_units_Z   1
loop_
 _symmetry_equiv_pos_site_id
 _symmetry_equiv_pos_as_xyz
  1  'x, y, z'
loop_
 _atom_site_type_symbol
 _atom_site_label
 _atom_site_symmetry_multiplicity
 _atom_site_fract_x
 _atom_site_fract_y
 _atom_site_fract_z
 _atom_site_occupancy
  Sr  Sr0  1  0.00000000  0.00000000  0.31718300  1
  Sr  Sr1  1  0.00000000  0.00000000  0.68281700  1
  Y  Y0  1  0.00000000  0.00000000  0.00000000  1
  Tl  Tl0  1  0.50000000  0.50000000  0.50000000  1
  V  V0  1  0.50000000  0.50000000  0.14803200  1
  V  V1  1  0.50000000  0.50000000  0.85196800  1
  O  O0  1  0.50000000  0.00000000  0.11252900  1
  O  O1  1  0.00000000  0.50000000  0.10293100  1
  O  O2  1  0.50000000  0.00000000  0.88747100  1
  O  O3  1  0.00000000  0.50000000  0.89706900  1
  O  O4  1  0.50000000  0.50000000  0.29330200  1
  O  O5  1  0.50000000  0.50000000  0.70669800  1
  O  O6  1  0.00000000  0.00000000  0.50000000  1
loop_
_geom_bond_atom_site_label_1
_geom_bond_atom_site_label_2
_geom_bond_distance
_geom_bond_site_symmetry_2
O0 V0 2.063861 1_545
O0 V0 2.063861 1_555
O0 Y0 2.396215 1_655
O0 Y0 2.396215 1_555
O1 V0 1.983483 1_555
O1 V0 1.983483 1_455
O1 Y0 2.418064 1_555
O1 Y0 2.418064 1_565
O2 V1 2.063861 1_545
O2 V1 2.063861 1_555
O2 Y0 2.396215 1_556
O2 Y0 2.396215 1_656
O3 V1 1.983483 1_455
O3 V1 1.983483 1_555
O3 Y0 2.418064 1_566
O3 Y0 2.418064 1_556
O4 V0 1.894492 1_555
O4 Tl0 2.695585 1_555
O4 Sr0 2.780360 1_565
O4 Sr0 2.780360 1_655
O4 Sr0 2.780360 1_555
O4 Sr0 2.780360 1_665
O5 V1 1.894492 1_555
O5 Tl0 2.695585 1_555
O5 Sr1 2.780360 1_555
O5 Sr1 2.780360 1_655
O5 Sr1 2.780360 1_565
O5 Sr1 2.780360 1_665
O6 Sr1 2.384149 1_555
O6 Sr0 2.384149 1_555
O6 Tl0 2.762863 1_555
O6 Tl0 2.762863 1_545
O6 Tl0 2.762863 1_445
O6 Tl0 2.762863 1_455
