# generated using pymatgen
data_Sr2Ca2Cu3BiO8
_symmetry_space_group_name_H-M   'P 1'
_cell_length_a   6.62215852
_cell_length_b   6.68911646
_cell_length_c   6.68500791
_cell_angle_alpha   75.78445430
_cell_angle_beta   60.27566055
_cell_angle_gamma   60.26558480
_symmetry_Int_Tables_number   1
_chemical_formula_structural   Sr2Ca2Cu3BiO8
_chemical_formula_sum   'Sr2 Ca2 Cu3 Bi1 O8'
_cell_volume   223.29921246
_cell_formula_units_Z   1
loop_
 _symmetry_equiv_pos_site_id
 _symmetry_equiv_pos_as_xyz
  1  'x, y, z'
loop_
 _atom_site_type_symbol
 _atom_site_label
 _atom_site_symmetry_multiplicity
 _atom_site_fract_x
 _atom_site_fract_y
 _atom_site_fract_z
 _atom_site_occupancy
  Sr  Sr0  1  0.00000500  0.99999700  0.99999700  1
  Sr  Sr1  1  0.49999900  0.00000500  0.99999700  1
  Ca  Ca0  1  0.00000600  0.49999000  0.50001400  1
  Ca  Ca1  1  0.49999400  0.49998900  0.50001900  1
  Cu  Cu0  1  0.99999600  0.50000400  0.99999900  1
  Cu  Cu1  1  0.50000300  0.99999900  0.49999900  1
  Cu  Cu2  1  0.00000300  0.99999800  0.49999900  1
  Bi  Bi0  1  0.50003400  0.50000300  0.00000700  1
  O  O0  1  0.49312500  0.23506100  0.27804600  1
  O  O1  1  0.24250500  0.26266900  0.75119000  1
  O  O2  1  0.22923100  0.76502700  0.27796900  1
  O  O3  1  0.00587600  0.73968200  0.74894600  1
  O  O4  1  0.99411900  0.26032200  0.25105400  1
  O  O5  1  0.77074900  0.23497000  0.72203500  1
  O  O6  1  0.75749200  0.73735600  0.24878700  1
  O  O7  1  0.50686400  0.76492800  0.72194200  1
loop_
_geom_bond_atom_site_label_1
_geom_bond_atom_site_label_2
_geom_bond_distance
_geom_bond_site_symmetry_2
Ca0 O0 2.598432 1_555
Ca0 O7 2.598510 1_455
Ca0 O1 2.598902 1_555
Ca0 O6 2.599283 1_455
Ca0 O3 2.603427 1_555
Ca0 O4 2.603523 1_455
Ca0 O2 2.606382 1_555
Ca0 O5 2.606405 1_455
Ca1 O3 2.598708 1_555
Ca1 O4 2.598754 1_555
Ca1 O5 2.598831 1_555
Ca1 O2 2.599059 1_555
Ca1 O7 2.604214 1_555
Ca1 O0 2.604398 1_555
Ca1 O1 2.604536 1_555
Ca1 O6 2.604887 1_555
Cu0 O6 1.996211 1_556
Cu0 O1 1.996231 1_655
Cu0 O3 2.015973 1_655
Cu0 O4 2.015998 1_556
Cu1 O7 1.877780 1_555
Cu1 O0 1.877782 1_565
Cu1 O6 2.109993 1_555
Cu1 O1 2.110023 1_565
Cu2 O2 1.876835 1_555
Cu2 O5 1.876863 1_465
Cu2 O3 2.092112 1_555
Cu2 O4 2.092138 1_465
Bi0 O2 2.229651 1_555
Bi0 O5 2.229732 1_554
Bi0 O0 2.230671 1_555
Bi0 O7 2.230712 1_554
O0 Sr0 2.684629 1_644
O0 Sr1 2.685093 1_554
O1 Sr0 2.673457 1_545
O1 Sr1 2.677018 1_555
O2 Sr1 2.682484 1_564
O2 Sr0 2.687706 1_554
O3 Sr1 2.672975 1_465
O3 Sr0 2.674621 1_555
O4 Sr1 2.672986 1_654
O4 Sr0 2.674645 1_644
O5 Sr1 2.682331 1_555
O5 Sr0 2.687776 1_645
O6 Sr0 2.673325 1_654
O6 Sr1 2.676907 1_564
O7 Sr0 2.684556 1_555
O7 Sr1 2.685268 1_565
