# generated using pymatgen
data_CaGaSnH
_symmetry_space_group_name_H-M   'P 1'
_cell_length_a   4.38520035
_cell_length_b   4.38520035
_cell_length_c   4.96790000
_cell_angle_alpha   90.00000000
_cell_angle_beta   90.00000000
_cell_angle_gamma   120.00000522
_symmetry_Int_Tables_number   1
_chemical_formula_structural   CaGaSnH
_chemical_formula_sum   'Ca1 Ga1 Sn1 H1'
_cell_volume   82.73367834
_cell_formula_units_Z   1
loop_
 _symmetry_equiv_pos_site_id
 _symmetry_equiv_pos_as_xyz
  1  'x, y, z'
loop_
 _atom_site_type_symbol
 _atom_site_label
 _atom_site_symmetry_multiplicity
 _atom_site_fract_x
 _atom_site_fract_y
 _atom_site_fract_z
 _atom_site_occupancy
  Ca  Ca0  1  0.00000000  0.00000000  0.00000000  1
  Ga  Ga0  1  0.66666700  0.33333300  0.61640000  1
  Sn  Sn0  1  0.33333300  0.66666700  0.44650000  1
  H  H0  1  0.66666700  0.33333300  0.96400000  1
loop_
_geom_bond_atom_site_label_1
_geom_bond_atom_site_label_2
_geom_bond_distance
_geom_bond_site_symmetry_2
Ca0 H0 2.538103 1_454
Ca0 H0 2.538107 1_554
Ca0 H0 2.538107 1_444
Ca0 Sn0 3.366043 1_545
Ca0 Sn0 3.366046 1_445
Ca0 Sn0 3.366046 1_555
Ga0 H0 1.726842 1_555
Ga0 Sn0 2.668781 1_545
Ga0 Sn0 2.668781 1_655
Ga0 Sn0 2.668789 1_555
