# generated using pymatgen
data_EuPIr
_symmetry_space_group_name_H-M   'P 1'
_cell_length_a   6.26632360
_cell_length_b   6.26664376
_cell_length_c   6.26639943
_cell_angle_alpha   90.00304742
_cell_angle_beta   90.00100196
_cell_angle_gamma   89.99758664
_symmetry_Int_Tables_number   1
_chemical_formula_structural   EuPIr
_chemical_formula_sum   'Eu4 P4 Ir4'
_cell_volume   246.07409646
_cell_formula_units_Z   4
loop_
 _symmetry_equiv_pos_site_id
 _symmetry_equiv_pos_as_xyz
  1  'x, y, z'
loop_
 _atom_site_type_symbol
 _atom_site_label
 _atom_site_symmetry_multiplicity
 _atom_site_fract_x
 _atom_site_fract_y
 _atom_site_fract_z
 _atom_site_occupancy
  Eu  Eu0  1  0.38708641  0.88709314  0.61291181  1
  Eu  Eu1  1  0.88710286  0.61292401  0.38714383  1
  Eu  Eu2  1  0.61286564  0.38711836  0.88708311  1
  Eu  Eu3  1  0.11290646  0.11286236  0.11289349  1
  P  P0  1  0.66667719  0.16660297  0.33334437  1
  P  P1  1  0.16664892  0.33330420  0.66668834  1
  P  P2  1  0.33331171  0.66662561  0.16667715  1
  P  P3  1  0.83334442  0.83328850  0.83332821  1
  Ir  Ir0  1  0.08652977  0.58659625  0.91353979  1
  Ir  Ir1  1  0.58651006  0.91352296  0.08659599  1
  Ir  Ir2  1  0.91352403  0.08653541  0.58639526  1
  Ir  Ir3  1  0.41349255  0.41352623  0.41339864  1
loop_
_geom_bond_atom_site_label_1
_geom_bond_atom_site_label_2
_geom_bond_distance
_geom_bond_site_symmetry_2
Eu0 P0 3.034365 1_565
Eu0 P1 3.136912 1_565
Eu0 P3 3.137056 1_555
Eu0 P2 3.137060 1_555
Eu0 Ir2 3.224192 1_465
Eu0 Ir3 3.224457 1_555
Eu0 Ir1 3.224852 1_556
Eu0 Ir0 3.262352 1_555
Eu1 P1 3.034397 1_655
Eu1 P3 3.136482 1_555
Eu1 P2 3.136919 1_655
Eu1 P0 3.137608 1_555
Eu1 Ir2 3.224093 1_565
Eu1 Ir3 3.224378 1_555
Eu1 Ir0 3.224400 1_654
Eu1 Ir1 3.262433 1_555
Eu2 P2 3.034125 1_556
Eu2 P1 3.136781 1_555
Eu2 P3 3.136919 1_555
Eu2 P0 3.137484 1_556
Eu2 Ir3 3.224735 1_555
Eu2 Ir1 3.224739 1_546
Eu2 Ir0 3.224936 1_655
Eu2 Ir2 3.263041 1_555
Eu3 P3 3.034342 1_444
Eu3 P1 3.136944 1_554
Eu3 P0 3.136975 1_455
Eu3 P2 3.136999 1_545
Eu3 Ir2 3.223723 1_455
Eu3 Ir1 3.224108 1_545
Eu3 Ir0 3.225143 1_554
Eu3 Ir3 3.262465 1_555
Ir0 P2 2.271351 1_556
Ir0 P3 2.271456 1_455
Ir0 P1 2.272456 1_555
Ir1 P0 2.271172 1_565
Ir1 P2 2.272311 1_555
Ir1 P3 2.272438 1_554
Ir2 P0 2.271311 1_555
Ir2 P1 2.271686 1_655
Ir2 P3 2.272834 1_545
Ir3 P2 2.271246 1_555
Ir3 P0 2.272197 1_555
Ir3 P1 2.272622 1_555
