# generated using pymatgen
data_Ba2Ca4TlCu5O13
_symmetry_space_group_name_H-M   'P 1'
_cell_length_a   3.83776300
_cell_length_b   3.85260300
_cell_length_c   22.66977200
_cell_angle_alpha   90.00000000
_cell_angle_beta   90.00000000
_cell_angle_gamma   90.00000000
_symmetry_Int_Tables_number   1
_chemical_formula_structural   Ba2Ca4TlCu5O13
_chemical_formula_sum   'Ba2 Ca4 Tl1 Cu5 O13'
_cell_volume   335.18113113
_cell_formula_units_Z   1
loop_
 _symmetry_equiv_pos_site_id
 _symmetry_equiv_pos_as_xyz
  1  'x, y, z'
loop_
 _atom_site_type_symbol
 _atom_site_label
 _atom_site_symmetry_multiplicity
 _atom_site_fract_x
 _atom_site_fract_y
 _atom_site_fract_z
 _atom_site_occupancy
  Ba  Ba0  1  0.00000000  0.01106000  0.61776900  1
  Ba  Ba1  1  0.00000000  0.01106000  0.38223100  1
  Ca  Ca0  1  0.00000000  0.00000800  0.92664700  1
  Ca  Ca1  1  0.00000000  0.00000800  0.07335300  1
  Ca  Ca2  1  0.00000000  0.00107900  0.77973400  1
  Ca  Ca3  1  0.00000000  0.00107900  0.22026600  1
  Tl  Tl0  1  0.50000000  0.58358100  0.50000000  1
  Cu  Cu0  1  0.50000000  0.50286200  0.70846700  1
  Cu  Cu1  1  0.50000000  0.50286200  0.29153300  1
  Cu  Cu2  1  0.50000000  0.50008900  0.85468300  1
  Cu  Cu3  1  0.50000000  0.50008900  0.14531700  1
  Cu  Cu4  1  0.50000000  0.50001700  0.00000000  1
  O  O0  1  0.50000000  0.00007900  0.85776500  1
  O  O1  1  0.00000000  0.50007500  0.85793200  1
  O  O2  1  0.50000000  0.00007900  0.14223500  1
  O  O3  1  0.00000000  0.50007500  0.14206800  1
  O  O4  1  0.50000000  0.50344800  0.59315300  1
  O  O5  1  0.50000000  0.50344800  0.40684700  1
  O  O6  1  0.50000000  0.00264800  0.71711300  1
  O  O7  1  0.00000000  0.50237000  0.71754000  1
  O  O8  1  0.50000000  0.00264800  0.28288700  1
  O  O9  1  0.00000000  0.50237000  0.28246000  1
  O  O10  1  0.00000000  0.93693400  0.50000000  1
  O  O11  1  0.50000000  0.00001300  0.00000000  1
  O  O12  1  0.00000000  0.50001700  0.00000000  1
loop_
_geom_bond_atom_site_label_1
_geom_bond_atom_site_label_2
_geom_bond_distance
_geom_bond_site_symmetry_2
Ba0 O10 2.685027 1_545
Ba0 O4 2.755364 1_555
Ba0 O4 2.755364 1_455
Ba0 O4 2.796067 1_545
Ba0 O4 2.796067 1_445
Ba0 O7 2.949314 1_555
Ba0 O6 2.958908 1_555
Ba0 O6 2.958908 1_455
Ba0 O7 2.992727 1_545
Ba1 O10 2.685027 1_545
Ba1 O5 2.755364 1_455
Ba1 O5 2.755364 1_555
Ba1 O5 2.796067 1_445
Ba1 O5 2.796067 1_545
Ba1 O9 2.949314 1_555
Ba1 O8 2.958908 1_455
Ba1 O8 2.958908 1_555
Ba1 O9 2.992727 1_545
Ca0 O0 2.473967 1_555
Ca0 O0 2.473967 1_455
Ca0 O1 2.477143 1_545
Ca0 O1 2.477545 1_555
Ca0 O11 2.539159 1_456
Ca0 O11 2.539159 1_556
Ca0 O12 2.544745 1_546
Ca0 O12 2.544797 1_556
Ca1 O2 2.473967 1_455
Ca1 O2 2.473967 1_555
Ca1 O3 2.477143 1_545
Ca1 O3 2.477545 1_555
Ca1 O11 2.539159 1_555
Ca1 O11 2.539159 1_455
Ca1 O12 2.544745 1_545
Ca1 O12 2.544797 1_555
Ca2 O7 2.383146 1_545
Ca2 O6 2.386926 1_555
Ca2 O6 2.386926 1_455
Ca2 O7 2.391173 1_555
Ca2 O0 2.609844 1_455
Ca2 O0 2.609844 1_555
Ca2 O1 2.615019 1_555
Ca2 O1 2.620712 1_545
Ca3 O9 2.383146 1_545
Ca3 O8 2.386926 1_555
Ca3 O8 2.386926 1_455
Ca3 O9 2.391173 1_555
Ca3 O2 2.609844 1_455
Ca3 O2 2.609844 1_555
Ca3 O3 2.615019 1_555
Ca3 O3 2.620712 1_545
Cu0 O7 1.929874 1_555
Cu0 O7 1.929874 1_655
Cu0 O6 1.935427 1_565
Cu0 O6 1.937068 1_555
Cu0 O4 2.614143 1_555
Cu1 O9 1.929874 1_555
Cu1 O9 1.929874 1_655
Cu1 O8 1.935427 1_565
Cu1 O8 1.937068 1_555
Cu1 O5 2.614143 1_555
Cu2 O1 1.920295 1_655
Cu2 O1 1.920295 1_555
Cu2 O0 1.927530 1_565
Cu2 O0 1.927607 1_555
Cu3 O3 1.920295 1_555
Cu3 O3 1.920295 1_655
Cu3 O2 1.927530 1_565
Cu3 O2 1.927607 1_555
Cu4 O12 1.918881 1_555
Cu4 O12 1.918881 1_655
Cu4 O11 1.926286 1_565
Cu4 O11 1.926317 1_555
O4 Tl0 2.134204 1_555
O5 Tl0 2.134204 1_555
O10 Tl0 2.352727 1_555
O10 Tl0 2.352727 1_455
