# generated using pymatgen
data_RbAu5
_symmetry_space_group_name_H-M   'P 1'
_cell_length_a   5.81821595
_cell_length_b   5.81821517
_cell_length_c   4.50082893
_cell_angle_alpha   90.00000000
_cell_angle_beta   90.00000000
_cell_angle_gamma   119.99999850
_symmetry_Int_Tables_number   1
_chemical_formula_structural   RbAu5
_chemical_formula_sum   'Rb1 Au5'
_cell_volume   131.94798404
_cell_formula_units_Z   1
loop_
 _symmetry_equiv_pos_site_id
 _symmetry_equiv_pos_as_xyz
  1  'x, y, z'
loop_
 _atom_site_type_symbol
 _atom_site_label
 _atom_site_symmetry_multiplicity
 _atom_site_fract_x
 _atom_site_fract_y
 _atom_site_fract_z
 _atom_site_occupancy
  Rb  Rb0  1  -0.00000000  0.00000000  -0.00000000  1
  Au  Au0  1  0.66666700  0.33333300  0.00000000  1
  Au  Au1  1  0.50000000  0.00000000  0.50000000  1
  Au  Au2  1  0.50000000  0.50000000  0.50000000  1
  Au  Au3  1  -0.00000000  0.50000000  0.50000000  1
  Au  Au4  1  0.33333300  0.66666700  -0.00000000  1
loop_
_geom_bond_atom_site_label_1
_geom_bond_atom_site_label_2
_geom_bond_distance
_geom_bond_site_symmetry_2
Au0 Au1 2.808083 1_555
Au0 Au1 2.808083 1_554
Au0 Au3 2.808083 1_654
Au0 Au3 2.808083 1_655
Au0 Au2 2.808086 1_555
Au0 Au2 2.808086 1_554
Au0 Rb0 3.359145 1_655
Au0 Rb0 3.359150 1_665
Au0 Rb0 3.359150 1_555
Au1 Au4 2.808083 1_545
Au1 Au4 2.808083 1_546
Au1 Au2 2.909108 1_555
Au1 Au2 2.909108 1_545
Au1 Au3 2.909108 1_545
Au1 Au3 2.909108 1_655
Au1 Rb0 3.677944 1_655
Au1 Rb0 3.677944 1_555
Au1 Rb0 3.677944 1_656
Au1 Rb0 3.677944 1_556
Au2 Au4 2.808086 1_555
Au2 Au4 2.808086 1_556
Au2 Au3 2.909108 1_655
Au2 Au3 2.909108 1_555
Au2 Rb0 3.677944 1_665
Au2 Rb0 3.677944 1_555
Au2 Rb0 3.677944 1_666
Au2 Rb0 3.677944 1_556
Au3 Au4 2.808083 1_556
Au3 Au4 2.808083 1_555
Au3 Rb0 3.677944 1_555
Au3 Rb0 3.677944 1_566
Au3 Rb0 3.677944 1_556
Au3 Rb0 3.677944 1_565
Au4 Rb0 3.359145 1_565
Au4 Rb0 3.359150 1_555
Au4 Rb0 3.359150 1_665
