# generated using pymatgen
data_La2Si(IO2)2
_symmetry_space_group_name_H-M   'P 1'
_cell_length_a   8.61479800
_cell_length_b   8.56450900
_cell_length_c   22.67199815
_cell_angle_alpha   87.34438842
_cell_angle_beta   90.00000000
_cell_angle_gamma   90.00000000
_symmetry_Int_Tables_number   1
_chemical_formula_structural   La2Si(IO2)2
_chemical_formula_sum   'La16 Si8 I16 O32'
_cell_volume   1670.97792828
_cell_formula_units_Z   8
loop_
 _symmetry_equiv_pos_site_id
 _symmetry_equiv_pos_as_xyz
  1  'x, y, z'
loop_
 _atom_site_type_symbol
 _atom_site_label
 _atom_site_symmetry_multiplicity
 _atom_site_fract_x
 _atom_site_fract_y
 _atom_site_fract_z
 _atom_site_occupancy
  La  La0  1  0.43699300  0.62441300  0.65456600  1
  La  La1  1  0.93699300  0.37558700  0.84543400  1
  La  La2  1  0.56300700  0.37558700  0.34543400  1
  La  La3  1  0.06300700  0.62441300  0.15456600  1
  La  La4  1  0.29680000  0.12497100  0.65499200  1
  La  La5  1  0.79680000  0.87502900  0.84500800  1
  La  La6  1  0.70320000  0.87502900  0.34500800  1
  La  La7  1  0.20320000  0.12497100  0.15499200  1
  La  La8  1  0.30602800  0.75739400  0.81265600  1
  La  La9  1  0.80602800  0.24260600  0.68734400  1
  La  La10  1  0.69397200  0.24260600  0.18734400  1
  La  La11  1  0.19397200  0.75739400  0.31265600  1
  La  La12  1  0.42685200  0.25857500  0.81226600  1
  La  La13  1  0.92685200  0.74142500  0.68773400  1
  La  La14  1  0.57314800  0.74142500  0.18773400  1
  La  La15  1  0.07314800  0.25857500  0.31226600  1
  Si  Si0  1  0.56321500  0.96261900  0.73745300  1
  Si  Si1  1  0.06321500  0.03738100  0.76254700  1
  Si  Si2  1  0.43678500  0.03738100  0.26254700  1
  Si  Si3  1  0.93678500  0.96261900  0.23745300  1
  Si  Si4  1  0.67095300  0.53621200  0.76279000  1
  Si  Si5  1  0.17095300  0.46378800  0.73721000  1
  Si  Si6  1  0.32904700  0.46378800  0.23721000  1
  Si  Si7  1  0.82904700  0.53621200  0.26279000  1
  I  I0  1  0.54882700  0.33274400  0.57188900  1
  I  I1  1  0.04882700  0.66725600  0.92811100  1
  I  I2  1  0.45117300  0.66725600  0.42811100  1
  I  I3  1  0.95117300  0.33274400  0.07188900  1
  I  I4  1  0.18492700  0.83504000  0.57192700  1
  I  I5  1  0.68492700  0.16496000  0.92807300  1
  I  I6  1  0.81507300  0.16496000  0.42807300  1
  I  I7  1  0.31507300  0.83504000  0.07192700  1
  I  I8  1  0.04417700  0.36391200  0.58047800  1
  I  I9  1  0.54417700  0.63608800  0.91952200  1
  I  I10  1  0.95582300  0.63608800  0.41952200  1
  I  I11  1  0.45582300  0.36391200  0.08047800  1
  I  I12  1  0.69332500  0.86015300  0.57978400  1
  I  I13  1  0.19332500  0.13984700  0.92021600  1
  I  I14  1  0.30667500  0.13984700  0.42021600  1
  I  I15  1  0.80667500  0.86015300  0.07978400  1
  O  O0  1  0.69189400  0.63186800  0.29566700  1
  O  O1  1  0.19189400  0.36813200  0.20433300  1
  O  O2  1  0.30810600  0.36813200  0.70433300  1
  O  O3  1  0.80810600  0.63186800  0.79566700  1
  O  O4  1  0.48980800  0.58615500  0.76950700  1
  O  O5  1  0.98980800  0.41384500  0.73049300  1
  O  O6  1  0.51019200  0.41384500  0.23049300  1
  O  O7  1  0.01019200  0.58615500  0.26950700  1
  O  O8  1  0.74581400  0.91725800  0.73120300  1
  O  O9  1  0.24581400  0.08274200  0.76879700  1
  O  O10  1  0.25418600  0.08274200  0.26879700  1
  O  O11  1  0.75418600  0.91725800  0.23120300  1
  O  O12  1  0.52802000  0.94550000  0.80946700  1
  O  O13  1  0.02802000  0.05450000  0.69053300  1
  O  O14  1  0.47198000  0.05450000  0.19053300  1
  O  O15  1  0.97198000  0.94550000  0.30946700  1
  O  O16  1  0.54168100  0.14737100  0.71526400  1
  O  O17  1  0.04168100  0.85262900  0.78473600  1
  O  O18  1  0.45831900  0.85262900  0.28473600  1
  O  O19  1  0.95831900  0.14737100  0.21526400  1
  O  O20  1  0.56957500  0.13291900  0.29772600  1
  O  O21  1  0.06957500  0.86708100  0.20227400  1
  O  O22  1  0.43042500  0.86708100  0.70227400  1
  O  O23  1  0.93042500  0.13291900  0.79772600  1
  O  O24  1  0.69179800  0.35252800  0.78636600  1
  O  O25  1  0.19179800  0.64747200  0.71363400  1
  O  O26  1  0.30820200  0.64747200  0.21363400  1
  O  O27  1  0.80820200  0.35252800  0.28636600  1
  O  O28  1  0.70442700  0.54847300  0.69052300  1
  O  O29  1  0.20442700  0.45152700  0.80947700  1
  O  O30  1  0.29557300  0.45152700  0.30947700  1
  O  O31  1  0.79557300  0.54847300  0.19052300  1
loop_
_geom_bond_atom_site_label_1
_geom_bond_atom_site_label_2
_geom_bond_distance
_geom_bond_site_symmetry_2
La0 O22 2.387659 1_555
La0 O25 2.513717 1_555
La0 O28 2.519199 1_555
La0 O4 2.650696 1_555
La0 O2 2.663481 1_555
La1 O23 2.387659 1_555
La1 O24 2.513717 1_555
La1 O29 2.519199 1_655
La1 O5 2.650696 1_555
La1 O3 2.663481 1_555
La2 O20 2.387659 1_555
La2 O27 2.513717 1_555
La2 O30 2.519199 1_555
La2 O6 2.650696 1_555
La2 O0 2.663481 1_555
La3 O21 2.387659 1_555
La3 O26 2.513717 1_555
La3 O31 2.519199 1_455
La3 O7 2.650696 1_555
La3 O1 2.663481 1_555
La4 O2 2.411182 1_555
La4 O13 2.515943 1_555
La4 O16 2.525628 1_555
La4 O9 2.625761 1_555
La4 O22 2.670814 1_545
La5 O3 2.411182 1_555
La5 O12 2.515943 1_555
La5 O17 2.525628 1_655
La5 O8 2.625761 1_555
La5 O23 2.670814 1_565
La6 O0 2.411182 1_555
La6 O15 2.515943 1_555
La6 O18 2.525628 1_555
La6 O11 2.625761 1_555
La6 O20 2.670814 1_565
La7 O1 2.411182 1_555
La7 O14 2.515943 1_555
La7 O19 2.525628 1_455
La7 O10 2.625761 1_555
La7 O21 2.670814 1_545
La8 O4 2.397380 1_555
La8 O17 2.490822 1_555
La8 O12 2.499441 1_555
La8 O25 2.662832 1_555
La8 O29 2.766062 1_555
La8 O22 2.841831 1_555
La8 O9 2.960639 1_565
La9 O5 2.397380 1_555
La9 O16 2.490822 1_555
La9 O13 2.499441 1_655
La9 O24 2.662832 1_555
La9 O28 2.766062 1_555
La9 O23 2.841831 1_555
La9 O8 2.960639 1_545
La10 O6 2.397380 1_555
La10 O19 2.490822 1_555
La10 O14 2.499441 1_555
La10 O27 2.662832 1_555
La10 O31 2.766062 1_555
La10 O20 2.841831 1_555
La10 O11 2.960639 1_545
La11 O7 2.397380 1_555
La11 O18 2.490822 1_555
La11 O15 2.499441 1_455
La11 O26 2.662832 1_555
La11 O30 2.766062 1_555
La11 O21 2.841831 1_555
La11 O10 2.960639 1_565
La12 O9 2.410181 1_555
La12 O24 2.481554 1_555
La12 O29 2.529193 1_555
La12 O16 2.629896 1_555
La12 O2 2.775285 1_555
La12 O12 2.822929 1_545
La12 O4 2.975415 1_555
La13 O8 2.410181 1_555
La13 O25 2.481554 1_655
La13 O28 2.529193 1_555
La13 O17 2.629896 1_655
La13 O3 2.775285 1_555
La13 O13 2.822929 1_665
La13 O5 2.975415 1_555
La14 O11 2.410181 1_555
La14 O26 2.481554 1_555
La14 O31 2.529193 1_555
La14 O18 2.629896 1_555
La14 O0 2.775285 1_555
La14 O14 2.822929 1_565
La14 O6 2.975415 1_555
La15 O10 2.410181 1_555
La15 O27 2.481554 1_455
La15 O30 2.529193 1_555
La15 O19 2.629896 1_455
La15 O1 2.775285 1_555
La15 O15 2.822929 1_445
La15 O7 2.975415 1_555
I0 La0 3.334017 1_555
I0 La4 3.334616 1_555
I0 La9 3.488552 1_555
I1 La1 3.334017 1_455
I1 La5 3.334616 1_455
I1 La8 3.488552 1_555
I2 La2 3.334017 1_555
I2 La6 3.334616 1_555
I2 La11 3.488552 1_555
I3 La3 3.334017 1_655
I3 La7 3.334616 1_655
I3 La10 3.488552 1_555
I4 La4 3.327863 1_565
I4 La0 3.341657 1_555
I4 La13 3.504898 1_455
I5 La5 3.327863 1_545
I5 La1 3.341657 1_555
I5 La12 3.504898 1_555
I6 La6 3.327863 1_545
I6 La2 3.341657 1_555
I6 La15 3.504898 1_655
I7 La7 3.327863 1_565
I7 La3 3.341657 1_555
I7 La14 3.504898 1_555
I8 La9 3.305371 1_455
I8 La4 3.384925 1_555
I9 La8 3.305371 1_555
I9 La5 3.384925 1_555
I10 La11 3.305371 1_655
I10 La6 3.384925 1_555
I11 La10 3.305371 1_555
I11 La7 3.384925 1_555
I12 La13 3.292511 1_555
I12 La0 3.392651 1_555
I13 La12 3.292511 1_555
I13 La1 3.392651 1_455
I14 La15 3.292511 1_555
I14 La2 3.392651 1_555
I15 La14 3.292511 1_555
I15 La3 3.392651 1_655
O0 Si7 1.636888 1_555
O1 Si6 1.636888 1_555
O2 Si5 1.636888 1_555
O3 Si4 1.636888 1_555
O4 Si4 1.627093 1_555
O5 Si5 1.627093 1_655
O6 Si6 1.627093 1_555
O7 Si7 1.627093 1_455
O8 Si0 1.628068 1_555
O9 Si1 1.628068 1_555
O10 Si2 1.628068 1_555
O11 Si3 1.628068 1_555
O12 Si0 1.660409 1_555
O13 Si1 1.660409 1_555
O14 Si2 1.660409 1_555
O15 Si3 1.660409 1_555
O16 Si0 1.648465 1_545
O17 Si1 1.648465 1_565
O18 Si2 1.648465 1_565
O19 Si3 1.648465 1_545
O20 Si2 1.635469 1_555
O21 Si3 1.635469 1_455
O22 Si0 1.635469 1_555
O23 Si1 1.635469 1_655
O24 Si4 1.647688 1_555
O25 Si5 1.647688 1_555
O26 Si6 1.647688 1_555
O27 Si7 1.647688 1_555
O28 Si4 1.662143 1_555
O29 Si5 1.662143 1_555
O30 Si6 1.662143 1_555
O31 Si7 1.662143 1_555
