# generated using pymatgen
data_EuMnBi2
_symmetry_space_group_name_H-M   'P 1'
_cell_length_a   11.25896682
_cell_length_b   11.25896682
_cell_length_c   11.25896682
_cell_angle_alpha   156.23600910
_cell_angle_beta   156.23600910
_cell_angle_gamma   33.85745476
_symmetry_Int_Tables_number   1
_chemical_formula_structural   EuMnBi2
_chemical_formula_sum   'Eu2 Mn2 Bi4'
_cell_volume   231.53436219
_cell_formula_units_Z   2
loop_
 _symmetry_equiv_pos_site_id
 _symmetry_equiv_pos_as_xyz
  1  'x, y, z'
loop_
 _atom_site_type_symbol
 _atom_site_label
 _atom_site_symmetry_multiplicity
 _atom_site_fract_x
 _atom_site_fract_y
 _atom_site_fract_z
 _atom_site_occupancy
  Eu  Eu0  1  0.88138600  0.88138600  0.00000000  1
  Eu  Eu1  1  0.11861400  0.11861400  0.00000000  1
  Mn  Mn0  1  0.75000000  0.25000000  0.50000000  1
  Mn  Mn1  1  0.25000000  0.75000000  0.50000000  1
  Bi  Bi0  1  0.00000000  0.50000000  0.50000000  1
  Bi  Bi1  1  0.50000000  0.00000000  0.50000000  1
  Bi  Bi2  1  0.67168100  0.67168100  0.00000000  1
  Bi  Bi3  1  0.32831900  0.32831900  0.00000000  1
loop_
_geom_bond_atom_site_label_1
_geom_bond_atom_site_label_2
_geom_bond_distance
_geom_bond_site_symmetry_2
Eu0 Mn0 3.658525 1_554
Eu0 Mn1 3.658525 1_554
Eu0 Mn0 3.658525 1_565
Eu0 Mn1 3.658525 1_655
Eu1 Mn1 3.658525 1_555
Eu1 Mn0 3.658525 1_555
Eu1 Mn1 3.658525 1_544
Eu1 Mn0 3.658525 1_454
Mn0 Mn1 3.278407 1_544
Mn0 Mn1 3.278407 1_656
Mn0 Mn1 3.278407 1_645
Mn0 Mn1 3.278407 1_555
Bi0 Bi1 3.278407 1_465
Bi0 Bi1 3.278407 1_555
Bi0 Bi1 3.278407 1_566
Bi0 Bi1 3.278407 1_454
Bi0 Eu1 3.450079 1_566
Bi0 Eu0 3.450079 1_445
Bi0 Eu1 3.450079 1_555
Bi0 Eu0 3.450079 1_456
Bi1 Eu1 3.450079 1_555
Bi1 Eu0 3.450079 1_546
Bi1 Eu0 3.450079 1_445
Bi1 Eu1 3.450079 1_656
Bi2 Mn1 2.867140 1_655
Bi2 Mn1 2.867140 1_554
Bi2 Mn0 2.867140 1_565
Bi2 Mn0 2.867140 1_554
Bi2 Eu1 3.472004 1_554
Bi2 Eu1 3.472004 1_655
Bi2 Eu1 3.472004 1_565
Bi2 Eu1 3.472004 1_666
Bi3 Mn0 2.867140 1_454
Bi3 Mn0 2.867140 1_555
Bi3 Mn1 2.867140 1_555
Bi3 Mn1 2.867140 1_544
Bi3 Eu0 3.472004 1_444
Bi3 Eu0 3.472004 1_556
Bi3 Eu0 3.472004 1_545
Bi3 Eu0 3.472004 1_455
