# generated using pymatgen
data_MnV8O24
_symmetry_space_group_name_H-M   'P 1'
_cell_length_a   8.02347000
_cell_length_b   11.75795521
_cell_length_c   10.69503729
_cell_angle_alpha   90.75985535
_cell_angle_beta   90.00000000
_cell_angle_gamma   90.00000000
_symmetry_Int_Tables_number   1
_chemical_formula_structural   MnV8O24
_chemical_formula_sum   'Mn2 V16 O48'
_cell_volume   1008.87682220
_cell_formula_units_Z   2
loop_
 _symmetry_equiv_pos_site_id
 _symmetry_equiv_pos_as_xyz
  1  'x, y, z'
loop_
 _atom_site_type_symbol
 _atom_site_label
 _atom_site_symmetry_multiplicity
 _atom_site_fract_x
 _atom_site_fract_y
 _atom_site_fract_z
 _atom_site_occupancy
  Mn  Mn0  1  0.00000000  0.00000000  0.00000000  1
  Mn  Mn1  1  0.50000000  0.00000000  0.50000000  1
  V  V0  1  0.53955800  0.64241400  0.91504000  1
  V  V1  1  0.46044200  0.35758600  0.08496000  1
  V  V2  1  0.03955800  0.35758600  0.58496000  1
  V  V3  1  0.96044200  0.64241400  0.41504000  1
  V  V4  1  0.97095100  0.66235000  0.97485000  1
  V  V5  1  0.02904900  0.33765000  0.02515000  1
  V  V6  1  0.47095100  0.33765000  0.52515000  1
  V  V7  1  0.52904900  0.66235000  0.47485000  1
  V  V8  1  0.72412900  0.35648700  0.79894800  1
  V  V9  1  0.27587100  0.64351300  0.20105200  1
  V  V10  1  0.22412900  0.64351300  0.70105200  1
  V  V11  1  0.77587100  0.35648700  0.29894800  1
  V  V12  1  0.83916800  0.64748100  0.68760500  1
  V  V13  1  0.16083200  0.35251900  0.31239500  1
  V  V14  1  0.33916800  0.35251900  0.81239500  1
  V  V15  1  0.66083200  0.64748100  0.18760500  1
  O  O0  1  0.28712100  0.99117000  0.49062600  1
  O  O1  1  0.71287900  0.00883000  0.50937400  1
  O  O2  1  0.78712100  0.00883000  0.00937400  1
  O  O3  1  0.21287900  0.99117000  0.99062600  1
  O  O4  1  0.53873200  0.38769200  0.91738600  1
  O  O5  1  0.46126800  0.61230800  0.08261400  1
  O  O6  1  0.03873200  0.61230800  0.58261400  1
  O  O7  1  0.96126800  0.38769200  0.41738600  1
  O  O8  1  0.51987400  0.37682200  0.68812700  1
  O  O9  1  0.48012600  0.62317800  0.31187300  1
  O  O10  1  0.01987400  0.62317800  0.81187300  1
  O  O11  1  0.98012600  0.37682200  0.18812700  1
  O  O12  1  0.87992800  0.39627500  0.92391300  1
  O  O13  1  0.12007200  0.60372500  0.07608700  1
  O  O14  1  0.37992800  0.60372500  0.57608700  1
  O  O15  1  0.62007200  0.39627500  0.42391300  1
  O  O16  1  0.24017900  0.77867700  0.70551200  1
  O  O17  1  0.75982100  0.22132300  0.29448800  1
  O  O18  1  0.74017900  0.22132300  0.79448800  1
  O  O19  1  0.25982100  0.77867700  0.20551200  1
  O  O20  1  0.52205100  0.99423100  0.65935400  1
  O  O21  1  0.47794900  0.00576900  0.34064600  1
  O  O22  1  0.02205100  0.00576900  0.84064600  1
  O  O23  1  0.97794900  0.99423100  0.15935400  1
  O  O24  1  0.74101200  0.62305200  0.52485300  1
  O  O25  1  0.25898800  0.37694800  0.47514700  1
  O  O26  1  0.24101200  0.37694800  0.97514700  1
  O  O27  1  0.75898800  0.62305200  0.02485300  1
  O  O28  1  0.85386000  0.40590900  0.66759300  1
  O  O29  1  0.14614000  0.59409100  0.33240700  1
  O  O30  1  0.35386000  0.59409100  0.83240700  1
  O  O31  1  0.64614000  0.40590900  0.16759300  1
  O  O32  1  0.81862400  0.78216600  0.70331500  1
  O  O33  1  0.18137600  0.21783400  0.29668500  1
  O  O34  1  0.31862400  0.21783400  0.79668500  1
  O  O35  1  0.68137600  0.78216600  0.20331500  1
  O  O36  1  0.53866000  0.77742500  0.90161400  1
  O  O37  1  0.46134000  0.22257500  0.09838600  1
  O  O38  1  0.03866000  0.22257500  0.59838600  1
  O  O39  1  0.96134000  0.77742500  0.40161400  1
  O  O40  1  0.98344200  0.79930200  0.98728600  1
  O  O41  1  0.01655800  0.20069800  0.01271400  1
  O  O42  1  0.48344200  0.20069800  0.51271400  1
  O  O43  1  0.51655800  0.79930200  0.48728600  1
  O  O44  1  0.68559200  0.58703400  0.79004500  1
  O  O45  1  0.31440800  0.41296600  0.20995500  1
  O  O46  1  0.18559200  0.41296600  0.70995500  1
  O  O47  1  0.81440800  0.58703400  0.29004500  1
loop_
_geom_bond_atom_site_label_1
_geom_bond_atom_site_label_2
_geom_bond_distance
_geom_bond_site_symmetry_2
Mn0 O3 1.714035 1_544
Mn0 O2 1.714035 1_455
Mn0 O22 1.715692 1_554
Mn0 O23 1.715692 1_445
Mn0 O41 2.365645 1_555
Mn0 O40 2.365645 1_444
Mn1 O1 1.714035 1_555
Mn1 O0 1.714035 1_545
Mn1 O20 1.715692 1_545
Mn1 O21 1.715692 1_555
Mn1 O42 2.365645 1_555
Mn1 O43 2.365645 1_545
O4 V1 1.936164 1_556
O4 V8 1.984832 1_555
O4 V14 1.995848 1_555
O5 V0 1.936164 1_554
O5 V9 1.984832 1_555
O5 V15 1.995848 1_555
O6 V3 1.936164 1_455
O6 V10 1.984832 1_555
O6 V12 1.995848 1_455
O7 V2 1.936164 1_655
O7 V11 1.984832 1_555
O7 V13 1.995848 1_655
O8 V6 1.839329 1_555
O8 V14 1.990046 1_555
O8 V8 2.038441 1_555
O9 V7 1.839329 1_555
O9 V15 1.990046 1_555
O9 V9 2.038441 1_555
O10 V4 1.839329 1_455
O10 V12 1.990046 1_455
O10 V10 2.038441 1_555
O11 V5 1.839329 1_655
O11 V13 1.990046 1_655
O11 V11 2.038441 1_555
O12 V5 1.760338 1_656
O12 V8 1.884448 1_555
O13 V4 1.760338 1_454
O13 V9 1.884448 1_555
O14 V7 1.760338 1_555
O14 V10 1.884448 1_555
O15 V6 1.760338 1_555
O15 V11 1.884448 1_555
O16 V10 1.594544 1_555
O17 V11 1.594544 1_555
O18 V8 1.594544 1_555
O19 V9 1.594544 1_555
O24 V7 1.843464 1_555
O24 V12 1.928550 1_555
O24 V3 2.130244 1_555
O25 V6 1.843464 1_555
O25 V13 1.928550 1_555
O25 V2 2.130244 1_555
O26 V5 1.843464 1_556
O26 V14 1.928550 1_555
O26 V1 2.130244 1_556
O27 V4 1.843464 1_554
O27 V15 1.928550 1_555
O27 V0 2.130244 1_554
O28 V2 1.819471 1_655
O28 V8 1.848346 1_555
O29 V3 1.819471 1_455
O29 V9 1.848346 1_555
O30 V0 1.819471 1_555
O30 V10 1.848346 1_555
O31 V1 1.819471 1_555
O31 V11 1.848346 1_555
O32 V12 1.598811 1_555
O33 V13 1.598811 1_555
O34 V14 1.598811 1_555
O35 V15 1.598811 1_555
O36 V0 1.595846 1_555
O37 V1 1.595846 1_555
O38 V2 1.595846 1_555
O39 V3 1.595846 1_555
O40 V4 1.617109 1_555
O41 V5 1.617109 1_555
O42 V6 1.617109 1_555
O43 V7 1.617109 1_555
O44 V12 1.801244 1_555
O44 V0 1.887035 1_555
O45 V13 1.801244 1_555
O45 V1 1.887035 1_555
O46 V14 1.801244 1_555
O46 V2 1.887035 1_555
O47 V15 1.801244 1_555
O47 V3 1.887035 1_555
