# generated using pymatgen
data_Zn(FeS2)2
_symmetry_space_group_name_H-M   'P 1'
_cell_length_a   6.84655717
_cell_length_b   6.84655717
_cell_length_c   6.84655717
_cell_angle_alpha   60.00000000
_cell_angle_beta   60.00000000
_cell_angle_gamma   60.00000000
_symmetry_Int_Tables_number   1
_chemical_formula_structural   Zn(FeS2)2
_chemical_formula_sum   'Zn2 Fe4 S8'
_cell_volume   226.93512350
_cell_formula_units_Z   2
loop_
 _symmetry_equiv_pos_site_id
 _symmetry_equiv_pos_as_xyz
  1  'x, y, z'
loop_
 _atom_site_type_symbol
 _atom_site_label
 _atom_site_symmetry_multiplicity
 _atom_site_fract_x
 _atom_site_fract_y
 _atom_site_fract_z
 _atom_site_occupancy
  Zn  Zn0  1  0.50000000  0.50000000  0.50000000  1
  Zn  Zn1  1  0.75000000  0.75000000  0.75000000  1
  Fe  Fe0  1  0.12500000  0.12500000  0.12500000  1
  Fe  Fe1  1  0.62500000  0.12500000  0.12500000  1
  Fe  Fe2  1  0.12500000  0.62500000  0.12500000  1
  Fe  Fe3  1  0.12500000  0.12500000  0.62500000  1
  S  S0  1  0.36073300  0.36073300  0.36073300  1
  S  S1  1  0.33219800  0.88926700  0.88926700  1
  S  S2  1  0.88926700  0.88926700  0.33219800  1
  S  S3  1  0.88926700  0.33219800  0.88926700  1
  S  S4  1  0.36073300  0.36073300  0.91780200  1
  S  S5  1  0.36073300  0.91780200  0.36073300  1
  S  S6  1  0.88926700  0.88926700  0.88926700  1
  S  S7  1  0.91780200  0.36073300  0.36073300  1
loop_
_geom_bond_atom_site_label_1
_geom_bond_atom_site_label_2
_geom_bond_distance
_geom_bond_site_symmetry_2
Fe0 S7 2.290829 1_455
Fe0 S4 2.290829 1_554
Fe0 S5 2.290829 1_545
Fe0 S3 2.290829 1_454
Fe0 S1 2.290829 1_544
Fe0 S2 2.290829 1_445
Fe1 S3 2.290824 1_554
Fe1 S2 2.290824 1_545
Fe1 S5 2.290824 1_545
Fe1 S4 2.290824 1_554
Fe1 S0 2.290829 1_555
Fe1 S6 2.290829 1_544
Fe2 S1 2.290824 1_554
Fe2 S2 2.290824 1_455
Fe2 S7 2.290824 1_455
Fe2 S4 2.290824 1_554
Fe2 S0 2.290829 1_555
Fe2 S6 2.290829 1_454
Fe3 S1 2.290824 1_545
Fe3 S3 2.290824 1_455
Fe3 S7 2.290824 1_455
Fe3 S5 2.290824 1_545
Fe3 S0 2.290829 1_555
Fe3 S6 2.290829 1_445
S0 Zn0 2.335587 1_555
S1 Zn1 2.335593 1_555
S2 Zn1 2.335593 1_555
S3 Zn1 2.335593 1_555
S4 Zn0 2.335593 1_555
S5 Zn0 2.335593 1_555
S6 Zn1 2.335587 1_555
S7 Zn0 2.335593 1_555
