# generated using pymatgen
data_La9Ga5Se21
_symmetry_space_group_name_H-M   'P 1'
_cell_length_a   12.44764485
_cell_length_b   12.44764485
_cell_length_c   12.44764502
_cell_angle_alpha   96.44449963
_cell_angle_beta   96.44449963
_cell_angle_gamma   96.44450389
_symmetry_Int_Tables_number   1
_chemical_formula_structural   La9Ga5Se21
_chemical_formula_sum   'La18 Ga10 Se42'
_cell_volume   1889.10656143
_cell_formula_units_Z   2
loop_
 _symmetry_equiv_pos_site_id
 _symmetry_equiv_pos_as_xyz
  1  'x, y, z'
loop_
 _atom_site_type_symbol
 _atom_site_label
 _atom_site_symmetry_multiplicity
 _atom_site_fract_x
 _atom_site_fract_y
 _atom_site_fract_z
 _atom_site_occupancy
  La  La0  1  0.11683400  0.88196700  0.74696900  1
  La  La1  1  0.45480700  0.21984600  0.08181200  1
  La  La2  1  0.78331000  0.55082300  0.41194000  1
  La  La3  1  0.41194000  0.78331000  0.55082300  1
  La  La4  1  0.74696900  0.11683400  0.88196700  1
  La  La5  1  0.08181200  0.45480700  0.21984600  1
  La  La6  1  0.21984600  0.08181200  0.45480700  1
  La  La7  1  0.55082300  0.41194000  0.78331000  1
  La  La8  1  0.88196700  0.74696900  0.11683400  1
  La  La9  1  0.21382800  0.44750900  0.58363000  1
  La  La10  1  0.54944700  0.78416500  0.92262600  1
  La  La11  1  0.88092900  0.11412900  0.25193800  1
  La  La12  1  0.92262600  0.54944700  0.78416500  1
  La  La13  1  0.25193800  0.88092900  0.11412900  1
  La  La14  1  0.58363000  0.21382800  0.44750900  1
  La  La15  1  0.11412900  0.25193800  0.88092900  1
  La  La16  1  0.44750900  0.58363000  0.21382800  1
  La  La17  1  0.78416500  0.92262600  0.54944700  1
  Ga  Ga0  1  0.72206500  0.38860300  0.05558200  1
  Ga  Ga1  1  0.05558200  0.72206500  0.38860300  1
  Ga  Ga2  1  0.38860300  0.05558200  0.72206500  1
  Ga  Ga3  1  0.88832400  0.22245100  0.55550300  1
  Ga  Ga4  1  0.22245100  0.55550300  0.88832400  1
  Ga  Ga5  1  0.55550300  0.88832400  0.22245100  1
  Ga  Ga6  1  0.85172500  0.85172500  0.85172500  1
  Ga  Ga7  1  0.15487200  0.15487200  0.15487200  1
  Ga  Ga8  1  0.65478400  0.65478400  0.65478400  1
  Ga  Ga9  1  0.35165700  0.35165700  0.35165700  1
  Se  Se0  1  0.54850800  0.39242000  0.30441100  1
  Se  Se1  1  0.88334800  0.73859500  0.65250900  1
  Se  Se2  1  0.22747400  0.07786500  0.98546700  1
  Se  Se3  1  0.98546700  0.22747400  0.07786500  1
  Se  Se4  1  0.30441100  0.54850800  0.39242000  1
  Se  Se5  1  0.65250900  0.88334800  0.73859500  1
  Se  Se6  1  0.73859500  0.65250900  0.88334800  1
  Se  Se7  1  0.07786500  0.98546700  0.22747400  1
  Se  Se8  1  0.39242000  0.30441100  0.54850800  1
  Se  Se9  1  0.13311100  0.27808300  0.36358300  1
  Se  Se10  1  0.46625800  0.61575300  0.70853300  1
  Se  Se11  1  0.78174800  0.93764700  0.02570900  1
  Se  Se12  1  0.70853300  0.46625800  0.61575300  1
  Se  Se13  1  0.02570900  0.78174800  0.93764700  1
  Se  Se14  1  0.36358300  0.13311100  0.27808300  1
  Se  Se15  1  0.93764700  0.02570900  0.78174800  1
  Se  Se16  1  0.27808300  0.36358300  0.13311100  1
  Se  Se17  1  0.61575300  0.70853300  0.46625800  1
  Se  Se18  1  0.54197600  0.44797900  0.02337400  1
  Se  Se19  1  0.87588200  0.78056700  0.35940300  1
  Se  Se20  1  0.20636800  0.11116700  0.69646800  1
  Se  Se21  1  0.69646800  0.20636800  0.11116700  1
  Se  Se22  1  0.02337400  0.54197600  0.44797900  1
  Se  Se23  1  0.35940300  0.87588200  0.78056700  1
  Se  Se24  1  0.78056700  0.35940300  0.87588200  1
  Se  Se25  1  0.11116700  0.69646800  0.20636800  1
  Se  Se26  1  0.44797900  0.02337400  0.54197600  1
  Se  Se27  1  0.96826000  0.06523500  0.48028500  1
  Se  Se28  1  0.30187100  0.39617800  0.81545300  1
  Se  Se29  1  0.63490400  0.72761400  0.15366500  1
  Se  Se30  1  0.81545300  0.30187100  0.39617800  1
  Se  Se31  1  0.15366500  0.63490400  0.72761400  1
  Se  Se32  1  0.48028500  0.96826000  0.06523500  1
  Se  Se33  1  0.72761400  0.15366500  0.63490400  1
  Se  Se34  1  0.06523500  0.48028500  0.96826000  1
  Se  Se35  1  0.39617800  0.81545300  0.30187100  1
  Se  Se36  1  0.84642300  0.51590600  0.18165500  1
  Se  Se37  1  0.18165500  0.84642300  0.51590600  1
  Se  Se38  1  0.51590600  0.18165500  0.84642300  1
  Se  Se39  1  0.68102200  0.01631300  0.34672300  1
  Se  Se40  1  0.01631300  0.34672300  0.68102200  1
  Se  Se41  1  0.34672300  0.68102200  0.01631300  1
loop_
_geom_bond_atom_site_label_1
_geom_bond_atom_site_label_2
_geom_bond_distance
_geom_bond_site_symmetry_2
La0 Se23 3.012055 1_555
La0 Se15 3.050002 1_465
La0 Se13 3.070455 1_555
La0 Se37 3.071594 1_555
La0 Se20 3.102088 1_565
La0 Se31 3.146585 1_555
La0 Se1 3.257581 1_455
La0 Se2 3.655065 1_565
La1 Se21 3.015079 1_555
La1 Se14 3.059986 1_555
La1 Se16 3.064381 1_555
La1 Se38 3.107773 1_554
La1 Se18 3.117638 1_555
La1 Se32 3.169067 1_545
La1 Se2 3.195150 1_554
La1 Se0 3.320896 1_555
La2 Se22 2.987798 1_655
La2 Se12 3.052931 1_555
La2 Se36 3.053758 1_555
La2 Se17 3.098197 1_555
La2 Se19 3.127780 1_555
La2 Se30 3.156108 1_555
La2 Se0 3.384878 1_555
La2 Se1 3.594330 1_555
La3 Se26 2.987798 1_565
La3 Se17 3.052931 1_555
La3 Se37 3.053758 1_555
La3 Se10 3.098197 1_555
La3 Se23 3.127780 1_555
La3 Se35 3.156108 1_555
La3 Se4 3.384878 1_555
La3 Se5 3.594330 1_555
La4 Se24 3.012055 1_555
La4 Se11 3.050002 1_546
La4 Se15 3.070455 1_555
La4 Se38 3.071594 1_555
La4 Se21 3.102088 1_556
La4 Se33 3.146585 1_555
La4 Se5 3.257581 1_545
La4 Se3 3.655065 1_556
La5 Se25 3.015079 1_555
La5 Se16 3.059986 1_555
La5 Se9 3.064381 1_555
La5 Se36 3.107773 1_455
La5 Se22 3.117638 1_555
La5 Se34 3.169067 1_554
La5 Se3 3.195150 1_455
La5 Se4 3.320896 1_555
La6 Se20 3.015079 1_555
La6 Se9 3.059986 1_555
La6 Se14 3.064381 1_555
La6 Se37 3.107773 1_545
La6 Se26 3.117638 1_555
La6 Se27 3.169067 1_455
La6 Se7 3.195150 1_545
La6 Se8 3.320896 1_555
La7 Se18 2.987798 1_556
La7 Se10 3.052931 1_555
La7 Se38 3.053758 1_555
La7 Se12 3.098197 1_555
La7 Se24 3.127780 1_555
La7 Se28 3.156108 1_555
La7 Se8 3.384878 1_555
La7 Se6 3.594330 1_555
La8 Se19 3.012055 1_555
La8 Se13 3.050002 1_654
La8 Se11 3.070455 1_555
La8 Se36 3.071594 1_555
La8 Se25 3.102088 1_655
La8 Se29 3.146585 1_555
La8 Se6 3.257581 1_554
La8 Se7 3.655065 1_655
La9 Se31 2.994852 1_555
La9 Se8 3.039429 1_555
La9 Se40 3.066978 1_555
La9 Se4 3.077789 1_555
La9 Se28 3.130090 1_555
La9 Se22 3.166545 1_555
La9 Se9 3.251076 1_555
La9 Se10 3.656706 1_555
La10 Se32 3.002709 1_556
La10 Se5 3.058852 1_555
La10 Se6 3.068037 1_555
La10 Se41 3.105722 1_556
La10 Se29 3.135858 1_556
La10 Se23 3.185397 1_555
La10 Se10 3.194996 1_555
La10 Se11 3.321815 1_556
La11 Se30 3.027106 1_555
La11 Se3 3.047281 1_555
La11 Se39 3.060709 1_555
La11 Se27 3.078067 1_555
La11 Se7 3.099416 1_645
La11 Se21 3.130664 1_555
La11 Se11 3.391469 1_545
La11 Se9 3.591108 1_655
La12 Se34 3.002709 1_655
La12 Se6 3.058852 1_555
La12 Se1 3.068037 1_555
La12 Se40 3.105722 1_655
La12 Se31 3.135858 1_655
La12 Se24 3.185397 1_555
La12 Se12 3.194996 1_555
La12 Se13 3.321815 1_655
La13 Se35 3.027106 1_555
La13 Se7 3.047281 1_555
La13 Se41 3.060710 1_555
La13 Se32 3.078067 1_555
La13 Se2 3.099416 1_564
La13 Se25 3.130664 1_555
La13 Se13 3.391469 1_554
La13 Se14 3.591108 1_565
La14 Se33 2.994852 1_555
La14 Se0 3.039429 1_555
La14 Se39 3.066979 1_555
La14 Se8 3.077789 1_555
La14 Se30 3.130090 1_555
La14 Se26 3.166545 1_555
La14 Se14 3.251076 1_555
La14 Se12 3.656706 1_555
La15 Se28 3.027106 1_555
La15 Se2 3.047281 1_555
La15 Se40 3.060710 1_555
La15 Se34 3.078067 1_555
La15 Se3 3.099416 1_456
La15 Se20 3.130664 1_555
La15 Se15 3.391469 1_455
La15 Se16 3.591108 1_556
La16 Se29 2.994852 1_555
La16 Se4 3.039429 1_555
La16 Se41 3.066979 1_555
La16 Se0 3.077789 1_555
La16 Se35 3.130090 1_555
La16 Se18 3.166545 1_555
La16 Se16 3.251076 1_555
La16 Se17 3.656706 1_555
La17 Se27 3.002709 1_565
La17 Se1 3.058852 1_555
La17 Se5 3.068037 1_555
La17 Se39 3.105722 1_565
La17 Se33 3.135858 1_565
La17 Se19 3.185397 1_555
La17 Se17 3.194996 1_555
La17 Se15 3.321815 1_565
Ga0 Se36 2.390768 1_555
Ga0 Se24 2.430726 1_554
Ga0 Se21 2.442425 1_555
Ga0 Se18 2.443118 1_555
Ga1 Se37 2.390768 1_555
Ga1 Se19 2.430726 1_455
Ga1 Se25 2.442425 1_555
Ga1 Se22 2.443118 1_555
Ga2 Se38 2.390768 1_555
Ga2 Se23 2.430726 1_545
Ga2 Se20 2.442425 1_555
Ga2 Se26 2.443118 1_555
Ga3 Se40 2.391159 1_655
Ga3 Se27 2.435436 1_555
Ga3 Se33 2.441539 1_555
Ga3 Se30 2.443532 1_555
Ga4 Se41 2.391159 1_556
Ga4 Se34 2.435435 1_555
Ga4 Se31 2.441539 1_555
Ga4 Se28 2.443532 1_555
Ga5 Se39 2.391159 1_565
Ga5 Se32 2.435436 1_555
Ga5 Se29 2.441539 1_555
Ga5 Se35 2.443532 1_555
Ga6 Se15 2.589492 1_565
Ga6 Se11 2.589492 1_556
Ga6 Se13 2.589492 1_655
Ga6 Se6 2.801232 1_555
Ga6 Se5 2.801232 1_555
Ga6 Se1 2.801232 1_555
Ga7 Se7 2.520047 1_545
Ga7 Se2 2.520048 1_554
Ga7 Se3 2.520048 1_455
Ga7 Se16 2.920917 1_555
Ga7 Se14 2.920917 1_555
Ga7 Se9 2.920917 1_555
Ga8 Se10 2.521938 1_555
Ga8 Se17 2.521938 1_555
Ga8 Se12 2.521938 1_555
Ga8 Se1 2.922687 1_555
Ga8 Se5 2.922687 1_555
Ga8 Se6 2.922687 1_555
Ga9 Se0 2.592069 1_555
Ga9 Se8 2.592069 1_555
Ga9 Se4 2.592069 1_555
Ga9 Se9 2.796991 1_555
Ga9 Se14 2.796991 1_555
Ga9 Se16 2.796991 1_555
