# generated using pymatgen
data_Ta3Co3C
_symmetry_space_group_name_H-M   'P 1'
_cell_length_a   7.99583196
_cell_length_b   7.99583196
_cell_length_c   7.99583196
_cell_angle_alpha   60.00000000
_cell_angle_beta   60.00000000
_cell_angle_gamma   60.00000000
_symmetry_Int_Tables_number   1
_chemical_formula_structural   Ta3Co3C
_chemical_formula_sum   'Ta12 Co12 C4'
_cell_volume   361.47309484
_cell_formula_units_Z   4
loop_
 _symmetry_equiv_pos_site_id
 _symmetry_equiv_pos_as_xyz
  1  'x, y, z'
loop_
 _atom_site_type_symbol
 _atom_site_label
 _atom_site_symmetry_multiplicity
 _atom_site_fract_x
 _atom_site_fract_y
 _atom_site_fract_z
 _atom_site_occupancy
  Ta  Ta0  1  0.19835800  0.80164200  0.19835800  1
  Ta  Ta1  1  0.80164200  0.19835800  0.80164200  1
  Ta  Ta2  1  0.05164200  0.44835800  0.05164200  1
  Ta  Ta3  1  0.05164200  0.44835800  0.44835800  1
  Ta  Ta4  1  0.44835800  0.05164200  0.05164200  1
  Ta  Ta5  1  0.44835800  0.05164200  0.44835800  1
  Ta  Ta6  1  0.80164200  0.80164200  0.19835800  1
  Ta  Ta7  1  0.05164200  0.05164200  0.44835800  1
  Ta  Ta8  1  0.19835800  0.19835800  0.80164200  1
  Ta  Ta9  1  0.19835800  0.80164200  0.80164200  1
  Ta  Ta10  1  0.44835800  0.44835800  0.05164200  1
  Ta  Ta11  1  0.80164200  0.19835800  0.19835800  1
  Co  Co0  1  0.62500000  0.62500000  0.62500000  1
  Co  Co1  1  0.82880000  0.82880000  0.51360000  1
  Co  Co2  1  0.51360000  0.82880000  0.82880000  1
  Co  Co3  1  0.42120000  0.73640000  0.42120000  1
  Co  Co4  1  0.73640000  0.42120000  0.42120000  1
  Co  Co5  1  0.42120000  0.42120000  0.42120000  1
  Co  Co6  1  0.42120000  0.42120000  0.73640000  1
  Co  Co7  1  0.82880000  0.51360000  0.82880000  1
  Co  Co8  1  0.12500000  0.62500000  0.62500000  1
  Co  Co9  1  0.62500000  0.62500000  0.12500000  1
  Co  Co10  1  0.62500000  0.12500000  0.62500000  1
  Co  Co11  1  0.82880000  0.82880000  0.82880000  1
  C  C0  1  0.12500000  0.12500000  0.12500000  1
  C  C1  1  0.12500000  0.12500000  0.62500000  1
  C  C2  1  0.62500000  0.12500000  0.12500000  1
  C  C3  1  0.12500000  0.62500000  0.12500000  1
loop_
_geom_bond_atom_site_label_1
_geom_bond_atom_site_label_2
_geom_bond_distance
_geom_bond_site_symmetry_2
Co0 Co6 2.420066 1_555
Co0 Co3 2.420066 1_555
Co0 Co7 2.420066 1_555
Co0 Co4 2.420066 1_555
Co0 Co1 2.420066 1_555
Co0 Co2 2.420066 1_555
Co0 Ta9 2.825877 1_555
Co0 Ta6 2.825877 1_555
Co0 Ta5 2.825877 1_565
Co0 Ta1 2.825877 1_555
Co0 Ta3 2.825877 1_655
Co0 Ta10 2.825877 1_556
Co1 Co10 2.420066 1_565
Co1 Co8 2.420066 1_655
Co1 Co7 2.520286 1_555
Co1 Co2 2.520286 1_555
Co1 Co11 2.520286 1_555
Co1 Ta6 2.754943 1_555
Co1 Ta11 2.754943 1_565
Co1 Ta0 2.754943 1_655
Co1 Ta5 2.817381 1_565
Co1 Ta3 2.817381 1_655
Co1 Ta7 2.817381 1_665
Co2 Co9 2.420066 1_556
Co2 Co7 2.520286 1_555
Co2 Ta9 2.754943 1_555
Co2 Ta0 2.754943 1_556
Co2 Ta8 2.754943 1_565
Co2 Ta10 2.817381 1_556
Co2 Ta4 2.817381 1_566
Co2 Ta5 2.817381 1_565
Co3 Co8 2.420066 1_555
Co3 Co9 2.420066 1_555
Co3 Co6 2.520286 1_555
Co3 Co4 2.520286 1_555
Co3 Co5 2.520286 1_555
Co3 Ta5 2.754943 1_565
Co3 Ta4 2.754943 1_565
Co3 Ta7 2.754943 1_565
Co3 Ta9 2.817381 1_555
Co3 Ta6 2.817381 1_555
Co3 Ta0 2.817381 1_555
Co4 Co9 2.420066 1_555
Co4 Co6 2.520286 1_555
Co4 Co5 2.520286 1_555
Co4 Ta3 2.754943 1_655
Co4 Ta2 2.754943 1_655
Co4 Ta7 2.754943 1_655
Co4 Ta6 2.817381 1_555
Co4 Ta1 2.817381 1_555
Co4 Ta11 2.817381 1_555
Co5 Co9 2.420066 1_555
Co5 Co8 2.420066 1_555
Co5 Co6 2.520286 1_555
Co5 Ta5 2.754943 1_555
Co5 Ta10 2.754943 1_555
Co5 Ta3 2.754943 1_555
Co5 Ta0 2.817381 1_555
Co5 Ta11 2.817381 1_555
Co5 Ta8 2.817381 1_555
Co6 Co8 2.420066 1_555
Co6 Ta10 2.754943 1_556
Co6 Ta4 2.754943 1_556
Co6 Ta2 2.754943 1_556
Co6 Ta1 2.817381 1_555
Co6 Ta9 2.817381 1_555
Co6 Ta8 2.817381 1_555
Co7 Co8 2.420066 1_655
Co7 Co9 2.420066 1_556
Co7 Ta1 2.754943 1_555
Co7 Ta8 2.754943 1_655
Co7 Ta11 2.754943 1_556
Co7 Ta10 2.817381 1_556
Co7 Ta3 2.817381 1_655
Co7 Ta2 2.817381 1_656
Co8 Ta8 2.825877 1_555
Co8 Ta9 2.825877 1_555
Co8 Ta2 2.825877 1_556
Co8 Ta0 2.825877 1_555
Co8 Ta7 2.825877 1_565
Co8 Ta3 2.825877 1_555
Co9 Ta6 2.825877 1_555
Co9 Ta11 2.825877 1_555
Co9 Ta2 2.825877 1_655
Co9 Ta4 2.825877 1_565
Co9 Ta0 2.825877 1_555
Co9 Ta10 2.825877 1_555
Co10 Co11 2.420066 1_545
Co10 Co5 2.420066 1_555
Co10 Co6 2.420066 1_555
Co10 Co2 2.420066 1_545
Co10 Co4 2.420066 1_555
Co10 Ta1 2.825877 1_555
Co10 Ta11 2.825877 1_555
Co10 Ta8 2.825877 1_555
Co10 Ta7 2.825877 1_655
Co10 Ta4 2.825877 1_556
Co10 Ta5 2.825877 1_555
Co11 Co9 2.420066 1_556
Co11 Co8 2.420066 1_655
Co11 Co7 2.520286 1_555
Co11 Co2 2.520286 1_555
Co11 Ta1 2.754943 1_565
Co11 Ta9 2.754943 1_655
Co11 Ta6 2.754943 1_556
Co11 Ta2 2.817381 1_656
Co11 Ta4 2.817381 1_566
Co11 Ta7 2.817381 1_665
C0 Ta7 2.164240 1_555
C0 Ta2 2.164240 1_555
C0 Ta4 2.164240 1_555
C0 Ta0 2.164240 1_545
C0 Ta8 2.164240 1_554
C0 Ta11 2.164240 1_455
C1 Ta8 2.164240 1_555
C1 Ta9 2.164240 1_545
C1 Ta3 2.164240 1_555
C1 Ta1 2.164240 1_455
C1 Ta5 2.164240 1_555
C1 Ta7 2.164240 1_555
C2 Ta5 2.164240 1_555
C2 Ta11 2.164240 1_555
C2 Ta1 2.164240 1_554
C2 Ta6 2.164240 1_545
C2 Ta10 2.164240 1_555
C2 Ta4 2.164240 1_555
C3 Ta10 2.164240 1_555
C3 Ta0 2.164240 1_555
C3 Ta9 2.164240 1_554
C3 Ta3 2.164240 1_555
C3 Ta2 2.164240 1_555
C3 Ta6 2.164240 1_455
