# generated using pymatgen
data_ZrSiO4
_symmetry_space_group_name_H-M   'P 1'
_cell_length_a   5.18392200
_cell_length_b   4.71959200
_cell_length_c   4.93593347
_cell_angle_alpha   81.36516035
_cell_angle_beta   90.00000000
_cell_angle_gamma   90.00000000
_symmetry_Int_Tables_number   1
_chemical_formula_structural   ZrSiO4
_chemical_formula_sum   'Zr2 Si2 O8'
_cell_volume   119.39372186
_cell_formula_units_Z   2
loop_
 _symmetry_equiv_pos_site_id
 _symmetry_equiv_pos_as_xyz
  1  'x, y, z'
loop_
 _atom_site_type_symbol
 _atom_site_label
 _atom_site_symmetry_multiplicity
 _atom_site_fract_x
 _atom_site_fract_y
 _atom_site_fract_z
 _atom_site_occupancy
  Zr  Zr0  1  0.72236000  0.50000000  0.25000000  1
  Zr  Zr1  1  0.27764000  0.50000000  0.75000000  1
  Si  Si0  1  0.83370700  0.00000000  0.75000000  1
  Si  Si1  1  0.16629300  0.00000000  0.25000000  1
  O  O0  1  0.60728000  0.24742900  0.60976500  1
  O  O1  1  0.60728000  0.75257100  0.89023500  1
  O  O2  1  0.39272000  0.75257100  0.39023500  1
  O  O3  1  0.39272000  0.24742900  0.10976500  1
  O  O4  1  0.92154300  0.21825300  0.01684700  1
  O  O5  1  0.92154300  0.78174700  0.48315300  1
  O  O6  1  0.07845700  0.78174700  0.98315300  1
  O  O7  1  0.07845700  0.21825300  0.51684700  1
loop_
_geom_bond_atom_site_label_1
_geom_bond_atom_site_label_2
_geom_bond_distance
_geom_bond_site_symmetry_2
O0 Si0 1.725643 1_555
O0 Zr0 2.072341 1_555
O0 Zr1 2.251204 1_555
O1 Si0 1.725643 1_565
O1 Zr0 2.072341 1_556
O1 Zr1 2.251204 1_555
O2 Si1 1.725643 1_565
O2 Zr1 2.072341 1_555
O2 Zr0 2.251204 1_555
O3 Si1 1.725643 1_555
O3 Zr1 2.072341 1_554
O3 Zr0 2.251204 1_555
O4 Si0 1.846784 1_554
O4 Si1 1.907682 1_655
O4 Zr0 2.149012 1_555
O4 Zr1 2.526810 1_654
O5 Si0 1.846784 1_565
O5 Si1 1.907682 1_665
O5 Zr0 2.149012 1_555
O5 Zr1 2.526810 1_655
O6 Si1 1.846784 1_566
O6 Si0 1.907682 1_465
O6 Zr1 2.149012 1_555
O6 Zr0 2.526810 1_456
O7 Si1 1.846784 1_555
O7 Si0 1.907682 1_455
O7 Zr1 2.149012 1_555
O7 Zr0 2.526810 1_455
