# generated using pymatgen
data_Li9Mn2Co5O16
_symmetry_space_group_name_H-M   'P 1'
_cell_length_a   5.92517600
_cell_length_b   6.44215275
_cell_length_c   7.88675968
_cell_angle_alpha   88.81443630
_cell_angle_beta   103.78221853
_cell_angle_gamma   104.78881795
_symmetry_Int_Tables_number   1
_chemical_formula_structural   Li9Mn2Co5O16
_chemical_formula_sum   'Li9 Mn2 Co5 O16'
_cell_volume   282.43339150
_cell_formula_units_Z   1
loop_
 _symmetry_equiv_pos_site_id
 _symmetry_equiv_pos_as_xyz
  1  'x, y, z'
loop_
 _atom_site_type_symbol
 _atom_site_label
 _atom_site_symmetry_multiplicity
 _atom_site_fract_x
 _atom_site_fract_y
 _atom_site_fract_z
 _atom_site_occupancy
  Li  Li0  1  0.87278500  0.86905700  0.12551900  1
  Li  Li1  1  0.50000000  0.50000000  0.00000000  1
  Li  Li2  1  0.75274300  0.74278700  0.75700400  1
  Li  Li3  1  0.37034200  0.37242900  0.63049500  1
  Li  Li4  1  0.62965800  0.62757100  0.36950500  1
  Li  Li5  1  0.24725700  0.25721300  0.24299600  1
  Li  Li6  1  0.12721500  0.13094300  0.87448100  1
  Li  Li7  1  0.00000000  0.00000000  0.50000000  1
  Li  Li8  1  0.00000000  0.50000000  0.00000000  1
  Mn  Mn0  1  0.75403400  0.25053200  0.24675200  1
  Mn  Mn1  1  0.24596600  0.74946800  0.75324800  1
  Co  Co0  1  0.37591400  0.87154500  0.12575300  1
  Co  Co1  1  0.62408600  0.12845500  0.87424700  1
  Co  Co2  1  0.87101400  0.37687500  0.63263100  1
  Co  Co3  1  0.50000000  0.00000000  0.50000000  1
  Co  Co4  1  0.12898600  0.62312500  0.36736900  1
  O  O0  1  0.67669900  0.94870000  0.30588300  1
  O  O1  1  0.31705800  0.58480500  0.18780400  1
  O  O2  1  0.55381000  0.82328000  0.92161700  1
  O  O3  1  0.17740500  0.44716100  0.79752300  1
  O  O4  1  0.40936200  0.70185000  0.56695300  1
  O  O5  1  0.05548600  0.32338300  0.42076500  1
  O  O6  1  0.90367400  0.18705300  0.06933300  1
  O  O7  1  0.80000800  0.07424100  0.67195400  1
  O  O8  1  0.09632600  0.81294700  0.93066700  1
  O  O9  1  0.68294200  0.41519500  0.81219600  1
  O  O10  1  0.94451400  0.67661700  0.57923500  1
  O  O11  1  0.59063800  0.29815000  0.43304700  1
  O  O12  1  0.82259500  0.55283900  0.20247700  1
  O  O13  1  0.44619000  0.17672000  0.07838300  1
  O  O14  1  0.32330100  0.05130000  0.69411700  1
  O  O15  1  0.19999200  0.92575900  0.32804600  1
loop_
_geom_bond_atom_site_label_1
_geom_bond_atom_site_label_2
_geom_bond_distance
_geom_bond_site_symmetry_2
Li0 O6 2.058203 1_565
Li0 O12 2.081409 1_555
Li0 O2 2.128855 1_554
Li0 O15 2.151892 1_655
Li0 O0 2.181416 1_555
Li0 O8 2.341761 1_654
Li1 O13 2.126679 1_555
Li1 O2 2.126679 1_554
Li1 O12 2.134360 1_555
Li1 O3 2.134360 1_554
Li1 O1 2.183595 1_555
Li1 O9 2.183595 1_554
Li2 O2 2.100657 1_555
Li2 O9 2.101541 1_555
Li2 O8 2.109973 1_655
Li2 O10 2.114133 1_555
Li2 O4 2.178342 1_555
Li2 O7 2.193792 1_565
Li3 O9 2.012790 1_555
Li3 O3 2.073329 1_555
Li3 O14 2.082918 1_555
Li3 O5 2.136970 1_555
Li3 O4 2.137512 1_555
Li3 O11 2.382414 1_555
Li4 O1 2.012790 1_555
Li4 O12 2.073329 1_555
Li4 O0 2.082918 1_555
Li4 O10 2.136970 1_555
Li4 O11 2.137512 1_555
Li4 O4 2.382414 1_555
Li5 O13 2.100657 1_555
Li5 O1 2.101541 1_555
Li5 O6 2.109973 1_455
Li5 O5 2.114133 1_555
Li5 O11 2.178342 1_555
Li5 O15 2.193792 1_545
Li6 O8 2.058203 1_545
Li6 O3 2.081409 1_555
Li6 O13 2.128855 1_556
Li6 O7 2.151892 1_455
Li6 O14 2.181416 1_555
Li6 O6 2.341761 1_456
Li7 O14 2.103100 1_555
Li7 O0 2.103100 1_445
Li7 O10 2.129090 1_445
Li7 O5 2.129090 1_555
Li7 O7 2.134005 1_455
Li7 O15 2.134005 1_545
Li8 O6 2.050580 1_455
Li8 O8 2.050580 1_554
Li8 O1 2.050680 1_555
Li8 O9 2.050680 1_454
Li8 O3 2.185358 1_554
Li8 O12 2.185358 1_455
Mn0 O6 1.926449 1_555
Mn0 O12 1.927511 1_555
Mn0 O5 1.929981 1_655
Mn0 O13 1.935399 1_555
Mn0 O0 1.953909 1_545
Mn0 O11 2.009522 1_555
Mn1 O8 1.926449 1_555
Mn1 O3 1.927511 1_555
Mn1 O10 1.929981 1_455
Mn1 O2 1.935399 1_555
Mn1 O14 1.953909 1_565
Mn1 O4 2.009522 1_555
Co0 O1 1.867721 1_555
Co0 O8 1.935064 1_554
Co0 O13 1.950348 1_565
Co0 O0 1.952478 1_555
Co0 O15 2.180646 1_555
Co0 O2 2.190054 1_554
Co1 O9 1.867721 1_555
Co1 O6 1.935064 1_556
Co1 O2 1.950348 1_545
Co1 O14 1.952478 1_555
Co1 O7 2.180646 1_555
Co1 O13 2.190054 1_556
Co2 O3 1.916199 1_655
Co2 O7 1.921610 1_555
Co2 O10 1.928761 1_555
Co2 O11 1.962581 1_555
Co2 O9 2.053084 1_555
Co2 O5 2.278556 1_655
Co3 O7 1.916239 1_555
Co3 O15 1.916239 1_545
Co3 O4 1.955245 1_545
Co3 O11 1.955245 1_555
Co3 O14 2.123788 1_555
Co3 O0 2.123788 1_545
Co4 O12 1.916199 1_455
Co4 O15 1.921610 1_555
Co4 O5 1.928761 1_555
Co4 O4 1.962581 1_555
Co4 O1 2.053084 1_555
Co4 O10 2.278556 1_455
