# generated using pymatgen
data_SrCaMn(PO4)2
_symmetry_space_group_name_H-M   'P 1'
_cell_length_a   5.75864500
_cell_length_b   6.96803591
_cell_length_c   9.69410202
_cell_angle_alpha   109.50956424
_cell_angle_beta   101.38552141
_cell_angle_gamma   98.63741924
_symmetry_Int_Tables_number   1
_chemical_formula_structural   SrCaMn(PO4)2
_chemical_formula_sum   'Sr2 Ca2 Mn2 P4 O16'
_cell_volume   349.47243302
_cell_formula_units_Z   2
loop_
 _symmetry_equiv_pos_site_id
 _symmetry_equiv_pos_as_xyz
  1  'x, y, z'
loop_
 _atom_site_type_symbol
 _atom_site_label
 _atom_site_symmetry_multiplicity
 _atom_site_fract_x
 _atom_site_fract_y
 _atom_site_fract_z
 _atom_site_occupancy
  Sr  Sr0  1  0.20692100  0.75180500  0.05555400  1
  Sr  Sr1  1  0.79307900  0.24819500  0.94444600  1
  Ca  Ca0  1  0.34031000  0.75776800  0.66232100  1
  Ca  Ca1  1  0.65969000  0.24223200  0.33767900  1
  Mn  Mn0  1  0.07474400  0.27977100  0.56195000  1
  Mn  Mn1  1  0.92525600  0.72022900  0.43805000  1
  P  P0  1  0.16931500  0.19476500  0.21829900  1
  P  P1  1  0.83068500  0.80523500  0.78170100  1
  P  P2  1  0.53866300  0.73490500  0.29833300  1
  P  P3  1  0.46133700  0.26509500  0.70166700  1
  O  O0  1  0.96036400  0.67281600  0.88018900  1
  O  O1  1  0.45440100  0.28671500  0.16463100  1
  O  O2  1  0.89002100  0.03185300  0.77640100  1
  O  O3  1  0.27541700  0.40878600  0.69132100  1
  O  O4  1  0.54559900  0.71328500  0.83536900  1
  O  O5  1  0.42608600  0.13688000  0.59704200  1
  O  O6  1  0.57391400  0.86312000  0.40295800  1
  O  O7  1  0.40147500  0.12951600  0.86672200  1
  O  O8  1  0.10997900  0.96814700  0.22359900  1
  O  O9  1  0.59852500  0.87048400  0.13327800  1
  O  O10  1  0.03963600  0.32718400  0.11981100  1
  O  O11  1  0.03722500  0.19348900  0.38250300  1
  O  O12  1  0.96277500  0.80651100  0.61749700  1
  O  O13  1  0.26086700  0.59808300  0.36908800  1
  O  O14  1  0.72458300  0.59121400  0.30867900  1
  O  O15  1  0.73913300  0.40191700  0.63091200  1
loop_
_geom_bond_atom_site_label_1
_geom_bond_atom_site_label_2
_geom_bond_distance
_geom_bond_site_symmetry_2
Ca0 O4 1.995537 1_555
Ca0 O12 2.231193 1_455
Ca0 O13 2.597873 1_555
Ca0 O7 2.604297 1_565
Ca1 O1 1.995537 1_555
Ca1 O11 2.231193 1_655
Ca1 O15 2.597873 1_555
Ca1 O9 2.604297 1_545
Mn0 O3 1.441926 1_555
Mn0 O11 1.596340 1_555
Mn0 O15 2.351737 1_455
Mn1 O14 1.441926 1_555
Mn1 O12 1.596340 1_555
Mn1 O13 2.351737 1_655
O0 P1 1.683591 1_555
O0 Sr0 1.842881 1_656
O1 P0 1.902715 1_555
O2 P1 1.584914 1_545
O2 Sr1 2.051705 1_555
O3 P3 1.582875 1_555
O4 P1 1.902715 1_555
O5 P3 1.061641 1_555
O6 P2 1.061641 1_555
O7 Sr1 2.165621 1_555
O7 P3 2.168207 1_555
O8 P0 1.584914 1_565
O8 Sr0 2.051705 1_555
O9 Sr0 2.165621 1_555
O9 P2 2.168207 1_555
O10 P0 1.683591 1_555
O10 Sr1 1.842881 1_454
O11 P0 1.896845 1_555
O12 P1 1.896845 1_555
O13 P2 2.085770 1_555
O14 P2 1.582875 1_555
O15 P3 2.085770 1_555
