# generated using pymatgen
data_TmSiOs2C
_symmetry_space_group_name_H-M   'P 1'
_cell_length_a   5.88724281
_cell_length_b   5.88724281
_cell_length_c   7.11239600
_cell_angle_alpha   90.00000000
_cell_angle_beta   90.00000000
_cell_angle_gamma   142.12200646
_symmetry_Int_Tables_number   1
_chemical_formula_structural   TmSiOs2C
_chemical_formula_sum   'Tm2 Si2 Os4 C2'
_cell_volume   151.35456342
_cell_formula_units_Z   2
loop_
 _symmetry_equiv_pos_site_id
 _symmetry_equiv_pos_as_xyz
  1  'x, y, z'
loop_
 _atom_site_type_symbol
 _atom_site_label
 _atom_site_symmetry_multiplicity
 _atom_site_fract_x
 _atom_site_fract_y
 _atom_site_fract_z
 _atom_site_occupancy
  Tm  Tm0  1  0.54604000  0.45396000  0.25000000  1
  Tm  Tm1  1  0.45396000  0.54604000  0.75000000  1
  Si  Si0  1  0.26743100  0.73256900  0.25000000  1
  Si  Si1  1  0.73256900  0.26743100  0.75000000  1
  Os  Os0  1  0.83544000  0.16456000  0.05761700  1
  Os  Os1  1  0.16456000  0.83544000  0.94238300  1
  Os  Os2  1  0.16456000  0.83544000  0.55761700  1
  Os  Os3  1  0.83544000  0.16456000  0.44238300  1
  C  C0  1  0.00000000  0.00000000  0.00000000  1
  C  C1  1  0.00000000  0.00000000  0.50000000  1
loop_
_geom_bond_atom_site_label_1
_geom_bond_atom_site_label_2
_geom_bond_distance
_geom_bond_site_symmetry_2
Si0 Tm0 3.102888 1_555
Si0 Tm0 3.119369 1_455
Si0 Tm0 3.119369 1_565
Si1 Tm1 3.102888 1_555
Si1 Tm1 3.119369 1_545
Si1 Tm1 3.119369 1_655
Os0 Si0 2.469208 1_655
Os0 Si0 2.469208 1_545
Os0 Si1 2.469710 1_554
Os1 Si1 2.469208 1_565
Os1 Si1 2.469208 1_455
Os1 Si0 2.469710 1_556
Os2 Si1 2.469208 1_565
Os2 Si1 2.469208 1_455
Os2 Si0 2.469710 1_555
Os3 Si0 2.469208 1_655
Os3 Si0 2.469208 1_545
Os3 Si1 2.469710 1_555
C0 Os0 1.877972 1_455
C0 Os1 1.877972 1_544
C0 Tm0 2.659999 1_445
C0 Tm1 2.659999 1_444
C0 Tm1 2.659999 1_554
C0 Tm0 2.659999 1_555
C1 Os2 1.877972 1_545
C1 Os3 1.877972 1_455
C1 Tm0 2.659999 1_445
C1 Tm1 2.659999 1_445
C1 Tm1 2.659999 1_555
C1 Tm0 2.659999 1_555
