# generated using pymatgen
data_CsCaMg6
_symmetry_space_group_name_H-M   'P 1'
_cell_length_a   5.25913700
_cell_length_b   7.10481500
_cell_length_c   13.50685600
_cell_angle_alpha   90.00000000
_cell_angle_beta   90.00000000
_cell_angle_gamma   90.00000000
_symmetry_Int_Tables_number   1
_chemical_formula_structural   CsCaMg6
_chemical_formula_sum   'Cs2 Ca2 Mg12'
_cell_volume   504.68631428
_cell_formula_units_Z   2
loop_
 _symmetry_equiv_pos_site_id
 _symmetry_equiv_pos_as_xyz
  1  'x, y, z'
loop_
 _atom_site_type_symbol
 _atom_site_label
 _atom_site_symmetry_multiplicity
 _atom_site_fract_x
 _atom_site_fract_y
 _atom_site_fract_z
 _atom_site_occupancy
  Cs  Cs0  1  0.50000000  0.50000000  0.18188800  1
  Cs  Cs1  1  0.50000000  0.00000000  0.68188800  1
  Ca  Ca0  1  0.50000000  0.00000000  0.16591300  1
  Ca  Ca1  1  0.50000000  0.50000000  0.66591300  1
  Mg  Mg0  1  0.50000000  0.23881300  0.42339600  1
  Mg  Mg1  1  0.50000000  0.76118700  0.42339600  1
  Mg  Mg2  1  0.00000000  0.76768800  0.04688100  1
  Mg  Mg3  1  0.00000000  0.23231200  0.04688100  1
  Mg  Mg4  1  0.00000000  0.00000000  0.34954200  1
  Mg  Mg5  1  0.00000000  0.50000000  0.36209900  1
  Mg  Mg6  1  0.50000000  0.73881300  0.92339600  1
  Mg  Mg7  1  0.50000000  0.26118700  0.92339600  1
  Mg  Mg8  1  0.00000000  0.26768800  0.54688100  1
  Mg  Mg9  1  0.00000000  0.73231200  0.54688100  1
  Mg  Mg10  1  0.00000000  0.50000000  0.84954200  1
  Mg  Mg11  1  0.00000000  0.00000000  0.86209900  1
loop_
_geom_bond_atom_site_label_1
_geom_bond_atom_site_label_2
_geom_bond_distance
_geom_bond_site_symmetry_2
Cs0 Mg5 3.583210 1_655
Cs0 Mg5 3.583210 1_555
Cs0 Mg3 3.722496 1_655
Cs0 Mg2 3.722496 1_555
Cs0 Mg2 3.722496 1_655
Cs0 Mg3 3.722496 1_555
Cs0 Mg0 3.752906 1_555
Cs0 Mg1 3.752906 1_555
Cs0 Mg7 3.881860 1_554
Cs0 Mg6 3.881860 1_554
Cs1 Mg11 3.583210 1_555
Cs1 Mg11 3.583210 1_655
Cs1 Mg8 3.722496 1_555
Cs1 Mg8 3.722496 1_655
Cs1 Mg9 3.722496 1_645
Cs1 Mg9 3.722496 1_545
Cs1 Mg6 3.752906 1_545
Cs1 Mg7 3.752906 1_555
Cs1 Mg0 3.881860 1_555
Cs1 Mg1 3.881860 1_545
Ca0 Mg3 3.496247 1_655
Ca0 Mg2 3.496247 1_645
Ca0 Mg2 3.496247 1_545
Ca0 Mg3 3.496247 1_555
Ca0 Cs0 3.558954 1_555
Ca0 Cs0 3.558954 1_545
Ca0 Mg4 3.614730 1_555
Ca0 Mg4 3.614730 1_655
Ca0 Mg6 3.764758 1_544
Ca0 Mg7 3.764758 1_554
Ca0 Mg0 3.869607 1_555
Ca0 Mg1 3.869607 1_545
Ca1 Mg8 3.496247 1_555
Ca1 Mg9 3.496247 1_655
Ca1 Mg8 3.496247 1_655
Ca1 Mg9 3.496247 1_555
Ca1 Cs1 3.558954 1_565
Ca1 Cs1 3.558954 1_555
Ca1 Mg10 3.614730 1_655
Ca1 Mg10 3.614730 1_555
Ca1 Mg1 3.764758 1_555
Ca1 Mg0 3.764758 1_555
Ca1 Mg7 3.869607 1_555
Ca1 Mg6 3.869607 1_555
Mg0 Mg8 3.120671 1_555
Mg0 Mg8 3.120671 1_655
Mg0 Mg4 3.284596 1_555
Mg0 Mg4 3.284596 1_655
Mg0 Mg5 3.323201 1_555
Mg0 Mg5 3.323201 1_655
Mg0 Mg1 3.393444 1_545
Mg1 Mg9 3.120671 1_655
Mg1 Mg9 3.120671 1_555
Mg1 Mg4 3.284596 1_665
Mg1 Mg4 3.284596 1_565
Mg1 Mg5 3.323201 1_555
Mg1 Mg5 3.323201 1_655
Mg2 Mg6 3.120671 1_454
Mg2 Mg6 3.120671 1_554
Mg2 Mg3 3.301068 1_565
Mg3 Mg7 3.120671 1_554
Mg3 Mg7 3.120671 1_454
Mg4 Mg8 3.274391 1_555
Mg4 Mg9 3.274391 1_545
Mg5 Mg9 2.992223 1_555
Mg5 Mg8 2.992223 1_555
Mg6 Mg7 3.393444 1_555
Mg8 Mg9 3.301068 1_555
Mg10 Mg3 3.274391 1_556
Mg10 Mg2 3.274391 1_556
Mg10 Mg7 3.284596 1_455
Mg10 Mg7 3.284596 1_555
Mg10 Mg6 3.284596 1_455
Mg10 Mg6 3.284596 1_555
Mg11 Mg3 2.992223 1_556
Mg11 Mg2 2.992223 1_546
Mg11 Mg6 3.323201 1_445
Mg11 Mg6 3.323201 1_545
Mg11 Mg7 3.323201 1_555
Mg11 Mg7 3.323201 1_455
