# generated using pymatgen
data_Yb2ReC2
_symmetry_space_group_name_H-M   'P 1'
_cell_length_a   5.16647300
_cell_length_b   6.71507400
_cell_length_c   10.02502700
_cell_angle_alpha   90.00000000
_cell_angle_beta   90.00000000
_cell_angle_gamma   90.00000000
_symmetry_Int_Tables_number   1
_chemical_formula_structural   Yb2ReC2
_chemical_formula_sum   'Yb8 Re4 C8'
_cell_volume   347.80075307
_cell_formula_units_Z   4
loop_
 _symmetry_equiv_pos_site_id
 _symmetry_equiv_pos_as_xyz
  1  'x, y, z'
loop_
 _atom_site_type_symbol
 _atom_site_label
 _atom_site_symmetry_multiplicity
 _atom_site_fract_x
 _atom_site_fract_y
 _atom_site_fract_z
 _atom_site_occupancy
  Yb  Yb0  1  0.25000000  0.69373200  0.54396700  1
  Yb  Yb1  1  0.75000000  0.30626800  0.45603300  1
  Yb  Yb2  1  0.75000000  0.80626800  0.04396700  1
  Yb  Yb3  1  0.25000000  0.19373200  0.95603300  1
  Yb  Yb4  1  0.25000000  0.53043800  0.22337400  1
  Yb  Yb5  1  0.75000000  0.46956200  0.77662600  1
  Yb  Yb6  1  0.75000000  0.96956200  0.72337400  1
  Yb  Yb7  1  0.25000000  0.03043800  0.27662600  1
  Re  Re0  1  0.25000000  0.74450800  0.85105400  1
  Re  Re1  1  0.75000000  0.25549200  0.14894600  1
  Re  Re2  1  0.75000000  0.75549200  0.35105400  1
  Re  Re3  1  0.25000000  0.24450800  0.64894600  1
  C  C0  1  0.25000000  0.47720400  0.76609100  1
  C  C1  1  0.75000000  0.52279600  0.23390900  1
  C  C2  1  0.75000000  0.02279600  0.26609100  1
  C  C3  1  0.25000000  0.97720400  0.73390900  1
  C  C4  1  0.25000000  0.80290100  0.03208000  1
  C  C5  1  0.75000000  0.19709900  0.96792000  1
  C  C6  1  0.75000000  0.69709900  0.53208000  1
  C  C7  1  0.25000000  0.30290100  0.46792000  1
loop_
_geom_bond_atom_site_label_1
_geom_bond_atom_site_label_2
_geom_bond_distance
_geom_bond_site_symmetry_2
C0 Re3 1.954687 1_555
C0 Re0 1.986805 1_555
C0 Yb5 2.585904 1_455
C0 Yb5 2.585904 1_555
C0 Yb0 2.659465 1_555
C0 Yb3 2.692457 1_555
C1 Re2 1.954687 1_555
C1 Re1 1.986805 1_555
C1 Yb4 2.585904 1_655
C1 Yb4 2.585904 1_555
C1 Yb1 2.659465 1_555
C1 Yb2 2.692457 1_555
C2 Re1 1.954687 1_555
C2 Re2 1.986805 1_545
C2 Yb7 2.585904 1_555
C2 Yb7 2.585904 1_655
C2 Yb2 2.659465 1_545
C2 Yb1 2.692457 1_555
C3 Re0 1.954687 1_555
C3 Re3 1.986805 1_565
C3 Yb6 2.585904 1_455
C3 Yb6 2.585904 1_555
C3 Yb3 2.659465 1_565
C3 Yb0 2.692457 1_555
C4 Re0 1.856668 1_554
C4 Yb2 2.586083 1_455
C4 Yb2 2.586083 1_555
C4 Yb4 2.650500 1_555
C4 Yb3 2.732947 1_564
C4 Yb7 2.888738 1_565
C5 Re1 1.856668 1_556
C5 Yb3 2.586083 1_555
C5 Yb3 2.586083 1_655
C5 Yb5 2.650500 1_555
C5 Yb2 2.732947 1_546
C5 Yb6 2.888738 1_545
C6 Re2 1.856668 1_555
C6 Yb0 2.586083 1_555
C6 Yb0 2.586083 1_655
C6 Yb6 2.650500 1_555
C6 Yb1 2.732947 1_555
C6 Yb5 2.888738 1_555
C7 Re3 1.856668 1_555
C7 Yb1 2.586083 1_455
C7 Yb1 2.586083 1_555
C7 Yb7 2.650500 1_555
C7 Yb0 2.732947 1_555
C7 Yb4 2.888738 1_555
