# generated using pymatgen
data_Mg14FeCo
_symmetry_space_group_name_H-M   'P 1'
_cell_length_a   6.23507380
_cell_length_b   6.23507380
_cell_length_c   9.68390200
_cell_angle_alpha   90.00000000
_cell_angle_beta   90.00000000
_cell_angle_gamma   119.89010269
_symmetry_Int_Tables_number   1
_chemical_formula_structural   Mg14FeCo
_chemical_formula_sum   'Mg14 Fe1 Co1'
_cell_volume   326.39544341
_cell_formula_units_Z   1
loop_
 _symmetry_equiv_pos_site_id
 _symmetry_equiv_pos_as_xyz
  1  'x, y, z'
loop_
 _atom_site_type_symbol
 _atom_site_label
 _atom_site_symmetry_multiplicity
 _atom_site_fract_x
 _atom_site_fract_y
 _atom_site_fract_z
 _atom_site_occupancy
  Mg  Mg0  1  0.66405600  0.33594400  0.50000000  1
  Mg  Mg1  1  0.16407200  0.83592800  0.50000000  1
  Mg  Mg2  1  0.66225300  0.84033200  0.00000000  1
  Mg  Mg3  1  0.66816700  0.83198900  0.50000000  1
  Mg  Mg4  1  0.15966800  0.33774700  0.00000000  1
  Mg  Mg5  1  0.16801100  0.33183300  0.50000000  1
  Mg  Mg6  1  0.84014400  0.65773300  0.22091000  1
  Mg  Mg7  1  0.84014400  0.65773300  0.77909000  1
  Mg  Mg8  1  0.34226700  0.15985600  0.22091000  1
  Mg  Mg9  1  0.34226700  0.15985600  0.77909000  1
  Mg  Mg10  1  0.82599900  0.17400100  0.23955200  1
  Mg  Mg11  1  0.82599900  0.17400100  0.76044800  1
  Mg  Mg12  1  0.32654500  0.67345500  0.23935700  1
  Mg  Mg13  1  0.32654500  0.67345500  0.76064300  1
  Fe  Fe0  1  0.67184600  0.32815400  0.00000000  1
  Co  Co0  1  0.17202700  0.82797300  0.00000000  1
loop_
_geom_bond_atom_site_label_1
_geom_bond_atom_site_label_2
_geom_bond_distance
_geom_bond_site_symmetry_2
Mg0 Mg10 3.068633 1_555
Mg0 Mg11 3.068633 1_555
Mg0 Mg5 3.080184 1_555
Mg0 Mg3 3.080184 1_555
Mg0 Mg1 3.122714 1_545
Mg0 Mg1 3.122714 1_655
Mg0 Mg3 3.155048 1_545
Mg0 Mg5 3.155048 1_655
Mg0 Mg8 3.215578 1_555
Mg0 Mg9 3.215578 1_555
Mg0 Mg6 3.215578 1_555
Mg0 Mg7 3.215578 1_555
Mg1 Mg13 3.073446 1_555
Mg1 Mg12 3.073446 1_555
Mg1 Mg3 3.079839 1_455
Mg1 Mg5 3.079839 1_565
Mg1 Mg5 3.155381 1_555
Mg1 Mg3 3.155381 1_555
Mg1 Mg6 3.222052 1_455
Mg1 Mg8 3.222052 1_565
Mg1 Mg7 3.222052 1_455
Mg1 Mg9 3.222052 1_565
Mg2 Mg7 2.891635 1_554
Mg2 Mg6 2.891635 1_555
Mg2 Mg4 3.106570 1_665
Mg2 Mg4 3.138858 1_555
Mg3 Mg5 3.121740 1_665
Mg3 Mg5 3.123688 1_555
Mg3 Mg6 3.285717 1_555
Mg3 Mg7 3.285717 1_555
Mg4 Mg9 2.891635 1_554
Mg4 Mg8 2.891635 1_555
Mg5 Mg8 3.285717 1_555
Mg5 Mg9 3.285717 1_555
Mg6 Mg8 3.109455 1_555
Mg6 Mg8 3.135973 1_665
Mg7 Mg9 3.109455 1_555
Mg7 Mg9 3.135973 1_665
Mg10 Mg2 2.938554 1_545
Mg10 Mg4 2.938554 1_655
Mg10 Mg8 2.978613 1_555
Mg10 Mg6 2.978613 1_555
Mg10 Mg12 3.122720 1_655
Mg10 Mg12 3.122720 1_545
Mg10 Mg3 3.128186 1_545
Mg10 Mg5 3.128186 1_655
Mg10 Mg6 3.268805 1_545
Mg10 Mg8 3.268805 1_655
Mg11 Mg2 2.938554 1_546
Mg11 Mg4 2.938554 1_656
Mg11 Mg9 2.978613 1_555
Mg11 Mg7 2.978613 1_555
Mg11 Mg13 3.122720 1_655
Mg11 Mg13 3.122720 1_545
Mg11 Mg3 3.128186 1_545
Mg11 Mg5 3.128186 1_655
Mg11 Mg7 3.268805 1_545
Mg11 Mg9 3.268805 1_655
Mg12 Mg4 2.943804 1_555
Mg12 Mg2 2.943804 1_555
Mg12 Mg6 2.990446 1_455
Mg12 Mg8 2.990446 1_565
Mg12 Mg5 3.128329 1_555
Mg12 Mg3 3.128329 1_555
Mg12 Mg8 3.257192 1_555
Mg12 Mg6 3.257192 1_555
Mg13 Mg4 2.943804 1_556
Mg13 Mg2 2.943804 1_556
Mg13 Mg7 2.990446 1_455
Mg13 Mg9 2.990446 1_565
Mg13 Mg5 3.128329 1_555
Mg13 Mg3 3.128329 1_555
Mg13 Mg9 3.257192 1_555
Mg13 Mg7 3.257192 1_555
Fe0 Mg9 2.784105 1_554
Fe0 Mg8 2.784105 1_555
Fe0 Mg7 2.784105 1_554
Fe0 Mg6 2.784105 1_555
Fe0 Mg11 2.854794 1_554
Fe0 Mg10 2.854794 1_555
Fe0 Mg2 3.012245 1_545
Fe0 Mg4 3.012245 1_655
Fe0 Mg4 3.223692 1_555
Fe0 Mg2 3.223692 1_555
Co0 Mg7 2.792140 1_454
Co0 Mg6 2.792140 1_455
Co0 Mg9 2.792140 1_564
Co0 Mg8 2.792140 1_565
Co0 Mg12 2.855559 1_555
Co0 Mg13 2.855559 1_554
Co0 Mg2 3.018933 1_555
Co0 Mg4 3.018933 1_555
Co0 Fe0 3.122715 1_455
Co0 Fe0 3.122715 1_565
Co0 Mg4 3.217574 1_565
Co0 Mg2 3.217574 1_455
