# generated using pymatgen
data_Ca4Ti5(TeO6)3
_symmetry_space_group_name_H-M   'P 1'
_cell_length_a   9.00981004
_cell_length_b   9.00981004
_cell_length_c   11.65198913
_cell_angle_alpha   85.68716652
_cell_angle_beta   85.68716652
_cell_angle_gamma   69.77195491
_symmetry_Int_Tables_number   1
_chemical_formula_structural   Ca4Ti5(TeO6)3
_chemical_formula_sum   'Ca8 Ti10 Te6 O36'
_cell_volume   883.79459812
_cell_formula_units_Z   2
loop_
 _symmetry_equiv_pos_site_id
 _symmetry_equiv_pos_as_xyz
  1  'x, y, z'
loop_
 _atom_site_type_symbol
 _atom_site_label
 _atom_site_symmetry_multiplicity
 _atom_site_fract_x
 _atom_site_fract_y
 _atom_site_fract_z
 _atom_site_occupancy
  Ca  Ca0  1  0.93486100  0.64337500  0.35915400  1
  Ca  Ca1  1  0.27246100  0.62572400  0.53646900  1
  Ca  Ca2  1  0.35662500  0.06513900  0.14084600  1
  Ca  Ca3  1  0.37427600  0.72753900  0.96353100  1
  Ca  Ca4  1  0.62572400  0.27246100  0.03646900  1
  Ca  Ca5  1  0.64337500  0.93486100  0.85915400  1
  Ca  Ca6  1  0.06513900  0.35662500  0.64084600  1
  Ca  Ca7  1  0.72753900  0.37427600  0.46353100  1
  Ti  Ti0  1  0.01402100  0.68913300  0.81487900  1
  Ti  Ti1  1  0.68913300  0.01402100  0.31487900  1
  Ti  Ti2  1  0.45159600  0.87520500  0.42825000  1
  Ti  Ti3  1  0.87520500  0.45159600  0.92825000  1
  Ti  Ti4  1  0.12479500  0.54840400  0.07175000  1
  Ti  Ti5  1  0.87806900  0.12193100  0.75000000  1
  Ti  Ti6  1  0.12193100  0.87806900  0.25000000  1
  Ti  Ti7  1  0.54840400  0.12479500  0.57175000  1
  Ti  Ti8  1  0.98597900  0.31086700  0.18512100  1
  Ti  Ti9  1  0.31086700  0.98597900  0.68512100  1
  Te  Te0  1  0.34994000  0.34295500  0.85174100  1
  Te  Te1  1  0.00000000  0.00000000  0.50000000  1
  Te  Te2  1  0.00000000  0.00000000  0.00000000  1
  Te  Te3  1  0.34295500  0.34994000  0.35174100  1
  Te  Te4  1  0.65006000  0.65704500  0.14825900  1
  Te  Te5  1  0.65704500  0.65006000  0.64825900  1
  O  O0  1  0.44398800  0.15532400  0.94724100  1
  O  O1  1  0.09675100  0.73827600  0.95022300  1
  O  O2  1  0.13210500  0.66167700  0.19166500  1
  O  O3  1  0.07510200  0.10929700  0.23945200  1
  O  O4  1  0.26172400  0.90324900  0.54977700  1
  O  O5  1  0.89070300  0.92489800  0.26054800  1
  O  O6  1  0.47051300  0.34845400  0.48564500  1
  O  O7  1  0.77832400  0.10111300  0.90525900  1
  O  O8  1  0.22167600  0.89888700  0.09474100  1
  O  O9  1  0.65854900  0.81597900  0.34515900  1
  O  O10  1  0.14815000  0.57650000  0.70134800  1
  O  O11  1  0.34145100  0.18402100  0.65484100  1
  O  O12  1  0.90324900  0.26172400  0.04977700  1
  O  O13  1  0.08799800  0.45155900  0.91216900  1
  O  O14  1  0.42350000  0.85185000  0.79865200  1
  O  O15  1  0.52948700  0.65154600  0.51435500  1
  O  O16  1  0.85185000  0.42350000  0.29865200  1
  O  O17  1  0.54844100  0.91200200  0.58783100  1
  O  O18  1  0.33832300  0.86789500  0.30833500  1
  O  O19  1  0.57650000  0.14815000  0.20134800  1
  O  O20  1  0.15532400  0.44398800  0.44724100  1
  O  O21  1  0.91200200  0.54844100  0.08783100  1
  O  O22  1  0.89888700  0.22167600  0.59474100  1
  O  O23  1  0.34845400  0.47051300  0.98564500  1
  O  O24  1  0.86789500  0.33832300  0.80833500  1
  O  O25  1  0.10929700  0.07510200  0.73945200  1
  O  O26  1  0.81597900  0.65854900  0.84515900  1
  O  O27  1  0.65154600  0.52948700  0.01435500  1
  O  O28  1  0.73827600  0.09675100  0.45022300  1
  O  O29  1  0.45155900  0.08799800  0.41216900  1
  O  O30  1  0.55601200  0.84467600  0.05275900  1
  O  O31  1  0.92489800  0.89070300  0.76054800  1
  O  O32  1  0.10111300  0.77832400  0.40525900  1
  O  O33  1  0.18402100  0.34145100  0.15484100  1
  O  O34  1  0.66167700  0.13210500  0.69166500  1
  O  O35  1  0.84467600  0.55601200  0.55275900  1
loop_
_geom_bond_atom_site_label_1
_geom_bond_atom_site_label_2
_geom_bond_distance
_geom_bond_site_symmetry_2
Ca0 O32 2.342929 1_655
Ca0 O20 2.405814 1_655
Ca0 O9 2.447125 1_555
Ca0 O35 2.503663 1_555
Ca0 O16 2.508938 1_555
Ca0 O2 2.574230 1_655
Ca0 O5 2.616229 1_555
Ca1 O10 2.243598 1_555
Ca1 O32 2.276433 1_555
Ca1 O15 2.399384 1_555
Ca1 O4 2.484840 1_555
Ca1 O20 2.547931 1_555
Ca1 O6 2.599339 1_555
Ca2 O8 2.342929 1_545
Ca2 O30 2.405814 1_545
Ca2 O33 2.447125 1_555
Ca2 O0 2.503663 1_554
Ca2 O19 2.508938 1_555
Ca2 O18 2.574230 1_545
Ca2 O3 2.616229 1_555
Ca3 O14 2.243598 1_555
Ca3 O8 2.276433 1_556
Ca3 O23 2.399384 1_555
Ca3 O1 2.484840 1_555
Ca3 O30 2.547931 1_556
Ca3 O27 2.599339 1_556
Ca4 O19 2.243598 1_555
Ca4 O7 2.276433 1_554
Ca4 O27 2.399384 1_555
Ca4 O12 2.484840 1_555
Ca4 O0 2.547931 1_554
Ca4 O23 2.599339 1_554
Ca5 O7 2.342929 1_565
Ca5 O0 2.405814 1_565
Ca5 O26 2.447125 1_555
Ca5 O30 2.503663 1_556
Ca5 O14 2.508938 1_555
Ca5 O34 2.574230 1_565
Ca5 O31 2.616229 1_555
Ca6 O22 2.342929 1_455
Ca6 O35 2.405814 1_455
Ca6 O11 2.447125 1_555
Ca6 O20 2.503663 1_555
Ca6 O10 2.508938 1_555
Ca6 O24 2.574230 1_455
Ca6 O25 2.616229 1_555
Ca7 O16 2.243598 1_555
Ca7 O22 2.276433 1_555
Ca7 O6 2.399384 1_555
Ca7 O28 2.484840 1_555
Ca7 O35 2.547931 1_555
Ca7 O15 2.599339 1_555
O0 Te0 1.918964 1_555
O1 Ti0 1.936154 1_555
O1 Ti4 2.094298 1_556
O1 Te2 2.316257 1_566
O2 Ti4 1.809142 1_555
O2 Ti6 2.082767 1_555
O3 Ti8 1.799693 1_455
O3 Ti6 1.973524 1_545
O4 Ti9 1.936154 1_555
O4 Ti2 2.094298 1_555
O4 Te1 2.316257 1_565
O5 Ti1 1.799693 1_565
O5 Ti6 1.973524 1_655
O6 Te3 2.002822 1_555
O6 Ti7 2.093733 1_555
O7 Ti5 1.984080 1_555
O7 Te2 2.227050 1_656
O8 Ti6 1.984080 1_555
O8 Te2 2.227050 1_565
O9 Ti1 1.901292 1_565
O9 Ti2 1.953716 1_555
O10 Ti0 1.831289 1_555
O11 Ti9 1.901292 1_545
O11 Ti7 1.953716 1_555
O12 Ti8 1.936154 1_555
O12 Ti3 2.094298 1_554
O12 Te2 2.316257 1_655
O13 Ti3 1.912170 1_455
O13 Ti4 2.205801 1_556
O13 Ti0 2.252373 1_555
O13 Te0 2.297787 1_555
O14 Ti9 1.831289 1_555
O15 Te5 2.002822 1_555
O15 Ti2 2.093733 1_555
O16 Ti8 1.831289 1_555
O17 Ti7 1.912170 1_565
O17 Ti2 2.205801 1_555
O17 Ti9 2.252373 1_555
O17 Te5 2.297787 1_555
O18 Ti2 1.809142 1_555
O18 Ti6 2.082767 1_555
O19 Ti1 1.831289 1_555
O20 Te3 1.918964 1_555
O21 Ti4 1.912170 1_655
O21 Ti3 2.205801 1_554
O21 Ti8 2.252373 1_555
O21 Te4 2.297787 1_555
O22 Ti5 1.984080 1_555
O22 Te1 2.227050 1_655
O23 Te0 2.002822 1_555
O23 Ti4 2.093733 1_556
O24 Ti3 1.809142 1_555
O24 Ti5 2.082767 1_555
O25 Ti9 1.799693 1_545
O25 Ti5 1.973524 1_455
O26 Ti0 1.901292 1_655
O26 Ti3 1.953716 1_555
O27 Te4 2.002822 1_555
O27 Ti3 2.093733 1_554
O28 Ti1 1.936154 1_555
O28 Ti7 2.094298 1_555
O28 Te1 2.316257 1_655
O29 Ti2 1.912170 1_545
O29 Ti7 2.205801 1_555
O29 Ti1 2.252373 1_555
O29 Te3 2.297787 1_555
O30 Te4 1.918964 1_555
O31 Ti0 1.799693 1_655
O31 Ti5 1.973524 1_565
O32 Ti6 1.984080 1_555
O32 Te1 2.227050 1_565
O33 Ti8 1.901292 1_455
O33 Ti4 1.953716 1_555
O34 Ti7 1.809142 1_555
O34 Ti5 2.082767 1_555
O35 Te5 1.918964 1_555
