# generated using pymatgen
data_Rb4WO5
_symmetry_space_group_name_H-M   'P 1'
_cell_length_a   6.53089751
_cell_length_b   10.65368635
_cell_length_c   17.66327471
_cell_angle_alpha   94.49679699
_cell_angle_beta   92.10988836
_cell_angle_gamma   96.47856207
_symmetry_Int_Tables_number   1
_chemical_formula_structural   Rb4WO5
_chemical_formula_sum   'Rb24 W6 O30'
_cell_volume   1216.07647593
_cell_formula_units_Z   6
loop_
 _symmetry_equiv_pos_site_id
 _symmetry_equiv_pos_as_xyz
  1  'x, y, z'
loop_
 _atom_site_type_symbol
 _atom_site_label
 _atom_site_symmetry_multiplicity
 _atom_site_fract_x
 _atom_site_fract_y
 _atom_site_fract_z
 _atom_site_occupancy
  Rb  Rb0  1  0.00926972  0.51108924  0.17949060  1
  Rb  Rb1  1  0.99073028  0.48891076  0.82050940  1
  Rb  Rb2  1  0.53999726  0.20316211  0.50387692  1
  Rb  Rb3  1  0.46000274  0.79683789  0.49612308  1
  Rb  Rb4  1  0.07475770  0.69007543  0.00422267  1
  Rb  Rb5  1  0.92524230  0.30992457  0.99577733  1
  Rb  Rb6  1  0.07212037  0.85282231  0.21992068  1
  Rb  Rb7  1  0.92787963  0.14717769  0.78007932  1
  Rb  Rb8  1  0.55023440  0.00085902  0.32039579  1
  Rb  Rb9  1  0.44976560  0.99914098  0.67960421  1
  Rb  Rb10  1  0.23110644  0.03763077  0.05823208  1
  Rb  Rb11  1  0.76889356  0.96236923  0.94176792  1
  Rb  Rb12  1  0.43849627  0.40823303  0.09378330  1
  Rb  Rb13  1  0.56150373  0.59176697  0.90621670  1
  Rb  Rb14  1  0.71973317  0.38549471  0.34410265  1
  Rb  Rb15  1  0.28026683  0.61450529  0.65589735  1
  Rb  Rb16  1  0.23886535  0.45344019  0.42787056  1
  Rb  Rb17  1  0.76113465  0.54655981  0.57212944  1
  Rb  Rb18  1  0.73279937  0.09559392  0.14655760  1
  Rb  Rb19  1  0.26720063  0.90440608  0.85344240  1
  Rb  Rb20  1  0.05362487  0.08084636  0.41690459  1
  Rb  Rb21  1  0.94637513  0.91915364  0.58309541  1
  Rb  Rb22  1  0.45160874  0.66272284  0.29024041  1
  Rb  Rb23  1  0.54839126  0.33727716  0.70975959  1
  W  W0  1  0.06228135  0.27533356  0.59349778  1
  W  W1  1  0.93771865  0.72466644  0.40650222  1
  W  W2  1  0.59881647  0.75775845  0.09773446  1
  W  W3  1  0.40118353  0.24224155  0.90226554  1
  W  W4  1  0.21754719  0.23380247  0.24885371  1
  W  W5  1  0.78245281  0.76619753  0.75114629  1
  O  O0  1  0.06721014  0.68368858  0.49442761  1
  O  O1  1  0.93278986  0.31631142  0.50557239  1
  O  O2  1  0.14925512  0.13964460  0.92347790  1
  O  O3  1  0.85074488  0.86035540  0.07652210  1
  O  O4  1  0.35130771  0.21835555  0.34620964  1
  O  O5  1  0.64869229  0.78164445  0.65379036  1
  O  O6  1  0.21039922  0.13614433  0.58674173  1
  O  O7  1  0.78960078  0.86385567  0.41325827  1
  O  O8  1  0.09531208  0.25791627  0.15032048  1
  O  O9  1  0.90468792  0.74208373  0.84967952  1
  O  O10  1  0.34167823  0.09994355  0.20688380  1
  O  O11  1  0.65832177  0.90005645  0.79311620  1
  O  O12  1  0.34991546  0.66004740  0.12358792  1
  O  O13  1  0.65008454  0.33995260  0.87641208  1
  O  O14  1  0.38044504  0.15909107  0.80567516  1
  O  O15  1  0.61955496  0.84090893  0.19432484  1
  O  O16  1  0.46267502  0.81906555  0.01678291  1
  O  O17  1  0.53732498  0.18093445  0.98321709  1
  O  O18  1  0.17848263  0.83352421  0.38239472  1
  O  O19  1  0.82151737  0.16647579  0.61760528  1
  O  O20  1  0.31116483  0.38059165  0.57269857  1
  O  O21  1  0.68883517  0.61940835  0.42730143  1
  O  O22  1  0.72380922  0.61162593  0.07631678  1
  O  O23  1  0.27619078  0.38837407  0.92368322  1
  O  O24  1  0.95909643  0.19286968  0.28585472  1
  O  O25  1  0.04090357  0.80713032  0.71414528  1
  O  O26  1  0.04121489  0.37569121  0.68275062  1
  O  O27  1  0.95878511  0.62430879  0.31724938  1
  O  O28  1  0.34508555  0.39993990  0.25313260  1
  O  O29  1  0.65491445  0.60006010  0.74686740  1
loop_
_geom_bond_atom_site_label_1
_geom_bond_atom_site_label_2
_geom_bond_distance
_geom_bond_site_symmetry_2
O0 W1 1.846802 1_455
O0 Rb3 2.706581 1_555
O0 Rb17 2.805563 1_455
O0 Rb16 2.986879 1_555
O0 Rb21 3.047991 1_455
O0 Rb15 3.298883 1_555
O1 W0 1.846802 1_655
O1 Rb2 2.706581 1_555
O1 Rb16 2.805563 1_655
O1 Rb17 2.986879 1_555
O1 Rb20 3.047991 1_655
O1 Rb14 3.298883 1_555
O2 W3 1.935450 1_555
O2 Rb5 2.726799 1_455
O2 Rb10 2.752335 1_556
O2 Rb7 2.881087 1_455
O2 Rb19 2.902436 1_545
O2 Rb11 2.989671 1_445
O3 W2 1.935450 1_555
O3 Rb4 2.726799 1_655
O3 Rb11 2.752335 1_554
O3 Rb6 2.881087 1_655
O3 Rb18 2.902436 1_565
O3 Rb10 2.989671 1_665
O4 W4 1.927052 1_555
O4 Rb20 2.703328 1_555
O4 Rb8 2.796811 1_555
O4 Rb14 2.830508 1_555
O4 Rb16 2.969673 1_555
O4 Rb2 3.027140 1_555
O5 W5 1.927052 1_555
O5 Rb21 2.703328 1_555
O5 Rb9 2.796811 1_555
O5 Rb15 2.830508 1_555
O5 Rb17 2.969673 1_555
O5 Rb3 3.027140 1_555
O6 W0 1.858326 1_555
O6 Rb2 2.708262 1_555
O6 Rb21 2.718555 1_445
O6 Rb9 2.822444 1_545
O6 Rb20 3.123343 1_555
O6 Rb23 3.469152 1_555
O7 W1 1.858326 1_555
O7 Rb3 2.708262 1_555
O7 Rb20 2.718555 1_665
O7 Rb8 2.822444 1_565
O7 Rb21 3.123343 1_555
O7 Rb22 3.469152 1_555
O8 W4 1.935571 1_555
O8 Rb18 2.765265 1_455
O8 Rb0 2.828727 1_555
O8 Rb12 2.861970 1_555
O8 Rb10 2.986188 1_555
O8 Rb5 3.024061 1_454
O9 W5 1.935571 1_555
O9 Rb19 2.765265 1_655
O9 Rb1 2.828727 1_555
O9 Rb13 2.861970 1_555
O9 Rb11 2.986188 1_555
O9 Rb4 3.024061 1_656
O10 W4 1.838445 1_555
O10 Rb10 2.708365 1_555
O10 Rb8 2.728513 1_555
O10 Rb18 2.807448 1_555
O10 Rb6 3.026981 1_545
O11 W5 1.838445 1_555
O11 Rb11 2.708365 1_555
O11 Rb9 2.728513 1_555
O11 Rb19 2.807448 1_555
O11 Rb7 3.026981 1_565
O12 W2 1.918834 1_555
O12 Rb4 2.780905 1_555
O12 Rb12 2.821377 1_555
O12 Rb0 2.837882 1_555
O12 Rb22 2.990899 1_555
O12 Rb6 3.305283 1_555
O13 W3 1.918834 1_555
O13 Rb5 2.780905 1_555
O13 Rb13 2.821377 1_555
O13 Rb1 2.837882 1_555
O13 Rb23 2.990899 1_555
O13 Rb7 3.305283 1_555
O14 W3 1.852780 1_555
O14 Rb9 2.778638 1_545
O14 Rb23 2.801477 1_555
O14 Rb19 2.927990 1_545
O14 Rb7 2.960470 1_455
O15 W2 1.852780 1_555
O15 Rb8 2.778638 1_565
O15 Rb22 2.801477 1_555
O15 Rb18 2.927990 1_565
O15 Rb6 2.960470 1_655
O16 W2 1.856220 1_555
O16 Rb4 2.735182 1_555
O16 Rb11 2.812356 1_554
O16 Rb10 2.975590 1_565
O16 Rb13 3.130270 1_554
O16 Rb19 3.344011 1_554
O17 W3 1.856220 1_555
O17 Rb5 2.735182 1_555
O17 Rb10 2.812356 1_556
O17 Rb11 2.975590 1_545
O17 Rb12 3.130270 1_556
O17 Rb18 3.344011 1_556
O18 W1 1.927172 1_455
O18 Rb3 2.753506 1_555
O18 Rb20 2.872064 1_565
O18 Rb6 2.956120 1_555
O18 Rb22 3.102312 1_555
O18 Rb8 3.130037 1_565
O19 W0 1.927172 1_655
O19 Rb2 2.753506 1_555
O19 Rb21 2.872064 1_545
O19 Rb7 2.956120 1_555
O19 Rb23 3.102312 1_555
O19 Rb9 3.130037 1_545
O20 W0 1.931775 1_555
O20 Rb16 2.770277 1_555
O20 Rb2 2.774039 1_555
O20 Rb15 2.823414 1_555
O20 Rb23 2.921403 1_555
O20 Rb17 3.254984 1_555
O21 W1 1.931775 1_555
O21 Rb17 2.770277 1_555
O21 Rb3 2.774039 1_555
O21 Rb14 2.823414 1_555
O21 Rb22 2.921403 1_555
O21 Rb16 3.254984 1_555
O22 W2 1.857537 1_555
O22 Rb12 2.738366 1_555
O22 Rb4 2.742797 1_655
O22 Rb0 2.906976 1_655
O22 Rb13 3.132210 1_554
O23 W3 1.857537 1_555
O23 Rb13 2.738366 1_555
O23 Rb5 2.742797 1_455
O23 Rb1 2.906976 1_455
O23 Rb12 3.132210 1_556
O24 W4 1.850995 1_655
O24 Rb20 2.767286 1_655
O24 Rb14 2.867923 1_555
O24 Rb18 2.880768 1_555
O24 Rb8 3.281765 1_555
O25 W5 1.850995 1_455
O25 Rb21 2.767286 1_455
O25 Rb15 2.867923 1_555
O25 Rb19 2.880768 1_555
O25 Rb9 3.281765 1_555
O26 W0 1.852640 1_555
O26 Rb1 2.678252 1_455
O26 Rb15 2.912559 1_555
O26 Rb7 3.126260 1_455
O26 Rb23 3.255883 1_455
O26 Rb17 3.394629 1_455
O26 Rb23 3.403922 1_555
O27 W1 1.852640 1_555
O27 Rb0 2.678252 1_655
O27 Rb14 2.912559 1_555
O27 Rb6 3.126260 1_655
O27 Rb22 3.255883 1_655
O27 Rb16 3.394629 1_655
O27 Rb22 3.403922 1_555
O28 W4 1.863871 1_555
O28 Rb22 2.826759 1_555
O28 Rb14 2.902860 1_555
O28 Rb12 2.907814 1_555
O28 Rb0 2.919203 1_555
O28 Rb16 3.209872 1_555
O29 W5 1.863871 1_555
O29 Rb23 2.826759 1_555
O29 Rb15 2.902860 1_555
O29 Rb13 2.907814 1_555
O29 Rb1 2.919203 1_555
O29 Rb17 3.209872 1_555
