# generated using pymatgen
data_Rb3FeF6
_symmetry_space_group_name_H-M   'P 1'
_cell_length_a   6.40889738
_cell_length_b   6.40889738
_cell_length_c   6.40889738
_cell_angle_alpha   60.00000000
_cell_angle_beta   60.00000000
_cell_angle_gamma   60.00000000
_symmetry_Int_Tables_number   1
_chemical_formula_structural   Rb3FeF6
_chemical_formula_sum   'Rb3 Fe1 F6'
_cell_volume   186.13796259
_cell_formula_units_Z   1
loop_
 _symmetry_equiv_pos_site_id
 _symmetry_equiv_pos_as_xyz
  1  'x, y, z'
loop_
 _atom_site_type_symbol
 _atom_site_label
 _atom_site_symmetry_multiplicity
 _atom_site_fract_x
 _atom_site_fract_y
 _atom_site_fract_z
 _atom_site_occupancy
  Rb  Rb0  1  0.25000000  0.25000000  0.25000000  1
  Rb  Rb1  1  0.75000000  0.75000000  0.75000000  1
  Rb  Rb2  1  0.50000000  0.50000000  0.50000000  1
  Fe  Fe0  1  -0.00000000  0.00000000  0.00000000  1
  F  F0  1  0.78654077  0.21345923  0.21345923  1
  F  F1  1  0.21345923  0.78654077  0.78654077  1
  F  F2  1  0.21345923  0.78654077  0.21345923  1
  F  F3  1  0.78654077  0.21345923  0.78654077  1
  F  F4  1  0.21345923  0.21345923  0.78654077  1
  F  F5  1  0.78654077  0.78654077  0.21345923  1
loop_
_geom_bond_atom_site_label_1
_geom_bond_atom_site_label_2
_geom_bond_distance
_geom_bond_site_symmetry_2
F0 Fe0 1.934698 1_655
F0 Rb2 2.597076 1_555
F0 Rb1 3.221518 1_545
F0 Rb0 3.221518 1_555
F0 Rb1 3.221518 1_554
F0 Rb0 3.221518 1_655
F1 Fe0 1.934698 1_566
F1 Rb2 2.597076 1_555
F1 Rb0 3.221518 1_556
F1 Rb1 3.221518 1_555
F1 Rb1 3.221518 1_455
F1 Rb0 3.221518 1_565
F2 Fe0 1.934698 1_565
F2 Rb2 2.597076 1_555
F2 Rb0 3.221518 1_555
F2 Rb1 3.221518 1_455
F2 Rb1 3.221518 1_554
F2 Rb0 3.221518 1_565
F3 Fe0 1.934698 1_656
F3 Rb2 2.597076 1_555
F3 Rb1 3.221518 1_545
F3 Rb0 3.221518 1_556
F3 Rb1 3.221518 1_555
F3 Rb0 3.221518 1_655
F4 Fe0 1.934698 1_556
F4 Rb2 2.597076 1_555
F4 Rb1 3.221518 1_545
F4 Rb0 3.221518 1_555
F4 Rb0 3.221518 1_556
F4 Rb1 3.221518 1_455
F5 Fe0 1.934698 1_665
F5 Rb2 2.597076 1_555
F5 Rb1 3.221518 1_555
F5 Rb1 3.221518 1_554
F5 Rb0 3.221518 1_565
F5 Rb0 3.221518 1_655
