# generated using pymatgen
data_SrNdGaO4
_symmetry_space_group_name_H-M   'P 1'
_cell_length_a   6.83325638
_cell_length_b   6.83325638
_cell_length_c   6.83325638
_cell_angle_alpha   147.12086568
_cell_angle_beta   147.12086568
_cell_angle_gamma   47.18485412
_symmetry_Int_Tables_number   1
_chemical_formula_structural   SrNdGaO4
_chemical_formula_sum   'Sr1 Nd1 Ga1 O4'
_cell_volume   93.67428304
_cell_formula_units_Z   1
loop_
 _symmetry_equiv_pos_site_id
 _symmetry_equiv_pos_as_xyz
  1  'x, y, z'
loop_
 _atom_site_type_symbol
 _atom_site_label
 _atom_site_symmetry_multiplicity
 _atom_site_fract_x
 _atom_site_fract_y
 _atom_site_fract_z
 _atom_site_occupancy
  Sr  Sr0  1  0.64383800  0.64383800  0.00000000  1
  Nd  Nd0  1  0.36020900  0.36020900  0.00000000  1
  Ga  Ga0  1  0.00531400  0.00531400  0.00000000  1
  O  O0  1  0.99212700  0.49212700  0.50000000  1
  O  O1  1  0.49212700  0.99212700  0.50000000  1
  O  O2  1  0.83502200  0.83502200  0.00000000  1
  O  O3  1  0.17136300  0.17136300  0.00000000  1
loop_
_geom_bond_atom_site_label_1
_geom_bond_atom_site_label_2
_geom_bond_distance
_geom_bond_site_symmetry_2
Nd0 O3 2.365146 1_555
Nd0 O0 2.543499 1_454
Nd0 O0 2.543499 1_555
Nd0 O1 2.543499 1_555
Nd0 O1 2.543499 1_544
Nd0 O2 2.752992 1_444
Nd0 O2 2.752992 1_545
Nd0 O2 2.752992 1_455
Nd0 O2 2.752992 1_556
Ga0 O1 1.940878 1_444
Ga0 O0 1.940878 1_455
Ga0 O0 1.940878 1_444
Ga0 O1 1.940878 1_545
Ga0 O3 2.079632 1_555
Ga0 O2 2.132772 1_445
O0 Sr0 2.711080 1_555
O0 Sr0 2.711080 1_656
O1 Sr0 2.711080 1_555
O1 Sr0 2.711080 1_566
O2 Sr0 2.394428 1_555
O3 Sr0 2.756501 1_545
O3 Sr0 2.756501 1_455
O3 Sr0 2.756501 1_556
O3 Sr0 2.756501 1_444
