# generated using pymatgen
data_DyCrSb3
_symmetry_space_group_name_H-M   'P 1'
_cell_length_a   6.03575500
_cell_length_b   6.20234200
_cell_length_c   12.76526400
_cell_angle_alpha   90.00000000
_cell_angle_beta   90.00000000
_cell_angle_gamma   90.00000000
_symmetry_Int_Tables_number   1
_chemical_formula_structural   DyCrSb3
_chemical_formula_sum   'Dy4 Cr4 Sb12'
_cell_volume   477.87808372
_cell_formula_units_Z   4
loop_
 _symmetry_equiv_pos_site_id
 _symmetry_equiv_pos_as_xyz
  1  'x, y, z'
loop_
 _atom_site_type_symbol
 _atom_site_label
 _atom_site_symmetry_multiplicity
 _atom_site_fract_x
 _atom_site_fract_y
 _atom_site_fract_z
 _atom_site_occupancy
  Dy  Dy0  1  0.25000000  0.50540500  0.30913300  1
  Dy  Dy1  1  0.75000000  0.49459500  0.69086700  1
  Dy  Dy2  1  0.25000000  0.00540500  0.69086700  1
  Dy  Dy3  1  0.75000000  0.99459500  0.30913300  1
  Cr  Cr0  1  0.00000000  0.75000000  0.90338200  1
  Cr  Cr1  1  0.00000000  0.25000000  0.09661800  1
  Cr  Cr2  1  0.50000000  0.25000000  0.09661800  1
  Cr  Cr3  1  0.50000000  0.75000000  0.90338200  1
  Sb  Sb0  1  0.00000000  0.75000000  0.50211000  1
  Sb  Sb1  1  0.00000000  0.25000000  0.49789000  1
  Sb  Sb2  1  0.50000000  0.25000000  0.49789000  1
  Sb  Sb3  1  0.50000000  0.75000000  0.50211000  1
  Sb  Sb4  1  0.25000000  0.60090300  0.06377800  1
  Sb  Sb5  1  0.75000000  0.39909700  0.93622200  1
  Sb  Sb6  1  0.25000000  0.10090300  0.93622200  1
  Sb  Sb7  1  0.75000000  0.89909700  0.06377800  1
  Sb  Sb8  1  0.25000000  0.99691900  0.22581800  1
  Sb  Sb9  1  0.75000000  0.00308100  0.77418200  1
  Sb  Sb10  1  0.25000000  0.49691900  0.77418200  1
  Sb  Sb11  1  0.75000000  0.50308100  0.22581800  1
loop_
_geom_bond_atom_site_label_1
_geom_bond_atom_site_label_2
_geom_bond_distance
_geom_bond_site_symmetry_2
Dy0 Sb4 3.187537 1_555
Dy0 Sb11 3.199829 1_455
Dy0 Sb11 3.199829 1_555
Dy0 Sb8 3.228730 1_555
Dy0 Sb2 3.254558 1_555
Dy0 Sb1 3.254558 1_555
Dy0 Sb0 3.262932 1_555
Dy0 Sb3 3.262932 1_555
Dy0 Sb8 3.328302 1_545
Dy1 Sb5 3.187537 1_555
Dy1 Sb10 3.199829 1_555
Dy1 Sb10 3.199829 1_655
Dy1 Sb9 3.228730 1_555
Dy1 Sb3 3.254558 1_555
Dy1 Sb0 3.254558 1_655
Dy1 Sb1 3.262932 1_655
Dy1 Sb2 3.262932 1_555
Dy1 Sb9 3.328302 1_565
Dy2 Sb6 3.187537 1_555
Dy2 Sb9 3.199829 1_555
Dy2 Sb9 3.199829 1_455
Dy2 Sb10 3.228730 1_555
Dy2 Sb0 3.254558 1_545
Dy2 Sb3 3.254558 1_545
Dy2 Sb1 3.262932 1_555
Dy2 Sb2 3.262932 1_555
Dy2 Sb10 3.328302 1_545
Dy3 Sb7 3.187537 1_555
Dy3 Sb8 3.199829 1_655
Dy3 Sb8 3.199829 1_555
Dy3 Sb11 3.228730 1_555
Dy3 Sb1 3.254558 1_665
Dy3 Sb2 3.254558 1_565
Dy3 Sb3 3.262932 1_555
Dy3 Sb0 3.262932 1_655
Dy3 Sb11 3.328302 1_565
Cr0 Sb6 2.681313 1_565
Cr0 Sb5 2.681313 1_455
Cr0 Sb7 2.706345 1_456
Cr0 Sb4 2.706345 1_556
Cr0 Sb9 2.731472 1_465
Cr0 Sb10 2.731472 1_555
Cr1 Sb4 2.681313 1_555
Cr1 Sb7 2.681313 1_445
Cr1 Sb5 2.706345 1_454
Cr1 Sb6 2.706345 1_554
Cr1 Sb11 2.731472 1_455
Cr1 Sb8 2.731472 1_545
Cr2 Sb4 2.681313 1_555
Cr2 Sb7 2.681313 1_545
Cr2 Sb5 2.706345 1_554
Cr2 Sb6 2.706345 1_554
Cr2 Sb8 2.731472 1_545
Cr2 Sb11 2.731472 1_555
Cr3 Sb6 2.681313 1_565
Cr3 Sb5 2.681313 1_555
Cr3 Sb7 2.706345 1_556
Cr3 Sb4 2.706345 1_556
Cr3 Sb9 2.731472 1_565
Cr3 Sb10 2.731472 1_555
Sb0 Sb3 3.017877 1_455
Sb0 Sb3 3.017877 1_555
Sb0 Sb1 3.101639 1_565
Sb0 Sb1 3.101639 1_555
Sb1 Sb2 3.017877 1_455
Sb1 Sb2 3.017877 1_555
Sb2 Sb3 3.101639 1_555
Sb2 Sb3 3.101639 1_545
Sb4 Sb8 3.211179 1_555
Sb5 Sb9 3.211179 1_555
Sb10 Sb6 3.211179 1_555
Sb11 Sb7 3.211179 1_555
