# generated using pymatgen
data_Rb12Mg(ClO)4
_symmetry_space_group_name_H-M   'P 1'
_cell_length_a   7.58024506
_cell_length_b   8.08428571
_cell_length_c   12.09333037
_cell_angle_alpha   87.95569283
_cell_angle_beta   84.43694225
_cell_angle_gamma   86.54702363
_symmetry_Int_Tables_number   1
_chemical_formula_structural   Rb12Mg(ClO)4
_chemical_formula_sum   'Rb12 Mg1 Cl4 O4'
_cell_volume   735.92821463
_cell_formula_units_Z   1
loop_
 _symmetry_equiv_pos_site_id
 _symmetry_equiv_pos_as_xyz
  1  'x, y, z'
loop_
 _atom_site_type_symbol
 _atom_site_label
 _atom_site_symmetry_multiplicity
 _atom_site_fract_x
 _atom_site_fract_y
 _atom_site_fract_z
 _atom_site_occupancy
  Rb  Rb0  1  0.11106000  0.44803900  0.28033200  1
  Rb  Rb1  1  0.17358700  0.20291900  0.56752700  1
  Rb  Rb2  1  0.31177800  0.27904200  0.95577000  1
  Rb  Rb3  1  0.29381200  0.72952200  0.98749000  1
  Rb  Rb4  1  0.25177900  0.69916300  0.53056800  1
  Rb  Rb5  1  0.40517800  0.98542000  0.28801100  1
  Rb  Rb6  1  0.49682900  0.96125600  0.72869200  1
  Rb  Rb7  1  0.80024100  0.29922600  0.08438000  1
  Rb  Rb8  1  0.70035300  0.26717900  0.47342900  1
  Rb  Rb9  1  0.81142600  0.77679500  0.08844200  1
  Rb  Rb10  1  0.75853600  0.76278800  0.45244600  1
  Rb  Rb11  1  0.89129200  0.51948100  0.73299000  1
  Mg  Mg0  1  0.89333500  0.04691300  0.86121400  1
  Cl  Cl0  1  0.96949800  0.04124500  0.27829100  1
  Cl  Cl1  1  0.52417100  0.56797700  0.26818400  1
  Cl  Cl2  1  0.44962900  0.54002700  0.74395700  1
  Cl  Cl3  1  0.91428300  0.91778500  0.66406300  1
  O  O0  1  0.06080700  0.51735600  0.06198900  1
  O  O1  1  0.97712000  0.48379800  0.50831500  1
  O  O2  1  0.66305400  0.03853900  0.93827300  1
  O  O3  1  0.45889900  0.99886200  0.49373300  1
loop_
_geom_bond_atom_site_label_1
_geom_bond_atom_site_label_2
_geom_bond_distance
_geom_bond_site_symmetry_2
Mg0 O2 1.901167 1_555
Cl0 Rb5 3.319088 1_645
Cl0 Rb7 3.377432 1_555
Cl0 Rb10 3.391598 1_545
Cl0 Rb8 3.463043 1_555
Cl0 Rb0 3.521827 1_655
Cl0 Rb9 3.531237 1_545
Cl1 Rb0 3.321793 1_555
Cl1 Rb9 3.402850 1_555
Cl1 Rb5 3.450942 1_555
Cl1 Rb10 3.457874 1_555
Cl1 Rb7 3.596610 1_555
Cl1 Rb8 3.698456 1_555
Cl1 Rb4 3.763339 1_555
Cl2 Rb4 3.293151 1_555
Cl2 Rb11 3.331997 1_555
Cl2 Rb2 3.386139 1_555
Cl2 Rb3 3.441677 1_555
Cl2 Rb6 3.442021 1_555
Cl3 Mg0 2.623666 1_565
Cl3 Rb6 3.186525 1_555
Cl3 Rb1 3.232468 1_665
Cl3 Rb10 3.241290 1_555
Cl3 Rb11 3.307802 1_555
Cl3 Rb4 3.336624 1_655
O0 Rb3 2.611395 1_554
O0 Rb7 2.714042 1_455
O0 Rb0 2.737713 1_555
O0 Rb9 2.743694 1_455
O0 Rb2 2.870940 1_554
O1 Rb1 2.751397 1_655
O1 Rb11 2.753096 1_555
O1 Rb10 2.819048 1_555
O1 Rb4 2.831451 1_655
O1 Rb0 2.862628 1_655
O1 Rb8 2.883236 1_555
O2 Rb9 2.979200 1_546
O2 Rb6 3.037902 1_545
O2 Rb7 3.087192 1_556
O2 Rb2 3.195593 1_555
O3 Rb5 2.566738 1_555
O3 Rb1 2.737928 1_565
O3 Rb6 2.887056 1_555
O3 Rb10 2.894215 1_555
O3 Rb8 2.910076 1_565
O3 Rb4 2.962976 1_555
