# generated using pymatgen
data_KMnCl
_symmetry_space_group_name_H-M   'P 1'
_cell_length_a   7.00736986
_cell_length_b   7.00736986
_cell_length_c   7.00736986
_cell_angle_alpha   128.18174195
_cell_angle_beta   128.02639424
_cell_angle_gamma   76.45656936
_symmetry_Int_Tables_number   1
_chemical_formula_structural   KMnCl
_chemical_formula_sum   'K2 Mn2 Cl2'
_cell_volume   206.99672415
_cell_formula_units_Z   2
loop_
 _symmetry_equiv_pos_site_id
 _symmetry_equiv_pos_as_xyz
  1  'x, y, z'
loop_
 _atom_site_type_symbol
 _atom_site_label
 _atom_site_symmetry_multiplicity
 _atom_site_fract_x
 _atom_site_fract_y
 _atom_site_fract_z
 _atom_site_occupancy
  K  K0  1  0.25000000  0.24198800  0.99198800  1
  K  K1  1  0.75000000  0.75801200  0.00801200  1
  Mn  Mn0  1  0.00000000  0.50000000  0.50000000  1
  Mn  Mn1  1  0.50000000  0.00000000  0.50000000  1
  Cl  Cl0  1  0.75000000  0.25855300  0.50855300  1
  Cl  Cl1  1  0.25000000  0.74144700  0.49144700  1
loop_
_geom_bond_atom_site_label_1
_geom_bond_atom_site_label_2
_geom_bond_distance
_geom_bond_site_symmetry_2
Cl0 Mn1 2.752823 1_555
Cl0 Mn0 2.752823 1_655
Cl0 K1 3.058523 1_556
Cl0 K1 3.065149 1_545
Cl0 K0 3.072053 1_655
Cl0 K0 3.072053 1_554
Cl1 Mn0 2.752823 1_555
Cl1 Mn1 2.752823 1_565
Cl1 K0 3.058523 1_554
Cl1 K0 3.065149 1_565
Cl1 K1 3.072053 1_556
Cl1 K1 3.072053 1_455
