# generated using pymatgen
data_ZnSn5O7
_symmetry_space_group_name_H-M   'P 1'
_cell_length_a   5.51707323
_cell_length_b   5.51707323
_cell_length_c   23.11626400
_cell_angle_alpha   90.00000000
_cell_angle_beta   90.00000000
_cell_angle_gamma   146.01496664
_symmetry_Int_Tables_number   1
_chemical_formula_structural   ZnSn5O7
_chemical_formula_sum   'Zn2 Sn10 O14'
_cell_volume   393.30417557
_cell_formula_units_Z   2
loop_
 _symmetry_equiv_pos_site_id
 _symmetry_equiv_pos_as_xyz
  1  'x, y, z'
loop_
 _atom_site_type_symbol
 _atom_site_label
 _atom_site_symmetry_multiplicity
 _atom_site_fract_x
 _atom_site_fract_y
 _atom_site_fract_z
 _atom_site_occupancy
  Zn  Zn0  1  0.14786600  0.85213400  0.75000000  1
  Zn  Zn1  1  0.85213400  0.14786600  0.25000000  1
  Sn  Sn0  1  0.71803700  0.28196300  0.58697000  1
  Sn  Sn1  1  0.55779200  0.44220800  0.16701800  1
  Sn  Sn2  1  0.00000000  0.00000000  0.50000000  1
  Sn  Sn3  1  0.00000000  0.00000000  0.00000000  1
  Sn  Sn4  1  0.44220800  0.55779200  0.83298200  1
  Sn  Sn5  1  0.28196300  0.71803700  0.41303000  1
  Sn  Sn6  1  0.28196300  0.71803700  0.08697000  1
  Sn  Sn7  1  0.71803700  0.28196300  0.91303000  1
  Sn  Sn8  1  0.44220800  0.55779200  0.66701800  1
  Sn  Sn9  1  0.55779200  0.44220800  0.33298200  1
  O  O0  1  0.37120300  0.62879700  0.91834600  1
  O  O1  1  0.62879700  0.37120300  0.08165400  1
  O  O2  1  0.62879700  0.37120300  0.41834600  1
  O  O3  1  0.37120300  0.62879700  0.58165400  1
  O  O4  1  0.81044300  0.18955700  0.81934500  1
  O  O5  1  0.18955700  0.81044300  0.18065500  1
  O  O6  1  0.18955700  0.81044300  0.31934500  1
  O  O7  1  0.81044300  0.18955700  0.68065500  1
  O  O8  1  0.07207900  0.92792100  0.84536700  1
  O  O9  1  0.92792100  0.07207900  0.15463300  1
  O  O10  1  0.92792100  0.07207900  0.34536700  1
  O  O11  1  0.07207900  0.92792100  0.65463300  1
  O  O12  1  0.52828300  0.47171700  0.75000000  1
  O  O13  1  0.47171700  0.52828300  0.25000000  1
loop_
_geom_bond_atom_site_label_1
_geom_bond_atom_site_label_2
_geom_bond_distance
_geom_bond_site_symmetry_2
O0 Sn4 2.110761 1_555
O0 Sn7 2.286286 1_565
O0 Sn7 2.286286 1_455
O1 Sn1 2.110761 1_555
O1 Sn6 2.286286 1_655
O1 Sn6 2.286286 1_545
O2 Sn9 2.110761 1_555
O2 Sn5 2.286286 1_655
O2 Sn5 2.286286 1_545
O3 Sn8 2.110761 1_555
O3 Sn0 2.286286 1_565
O3 Sn0 2.286286 1_455
O4 Sn4 2.152292 1_545
O4 Sn4 2.152292 1_655
O4 Sn7 2.375050 1_555
O5 Sn1 2.152292 1_455
O5 Sn1 2.152292 1_565
O5 Sn6 2.375050 1_555
O6 Sn9 2.152292 1_455
O6 Sn9 2.152292 1_565
O6 Sn5 2.375050 1_555
O7 Sn8 2.152292 1_545
O7 Sn8 2.152292 1_655
O7 Sn0 2.375050 1_555
O8 Sn4 2.135362 1_455
O8 Sn4 2.135362 1_565
O8 Zn0 2.345107 1_555
O8 Sn7 2.723669 1_565
O8 Sn7 2.723669 1_455
O9 Sn1 2.135362 1_545
O9 Sn1 2.135362 1_655
O9 Zn1 2.345107 1_555
O9 Sn6 2.723669 1_655
O9 Sn6 2.723669 1_545
O10 Sn9 2.135362 1_545
O10 Sn9 2.135362 1_655
O10 Zn1 2.345107 1_555
O10 Sn5 2.723669 1_655
O10 Sn5 2.723669 1_545
O11 Sn8 2.135362 1_455
O11 Sn8 2.135362 1_565
O11 Zn0 2.345107 1_555
O11 Sn0 2.723669 1_565
O11 Sn0 2.723669 1_455
O12 Zn0 2.047445 1_545
O12 Zn0 2.047445 1_655
O12 Sn8 2.122411 1_555
O12 Sn4 2.122411 1_555
O13 Zn1 2.047445 1_455
O13 Zn1 2.047445 1_565
O13 Sn1 2.122411 1_555
O13 Sn9 2.122411 1_555
