# generated using pymatgen
data_KTb(WO4)2
_symmetry_space_group_name_H-M   'P 1'
_cell_length_a   7.47169136
_cell_length_b   7.47169136
_cell_length_c   7.53108980
_cell_angle_alpha   62.10479928
_cell_angle_beta   62.10479928
_cell_angle_gamma   88.52672493
_symmetry_Int_Tables_number   1
_chemical_formula_structural   KTb(WO4)2
_chemical_formula_sum   'K2 Tb2 W4 O16'
_cell_volume   318.20237431
_cell_formula_units_Z   2
loop_
 _symmetry_equiv_pos_site_id
 _symmetry_equiv_pos_as_xyz
  1  'x, y, z'
loop_
 _atom_site_type_symbol
 _atom_site_label
 _atom_site_symmetry_multiplicity
 _atom_site_fract_x
 _atom_site_fract_y
 _atom_site_fract_z
 _atom_site_occupancy
  K  K0  1  0.70364323  0.29635677  0.75000000  1
  K  K1  1  0.29635677  0.70364323  0.25000000  1
  Tb  Tb0  1  0.27249705  0.72750295  0.75000000  1
  Tb  Tb1  1  0.72750295  0.27249705  0.25000000  1
  W  W0  1  0.80308838  0.80344689  0.23448784  1
  W  W1  1  0.19655311  0.19691162  0.26551216  1
  W  W2  1  0.19691162  0.19655311  0.76551216  1
  W  W3  1  0.80344689  0.80308838  0.73448784  1
  O  O0  1  0.45661869  0.29113861  0.18622216  1
  O  O1  1  0.70886139  0.54338131  0.31377784  1
  O  O2  1  0.54338131  0.70886139  0.81377784  1
  O  O3  1  0.29113861  0.45661869  0.68622216  1
  O  O4  1  0.08522360  0.86860507  0.97098067  1
  O  O5  1  0.13139493  0.91477640  0.52901933  1
  O  O6  1  0.91477640  0.13139493  0.02901933  1
  O  O7  1  0.86860507  0.08522360  0.47098067  1
  O  O8  1  0.11786249  0.43333146  0.12615465  1
  O  O9  1  0.56666854  0.88213751  0.37384535  1
  O  O10  1  0.88213751  0.56666854  0.87384535  1
  O  O11  1  0.43333146  0.11786249  0.62615465  1
  O  O12  1  0.73551279  0.88229797  0.94547276  1
  O  O13  1  0.11770203  0.26448721  0.55452724  1
  O  O14  1  0.26448721  0.11770203  0.05452724  1
  O  O15  1  0.88229797  0.73551279  0.44547276  1
loop_
_geom_bond_atom_site_label_1
_geom_bond_atom_site_label_2
_geom_bond_distance
_geom_bond_site_symmetry_2
K0 O12 2.797057 1_545
K0 O13 2.797057 1_655
K0 O14 2.850845 1_556
K0 O15 2.850845 1_555
K0 O1 2.900167 1_555
K0 O0 2.900167 1_556
K0 O7 3.000268 1_555
K0 O6 3.000268 1_556
K0 O11 3.129336 1_555
K0 O10 3.129336 1_555
K1 O15 2.797057 1_455
K1 O14 2.797057 1_565
K1 O13 2.850845 1_555
K1 O12 2.850845 1_554
K1 O2 2.900167 1_554
K1 O3 2.900167 1_555
K1 O4 3.000268 1_554
K1 O5 3.000268 1_555
K1 O8 3.129336 1_555
K1 O9 3.129336 1_555
O0 W1 1.794223 1_555
O0 Tb1 2.275760 1_555
O1 W0 1.794223 1_555
O1 Tb1 2.275760 1_555
O2 W3 1.794223 1_555
O2 Tb0 2.275760 1_555
O3 W2 1.794223 1_555
O3 Tb0 2.275760 1_555
O4 W0 1.962992 1_456
O4 W2 2.108060 1_565
O4 Tb0 2.286037 1_555
O5 W1 1.962992 1_565
O5 W3 2.108060 1_455
O5 Tb0 2.286037 1_555
O6 W2 1.962992 1_654
O6 W0 2.108060 1_545
O6 Tb1 2.286037 1_555
O7 W3 1.962992 1_545
O7 W1 2.108060 1_655
O7 Tb1 2.286037 1_555
O8 W1 1.832154 1_555
O8 Tb0 2.330828 1_554
O8 Tb1 2.721554 1_455
O9 W0 1.832154 1_555
O9 Tb0 2.330828 1_555
O9 Tb1 2.721554 1_565
O10 W3 1.832154 1_555
O10 Tb1 2.330828 1_556
O10 Tb0 2.721554 1_655
O11 W2 1.832154 1_555
O11 Tb1 2.330828 1_555
O11 Tb0 2.721554 1_545
O12 W3 1.800684 1_555
O12 W0 2.269962 1_556
O13 W2 1.800684 1_555
O13 W1 2.269962 1_555
O14 W1 1.800684 1_555
O14 W2 2.269962 1_554
O15 W0 1.800684 1_555
O15 W3 2.269962 1_555
