# generated using pymatgen
data_Mg7P6(HO6)4
_symmetry_space_group_name_H-M   'P 1'
_cell_length_a   6.41268308
_cell_length_b   7.82669602
_cell_length_c   9.41754622
_cell_angle_alpha   104.63010141
_cell_angle_beta   108.54315970
_cell_angle_gamma   101.13052894
_symmetry_Int_Tables_number   1
_chemical_formula_structural   Mg7P6(HO6)4
_chemical_formula_sum   'Mg7 P6 H4 O24'
_cell_volume   413.89877617
_cell_formula_units_Z   1
loop_
 _symmetry_equiv_pos_site_id
 _symmetry_equiv_pos_as_xyz
  1  'x, y, z'
loop_
 _atom_site_type_symbol
 _atom_site_label
 _atom_site_symmetry_multiplicity
 _atom_site_fract_x
 _atom_site_fract_y
 _atom_site_fract_z
 _atom_site_occupancy
  Mg  Mg0  1  0.38278301  0.45836227  0.10969273  1
  Mg  Mg1  1  0.61721699  0.54163773  0.89030727  1
  Mg  Mg2  1  0.00000000  0.00000000  -0.00000000  1
  Mg  Mg3  1  0.05301582  0.71084970  0.51399750  1
  Mg  Mg4  1  0.94698418  0.28915030  0.48600250  1
  Mg  Mg5  1  0.27561854  0.80933055  0.28560951  1
  Mg  Mg6  1  0.72438146  0.19066945  0.71439049  1
  P  P0  1  0.77232228  0.85409814  0.22323515  1
  P  P1  1  0.22767772  0.14590286  0.77676485  1
  P  P2  1  0.91034148  0.41861645  0.17189369  1
  P  P3  1  0.08965852  0.58138355  0.82810631  1
  P  P4  1  0.59006417  0.76636119  0.62774889  1
  P  P5  1  0.40993583  0.23363881  0.37225111  1
  H  H0  1  0.82322951  0.12600505  0.19310751  1
  H  H1  1  0.17677049  0.87399495  0.80689249  1
  H  H2  1  0.63276262  0.57827291  0.43635067  1
  H  H3  1  0.36723738  0.42172709  0.56364933  1
  O  O0  1  0.98050000  0.82421181  0.33798297  1
  O  O1  1  0.01950000  0.17578819  0.66201703  1
  O  O2  1  0.77864251  0.81173741  0.05634927  1
  O  O3  1  0.22135749  0.18826259  0.94365073  1
  O  O4  1  0.54743637  0.75771756  0.22990135  1
  O  O5  1  0.45256363  0.24228244  0.77009865  1
  O  O6  1  0.80028418  0.06824345  0.27882999  1
  O  O7  1  0.19971582  0.93175655  0.72117001  1
  O  O8  1  0.69233798  0.46176386  0.08589115  1
  O  O9  1  0.30766202  0.53823614  0.91410885  1
  O  O10  1  0.94099669  0.45437299  0.34629192  1
  O  O11  1  0.05900331  0.54562701  0.65370808  1
  O  O12  1  0.88990398  0.21356586  0.09509128  1
  O  O13  1  0.11009602  0.78643414  0.90490872  1
  O  O14  1  0.12284343  0.54001313  0.16407878  1
  O  O15  1  0.87715657  0.45998687  0.83592122  1
  O  O16  1  0.37970139  0.78867639  0.50840609  1
  O  O17  1  0.62029861  0.21132361  0.49159391  1
  O  O18  1  0.52527679  0.61399906  0.69172703  1
  O  O19  1  0.47472321  0.38600094  0.30827297  1
  O  O20  1  0.73865831  0.94883495  0.75937850  1
  O  O21  1  0.26134169  0.05116405  0.24062150  1
  O  O22  1  0.73199295  0.70095094  0.52435310  1
  O  O23  1  0.26800705  0.29904906  0.47564690  1
loop_
_geom_bond_atom_site_label_1
_geom_bond_atom_site_label_2
_geom_bond_distance
_geom_bond_site_symmetry_2
Mg0 O19 2.031856 1_555
Mg0 O9 2.036941 1_554
Mg0 O14 2.058708 1_555
Mg0 O8 2.063276 1_555
Mg0 O3 2.107459 1_554
Mg0 O4 2.197873 1_555
Mg1 O18 2.031856 1_555
Mg1 O8 2.036941 1_556
Mg1 O15 2.058708 1_555
Mg1 O9 2.063276 1_555
Mg1 O2 2.107459 1_556
Mg1 O5 2.197873 1_555
Mg2 O12 2.048410 1_455
Mg2 O13 2.048410 1_544
Mg2 O2 2.129385 1_445
Mg2 O3 2.129385 1_554
Mg2 O20 2.229587 1_444
Mg2 O21 2.229588 1_555
Mg3 O10 2.039628 1_455
Mg3 O0 2.040379 1_455
Mg3 O7 2.044876 1_555
Mg3 O11 2.061888 1_555
Mg3 O22 2.079268 1_455
Mg3 O16 2.087158 1_555
Mg4 O11 2.039628 1_655
Mg4 O1 2.040379 1_655
Mg4 O6 2.044876 1_555
Mg4 O10 2.061888 1_555
Mg4 O23 2.079268 1_655
Mg4 O17 2.087158 1_555
Mg5 O14 1.995912 1_555
Mg5 O16 2.048491 1_555
Mg5 O21 2.053714 1_565
Mg5 O4 2.055043 1_555
Mg5 O0 2.118534 1_455
Mg6 O15 1.995912 1_555
Mg6 O17 2.048491 1_555
Mg6 O20 2.053721 1_545
Mg6 O5 2.055043 1_555
Mg6 O1 2.118534 1_655
H0 O6 1.054509 1_555
H0 O12 1.400706 1_555
H1 O7 1.054509 1_555
H1 O13 1.400706 1_555
H2 O22 1.019994 1_555
H2 O19 1.569491 1_555
H3 O23 1.019994 1_555
H3 O18 1.569491 1_555
O0 P0 1.528186 1_555
O1 P1 1.528182 1_555
O2 P0 1.537578 1_555
O3 P1 1.537578 1_555
O4 P0 1.521245 1_555
O5 P1 1.521242 1_555
O6 P0 1.579996 1_545
O7 P1 1.580004 1_565
O8 P2 1.524688 1_555
O9 P3 1.524688 1_555
O10 P2 1.534819 1_555
O11 P3 1.534819 1_555
O12 P2 1.545332 1_555
O13 P3 1.545332 1_555
O14 P2 1.537650 1_455
O15 P3 1.537650 1_655
O16 P4 1.529464 1_555
O17 P5 1.529464 1_555
O18 P4 1.512798 1_555
O19 P5 1.512798 1_555
O20 P4 1.520947 1_555
O21 P5 1.520952 1_555
O22 P4 1.590713 1_555
O23 P5 1.590713 1_555
