# generated using pymatgen
data_Pr2UTe5
_symmetry_space_group_name_H-M   'P 1'
_cell_length_a   9.86548796
_cell_length_b   9.86548796
_cell_length_c   8.90381916
_cell_angle_alpha   89.14565062
_cell_angle_beta   89.14565062
_cell_angle_gamma   37.07747628
_symmetry_Int_Tables_number   1
_chemical_formula_structural   Pr2UTe5
_chemical_formula_sum   'Pr4 U2 Te10'
_cell_volume   522.39740291
_cell_formula_units_Z   2
loop_
 _symmetry_equiv_pos_site_id
 _symmetry_equiv_pos_as_xyz
  1  'x, y, z'
loop_
 _atom_site_type_symbol
 _atom_site_label
 _atom_site_symmetry_multiplicity
 _atom_site_fract_x
 _atom_site_fract_y
 _atom_site_fract_z
 _atom_site_occupancy
  Pr  Pr0  1  0.25026500  0.24977200  0.26629600  1
  Pr  Pr1  1  0.57993100  0.59123200  0.26191000  1
  Pr  Pr2  1  0.75022800  0.74973500  0.73370400  1
  Pr  Pr3  1  0.40876800  0.42006900  0.73809000  1
  U  U0  1  0.93101800  0.90721400  0.26143000  1
  U  U1  1  0.09278600  0.06898200  0.73857000  1
  Te  Te0  1  0.24635300  0.24669200  0.63915200  1
  Te  Te1  1  0.91456800  0.92215400  0.62830300  1
  Te  Te2  1  0.59041200  0.57790000  0.63690800  1
  Te  Te3  1  0.75330800  0.75364700  0.36084800  1
  Te  Te4  1  0.42210000  0.40958800  0.36309200  1
  Te  Te5  1  0.07784600  0.08543200  0.37169700  1
  Te  Te6  1  0.42093100  0.93497700  0.99861300  1
  Te  Te7  1  0.06502300  0.57906900  0.00138700  1
  Te  Te8  1  0.75019300  0.24980700  0.00000000  1
  Te  Te9  1  0.24627900  0.75372100  0.00000000  1
loop_
_geom_bond_atom_site_label_1
_geom_bond_atom_site_label_2
_geom_bond_distance
_geom_bond_site_symmetry_2
Pr0 Te7 3.143867 1_555
Pr0 Te6 3.149258 1_544
Pr0 Te4 3.232868 1_555
Pr0 Te3 3.246092 1_545
Pr0 Te3 3.251131 1_455
Pr0 Te5 3.272648 1_555
Pr0 Te0 3.319459 1_555
Pr1 Te9 3.246642 1_555
Pr1 Te8 3.270296 1_555
Pr1 Te5 3.274841 1_565
Pr1 Te3 3.275542 1_555
Pr1 Te4 3.287819 1_555
Pr1 Te6 3.292628 1_554
Pr1 Te5 3.297088 1_655
Pr1 Te2 3.339437 1_555
Pr2 Te6 3.143867 1_555
Pr2 Te7 3.149258 1_656
Pr2 Te2 3.232868 1_555
Pr2 Te0 3.246092 1_655
Pr2 Te0 3.251131 1_565
Pr2 Te1 3.272648 1_555
Pr2 Te3 3.319459 1_555
Pr3 Te9 3.246642 1_556
Pr3 Te8 3.270296 1_556
Pr3 Te1 3.274841 1_455
Pr3 Te0 3.275542 1_555
Pr3 Te2 3.287819 1_555
Pr3 Te7 3.292628 1_556
Pr3 Te1 3.297088 1_545
Pr3 Te4 3.339437 1_555
Te0 U1 3.210058 1_555
Te1 U1 3.211099 1_665
Te1 U0 3.267863 1_555
Te2 U1 3.230980 1_565
Te2 U1 3.299035 1_655
Te3 U0 3.210058 1_555
Te4 U0 3.230980 1_455
Te4 U0 3.299035 1_545
Te5 U0 3.211099 1_445
Te5 U1 3.267863 1_555
Te6 U1 3.300319 1_565
Te7 U0 3.300319 1_455
Te8 Te9 3.112136 1_645
Te8 Te9 3.161244 1_555
Te8 U1 3.208196 1_654
Te8 U0 3.208196 1_545
Te9 U0 3.123924 1_455
Te9 U1 3.123924 1_564
