# generated using pymatgen
data_Ho5(GeSb)2
_symmetry_space_group_name_H-M   'P 1'
_cell_length_a   8.46499769
_cell_length_b   8.46499769
_cell_length_c   7.89788304
_cell_angle_alpha   90.00000000
_cell_angle_beta   90.00000000
_cell_angle_gamma   124.55845996
_symmetry_Int_Tables_number   1
_chemical_formula_structural   Ho5(GeSb)2
_chemical_formula_sum   'Ho10 Ge4 Sb4'
_cell_volume   466.07222356
_cell_formula_units_Z   2
loop_
 _symmetry_equiv_pos_site_id
 _symmetry_equiv_pos_as_xyz
  1  'x, y, z'
loop_
 _atom_site_type_symbol
 _atom_site_label
 _atom_site_symmetry_multiplicity
 _atom_site_fract_x
 _atom_site_fract_y
 _atom_site_fract_z
 _atom_site_occupancy
  Ho  Ho0  1  0.03512874  0.28723411  0.33915161  1
  Ho  Ho1  1  0.96487126  0.71276589  0.66084839  1
  Ho  Ho2  1  0.46487126  0.21276589  0.83915161  1
  Ho  Ho3  1  0.78723411  0.53512774  0.16084839  1
  Ho  Ho4  1  0.53512874  0.78723411  0.16084839  1
  Ho  Ho5  1  0.21276589  0.46487226  0.83915161  1
  Ho  Ho6  1  0.71276589  0.96487126  0.66084839  1
  Ho  Ho7  1  0.28723411  0.03512874  0.33915161  1
  Ho  Ho8  1  0.00000000  0.00000000  -0.00000000  1
  Ho  Ho9  1  0.50000000  0.50000000  0.50000000  1
  Ge  Ge0  1  0.35696288  0.35696288  0.14165052  1
  Ge  Ge1  1  0.64303712  0.64303712  0.85834948  1
  Ge  Ge2  1  0.14303712  0.14303712  0.64165052  1
  Ge  Ge3  1  0.85696288  0.85696288  0.35834948  1
  Sb  Sb0  1  0.79584570  0.20415430  -0.00000000  1
  Sb  Sb1  1  0.20415430  0.79584570  -0.00000000  1
  Sb  Sb2  1  0.70415430  0.29584570  0.50000000  1
  Sb  Sb3  1  0.29584570  0.70415430  0.50000000  1
loop_
_geom_bond_atom_site_label_1
_geom_bond_atom_site_label_2
_geom_bond_distance
_geom_bond_site_symmetry_2
Ho0 Sb2 3.114538 1_455
Ho0 Sb3 3.178605 1_555
Ho0 Sb0 3.186859 1_455
Ho1 Sb3 3.114538 1_655
Ho1 Sb2 3.178605 1_555
Ho1 Sb1 3.186859 1_656
Ho2 Sb0 3.114538 1_556
Ho2 Sb1 3.178605 1_546
Ho2 Sb2 3.186859 1_555
Ho3 Sb0 3.114530 1_555
Ho3 Sb1 3.178606 1_655
Ho3 Sb2 3.186855 1_555
Ho4 Sb1 3.114538 1_555
Ho4 Sb0 3.178605 1_565
Ho4 Sb3 3.186859 1_555
Ho5 Sb1 3.114530 1_556
Ho5 Sb0 3.178606 1_456
Ho5 Sb3 3.186855 1_555
Ho6 Sb2 3.114538 1_565
Ho6 Sb3 3.178605 1_555
Ho6 Sb0 3.186859 1_566
Ho7 Sb3 3.114538 1_545
Ho7 Sb2 3.178605 1_555
Ho7 Sb1 3.186859 1_545
Ho8 Sb1 3.059631 1_545
Ho8 Sb0 3.059631 1_455
Ho9 Sb2 3.059631 1_555
Ho9 Sb3 3.059631 1_555
Ge0 Ho7 2.894674 1_555
Ge0 Ho0 2.894674 1_555
Ge0 Ho8 3.025587 1_555
Ge0 Ho9 3.046133 1_555
Ge0 Ho2 3.049106 1_554
Ge0 Ho5 3.049110 1_554
Ge0 Ho4 3.054766 1_555
Ge0 Ho3 3.054768 1_555
Ge1 Ho1 2.894674 1_555
Ge1 Ho6 2.894674 1_555
Ge1 Ho8 3.025587 1_666
Ge1 Ho9 3.046133 1_555
Ge1 Ho4 3.049106 1_556
Ge1 Ho3 3.049110 1_556
Ge1 Ho2 3.054766 1_555
Ge1 Ho5 3.054768 1_555
Ge2 Ho2 2.894674 1_555
Ge2 Ho5 2.894681 1_555
Ge2 Ho9 3.025587 1_555
Ge2 Ho8 3.046133 1_556
Ge2 Ho0 3.049106 1_555
Ge2 Ho7 3.049106 1_555
Ge2 Ho1 3.054766 1_445
Ge2 Ho6 3.054766 1_445
Ge3 Ho4 2.894674 1_555
Ge3 Ho3 2.894681 1_555
Ge3 Ho9 3.025587 1_555
Ge3 Ho8 3.046133 1_665
Ge3 Ho1 3.049106 1_555
Ge3 Ho6 3.049106 1_555
Ge3 Ho7 3.054766 1_665
Ge3 Ho0 3.054766 1_665
