# generated using pymatgen
data_Li9Mn2Co5O16
_symmetry_space_group_name_H-M   'P 1'
_cell_length_a   5.92090400
_cell_length_b   7.69454586
_cell_length_c   7.73202903
_cell_angle_alpha   64.51618763
_cell_angle_beta   68.17582279
_cell_angle_gamma   68.90221840
_symmetry_Int_Tables_number   1
_chemical_formula_structural   Li9Mn2Co5O16
_chemical_formula_sum   'Li9 Mn2 Co5 O16'
_cell_volume   286.66672997
_cell_formula_units_Z   1
loop_
 _symmetry_equiv_pos_site_id
 _symmetry_equiv_pos_as_xyz
  1  'x, y, z'
loop_
 _atom_site_type_symbol
 _atom_site_label
 _atom_site_symmetry_multiplicity
 _atom_site_fract_x
 _atom_site_fract_y
 _atom_site_fract_z
 _atom_site_occupancy
  Li  Li0  1  0.38204000  0.61657700  0.12686900  1
  Li  Li1  1  0.24108900  0.24915900  0.25811100  1
  Li  Li2  1  0.62935900  0.37329200  0.87912600  1
  Li  Li3  1  0.50044300  0.00439200  0.99669300  1
  Li  Li4  1  0.87363100  0.12946800  0.61420900  1
  Li  Li5  1  0.75301800  0.74706000  0.74687700  1
  Li  Li6  1  0.11066800  0.88340800  0.37977900  1
  Li  Li7  1  0.00359600  0.49781300  0.50123500  1
  Li  Li8  1  0.75056700  0.24875200  0.25084800  1
  Mn  Mn0  1  0.99685000  0.00206200  0.00143600  1
  Mn  Mn1  1  0.87730300  0.62080900  0.12693900  1
  Co  Co0  1  0.62745200  0.87707000  0.37374200  1
  Co  Co1  1  0.50858200  0.49088700  0.49932600  1
  Co  Co2  1  0.38453800  0.12757400  0.61519700  1
  Co  Co3  1  0.24790700  0.75478400  0.74089300  1
  Co  Co4  1  0.12055200  0.37171600  0.88236800  1
  O  O0  1  0.00599700  0.75626100  0.22681000  1
  O  O1  1  0.86828400  0.39550100  0.36384500  1
  O  O2  1  0.22354400  0.51045800  0.00300100  1
  O  O3  1  0.12309000  0.12515700  0.10423600  1
  O  O4  1  0.48885700  0.25669600  0.74756000  1
  O  O5  1  0.34254600  0.89211700  0.86653300  1
  O  O6  1  0.72604000  0.99121800  0.50059000  1
  O  O7  1  0.60430000  0.63915300  0.61189500  1
  O  O8  1  0.76411500  0.51117100  0.00461000  1
  O  O9  1  0.65758000  0.10017600  0.13033200  1
  O  O10  1  0.00014400  0.23640900  0.76782100  1
  O  O11  1  0.88702600  0.86715900  0.89123000  1
  O  O12  1  0.25001400  0.99551500  0.50370700  1
  O  O13  1  0.13597000  0.61414300  0.63824600  1
  O  O14  1  0.54048100  0.74234700  0.25013000  1
  O  O15  1  0.37441900  0.37169900  0.39579800  1
loop_
_geom_bond_atom_site_label_1
_geom_bond_atom_site_label_2
_geom_bond_distance
_geom_bond_site_symmetry_2
Li0 O2 2.087479 1_555
Li0 O8 2.101886 1_555
Li0 O0 2.102936 1_555
Li0 O15 2.120394 1_555
Li0 O14 2.199298 1_555
Li0 O5 2.218613 1_554
Li1 O12 2.056463 1_545
Li1 O1 2.114169 1_455
Li1 O2 2.129160 1_555
Li1 O15 2.161053 1_555
Li1 O3 2.211078 1_555
Li1 O9 2.345075 1_555
Li2 O10 2.092905 1_655
Li2 O4 2.117463 1_555
Li2 O9 2.166322 1_556
Li2 O8 2.185013 1_556
Li2 O7 2.201891 1_555
Li2 O2 2.266666 1_556
Li3 O4 2.066059 1_555
Li3 O3 2.082248 1_556
Li3 O9 2.083344 1_556
Li3 O14 2.136111 1_546
Li3 O11 2.152274 1_545
Li3 O5 2.159252 1_545
Li4 O12 2.108830 1_645
Li4 O1 2.127827 1_555
Li4 O10 2.143638 1_655
Li4 O6 2.170540 1_545
Li4 O4 2.174431 1_555
Li4 O11 2.226843 1_545
Li5 O6 2.028028 1_555
Li5 O8 2.041810 1_556
Li5 O7 2.123527 1_555
Li5 O13 2.132227 1_655
Li5 O11 2.191620 1_555
Li5 O5 2.296150 1_555
Li6 O12 2.038245 1_555
Li6 O6 2.114731 1_455
Li6 O3 2.139240 1_565
Li6 O0 2.171958 1_555
Li6 O13 2.178330 1_555
Li6 O14 2.389629 1_555
Li7 O1 2.048565 1_455
Li7 O15 2.059854 1_555
Li7 O13 2.115701 1_555
Li7 O10 2.173812 1_555
Li7 O0 2.196379 1_555
Li7 O7 2.224842 1_455
Li8 O9 2.056620 1_555
Li8 O6 2.093461 1_545
Li8 O1 2.095820 1_555
Li8 O8 2.098429 1_555
Li8 O3 2.147785 1_655
Li8 O15 2.156585 1_555
Mn0 O9 1.914566 1_555
Mn0 O3 1.920115 1_655
Mn0 O10 1.926392 1_654
Mn0 O0 1.943459 1_645
Mn0 O11 1.971157 1_544
Mn0 O5 1.979527 1_644
Mn1 O8 1.902739 1_555
Mn1 O1 1.903939 1_555
Mn1 O14 1.941781 1_555
Mn1 O2 1.956622 1_655
Mn1 O11 1.986389 1_554
Mn1 O0 1.991227 1_655
Co0 O6 1.900053 1_555
Co0 O9 1.926551 1_565
Co0 O7 1.962931 1_555
Co0 O14 1.963695 1_555
Co0 O12 2.118188 1_555
Co0 O0 2.166544 1_655
Co1 O15 1.934381 1_555
Co1 O4 1.988305 1_555
Co1 O1 2.012305 1_555
Co1 O7 2.016675 1_555
Co1 O14 2.067937 1_555
Co1 O13 2.128112 1_555
Co2 O15 1.913721 1_555
Co2 O6 1.978657 1_545
Co2 O5 2.013976 1_545
Co2 O4 2.050079 1_555
Co2 O12 2.063255 1_545
Co2 O10 2.180640 1_555
Co3 O12 1.967480 1_555
Co3 O13 1.971496 1_555
Co3 O7 2.021479 1_555
Co3 O5 2.022062 1_555
Co3 O11 2.086285 1_455
Co3 O2 2.088456 1_556
Co4 O3 1.934012 1_556
Co4 O13 2.003852 1_555
Co4 O2 2.032233 1_556
Co4 O10 2.043025 1_555
Co4 O8 2.063492 1_456
Co4 O4 2.083156 1_555
