# generated using pymatgen
data_KPr(PSe3)2
_symmetry_space_group_name_H-M   'P 1'
_cell_length_a   7.89780400
_cell_length_b   11.97874600
_cell_length_c   12.57355096
_cell_angle_alpha   70.47683589
_cell_angle_beta   90.00000000
_cell_angle_gamma   90.00000000
_symmetry_Int_Tables_number   1
_chemical_formula_structural   KPr(PSe3)2
_chemical_formula_sum   'K4 Pr4 P8 Se24'
_cell_volume   1121.14036625
_cell_formula_units_Z   4
loop_
 _symmetry_equiv_pos_site_id
 _symmetry_equiv_pos_as_xyz
  1  'x, y, z'
loop_
 _atom_site_type_symbol
 _atom_site_label
 _atom_site_symmetry_multiplicity
 _atom_site_fract_x
 _atom_site_fract_y
 _atom_site_fract_z
 _atom_site_occupancy
  K  K0  1  0.41282000  0.62588900  0.12824000  1
  K  K1  1  0.58718000  0.37411100  0.87176000  1
  K  K2  1  0.91282000  0.87411100  0.87176000  1
  K  K3  1  0.08718000  0.12588900  0.12824000  1
  Pr  Pr0  1  0.60329800  0.90481200  0.35084400  1
  Pr  Pr1  1  0.39670200  0.09518800  0.64915600  1
  Pr  Pr2  1  0.10329800  0.59518800  0.64915600  1
  Pr  Pr3  1  0.89670200  0.40481200  0.35084400  1
  P  P0  1  0.88336700  0.73264300  0.20990200  1
  P  P1  1  0.11663300  0.26735700  0.79009800  1
  P  P2  1  0.38336700  0.76735700  0.79009800  1
  P  P3  1  0.61663300  0.23264300  0.20990200  1
  P  P4  1  0.59762700  0.75340300  0.67591600  1
  P  P5  1  0.40237300  0.24659700  0.32408400  1
  P  P6  1  0.09762700  0.74659700  0.32408400  1
  P  P7  1  0.90237300  0.25340300  0.67591600  1
  Se  Se0  1  0.68898400  0.63257500  0.32866600  1
  Se  Se1  1  0.31101600  0.36742500  0.67133400  1
  Se  Se2  1  0.18898400  0.86742500  0.67133400  1
  Se  Se3  1  0.81101600  0.13257500  0.32866600  1
  Se  Se4  1  0.97261500  0.81607600  0.44865200  1
  Se  Se5  1  0.02738500  0.18392400  0.55134800  1
  Se  Se6  1  0.47261500  0.68392400  0.55134800  1
  Se  Se7  1  0.52738500  0.31607600  0.44865200  1
  Se  Se8  1  0.29095500  0.86099500  0.21469500  1
  Se  Se9  1  0.70904500  0.13900500  0.78530500  1
  Se  Se10  1  0.79095500  0.63900500  0.78530500  1
  Se  Se11  1  0.20904500  0.36099500  0.21469500  1
  Se  Se12  1  0.68953300  0.93612600  0.58835800  1
  Se  Se13  1  0.31046700  0.06387400  0.41164200  1
  Se  Se14  1  0.18953300  0.56387400  0.41164200  1
  Se  Se15  1  0.81046700  0.43612600  0.58835800  1
  Se  Se16  1  0.98153500  0.62787300  0.11026200  1
  Se  Se17  1  0.01846500  0.37212700  0.88973800  1
  Se  Se18  1  0.48153500  0.87212700  0.88973800  1
  Se  Se19  1  0.51846500  0.12787300  0.11026200  1
  Se  Se20  1  0.78560600  0.91445800  0.12990100  1
  Se  Se21  1  0.21439400  0.08554200  0.87009900  1
  Se  Se22  1  0.28560600  0.58554200  0.87009900  1
  Se  Se23  1  0.71439400  0.41445800  0.12990100  1
loop_
_geom_bond_atom_site_label_1
_geom_bond_atom_site_label_2
_geom_bond_distance
_geom_bond_site_symmetry_2
K0 Se0 3.353983 1_555
K0 Se11 3.396303 1_555
K0 Se16 3.413254 1_455
K0 Se23 3.471654 1_555
K0 Se18 3.475005 1_554
K0 Se8 3.476434 1_555
K0 Se22 3.581395 1_554
K0 Se14 3.819692 1_555
K1 Se1 3.353983 1_555
K1 Se10 3.396303 1_555
K1 Se17 3.413254 1_655
K1 Se22 3.471654 1_555
K1 Se19 3.475005 1_556
K1 Se9 3.476434 1_555
K1 Se23 3.581395 1_556
K1 Se15 3.819692 1_555
K2 Se2 3.353983 1_655
K2 Se9 3.396303 1_565
K2 Se18 3.413254 1_555
K2 Se21 3.471654 1_665
K2 Se16 3.475005 1_556
K2 Se10 3.476434 1_555
K2 Se20 3.581395 1_556
K2 Se12 3.819692 1_555
K3 Se3 3.353983 1_455
K3 Se8 3.396303 1_545
K3 Se19 3.413254 1_555
K3 Se20 3.471654 1_445
K3 Se17 3.475005 1_554
K3 Se11 3.476434 1_555
K3 Se21 3.581395 1_554
K3 Se13 3.819692 1_555
Pr0 Se20 3.096679 1_555
Pr0 Se3 3.115165 1_565
Pr0 Se8 3.145120 1_555
Pr0 Se6 3.156513 1_555
Pr0 Se12 3.204968 1_555
Pr0 Se4 3.205655 1_555
Pr0 Se13 3.246073 1_565
Pr0 Se19 3.366986 1_565
Pr0 Se0 3.431912 1_555
Pr1 Se21 3.096679 1_555
Pr1 Se2 3.115165 1_545
Pr1 Se9 3.145120 1_555
Pr1 Se7 3.156513 1_555
Pr1 Se13 3.204968 1_555
Pr1 Se5 3.205655 1_555
Pr1 Se12 3.246073 1_545
Pr1 Se18 3.366986 1_545
Pr1 Se1 3.431912 1_555
Pr2 Se22 3.096679 1_555
Pr2 Se1 3.115165 1_555
Pr2 Se10 3.145120 1_455
Pr2 Se4 3.156513 1_455
Pr2 Se14 3.204968 1_555
Pr2 Se6 3.205655 1_555
Pr2 Se15 3.246073 1_455
Pr2 Se17 3.366986 1_555
Pr2 Se2 3.431912 1_555
Pr3 Se23 3.096679 1_555
Pr3 Se0 3.115165 1_555
Pr3 Se11 3.145120 1_655
Pr3 Se5 3.156513 1_655
Pr3 Se15 3.204968 1_555
Pr3 Se7 3.205655 1_555
Pr3 Se14 3.246073 1_655
Pr3 Se16 3.366986 1_555
Pr3 Se3 3.431912 1_555
P0 Se16 2.190124 1_555
P0 Se0 2.197091 1_555
P0 Se20 2.210663 1_555
P0 P6 2.261189 1_655
P1 Se17 2.190124 1_555
P1 Se1 2.197091 1_555
P1 Se21 2.210663 1_555
P1 P7 2.261189 1_455
P2 Se18 2.190124 1_555
P2 Se2 2.197091 1_555
P2 Se22 2.210663 1_555
P2 P4 2.261189 1_555
P3 Se19 2.190124 1_555
P3 Se3 2.197091 1_555
P3 Se23 2.210663 1_555
P3 P5 2.261189 1_555
P4 Se10 2.200266 1_555
P4 Se12 2.217910 1_555
P4 Se6 2.234260 1_555
P5 Se11 2.200266 1_555
P5 Se13 2.217910 1_555
P5 Se7 2.234260 1_555
P6 Se8 2.200266 1_555
P6 Se14 2.217910 1_555
P6 Se4 2.234260 1_455
P7 Se9 2.200266 1_555
P7 Se15 2.217910 1_555
P7 Se5 2.234260 1_655
