# generated using pymatgen
data_SrLa3(NiO4)2
_symmetry_space_group_name_H-M   'P 1'
_cell_length_a   5.44067400
_cell_length_b   5.45597602
_cell_length_c   6.91384047
_cell_angle_alpha   89.99163847
_cell_angle_beta   66.82837169
_cell_angle_gamma   90.00054679
_symmetry_Int_Tables_number   1
_chemical_formula_structural   SrLa3(NiO4)2
_chemical_formula_sum   'Sr1 La3 Ni2 O8'
_cell_volume   188.67574728
_cell_formula_units_Z   1
loop_
 _symmetry_equiv_pos_site_id
 _symmetry_equiv_pos_as_xyz
  1  'x, y, z'
loop_
 _atom_site_type_symbol
 _atom_site_label
 _atom_site_symmetry_multiplicity
 _atom_site_fract_x
 _atom_site_fract_y
 _atom_site_fract_z
 _atom_site_occupancy
  Sr  Sr0  1  0.64168000  0.99999600  0.71663400  1
  La  La0  1  0.13762100  0.50000900  0.72488000  1
  La  La1  1  0.85923300  0.49998600  0.28161500  1
  La  La2  1  0.36230700  0.99999900  0.27538400  1
  Ni  Ni0  1  0.50454500  0.49995300  0.99082200  1
  Ni  Ni1  1  0.00282600  0.00003800  0.99429700  1
  O  O0  1  0.31991400  0.49995000  0.36014000  1
  O  O1  1  0.83526200  0.99998300  0.32944500  1
  O  O2  1  0.17485600  0.00003700  0.65033800  1
  O  O3  1  0.67572400  0.50008400  0.64859800  1
  O  O4  1  0.74434100  0.25798300  0.00695300  1
  O  O5  1  0.24868600  0.74201400  0.00697600  1
  O  O6  1  0.24865700  0.25800300  0.00693100  1
  O  O7  1  0.74435000  0.74196400  0.00698600  1
loop_
_geom_bond_atom_site_label_1
_geom_bond_atom_site_label_2
_geom_bond_distance
_geom_bond_site_symmetry_2
La0 O0 2.318325 1_555
La0 O6 2.614847 1_556
La0 O4 2.615455 1_456
La0 O5 2.615469 1_556
La0 O7 2.615638 1_456
La0 O3 2.762992 1_555
La0 O3 2.763424 1_455
La0 O2 2.768752 1_555
La0 O2 2.768901 1_565
La1 O3 2.332582 1_555
La1 O5 2.582985 1_655
La1 O7 2.583050 1_555
La1 O6 2.583208 1_655
La1 O4 2.583612 1_555
La1 O1 2.744843 1_545
La1 O1 2.744909 1_555
La1 O0 2.765456 1_655
La1 O0 2.766035 1_555
La2 O2 2.383246 1_565
La2 O4 2.590215 1_565
La2 O5 2.590489 1_555
La2 O6 2.590592 1_565
La2 O7 2.590617 1_555
La2 O1 2.741884 1_555
La2 O1 2.742022 1_455
La2 O0 2.780496 1_565
La2 O0 2.780848 1_555
Ni0 O6 1.889742 1_556
Ni0 O4 1.889956 1_556
Ni0 O5 1.890022 1_556
Ni0 O7 1.890228 1_556
Ni0 O3 2.175211 1_555
Ni0 O0 2.347423 1_556
Ni1 O4 1.967046 1_456
Ni1 O6 1.967069 1_556
Ni1 O7 1.967424 1_446
Ni1 O5 1.967506 1_546
Ni1 O1 2.130235 1_446
Ni1 O2 2.186239 1_555
O1 Sr0 2.461013 1_555
O2 Sr0 2.752640 1_545
O2 Sr0 2.752920 1_445
O3 Sr0 2.761646 1_555
O3 Sr0 2.762456 1_545
O4 Sr0 2.684262 1_544
O5 Sr0 2.683991 1_554
O6 Sr0 2.684335 1_544
O7 Sr0 2.684303 1_554
