# generated using pymatgen
data_Li2CdPb
_symmetry_space_group_name_H-M   'P 1'
_cell_length_a   4.80211943
_cell_length_b   4.80211935
_cell_length_c   4.80211991
_cell_angle_alpha   60.00000312
_cell_angle_beta   60.00000376
_cell_angle_gamma   59.99998963
_symmetry_Int_Tables_number   1
_chemical_formula_structural   Li2CdPb
_chemical_formula_sum   'Li2 Cd1 Pb1'
_cell_volume   78.30399090
_cell_formula_units_Z   1
loop_
 _symmetry_equiv_pos_site_id
 _symmetry_equiv_pos_as_xyz
  1  'x, y, z'
loop_
 _atom_site_type_symbol
 _atom_site_label
 _atom_site_symmetry_multiplicity
 _atom_site_fract_x
 _atom_site_fract_y
 _atom_site_fract_z
 _atom_site_occupancy
  Li  Li0  1  0.75000000  0.75000000  0.75000000  1
  Li  Li1  1  0.25000000  0.25000000  0.25000000  1
  Cd  Cd0  1  -0.00000000  0.00000000  0.00000000  1
  Pb  Pb0  1  0.50000000  0.50000000  0.50000000  1
loop_
_geom_bond_atom_site_label_1
_geom_bond_atom_site_label_2
_geom_bond_distance
_geom_bond_site_symmetry_2
Li0 Pb0 2.940685 1_565
Li0 Pb0 2.940685 1_655
Li0 Pb0 2.940686 1_555
Li0 Pb0 2.940686 1_556
Li1 Pb0 2.940685 1_545
Li1 Pb0 2.940685 1_455
Li1 Pb0 2.940686 1_555
Li1 Pb0 2.940686 1_554
Cd0 Li1 2.940685 1_545
Cd0 Li0 2.940685 1_454
Cd0 Li1 2.940685 1_455
Cd0 Li0 2.940685 1_544
Cd0 Li0 2.940686 1_444
Cd0 Li1 2.940686 1_555
Cd0 Li1 2.940686 1_554
Cd0 Li0 2.940686 1_445
