# generated using pymatgen
data_Er(BIr)4
_symmetry_space_group_name_H-M   'P 1'
_cell_length_a   5.37564518
_cell_length_b   5.37564518
_cell_length_c   7.41910270
_cell_angle_alpha   90.00000000
_cell_angle_beta   90.00000000
_cell_angle_gamma   90.00000000
_symmetry_Int_Tables_number   1
_chemical_formula_structural   Er(BIr)4
_chemical_formula_sum   'Er2 B8 Ir8'
_cell_volume   214.39397359
_cell_formula_units_Z   2
loop_
 _symmetry_equiv_pos_site_id
 _symmetry_equiv_pos_as_xyz
  1  'x, y, z'
loop_
 _atom_site_type_symbol
 _atom_site_label
 _atom_site_symmetry_multiplicity
 _atom_site_fract_x
 _atom_site_fract_y
 _atom_site_fract_z
 _atom_site_occupancy
  Er  Er0  1  -0.00000000  -0.00000000  -0.00000000  1
  Er  Er1  1  0.50000000  0.50000000  0.50000000  1
  B  B0  1  0.82708512  0.50000000  0.15358233  1
  B  B1  1  0.17291488  0.50000000  0.15358233  1
  B  B2  1  -0.00000000  0.32708512  0.65358233  1
  B  B3  1  -0.00000000  0.67291488  0.65358233  1
  B  B4  1  0.67291488  -0.00000000  0.34641767  1
  B  B5  1  0.32708512  -0.00000000  0.34641767  1
  B  B6  1  0.50000000  0.17291488  0.84641767  1
  B  B7  1  0.50000000  0.82708512  0.84641767  1
  Ir  Ir0  1  0.25116171  0.50000000  0.85533441  1
  Ir  Ir1  1  0.74883829  0.50000000  0.85533441  1
  Ir  Ir2  1  -0.00000000  0.75116171  0.35533441  1
  Ir  Ir3  1  -0.00000000  0.24883829  0.35533441  1
  Ir  Ir4  1  0.24883829  -0.00000000  0.64466559  1
  Ir  Ir5  1  0.75116171  -0.00000000  0.64466559  1
  Ir  Ir6  1  0.50000000  0.74883829  0.14466559  1
  Ir  Ir7  1  0.50000000  0.25116171  0.14466559  1
loop_
_geom_bond_atom_site_label_1
_geom_bond_atom_site_label_2
_geom_bond_distance
_geom_bond_site_symmetry_2
Er0 Ir4 2.956219 1_554
Er0 Ir5 2.956219 1_454
Er0 Ir2 2.956219 1_545
Er0 Ir3 2.956219 1_555
Er0 Ir0 3.193628 1_554
Er0 Ir6 3.193628 1_445
Er0 Ir7 3.193628 1_555
Er0 Ir1 3.193628 1_444
Er0 Ir7 3.193628 1_455
Er0 Ir0 3.193628 1_544
Er0 Ir1 3.193628 1_454
Er0 Ir6 3.193628 1_545
Er1 Ir7 2.956219 1_555
Er1 Ir6 2.956219 1_555
Er1 Ir0 2.956219 1_555
Er1 Ir1 2.956219 1_555
Er1 Ir5 3.193628 1_555
Er1 Ir3 3.193628 1_655
Er1 Ir4 3.193628 1_555
Er1 Ir3 3.193628 1_555
Er1 Ir2 3.193628 1_555
Er1 Ir2 3.193628 1_655
Er1 Ir4 3.193628 1_565
Er1 Ir5 3.193628 1_565
B0 B1 1.859058 1_655
B0 Ir7 2.210277 1_555
B0 Ir6 2.210277 1_555
B0 Ir3 2.219778 1_655
B0 Ir2 2.219778 1_655
B0 Ir1 2.252357 1_554
B0 Er0 3.063780 1_655
B0 Er0 3.063780 1_665
B0 Er1 3.114009 1_555
B1 Ir7 2.210277 1_555
B1 Ir6 2.210277 1_555
B1 Ir3 2.219778 1_555
B1 Ir2 2.219778 1_555
B1 Ir0 2.252357 1_554
B1 Er0 3.063780 1_565
B1 Er0 3.063780 1_555
B1 Er1 3.114009 1_555
B2 B3 1.859058 1_555
B2 Ir5 2.210277 1_455
B2 Ir4 2.210277 1_555
B2 Ir1 2.219778 1_455
B2 Ir0 2.219778 1_555
B2 Ir3 2.252357 1_555
B2 Er1 3.063780 1_555
B2 Er1 3.063780 1_455
B2 Er0 3.114009 1_556
B3 Ir4 2.210277 1_565
B3 Ir5 2.210277 1_465
B3 Ir1 2.219778 1_455
B3 Ir0 2.219778 1_555
B3 Ir2 2.252357 1_555
B3 Er1 3.063780 1_555
B3 Er1 3.063780 1_455
B3 Er0 3.114009 1_566
B4 B5 1.859058 1_555
B4 Ir3 2.210277 1_655
B4 Ir2 2.210277 1_645
B4 Ir6 2.219778 1_545
B4 Ir7 2.219778 1_555
B4 Ir5 2.252357 1_555
B4 Er1 3.063780 1_555
B4 Er1 3.063780 1_545
B4 Er0 3.114009 1_655
B5 Ir2 2.210277 1_545
B5 Ir3 2.210277 1_555
B5 Ir6 2.219778 1_545
B5 Ir7 2.219778 1_555
B5 Ir4 2.252357 1_555
B5 Er1 3.063780 1_555
B5 Er1 3.063780 1_545
B5 Er0 3.114009 1_555
B6 B7 1.859058 1_545
B6 Ir0 2.210277 1_555
B6 Ir1 2.210277 1_555
B6 Ir5 2.219778 1_555
B6 Ir4 2.219778 1_555
B6 Ir7 2.252357 1_556
B6 Er0 3.063780 1_556
B6 Er0 3.063780 1_656
B6 Er1 3.114009 1_555
B7 Ir0 2.210277 1_555
B7 Ir1 2.210277 1_555
B7 Ir4 2.219778 1_565
B7 Ir5 2.219778 1_565
B7 Ir6 2.252357 1_556
B7 Er0 3.063780 1_566
B7 Er0 3.063780 1_666
B7 Er1 3.114009 1_555
