# generated using pymatgen
data_Ca3MnH3(SO7)2
_symmetry_space_group_name_H-M   'P 1'
_cell_length_a   9.22625010
_cell_length_b   9.22625010
_cell_length_c   10.77970800
_cell_angle_alpha   90.00000000
_cell_angle_beta   90.00000000
_cell_angle_gamma   120.00000073
_symmetry_Int_Tables_number   1
_chemical_formula_structural   Ca3MnH3(SO7)2
_chemical_formula_sum   'Ca6 Mn2 H6 S4 O28'
_cell_volume   794.67229387
_cell_formula_units_Z   2
loop_
 _symmetry_equiv_pos_site_id
 _symmetry_equiv_pos_as_xyz
  1  'x, y, z'
loop_
 _atom_site_type_symbol
 _atom_site_label
 _atom_site_symmetry_multiplicity
 _atom_site_fract_x
 _atom_site_fract_y
 _atom_site_fract_z
 _atom_site_occupancy
  Ca  Ca0  1  0.27969000  0.13984500  0.25000000  1
  Ca  Ca1  1  0.86015500  0.13984500  0.25000000  1
  Ca  Ca2  1  0.13984500  0.27969000  0.75000000  1
  Ca  Ca3  1  0.86015500  0.72031000  0.25000000  1
  Ca  Ca4  1  0.13984500  0.86015500  0.75000000  1
  Ca  Ca5  1  0.72031000  0.86015500  0.75000000  1
  Mn  Mn0  1  0.00000000  0.00000000  0.00000000  1
  Mn  Mn1  1  0.00000000  0.00000000  0.50000000  1
  H  H0  1  0.07568400  0.53784200  0.25000000  1
  H  H1  1  0.46215800  0.53784200  0.25000000  1
  H  H2  1  0.53784200  0.07568400  0.75000000  1
  H  H3  1  0.46215800  0.92431600  0.25000000  1
  H  H4  1  0.53784200  0.46215800  0.75000000  1
  H  H5  1  0.92431600  0.46215800  0.75000000  1
  S  S0  1  0.33333300  0.66666700  0.55981000  1
  S  S1  1  0.33333300  0.66666700  0.94019000  1
  S  S2  1  0.66666700  0.33333300  0.44019000  1
  S  S3  1  0.66666700  0.33333300  0.05981000  1
  O  O0  1  0.33333300  0.66666700  0.07751600  1
  O  O1  1  0.33333300  0.66666700  0.42248400  1
  O  O2  1  0.66666700  0.33333300  0.92248400  1
  O  O3  1  0.66666700  0.33333300  0.57751600  1
  O  O4  1  0.08622600  0.17245100  0.11831700  1
  O  O5  1  0.82754900  0.91377400  0.11831700  1
  O  O6  1  0.08622600  0.17245100  0.38168300  1
  O  O7  1  0.17245100  0.08622600  0.88168300  1
  O  O8  1  0.08622600  0.91377400  0.11831700  1
  O  O9  1  0.82754900  0.91377400  0.38168300  1
  O  O10  1  0.91377400  0.82754900  0.88168300  1
  O  O11  1  0.17245100  0.08622600  0.61831700  1
  O  O12  1  0.08622600  0.91377400  0.38168300  1
  O  O13  1  0.91377400  0.82754900  0.61831700  1
  O  O14  1  0.91377400  0.08622600  0.88168300  1
  O  O15  1  0.91377400  0.08622600  0.61831700  1
  O  O16  1  0.49155300  0.24577600  0.10639400  1
  O  O17  1  0.75422400  0.24577600  0.10639400  1
  O  O18  1  0.49155300  0.24577600  0.39360600  1
  O  O19  1  0.24577600  0.49155300  0.89360600  1
  O  O20  1  0.75422400  0.50844700  0.10639400  1
  O  O21  1  0.75422400  0.24577600  0.39360600  1
  O  O22  1  0.24577600  0.75422400  0.89360600  1
  O  O23  1  0.24577600  0.49155300  0.60639400  1
  O  O24  1  0.75422400  0.50844700  0.39360600  1
  O  O25  1  0.24577600  0.75422400  0.60639400  1
  O  O26  1  0.50844700  0.75422400  0.89360600  1
  O  O27  1  0.50844700  0.75422400  0.60639400  1
loop_
_geom_bond_atom_site_label_1
_geom_bond_atom_site_label_2
_geom_bond_distance
_geom_bond_site_symmetry_2
Ca0 O18 2.293914 1_555
Ca0 O16 2.293914 1_555
Ca0 O6 2.414228 1_555
Ca0 O4 2.414228 1_555
Ca0 O12 2.414232 1_545
Ca0 O8 2.414232 1_545
Ca1 O21 2.293908 1_555
Ca1 O17 2.293908 1_555
Ca1 O6 2.414235 1_655
Ca1 O9 2.414235 1_545
Ca1 O4 2.414235 1_655
Ca1 O5 2.414235 1_545
Ca2 O23 2.293914 1_555
Ca2 O19 2.293914 1_555
Ca2 O7 2.414228 1_555
Ca2 O11 2.414228 1_555
Ca2 O14 2.414232 1_455
Ca2 O15 2.414232 1_455
Ca3 O24 2.293914 1_555
Ca3 O20 2.293914 1_555
Ca3 O9 2.414228 1_555
Ca3 O5 2.414228 1_555
Ca3 O12 2.414232 1_655
Ca3 O8 2.414232 1_655
Ca4 O25 2.293908 1_555
Ca4 O22 2.293908 1_555
Ca4 O7 2.414235 1_565
Ca4 O11 2.414235 1_565
Ca4 O13 2.414235 1_455
Ca4 O10 2.414235 1_455
Ca5 O27 2.293914 1_555
Ca5 O26 2.293914 1_555
Ca5 O13 2.414228 1_555
Ca5 O10 2.414228 1_555
Ca5 O14 2.414232 1_565
Ca5 O15 2.414232 1_565
Mn0 O5 1.877590 1_445
Mn0 O4 1.877590 1_555
Mn0 O7 1.877590 1_554
Mn0 O10 1.877590 1_444
Mn0 O8 1.877596 1_545
Mn0 O14 1.877596 1_454
Mn1 O11 1.877590 1_555
Mn1 O6 1.877590 1_555
Mn1 O9 1.877590 1_445
Mn1 O13 1.877590 1_445
Mn1 O15 1.877596 1_455
Mn1 O12 1.877596 1_545
O0 S1 1.480334 1_554
O1 S0 1.480334 1_555
O2 S3 1.480334 1_556
O3 S2 1.480334 1_555
O16 S3 1.486573 1_555
O17 S3 1.486573 1_555
O18 S2 1.486573 1_555
O19 S1 1.486573 1_555
O20 S3 1.486573 1_555
O21 S2 1.486573 1_555
O22 S1 1.486573 1_555
O23 S0 1.486573 1_555
O24 S2 1.486573 1_555
O25 S0 1.486573 1_555
O26 S1 1.486573 1_555
O27 S0 1.486573 1_555
