# generated using pymatgen
data_MnNb2Zn2O8
_symmetry_space_group_name_H-M   'P 1'
_cell_length_a   10.26396936
_cell_length_b   10.26396936
_cell_length_c   5.31022688
_cell_angle_alpha   89.96837921
_cell_angle_beta   89.96837921
_cell_angle_gamma   34.05489531
_symmetry_Int_Tables_number   1
_chemical_formula_structural   MnNb2Zn2O8
_chemical_formula_sum   'Mn2 Nb4 Zn4 O16'
_cell_volume   313.27201843
_cell_formula_units_Z   2
loop_
 _symmetry_equiv_pos_site_id
 _symmetry_equiv_pos_as_xyz
  1  'x, y, z'
loop_
 _atom_site_type_symbol
 _atom_site_label
 _atom_site_symmetry_multiplicity
 _atom_site_fract_x
 _atom_site_fract_y
 _atom_site_fract_z
 _atom_site_occupancy
  Mn  Mn0  1  0.34149700  0.65850300  0.75000000  1
  Mn  Mn1  1  0.65850300  0.34149700  0.25000000  1
  Nb  Nb0  1  0.72200800  0.04479400  0.76477100  1
  Nb  Nb1  1  0.95520600  0.27799200  0.73522900  1
  Nb  Nb2  1  0.27799200  0.95520600  0.23522900  1
  Nb  Nb3  1  0.04479400  0.72200800  0.26477100  1
  Zn  Zn0  1  0.56725900  0.87476000  0.73609600  1
  Zn  Zn1  1  0.12524000  0.43274100  0.76390400  1
  Zn  Zn2  1  0.43274100  0.12524000  0.26390400  1
  Zn  Zn3  1  0.87476000  0.56725900  0.23609600  1
  O  O0  1  0.81972000  0.03729000  0.43159500  1
  O  O1  1  0.96271000  0.18028000  0.06840500  1
  O  O2  1  0.18028000  0.96271000  0.56840500  1
  O  O3  1  0.03729000  0.81972000  0.93159500  1
  O  O4  1  0.56621600  0.31310700  0.90810900  1
  O  O5  1  0.68689300  0.43378400  0.59189100  1
  O  O6  1  0.43378400  0.68689300  0.09189100  1
  O  O7  1  0.31310700  0.56621600  0.40810900  1
  O  O8  1  0.71723600  0.92108400  0.05862800  1
  O  O9  1  0.07891600  0.28276400  0.44137200  1
  O  O10  1  0.16288600  0.44981900  0.13156100  1
  O  O11  1  0.55018100  0.83711400  0.36843900  1
  O  O12  1  0.83711400  0.55018100  0.86843900  1
  O  O13  1  0.44981900  0.16288600  0.63156100  1
  O  O14  1  0.92108400  0.71723600  0.55862800  1
  O  O15  1  0.28276400  0.07891600  0.94137200  1
loop_
_geom_bond_atom_site_label_1
_geom_bond_atom_site_label_2
_geom_bond_distance
_geom_bond_site_symmetry_2
Mn0 O6 2.176720 1_556
Mn0 O7 2.176720 1_555
Mn0 O3 2.203286 1_555
Mn0 O2 2.203286 1_555
Mn0 O5 2.245576 1_555
Mn0 O4 2.245576 1_555
Mn1 O5 2.176720 1_555
Mn1 O4 2.176720 1_554
Mn1 O0 2.203286 1_555
Mn1 O1 2.203286 1_555
Mn1 O6 2.245576 1_555
Mn1 O7 2.245576 1_555
Nb0 O4 1.850570 1_555
Nb0 O0 2.003041 1_555
Nb0 O8 2.037267 1_546
Nb0 O13 2.040760 1_555
Nb0 O3 2.051126 1_645
Nb0 O14 2.301138 1_545
Nb1 O5 1.850570 1_555
Nb1 O1 2.003041 1_556
Nb1 O9 2.037267 1_655
Nb1 O12 2.040760 1_555
Nb1 O2 2.051126 1_645
Nb1 O15 2.301138 1_655
Nb2 O6 1.850570 1_555
Nb2 O2 2.003041 1_555
Nb2 O15 2.037267 1_564
Nb2 O11 2.040760 1_555
Nb2 O1 2.051126 1_465
Nb2 O9 2.301138 1_565
Nb3 O7 1.850570 1_555
Nb3 O3 2.003041 1_554
Nb3 O14 2.037267 1_455
Nb3 O10 2.040760 1_555
Nb3 O0 2.051126 1_465
Nb3 O8 2.301138 1_455
O8 Zn2 1.991467 1_565
O9 Zn3 1.991467 1_455
O10 Zn2 1.993472 1_555
O10 Zn1 2.026107 1_554
O10 Zn3 2.144522 1_455
O11 Zn3 1.993472 1_555
O11 Zn0 2.026107 1_555
O11 Zn2 2.144522 1_565
O12 Zn0 1.993472 1_555
O12 Zn3 2.026107 1_556
O12 Zn1 2.144522 1_655
O13 Zn1 1.993472 1_555
O13 Zn2 2.026107 1_555
O13 Zn0 2.144522 1_545
O14 Zn1 1.991467 1_655
O15 Zn0 1.991467 1_545
