# generated using pymatgen
data_SmFe10Mo2N
_symmetry_space_group_name_H-M   'P 1'
_cell_length_a   6.77076382
_cell_length_b   6.77076382
_cell_length_c   6.77076382
_cell_angle_alpha   141.14955001
_cell_angle_beta   100.93616750
_cell_angle_gamma   91.80504770
_symmetry_Int_Tables_number   1
_chemical_formula_structural   SmFe10Mo2N
_chemical_formula_sum   'Sm1 Fe10 Mo2 N1'
_cell_volume   182.89560832
_cell_formula_units_Z   1
loop_
 _symmetry_equiv_pos_site_id
 _symmetry_equiv_pos_as_xyz
  1  'x, y, z'
loop_
 _atom_site_type_symbol
 _atom_site_label
 _atom_site_symmetry_multiplicity
 _atom_site_fract_x
 _atom_site_fract_y
 _atom_site_fract_z
 _atom_site_occupancy
  Sm  Sm0  1  0.00000000  0.00000000  0.00000000  1
  Fe  Fe0  1  0.22965800  0.50000000  0.72965800  1
  Fe  Fe1  1  0.77034200  0.50000000  0.27034200  1
  Fe  Fe2  1  0.20349700  0.70349700  0.50000000  1
  Fe  Fe3  1  0.79650300  0.29650300  0.50000000  1
  Fe  Fe4  1  0.96849000  0.21136800  0.75712100  1
  Fe  Fe5  1  0.03151000  0.78863200  0.24287900  1
  Fe  Fe6  1  0.54575300  0.78863200  0.75712100  1
  Fe  Fe7  1  0.45424700  0.21136800  0.24287900  1
  Fe  Fe8  1  0.63006800  0.00000000  0.63006800  1
  Fe  Fe9  1  0.36993200  0.00000000  0.36993200  1
  Mo  Mo0  1  0.64269600  0.64269600  0.00000000  1
  Mo  Mo1  1  0.35730400  0.35730400  0.00000000  1
  N  N0  1  0.00000000  0.50000000  0.50000000  1
loop_
_geom_bond_atom_site_label_1
_geom_bond_atom_site_label_2
_geom_bond_distance
_geom_bond_site_symmetry_2
Fe0 N0 1.979489 1_555
Fe0 Fe9 2.555859 1_566
Fe0 Fe9 2.555859 1_555
Fe0 Mo1 2.690308 1_556
Fe0 Mo0 2.690308 1_556
Fe1 N0 1.979489 1_655
Fe1 Fe8 2.555859 1_554
Fe1 Fe8 2.555859 1_565
Fe1 Mo1 2.690308 1_555
Fe1 Mo0 2.690308 1_555
Fe2 N0 1.917612 1_555
Fe2 Fe6 2.356937 1_555
Fe2 Fe5 2.356940 1_555
Fe2 Mo1 2.677920 1_555
Fe2 Mo1 2.677920 1_566
Fe3 N0 1.917612 1_655
Fe3 Fe7 2.356937 1_555
Fe3 Fe4 2.356940 1_555
Fe3 Mo0 2.677920 1_556
Fe3 Mo0 2.677920 1_545
Fe4 Fe8 2.272990 1_555
Fe4 Fe5 2.369752 1_645
Fe4 Fe5 2.369761 1_656
Fe4 Mo1 2.504725 1_656
Fe4 Sm0 2.889586 1_656
Fe5 Fe9 2.272990 1_565
Fe5 Mo0 2.504725 1_455
Fe5 Sm0 2.889586 1_565
Fe6 Fe8 2.272984 1_565
Fe6 Fe7 2.369759 1_555
Fe6 Fe7 2.369759 1_566
Fe6 Mo0 2.504731 1_556
Fe6 Sm0 2.889586 1_666
Fe7 Fe9 2.272984 1_555
Fe7 Mo1 2.504731 1_555
Fe7 Sm0 2.889586 1_555
Fe8 Fe9 2.242188 1_555
Fe8 Mo0 2.852291 1_545
Fe8 Mo1 2.852291 1_545
Fe8 Mo0 2.852291 1_556
Fe8 Mo1 2.852291 1_556
Fe9 Mo1 2.852291 1_545
Fe9 Mo0 2.852291 1_556
Fe9 Mo0 2.852291 1_545
Fe9 Mo1 2.852291 1_556
Mo0 Mo1 2.689333 1_555
N0 Sm0 2.251796 1_555
N0 Sm0 2.251796 1_566
