# generated using pymatgen
data_MgGaH4
_symmetry_space_group_name_H-M   'P 1'
_cell_length_a   6.00224347
_cell_length_b   6.95021000
_cell_length_c   8.03145663
_cell_angle_alpha   90.00000000
_cell_angle_beta   97.57188707
_cell_angle_gamma   90.00000000
_symmetry_Int_Tables_number   1
_chemical_formula_structural   MgGaH4
_chemical_formula_sum   'Mg4 Ga4 H16'
_cell_volume   332.12558681
_cell_formula_units_Z   4
loop_
 _symmetry_equiv_pos_site_id
 _symmetry_equiv_pos_as_xyz
  1  'x, y, z'
loop_
 _atom_site_type_symbol
 _atom_site_label
 _atom_site_symmetry_multiplicity
 _atom_site_fract_x
 _atom_site_fract_y
 _atom_site_fract_z
 _atom_site_occupancy
  Mg  Mg0  1  0.75000300  0.63410800  0.74327300  1
  Mg  Mg1  1  0.25000300  0.86589200  0.24327300  1
  Mg  Mg2  1  0.24999700  0.36589200  0.25672700  1
  Mg  Mg3  1  0.74999700  0.13410800  0.75672700  1
  Ga  Ga0  1  0.26065500  0.62293500  0.61244200  1
  Ga  Ga1  1  0.76065500  0.87706500  0.11244200  1
  Ga  Ga2  1  0.73934500  0.37706500  0.38755800  1
  Ga  Ga3  1  0.23934500  0.12293500  0.88755800  1
  H  H0  1  0.72840200  0.57873700  0.48408600  1
  H  H1  1  0.22840200  0.92126300  0.98408600  1
  H  H2  1  0.27159800  0.42126300  0.51591400  1
  H  H3  1  0.77159800  0.07873700  0.01591400  1
  H  H4  1  0.74082100  0.38702900  0.82035400  1
  H  H5  1  0.24082100  0.11297100  0.32035400  1
  H  H6  1  0.25917900  0.61297100  0.17964600  1
  H  H7  1  0.75917900  0.88702900  0.67964500  1
  H  H8  1  0.76238400  0.18902700  0.50529600  1
  H  H9  1  0.26238400  0.31097300  0.00529600  1
  H  H10  1  0.23761600  0.81097300  0.49470400  1
  H  H11  1  0.73761600  0.68902700  0.99470400  1
  H  H12  1  0.91490100  0.38130200  0.25431000  1
  H  H13  1  0.41490100  0.11869800  0.75431000  1
  H  H14  1  0.08509900  0.61869800  0.74569000  1
  H  H15  1  0.58509900  0.88130200  0.24569000  1
loop_
_geom_bond_atom_site_label_1
_geom_bond_atom_site_label_2
_geom_bond_distance
_geom_bond_site_symmetry_2
Ga0 H14 1.598023 1_555
Ga0 H2 1.607302 1_555
Ga0 H10 1.608363 1_555
Ga1 H15 1.598023 1_555
Ga1 H3 1.607302 1_565
Ga1 H11 1.608363 1_554
Ga2 H12 1.598023 1_555
Ga2 H0 1.607302 1_555
Ga2 H8 1.608363 1_555
Ga3 H13 1.598023 1_555
Ga3 H1 1.607302 1_545
Ga3 H9 1.608363 1_556
H0 Mg0 2.104055 1_555
H1 Mg1 2.104055 1_556
H2 Mg2 2.104055 1_555
H3 Mg3 2.104055 1_554
H4 Mg0 1.828724 1_555
H4 Mg3 1.833478 1_555
H5 Mg1 1.828724 1_545
H5 Mg2 1.833478 1_555
H6 Mg2 1.828724 1_555
H6 Mg1 1.833478 1_555
H7 Mg3 1.828727 1_565
H7 Mg0 1.833480 1_555
H8 Mg3 2.066057 1_555
H9 Mg2 2.066057 1_555
H10 Mg1 2.066057 1_555
H11 Mg0 2.066057 1_555
H12 Mg2 2.011715 1_655
H13 Mg3 2.011715 1_555
H14 Mg0 2.011715 1_455
H15 Mg1 2.011715 1_555
