# generated using pymatgen
data_CoPt
_symmetry_space_group_name_H-M   'P 1'
_cell_length_a   9.09911712
_cell_length_b   9.09911712
_cell_length_c   9.09911591
_cell_angle_alpha   34.42616414
_cell_angle_beta   34.42616414
_cell_angle_gamma   34.42615708
_symmetry_Int_Tables_number   1
_chemical_formula_structural   CoPt
_chemical_formula_sum   'Co8 Pt8'
_cell_volume   214.77988098
_cell_formula_units_Z   8
loop_
 _symmetry_equiv_pos_site_id
 _symmetry_equiv_pos_as_xyz
  1  'x, y, z'
loop_
 _atom_site_type_symbol
 _atom_site_label
 _atom_site_symmetry_multiplicity
 _atom_site_fract_x
 _atom_site_fract_y
 _atom_site_fract_z
 _atom_site_occupancy
  Co  Co0_0  1  0.00000000  0.00000000  0.00000000  1
  Co  Co0_1  1  0.00000000  0.00000000  0.50000000  1
  Co  Co0_2  1  0.00000000  0.50000000  0.00000000  1
  Co  Co0_3  1  0.00000000  0.50000000  0.50000000  1
  Co  Co0_4  1  0.50000000  0.00000000  0.00000000  1
  Co  Co0_5  1  0.50000000  0.00000000  0.50000000  1
  Co  Co0_6  1  0.50000000  0.50000000  0.00000000  1
  Co  Co0_7  1  0.50000000  0.50000000  0.50000000  1
  Pt  Pt0_0  1  0.25000000  0.25000000  0.25000000  1
  Pt  Pt0_1  1  0.25000000  0.25000000  0.75000000  1
  Pt  Pt0_2  1  0.25000000  0.75000000  0.25000000  1
  Pt  Pt0_3  1  0.25000000  0.75000000  0.75000000  1
  Pt  Pt0_4  1  0.75000000  0.25000000  0.25000000  1
  Pt  Pt0_5  1  0.75000000  0.25000000  0.75000000  1
  Pt  Pt0_6  1  0.75000000  0.75000000  0.25000000  1
  Pt  Pt0_7  1  0.75000000  0.75000000  0.75000000  1
loop_
_geom_bond_atom_site_label_1
_geom_bond_atom_site_label_2
_geom_bond_distance
_geom_bond_site_symmetry_2
Co0_0 Pt0_5 2.643337 1_454
Co0_0 Pt0_3 2.643337 1_544
Co0_0 Pt0_4 2.643337 1_455
Co0_0 Pt0_2 2.643337 1_545
Co0_0 Pt0_6 2.643338 1_445
Co0_0 Pt0_1 2.643338 1_554
Co0_0 Co0_6 2.692666 1_455
Co0_0 Co0_6 2.692666 1_545
Co0_0 Co0_5 2.692667 1_455
Co0_0 Co0_3 2.692667 1_554
Co0_0 Co0_3 2.692667 1_545
Co0_0 Co0_5 2.692667 1_554
Co0_1 Pt0_3 2.643337 1_545
Co0_1 Pt0_4 2.643337 1_455
Co0_1 Pt0_2 2.643337 1_545
Co0_1 Pt0_5 2.643337 1_455
Co0_1 Pt0_0 2.643338 1_555
Co0_1 Pt0_7 2.643338 1_445
Co0_1 Co0_7 2.692666 1_455
Co0_1 Co0_7 2.692666 1_545
Co0_1 Co0_2 2.692667 1_555
Co0_1 Co0_4 2.692667 1_555
Co0_1 Co0_4 2.692667 1_456
Co0_1 Co0_2 2.692667 1_546
Co0_2 Pt0_1 2.643337 1_554
Co0_2 Pt0_6 2.643337 1_455
Co0_2 Pt0_0 2.643337 1_555
Co0_2 Pt0_7 2.643337 1_454
Co0_2 Pt0_4 2.643338 1_455
Co0_2 Pt0_3 2.643338 1_554
Co0_2 Co0_4 2.692666 1_555
Co0_2 Co0_4 2.692666 1_465
Co0_2 Co0_7 2.692667 1_455
Co0_2 Co0_7 2.692667 1_554
Co0_3 Pt0_7 2.643337 1_455
Co0_3 Pt0_6 2.643337 1_455
Co0_3 Pt0_1 2.643337 1_555
Co0_3 Pt0_0 2.643337 1_555
Co0_3 Pt0_5 2.643338 1_455
Co0_3 Pt0_2 2.643338 1_555
Co0_3 Co0_5 2.692666 1_465
Co0_3 Co0_5 2.692666 1_555
Co0_3 Co0_6 2.692667 1_555
Co0_3 Co0_6 2.692667 1_456
Co0_4 Pt0_1 2.643337 1_554
Co0_4 Pt0_0 2.643337 1_555
Co0_4 Pt0_6 2.643337 1_545
Co0_4 Pt0_7 2.643337 1_544
Co0_4 Pt0_2 2.643338 1_545
Co0_4 Pt0_5 2.643338 1_554
Co0_4 Co0_7 2.692667 1_554
Co0_4 Co0_7 2.692667 1_545
Co0_5 Pt0_7 2.643337 1_545
Co0_5 Pt0_1 2.643337 1_555
Co0_5 Pt0_0 2.643337 1_555
Co0_5 Pt0_6 2.643337 1_545
Co0_5 Pt0_4 2.643338 1_555
Co0_5 Pt0_3 2.643338 1_545
Co0_5 Co0_6 2.692667 1_555
Co0_5 Co0_6 2.692667 1_546
Co0_6 Pt0_5 2.643337 1_554
Co0_6 Pt0_3 2.643337 1_554
Co0_6 Pt0_4 2.643337 1_555
Co0_6 Pt0_2 2.643337 1_555
Co0_6 Pt0_7 2.643338 1_554
Co0_6 Pt0_0 2.643338 1_555
Co0_7 Pt0_4 2.643337 1_555
Co0_7 Pt0_2 2.643337 1_555
Co0_7 Pt0_3 2.643337 1_555
Co0_7 Pt0_5 2.643337 1_555
Co0_7 Pt0_1 2.643338 1_555
Co0_7 Pt0_6 2.643338 1_555
Pt0_0 Pt0_6 2.692666 1_455
Pt0_0 Pt0_6 2.692666 1_545
Pt0_0 Pt0_5 2.692667 1_455
Pt0_0 Pt0_5 2.692667 1_554
Pt0_0 Pt0_3 2.692667 1_545
Pt0_0 Pt0_3 2.692667 1_554
Pt0_1 Pt0_7 2.692666 1_455
Pt0_1 Pt0_7 2.692666 1_545
Pt0_1 Pt0_4 2.692667 1_456
Pt0_1 Pt0_2 2.692667 1_555
Pt0_1 Pt0_2 2.692667 1_546
Pt0_1 Pt0_4 2.692667 1_555
Pt0_2 Pt0_4 2.692666 1_465
Pt0_2 Pt0_4 2.692666 1_555
Pt0_2 Pt0_7 2.692667 1_554
Pt0_2 Pt0_7 2.692667 1_455
Pt0_3 Pt0_5 2.692666 1_555
Pt0_3 Pt0_5 2.692666 1_465
Pt0_3 Pt0_6 2.692667 1_555
Pt0_3 Pt0_6 2.692667 1_456
Pt0_4 Pt0_7 2.692667 1_554
Pt0_4 Pt0_7 2.692667 1_545
Pt0_5 Pt0_6 2.692667 1_555
Pt0_5 Pt0_6 2.692667 1_546
