# generated using pymatgen
data_Hf6Ga2Fe
_symmetry_space_group_name_H-M   'P 1'
_cell_length_a   6.58454600
_cell_length_b   15.60152116
_cell_length_c   15.60152116
_cell_angle_alpha   120.00000493
_cell_angle_beta   90.00000000
_cell_angle_gamma   90.00000000
_symmetry_Int_Tables_number   1
_chemical_formula_structural   Hf6Ga2Fe
_chemical_formula_sum   'Hf48 Ga16 Fe8'
_cell_volume   1388.00277755
_cell_formula_units_Z   8
loop_
 _symmetry_equiv_pos_site_id
 _symmetry_equiv_pos_as_xyz
  1  'x, y, z'
loop_
 _atom_site_type_symbol
 _atom_site_label
 _atom_site_symmetry_multiplicity
 _atom_site_fract_x
 _atom_site_fract_y
 _atom_site_fract_z
 _atom_site_occupancy
  Hf  Hf0_0  1  0.25000000  0.37454250  0.37454250  1
  Hf  Hf0_1  1  0.25000000  0.37454250  0.87454250  1
  Hf  Hf0_2  1  0.25000000  0.87454250  0.37454250  1
  Hf  Hf0_3  1  0.25000000  0.87454250  0.87454250  1
  Hf  Hf0_4  1  0.75000000  0.37454250  0.37454250  1
  Hf  Hf0_5  1  0.75000000  0.37454250  0.87454250  1
  Hf  Hf0_6  1  0.75000000  0.87454250  0.37454250  1
  Hf  Hf0_7  1  0.75000000  0.87454250  0.87454250  1
  Hf  Hf1_0  1  0.25000000  0.00000000  0.12545750  1
  Hf  Hf1_1  1  0.25000000  1.00000000  0.62545750  1
  Hf  Hf1_2  1  0.25000000  0.50000000  0.12545750  1
  Hf  Hf1_3  1  0.25000000  0.50000000  0.62545750  1
  Hf  Hf1_4  1  0.75000000  0.00000000  0.12545750  1
  Hf  Hf1_5  1  0.75000000  1.00000000  0.62545750  1
  Hf  Hf1_6  1  0.75000000  0.50000000  0.12545750  1
  Hf  Hf1_7  1  0.75000000  0.50000000  0.62545750  1
  Hf  Hf2_0  1  0.25000000  0.12545750  0.00000000  1
  Hf  Hf2_1  1  0.25000000  0.12545750  0.50000000  1
  Hf  Hf2_2  1  0.25000000  0.62545750  0.00000000  1
  Hf  Hf2_3  1  0.25000000  0.62545750  0.50000000  1
  Hf  Hf2_4  1  0.75000000  0.12545750  0.00000000  1
  Hf  Hf2_5  1  0.75000000  0.12545750  0.50000000  1
  Hf  Hf2_6  1  0.75000000  0.62545750  0.00000000  1
  Hf  Hf2_7  1  0.75000000  0.62545750  0.50000000  1
  Hf  Hf3_0  1  0.00000000  0.19863550  0.19863550  1
  Hf  Hf3_1  1  0.00000000  0.19863550  0.69863550  1
  Hf  Hf3_2  1  0.00000000  0.69863550  0.19863550  1
  Hf  Hf3_3  1  0.00000000  0.69863550  0.69863550  1
  Hf  Hf3_4  1  0.50000000  0.19863550  0.19863550  1
  Hf  Hf3_5  1  0.50000000  0.19863550  0.69863550  1
  Hf  Hf3_6  1  0.50000000  0.69863550  0.19863550  1
  Hf  Hf3_7  1  0.50000000  0.69863550  0.69863550  1
  Hf  Hf4_0  1  0.00000000  0.00000000  0.30136450  1
  Hf  Hf4_1  1  0.00000000  1.00000000  0.80136450  1
  Hf  Hf4_2  1  0.00000000  0.50000000  0.30136450  1
  Hf  Hf4_3  1  0.00000000  0.50000000  0.80136450  1
  Hf  Hf4_4  1  0.50000000  0.00000000  0.30136450  1
  Hf  Hf4_5  1  0.50000000  1.00000000  0.80136450  1
  Hf  Hf4_6  1  0.50000000  0.50000000  0.30136450  1
  Hf  Hf4_7  1  0.50000000  0.50000000  0.80136450  1
  Hf  Hf5_0  1  0.00000000  0.30136450  0.00000000  1
  Hf  Hf5_1  1  0.00000000  0.30136450  0.50000000  1
  Hf  Hf5_2  1  0.00000000  0.80136450  0.00000000  1
  Hf  Hf5_3  1  0.00000000  0.80136450  0.50000000  1
  Hf  Hf5_4  1  0.50000000  0.30136450  0.00000000  1
  Hf  Hf5_5  1  0.50000000  0.30136450  0.50000000  1
  Hf  Hf5_6  1  0.50000000  0.80136450  0.00000000  1
  Hf  Hf5_7  1  0.50000000  0.80136450  0.50000000  1
  Ga  Ga0_0  1  0.25000000  0.33333350  0.16666650  1
  Ga  Ga0_1  1  0.25000000  0.33333350  0.66666650  1
  Ga  Ga0_2  1  0.25000000  0.83333350  0.16666650  1
  Ga  Ga0_3  1  0.25000000  0.83333350  0.66666650  1
  Ga  Ga0_4  1  0.75000000  0.33333350  0.16666650  1
  Ga  Ga0_5  1  0.75000000  0.33333350  0.66666650  1
  Ga  Ga0_6  1  0.75000000  0.83333350  0.16666650  1
  Ga  Ga0_7  1  0.75000000  0.83333350  0.66666650  1
  Ga  Ga1_0  1  0.25000000  0.16666650  0.33333350  1
  Ga  Ga1_1  1  0.25000000  0.16666650  0.83333350  1
  Ga  Ga1_2  1  0.25000000  0.66666650  0.33333350  1
  Ga  Ga1_3  1  0.25000000  0.66666650  0.83333350  1
  Ga  Ga1_4  1  0.75000000  0.16666650  0.33333350  1
  Ga  Ga1_5  1  0.75000000  0.16666650  0.83333350  1
  Ga  Ga1_6  1  0.75000000  0.66666650  0.33333350  1
  Ga  Ga1_7  1  0.75000000  0.66666650  0.83333350  1
  Fe  Fe0_0  1  0.00000000  0.00000000  0.00000000  1
  Fe  Fe0_1  1  0.00000000  0.00000000  0.50000000  1
  Fe  Fe0_2  1  0.00000000  0.50000000  0.00000000  1
  Fe  Fe0_3  1  0.00000000  0.50000000  0.50000000  1
  Fe  Fe0_4  1  0.50000000  0.00000000  0.00000000  1
  Fe  Fe0_5  1  0.50000000  0.00000000  0.50000000  1
  Fe  Fe0_6  1  0.50000000  0.50000000  0.00000000  1
  Fe  Fe0_7  1  0.50000000  0.50000000  0.50000000  1
loop_
_geom_bond_atom_site_label_1
_geom_bond_atom_site_label_2
_geom_bond_distance
_geom_bond_site_symmetry_2
Hf0_0 Hf4_6 3.174745 1_555
Hf0_0 Hf4_2 3.174745 1_555
Hf0_0 Hf5_1 3.174745 1_555
Hf0_0 Hf5_5 3.174745 1_555
Hf0_0 Hf3_0 3.200248 1_555
Hf0_0 Hf3_4 3.200248 1_555
Hf0_1 Hf5_0 3.174745 1_556
Hf0_1 Hf5_4 3.174745 1_556
Hf0_1 Hf4_3 3.174745 1_555
Hf0_1 Hf4_7 3.174745 1_555
Hf0_1 Hf3_1 3.200248 1_555
Hf0_1 Hf3_5 3.200248 1_555
Hf0_2 Hf5_7 3.174745 1_555
Hf0_2 Hf5_3 3.174745 1_555
Hf0_2 Hf4_0 3.174745 1_565
Hf0_2 Hf4_4 3.174745 1_565
Hf0_2 Hf3_2 3.200248 1_555
Hf0_2 Hf3_6 3.200248 1_555
Hf0_3 Hf4_5 3.174745 1_555
Hf0_3 Hf5_6 3.174745 1_556
Hf0_3 Hf5_2 3.174745 1_556
Hf0_3 Hf4_1 3.174745 1_555
Hf0_3 Hf3_3 3.200248 1_555
Hf0_3 Hf3_7 3.200248 1_555
Hf0_4 Hf4_6 3.174745 1_555
Hf0_4 Hf4_2 3.174745 1_655
Hf0_4 Hf5_5 3.174745 1_555
Hf0_4 Hf5_1 3.174745 1_655
Hf0_4 Hf3_4 3.200248 1_555
Hf0_4 Hf3_0 3.200248 1_655
Hf0_5 Hf5_4 3.174745 1_556
Hf0_5 Hf5_0 3.174745 1_656
Hf0_5 Hf4_7 3.174745 1_555
Hf0_5 Hf4_3 3.174745 1_655
Hf0_5 Hf3_5 3.200248 1_555
Hf0_5 Hf3_1 3.200248 1_655
Hf0_6 Hf5_7 3.174745 1_555
Hf0_6 Hf5_3 3.174745 1_655
Hf0_6 Hf4_4 3.174745 1_565
Hf0_6 Hf4_0 3.174745 1_665
Hf0_6 Hf3_6 3.200248 1_555
Hf0_6 Hf3_2 3.200248 1_655
Hf0_7 Hf4_5 3.174745 1_555
Hf0_7 Hf5_6 3.174745 1_556
Hf0_7 Hf5_2 3.174745 1_656
Hf0_7 Hf4_1 3.174745 1_655
Hf0_7 Hf3_7 3.200248 1_555
Hf0_7 Hf3_3 3.200248 1_655
Hf1_0 Hf5_2 3.174745 1_545
Hf1_0 Hf5_6 3.174745 1_545
Hf1_0 Hf3_4 3.174745 1_555
Hf1_0 Hf3_0 3.174745 1_555
Hf1_0 Hf4_4 3.200248 1_555
Hf1_0 Hf4_0 3.200248 1_555
Hf1_1 Hf5_3 3.174745 1_555
Hf1_1 Hf5_7 3.174745 1_555
Hf1_1 Hf3_1 3.174745 1_565
Hf1_1 Hf3_5 3.174745 1_565
Hf1_1 Hf4_1 3.200248 1_555
Hf1_1 Hf4_5 3.200248 1_555
Hf1_2 Hf5_0 3.174745 1_555
Hf1_2 Hf5_4 3.174745 1_555
Hf1_2 Hf3_2 3.174745 1_555
Hf1_2 Hf3_6 3.174745 1_555
Hf1_2 Hf4_2 3.200248 1_555
Hf1_2 Hf4_6 3.200248 1_555
Hf1_3 Hf5_1 3.174745 1_555
Hf1_3 Hf5_5 3.174745 1_555
Hf1_3 Hf3_7 3.174745 1_555
Hf1_3 Hf3_3 3.174745 1_555
Hf1_3 Hf4_7 3.200248 1_555
Hf1_3 Hf4_3 3.200248 1_555
Hf1_4 Hf5_6 3.174745 1_545
Hf1_4 Hf5_2 3.174745 1_645
Hf1_4 Hf3_4 3.174745 1_555
Hf1_4 Hf3_0 3.174745 1_655
Hf1_4 Hf4_4 3.200248 1_555
Hf1_4 Hf4_0 3.200248 1_655
Hf1_5 Hf5_7 3.174745 1_555
Hf1_5 Hf5_3 3.174745 1_655
Hf1_5 Hf3_5 3.174745 1_565
Hf1_5 Hf3_1 3.174745 1_665
Hf1_5 Hf4_5 3.200248 1_555
Hf1_5 Hf4_1 3.200248 1_655
Hf1_6 Hf5_4 3.174745 1_555
Hf1_6 Hf5_0 3.174745 1_655
Hf1_6 Hf3_6 3.174745 1_555
Hf1_6 Hf3_2 3.174745 1_655
Hf1_6 Hf4_6 3.200248 1_555
Hf1_6 Hf4_2 3.200248 1_655
Hf1_7 Hf5_5 3.174745 1_555
Hf1_7 Hf5_1 3.174745 1_655
Hf1_7 Hf3_7 3.174745 1_555
Hf1_7 Hf3_3 3.174745 1_655
Hf1_7 Hf4_7 3.200248 1_555
Hf1_7 Hf4_3 3.200248 1_655
Hf2_0 Hf4_1 3.174745 1_544
Hf2_0 Hf4_5 3.174745 1_544
Hf2_0 Hf3_4 3.174745 1_555
Hf2_0 Hf3_0 3.174745 1_555
Hf2_0 Hf5_4 3.200248 1_555
Hf2_0 Hf5_0 3.200248 1_555
Hf2_1 Hf4_0 3.174745 1_555
Hf2_1 Hf4_4 3.174745 1_555
Hf2_1 Hf3_1 3.174745 1_555
Hf2_1 Hf3_5 3.174745 1_555
Hf2_1 Hf5_5 3.200248 1_555
Hf2_1 Hf5_1 3.200248 1_555
Hf2_2 Hf4_7 3.174745 1_554
Hf2_2 Hf4_3 3.174745 1_554
Hf2_2 Hf3_2 3.174745 1_555
Hf2_2 Hf3_6 3.174745 1_555
Hf2_2 Hf5_6 3.200248 1_555
Hf2_2 Hf5_2 3.200248 1_555
Hf2_3 Hf4_2 3.174745 1_555
Hf2_3 Hf4_6 3.174745 1_555
Hf2_3 Hf3_7 3.174745 1_555
Hf2_3 Hf3_3 3.174745 1_555
Hf2_3 Hf5_3 3.200248 1_555
Hf2_3 Hf5_7 3.200248 1_555
Hf2_4 Hf4_5 3.174745 1_544
Hf2_4 Hf4_1 3.174745 1_644
Hf2_4 Hf3_4 3.174745 1_555
Hf2_4 Hf3_0 3.174745 1_655
Hf2_4 Hf5_4 3.200248 1_555
Hf2_4 Hf5_0 3.200248 1_655
Hf2_5 Hf4_4 3.174745 1_555
Hf2_5 Hf4_0 3.174745 1_655
Hf2_5 Hf3_5 3.174745 1_555
Hf2_5 Hf3_1 3.174745 1_655
Hf2_5 Hf5_5 3.200248 1_555
Hf2_5 Hf5_1 3.200248 1_655
Hf2_6 Hf4_7 3.174745 1_554
Hf2_6 Hf4_3 3.174745 1_654
Hf2_6 Hf3_6 3.174745 1_555
Hf2_6 Hf3_2 3.174745 1_655
Hf2_6 Hf5_6 3.200248 1_555
Hf2_6 Hf5_2 3.200248 1_655
Hf2_7 Hf4_6 3.174745 1_555
Hf2_7 Hf4_2 3.174745 1_655
Hf2_7 Hf3_7 3.174745 1_555
Hf2_7 Hf3_3 3.174745 1_655
Hf2_7 Hf5_7 3.200248 1_555
Hf2_7 Hf5_3 3.200248 1_655
Hf3_0 Hf3_4 3.292273 1_555
Hf3_0 Hf3_4 3.292273 1_455
Hf3_1 Hf3_5 3.292273 1_555
Hf3_1 Hf3_5 3.292273 1_455
Hf3_2 Hf3_6 3.292273 1_555
Hf3_2 Hf3_6 3.292273 1_455
Hf3_3 Hf3_7 3.292273 1_555
Hf3_3 Hf3_7 3.292273 1_455
Hf4_0 Hf4_4 3.292273 1_555
Hf4_0 Hf4_4 3.292273 1_455
Hf4_1 Hf4_5 3.292273 1_555
Hf4_1 Hf4_5 3.292273 1_455
Hf4_2 Hf4_6 3.292273 1_555
Hf4_2 Hf4_6 3.292273 1_455
Hf4_3 Hf4_7 3.292273 1_555
Hf4_3 Hf4_7 3.292273 1_455
Hf5_0 Hf5_4 3.292273 1_555
Hf5_0 Hf5_4 3.292273 1_455
Hf5_1 Hf5_5 3.292273 1_555
Hf5_1 Hf5_5 3.292273 1_455
Hf5_2 Hf5_6 3.292273 1_555
Hf5_2 Hf5_6 3.292273 1_455
Hf5_3 Hf5_7 3.292273 1_555
Hf5_3 Hf5_7 3.292273 1_455
Ga0_0 Hf5_4 2.902227 1_555
Ga0_0 Hf5_0 2.902227 1_555
Ga0_0 Hf4_2 2.902229 1_555
Ga0_0 Hf4_6 2.902229 1_555
Ga0_0 Hf3_0 2.902234 1_555
Ga0_0 Hf3_4 2.902234 1_555
Ga0_0 Hf1_2 2.974293 1_555
Ga0_0 Hf2_0 2.974297 1_555
Ga0_0 Hf0_0 2.974300 1_555
Ga0_1 Hf5_1 2.902227 1_555
Ga0_1 Hf5_5 2.902227 1_555
Ga0_1 Hf4_3 2.902229 1_555
Ga0_1 Hf4_7 2.902229 1_555
Ga0_1 Hf3_1 2.902234 1_555
Ga0_1 Hf3_5 2.902234 1_555
Ga0_1 Hf1_3 2.974293 1_555
Ga0_1 Hf2_1 2.974297 1_555
Ga0_1 Hf0_1 2.974300 1_555
Ga0_2 Hf5_2 2.902227 1_555
Ga0_2 Hf5_6 2.902227 1_555
Ga0_2 Hf4_0 2.902229 1_565
Ga0_2 Hf4_4 2.902229 1_565
Ga0_2 Hf3_2 2.902234 1_555
Ga0_2 Hf3_6 2.902234 1_555
Ga0_2 Hf1_0 2.974293 1_565
Ga0_2 Hf2_2 2.974297 1_555
Ga0_2 Hf0_2 2.974300 1_555
Ga0_3 Hf5_3 2.902227 1_555
Ga0_3 Hf5_7 2.902227 1_555
Ga0_3 Hf4_1 2.902229 1_555
Ga0_3 Hf4_5 2.902229 1_555
Ga0_3 Hf3_3 2.902234 1_555
Ga0_3 Hf3_7 2.902234 1_555
Ga0_3 Hf1_1 2.974293 1_555
Ga0_3 Hf2_3 2.974297 1_555
Ga0_3 Hf0_3 2.974300 1_555
Ga0_4 Hf5_4 2.902227 1_555
Ga0_4 Hf5_0 2.902227 1_655
Ga0_4 Hf4_6 2.902229 1_555
Ga0_4 Hf4_2 2.902229 1_655
Ga0_4 Hf3_4 2.902234 1_555
Ga0_4 Hf3_0 2.902234 1_655
Ga0_4 Hf1_6 2.974293 1_555
Ga0_4 Hf2_4 2.974297 1_555
Ga0_4 Hf0_4 2.974300 1_555
Ga0_5 Hf5_5 2.902227 1_555
Ga0_5 Hf5_1 2.902227 1_655
Ga0_5 Hf4_7 2.902229 1_555
Ga0_5 Hf4_3 2.902229 1_655
Ga0_5 Hf3_5 2.902234 1_555
Ga0_5 Hf3_1 2.902234 1_655
Ga0_5 Hf1_7 2.974293 1_555
Ga0_5 Hf2_5 2.974297 1_555
Ga0_5 Hf0_5 2.974300 1_555
Ga0_6 Hf5_6 2.902227 1_555
Ga0_6 Hf5_2 2.902227 1_655
Ga0_6 Hf4_4 2.902229 1_565
Ga0_6 Hf4_0 2.902229 1_665
Ga0_6 Hf3_6 2.902234 1_555
Ga0_6 Hf3_2 2.902234 1_655
Ga0_6 Hf1_4 2.974293 1_565
Ga0_6 Hf2_6 2.974297 1_555
Ga0_6 Hf0_6 2.974300 1_555
Ga0_7 Hf5_7 2.902227 1_555
Ga0_7 Hf5_3 2.902227 1_655
Ga0_7 Hf4_5 2.902229 1_555
Ga0_7 Hf4_1 2.902229 1_655
Ga0_7 Hf3_7 2.902234 1_555
Ga0_7 Hf3_3 2.902234 1_655
Ga0_7 Hf1_5 2.974293 1_555
Ga0_7 Hf2_7 2.974297 1_555
Ga0_7 Hf0_7 2.974300 1_555
Ga1_0 Hf4_4 2.902227 1_555
Ga1_0 Hf4_0 2.902227 1_555
Ga1_0 Hf5_1 2.902229 1_555
Ga1_0 Hf5_5 2.902229 1_555
Ga1_0 Hf3_4 2.902234 1_555
Ga1_0 Hf3_0 2.902234 1_555
Ga1_0 Hf2_1 2.974293 1_555
Ga1_0 Hf1_0 2.974297 1_555
Ga1_0 Hf0_0 2.974300 1_555
Ga1_1 Hf4_5 2.902227 1_545
Ga1_1 Hf4_1 2.902227 1_545
Ga1_1 Hf5_0 2.902229 1_556
Ga1_1 Hf5_4 2.902229 1_556
Ga1_1 Hf3_1 2.902234 1_555
Ga1_1 Hf3_5 2.902234 1_555
Ga1_1 Hf2_0 2.974293 1_556
Ga1_1 Hf1_1 2.974297 1_545
Ga1_1 Hf0_1 2.974300 1_555
Ga1_2 Hf4_6 2.902227 1_555
Ga1_2 Hf4_2 2.902227 1_555
Ga1_2 Hf5_3 2.902229 1_555
Ga1_2 Hf5_7 2.902229 1_555
Ga1_2 Hf3_2 2.902234 1_555
Ga1_2 Hf3_6 2.902234 1_555
Ga1_2 Hf2_3 2.974293 1_555
Ga1_2 Hf1_2 2.974297 1_555
Ga1_2 Hf0_2 2.974300 1_555
Ga1_3 Hf4_3 2.902227 1_555
Ga1_3 Hf4_7 2.902227 1_555
Ga1_3 Hf5_2 2.902229 1_556
Ga1_3 Hf5_6 2.902229 1_556
Ga1_3 Hf3_3 2.902234 1_555
Ga1_3 Hf3_7 2.902234 1_555
Ga1_3 Hf2_2 2.974293 1_556
Ga1_3 Hf1_3 2.974297 1_555
Ga1_3 Hf0_3 2.974300 1_555
Ga1_4 Hf4_4 2.902227 1_555
Ga1_4 Hf4_0 2.902227 1_655
Ga1_4 Hf5_5 2.902229 1_555
Ga1_4 Hf5_1 2.902229 1_655
Ga1_4 Hf3_4 2.902234 1_555
Ga1_4 Hf3_0 2.902234 1_655
Ga1_4 Hf2_5 2.974293 1_555
Ga1_4 Hf1_4 2.974297 1_555
Ga1_4 Hf0_4 2.974300 1_555
Ga1_5 Hf4_5 2.902227 1_545
Ga1_5 Hf4_1 2.902227 1_645
Ga1_5 Hf5_4 2.902229 1_556
Ga1_5 Hf5_0 2.902229 1_656
Ga1_5 Hf3_5 2.902234 1_555
Ga1_5 Hf3_1 2.902234 1_655
Ga1_5 Hf2_4 2.974293 1_556
Ga1_5 Hf1_5 2.974297 1_545
Ga1_5 Hf0_5 2.974300 1_555
Ga1_6 Hf4_6 2.902227 1_555
Ga1_6 Hf4_2 2.902227 1_655
Ga1_6 Hf5_7 2.902229 1_555
Ga1_6 Hf5_3 2.902229 1_655
Ga1_6 Hf3_6 2.902234 1_555
Ga1_6 Hf3_2 2.902234 1_655
Ga1_6 Hf2_7 2.974293 1_555
Ga1_6 Hf1_6 2.974297 1_555
Ga1_6 Hf0_6 2.974300 1_555
Ga1_7 Hf4_7 2.902227 1_555
Ga1_7 Hf4_3 2.902227 1_655
Ga1_7 Hf5_6 2.902229 1_556
Ga1_7 Hf5_2 2.902229 1_656
Ga1_7 Hf3_7 2.902234 1_555
Ga1_7 Hf3_3 2.902234 1_655
Ga1_7 Hf2_6 2.974293 1_556
Ga1_7 Hf1_7 2.974297 1_555
Ga1_7 Hf0_7 2.974300 1_555
Fe0_0 Hf0_3 2.557518 1_544
Fe0_0 Hf0_7 2.557518 1_444
Fe0_0 Hf1_0 2.557518 1_555
Fe0_0 Hf2_0 2.557518 1_555
Fe0_0 Hf1_4 2.557518 1_455
Fe0_0 Hf2_4 2.557518 1_455
Fe0_0 Hf3_0 3.099016 1_555
Fe0_0 Hf4_1 3.099016 1_544
Fe0_0 Hf5_2 3.099016 1_545
Fe0_1 Hf0_2 2.557518 1_545
Fe0_1 Hf0_6 2.557518 1_445
Fe0_1 Hf2_1 2.557518 1_555
Fe0_1 Hf2_5 2.557518 1_455
Fe0_1 Hf1_1 2.557518 1_545
Fe0_1 Hf1_5 2.557518 1_445
Fe0_1 Hf3_1 3.099016 1_555
Fe0_1 Hf4_0 3.099016 1_555
Fe0_1 Hf5_3 3.099016 1_545
Fe0_2 Hf0_1 2.557518 1_554
Fe0_2 Hf0_5 2.557518 1_454
Fe0_2 Hf1_2 2.557518 1_555
Fe0_2 Hf2_2 2.557518 1_555
Fe0_2 Hf1_6 2.557518 1_455
Fe0_2 Hf2_6 2.557518 1_455
Fe0_2 Hf3_2 3.099016 1_555
Fe0_2 Hf4_3 3.099016 1_554
Fe0_2 Hf5_0 3.099016 1_555
Fe0_3 Hf0_0 2.557518 1_555
Fe0_3 Hf0_4 2.557518 1_455
Fe0_3 Hf2_3 2.557518 1_555
Fe0_3 Hf2_7 2.557518 1_455
Fe0_3 Hf1_3 2.557518 1_555
Fe0_3 Hf1_7 2.557518 1_455
Fe0_3 Hf3_3 3.099016 1_555
Fe0_3 Hf4_2 3.099016 1_555
Fe0_3 Hf5_1 3.099016 1_555
Fe0_4 Hf0_3 2.557518 1_544
Fe0_4 Hf0_7 2.557518 1_544
Fe0_4 Hf1_0 2.557518 1_555
Fe0_4 Hf2_4 2.557518 1_555
Fe0_4 Hf1_4 2.557518 1_555
Fe0_4 Hf2_0 2.557518 1_555
Fe0_4 Hf3_4 3.099016 1_555
Fe0_4 Hf4_5 3.099016 1_544
Fe0_4 Hf5_6 3.099016 1_545
Fe0_5 Hf0_2 2.557518 1_545
Fe0_5 Hf0_6 2.557518 1_545
Fe0_5 Hf2_1 2.557518 1_555
Fe0_5 Hf2_5 2.557518 1_555
Fe0_5 Hf1_1 2.557518 1_545
Fe0_5 Hf1_5 2.557518 1_545
Fe0_5 Hf3_5 3.099016 1_555
Fe0_5 Hf4_4 3.099016 1_555
Fe0_5 Hf5_7 3.099016 1_545
Fe0_6 Hf0_1 2.557518 1_554
Fe0_6 Hf0_5 2.557518 1_554
Fe0_6 Hf1_2 2.557518 1_555
Fe0_6 Hf1_6 2.557518 1_555
Fe0_6 Hf2_2 2.557518 1_555
Fe0_6 Hf2_6 2.557518 1_555
Fe0_6 Hf3_6 3.099016 1_555
Fe0_6 Hf4_7 3.099016 1_554
Fe0_6 Hf5_4 3.099016 1_555
Fe0_7 Hf0_4 2.557518 1_555
Fe0_7 Hf0_0 2.557518 1_555
Fe0_7 Hf2_3 2.557518 1_555
Fe0_7 Hf2_7 2.557518 1_555
Fe0_7 Hf1_3 2.557518 1_555
Fe0_7 Hf1_7 2.557518 1_555
Fe0_7 Hf3_7 3.099016 1_555
Fe0_7 Hf4_6 3.099016 1_555
Fe0_7 Hf5_5 3.099016 1_555
