# generated using pymatgen
data_LaCrSb3
_symmetry_space_group_name_H-M   'P 1'
_cell_length_a   6.32443647
_cell_length_b   6.21886720
_cell_length_c   13.38310124
_cell_angle_alpha   90.00050104
_cell_angle_beta   89.99959866
_cell_angle_gamma   90.00051474
_symmetry_Int_Tables_number   1
_chemical_formula_structural   LaCrSb3
_chemical_formula_sum   'La4 Cr4 Sb12'
_cell_volume   526.36848670
_cell_formula_units_Z   4
loop_
 _symmetry_equiv_pos_site_id
 _symmetry_equiv_pos_as_xyz
  1  'x, y, z'
loop_
 _atom_site_type_symbol
 _atom_site_label
 _atom_site_symmetry_multiplicity
 _atom_site_fract_x
 _atom_site_fract_y
 _atom_site_fract_z
 _atom_site_occupancy
  La  La0  1  0.74999364  0.99593527  0.31051127  1
  La  La1  1  0.25000154  0.00414036  0.68947597  1
  La  La2  1  0.24999805  0.50406878  0.31051092  1
  La  La3  1  0.75000272  0.49598543  0.68944426  1
  Cr  Cr0  1  0.50000196  0.74999619  0.90955896  1
  Cr  Cr1  1  0.00000274  0.24999007  0.09045792  1
  Cr  Cr2  1  0.49999537  0.24999810  0.09045790  1
  Cr  Cr3  1  0.00000785  0.74999573  0.90955923  1
  Sb  Sb0  1  0.75000484  0.89377507  0.06325974  1
  Sb  Sb1  1  0.24998904  0.10620283  0.93677077  1
  Sb  Sb2  1  0.25000882  0.60619488  0.06326170  1
  Sb  Sb3  1  0.75000535  0.39377292  0.93677277  1
  Sb  Sb4  1  0.74999438  0.50024295  0.21690485  1
  Sb  Sb5  1  0.25003800  0.49978633  0.78311788  1
  Sb  Sb6  1  0.24999458  -0.00024334  0.21691410  1
  Sb  Sb7  1  0.75003340  0.00023486  0.78312131  1
  Sb  Sb8  1  0.49998479  0.74999826  0.50144520  1
  Sb  Sb9  1  0.99996265  0.24996955  0.49849983  1
  Sb  Sb10  1  0.50000456  0.24996349  0.49849853  1
  Sb  Sb11  1  0.99997773  0.74999226  0.50145488  1
loop_
_geom_bond_atom_site_label_1
_geom_bond_atom_site_label_2
_geom_bond_distance
_geom_bond_site_symmetry_2
La0 Sb4 3.327461 1_555
La0 Sb9 3.365206 1_565
La0 Sb10 3.365232 1_565
La0 Sb0 3.369425 1_555
La0 Sb8 3.371760 1_555
La0 Sb11 3.371831 1_555
La0 Sb4 3.377178 1_565
La0 Sb6 3.401357 1_665
La0 Sb6 3.401362 1_565
La1 Sb5 3.327373 1_555
La1 Sb8 3.365983 1_545
La1 Sb11 3.366027 1_445
La1 Sb1 3.369879 1_555
La1 Sb10 3.371863 1_555
La1 Sb9 3.372003 1_455
La1 Sb5 3.377621 1_545
La1 Sb7 3.401405 1_455
La1 Sb7 3.401796 1_555
La2 Sb6 3.327408 1_565
La2 Sb10 3.365550 1_555
La2 Sb9 3.365601 1_455
La2 Sb2 3.369366 1_555
La2 Sb8 3.371673 1_555
La2 Sb11 3.371850 1_455
La2 Sb6 3.377135 1_555
La2 Sb4 3.401374 1_555
La2 Sb4 3.401433 1_455
La3 Sb7 3.328173 1_555
La3 Sb11 3.365156 1_555
La3 Sb8 3.365428 1_555
La3 Sb3 3.370509 1_555
La3 Sb9 3.371936 1_555
La3 Sb10 3.372084 1_555
La3 Sb7 3.377172 1_565
La3 Sb5 3.401520 1_555
La3 Sb5 3.401951 1_655
Cr0 Sb0 2.744205 1_556
Cr0 Sb2 2.744230 1_556
Cr0 Sb1 2.745897 1_565
Cr0 Sb3 2.745957 1_555
Cr0 Sb5 2.789944 1_555
Cr0 Sb7 2.790261 1_565
Cr1 Sb1 2.744018 1_554
Cr1 Sb3 2.744057 1_454
Cr1 Sb2 2.745817 1_555
Cr1 Sb0 2.745840 1_445
Cr1 Sb6 2.790281 1_555
Cr1 Sb4 2.790302 1_455
Cr2 Sb3 2.744061 1_554
Cr2 Sb1 2.744114 1_554
Cr2 Sb2 2.745732 1_555
Cr2 Sb0 2.745942 1_545
Cr2 Sb4 2.790239 1_555
Cr2 Sb6 2.790312 1_555
Cr3 Sb0 2.744196 1_456
Cr3 Sb2 2.744281 1_556
Cr3 Sb1 2.745763 1_565
Cr3 Sb3 2.745925 1_455
Cr3 Sb7 2.790090 1_465
Cr3 Sb5 2.790184 1_555
Sb0 Sb4 3.196504 1_555
Sb1 Sb5 3.196816 1_555
Sb2 Sb6 3.196681 1_565
Sb3 Sb7 3.196560 1_555
Sb10 Sb8 3.109468 1_545
Sb10 Sb8 3.109900 1_555
Sb10 Sb9 3.161953 1_555
Sb10 Sb9 3.162483 1_455
Sb11 Sb9 3.109544 1_565
Sb11 Sb9 3.109826 1_555
Sb11 Sb8 3.162174 1_555
Sb11 Sb8 3.162263 1_655
