# generated using pymatgen
data_CaNp
_symmetry_space_group_name_H-M   'P 1'
_cell_length_a   13.11312618
_cell_length_b   13.11312618
_cell_length_c   13.11312587
_cell_angle_alpha   29.98708037
_cell_angle_beta   29.98708037
_cell_angle_gamma   29.98707393
_symmetry_Int_Tables_number   1
_chemical_formula_structural   CaNp
_chemical_formula_sum   'Ca8 Np8'
_cell_volume   498.92797360
_cell_formula_units_Z   8
loop_
 _symmetry_equiv_pos_site_id
 _symmetry_equiv_pos_as_xyz
  1  'x, y, z'
loop_
 _atom_site_type_symbol
 _atom_site_label
 _atom_site_symmetry_multiplicity
 _atom_site_fract_x
 _atom_site_fract_y
 _atom_site_fract_z
 _atom_site_occupancy
  Ca  Ca0_0  1  0.00000000  0.00000000  0.00000000  1
  Ca  Ca0_1  1  0.00000000  0.00000000  0.50000000  1
  Ca  Ca0_2  1  0.00000000  0.50000000  0.00000000  1
  Ca  Ca0_3  1  0.00000000  0.50000000  0.50000000  1
  Ca  Ca0_4  1  0.50000000  0.00000000  0.00000000  1
  Ca  Ca0_5  1  0.50000000  0.00000000  0.50000000  1
  Ca  Ca0_6  1  0.50000000  0.50000000  0.00000000  1
  Ca  Ca0_7  1  0.50000000  0.50000000  0.50000000  1
  Np  Np0_0  1  0.25000000  0.25000000  0.25000000  1
  Np  Np0_1  1  0.25000000  0.25000000  0.75000000  1
  Np  Np0_2  1  0.25000000  0.75000000  0.25000000  1
  Np  Np0_3  1  0.25000000  0.75000000  0.75000000  1
  Np  Np0_4  1  0.75000000  0.25000000  0.25000000  1
  Np  Np0_5  1  0.75000000  0.25000000  0.75000000  1
  Np  Np0_6  1  0.75000000  0.75000000  0.25000000  1
  Np  Np0_7  1  0.75000000  0.75000000  0.75000000  1
loop_
_geom_bond_atom_site_label_1
_geom_bond_atom_site_label_2
_geom_bond_distance
_geom_bond_site_symmetry_2
Ca0_0 Ca0_6 3.392498 1_545
Ca0_0 Ca0_6 3.392498 1_455
Ca0_0 Ca0_5 3.392499 1_455
Ca0_0 Ca0_5 3.392499 1_554
Ca0_0 Ca0_3 3.392499 1_545
Ca0_0 Ca0_3 3.392499 1_554
Ca0_0 Np0_2 3.691123 1_545
Ca0_0 Np0_4 3.691123 1_455
Ca0_0 Np0_5 3.691123 1_454
Ca0_0 Np0_3 3.691123 1_544
Ca0_0 Np0_1 3.691124 1_554
Ca0_0 Np0_6 3.691124 1_445
Ca0_1 Ca0_7 3.392498 1_455
Ca0_1 Ca0_7 3.392498 1_545
Ca0_1 Ca0_4 3.392499 1_555
Ca0_1 Ca0_2 3.392499 1_546
Ca0_1 Ca0_4 3.392499 1_456
Ca0_1 Ca0_2 3.392499 1_555
Ca0_1 Np0_3 3.691123 1_545
Ca0_1 Np0_5 3.691123 1_455
Ca0_1 Np0_2 3.691123 1_545
Ca0_1 Np0_4 3.691123 1_455
Ca0_1 Np0_7 3.691124 1_445
Ca0_1 Np0_0 3.691124 1_555
Ca0_2 Ca0_4 3.392498 1_465
Ca0_2 Ca0_4 3.392498 1_555
Ca0_2 Ca0_7 3.392499 1_455
Ca0_2 Ca0_7 3.392499 1_554
Ca0_2 Np0_6 3.691123 1_455
Ca0_2 Np0_1 3.691123 1_554
Ca0_2 Np0_7 3.691123 1_454
Ca0_2 Np0_0 3.691123 1_555
Ca0_2 Np0_3 3.691124 1_554
Ca0_2 Np0_4 3.691124 1_455
Ca0_3 Ca0_5 3.392498 1_555
Ca0_3 Ca0_5 3.392498 1_465
Ca0_3 Ca0_6 3.392499 1_456
Ca0_3 Ca0_6 3.392499 1_555
Ca0_3 Np0_0 3.691123 1_555
Ca0_3 Np0_7 3.691123 1_455
Ca0_3 Np0_1 3.691123 1_555
Ca0_3 Np0_6 3.691123 1_455
Ca0_3 Np0_2 3.691124 1_555
Ca0_3 Np0_5 3.691124 1_455
Ca0_4 Ca0_7 3.392499 1_545
Ca0_4 Ca0_7 3.392499 1_554
Ca0_4 Np0_6 3.691123 1_545
Ca0_4 Np0_1 3.691123 1_554
Ca0_4 Np0_0 3.691123 1_555
Ca0_4 Np0_7 3.691123 1_544
Ca0_4 Np0_5 3.691124 1_554
Ca0_4 Np0_2 3.691124 1_545
Ca0_5 Ca0_6 3.392499 1_546
Ca0_5 Ca0_6 3.392499 1_555
Ca0_5 Np0_0 3.691123 1_555
Ca0_5 Np0_7 3.691123 1_545
Ca0_5 Np0_1 3.691123 1_555
Ca0_5 Np0_6 3.691123 1_545
Ca0_5 Np0_4 3.691124 1_555
Ca0_5 Np0_3 3.691124 1_545
Ca0_6 Np0_2 3.691123 1_555
Ca0_6 Np0_4 3.691123 1_555
Ca0_6 Np0_3 3.691123 1_554
Ca0_6 Np0_5 3.691123 1_554
Ca0_6 Np0_0 3.691124 1_555
Ca0_6 Np0_7 3.691124 1_554
Ca0_7 Np0_3 3.691123 1_555
Ca0_7 Np0_5 3.691123 1_555
Ca0_7 Np0_4 3.691123 1_555
Ca0_7 Np0_2 3.691123 1_555
Ca0_7 Np0_6 3.691124 1_555
Ca0_7 Np0_1 3.691124 1_555
Np0_0 Np0_6 3.392498 1_455
Np0_0 Np0_6 3.392498 1_545
Np0_0 Np0_5 3.392499 1_455
Np0_0 Np0_3 3.392499 1_545
Np0_0 Np0_5 3.392499 1_554
Np0_0 Np0_3 3.392499 1_554
Np0_1 Np0_7 3.392498 1_545
Np0_1 Np0_7 3.392498 1_455
Np0_1 Np0_4 3.392499 1_555
Np0_1 Np0_2 3.392499 1_555
Np0_1 Np0_4 3.392499 1_456
Np0_1 Np0_2 3.392499 1_546
Np0_2 Np0_4 3.392498 1_555
Np0_2 Np0_4 3.392498 1_465
Np0_2 Np0_7 3.392499 1_455
Np0_2 Np0_7 3.392499 1_554
Np0_3 Np0_5 3.392498 1_555
Np0_3 Np0_5 3.392498 1_465
Np0_3 Np0_6 3.392499 1_555
Np0_3 Np0_6 3.392499 1_456
Np0_4 Np0_7 3.392499 1_545
Np0_4 Np0_7 3.392499 1_554
Np0_5 Np0_6 3.392499 1_555
Np0_5 Np0_6 3.392499 1_546
