# generated using pymatgen
data_ThAl2
_symmetry_space_group_name_H-M   'P 1'
_cell_length_a   5.67932201
_cell_length_b   5.67932218
_cell_length_c   5.67932086
_cell_angle_alpha   59.99999587
_cell_angle_beta   59.99999485
_cell_angle_gamma   59.99999418
_symmetry_Int_Tables_number   1
_chemical_formula_structural   ThAl2
_chemical_formula_sum   'Th2 Al4'
_cell_volume   129.53119064
_cell_formula_units_Z   2
loop_
 _symmetry_equiv_pos_site_id
 _symmetry_equiv_pos_as_xyz
  1  'x, y, z'
loop_
 _atom_site_type_symbol
 _atom_site_label
 _atom_site_symmetry_multiplicity
 _atom_site_fract_x
 _atom_site_fract_y
 _atom_site_fract_z
 _atom_site_occupancy
  Th  Th0  1  0.12500000  0.12500000  0.12500000  1
  Th  Th1  1  0.87500000  0.87500000  0.87500000  1
  Al  Al0  1  0.50000000  -0.00000000  0.50000000  1
  Al  Al1  1  -0.00000000  0.50000000  0.50000000  1
  Al  Al2  1  0.50000000  0.50000000  0.50000000  1
  Al  Al3  1  0.50000000  0.50000000  0.00000000  1
loop_
_geom_bond_atom_site_label_1
_geom_bond_atom_site_label_2
_geom_bond_distance
_geom_bond_site_symmetry_2
Th0 Th1 3.477859 1_445
Th0 Th1 3.477860 1_544
Th0 Th1 3.477860 1_454
Th0 Th1 3.477860 1_444
Al0 Al3 2.839661 1_546
Al0 Al3 2.839661 1_555
Al0 Al1 2.839661 1_555
Al0 Al1 2.839661 1_645
Al0 Al2 2.839661 1_555
Al0 Al2 2.839661 1_545
Al0 Th0 3.329797 1_556
Al0 Th1 3.329797 1_544
Al0 Th0 3.329797 1_555
Al0 Th1 3.329797 1_545
Al0 Th0 3.329798 1_655
Al0 Th1 3.329798 1_445
Al1 Al3 2.839660 1_456
Al1 Al3 2.839660 1_555
Al1 Al2 2.839661 1_555
Al1 Al2 2.839661 1_455
Al1 Th1 3.329797 1_454
Al1 Th0 3.329797 1_556
Al1 Th1 3.329797 1_455
Al1 Th0 3.329797 1_555
Al1 Th1 3.329798 1_445
Al1 Th0 3.329798 1_565
Al2 Al3 2.839660 1_556
Al2 Al3 2.839660 1_555
Al2 Th0 3.329797 1_556
Al2 Th1 3.329797 1_554
Al2 Th0 3.329797 1_655
Al2 Th1 3.329797 1_455
Al2 Th0 3.329797 1_565
Al2 Th1 3.329797 1_545
Al3 Th1 3.329797 1_454
Al3 Th0 3.329797 1_655
Al3 Th1 3.329798 1_544
Al3 Th0 3.329798 1_565
Al3 Th0 3.329798 1_555
Al3 Th1 3.329798 1_554
