# generated using pymatgen
data_B6H6NO6
_symmetry_space_group_name_H-M   'P 1'
_cell_length_a   6.98975326
_cell_length_b   9.36133293
_cell_length_c   11.16388900
_cell_angle_alpha   90.00000521
_cell_angle_beta   90.00000493
_cell_angle_gamma   91.36493807
_symmetry_Int_Tables_number   1
_chemical_formula_structural   B6H6NO6
_chemical_formula_sum   'B24 H24 N4 O24'
_cell_volume   730.28402260
_cell_formula_units_Z   4
loop_
 _symmetry_equiv_pos_site_id
 _symmetry_equiv_pos_as_xyz
  1  'x, y, z'
loop_
 _atom_site_type_symbol
 _atom_site_label
 _atom_site_symmetry_multiplicity
 _atom_site_fract_x
 _atom_site_fract_y
 _atom_site_fract_z
 _atom_site_occupancy
  B  B0  1  0.20451000  0.60943200  0.98282400  1
  B  B1  1  0.70451000  0.10943200  0.51717600  1
  B  B2  1  0.79549000  0.39056800  0.01717600  1
  B  B3  1  0.29549000  0.89056800  0.48282400  1
  B  B4  1  0.95417900  0.67173000  0.95487100  1
  B  B5  1  0.45417900  0.17173000  0.54512900  1
  B  B6  1  0.04582100  0.32827000  0.04512900  1
  B  B7  1  0.54582100  0.82827000  0.45487100  1
  B  B8  1  0.05719200  0.53859300  0.84998800  1
  B  B9  1  0.55719200  0.03859300  0.65001200  1
  B  B10  1  0.94280800  0.46140700  0.15001200  1
  B  B11  1  0.44280800  0.96140700  0.34998800  1
  B  B12  1  0.20085500  0.42649900  0.93598200  1
  B  B13  1  0.70085500  0.92649900  0.56401800  1
  B  B14  1  0.79914500  0.57350100  0.06401800  1
  B  B15  1  0.29914500  0.07350100  0.43598200  1
  B  B16  1  0.19237400  0.47123000  0.09660100  1
  B  B17  1  0.69237400  0.97123000  0.40339900  1
  B  B18  1  0.80762600  0.52877000  0.90339900  1
  B  B19  1  0.30762600  0.02877000  0.59660100  1
  B  B20  1  0.05078800  0.63410000  0.10416800  1
  B  B21  1  0.55078800  0.13410000  0.39583200  1
  B  B22  1  0.94921200  0.36590000  0.89583200  1
  B  B23  1  0.44921200  0.86590000  0.60416800  1
  H  H0  1  0.44452400  0.67335400  0.89615600  1
  H  H1  1  0.94452400  0.17335400  0.60384400  1
  H  H2  1  0.55547600  0.32664600  0.10384400  1
  H  H3  1  0.05547600  0.82664600  0.39615600  1
  H  H4  1  0.82584900  0.82563900  0.86402800  1
  H  H5  1  0.32584900  0.32563900  0.63597200  1
  H  H6  1  0.17415100  0.17436100  0.13597200  1
  H  H7  1  0.67415100  0.67436100  0.36402800  1
  H  H8  1  0.22027000  0.62062300  0.71252100  1
  H  H9  1  0.72027000  0.12062300  0.78747900  1
  H  H10  1  0.77973000  0.37937700  0.28747900  1
  H  H11  1  0.27973000  0.87937700  0.21252100  1
  H  H12  1  0.44731000  0.31479600  0.93010200  1
  H  H13  1  0.94731000  0.81479600  0.56989800  1
  H  H14  1  0.55269000  0.68520400  0.06989800  1
  H  H15  1  0.05269000  0.18520400  0.43010200  1
  H  H16  1  0.43963200  0.52140000  0.18328600  1
  H  H17  1  0.93963200  0.02140000  0.31671400  1
  H  H18  1  0.56036800  0.47860000  0.81671400  1
  H  H19  1  0.06036800  0.97860000  0.68328600  1
  H  H20  1  0.95412800  0.79088400  0.20927700  1
  H  H21  1  0.45412800  0.29088400  0.29072300  1
  H  H22  1  0.04587200  0.20911600  0.79072300  1
  H  H23  1  0.54587200  0.70911600  0.70927700  1
  N  N0  1  0.28133600  0.01082800  0.94663300  1
  N  N1  1  0.78133600  0.51082800  0.55336700  1
  N  N2  1  0.71866400  0.98917200  0.05336700  1
  N  N3  1  0.21866400  0.48917200  0.44663300  1
  O  O0  1  0.36807700  0.69870300  0.96656700  1
  O  O1  1  0.86807700  0.19870300  0.53343300  1
  O  O2  1  0.63192300  0.30129700  0.03343300  1
  O  O3  1  0.13192300  0.80129700  0.46656700  1
  O  O4  1  0.92873200  0.81150300  0.92173000  1
  O  O5  1  0.42873200  0.31150300  0.57827000  1
  O  O6  1  0.07126800  0.18849700  0.07827000  1
  O  O7  1  0.57126800  0.68849700  0.42173000  1
  O  O8  1  0.09382100  0.57731600  0.73313200  1
  O  O9  1  0.59382100  0.07731600  0.76686800  1
  O  O10  1  0.90617900  0.42268400  0.26686800  1
  O  O11  1  0.40617900  0.92268400  0.23313200  1
  O  O12  1  0.34960300  0.35693100  0.87646300  1
  O  O13  1  0.84960300  0.85693100  0.62353700  1
  O  O14  1  0.65039700  0.64306900  0.12353700  1
  O  O15  1  0.15039700  0.14306900  0.37646300  1
  O  O16  1  0.34910500  0.43981000  0.17447700  1
  O  O17  1  0.84910500  0.93981000  0.32552300  1
  O  O18  1  0.65089500  0.56019000  0.82552300  1
  O  O19  1  0.15089500  0.06019000  0.67447700  1
  O  O20  1  0.07580500  0.74759100  0.18635000  1
  O  O21  1  0.57580500  0.24759100  0.31365000  1
  O  O22  1  0.92419500  0.25240900  0.81365000  1
  O  O23  1  0.42419500  0.75240900  0.68635000  1
loop_
_geom_bond_atom_site_label_1
_geom_bond_atom_site_label_2
_geom_bond_distance
_geom_bond_site_symmetry_2
B0 O0 1.411711 1_555
B1 O1 1.411711 1_555
B2 O2 1.411711 1_555
B3 O3 1.411711 1_555
B4 O4 1.375385 1_555
B5 O5 1.375385 1_555
B6 O6 1.375385 1_555
B7 O7 1.375385 1_555
B8 O8 1.376383 1_555
B9 O9 1.376383 1_555
B10 O10 1.376383 1_555
B11 O11 1.376383 1_555
B12 O12 1.406732 1_555
B13 O13 1.406732 1_555
B14 O14 1.406732 1_555
B15 O15 1.406732 1_555
B16 O16 1.434526 1_555
B17 O17 1.434526 1_555
B18 O18 1.434526 1_555
B19 O19 1.434526 1_555
B20 O20 1.411464 1_555
B21 O21 1.411464 1_555
B22 O22 1.411464 1_555
B23 O23 1.411464 1_555
H0 O0 0.982735 1_555
H1 O1 0.982735 1_555
H2 O2 0.982735 1_555
H3 O3 0.982735 1_555
H4 O4 0.976809 1_555
H5 O5 0.976809 1_555
H6 O6 0.976809 1_555
H7 O7 0.976809 1_555
H8 O8 0.990666 1_555
H9 O9 0.990666 1_555
H10 O10 0.990666 1_555
H11 O11 0.990666 1_555
H12 O12 0.996704 1_555
H13 O13 0.996704 1_555
H14 O14 0.996704 1_555
H15 O15 0.996704 1_555
H16 O16 0.985094 1_555
H17 O17 0.985094 1_545
H18 O18 0.985094 1_555
H19 O19 0.985094 1_565
H20 O20 0.984644 1_655
H21 O21 0.984644 1_555
H22 O22 0.984644 1_455
H23 O23 0.984644 1_555
