# generated using pymatgen
data_Li7Mn4CoO12
_symmetry_space_group_name_H-M   'P 1'
_cell_length_a   5.03510600
_cell_length_b   5.03475870
_cell_length_c   9.88106512
_cell_angle_alpha   86.99489210
_cell_angle_beta   101.29504119
_cell_angle_gamma   117.49589652
_symmetry_Int_Tables_number   1
_chemical_formula_structural   Li7Mn4CoO12
_chemical_formula_sum   'Li7 Mn4 Co1 O12'
_cell_volume   217.68435712
_cell_formula_units_Z   1
loop_
 _symmetry_equiv_pos_site_id
 _symmetry_equiv_pos_as_xyz
  1  'x, y, z'
loop_
 _atom_site_type_symbol
 _atom_site_label
 _atom_site_symmetry_multiplicity
 _atom_site_fract_x
 _atom_site_fract_y
 _atom_site_fract_z
 _atom_site_occupancy
  Li  Li0  1  0.74845600  0.00548900  0.25421100  1
  Li  Li1  1  0.57605100  0.66979800  0.74576700  1
  Li  Li2  1  0.41630500  0.32940400  0.25367100  1
  Li  Li3  1  0.09044700  0.66468800  0.25816200  1
  Li  Li4  1  0.91624100  0.32877000  0.74186600  1
  Li  Li5  1  0.25260100  0.00163700  0.74629600  1
  Li  Li6  1  0.50102000  0.99894900  0.50000000  1
  Mn  Mn0  1  0.99959200  0.99940300  0.99977900  1
  Mn  Mn1  1  0.83201200  0.66790900  0.49997900  1
  Mn  Mn2  1  0.66674900  0.33360700  0.99931700  1
  Mn  Mn3  1  0.33394800  0.66673300  0.00088800  1
  Co  Co0  1  0.16909900  0.33075100  0.49999400  1
  O  O0  1  0.01451300  0.30778700  0.11704700  1
  O  O1  1  0.90496400  0.01246400  0.60922500  1
  O  O2  1  0.68278400  0.64365300  0.11822100  1
  O  O3  1  0.35029800  0.97651500  0.12093300  1
  O  O4  1  0.18041300  0.64014000  0.61107900  1
  O  O5  1  0.54142900  0.36841700  0.60760500  1
  O  O6  1  0.45096000  0.63121800  0.39068900  1
  O  O7  1  0.31841500  0.35688900  0.88255000  1
  O  O8  1  0.09607900  0.99455700  0.39247400  1
  O  O9  1  0.82293200  0.35652200  0.38891700  1
  O  O10  1  0.64931100  0.02333300  0.87887400  1
  O  O11  1  0.98538100  0.69136800  0.88245700  1
loop_
_geom_bond_atom_site_label_1
_geom_bond_atom_site_label_2
_geom_bond_distance
_geom_bond_site_symmetry_2
Li0 O8 2.019274 1_645
Li0 O9 2.115428 1_555
Li0 O3 2.119098 1_545
Li0 O0 2.135475 1_655
Li0 O2 2.181770 1_545
Li0 O6 2.351956 1_545
Li1 O5 2.018984 1_555
Li1 O4 2.114122 1_555
Li1 O10 2.117390 1_565
Li1 O7 2.137274 1_555
Li1 O11 2.191369 1_555
Li1 O1 2.352108 1_565
Li2 O6 2.012672 1_555
Li2 O3 2.125034 1_545
Li2 O2 2.148502 1_555
Li2 O0 2.160872 1_555
Li2 O9 2.164635 1_555
Li2 O8 2.331705 1_545
Li3 O6 2.089594 1_555
Li3 O9 2.105388 1_455
Li3 O3 2.142513 1_555
Li3 O8 2.166399 1_555
Li3 O0 2.176884 1_555
Li3 O2 2.199849 1_455
Li4 O1 2.088856 1_555
Li4 O4 2.105336 1_655
Li4 O10 2.142421 1_555
Li4 O5 2.168122 1_555
Li4 O7 2.169392 1_655
Li4 O11 2.207591 1_555
Li5 O1 2.013193 1_455
Li5 O10 2.122847 1_555
Li5 O11 2.146789 1_445
Li5 O7 2.156844 1_555
Li5 O4 2.164189 1_545
Li5 O5 2.332097 1_555
Li6 O1 2.079957 1_565
Li6 O6 2.080891 1_555
Li6 O8 2.097326 1_555
Li6 O5 2.098890 1_565
Li6 O4 2.206243 1_555
Li6 O9 2.206426 1_565
Mn0 O0 1.950851 1_666
Mn0 O11 1.951358 1_555
Mn0 O10 1.976902 1_565
Mn0 O3 1.977359 1_656
Mn0 O2 2.235094 1_556
Mn0 O7 2.236104 1_665
Mn1 O4 1.938564 1_655
Mn1 O9 1.938768 1_555
Mn1 O1 1.939633 1_565
Mn1 O6 1.939975 1_555
Mn1 O5 1.987353 1_555
Mn1 O8 1.987949 1_655
Mn2 O7 1.950403 1_555
Mn2 O0 1.957720 1_656
Mn2 O2 1.965302 1_556
Mn2 O10 1.972748 1_555
Mn2 O11 2.234047 1_555
Mn2 O3 2.256900 1_546
Mn3 O2 1.954312 1_555
Mn3 O11 1.961209 1_454
Mn3 O7 1.962074 1_554
Mn3 O3 1.970671 1_555
Mn3 O0 2.234280 1_555
Mn3 O10 2.255860 1_564
Co0 O8 1.894698 1_545
Co0 O5 1.895567 1_555
Co0 O9 1.924576 1_455
Co0 O4 1.925440 1_555
Co0 O1 1.978563 1_455
Co0 O6 1.978849 1_555
