# generated using pymatgen
data_SmEu2NbO6
_symmetry_space_group_name_H-M   'P 1'
_cell_length_a   8.32813883
_cell_length_b   8.32813883
_cell_length_c   8.32813883
_cell_angle_alpha   90.00000000
_cell_angle_beta   90.00000000
_cell_angle_gamma   90.00000000
_symmetry_Int_Tables_number   1
_chemical_formula_structural   SmEu2NbO6
_chemical_formula_sum   'Sm4 Eu8 Nb4 O24'
_cell_volume   577.62218994
_cell_formula_units_Z   4
loop_
 _symmetry_equiv_pos_site_id
 _symmetry_equiv_pos_as_xyz
  1  'x, y, z'
loop_
 _atom_site_type_symbol
 _atom_site_label
 _atom_site_symmetry_multiplicity
 _atom_site_fract_x
 _atom_site_fract_y
 _atom_site_fract_z
 _atom_site_occupancy
  Sm  Sm0  1  0.25000000  0.25000000  0.25000000  1
  Sm  Sm1  1  0.25000000  0.75000000  0.75000000  1
  Sm  Sm2  1  0.75000000  0.25000000  0.75000000  1
  Sm  Sm3  1  0.75000000  0.75000000  0.25000000  1
  Eu  Eu0  1  0.50000000  0.50000000  0.50000000  1
  Eu  Eu1  1  0.00000000  0.00000000  0.00000000  1
  Eu  Eu2  1  0.00000000  0.00000000  0.50000000  1
  Eu  Eu3  1  0.00000000  0.50000000  0.00000000  1
  Eu  Eu4  1  0.50000000  0.00000000  0.00000000  1
  Eu  Eu5  1  0.50000000  0.50000000  0.00000000  1
  Eu  Eu6  1  0.50000000  0.00000000  0.50000000  1
  Eu  Eu7  1  0.00000000  0.50000000  0.50000000  1
  Nb  Nb0  1  0.75000000  0.75000000  0.75000000  1
  Nb  Nb1  1  0.75000000  0.25000000  0.25000000  1
  Nb  Nb2  1  0.25000000  0.75000000  0.25000000  1
  Nb  Nb3  1  0.25000000  0.25000000  0.75000000  1
  O  O0  1  0.21123240  0.29794171  0.51779759  1
  O  O1  1  0.21123240  0.70205829  0.48220241  1
  O  O2  1  0.78876760  0.29794171  0.48220241  1
  O  O3  1  0.78876760  0.70205829  0.51779759  1
  O  O4  1  0.29794171  0.51779759  0.21123240  1
  O  O5  1  0.70205829  0.48220241  0.21123240  1
  O  O6  1  0.29794171  0.48220241  0.78876760  1
  O  O7  1  0.70205829  0.51779759  0.78876760  1
  O  O8  1  0.51779759  0.21123240  0.29794171  1
  O  O9  1  0.48220241  0.21123240  0.70205829  1
  O  O10  1  0.48220241  0.78876760  0.29794171  1
  O  O11  1  0.51779759  0.78876760  0.70205829  1
  O  O12  1  0.28876760  0.20205829  0.98220241  1
  O  O13  1  0.28876760  0.79794171  0.01779759  1
  O  O14  1  0.71123240  0.20205829  0.01779759  1
  O  O15  1  0.71123240  0.79794171  0.98220241  1
  O  O16  1  0.20205829  0.98220241  0.28876760  1
  O  O17  1  0.79794171  0.01779759  0.28876760  1
  O  O18  1  0.20205829  0.01779759  0.71123240  1
  O  O19  1  0.79794171  0.98220241  0.71123240  1
  O  O20  1  0.98220241  0.28876760  0.20205829  1
  O  O21  1  0.01779759  0.28876760  0.79794171  1
  O  O22  1  0.01779759  0.71123240  0.20205829  1
  O  O23  1  0.98220241  0.71123240  0.79794171  1
loop_
_geom_bond_atom_site_label_1
_geom_bond_atom_site_label_2
_geom_bond_distance
_geom_bond_site_symmetry_2
Eu0 O9 2.938913 1_555
Eu0 O10 2.938913 1_555
Eu0 O2 2.938913 1_555
Eu0 O3 2.938913 1_555
Eu0 O11 2.938913 1_555
Eu0 O4 2.938913 1_555
Eu0 O1 2.938913 1_555
Eu0 O8 2.938913 1_555
Eu0 O5 2.938913 1_555
Eu0 O6 2.938913 1_555
Eu0 O7 2.938913 1_555
Eu0 O0 2.938913 1_555
Eu1 O15 2.938913 1_444
Eu1 O19 2.938913 1_444
Eu1 O20 2.938913 1_455
Eu1 O17 2.938913 1_455
Eu1 O14 2.938913 1_455
Eu1 O22 2.938913 1_545
Eu1 O16 2.938913 1_545
Eu1 O21 2.938913 1_554
Eu1 O23 2.938913 1_444
Eu1 O12 2.938913 1_554
Eu1 O18 2.938913 1_554
Eu1 O13 2.938913 1_545
Eu2 O18 2.438928 1_555
Eu2 O19 2.438928 1_445
Eu2 O16 2.438928 1_545
Eu2 O17 2.438928 1_455
Eu3 O23 2.438928 1_454
Eu3 O21 2.438928 1_554
Eu3 O20 2.438928 1_455
Eu3 O22 2.438928 1_555
Eu4 O15 2.438928 1_544
Eu4 O13 2.438928 1_545
Eu4 O12 2.438928 1_554
Eu4 O14 2.438928 1_555
Eu5 O7 2.438928 1_554
Eu5 O6 2.438928 1_554
Eu5 O4 2.438928 1_555
Eu5 O5 2.438928 1_555
Eu6 O10 2.438928 1_545
Eu6 O9 2.438928 1_555
Eu6 O8 2.438928 1_555
Eu6 O11 2.438928 1_545
Eu7 O2 2.438928 1_455
Eu7 O3 2.438928 1_455
Eu7 O1 2.438928 1_555
Eu7 O0 2.438928 1_555
Nb0 O15 2.000822 1_555
Nb0 O7 2.000822 1_555
Nb0 O19 2.000822 1_555
Nb0 O3 2.000822 1_555
Nb0 O11 2.000822 1_555
Nb0 O23 2.000822 1_555
Nb1 O8 2.000822 1_555
Nb1 O14 2.000822 1_555
Nb1 O20 2.000822 1_555
Nb1 O17 2.000822 1_555
Nb1 O5 2.000822 1_555
Nb1 O2 2.000822 1_555
Nb2 O22 2.000822 1_555
Nb2 O16 2.000822 1_555
Nb2 O13 2.000822 1_555
Nb2 O4 2.000822 1_555
Nb2 O1 2.000822 1_555
Nb2 O10 2.000822 1_555
Nb3 O21 2.000822 1_555
Nb3 O18 2.000822 1_555
Nb3 O0 2.000822 1_555
Nb3 O12 2.000822 1_555
Nb3 O6 2.000822 1_555
Nb3 O9 2.000822 1_555
O0 Sm0 2.288600 1_555
O1 Sm1 2.288600 1_555
O2 Sm2 2.288600 1_555
O3 Sm3 2.288600 1_555
O4 Sm0 2.288600 1_555
O5 Sm3 2.288600 1_555
O6 Sm1 2.288600 1_555
O7 Sm2 2.288600 1_555
O8 Sm0 2.288600 1_555
O9 Sm2 2.288600 1_555
O10 Sm3 2.288600 1_555
O11 Sm1 2.288600 1_555
O12 Sm0 2.288600 1_556
O13 Sm1 2.288600 1_554
O14 Sm2 2.288600 1_554
O15 Sm3 2.288600 1_556
O16 Sm0 2.288600 1_565
O17 Sm3 2.288600 1_545
O18 Sm1 2.288600 1_545
O19 Sm2 2.288600 1_565
O20 Sm0 2.288600 1_655
O21 Sm2 2.288600 1_455
O22 Sm3 2.288600 1_455
O23 Sm1 2.288600 1_655
