# generated using pymatgen
data_ZnCoF5
_symmetry_space_group_name_H-M   'P 1'
_cell_length_a   9.66428100
_cell_length_b   5.21953200
_cell_length_c   7.43310127
_cell_angle_alpha   69.60825113
_cell_angle_beta   90.00000000
_cell_angle_gamma   90.00000000
_symmetry_Int_Tables_number   1
_chemical_formula_structural   ZnCoF5
_chemical_formula_sum   'Zn4 Co4 F20'
_cell_volume   351.45092403
_cell_formula_units_Z   4
loop_
 _symmetry_equiv_pos_site_id
 _symmetry_equiv_pos_as_xyz
  1  'x, y, z'
loop_
 _atom_site_type_symbol
 _atom_site_label
 _atom_site_symmetry_multiplicity
 _atom_site_fract_x
 _atom_site_fract_y
 _atom_site_fract_z
 _atom_site_occupancy
  Zn  Zn0  1  0.01089500  0.52125800  0.74312700  1
  Zn  Zn1  1  0.51089500  0.47874200  0.75687300  1
  Zn  Zn2  1  0.98910500  0.47874200  0.25687300  1
  Zn  Zn3  1  0.48910500  0.52125800  0.24312700  1
  Co  Co0  1  0.75295000  0.09880400  0.60204700  1
  Co  Co1  1  0.25295000  0.90119600  0.89795300  1
  Co  Co2  1  0.24705000  0.90119600  0.39795300  1
  Co  Co3  1  0.74705000  0.09880400  0.10204700  1
  F  F0  1  0.88615900  0.39472700  0.56691100  1
  F  F1  1  0.38615900  0.60527300  0.93308900  1
  F  F2  1  0.11384100  0.60527300  0.43308900  1
  F  F3  1  0.61384100  0.39472700  0.06691100  1
  F  F4  1  0.61005700  0.35349600  0.49431700  1
  F  F5  1  0.11005700  0.64650400  0.00568300  1
  F  F6  1  0.38994300  0.64650400  0.50568300  1
  F  F7  1  0.88994300  0.35349600  0.99431700  1
  F  F8  1  0.39924000  0.14402600  0.80147700  1
  F  F9  1  0.89924000  0.85597400  0.69852300  1
  F  F10  1  0.60076000  0.85597400  0.19852300  1
  F  F11  1  0.10076000  0.14402600  0.30147700  1
  F  F12  1  0.13465600  0.20962800  0.84977200  1
  F  F13  1  0.63465600  0.79037200  0.65022800  1
  F  F14  1  0.86534400  0.79037200  0.15022800  1
  F  F15  1  0.36534400  0.20962800  0.34977200  1
  F  F16  1  0.68616100  0.15742200  0.83692900  1
  F  F17  1  0.18616100  0.84257800  0.66307100  1
  F  F18  1  0.31383900  0.84257800  0.16307100  1
  F  F19  1  0.81383900  0.15742200  0.33692900  1
loop_
_geom_bond_atom_site_label_1
_geom_bond_atom_site_label_2
_geom_bond_distance
_geom_bond_site_symmetry_2
Co0 F9 1.867111 1_545
Co0 F4 1.890416 1_555
Co0 F13 1.903977 1_545
Co0 F0 1.957074 1_555
Co0 F19 1.975644 1_555
Co0 F16 1.982590 1_555
Co1 F8 1.867111 1_565
Co1 F5 1.890416 1_556
Co1 F12 1.903977 1_565
Co1 F1 1.957074 1_555
Co1 F18 1.975644 1_556
Co1 F17 1.982590 1_555
Co2 F11 1.867111 1_565
Co2 F6 1.890416 1_555
Co2 F15 1.903977 1_565
Co2 F2 1.957074 1_555
Co2 F17 1.975644 1_555
Co2 F18 1.982590 1_555
Co3 F10 1.867111 1_545
Co3 F7 1.890416 1_554
Co3 F14 1.903977 1_545
Co3 F3 1.957074 1_555
Co3 F16 1.975644 1_554
Co3 F19 1.982590 1_555
F0 Zn0 2.051306 1_655
F0 Zn2 2.405991 1_555
F1 Zn1 2.051306 1_555
F1 Zn3 2.405991 1_556
F2 Zn2 2.051306 1_455
F2 Zn0 2.405991 1_555
F3 Zn3 2.051306 1_555
F3 Zn1 2.405991 1_554
F4 Zn3 2.116579 1_555
F4 Zn1 2.458373 1_555
F5 Zn2 2.116579 1_455
F5 Zn0 2.458373 1_554
F6 Zn1 2.116579 1_555
F6 Zn3 2.458373 1_555
F7 Zn0 2.116579 1_655
F7 Zn2 2.458373 1_556
F8 Zn1 1.980625 1_555
F9 Zn0 1.980625 1_655
F10 Zn3 1.980625 1_555
F11 Zn2 1.980625 1_455
F12 Zn0 1.950925 1_555
F13 Zn1 1.950925 1_555
F14 Zn2 1.950925 1_555
F15 Zn3 1.950925 1_555
F16 Zn1 2.310939 1_555
F17 Zn0 2.310939 1_555
F18 Zn3 2.310939 1_555
F19 Zn2 2.310939 1_555
