# generated using pymatgen
data_TaBr5
_symmetry_space_group_name_H-M   'P 1'
_cell_length_a   6.35839716
_cell_length_b   13.80374394
_cell_length_c   13.80374394
_cell_angle_alpha   87.34217915
_cell_angle_beta   89.46090997
_cell_angle_gamma   89.46090997
_symmetry_Int_Tables_number   1
_chemical_formula_structural   TaBr5
_chemical_formula_sum   'Ta6 Br30'
_cell_volume   1210.14459743
_cell_formula_units_Z   6
loop_
 _symmetry_equiv_pos_site_id
 _symmetry_equiv_pos_as_xyz
  1  'x, y, z'
loop_
 _atom_site_type_symbol
 _atom_site_label
 _atom_site_symmetry_multiplicity
 _atom_site_fract_x
 _atom_site_fract_y
 _atom_site_fract_z
 _atom_site_occupancy
  Ta  Ta0  1  0.50000000  0.39040254  0.60959746  1
  Ta  Ta1  1  0.50000000  0.60959746  0.39040254  1
  Ta  Ta2  1  0.02077292  0.05730405  0.27642064  1
  Ta  Ta3  1  0.02077292  0.27642064  0.05730405  1
  Ta  Ta4  1  0.97922708  0.94269595  0.72357936  1
  Ta  Ta5  1  0.97922708  0.72357936  0.94269595  1
  Br  Br0  1  0.80237699  0.11572419  0.11572419  1
  Br  Br1  1  0.19762301  0.88427581  0.88427581  1
  Br  Br2  1  0.78385402  0.92201485  0.30187185  1
  Br  Br3  1  0.78385402  0.30187185  0.92201485  1
  Br  Br4  1  0.21614598  0.07798515  0.69812815  1
  Br  Br5  1  0.21614598  0.69812815  0.07798515  1
  Br  Br6  1  0.25188590  0.96833820  0.16500409  1
  Br  Br7  1  0.25188590  0.16500409  0.96833820  1
  Br  Br8  1  0.74811410  0.03166180  0.83499591  1
  Br  Br9  1  0.74811410  0.83499591  0.03166180  1
  Br  Br10  1  0.25687125  0.03202813  0.41201639  1
  Br  Br11  1  0.25687125  0.41201639  0.03202813  1
  Br  Br12  1  0.74312875  0.96797187  0.58798361  1
  Br  Br13  1  0.74312875  0.58798361  0.96797187  1
  Br  Br14  1  0.24055617  0.21769613  0.21769613  1
  Br  Br15  1  0.75944383  0.78230387  0.78230387  1
  Br  Br16  1  0.27603807  0.30187160  0.49831503  1
  Br  Br17  1  0.27603807  0.49831503  0.30187160  1
  Br  Br18  1  0.72396193  0.69812840  0.50168497  1
  Br  Br19  1  0.72396193  0.50168497  0.69812840  1
  Br  Br20  1  0.78890829  0.16888487  0.36477061  1
  Br  Br21  1  0.78890829  0.36477061  0.16888487  1
  Br  Br22  1  0.21109171  0.83111513  0.63522939  1
  Br  Br23  1  0.21109171  0.63522939  0.83111513  1
  Br  Br24  1  0.26000043  0.36491073  0.74537804  1
  Br  Br25  1  0.26000043  0.74537804  0.36491073  1
  Br  Br26  1  0.73999957  0.63508927  0.25462196  1
  Br  Br27  1  0.73999957  0.25462196  0.63508927  1
  Br  Br28  1  0.27682248  0.55094025  0.55094025  1
  Br  Br29  1  0.72317852  0.44905975  0.44905975  1
loop_
_geom_bond_atom_site_label_1
_geom_bond_atom_site_label_2
_geom_bond_distance
_geom_bond_site_symmetry_2
Br0 Ta3 2.714795 1_655
Br0 Ta2 2.714795 1_655
Br1 Ta5 2.714795 1_455
Br1 Ta4 2.714795 1_455
Br2 Ta2 2.421244 1_665
Br3 Ta3 2.421244 1_656
Br4 Ta4 2.421244 1_445
Br5 Ta5 2.421244 1_454
Br6 Ta2 2.476208 1_565
Br7 Ta3 2.476208 1_556
Br8 Ta4 2.476208 1_545
Br9 Ta5 2.476208 1_554
Br10 Ta2 2.420987 1_555
Br11 Ta3 2.420987 1_555
Br12 Ta4 2.420987 1_555
Br13 Ta5 2.420987 1_555
Br14 Ta2 2.717044 1_555
Br14 Ta3 2.717044 1_555
Br15 Ta5 2.717044 1_555
Br15 Ta4 2.717044 1_555
Br16 Ta0 2.475675 1_555
Br17 Ta1 2.475675 1_555
Br18 Ta1 2.475675 1_555
Br19 Ta0 2.475675 1_555
Br20 Ta2 2.476048 1_655
Br21 Ta3 2.476048 1_655
Br22 Ta4 2.476048 1_455
Br23 Ta5 2.476048 1_455
Br24 Ta0 2.420863 1_555
Br25 Ta1 2.420863 1_555
Br26 Ta1 2.420863 1_555
Br27 Ta0 2.420863 1_555
Br28 Ta1 2.715897 1_555
Br28 Ta0 2.715897 1_555
Br29 Ta1 2.715900 1_555
Br29 Ta0 2.715900 1_555
