# generated using pymatgen
data_Li9Mn2Co5O16
_symmetry_space_group_name_H-M   'P 1'
_cell_length_a   2.90354400
_cell_length_b   10.21092500
_cell_length_c   10.30915713
_cell_angle_alpha   70.64256811
_cell_angle_beta   90.00000000
_cell_angle_gamma   90.00000000
_symmetry_Int_Tables_number   1
_chemical_formula_structural   Li9Mn2Co5O16
_chemical_formula_sum   'Li9 Mn2 Co5 O16'
_cell_volume   288.36621280
_cell_formula_units_Z   1
loop_
 _symmetry_equiv_pos_site_id
 _symmetry_equiv_pos_as_xyz
  1  'x, y, z'
loop_
 _atom_site_type_symbol
 _atom_site_label
 _atom_site_symmetry_multiplicity
 _atom_site_fract_x
 _atom_site_fract_y
 _atom_site_fract_z
 _atom_site_occupancy
  Li  Li0  1  0.50000000  0.99279200  0.73687000  1
  Li  Li1  1  0.50000000  0.00155300  0.26632300  1
  Li  Li2  1  0.00000000  0.74883400  0.74490100  1
  Li  Li3  1  0.00000000  0.74210300  0.26396200  1
  Li  Li4  1  0.50000000  0.50460200  0.74549400  1
  Li  Li5  1  0.50000000  0.50124400  0.24885200  1
  Li  Li6  1  0.00000000  0.25756900  0.74034500  1
  Li  Li7  1  0.00000000  0.24613300  0.25789700  1
  Li  Li8  1  0.00000000  0.00213400  0.49745300  1
  Mn  Mn0  1  0.00000000  0.00018400  0.99962800  1
  Mn  Mn1  1  0.50000000  0.24317400  0.49655700  1
  Co  Co0  1  0.50000000  0.74500600  0.00017000  1
  Co  Co1  1  0.50000000  0.76634100  0.50917400  1
  Co  Co2  1  0.00000000  0.49970600  0.00008000  1
  Co  Co3  1  0.00000000  0.50490500  0.49753500  1
  Co  Co4  1  0.50000000  0.25670600  0.99924400  1
  O  O0  1  0.50000000  0.11037500  0.88986200  1
  O  O1  1  0.50000000  0.13619600  0.38331900  1
  O  O2  1  0.00000000  0.87831200  0.89004800  1
  O  O3  1  0.00000000  0.86245700  0.38579800  1
  O  O4  1  0.50000000  0.61909200  0.88492300  1
  O  O5  1  0.50000000  0.61349300  0.38420100  1
  O  O6  1  0.00000000  0.36974000  0.88051300  1
  O  O7  1  0.00000000  0.36200900  0.39021400  1
  O  O8  1  0.50000000  0.86591400  0.62464800  1
  O  O9  1  0.50000000  0.89054000  0.10915200  1
  O  O10  1  0.00000000  0.63062700  0.61072800  1
  O  O11  1  0.00000000  0.62759500  0.11804400  1
  O  O12  1  0.50000000  0.37549200  0.60881900  1
  O  O13  1  0.50000000  0.38007800  0.11537900  1
  O  O14  1  0.00000000  0.14021600  0.61099500  1
  O  O15  1  0.00000000  0.12488000  0.10887100  1
loop_
_geom_bond_atom_site_label_1
_geom_bond_atom_site_label_2
_geom_bond_distance
_geom_bond_site_symmetry_2
Li0 O8 2.002619 1_555
Li0 O2 2.178083 1_655
Li0 O2 2.178083 1_555
Li0 O14 2.182349 1_665
Li0 O14 2.182349 1_565
Li0 O0 2.276945 1_565
Li1 O1 2.108122 1_555
Li1 O3 2.117133 1_545
Li1 O3 2.117133 1_645
Li1 O15 2.230057 1_555
Li1 O15 2.230057 1_655
Li1 O9 2.264481 1_545
Li2 O8 2.022680 1_455
Li2 O8 2.022680 1_555
Li2 O10 2.115868 1_555
Li2 O4 2.163027 1_455
Li2 O4 2.163027 1_555
Li2 O2 2.301830 1_555
Li3 O3 2.027590 1_555
Li3 O5 2.071136 1_455
Li3 O5 2.071136 1_555
Li3 O11 2.189974 1_555
Li3 O9 2.312668 1_555
Li3 O9 2.312668 1_455
Li4 O10 2.123349 1_555
Li4 O10 2.123349 1_655
Li4 O4 2.132309 1_555
Li4 O6 2.161192 1_555
Li4 O6 2.161192 1_655
Li4 O12 2.225914 1_555
Li5 O5 2.078666 1_555
Li5 O11 2.106492 1_655
Li5 O11 2.106492 1_555
Li5 O13 2.133688 1_555
Li5 O7 2.208893 1_655
Li5 O7 2.208893 1_555
Li6 O14 2.067209 1_555
Li6 O12 2.076945 1_455
Li6 O12 2.076945 1_555
Li6 O6 2.120641 1_555
Li6 O0 2.281824 1_455
Li6 O0 2.281824 1_555
Li7 O1 2.019260 1_455
Li7 O1 2.019260 1_555
Li7 O7 2.081012 1_555
Li7 O13 2.191983 1_455
Li7 O13 2.191983 1_555
Li7 O15 2.270284 1_555
Li8 O1 2.073214 1_455
Li8 O1 2.073214 1_555
Li8 O3 2.108887 1_545
Li8 O14 2.110008 1_555
Li8 O8 2.133700 1_445
Li8 O8 2.133700 1_545
Mn0 O2 1.938221 1_545
Mn0 O9 1.948830 1_446
Mn0 O9 1.948830 1_546
Mn0 O0 1.951941 1_455
Mn0 O0 1.951941 1_555
Mn0 O15 1.959624 1_556
Mn1 O1 1.844278 1_555
Mn1 O14 1.944863 1_555
Mn1 O14 1.944863 1_655
Mn1 O7 1.974852 1_555
Mn1 O7 1.974852 1_655
Mn1 O12 2.049737 1_555
Co0 O11 2.013910 1_655
Co0 O11 2.013910 1_555
Co0 O4 2.019217 1_554
Co0 O2 2.055447 1_654
Co0 O2 2.055447 1_554
Co0 O9 2.139482 1_555
Co1 O8 1.803680 1_555
Co1 O3 1.964962 1_655
Co1 O3 1.964962 1_555
Co1 O10 2.040170 1_655
Co1 O10 2.040170 1_555
Co1 O5 2.329961 1_555
Co2 O4 2.010894 1_554
Co2 O4 2.010894 1_454
Co2 O13 2.012479 1_555
Co2 O13 2.012479 1_455
Co2 O11 2.058391 1_555
Co2 O6 2.089238 1_554
Co3 O5 1.960447 1_455
Co3 O5 1.960447 1_555
Co3 O10 2.000692 1_555
Co3 O12 2.040831 1_455
Co3 O12 2.040831 1_555
Co3 O7 2.103151 1_555
Co4 O6 2.000365 1_555
Co4 O6 2.000365 1_655
Co4 O13 2.005045 1_556
Co4 O15 2.046538 1_656
Co4 O15 2.046538 1_556
Co4 O0 2.149667 1_555
