# generated using pymatgen
data_MnPt3
_symmetry_space_group_name_H-M   'P 1'
_cell_length_a   3.91096353
_cell_length_b   3.91096456
_cell_length_c   3.91096456
_cell_angle_alpha   90.00000000
_cell_angle_beta   90.00000000
_cell_angle_gamma   90.00000000
_symmetry_Int_Tables_number   1
_chemical_formula_structural   MnPt3
_chemical_formula_sum   'Mn1 Pt3'
_cell_volume   59.82070503
_cell_formula_units_Z   1
loop_
 _symmetry_equiv_pos_site_id
 _symmetry_equiv_pos_as_xyz
  1  'x, y, z'
loop_
 _atom_site_type_symbol
 _atom_site_label
 _atom_site_symmetry_multiplicity
 _atom_site_fract_x
 _atom_site_fract_y
 _atom_site_fract_z
 _atom_site_occupancy
  Mn  Mn0  1  -0.00000000  -0.00000000  0.00000000  1
  Pt  Pt0  1  -0.00000000  0.50000000  0.50000000  1
  Pt  Pt1  1  0.50000000  0.50000000  0.00000000  1
  Pt  Pt2  1  0.50000000  -0.00000000  0.50000000  1
loop_
_geom_bond_atom_site_label_1
_geom_bond_atom_site_label_2
_geom_bond_distance
_geom_bond_site_symmetry_2
Mn0 Pt1 2.765469 1_545
Mn0 Pt1 2.765469 1_555
Mn0 Pt1 2.765469 1_455
Mn0 Pt2 2.765469 1_554
Mn0 Pt2 2.765469 1_454
Mn0 Pt2 2.765469 1_455
Mn0 Pt1 2.765469 1_445
Mn0 Pt2 2.765469 1_555
Mn0 Pt0 2.765470 1_545
Mn0 Pt0 2.765470 1_544
Mn0 Pt0 2.765470 1_554
Mn0 Pt0 2.765470 1_555
Pt0 Pt1 2.765469 1_456
Pt0 Pt2 2.765469 1_565
Pt0 Pt1 2.765469 1_455
Pt0 Pt1 2.765469 1_555
Pt0 Pt1 2.765469 1_556
Pt0 Pt2 2.765469 1_455
Pt0 Pt2 2.765469 1_555
Pt0 Pt2 2.765469 1_465
Pt1 Pt2 2.765470 1_554
Pt1 Pt2 2.765470 1_555
Pt1 Pt2 2.765470 1_564
Pt1 Pt2 2.765470 1_565
