# generated using pymatgen
data_Fe(SiSe2)2
_symmetry_space_group_name_H-M   'P 1'
_cell_length_a   3.60476944
_cell_length_b   8.15587330
_cell_length_c   6.51341040
_cell_angle_alpha   68.84722690
_cell_angle_beta   89.93740422
_cell_angle_gamma   103.24282656
_symmetry_Int_Tables_number   1
_chemical_formula_structural   Fe(SiSe2)2
_chemical_formula_sum   'Fe1 Si2 Se4'
_cell_volume   173.10134397
_cell_formula_units_Z   1
loop_
 _symmetry_equiv_pos_site_id
 _symmetry_equiv_pos_as_xyz
  1  'x, y, z'
loop_
 _atom_site_type_symbol
 _atom_site_label
 _atom_site_symmetry_multiplicity
 _atom_site_fract_x
 _atom_site_fract_y
 _atom_site_fract_z
 _atom_site_occupancy
  Fe  Fe0  1  0.00000000  0.00000000  0.00000000  1
  Si  Si0  1  0.57784800  0.15393600  0.40553100  1
  Si  Si1  1  0.42215200  0.84606400  0.59446900  1
  Se  Se0  1  0.13759400  0.26508700  0.55017300  1
  Se  Se1  1  0.61502200  0.22336000  0.03683900  1
  Se  Se2  1  0.86240600  0.73491300  0.44982700  1
  Se  Se3  1  0.38497800  0.77664000  0.96316100  1
loop_
_geom_bond_atom_site_label_1
_geom_bond_atom_site_label_2
_geom_bond_distance
_geom_bond_site_symmetry_2
Fe0 Se1 2.599530 1_555
Fe0 Se3 2.599530 1_444
Fe0 Se1 2.602886 1_455
Fe0 Se3 2.602886 1_544
Fe0 Se0 2.904912 1_554
Fe0 Se2 2.904912 1_445
Si0 Si1 2.292832 1_545
Se0 Si0 2.345261 1_555
Se0 Si0 2.358645 1_455
Se1 Si0 2.255811 1_555
Se2 Si1 2.345261 1_555
Se2 Si1 2.358645 1_655
Se3 Si1 2.255811 1_555
