# generated using pymatgen
data_RePt
_symmetry_space_group_name_H-M   'P 1'
_cell_length_a   9.68955221
_cell_length_b   9.68955221
_cell_length_c   9.68955192
_cell_angle_alpha   33.25172292
_cell_angle_beta   33.25172292
_cell_angle_gamma   33.25173106
_symmetry_Int_Tables_number   1
_chemical_formula_structural   RePt
_chemical_formula_sum   'Re8 Pt8'
_cell_volume   243.50190798
_cell_formula_units_Z   8
loop_
 _symmetry_equiv_pos_site_id
 _symmetry_equiv_pos_as_xyz
  1  'x, y, z'
loop_
 _atom_site_type_symbol
 _atom_site_label
 _atom_site_symmetry_multiplicity
 _atom_site_fract_x
 _atom_site_fract_y
 _atom_site_fract_z
 _atom_site_occupancy
  Re  Re0_0  1  0.25000000  0.25000000  0.25000000  1
  Re  Re0_1  1  0.25000000  0.25000000  0.75000000  1
  Re  Re0_2  1  0.25000000  0.75000000  0.25000000  1
  Re  Re0_3  1  0.25000000  0.75000000  0.75000000  1
  Re  Re0_4  1  0.75000000  0.25000000  0.25000000  1
  Re  Re0_5  1  0.75000000  0.25000000  0.75000000  1
  Re  Re0_6  1  0.75000000  0.75000000  0.25000000  1
  Re  Re0_7  1  0.75000000  0.75000000  0.75000000  1
  Pt  Pt0_0  1  0.00000000  0.00000000  0.00000000  1
  Pt  Pt0_1  1  0.00000000  0.00000000  0.50000000  1
  Pt  Pt0_2  1  0.00000000  0.50000000  0.00000000  1
  Pt  Pt0_3  1  0.00000000  0.50000000  0.50000000  1
  Pt  Pt0_4  1  0.50000000  0.00000000  0.00000000  1
  Pt  Pt0_5  1  0.50000000  0.00000000  0.50000000  1
  Pt  Pt0_6  1  0.50000000  0.50000000  0.00000000  1
  Pt  Pt0_7  1  0.50000000  0.50000000  0.50000000  1
loop_
_geom_bond_atom_site_label_1
_geom_bond_atom_site_label_2
_geom_bond_distance
_geom_bond_site_symmetry_2
Re0_0 Re0_3 2.772383 1_545
Re0_0 Re0_5 2.772383 1_455
Re0_0 Re0_5 2.772383 1_554
Re0_0 Re0_3 2.772383 1_554
Re0_0 Re0_6 2.772384 1_455
Re0_0 Re0_6 2.772384 1_545
Re0_1 Re0_4 2.772383 1_456
Re0_1 Re0_2 2.772383 1_546
Re0_1 Re0_2 2.772383 1_555
Re0_1 Re0_4 2.772383 1_555
Re0_1 Re0_7 2.772384 1_455
Re0_1 Re0_7 2.772384 1_545
Re0_2 Re0_7 2.772383 1_554
Re0_2 Re0_7 2.772383 1_455
Re0_2 Re0_4 2.772384 1_555
Re0_2 Re0_4 2.772384 1_465
Re0_3 Re0_6 2.772383 1_456
Re0_3 Re0_6 2.772383 1_555
Re0_3 Re0_5 2.772384 1_465
Re0_3 Re0_5 2.772384 1_555
Re0_4 Re0_7 2.772383 1_554
Re0_4 Re0_7 2.772383 1_545
Re0_5 Re0_6 2.772383 1_546
Re0_5 Re0_6 2.772383 1_555
Pt0_0 Pt0_3 2.772383 1_554
Pt0_0 Pt0_5 2.772383 1_455
Pt0_0 Pt0_5 2.772383 1_554
Pt0_0 Pt0_3 2.772383 1_545
Pt0_0 Pt0_6 2.772384 1_455
Pt0_0 Pt0_6 2.772384 1_545
Pt0_0 Re0_1 2.790966 1_554
Pt0_0 Re0_6 2.790966 1_445
Pt0_0 Re0_4 2.790966 1_455
Pt0_0 Re0_2 2.790966 1_545
Pt0_0 Re0_3 2.790966 1_544
Pt0_0 Re0_5 2.790966 1_454
Pt0_1 Pt0_2 2.772383 1_546
Pt0_1 Pt0_4 2.772383 1_555
Pt0_1 Pt0_4 2.772383 1_456
Pt0_1 Pt0_2 2.772383 1_555
Pt0_1 Pt0_7 2.772384 1_545
Pt0_1 Pt0_7 2.772384 1_455
Pt0_1 Re0_0 2.790966 1_555
Pt0_1 Re0_7 2.790966 1_445
Pt0_1 Re0_5 2.790966 1_455
Pt0_1 Re0_3 2.790966 1_545
Pt0_1 Re0_2 2.790966 1_545
Pt0_1 Re0_4 2.790966 1_455
Pt0_2 Pt0_7 2.772383 1_554
Pt0_2 Pt0_7 2.772383 1_455
Pt0_2 Pt0_4 2.772384 1_555
Pt0_2 Pt0_4 2.772384 1_465
Pt0_2 Re0_3 2.790966 1_554
Pt0_2 Re0_4 2.790966 1_455
Pt0_2 Re0_6 2.790966 1_455
Pt0_2 Re0_0 2.790966 1_555
Pt0_2 Re0_7 2.790966 1_454
Pt0_2 Re0_1 2.790966 1_554
Pt0_3 Pt0_6 2.772383 1_555
Pt0_3 Pt0_6 2.772383 1_456
Pt0_3 Pt0_5 2.772384 1_555
Pt0_3 Pt0_5 2.772384 1_465
Pt0_3 Re0_2 2.790966 1_555
Pt0_3 Re0_5 2.790966 1_455
Pt0_3 Re0_1 2.790966 1_555
Pt0_3 Re0_7 2.790966 1_455
Pt0_3 Re0_0 2.790966 1_555
Pt0_3 Re0_6 2.790966 1_455
Pt0_4 Pt0_7 2.772383 1_554
Pt0_4 Pt0_7 2.772383 1_545
Pt0_4 Re0_5 2.790966 1_554
Pt0_4 Re0_2 2.790966 1_545
Pt0_4 Re0_6 2.790966 1_545
Pt0_4 Re0_0 2.790966 1_555
Pt0_4 Re0_7 2.790966 1_544
Pt0_4 Re0_1 2.790966 1_554
Pt0_5 Pt0_6 2.772383 1_555
Pt0_5 Pt0_6 2.772383 1_546
Pt0_5 Re0_4 2.790966 1_555
Pt0_5 Re0_3 2.790966 1_545
Pt0_5 Re0_1 2.790966 1_555
Pt0_5 Re0_7 2.790966 1_545
Pt0_5 Re0_0 2.790966 1_555
Pt0_5 Re0_6 2.790966 1_545
Pt0_6 Re0_7 2.790966 1_554
Pt0_6 Re0_0 2.790966 1_555
Pt0_6 Re0_4 2.790966 1_555
Pt0_6 Re0_2 2.790966 1_555
Pt0_6 Re0_5 2.790966 1_554
Pt0_6 Re0_3 2.790966 1_554
Pt0_7 Re0_6 2.790966 1_555
Pt0_7 Re0_1 2.790966 1_555
Pt0_7 Re0_2 2.790966 1_555
Pt0_7 Re0_4 2.790966 1_555
Pt0_7 Re0_3 2.790966 1_555
Pt0_7 Re0_5 2.790966 1_555
