# generated using pymatgen
data_RbGd2Cl7
_symmetry_space_group_name_H-M   'P 1'
_cell_length_a   7.02445372
_cell_length_b   12.79618101
_cell_length_c   13.10057174
_cell_angle_alpha   90.00000000
_cell_angle_beta   90.00000000
_cell_angle_gamma   90.00000000
_symmetry_Int_Tables_number   1
_chemical_formula_structural   RbGd2Cl7
_chemical_formula_sum   'Rb4 Gd8 Cl28'
_cell_volume   1177.56036652
_cell_formula_units_Z   4
loop_
 _symmetry_equiv_pos_site_id
 _symmetry_equiv_pos_as_xyz
  1  'x, y, z'
loop_
 _atom_site_type_symbol
 _atom_site_label
 _atom_site_symmetry_multiplicity
 _atom_site_fract_x
 _atom_site_fract_y
 _atom_site_fract_z
 _atom_site_occupancy
  Rb  Rb0  1  0.25000000  0.80480396  0.04119520  1
  Rb  Rb1  1  0.75000000  0.19519604  0.95880480  1
  Rb  Rb2  1  0.75000000  0.30480396  0.45880480  1
  Rb  Rb3  1  0.25000000  0.69519604  0.54119520  1
  Gd  Gd0  1  0.25000000  0.46008784  0.23598021  1
  Gd  Gd1  1  0.75000000  0.53991216  0.76401979  1
  Gd  Gd2  1  0.75000000  0.96008784  0.26401979  1
  Gd  Gd3  1  0.25000000  0.03991216  0.73598021  1
  Gd  Gd4  1  0.25000000  0.15676151  0.24841141  1
  Gd  Gd5  1  0.75000000  0.84323849  0.75158859  1
  Gd  Gd6  1  0.75000000  0.65676151  0.25158859  1
  Gd  Gd7  1  0.25000000  0.34323849  0.74841141  1
  Cl  Cl0  1  0.00641648  0.30651534  0.17367889  1
  Cl  Cl1  1  0.99358352  0.69348466  0.82632111  1
  Cl  Cl2  1  0.99358352  0.80651534  0.32632111  1
  Cl  Cl3  1  0.50641648  0.69348466  0.82632111  1
  Cl  Cl4  1  0.00641648  0.19348466  0.67367889  1
  Cl  Cl5  1  0.49358352  0.30651534  0.17367889  1
  Cl  Cl6  1  0.49358352  0.19348466  0.67367889  1
  Cl  Cl7  1  0.50641648  0.80651534  0.32632111  1
  Cl  Cl8  1  0.01071110  0.57920242  0.11881324  1
  Cl  Cl9  1  0.98928890  0.42079758  0.88118676  1
  Cl  Cl10  1  0.98928890  0.07920242  0.38118676  1
  Cl  Cl11  1  0.51071110  0.42079758  0.88118676  1
  Cl  Cl12  1  0.01071110  0.92079758  0.61881324  1
  Cl  Cl13  1  0.48928890  0.57920242  0.11881324  1
  Cl  Cl14  1  0.48928890  0.92079758  0.61881324  1
  Cl  Cl15  1  0.51071110  0.07920242  0.38118676  1
  Cl  Cl16  1  0.00942295  0.03906121  0.12934655  1
  Cl  Cl17  1  0.99057705  0.96093879  0.87065345  1
  Cl  Cl18  1  0.99057705  0.53906121  0.37065345  1
  Cl  Cl19  1  0.50942295  0.96093879  0.87065345  1
  Cl  Cl20  1  0.00942295  0.46093879  0.62934655  1
  Cl  Cl21  1  0.49057705  0.03906121  0.12934655  1
  Cl  Cl22  1  0.49057705  0.46093879  0.62934655  1
  Cl  Cl23  1  0.50942295  0.53906121  0.37065345  1
  Cl  Cl24  1  0.25000000  0.31192183  0.39463731  1
  Cl  Cl25  1  0.75000000  0.68807817  0.60536269  1
  Cl  Cl26  1  0.75000000  0.81192183  0.10536269  1
  Cl  Cl27  1  0.25000000  0.18807817  0.89463731  1
loop_
_geom_bond_atom_site_label_1
_geom_bond_atom_site_label_2
_geom_bond_distance
_geom_bond_site_symmetry_2
Cl0 Gd0 2.730494 1_555
Cl0 Gd4 2.749236 1_555
Cl0 Rb1 3.632828 1_454
Cl1 Gd1 2.730494 1_555
Cl1 Gd5 2.749236 1_555
Cl1 Rb0 3.632828 1_656
Cl2 Gd2 2.730494 1_555
Cl2 Gd6 2.749236 1_555
Cl2 Rb3 3.632828 1_655
Cl3 Gd1 2.730494 1_555
Cl3 Gd5 2.749236 1_555
Cl3 Rb0 3.632828 1_556
Cl4 Gd3 2.730494 1_555
Cl4 Gd7 2.749236 1_555
Cl4 Rb2 3.632828 1_455
Cl5 Gd0 2.730494 1_555
Cl5 Gd4 2.749236 1_555
Cl5 Rb1 3.632828 1_554
Cl6 Gd3 2.730494 1_555
Cl6 Gd7 2.749236 1_555
Cl6 Rb2 3.632828 1_555
Cl7 Gd2 2.730494 1_555
Cl7 Gd6 2.749236 1_555
Cl7 Rb3 3.632828 1_555
Cl8 Gd6 2.713754 1_455
Cl8 Gd0 2.739460 1_555
Cl8 Rb0 3.491867 1_555
Cl9 Gd7 2.713754 1_655
Cl9 Gd1 2.739460 1_555
Cl9 Rb1 3.491867 1_555
Cl10 Gd4 2.713754 1_655
Cl10 Gd2 2.739460 1_545
Cl10 Rb2 3.491867 1_555
Cl11 Gd7 2.713754 1_555
Cl11 Gd1 2.739460 1_555
Cl11 Rb1 3.491867 1_555
Cl12 Gd5 2.713754 1_455
Cl12 Gd3 2.739460 1_565
Cl12 Rb3 3.491867 1_555
Cl13 Gd6 2.713754 1_555
Cl13 Gd0 2.739460 1_555
Cl13 Rb0 3.491867 1_555
Cl14 Gd5 2.713754 1_555
Cl14 Gd3 2.739460 1_565
Cl14 Rb3 3.491867 1_555
Cl15 Gd4 2.713754 1_555
Cl15 Gd2 2.739460 1_545
Cl15 Rb2 3.491867 1_555
Cl16 Gd2 2.730341 1_445
Cl16 Gd4 2.749045 1_555
Cl16 Rb1 3.507726 1_454
Cl16 Rb0 3.629748 1_545
Cl17 Gd3 2.730341 1_665
Cl17 Gd5 2.749045 1_555
Cl17 Rb0 3.507726 1_656
Cl17 Rb1 3.629748 1_565
Cl18 Gd0 2.730341 1_655
Cl18 Gd6 2.749045 1_555
Cl18 Rb3 3.507726 1_655
Cl18 Rb2 3.629748 1_555
Cl19 Gd3 2.730341 1_565
Cl19 Gd5 2.749045 1_555
Cl19 Rb0 3.507726 1_556
Cl19 Rb1 3.629748 1_565
Cl20 Gd1 2.730341 1_455
Cl20 Gd7 2.749045 1_555
Cl20 Rb2 3.507726 1_455
Cl20 Rb3 3.629748 1_555
Cl21 Gd2 2.730341 1_545
Cl21 Gd4 2.749045 1_555
Cl21 Rb1 3.507726 1_554
Cl21 Rb0 3.629748 1_545
Cl22 Gd1 2.730341 1_555
Cl22 Gd7 2.749045 1_555
Cl22 Rb2 3.507726 1_555
Cl22 Rb3 3.629748 1_555
Cl23 Gd0 2.730341 1_555
Cl23 Gd6 2.749045 1_555
Cl23 Rb3 3.507726 1_555
Cl23 Rb2 3.629748 1_555
Cl24 Gd4 2.758938 1_555
Cl24 Gd0 2.813329 1_555
Cl24 Rb2 3.612574 1_555
Cl24 Rb2 3.612574 1_455
Cl25 Gd5 2.758938 1_555
Cl25 Gd1 2.813329 1_555
Cl25 Rb3 3.612574 1_655
Cl25 Rb3 3.612574 1_555
Cl26 Gd6 2.758938 1_555
Cl26 Gd2 2.813329 1_555
Cl26 Rb0 3.612574 1_555
Cl26 Rb0 3.612574 1_655
Cl27 Gd7 2.758938 1_555
Cl27 Gd3 2.813329 1_555
Cl27 Rb1 3.612574 1_555
Cl27 Rb1 3.612574 1_455
