# generated using pymatgen
data_VBiO4
_symmetry_space_group_name_H-M   'P 1'
_cell_length_a   6.46780191
_cell_length_b   6.46780191
_cell_length_c   6.14887432
_cell_angle_alpha   77.66423453
_cell_angle_beta   77.66423453
_cell_angle_gamma   121.66943530
_symmetry_Int_Tables_number   1
_chemical_formula_structural   VBiO4
_chemical_formula_sum   'V2 Bi2 O8'
_cell_volume   196.76200541
_cell_formula_units_Z   2
loop_
 _symmetry_equiv_pos_site_id
 _symmetry_equiv_pos_as_xyz
  1  'x, y, z'
loop_
 _atom_site_type_symbol
 _atom_site_label
 _atom_site_symmetry_multiplicity
 _atom_site_fract_x
 _atom_site_fract_y
 _atom_site_fract_z
 _atom_site_occupancy
  V  V0  1  0.39867800  0.60132200  0.75000000  1
  V  V1  1  0.60132200  0.39867800  0.25000000  1
  Bi  Bi0  1  0.10561700  0.89438300  0.75000000  1
  Bi  Bi1  1  0.89438300  0.10561700  0.25000000  1
  O  O0  1  0.79567600  0.75308100  0.14758700  1
  O  O1  1  0.24691900  0.20432400  0.35241300  1
  O  O2  1  0.20432400  0.24691900  0.85241300  1
  O  O3  1  0.75308100  0.79567600  0.64758700  1
  O  O4  1  0.74009100  0.35677300  0.01189400  1
  O  O5  1  0.64322700  0.25990900  0.48810600  1
  O  O6  1  0.25990900  0.64322700  0.98810600  1
  O  O7  1  0.35677300  0.74009100  0.51189400  1
loop_
_geom_bond_atom_site_label_1
_geom_bond_atom_site_label_2
_geom_bond_distance
_geom_bond_site_symmetry_2
Bi0 O3 2.293451 1_455
Bi0 O2 2.293451 1_565
Bi0 O0 2.420339 1_456
Bi0 O1 2.420339 1_565
Bi0 O6 2.662410 1_555
Bi0 O7 2.662410 1_555
Bi0 O5 2.760793 1_565
Bi0 O4 2.760793 1_456
Bi1 O0 2.293451 1_545
Bi1 O1 2.293451 1_655
Bi1 O2 2.420339 1_654
Bi1 O3 2.420339 1_545
Bi1 O5 2.662410 1_555
Bi1 O4 2.662410 1_555
Bi1 O6 2.760793 1_654
Bi1 O7 2.760793 1_545
O0 V1 1.802875 1_555
O1 V1 1.802875 1_555
O2 V0 1.802875 1_555
O3 V0 1.802875 1_555
O4 V1 1.698845 1_555
O5 V1 1.698845 1_555
O6 V0 1.698845 1_555
O7 V0 1.698845 1_555
