# generated using pymatgen
data_FeSO8
_symmetry_space_group_name_H-M   'P 1'
_cell_length_a   13.93752500
_cell_length_b   6.62883600
_cell_length_c   10.04388308
_cell_angle_alpha   58.43141442
_cell_angle_beta   90.00000000
_cell_angle_gamma   90.00000000
_symmetry_Int_Tables_number   1
_chemical_formula_structural   FeSO8
_chemical_formula_sum   'Fe4 S4 O32'
_cell_volume   790.62649532
_cell_formula_units_Z   4
loop_
 _symmetry_equiv_pos_site_id
 _symmetry_equiv_pos_as_xyz
  1  'x, y, z'
loop_
 _atom_site_type_symbol
 _atom_site_label
 _atom_site_symmetry_multiplicity
 _atom_site_fract_x
 _atom_site_fract_y
 _atom_site_fract_z
 _atom_site_occupancy
  Fe  Fe0  1  0.59516600  0.25345600  0.29055600  1
  Fe  Fe1  1  0.90483400  0.25345600  0.79055600  1
  Fe  Fe2  1  0.40483400  0.74654400  0.70944400  1
  Fe  Fe3  1  0.09516600  0.74654400  0.20944400  1
  S  S0  1  0.60719200  0.97218500  0.67438300  1
  S  S1  1  0.89280800  0.97218500  0.17438300  1
  S  S2  1  0.39280800  0.02781500  0.32561700  1
  S  S3  1  0.10719200  0.02781500  0.82561700  1
  O  O0  1  0.54455700  0.75554400  0.73256600  1
  O  O1  1  0.95544300  0.75554400  0.23256600  1
  O  O2  1  0.45544300  0.24445600  0.26743400  1
  O  O3  1  0.04455700  0.24445600  0.76743400  1
  O  O4  1  0.57427700  0.15225000  0.51096300  1
  O  O5  1  0.92572300  0.15225000  0.01096300  1
  O  O6  1  0.42572300  0.84775000  0.48903700  1
  O  O7  1  0.07427700  0.84775000  0.98903700  1
  O  O8  1  0.57891100  0.09837100  0.75870400  1
  O  O9  1  0.92108900  0.09837100  0.25870400  1
  O  O10  1  0.42108900  0.90162900  0.24129600  1
  O  O11  1  0.07891100  0.90162900  0.74129600  1
  O  O12  1  0.70671300  0.90943400  0.68936900  1
  O  O13  1  0.79328700  0.90943400  0.18936900  1
  O  O14  1  0.29328700  0.09056600  0.31063100  1
  O  O15  1  0.20671300  0.09056600  0.81063100  1
  O  O16  1  0.58234100  0.79115000  0.08257200  1
  O  O17  1  0.91765900  0.79115000  0.58257200  1
  O  O18  1  0.41765900  0.20885000  0.91742800  1
  O  O19  1  0.08234100  0.20885000  0.41742800  1
  O  O20  1  0.86103700  0.91457900  0.48202800  1
  O  O21  1  0.63896300  0.91457900  0.98202800  1
  O  O22  1  0.13896300  0.08542100  0.51797200  1
  O  O23  1  0.36103700  0.08542100  0.01797200  1
  O  O24  1  0.62567600  0.24851700  0.12848800  1
  O  O25  1  0.87432400  0.24851700  0.62848800  1
  O  O26  1  0.37432400  0.75148300  0.87151200  1
  O  O27  1  0.12567600  0.75148300  0.37151200  1
  O  O28  1  0.70914600  0.36021400  0.26783000  1
  O  O29  1  0.79085400  0.36021400  0.76783000  1
  O  O30  1  0.29085400  0.63978600  0.73217000  1
  O  O31  1  0.20914600  0.63978600  0.23217000  1
loop_
_geom_bond_atom_site_label_1
_geom_bond_atom_site_label_2
_geom_bond_distance
_geom_bond_site_symmetry_2
Fe0 O24 1.699236 1_555
Fe0 O28 1.705119 1_555
Fe0 O2 1.965792 1_555
Fe0 O4 1.969895 1_555
Fe1 O25 1.699236 1_555
Fe1 O29 1.705119 1_555
Fe1 O3 1.965792 1_655
Fe1 O5 1.969895 1_556
Fe2 O26 1.699236 1_555
Fe2 O30 1.705119 1_555
Fe2 O0 1.965792 1_555
Fe2 O6 1.969895 1_555
Fe3 O27 1.699236 1_555
Fe3 O31 1.705119 1_555
Fe3 O1 1.965792 1_455
Fe3 O7 1.969895 1_554
O0 S0 1.512355 1_555
O1 S1 1.512355 1_555
O2 S2 1.512355 1_555
O3 S3 1.512355 1_555
O4 S0 1.509290 1_545
O5 S1 1.509290 1_545
O6 S2 1.509290 1_565
O7 S3 1.509290 1_565
O8 S0 1.521195 1_545
O9 S1 1.521195 1_545
O10 S2 1.521195 1_565
O11 S3 1.521195 1_565
O12 S0 1.433216 1_555
O13 S1 1.433216 1_555
O14 S2 1.433216 1_555
O15 S3 1.433216 1_555
O16 O21 1.202876 1_554
O17 O20 1.202876 1_555
O18 O23 1.202876 1_556
O19 O22 1.202876 1_555
