# generated using pymatgen
data_CaMn8(OF)8
_symmetry_space_group_name_H-M   'P 1'
_cell_length_a   4.80187030
_cell_length_b   4.84516221
_cell_length_c   13.00999071
_cell_angle_alpha   89.94982425
_cell_angle_beta   90.30566581
_cell_angle_gamma   90.90633002
_symmetry_Int_Tables_number   1
_chemical_formula_structural   CaMn8(OF)8
_chemical_formula_sum   'Ca1 Mn8 O8 F8'
_cell_volume   302.64609828
_cell_formula_units_Z   1
loop_
 _symmetry_equiv_pos_site_id
 _symmetry_equiv_pos_as_xyz
  1  'x, y, z'
loop_
 _atom_site_type_symbol
 _atom_site_label
 _atom_site_symmetry_multiplicity
 _atom_site_fract_x
 _atom_site_fract_y
 _atom_site_fract_z
 _atom_site_occupancy
  Ca  Ca0  1  0.53732500  0.07639100  0.49744300  1
  Mn  Mn0  1  0.99166100  0.96970900  0.99827900  1
  Mn  Mn1  1  0.04906900  0.03595200  0.23642300  1
  Mn  Mn2  1  0.02878300  0.68890500  0.49295000  1
  Mn  Mn3  1  0.04325300  0.02929900  0.75705200  1
  Mn  Mn4  1  0.46643100  0.53953200  0.64775300  1
  Mn  Mn5  1  0.55068600  0.46936900  0.11351200  1
  Mn  Mn6  1  0.48547600  0.54289000  0.34432300  1
  Mn  Mn7  1  0.47922700  0.53225500  0.88131100  1
  O  O0  1  0.22563700  0.83819100  0.36227200  1
  O  O1  1  0.21499400  0.83400800  0.62403400  1
  O  O2  1  0.19623000  0.82259900  0.88341500  1
  O  O3  1  0.33217400  0.33131000  0.23282700  1
  O  O4  1  0.28895100  0.36301400  0.76135100  1
  O  O5  1  0.70207900  0.67158100  0.99820900  1
  O  O6  1  0.61307600  0.61553600  0.49454400  1
  O  O7  1  0.83247700  0.17188400  0.11764900  1
  F  F0  1  0.25266400  0.78283200  0.11966800  1
  F  F1  1  0.28865600  0.27747500  0.99931400  1
  F  F2  1  0.14832000  0.29295600  0.50629700  1
  F  F3  1  0.75954100  0.72340100  0.24096300  1
  F  F4  1  0.72131600  0.73892700  0.75458100  1
  F  F5  1  0.76546500  0.23405700  0.35535000  1
  F  F6  1  0.73442900  0.22699300  0.64378100  1
  F  F7  1  0.77818900  0.21871300  0.87420300  1
loop_
_geom_bond_atom_site_label_1
_geom_bond_atom_site_label_2
_geom_bond_distance
_geom_bond_site_symmetry_2
Ca0 F2 2.160565 1_555
Ca0 F6 2.239258 1_555
Ca0 O6 2.268401 1_545
Ca0 F5 2.278985 1_555
Ca0 O1 2.540390 1_545
Ca0 O0 2.566215 1_545
Ca0 O6 2.632009 1_555
Mn0 O2 1.935415 1_655
Mn0 O5 1.989109 1_555
Mn0 O7 1.998668 1_566
Mn1 O3 1.958875 1_555
Mn1 O7 1.976361 1_455
Mn1 O0 2.079868 1_545
Mn2 O6 2.022246 1_455
Mn2 O1 2.041602 1_555
Mn2 O0 2.073761 1_555
Mn3 O4 1.987099 1_555
Mn3 O2 2.062225 1_545
Mn3 O1 2.147801 1_545
Mn4 O4 1.905296 1_555
Mn4 O1 1.907465 1_555
Mn4 O6 2.147088 1_555
Mn5 O5 1.930077 1_554
Mn5 O3 1.987803 1_555
Mn5 O7 1.993027 1_555
Mn6 O3 1.914230 1_555
Mn6 O0 1.928373 1_555
Mn6 O6 2.073764 1_555
Mn7 O5 1.968596 1_555
Mn7 O2 1.971630 1_555
Mn7 O4 1.976425 1_555
F0 Mn5 2.105051 1_555
F0 Mn1 2.196404 1_565
F0 Mn0 2.212911 1_454
F1 Mn0 2.046996 1_445
F1 Mn5 2.144858 1_556
F1 Mn7 2.166587 1_555
F2 Mn2 2.018222 1_555
F2 Mn4 2.657749 1_555
F3 Mn1 2.040529 1_665
F3 Mn6 2.070149 1_555
F3 Mn5 2.284060 1_555
F4 Mn3 2.073873 1_665
F4 Mn4 2.075998 1_555
F4 Mn7 2.247935 1_555
F5 Mn6 2.031857 1_555
F5 Mn1 2.288292 1_655
F6 Mn4 2.003589 1_555
F6 Mn3 2.303777 1_655
F7 Mn7 2.109014 1_555
F7 Mn3 2.201218 1_655
F7 Mn0 2.264973 1_545
