# generated using pymatgen
data_YbGd(PO4)2
_symmetry_space_group_name_H-M   'P 1'
_cell_length_a   5.71574127
_cell_length_b   5.71574127
_cell_length_c   5.71574127
_cell_angle_alpha   106.06988144
_cell_angle_beta   106.06988144
_cell_angle_gamma   116.51172043
_symmetry_Int_Tables_number   1
_chemical_formula_structural   YbGd(PO4)2
_chemical_formula_sum   'Yb1 Gd1 P2 O8'
_cell_volume   142.09896020
_cell_formula_units_Z   1
loop_
 _symmetry_equiv_pos_site_id
 _symmetry_equiv_pos_as_xyz
  1  'x, y, z'
loop_
 _atom_site_type_symbol
 _atom_site_label
 _atom_site_symmetry_multiplicity
 _atom_site_fract_x
 _atom_site_fract_y
 _atom_site_fract_z
 _atom_site_occupancy
  Yb  Yb0  1  0.25000000  0.75000000  0.50000000  1
  Gd  Gd0  1  0.00000000  0.00000000  0.00000000  1
  P  P0  1  0.75000000  0.25000000  0.50000000  1
  P  P1  1  0.50000000  0.50000000  0.00000000  1
  O  O0  1  0.91214829  0.58464678  0.67249849  1
  O  O1  1  0.47889936  0.65643488  0.82246448  1
  O  O2  1  0.83397040  0.65643488  0.17753552  1
  O  O3  1  0.91214829  0.23964979  0.32750151  1
  O  O4  1  0.34356512  0.16602960  0.82246448  1
  O  O5  1  0.76035021  0.08785171  0.67249849  1
  O  O6  1  0.41535322  0.08785171  0.32750151  1
  O  O7  1  0.34356512  0.52110064  0.17753552  1
loop_
_geom_bond_atom_site_label_1
_geom_bond_atom_site_label_2
_geom_bond_distance
_geom_bond_site_symmetry_2
Gd0 O6 2.312442 1_555
Gd0 O0 2.312442 1_444
Gd0 O3 2.312442 1_455
Gd0 O5 2.312442 1_454
Gd0 O4 2.399817 1_554
Gd0 O2 2.399817 1_445
Gd0 O7 2.399817 1_555
Gd0 O1 2.399817 1_444
O0 P0 1.535288 1_555
O0 Yb0 2.352654 1_655
O1 P1 1.540967 1_556
O1 Yb0 2.286959 1_555
O2 P1 1.540967 1_555
O2 Yb0 2.286959 1_655
O3 P0 1.535288 1_555
O3 Yb0 2.352654 1_655
O4 P1 1.540967 1_556
O4 Yb0 2.286959 1_545
O5 P0 1.535288 1_555
O5 Yb0 2.352654 1_545
O6 P0 1.535288 1_555
O6 Yb0 2.352654 1_545
O7 P1 1.540967 1_555
O7 Yb0 2.286959 1_555
