# generated using pymatgen
data_Ho(MnAl2)4
_symmetry_space_group_name_H-M   'P 1'
_cell_length_a   5.20070281
_cell_length_b   6.74689493
_cell_length_c   6.74689493
_cell_angle_alpha   81.45741659
_cell_angle_beta   67.33051753
_cell_angle_gamma   67.33051753
_symmetry_Int_Tables_number   1
_chemical_formula_structural   Ho(MnAl2)4
_chemical_formula_sum   'Ho1 Mn4 Al8'
_cell_volume   201.57279783
_cell_formula_units_Z   1
loop_
 _symmetry_equiv_pos_site_id
 _symmetry_equiv_pos_as_xyz
  1  'x, y, z'
loop_
 _atom_site_type_symbol
 _atom_site_label
 _atom_site_symmetry_multiplicity
 _atom_site_fract_x
 _atom_site_fract_y
 _atom_site_fract_z
 _atom_site_occupancy
  Ho  Ho0  1  -0.00000000  0.00000000  0.00000000  1
  Mn  Mn0  1  0.50000000  0.50000000  0.00000000  1
  Mn  Mn1  1  -0.00000000  0.50000000  0.00000000  1
  Mn  Mn2  1  -0.00000000  0.00000000  0.50000000  1
  Mn  Mn3  1  0.50000000  0.00000000  0.50000000  1
  Al  Al0  1  -0.00000000  0.65852204  0.34147796  1
  Al  Al1  1  0.00000000  0.34147796  0.65852204  1
  Al  Al2  1  0.65852204  0.34147796  0.34147796  1
  Al  Al3  1  0.34147796  0.65852204  0.65852204  1
  Al  Al4  1  0.50000000  0.22540481  0.77459519  1
  Al  Al5  1  0.50000000  0.77459519  0.22540481  1
  Al  Al6  1  0.72540481  0.77459519  0.77459519  1
  Al  Al7  1  0.27459519  0.22540481  0.22540481  1
loop_
_geom_bond_atom_site_label_1
_geom_bond_atom_site_label_2
_geom_bond_distance
_geom_bond_site_symmetry_2
Ho0 Mn3 3.373447 1_554
Ho0 Mn3 3.373447 1_455
Ho0 Mn0 3.373447 1_545
Ho0 Mn0 3.373447 1_455
Ho0 Mn2 3.373447 1_554
Ho0 Mn1 3.373447 1_555
Ho0 Mn2 3.373447 1_555
Ho0 Mn1 3.373447 1_545
Mn0 Mn1 2.600351 1_555
Mn0 Mn1 2.600351 1_655
Mn2 Mn3 2.600351 1_455
Mn2 Mn3 2.600351 1_555
Al0 Mn3 2.680296 1_465
Al0 Mn0 2.680296 1_555
Al0 Mn2 2.680296 1_565
Al0 Mn1 2.680296 1_555
Al0 Al1 2.791384 1_555
Al0 Al6 2.791590 1_455
Al0 Al7 2.791590 1_555
Al0 Al5 2.793961 1_555
Al0 Al5 2.793961 1_455
Al0 Ho0 3.006510 1_565
Al1 Mn0 2.680296 1_456
Al1 Mn3 2.680296 1_555
Al1 Mn1 2.680296 1_556
Al1 Mn2 2.680296 1_555
Al1 Al6 2.791590 1_455
Al1 Al7 2.791590 1_555
Al1 Al4 2.793961 1_455
Al1 Al4 2.793961 1_555
Al1 Ho0 3.006510 1_556
Al2 Mn1 2.680296 1_655
Al2 Mn2 2.680296 1_655
Al2 Mn0 2.680296 1_555
Al2 Mn3 2.680296 1_555
Al2 Al3 2.791384 1_555
Al2 Al4 2.791590 1_555
Al2 Al5 2.791590 1_555
Al2 Al7 2.793961 1_655
Al2 Al7 2.793961 1_555
Al2 Ho0 3.006510 1_655
Al3 Mn1 2.680296 1_556
Al3 Mn2 2.680296 1_565
Al3 Mn0 2.680296 1_556
Al3 Mn3 2.680296 1_565
Al3 Al4 2.791590 1_555
Al3 Al5 2.791590 1_555
Al3 Al6 2.793961 1_455
Al3 Al6 2.793961 1_555
Al3 Ho0 3.006510 1_566
Al4 Mn2 2.565579 1_655
Al4 Mn1 2.565579 1_556
Al4 Mn3 2.565579 1_555
Al4 Mn0 2.565579 1_556
Al4 Al6 2.806584 1_545
Al4 Al7 2.806584 1_556
Al4 Ho0 3.271129 1_556
Al4 Ho0 3.271129 1_656
Al5 Mn1 2.565579 1_655
Al5 Mn2 2.565579 1_565
Al5 Mn0 2.565579 1_555
Al5 Mn3 2.565579 1_565
Al5 Al6 2.806584 1_554
Al5 Al7 2.806584 1_565
Al5 Ho0 3.271129 1_565
Al5 Ho0 3.271129 1_665
Al6 Mn2 2.565579 1_665
Al6 Mn1 2.565579 1_656
Al6 Mn3 2.565579 1_565
Al6 Mn0 2.565579 1_556
Al6 Ho0 3.271129 1_566
Al6 Ho0 3.271129 1_666
Al7 Mn1 2.565579 1_555
Al7 Mn2 2.565579 1_555
Al7 Mn3 2.565579 1_555
Al7 Mn0 2.565579 1_555
Al7 Ho0 3.271129 1_655
Al7 Ho0 3.271129 1_555
