# generated using pymatgen
data_Cd2AgPt
_symmetry_space_group_name_H-M   'P 1'
_cell_length_a   4.66366327
_cell_length_b   4.66366327
_cell_length_c   4.66366327
_cell_angle_alpha   60.00000000
_cell_angle_beta   60.00000000
_cell_angle_gamma   60.00000000
_symmetry_Int_Tables_number   1
_chemical_formula_structural   Cd2AgPt
_chemical_formula_sum   'Cd2 Ag1 Pt1'
_cell_volume   71.72433949
_cell_formula_units_Z   1
loop_
 _symmetry_equiv_pos_site_id
 _symmetry_equiv_pos_as_xyz
  1  'x, y, z'
loop_
 _atom_site_type_symbol
 _atom_site_label
 _atom_site_symmetry_multiplicity
 _atom_site_fract_x
 _atom_site_fract_y
 _atom_site_fract_z
 _atom_site_occupancy
  Cd  Cd0  1  0.75000000  0.75000000  0.75000000  1
  Cd  Cd1  1  0.25000000  0.25000000  0.25000000  1
  Ag  Ag0  1  0.50000000  0.50000000  0.50000000  1
  Pt  Pt0  1  0.00000000  -0.00000000  0.00000000  1
loop_
_geom_bond_atom_site_label_1
_geom_bond_atom_site_label_2
_geom_bond_distance
_geom_bond_site_symmetry_2
Cd0 Pt0 2.855899 1_666
Cd0 Pt0 2.855899 1_665
Cd0 Pt0 2.855899 1_566
Cd0 Pt0 2.855899 1_656
Cd1 Pt0 2.855899 1_565
Cd1 Pt0 2.855899 1_655
Cd1 Pt0 2.855899 1_555
Cd1 Pt0 2.855899 1_556
Ag0 Cd1 2.855899 1_565
Ag0 Cd1 2.855899 1_655
Ag0 Cd0 2.855899 1_455
Ag0 Cd0 2.855899 1_555
Ag0 Cd0 2.855899 1_554
Ag0 Cd1 2.855899 1_555
Ag0 Cd0 2.855899 1_545
Ag0 Cd1 2.855899 1_556
