# generated using pymatgen
data_LuVO4
_symmetry_space_group_name_H-M   'P 1'
_cell_length_a   4.98111597
_cell_length_b   5.05946090
_cell_length_c   6.54803407
_cell_angle_alpha   112.34041318
_cell_angle_beta   111.96427551
_cell_angle_gamma   90.93786428
_symmetry_Int_Tables_number   1
_chemical_formula_structural   LuVO4
_chemical_formula_sum   'Lu2 V2 O8'
_cell_volume   139.11834518
_cell_formula_units_Z   2
loop_
 _symmetry_equiv_pos_site_id
 _symmetry_equiv_pos_as_xyz
  1  'x, y, z'
loop_
 _atom_site_type_symbol
 _atom_site_label
 _atom_site_symmetry_multiplicity
 _atom_site_fract_x
 _atom_site_fract_y
 _atom_site_fract_z
 _atom_site_occupancy
  Lu  Lu0  1  0.62416600  0.87416600  0.74833300  1
  Lu  Lu1  1  0.37583400  0.12583400  0.25166700  1
  V  V0  1  0.13008100  0.38008100  0.76016200  1
  V  V1  1  0.86991900  0.61991900  0.23983800  1
  O  O0  1  0.21353800  0.85319700  0.41067000  1
  O  O1  1  0.30286900  0.44252800  0.58933000  1
  O  O2  1  0.94925100  0.28171400  0.08441600  1
  O  O3  1  0.78646200  0.14680300  0.58933000  1
  O  O4  1  0.63516500  0.80270200  0.08441600  1
  O  O5  1  0.05074900  0.71828600  0.91558400  1
  O  O6  1  0.36483500  0.19729800  0.91558400  1
  O  O7  1  0.69713100  0.55747200  0.41067000  1
loop_
_geom_bond_atom_site_label_1
_geom_bond_atom_site_label_2
_geom_bond_distance
_geom_bond_site_symmetry_2
Lu0 O6 2.303715 1_565
Lu0 O5 2.303716 1_655
Lu0 O1 2.307627 1_555
Lu0 O3 2.307640 1_565
Lu0 O4 2.343523 1_556
Lu0 O2 2.343527 1_566
Lu0 O7 2.348416 1_555
Lu0 O0 2.348416 1_555
Lu1 O4 2.303715 1_545
Lu1 O2 2.303716 1_455
Lu1 O7 2.307627 1_555
Lu1 O0 2.307640 1_545
Lu1 O6 2.343523 1_554
Lu1 O5 2.343527 1_544
Lu1 O1 2.348416 1_555
Lu1 O3 2.348416 1_555
O0 V1 1.752668 1_455
O1 V0 1.752674 1_555
O2 V1 1.766061 1_555
O3 V0 1.752668 1_655
O4 V1 1.766061 1_555
O5 V0 1.766061 1_555
O6 V0 1.766061 1_555
O7 V1 1.752674 1_555
