# generated using pymatgen
data_Ca3(CoO3)2
_symmetry_space_group_name_H-M   'P 1'
_cell_length_a   6.26854195
_cell_length_b   6.26854195
_cell_length_c   6.26854159
_cell_angle_alpha   92.31852727
_cell_angle_beta   92.31852727
_cell_angle_gamma   92.31853643
_symmetry_Int_Tables_number   1
_chemical_formula_structural   Ca3(CoO3)2
_chemical_formula_sum   'Ca6 Co4 O12'
_cell_volume   245.69816379
_cell_formula_units_Z   2
loop_
 _symmetry_equiv_pos_site_id
 _symmetry_equiv_pos_as_xyz
  1  'x, y, z'
loop_
 _atom_site_type_symbol
 _atom_site_label
 _atom_site_symmetry_multiplicity
 _atom_site_fract_x
 _atom_site_fract_y
 _atom_site_fract_z
 _atom_site_occupancy
  Ca  Ca0  1  0.88123856  0.61876144  0.25000000  1
  Ca  Ca1  1  0.61876144  0.25000000  0.88123856  1
  Ca  Ca2  1  0.25000000  0.88123856  0.61876144  1
  Ca  Ca3  1  0.11876144  0.38123856  0.75000000  1
  Ca  Ca4  1  0.75000000  0.11876144  0.38123856  1
  Ca  Ca5  1  0.38123856  0.75000000  0.11876144  1
  Co  Co0  1  0.00000000  -0.00000000  -0.00000000  1
  Co  Co1  1  0.50000000  0.50000000  0.50000000  1
  Co  Co2  1  0.25000000  0.25000000  0.25000000  1
  Co  Co3  1  0.75000000  0.75000000  0.75000000  1
  O  O0  1  0.59328785  0.78899049  0.46200901  1
  O  O1  1  0.46200901  0.59328785  0.78899049  1
  O  O2  1  0.78899049  0.46200901  0.59328785  1
  O  O3  1  0.90671215  0.03799099  0.71100951  1
  O  O4  1  0.71100951  0.90671215  0.03799099  1
  O  O5  1  0.03799099  0.71100951  0.90671215  1
  O  O6  1  0.40671215  0.21100951  0.53799099  1
  O  O7  1  0.53799099  0.40671215  0.21100951  1
  O  O8  1  0.21100951  0.53799099  0.40671215  1
  O  O9  1  0.09328785  0.96200901  0.28899049  1
  O  O10  1  0.96200901  0.28899049  0.09328785  1
  O  O11  1  0.28899049  0.09328785  0.96200901  1
loop_
_geom_bond_atom_site_label_1
_geom_bond_atom_site_label_2
_geom_bond_distance
_geom_bond_site_symmetry_2
Ca0 O10 2.335647 1_555
Ca0 O8 2.335647 1_655
Ca0 O7 2.481133 1_555
Ca0 O9 2.481133 1_655
Ca0 O2 2.481216 1_555
Ca0 O5 2.481216 1_654
Ca0 O4 2.529469 1_555
Ca0 O0 2.529469 1_555
Ca1 O11 2.335646 1_555
Ca1 O7 2.335647 1_556
Ca1 O6 2.481133 1_555
Ca1 O10 2.481133 1_556
Ca1 O4 2.481216 1_546
Ca1 O1 2.481216 1_555
Ca1 O2 2.529469 1_555
Ca1 O3 2.529469 1_555
Ca2 O6 2.335646 1_565
Ca2 O9 2.335647 1_555
Ca2 O11 2.481133 1_565
Ca2 O8 2.481133 1_555
Ca2 O0 2.481216 1_555
Ca2 O3 2.481216 1_465
Ca2 O5 2.529469 1_555
Ca2 O1 2.529469 1_555
Ca3 O5 2.335647 1_555
Ca3 O2 2.335647 1_455
Ca3 O3 2.481133 1_455
Ca3 O1 2.481133 1_555
Ca3 O8 2.481216 1_555
Ca3 O10 2.481216 1_456
Ca3 O6 2.529469 1_555
Ca3 O11 2.529469 1_555
Ca4 O0 2.335646 1_545
Ca4 O3 2.335647 1_555
Ca4 O4 2.481133 1_545
Ca4 O2 2.481133 1_555
Ca4 O6 2.481216 1_555
Ca4 O9 2.481216 1_645
Ca4 O10 2.529469 1_555
Ca4 O7 2.529469 1_555
Ca5 O4 2.335646 1_555
Ca5 O1 2.335647 1_554
Ca5 O0 2.481133 1_555
Ca5 O5 2.481133 1_554
Ca5 O11 2.481216 1_564
Ca5 O7 2.481216 1_555
Ca5 O8 2.529469 1_555
Ca5 O9 2.529469 1_555
Co0 O4 1.908102 1_445
Co0 O11 1.908102 1_554
Co0 O9 1.908102 1_545
Co0 O3 1.908102 1_454
Co0 O5 1.908102 1_544
Co0 O10 1.908102 1_455
Co1 O6 1.908102 1_555
Co1 O0 1.908102 1_555
Co1 O1 1.908102 1_555
Co1 O7 1.908102 1_555
Co1 O8 1.908102 1_555
Co1 O2 1.908102 1_555
Co2 O7 2.048280 1_555
Co2 O9 2.048280 1_545
Co2 O11 2.048280 1_554
Co2 O6 2.048280 1_555
Co2 O8 2.048280 1_555
Co2 O10 2.048280 1_455
Co3 O3 2.048280 1_565
Co3 O1 2.048280 1_555
Co3 O4 2.048280 1_556
Co3 O0 2.048280 1_555
Co3 O5 2.048280 1_655
Co3 O2 2.048280 1_555
