# generated using pymatgen
data_LiTiSiO4
_symmetry_space_group_name_H-M   'P 1'
_cell_length_a   5.73159000
_cell_length_b   5.73159000
_cell_length_c   8.16904800
_cell_angle_alpha   90.00000000
_cell_angle_beta   90.00000000
_cell_angle_gamma   90.00000000
_symmetry_Int_Tables_number   1
_chemical_formula_structural   LiTiSiO4
_chemical_formula_sum   'Li4 Ti4 Si4 O16'
_cell_volume   268.36240822
_cell_formula_units_Z   4
loop_
 _symmetry_equiv_pos_site_id
 _symmetry_equiv_pos_as_xyz
  1  'x, y, z'
loop_
 _atom_site_type_symbol
 _atom_site_label
 _atom_site_symmetry_multiplicity
 _atom_site_fract_x
 _atom_site_fract_y
 _atom_site_fract_z
 _atom_site_occupancy
  Li  Li0  1  0.00000000  0.22107800  0.00000000  1
  Li  Li1  1  0.00000000  0.77892200  0.50000000  1
  Li  Li2  1  0.22107800  0.00000000  0.25000000  1
  Li  Li3  1  0.77892200  0.00000000  0.75000000  1
  Ti  Ti0  1  0.24386600  0.50000000  0.25000000  1
  Ti  Ti1  1  0.50000000  0.24386600  0.00000000  1
  Ti  Ti2  1  0.50000000  0.75613400  0.50000000  1
  Ti  Ti3  1  0.75613400  0.50000000  0.75000000  1
  Si  Si0  1  0.24830400  0.24830400  0.62500000  1
  Si  Si1  1  0.24830400  0.75169600  0.87500000  1
  Si  Si2  1  0.75169600  0.24830400  0.37500000  1
  Si  Si3  1  0.75169600  0.75169600  0.12500000  1
  O  O0  1  0.98928600  0.25790900  0.26090400  1
  O  O1  1  0.98928600  0.74209100  0.23909600  1
  O  O2  1  0.25790900  0.98928600  0.98909600  1
  O  O3  1  0.25790900  0.01071400  0.51090400  1
  O  O4  1  0.25623800  0.51341300  0.99448900  1
  O  O5  1  0.25623800  0.48658700  0.50551100  1
  O  O6  1  0.51341300  0.25623800  0.25551100  1
  O  O7  1  0.51341300  0.74376200  0.24448900  1
  O  O8  1  0.48658700  0.25623800  0.74448900  1
  O  O9  1  0.48658700  0.74376200  0.75551100  1
  O  O10  1  0.74376200  0.48658700  0.49448900  1
  O  O11  1  0.74376200  0.51341300  0.00551100  1
  O  O12  1  0.74209100  0.01071400  0.48909600  1
  O  O13  1  0.74209100  0.98928600  0.01090400  1
  O  O14  1  0.01071400  0.25790900  0.73909600  1
  O  O15  1  0.01071400  0.74209100  0.76090400  1
loop_
_geom_bond_atom_site_label_1
_geom_bond_atom_site_label_2
_geom_bond_distance
_geom_bond_site_symmetry_2
Li0 O13 1.989498 1_445
Li0 O2 1.989498 1_544
Li0 O0 2.142646 1_455
Li0 O14 2.142646 1_554
Li0 O4 2.228545 1_554
Li0 O11 2.228545 1_455
Li1 O3 1.989498 1_565
Li1 O12 1.989498 1_465
Li1 O15 2.142646 1_555
Li1 O1 2.142646 1_455
Li1 O5 2.228545 1_555
Li1 O10 2.228545 1_455
Li2 O0 1.989498 1_455
Li2 O1 1.989498 1_445
Li2 O2 2.142646 1_544
Li2 O3 2.142646 1_555
Li2 O6 2.228545 1_555
Li2 O7 2.228545 1_545
Li3 O15 1.989498 1_645
Li3 O14 1.989498 1_655
Li3 O13 2.142646 1_546
Li3 O12 2.142646 1_555
Li3 O8 2.228545 1_555
Li3 O9 2.228545 1_545
O0 Si2 1.651112 1_555
O0 Ti0 2.015537 1_655
O1 Si3 1.651112 1_555
O1 Ti0 2.015537 1_655
O2 Si1 1.651112 1_555
O2 Ti1 2.015537 1_566
O3 Si0 1.651112 1_555
O3 Ti2 2.015537 1_545
O4 Si1 1.679318 1_555
O4 Ti1 2.083472 1_556
O4 Ti0 2.089900 1_556
O5 Si0 1.679318 1_555
O5 Ti2 2.083472 1_555
O5 Ti0 2.089900 1_555
O6 Si2 1.679318 1_555
O6 Ti0 2.083472 1_555
O6 Ti1 2.089900 1_555
O7 Si3 1.679318 1_555
O7 Ti0 2.083472 1_555
O7 Ti2 2.089900 1_555
O8 Si0 1.679318 1_555
O8 Ti3 2.083472 1_555
O8 Ti1 2.089900 1_556
O9 Si1 1.679318 1_555
O9 Ti3 2.083472 1_555
O9 Ti2 2.089900 1_555
O10 Si2 1.679318 1_555
O10 Ti2 2.083472 1_555
O10 Ti3 2.089900 1_555
O11 Si3 1.679318 1_555
O11 Ti1 2.083472 1_555
O11 Ti3 2.089900 1_554
O12 Si2 1.651112 1_555
O12 Ti2 2.015537 1_545
O13 Si3 1.651112 1_555
O13 Ti1 2.015537 1_565
O14 Si0 1.651112 1_555
O14 Ti3 2.015537 1_455
O15 Si1 1.651112 1_555
O15 Ti3 2.015537 1_455
