# generated using pymatgen
data_RbMg14SbO16
_symmetry_space_group_name_H-M   'P 1'
_cell_length_a   8.75859605
_cell_length_b   8.89165370
_cell_length_c   4.52398517
_cell_angle_alpha   90.00000000
_cell_angle_beta   90.00000000
_cell_angle_gamma   90.00000000
_symmetry_Int_Tables_number   1
_chemical_formula_structural   RbMg14SbO16
_chemical_formula_sum   'Rb1 Mg14 Sb1 O16'
_cell_volume   352.32074012
_cell_formula_units_Z   1
loop_
 _symmetry_equiv_pos_site_id
 _symmetry_equiv_pos_as_xyz
  1  'x, y, z'
loop_
 _atom_site_type_symbol
 _atom_site_label
 _atom_site_symmetry_multiplicity
 _atom_site_fract_x
 _atom_site_fract_y
 _atom_site_fract_z
 _atom_site_occupancy
  Rb  Rb0  1  -0.00000000  0.00000000  0.00000000  1
  Mg  Mg0  1  0.50000000  0.00000000  0.00000000  1
  Mg  Mg1  1  0.50000000  0.50000000  0.00000000  1
  Mg  Mg2  1  -0.00000000  0.23868624  0.50000000  1
  Mg  Mg3  1  -0.00000000  0.76131376  0.50000000  1
  Mg  Mg4  1  0.50000000  0.24752718  0.50000000  1
  Mg  Mg5  1  0.50000000  0.75247282  0.50000000  1
  Mg  Mg6  1  0.25590823  0.00000000  0.50000000  1
  Mg  Mg7  1  0.26120222  0.50000000  0.50000000  1
  Mg  Mg8  1  0.74409177  0.00000000  0.50000000  1
  Mg  Mg9  1  0.73879778  0.50000000  0.50000000  1
  Mg  Mg10  1  0.26071496  0.24372429  0.00000000  1
  Mg  Mg11  1  0.26071496  0.75627571  0.00000000  1
  Mg  Mg12  1  0.73928504  0.24372429  0.00000000  1
  Mg  Mg13  1  0.73928504  0.75627571  -0.00000000  1
  Sb  Sb0  1  -0.00000000  0.50000000  0.00000000  1
  O  O0  1  0.28143899  0.00000000  0.00000000  1
  O  O1  1  0.26608681  0.50000000  0.00000000  1
  O  O2  1  0.71856101  0.00000000  0.00000000  1
  O  O3  1  0.73391319  0.50000000  0.00000000  1
  O  O4  1  0.24990797  0.25121614  0.50000000  1
  O  O5  1  0.24990797  0.74878386  0.50000000  1
  O  O6  1  0.75009203  0.25121614  0.50000000  1
  O  O7  1  0.75009203  0.74878386  0.50000000  1
  O  O8  1  -0.00000000  0.00000000  0.50000000  1
  O  O9  1  -0.00000000  0.50000000  0.50000000  1
  O  O10  1  0.50000000  0.00000000  0.50000000  1
  O  O11  1  0.50000000  0.50000000  0.50000000  1
  O  O12  1  -0.00000000  0.26510084  -0.00000000  1
  O  O13  1  -0.00000000  0.73489916  0.00000000  1
  O  O14  1  0.50000000  0.25589170  0.00000000  1
  O  O15  1  0.50000000  0.74410830  0.00000000  1
loop_
_geom_bond_atom_site_label_1
_geom_bond_atom_site_label_2
_geom_bond_distance
_geom_bond_site_symmetry_2
Mg0 O2 1.914288 1_555
Mg0 O0 1.914288 1_555
Mg0 O10 2.261993 1_555
Mg0 O10 2.261993 1_554
Mg0 O14 2.275300 1_555
Mg0 O15 2.275300 1_545
Mg1 O3 2.048751 1_555
Mg1 O1 2.048751 1_555
Mg1 O15 2.170526 1_555
Mg1 O14 2.170526 1_555
Mg1 O11 2.261993 1_554
Mg1 O11 2.261993 1_555
Mg2 O8 2.122315 1_555
Mg2 O4 2.191677 1_555
Mg2 O6 2.191677 1_455
Mg2 O12 2.274153 1_556
Mg2 O12 2.274153 1_555
Mg2 O9 2.323511 1_555
Mg3 O8 2.122315 1_565
Mg3 O5 2.191677 1_555
Mg3 O7 2.191677 1_455
Mg3 O13 2.274153 1_555
Mg3 O13 2.274153 1_556
Mg3 O9 2.323511 1_555
Mg4 O4 2.190701 1_555
Mg4 O6 2.190701 1_555
Mg4 O10 2.200926 1_555
Mg4 O11 2.244901 1_555
Mg4 O14 2.263215 1_556
Mg4 O14 2.263215 1_555
Mg5 O7 2.190701 1_555
Mg5 O5 2.190701 1_555
Mg5 O10 2.200926 1_565
Mg5 O11 2.244901 1_555
Mg5 O15 2.263215 1_556
Mg5 O15 2.263215 1_555
Mg6 O10 2.137901 1_555
Mg6 O4 2.234345 1_555
Mg6 O5 2.234345 1_545
Mg6 O8 2.241397 1_555
Mg6 O0 2.273019 1_555
Mg6 O0 2.273019 1_556
Mg7 O11 2.091533 1_555
Mg7 O5 2.214311 1_555
Mg7 O4 2.214311 1_555
Mg7 O1 2.262397 1_555
Mg7 O1 2.262397 1_556
Mg7 O9 2.287765 1_555
Mg8 O10 2.137901 1_555
Mg8 O6 2.234345 1_555
Mg8 O7 2.234345 1_545
Mg8 O8 2.241397 1_655
Mg8 O2 2.273019 1_555
Mg8 O2 2.273019 1_556
Mg9 O11 2.091533 1_555
Mg9 O7 2.214311 1_555
Mg9 O6 2.214311 1_555
Mg9 O3 2.262397 1_556
Mg9 O3 2.262397 1_555
Mg9 O9 2.287765 1_655
Mg10 O14 2.098592 1_555
Mg10 O0 2.174700 1_555
Mg10 O4 2.264952 1_554
Mg10 O4 2.264952 1_555
Mg10 O1 2.279201 1_555
Mg10 O12 2.291394 1_555
Mg11 O15 2.098592 1_555
Mg11 O0 2.174700 1_565
Mg11 O5 2.264952 1_554
Mg11 O5 2.264952 1_555
Mg11 O1 2.279201 1_555
Mg11 O13 2.291394 1_555
Mg12 O14 2.098592 1_555
Mg12 O2 2.174700 1_555
Mg12 O6 2.264952 1_555
Mg12 O6 2.264952 1_554
Mg12 O3 2.279201 1_555
Mg12 O12 2.291394 1_655
Mg13 O15 2.098592 1_555
Mg13 O2 2.174700 1_565
Mg13 O7 2.264952 1_555
Mg13 O7 2.264952 1_554
Mg13 O3 2.279201 1_555
Mg13 O13 2.291394 1_655
O0 Rb0 2.465010 1_555
O1 Sb0 2.330547 1_555
O2 Rb0 2.465010 1_655
O3 Sb0 2.330547 1_655
O8 Rb0 2.261993 1_555
O8 Rb0 2.261993 1_556
O9 Sb0 2.261993 1_555
O9 Sb0 2.261993 1_556
O12 Sb0 2.088642 1_555
O12 Rb0 2.357185 1_555
O13 Sb0 2.088642 1_555
O13 Rb0 2.357185 1_565
