# generated using pymatgen
data_ZnH10C2S3(N3O2)2
_symmetry_space_group_name_H-M   'P 1'
_cell_length_a   6.61248700
_cell_length_b   7.30655669
_cell_length_c   12.48171524
_cell_angle_alpha   91.56990587
_cell_angle_beta   93.53946683
_cell_angle_gamma   100.37611185
_symmetry_Int_Tables_number   1
_chemical_formula_structural   ZnH10C2S3(N3O2)2
_chemical_formula_sum   'Zn2 H20 C4 S6 N12 O8'
_cell_volume   591.59883534
_cell_formula_units_Z   2
loop_
 _symmetry_equiv_pos_site_id
 _symmetry_equiv_pos_as_xyz
  1  'x, y, z'
loop_
 _atom_site_type_symbol
 _atom_site_label
 _atom_site_symmetry_multiplicity
 _atom_site_fract_x
 _atom_site_fract_y
 _atom_site_fract_z
 _atom_site_occupancy
  Zn  Zn0  1  0.15769800  0.29122700  0.72561700  1
  Zn  Zn1  1  0.84230200  0.70877300  0.27438300  1
  H  H0  1  0.40498000  0.09804200  0.85207200  1
  H  H1  1  0.59502000  0.90195800  0.14792800  1
  H  H2  1  0.50454900  0.32607500  0.85336000  1
  H  H3  1  0.49545100  0.67392500  0.14664000  1
  H  H4  1  0.38417200  0.24280500  0.02456600  1
  H  H5  1  0.61582800  0.75719500  0.97543400  1
  H  H6  1  0.13171100  0.30236700  0.12724600  1
  H  H7  1  0.86828900  0.69763300  0.87275400  1
  H  H8  1  0.87154700  0.26030600  0.07627700  1
  H  H9  1  0.12845300  0.73969400  0.92372300  1
  H  H10  1  0.40457100  0.08542500  0.62538300  1
  H  H11  1  0.59542900  0.91457500  0.37461700  1
  H  H12  1  0.51748500  0.30997600  0.63385700  1
  H  H13  1  0.48251500  0.69002400  0.36614300  1
  H  H14  1  0.41217100  0.22067100  0.44766500  1
  H  H15  1  0.58782900  0.77932900  0.55233500  1
  H  H16  1  0.18807800  0.29162100  0.32144700  1
  H  H17  1  0.81192200  0.70837900  0.67855300  1
  H  H18  1  0.93491000  0.30183500  0.34857600  1
  H  H19  1  0.06509000  0.69816500  0.65142400  1
  C  C0  1  0.08501200  0.24954600  0.96484500  1
  C  C1  1  0.91498800  0.75045400  0.03515500  1
  C  C2  1  0.11873900  0.25446300  0.47808300  1
  C  C3  1  0.88126100  0.74553700  0.52191700  1
  S  S0  1  0.91204100  0.21535300  0.85546400  1
  S  S1  1  0.08795900  0.78464700  0.14453600  1
  S  S2  1  0.93383300  0.24906100  0.56810800  1
  S  S3  1  0.06616700  0.75093900  0.43189200  1
  S  S4  1  0.44499900  0.71047500  0.76598300  1
  S  S5  1  0.55500100  0.28952500  0.23401700  1
  N  N0  1  0.37080400  0.23023500  0.85721300  1
  N  N1  1  0.62919600  0.76976500  0.14278700  1
  N  N2  1  0.29003400  0.25786600  0.95678200  1
  N  N3  1  0.70996600  0.74213400  0.04321800  1
  N  N4  1  0.38140200  0.21989000  0.61469300  1
  N  N5  1  0.61859800  0.78011000  0.38530700  1
  N  N6  1  0.31776300  0.24569100  0.50747300  1
  N  N7  1  0.68223700  0.75430900  0.49252700  1
  N  N8  1  0.02416000  0.26861300  0.06370800  1
  N  N9  1  0.97584000  0.73138700  0.93629200  1
  N  N10  1  0.07247500  0.26597200  0.37352400  1
  N  N11  1  0.92752500  0.73402800  0.62647600  1
  O  O0  1  0.24557500  0.57683800  0.73654900  1
  O  O1  1  0.75442500  0.42316200  0.26345100  1
  O  O2  1  0.47746800  0.84772600  0.68025900  1
  O  O3  1  0.52253200  0.15227400  0.31974100  1
  O  O4  1  0.42612600  0.80479100  0.87167200  1
  O  O5  1  0.57387400  0.19520900  0.12832800  1
  O  O6  1  0.61788500  0.60348200  0.77437300  1
  O  O7  1  0.38211500  0.39651800  0.22562700  1
loop_
_geom_bond_atom_site_label_1
_geom_bond_atom_site_label_2
_geom_bond_distance
_geom_bond_site_symmetry_2
H0 N0 1.032049 1_555
H1 N1 1.032049 1_555
H2 N0 1.028995 1_555
H3 N1 1.028995 1_555
H4 N2 1.039310 1_554
H5 N3 1.039310 1_556
H6 N8 1.025677 1_555
H7 N9 1.025677 1_555
H8 N8 1.022100 1_655
H9 N9 1.022100 1_455
H10 N4 1.032189 1_555
H11 N5 1.032189 1_555
H12 N4 1.025492 1_555
H13 N5 1.025492 1_555
H14 N6 1.035171 1_555
H15 N7 1.035171 1_555
H16 N10 1.028785 1_555
H17 N11 1.028785 1_555
H18 N10 1.023935 1_655
H19 N11 1.023935 1_455
C0 N8 1.332707 1_556
C0 N2 1.356191 1_555
C0 S0 1.708840 1_455
C1 N9 1.332707 1_554
C1 N3 1.356191 1_555
C1 S1 1.708840 1_655
C2 N10 1.330363 1_555
C2 N6 1.357465 1_555
C2 S2 1.706996 1_455
C3 N11 1.330363 1_555
C3 N7 1.357465 1_555
C3 S3 1.706996 1_655
S0 Zn0 2.371211 1_655
S1 Zn1 2.371211 1_455
S2 Zn0 2.365270 1_655
S3 Zn1 2.365270 1_455
N0 N2 1.406269 1_555
N0 Zn0 2.205178 1_555
N1 N3 1.406269 1_555
N1 Zn1 2.205178 1_555
N4 N6 1.405882 1_555
N4 Zn0 2.206309 1_555
N5 N7 1.405882 1_555
N5 Zn1 2.206309 1_555
O0 S4 1.511301 1_555
O0 Zn0 2.061298 1_555
O1 S5 1.511301 1_555
O1 Zn1 2.061298 1_555
O2 S4 1.485339 1_555
O3 S5 1.485339 1_555
O4 S4 1.494054 1_555
O5 S5 1.494054 1_555
O6 S4 1.496881 1_555
O7 S5 1.496881 1_555
