# generated using pymatgen
data_NdFe3(BO3)4
_symmetry_space_group_name_H-M   'P 1'
_cell_length_a   6.15805061
_cell_length_b   6.15805061
_cell_length_c   6.15805056
_cell_angle_alpha   103.75290635
_cell_angle_beta   103.75290635
_cell_angle_gamma   103.75291528
_symmetry_Int_Tables_number   1
_chemical_formula_structural   NdFe3(BO3)4
_chemical_formula_sum   'Nd1 Fe3 B4 O12'
_cell_volume   209.33531181
_cell_formula_units_Z   1
loop_
 _symmetry_equiv_pos_site_id
 _symmetry_equiv_pos_as_xyz
  1  'x, y, z'
loop_
 _atom_site_type_symbol
 _atom_site_label
 _atom_site_symmetry_multiplicity
 _atom_site_fract_x
 _atom_site_fract_y
 _atom_site_fract_z
 _atom_site_occupancy
  Nd  Nd0  1  0.00000000  0.00000000  0.00000000  1
  Fe  Fe0  1  0.00000000  0.44926000  0.55074000  1
  Fe  Fe1  1  0.55074000  0.00000000  0.44926000  1
  Fe  Fe2  1  0.44926000  0.55074000  0.00000000  1
  B  B0  1  0.50000000  0.05343900  0.94656100  1
  B  B1  1  0.94656100  0.50000000  0.05343900  1
  B  B2  1  0.05343900  0.94656100  0.50000000  1
  B  B3  1  0.50000000  0.50000000  0.50000000  1
  O  O0  1  0.37362700  0.21004600  0.97081900  1
  O  O1  1  0.02918100  0.78995400  0.62637300  1
  O  O2  1  0.78995400  0.62637300  0.02918100  1
  O  O3  1  0.62637300  0.02918100  0.78995400  1
  O  O4  1  0.64340600  0.35659400  0.50000000  1
  O  O5  1  0.35659400  0.50000000  0.64340600  1
  O  O6  1  0.50000000  0.64340600  0.35659400  1
  O  O7  1  0.90999000  0.09001000  0.50000000  1
  O  O8  1  0.09001000  0.50000000  0.90999000  1
  O  O9  1  0.50000000  0.90999000  0.09001000  1
  O  O10  1  0.21004600  0.97081900  0.37362700  1
  O  O11  1  0.97081900  0.37362700  0.21004600  1
loop_
_geom_bond_atom_site_label_1
_geom_bond_atom_site_label_2
_geom_bond_distance
_geom_bond_site_symmetry_2
Nd0 O0 2.427177 1_554
Nd0 O2 2.427177 1_445
Nd0 O10 2.427178 1_545
Nd0 O1 2.427178 1_544
Nd0 O3 2.427178 1_454
Nd0 O11 2.427178 1_455
Fe0 O1 1.991785 1_555
Fe0 O11 1.991785 1_455
Fe0 O4 2.058768 1_455
Fe0 O5 2.058768 1_555
Fe0 O7 2.074847 1_455
Fe0 O8 2.074847 1_555
Fe1 O10 1.991785 1_545
Fe1 O3 1.991785 1_555
Fe1 O4 2.058768 1_555
Fe1 O6 2.058768 1_545
Fe1 O7 2.074847 1_555
Fe1 O9 2.074847 1_545
Fe2 O0 1.991785 1_554
Fe2 O2 1.991785 1_555
Fe2 O5 2.058768 1_554
Fe2 O6 2.058768 1_555
Fe2 O8 2.074847 1_554
Fe2 O9 2.074847 1_555
B0 O3 1.378985 1_555
B0 O0 1.378986 1_555
B0 O9 1.389855 1_546
B1 O11 1.378985 1_555
B1 O2 1.378986 1_555
B1 O8 1.389855 1_654
B2 O1 1.378985 1_555
B2 O10 1.378985 1_555
B2 O7 1.389856 1_465
B3 O5 1.389439 1_555
B3 O6 1.389439 1_555
B3 O4 1.389439 1_555
