# generated using pymatgen
data_SrCa3(SnO3)4
_symmetry_space_group_name_H-M   'P 1'
_cell_length_a   8.05072700
_cell_length_b   5.63828600
_cell_length_c   5.76841261
_cell_angle_alpha   89.97362874
_cell_angle_beta   90.00000000
_cell_angle_gamma   90.00000000
_symmetry_Int_Tables_number   1
_chemical_formula_structural   SrCa3(SnO3)4
_chemical_formula_sum   'Sr1 Ca3 Sn4 O12'
_cell_volume   261.84149572
_cell_formula_units_Z   1
loop_
 _symmetry_equiv_pos_site_id
 _symmetry_equiv_pos_as_xyz
  1  'x, y, z'
loop_
 _atom_site_type_symbol
 _atom_site_label
 _atom_site_symmetry_multiplicity
 _atom_site_fract_x
 _atom_site_fract_y
 _atom_site_fract_z
 _atom_site_occupancy
  Sr  Sr0  1  0.00000000  0.48907600  0.45775400  1
  Ca  Ca0  1  0.00000000  0.01353500  0.94965700  1
  Ca  Ca1  1  0.50000000  0.51055800  0.55221600  1
  Ca  Ca2  1  0.50000000  0.99060800  0.04744900  1
  Sn  Sn0  1  0.25215300  0.49957000  0.00125700  1
  Sn  Sn1  1  0.74727200  0.00032500  0.50012400  1
  Sn  Sn2  1  0.74784700  0.49957000  0.00125700  1
  Sn  Sn3  1  0.25272800  0.00032500  0.50012400  1
  O  O0  1  0.00000000  0.60258400  0.02197500  1
  O  O1  1  0.00000000  0.91879000  0.54003900  1
  O  O2  1  0.50000000  0.39786800  0.96270900  1
  O  O3  1  0.50000000  0.10412300  0.45772700  1
  O  O4  1  0.19930100  0.19533300  0.19880000  1
  O  O5  1  0.79437700  0.29491300  0.70847600  1
  O  O6  1  0.69464000  0.79860500  0.79683600  1
  O  O7  1  0.30467800  0.69768300  0.29974600  1
  O  O8  1  0.30536000  0.79860500  0.79683600  1
  O  O9  1  0.69532200  0.69768300  0.29974600  1
  O  O10  1  0.80069900  0.19533300  0.19880000  1
  O  O11  1  0.20562300  0.29491300  0.70847600  1
loop_
_geom_bond_atom_site_label_1
_geom_bond_atom_site_label_2
_geom_bond_distance
_geom_bond_site_symmetry_2
Ca0 O0 2.354123 1_546
Ca0 O4 2.385780 1_556
Ca0 O10 2.385780 1_456
Ca0 O1 2.422720 1_545
Ca0 O5 2.681574 1_455
Ca0 O11 2.681574 1_555
Ca0 O6 2.879274 1_445
Ca0 O8 2.879274 1_545
Ca1 O3 2.355769 1_555
Ca1 O9 2.388600 1_555
Ca1 O7 2.388600 1_555
Ca1 O2 2.451375 1_555
Ca1 O8 2.662023 1_555
Ca1 O6 2.662023 1_555
Ca1 O5 2.811842 1_555
Ca1 O11 2.811842 1_555
Ca2 O2 2.347480 1_564
Ca2 O6 2.391388 1_554
Ca2 O8 2.391388 1_554
Ca2 O3 2.451954 1_565
Ca2 O7 2.704868 1_555
Ca2 O9 2.704868 1_555
Ca2 O10 2.820647 1_565
Ca2 O4 2.820647 1_565
O0 Sn0 2.114867 1_555
O0 Sn2 2.114867 1_455
O0 Sr0 2.593658 1_555
O1 Sn3 2.098579 1_565
O1 Sn1 2.098579 1_465
O1 Sr0 2.469121 1_555
O2 Sn2 2.088012 1_556
O2 Sn0 2.088012 1_556
O3 Sn1 2.089295 1_555
O3 Sn3 2.089295 1_555
O4 Sn3 2.100804 1_555
O4 Sn0 2.102437 1_555
O4 Sr0 2.747922 1_555
O5 Sn2 2.079894 1_556
O5 Sn1 2.085413 1_555
O5 Sr0 2.455423 1_655
O6 Sn1 2.097798 1_565
O6 Sn2 2.101162 1_556
O7 Sn0 2.095933 1_555
O7 Sn3 2.103449 1_565
O7 Sr0 2.868762 1_555
O8 Sn3 2.097798 1_565
O8 Sn0 2.101162 1_556
O9 Sn2 2.095933 1_555
O9 Sn1 2.103449 1_565
O9 Sr0 2.868762 1_655
O10 Sn1 2.100804 1_555
O10 Sn2 2.102437 1_555
O10 Sr0 2.747922 1_655
O11 Sn0 2.079894 1_556
O11 Sn3 2.085413 1_555
O11 Sr0 2.455423 1_555
