# generated using pymatgen
data_SrNdHf4O12
_symmetry_space_group_name_H-M   'P 1'
_cell_length_a   5.76800568
_cell_length_b   5.76800568
_cell_length_c   8.20208570
_cell_angle_alpha   90.00000000
_cell_angle_beta   90.00000000
_cell_angle_gamma   90.44059969
_symmetry_Int_Tables_number   1
_chemical_formula_structural   SrNdHf4O12
_chemical_formula_sum   'Sr1 Nd1 Hf4 O12'
_cell_volume   272.87441647
_cell_formula_units_Z   1
loop_
 _symmetry_equiv_pos_site_id
 _symmetry_equiv_pos_as_xyz
  1  'x, y, z'
loop_
 _atom_site_type_symbol
 _atom_site_label
 _atom_site_symmetry_multiplicity
 _atom_site_fract_x
 _atom_site_fract_y
 _atom_site_fract_z
 _atom_site_occupancy
  Sr  Sr0  1  0.97289142  0.02710858  0.00000000  1
  Nd  Nd0  1  0.53246385  0.46753615  0.50000000  1
  Hf  Hf0  1  0.48816098  0.98785872  0.25136167  1
  Hf  Hf1  1  0.48816098  0.98785872  0.74863833  1
  Hf  Hf2  1  0.01214128  0.51183902  0.74863833  1
  Hf  Hf3  1  0.01214128  0.51183902  0.25136167  1
  O  O0  1  0.21321373  0.21578357  0.24038768  1
  O  O1  1  0.78421643  0.78678627  0.24038768  1
  O  O2  1  0.78421643  0.78678627  0.75961232  1
  O  O3  1  0.21321373  0.21578357  0.75961232  1
  O  O4  1  0.30607434  0.69392566  0.30758931  1
  O  O5  1  0.72198478  0.27801522  0.23888713  1
  O  O6  1  0.72198478  0.27801522  0.76111287  1
  O  O7  1  0.30607434  0.69392566  0.69241069  1
  O  O8  1  0.45988887  0.97428809  0.00000000  1
  O  O9  1  0.50916334  0.06400247  0.50000000  1
  O  O10  1  0.02571191  0.54011113  0.00000000  1
  O  O11  1  0.93599753  0.49083666  0.50000000  1
loop_
_geom_bond_atom_site_label_1
_geom_bond_atom_site_label_2
_geom_bond_distance
_geom_bond_site_symmetry_2
Nd0 O9 2.330429 1_555
Nd0 O11 2.330429 1_555
Nd0 O7 2.434574 1_555
Nd0 O4 2.434574 1_555
Nd0 O5 2.644828 1_555
Nd0 O6 2.644828 1_555
Hf0 O4 2.040292 1_555
Hf0 O8 2.069563 1_555
Hf0 O0 2.069686 1_565
Hf0 O1 2.073580 1_555
Hf0 O9 2.089429 1_565
Hf0 O5 2.143771 1_565
Hf1 O7 2.040292 1_555
Hf1 O8 2.069563 1_556
Hf1 O3 2.069686 1_565
Hf1 O2 2.073580 1_555
Hf1 O9 2.089429 1_565
Hf1 O6 2.143771 1_565
Hf2 O7 2.040292 1_555
Hf2 O10 2.069563 1_556
Hf2 O2 2.069686 1_455
Hf2 O3 2.073580 1_555
Hf2 O11 2.089429 1_455
Hf2 O6 2.143771 1_455
Hf3 O4 2.040292 1_555
Hf3 O10 2.069563 1_555
Hf3 O1 2.069686 1_455
Hf3 O0 2.073580 1_555
Hf3 O11 2.089429 1_455
Hf3 O5 2.143771 1_455
O0 Sr0 2.640108 1_455
O1 Sr0 2.640108 1_565
O2 Sr0 2.640108 1_566
O3 Sr0 2.640108 1_456
O5 Sr0 2.839068 1_555
O6 Sr0 2.839068 1_556
O8 Sr0 2.827806 1_465
O8 Sr0 2.972314 1_565
O10 Sr0 2.827806 1_465
O10 Sr0 2.972314 1_455
