# generated using pymatgen
data_NaTi3P3O13
_symmetry_space_group_name_H-M   'P 1'
_cell_length_a   6.40972000
_cell_length_b   7.70377600
_cell_length_c   10.44403089
_cell_angle_alpha   80.64173793
_cell_angle_beta   90.00000000
_cell_angle_gamma   90.00000000
_symmetry_Int_Tables_number   1
_chemical_formula_structural   NaTi3P3O13
_chemical_formula_sum   'Na2 Ti6 P6 O26'
_cell_volume   508.85256176
_cell_formula_units_Z   2
loop_
 _symmetry_equiv_pos_site_id
 _symmetry_equiv_pos_as_xyz
  1  'x, y, z'
loop_
 _atom_site_type_symbol
 _atom_site_label
 _atom_site_symmetry_multiplicity
 _atom_site_fract_x
 _atom_site_fract_y
 _atom_site_fract_z
 _atom_site_occupancy
  Na  Na0  1  0.75000000  0.34522100  0.18457400  1
  Na  Na1  1  0.25000000  0.65477900  0.81542600  1
  Ti  Ti0  1  0.25000000  0.64303000  0.19548600  1
  Ti  Ti1  1  0.75000000  0.35697000  0.80451400  1
  Ti  Ti2  1  0.25000000  0.20850400  0.43928300  1
  Ti  Ti3  1  0.50000000  0.00000000  0.00000000  1
  Ti  Ti4  1  0.75000000  0.79149600  0.56071700  1
  Ti  Ti5  1  0.00000000  0.00000000  0.00000000  1
  P  P0  1  0.25000000  0.77829200  0.48638900  1
  P  P1  1  0.75000000  0.22170800  0.51361100  1
  P  P2  1  0.25000000  0.26064200  0.76322700  1
  P  P3  1  0.75000000  0.73935800  0.23677300  1
  P  P4  1  0.75000000  0.68860300  0.88298300  1
  P  P5  1  0.25000000  0.31139700  0.11701700  1
  O  O0  1  0.75000000  0.65048800  0.73941900  1
  O  O1  1  0.55655400  0.25335100  0.42518200  1
  O  O2  1  0.25000000  0.21206500  0.62596400  1
  O  O3  1  0.55145500  0.79157600  0.90745200  1
  O  O4  1  0.75000000  0.34024000  0.61728000  1
  O  O5  1  0.75000000  0.13555300  0.90153300  1
  O  O6  1  0.25000000  0.65976000  0.38272000  1
  O  O7  1  0.05145500  0.20842400  0.09254800  1
  O  O8  1  0.25000000  0.97629400  0.41638500  1
  O  O9  1  0.75000000  0.02370600  0.58361500  1
  O  O10  1  0.05857600  0.37138600  0.78754600  1
  O  O11  1  0.25000000  0.86444700  0.09846700  1
  O  O12  1  0.55857600  0.62861400  0.21245400  1
  O  O13  1  0.75000000  0.49660700  0.95638400  1
  O  O14  1  0.75000000  0.78793500  0.37403600  1
  O  O15  1  0.44854500  0.20842400  0.09254800  1
  O  O16  1  0.94344600  0.25335100  0.42518200  1
  O  O17  1  0.44344600  0.74664900  0.57481800  1
  O  O18  1  0.44142400  0.37138600  0.78754600  1
  O  O19  1  0.25000000  0.34951200  0.26058100  1
  O  O20  1  0.75000000  0.91363800  0.13372500  1
  O  O21  1  0.25000000  0.08636200  0.86627500  1
  O  O22  1  0.94142400  0.62861400  0.21245400  1
  O  O23  1  0.94854500  0.79157600  0.90745200  1
  O  O24  1  0.05655400  0.74664900  0.57481800  1
  O  O25  1  0.25000000  0.50339300  0.04361600  1
loop_
_geom_bond_atom_site_label_1
_geom_bond_atom_site_label_2
_geom_bond_distance
_geom_bond_site_symmetry_2
Na0 O7 2.469277 1_655
Na0 O15 2.469277 1_555
Na0 O13 2.477089 1_554
Na0 O22 2.561901 1_555
Na0 O12 2.561901 1_555
Na0 O16 2.788315 1_555
Na0 O1 2.788315 1_555
Na1 O23 2.469277 1_455
Na1 O3 2.469277 1_555
Na1 O25 2.477089 1_556
Na1 O18 2.561901 1_555
Na1 O10 2.561901 1_555
Na1 O17 2.788315 1_555
Na1 O24 2.788315 1_555
O0 P4 1.574026 1_555
O0 Ti4 2.001005 1_555
O0 Ti1 2.252835 1_555
O1 P1 1.541622 1_555
O1 Ti2 1.996356 1_555
O2 P2 1.539372 1_555
O2 Ti2 1.954350 1_555
O3 P4 1.542754 1_555
O3 Ti3 2.031228 1_566
O4 P1 1.525665 1_555
O4 Ti1 1.980522 1_555
O5 Ti1 1.836898 1_555
O5 Ti3 2.089646 1_556
O5 Ti5 2.089646 1_656
O6 P0 1.525665 1_555
O6 Ti0 1.980522 1_555
O7 P5 1.542754 1_555
O7 Ti5 2.031228 1_555
O8 P0 1.580692 1_555
O8 Ti2 1.842949 1_565
O9 P1 1.580692 1_555
O9 Ti4 1.842949 1_545
O10 P2 1.538930 1_555
O10 Ti1 1.987302 1_455
O11 Ti0 1.836898 1_555
O11 Ti3 2.089646 1_565
O11 Ti5 2.089646 1_565
O12 P3 1.538930 1_555
O12 Ti0 1.987302 1_555
O13 P4 1.551337 1_555
O13 Ti1 2.056191 1_555
O14 P3 1.539372 1_555
O14 Ti4 1.954350 1_555
O15 P5 1.542754 1_555
O15 Ti3 2.031228 1_555
O16 P1 1.541622 1_555
O16 Ti2 1.996356 1_655
O17 P0 1.541622 1_555
O17 Ti4 1.996356 1_555
O18 P2 1.538930 1_555
O18 Ti1 1.987302 1_555
O19 P5 1.574026 1_555
O19 Ti2 2.001005 1_555
O19 Ti0 2.252835 1_555
O20 P3 1.578281 1_555
O20 Ti5 2.158427 1_665
O20 Ti3 2.158427 1_565
O21 P2 1.578281 1_555
O21 Ti3 2.158427 1_556
O21 Ti5 2.158427 1_556
O22 P3 1.538930 1_555
O22 Ti0 1.987302 1_655
O23 P4 1.542754 1_555
O23 Ti5 2.031228 1_666
O24 P0 1.541622 1_555
O24 Ti4 1.996356 1_455
O25 P5 1.551337 1_555
O25 Ti0 2.056191 1_555
