# generated using pymatgen
data_LiVP2O7
_symmetry_space_group_name_H-M   'P 1'
_cell_length_a   7.62399413
_cell_length_b   10.02222160
_cell_length_c   7.52114228
_cell_angle_alpha   75.14639028
_cell_angle_beta   112.21426855
_cell_angle_gamma   104.52867231
_symmetry_Int_Tables_number   1
_chemical_formula_structural   LiVP2O7
_chemical_formula_sum   'Li4 V4 P8 O28'
_cell_volume   506.58484625
_cell_formula_units_Z   4
loop_
 _symmetry_equiv_pos_site_id
 _symmetry_equiv_pos_as_xyz
  1  'x, y, z'
loop_
 _atom_site_type_symbol
 _atom_site_label
 _atom_site_symmetry_multiplicity
 _atom_site_fract_x
 _atom_site_fract_y
 _atom_site_fract_z
 _atom_site_occupancy
  Li  Li0  1  0.05271900  0.73003600  0.12045700  1
  Li  Li1  1  0.55449600  0.22968700  0.62269100  1
  Li  Li2  1  0.94763400  0.27031200  0.87816600  1
  Li  Li3  1  0.44563400  0.77089600  0.37666000  1
  V  V0  1  0.69298100  0.50091500  0.18307000  1
  V  V1  1  0.30721000  0.49903800  0.81727300  1
  V  V2  1  0.19366300  0.00131400  0.68196900  1
  V  V3  1  0.80652800  0.99862000  0.31821700  1
  P  P0  1  0.28690700  0.47386400  0.23364600  1
  P  P1  1  0.78826100  0.97337700  0.73485200  1
  P  P2  1  0.21133800  0.02658900  0.26471700  1
  P  P3  1  0.71332400  0.52618700  0.76663800  1
  P  P4  1  0.96750500  0.69707100  0.52060400  1
  P  P5  1  0.46658800  0.19689300  0.02042700  1
  P  P6  1  0.53324600  0.80302200  0.97971900  1
  P  P7  1  0.03263600  0.30288100  0.47970800  1
  O  O0  1  0.69432500  0.85311100  0.87916400  1
  O  O1  1  0.19115200  0.35324900  0.37607600  1
  O  O2  1  0.80918100  0.64700900  0.62449700  1
  O  O3  1  0.30489000  0.14705300  0.12024000  1
  O  O4  1  0.50063200  0.64084200  0.00075100  1
  O  O5  1  0.00052200  0.14071800  0.50095600  1
  O  O6  1  0.99973000  0.85927700  0.49918500  1
  O  O7  1  0.49951200  0.35908600  0.99948600  1
  O  O8  1  0.24027000  0.88532100  0.25635700  1
  O  O9  1  0.74204500  0.38495900  0.75785400  1
  O  O10  1  0.25834000  0.61519600  0.24220300  1
  O  O11  1  0.75953100  0.11478500  0.74293300  1
  O  O12  1  0.18490800  0.43134900  0.02829400  1
  O  O13  1  0.68514300  0.93023000  0.52989500  1
  O  O14  1  0.99854300  0.94787800  0.82045500  1
  O  O15  1  0.49704000  0.44798900  0.32027300  1
  O  O16  1  0.50311700  0.55184100  0.68004500  1
  O  O17  1  0.00093600  0.05180100  0.17917500  1
  O  O18  1  0.31446200  0.06961000  0.46973700  1
  O  O19  1  0.81528500  0.56862500  0.97204200  1
  O  O20  1  0.38821000  0.15700200  0.81847300  1
  O  O21  1  0.88629200  0.65699100  0.31868800  1
  O  O22  1  0.15004300  0.64059100  0.64947700  1
  O  O23  1  0.64774400  0.13968600  0.15232300  1
  O  O24  1  0.35172000  0.85995400  0.84836300  1
  O  O25  1  0.85008300  0.35932500  0.35089100  1
  O  O26  1  0.11372100  0.34285700  0.68172500  1
  O  O27  1  0.61195200  0.84296300  0.18162700  1
loop_
_geom_bond_atom_site_label_1
_geom_bond_atom_site_label_2
_geom_bond_distance
_geom_bond_site_symmetry_2
Li0 O10 1.974894 1_555
Li0 O8 2.026159 1_555
Li0 O21 2.184839 1_455
Li0 O19 2.251323 1_454
Li1 O11 1.971756 1_555
Li1 O9 2.023658 1_555
Li1 O20 2.168962 1_555
Li1 O18 2.264412 1_555
Li2 O9 1.973299 1_555
Li2 O11 2.027096 1_555
Li2 O26 2.171830 1_655
Li2 O12 2.253258 1_656
Li3 O8 1.970506 1_555
Li3 O10 2.023832 1_555
Li3 O27 2.164476 1_555
Li3 O13 2.258739 1_555
O0 P6 1.590737 1_555
O0 P1 1.621023 1_555
O1 P7 1.589753 1_555
O1 P0 1.620622 1_555
O2 P4 1.589853 1_555
O2 P3 1.620594 1_555
O3 P5 1.591036 1_555
O3 P2 1.621255 1_555
O4 P6 1.556897 1_554
O4 V1 2.124607 1_554
O4 V0 2.126710 1_555
O5 P7 1.556806 1_555
O5 V3 2.124689 1_445
O5 V2 2.124829 1_555
O6 P4 1.557037 1_555
O6 V2 2.124341 1_665
O6 V3 2.124636 1_555
O7 P5 1.556948 1_556
O7 V0 2.125318 1_556
O7 V1 2.126487 1_555
O8 P2 1.506642 1_565
O9 P3 1.506687 1_555
O10 P0 1.506671 1_555
O11 P1 1.506708 1_545
O12 P0 1.560352 1_555
O12 V1 2.024400 1_554
O13 P1 1.560816 1_555
O13 V3 2.024162 1_555
O14 P1 1.546211 1_555
O14 V2 2.017550 1_665
O15 P0 1.546248 1_555
O15 V0 2.016246 1_555
O16 P3 1.546063 1_555
O16 V1 2.016224 1_555
O17 P2 1.546148 1_555
O17 V3 2.016031 1_445
O18 P2 1.560720 1_555
O18 V2 2.024791 1_555
O19 P3 1.560366 1_555
O19 V0 2.024460 1_556
O20 P5 1.526177 1_556
O20 V2 2.048749 1_555
O21 P4 1.525767 1_555
O21 V0 2.045475 1_555
O22 P4 1.513482 1_455
O22 V1 1.957710 1_555
O23 P5 1.513286 1_555
O23 V3 1.957873 1_545
O24 P6 1.513362 1_555
O24 V2 1.957716 1_565
O25 P7 1.513328 1_655
O25 V0 1.957745 1_555
O26 P7 1.526060 1_555
O26 V1 2.046463 1_555
O27 P6 1.525946 1_554
O27 V3 2.048879 1_555
