# generated using pymatgen
data_TbMg2
_symmetry_space_group_name_H-M   'P 1'
_cell_length_a   6.05058172
_cell_length_b   6.05058172
_cell_length_c   9.79714879
_cell_angle_alpha   90.00000000
_cell_angle_beta   90.00000000
_cell_angle_gamma   120.00000071
_symmetry_Int_Tables_number   1
_chemical_formula_structural   TbMg2
_chemical_formula_sum   'Tb4 Mg8'
_cell_volume   310.61655232
_cell_formula_units_Z   4
loop_
 _symmetry_equiv_pos_site_id
 _symmetry_equiv_pos_as_xyz
  1  'x, y, z'
loop_
 _atom_site_type_symbol
 _atom_site_label
 _atom_site_symmetry_multiplicity
 _atom_site_fract_x
 _atom_site_fract_y
 _atom_site_fract_z
 _atom_site_occupancy
  Tb  Tb0  1  0.33333300  0.66666700  0.06458150  1
  Tb  Tb1  1  0.66666700  0.33333300  0.56458150  1
  Tb  Tb2  1  0.66666700  0.33333300  0.93541850  1
  Tb  Tb3  1  0.33333300  0.66666700  0.43541850  1
  Mg  Mg0  1  -0.00000000  0.00000000  -0.00000000  1
  Mg  Mg1  1  -0.00000000  0.00000000  0.50000000  1
  Mg  Mg2  1  0.82888284  0.65776668  0.25000000  1
  Mg  Mg3  1  0.17111716  0.82888284  0.75000000  1
  Mg  Mg4  1  0.65776668  0.82888284  0.75000000  1
  Mg  Mg5  1  0.34223332  0.17111716  0.25000000  1
  Mg  Mg6  1  0.82888284  0.17111716  0.25000000  1
  Mg  Mg7  1  0.17111716  0.34223332  0.75000000  1
loop_
_geom_bond_atom_site_label_1
_geom_bond_atom_site_label_2
_geom_bond_distance
_geom_bond_site_symmetry_2
Tb0 Tb3 3.633145 1_555
Tb0 Tb2 3.715436 1_454
Tb0 Tb2 3.715436 1_564
Tb0 Tb2 3.715446 1_554
Tb1 Tb2 3.633145 1_555
Tb1 Tb3 3.715436 1_545
Tb1 Tb3 3.715436 1_655
Tb1 Tb3 3.715446 1_555
Mg0 Mg7 3.035604 1_554
Mg0 Mg4 3.035604 1_444
Mg0 Mg2 3.035604 1_445
Mg0 Mg5 3.035604 1_555
Mg0 Mg3 3.035607 1_544
Mg0 Mg6 3.035607 1_455
Mg0 Tb0 3.550138 1_545
Mg0 Tb2 3.550138 1_454
Mg0 Tb0 3.550144 1_555
Mg0 Tb0 3.550144 1_445
Mg0 Tb2 3.550144 1_444
Mg0 Tb2 3.550144 1_554
Mg1 Mg4 3.035604 1_445
Mg1 Mg7 3.035604 1_555
Mg1 Mg2 3.035604 1_445
Mg1 Mg5 3.035604 1_555
Mg1 Mg3 3.035607 1_545
Mg1 Mg6 3.035607 1_455
Mg1 Tb1 3.550138 1_455
Mg1 Tb3 3.550138 1_545
Mg1 Tb1 3.550144 1_445
Mg1 Tb3 3.550144 1_555
Mg1 Tb3 3.550144 1_445
Mg1 Tb1 3.550144 1_555
Mg2 Mg5 2.944513 1_555
Mg2 Mg6 2.944513 1_555
Mg2 Mg5 3.106069 1_665
Mg2 Mg6 3.106069 1_565
Mg2 Tb1 3.519772 1_555
Mg2 Tb2 3.519772 1_554
Mg2 Tb0 3.529093 1_655
Mg2 Tb3 3.529093 1_655
Mg2 Tb3 3.529093 1_555
Mg2 Tb0 3.529093 1_555
Mg3 Mg7 2.944513 1_555
Mg3 Mg4 2.944513 1_555
Mg3 Mg4 3.106069 1_455
Mg3 Mg7 3.106069 1_565
Mg3 Tb3 3.519767 1_555
Mg3 Tb0 3.519767 1_556
Mg3 Tb2 3.529093 1_455
Mg3 Tb2 3.529093 1_565
Mg3 Tb1 3.529093 1_455
Mg3 Tb1 3.529093 1_565
Mg4 Mg7 2.944513 1_555
Mg4 Mg7 3.106069 1_665
Mg4 Tb0 3.519772 1_556
Mg4 Tb3 3.519772 1_555
Mg4 Tb2 3.529093 1_565
Mg4 Tb1 3.529093 1_565
Mg4 Tb2 3.529093 1_555
Mg4 Tb1 3.529093 1_555
Mg5 Mg6 2.944513 1_555
Mg5 Mg6 3.106069 1_455
Mg5 Tb1 3.519772 1_555
Mg5 Tb2 3.519772 1_554
Mg5 Tb3 3.529093 1_545
Mg5 Tb0 3.529093 1_545
Mg5 Tb3 3.529093 1_555
Mg5 Tb0 3.529093 1_555
Mg6 Tb1 3.519767 1_555
Mg6 Tb2 3.519767 1_554
Mg6 Tb3 3.529093 1_545
Mg6 Tb0 3.529093 1_545
Mg6 Tb3 3.529093 1_655
Mg6 Tb0 3.529093 1_655
Mg7 Tb3 3.519772 1_555
Mg7 Tb0 3.519772 1_556
Mg7 Tb2 3.529093 1_455
Mg7 Tb1 3.529093 1_455
Mg7 Tb2 3.529093 1_555
Mg7 Tb1 3.529093 1_555
