# generated using pymatgen
data_Li7Mn2(CoO4)3
_symmetry_space_group_name_H-M   'P 1'
_cell_length_a   7.74216795
_cell_length_b   7.74216795
_cell_length_c   11.92123329
_cell_angle_alpha   55.54474671
_cell_angle_beta   55.54474671
_cell_angle_gamma   21.68473844
_symmetry_Int_Tables_number   1
_chemical_formula_structural   Li7Mn2(CoO4)3
_chemical_formula_sum   'Li7 Mn2 Co3 O12'
_cell_volume   215.82603479
_cell_formula_units_Z   1
loop_
 _symmetry_equiv_pos_site_id
 _symmetry_equiv_pos_as_xyz
  1  'x, y, z'
loop_
 _atom_site_type_symbol
 _atom_site_label
 _atom_site_symmetry_multiplicity
 _atom_site_fract_x
 _atom_site_fract_y
 _atom_site_fract_z
 _atom_site_occupancy
  Li  Li0  1  0.33121700  0.33121700  0.25408500  1
  Li  Li1  1  0.67791900  0.67791900  0.73791700  1
  Li  Li2  1  0.99126700  0.99126700  0.26559300  1
  Li  Li3  1  0.33357900  0.33357900  0.74182900  1
  Li  Li4  1  0.00031000  0.00031000  0.74405800  1
  Li  Li5  1  0.66233500  0.66233500  0.25280200  1
  Li  Li6  1  0.33264000  0.33264000  0.50317800  1
  Mn  Mn0  1  0.00217700  0.00217700  0.99672500  1
  Mn  Mn1  1  0.99332000  0.99332000  0.50563200  1
  Co  Co0  1  0.67464500  0.67464500  0.00003100  1
  Co  Co1  1  0.32850300  0.32850300  0.00239200  1
  Co  Co2  1  0.68163400  0.68163400  0.49175600  1
  O  O0  1  0.50324600  0.50324600  0.88669700  1
  O  O1  1  0.82593600  0.82593600  0.37646500  1
  O  O2  1  0.15800500  0.15800500  0.88932300  1
  O  O3  1  0.50002500  0.50002500  0.39190000  1
  O  O4  1  0.15675500  0.15675500  0.39541800  1
  O  O5  1  0.82808800  0.82808800  0.88285700  1
  O  O6  1  0.16378200  0.16378200  0.61339800  1
  O  O7  1  0.50344800  0.50344800  0.10589800  1
  O  O8  1  0.84458800  0.84458800  0.61704000  1
  O  O9  1  0.15997900  0.15997900  0.12615000  1
  O  O10  1  0.84564900  0.84564900  0.10820300  1
  O  O11  1  0.50095400  0.50095400  0.61065400  1
loop_
_geom_bond_atom_site_label_1
_geom_bond_atom_site_label_2
_geom_bond_distance
_geom_bond_site_symmetry_2
Li0 O1 2.029999 1_455
Li0 O1 2.029999 1_545
Li0 O7 2.156500 1_555
Li0 O4 2.174414 1_555
Li0 O10 2.180334 1_545
Li0 O10 2.180334 1_455
Li1 O8 2.071986 1_555
Li1 O6 2.176785 1_565
Li1 O6 2.176785 1_655
Li1 O0 2.185000 1_555
Li1 O2 2.200175 1_565
Li1 O2 2.200175 1_655
Li2 O1 2.059163 1_555
Li2 O9 2.105381 1_665
Li2 O3 2.153374 1_655
Li2 O3 2.153374 1_565
Li2 O7 2.318039 1_565
Li2 O7 2.318039 1_655
Li3 O8 2.018698 1_455
Li3 O8 2.018698 1_545
Li3 O11 2.082957 1_555
Li3 O5 2.189233 1_545
Li3 O5 2.189233 1_455
Li3 O2 2.193678 1_555
Li4 O6 2.036030 1_555
Li4 O5 2.145895 1_445
Li4 O11 2.152283 1_455
Li4 O11 2.152283 1_545
Li4 O0 2.258744 1_545
Li4 O0 2.258744 1_455
Li5 O3 2.031502 1_555
Li5 O9 2.112874 1_565
Li5 O9 2.112874 1_655
Li5 O4 2.202841 1_655
Li5 O4 2.202841 1_565
Li5 O10 2.281863 1_555
Li6 O8 2.068967 1_545
Li6 O8 2.068967 1_455
Li6 O3 2.085490 1_555
Li6 O6 2.105610 1_555
Li6 O1 2.142581 1_455
Li6 O1 2.142581 1_545
Mn0 O2 1.938985 1_555
Mn0 O10 1.946293 1_446
Mn0 O0 1.953756 1_545
Mn0 O0 1.953756 1_455
Mn0 O7 1.960659 1_546
Mn0 O7 1.960659 1_456
Mn1 O8 1.849091 1_555
Mn1 O3 1.952017 1_565
Mn1 O3 1.952017 1_655
Mn1 O11 1.967081 1_565
Mn1 O11 1.967081 1_655
Mn1 O4 2.035113 1_665
Co0 O5 1.908209 1_554
Co0 O9 2.011191 1_655
Co0 O9 2.011191 1_565
Co0 O2 2.076442 1_654
Co0 O2 2.076442 1_564
Co0 O7 2.141420 1_555
Co1 O10 2.039374 1_545
Co1 O10 2.039374 1_455
Co1 O5 2.040105 1_544
Co1 O5 2.040105 1_454
Co1 O9 2.094958 1_555
Co1 O0 2.177552 1_554
Co2 O1 1.797235 1_555
Co2 O6 1.960606 1_565
Co2 O6 1.960606 1_655
Co2 O4 2.020827 1_655
Co2 O4 2.020827 1_565
Co2 O11 2.252156 1_555
