# generated using pymatgen
data_Li7Mn2(CoO4)3
_symmetry_space_group_name_H-M   'P 1'
_cell_length_a   5.08214400
_cell_length_b   5.87402424
_cell_length_c   7.71125608
_cell_angle_alpha   102.16020826
_cell_angle_beta   96.40225439
_cell_angle_gamma   105.69789679
_symmetry_Int_Tables_number   1
_chemical_formula_structural   Li7Mn2(CoO4)3
_chemical_formula_sum   'Li7 Mn2 Co3 O12'
_cell_volume   213.14185764
_cell_formula_units_Z   1
loop_
 _symmetry_equiv_pos_site_id
 _symmetry_equiv_pos_as_xyz
  1  'x, y, z'
loop_
 _atom_site_type_symbol
 _atom_site_label
 _atom_site_symmetry_multiplicity
 _atom_site_fract_x
 _atom_site_fract_y
 _atom_site_fract_z
 _atom_site_occupancy
  Li  Li0  1  0.50056100  0.08799100  0.82679800  1
  Li  Li1  1  0.50116900  0.58233300  0.82981700  1
  Li  Li2  1  0.50423800  0.24341400  0.50370400  1
  Li  Li3  1  0.50144700  0.75445000  0.50078100  1
  Li  Li4  1  0.49491100  0.41430400  0.16997600  1
  Li  Li5  1  0.49957400  0.91656200  0.16804600  1
  Li  Li6  1  0.99906500  0.16519000  0.66712700  1
  Mn  Mn0  1  0.00312000  0.00548600  0.99774400  1
  Mn  Mn1  1  0.00152700  0.67053600  0.66730500  1
  Co  Co0  1  0.99901100  0.49935100  0.99663100  1
  Co  Co1  1  0.00071500  0.32893800  0.33963200  1
  Co  Co2  1  0.99613500  0.84173800  0.34147400  1
  O  O0  1  0.23522500  0.80803100  0.90430700  1
  O  O1  1  0.22111400  0.28678900  0.93050300  1
  O  O2  1  0.23251800  0.93327300  0.58268500  1
  O  O3  1  0.22365000  0.46294600  0.57468900  1
  O  O4  1  0.23099000  0.11429600  0.24079400  1
  O  O5  1  0.21138600  0.61641300  0.23771500  1
  O  O6  1  0.78306600  0.40259700  0.75855000  1
  O  O7  1  0.77920400  0.87374600  0.76019900  1
  O  O8  1  0.76464700  0.54733000  0.43049800  1
  O  O9  1  0.76160900  0.02999100  0.40756500  1
  O  O10  1  0.78633200  0.72003600  0.07386300  1
  O  O11  1  0.76878400  0.19425700  0.08959700  1
loop_
_geom_bond_atom_site_label_1
_geom_bond_atom_site_label_2
_geom_bond_distance
_geom_bond_site_symmetry_2
Li0 O2 2.064602 1_545
Li0 O0 2.067322 1_545
Li0 O7 2.169595 1_545
Li0 O11 2.178331 1_556
Li0 O1 2.185718 1_555
Li0 O6 2.212669 1_555
Li1 O6 2.053963 1_555
Li1 O10 2.100535 1_556
Li1 O7 2.112442 1_555
Li1 O3 2.148538 1_555
Li1 O0 2.176291 1_555
Li1 O1 2.262652 1_555
Li2 O9 2.131699 1_555
Li2 O8 2.137716 1_555
Li2 O6 2.152228 1_555
Li2 O4 2.183641 1_555
Li2 O3 2.206296 1_555
Li2 O2 2.211427 1_545
Li3 O2 2.014971 1_555
Li3 O8 2.080302 1_555
Li3 O9 2.104421 1_565
Li3 O3 2.128945 1_555
Li3 O7 2.174815 1_555
Li3 O5 2.222375 1_555
Li4 O1 2.046350 1_554
Li4 O4 2.119559 1_555
Li4 O5 2.142614 1_555
Li4 O8 2.161136 1_555
Li4 O11 2.195582 1_555
Li4 O10 2.309596 1_555
Li5 O9 2.020299 1_565
Li5 O4 2.069089 1_565
Li5 O11 2.071531 1_565
Li5 O5 2.172411 1_555
Li5 O0 2.174501 1_554
Li5 O10 2.185673 1_555
Li6 O6 2.057559 1_555
Li6 O1 2.085666 1_655
Li6 O7 2.087039 1_545
Li6 O2 2.088221 1_645
Li6 O9 2.089561 1_555
Li6 O3 2.120461 1_655
Mn0 O7 1.926295 1_445
Mn0 O11 1.929087 1_456
Mn0 O1 1.930042 1_555
Mn0 O0 1.957975 1_545
Mn0 O4 1.968015 1_556
Mn0 O10 1.982183 1_446
Mn1 O7 1.940275 1_455
Mn1 O0 1.943698 1_555
Mn1 O8 1.946565 1_455
Mn1 O2 1.949476 1_555
Mn1 O3 1.956804 1_555
Mn1 O6 1.974845 1_455
Co0 O6 1.916125 1_555
Co0 O5 1.925154 1_656
Co0 O1 1.927665 1_655
Co0 O10 1.944192 1_556
Co0 O11 2.165248 1_556
Co0 O0 2.189115 1_655
Co1 O3 1.909726 1_555
Co1 O11 2.019572 1_455
Co1 O4 2.032892 1_555
Co1 O9 2.051701 1_455
Co1 O8 2.053685 1_455
Co1 O5 2.093770 1_555
Co2 O9 1.874674 1_565
Co2 O2 1.980617 1_655
Co2 O5 2.030087 1_655
Co2 O4 2.070471 1_665
Co2 O10 2.093268 1_555
Co2 O8 2.103645 1_555
