# generated using pymatgen
data_Li2Fe3BiO8
_symmetry_space_group_name_H-M   'P 1'
_cell_length_a   8.68846800
_cell_length_b   8.68846800
_cell_length_c   8.68846800
_cell_angle_alpha   90.00000000
_cell_angle_beta   90.00000000
_cell_angle_gamma   90.00000000
_symmetry_Int_Tables_number   1
_chemical_formula_structural   Li2Fe3BiO8
_chemical_formula_sum   'Li8 Fe12 Bi4 O32'
_cell_volume   655.88789819
_cell_formula_units_Z   4
loop_
 _symmetry_equiv_pos_site_id
 _symmetry_equiv_pos_as_xyz
  1  'x, y, z'
loop_
 _atom_site_type_symbol
 _atom_site_label
 _atom_site_symmetry_multiplicity
 _atom_site_fract_x
 _atom_site_fract_y
 _atom_site_fract_z
 _atom_site_occupancy
  Li  Li0  1  0.50113500  0.50113500  0.50113500  1
  Li  Li1  1  0.74886500  0.74886500  0.74886500  1
  Li  Li2  1  0.75113500  0.25113500  0.24886500  1
  Li  Li3  1  0.99886500  0.49886500  0.00113500  1
  Li  Li4  1  0.00113500  0.99886500  0.49886500  1
  Li  Li5  1  0.24886500  0.75113500  0.25113500  1
  Li  Li6  1  0.25113500  0.24886500  0.75113500  1
  Li  Li7  1  0.49886500  0.00113500  0.99886500  1
  Fe  Fe0  1  0.61077200  0.63922800  0.12500000  1
  Fe  Fe1  1  0.62500000  0.88922800  0.36077200  1
  Fe  Fe2  1  0.63922800  0.12500000  0.61077200  1
  Fe  Fe3  1  0.86077200  0.87500000  0.11077200  1
  Fe  Fe4  1  0.87500000  0.11077200  0.86077200  1
  Fe  Fe5  1  0.88922800  0.36077200  0.62500000  1
  Fe  Fe6  1  0.11077200  0.86077200  0.87500000  1
  Fe  Fe7  1  0.12500000  0.61077200  0.63922800  1
  Fe  Fe8  1  0.13922800  0.37500000  0.38922800  1
  Fe  Fe9  1  0.36077200  0.62500000  0.88922800  1
  Fe  Fe10  1  0.37500000  0.38922800  0.13922800  1
  Fe  Fe11  1  0.38922800  0.13922800  0.37500000  1
  Bi  Bi0  1  0.62500000  0.37500000  0.87500000  1
  Bi  Bi1  1  0.87500000  0.62500000  0.37500000  1
  Bi  Bi2  1  0.12500000  0.12500000  0.12500000  1
  Bi  Bi3  1  0.37500000  0.87500000  0.62500000  1
  O  O0  1  0.60493800  0.62196200  0.88773200  1
  O  O1  1  0.61226800  0.39506200  0.12196200  1
  O  O2  1  0.61904500  0.11904500  0.38095500  1
  O  O3  1  0.62803800  0.64506200  0.36226800  1
  O  O4  1  0.62196200  0.88773200  0.60493800  1
  O  O5  1  0.63095500  0.86904500  0.13095500  1
  O  O6  1  0.63773200  0.12803800  0.85493800  1
  O  O7  1  0.64506200  0.36226800  0.62803800  1
  O  O8  1  0.85493800  0.63773200  0.12803800  1
  O  O9  1  0.86226800  0.87196200  0.35493800  1
  O  O10  1  0.86904500  0.13095500  0.63095500  1
  O  O11  1  0.87803800  0.11226800  0.10493800  1
  O  O12  1  0.87196200  0.35493800  0.86226800  1
  O  O13  1  0.88095500  0.88095500  0.88095500  1
  O  O14  1  0.88773200  0.60493800  0.62196200  1
  O  O15  1  0.89506200  0.37803800  0.38773200  1
  O  O16  1  0.10493800  0.87803800  0.11226800  1
  O  O17  1  0.11226800  0.10493800  0.87803800  1
  O  O18  1  0.11904500  0.38095500  0.61904500  1
  O  O19  1  0.12803800  0.85493800  0.63773200  1
  O  O20  1  0.12196200  0.61226800  0.39506200  1
  O  O21  1  0.13095500  0.63095500  0.86904500  1
  O  O22  1  0.13773200  0.37196200  0.14506200  1
  O  O23  1  0.14506200  0.13773200  0.37196200  1
  O  O24  1  0.35493800  0.86226800  0.87196200  1
  O  O25  1  0.36226800  0.62803800  0.64506200  1
  O  O26  1  0.36904500  0.36904500  0.36904500  1
  O  O27  1  0.37803800  0.38773200  0.89506200  1
  O  O28  1  0.37196200  0.14506200  0.13773200  1
  O  O29  1  0.38095500  0.61904500  0.11904500  1
  O  O30  1  0.38773200  0.89506200  0.37803800  1
  O  O31  1  0.39506200  0.12196200  0.61226800  1
loop_
_geom_bond_atom_site_label_1
_geom_bond_atom_site_label_2
_geom_bond_distance
_geom_bond_site_symmetry_2
Li0 O26 1.987805 1_555
Li0 O7 2.057964 1_555
Li0 O25 2.057964 1_555
Li0 O3 2.057964 1_555
Li1 O13 1.987805 1_555
Li1 O0 2.057964 1_555
Li1 O14 2.057964 1_555
Li1 O4 2.057964 1_555
Li2 O2 1.987805 1_555
Li2 O15 2.057964 1_555
Li2 O1 2.057964 1_555
Li2 O11 2.057964 1_555
Li3 O21 1.987805 1_654
Li3 O8 2.057964 1_555
Li3 O22 2.057964 1_655
Li3 O12 2.057964 1_554
Li4 O10 1.987805 1_465
Li4 O19 2.057964 1_555
Li4 O23 2.057964 1_565
Li4 O9 2.057964 1_455
Li5 O29 1.987805 1_555
Li5 O30 2.057964 1_555
Li5 O20 2.057964 1_555
Li5 O16 2.057964 1_555
Li6 O18 1.987805 1_555
Li6 O27 2.057964 1_555
Li6 O31 2.057964 1_555
Li6 O17 2.057964 1_555
Li7 O5 1.987805 1_546
Li7 O6 2.057964 1_555
Li7 O28 2.057964 1_556
Li7 O24 2.057964 1_545
Fe0 O5 2.005111 1_555
Fe0 O29 2.005111 1_555
Fe0 O3 2.067568 1_555
Fe0 O0 2.067568 1_554
Fe0 O8 2.121632 1_555
Fe0 O1 2.121632 1_555
Fe1 O5 2.005111 1_555
Fe1 O2 2.005111 1_565
Fe1 O9 2.067568 1_555
Fe1 O30 2.067568 1_555
Fe1 O3 2.121632 1_555
Fe1 O4 2.121632 1_555
Fe2 O10 2.005111 1_555
Fe2 O2 2.005111 1_555
Fe2 O7 2.067568 1_555
Fe2 O4 2.067568 1_545
Fe2 O6 2.121632 1_555
Fe2 O31 2.121632 1_555
Fe3 O13 2.005111 1_554
Fe3 O5 2.005111 1_555
Fe3 O11 2.067568 1_565
Fe3 O8 2.067568 1_555
Fe3 O16 2.121632 1_655
Fe3 O9 2.121632 1_555
Fe4 O13 2.005111 1_545
Fe4 O10 2.005111 1_555
Fe4 O17 2.067568 1_655
Fe4 O6 2.067568 1_555
Fe4 O11 2.121632 1_556
Fe4 O12 2.121632 1_555
Fe5 O10 2.005111 1_555
Fe5 O18 2.005111 1_655
Fe5 O12 2.067568 1_555
Fe5 O15 2.067568 1_555
Fe5 O7 2.121632 1_555
Fe5 O14 2.121632 1_555
Fe6 O13 2.005111 1_455
Fe6 O21 2.005111 1_555
Fe6 O16 2.067568 1_556
Fe6 O19 2.067568 1_555
Fe6 O17 2.121632 1_565
Fe6 O24 2.121632 1_555
Fe7 O21 2.005111 1_555
Fe7 O18 2.005111 1_555
Fe7 O25 2.067568 1_555
Fe7 O14 2.067568 1_455
Fe7 O19 2.121632 1_555
Fe7 O20 2.121632 1_555
Fe8 O26 2.005111 1_555
Fe8 O18 2.005111 1_555
Fe8 O20 2.067568 1_555
Fe8 O23 2.067568 1_555
Fe8 O22 2.121632 1_555
Fe8 O15 2.121632 1_455
Fe9 O21 2.005111 1_555
Fe9 O29 2.005111 1_556
Fe9 O24 2.067568 1_555
Fe9 O27 2.067568 1_555
Fe9 O25 2.121632 1_555
Fe9 O0 2.121632 1_555
Fe10 O26 2.005111 1_555
Fe10 O29 2.005111 1_555
Fe10 O1 2.067568 1_555
Fe10 O22 2.067568 1_555
Fe10 O28 2.121632 1_555
Fe10 O27 2.121632 1_554
Fe11 O26 2.005111 1_555
Fe11 O2 2.005111 1_555
Fe11 O31 2.067568 1_555
Fe11 O28 2.067568 1_555
Fe11 O23 2.121632 1_555
Fe11 O30 2.121632 1_545
Bi0 O1 2.155630 1_556
Bi0 O27 2.155630 1_555
Bi0 O0 2.155630 1_555
Bi0 O7 2.155630 1_555
Bi0 O12 2.155630 1_555
Bi0 O6 2.155630 1_555
Bi1 O20 2.155630 1_655
Bi1 O15 2.155630 1_555
Bi1 O3 2.155630 1_555
Bi1 O14 2.155630 1_555
Bi1 O9 2.155630 1_555
Bi1 O8 2.155630 1_555
Bi2 O22 2.155630 1_555
Bi2 O28 2.155630 1_555
Bi2 O23 2.155630 1_555
Bi2 O16 2.155630 1_545
Bi2 O11 2.155630 1_455
Bi2 O17 2.155630 1_554
Bi3 O31 2.155630 1_565
Bi3 O30 2.155630 1_555
Bi3 O25 2.155630 1_555
Bi3 O4 2.155630 1_555
Bi3 O24 2.155630 1_555
Bi3 O19 2.155630 1_555
