# generated using pymatgen
data_Ho2MgTiO6
_symmetry_space_group_name_H-M   'P 1'
_cell_length_a   5.63116600
_cell_length_b   5.31865700
_cell_length_c   9.32365670
_cell_angle_alpha   55.80579114
_cell_angle_beta   90.00000000
_cell_angle_gamma   90.00000000
_symmetry_Int_Tables_number   1
_chemical_formula_structural   Ho2MgTiO6
_chemical_formula_sum   'Ho4 Mg2 Ti2 O12'
_cell_volume   230.97460720
_cell_formula_units_Z   2
loop_
 _symmetry_equiv_pos_site_id
 _symmetry_equiv_pos_as_xyz
  1  'x, y, z'
loop_
 _atom_site_type_symbol
 _atom_site_label
 _atom_site_symmetry_multiplicity
 _atom_site_fract_x
 _atom_site_fract_y
 _atom_site_fract_z
 _atom_site_occupancy
  Ho  Ho0  1  0.06520500  0.72636900  0.75467100  1
  Ho  Ho1  1  0.93479500  0.27363100  0.24532900  1
  Ho  Ho2  1  0.56520500  0.27363100  0.74532900  1
  Ho  Ho3  1  0.43479500  0.72636900  0.25467100  1
  Mg  Mg0  1  0.50000000  0.50000000  0.00000000  1
  Mg  Mg1  1  0.00000000  0.50000000  0.50000000  1
  Ti  Ti0  1  0.50000000  0.00000000  0.50000000  1
  Ti  Ti1  1  0.00000000  0.00000000  0.00000000  1
  O  O0  1  0.45074500  0.87586700  0.74228100  1
  O  O1  1  0.54925500  0.12413300  0.25771900  1
  O  O2  1  0.95074500  0.12413300  0.75771900  1
  O  O3  1  0.04925500  0.87586700  0.24228100  1
  O  O4  1  0.79440700  0.74765500  0.56670300  1
  O  O5  1  0.20559300  0.25234500  0.43329700  1
  O  O6  1  0.29440700  0.25234500  0.93329700  1
  O  O7  1  0.70559300  0.74765500  0.06670300  1
  O  O8  1  0.31191800  0.64484000  0.55410200  1
  O  O9  1  0.68808200  0.35516000  0.44589800  1
  O  O10  1  0.81191800  0.35516000  0.94589800  1
  O  O11  1  0.18808200  0.64484000  0.05410200  1
loop_
_geom_bond_atom_site_label_1
_geom_bond_atom_site_label_2
_geom_bond_distance
_geom_bond_site_symmetry_2
Ho0 O2 2.226984 1_465
Ho0 O10 2.270371 1_455
Ho0 O4 2.277406 1_455
Ho0 O0 2.292541 1_555
Ho0 O6 2.465020 1_555
Ho0 O8 2.554724 1_555
Ho0 O11 2.664622 1_556
Ho0 O5 2.829744 1_565
Ho1 O3 2.226984 1_645
Ho1 O11 2.270371 1_655
Ho1 O5 2.277406 1_655
Ho1 O1 2.292541 1_555
Ho1 O7 2.465020 1_555
Ho1 O9 2.554724 1_555
Ho1 O10 2.664622 1_554
Ho1 O4 2.829744 1_545
Ho2 O0 2.226984 1_545
Ho2 O8 2.270371 1_555
Ho2 O6 2.277406 1_555
Ho2 O2 2.292541 1_555
Ho2 O4 2.465020 1_555
Ho2 O10 2.554724 1_555
Ho2 O9 2.664622 1_555
Ho2 O7 2.829744 1_546
Ho3 O1 2.226984 1_565
Ho3 O9 2.270371 1_555
Ho3 O7 2.277406 1_555
Ho3 O3 2.292541 1_555
Ho3 O5 2.465020 1_555
Ho3 O11 2.554724 1_555
Ho3 O8 2.664622 1_555
Ho3 O6 2.829744 1_564
Mg0 O10 2.090413 1_554
Mg0 O11 2.090413 1_555
Mg0 O7 2.093530 1_555
Mg0 O6 2.093530 1_554
Mg0 O1 2.109014 1_555
Mg0 O0 2.109014 1_554
Mg1 O8 2.090413 1_555
Mg1 O9 2.090413 1_455
Mg1 O4 2.093530 1_455
Mg1 O5 2.093530 1_555
Mg1 O2 2.109014 1_455
Mg1 O3 2.109014 1_555
O0 Ti0 1.984772 1_565
O1 Ti0 1.984772 1_555
O2 Ti1 1.984772 1_656
O3 Ti1 1.984772 1_565
O4 Ti0 1.999598 1_565
O5 Ti0 1.999598 1_555
O6 Ti1 1.999598 1_556
O7 Ti1 1.999598 1_665
O8 Ti0 1.968096 1_565
O9 Ti0 1.968096 1_555
O10 Ti1 1.968096 1_656
O11 Ti1 1.968096 1_565
