# generated using pymatgen
data_LuS2
_symmetry_space_group_name_H-M   'P 1'
_cell_length_a   3.78383089
_cell_length_b   3.78374851
_cell_length_c   7.76618220
_cell_angle_alpha   90.00039347
_cell_angle_beta   90.00098579
_cell_angle_gamma   89.99727739
_symmetry_Int_Tables_number   1
_chemical_formula_structural   LuS2
_chemical_formula_sum   'Lu2 S4'
_cell_volume   111.18893134
_cell_formula_units_Z   2
loop_
 _symmetry_equiv_pos_site_id
 _symmetry_equiv_pos_as_xyz
  1  'x, y, z'
loop_
 _atom_site_type_symbol
 _atom_site_label
 _atom_site_symmetry_multiplicity
 _atom_site_fract_x
 _atom_site_fract_y
 _atom_site_fract_z
 _atom_site_occupancy
  Lu  Lu0  1  0.74998389  0.74993029  0.72674946  1
  Lu  Lu1  1  0.24998011  0.24993169  0.27321784  1
  S  S0  1  0.75003898  0.75001027  0.36929289  1
  S  S1  1  0.24996544  0.25001472  0.63073818  1
  S  S2  1  0.75005799  0.25005736  0.00000262  1
  S  S3  1  0.24997260  0.75005467  -0.00000000  1
loop_
_geom_bond_atom_site_label_1
_geom_bond_atom_site_label_2
_geom_bond_distance
_geom_bond_site_symmetry_2
Lu0 S0 2.776073 1_555
Lu0 S1 2.777180 1_655
Lu0 S1 2.777380 1_555
Lu0 S1 2.777700 1_565
Lu0 S1 2.777745 1_665
Lu0 S2 2.842688 1_556
Lu0 S3 2.842958 1_656
Lu0 S3 2.843063 1_556
Lu0 S2 2.843309 1_566
Lu1 S1 2.776568 1_555
Lu1 S0 2.777353 1_445
Lu1 S0 2.777517 1_545
Lu1 S0 2.777629 1_455
Lu1 S0 2.778037 1_555
Lu1 S3 2.842474 1_545
Lu1 S2 2.842586 1_455
Lu1 S2 2.843026 1_555
Lu1 S3 2.843113 1_555
S2 S3 2.675259 1_645
S2 S3 2.675371 1_655
S2 S3 2.675701 1_555
S2 S3 2.675843 1_545
