# generated using pymatgen
data_Sb3O14
_symmetry_space_group_name_H-M   'P 1'
_cell_length_a   14.98145400
_cell_length_b   5.71053000
_cell_length_c   5.75846128
_cell_angle_alpha   73.43327741
_cell_angle_beta   90.00000000
_cell_angle_gamma   90.00000000
_symmetry_Int_Tables_number   1
_chemical_formula_structural   Sb3O14
_chemical_formula_sum   'Sb6 O28'
_cell_volume   472.19748337
_cell_formula_units_Z   2
loop_
 _symmetry_equiv_pos_site_id
 _symmetry_equiv_pos_as_xyz
  1  'x, y, z'
loop_
 _atom_site_type_symbol
 _atom_site_label
 _atom_site_symmetry_multiplicity
 _atom_site_fract_x
 _atom_site_fract_y
 _atom_site_fract_z
 _atom_site_occupancy
  Sb  Sb0  1  0.50000000  0.00000000  0.00000000  1
  Sb  Sb1  1  0.00000000  0.00000000  0.00000000  1
  Sb  Sb2  1  0.41922100  0.40077500  0.36334300  1
  Sb  Sb3  1  0.91922100  0.59922500  0.63665700  1
  Sb  Sb4  1  0.58077900  0.59922500  0.63665700  1
  Sb  Sb5  1  0.08077900  0.40077500  0.36334300  1
  O  O0  1  0.25000000  0.88723600  0.84194900  1
  O  O1  1  0.75000000  0.11276400  0.15805100  1
  O  O2  1  0.25000000  0.15081000  0.31472800  1
  O  O3  1  0.75000000  0.84919000  0.68527200  1
  O  O4  1  0.49933600  0.77827300  0.78472600  1
  O  O5  1  0.99933600  0.22172700  0.21527400  1
  O  O6  1  0.50066400  0.22172700  0.21527400  1
  O  O7  1  0.00066400  0.77827300  0.78472600  1
  O  O8  1  0.65137700  0.40906100  0.91812300  1
  O  O9  1  0.15137700  0.59093900  0.08187700  1
  O  O10  1  0.34862300  0.59093900  0.08187700  1
  O  O11  1  0.84862300  0.40906100  0.91812300  1
  O  O12  1  0.67517800  0.91055500  0.54348900  1
  O  O13  1  0.17517800  0.08944500  0.45651100  1
  O  O14  1  0.32482200  0.08944500  0.45651100  1
  O  O15  1  0.82482200  0.91055500  0.54348900  1
  O  O16  1  0.49236200  0.30763200  0.68205900  1
  O  O17  1  0.99236200  0.69236800  0.31794100  1
  O  O18  1  0.50763800  0.69236800  0.31794100  1
  O  O19  1  0.00763800  0.30763200  0.68205900  1
  O  O20  1  0.63072000  0.02861800  0.97477000  1
  O  O21  1  0.13072000  0.97138200  0.02523000  1
  O  O22  1  0.36928000  0.97138200  0.02523000  1
  O  O23  1  0.86928000  0.02861800  0.97477000  1
  O  O24  1  0.32598400  0.54635700  0.52203500  1
  O  O25  1  0.82598400  0.45364300  0.47796500  1
  O  O26  1  0.67401600  0.45364300  0.47796500  1
  O  O27  1  0.17401600  0.54635700  0.52203500  1
loop_
_geom_bond_atom_site_label_1
_geom_bond_atom_site_label_2
_geom_bond_distance
_geom_bond_site_symmetry_2
O4 Sb4 1.938638 1_555
O4 Sb0 2.008762 1_566
O5 Sb5 1.938638 1_655
O5 Sb1 2.008762 1_655
O6 Sb2 1.938638 1_555
O6 Sb0 2.008762 1_555
O7 Sb3 1.938638 1_455
O7 Sb1 2.008762 1_566
O8 Sb4 1.980206 1_555
O9 Sb5 1.980206 1_555
O10 Sb2 1.980206 1_555
O11 Sb3 1.980206 1_555
O12 O3 1.372133 1_555
O12 Sb4 2.214666 1_555
O13 O2 1.372133 1_555
O13 Sb5 2.214666 1_555
O14 O2 1.372133 1_555
O14 Sb2 2.214666 1_555
O15 O3 1.372133 1_555
O15 Sb3 2.214666 1_555
O16 Sb2 2.072508 1_555
O16 Sb4 2.085048 1_555
O16 Sb0 2.148742 1_556
O17 Sb3 2.072508 1_555
O17 Sb5 2.085048 1_655
O17 Sb1 2.148742 1_665
O18 Sb4 2.072508 1_555
O18 Sb2 2.085048 1_555
O18 Sb0 2.148742 1_565
O19 Sb5 2.072508 1_555
O19 Sb3 2.085048 1_455
O19 Sb1 2.148742 1_556
O20 Sb0 1.967107 1_556
O21 Sb1 1.967107 1_565
O22 Sb0 1.967107 1_565
O23 Sb1 1.967107 1_656
O24 Sb2 1.977516 1_555
O25 Sb3 1.977516 1_555
O26 Sb4 1.977516 1_555
O27 Sb5 1.977516 1_555
