# generated using pymatgen
data_Hf2CuSb3
_symmetry_space_group_name_H-M   'P 1'
_cell_length_a   3.91367400
_cell_length_b   3.91367400
_cell_length_c   8.58531700
_cell_angle_alpha   90.00000000
_cell_angle_beta   90.00000000
_cell_angle_gamma   90.00000000
_symmetry_Int_Tables_number   1
_chemical_formula_structural   Hf2CuSb3
_chemical_formula_sum   'Hf2 Cu1 Sb3'
_cell_volume   131.49996271
_cell_formula_units_Z   1
loop_
 _symmetry_equiv_pos_site_id
 _symmetry_equiv_pos_as_xyz
  1  'x, y, z'
loop_
 _atom_site_type_symbol
 _atom_site_label
 _atom_site_symmetry_multiplicity
 _atom_site_fract_x
 _atom_site_fract_y
 _atom_site_fract_z
 _atom_site_occupancy
  Hf  Hf0  1  0.00000000  0.50000000  0.73723200  1
  Hf  Hf1  1  0.50000000  0.00000000  0.26276800  1
  Cu  Cu0  1  0.00000000  0.00000000  0.00000000  1
  Sb  Sb0  1  0.50000000  0.50000000  0.00000000  1
  Sb  Sb1  1  0.00000000  0.50000000  0.37740000  1
  Sb  Sb2  1  0.50000000  0.00000000  0.62260000  1
loop_
_geom_bond_atom_site_label_1
_geom_bond_atom_site_label_2
_geom_bond_distance
_geom_bond_site_symmetry_2
Hf0 Sb2 2.937172 1_565
Hf0 Sb2 2.937172 1_465
Hf0 Sb2 2.937172 1_555
Hf0 Sb2 2.937172 1_455
Hf0 Sb0 2.986387 1_556
Hf0 Sb0 2.986387 1_456
Hf0 Sb1 3.089272 1_555
Hf1 Sb1 2.937172 1_655
Hf1 Sb1 2.937172 1_645
Hf1 Sb1 2.937172 1_555
Hf1 Sb1 2.937172 1_545
Hf1 Sb0 2.986387 1_545
Hf1 Sb0 2.986387 1_555
Hf1 Sb2 3.089272 1_555
Cu0 Sb0 2.767385 1_445
Cu0 Sb0 2.767385 1_545
Cu0 Sb0 2.767385 1_455
Cu0 Sb0 2.767385 1_555
Cu0 Hf1 2.986387 1_555
Cu0 Hf0 2.986387 1_554
Cu0 Hf1 2.986387 1_455
Cu0 Hf0 2.986387 1_544
