# generated using pymatgen
data_Rb2S
_symmetry_space_group_name_H-M   'P 1'
_cell_length_a   5.10033279
_cell_length_b   8.30578135
_cell_length_c   10.01335707
_cell_angle_alpha   90.00000000
_cell_angle_beta   90.00000000
_cell_angle_gamma   90.00000000
_symmetry_Int_Tables_number   1
_chemical_formula_structural   Rb2S
_chemical_formula_sum   'Rb8 S4'
_cell_volume   424.18832518
_cell_formula_units_Z   4
loop_
 _symmetry_equiv_pos_site_id
 _symmetry_equiv_pos_as_xyz
  1  'x, y, z'
loop_
 _atom_site_type_symbol
 _atom_site_label
 _atom_site_symmetry_multiplicity
 _atom_site_fract_x
 _atom_site_fract_y
 _atom_site_fract_z
 _atom_site_occupancy
  Rb  Rb0  1  0.75000000  0.47751559  0.67165334  1
  Rb  Rb1  1  0.75000000  0.97751559  0.82834666  1
  Rb  Rb2  1  0.25000000  0.52248441  0.32834666  1
  Rb  Rb3  1  0.25000000  0.02248441  0.17165334  1
  Rb  Rb4  1  0.75000000  0.35352808  0.07506143  1
  Rb  Rb5  1  0.75000000  0.85352808  0.42493857  1
  Rb  Rb6  1  0.25000000  0.64647192  0.92493857  1
  Rb  Rb7  1  0.25000000  0.14647192  0.57506143  1
  S  S0  1  0.75000000  0.25166358  0.38874019  1
  S  S1  1  0.75000000  0.75166358  0.11125981  1
  S  S2  1  0.25000000  0.74833642  0.61126081  1
  S  S3  1  0.25000000  0.24833642  0.88873919  1
loop_
_geom_bond_atom_site_label_1
_geom_bond_atom_site_label_2
_geom_bond_distance
_geom_bond_site_symmetry_2
Rb0 S0 3.397690 1_555
Rb0 S2 3.453803 1_655
Rb0 S2 3.453803 1_555
Rb0 S3 3.853820 1_555
Rb0 S3 3.853820 1_655
Rb1 S1 3.397690 1_556
Rb1 S3 3.453803 1_565
Rb1 S3 3.453803 1_665
Rb1 S2 3.853820 1_555
Rb1 S2 3.853820 1_655
Rb2 S2 3.397698 1_555
Rb2 S0 3.453805 1_455
Rb2 S0 3.453805 1_555
Rb2 S1 3.853826 1_555
Rb2 S1 3.853826 1_455
Rb3 S3 3.397698 1_554
Rb3 S1 3.453805 1_445
Rb3 S1 3.453805 1_545
Rb3 S0 3.853826 1_455
Rb3 S0 3.853826 1_555
Rb4 S0 3.252932 1_555
Rb4 S3 3.278350 1_654
Rb4 S3 3.278350 1_554
Rb4 S1 3.326632 1_555
Rb5 S1 3.252932 1_555
Rb5 S2 3.278350 1_655
Rb5 S2 3.278350 1_555
Rb5 S0 3.326632 1_565
Rb6 S2 3.252922 1_555
Rb6 S1 3.278344 1_556
Rb6 S1 3.278344 1_456
Rb6 S3 3.326634 1_555
Rb7 S3 3.252922 1_555
Rb7 S0 3.278344 1_555
Rb7 S0 3.278344 1_455
Rb7 S2 3.326634 1_545
