# generated using pymatgen
data_NaMg6Co
_symmetry_space_group_name_H-M   'P 1'
_cell_length_a   4.92289000
_cell_length_b   6.42287000
_cell_length_c   10.59013900
_cell_angle_alpha   90.00000000
_cell_angle_beta   90.00000000
_cell_angle_gamma   90.00000000
_symmetry_Int_Tables_number   1
_chemical_formula_structural   NaMg6Co
_chemical_formula_sum   'Na2 Mg12 Co2'
_cell_volume   334.85047867
_cell_formula_units_Z   2
loop_
 _symmetry_equiv_pos_site_id
 _symmetry_equiv_pos_as_xyz
  1  'x, y, z'
loop_
 _atom_site_type_symbol
 _atom_site_label
 _atom_site_symmetry_multiplicity
 _atom_site_fract_x
 _atom_site_fract_y
 _atom_site_fract_z
 _atom_site_occupancy
  Na  Na0  1  0.50000000  0.50000000  0.83693200  1
  Na  Na1  1  0.50000000  0.00000000  0.33693200  1
  Mg  Mg0  1  0.50000000  0.25011500  0.08526700  1
  Mg  Mg1  1  0.50000000  0.74988500  0.08526700  1
  Mg  Mg2  1  0.00000000  0.22960400  0.90992700  1
  Mg  Mg3  1  0.00000000  0.77039600  0.90992700  1
  Mg  Mg4  1  0.00000000  0.50000000  0.17273500  1
  Mg  Mg5  1  0.00000000  0.50000000  0.66258900  1
  Mg  Mg6  1  0.50000000  0.75011500  0.58526700  1
  Mg  Mg7  1  0.50000000  0.24988500  0.58526700  1
  Mg  Mg8  1  0.00000000  0.72960400  0.40992700  1
  Mg  Mg9  1  0.00000000  0.27039600  0.40992700  1
  Mg  Mg10  1  0.00000000  0.00000000  0.67273500  1
  Mg  Mg11  1  0.00000000  0.00000000  0.16258900  1
  Co  Co0  1  0.50000000  0.50000000  0.33735900  1
  Co  Co1  1  0.50000000  0.00000000  0.83735900  1
loop_
_geom_bond_atom_site_label_1
_geom_bond_atom_site_label_2
_geom_bond_distance
_geom_bond_site_symmetry_2
Mg0 Mg11 3.051218 1_655
Mg0 Mg11 3.051218 1_555
Mg0 Na0 3.080965 1_554
Mg0 Mg4 3.081022 1_655
Mg0 Mg4 3.081022 1_555
Mg0 Mg2 3.086106 1_654
Mg0 Mg2 3.086106 1_554
Mg0 Na1 3.111883 1_555
Mg0 Mg1 3.209958 1_555
Mg0 Mg1 3.212912 1_545
Mg1 Mg11 3.051218 1_665
Mg1 Mg11 3.051218 1_565
Mg1 Na0 3.080965 1_554
Mg1 Mg4 3.081022 1_655
Mg1 Mg4 3.081022 1_555
Mg1 Mg3 3.086106 1_654
Mg1 Mg3 3.086106 1_554
Mg1 Na1 3.111883 1_565
Mg2 Na0 3.110060 1_455
Mg2 Na0 3.110060 1_555
Mg2 Mg5 3.142794 1_555
Mg2 Mg4 3.280586 1_556
Mg3 Na0 3.110060 1_455
Mg3 Na0 3.110060 1_555
Mg3 Mg5 3.142794 1_555
Mg3 Mg4 3.280586 1_556
Mg4 Mg9 2.912801 1_555
Mg4 Mg8 2.912801 1_555
Mg5 Mg6 3.051218 1_455
Mg5 Mg6 3.051218 1_555
Mg5 Mg7 3.051218 1_455
Mg5 Mg7 3.051218 1_555
Mg5 Mg9 3.055208 1_555
Mg5 Mg8 3.055208 1_555
Mg5 Na0 3.076946 1_555
Mg5 Na0 3.076946 1_455
Mg6 Na1 3.080965 1_565
Mg6 Mg8 3.086106 1_555
Mg6 Mg8 3.086106 1_655
Mg6 Na0 3.111883 1_555
Mg6 Mg7 3.209958 1_565
Mg6 Mg7 3.212912 1_555
Mg7 Na1 3.080965 1_555
Mg7 Mg9 3.086106 1_555
Mg7 Mg9 3.086106 1_655
Mg7 Na0 3.111883 1_555
Mg8 Na1 3.110060 1_565
Mg8 Na1 3.110060 1_465
Mg9 Na1 3.110060 1_555
Mg9 Na1 3.110060 1_455
Mg10 Mg2 2.912801 1_555
Mg10 Mg3 2.912801 1_545
Mg10 Mg6 3.081022 1_445
Mg10 Mg6 3.081022 1_545
Mg10 Mg7 3.081022 1_455
Mg10 Mg7 3.081022 1_555
Mg10 Mg5 3.213232 1_555
Mg10 Mg5 3.213232 1_545
Mg10 Mg9 3.280586 1_555
Mg10 Mg8 3.280586 1_545
Mg11 Mg3 3.055208 1_544
Mg11 Mg2 3.055208 1_554
Mg11 Na1 3.076946 1_455
Mg11 Na1 3.076946 1_555
Mg11 Mg8 3.142794 1_545
Mg11 Mg9 3.142794 1_555
Mg11 Mg4 3.213232 1_555
Mg11 Mg4 3.213232 1_545
Co0 Mg9 2.970539 1_555
Co0 Mg9 2.970539 1_655
Co0 Mg8 2.970539 1_555
Co0 Mg8 2.970539 1_655
Co0 Mg4 3.016310 1_555
Co0 Mg4 3.016310 1_655
Co0 Mg7 3.077876 1_555
Co0 Mg6 3.077876 1_555
Co0 Mg1 3.114996 1_555
Co0 Mg0 3.114996 1_555
Co0 Na1 3.211438 1_565
Co0 Na1 3.211438 1_555
Co1 Mg2 2.970539 1_555
Co1 Mg3 2.970539 1_645
Co1 Mg3 2.970539 1_545
Co1 Mg2 2.970539 1_655
Co1 Mg10 3.016310 1_655
Co1 Mg10 3.016310 1_555
Co1 Mg0 3.077876 1_556
Co1 Mg1 3.077876 1_546
Co1 Mg7 3.114996 1_555
Co1 Mg6 3.114996 1_545
Co1 Na0 3.211438 1_555
Co1 Na0 3.211438 1_545
