# generated using pymatgen
data_Hf3NiSb7
_symmetry_space_group_name_H-M   'P 1'
_cell_length_a   3.95225500
_cell_length_b   14.54529900
_cell_length_c   17.50153800
_cell_angle_alpha   90.00000000
_cell_angle_beta   90.00000000
_cell_angle_gamma   90.00000000
_symmetry_Int_Tables_number   1
_chemical_formula_structural   Hf3NiSb7
_chemical_formula_sum   'Hf12 Ni4 Sb28'
_cell_volume   1006.10620183
_cell_formula_units_Z   4
loop_
 _symmetry_equiv_pos_site_id
 _symmetry_equiv_pos_as_xyz
  1  'x, y, z'
loop_
 _atom_site_type_symbol
 _atom_site_label
 _atom_site_symmetry_multiplicity
 _atom_site_fract_x
 _atom_site_fract_y
 _atom_site_fract_z
 _atom_site_occupancy
  Hf  Hf0  1  0.25000000  0.30972400  0.84703700  1
  Hf  Hf1  1  0.25000000  0.19027600  0.34703700  1
  Hf  Hf2  1  0.75000000  0.69027600  0.15296300  1
  Hf  Hf3  1  0.75000000  0.80972400  0.65296300  1
  Hf  Hf4  1  0.25000000  0.02841000  0.87057500  1
  Hf  Hf5  1  0.25000000  0.47159000  0.37057500  1
  Hf  Hf6  1  0.75000000  0.97159000  0.12942500  1
  Hf  Hf7  1  0.75000000  0.52841000  0.62942500  1
  Hf  Hf8  1  0.25000000  0.59031900  0.89293000  1
  Hf  Hf9  1  0.25000000  0.90968100  0.39293000  1
  Hf  Hf10  1  0.75000000  0.40968100  0.10707000  1
  Hf  Hf11  1  0.75000000  0.09031900  0.60707000  1
  Ni  Ni0  1  0.25000000  0.81079100  0.93689200  1
  Ni  Ni1  1  0.25000000  0.68920900  0.43689200  1
  Ni  Ni2  1  0.75000000  0.18920900  0.06310800  1
  Ni  Ni3  1  0.75000000  0.31079100  0.56310800  1
  Sb  Sb0  1  0.25000000  0.20190500  0.52161500  1
  Sb  Sb1  1  0.25000000  0.29809500  0.02161500  1
  Sb  Sb2  1  0.75000000  0.79809500  0.47838500  1
  Sb  Sb3  1  0.75000000  0.70190500  0.97838500  1
  Sb  Sb4  1  0.25000000  0.42419400  0.53757600  1
  Sb  Sb5  1  0.25000000  0.07580600  0.03757600  1
  Sb  Sb6  1  0.75000000  0.57580600  0.46242400  1
  Sb  Sb7  1  0.75000000  0.92419400  0.96242400  1
  Sb  Sb8  1  0.25000000  0.93988100  0.57142300  1
  Sb  Sb9  1  0.25000000  0.56011900  0.07142300  1
  Sb  Sb10  1  0.75000000  0.06011900  0.42857700  1
  Sb  Sb11  1  0.75000000  0.43988100  0.92857700  1
  Sb  Sb12  1  0.25000000  0.67492500  0.59278100  1
  Sb  Sb13  1  0.25000000  0.82507500  0.09278100  1
  Sb  Sb14  1  0.75000000  0.32507500  0.40721900  1
  Sb  Sb15  1  0.75000000  0.17492500  0.90721900  1
  Sb  Sb16  1  0.25000000  0.14577900  0.72826400  1
  Sb  Sb17  1  0.25000000  0.35422100  0.22826400  1
  Sb  Sb18  1  0.75000000  0.85422100  0.27173600  1
  Sb  Sb19  1  0.75000000  0.64577900  0.77173600  1
  Sb  Sb20  1  0.25000000  0.47892000  0.74855200  1
  Sb  Sb21  1  0.25000000  0.02108000  0.24855200  1
  Sb  Sb22  1  0.75000000  0.52108000  0.25144800  1
  Sb  Sb23  1  0.75000000  0.97892000  0.75144800  1
  Sb  Sb24  1  0.25000000  0.81606100  0.78956200  1
  Sb  Sb25  1  0.25000000  0.68393900  0.28956200  1
  Sb  Sb26  1  0.75000000  0.18393900  0.21043800  1
  Sb  Sb27  1  0.75000000  0.31606100  0.71043800  1
loop_
_geom_bond_atom_site_label_1
_geom_bond_atom_site_label_2
_geom_bond_distance
_geom_bond_site_symmetry_2
Hf0 Sb15 2.976371 1_455
Hf0 Sb15 2.976371 1_555
Hf0 Sb20 3.004577 1_555
Hf0 Sb1 3.060062 1_556
Hf0 Sb11 3.086378 1_555
Hf0 Sb11 3.086378 1_455
Hf0 Sb27 3.103061 1_455
Hf0 Sb27 3.103061 1_555
Hf0 Sb16 3.163462 1_555
Hf1 Sb14 2.976371 1_455
Hf1 Sb14 2.976371 1_555
Hf1 Sb21 3.004577 1_555
Hf1 Sb0 3.060062 1_555
Hf1 Sb10 3.086378 1_555
Hf1 Sb10 3.086378 1_455
Hf1 Sb26 3.103061 1_455
Hf1 Sb26 3.103061 1_555
Hf1 Sb17 3.163462 1_555
Hf2 Sb13 2.976371 1_655
Hf2 Sb13 2.976371 1_555
Hf2 Sb22 3.004577 1_555
Hf2 Sb3 3.060062 1_554
Hf2 Sb9 3.086378 1_555
Hf2 Sb9 3.086378 1_655
Hf2 Sb25 3.103061 1_555
Hf2 Sb25 3.103061 1_655
Hf2 Sb18 3.163462 1_555
Hf3 Sb12 2.976371 1_555
Hf3 Sb12 2.976371 1_655
Hf3 Sb23 3.004577 1_555
Hf3 Sb2 3.060062 1_555
Hf3 Sb8 3.086378 1_555
Hf3 Sb8 3.086378 1_655
Hf3 Sb24 3.103061 1_555
Hf3 Sb24 3.103061 1_655
Hf3 Sb19 3.163462 1_555
Hf4 Sb23 2.961434 1_445
Hf4 Sb23 2.961434 1_545
Hf4 Sb7 2.964278 1_545
Hf4 Sb7 2.964278 1_445
Hf4 Sb15 2.976237 1_555
Hf4 Sb15 2.976237 1_455
Hf4 Sb5 3.002976 1_556
Hf4 Sb16 3.019572 1_555
Hf4 Ni0 3.371416 1_545
Hf5 Sb22 2.961434 1_555
Hf5 Sb22 2.961434 1_455
Hf5 Sb6 2.964278 1_455
Hf5 Sb6 2.964278 1_555
Hf5 Sb14 2.976237 1_455
Hf5 Sb14 2.976237 1_555
Hf5 Sb4 3.002976 1_555
Hf5 Sb17 3.019572 1_555
Hf5 Ni1 3.371416 1_555
Hf6 Sb21 2.961434 1_565
Hf6 Sb21 2.961434 1_665
Hf6 Sb5 2.964278 1_665
Hf6 Sb5 2.964278 1_565
Hf6 Sb13 2.976237 1_555
Hf6 Sb13 2.976237 1_655
Hf6 Sb7 3.002976 1_554
Hf6 Sb18 3.019572 1_555
Hf6 Ni2 3.371416 1_565
Hf7 Sb20 2.961434 1_655
Hf7 Sb20 2.961434 1_555
Hf7 Sb4 2.964278 1_555
Hf7 Sb4 2.964278 1_655
Hf7 Sb12 2.976237 1_555
Hf7 Sb12 2.976237 1_655
Hf7 Sb6 3.002976 1_555
Hf7 Sb19 3.019572 1_555
Hf7 Ni3 3.371416 1_555
Hf8 Sb3 2.962461 1_455
Hf8 Sb3 2.962461 1_555
Hf8 Sb20 3.001730 1_555
Hf8 Sb19 3.009120 1_555
Hf8 Sb19 3.009120 1_455
Hf8 Sb11 3.013697 1_455
Hf8 Sb11 3.013697 1_555
Hf8 Sb9 3.154635 1_556
Hf8 Ni0 3.297840 1_555
Hf9 Sb2 2.962461 1_455
Hf9 Sb2 2.962461 1_555
Hf9 Sb21 3.001730 1_565
Hf9 Sb18 3.009120 1_455
Hf9 Sb18 3.009120 1_555
Hf9 Sb10 3.013697 1_565
Hf9 Sb10 3.013697 1_465
Hf9 Sb8 3.154635 1_555
Hf9 Ni1 3.297840 1_555
Hf10 Sb1 2.962461 1_555
Hf10 Sb1 2.962461 1_655
Hf10 Sb22 3.001730 1_555
Hf10 Sb17 3.009120 1_555
Hf10 Sb17 3.009120 1_655
Hf10 Sb9 3.013697 1_555
Hf10 Sb9 3.013697 1_655
Hf10 Sb11 3.154635 1_554
Hf10 Ni2 3.297840 1_555
Hf11 Sb0 2.962461 1_555
Hf11 Sb0 2.962461 1_655
Hf11 Sb23 3.001730 1_545
Hf11 Sb16 3.009120 1_555
Hf11 Sb16 3.009120 1_655
Hf11 Sb8 3.013697 1_645
Hf11 Sb8 3.013697 1_545
Hf11 Sb10 3.154635 1_555
Hf11 Ni3 3.297840 1_555
Ni0 Sb24 2.579641 1_555
Ni0 Sb7 2.612573 1_455
Ni0 Sb7 2.612573 1_555
Ni0 Sb3 2.634538 1_455
Ni0 Sb3 2.634538 1_555
Ni0 Sb13 2.736197 1_556
Ni1 Sb25 2.579641 1_555
Ni1 Sb6 2.612573 1_455
Ni1 Sb6 2.612573 1_555
Ni1 Sb2 2.634538 1_455
Ni1 Sb2 2.634538 1_555
Ni1 Sb12 2.736197 1_555
Ni2 Sb26 2.579641 1_555
Ni2 Sb5 2.612573 1_555
Ni2 Sb5 2.612573 1_655
Ni2 Sb1 2.634538 1_555
Ni2 Sb1 2.634538 1_655
Ni2 Sb15 2.736197 1_554
Ni3 Sb27 2.579641 1_555
Ni3 Sb4 2.612573 1_555
Ni3 Sb4 2.612573 1_655
Ni3 Sb0 2.634538 1_555
Ni3 Sb0 2.634538 1_655
Ni3 Sb14 2.736197 1_555
