# generated using pymatgen
data_MgCd4Cu4As4(HO5)4
_symmetry_space_group_name_H-M   'P 1'
_cell_length_a   6.08175522
_cell_length_b   7.94110050
_cell_length_c   9.43049799
_cell_angle_alpha   88.86086522
_cell_angle_beta   90.00000000
_cell_angle_gamma   90.00000000
_symmetry_Int_Tables_number   1
_chemical_formula_structural   MgCd4Cu4As4(HO5)4
_chemical_formula_sum   'Mg1 Cd4 Cu4 As4 H4 O20'
_cell_volume   455.36370923
_cell_formula_units_Z   1
loop_
 _symmetry_equiv_pos_site_id
 _symmetry_equiv_pos_as_xyz
  1  'x, y, z'
loop_
 _atom_site_type_symbol
 _atom_site_label
 _atom_site_symmetry_multiplicity
 _atom_site_fract_x
 _atom_site_fract_y
 _atom_site_fract_z
 _atom_site_occupancy
  Mg  Mg0  1  0.75000000  0.15300101  0.87038776  1
  Cd  Cd0  1  0.25000000  0.66157949  0.30563027  1
  Cd  Cd1  1  0.25000000  0.12049736  0.19383237  1
  Cd  Cd2  1  0.75000000  0.41937744  0.62941491  1
  Cd  Cd3  1  0.75000000  0.77077422  0.80908813  1
  Cu  Cu0  1  0.48528004  0.50174131  0.00392440  1
  Cu  Cu1  1  0.99397515  0.01167038  0.51010766  1
  Cu  Cu2  1  0.01471996  0.50174131  0.00392440  1
  Cu  Cu3  1  0.50602485  0.01167038  0.51010766  1
  As  As0  1  0.25000000  0.61625457  0.63292477  1
  As  As1  1  0.25000000  0.12960075  0.85832088  1
  As  As2  1  0.75000000  0.35997556  0.32442620  1
  As  As3  1  0.75000000  0.86764882  0.16002928  1
  H  H0  1  0.25000000  0.76038664  0.02603174  1
  H  H1  1  0.25000000  0.25210798  0.46071702  1
  H  H2  1  0.75000000  0.31755561  0.05696632  1
  H  H3  1  0.75000000  0.76858327  0.52199565  1
  O  O0  1  0.51774980  0.34113685  0.22216361  1
  O  O1  1  0.98531957  0.87596097  0.26301094  1
  O  O2  1  0.01598440  0.57612197  0.73895157  1
  O  O3  1  0.48593771  0.12861843  0.75364383  1
  O  O4  1  0.48401560  0.57612197  0.73895157  1
  O  O5  1  0.01406229  0.12861843  0.75364383  1
  O  O6  1  0.98225020  0.34113685  0.22216361  1
  O  O7  1  0.51468043  0.87596097  0.26301094  1
  O  O8  1  0.25000000  0.48036949  0.49264846  1
  O  O9  1  0.25000000  0.96434889  0.97810424  1
  O  O10  1  0.75000000  0.54933798  0.41248362  1
  O  O11  1  0.75000000  0.03760588  0.04710865  1
  O  O12  1  0.25000000  0.81850698  0.56026217  1
  O  O13  1  0.25000000  0.30537730  0.96627045  1
  O  O14  1  0.75000000  0.20917963  0.46989727  1
  O  O15  1  0.75000000  0.69523498  0.04007224  1
  O  O16  1  0.25000000  0.64288928  0.06674740  1
  O  O17  1  0.25000000  0.13022286  0.43956168  1
  O  O18  1  0.75000000  0.37302875  0.96112599  1
  O  O19  1  0.75000000  0.86891245  0.58234848  1
loop_
_geom_bond_atom_site_label_1
_geom_bond_atom_site_label_2
_geom_bond_distance
_geom_bond_site_symmetry_2
Mg0 O11 1.885854 1_556
Mg0 O3 1.958872 1_555
Mg0 O5 1.958872 1_655
Mg0 O18 1.960767 1_555
Cd0 O8 2.253970 1_555
Cd0 O16 2.260611 1_555
Cd0 O1 2.371453 1_455
Cd0 O7 2.371453 1_555
Cd0 O12 2.727308 1_555
Cd1 O17 2.320170 1_555
Cd1 O9 2.403489 1_544
Cd1 O6 2.410720 1_455
Cd1 O0 2.410720 1_555
Cd1 O13 2.575966 1_554
Cd1 O1 2.595645 1_445
Cd1 O7 2.595645 1_545
Cd2 O14 2.269160 1_555
Cd2 O10 2.272953 1_555
Cd2 O4 2.298764 1_555
Cd2 O2 2.298764 1_655
Cd3 O15 2.247855 1_556
Cd3 O19 2.261256 1_555
Cd3 O4 2.341854 1_555
Cd3 O2 2.341854 1_655
Cu0 O16 1.918664 1_555
Cu0 O18 1.953461 1_554
Cu0 O13 2.151090 1_554
Cu0 O15 2.256104 1_555
Cu0 O0 2.407698 1_555
Cu0 O4 2.556245 1_554
Cu1 O17 1.930933 1_655
Cu1 O19 1.979961 1_545
Cu1 O14 2.186735 1_555
Cu1 O12 2.229867 1_645
Cu1 O5 2.497376 1_655
Cu1 O1 2.587288 1_545
Cu2 O16 1.918664 1_555
Cu2 O18 1.953461 1_454
Cu2 O13 2.151090 1_554
Cu2 O15 2.256104 1_455
Cu2 O6 2.407698 1_455
Cu2 O2 2.556245 1_554
Cu3 O17 1.930933 1_555
Cu3 O19 1.979961 1_545
Cu3 O14 2.186735 1_555
Cu3 O12 2.229867 1_545
Cu3 O3 2.497376 1_555
Cu3 O7 2.587288 1_545
As0 O8 1.723707 1_555
As0 O12 1.733603 1_555
As0 O2 1.764721 1_555
As0 O4 1.764721 1_555
As1 O9 1.714403 1_545
As1 O5 1.741789 1_555
As1 O3 1.741789 1_555
As1 O13 1.743928 1_555
As2 O6 1.718512 1_555
As2 O0 1.718512 1_555
As2 O10 1.732198 1_555
As2 O14 1.802960 1_555
As3 O11 1.702471 1_565
As3 O7 1.731555 1_555
As3 O1 1.731555 1_555
As3 O15 1.793295 1_555
H0 O16 1.001891 1_555
H0 O9 1.672889 1_554
H1 O17 0.992126 1_555
H2 O18 0.997557 1_554
H3 O19 0.988301 1_555
