# generated using pymatgen
data_LaMnO3
_symmetry_space_group_name_H-M   'P 1'
_cell_length_a   5.49228027
_cell_length_b   5.60165729
_cell_length_c   8.08411000
_cell_angle_alpha   90.00010077
_cell_angle_beta   90.00006675
_cell_angle_gamma   89.96349915
_symmetry_Int_Tables_number   1
_chemical_formula_structural   LaMnO3
_chemical_formula_sum   'La4 Mn4 O12'
_cell_volume   248.71464165
_cell_formula_units_Z   4
loop_
 _symmetry_equiv_pos_site_id
 _symmetry_equiv_pos_as_xyz
  1  'x, y, z'
loop_
 _atom_site_type_symbol
 _atom_site_label
 _atom_site_symmetry_multiplicity
 _atom_site_fract_x
 _atom_site_fract_y
 _atom_site_fract_z
 _atom_site_occupancy
  La  La0  1  0.49999500  0.99999300  0.24943100  1
  La  La1  1  0.49999500  0.99999600  0.75057200  1
  La  La2  1  0.00000400  0.50000200  0.25063000  1
  La  La3  1  0.00000500  0.50000400  0.74937200  1
  Mn  Mn0  1  0.49993900  0.50005100  0.49999800  1
  Mn  Mn1  1  0.00007600  0.00002200  0.00000600  1
  Mn  Mn2  1  0.49997000  0.49998600  0.99999900  1
  Mn  Mn3  1  0.99998500  0.99997000  0.49998000  1
  O  O0  1  0.50000100  0.49999700  0.23572900  1
  O  O1  1  0.50000000  0.49999500  0.76427500  1
  O  O2  1  0.00000500  0.99999600  0.26430800  1
  O  O3  1  0.00000400  0.99999800  0.73568900  1
  O  O4  1  0.70210000  0.82723800  0.99999900  1
  O  O5  1  0.68812900  0.80986900  0.50000200  1
  O  O6  1  0.81186200  0.31017400  0.00000200  1
  O  O7  1  0.79811700  0.32716800  0.50000300  1
  O  O8  1  0.29790800  0.17275400  0.99999900  1
  O  O9  1  0.31187400  0.19012800  0.50000100  1
  O  O10  1  0.18814600  0.68982000  0.00000300  1
  O  O11  1  0.20188500  0.67283700  0.50000300  1
loop_
_geom_bond_atom_site_label_1
_geom_bond_atom_site_label_2
_geom_bond_distance
_geom_bond_site_symmetry_2
La0 O8 2.496618 1_564
La0 O4 2.496648 1_554
La0 O9 2.510717 1_565
La0 O5 2.510728 1_555
La0 O2 2.748718 1_555
La0 O2 2.748827 1_655
La0 O0 2.802996 1_555
La0 O0 2.803041 1_565
La1 O8 2.496578 1_565
La1 O4 2.496623 1_555
La1 O9 2.510718 1_565
La1 O5 2.510727 1_555
La1 O3 2.748725 1_555
La1 O3 2.748824 1_655
La1 O1 2.803013 1_565
La1 O1 2.803024 1_555
La2 O11 2.496436 1_555
La2 O7 2.496453 1_455
La2 O10 2.510945 1_555
La2 O6 2.510970 1_455
La2 O0 2.748765 1_555
La2 O0 2.748797 1_455
La2 O2 2.802977 1_555
La2 O2 2.803044 1_545
La3 O11 2.496408 1_555
La3 O7 2.496429 1_455
La3 O10 2.510959 1_556
La3 O6 2.510995 1_456
La3 O1 2.748754 1_555
La3 O1 2.748809 1_455
La3 O3 2.802979 1_555
La3 O3 2.803045 1_545
Mn0 O11 1.901196 1_555
Mn0 O7 1.902058 1_555
Mn0 O5 2.020529 1_555
Mn0 O9 2.020683 1_555
Mn0 O0 2.136380 1_555
Mn0 O1 2.136444 1_555
Mn1 O8 1.901053 1_554
Mn1 O4 1.901883 1_444
Mn1 O10 2.020909 1_545
Mn1 O6 2.021073 1_455
Mn1 O2 2.136646 1_545
Mn1 O3 2.136768 1_544
Mn2 O1 1.905619 1_555
Mn2 O0 1.905667 1_556
Mn2 O10 2.015329 1_556
Mn2 O6 2.015581 1_556
Mn2 O8 2.143420 1_555
Mn2 O4 2.143709 1_555
Mn3 O2 1.905198 1_655
Mn3 O3 1.905497 1_655
Mn3 O5 2.017419 1_555
Mn3 O9 2.017742 1_665
Mn3 O11 2.141275 1_655
Mn3 O7 2.141496 1_565
