# generated using pymatgen
data_Na3H7(CO3)2
_symmetry_space_group_name_H-M   'P 1'
_cell_length_a   11.19712839
_cell_length_b   11.19712839
_cell_length_c   10.01497284
_cell_angle_alpha   76.21597224
_cell_angle_beta   76.21597224
_cell_angle_gamma   18.28986363
_symmetry_Int_Tables_number   1
_chemical_formula_structural   Na3H7(CO3)2
_chemical_formula_sum   'Na6 H14 C4 O12'
_cell_volume   382.40184627
_cell_formula_units_Z   2
loop_
 _symmetry_equiv_pos_site_id
 _symmetry_equiv_pos_as_xyz
  1  'x, y, z'
loop_
 _atom_site_type_symbol
 _atom_site_label
 _atom_site_symmetry_multiplicity
 _atom_site_fract_x
 _atom_site_fract_y
 _atom_site_fract_z
 _atom_site_occupancy
  Na  Na0  1  0.49674400  0.21599900  0.92297600  1
  Na  Na1  1  0.50325600  0.78400100  0.07702400  1
  Na  Na2  1  0.78400100  0.50325600  0.57702400  1
  Na  Na3  1  0.21599900  0.49674400  0.42297600  1
  Na  Na4  1  0.24051100  0.75948900  0.75000000  1
  Na  Na5  1  0.75948900  0.24051100  0.25000000  1
  H  H0  1  0.37517400  0.06326300  0.66845700  1
  H  H1  1  0.62482600  0.93673700  0.33154300  1
  H  H2  1  0.93673700  0.62482600  0.83154300  1
  H  H3  1  0.06326300  0.37517400  0.16845700  1
  H  H4  1  0.48215000  0.03324100  0.61371800  1
  H  H5  1  0.51785000  0.96675900  0.38628200  1
  H  H6  1  0.96675900  0.51785000  0.88628200  1
  H  H7  1  0.03324100  0.48215000  0.11371800  1
  H  H8  1  0.50000000  0.50000000  0.50000000  1
  H  H9  1  0.50000000  0.50000000  0.00000000  1
  H  H10  1  0.26360700  0.09504000  0.73502900  1
  H  H11  1  0.73639300  0.90496000  0.26497100  1
  H  H12  1  0.90496000  0.73639300  0.76497100  1
  H  H13  1  0.09504000  0.26360700  0.23502900  1
  C  C0  1  0.67035200  0.15383600  0.59636300  1
  C  C1  1  0.32964800  0.84616400  0.40363700  1
  C  C2  1  0.84616400  0.32964800  0.90363700  1
  C  C3  1  0.15383600  0.67035200  0.09636300  1
  O  O0  1  0.43036900  0.66849400  0.51640700  1
  O  O1  1  0.56963100  0.33150600  0.48359300  1
  O  O2  1  0.33150600  0.56963100  0.98359300  1
  O  O3  1  0.66849400  0.43036900  0.01640700  1
  O  O4  1  0.67326700  0.18218000  0.71147600  1
  O  O5  1  0.32673300  0.81782000  0.28852400  1
  O  O6  1  0.81782000  0.32673300  0.78852400  1
  O  O7  1  0.18218000  0.67326700  0.21147600  1
  O  O8  1  0.75048000  0.96940400  0.58030300  1
  O  O9  1  0.24952000  0.03059600  0.41969700  1
  O  O10  1  0.03059600  0.24952000  0.91969700  1
  O  O11  1  0.96940400  0.75048000  0.08030300  1
loop_
_geom_bond_atom_site_label_1
_geom_bond_atom_site_label_2
_geom_bond_distance
_geom_bond_site_symmetry_2
Na0 O11 2.310049 1_546
Na0 O4 2.345768 1_555
Na0 O11 2.473754 1_456
Na0 O2 2.483722 1_555
Na1 O10 2.310049 1_564
Na1 O5 2.345768 1_555
Na1 O10 2.473754 1_654
Na1 O3 2.483722 1_555
Na2 O9 2.310049 1_655
Na2 O6 2.345768 1_555
Na2 O9 2.473754 1_565
Na2 O0 2.483722 1_555
Na3 O8 2.310049 1_455
Na3 O7 2.345768 1_555
Na3 O8 2.473754 1_545
Na3 O1 2.483722 1_555
Na4 O2 2.383929 1_555
Na4 O0 2.383929 1_555
Na4 O6 2.470537 1_465
Na4 O4 2.470537 1_465
Na4 O4 2.496207 1_555
Na4 O6 2.496207 1_555
Na5 O1 2.383929 1_555
Na5 O3 2.383929 1_555
Na5 O5 2.470537 1_645
Na5 O7 2.470537 1_645
Na5 O7 2.496207 1_555
Na5 O5 2.496207 1_555
H0 H4 0.926599 1_555
H0 H10 1.001885 1_555
H1 H5 0.926599 1_555
H1 H11 1.001885 1_555
H2 H6 0.926599 1_555
H3 H7 0.926599 1_555
H8 O0 1.219716 1_555
H8 O1 1.219716 1_555
H9 O3 1.219716 1_555
H9 O2 1.219716 1_554
H10 Na2 2.495177 1_455
H11 Na3 2.495177 1_655
H12 H2 1.001885 1_555
H12 Na0 2.495177 1_565
H13 H3 1.001885 1_555
H13 Na1 2.495177 1_545
C0 O4 1.281724 1_555
C0 O8 1.290965 1_545
C0 O1 1.334494 1_555
C1 O5 1.281724 1_555
C1 O9 1.290965 1_565
C1 O0 1.334494 1_555
C2 O6 1.281724 1_555
C2 O10 1.290965 1_655
C2 O3 1.334494 1_556
C3 O7 1.281724 1_555
C3 O11 1.290965 1_455
C3 O2 1.334494 1_554
