# generated using pymatgen
data_Mg149Zn
_symmetry_space_group_name_H-M   'P 1'
_cell_length_a   15.96150659
_cell_length_b   15.96151213
_cell_length_c   15.63120047
_cell_angle_alpha   90.00000000
_cell_angle_beta   90.00000000
_cell_angle_gamma   120.00001372
_symmetry_Int_Tables_number   1
_chemical_formula_structural   Mg149Zn
_chemical_formula_sum   'Mg149 Zn1'
_cell_volume   3448.82230394
_cell_formula_units_Z   1
loop_
 _symmetry_equiv_pos_site_id
 _symmetry_equiv_pos_as_xyz
  1  'x, y, z'
loop_
 _atom_site_type_symbol
 _atom_site_label
 _atom_site_symmetry_multiplicity
 _atom_site_fract_x
 _atom_site_fract_y
 _atom_site_fract_z
 _atom_site_occupancy
  Mg  Mg0  1  0.19706758  0.00095252  -0.00000000  1
  Mg  Mg1  1  0.80388494  0.00095252  -0.00000000  1
  Mg  Mg2  1  0.19706758  0.19611506  -0.00000000  1
  Mg  Mg3  1  0.99904748  0.19611506  -0.00000000  1
  Mg  Mg4  1  0.39904439  0.19952270  -0.00000000  1
  Mg  Mg5  1  0.80047730  0.19952270  -0.00000000  1
  Mg  Mg6  1  0.59985769  0.19971639  -0.00000000  1
  Mg  Mg7  1  0.19916515  0.39833129  -0.00000000  1
  Mg  Mg8  1  0.39933011  0.39938516  -0.00000000  1
  Mg  Mg9  1  0.00005505  0.39938516  -0.00000000  1
  Mg  Mg10  1  0.59985769  0.40014131  -0.00000000  1
  Mg  Mg11  1  0.80028361  0.40014131  -0.00000000  1
  Mg  Mg12  1  0.19981130  0.59990565  -0.00000000  1
  Mg  Mg13  1  0.40009435  0.59990565  -0.00000000  1
  Mg  Mg14  1  0.60061484  0.60066889  -0.00000000  1
  Mg  Mg15  1  0.00005505  0.60066989  -0.00000000  1
  Mg  Mg16  1  0.80047730  0.60095561  -0.00000000  1
  Mg  Mg17  1  0.40009435  0.80018870  -0.00000000  1
  Mg  Mg18  1  0.19916515  0.80083385  -0.00000000  1
  Mg  Mg19  1  0.60166871  0.80083385  -0.00000000  1
  Mg  Mg20  1  0.80388494  0.80293242  -0.00000000  1
  Mg  Mg21  1  0.99904748  0.80293242  -0.00000000  1
  Mg  Mg22  1  0.60061484  0.99994595  -0.00000000  1
  Mg  Mg23  1  0.39933011  0.99994595  -0.00000000  1
  Mg  Mg24  1  0.06547307  0.13094515  0.16379022  1
  Mg  Mg25  1  0.06547307  0.93452693  0.16379022  1
  Mg  Mg26  1  0.86905485  0.93452693  0.16379022  1
  Mg  Mg27  1  0.06622802  0.33220557  0.16607900  1
  Mg  Mg28  1  0.26597755  0.33220557  0.16607900  1
  Mg  Mg29  1  0.66779443  0.73402245  0.16607900  1
  Mg  Mg30  1  0.06622802  0.73402245  0.16607900  1
  Mg  Mg31  1  0.66779443  0.93377198  0.16607900  1
  Mg  Mg32  1  0.26597755  0.93377198  0.16607900  1
  Mg  Mg33  1  0.26643863  0.53287826  0.16639968  1
  Mg  Mg34  1  0.26643863  0.73356037  0.16639968  1
  Mg  Mg35  1  0.46712174  0.73356137  0.16639968  1
  Mg  Mg36  1  0.46668943  0.53330957  0.16637816  1
  Mg  Mg37  1  0.06662014  0.53331057  0.16637816  1
  Mg  Mg38  1  0.46668943  0.93337886  0.16637816  1
  Mg  Mg39  1  0.66666700  0.33333300  0.16658001  1
  Mg  Mg40  1  0.46675062  0.13332462  0.16651790  1
  Mg  Mg41  1  0.66657400  0.13332462  0.16651790  1
  Mg  Mg42  1  0.46675062  0.33342600  0.16651790  1
  Mg  Mg43  1  0.86667538  0.33342600  0.16651790  1
  Mg  Mg44  1  0.66657400  0.53324938  0.16651790  1
  Mg  Mg45  1  0.86667538  0.53324938  0.16651790  1
  Mg  Mg46  1  0.26725067  0.13362583  0.16702748  1
  Mg  Mg47  1  0.86637517  0.13362583  0.16702748  1
  Mg  Mg48  1  0.86637517  0.73274933  0.16702748  1
  Mg  Mg49  1  0.00000000  -0.00000000  0.33223049  1
  Mg  Mg50  1  0.80043241  0.99981884  0.33291602  1
  Mg  Mg51  1  0.19938643  0.99981984  0.33291602  1
  Mg  Mg52  1  0.00018016  0.19956759  0.33291602  1
  Mg  Mg53  1  0.19938643  0.19956759  0.33291602  1
  Mg  Mg54  1  0.80043241  0.80061257  0.33291602  1
  Mg  Mg55  1  0.00018016  0.80061357  0.33291602  1
  Mg  Mg56  1  0.60025076  0.99993163  0.33304444  1
  Mg  Mg57  1  0.39967987  0.99993163  0.33304444  1
  Mg  Mg58  1  0.00006937  0.39974824  0.33304444  1
  Mg  Mg59  1  0.39967987  0.39974824  0.33304444  1
  Mg  Mg60  1  0.00006937  0.60032013  0.33304444  1
  Mg  Mg61  1  0.60025076  0.60032013  0.33304444  1
  Mg  Mg62  1  0.19988910  0.39977819  0.33302182  1
  Mg  Mg63  1  0.60022081  0.80011090  0.33302182  1
  Mg  Mg64  1  0.19988910  0.80011090  0.33302182  1
  Mg  Mg65  1  0.59997712  0.19995423  0.33317660  1
  Mg  Mg66  1  0.59997712  0.40002288  0.33317660  1
  Mg  Mg67  1  0.80004577  0.40002288  0.33317660  1
  Mg  Mg68  1  0.20001353  0.60000676  0.33319480  1
  Mg  Mg69  1  0.39999324  0.60000676  0.33319480  1
  Mg  Mg70  1  0.39999324  0.79998547  0.33319480  1
  Mg  Mg71  1  0.80009057  0.19990843  0.33338168  1
  Mg  Mg72  1  0.39981886  0.19990943  0.33338168  1
  Mg  Mg73  1  0.80009057  0.60018214  0.33338168  1
  Mg  Mg74  1  0.06649854  0.13299709  0.50000000  1
  Mg  Mg75  1  0.86680371  0.13319629  0.50000000  1
  Mg  Mg76  1  0.26639258  0.13319629  0.50000000  1
  Mg  Mg77  1  0.66659184  0.13326021  0.50000000  1
  Mg  Mg78  1  0.46666937  0.13326121  0.50000000  1
  Mg  Mg79  1  0.06640264  0.33297216  0.50000000  1
  Mg  Mg80  1  0.26656952  0.33297216  0.50000000  1
  Mg  Mg81  1  0.66666700  0.33333300  0.50000000  1
  Mg  Mg82  1  0.86673879  0.33340816  0.50000000  1
  Mg  Mg83  1  0.46666937  0.33340816  0.50000000  1
  Mg  Mg84  1  0.26652607  0.53305314  0.50000000  1
  Mg  Mg85  1  0.46677292  0.53322708  0.50000000  1
  Mg  Mg86  1  0.06645416  0.53322708  0.50000000  1
  Mg  Mg87  1  0.86673879  0.53333163  0.50000000  1
  Mg  Mg88  1  0.66659184  0.53333163  0.50000000  1
  Mg  Mg89  1  0.26652607  0.73347393  0.50000000  1
  Mg  Mg90  1  0.46694686  0.73347393  0.50000000  1
  Mg  Mg91  1  0.06640264  0.73343048  0.50000000  1
  Mg  Mg92  1  0.66702784  0.73343048  0.50000000  1
  Mg  Mg93  1  0.86680371  0.73360742  0.50000000  1
  Mg  Mg94  1  0.06649854  0.93350146  0.50000000  1
  Mg  Mg95  1  0.86700291  0.93350146  0.50000000  1
  Mg  Mg96  1  0.46677292  0.93354584  0.50000000  1
  Mg  Mg97  1  0.26656952  0.93359736  0.50000000  1
  Mg  Mg98  1  0.66702784  0.93359736  0.50000000  1
  Mg  Mg99  1  0.80009057  0.19990843  0.66661732  1
  Mg  Mg100  1  0.39981886  0.19990943  0.66661732  1
  Mg  Mg101  1  0.80009057  0.60018214  0.66661732  1
  Mg  Mg102  1  0.20001353  0.60000676  0.66680520  1
  Mg  Mg103  1  0.39999324  0.60000676  0.66680520  1
  Mg  Mg104  1  0.39999324  0.79998547  0.66680520  1
  Mg  Mg105  1  0.59997712  0.19995423  0.66682340  1
  Mg  Mg106  1  0.59997712  0.40002288  0.66682340  1
  Mg  Mg107  1  0.80004577  0.40002288  0.66682340  1
  Mg  Mg108  1  0.19988910  0.39977819  0.66697818  1
  Mg  Mg109  1  0.60022081  0.80011090  0.66697818  1
  Mg  Mg110  1  0.19988910  0.80011090  0.66697818  1
  Mg  Mg111  1  0.60025076  0.99993163  0.66695556  1
  Mg  Mg112  1  0.39967987  0.99993163  0.66695556  1
  Mg  Mg113  1  0.00006937  0.39974824  0.66695556  1
  Mg  Mg114  1  0.39967987  0.39974824  0.66695556  1
  Mg  Mg115  1  0.00006937  0.60032013  0.66695556  1
  Mg  Mg116  1  0.60025076  0.60032013  0.66695556  1
  Mg  Mg117  1  0.80043241  0.99981884  0.66708398  1
  Mg  Mg118  1  0.19938643  0.99981984  0.66708398  1
  Mg  Mg119  1  0.00018016  0.19956759  0.66708398  1
  Mg  Mg120  1  0.19938643  0.19956759  0.66708398  1
  Mg  Mg121  1  0.80043241  0.80061257  0.66708398  1
  Mg  Mg122  1  0.00018016  0.80061357  0.66708398  1
  Mg  Mg123  1  0.00000000  -0.00000000  0.66776851  1
  Mg  Mg124  1  0.26725067  0.13362583  0.83297252  1
  Mg  Mg125  1  0.86637517  0.13362583  0.83297252  1
  Mg  Mg126  1  0.86637517  0.73274933  0.83297252  1
  Mg  Mg127  1  0.46675062  0.13332462  0.83348210  1
  Mg  Mg128  1  0.66657400  0.13332462  0.83348210  1
  Mg  Mg129  1  0.46675062  0.33342600  0.83348210  1
  Mg  Mg130  1  0.86667538  0.33342600  0.83348210  1
  Mg  Mg131  1  0.66657400  0.53324938  0.83348210  1
  Mg  Mg132  1  0.86667538  0.53324938  0.83348210  1
  Mg  Mg133  1  0.66666700  0.33333300  0.83341999  1
  Mg  Mg134  1  0.46668943  0.53330957  0.83362184  1
  Mg  Mg135  1  0.06662014  0.53331057  0.83362184  1
  Mg  Mg136  1  0.46668943  0.93337886  0.83362184  1
  Mg  Mg137  1  0.26643863  0.53287826  0.83360032  1
  Mg  Mg138  1  0.26643863  0.73356037  0.83360032  1
  Mg  Mg139  1  0.46712174  0.73356137  0.83360032  1
  Mg  Mg140  1  0.06622802  0.33220557  0.83392000  1
  Mg  Mg141  1  0.26597755  0.33220557  0.83392000  1
  Mg  Mg142  1  0.66779443  0.73402245  0.83392000  1
  Mg  Mg143  1  0.06622802  0.73402245  0.83392000  1
  Mg  Mg144  1  0.66779443  0.93377198  0.83392000  1
  Mg  Mg145  1  0.26597755  0.93377198  0.83392000  1
  Mg  Mg146  1  0.06547307  0.13094515  0.83620978  1
  Mg  Mg147  1  0.06547307  0.93452693  0.83620978  1
  Mg  Mg148  1  0.86905485  0.93452693  0.83620978  1
  Zn  Zn0  1  0.00000000  -0.00000000  -0.00000000  1
loop_
_geom_bond_atom_site_label_1
_geom_bond_atom_site_label_2
_geom_bond_distance
_geom_bond_site_symmetry_2
Mg0 Mg2 3.115089 1_555
Mg0 Zn0 3.137921 1_555
Mg0 Mg25 3.140673 1_545
Mg0 Mg147 3.140673 1_544
Mg0 Mg21 3.160699 1_445
Mg0 Mg124 3.191181 1_554
Mg0 Mg46 3.191181 1_555
Mg0 Mg4 3.197013 1_555
Mg0 Mg32 3.205987 1_545
Mg0 Mg145 3.206000 1_544
Mg0 Mg18 3.211068 1_545
Mg0 Mg23 3.236478 1_545
Mg1 Mg3 3.115088 1_555
Mg1 Zn0 3.137921 1_655
Mg1 Mg26 3.140681 1_545
Mg1 Mg148 3.140681 1_544
Mg1 Mg20 3.160700 1_545
Mg1 Mg125 3.191181 1_554
Mg1 Mg47 3.191181 1_555
Mg1 Mg5 3.197023 1_555
Mg1 Mg31 3.205987 1_545
Mg1 Mg144 3.205999 1_544
Mg1 Mg19 3.211066 1_545
Mg1 Mg22 3.236494 1_545
Mg2 Zn0 3.137921 1_555
Mg2 Mg24 3.140673 1_555
Mg2 Mg3 3.160699 1_455
Mg2 Mg46 3.191174 1_555
Mg2 Mg4 3.197006 1_555
Mg2 Mg28 3.205987 1_555
Mg2 Mg7 3.211068 1_555
Mg2 Mg8 3.236486 1_555
Mg3 Zn0 3.137922 1_655
Mg3 Mg47 3.191173 1_555
Mg3 Mg5 3.197022 1_555
Mg3 Mg7 3.211059 1_655
Mg3 Mg9 3.236487 1_655
Mg4 Mg46 3.183617 1_555
Mg4 Mg8 3.187829 1_555
Mg4 Mg42 3.193922 1_555
Mg4 Mg40 3.193930 1_555
Mg4 Mg6 3.203738 1_555
Mg5 Mg9 3.187836 1_655
Mg5 Mg6 3.203738 1_555
Mg7 Mg9 3.186541 1_555
Mg7 Mg8 3.186557 1_555
Mg10 Mg42 3.187534 1_555
Mg10 Mg129 3.187534 1_554
Mg10 Mg44 3.187542 1_555
Mg10 Mg131 3.187542 1_554
Mg10 Mg133 3.192404 1_554
Mg10 Mg39 3.192404 1_555
Mg10 Mg14 3.194698 1_555
Mg10 Mg8 3.194705 1_555
Mg10 Mg6 3.199085 1_555
Mg10 Mg11 3.199100 1_555
Mg10 Mg4 3.203730 1_555
Mg10 Mg16 3.203746 1_555
Mg11 Mg130 3.187534 1_554
Mg11 Mg43 3.187534 1_555
Mg11 Mg132 3.187542 1_554
Mg11 Mg45 3.187542 1_555
Mg11 Mg39 3.192396 1_555
Mg11 Mg133 3.192396 1_554
Mg11 Mg9 3.194705 1_655
Mg11 Mg15 3.194713 1_655
Mg11 Mg6 3.199092 1_555
Mg11 Mg5 3.203723 1_555
Mg11 Mg16 3.203755 1_555
Mg12 Mg37 3.186421 1_555
Mg12 Mg135 3.186421 1_554
Mg12 Mg34 3.190404 1_555
Mg12 Mg138 3.190404 1_554
Mg12 Mg33 3.190404 1_555
Mg12 Mg137 3.190404 1_554
Mg12 Mg9 3.194527 1_555
Mg12 Mg15 3.194527 1_555
Mg12 Mg17 3.196819 1_555
Mg12 Mg13 3.196819 1_555
Mg12 Mg18 3.212287 1_555
Mg12 Mg7 3.212287 1_555
Mg13 Mg36 3.186421 1_555
Mg13 Mg134 3.186421 1_554
Mg13 Mg33 3.190411 1_555
Mg13 Mg137 3.190411 1_554
Mg13 Mg35 3.190412 1_555
Mg13 Mg139 3.190412 1_554
Mg13 Mg8 3.194528 1_555
Mg13 Mg14 3.194535 1_555
Mg13 Mg17 3.196820 1_555
Mg13 Mg19 3.212286 1_555
Mg13 Mg7 3.212294 1_555
Mg14 Mg29 3.183915 1_555
Mg14 Mg142 3.183928 1_554
Mg14 Mg19 3.186558 1_555
Mg14 Mg16 3.187820 1_555
Mg14 Mg44 3.189723 1_555
Mg14 Mg36 3.192302 1_555
Mg14 Mg8 3.212799 1_555
Mg14 Mg20 3.236494 1_555
Mg15 Mg30 3.183907 1_555
Mg15 Mg18 3.186541 1_555
Mg15 Mg16 3.187844 1_455
Mg15 Mg45 3.189731 1_455
Mg15 Mg37 3.192295 1_555
Mg15 Mg9 3.212809 1_555
Mg15 Mg21 3.236487 1_455
Mg16 Mg48 3.183617 1_555
Mg16 Mg44 3.193921 1_555
Mg16 Mg45 3.193930 1_555
Mg16 Mg20 3.197007 1_555
Mg16 Mg21 3.197013 1_555
Mg17 Mg38 3.186413 1_555
Mg17 Mg35 3.190404 1_555
Mg17 Mg34 3.190411 1_555
Mg17 Mg22 3.194535 1_555
Mg17 Mg23 3.194544 1_555
Mg17 Mg18 3.212294 1_555
Mg17 Mg19 3.212294 1_555
Mg18 Mg30 3.180580 1_555
Mg18 Mg32 3.180588 1_555
Mg18 Mg23 3.186565 1_555
Mg18 Mg34 3.197560 1_555
Mg18 Mg21 3.211059 1_455
Mg19 Mg29 3.180580 1_555
Mg19 Mg31 3.180588 1_555
Mg19 Mg22 3.186574 1_555
Mg19 Mg35 3.197560 1_555
Mg19 Mg20 3.211059 1_555
Mg20 Mg21 3.115088 1_555
Mg20 Zn0 3.137921 1_665
Mg20 Mg26 3.140673 1_555
Mg20 Mg48 3.191181 1_555
Mg20 Mg29 3.205987 1_555
Mg21 Zn0 3.137922 1_665
Mg21 Mg25 3.140673 1_655
Mg21 Mg48 3.191173 1_555
Mg21 Mg30 3.205987 1_655
Mg22 Mg31 3.183915 1_555
Mg22 Mg5 3.187828 1_565
Mg22 Mg41 3.189723 1_565
Mg22 Mg38 3.192302 1_555
Mg22 Mg6 3.194698 1_565
Mg22 Mg23 3.212808 1_555
Mg23 Mg32 3.183907 1_555
Mg23 Mg4 3.187829 1_565
Mg23 Mg40 3.189723 1_565
Mg23 Mg38 3.192311 1_555
Mg23 Mg6 3.194697 1_565
Mg24 Mg26 3.135131 1_445
Mg24 Mg25 3.135132 1_545
Mg24 Zn0 3.135467 1_555
Mg24 Mg3 3.140681 1_455
Mg24 Mg49 3.195093 1_555
Mg24 Mg46 3.199895 1_555
Mg24 Mg47 3.199911 1_455
Mg24 Mg28 3.206603 1_555
Mg24 Mg27 3.206612 1_555
Mg24 Mg53 3.227396 1_555
Mg24 Mg52 3.227412 1_555
Mg25 Mg26 3.135131 1_455
Mg25 Zn0 3.135474 1_565
Mg25 Mg49 3.195101 1_565
Mg25 Mg48 3.199903 1_455
Mg25 Mg46 3.199911 1_565
Mg25 Mg32 3.206595 1_555
Mg25 Mg30 3.206596 1_555
Mg25 Mg51 3.227395 1_555
Mg25 Mg55 3.227396 1_555
Mg26 Zn0 3.135466 1_665
Mg26 Mg49 3.195093 1_665
Mg26 Mg48 3.199904 1_555
Mg26 Mg47 3.199920 1_565
Mg26 Mg29 3.206603 1_555
Mg26 Mg31 3.206611 1_555
Mg26 Mg50 3.227404 1_555
Mg26 Mg54 3.227404 1_555
Mg27 Mg47 3.179875 1_455
Mg27 Mg7 3.180580 1_555
Mg27 Mg9 3.183907 1_555
Mg27 Mg52 3.187877 1_555
Mg27 Mg28 3.188303 1_555
Mg27 Mg43 3.194953 1_455
Mg27 Mg62 3.197400 1_555
Mg27 Mg58 3.198007 1_555
Mg27 Mg33 3.199361 1_555
Mg27 Mg3 3.205987 1_455
Mg27 Mg37 3.206818 1_555
Mg28 Mg46 3.179877 1_555
Mg28 Mg7 3.180588 1_555
Mg28 Mg8 3.183907 1_555
Mg28 Mg53 3.187877 1_555
Mg28 Mg42 3.194953 1_555
Mg28 Mg62 3.197400 1_555
Mg28 Mg59 3.198015 1_555
Mg28 Mg33 3.199370 1_555
Mg28 Mg36 3.206801 1_555
Mg29 Mg48 3.179892 1_555
Mg29 Mg54 3.187877 1_555
Mg29 Mg31 3.188305 1_555
Mg29 Mg44 3.194954 1_555
Mg29 Mg63 3.197408 1_555
Mg29 Mg61 3.198015 1_555
Mg29 Mg35 3.199369 1_555
Mg29 Mg36 3.206817 1_555
Mg30 Mg48 3.179875 1_455
Mg30 Mg55 3.187885 1_555
Mg30 Mg32 3.188303 1_555
Mg30 Mg45 3.194953 1_455
Mg30 Mg64 3.197400 1_555
Mg30 Mg60 3.198015 1_555
Mg30 Mg34 3.199361 1_555
Mg30 Mg37 3.206803 1_555
Mg31 Mg47 3.179891 1_565
Mg31 Mg50 3.187877 1_555
Mg31 Mg41 3.194954 1_565
Mg31 Mg63 3.197400 1_555
Mg31 Mg56 3.198023 1_555
Mg31 Mg35 3.199361 1_555
Mg31 Mg38 3.206809 1_555
Mg32 Mg46 3.179892 1_565
Mg32 Mg51 3.187885 1_555
Mg32 Mg40 3.194953 1_565
Mg32 Mg64 3.197400 1_555
Mg32 Mg57 3.198015 1_555
Mg32 Mg34 3.199370 1_555
Mg32 Mg38 3.206809 1_555
Mg33 Mg62 3.188808 1_555
Mg33 Mg37 3.192860 1_555
Mg33 Mg36 3.192868 1_555
Mg33 Mg68 3.194641 1_555
Mg33 Mg69 3.194648 1_555
Mg33 Mg7 3.197560 1_555
Mg33 Mg34 3.203190 1_555
Mg33 Mg35 3.203205 1_555
Mg34 Mg64 3.188808 1_555
Mg34 Mg37 3.192852 1_555
Mg34 Mg38 3.192860 1_555
Mg34 Mg68 3.194641 1_555
Mg34 Mg70 3.194648 1_555
Mg34 Mg35 3.203197 1_555
Mg35 Mg63 3.188800 1_555
Mg35 Mg38 3.192845 1_555
Mg35 Mg36 3.192877 1_555
Mg35 Mg70 3.194633 1_555
Mg35 Mg69 3.194649 1_555
Mg36 Mg42 3.190933 1_555
Mg36 Mg44 3.190940 1_555
Mg36 Mg8 3.192295 1_555
Mg36 Mg61 3.193056 1_555
Mg36 Mg59 3.193056 1_555
Mg36 Mg69 3.193631 1_555
Mg37 Mg45 3.190932 1_455
Mg37 Mg43 3.190940 1_455
Mg37 Mg9 3.192303 1_555
Mg37 Mg60 3.193048 1_555
Mg37 Mg58 3.193064 1_555
Mg37 Mg68 3.193631 1_555
Mg38 Mg41 3.190948 1_565
Mg38 Mg40 3.190949 1_565
Mg38 Mg56 3.193056 1_555
Mg38 Mg57 3.193064 1_555
Mg38 Mg70 3.193631 1_555
Mg39 Mg67 3.190706 1_555
Mg39 Mg65 3.190706 1_555
Mg39 Mg66 3.190714 1_555
Mg39 Mg43 3.191693 1_555
Mg39 Mg41 3.191694 1_555
Mg39 Mg45 3.191701 1_555
Mg39 Mg40 3.191701 1_555
Mg39 Mg42 3.191709 1_555
Mg39 Mg44 3.191710 1_555
Mg39 Mg6 3.192396 1_555
Mg40 Mg46 3.186736 1_555
Mg40 Mg6 3.187534 1_555
Mg40 Mg41 3.189482 1_555
Mg40 Mg57 3.189932 1_545
Mg40 Mg65 3.190283 1_555
Mg40 Mg42 3.193921 1_555
Mg40 Mg72 3.195217 1_555
Mg41 Mg47 3.186736 1_555
Mg41 Mg6 3.187542 1_555
Mg41 Mg56 3.189932 1_545
Mg41 Mg65 3.190283 1_555
Mg41 Mg43 3.193919 1_555
Mg41 Mg5 3.193921 1_555
Mg41 Mg71 3.195217 1_555
Mg42 Mg46 3.186728 1_555
Mg42 Mg44 3.189482 1_555
Mg42 Mg8 3.189731 1_555
Mg42 Mg59 3.189932 1_555
Mg42 Mg66 3.190283 1_555
Mg42 Mg72 3.195217 1_555
Mg43 Mg47 3.186730 1_555
Mg43 Mg45 3.189483 1_555
Mg43 Mg9 3.189731 1_655
Mg43 Mg58 3.189940 1_655
Mg43 Mg67 3.190283 1_555
Mg43 Mg5 3.193922 1_555
Mg43 Mg71 3.195225 1_555
Mg44 Mg48 3.186736 1_555
Mg44 Mg61 3.189940 1_555
Mg44 Mg66 3.190283 1_555
Mg44 Mg45 3.193919 1_555
Mg44 Mg73 3.195217 1_555
Mg45 Mg48 3.186729 1_555
Mg45 Mg60 3.189940 1_655
Mg45 Mg67 3.190283 1_555
Mg45 Mg73 3.195225 1_555
Mg46 Mg72 3.181147 1_555
Mg46 Mg51 3.185143 1_545
Mg46 Mg53 3.185143 1_555
Mg47 Mg71 3.181139 1_555
Mg47 Mg5 3.183626 1_555
Mg47 Mg52 3.185134 1_655
Mg47 Mg50 3.185151 1_545
Mg48 Mg73 3.181139 1_555
Mg48 Mg55 3.185134 1_655
Mg48 Mg54 3.185143 1_555
Mg49 Mg51 3.183965 1_545
Mg49 Mg55 3.183966 1_545
Mg49 Mg53 3.183973 1_555
Mg49 Mg50 3.183973 1_445
Mg49 Mg54 3.183980 1_445
Mg49 Mg52 3.183982 1_555
Mg49 Mg95 3.202656 1_445
Mg49 Mg94 3.202656 1_545
Mg49 Mg74 3.202656 1_555
Mg50 Mg54 3.179633 1_555
Mg50 Mg52 3.188283 1_665
Mg50 Mg63 3.191667 1_555
Mg50 Mg95 3.193019 1_555
Mg50 Mg56 3.196102 1_555
Mg50 Mg71 3.196472 1_565
Mg50 Mg75 3.196921 1_565
Mg50 Mg98 3.197142 1_555
Mg51 Mg55 3.179632 1_555
Mg51 Mg53 3.188276 1_565
Mg51 Mg64 3.191676 1_555
Mg51 Mg94 3.193019 1_555
Mg51 Mg57 3.196094 1_555
Mg51 Mg72 3.196479 1_565
Mg51 Mg76 3.196913 1_565
Mg51 Mg97 3.197150 1_555
Mg52 Mg53 3.179632 1_555
Mg52 Mg62 3.191667 1_555
Mg52 Mg74 3.193027 1_555
Mg52 Mg58 3.196071 1_555
Mg52 Mg71 3.196463 1_455
Mg52 Mg75 3.196912 1_455
Mg52 Mg79 3.197142 1_555
Mg53 Mg62 3.191660 1_555
Mg53 Mg74 3.193019 1_555
Mg53 Mg59 3.196086 1_555
Mg53 Mg72 3.196487 1_555
Mg53 Mg76 3.196921 1_555
Mg53 Mg80 3.197142 1_555
Mg54 Mg55 3.188267 1_655
Mg54 Mg63 3.191683 1_555
Mg54 Mg95 3.193027 1_555
Mg54 Mg61 3.196086 1_555
Mg54 Mg73 3.196456 1_555
Mg54 Mg93 3.196913 1_555
Mg54 Mg92 3.197142 1_555
Mg55 Mg64 3.191675 1_555
Mg55 Mg94 3.193019 1_555
Mg55 Mg60 3.196103 1_555
Mg55 Mg73 3.196471 1_455
Mg55 Mg93 3.196912 1_455
Mg55 Mg91 3.197150 1_555
Mg56 Mg63 3.189202 1_555
Mg56 Mg71 3.190843 1_565
Mg56 Mg98 3.193158 1_555
Mg56 Mg70 3.193930 1_555
Mg56 Mg65 3.194850 1_565
Mg56 Mg77 3.194892 1_565
Mg56 Mg96 3.196083 1_555
Mg56 Mg57 3.201414 1_555
Mg57 Mg64 3.189201 1_555
Mg57 Mg72 3.190844 1_565
Mg57 Mg97 3.193150 1_555
Mg57 Mg70 3.193948 1_555
Mg57 Mg65 3.194857 1_565
Mg57 Mg78 3.194900 1_565
Mg57 Mg96 3.196091 1_555
Mg58 Mg62 3.189185 1_555
Mg58 Mg71 3.190859 1_455
Mg58 Mg79 3.193142 1_555
Mg58 Mg68 3.193923 1_555
Mg58 Mg67 3.194873 1_455
Mg58 Mg82 3.194907 1_455
Mg58 Mg86 3.196091 1_555
Mg58 Mg60 3.201431 1_555
Mg59 Mg62 3.189201 1_555
Mg59 Mg72 3.190844 1_555
Mg59 Mg80 3.193150 1_555
Mg59 Mg69 3.193932 1_555
Mg59 Mg66 3.194857 1_555
Mg59 Mg83 3.194900 1_555
Mg59 Mg85 3.196091 1_555
Mg59 Mg61 3.201421 1_555
Mg60 Mg64 3.189193 1_555
Mg60 Mg73 3.190867 1_455
Mg60 Mg91 3.193150 1_555
Mg60 Mg68 3.193915 1_555
Mg60 Mg67 3.194865 1_455
Mg60 Mg87 3.194907 1_455
Mg60 Mg86 3.196083 1_555
Mg61 Mg63 3.189202 1_555
Mg61 Mg73 3.190851 1_555
Mg61 Mg92 3.193150 1_555
Mg61 Mg69 3.193915 1_555
Mg61 Mg66 3.194866 1_555
Mg61 Mg88 3.194900 1_555
Mg61 Mg85 3.196083 1_555
Mg62 Mg84 3.194749 1_555
Mg62 Mg69 3.194958 1_555
Mg62 Mg68 3.194959 1_555
Mg62 Mg79 3.196435 1_555
Mg62 Mg80 3.196436 1_555
Mg63 Mg90 3.194740 1_555
Mg63 Mg70 3.194934 1_555
Mg63 Mg69 3.194950 1_555
Mg63 Mg98 3.196436 1_555
Mg63 Mg92 3.196444 1_555
Mg64 Mg89 3.194741 1_555
Mg64 Mg68 3.194959 1_555
Mg64 Mg70 3.194966 1_555
Mg64 Mg91 3.196435 1_555
Mg64 Mg97 3.196436 1_555
Mg65 Mg78 3.193034 1_555
Mg65 Mg77 3.193042 1_555
Mg65 Mg67 3.193397 1_555
Mg65 Mg66 3.193398 1_555
Mg65 Mg81 3.193601 1_555
Mg65 Mg72 3.194472 1_555
Mg65 Mg71 3.194479 1_555
Mg66 Mg83 3.193034 1_555
Mg66 Mg88 3.193042 1_555
Mg66 Mg67 3.193397 1_555
Mg66 Mg81 3.193609 1_555
Mg66 Mg72 3.194471 1_555
Mg66 Mg73 3.194479 1_555
Mg67 Mg82 3.193034 1_555
Mg67 Mg87 3.193042 1_555
Mg67 Mg81 3.193600 1_555
Mg67 Mg71 3.194488 1_555
Mg67 Mg73 3.194489 1_555
Mg68 Mg70 3.191969 1_555
Mg68 Mg69 3.191977 1_555
Mg68 Mg84 3.194068 1_555
Mg68 Mg89 3.194076 1_555
Mg68 Mg86 3.194810 1_555
Mg69 Mg70 3.191963 1_555
Mg69 Mg84 3.194076 1_555
Mg69 Mg90 3.194076 1_555
Mg69 Mg85 3.194810 1_555
Mg70 Mg90 3.194060 1_555
Mg70 Mg89 3.194076 1_555
Mg70 Mg96 3.194818 1_555
Mg71 Mg75 3.191355 1_555
Mg71 Mg77 3.191942 1_555
Mg71 Mg82 3.191950 1_555
Mg72 Mg76 3.191363 1_555
Mg72 Mg83 3.191942 1_555
Mg72 Mg78 3.191942 1_555
Mg73 Mg93 3.191355 1_555
Mg73 Mg88 3.191942 1_555
Mg73 Mg87 3.191942 1_555
Mg74 Mg95 3.184251 1_445
Mg74 Mg94 3.184252 1_545
Mg74 Mg75 3.189021 1_455
Mg74 Mg76 3.189021 1_555
Mg74 Mg80 3.192669 1_555
Mg74 Mg79 3.192670 1_555
Mg75 Mg98 3.187313 1_545
Mg75 Mg79 3.187313 1_655
Mg75 Mg95 3.189022 1_545
Mg75 Mg99 3.191342 1_555
Mg75 Mg77 3.196193 1_555
Mg75 Mg82 3.196202 1_555
Mg76 Mg80 3.187314 1_555
Mg76 Mg97 3.187314 1_545
Mg76 Mg94 3.189021 1_545
Mg76 Mg83 3.196201 1_555
Mg76 Mg78 3.196201 1_555
Mg77 Mg96 3.188577 1_545
Mg77 Mg98 3.190406 1_545
Mg77 Mg78 3.191072 1_555
Mg77 Mg99 3.191929 1_555
Mg77 Mg81 3.192865 1_555
Mg77 Mg82 3.194655 1_555
Mg78 Mg96 3.188586 1_545
Mg78 Mg97 3.190421 1_545
Mg78 Mg81 3.192855 1_555
Mg78 Mg83 3.194648 1_555
Mg79 Mg82 3.190421 1_455
Mg79 Mg84 3.193933 1_555
Mg79 Mg80 3.194965 1_555
Mg79 Mg86 3.195960 1_555
Mg80 Mg83 3.190421 1_555
Mg80 Mg84 3.193942 1_555
Mg80 Mg85 3.195959 1_555
Mg81 Mg82 3.192848 1_555
Mg81 Mg87 3.192863 1_555
Mg81 Mg83 3.192863 1_555
Mg81 Mg88 3.192881 1_555
Mg82 Mg86 3.188585 1_655
Mg82 Mg87 3.191081 1_555
Mg82 Mg99 3.191938 1_555
Mg83 Mg85 3.188586 1_555
Mg83 Mg88 3.191072 1_555
Mg84 Mg86 3.194838 1_555
Mg84 Mg85 3.194854 1_555
Mg84 Mg90 3.199018 1_555
Mg84 Mg89 3.199019 1_555
Mg85 Mg88 3.188577 1_555
Mg85 Mg90 3.194855 1_555
Mg85 Mg92 3.195959 1_555
Mg86 Mg87 3.188593 1_455
Mg86 Mg89 3.194846 1_555
Mg86 Mg91 3.195960 1_555
Mg87 Mg91 3.190413 1_655
Mg87 Mg88 3.194647 1_555
Mg87 Mg93 3.196186 1_555
Mg88 Mg92 3.190406 1_555
Mg88 Mg93 3.196193 1_555
Mg89 Mg91 3.193925 1_555
Mg89 Mg97 3.193926 1_555
Mg89 Mg96 3.194846 1_555
Mg89 Mg90 3.199018 1_555
Mg90 Mg98 3.193933 1_555
Mg90 Mg92 3.193941 1_555
Mg90 Mg96 3.194839 1_555
Mg91 Mg93 3.187313 1_455
Mg91 Mg94 3.192670 1_555
Mg91 Mg97 3.194965 1_555
Mg92 Mg93 3.187313 1_555
Mg92 Mg95 3.192669 1_555
Mg92 Mg98 3.194966 1_555
Mg93 Mg94 3.189021 1_655
Mg93 Mg95 3.189023 1_555
Mg94 Mg95 3.184251 1_455
Mg94 Mg97 3.192669 1_555
Mg95 Mg98 3.192669 1_555
Mg96 Mg98 3.195959 1_555
Mg96 Mg97 3.195959 1_555
Mg100 Mg124 3.181160 1_555
Mg100 Mg112 3.190844 1_545
Mg100 Mg114 3.190844 1_555
Mg100 Mg76 3.191350 1_555
Mg100 Mg83 3.191930 1_555
Mg100 Mg78 3.191930 1_555
Mg100 Mg106 3.194471 1_555
Mg100 Mg105 3.194472 1_555
Mg100 Mg129 3.195230 1_555
Mg100 Mg127 3.195230 1_555
Mg100 Mg118 3.196479 1_545
Mg100 Mg120 3.196487 1_555
Mg101 Mg126 3.181152 1_555
Mg101 Mg116 3.190851 1_555
Mg101 Mg115 3.190867 1_655
Mg101 Mg93 3.191342 1_555
Mg101 Mg88 3.191929 1_555
Mg101 Mg87 3.191930 1_555
Mg101 Mg106 3.194479 1_555
Mg101 Mg107 3.194489 1_555
Mg101 Mg131 3.195229 1_555
Mg101 Mg132 3.195238 1_555
Mg101 Mg121 3.196456 1_555
Mg101 Mg122 3.196471 1_655
Mg102 Mg104 3.191969 1_555
Mg102 Mg103 3.191977 1_555
Mg102 Mg135 3.193631 1_555
Mg102 Mg115 3.193915 1_555
Mg102 Mg113 3.193923 1_555
Mg102 Mg84 3.194068 1_555
Mg102 Mg89 3.194076 1_555
Mg102 Mg137 3.194641 1_555
Mg102 Mg138 3.194641 1_555
Mg102 Mg86 3.194810 1_555
Mg102 Mg108 3.194959 1_555
Mg102 Mg110 3.194959 1_555
Mg103 Mg104 3.191963 1_555
Mg103 Mg134 3.193631 1_555
Mg103 Mg116 3.193915 1_555
Mg103 Mg114 3.193932 1_555
Mg103 Mg84 3.194076 1_555
Mg103 Mg90 3.194076 1_555
Mg103 Mg137 3.194648 1_555
Mg103 Mg139 3.194649 1_555
Mg103 Mg85 3.194810 1_555
Mg103 Mg109 3.194950 1_555
Mg103 Mg108 3.194958 1_555
Mg104 Mg136 3.193631 1_555
Mg104 Mg111 3.193930 1_555
Mg104 Mg112 3.193948 1_555
Mg104 Mg90 3.194060 1_555
Mg104 Mg89 3.194076 1_555
Mg104 Mg139 3.194633 1_555
Mg104 Mg138 3.194648 1_555
Mg104 Mg96 3.194818 1_555
Mg104 Mg109 3.194934 1_555
Mg104 Mg110 3.194966 1_555
Mg105 Mg127 3.190283 1_555
Mg105 Mg128 3.190283 1_555
Mg105 Mg133 3.190706 1_555
Mg105 Mg78 3.193034 1_555
Mg105 Mg77 3.193042 1_555
Mg105 Mg107 3.193397 1_555
Mg105 Mg106 3.193398 1_555
Mg105 Mg81 3.193601 1_555
Mg105 Mg99 3.194479 1_555
Mg105 Mg111 3.194850 1_545
Mg105 Mg112 3.194857 1_545
Mg106 Mg129 3.190283 1_555
Mg106 Mg131 3.190283 1_555
Mg106 Mg133 3.190714 1_555
Mg106 Mg83 3.193034 1_555
Mg106 Mg88 3.193042 1_555
Mg106 Mg107 3.193397 1_555
Mg106 Mg81 3.193609 1_555
Mg106 Mg114 3.194857 1_555
Mg106 Mg116 3.194866 1_555
Mg107 Mg130 3.190283 1_555
Mg107 Mg132 3.190283 1_555
Mg107 Mg133 3.190706 1_555
Mg107 Mg82 3.193034 1_555
Mg107 Mg87 3.193042 1_555
Mg107 Mg81 3.193600 1_555
Mg107 Mg99 3.194488 1_555
Mg107 Mg115 3.194865 1_655
Mg107 Mg113 3.194873 1_655
Mg108 Mg137 3.188808 1_555
Mg108 Mg113 3.189185 1_555
Mg108 Mg114 3.189201 1_555
Mg108 Mg120 3.191660 1_555
Mg108 Mg119 3.191667 1_555
Mg108 Mg84 3.194749 1_555
Mg108 Mg79 3.196435 1_555
Mg108 Mg80 3.196436 1_555
Mg108 Mg140 3.197387 1_555
Mg108 Mg141 3.197388 1_555
Mg109 Mg139 3.188800 1_555
Mg109 Mg116 3.189202 1_555
Mg109 Mg111 3.189202 1_555
Mg109 Mg117 3.191667 1_555
Mg109 Mg121 3.191683 1_555
Mg109 Mg90 3.194740 1_555
Mg109 Mg98 3.196436 1_555
Mg109 Mg92 3.196444 1_555
Mg109 Mg144 3.197388 1_555
Mg109 Mg142 3.197396 1_555
Mg110 Mg138 3.188808 1_555
Mg110 Mg115 3.189193 1_555
Mg110 Mg112 3.189201 1_555
Mg110 Mg122 3.191675 1_555
Mg110 Mg118 3.191676 1_555
Mg110 Mg89 3.194741 1_555
Mg110 Mg91 3.196435 1_555
Mg110 Mg97 3.196436 1_555
Mg110 Mg143 3.197387 1_555
Mg110 Mg145 3.197388 1_555
Mg111 Mg128 3.189932 1_565
Mg111 Mg99 3.190843 1_565
Mg111 Mg136 3.193056 1_555
Mg111 Mg98 3.193158 1_555
Mg111 Mg77 3.194892 1_565
Mg111 Mg96 3.196083 1_555
Mg111 Mg117 3.196102 1_555
Mg111 Mg144 3.198011 1_555
Mg111 Mg112 3.201414 1_555
Mg112 Mg127 3.189932 1_565
Mg112 Mg136 3.193064 1_555
Mg112 Mg97 3.193150 1_555
Mg112 Mg78 3.194900 1_565
Mg112 Mg96 3.196091 1_555
Mg112 Mg118 3.196094 1_555
Mg112 Mg145 3.198002 1_555
Mg113 Mg130 3.189940 1_455
Mg113 Mg99 3.190859 1_455
Mg113 Mg135 3.193064 1_555
Mg113 Mg79 3.193142 1_555
Mg113 Mg82 3.194907 1_455
Mg113 Mg119 3.196071 1_555
Mg113 Mg86 3.196091 1_555
Mg113 Mg140 3.197995 1_555
Mg113 Mg115 3.201431 1_555
Mg114 Mg129 3.189932 1_555
Mg114 Mg134 3.193056 1_555
Mg114 Mg80 3.193150 1_555
Mg114 Mg83 3.194900 1_555
Mg114 Mg120 3.196086 1_555
Mg114 Mg85 3.196091 1_555
Mg114 Mg141 3.198002 1_555
Mg114 Mg116 3.201421 1_555
Mg115 Mg132 3.189940 1_455
Mg115 Mg135 3.193048 1_555
Mg115 Mg91 3.193150 1_555
Mg115 Mg87 3.194907 1_455
Mg115 Mg86 3.196083 1_555
Mg115 Mg122 3.196103 1_555
Mg115 Mg143 3.198003 1_555
Mg116 Mg131 3.189940 1_555
Mg116 Mg134 3.193056 1_555
Mg116 Mg92 3.193150 1_555
Mg116 Mg88 3.194900 1_555
Mg116 Mg85 3.196083 1_555
Mg116 Mg121 3.196086 1_555
Mg116 Mg142 3.198003 1_555
Mg117 Mg121 3.179633 1_555
Mg117 Mg123 3.183973 1_665
Mg117 Mg125 3.185151 1_565
Mg117 Mg144 3.187864 1_555
Mg117 Mg119 3.188283 1_665
Mg117 Mg95 3.193019 1_555
Mg117 Mg99 3.196472 1_565
Mg117 Mg75 3.196921 1_565
Mg117 Mg98 3.197142 1_555
Mg117 Mg148 3.227404 1_555
Mg118 Mg122 3.179632 1_555
Mg118 Mg123 3.183965 1_565
Mg118 Mg124 3.185143 1_565
Mg118 Mg145 3.187872 1_555
Mg118 Mg120 3.188276 1_565
Mg118 Mg94 3.193019 1_555
Mg118 Mg76 3.196913 1_565
Mg118 Mg97 3.197150 1_555
Mg118 Mg147 3.227395 1_555
Mg119 Mg120 3.179632 1_555
Mg119 Mg123 3.183982 1_555
Mg119 Mg125 3.185134 1_455
Mg119 Mg140 3.187864 1_555
Mg119 Mg74 3.193027 1_555
Mg119 Mg99 3.196463 1_455
Mg119 Mg75 3.196912 1_455
Mg119 Mg79 3.197142 1_555
Mg119 Mg146 3.227412 1_555
Mg120 Mg123 3.183972 1_555
Mg120 Mg124 3.185143 1_555
Mg120 Mg141 3.187864 1_555
Mg120 Mg74 3.193019 1_555
Mg120 Mg76 3.196921 1_555
Mg120 Mg80 3.197142 1_555
Mg120 Mg146 3.227396 1_555
Mg121 Mg123 3.183980 1_665
Mg121 Mg126 3.185143 1_555
Mg121 Mg142 3.187864 1_555
Mg121 Mg122 3.188267 1_655
Mg121 Mg95 3.193027 1_555
Mg121 Mg93 3.196913 1_555
Mg121 Mg92 3.197142 1_555
Mg121 Mg148 3.227404 1_555
Mg122 Mg123 3.183966 1_565
Mg122 Mg126 3.185134 1_455
Mg122 Mg143 3.187872 1_555
Mg122 Mg94 3.193019 1_555
Mg122 Mg93 3.196912 1_455
Mg122 Mg91 3.197150 1_555
Mg122 Mg147 3.227396 1_555
Mg123 Mg148 3.195106 1_445
Mg123 Mg146 3.195106 1_555
Mg123 Mg147 3.195114 1_545
Mg123 Mg95 3.202643 1_445
Mg123 Mg94 3.202643 1_545
Mg123 Mg74 3.202643 1_555
Mg124 Mg141 3.179877 1_555
Mg124 Mg145 3.179892 1_545
Mg124 Mg4 3.183617 1_556
Mg124 Mg129 3.186728 1_555
Mg124 Mg127 3.186736 1_555
Mg124 Mg2 3.191174 1_556
Mg124 Mg146 3.199895 1_555
Mg124 Mg147 3.199911 1_545
Mg125 Mg140 3.179875 1_655
Mg125 Mg144 3.179891 1_545
Mg125 Mg99 3.181152 1_555
Mg125 Mg5 3.183626 1_556
Mg125 Mg130 3.186730 1_555
Mg125 Mg128 3.186736 1_555
Mg125 Mg3 3.191173 1_556
Mg125 Mg146 3.199911 1_655
Mg125 Mg148 3.199920 1_545
Mg126 Mg143 3.179875 1_655
Mg126 Mg142 3.179891 1_555
Mg126 Mg16 3.183617 1_556
Mg126 Mg132 3.186729 1_555
Mg126 Mg131 3.186736 1_555
Mg126 Mg21 3.191173 1_556
Mg126 Mg20 3.191181 1_556
Mg126 Mg147 3.199903 1_655
Mg126 Mg148 3.199904 1_555
Mg127 Mg6 3.187534 1_556
Mg127 Mg128 3.189482 1_555
Mg127 Mg23 3.189723 1_546
Mg127 Mg136 3.190949 1_545
Mg127 Mg133 3.191701 1_555
Mg127 Mg129 3.193921 1_555
Mg127 Mg4 3.193930 1_556
Mg127 Mg145 3.194952 1_545
Mg128 Mg6 3.187542 1_556
Mg128 Mg22 3.189723 1_546
Mg128 Mg136 3.190948 1_545
Mg128 Mg133 3.191694 1_555
Mg128 Mg130 3.193919 1_555
Mg128 Mg5 3.193921 1_556
Mg128 Mg144 3.194954 1_545
Mg128 Mg99 3.195229 1_555
Mg129 Mg131 3.189482 1_555
Mg129 Mg8 3.189731 1_556
Mg129 Mg134 3.190933 1_555
Mg129 Mg133 3.191709 1_555
Mg129 Mg4 3.193922 1_556
Mg129 Mg141 3.194953 1_555
Mg130 Mg132 3.189483 1_555
Mg130 Mg9 3.189731 1_656
Mg130 Mg135 3.190940 1_655
Mg130 Mg133 3.191693 1_555
Mg130 Mg5 3.193922 1_556
Mg130 Mg140 3.194953 1_655
Mg130 Mg99 3.195238 1_555
Mg131 Mg14 3.189723 1_556
Mg131 Mg134 3.190940 1_555
Mg131 Mg133 3.191710 1_555
Mg131 Mg132 3.193919 1_555
Mg131 Mg16 3.193921 1_556
Mg131 Mg142 3.194954 1_555
Mg132 Mg15 3.189731 1_656
Mg132 Mg135 3.190932 1_655
Mg132 Mg133 3.191701 1_555
Mg132 Mg16 3.193930 1_556
Mg132 Mg143 3.194952 1_655
Mg133 Mg6 3.192396 1_556
Mg134 Mg8 3.192295 1_556
Mg134 Mg14 3.192302 1_556
Mg134 Mg137 3.192868 1_555
Mg134 Mg139 3.192877 1_555
Mg134 Mg141 3.206801 1_555
Mg134 Mg142 3.206817 1_555
Mg135 Mg15 3.192295 1_556
Mg135 Mg9 3.192303 1_556
Mg135 Mg138 3.192852 1_555
Mg135 Mg137 3.192860 1_555
Mg135 Mg143 3.206802 1_555
Mg135 Mg140 3.206818 1_555
Mg136 Mg17 3.186413 1_556
Mg136 Mg22 3.192302 1_556
Mg136 Mg23 3.192311 1_556
Mg136 Mg139 3.192845 1_555
Mg136 Mg138 3.192860 1_555
Mg136 Mg144 3.206809 1_555
Mg136 Mg145 3.206809 1_555
Mg137 Mg7 3.197560 1_556
Mg137 Mg140 3.199361 1_555
Mg137 Mg141 3.199370 1_555
Mg137 Mg138 3.203190 1_555
Mg137 Mg139 3.203205 1_555
Mg138 Mg17 3.190411 1_556
Mg138 Mg18 3.197560 1_556
Mg138 Mg143 3.199361 1_555
Mg138 Mg145 3.199370 1_555
Mg138 Mg139 3.203197 1_555
Mg139 Mg17 3.190404 1_556
Mg139 Mg19 3.197560 1_556
Mg139 Mg144 3.199361 1_555
Mg139 Mg142 3.199369 1_555
Mg140 Mg7 3.180593 1_556
Mg140 Mg9 3.183920 1_556
Mg140 Mg141 3.188303 1_555
Mg140 Mg3 3.206000 1_456
Mg140 Mg146 3.206612 1_555
Mg141 Mg7 3.180601 1_556
Mg141 Mg8 3.183919 1_556
Mg141 Mg2 3.206000 1_556
Mg141 Mg146 3.206603 1_555
Mg142 Mg19 3.180593 1_556
Mg142 Mg144 3.188305 1_555
Mg142 Mg20 3.205999 1_556
Mg142 Mg148 3.206603 1_555
Mg143 Mg18 3.180593 1_556
Mg143 Mg15 3.183920 1_556
Mg143 Mg145 3.188303 1_555
Mg143 Mg21 3.206000 1_456
Mg143 Mg147 3.206597 1_555
Mg144 Mg19 3.180601 1_556
Mg144 Mg22 3.183928 1_556
Mg144 Mg148 3.206611 1_555
Mg145 Mg18 3.180601 1_556
Mg145 Mg23 3.183919 1_556
Mg145 Mg147 3.206595 1_555
Mg146 Mg148 3.135131 1_445
Mg146 Mg147 3.135132 1_545
Mg146 Zn0 3.135467 1_556
Mg146 Mg2 3.140673 1_556
Mg146 Mg3 3.140681 1_456
Mg147 Mg148 3.135131 1_455
Mg147 Zn0 3.135474 1_566
Mg147 Mg21 3.140673 1_456
Mg148 Zn0 3.135466 1_666
Mg148 Mg20 3.140673 1_556
