# generated using pymatgen
data_V3Cr2Cu(PO4)6
_symmetry_space_group_name_H-M   'P 1'
_cell_length_a   8.47476523
_cell_length_b   8.47476523
_cell_length_c   8.47476589
_cell_angle_alpha   61.38964583
_cell_angle_beta   61.38964583
_cell_angle_gamma   61.38964721
_symmetry_Int_Tables_number   1
_chemical_formula_structural   V3Cr2Cu(PO4)6
_chemical_formula_sum   'V3 Cr2 Cu1 P6 O24'
_cell_volume   443.83195155
_cell_formula_units_Z   1
loop_
 _symmetry_equiv_pos_site_id
 _symmetry_equiv_pos_as_xyz
  1  'x, y, z'
loop_
 _atom_site_type_symbol
 _atom_site_label
 _atom_site_symmetry_multiplicity
 _atom_site_fract_x
 _atom_site_fract_y
 _atom_site_fract_z
 _atom_site_occupancy
  V  V0  1  0.35513500  0.35513500  0.35513500  1
  V  V1  1  0.14227200  0.14227200  0.14227200  1
  V  V2  1  0.64414700  0.64414700  0.64414700  1
  Cr  Cr0  1  0.99780800  0.99780800  0.99780800  1
  Cr  Cr1  1  0.49979700  0.49979700  0.49979700  1
  Cu  Cu0  1  0.85248100  0.85248100  0.85248100  1
  P  P0  1  0.75145600  0.04536000  0.45318600  1
  P  P1  1  0.04536000  0.45318600  0.75145600  1
  P  P2  1  0.45318600  0.75145600  0.04536000  1
  P  P3  1  0.54717400  0.24967400  0.95603200  1
  P  P4  1  0.95603200  0.54717400  0.24967400  1
  P  P5  1  0.24967400  0.95603200  0.54717400  1
  O  O0  1  0.88357100  0.49761200  0.68428300  1
  O  O1  1  0.49761200  0.68428300  0.88357100  1
  O  O2  1  0.68428300  0.88357100  0.49761200  1
  O  O3  1  0.90645200  0.05731400  0.24946400  1
  O  O4  1  0.81876700  0.01936300  0.60079700  1
  O  O5  1  0.58863700  0.24539600  0.43035700  1
  O  O6  1  0.05731400  0.24946400  0.90645200  1
  O  O7  1  0.24539600  0.43035700  0.58863700  1
  O  O8  1  0.38964900  0.18502900  0.99227400  1
  O  O9  1  0.43035700  0.58863700  0.24539600  1
  O  O10  1  0.74480400  0.09671300  0.94960700  1
  O  O11  1  0.99227400  0.38964900  0.18502900  1
  O  O12  1  0.01936300  0.60079700  0.81876700  1
  O  O13  1  0.24946400  0.90645200  0.05731400  1
  O  O14  1  0.56248300  0.41100700  0.75608700  1
  O  O15  1  0.60079700  0.81876700  0.01936300  1
  O  O16  1  0.75608700  0.56248300  0.41100700  1
  O  O17  1  0.94960700  0.74480400  0.09671300  1
  O  O18  1  0.41100700  0.75608700  0.56248300  1
  O  O19  1  0.18502900  0.99227400  0.38964900  1
  O  O20  1  0.09671300  0.94960700  0.74480400  1
  O  O21  1  0.32875000  0.11167600  0.49537100  1
  O  O22  1  0.49537100  0.32875000  0.11167600  1
  O  O23  1  0.11167600  0.49537100  0.32875000  1
loop_
_geom_bond_atom_site_label_1
_geom_bond_atom_site_label_2
_geom_bond_distance
_geom_bond_site_symmetry_2
Cr0 O17 2.063135 1_556
Cr0 O10 2.063135 1_565
Cr0 O20 2.063135 1_655
Cr0 O6 2.115895 1_665
Cr0 O13 2.115895 1_656
Cr0 O3 2.115895 1_566
Cr1 O16 2.173246 1_555
Cr1 O18 2.173246 1_555
Cr1 O14 2.173246 1_555
Cr1 O7 2.190356 1_555
Cr1 O5 2.190356 1_555
Cr1 O9 2.190356 1_555
Cu0 O15 1.984692 1_556
Cu0 O12 1.984692 1_655
Cu0 O4 1.984693 1_565
Cu0 O20 2.213087 1_655
Cu0 O10 2.213087 1_565
Cu0 O17 2.213088 1_556
O0 P1 1.547152 1_655
O0 V2 1.902161 1_555
O1 P2 1.547152 1_556
O1 V2 1.902161 1_555
O2 P0 1.547152 1_565
O2 V2 1.902160 1_555
O3 P0 1.582559 1_555
O3 V1 2.085826 1_655
O4 P0 1.495987 1_555
O5 P0 1.586387 1_555
O5 V0 2.016205 1_555
O6 P1 1.582559 1_555
O6 V1 2.085826 1_556
O7 P1 1.586387 1_555
O7 V0 2.016205 1_555
O8 P3 1.524227 1_555
O8 V1 1.968882 1_556
O9 P2 1.586387 1_555
O9 V0 2.016205 1_555
O10 P3 1.545805 1_555
O11 P4 1.524227 1_555
O11 V1 1.968882 1_655
O12 P1 1.495987 1_555
O13 P2 1.582559 1_555
O13 V1 2.085826 1_565
O14 P3 1.580523 1_555
O14 V2 2.041681 1_555
O15 P2 1.495987 1_555
O16 P4 1.580523 1_555
O16 V2 2.041681 1_555
O17 P4 1.545805 1_555
O18 P5 1.580523 1_555
O18 V2 2.041681 1_555
O19 P5 1.524227 1_555
O19 V1 1.968883 1_565
O20 P5 1.545805 1_555
O21 P5 1.546589 1_545
O21 V0 1.886380 1_555
O22 P3 1.546589 1_554
O22 V0 1.886380 1_555
O23 P4 1.546589 1_455
O23 V0 1.886380 1_555
