# generated using pymatgen
data_Hf5Sc5Si6
_symmetry_space_group_name_H-M   'P 1'
_cell_length_a   7.90517949
_cell_length_b   7.90517949
_cell_length_c   5.69222500
_cell_angle_alpha   90.00000000
_cell_angle_beta   90.00000000
_cell_angle_gamma   120.20603726
_symmetry_Int_Tables_number   1
_chemical_formula_structural   Hf5Sc5Si6
_chemical_formula_sum   'Hf5 Sc5 Si6'
_cell_volume   307.41902621
_cell_formula_units_Z   1
loop_
 _symmetry_equiv_pos_site_id
 _symmetry_equiv_pos_as_xyz
  1  'x, y, z'
loop_
 _atom_site_type_symbol
 _atom_site_label
 _atom_site_symmetry_multiplicity
 _atom_site_fract_x
 _atom_site_fract_y
 _atom_site_fract_z
 _atom_site_occupancy
  Hf  Hf0  1  0.66533800  0.33287500  0.24952100  1
  Hf  Hf1  1  0.33287500  0.66533800  0.24952100  1
  Hf  Hf2  1  0.33287500  0.66533800  0.75047900  1
  Hf  Hf3  1  0.66533800  0.33287500  0.75047900  1
  Hf  Hf4  1  0.24743900  0.24743900  0.00000000  1
  Sc  Sc0  1  0.00046600  0.75632700  0.00000000  1
  Sc  Sc1  1  0.75632700  0.00046600  0.00000000  1
  Sc  Sc2  1  0.75527600  0.75527600  0.50000000  1
  Sc  Sc3  1  0.00068800  0.24558100  0.50000000  1
  Sc  Sc4  1  0.24558100  0.00068800  0.50000000  1
  Si  Si0  1  0.60350400  0.60350400  0.00000000  1
  Si  Si1  1  0.00052000  0.39484800  0.00000000  1
  Si  Si2  1  0.39484800  0.00052000  0.00000000  1
  Si  Si3  1  0.39492100  0.39492100  0.50000000  1
  Si  Si4  1  0.00010500  0.60393600  0.50000000  1
  Si  Si5  1  0.60393600  0.00010500  0.50000000  1
loop_
_geom_bond_atom_site_label_1
_geom_bond_atom_site_label_2
_geom_bond_distance
_geom_bond_site_symmetry_2
Hf0 Si2 2.799909 1_555
Hf0 Si0 2.808100 1_555
Hf0 Si3 2.810374 1_555
Hf0 Si5 2.811357 1_555
Hf0 Si4 2.814578 1_655
Hf0 Si1 2.823463 1_655
Hf1 Si1 2.799909 1_555
Hf1 Si0 2.808100 1_555
Hf1 Si3 2.810374 1_555
Hf1 Si4 2.811357 1_555
Hf1 Si5 2.814578 1_565
Hf1 Si2 2.823463 1_565
Hf2 Si1 2.799909 1_556
Hf2 Si0 2.808100 1_556
Hf2 Si3 2.810374 1_555
Hf2 Si4 2.811357 1_555
Hf2 Si5 2.814578 1_565
Hf2 Si2 2.823463 1_566
Hf3 Si2 2.799909 1_556
Hf3 Si0 2.808100 1_556
Hf3 Si3 2.810374 1_555
Hf3 Si5 2.811357 1_555
Hf3 Si4 2.814578 1_655
Hf3 Si1 2.823463 1_656
Hf4 Si2 2.730698 1_555
Hf4 Si1 2.730698 1_555
Hf4 Si0 2.805987 1_555
Hf4 Si3 3.074273 1_554
Hf4 Si3 3.074273 1_555
Sc0 Si2 2.718541 1_565
Sc0 Si0 2.737194 1_455
Sc0 Si1 2.857771 1_555
Sc0 Si4 3.090009 1_555
Sc0 Si4 3.090009 1_554
Sc1 Si1 2.718541 1_655
Sc1 Si0 2.737194 1_545
Sc1 Si2 2.857771 1_555
Sc1 Si5 3.090009 1_555
Sc1 Si5 3.090009 1_554
Sc2 Si4 2.739895 1_655
Sc2 Si5 2.739895 1_565
Sc2 Si3 2.839795 1_555
Sc2 Si0 3.087213 1_556
Sc2 Si0 3.087213 1_555
Sc3 Si3 2.721047 1_555
Sc3 Si5 2.734684 1_455
Sc3 Si4 2.835182 1_555
Sc3 Si1 3.081281 1_555
Sc3 Si1 3.081281 1_556
Sc4 Si3 2.721047 1_555
Sc4 Si4 2.734684 1_545
Sc4 Si5 2.835182 1_555
Sc4 Si2 3.081281 1_556
Sc4 Si2 3.081281 1_555
