# generated using pymatgen
data_NaLa2TaO6
_symmetry_space_group_name_H-M   'P 1'
_cell_length_a   6.02150000
_cell_length_b   5.72443600
_cell_length_c   9.99128956
_cell_angle_alpha   56.01084689
_cell_angle_beta   90.00000000
_cell_angle_gamma   90.00000000
_symmetry_Int_Tables_number   1
_chemical_formula_structural   NaLa2TaO6
_chemical_formula_sum   'Na2 La4 Ta2 O12'
_cell_volume   285.55423092
_cell_formula_units_Z   2
loop_
 _symmetry_equiv_pos_site_id
 _symmetry_equiv_pos_as_xyz
  1  'x, y, z'
loop_
 _atom_site_type_symbol
 _atom_site_label
 _atom_site_symmetry_multiplicity
 _atom_site_fract_x
 _atom_site_fract_y
 _atom_site_fract_z
 _atom_site_occupancy
  Na  Na0  1  0.50000000  0.00000000  0.50000000  1
  Na  Na1  1  0.00000000  0.00000000  0.00000000  1
  La  La0  1  0.05852000  0.77506900  0.74345900  1
  La  La1  1  0.55852000  0.22493100  0.75654100  1
  La  La2  1  0.44148000  0.77506900  0.24345900  1
  La  La3  1  0.94148000  0.22493100  0.25654100  1
  Ta  Ta0  1  0.50000000  0.50000000  0.00000000  1
  Ta  Ta1  1  0.00000000  0.50000000  0.50000000  1
  O  O0  1  0.72502000  0.74474600  0.42274800  1
  O  O1  1  0.22502000  0.25525400  0.07725200  1
  O  O2  1  0.27498000  0.25525400  0.57725200  1
  O  O3  1  0.77498000  0.74474600  0.92274800  1
  O  O4  1  0.06021700  0.60048400  0.27531900  1
  O  O5  1  0.56021700  0.39951600  0.22468100  1
  O  O6  1  0.93978300  0.39951600  0.72468100  1
  O  O7  1  0.43978300  0.60048400  0.77531900  1
  O  O8  1  0.32478600  0.83771900  0.94794600  1
  O  O9  1  0.82478600  0.16228100  0.55205400  1
  O  O10  1  0.67521400  0.16228100  0.05205400  1
  O  O11  1  0.17521400  0.83771900  0.44794600  1
loop_
_geom_bond_atom_site_label_1
_geom_bond_atom_site_label_2
_geom_bond_distance
_geom_bond_site_symmetry_2
Na0 O11 2.344870 1_545
Na0 O9 2.344870 1_555
Na0 O0 2.414062 1_545
Na0 O2 2.414062 1_555
Na0 O5 2.427931 1_555
Na0 O7 2.427931 1_545
Na1 O10 2.344870 1_455
Na1 O8 2.344870 1_544
Na1 O3 2.414062 1_444
Na1 O1 2.414062 1_555
Na1 O6 2.427931 1_454
Na1 O4 2.427931 1_545
La0 O6 2.370469 1_455
La0 O3 2.409632 1_455
La0 O9 2.410772 1_465
La0 O7 2.452554 1_555
La0 O2 2.628446 1_565
La0 O8 2.773573 1_555
La0 O11 2.855878 1_555
La0 O1 3.144271 1_556
La1 O7 2.370469 1_555
La1 O2 2.409632 1_555
La1 O8 2.410772 1_545
La1 O6 2.452554 1_555
La1 O3 2.628446 1_545
La1 O9 2.773573 1_555
La1 O10 2.855878 1_556
La1 O0 3.144271 1_555
La2 O5 2.370469 1_555
La2 O0 2.409632 1_555
La2 O10 2.410772 1_565
La2 O4 2.452554 1_555
La2 O1 2.628446 1_565
La2 O11 2.773573 1_555
La2 O8 2.855878 1_554
La2 O2 3.144271 1_555
La3 O4 2.370469 1_655
La3 O1 2.409632 1_655
La3 O11 2.410772 1_645
La3 O5 2.452554 1_555
La3 O0 2.628446 1_545
La3 O10 2.773573 1_555
La3 O9 2.855878 1_555
La3 O3 3.144271 1_554
O0 Ta1 2.022677 1_655
O1 Ta0 2.022677 1_555
O2 Ta1 2.022677 1_555
O3 Ta0 2.022677 1_556
O4 Ta1 2.014442 1_555
O5 Ta0 2.014442 1_555
O6 Ta1 2.014442 1_655
O7 Ta0 2.014442 1_556
O8 Ta0 1.999227 1_556
O9 Ta1 1.999227 1_655
O10 Ta0 1.999227 1_555
O11 Ta1 1.999227 1_555
