# generated using pymatgen
data_LiInPt
_symmetry_space_group_name_H-M   'P 1'
_cell_length_a   8.87966968
_cell_length_b   8.87966968
_cell_length_c   5.84120400
_cell_angle_alpha   90.00000000
_cell_angle_beta   90.00000000
_cell_angle_gamma   120.00001248
_symmetry_Int_Tables_number   1
_chemical_formula_structural   LiInPt
_chemical_formula_sum   'Li8 In8 Pt8'
_cell_volume   398.86559009
_cell_formula_units_Z   8
loop_
 _symmetry_equiv_pos_site_id
 _symmetry_equiv_pos_as_xyz
  1  'x, y, z'
loop_
 _atom_site_type_symbol
 _atom_site_label
 _atom_site_symmetry_multiplicity
 _atom_site_fract_x
 _atom_site_fract_y
 _atom_site_fract_z
 _atom_site_occupancy
  Li  Li0_0  1  0.16666650  0.33333350  0.00000000  1
  Li  Li0_1  1  0.16666650  0.33333350  0.50000000  1
  Li  Li0_2  1  0.16666650  0.83333350  0.00000000  1
  Li  Li0_3  1  0.16666650  0.83333350  0.50000000  1
  Li  Li0_4  1  0.66666650  0.33333350  0.00000000  1
  Li  Li0_5  1  0.66666650  0.33333350  0.50000000  1
  Li  Li0_6  1  0.66666650  0.83333350  0.00000000  1
  Li  Li0_7  1  0.66666650  0.83333350  0.50000000  1
  In  In0_0  1  0.33333350  0.16666650  0.25000000  1
  In  In0_1  1  0.33333350  0.16666650  0.75000000  1
  In  In0_2  1  0.33333350  0.66666650  0.25000000  1
  In  In0_3  1  0.33333350  0.66666650  0.75000000  1
  In  In0_4  1  0.83333350  0.16666650  0.25000000  1
  In  In0_5  1  0.83333350  0.16666650  0.75000000  1
  In  In0_6  1  0.83333350  0.66666650  0.25000000  1
  In  In0_7  1  0.83333350  0.66666650  0.75000000  1
  Pt  Pt0_0  1  0.00000000  0.00000000  0.00000000  1
  Pt  Pt0_1  1  0.00000000  0.00000000  0.50000000  1
  Pt  Pt0_2  1  0.00000000  0.50000000  0.00000000  1
  Pt  Pt0_3  1  0.00000000  0.50000000  0.50000000  1
  Pt  Pt0_4  1  0.50000000  0.00000000  0.00000000  1
  Pt  Pt0_5  1  0.50000000  0.00000000  0.50000000  1
  Pt  Pt0_6  1  0.50000000  0.50000000  0.00000000  1
  Pt  Pt0_7  1  0.50000000  0.50000000  0.50000000  1
loop_
_geom_bond_atom_site_label_1
_geom_bond_atom_site_label_2
_geom_bond_distance
_geom_bond_site_symmetry_2
Li0_0 Pt0_2 2.563337 1_555
Li0_0 Pt0_0 2.563341 1_555
Li0_0 Pt0_6 2.563341 1_555
Li0_0 Li0_1 2.920602 1_555
Li0_0 Li0_1 2.920602 1_554
Li0_1 Pt0_3 2.563337 1_555
Li0_1 Pt0_7 2.563341 1_555
Li0_1 Pt0_1 2.563341 1_555
Li0_2 Pt0_0 2.563337 1_565
Li0_2 Pt0_2 2.563341 1_555
Li0_2 Pt0_4 2.563341 1_565
Li0_2 Li0_3 2.920602 1_554
Li0_2 Li0_3 2.920602 1_555
Li0_3 Pt0_1 2.563337 1_565
Li0_3 Pt0_3 2.563341 1_555
Li0_3 Pt0_5 2.563341 1_565
Li0_4 Pt0_6 2.563337 1_555
Li0_4 Pt0_2 2.563341 1_655
Li0_4 Pt0_4 2.563341 1_555
Li0_4 Li0_5 2.920602 1_555
Li0_4 Li0_5 2.920602 1_554
Li0_5 Pt0_7 2.563337 1_555
Li0_5 Pt0_3 2.563341 1_655
Li0_5 Pt0_5 2.563341 1_555
Li0_6 Pt0_4 2.563337 1_565
Li0_6 Pt0_6 2.563341 1_555
Li0_6 Pt0_0 2.563341 1_665
Li0_6 Li0_7 2.920602 1_554
Li0_6 Li0_7 2.920602 1_555
Li0_7 Pt0_5 2.563337 1_565
Li0_7 Pt0_7 2.563341 1_555
Li0_7 Pt0_1 2.563341 1_665
In0_0 In0_1 2.920602 1_555
In0_0 In0_1 2.920602 1_554
In0_0 Li0_2 2.950114 1_545
In0_0 Li0_4 2.950114 1_555
In0_0 Li0_5 2.950114 1_555
In0_0 Li0_3 2.950114 1_545
In0_0 Pt0_4 2.950115 1_555
In0_0 Pt0_5 2.950115 1_555
In0_0 Pt0_1 2.950118 1_555
In0_0 Pt0_0 2.950118 1_555
In0_0 Pt0_6 2.950118 1_555
In0_0 Pt0_7 2.950118 1_555
In0_0 Li0_1 2.950122 1_555
In0_0 Li0_0 2.950122 1_555
In0_1 Li0_4 2.950114 1_556
In0_1 Li0_5 2.950114 1_555
In0_1 Li0_3 2.950114 1_545
In0_1 Li0_2 2.950114 1_546
In0_1 Pt0_4 2.950115 1_556
In0_1 Pt0_5 2.950115 1_555
In0_1 Pt0_1 2.950118 1_555
In0_1 Pt0_0 2.950118 1_556
In0_1 Pt0_6 2.950118 1_556
In0_1 Pt0_7 2.950118 1_555
In0_1 Li0_1 2.950122 1_555
In0_1 Li0_0 2.950122 1_556
In0_2 In0_3 2.920602 1_554
In0_2 In0_3 2.920602 1_555
In0_2 Li0_6 2.950114 1_555
In0_2 Li0_7 2.950114 1_555
In0_2 Li0_0 2.950114 1_555
In0_2 Li0_1 2.950114 1_555
In0_2 Pt0_6 2.950115 1_555
In0_2 Pt0_7 2.950115 1_555
In0_2 Pt0_4 2.950118 1_565
In0_2 Pt0_5 2.950118 1_565
In0_2 Pt0_3 2.950118 1_555
In0_2 Pt0_2 2.950118 1_555
In0_2 Li0_2 2.950122 1_555
In0_2 Li0_3 2.950122 1_555
In0_3 Li0_7 2.950114 1_555
In0_3 Li0_6 2.950114 1_556
In0_3 Li0_0 2.950114 1_556
In0_3 Li0_1 2.950114 1_555
In0_3 Pt0_6 2.950115 1_556
In0_3 Pt0_7 2.950115 1_555
In0_3 Pt0_4 2.950118 1_566
In0_3 Pt0_5 2.950118 1_565
In0_3 Pt0_3 2.950118 1_555
In0_3 Pt0_2 2.950118 1_556
In0_3 Li0_3 2.950122 1_555
In0_3 Li0_2 2.950122 1_556
In0_4 In0_5 2.920602 1_555
In0_4 In0_5 2.920602 1_554
In0_4 Li0_7 2.950114 1_545
In0_4 Li0_1 2.950114 1_655
In0_4 Li0_6 2.950114 1_545
In0_4 Li0_0 2.950114 1_655
In0_4 Pt0_0 2.950115 1_655
In0_4 Pt0_1 2.950115 1_655
In0_4 Pt0_3 2.950118 1_655
In0_4 Pt0_4 2.950118 1_555
In0_4 Pt0_5 2.950118 1_555
In0_4 Pt0_2 2.950118 1_655
In0_4 Li0_4 2.950122 1_555
In0_4 Li0_5 2.950122 1_555
In0_5 Li0_6 2.950114 1_546
In0_5 Li0_7 2.950114 1_545
In0_5 Li0_1 2.950114 1_655
In0_5 Li0_0 2.950114 1_656
In0_5 Pt0_1 2.950115 1_655
In0_5 Pt0_0 2.950115 1_656
In0_5 Pt0_3 2.950118 1_655
In0_5 Pt0_4 2.950118 1_556
In0_5 Pt0_5 2.950118 1_555
In0_5 Pt0_2 2.950118 1_656
In0_5 Li0_5 2.950122 1_555
In0_5 Li0_4 2.950122 1_556
In0_6 In0_7 2.920602 1_554
In0_6 In0_7 2.920602 1_555
In0_6 Li0_5 2.950114 1_555
In0_6 Li0_4 2.950114 1_555
In0_6 Li0_2 2.950114 1_655
In0_6 Li0_3 2.950114 1_655
In0_6 Pt0_3 2.950115 1_655
In0_6 Pt0_2 2.950115 1_655
In0_6 Pt0_7 2.950118 1_555
In0_6 Pt0_6 2.950118 1_555
In0_6 Pt0_1 2.950118 1_665
In0_6 Pt0_0 2.950118 1_665
In0_6 Li0_7 2.950122 1_555
In0_6 Li0_6 2.950122 1_555
In0_7 Li0_4 2.950114 1_556
In0_7 Li0_5 2.950114 1_555
In0_7 Li0_3 2.950114 1_655
In0_7 Li0_2 2.950114 1_656
In0_7 Pt0_3 2.950115 1_655
In0_7 Pt0_2 2.950115 1_656
In0_7 Pt0_7 2.950118 1_555
In0_7 Pt0_6 2.950118 1_556
In0_7 Pt0_1 2.950118 1_665
In0_7 Pt0_0 2.950118 1_666
In0_7 Li0_7 2.950122 1_555
In0_7 Li0_6 2.950122 1_556
Pt0_0 Pt0_1 2.920602 1_555
Pt0_0 Pt0_1 2.920602 1_554
Pt0_2 Pt0_3 2.920602 1_555
Pt0_2 Pt0_3 2.920602 1_554
Pt0_4 Pt0_5 2.920602 1_555
Pt0_4 Pt0_5 2.920602 1_554
Pt0_6 Pt0_7 2.920602 1_555
Pt0_6 Pt0_7 2.920602 1_554
