# generated using pymatgen
data_Rb2B7H5O14
_symmetry_space_group_name_H-M   'P 1'
_cell_length_a   12.02371400
_cell_length_b   8.15281400
_cell_length_c   14.61400486
_cell_angle_alpha   69.95420333
_cell_angle_beta   90.00000000
_cell_angle_gamma   90.00000000
_symmetry_Int_Tables_number   1
_chemical_formula_structural   Rb2B7H5O14
_chemical_formula_sum   'Rb8 B28 H20 O56'
_cell_volume   1345.78205364
_cell_formula_units_Z   4
loop_
 _symmetry_equiv_pos_site_id
 _symmetry_equiv_pos_as_xyz
  1  'x, y, z'
loop_
 _atom_site_type_symbol
 _atom_site_label
 _atom_site_symmetry_multiplicity
 _atom_site_fract_x
 _atom_site_fract_y
 _atom_site_fract_z
 _atom_site_occupancy
  Rb  Rb0  1  0.98204300  0.30717800  0.42580400  1
  Rb  Rb1  1  0.51795700  0.30717800  0.92580400  1
  Rb  Rb2  1  0.01795700  0.69282200  0.57419600  1
  Rb  Rb3  1  0.48204300  0.69282200  0.07419600  1
  Rb  Rb4  1  0.66832900  0.97292000  0.56814700  1
  Rb  Rb5  1  0.83167100  0.97292000  0.06814700  1
  Rb  Rb6  1  0.33167100  0.02708000  0.43185300  1
  Rb  Rb7  1  0.16832900  0.02708000  0.93185300  1
  B  B0  1  0.76490400  0.57219200  0.47972000  1
  B  B1  1  0.73509600  0.57219200  0.97972000  1
  B  B2  1  0.23509600  0.42780800  0.52028000  1
  B  B3  1  0.26490400  0.42780800  0.02028000  1
  B  B4  1  0.82554600  0.32535500  0.63506600  1
  B  B5  1  0.67445400  0.32535500  0.13506600  1
  B  B6  1  0.17445400  0.67464500  0.36493400  1
  B  B7  1  0.32554600  0.67464500  0.86493400  1
  B  B8  1  0.62269200  0.39218300  0.59791900  1
  B  B9  1  0.87730800  0.39218300  0.09791900  1
  B  B10  1  0.37730800  0.60781700  0.40208100  1
  B  B11  1  0.12269200  0.60781700  0.90208100  1
  B  B12  1  0.78808800  0.67041500  0.29757200  1
  B  B13  1  0.71191200  0.67041500  0.79757200  1
  B  B14  1  0.21191200  0.32958500  0.70242800  1
  B  B15  1  0.28808800  0.32958500  0.20242800  1
  B  B16  1  0.80251100  0.88525800  0.37509100  1
  B  B17  1  0.69748900  0.88525800  0.87509100  1
  B  B18  1  0.19748900  0.11474200  0.62490900  1
  B  B19  1  0.30251100  0.11474200  0.12490900  1
  B  B20  1  0.91720900  0.03477500  0.70916800  1
  B  B21  1  0.58279100  0.03477500  0.20916800  1
  B  B22  1  0.08279100  0.96522500  0.29083200  1
  B  B23  1  0.41720900  0.96522500  0.79083200  1
  B  B24  1  0.91023200  0.23036800  0.80043400  1
  B  B25  1  0.58976800  0.23036800  0.30043400  1
  B  B26  1  0.08976800  0.76963200  0.19956600  1
  B  B27  1  0.41023200  0.76963200  0.69956600  1
  H  H0  1  0.45464600  0.39760300  0.57116900  1
  H  H1  1  0.04535400  0.39760300  0.07116900  1
  H  H2  1  0.54535400  0.60239700  0.42883100  1
  H  H3  1  0.95464600  0.60239700  0.92883100  1
  H  H4  1  0.82037100  0.13470700  0.29845800  1
  H  H5  1  0.67962900  0.13470700  0.79845800  1
  H  H6  1  0.17962900  0.86529300  0.70154200  1
  H  H7  1  0.32037100  0.86529300  0.20154200  1
  H  H8  1  0.96699700  0.79112300  0.77021500  1
  H  H9  1  0.53300300  0.79112300  0.27021500  1
  H  H10  1  0.03300300  0.20887700  0.22978500  1
  H  H11  1  0.46699700  0.20887700  0.72978500  1
  H  H12  1  0.75418300  0.52820800  0.21622900  1
  H  H13  1  0.74581700  0.52820800  0.71622900  1
  H  H14  1  0.24581700  0.47179200  0.78377100  1
  H  H15  1  0.25418300  0.47179200  0.28377100  1
  H  H16  1  0.89312000  0.35746500  0.89212800  1
  H  H17  1  0.60688000  0.35746500  0.39212800  1
  H  H18  1  0.10688000  0.64253500  0.10787200  1
  H  H19  1  0.39312000  0.64253500  0.60787200  1
  O  O0  1  0.84568500  0.46707800  0.54643400  1
  O  O1  1  0.65431500  0.46707800  0.04643400  1
  O  O2  1  0.15431500  0.53292200  0.45356600  1
  O  O3  1  0.34568500  0.53292200  0.95356600  1
  O  O4  1  0.70313200  0.29362500  0.65885400  1
  O  O5  1  0.79686800  0.29362500  0.15885400  1
  O  O6  1  0.29686800  0.70637500  0.34114600  1
  O  O7  1  0.20313200  0.70637500  0.84114600  1
  O  O8  1  0.64749000  0.52742500  0.51366300  1
  O  O9  1  0.85251000  0.52742500  0.01366300  1
  O  O10  1  0.35251000  0.47257500  0.48633700  1
  O  O11  1  0.14749000  0.47257500  0.98633700  1
  O  O12  1  0.77041100  0.54162600  0.38422700  1
  O  O13  1  0.72958900  0.54162600  0.88422700  1
  O  O14  1  0.22958900  0.45837400  0.61577300  1
  O  O15  1  0.27041100  0.45837400  0.11577300  1
  O  O16  1  0.80917400  0.84289000  0.29050500  1
  O  O17  1  0.69082600  0.84289000  0.79050500  1
  O  O18  1  0.19082600  0.15711000  0.70949500  1
  O  O19  1  0.30917400  0.15711000  0.20949500  1
  O  O20  1  0.78515000  0.76228000  0.46428900  1
  O  O21  1  0.71485000  0.76228000  0.96428900  1
  O  O22  1  0.21485000  0.23772000  0.53571100  1
  O  O23  1  0.28515000  0.23772000  0.03571100  1
  O  O24  1  0.87526400  0.16112300  0.62876900  1
  O  O25  1  0.62473600  0.16112300  0.12876900  1
  O  O26  1  0.12473600  0.83887700  0.37123100  1
  O  O27  1  0.37526400  0.83887700  0.87123100  1
  O  O28  1  0.93723100  0.06726100  0.79619500  1
  O  O29  1  0.56276900  0.06726100  0.29619500  1
  O  O30  1  0.06276900  0.93273900  0.20380500  1
  O  O31  1  0.43723100  0.93273900  0.70380500  1
  O  O32  1  0.87436800  0.36397900  0.72075200  1
  O  O33  1  0.62563200  0.36397900  0.22075200  1
  O  O34  1  0.12563200  0.63602100  0.27924800  1
  O  O35  1  0.37436800  0.63602100  0.77924800  1
  O  O36  1  0.51254000  0.34737200  0.62273100  1
  O  O37  1  0.98746000  0.34737200  0.12273100  1
  O  O38  1  0.48746000  0.65262800  0.37726900  1
  O  O39  1  0.01254000  0.65262800  0.87726900  1
  O  O40  1  0.79030300  0.63886100  0.21084200  1
  O  O41  1  0.70969700  0.63886100  0.71084200  1
  O  O42  1  0.20969700  0.36113900  0.78915800  1
  O  O43  1  0.29030300  0.36113900  0.28915800  1
  O  O44  1  0.81468900  0.05844700  0.36731500  1
  O  O45  1  0.68531100  0.05844700  0.86731500  1
  O  O46  1  0.18531100  0.94155300  0.63268500  1
  O  O47  1  0.31468900  0.94155300  0.13268500  1
  O  O48  1  0.93927600  0.87172300  0.70603300  1
  O  O49  1  0.56072400  0.87172300  0.20603300  1
  O  O50  1  0.06072400  0.12827700  0.29396700  1
  O  O51  1  0.43927600  0.12827700  0.79396700  1
  O  O52  1  0.92367100  0.24730100  0.89116100  1
  O  O53  1  0.57632900  0.24730100  0.39116100  1
  O  O54  1  0.07632900  0.75269900  0.10883900  1
  O  O55  1  0.42367100  0.75269900  0.60883900  1
loop_
_geom_bond_atom_site_label_1
_geom_bond_atom_site_label_2
_geom_bond_distance
_geom_bond_site_symmetry_2
B0 O0 1.433726 1_555
B0 O8 1.499399 1_555
B0 O12 1.500803 1_555
B0 O20 1.507402 1_555
B1 O1 1.433726 1_556
B1 O9 1.499399 1_556
B1 O13 1.500803 1_555
B1 O21 1.507402 1_555
B2 O2 1.433726 1_555
B2 O10 1.499399 1_555
B2 O14 1.500803 1_555
B2 O22 1.507402 1_555
B3 O3 1.433726 1_554
B3 O11 1.499399 1_554
B3 O15 1.500803 1_555
B3 O23 1.507402 1_555
B4 O0 1.430179 1_555
B4 O24 1.497696 1_555
B4 O32 1.510668 1_555
B4 O4 1.514109 1_555
B5 O1 1.430179 1_555
B5 O25 1.497696 1_555
B5 O33 1.510668 1_555
B5 O5 1.514109 1_555
B6 O2 1.430179 1_555
B6 O26 1.497696 1_555
B6 O34 1.510668 1_555
B6 O6 1.514109 1_555
B7 O3 1.430179 1_555
B7 O27 1.497696 1_555
B7 O35 1.510668 1_555
B7 O7 1.514109 1_555
B8 O4 1.372431 1_555
B8 O8 1.374790 1_555
B8 O36 1.388621 1_555
B9 O5 1.372431 1_555
B9 O9 1.374790 1_555
B9 O37 1.388621 1_555
B10 O6 1.372431 1_555
B10 O10 1.374790 1_555
B10 O38 1.388621 1_555
B11 O7 1.372431 1_555
B11 O11 1.374790 1_555
B11 O39 1.388621 1_555
B12 O12 1.356397 1_555
B12 O40 1.377282 1_555
B12 O16 1.397378 1_555
B13 O13 1.356397 1_555
B13 O41 1.377282 1_555
B13 O17 1.397378 1_555
B14 O14 1.356397 1_555
B14 O42 1.377282 1_555
B14 O18 1.397378 1_555
B15 O15 1.356397 1_555
B15 O43 1.377282 1_555
B15 O19 1.397378 1_555
B16 O20 1.360904 1_555
B16 O44 1.384932 1_565
B16 O16 1.395167 1_555
B17 O21 1.360904 1_555
B17 O45 1.384932 1_565
B17 O17 1.395167 1_555
B18 O22 1.360904 1_555
B18 O46 1.384932 1_545
B18 O18 1.395167 1_555
B19 O23 1.360904 1_555
B19 O47 1.384932 1_545
B19 O19 1.395167 1_555
B20 O24 1.366103 1_555
B20 O48 1.371632 1_545
B20 O28 1.405891 1_555
B21 O25 1.366103 1_555
B21 O49 1.371632 1_545
B21 O29 1.405891 1_555
B22 O26 1.366103 1_555
B22 O50 1.371632 1_565
B22 O30 1.405891 1_555
B23 O27 1.366103 1_555
B23 O51 1.371632 1_565
B23 O31 1.405891 1_555
B24 O32 1.363432 1_555
B24 O52 1.388748 1_555
B24 O28 1.390688 1_555
B25 O33 1.363432 1_555
B25 O53 1.388748 1_555
B25 O29 1.390688 1_555
B26 O34 1.363432 1_555
B26 O54 1.388748 1_555
B26 O30 1.390688 1_555
B27 O35 1.363432 1_555
B27 O55 1.388748 1_555
B27 O31 1.390688 1_555
H0 O36 1.004251 1_555
H1 O37 1.004251 1_455
H2 O38 1.004251 1_555
H3 O39 1.004251 1_655
H4 O44 0.987377 1_555
H5 O45 0.987377 1_555
H6 O46 0.987377 1_555
H7 O47 0.987377 1_555
H8 O48 1.000064 1_555
H8 O39 1.676721 1_655
H9 O49 1.000064 1_555
H9 O38 1.676721 1_555
H10 O50 1.000064 1_555
H10 O37 1.676721 1_455
H11 O51 1.000064 1_555
H11 O36 1.676721 1_555
H12 O40 0.979779 1_555
H13 O41 0.979779 1_555
H14 O42 0.979779 1_555
H15 O43 0.979779 1_555
H16 O52 0.974938 1_555
H17 O53 0.974938 1_555
H18 O54 0.974938 1_555
H19 O55 0.974938 1_555
O0 Rb2 2.890369 1_655
O0 Rb0 3.011774 1_555
O1 Rb3 2.890369 1_555
O1 Rb1 3.011774 1_554
O2 Rb0 2.890369 1_455
O2 Rb2 3.011774 1_555
O3 Rb1 2.890369 1_555
O3 Rb3 3.011774 1_556
O4 Rb4 3.338376 1_545
O5 Rb5 3.338376 1_545
O6 Rb6 3.338376 1_565
O7 Rb7 3.338376 1_565
O12 Rb0 3.114723 1_555
O13 Rb1 3.114723 1_555
O14 Rb2 3.114723 1_555
O15 Rb3 3.114723 1_555
O16 Rb5 3.065112 1_555
O17 Rb4 3.065112 1_555
O18 Rb7 3.065112 1_555
O19 Rb6 3.065112 1_555
O20 Rb4 3.002106 1_555
O20 Rb2 3.180017 1_655
O21 Rb5 3.002106 1_556
O21 Rb3 3.180017 1_556
O22 Rb6 3.002106 1_555
O22 Rb0 3.180017 1_455
O23 Rb7 3.002106 1_554
O23 Rb1 3.180017 1_554
O24 Rb0 3.072929 1_555
O24 Rb4 3.203417 1_545
O25 Rb1 3.072929 1_554
O25 Rb5 3.203417 1_545
O26 Rb2 3.072929 1_555
O26 Rb6 3.203417 1_565
O27 Rb3 3.072929 1_556
O27 Rb7 3.203417 1_565
O28 Rb7 3.363533 1_655
O29 Rb6 3.363533 1_555
O30 Rb5 3.363533 1_455
O31 Rb4 3.363533 1_555
O32 Rb2 3.289254 1_655
O33 Rb3 3.289254 1_555
O34 Rb0 3.289254 1_455
O35 Rb1 3.289254 1_555
O40 Rb5 2.849581 1_555
O41 Rb4 2.849581 1_555
O42 Rb7 2.849581 1_555
O43 Rb6 2.849581 1_555
O44 Rb0 3.174918 1_555
O44 Rb4 3.285437 1_545
O45 Rb1 3.174918 1_555
O45 Rb5 3.285437 1_546
O46 Rb2 3.174918 1_555
O46 Rb6 3.285437 1_565
O47 Rb3 3.174918 1_555
O47 Rb7 3.285437 1_564
O48 Rb2 2.942933 1_655
O49 Rb3 2.942933 1_555
O50 Rb0 2.942933 1_455
O51 Rb1 2.942933 1_555
O52 Rb5 2.991837 1_546
O52 Rb7 3.390990 1_655
O53 Rb4 2.991837 1_545
O53 Rb6 3.390990 1_555
O54 Rb7 2.991837 1_564
O54 Rb5 3.390990 1_455
O55 Rb6 2.991837 1_565
O55 Rb4 3.390990 1_555
