# generated using pymatgen
data_HfCrAgS4
_symmetry_space_group_name_H-M   'P 1'
_cell_length_a   14.18340408
_cell_length_b   3.61061300
_cell_length_c   6.10042465
_cell_angle_alpha   90.00000000
_cell_angle_beta   114.28212723
_cell_angle_gamma   90.00000000
_symmetry_Int_Tables_number   1
_chemical_formula_structural   HfCrAgS4
_chemical_formula_sum   'Hf2 Cr2 Ag2 S8'
_cell_volume   284.76932981
_cell_formula_units_Z   2
loop_
 _symmetry_equiv_pos_site_id
 _symmetry_equiv_pos_as_xyz
  1  'x, y, z'
loop_
 _atom_site_type_symbol
 _atom_site_label
 _atom_site_symmetry_multiplicity
 _atom_site_fract_x
 _atom_site_fract_y
 _atom_site_fract_z
 _atom_site_occupancy
  Hf  Hf0  1  0.74675100  0.50000000  0.23410900  1
  Hf  Hf1  1  0.25324900  0.50000000  0.76589100  1
  Cr  Cr0  1  0.24522900  0.00000000  0.23101900  1
  Cr  Cr1  1  0.75477100  0.00000000  0.76898100  1
  Ag  Ag0  1  0.00000000  0.50000000  0.50000000  1
  Ag  Ag1  1  0.50000000  0.00000000  0.50000000  1
  S  S0  1  0.13823400  0.50000000  0.98521700  1
  S  S1  1  0.86176600  0.50000000  0.01478300  1
  S  S2  1  0.63334900  0.00000000  0.96740000  1
  S  S3  1  0.36665100  0.00000000  0.03260000  1
  S  S4  1  0.14248100  0.00000000  0.46744300  1
  S  S5  1  0.85751900  0.00000000  0.53255700  1
  S  S6  1  0.64996900  0.50000000  0.50904100  1
  S  S7  1  0.35003100  0.50000000  0.49095900  1
loop_
_geom_bond_atom_site_label_1
_geom_bond_atom_site_label_2
_geom_bond_distance
_geom_bond_site_symmetry_2
Hf0 S1 2.499299 1_555
Hf0 S2 2.518147 1_554
Hf0 S2 2.518147 1_564
Hf0 S6 2.567265 1_555
Hf0 S5 2.586433 1_565
Hf0 S5 2.586433 1_555
Hf1 S0 2.499299 1_555
Hf1 S3 2.518147 1_556
Hf1 S3 2.518147 1_566
Hf1 S7 2.567265 1_555
Hf1 S4 2.586433 1_555
Hf1 S4 2.586433 1_565
Cr0 S4 2.435706 1_555
Cr0 S0 2.437012 1_544
Cr0 S0 2.437012 1_554
Cr0 S7 2.458578 1_555
Cr0 S7 2.458578 1_545
Cr0 S3 2.479023 1_555
Cr1 S5 2.435706 1_555
Cr1 S1 2.437012 1_556
Cr1 S1 2.437012 1_546
Cr1 S6 2.458578 1_545
Cr1 S6 2.458578 1_555
Cr1 S2 2.479023 1_555
Ag0 S5 2.777154 1_465
Ag0 S5 2.777154 1_455
Ag0 S4 2.777154 1_555
Ag0 S4 2.777154 1_565
Ag0 S1 2.798692 1_455
Ag0 S0 2.798692 1_555
Ag1 S2 2.696646 1_555
Ag1 S3 2.696646 1_555
Ag1 S7 2.773106 1_545
Ag1 S7 2.773106 1_555
Ag1 S6 2.773106 1_545
Ag1 S6 2.773106 1_555
