# generated using pymatgen
data_Ga3As
_symmetry_space_group_name_H-M   'P 1'
_cell_length_a   4.30986000
_cell_length_b   4.30986000
_cell_length_c   4.30986000
_cell_angle_alpha   90.00000000
_cell_angle_beta   90.00000000
_cell_angle_gamma   90.00000000
_symmetry_Int_Tables_number   1
_chemical_formula_structural   Ga3As
_chemical_formula_sum   'Ga3 As1'
_cell_volume   80.05518929
_cell_formula_units_Z   1
loop_
 _symmetry_equiv_pos_site_id
 _symmetry_equiv_pos_as_xyz
  1  'x, y, z'
loop_
 _atom_site_type_symbol
 _atom_site_label
 _atom_site_symmetry_multiplicity
 _atom_site_fract_x
 _atom_site_fract_y
 _atom_site_fract_z
 _atom_site_occupancy
  Ga  Ga0  1  0.00000000  0.50000000  0.50000000  1
  Ga  Ga1  1  0.50000000  0.00000000  0.50000000  1
  Ga  Ga2  1  0.50000000  0.50000000  0.00000000  1
  As  As0  1  0.00000000  0.00000000  0.00000000  1
loop_
_geom_bond_atom_site_label_1
_geom_bond_atom_site_label_2
_geom_bond_distance
_geom_bond_site_symmetry_2
Ga0 Ga2 3.047531 1_456
Ga0 Ga2 3.047531 1_555
Ga0 Ga1 3.047531 1_455
Ga0 Ga1 3.047531 1_565
Ga0 Ga2 3.047531 1_455
Ga0 Ga1 3.047531 1_555
Ga0 Ga2 3.047531 1_556
Ga0 Ga1 3.047531 1_465
Ga1 Ga2 3.047531 1_546
Ga1 Ga2 3.047531 1_555
Ga1 Ga2 3.047531 1_556
Ga1 Ga2 3.047531 1_545
As0 Ga0 3.047531 1_545
As0 Ga2 3.047531 1_445
As0 Ga2 3.047531 1_555
As0 Ga1 3.047531 1_554
As0 Ga1 3.047531 1_454
As0 Ga0 3.047531 1_544
As0 Ga0 3.047531 1_555
As0 Ga2 3.047531 1_455
As0 Ga1 3.047531 1_555
As0 Ga0 3.047531 1_554
As0 Ga2 3.047531 1_545
As0 Ga1 3.047531 1_455
