# generated using pymatgen
data_Mg4Si7
_symmetry_space_group_name_H-M   'P 1'
_cell_length_a   4.29484400
_cell_length_b   6.79172058
_cell_length_c   13.50100506
_cell_angle_alpha   92.93167908
_cell_angle_beta   92.04423418
_cell_angle_gamma   92.41347814
_symmetry_Int_Tables_number   1
_chemical_formula_structural   Mg4Si7
_chemical_formula_sum   'Mg8 Si14'
_cell_volume   392.66922141
_cell_formula_units_Z   2
loop_
 _symmetry_equiv_pos_site_id
 _symmetry_equiv_pos_as_xyz
  1  'x, y, z'
loop_
 _atom_site_type_symbol
 _atom_site_label
 _atom_site_symmetry_multiplicity
 _atom_site_fract_x
 _atom_site_fract_y
 _atom_site_fract_z
 _atom_site_occupancy
  Mg  Mg0  1  0.24066500  0.11415900  0.93355300  1
  Mg  Mg1  1  0.22027600  0.35246900  0.50505300  1
  Mg  Mg2  1  0.68907900  0.19385000  0.35804000  1
  Mg  Mg3  1  0.75399600  0.56103300  0.65688000  1
  Mg  Mg4  1  0.30726400  0.56999100  0.84607500  1
  Mg  Mg5  1  0.67345400  0.53144300  0.16832300  1
  Mg  Mg6  1  0.70665800  0.66318600  0.41172700  1
  Mg  Mg7  1  0.72321100  0.04582100  0.58216400  1
  Si  Si0  1  0.82250500  0.42513200  0.95731000  1
  Si  Si1  1  0.70149300  0.84573200  0.99348700  1
  Si  Si2  1  0.18197300  0.69045700  0.04181300  1
  Si  Si3  1  0.74162100  0.16952900  0.07715600  1
  Si  Si4  1  0.24586600  0.73914800  0.55910600  1
  Si  Si5  1  0.19104900  0.96333400  0.42981600  1
  Si  Si6  1  0.24309700  0.17436000  0.17809400  1
  Si  Si7  1  0.73647400  0.88890200  0.81076900  1
  Si  Si8  1  0.24071700  0.26289000  0.69942600  1
  Si  Si9  1  0.20345600  0.79290100  0.26450700  1
  Si  Si10  1  0.18963200  0.43922000  0.30446300  1
  Si  Si11  1  0.74876800  0.24962000  0.79627500  1
  Si  Si12  1  0.23076900  0.90618100  0.72028700  1
  Si  Si13  1  0.70075600  0.92424300  0.20920200  1
loop_
_geom_bond_atom_site_label_1
_geom_bond_atom_site_label_2
_geom_bond_distance
_geom_bond_site_symmetry_2
Mg0 Si0 2.842574 1_455
Mg0 Si3 2.844128 1_556
Mg0 Si1 2.869857 1_545
Mg0 Si3 2.963760 1_456
Mg0 Si11 2.967056 1_455
Mg0 Si7 2.997176 1_445
Mg0 Si1 3.044615 1_445
Mg0 Si11 3.055725 1_555
Mg0 Si12 3.139686 1_545
Mg0 Si7 3.144800 1_545
Mg0 Si0 3.199559 1_555
Mg1 Si4 2.686183 1_555
Mg1 Si8 2.723200 1_555
Mg1 Si5 2.778635 1_545
Mg1 Si10 2.800527 1_555
Mg2 Si13 2.651775 1_545
Mg2 Si10 2.802595 1_655
Mg2 Si5 2.826011 1_545
Mg2 Si10 2.866234 1_555
Mg2 Si5 2.885897 1_645
Mg2 Si6 3.033541 1_555
Mg3 Si4 2.795649 1_655
Mg3 Si4 2.854590 1_555
Mg3 Si11 2.902043 1_555
Mg3 Si7 2.972029 1_555
Mg3 Si8 3.020458 1_555
Mg3 Si8 3.031457 1_655
Mg3 Si12 3.112268 1_655
Mg4 Si0 2.785599 1_455
Mg4 Si8 2.799832 1_555
Mg4 Si2 2.803565 1_556
Mg4 Si7 2.854589 1_555
Mg4 Si0 2.866626 1_555
Mg4 Si12 2.936930 1_555
Mg4 Si11 3.011777 1_555
Mg4 Si1 3.073468 1_555
Mg4 Si11 3.199334 1_455
Mg5 Si13 2.693301 1_555
Mg5 Si3 2.723856 1_555
Mg5 Si10 2.892943 1_555
Mg5 Si10 2.937573 1_655
Mg5 Si2 2.943255 1_555
Mg5 Si6 2.997983 1_555
Mg5 Si0 3.000985 1_554
Mg5 Si2 3.018231 1_655
Mg5 Si9 3.027744 1_555
Mg5 Si9 3.038724 1_655
Mg6 Si5 2.845850 1_655
Mg6 Si4 2.898932 1_555
Mg6 Si10 2.933018 1_555
Mg6 Si10 2.994732 1_655
Mg6 Si4 3.008979 1_655
Mg6 Si9 3.070904 1_555
Mg6 Si5 3.080081 1_555
Mg6 Si9 3.098818 1_655
Mg7 Si4 2.857733 1_545
Mg7 Si5 2.975487 1_645
Mg7 Si8 2.975583 1_655
Mg7 Si12 3.023796 1_545
Mg7 Si12 3.032134 1_645
Mg7 Si5 3.034329 1_545
Mg7 Si8 3.037536 1_555
Mg7 Si11 3.136785 1_555
Mg7 Si4 3.138661 1_645
Si0 Si11 2.429418 1_555
Si0 Si3 2.455404 1_556
Si0 Si2 2.522318 1_656
Si1 Si3 2.417029 1_566
Si1 Si2 2.440049 1_656
Si1 Si7 2.508133 1_555
Si1 Si2 2.548021 1_556
Si3 Si6 2.505388 1_655
Si3 Si6 2.579136 1_555
Si4 Si5 2.386091 1_555
Si5 Si9 2.464395 1_555
Si10 Si6 2.438897 1_555
Si10 Si9 2.487458 1_555
Si11 Si7 2.466161 1_545
Si11 Si8 2.510782 1_555
Si11 Si8 2.524887 1_655
Si12 Si4 2.406312 1_555
Si12 Si8 2.452021 1_565
Si12 Si7 2.463772 1_555
Si12 Si7 2.488285 1_455
Si13 Si9 2.436483 1_555
Si13 Si9 2.475871 1_655
Si13 Si3 2.507145 1_565
Si13 Si6 2.687161 1_565
