# generated using pymatgen
data_LiHoSn2
_symmetry_space_group_name_H-M   'P 1'
_cell_length_a   4.34395200
_cell_length_b   4.49073800
_cell_length_c   9.87060303
_cell_angle_alpha   90.00000000
_cell_angle_beta   102.71167105
_cell_angle_gamma   90.00000000
_symmetry_Int_Tables_number   1
_chemical_formula_structural   LiHoSn2
_chemical_formula_sum   'Li2 Ho2 Sn4'
_cell_volume   187.83180352
_cell_formula_units_Z   2
loop_
 _symmetry_equiv_pos_site_id
 _symmetry_equiv_pos_as_xyz
  1  'x, y, z'
loop_
 _atom_site_type_symbol
 _atom_site_label
 _atom_site_symmetry_multiplicity
 _atom_site_fract_x
 _atom_site_fract_y
 _atom_site_fract_z
 _atom_site_occupancy
  Li  Li0  1  0.67261700  0.25000000  0.34523400  1
  Li  Li1  1  0.32738300  0.75000000  0.65476600  1
  Ho  Ho0  1  0.89397800  0.25000000  0.78795600  1
  Ho  Ho1  1  0.10602200  0.75000000  0.21204400  1
  Sn  Sn0  1  0.54478600  0.25000000  0.08957200  1
  Sn  Sn1  1  0.45521400  0.75000000  0.91042800  1
  Sn  Sn2  1  0.25196400  0.25000000  0.50392800  1
  Sn  Sn3  1  0.74803600  0.75000000  0.49607200  1
loop_
_geom_bond_atom_site_label_1
_geom_bond_atom_site_label_2
_geom_bond_distance
_geom_bond_site_symmetry_2
Li0 Sn0 2.461686 1_555
Li0 Sn2 2.655617 1_655
Li0 Sn2 2.655617 1_555
Li0 Sn3 2.674146 1_555
Li0 Sn3 2.674146 1_545
Li1 Sn1 2.461686 1_555
Li1 Sn3 2.655617 1_555
Li1 Sn3 2.655617 1_455
Li1 Sn2 2.674146 1_565
Li1 Sn2 2.674146 1_555
Ho0 Sn1 3.339128 1_555
Ho0 Sn1 3.339128 1_545
Ho0 Sn1 3.339128 1_655
Ho0 Sn1 3.339128 1_645
Ho0 Li1 3.376954 1_555
Ho0 Li1 3.376954 1_545
Ho0 Li1 3.376954 1_655
Ho0 Li1 3.376954 1_645
Ho0 Sn2 3.492374 1_555
Ho0 Sn2 3.492374 1_655
Ho0 Sn3 3.597269 1_545
Ho0 Sn3 3.597269 1_555
Ho0 Sn0 3.626518 1_556
Ho0 Sn0 3.626518 1_656
Ho1 Sn0 3.339128 1_455
Ho1 Sn0 3.339128 1_465
Ho1 Sn0 3.339128 1_565
Ho1 Sn0 3.339128 1_555
Ho1 Li0 3.376954 1_455
Ho1 Li0 3.376954 1_465
Ho1 Li0 3.376954 1_565
Ho1 Li0 3.376954 1_555
Ho1 Sn3 3.492374 1_555
Ho1 Sn3 3.492374 1_455
Ho1 Sn2 3.597269 1_565
Ho1 Sn2 3.597269 1_555
Ho1 Sn1 3.626518 1_554
Ho1 Sn1 3.626518 1_454
