# generated using pymatgen
data_Sm2MgSe4
_symmetry_space_group_name_H-M   'P 1'
_cell_length_a   8.40692404
_cell_length_b   8.40692404
_cell_length_c   8.40692404
_cell_angle_alpha   60.00000000
_cell_angle_beta   60.00000000
_cell_angle_gamma   60.00000000
_symmetry_Int_Tables_number   1
_chemical_formula_structural   Sm2MgSe4
_chemical_formula_sum   'Sm4 Mg2 Se8'
_cell_volume   420.14226549
_cell_formula_units_Z   2
loop_
 _symmetry_equiv_pos_site_id
 _symmetry_equiv_pos_as_xyz
  1  'x, y, z'
loop_
 _atom_site_type_symbol
 _atom_site_label
 _atom_site_symmetry_multiplicity
 _atom_site_fract_x
 _atom_site_fract_y
 _atom_site_fract_z
 _atom_site_occupancy
  Sm  Sm0  1  0.62500000  0.12500000  0.62500000  1
  Sm  Sm1  1  0.62500000  0.62500000  0.12500000  1
  Sm  Sm2  1  0.12500000  0.62500000  0.62500000  1
  Sm  Sm3  1  0.62500000  0.62500000  0.62500000  1
  Mg  Mg0  1  0.00000000  0.00000000  0.00000000  1
  Mg  Mg1  1  0.25000000  0.25000000  0.25000000  1
  Se  Se0  1  0.37832600  0.37832600  0.37832600  1
  Se  Se1  1  0.86502100  0.37832600  0.37832600  1
  Se  Se2  1  0.37832600  0.86502100  0.37832600  1
  Se  Se3  1  0.37832600  0.37832600  0.86502100  1
  Se  Se4  1  0.87167400  0.87167400  0.38497900  1
  Se  Se5  1  0.87167400  0.38497900  0.87167400  1
  Se  Se6  1  0.38497900  0.87167400  0.87167400  1
  Se  Se7  1  0.87167400  0.87167400  0.87167400  1
loop_
_geom_bond_atom_site_label_1
_geom_bond_atom_site_label_2
_geom_bond_distance
_geom_bond_site_symmetry_2
Mg0 Se7 2.642576 1_444
Mg0 Se6 2.642582 1_544
Mg0 Se5 2.642582 1_454
Mg0 Se4 2.642582 1_445
Mg1 Se0 2.642576 1_555
Mg1 Se2 2.642582 1_545
Mg1 Se1 2.642582 1_455
Mg1 Se3 2.642582 1_554
Se0 Sm2 2.933286 1_555
Se0 Sm1 2.933286 1_555
Se0 Sm0 2.933286 1_555
Se1 Sm1 2.933280 1_555
Se1 Sm0 2.933280 1_555
Se1 Sm3 2.933286 1_555
Se2 Sm1 2.933280 1_555
Se2 Sm2 2.933280 1_555
Se2 Sm3 2.933286 1_555
Se3 Sm0 2.933280 1_555
Se3 Sm2 2.933280 1_555
Se3 Sm3 2.933286 1_555
Se4 Sm2 2.933280 1_655
Se4 Sm0 2.933280 1_565
Se4 Sm3 2.933286 1_555
Se5 Sm2 2.933280 1_655
Se5 Sm1 2.933280 1_556
Se5 Sm3 2.933286 1_555
Se6 Sm1 2.933280 1_556
Se6 Sm0 2.933280 1_565
Se6 Sm3 2.933286 1_555
Se7 Sm0 2.933286 1_565
Se7 Sm2 2.933286 1_655
Se7 Sm1 2.933286 1_556
