# generated using pymatgen
data_Rb3YbV2O8
_symmetry_space_group_name_H-M   'P 1'
_cell_length_a   6.07650998
_cell_length_b   6.07650998
_cell_length_c   7.93525800
_cell_angle_alpha   90.00000000
_cell_angle_beta   90.00000000
_cell_angle_gamma   119.99999975
_symmetry_Int_Tables_number   1
_chemical_formula_structural   Rb3YbV2O8
_chemical_formula_sum   'Rb3 Yb1 V2 O8'
_cell_volume   253.74653178
_cell_formula_units_Z   1
loop_
 _symmetry_equiv_pos_site_id
 _symmetry_equiv_pos_as_xyz
  1  'x, y, z'
loop_
 _atom_site_type_symbol
 _atom_site_label
 _atom_site_symmetry_multiplicity
 _atom_site_fract_x
 _atom_site_fract_y
 _atom_site_fract_z
 _atom_site_occupancy
  Rb  Rb0  1  0.66666700  0.33333300  0.31903700  1
  Rb  Rb1  1  0.33333300  0.66666700  0.68096300  1
  Rb  Rb2  1  0.00000000  0.00000000  0.00000000  1
  Yb  Yb0  1  0.00000000  0.00000000  0.50000000  1
  V  V0  1  0.66666700  0.33333300  0.75602800  1
  V  V1  1  0.33333300  0.66666700  0.24397200  1
  O  O0  1  0.66666700  0.33333300  0.97262000  1
  O  O1  1  0.33333300  0.66666700  0.02738000  1
  O  O2  1  0.82344900  0.64689700  0.67871500  1
  O  O3  1  0.17655100  0.35310300  0.32128500  1
  O  O4  1  0.82344900  0.17655100  0.67871500  1
  O  O5  1  0.17655100  0.82344900  0.32128500  1
  O  O6  1  0.35310300  0.17655100  0.67871500  1
  O  O7  1  0.64689700  0.82344900  0.32128500  1
loop_
_geom_bond_atom_site_label_1
_geom_bond_atom_site_label_2
_geom_bond_distance
_geom_bond_site_symmetry_2
O0 V0 1.718713 1_555
O0 Rb0 2.748908 1_556
O0 Rb2 3.514992 1_656
O0 Rb2 3.514998 1_556
O0 Rb2 3.514998 1_666
O1 V1 1.718713 1_555
O1 Rb1 2.748908 1_554
O1 Rb2 3.514992 1_565
O1 Rb2 3.514998 1_665
O1 Rb2 3.514998 1_555
O2 V0 1.760460 1_555
O2 Yb0 2.337511 1_665
O2 Rb1 3.040082 1_655
O2 Rb1 3.040094 1_555
O2 Rb2 3.154783 1_666
O2 Rb0 3.296808 1_555
O3 V1 1.760460 1_555
O3 Yb0 2.337511 1_555
O3 Rb0 3.040082 1_455
O3 Rb0 3.040094 1_555
O3 Rb2 3.154783 1_555
O3 Rb1 3.296808 1_555
O4 V0 1.760460 1_555
O4 Yb0 2.337507 1_655
O4 Rb1 3.040088 1_545
O4 Rb1 3.040088 1_655
O4 Rb2 3.154780 1_656
O4 Rb0 3.296808 1_555
O5 V1 1.760460 1_555
O5 Yb0 2.337507 1_565
O5 Rb0 3.040088 1_455
O5 Rb0 3.040088 1_565
O5 Rb2 3.154780 1_565
O5 Rb1 3.296808 1_555
O6 V0 1.760460 1_555
O6 Yb0 2.337511 1_555
O6 Rb1 3.040082 1_545
O6 Rb1 3.040094 1_555
O6 Rb2 3.154783 1_556
O6 Rb0 3.296808 1_555
O7 V1 1.760460 1_555
O7 Yb0 2.337511 1_665
O7 Rb0 3.040082 1_565
O7 Rb0 3.040094 1_555
O7 Rb2 3.154783 1_665
O7 Rb1 3.296808 1_555
