# generated using pymatgen
data_Ho4(Al8Pt3)3
_symmetry_space_group_name_H-M   'P 1'
_cell_length_a   7.47732546
_cell_length_b   7.49051146
_cell_length_c   13.07481588
_cell_angle_alpha   84.58183188
_cell_angle_beta   79.07408289
_cell_angle_gamma   59.92735436
_symmetry_Int_Tables_number   1
_chemical_formula_structural   Ho4(Al8Pt3)3
_chemical_formula_sum   'Ho4 Al24 Pt9'
_cell_volume   622.24418866
_cell_formula_units_Z   1
loop_
 _symmetry_equiv_pos_site_id
 _symmetry_equiv_pos_as_xyz
  1  'x, y, z'
loop_
 _atom_site_type_symbol
 _atom_site_label
 _atom_site_symmetry_multiplicity
 _atom_site_fract_x
 _atom_site_fract_y
 _atom_site_fract_z
 _atom_site_occupancy
  Ho  Ho0  1  0.39406079  0.16821609  0.80789325  1
  Ho  Ho1  1  0.60593921  0.83178391  0.19210675  1
  Ho  Ho2  1  0.73373106  0.49868523  0.80785039  1
  Ho  Ho3  1  0.26626894  0.50131477  0.19214961  1
  Al  Al0  1  0.68443457  0.83365096  0.94495916  1
  Al  Al1  1  0.31556543  0.16634904  0.05504084  1
  Al  Al2  1  0.14660248  0.83254962  0.56124924  1
  Al  Al3  1  0.85339752  0.16745038  0.43875076  1
  Al  Al4  1  0.48007206  0.16664030  0.55898237  1
  Al  Al5  1  0.51992794  0.83335970  0.44101763  1
  Al  Al6  1  0.21726434  0.16548050  0.32937548  1
  Al  Al7  1  0.78273566  0.83451950  0.67062452  1
  Al  Al8  1  0.43713522  0.50662618  0.67077128  1
  Al  Al9  1  0.56286478  0.49337382  0.32922872  1
  Al  Al10  1  0.10974979  0.15985685  0.66936690  1
  Al  Al11  1  0.89025021  0.84014315  0.33063310  1
  Al  Al12  1  0.35221382  0.49979338  0.94492621  1
  Al  Al13  1  0.64778618  0.50020662  0.05507379  1
  Al  Al14  1  0.01515695  0.16729829  0.95389583  1
  Al  Al15  1  0.98484305  0.83270171  0.04610417  1
  Al  Al16  1  0.18661884  0.49951541  0.44110675  1
  Al  Al17  1  0.81338116  0.50048459  0.55889325  1
  Al  Al18  1  0.73420709  0.16394033  0.18325523  1
  Al  Al19  1  0.26579291  0.83605967  0.81674477  1
  Al  Al20  1  0.06136395  0.63110230  0.81544637  1
  Al  Al21  1  0.93863605  0.36889770  0.18455363  1
  Al  Al22  1  0.85544049  0.04146806  0.81624263  1
  Al  Al23  1  0.14455951  0.95853194  0.18375737  1
  Pt  Pt0  1  0.12018687  0.49179589  0.63889974  1
  Pt  Pt1  1  0.87981313  0.50820411  0.36110026  1
  Pt  Pt2  1  0.65679883  0.17156124  0.99984267  1
  Pt  Pt3  1  0.34320117  0.82843876  0.00015733  1
  Pt  Pt4  1  0.53792992  0.16673274  0.36117248  1
  Pt  Pt5  1  0.46207008  0.83326726  0.63882752  1
  Pt  Pt6  1  0.77916309  0.17485779  0.63746828  1
  Pt  Pt7  1  0.22083691  0.82514221  0.36253172  1
  Pt  Pt8  1  -0.00000000  0.50000000  0.00000000  1
loop_
_geom_bond_atom_site_label_1
_geom_bond_atom_site_label_2
_geom_bond_distance
_geom_bond_site_symmetry_2
Ho0 Pt0 3.268027 1_555
Ho0 Pt5 3.283635 1_545
Ho0 Pt6 3.309036 1_555
Ho0 Pt2 3.476934 1_555
Ho0 Pt8 3.493098 1_556
Ho0 Pt3 3.512954 1_546
Ho1 Pt1 3.268027 1_555
Ho1 Pt4 3.283635 1_565
Ho1 Pt7 3.309036 1_555
Ho1 Pt3 3.476934 1_555
Ho1 Pt8 3.493098 1_655
Ho1 Pt2 3.512954 1_564
Ho2 Pt0 3.268757 1_655
Ho2 Pt5 3.293141 1_555
Ho2 Pt6 3.296904 1_555
Ho2 Pt3 3.480109 1_556
Ho2 Pt8 3.492323 1_656
Ho2 Pt2 3.512844 1_555
Ho3 Pt1 3.268757 1_455
Ho3 Pt4 3.293141 1_555
Ho3 Pt7 3.296904 1_555
Ho3 Pt2 3.480109 1_554
Ho3 Pt8 3.492323 1_555
Ho3 Pt3 3.512844 1_555
Al0 Pt3 2.535560 1_556
Al0 Pt8 2.593378 1_656
Al0 Pt2 2.593612 1_565
Al0 Ho2 3.052375 1_555
Al0 Ho0 3.062668 1_565
Al0 Ho1 3.172919 1_556
Al1 Pt2 2.535560 1_554
Al1 Pt8 2.593378 1_555
Al1 Pt3 2.593612 1_545
Al1 Ho3 3.052375 1_555
Al1 Ho1 3.062668 1_545
Al1 Ho0 3.172919 1_554
Al2 Pt7 2.551756 1_555
Al2 Pt6 2.738720 1_465
Al2 Pt5 2.741132 1_555
Al2 Pt0 2.743079 1_555
Al3 Pt6 2.551756 1_555
Al3 Pt7 2.738720 1_645
Al3 Pt4 2.741132 1_555
Al3 Pt1 2.743079 1_555
Al4 Pt4 2.540091 1_555
Al4 Pt6 2.660490 1_555
Al4 Pt0 2.666734 1_555
Al4 Pt5 2.671131 1_545
Al4 Ho0 3.195545 1_555
Al5 Pt5 2.540091 1_555
Al5 Pt7 2.660490 1_555
Al5 Pt1 2.666734 1_555
Al5 Pt4 2.671131 1_565
Al5 Ho1 3.195545 1_555
Al6 Pt4 2.514587 1_555
Al6 Pt7 2.532795 1_545
Al6 Pt1 2.538048 1_455
Al6 Ho3 3.082813 1_555
Al6 Ho1 3.082997 1_545
Al7 Pt5 2.514587 1_555
Al7 Pt6 2.532795 1_565
Al7 Pt0 2.538048 1_655
Al7 Ho2 3.082813 1_555
Al7 Ho0 3.082997 1_565
Al8 Pt6 2.513694 1_555
Al8 Pt5 2.535797 1_555
Al8 Pt0 2.539586 1_555
Al8 Ho0 3.079717 1_555
Al8 Ho2 3.080364 1_555
Al9 Pt7 2.513694 1_555
Al9 Pt4 2.535797 1_555
Al9 Pt1 2.539586 1_555
Al9 Ho1 3.079717 1_555
Al9 Ho3 3.080364 1_555
Al10 Pt0 2.518444 1_555
Al10 Pt6 2.529917 1_455
Al10 Pt5 2.531996 1_545
Al10 Ho2 3.067819 1_455
Al10 Ho0 3.068911 1_555
Al11 Pt1 2.518444 1_555
Al11 Pt7 2.529917 1_655
Al11 Pt4 2.531996 1_565
Al11 Ho3 3.067819 1_655
Al11 Ho1 3.068911 1_555
Al12 Pt2 2.534181 1_555
Al12 Pt8 2.594550 1_556
Al12 Pt3 2.595593 1_556
Al12 Ho0 3.053801 1_555
Al12 Ho2 3.064505 1_555
Al12 Ho3 3.173909 1_556
Al13 Pt3 2.534181 1_555
Al13 Pt8 2.594550 1_655
Al13 Pt2 2.595593 1_554
Al13 Ho1 3.053801 1_555
Al13 Ho3 3.064505 1_555
Al13 Ho2 3.173909 1_554
Al14 Pt8 2.561552 1_556
Al14 Pt2 2.617177 1_455
Al14 Pt3 2.618773 1_546
Al14 Ho2 3.103092 1_455
Al14 Ho0 3.104502 1_555
Al15 Pt8 2.561552 1_655
Al15 Pt3 2.617177 1_655
Al15 Pt2 2.618773 1_564
Al15 Ho3 3.103092 1_655
Al15 Ho1 3.104502 1_555
Al16 Pt0 2.540003 1_555
Al16 Pt4 2.663681 1_555
Al16 Pt1 2.666185 1_455
Al16 Pt7 2.668850 1_555
Al16 Ho3 3.196127 1_555
Al17 Pt1 2.540003 1_555
Al17 Pt5 2.663681 1_555
Al17 Pt0 2.666185 1_655
Al17 Pt6 2.668850 1_555
Al17 Ho2 3.196127 1_555
Al18 Pt4 2.499994 1_555
Al18 Pt2 2.560527 1_554
Al18 Ho1 3.068968 1_545
Al18 Ho3 3.111584 1_555
Al19 Pt5 2.499994 1_555
Al19 Pt3 2.560527 1_556
Al19 Ho0 3.068968 1_565
Al19 Ho2 3.111584 1_555
Al20 Pt0 2.494123 1_555
Al20 Pt8 2.565515 1_556
Al20 Ho2 3.088908 1_455
Al20 Ho0 3.089877 1_555
Al21 Pt1 2.494123 1_555
Al21 Pt8 2.565515 1_655
Al21 Ho3 3.088908 1_655
Al21 Ho1 3.089877 1_555
Al22 Pt6 2.506083 1_555
Al22 Pt2 2.560836 1_555
Al22 Ho2 3.068015 1_555
Al22 Ho0 3.107356 1_555
Al23 Pt7 2.506083 1_555
Al23 Pt3 2.560836 1_555
Al23 Ho3 3.068015 1_555
Al23 Ho1 3.107356 1_555
