# generated using pymatgen
data_SrCaFe(PO4)2
_symmetry_space_group_name_H-M   'P 1'
_cell_length_a   5.73033900
_cell_length_b   6.96447538
_cell_length_c   9.57771984
_cell_angle_alpha   109.34407689
_cell_angle_beta   101.49958353
_cell_angle_gamma   98.28271396
_symmetry_Int_Tables_number   1
_chemical_formula_structural   SrCaFe(PO4)2
_chemical_formula_sum   'Sr2 Ca2 Fe2 P4 O16'
_cell_volume   344.17240512
_cell_formula_units_Z   2
loop_
 _symmetry_equiv_pos_site_id
 _symmetry_equiv_pos_as_xyz
  1  'x, y, z'
loop_
 _atom_site_type_symbol
 _atom_site_label
 _atom_site_symmetry_multiplicity
 _atom_site_fract_x
 _atom_site_fract_y
 _atom_site_fract_z
 _atom_site_occupancy
  Sr  Sr0  1  0.20925600  0.74824800  0.05995100  1
  Sr  Sr1  1  0.79074400  0.25175200  0.94004900  1
  Ca  Ca0  1  0.34658100  0.75640400  0.66277300  1
  Ca  Ca1  1  0.65341900  0.24359600  0.33722700  1
  Fe  Fe0  1  0.07664400  0.28954900  0.55734700  1
  Fe  Fe1  1  0.92335600  0.71045100  0.44265300  1
  P  P0  1  0.16342900  0.19202100  0.22282200  1
  P  P1  1  0.83657100  0.80797900  0.77717800  1
  P  P2  1  0.54392100  0.73580200  0.29817500  1
  P  P3  1  0.45607900  0.26419800  0.70182500  1
  O  O0  1  0.97106100  0.68307900  0.87842700  1
  O  O1  1  0.44950300  0.29068900  0.16277800  1
  O  O2  1  0.88892400  0.03803400  0.76369200  1
  O  O3  1  0.26602000  0.40643200  0.68992100  1
  O  O4  1  0.55049700  0.70931100  0.83722200  1
  O  O5  1  0.42561400  0.13593800  0.59776600  1
  O  O6  1  0.57438600  0.86406200  0.40223400  1
  O  O7  1  0.39277600  0.12773900  0.87018300  1
  O  O8  1  0.11107600  0.96196600  0.23630800  1
  O  O9  1  0.60722400  0.87226100  0.12981700  1
  O  O10  1  0.02893900  0.31692100  0.12157300  1
  O  O11  1  0.03307400  0.20070300  0.38544400  1
  O  O12  1  0.96692600  0.79929700  0.61455600  1
  O  O13  1  0.26693200  0.59523000  0.36702900  1
  O  O14  1  0.73398000  0.59356800  0.31007900  1
  O  O15  1  0.73306800  0.40477000  0.63297100  1
loop_
_geom_bond_atom_site_label_1
_geom_bond_atom_site_label_2
_geom_bond_distance
_geom_bond_site_symmetry_2
Ca0 O4 1.989883 1_555
Ca0 O12 2.216659 1_455
Ca0 O13 2.592722 1_555
Ca0 O7 2.625670 1_565
Ca1 O1 1.989883 1_555
Ca1 O11 2.216659 1_655
Ca1 O15 2.592722 1_555
Ca1 O9 2.625670 1_545
Fe0 O3 1.401387 1_555
Fe0 O11 1.507530 1_555
Fe0 O15 2.384004 1_455
Fe1 O14 1.401387 1_555
Fe1 O12 1.507530 1_555
Fe1 O13 2.384004 1_655
O0 P1 1.656796 1_555
O0 Sr0 1.855882 1_656
O1 P0 1.950222 1_555
O2 P1 1.639461 1_545
O2 Sr1 2.083178 1_555
O3 P3 1.586362 1_555
O4 P1 1.950222 1_555
O5 P3 1.057173 1_555
O6 P2 1.057173 1_555
O7 P3 2.187237 1_555
O7 Sr1 2.198990 1_555
O8 P0 1.639461 1_565
O8 Sr0 2.083178 1_555
O9 P2 2.187237 1_555
O9 Sr0 2.198990 1_555
O10 P0 1.656796 1_555
O10 Sr1 1.855882 1_454
O11 P0 1.844480 1_555
O12 P1 1.844480 1_555
O13 P2 2.076065 1_555
O14 P2 1.586362 1_555
O15 P3 2.076065 1_555
