# generated using pymatgen
data_CaMgNi4
_symmetry_space_group_name_H-M   'P 1'
_cell_length_a   4.91022815
_cell_length_b   4.91015250
_cell_length_c   4.91024984
_cell_angle_alpha   60.00077558
_cell_angle_beta   60.00126706
_cell_angle_gamma   60.00070312
_symmetry_Int_Tables_number   1
_chemical_formula_structural   CaMgNi4
_chemical_formula_sum   'Ca1 Mg1 Ni4'
_cell_volume   83.71326036
_cell_formula_units_Z   1
loop_
 _symmetry_equiv_pos_site_id
 _symmetry_equiv_pos_as_xyz
  1  'x, y, z'
loop_
 _atom_site_type_symbol
 _atom_site_label
 _atom_site_symmetry_multiplicity
 _atom_site_fract_x
 _atom_site_fract_y
 _atom_site_fract_z
 _atom_site_occupancy
  Ca  Ca0  1  0.00000182  0.99999677  0.00000263  1
  Mg  Mg0  1  0.24999726  0.25000100  0.24999974  1
  Ni  Ni0  1  0.62405758  0.62405656  0.62405570  1
  Ni  Ni1  1  0.62405819  0.62405777  0.12782527  1
  Ni  Ni2  1  0.12782456  0.62405774  0.62405797  1
  Ni  Ni3  1  0.62405758  0.12782716  0.62405670  1
loop_
_geom_bond_atom_site_label_1
_geom_bond_atom_site_label_2
_geom_bond_distance
_geom_bond_site_symmetry_2
Ca0 Ni1 2.880846 1_455
Ca0 Ni2 2.880857 1_554
Ca0 Ni1 2.880858 1_465
Ca0 Ni2 2.880859 1_564
Ca0 Ni1 2.880870 1_555
Ca0 Ni2 2.880878 1_555
Ca0 Ni3 2.880884 1_464
Ca0 Ni0 2.880894 1_464
Ca0 Ni3 2.880901 1_564
Ca0 Ni0 2.880903 1_455
Ca0 Ni3 2.880905 1_465
Ca0 Ni0 2.880908 1_554
Ca0 Mg0 3.006844 1_565
Ca0 Mg0 3.006849 1_555
Ca0 Mg0 3.006946 1_465
Ca0 Mg0 3.006954 1_564
Mg0 Ni2 2.876905 1_555
Mg0 Ni1 2.876906 1_555
Mg0 Ni2 2.876911 1_545
Mg0 Ni1 2.876913 1_545
Mg0 Ni3 2.876928 1_555
Mg0 Ni1 2.876929 1_455
Mg0 Ni0 2.876936 1_545
Mg0 Ni3 2.876947 1_455
Mg0 Ni0 2.876948 1_455
Mg0 Ni2 2.876948 1_554
Mg0 Ni3 2.876972 1_554
Mg0 Ni0 2.876972 1_554
Ni0 Ni3 2.436560 1_555
Ni0 Ni2 2.436609 1_555
Ni0 Ni1 2.436611 1_555
Ni0 Ni3 2.473593 1_565
Ni0 Ni2 2.473619 1_655
Ni0 Ni1 2.473639 1_556
Ni1 Ni3 2.436623 1_555
Ni1 Ni2 2.436670 1_555
Ni1 Ni3 2.473636 1_564
Ni1 Ni2 2.473663 1_654
Ni2 Ni3 2.436618 1_555
Ni2 Ni3 2.473624 1_465
