# generated using pymatgen
data_Te4Mo3WSe4
_symmetry_space_group_name_H-M   'P 1'
_cell_length_a   3.44018423
_cell_length_b   3.44018423
_cell_length_c   39.06346800
_cell_angle_alpha   90.00000000
_cell_angle_beta   90.00000000
_cell_angle_gamma   120.00000437
_symmetry_Int_Tables_number   1
_chemical_formula_structural   Te4Mo3WSe4
_chemical_formula_sum   'Te4 Mo3 W1 Se4'
_cell_volume   400.37302557
_cell_formula_units_Z   1
loop_
 _symmetry_equiv_pos_site_id
 _symmetry_equiv_pos_as_xyz
  1  'x, y, z'
loop_
 _atom_site_type_symbol
 _atom_site_label
 _atom_site_symmetry_multiplicity
 _atom_site_fract_x
 _atom_site_fract_y
 _atom_site_fract_z
 _atom_site_occupancy
  Te  Te0  1  0.33333300  0.66666700  0.32925300  1
  Te  Te1  1  0.33333300  0.66666700  0.70528100  1
  Te  Te2  1  0.33333300  0.66666700  0.23432700  1
  Te  Te3  1  0.33333300  0.66666700  0.60978200  1
  Mo  Mo0  1  0.33333300  0.66666700  0.09393400  1
  Mo  Mo1  1  0.33333300  0.66666700  0.46966200  1
  Mo  Mo2  1  0.66666700  0.33333300  0.28182900  1
  W  W0  1  0.66666700  0.33333300  0.65753500  1
  Se  Se0  1  0.66666700  0.33333300  0.05209200  1
  Se  Se1  1  0.66666700  0.33333300  0.42777700  1
  Se  Se2  1  0.66666700  0.33333300  0.13576900  1
  Se  Se3  1  0.66666700  0.33333300  0.51150600  1
loop_
_geom_bond_atom_site_label_1
_geom_bond_atom_site_label_2
_geom_bond_distance
_geom_bond_site_symmetry_2
Te1 W0 2.724635 1_455
Te1 W0 2.724635 1_565
Te1 W0 2.724640 1_555
Te3 W0 2.724822 1_455
Te3 W0 2.724822 1_565
Te3 W0 2.724827 1_555
Mo0 Se2 2.572085 1_455
Mo0 Se2 2.572085 1_565
Mo0 Se2 2.572090 1_555
Mo0 Se0 2.572259 1_565
Mo0 Se0 2.572259 1_455
Mo0 Se0 2.572264 1_555
Mo1 Se3 2.572309 1_455
Mo1 Se3 2.572309 1_565
Mo1 Se3 2.572313 1_555
Mo1 Se1 2.573327 1_565
Mo1 Se1 2.573327 1_455
Mo1 Se1 2.573332 1_555
Mo2 Te0 2.716040 1_545
Mo2 Te0 2.716040 1_655
Mo2 Te0 2.716045 1_555
Mo2 Te2 2.718119 1_655
Mo2 Te2 2.718119 1_545
Mo2 Te2 2.718124 1_555
