# generated using pymatgen
data_U3SiPt5
_symmetry_space_group_name_H-M   'P 1'
_cell_length_a   8.37120670
_cell_length_b   8.37120670
_cell_length_c   8.37120670
_cell_angle_alpha   130.28617057
_cell_angle_beta   126.91846055
_cell_angle_gamma   75.68317669
_symmetry_Int_Tables_number   1
_chemical_formula_structural   U3SiPt5
_chemical_formula_sum   'U6 Si2 Pt10'
_cell_volume   348.05932392
_cell_formula_units_Z   2
loop_
 _symmetry_equiv_pos_site_id
 _symmetry_equiv_pos_as_xyz
  1  'x, y, z'
loop_
 _atom_site_type_symbol
 _atom_site_label
 _atom_site_symmetry_multiplicity
 _atom_site_fract_x
 _atom_site_fract_y
 _atom_site_fract_z
 _atom_site_occupancy
  U  U0  1  0.26486900  0.54671700  0.71467200  1
  U  U1  1  0.73513100  0.44980300  0.28184800  1
  U  U2  1  0.33204400  0.04671700  0.28184800  1
  U  U3  1  0.66795600  0.94980300  0.71467200  1
  U  U4  1  0.11562200  0.75111700  0.36673900  1
  U  U5  1  0.88437800  0.25111700  0.63549500  1
  Si  Si0  1  0.72038500  0.74972500  0.97011000  1
  Si  Si1  1  0.27961500  0.24972500  0.02934000  1
  Pt  Pt0  1  0.04480000  0.89090300  0.73017600  1
  Pt  Pt1  1  0.95520100  0.68537700  0.84610400  1
  Pt  Pt2  1  0.66072700  0.39090300  0.84610400  1
  Pt  Pt3  1  0.33927300  0.18537700  0.73017600  1
  Pt  Pt4  1  0.96662200  0.10302000  0.27076600  1
  Pt  Pt5  1  0.03337800  0.30414400  0.13639800  1
  Pt  Pt6  1  0.33225400  0.60302000  0.13639800  1
  Pt  Pt7  1  0.66774600  0.80414400  0.27076600  1
  Pt  Pt8  1  0.45790400  0.55439400  0.51229800  1
  Pt  Pt9  1  0.54209600  0.05439400  0.09649000  1
loop_
_geom_bond_atom_site_label_1
_geom_bond_atom_site_label_2
_geom_bond_distance
_geom_bond_site_symmetry_2
Si0 U4 2.956819 1_656
Si1 U5 2.956819 1_454
Pt0 Si1 2.536988 1_566
Pt0 U4 2.863010 1_555
Pt0 Pt7 2.866899 1_455
Pt0 Pt5 2.924732 1_566
Pt0 U0 2.981748 1_555
Pt0 U3 3.005548 1_455
Pt0 U2 3.038297 1_566
Pt0 U1 3.092672 1_455
Pt1 Si0 2.536992 1_555
Pt1 U5 2.863017 1_555
Pt1 Pt6 2.866896 1_656
Pt1 Pt4 2.924729 1_566
Pt1 U1 2.981751 1_555
Pt1 U2 3.005543 1_666
Pt1 U3 3.038294 1_555
Pt1 U0 3.092669 1_655
Pt2 Si0 2.536992 1_555
Pt2 U5 2.863017 1_555
Pt2 Pt5 2.866896 1_656
Pt2 Pt7 2.924729 1_556
Pt2 U2 2.981753 1_555
Pt2 U1 3.005548 1_556
Pt2 U0 3.038297 1_555
Pt2 U3 3.092668 1_545
Pt3 Si1 2.536992 1_556
Pt3 U4 2.863017 1_545
Pt3 Pt4 2.866896 1_455
Pt3 Pt6 2.924729 1_556
Pt3 U3 2.981758 1_545
Pt3 U0 3.005548 1_555
Pt3 U1 3.038297 1_556
Pt3 U2 3.092664 1_555
Pt4 Si0 2.546881 1_544
Pt4 Pt5 2.842844 1_655
Pt4 U5 2.922544 1_555
Pt4 U2 2.931029 1_655
Pt4 Pt9 2.939798 1_555
Pt4 U1 3.045773 1_555
Pt4 U0 3.070705 1_655
Pt4 U3 3.073895 1_544
Pt4 U4 3.304370 1_645
Pt5 Si1 2.546881 1_555
Pt5 U4 2.922544 1_555
Pt5 U3 2.931033 1_444
Pt5 Pt8 2.939798 1_555
Pt5 U0 3.045773 1_555
Pt5 U1 3.070705 1_455
Pt5 U2 3.073891 1_555
Pt5 U5 3.304370 1_454
Pt6 Si1 2.546881 1_555
Pt6 Pt7 2.842844 1_555
Pt6 U4 2.922544 1_555
Pt6 U0 2.931037 1_554
Pt6 Pt8 2.939798 1_555
Pt6 U3 3.045775 1_555
Pt6 U2 3.070705 1_565
Pt6 U1 3.073895 1_555
Pt6 U5 3.304370 1_454
Pt7 Si0 2.546881 1_554
Pt7 U5 2.922544 1_565
Pt7 U1 2.931037 1_555
Pt7 Pt9 2.939798 1_565
Pt7 U2 3.045780 1_565
Pt7 U3 3.070700 1_555
Pt7 U0 3.073895 1_554
Pt7 U4 3.304370 1_655
Pt8 Si0 2.397011 1_555
Pt8 Si1 2.525176 1_555
Pt8 U4 2.910959 1_555
Pt8 U0 2.994389 1_555
Pt8 U3 2.994394 1_555
Pt9 Si1 2.397011 1_555
Pt9 Si0 2.525176 1_544
Pt9 U5 2.910959 1_555
Pt9 U1 2.994389 1_555
Pt9 U2 2.994397 1_555
