# generated using pymatgen
data_Ba3Sc4(CuO4)3
_symmetry_space_group_name_H-M   'P 1'
_cell_length_a   9.50341878
_cell_length_b   9.50341878
_cell_length_c   9.50341878
_cell_angle_alpha   101.42990912
_cell_angle_beta   101.42990912
_cell_angle_gamma   127.13261783
_symmetry_Int_Tables_number   1
_chemical_formula_structural   Ba3Sc4(CuO4)3
_chemical_formula_sum   'Ba6 Sc8 Cu6 O24'
_cell_volume   612.73165067
_cell_formula_units_Z   2
loop_
 _symmetry_equiv_pos_site_id
 _symmetry_equiv_pos_as_xyz
  1  'x, y, z'
loop_
 _atom_site_type_symbol
 _atom_site_label
 _atom_site_symmetry_multiplicity
 _atom_site_fract_x
 _atom_site_fract_y
 _atom_site_fract_z
 _atom_site_occupancy
  Ba  Ba0  1  0.27715000  0.22285000  0.50000000  1
  Ba  Ba1  1  0.22285000  0.72285000  0.94569900  1
  Ba  Ba2  1  0.77715000  0.27715000  0.05430100  1
  Ba  Ba3  1  0.72285000  0.77715000  0.50000000  1
  Ba  Ba4  1  0.50000000  0.50000000  0.00000000  1
  Ba  Ba5  1  0.00000000  0.00000000  0.00000000  1
  Sc  Sc0  1  0.00889900  0.25000000  0.75889900  1
  Sc  Sc1  1  0.25000000  0.49110100  0.24110100  1
  Sc  Sc2  1  0.25000000  0.00889900  0.75889900  1
  Sc  Sc3  1  0.49110100  0.25000000  0.24110100  1
  Sc  Sc4  1  0.99110100  0.75000000  0.24110100  1
  Sc  Sc5  1  0.75000000  0.50889900  0.75889900  1
  Sc  Sc6  1  0.75000000  0.99110100  0.24110100  1
  Sc  Sc7  1  0.50889900  0.75000000  0.75889900  1
  Cu  Cu0  1  0.10369800  0.39630200  0.50000000  1
  Cu  Cu1  1  0.39630200  0.89630200  0.29260400  1
  Cu  Cu2  1  0.60369800  0.10369800  0.70739600  1
  Cu  Cu3  1  0.89630200  0.60369800  0.50000000  1
  Cu  Cu4  1  0.75000000  0.25000000  0.50000000  1
  Cu  Cu5  1  0.25000000  0.75000000  0.50000000  1
  O  O0  1  0.26242100  0.99861900  0.26104000  1
  O  O1  1  0.73757900  0.00138100  0.73896000  1
  O  O2  1  0.99861900  0.73757900  0.73619800  1
  O  O3  1  0.00138100  0.26242100  0.26380200  1
  O  O4  1  0.23757900  0.49861900  0.73619800  1
  O  O5  1  0.49861900  0.76242100  0.26104000  1
  O  O6  1  0.50138100  0.23757900  0.73896000  1
  O  O7  1  0.76242100  0.50138100  0.26380200  1
  O  O8  1  0.12250400  0.37749600  0.00000000  1
  O  O9  1  0.37749600  0.37749600  0.25499300  1
  O  O10  1  0.12250400  0.12250400  0.74500700  1
  O  O11  1  0.37749600  0.12250400  0.00000000  1
  O  O12  1  0.87749600  0.62250400  0.00000000  1
  O  O13  1  0.62250400  0.62250400  0.74500700  1
  O  O14  1  0.87749600  0.87749600  0.25499300  1
  O  O15  1  0.62250400  0.87749600  0.00000000  1
  O  O16  1  0.61468700  0.11468700  0.26794900  1
  O  O17  1  0.84673800  0.34673800  0.73205100  1
  O  O18  1  0.11468700  0.84673800  0.50000000  1
  O  O19  1  0.34673800  0.61468700  0.50000000  1
  O  O20  1  0.65326200  0.38531300  0.50000000  1
  O  O21  1  0.38531300  0.88531300  0.73205100  1
  O  O22  1  0.15326200  0.65326200  0.26794900  1
  O  O23  1  0.88531300  0.15326200  0.50000000  1
loop_
_geom_bond_atom_site_label_1
_geom_bond_atom_site_label_2
_geom_bond_distance
_geom_bond_site_symmetry_2
Ba0 O6 2.704375 1_555
Ba0 O0 2.704375 1_545
Ba0 O18 2.914961 1_545
Ba0 O20 2.914961 1_555
Ba0 Cu0 2.952097 1_555
Ba0 O10 3.005829 1_555
Ba0 O9 3.005829 1_555
Ba0 O13 3.005835 1_555
Ba0 O14 3.005835 1_445
Ba0 O4 3.352798 1_555
Ba0 O3 3.352798 1_555
Ba0 O23 3.366122 1_455
Ba0 O19 3.366122 1_555
Ba1 O2 2.704369 1_455
Ba1 O4 2.704369 1_555
Ba1 O21 2.914952 1_555
Ba1 O17 2.914959 1_455
Ba1 Cu1 2.952105 1_556
Ba1 O15 3.005837 1_556
Ba1 O11 3.005837 1_566
Ba1 O12 3.005843 1_456
Ba1 O8 3.005843 1_556
Ba1 O5 3.352805 1_556
Ba1 O0 3.352805 1_556
Ba1 O16 3.366126 1_566
Ba1 O22 3.366131 1_556
Ba2 O7 2.704369 1_555
Ba2 O3 2.704369 1_655
Ba2 O16 2.914952 1_555
Ba2 O22 2.914959 1_655
Ba2 Cu2 2.952105 1_554
Ba2 O15 3.005837 1_545
Ba2 O11 3.005837 1_555
Ba2 O12 3.005843 1_555
Ba2 O8 3.005843 1_655
Ba2 O1 3.352805 1_554
Ba2 O6 3.352805 1_554
Ba2 O21 3.366126 1_544
Ba2 O17 3.366131 1_554
Ba3 O5 2.704375 1_555
Ba3 O1 2.704375 1_565
Ba3 O19 2.914961 1_555
Ba3 O23 2.914961 1_565
Ba3 Cu3 2.952097 1_555
Ba3 O13 3.005829 1_555
Ba3 O14 3.005829 1_555
Ba3 O9 3.005835 1_555
Ba3 O10 3.005835 1_665
Ba3 O7 3.352798 1_555
Ba3 O2 3.352798 1_555
Ba3 O18 3.366122 1_655
Ba3 O20 3.366122 1_555
Ba4 O8 3.030355 1_555
Ba4 O11 3.030355 1_555
Ba4 O15 3.030355 1_555
Ba4 O12 3.030355 1_555
Ba4 O10 3.030358 1_554
Ba4 O14 3.030358 1_555
Ba4 O13 3.030364 1_554
Ba4 O9 3.030364 1_555
Ba4 O7 3.158209 1_555
Ba4 O6 3.158209 1_554
Ba4 O4 3.158209 1_554
Ba4 O5 3.158209 1_555
Ba5 O8 3.030355 1_555
Ba5 O11 3.030355 1_555
Ba5 O15 3.030355 1_445
Ba5 O12 3.030355 1_445
Ba5 O9 3.030358 1_555
Ba5 O13 3.030358 1_444
Ba5 O14 3.030364 1_445
Ba5 O10 3.030364 1_554
Ba5 O0 3.158209 1_545
Ba5 O3 3.158209 1_555
Ba5 O2 3.158209 1_444
Ba5 O1 3.158209 1_454
Cu0 O19 1.963328 1_555
Cu0 O23 1.963328 1_455
Cu0 O4 2.027875 1_555
Cu0 O3 2.027875 1_555
Cu1 O16 1.963328 1_565
Cu1 O22 1.963328 1_555
Cu1 O0 2.027875 1_555
Cu1 O5 2.027875 1_555
Cu2 O21 1.963328 1_545
Cu2 O17 1.963328 1_555
Cu2 O1 2.027875 1_555
Cu2 O6 2.027875 1_555
Cu3 O20 1.963328 1_555
Cu3 O18 1.963328 1_655
Cu3 O7 2.027875 1_555
Cu3 O2 2.027875 1_555
Cu4 O23 1.981448 1_555
Cu4 O16 1.981448 1_555
Cu4 O17 1.981448 1_555
Cu4 O20 1.981448 1_555
Cu5 O22 1.981448 1_555
Cu5 O21 1.981448 1_555
Cu5 O18 1.981448 1_555
Cu5 O19 1.981448 1_555
O0 Sc3 2.130849 1_565
O0 Sc4 2.130849 1_455
O1 Sc7 2.130849 1_545
O1 Sc0 2.130849 1_655
O2 Sc2 2.130849 1_665
O2 Sc5 2.130849 1_555
O3 Sc1 2.130849 1_555
O3 Sc6 2.130849 1_445
O4 Sc7 2.130849 1_555
O4 Sc0 2.130849 1_555
O5 Sc1 2.130849 1_555
O5 Sc6 2.130849 1_555
O6 Sc2 2.130849 1_555
O6 Sc5 2.130849 1_555
O7 Sc3 2.130849 1_555
O7 Sc4 2.130849 1_555
O8 Sc1 2.055133 1_555
O8 Sc0 2.055133 1_554
O9 Sc1 2.055133 1_555
O9 Sc3 2.055133 1_555
O10 Sc2 2.055133 1_555
O10 Sc0 2.055133 1_555
O11 Sc2 2.055133 1_554
O11 Sc3 2.055133 1_555
O12 Sc5 2.055133 1_554
O12 Sc4 2.055133 1_555
O13 Sc5 2.055133 1_555
O13 Sc7 2.055133 1_555
O14 Sc4 2.055133 1_555
O14 Sc6 2.055133 1_555
O15 Sc6 2.055133 1_555
O15 Sc7 2.055133 1_554
O16 Sc3 2.221007 1_555
O16 Sc6 2.221007 1_545
O17 Sc0 2.221007 1_655
O17 Sc5 2.221007 1_555
O18 Sc4 2.221007 1_455
O18 Sc2 2.221007 1_565
O19 Sc1 2.221007 1_555
O19 Sc7 2.221007 1_555
O20 Sc5 2.221007 1_555
O20 Sc3 2.221007 1_555
O21 Sc2 2.221007 1_565
O21 Sc7 2.221007 1_555
O22 Sc1 2.221007 1_555
O22 Sc4 2.221007 1_455
O23 Sc0 2.221007 1_655
O23 Sc6 2.221007 1_545
