# generated using pymatgen
data_K3B(SO4)3
_symmetry_space_group_name_H-M   'P 1'
_cell_length_a   13.76420294
_cell_length_b   13.76420294
_cell_length_c   13.76420294
_cell_angle_alpha   150.46742482
_cell_angle_beta   117.67600447
_cell_angle_gamma   70.45501904
_symmetry_Int_Tables_number   1
_chemical_formula_structural   K3B(SO4)3
_chemical_formula_sum   'K12 B4 S12 O48'
_cell_volume   1123.75566315
_cell_formula_units_Z   4
loop_
 _symmetry_equiv_pos_site_id
 _symmetry_equiv_pos_as_xyz
  1  'x, y, z'
loop_
 _atom_site_type_symbol
 _atom_site_label
 _atom_site_symmetry_multiplicity
 _atom_site_fract_x
 _atom_site_fract_y
 _atom_site_fract_z
 _atom_site_occupancy
  K  K0  1  0.79499084  0.32059483  0.75710218  1
  K  K1  1  0.70500916  0.46211134  0.52560399  1
  K  K2  1  0.43650735  0.17940517  0.97439601  1
  K  K3  1  0.06349265  0.03788866  0.74289782  1
  K  K4  1  0.20500916  0.67940517  0.24289782  1
  K  K5  1  0.29499084  0.53788866  0.47439601  1
  K  K6  1  0.56349265  0.82059483  0.02560399  1
  K  K7  1  0.93650735  0.96211134  0.25710218  1
  K  K8  1  0.05681855  0.75000000  0.80681855  1
  K  K9  1  0.44318145  0.25000000  0.69318145  1
  K  K10  1  0.94318145  0.25000000  0.19318145  1
  K  K11  1  0.55681855  0.75000000  0.30681855  1
  B  B0  1  0.16675826  0.41675826  0.75000000  1
  B  B1  1  0.33324174  0.08324174  0.25000000  1
  B  B2  1  0.83324174  0.58324174  0.25000000  1
  B  B3  1  0.66675826  0.91675826  0.75000000  1
  S  S0  1  0.96294013  0.49133851  0.76908316  1
  S  S1  1  0.53705987  0.30614304  0.52839838  1
  S  S2  1  0.27774465  0.00866149  0.97160162  1
  S  S3  1  0.22225535  0.19385696  0.73091684  1
  S  S4  1  0.03705987  0.50866149  0.23091684  1
  S  S5  1  0.46294013  0.69385696  0.47160162  1
  S  S6  1  0.72225535  0.99133851  0.02839838  1
  S  S7  1  0.77774465  0.80614304  0.26908316  1
  S  S8  1  0.31408743  0.75000000  0.06408743  1
  S  S9  1  0.18591257  0.25000000  0.43591257  1
  S  S10  1  0.68591257  0.25000000  0.93591257  1
  S  S11  1  0.81408743  0.75000000  0.56408743  1
  O  O0  1  0.22014016  0.39789081  0.85029121  1
  O  O1  1  0.27985984  0.13015105  0.17775065  1
  O  O2  1  0.45240039  0.10210919  0.32224935  1
  O  O3  1  0.04759961  0.36984895  0.64970879  1
  O  O4  1  0.77985984  0.60210919  0.14970879  1
  O  O5  1  0.72014016  0.86984895  0.82224935  1
  O  O6  1  0.54759961  0.89789081  0.67775065  1
  O  O7  1  0.95240039  0.63015105  0.35029121  1
  O  O8  1  0.87225187  0.33571275  0.61793087  1
  O  O9  1  0.62774813  0.24567801  0.46346089  1
  O  O10  1  0.28221812  0.16428725  0.03653911  1
  O  O11  1  0.21778188  0.25432099  0.88206913  1
  O  O12  1  0.12774813  0.66428725  0.38206913  1
  O  O13  1  0.37225187  0.75432199  0.53653911  1
  O  O14  1  0.71778188  0.83571275  0.96346089  1
  O  O15  1  0.78221812  0.74567801  0.11793087  1
  O  O16  1  0.65702701  0.12324706  0.72958686  1
  O  O17  1  0.84297299  0.57255885  0.46622005  1
  O  O18  1  0.60633980  0.37675294  0.03377995  1
  O  O19  1  0.89366020  0.92744115  0.77041314  1
  O  O20  1  0.34297299  0.87675294  0.27041314  1
  O  O21  1  0.15702701  0.42744115  0.53377995  1
  O  O22  1  0.39366020  0.62324706  0.96622005  1
  O  O23  1  0.10633980  0.07255885  0.22958686  1
  O  O24  1  0.19802482  0.62947114  0.91818221  1
  O  O25  1  0.30197518  0.22015739  0.43144632  1
  O  O26  1  0.28871008  0.87052886  0.06855368  1
  O  O27  1  0.21128992  0.27984261  0.58181779  1
  O  O28  1  0.80197518  0.37052886  0.08181779  1
  O  O29  1  0.69802482  0.77984261  0.56855368  1
  O  O30  1  0.71128992  0.12947114  0.93144632  1
  O  O31  1  0.78871008  0.72015739  0.41818221  1
  O  O32  1  0.93172201  0.62702054  0.79958929  1
  O  O33  1  0.56827799  0.36786628  0.69529753  1
  O  O34  1  0.17256874  0.87297946  0.80470247  1
  O  O35  1  0.32743126  0.13213372  0.70041071  1
  O  O36  1  0.06827799  0.37297946  0.20041071  1
  O  O37  1  0.43172201  0.63213372  0.30470247  1
  O  O38  1  0.82743126  0.12702054  0.19529753  1
  O  O39  1  0.67256874  0.86786628  0.29958929  1
  O  O40  1  0.02039583  0.59423687  0.96734267  1
  O  O41  1  0.47960417  0.44694684  0.57384104  1
  O  O42  1  0.37310579  0.90576313  0.92615896  1
  O  O43  1  0.12689421  0.05305316  0.53265733  1
  O  O44  1  0.97960417  0.40576313  0.03265733  1
  O  O45  1  0.52039583  0.55305316  0.42615896  1
  O  O46  1  0.62689421  0.09423687  0.07384104  1
  O  O47  1  0.87310579  0.94694684  0.46734267  1
loop_
_geom_bond_atom_site_label_1
_geom_bond_atom_site_label_2
_geom_bond_distance
_geom_bond_site_symmetry_2
K0 O44 2.742202 1_556
K0 O8 2.752762 1_555
K0 O33 2.832557 1_555
K0 O47 2.846548 1_545
K0 O4 2.885839 1_556
K0 O9 2.896714 1_555
K0 O15 2.913216 1_556
K0 O39 3.195145 1_545
K1 O45 2.742202 1_555
K1 O9 2.752775 1_555
K1 O32 2.832559 1_555
K1 O46 2.846548 1_555
K1 O5 2.885839 1_555
K1 O8 2.896722 1_555
K1 O14 2.913223 1_555
K1 O38 3.195145 1_555
K2 O46 2.742202 1_556
K2 O10 2.752762 1_556
K2 O35 2.832569 1_555
K2 O45 2.846548 1_556
K2 O6 2.885839 1_545
K2 O11 2.896722 1_555
K2 O13 2.913219 1_545
K2 O37 3.195145 1_556
K3 O47 2.742202 1_445
K3 O11 2.752762 1_555
K3 O34 2.832569 1_545
K3 O44 2.846548 1_456
K3 O7 2.885839 1_445
K3 O10 2.896722 1_556
K3 O12 2.913223 1_545
K3 O36 3.195139 1_556
K4 O40 2.742202 1_554
K4 O12 2.752762 1_555
K4 O37 2.832557 1_555
K4 O43 2.846548 1_565
K4 O0 2.885839 1_554
K4 O13 2.896714 1_555
K4 O11 2.913223 1_554
K4 O35 3.195145 1_565
K5 O41 2.742202 1_555
K5 O13 2.752775 1_555
K5 O36 2.832559 1_555
K5 O42 2.846548 1_555
K5 O1 2.885839 1_555
K5 O12 2.896722 1_555
K5 O10 2.913223 1_555
K5 O34 3.195145 1_555
K6 O42 2.742202 1_554
K6 O14 2.752762 1_554
K6 O39 2.832569 1_555
K6 O41 2.846548 1_554
K6 O2 2.885839 1_565
K6 O15 2.896727 1_555
K6 O9 2.913219 1_565
K6 O33 3.195145 1_554
K7 O43 2.742202 1_665
K7 O15 2.752772 1_555
K7 O38 2.832569 1_565
K7 O40 2.846548 1_654
K7 O3 2.885839 1_665
K7 O14 2.896722 1_554
K7 O8 2.913223 1_565
K7 O32 3.195139 1_554
K8 O34 2.708835 1_555
K8 O32 2.708847 1_455
K8 O21 2.724079 1_555
K8 O23 2.724085 1_566
K8 O26 2.894733 1_556
K8 O24 2.894742 1_555
K8 O17 2.945131 1_455
K8 O19 2.945144 1_455
K9 O35 2.708835 1_555
K9 O33 2.708847 1_555
K9 O20 2.724083 1_545
K9 O22 2.724083 1_555
K9 O27 2.894731 1_555
K9 O25 2.894742 1_555
K9 O16 2.945134 1_555
K9 O18 2.945134 1_556
K10 O38 2.708835 1_555
K10 O36 2.708847 1_655
K10 O17 2.724079 1_555
K10 O19 2.724085 1_544
K10 O30 2.894733 1_554
K10 O28 2.894742 1_555
K10 O21 2.945131 1_655
K10 O23 2.945144 1_655
K11 O39 2.708835 1_555
K11 O37 2.708847 1_555
K11 O18 2.724083 1_555
K11 O16 2.724083 1_565
K11 O31 2.894731 1_555
K11 O29 2.894742 1_555
K11 O20 2.945134 1_555
K11 O22 2.945134 1_554
B0 O3 1.437651 1_555
B0 O0 1.437652 1_555
B0 O24 1.496551 1_555
B0 O27 1.496561 1_555
B1 O2 1.437651 1_555
B1 O1 1.437652 1_555
B1 O25 1.496551 1_555
B1 O26 1.496555 1_545
B2 O7 1.437651 1_555
B2 O4 1.437652 1_555
B2 O28 1.496551 1_555
B2 O31 1.496561 1_555
B3 O6 1.437651 1_555
B3 O5 1.437652 1_555
B3 O29 1.496551 1_555
B3 O30 1.496555 1_565
O0 S3 1.596083 1_555
O1 S2 1.596083 1_554
O2 S1 1.596083 1_555
O3 S0 1.596083 1_455
O4 S7 1.596083 1_555
O5 S6 1.596083 1_556
O6 S5 1.596083 1_555
O7 S4 1.596083 1_655
O8 S0 1.447949 1_555
O9 S1 1.447946 1_555
O10 S2 1.447949 1_554
O11 S3 1.447949 1_555
O12 S4 1.447949 1_555
O13 S5 1.447946 1_555
O14 S6 1.447949 1_556
O15 S7 1.447940 1_555
O16 S10 1.435396 1_555
O17 S11 1.435407 1_555
O18 S10 1.435396 1_554
O19 S11 1.435399 1_555
O20 S8 1.435396 1_555
O21 S9 1.435407 1_555
O22 S8 1.435396 1_556
O23 S9 1.435399 1_555
O24 S8 1.527341 1_556
O25 S9 1.527341 1_555
O26 S8 1.527340 1_555
O27 S9 1.527337 1_555
O28 S10 1.527341 1_554
O29 S11 1.527341 1_555
O30 S10 1.527340 1_555
O31 S11 1.527337 1_555
O32 S0 1.454236 1_555
O33 S1 1.454233 1_555
O34 S2 1.454236 1_565
O35 S3 1.454236 1_555
O36 S4 1.454236 1_555
O37 S5 1.454233 1_555
O38 S6 1.454236 1_545
O39 S7 1.454236 1_555
O40 S0 1.448188 1_455
O41 S1 1.448188 1_555
O42 S2 1.448188 1_565
O43 S3 1.448188 1_555
O44 S4 1.448188 1_655
O45 S5 1.448188 1_555
O46 S6 1.448188 1_545
O47 S7 1.448188 1_555
