# generated using pymatgen
data_Li2MnV3O8
_symmetry_space_group_name_H-M   'P 1'
_cell_length_a   5.96790661
_cell_length_b   6.03051334
_cell_length_c   10.32840127
_cell_angle_alpha   106.59929060
_cell_angle_beta   90.00083607
_cell_angle_gamma   60.34791691
_symmetry_Int_Tables_number   1
_chemical_formula_structural   Li2MnV3O8
_chemical_formula_sum   'Li4 Mn2 V6 O16'
_cell_volume   305.08521656
_cell_formula_units_Z   2
loop_
 _symmetry_equiv_pos_site_id
 _symmetry_equiv_pos_as_xyz
  1  'x, y, z'
loop_
 _atom_site_type_symbol
 _atom_site_label
 _atom_site_symmetry_multiplicity
 _atom_site_fract_x
 _atom_site_fract_y
 _atom_site_fract_z
 _atom_site_occupancy
  Li  Li0  1  0.31475200  0.36287900  0.55974500  1
  Li  Li1  1  0.82265600  0.36223000  0.06030900  1
  Li  Li2  1  0.74418100  0.50473500  0.75099400  1
  Li  Li3  1  0.25180300  0.50379200  0.25074600  1
  Mn  Mn0  1  0.17756200  0.63515900  0.93960800  1
  Mn  Mn1  1  0.68757300  0.63481700  0.43931400  1
  V  V0  1  0.74184600  0.00692700  0.74549400  1
  V  V1  1  0.23893000  0.99769000  0.75318300  1
  V  V2  1  0.00811500  0.00140300  0.50320500  1
  V  V3  1  0.26311200  0.99726900  0.25234400  1
  V  V4  1  0.75005500  0.00684100  0.24640300  1
  V  V5  1  0.49215300  0.00117800  0.00330500  1
  O  O0  1  0.10527200  0.77770200  0.62958600  1
  O  O1  1  0.61705200  0.77756000  0.12961000  1
  O  O2  1  0.38607300  0.21770700  0.86901800  1
  O  O3  1  0.89621500  0.21732700  0.36928300  1
  O  O4  1  0.90744100  0.20971800  0.85406800  1
  O  O5  1  0.38263300  0.20997200  0.35417500  1
  O  O6  1  0.65462000  0.20890200  0.63263800  1
  O  O7  1  0.17769400  0.21116600  0.11750400  1
  O  O8  1  0.11141900  0.21115700  0.61754300  1
  O  O9  1  0.63633300  0.20888400  0.13271000  1
  O  O10  1  0.38430700  0.77773900  0.87283100  1
  O  O11  1  0.87488000  0.79989200  0.37378400  1
  O  O12  1  0.82510000  0.80021300  0.87390200  1
  O  O13  1  0.33779000  0.77771700  0.37308700  1
  O  O14  1  0.59094100  0.78967900  0.64780900  1
  O  O15  1  0.11948400  0.78975900  0.14780500  1
loop_
_geom_bond_atom_site_label_1
_geom_bond_atom_site_label_2
_geom_bond_distance
_geom_bond_site_symmetry_2
Li0 O5 2.008534 1_555
Li0 O8 2.019086 1_555
Li0 O6 2.019619 1_555
Li0 O0 2.053238 1_555
Li1 O4 2.014849 1_554
Li1 O9 2.015785 1_555
Li1 O7 2.016399 1_655
Li1 O1 2.055734 1_555
Li2 O10 2.055327 1_555
Li2 O14 2.101495 1_555
Li2 O12 2.139818 1_555
Li2 O8 2.145717 1_655
Li2 O4 2.148215 1_555
Li2 O6 2.158751 1_555
Li3 O13 2.057895 1_555
Li3 O15 2.104310 1_555
Li3 O7 2.142027 1_555
Li3 O11 2.143037 1_455
Li3 O5 2.145446 1_555
Li3 O9 2.153712 1_555
Mn0 O10 2.031233 1_555
Mn0 O15 2.036702 1_556
Mn0 O12 2.046972 1_455
Mn0 O2 2.066225 1_555
Mn1 O13 2.030974 1_555
Mn1 O14 2.039623 1_555
Mn1 O11 2.045646 1_555
Mn1 O3 2.066393 1_555
O0 V2 2.022881 1_565
O0 V1 2.026144 1_555
O0 V0 2.033745 1_465
O1 V5 2.021495 1_565
O1 V3 2.023714 1_555
O1 V4 2.032220 1_565
O2 V0 2.038277 1_555
O2 V1 2.051529 1_545
O2 V5 2.060662 1_556
O3 V4 2.039091 1_555
O3 V2 2.055089 1_655
O3 V3 2.055094 1_645
O4 V1 1.835826 1_645
O4 V0 2.035191 1_555
O5 V3 1.842493 1_545
O5 V4 2.027547 1_555
O6 V0 1.815765 1_555
O6 V2 2.058097 1_655
O7 V5 1.819862 1_555
O7 V3 2.058893 1_545
O8 V2 1.814616 1_555
O8 V1 2.063976 1_545
O9 V4 1.822992 1_555
O9 V5 2.050745 1_555
O10 V1 1.958845 1_555
O10 V5 1.966334 1_566
O11 V4 1.965089 1_565
O11 V2 1.980841 1_665
O12 V0 1.972698 1_565
O12 V5 1.973605 1_566
O13 V2 1.958299 1_565
O13 V3 1.966306 1_555
O14 V1 1.945211 1_555
O14 V0 1.989371 1_565
O15 V3 1.937995 1_555
O15 V4 1.998541 1_465
