# generated using pymatgen
data_Ce2CdPd2
_symmetry_space_group_name_H-M   'P 1'
_cell_length_a   3.85686912
_cell_length_b   7.82141234
_cell_length_c   7.82141234
_cell_angle_alpha   90.00228409
_cell_angle_beta   90.00000000
_cell_angle_gamma   90.00000000
_symmetry_Int_Tables_number   1
_chemical_formula_structural   Ce2CdPd2
_chemical_formula_sum   'Ce4 Cd2 Pd4'
_cell_volume   235.94200515
_cell_formula_units_Z   2
loop_
 _symmetry_equiv_pos_site_id
 _symmetry_equiv_pos_as_xyz
  1  'x, y, z'
loop_
 _atom_site_type_symbol
 _atom_site_label
 _atom_site_symmetry_multiplicity
 _atom_site_fract_x
 _atom_site_fract_y
 _atom_site_fract_z
 _atom_site_occupancy
  Ce  Ce0  1  0.50000000  0.82643591  0.32643591  1
  Ce  Ce1  1  0.50000000  0.67342501  0.82657499  1
  Ce  Ce2  1  0.50000000  0.32657499  0.17342501  1
  Ce  Ce3  1  0.50000000  0.17356409  0.67356409  1
  Cd  Cd0  1  0.00000000  0.00000000  0.00000000  1
  Cd  Cd1  1  0.00000000  0.50000000  0.50000000  1
  Pd  Pd0  1  -0.00000000  0.12935177  0.37064823  1
  Pd  Pd1  1  -0.00000000  0.37067131  0.87067131  1
  Pd  Pd2  1  0.00000000  0.62932869  0.12932869  1
  Pd  Pd3  1  -0.00000000  0.87064823  0.62935177  1
loop_
_geom_bond_atom_site_label_1
_geom_bond_atom_site_label_2
_geom_bond_distance
_geom_bond_site_symmetry_2
Ce0 Pd2 2.910684 1_555
Ce0 Pd2 2.910684 1_655
Ce0 Pd0 3.074349 1_665
Ce0 Pd0 3.074349 1_565
Ce0 Pd3 3.074349 1_555
Ce0 Pd3 3.074349 1_655
Ce1 Pd3 2.911710 1_655
Ce1 Pd3 2.911710 1_555
Ce1 Pd2 3.073291 1_556
Ce1 Pd2 3.073291 1_656
Ce1 Pd1 3.073291 1_555
Ce1 Pd1 3.073291 1_655
Ce2 Pd0 2.911710 1_655
Ce2 Pd0 2.911710 1_555
Ce2 Pd1 3.073291 1_654
Ce2 Pd1 3.073291 1_554
Ce2 Pd2 3.073291 1_555
Ce2 Pd2 3.073291 1_655
Ce3 Pd1 2.910684 1_555
Ce3 Pd1 2.910684 1_655
Ce3 Pd0 3.074349 1_655
Ce3 Pd0 3.074349 1_555
Ce3 Pd3 3.074349 1_545
Ce3 Pd3 3.074349 1_645
Cd0 Pd3 3.070422 1_544
Cd0 Pd0 3.070422 1_555
Cd0 Pd2 3.070609 1_545
Cd0 Pd1 3.070609 1_554
Cd0 Ce3 3.475740 1_454
Cd0 Ce3 3.475740 1_554
Cd0 Ce0 3.475740 1_545
Cd0 Ce0 3.475740 1_445
Cd0 Ce1 3.476035 1_544
Cd0 Ce2 3.476035 1_555
Cd0 Ce2 3.476035 1_455
Cd0 Ce1 3.476035 1_444
Cd1 Pd0 3.070422 1_555
Cd1 Pd3 3.070422 1_555
Cd1 Pd2 3.070609 1_555
Cd1 Pd1 3.070609 1_555
Cd1 Ce3 3.475740 1_455
Cd1 Ce3 3.475740 1_555
Cd1 Ce0 3.475740 1_555
Cd1 Ce0 3.475740 1_455
Cd1 Ce1 3.476035 1_455
Cd1 Ce2 3.476035 1_555
Cd1 Ce1 3.476035 1_555
Cd1 Ce2 3.476035 1_455
Pd0 Pd3 2.861615 1_545
Pd1 Pd2 2.860990 1_556
