# generated using pymatgen
data_Zn2SbWO6
_symmetry_space_group_name_H-M   'P 1'
_cell_length_a   8.07537800
_cell_length_b   5.44421800
_cell_length_c   5.56104305
_cell_angle_alpha   87.97173776
_cell_angle_beta   90.00000000
_cell_angle_gamma   90.00000000
_symmetry_Int_Tables_number   1
_chemical_formula_structural   Zn2SbWO6
_chemical_formula_sum   'Zn4 Sb2 W2 O12'
_cell_volume   244.33318114
_cell_formula_units_Z   2
loop_
 _symmetry_equiv_pos_site_id
 _symmetry_equiv_pos_as_xyz
  1  'x, y, z'
loop_
 _atom_site_type_symbol
 _atom_site_label
 _atom_site_symmetry_multiplicity
 _atom_site_fract_x
 _atom_site_fract_y
 _atom_site_fract_z
 _atom_site_occupancy
  Zn  Zn0  1  0.25000000  0.52208300  0.52431000  1
  Zn  Zn1  1  0.75000000  0.47791700  0.47569000  1
  Zn  Zn2  1  0.25000000  0.01896700  0.98390100  1
  Zn  Zn3  1  0.75000000  0.98103300  0.01609900  1
  Sb  Sb0  1  0.50000000  0.50000000  0.00000000  1
  Sb  Sb1  1  0.00000000  0.50000000  0.00000000  1
  W  W0  1  0.50000000  0.00000000  0.50000000  1
  W  W1  1  0.00000000  0.00000000  0.50000000  1
  O  O0  1  0.57264300  0.68425300  0.63207200  1
  O  O1  1  0.92747900  0.14806100  0.81570700  1
  O  O2  1  0.07264300  0.31574700  0.36792800  1
  O  O3  1  0.42747900  0.85193900  0.18429300  1
  O  O4  1  0.57252100  0.14806100  0.81570700  1
  O  O5  1  0.07252100  0.85193900  0.18429300  1
  O  O6  1  0.75000000  0.61930700  0.12918200  1
  O  O7  1  0.92735700  0.68425300  0.63207200  1
  O  O8  1  0.25000000  0.89792800  0.62208900  1
  O  O9  1  0.42735700  0.31574700  0.36792800  1
  O  O10  1  0.25000000  0.38069300  0.87081800  1
  O  O11  1  0.75000000  0.10207200  0.37791100  1
loop_
_geom_bond_atom_site_label_1
_geom_bond_atom_site_label_2
_geom_bond_distance
_geom_bond_site_symmetry_2
O0 W0 1.936267 1_565
O0 Zn1 2.034353 1_555
O0 Sb0 2.321950 1_556
O1 Zn3 2.012738 1_546
O1 W1 2.043341 1_655
O1 Sb1 2.281115 1_656
O2 W1 1.936267 1_555
O2 Zn0 2.034353 1_555
O2 Sb1 2.321950 1_555
O3 Zn2 2.012738 1_564
O3 W0 2.043341 1_565
O3 Sb0 2.281115 1_555
O4 Zn3 2.012738 1_546
O4 W0 2.043341 1_555
O4 Sb0 2.281115 1_556
O5 Zn2 2.012738 1_564
O5 W1 2.043341 1_565
O5 Sb1 2.281115 1_555
O6 Zn3 2.045973 1_555
O6 Zn1 2.049550 1_555
O6 Sb1 2.246494 1_655
O6 Sb0 2.246494 1_555
O7 W1 1.936267 1_665
O7 Zn1 2.034353 1_555
O7 Sb1 2.321950 1_656
O8 Zn0 2.135717 1_555
O8 Zn2 2.139261 1_565
O8 W1 2.195175 1_565
O8 W0 2.195175 1_565
O9 W0 1.936267 1_555
O9 Zn0 2.034353 1_555
O9 Sb0 2.321950 1_555
O10 Zn2 2.045973 1_555
O10 Zn0 2.049550 1_555
O10 Sb1 2.246494 1_556
O10 Sb0 2.246494 1_556
O11 Zn1 2.135717 1_555
O11 Zn3 2.139261 1_545
O11 W1 2.195175 1_655
O11 W0 2.195175 1_555
