# generated using pymatgen
data_Co(BMo)2
_symmetry_space_group_name_H-M   'P 1'
_cell_length_a   4.49213425
_cell_length_b   4.49213425
_cell_length_c   4.49213425
_cell_angle_alpha   138.88342187
_cell_angle_beta   119.25075894
_cell_angle_gamma   75.99503641
_symmetry_Int_Tables_number   1
_chemical_formula_structural   Co(BMo)2
_chemical_formula_sum   'Co1 B2 Mo2'
_cell_volume   50.73663119
_cell_formula_units_Z   1
loop_
 _symmetry_equiv_pos_site_id
 _symmetry_equiv_pos_as_xyz
  1  'x, y, z'
loop_
 _atom_site_type_symbol
 _atom_site_label
 _atom_site_symmetry_multiplicity
 _atom_site_fract_x
 _atom_site_fract_y
 _atom_site_fract_z
 _atom_site_occupancy
  Co  Co0  1  0.00000000  0.00000000  0.00000000  1
  B  B0  1  0.70540571  0.50000000  0.20540571  1
  B  B1  1  0.29459429  0.50000000  0.79459429  1
  Mo  Mo0  1  0.70064329  0.20064329  0.50000000  1
  Mo  Mo1  1  0.29935671  0.79935671  0.50000000  1
loop_
_geom_bond_atom_site_label_1
_geom_bond_atom_site_label_2
_geom_bond_distance
_geom_bond_site_symmetry_2
Co0 Mo1 2.642035 1_555
Co0 Mo0 2.642035 1_455
Co0 Mo0 2.642035 1_444
Co0 Mo1 2.642035 1_544
Co0 Mo1 2.679076 1_444
Co0 Mo0 2.679076 1_454
Co0 Mo0 2.679076 1_555
Co0 Mo1 2.679076 1_545
B0 B1 1.866279 1_554
B0 Co0 2.068686 1_655
B0 Co0 2.068686 1_666
B0 Mo0 2.318850 1_565
B0 Mo1 2.318850 1_544
B0 Mo1 2.318850 1_555
B0 Mo0 2.318850 1_554
B0 Mo0 2.506603 1_555
B0 Mo1 2.506603 1_655
B1 Co0 2.068686 1_555
B1 Co0 2.068686 1_566
B1 Mo1 2.318850 1_556
B1 Mo0 2.318850 1_566
B1 Mo0 2.318850 1_555
B1 Mo1 2.318850 1_545
B1 Mo0 2.506603 1_455
B1 Mo1 2.506603 1_555
