# generated using pymatgen
data_Li9Mn2Co5O16
_symmetry_space_group_name_H-M   'P 1'
_cell_length_a   3.03070100
_cell_length_b   9.99341706
_cell_length_c   10.11650932
_cell_angle_alpha   106.40065085
_cell_angle_beta   91.55214426
_cell_angle_gamma   92.45618069
_symmetry_Int_Tables_number   1
_chemical_formula_structural   Li9Mn2Co5O16
_chemical_formula_sum   'Li9 Mn2 Co5 O16'
_cell_volume   293.41656043
_cell_formula_units_Z   1
loop_
 _symmetry_equiv_pos_site_id
 _symmetry_equiv_pos_as_xyz
  1  'x, y, z'
loop_
 _atom_site_type_symbol
 _atom_site_label
 _atom_site_symmetry_multiplicity
 _atom_site_fract_x
 _atom_site_fract_y
 _atom_site_fract_z
 _atom_site_occupancy
  Li  Li0  1  0.99918000  0.25266700  0.25605300  1
  Li  Li1  1  0.50429500  0.50032900  0.74639300  1
  Li  Li2  1  0.99717600  0.75037600  0.25181400  1
  Li  Li3  1  0.50358100  0.50107600  0.25201900  1
  Li  Li4  1  0.00284600  0.74880600  0.74760300  1
  Li  Li5  1  0.49493700  0.99870500  0.25505400  1
  Li  Li6  1  0.49700500  0.99948900  0.74638700  1
  Li  Li7  1  0.00058300  0.24808800  0.74476600  1
  Li  Li8  1  0.49995000  0.25003200  0.49994800  1
  Mn  Mn0  1  0.99878500  0.00341200  0.00154100  1
  Mn  Mn1  1  0.50362400  0.74824200  0.00011500  1
  Co  Co0  1  0.00167700  0.49530900  0.99852500  1
  Co  Co1  1  0.50005800  0.74980100  0.49980000  1
  Co  Co2  1  0.00160400  0.49078400  0.49810200  1
  Co  Co3  1  0.99831500  0.00928300  0.50199400  1
  Co  Co4  1  0.49606700  0.25143600  0.99925300  1
  O  O0  1  0.47282500  0.12927700  0.11649400  1
  O  O1  1  0.99684500  0.39073000  0.61446500  1
  O  O2  1  0.50644800  0.62364400  0.11638600  1
  O  O3  1  0.96957500  0.37266000  0.11249400  1
  O  O4  1  0.47083000  0.62587600  0.61291200  1
  O  O5  1  0.97050000  0.87578300  0.11565400  1
  O  O6  1  0.00373200  0.87972500  0.61017700  1
  O  O7  1  0.47861200  0.11416200  0.61376000  1
  O  O8  1  0.52333900  0.38602900  0.38587300  1
  O  O9  1  0.03207100  0.62194600  0.88434500  1
  O  O10  1  0.52799800  0.87397300  0.38731100  1
  O  O11  1  0.99591400  0.62067800  0.39025200  1
  O  O12  1  0.53155500  0.87498200  0.88326900  1
  O  O13  1  0.00344900  0.10891900  0.38505300  1
  O  O14  1  0.02689100  0.13059500  0.88794200  1
  O  O15  1  0.48973200  0.37318200  0.88424500  1
loop_
_geom_bond_atom_site_label_1
_geom_bond_atom_site_label_2
_geom_bond_distance
_geom_bond_site_symmetry_2
Li0 O3 2.130920 1_555
Li0 O8 2.177539 1_655
Li0 O0 2.187429 1_555
Li0 O13 2.196871 1_655
Li0 O0 2.202909 1_655
Li0 O8 2.204471 1_555
Li1 O1 2.065206 1_455
Li1 O4 2.090004 1_555
Li1 O15 2.135532 1_555
Li1 O1 2.152174 1_555
Li1 O9 2.176676 1_655
Li1 O9 2.184607 1_555
Li2 O2 2.107434 1_555
Li2 O5 2.109992 1_555
Li2 O11 2.160167 1_555
Li2 O10 2.174056 1_555
Li2 O10 2.178721 1_655
Li2 O2 2.272781 1_655
Li3 O8 2.009922 1_555
Li3 O2 2.081337 1_555
Li3 O11 2.097816 1_555
Li3 O3 2.207766 1_555
Li3 O3 2.221222 1_455
Li3 O11 2.254274 1_455
Li4 O9 2.126518 1_555
Li4 O6 2.161399 1_555
Li4 O4 2.164777 1_555
Li4 O4 2.175217 1_455
Li4 O12 2.184395 1_555
Li4 O12 2.190221 1_455
Li5 O13 2.060234 1_665
Li5 O10 2.073460 1_555
Li5 O13 2.142482 1_565
Li5 O0 2.169639 1_565
Li5 O5 2.181046 1_455
Li5 O5 2.204241 1_555
Li6 O7 1.996569 1_565
Li6 O6 2.090428 1_555
Li6 O12 2.110214 1_555
Li6 O14 2.232017 1_665
Li6 O14 2.237933 1_565
Li6 O6 2.242900 1_655
Li7 O14 2.108351 1_555
Li7 O15 2.117367 1_555
Li7 O7 2.180265 1_455
Li7 O1 2.198054 1_455
Li7 O7 2.217025 1_555
Li7 O15 2.288883 1_455
Li8 O7 2.013165 1_555
Li8 O8 2.016381 1_555
Li8 O1 2.095502 1_555
Li8 O13 2.098023 1_555
Li8 O1 2.236877 1_455
Li8 O13 2.241235 1_655
Mn0 O14 1.940170 1_654
Mn0 O5 1.947893 1_545
Mn0 O0 1.981696 1_655
Mn0 O12 1.992304 1_544
Mn0 O0 2.218486 1_555
Mn0 O12 2.258563 1_644
Mn1 O2 1.939465 1_555
Mn1 O12 1.962230 1_554
Mn1 O5 1.976714 1_555
Mn1 O9 1.981682 1_554
Mn1 O9 2.229302 1_654
Mn1 O5 2.244747 1_455
Co0 O3 1.906563 1_456
Co0 O9 1.940516 1_555
Co0 O15 2.043814 1_455
Co0 O2 2.067922 1_556
Co0 O15 2.112958 1_555
Co0 O2 2.171996 1_456
Co1 O10 1.906752 1_555
Co1 O4 1.909801 1_555
Co1 O11 2.039489 1_455
Co1 O6 2.044967 1_655
Co1 O11 2.144886 1_555
Co1 O6 2.152906 1_555
Co2 O1 1.746456 1_455
Co2 O8 1.896196 1_455
Co2 O11 1.917403 1_455
Co2 O4 2.013561 1_555
Co2 O8 2.110256 1_555
Co2 O4 2.271814 1_455
Co3 O13 1.748172 1_655
Co3 O7 1.899129 1_655
Co3 O6 1.917135 1_645
Co3 O10 2.016319 1_545
Co3 O7 2.103934 1_555
Co3 O10 2.269926 1_645
Co4 O15 1.906430 1_555
Co4 O0 1.927914 1_556
Co4 O14 1.935570 1_555
Co4 O3 1.953872 1_556
Co4 O3 2.192501 1_456
Co4 O14 2.193457 1_655
