# generated using pymatgen
data_Ba4Li(GeO3)4
_symmetry_space_group_name_H-M   'P 1'
_cell_length_a   4.71488605
_cell_length_b   5.94152808
_cell_length_c   13.00972713
_cell_angle_alpha   91.67131418
_cell_angle_beta   90.57839200
_cell_angle_gamma   89.30222855
_symmetry_Int_Tables_number   1
_chemical_formula_structural   Ba4Li(GeO3)4
_chemical_formula_sum   'Ba4 Li1 Ge4 O12'
_cell_volume   364.25030330
_cell_formula_units_Z   1
loop_
 _symmetry_equiv_pos_site_id
 _symmetry_equiv_pos_as_xyz
  1  'x, y, z'
loop_
 _atom_site_type_symbol
 _atom_site_label
 _atom_site_symmetry_multiplicity
 _atom_site_fract_x
 _atom_site_fract_y
 _atom_site_fract_z
 _atom_site_occupancy
  Ba  Ba0  1  0.25964226  0.79090212  0.85280083  1
  Ba  Ba1  1  0.76570203  0.67169677  0.13963484  1
  Ba  Ba2  1  0.70093709  0.30186560  0.64611563  1
  Ba  Ba3  1  0.21568591  0.12318963  0.34034766  1
  Li  Li0  1  0.15676010  0.45702828  0.51858465  1
  Ge  Ge0  1  0.80664193  0.28334010  0.92395601  1
  Ge  Ge1  1  0.31248188  0.18696203  0.07721697  1
  Ge  Ge2  1  0.20051361  0.86529111  0.59083152  1
  Ge  Ge3  1  0.69333351  0.71018438  0.43595992  1
  O  O0  1  0.75169204  0.57267580  0.90885703  1
  O  O1  1  0.25491616  0.90632035  0.10698828  1
  O  O2  1  0.24722685  0.15682270  0.54396106  1
  O  O3  1  0.80359956  0.42722547  0.43113026  1
  O  O4  1  0.72938060  0.08875454  0.82547350  1
  O  O5  1  0.24663729  0.39339496  0.17225841  1
  O  O6  1  0.23064690  0.58962395  0.66265505  1
  O  O7  1  0.74054975  0.87266958  0.32611410  1
  O  O8  1  0.31441792  0.72392952  0.46114471  1
  O  O9  1  0.81228561  0.84026604  0.55678037  1
  O  O10  1  0.69314398  0.20671253  0.05172112  1
  O  O11  1  0.18880502  0.24781155  0.94787608  1
loop_
_geom_bond_atom_site_label_1
_geom_bond_atom_site_label_2
_geom_bond_distance
_geom_bond_site_symmetry_2
Ba0 O6 2.718983 1_555
Ba0 O0 2.746443 1_555
Ba0 O0 2.848638 1_455
Ba0 O4 2.882961 1_565
Ba0 O11 2.966762 1_565
Ba0 O4 3.069175 1_465
Ba0 O1 3.357864 1_556
Ba1 O7 2.675626 1_555
Ba1 O1 2.752575 1_655
Ba1 O1 2.802802 1_555
Ba1 O5 2.826006 1_655
Ba1 O10 2.981370 1_555
Ba1 O5 3.010685 1_555
Ba1 O0 3.042787 1_554
Ba2 O2 2.646837 1_555
Ba2 O4 2.688474 1_555
Ba2 O6 2.789624 1_555
Ba2 O3 2.961309 1_555
Ba2 O9 2.989916 1_545
Ba2 O2 3.015186 1_655
Ba2 O6 3.046106 1_655
Ba3 O2 2.653470 1_555
Ba3 O7 2.706502 1_445
Ba3 O5 2.756396 1_555
Ba3 O3 2.875677 1_455
Ba3 O7 2.877030 1_545
Ba3 O8 2.913696 1_545
Ba3 O1 3.269376 1_545
Li0 O2 1.866928 1_555
Li0 O8 1.932561 1_555
Li0 O3 2.013858 1_455
Li0 O6 2.040209 1_555
Ge0 O4 1.739347 1_555
Ge0 O0 1.751806 1_555
Ge0 O10 1.823337 1_556
Ge0 O11 1.836119 1_655
Ge1 O5 1.743445 1_555
Ge1 O1 1.747815 1_545
Ge1 O11 1.820090 1_554
Ge1 O10 1.834241 1_555
Ge2 O2 1.869295 1_565
Ge2 O9 1.885555 1_455
Ge2 O6 1.912299 1_555
Ge2 O8 1.940390 1_555
Ge3 O3 1.753256 1_555
Ge3 O7 1.765201 1_555
Ge3 O9 1.817822 1_555
Ge3 O8 1.820018 1_555
