# generated using pymatgen
data_Dy3(Ga2Cu)2
_symmetry_space_group_name_H-M   'P 1'
_cell_length_a   5.62261693
_cell_length_b   5.62261693
_cell_length_c   15.83635523
_cell_angle_alpha   75.23026465
_cell_angle_beta   75.23026465
_cell_angle_gamma   46.43045816
_symmetry_Int_Tables_number   1
_chemical_formula_structural   Dy3(Ga2Cu)2
_chemical_formula_sum   'Dy6 Ga8 Cu4'
_cell_volume   348.50307967
_cell_formula_units_Z   2
loop_
 _symmetry_equiv_pos_site_id
 _symmetry_equiv_pos_as_xyz
  1  'x, y, z'
loop_
 _atom_site_type_symbol
 _atom_site_label
 _atom_site_symmetry_multiplicity
 _atom_site_fract_x
 _atom_site_fract_y
 _atom_site_fract_z
 _atom_site_occupancy
  Dy  Dy0  1  0.60845600  0.60845600  0.07478600  1
  Dy  Dy1  1  0.94217700  0.94217700  0.40217000  1
  Dy  Dy2  1  0.27572200  0.27572200  0.73768300  1
  Dy  Dy3  1  0.72410700  0.72410700  0.26086600  1
  Dy  Dy4  1  0.05618500  0.05618500  0.59496500  1
  Dy  Dy5  1  0.39006200  0.39006200  0.92814800  1
  Ga  Ga0  1  0.37961800  0.37961800  0.53667000  1
  Ga  Ga1  1  0.71273200  0.71273200  0.87061100  1
  Ga  Ga2  1  0.90427000  0.90427000  0.07342700  1
  Ga  Ga3  1  0.23716100  0.23716100  0.40656600  1
  Ga  Ga4  1  0.56999200  0.56999200  0.74005700  1
  Ga  Ga5  1  0.42748100  0.42748100  0.25946700  1
  Ga  Ga6  1  0.75733200  0.75733200  0.59497800  1
  Ga  Ga7  1  0.09089600  0.09089600  0.92873100  1
  Cu  Cu0  1  0.29590000  0.29590000  0.12794000  1
  Cu  Cu1  1  0.62775700  0.62775700  0.46189500  1
  Cu  Cu2  1  0.96154300  0.96154300  0.79473500  1
  Cu  Cu3  1  0.03860800  0.03860800  0.20630600  1
loop_
_geom_bond_atom_site_label_1
_geom_bond_atom_site_label_2
_geom_bond_distance
_geom_bond_site_symmetry_2
Dy0 Ga5 3.002844 1_555
Dy0 Ga2 3.051253 1_555
Dy0 Ga2 3.064451 1_455
Dy0 Ga2 3.064451 1_545
Dy0 Ga1 3.111749 1_554
Dy0 Ga7 3.244676 1_654
Dy0 Ga7 3.244676 1_564
Dy1 Ga0 3.017134 1_655
Dy1 Ga0 3.017134 1_565
Dy1 Ga3 3.053603 1_565
Dy1 Ga3 3.053603 1_655
Dy1 Ga3 3.068616 1_665
Dy1 Ga6 3.120316 1_555
Dy1 Ga5 3.198884 1_565
Dy1 Ga5 3.198884 1_655
Dy2 Ga1 3.001195 1_455
Dy2 Ga1 3.001195 1_545
Dy2 Ga4 3.051839 1_555
Dy2 Ga4 3.064289 1_455
Dy2 Ga4 3.064289 1_545
Dy2 Ga0 3.064326 1_555
Dy2 Ga7 3.097751 1_555
Dy2 Ga6 3.208414 1_545
Dy2 Ga6 3.208414 1_455
Dy3 Ga2 3.035069 1_555
Dy3 Ga5 3.050330 1_565
Dy3 Ga5 3.050330 1_655
Dy3 Ga5 3.071764 1_555
Dy3 Ga3 3.229092 1_655
Dy3 Ga3 3.229092 1_565
Dy4 Ga6 3.038729 1_455
Dy4 Ga6 3.038729 1_545
Dy4 Ga3 3.050225 1_555
Dy4 Ga6 3.088503 1_445
Dy4 Ga0 3.166841 1_545
Dy4 Ga0 3.166841 1_455
Dy4 Ga0 3.211413 1_555
Dy4 Ga4 3.223982 1_545
Dy4 Ga4 3.223982 1_455
Dy5 Ga7 3.038242 1_565
Dy5 Ga7 3.038242 1_655
Dy5 Ga4 3.042597 1_555
Dy5 Ga7 3.089247 1_555
Dy5 Ga1 3.166629 1_455
Dy5 Ga1 3.166629 1_545
Dy5 Ga1 3.203864 1_555
Dy5 Ga2 3.227135 1_546
Dy5 Ga2 3.227135 1_456
Ga0 Ga6 2.591260 1_455
Ga0 Ga6 2.591260 1_545
Ga0 Ga3 2.845270 1_555
Ga1 Ga7 2.588797 1_565
Ga1 Ga7 2.588797 1_655
Ga1 Ga4 2.853555 1_555
Ga2 Ga7 2.553196 1_664
Ga3 Ga5 2.598715 1_555
Ga4 Ga6 2.561106 1_555
Cu0 Ga2 2.524964 1_455
Cu0 Ga2 2.524964 1_545
Cu0 Cu3 2.603817 1_555
Cu0 Ga5 2.785520 1_555
Cu0 Dy3 3.004584 1_455
Cu0 Dy3 3.004584 1_545
Cu0 Dy5 3.041308 1_554
Cu0 Dy0 3.103886 1_555
Cu0 Dy0 3.205955 1_545
Cu0 Dy0 3.205955 1_455
Cu1 Ga0 2.508760 1_555
Cu1 Ga3 2.531550 1_565
Cu1 Ga3 2.531550 1_655
Cu1 Ga6 2.792987 1_555
Cu1 Dy4 3.005907 1_655
Cu1 Dy4 3.005907 1_565
Cu1 Dy3 3.060704 1_555
Cu1 Dy1 3.122235 1_555
Cu1 Dy1 3.239079 1_455
Cu1 Dy1 3.239079 1_545
Cu2 Ga1 2.518275 1_555
Cu2 Ga4 2.525822 1_565
Cu2 Ga4 2.525822 1_655
Cu2 Ga7 2.804252 1_665
Cu2 Dy5 3.009300 1_565
Cu2 Dy5 3.009300 1_655
Cu2 Dy4 3.041136 1_665
Cu2 Dy2 3.119527 1_665
Cu2 Dy2 3.221664 1_655
Cu2 Dy2 3.221664 1_565
Cu3 Ga5 2.530526 1_545
Cu3 Ga5 2.530526 1_455
Cu3 Ga2 2.824269 1_445
Cu3 Dy1 2.983155 1_445
Cu3 Dy0 2.989523 1_455
Cu3 Dy0 2.989523 1_545
Cu3 Dy3 3.122949 1_445
Cu3 Dy3 3.202023 1_545
Cu3 Dy3 3.202023 1_455
