# generated using pymatgen
data_Tb2CBr
_symmetry_space_group_name_H-M   'P 1'
_cell_length_a   3.69483392
_cell_length_b   3.69483392
_cell_length_c   14.12800272
_cell_angle_alpha   90.00000000
_cell_angle_beta   90.00000000
_cell_angle_gamma   120.00000796
_symmetry_Int_Tables_number   1
_chemical_formula_structural   Tb2CBr
_chemical_formula_sum   'Tb4 C2 Br2'
_cell_volume   167.03258862
_cell_formula_units_Z   2
loop_
 _symmetry_equiv_pos_site_id
 _symmetry_equiv_pos_as_xyz
  1  'x, y, z'
loop_
 _atom_site_type_symbol
 _atom_site_label
 _atom_site_symmetry_multiplicity
 _atom_site_fract_x
 _atom_site_fract_y
 _atom_site_fract_z
 _atom_site_occupancy
  Tb  Tb0  1  0.66666700  0.33333300  0.40945890  1
  Tb  Tb1  1  0.33333300  0.66666700  0.59047158  1
  Tb  Tb2  1  0.33333300  0.66666700  0.90952607  1
  Tb  Tb3  1  0.66666700  0.33333300  0.09054307  1
  C  C0  1  0.00000000  0.00000000  0.00003484  1
  C  C1  1  0.00000000  0.00000000  0.49996491  1
  Br  Br0  1  0.66666700  0.33333300  0.74995557  1
  Br  Br1  1  0.33333300  0.66666700  0.25004406  1
loop_
_geom_bond_atom_site_label_1
_geom_bond_atom_site_label_2
_geom_bond_distance
_geom_bond_site_symmetry_2
C0 Tb3 2.487100 1_455
C0 Tb3 2.487102 1_555
C0 Tb3 2.487102 1_445
C0 Tb2 2.487104 1_544
C0 Tb2 2.487106 1_554
C0 Tb2 2.487106 1_444
C1 Tb0 2.487084 1_455
C1 Tb0 2.487086 1_445
C1 Tb0 2.487086 1_555
C1 Tb1 2.487088 1_545
C1 Tb1 2.487091 1_555
C1 Tb1 2.487091 1_445
Br0 Tb1 3.102814 1_655
Br0 Tb1 3.102814 1_545
Br0 Tb1 3.102819 1_555
Br0 Tb2 3.103702 1_545
Br0 Tb2 3.103702 1_655
Br0 Tb2 3.103706 1_555
Br1 Tb0 3.102105 1_455
Br1 Tb0 3.102105 1_565
Br1 Tb0 3.102109 1_555
Br1 Tb3 3.102989 1_455
Br1 Tb3 3.102989 1_565
Br1 Tb3 3.102993 1_555
