# generated using pymatgen
data_Mg3Si4
_symmetry_space_group_name_H-M   'P 1'
_cell_length_a   7.50472101
_cell_length_b   7.78513657
_cell_length_c   5.08490495
_cell_angle_alpha   92.88394931
_cell_angle_beta   74.60066131
_cell_angle_gamma   63.29443773
_symmetry_Int_Tables_number   1
_chemical_formula_structural   Mg3Si4
_chemical_formula_sum   'Mg6 Si8'
_cell_volume   250.85481294
_cell_formula_units_Z   2
loop_
 _symmetry_equiv_pos_site_id
 _symmetry_equiv_pos_as_xyz
  1  'x, y, z'
loop_
 _atom_site_type_symbol
 _atom_site_label
 _atom_site_symmetry_multiplicity
 _atom_site_fract_x
 _atom_site_fract_y
 _atom_site_fract_z
 _atom_site_occupancy
  Mg  Mg0  1  0.51544300  0.60684300  0.24172100  1
  Mg  Mg1  1  0.80518800  0.48176800  0.60541500  1
  Mg  Mg2  1  0.20773300  0.08567700  0.39354600  1
  Mg  Mg3  1  0.67034500  0.16556100  0.34320000  1
  Mg  Mg4  1  0.98938100  0.61515500  0.00907700  1
  Mg  Mg5  1  0.24330800  0.83295500  0.86831800  1
  Si  Si0  1  0.33220900  0.16360800  0.85003400  1
  Si  Si1  1  0.82447800  0.08509300  0.78030200  1
  Si  Si2  1  0.61356900  0.90144900  0.98364900  1
  Si  Si3  1  0.61520100  0.85411600  0.48670500  1
  Si  Si4  1  0.94809300  0.27392400  0.02265400  1
  Si  Si5  1  0.24491200  0.45356100  0.41355700  1
  Si  Si6  1  0.41601900  0.42879300  0.84270300  1
  Si  Si7  1  0.07434900  0.80485700  0.41263900  1
loop_
_geom_bond_atom_site_label_1
_geom_bond_atom_site_label_2
_geom_bond_distance
_geom_bond_site_symmetry_2
Mg0 Si3 2.714314 1_555
Mg0 Si5 2.765831 1_555
Mg0 Si7 2.800064 1_555
Mg0 Si6 2.836455 1_554
Mg0 Si4 2.953909 1_555
Mg0 Si2 2.971940 1_554
Mg1 Si3 2.778219 1_555
Mg1 Si4 2.874682 1_556
Mg1 Si4 2.969749 1_555
Mg1 Si6 3.068718 1_555
Mg1 Si5 3.083394 1_655
Mg1 Si2 3.180852 1_555
Mg2 Si7 2.779882 1_545
Mg2 Si2 2.842369 1_544
Mg2 Si0 2.854469 1_555
Mg2 Si0 2.861086 1_554
Mg2 Si3 2.953917 1_545
Mg2 Si5 2.999144 1_555
Mg2 Si1 3.024705 1_455
Mg2 Si4 3.027285 1_455
Mg2 Si4 3.135124 1_456
Mg3 Si1 2.707952 1_554
Mg3 Si3 2.739008 1_545
Mg3 Si1 2.743122 1_555
Mg3 Si4 2.761838 1_555
Mg3 Si6 2.771241 1_555
Mg3 Si5 2.868320 1_555
Mg3 Si2 2.928278 1_544
Mg3 Si0 3.105965 1_555
Mg3 Si7 3.196669 1_645
Mg4 Si6 2.708291 1_654
Mg4 Si2 2.740714 1_554
Mg4 Si4 2.811560 1_555
Mg4 Si7 2.834634 1_655
Mg4 Si3 2.910805 1_555
Mg4 Si5 2.965490 1_654
Mg4 Si5 3.110796 1_655
Mg4 Si0 3.179759 1_654
Mg5 Si7 2.786182 1_556
Mg5 Si6 2.792965 1_555
Mg5 Si0 2.935124 1_565
Mg5 Si7 2.963645 1_555
Mg5 Si3 3.025086 1_555
Mg5 Si1 3.036950 1_465
Mg5 Si4 3.046169 1_466
Mg5 Si2 3.242717 1_555
Si0 Si6 2.412793 1_555
Si0 Si2 2.472573 1_545
Si0 Si4 2.484557 1_456
Si0 Si3 2.568654 1_545
Si1 Si7 2.412849 1_645
Si1 Si4 2.488180 1_556
Si1 Si2 2.632867 1_545
Si2 Si3 2.531212 1_555
Si2 Si3 2.605128 1_556
Si5 Si7 2.444598 1_555
Si5 Si6 2.784951 1_555
Si5 Si6 2.802416 1_554
