# generated using pymatgen
data_Mg14VSi
_symmetry_space_group_name_H-M   'P 1'
_cell_length_a   6.25654609
_cell_length_b   6.16634496
_cell_length_c   10.20054132
_cell_angle_alpha   90.00000000
_cell_angle_beta   90.00000000
_cell_angle_gamma   119.52422689
_symmetry_Int_Tables_number   1
_chemical_formula_structural   Mg14VSi
_chemical_formula_sum   'Mg14 V1 Si1'
_cell_volume   342.43528731
_cell_formula_units_Z   1
loop_
 _symmetry_equiv_pos_site_id
 _symmetry_equiv_pos_as_xyz
  1  'x, y, z'
loop_
 _atom_site_type_symbol
 _atom_site_label
 _atom_site_symmetry_multiplicity
 _atom_site_fract_x
 _atom_site_fract_y
 _atom_site_fract_z
 _atom_site_occupancy
  Mg  Mg0  1  0.16711961  0.33355930  0.62500000  1
  Mg  Mg1  1  0.16654827  0.83327363  0.62500000  1
  Mg  Mg2  1  0.66856300  0.33264692  0.12500000  1
  Mg  Mg3  1  0.66526773  0.33321329  0.62500000  1
  Mg  Mg4  1  0.66856300  0.83591508  0.12500000  1
  Mg  Mg5  1  0.66526773  0.83205344  0.62500000  1
  Mg  Mg6  1  0.32948450  0.16487039  0.36649129  1
  Mg  Mg7  1  0.32948450  0.16487039  0.88350871  1
  Mg  Mg8  1  0.32948450  0.66461511  0.36649129  1
  Mg  Mg9  1  0.32948450  0.66461511  0.88350871  1
  Mg  Mg10  1  0.83863157  0.16931629  0.37373478  1
  Mg  Mg11  1  0.83863157  0.16931629  0.87626522  1
  Mg  Mg12  1  0.83783357  0.66891728  0.37163570  1
  Mg  Mg13  1  0.83783357  0.66891728  0.87836430  1
  V  V0  1  0.16380341  0.33190120  0.12500000  1
  Si  Si0  1  0.16399898  0.83199899  0.12500000  1
loop_
_geom_bond_atom_site_label_1
_geom_bond_atom_site_label_2
_geom_bond_distance
_geom_bond_site_symmetry_2
Mg0 Mg1 3.083174 1_545
Mg0 Mg1 3.083174 1_555
Mg0 Mg5 3.117738 1_555
Mg0 Mg3 3.117739 1_555
Mg0 Mg10 3.125267 1_455
Mg0 Mg11 3.125267 1_455
Mg0 Mg5 3.138808 1_445
Mg0 Mg3 3.138809 1_455
Mg0 Mg6 3.179430 1_555
Mg0 Mg7 3.179430 1_555
Mg0 Mg8 3.179436 1_555
Mg0 Mg9 3.179436 1_555
Mg1 Mg3 3.123976 1_565
Mg1 Mg5 3.123976 1_555
Mg1 Mg3 3.132584 1_455
Mg1 Mg5 3.132584 1_455
Mg1 Mg13 3.143553 1_455
Mg1 Mg12 3.143553 1_455
Mg1 Mg8 3.181059 1_555
Mg1 Mg9 3.181059 1_555
Mg1 Mg6 3.181065 1_565
Mg1 Mg7 3.181065 1_565
Mg2 Mg4 3.063020 1_545
Mg2 Mg7 3.078283 1_554
Mg2 Mg6 3.078283 1_555
Mg2 V0 3.100763 1_655
Mg2 Mg4 3.103325 1_555
Mg2 Si0 3.111689 1_655
Mg2 Si0 3.144998 1_545
Mg2 V0 3.155788 1_555
Mg3 Mg5 3.076020 1_555
Mg3 Mg5 3.090325 1_545
Mg3 Mg6 3.208605 1_555
Mg3 Mg7 3.208605 1_555
Mg4 Mg8 3.078283 1_555
Mg4 Mg9 3.078283 1_554
Mg4 V0 3.100763 1_665
Mg4 Si0 3.111689 1_655
Mg4 Si0 3.144998 1_555
Mg4 V0 3.155788 1_555
Mg5 Mg8 3.208605 1_555
Mg5 Mg9 3.208605 1_555
Mg6 V0 3.042315 1_555
Mg6 Si0 3.042803 1_545
Mg6 Mg8 3.081598 1_555
Mg6 Mg8 3.084747 1_545
Mg7 V0 3.042315 1_556
Mg7 Si0 3.042803 1_546
Mg7 Mg9 3.081598 1_555
Mg7 Mg9 3.084747 1_545
Mg8 V0 3.042321 1_555
Mg8 Si0 3.042797 1_555
Mg9 V0 3.042321 1_556
Mg9 Si0 3.042797 1_556
Mg10 Mg12 3.083250 1_555
Mg10 Mg12 3.083250 1_545
Mg10 Mg8 3.085531 1_655
Mg10 Mg6 3.085531 1_655
Mg10 V0 3.093768 1_655
Mg10 Mg2 3.104880 1_555
Mg10 Mg4 3.104886 1_545
Mg10 Mg3 3.138068 1_555
Mg10 Mg5 3.138074 1_545
Mg10 Mg8 3.172942 1_545
Mg10 Mg6 3.172942 1_555
Mg11 Mg13 3.083250 1_555
Mg11 Mg13 3.083250 1_545
Mg11 Mg9 3.085531 1_655
Mg11 Mg7 3.085531 1_655
Mg11 V0 3.093768 1_656
Mg11 Mg2 3.104880 1_556
Mg11 Mg4 3.104886 1_546
Mg11 Mg3 3.138068 1_555
Mg11 Mg5 3.138074 1_545
Mg11 Mg9 3.172942 1_545
Mg11 Mg7 3.172942 1_555
Mg12 Si0 3.079349 1_655
Mg12 Mg6 3.089642 1_665
Mg12 Mg8 3.089642 1_655
Mg12 Mg4 3.096158 1_555
Mg12 Mg2 3.096164 1_555
Mg12 Mg5 3.150787 1_555
Mg12 Mg3 3.150792 1_555
Mg12 Mg6 3.167955 1_555
Mg12 Mg8 3.167955 1_555
Mg13 Si0 3.079349 1_656
Mg13 Mg7 3.089642 1_665
Mg13 Mg9 3.089642 1_655
Mg13 Mg4 3.096158 1_556
Mg13 Mg2 3.096164 1_556
Mg13 Mg5 3.150787 1_555
Mg13 Mg3 3.150792 1_555
Mg13 Mg7 3.167955 1_555
Mg13 Mg9 3.167955 1_555
Si0 V0 3.083173 1_565
Si0 V0 3.083173 1_555
