# generated using pymatgen
data_Ni(WO4)2
_symmetry_space_group_name_H-M   'P 1'
_cell_length_a   5.85144700
_cell_length_b   5.10971000
_cell_length_c   10.76390623
_cell_angle_alpha   61.84942562
_cell_angle_beta   90.00000000
_cell_angle_gamma   90.00000000
_symmetry_Int_Tables_number   1
_chemical_formula_structural   Ni(WO4)2
_chemical_formula_sum   'Ni2 W4 O16'
_cell_volume   283.76287618
_cell_formula_units_Z   2
loop_
 _symmetry_equiv_pos_site_id
 _symmetry_equiv_pos_as_xyz
  1  'x, y, z'
loop_
 _atom_site_type_symbol
 _atom_site_label
 _atom_site_symmetry_multiplicity
 _atom_site_fract_x
 _atom_site_fract_y
 _atom_site_fract_z
 _atom_site_occupancy
  Ni  Ni0  1  0.34260800  0.50000000  0.75000000  1
  Ni  Ni1  1  0.65739200  0.50000000  0.25000000  1
  W  W0  1  0.17325100  0.24271300  0.49645100  1
  W  W1  1  0.17325100  0.75728700  0.00354900  1
  W  W2  1  0.82674900  0.75728700  0.50354900  1
  W  W3  1  0.82674900  0.24271300  0.99645100  1
  O  O0  1  0.33427400  0.71717300  0.86534400  1
  O  O1  1  0.33427400  0.28282700  0.63465600  1
  O  O2  1  0.66572600  0.28282700  0.13465600  1
  O  O3  1  0.66572600  0.71717300  0.36534400  1
  O  O4  1  0.89414800  0.18336400  0.39420700  1
  O  O5  1  0.89414800  0.81663600  0.10579300  1
  O  O6  1  0.10585200  0.81663600  0.60579300  1
  O  O7  1  0.10585200  0.18336400  0.89420700  1
  O  O8  1  0.60023700  0.25391000  0.88179900  1
  O  O9  1  0.60023700  0.74609000  0.61820100  1
  O  O10  1  0.39976300  0.74609000  0.11820100  1
  O  O11  1  0.39976300  0.25391000  0.38179900  1
  O  O12  1  0.90048200  0.66539400  0.89268400  1
  O  O13  1  0.09951800  0.33460600  0.10731600  1
  O  O14  1  0.90048200  0.33460600  0.60731600  1
  O  O15  1  0.09951800  0.66539400  0.39268400  1
loop_
_geom_bond_atom_site_label_1
_geom_bond_atom_site_label_2
_geom_bond_distance
_geom_bond_site_symmetry_2
Ni0 O0 2.018725 1_555
Ni0 O1 2.018725 1_555
Ni0 O8 2.045265 1_555
Ni0 O9 2.045265 1_555
Ni0 O6 2.139305 1_555
Ni0 O7 2.139305 1_555
Ni1 O3 2.018725 1_555
Ni1 O2 2.018725 1_555
Ni1 O11 2.045265 1_555
Ni1 O10 2.045265 1_555
Ni1 O4 2.139305 1_555
Ni1 O5 2.139305 1_555
O0 W1 1.852170 1_556
O1 W0 1.852170 1_555
O2 W3 1.852170 1_554
O3 W2 1.852170 1_555
O4 W2 1.965410 1_545
O4 W0 2.070092 1_655
O5 W3 1.965410 1_564
O5 W1 2.070092 1_655
O6 W0 1.965410 1_565
O6 W2 2.070092 1_455
O7 W1 1.965410 1_546
O7 W3 2.070092 1_455
O8 W3 1.793434 1_555
O9 W2 1.793434 1_555
O10 W1 1.793434 1_555
O11 W0 1.793434 1_555
O12 W3 1.955019 1_555
O12 W1 2.172732 1_656
O13 W1 1.955019 1_555
O13 W3 2.172732 1_454
O14 W2 1.955019 1_555
O14 W0 2.172732 1_655
O15 W0 1.955019 1_555
O15 W2 2.172732 1_455
