# generated using pymatgen
data_Cs2U4Nb4O23
_symmetry_space_group_name_H-M   'P 1'
_cell_length_a   7.70266870
_cell_length_b   8.80818195
_cell_length_c   8.80818195
_cell_angle_alpha   103.80989498
_cell_angle_beta   90.20902018
_cell_angle_gamma   90.20902018
_symmetry_Int_Tables_number   1
_chemical_formula_structural   Cs2U4Nb4O23
_chemical_formula_sum   'Cs2 U4 Nb4 O23'
_cell_volume   580.31932960
_cell_formula_units_Z   1
loop_
 _symmetry_equiv_pos_site_id
 _symmetry_equiv_pos_as_xyz
  1  'x, y, z'
loop_
 _atom_site_type_symbol
 _atom_site_label
 _atom_site_symmetry_multiplicity
 _atom_site_fract_x
 _atom_site_fract_y
 _atom_site_fract_z
 _atom_site_occupancy
  Cs  Cs0  1  0.50127761  0.99842297  0.99842297  1
  Cs  Cs1  1  0.00030745  0.00629807  0.00629807  1
  U  U0  1  0.24070345  0.02721871  0.51023567  1
  U  U1  1  0.76211076  0.49367095  0.95981287  1
  U  U2  1  0.76211076  0.95981287  0.49367095  1
  U  U3  1  0.24070345  0.51023567  0.02721871  1
  Nb  Nb0  1  0.50160535  0.35838854  0.63054433  1
  Nb  Nb1  1  0.00167702  0.38349210  0.60541650  1
  Nb  Nb2  1  0.50160535  0.63054433  0.35838854  1
  Nb  Nb3  1  0.00167702  0.60541650  0.38349210  1
  O  O0  1  0.53772255  0.14236008  0.56195821  1
  O  O1  1  0.46518687  0.45315331  0.84344066  1
  O  O2  1  0.96878878  0.14876108  0.54835003  1
  O  O3  1  0.03304151  0.44751235  0.84071152  1
  O  O4  1  0.46518687  0.84344066  0.45315331  1
  O  O5  1  0.53772255  0.56195821  0.14236008  1
  O  O6  1  0.03304151  0.84071152  0.44751235  1
  O  O7  1  0.96878878  0.54835003  0.14876108  1
  O  O8  1  0.25019010  0.04380529  0.30882656  1
  O  O9  1  0.76274356  0.69488673  0.94267172  1
  O  O10  1  0.76274356  0.94267172  0.69488673  1
  O  O11  1  0.25019010  0.30882656  0.04380529  1
  O  O12  1  0.24351778  0.01253234  0.71257467  1
  O  O13  1  0.74907024  0.29218947  0.97697687  1
  O  O14  1  0.74907024  0.97697687  0.29218947  1
  O  O15  1  0.24351778  0.71257467  0.01253234  1
  O  O16  1  0.25047393  0.30597862  0.59134212  1
  O  O17  1  0.75279350  0.40511857  0.68108850  1
  O  O18  1  0.75279350  0.68108850  0.40511857  1
  O  O19  1  0.25047393  0.59134212  0.30597862  1
  O  O20  1  0.50384937  0.47692781  0.47692781  1
  O  O21  1  0.08933981  0.59035668  0.59035668  1
  O  O22  1  0.91997396  0.39597610  0.39597610  1
loop_
_geom_bond_atom_site_label_1
_geom_bond_atom_site_label_2
_geom_bond_distance
_geom_bond_site_symmetry_2
Cs0 O15 3.226679 1_556
Cs0 O12 3.226679 1_565
Cs0 O13 3.251775 1_565
Cs0 O14 3.251775 1_556
Cs0 O9 3.296232 1_555
Cs0 O10 3.296232 1_555
Cs0 O8 3.301217 1_566
Cs0 O11 3.301217 1_566
Cs1 O15 3.210671 1_545
Cs1 O12 3.210671 1_554
Cs1 O9 3.226207 1_444
Cs1 O10 3.226207 1_444
Cs1 O8 3.232999 1_555
Cs1 O11 3.232999 1_555
Cs1 O13 3.239650 1_454
Cs1 O14 3.239650 1_445
Nb0 O0 1.875999 1_555
Nb0 O1 1.884196 1_555
Nb0 O20 1.896262 1_555
Nb0 O16 1.996669 1_555
Nb0 O17 2.002891 1_555
Nb1 O22 1.974911 1_455
Nb1 O21 1.975008 1_555
Nb1 O2 2.022552 1_455
Nb1 O17 2.026591 1_455
Nb1 O3 2.027094 1_555
Nb1 O16 2.031005 1_555
Nb2 O5 1.875999 1_555
Nb2 O4 1.884196 1_555
Nb2 O20 1.896262 1_555
Nb2 O19 1.996669 1_555
Nb2 O18 2.002891 1_555
Nb3 O22 1.974911 1_455
Nb3 O21 1.975008 1_555
Nb3 O7 2.022552 1_455
Nb3 O18 2.026591 1_455
Nb3 O6 2.027094 1_555
Nb3 O19 2.031005 1_555
O0 U2 2.345343 1_545
O0 U0 2.495040 1_555
O1 U3 2.345469 1_556
O1 U1 2.492228 1_555
O2 U2 2.264643 1_545
O2 U0 2.344254 1_655
O3 U3 2.259124 1_556
O3 U1 2.332272 1_455
O4 U0 2.345469 1_565
O4 U2 2.492228 1_555
O5 U1 2.345343 1_554
O5 U3 2.495040 1_555
O6 U0 2.259124 1_565
O6 U2 2.332272 1_455
O7 U1 2.264643 1_554
O7 U3 2.344254 1_655
O8 U0 1.816187 1_555
O9 U1 1.814309 1_555
O10 U2 1.814309 1_555
O11 U3 1.816187 1_555
O12 U0 1.817521 1_555
O13 U1 1.819163 1_555
O14 U2 1.819163 1_555
O15 U3 1.817521 1_555
O16 U0 2.388662 1_555
O17 U1 2.392686 1_555
O18 U2 2.392686 1_555
O19 U3 2.388662 1_555
