# generated using pymatgen
data_K2Ca2Si8O23
_symmetry_space_group_name_H-M   'P 1'
_cell_length_a   6.55904728
_cell_length_b   7.14333300
_cell_length_c   12.76969129
_cell_angle_alpha   106.24222744
_cell_angle_beta   97.68439224
_cell_angle_gamma   90.00000000
_symmetry_Int_Tables_number   1
_chemical_formula_structural   K2Ca2Si8O23
_chemical_formula_sum   'K2 Ca2 Si8 O23'
_cell_volume   568.82608231
_cell_formula_units_Z   1
loop_
 _symmetry_equiv_pos_site_id
 _symmetry_equiv_pos_as_xyz
  1  'x, y, z'
loop_
 _atom_site_type_symbol
 _atom_site_label
 _atom_site_symmetry_multiplicity
 _atom_site_fract_x
 _atom_site_fract_y
 _atom_site_fract_z
 _atom_site_occupancy
  K  K0  1  0.27850300  0.13793100  0.26281600  1
  K  K1  1  0.72149700  0.87511400  0.73718400  1
  Ca  Ca0  1  0.96111900  0.25780500  0.51823200  1
  Ca  Ca1  1  0.03888100  0.73957300  0.48176800  1
  Si  Si0  1  0.00476300  0.43501500  0.86870900  1
  Si  Si1  1  0.99523700  0.56630600  0.13129100  1
  Si  Si2  1  0.22078400  0.08427200  0.73256300  1
  Si  Si3  1  0.77921600  0.35170900  0.26743700  1
  Si  Si4  1  0.57475200  0.35339300  0.70609800  1
  Si  Si5  1  0.42524800  0.64729500  0.29390200  1
  Si  Si6  1  0.22198500  0.65213100  0.73631400  1
  Si  Si7  1  0.77801500  0.91581600  0.26368600  1
  O  O0  1  0.00000000  0.50064600  0.00000000  1
  O  O1  1  0.77392000  0.37616300  0.80302200  1
  O  O2  1  0.22608000  0.57314200  0.19697800  1
  O  O3  1  0.27845000  0.88803000  0.77225000  1
  O  O4  1  0.72155000  0.11578000  0.22775000  1
  O  O5  1  0.05084000  0.03898700  0.62542300  1
  O  O6  1  0.94916000  0.41356300  0.37457700  1
  O  O7  1  0.44517100  0.16346300  0.71484700  1
  O  O8  1  0.55482900  0.44861500  0.28515300  1
  O  O9  1  0.14580900  0.24410900  0.83975600  1
  O  O10  1  0.85419100  0.40435300  0.16024400  1
  O  O11  1  0.65104300  0.32303300  0.58758600  1
  O  O12  1  0.34895700  0.73544700  0.41241400  1
  O  O13  1  0.08389500  0.57558700  0.61863600  1
  O  O14  1  0.91610500  0.95695100  0.38136400  1
  O  O15  1  0.44874200  0.55438800  0.74538800  1
  O  O16  1  0.55125800  0.80900000  0.25461200  1
  O  O17  1  0.09925500  0.61867700  0.83523000  1
  O  O18  1  0.90074500  0.78344700  0.16477000  1
  O  O19  1  0.42317700  0.92141200  0.02365200  1
  O  O20  1  0.57682300  0.89776000  0.97634800  1
  O  O21  1  0.35058700  0.23825300  0.48942200  1
  O  O22  1  0.64941300  0.74883200  0.51057800  1
loop_
_geom_bond_atom_site_label_1
_geom_bond_atom_site_label_2
_geom_bond_distance
_geom_bond_site_symmetry_2
K0 O21 2.754019 1_555
K0 O8 2.792721 1_555
K0 O16 2.940219 1_545
K0 O4 2.996422 1_555
K0 O6 3.135666 1_455
K0 O19 3.279104 1_545
K1 O22 2.754019 1_555
K1 O7 2.792732 1_565
K1 O15 2.940213 1_555
K1 O3 2.996422 1_555
K1 O5 3.135673 1_665
K1 O20 3.279103 1_555
Ca0 O11 2.321349 1_555
Ca0 O14 2.349747 1_545
Ca0 O13 2.353960 1_655
Ca0 O5 2.375838 1_655
Ca0 O6 2.390085 1_555
Ca0 O21 2.627378 1_655
Ca1 O12 2.321349 1_555
Ca1 O13 2.349747 1_555
Ca1 O14 2.353960 1_455
Ca1 O6 2.375843 1_455
Ca1 O5 2.390090 1_565
Ca1 O22 2.627378 1_455
O0 Si1 1.614278 1_455
O0 Si0 1.614278 1_554
O1 Si0 1.623559 1_655
O1 Si4 1.649204 1_555
O2 Si1 1.623558 1_455
O2 Si5 1.649203 1_555
O3 Si6 1.645996 1_555
O3 Si2 1.646558 1_565
O4 Si7 1.646003 1_545
O4 Si3 1.646558 1_555
O5 Si2 1.601104 1_555
O6 Si3 1.601104 1_555
O7 Si4 1.638832 1_555
O7 Si2 1.642530 1_555
O8 Si5 1.638838 1_555
O8 Si3 1.642527 1_555
O9 Si0 1.631464 1_555
O9 Si2 1.650724 1_555
O10 Si1 1.631464 1_555
O10 Si3 1.650724 1_555
O11 Si4 1.614502 1_555
O12 Si5 1.614502 1_555
O13 Si6 1.598077 1_555
O14 Si7 1.598076 1_555
O15 Si4 1.644449 1_555
O15 Si6 1.646871 1_555
O16 Si5 1.644450 1_555
O16 Si7 1.646868 1_555
O17 Si0 1.634854 1_555
O17 Si6 1.655715 1_555
O18 Si1 1.634854 1_555
O18 Si7 1.655712 1_555
O19 O20 1.230749 1_554
