# generated using pymatgen
data_La3NbO7
_symmetry_space_group_name_H-M   'P 1'
_cell_length_a   6.75300716
_cell_length_b   6.75300716
_cell_length_c   7.81335568
_cell_angle_alpha   90.00000000
_cell_angle_beta   90.00000000
_cell_angle_gamma   111.72861907
_symmetry_Int_Tables_number   1
_chemical_formula_structural   La3NbO7
_chemical_formula_sum   'La6 Nb2 O14'
_cell_volume   330.99643039
_cell_formula_units_Z   2
loop_
 _symmetry_equiv_pos_site_id
 _symmetry_equiv_pos_as_xyz
  1  'x, y, z'
loop_
 _atom_site_type_symbol
 _atom_site_label
 _atom_site_symmetry_multiplicity
 _atom_site_fract_x
 _atom_site_fract_y
 _atom_site_fract_z
 _atom_site_occupancy
  La  La0  1  0.92867670  0.47532198  0.75000000  1
  La  La1  1  0.07132330  0.52467802  0.25000000  1
  La  La2  1  -0.00000000  -0.00000000  0.50000000  1
  La  La3  1  -0.00000000  -0.00000000  0.00000000  1
  La  La4  1  0.52467802  0.07132330  0.25000000  1
  La  La5  1  0.47532198  0.92867670  0.75000000  1
  Nb  Nb0  1  0.50000000  0.50000000  0.00000000  1
  Nb  Nb1  1  0.50000000  0.50000000  0.50000000  1
  O  O0  1  0.56649700  0.56649700  0.75000000  1
  O  O1  1  0.43350300  0.43350300  0.25000000  1
  O  O2  1  0.84526971  0.10553823  0.75000000  1
  O  O3  1  0.15473029  0.89446177  0.25000000  1
  O  O4  1  0.10553823  0.84526971  0.75000000  1
  O  O5  1  0.89446177  0.15473029  0.25000000  1
  O  O6  1  0.43829012  0.18739160  0.96622859  1
  O  O7  1  0.56170988  0.81260840  0.46622859  1
  O  O8  1  0.18739160  0.43829012  0.96622859  1
  O  O9  1  0.81260840  0.56170988  0.46622859  1
  O  O10  1  0.43829012  0.18739160  0.53377141  1
  O  O11  1  0.56170988  0.81260840  0.03377141  1
  O  O12  1  0.81260840  0.56170988  0.03377141  1
  O  O13  1  0.18739160  0.43829012  0.53377141  1
loop_
_geom_bond_atom_site_label_1
_geom_bond_atom_site_label_2
_geom_bond_distance
_geom_bond_site_symmetry_2
La0 O4 2.336344 1_655
La0 O2 2.347680 1_555
La0 O12 2.491838 1_556
La0 O9 2.491838 1_555
La0 O13 2.508529 1_655
La0 O8 2.508529 1_655
La0 O0 2.734234 1_555
La1 O5 2.336344 1_455
La1 O3 2.347680 1_555
La1 O8 2.491838 1_554
La1 O13 2.491838 1_555
La1 O12 2.508529 1_455
La1 O9 2.508529 1_455
La1 O1 2.734234 1_555
La2 O5 2.442677 1_455
La2 O2 2.442677 1_455
La2 O3 2.442677 1_545
La2 O4 2.442677 1_545
La2 O13 2.767319 1_555
La2 O7 2.767319 1_445
La2 O10 2.767319 1_555
La2 O9 2.767319 1_445
La3 O5 2.442677 1_455
La3 O3 2.442677 1_545
La3 O2 2.442677 1_454
La3 O4 2.442677 1_544
La3 O8 2.767319 1_554
La3 O11 2.767319 1_445
La3 O6 2.767319 1_554
La3 O12 2.767319 1_445
La4 O3 2.336344 1_545
La4 O5 2.347680 1_555
La4 O6 2.491838 1_554
La4 O10 2.491838 1_555
La4 O7 2.508529 1_545
La4 O11 2.508529 1_545
La4 O1 2.734234 1_555
La5 O2 2.336344 1_565
La5 O4 2.347680 1_555
La5 O11 2.491838 1_556
La5 O7 2.491838 1_555
La5 O10 2.508529 1_565
La5 O6 2.508529 1_565
La5 O0 2.734234 1_555
Nb0 O8 2.012072 1_554
Nb0 O11 2.012072 1_555
Nb0 O6 2.012072 1_554
Nb0 O12 2.012072 1_555
Nb0 O0 2.017307 1_554
Nb0 O1 2.017307 1_555
Nb1 O7 2.012072 1_555
Nb1 O9 2.012072 1_555
Nb1 O13 2.012072 1_555
Nb1 O10 2.012072 1_555
Nb1 O0 2.017307 1_555
Nb1 O1 2.017307 1_555
