# generated using pymatgen
data_SrMg14CoO16
_symmetry_space_group_name_H-M   'P 1'
_cell_length_a   8.68320853
_cell_length_b   8.62293789
_cell_length_c   4.39386341
_cell_angle_alpha   90.00000000
_cell_angle_beta   90.00000000
_cell_angle_gamma   90.00000000
_symmetry_Int_Tables_number   1
_chemical_formula_structural   SrMg14CoO16
_chemical_formula_sum   'Sr1 Mg14 Co1 O16'
_cell_volume   328.98950274
_cell_formula_units_Z   1
loop_
 _symmetry_equiv_pos_site_id
 _symmetry_equiv_pos_as_xyz
  1  'x, y, z'
loop_
 _atom_site_type_symbol
 _atom_site_label
 _atom_site_symmetry_multiplicity
 _atom_site_fract_x
 _atom_site_fract_y
 _atom_site_fract_z
 _atom_site_occupancy
  Sr  Sr0  1  0.00000000  0.50000000  -0.00000000  1
  Mg  Mg0  1  0.50000000  0.00000000  -0.00000000  1
  Mg  Mg1  1  0.50000000  0.50000000  -0.00000000  1
  Mg  Mg2  1  0.00000000  0.24065845  0.50000000  1
  Mg  Mg3  1  0.00000000  0.75934155  0.50000000  1
  Mg  Mg4  1  0.50000000  0.24830002  0.50000000  1
  Mg  Mg5  1  0.50000000  0.75169998  0.50000000  1
  Mg  Mg6  1  0.25067854  0.00000000  0.50000000  1
  Mg  Mg7  1  0.25977166  0.50000000  0.50000000  1
  Mg  Mg8  1  0.74932146  0.00000000  0.50000000  1
  Mg  Mg9  1  0.74022834  0.50000000  0.50000000  1
  Mg  Mg10  1  0.25635492  0.24325549  -0.00000000  1
  Mg  Mg11  1  0.25635492  0.75674451  0.00000000  1
  Mg  Mg12  1  0.74364508  0.24325549  -0.00000000  1
  Mg  Mg13  1  0.74364508  0.75674451  0.00000000  1
  Co  Co0  1  0.00000000  0.00000000  -0.00000000  1
  O  O0  1  0.25999445  0.00000000  -0.00000000  1
  O  O1  1  0.27136714  0.50000000  -0.00000000  1
  O  O2  1  0.74000555  0.00000000  -0.00000000  1
  O  O3  1  0.72863286  0.50000000  -0.00000000  1
  O  O4  1  0.24904294  0.24983208  0.50000000  1
  O  O5  1  0.24904294  0.75016792  0.50000000  1
  O  O6  1  0.75095706  0.24983208  0.50000000  1
  O  O7  1  0.75095706  0.75016792  0.50000000  1
  O  O8  1  0.00000000  0.00000000  0.50000000  1
  O  O9  1  0.00000000  0.50000000  0.50000000  1
  O  O10  1  0.50000000  0.00000000  0.50000000  1
  O  O11  1  0.50000000  0.50000000  0.50000000  1
  O  O12  1  0.00000000  0.22857757  -0.00000000  1
  O  O13  1  0.00000000  0.77142243  -0.00000000  1
  O  O14  1  0.50000000  0.24659279  0.00000000  1
  O  O15  1  0.50000000  0.75340721  -0.00000000  1
loop_
_geom_bond_atom_site_label_1
_geom_bond_atom_site_label_2
_geom_bond_distance
_geom_bond_site_symmetry_2
Mg0 O0 2.084018 1_555
Mg0 O2 2.084018 1_555
Mg0 O15 2.126354 1_545
Mg0 O14 2.126354 1_555
Mg0 O10 2.196932 1_555
Mg0 O10 2.196932 1_554
Mg1 O1 1.985267 1_555
Mg1 O3 1.985267 1_555
Mg1 O14 2.185115 1_555
Mg1 O15 2.185115 1_555
Mg1 O11 2.196932 1_554
Mg1 O11 2.196932 1_555
Mg2 O8 2.075183 1_555
Mg2 O4 2.163938 1_555
Mg2 O6 2.163938 1_455
Mg2 O12 2.199400 1_556
Mg2 O12 2.199400 1_555
Mg2 O9 2.236286 1_555
Mg3 O8 2.075183 1_565
Mg3 O5 2.163938 1_555
Mg3 O7 2.163938 1_455
Mg3 O13 2.199400 1_555
Mg3 O13 2.199400 1_556
Mg3 O9 2.236286 1_555
Mg4 O10 2.141076 1_555
Mg4 O11 2.170393 1_555
Mg4 O6 2.179153 1_555
Mg4 O4 2.179153 1_555
Mg4 O14 2.196981 1_555
Mg4 O14 2.196981 1_556
Mg5 O10 2.141076 1_565
Mg5 O11 2.170393 1_555
Mg5 O7 2.179153 1_555
Mg5 O5 2.179153 1_555
Mg5 O15 2.196981 1_556
Mg5 O15 2.196981 1_555
Mg6 O5 2.154333 1_545
Mg6 O4 2.154333 1_555
Mg6 O10 2.164910 1_555
Mg6 O8 2.176694 1_555
Mg6 O0 2.198420 1_555
Mg6 O0 2.198420 1_556
Mg7 O11 2.085953 1_555
Mg7 O4 2.159193 1_555
Mg7 O5 2.159193 1_555
Mg7 O1 2.199238 1_555
Mg7 O1 2.199238 1_556
Mg7 O9 2.255651 1_555
Mg8 O7 2.154333 1_545
Mg8 O6 2.154333 1_555
Mg8 O10 2.164910 1_555
Mg8 O8 2.176694 1_655
Mg8 O2 2.198420 1_556
Mg8 O2 2.198420 1_555
Mg9 O11 2.085953 1_555
Mg9 O6 2.159193 1_555
Mg9 O7 2.159193 1_555
Mg9 O3 2.199238 1_556
Mg9 O3 2.199238 1_555
Mg9 O9 2.255651 1_655
Mg10 O0 2.097815 1_555
Mg10 O14 2.115817 1_555
Mg10 O4 2.198580 1_554
Mg10 O4 2.198580 1_555
Mg10 O1 2.217726 1_555
Mg10 O12 2.229579 1_555
Mg11 O0 2.097815 1_565
Mg11 O15 2.115817 1_555
Mg11 O5 2.198580 1_555
Mg11 O5 2.198580 1_554
Mg11 O1 2.217726 1_555
Mg11 O13 2.229579 1_555
Mg12 O2 2.097815 1_555
Mg12 O14 2.115817 1_555
Mg12 O6 2.198580 1_555
Mg12 O6 2.198580 1_554
Mg12 O3 2.217726 1_555
Mg12 O12 2.229579 1_655
Mg13 O2 2.097815 1_565
Mg13 O15 2.115817 1_555
Mg13 O7 2.198580 1_555
Mg13 O7 2.198580 1_554
Mg13 O3 2.217726 1_555
Mg13 O13 2.229579 1_655
Co0 O13 1.971010 1_545
Co0 O12 1.971010 1_555
Co0 O8 2.196932 1_554
Co0 O8 2.196932 1_555
Co0 O0 2.257586 1_555
Co0 O2 2.257586 1_455
O1 Sr0 2.356337 1_555
O3 Sr0 2.356337 1_655
O9 Sr0 2.196932 1_555
O9 Sr0 2.196932 1_556
O12 Sr0 2.340459 1_555
O13 Sr0 2.340459 1_555
