# generated using pymatgen
data_MgNb2
_symmetry_space_group_name_H-M   'P 1'
_cell_length_a   6.10263325
_cell_length_b   6.10263325
_cell_length_c   15.84310118
_cell_angle_alpha   76.63257312
_cell_angle_beta   76.63257312
_cell_angle_gamma   54.02357252
_symmetry_Int_Tables_number   1
_chemical_formula_structural   MgNb2
_chemical_formula_sum   'Mg8 Nb16'
_cell_volume   461.12999086
_cell_formula_units_Z   8
loop_
 _symmetry_equiv_pos_site_id
 _symmetry_equiv_pos_as_xyz
  1  'x, y, z'
loop_
 _atom_site_type_symbol
 _atom_site_label
 _atom_site_symmetry_multiplicity
 _atom_site_fract_x
 _atom_site_fract_y
 _atom_site_fract_z
 _atom_site_occupancy
  Mg  Mg0_0  1  0.00000000  0.00000000  0.00000000  1
  Mg  Mg0_1  1  0.00000000  0.00000000  0.50000000  1
  Mg  Mg0_2  1  0.00000000  0.50000000  0.00000000  1
  Mg  Mg0_3  1  0.00000000  0.50000000  0.50000000  1
  Mg  Mg0_4  1  0.50000000  0.00000000  0.00000000  1
  Mg  Mg0_5  1  0.50000000  0.00000000  0.50000000  1
  Mg  Mg0_6  1  0.50000000  0.50000000  0.00000000  1
  Mg  Mg0_7  1  0.50000000  0.50000000  0.50000000  1
  Nb  Nb0_0  1  0.41366500  0.41366500  0.33136800  1
  Nb  Nb0_1  1  0.41366500  0.41366500  0.83136800  1
  Nb  Nb0_2  1  0.41366500  0.91366500  0.33136800  1
  Nb  Nb0_3  1  0.41366500  0.91366500  0.83136800  1
  Nb  Nb0_4  1  0.91366500  0.41366500  0.33136800  1
  Nb  Nb0_5  1  0.91366500  0.41366500  0.83136800  1
  Nb  Nb0_6  1  0.91366500  0.91366500  0.33136800  1
  Nb  Nb0_7  1  0.91366500  0.91366500  0.83136800  1
  Nb  Nb1_0  1  0.08633500  0.08633500  0.16863200  1
  Nb  Nb1_1  1  0.08633500  0.08633500  0.66863200  1
  Nb  Nb1_2  1  0.08633500  0.58633500  0.16863200  1
  Nb  Nb1_3  1  0.08633500  0.58633500  0.66863200  1
  Nb  Nb1_4  1  0.58633500  0.08633500  0.16863200  1
  Nb  Nb1_5  1  0.58633500  0.08633500  0.66863200  1
  Nb  Nb1_6  1  0.58633500  0.58633500  0.16863200  1
  Nb  Nb1_7  1  0.58633500  0.58633500  0.66863200  1
loop_
_geom_bond_atom_site_label_1
_geom_bond_atom_site_label_2
_geom_bond_distance
_geom_bond_site_symmetry_2
Mg0_0 Mg0_6 2.771656 1_455
Mg0_0 Mg0_6 2.771656 1_545
Mg0_0 Mg0_4 3.051317 1_555
Mg0_0 Mg0_4 3.051317 1_455
Mg0_0 Mg0_2 3.051317 1_555
Mg0_0 Mg0_2 3.051317 1_545
Mg0_0 Nb0_7 3.052999 1_444
Mg0_0 Nb1_0 3.052999 1_555
Mg0_0 Nb1_2 3.123743 1_545
Mg0_0 Nb1_4 3.123743 1_455
Mg0_0 Nb0_3 3.123743 1_544
Mg0_0 Nb0_5 3.123743 1_454
Mg0_1 Mg0_7 2.771656 1_455
Mg0_1 Mg0_7 2.771656 1_545
Mg0_1 Mg0_3 3.051317 1_555
Mg0_1 Mg0_5 3.051317 1_455
Mg0_1 Mg0_5 3.051317 1_555
Mg0_1 Mg0_3 3.051317 1_545
Mg0_1 Nb1_1 3.052999 1_555
Mg0_1 Nb0_6 3.052999 1_445
Mg0_1 Nb1_3 3.123743 1_545
Mg0_1 Nb0_2 3.123743 1_545
Mg0_1 Nb1_5 3.123743 1_455
Mg0_1 Nb0_4 3.123743 1_455
Mg0_2 Mg0_4 2.771656 1_465
Mg0_2 Mg0_4 2.771656 1_555
Mg0_2 Mg0_6 3.051317 1_455
Mg0_2 Mg0_6 3.051317 1_555
Mg0_2 Nb1_2 3.052999 1_555
Mg0_2 Nb0_5 3.052999 1_454
Mg0_2 Nb1_0 3.123743 1_555
Mg0_2 Nb0_7 3.123743 1_454
Mg0_2 Nb1_6 3.123743 1_455
Mg0_2 Nb0_1 3.123743 1_554
Mg0_3 Mg0_5 2.771656 1_555
Mg0_3 Mg0_5 2.771656 1_465
Mg0_3 Mg0_7 3.051317 1_455
Mg0_3 Mg0_7 3.051317 1_555
Mg0_3 Nb0_4 3.052999 1_455
Mg0_3 Nb1_3 3.052999 1_555
Mg0_3 Nb1_7 3.123743 1_455
Mg0_3 Nb1_1 3.123743 1_555
Mg0_3 Nb0_0 3.123743 1_555
Mg0_3 Nb0_6 3.123743 1_455
Mg0_4 Mg0_6 3.051317 1_545
Mg0_4 Mg0_6 3.051317 1_555
Mg0_4 Nb0_3 3.052999 1_544
Mg0_4 Nb1_4 3.052999 1_555
Mg0_4 Nb1_0 3.123743 1_555
Mg0_4 Nb0_1 3.123743 1_554
Mg0_4 Nb1_6 3.123743 1_545
Mg0_4 Nb0_7 3.123743 1_544
Mg0_5 Mg0_7 3.051317 1_555
Mg0_5 Mg0_7 3.051317 1_545
Mg0_5 Nb1_5 3.052999 1_555
Mg0_5 Nb0_2 3.052999 1_545
Mg0_5 Nb1_7 3.123743 1_545
Mg0_5 Nb1_1 3.123743 1_555
Mg0_5 Nb0_0 3.123743 1_555
Mg0_5 Nb0_6 3.123743 1_545
Mg0_6 Nb1_6 3.052999 1_555
Mg0_6 Nb0_1 3.052999 1_554
Mg0_6 Nb1_4 3.123743 1_555
Mg0_6 Nb1_2 3.123743 1_555
Mg0_6 Nb0_5 3.123743 1_554
Mg0_6 Nb0_3 3.123743 1_554
Mg0_7 Nb0_0 3.052999 1_555
Mg0_7 Nb1_7 3.052999 1_555
Mg0_7 Nb1_5 3.123743 1_555
Mg0_7 Nb1_3 3.123743 1_555
Mg0_7 Nb0_2 3.123743 1_555
Mg0_7 Nb0_4 3.123743 1_555
Nb0_0 Nb1_6 2.767710 1_555
Nb0_0 Nb0_6 2.771656 1_545
Nb0_0 Nb0_6 2.771656 1_455
Nb0_0 Nb0_2 3.051317 1_555
Nb0_0 Nb0_2 3.051317 1_545
Nb0_0 Nb0_4 3.051317 1_555
Nb0_0 Nb0_4 3.051317 1_455
Nb0_0 Nb1_2 3.224921 1_555
Nb0_0 Nb1_4 3.224921 1_555
Nb0_1 Nb1_7 2.767710 1_555
Nb0_1 Nb0_7 2.771656 1_455
Nb0_1 Nb0_7 2.771656 1_545
Nb0_1 Nb0_5 3.051317 1_455
Nb0_1 Nb0_3 3.051317 1_545
Nb0_1 Nb0_5 3.051317 1_555
Nb0_1 Nb0_3 3.051317 1_555
Nb0_1 Nb1_5 3.224921 1_555
Nb0_1 Nb1_3 3.224921 1_555
Nb0_2 Nb1_4 2.767710 1_565
Nb0_2 Nb0_4 2.771656 1_465
Nb0_2 Nb0_4 2.771656 1_555
Nb0_2 Nb0_6 3.051317 1_455
Nb0_2 Nb0_6 3.051317 1_555
Nb0_2 Nb1_6 3.224921 1_555
Nb0_2 Nb1_0 3.224921 1_565
Nb0_3 Nb1_5 2.767710 1_565
Nb0_3 Nb0_5 2.771656 1_465
Nb0_3 Nb0_5 2.771656 1_555
Nb0_3 Nb0_7 3.051317 1_455
Nb0_3 Nb0_7 3.051317 1_555
Nb0_3 Nb1_7 3.224921 1_555
Nb0_3 Nb1_1 3.224921 1_565
Nb0_4 Nb1_2 2.767710 1_655
Nb0_4 Nb0_6 3.051317 1_555
Nb0_4 Nb0_6 3.051317 1_545
Nb0_4 Nb1_0 3.224921 1_655
Nb0_4 Nb1_6 3.224921 1_555
Nb0_5 Nb1_3 2.767710 1_655
Nb0_5 Nb0_7 3.051317 1_545
Nb0_5 Nb0_7 3.051317 1_555
Nb0_5 Nb1_7 3.224921 1_555
Nb0_5 Nb1_1 3.224921 1_655
Nb0_6 Nb1_0 2.767710 1_665
Nb0_6 Nb1_4 3.224921 1_565
Nb0_6 Nb1_2 3.224921 1_655
Nb0_7 Nb1_1 2.767710 1_665
Nb0_7 Nb1_3 3.224921 1_655
Nb0_7 Nb1_5 3.224921 1_565
Nb1_0 Nb1_6 2.771656 1_455
Nb1_0 Nb1_6 2.771656 1_545
Nb1_0 Nb1_4 3.051317 1_555
Nb1_0 Nb1_2 3.051317 1_555
Nb1_0 Nb1_2 3.051317 1_545
Nb1_0 Nb1_4 3.051317 1_455
Nb1_1 Nb1_7 2.771656 1_455
Nb1_1 Nb1_7 2.771656 1_545
Nb1_1 Nb1_5 3.051317 1_555
Nb1_1 Nb1_3 3.051317 1_555
Nb1_1 Nb1_3 3.051317 1_545
Nb1_1 Nb1_5 3.051317 1_455
Nb1_2 Nb1_4 2.771656 1_555
Nb1_2 Nb1_4 2.771656 1_465
Nb1_2 Nb1_6 3.051317 1_555
Nb1_2 Nb1_6 3.051317 1_455
Nb1_3 Nb1_5 2.771656 1_555
Nb1_3 Nb1_5 2.771656 1_465
Nb1_3 Nb1_7 3.051317 1_455
Nb1_3 Nb1_7 3.051317 1_555
Nb1_4 Nb1_6 3.051317 1_555
Nb1_4 Nb1_6 3.051317 1_545
Nb1_5 Nb1_7 3.051317 1_545
Nb1_5 Nb1_7 3.051317 1_555
