# generated using pymatgen
data_LiCr2Cu2(WO4)4
_symmetry_space_group_name_H-M   'P 1'
_cell_length_a   5.02892516
_cell_length_b   7.51770777
_cell_length_c   7.51961333
_cell_angle_alpha   100.80848155
_cell_angle_beta   90.86177150
_cell_angle_gamma   90.90989550
_symmetry_Int_Tables_number   1
_chemical_formula_structural   LiCr2Cu2(WO4)4
_chemical_formula_sum   'Li1 Cr2 Cu2 W4 O16'
_cell_volume   279.16084003
_cell_formula_units_Z   1
loop_
 _symmetry_equiv_pos_site_id
 _symmetry_equiv_pos_as_xyz
  1  'x, y, z'
loop_
 _atom_site_type_symbol
 _atom_site_label
 _atom_site_symmetry_multiplicity
 _atom_site_fract_x
 _atom_site_fract_y
 _atom_site_fract_z
 _atom_site_occupancy
  Li  Li0  1  0.75913900  0.05034200  0.95202900  1
  Cr  Cr0  1  0.75205100  0.81762700  0.18015400  1
  Cr  Cr1  1  0.25374400  0.17823700  0.82444000  1
  Cu  Cu0  1  0.75027500  0.33392600  0.66406400  1
  Cu  Cu1  1  0.24854500  0.66189800  0.33292600  1
  W  W0  1  0.74456500  0.34747400  0.17620800  1
  W  W1  1  0.24473200  0.66624200  0.84025600  1
  W  W2  1  0.74435500  0.82298500  0.65008300  1
  W  W3  1  0.25033500  0.16562700  0.33236200  1
  O  O0  1  0.41996300  0.69737500  0.05998800  1
  O  O1  1  0.59532100  0.29394600  0.93662200  1
  O  O2  1  0.08003700  0.94079700  0.30124400  1
  O  O3  1  0.91089000  0.05331300  0.70557600  1
  O  O4  1  0.92304600  0.80445600  0.92464200  1
  O  O5  1  0.07996800  0.19511300  0.07360600  1
  O  O6  1  0.57344600  0.07811100  0.19436300  1
  O  O7  1  0.43186900  0.92284000  0.80416000  1
  O  O8  1  0.90891600  0.58312300  0.18834500  1
  O  O9  1  0.11354400  0.43096600  0.81322900  1
  O  O10  1  0.59566000  0.80969700  0.42303800  1
  O  O11  1  0.38678200  0.18327400  0.56737600  1
  O  O12  1  0.56100000  0.59579600  0.69496200  1
  O  O13  1  0.42476400  0.41233500  0.31478200  1
  O  O14  1  0.93391500  0.30553000  0.40708000  1
  O  O15  1  0.06313900  0.69361300  0.59382200  1
loop_
_geom_bond_atom_site_label_1
_geom_bond_atom_site_label_2
_geom_bond_distance
_geom_bond_site_symmetry_2
Li0 O4 2.012340 1_545
Li0 O3 2.018633 1_555
Li0 O5 2.037182 1_656
Li0 O6 2.037390 1_556
Li0 O1 2.042194 1_555
Li0 O7 2.087811 1_545
Cr0 O8 1.953832 1_555
Cr0 O2 1.999292 1_655
Cr0 O0 2.005763 1_555
Cr0 O10 2.010068 1_555
Cr0 O4 2.102834 1_554
Cr0 O6 2.152476 1_565
Cr1 O1 2.013140 1_555
Cr1 O9 2.053003 1_555
Cr1 O3 2.059393 1_455
Cr1 O11 2.061836 1_555
Cr1 O5 2.062505 1_556
Cr1 O7 2.112106 1_545
Cu0 O14 2.130239 1_555
Cu0 O9 2.171832 1_655
Cu0 O12 2.174913 1_555
Cu0 O11 2.176751 1_555
Cu0 O1 2.273715 1_555
Cu0 O3 2.343850 1_555
Cu1 O8 2.029877 1_455
Cu1 O13 2.069854 1_555
Cu1 O10 2.088380 1_555
Cu1 O15 2.159088 1_555
Cu1 O0 2.297340 1_555
Cu1 O2 2.325648 1_555
O0 W1 1.834677 1_554
O1 W0 1.910185 1_556
O2 W3 1.855981 1_565
O3 W2 1.883131 1_545
O4 W1 1.984019 1_655
O4 W2 2.268355 1_555
O5 W0 2.126332 1_455
O5 W3 2.164891 1_555
O6 W3 1.994642 1_555
O6 W0 2.216222 1_555
O7 W2 2.035049 1_555
O7 W1 2.197019 1_555
O8 W0 1.928831 1_555
O9 W1 1.851774 1_555
O10 W2 1.838273 1_555
O11 W3 1.866600 1_555
O12 W1 1.966166 1_555
O12 W2 2.014124 1_555
O13 W0 1.948027 1_555
O13 W3 2.066529 1_555
O14 W3 1.952526 1_655
O14 W0 2.045781 1_555
O15 W2 1.900146 1_455
O15 W1 2.099599 1_555
