# generated using pymatgen
data_Ca2B3ClO8
_symmetry_space_group_name_H-M   'P 1'
_cell_length_a   7.33278900
_cell_length_b   8.31234444
_cell_length_c   12.53941467
_cell_angle_alpha   94.66300104
_cell_angle_beta   90.00000000
_cell_angle_gamma   90.00000000
_symmetry_Int_Tables_number   1
_chemical_formula_structural   Ca2B3ClO8
_chemical_formula_sum   'Ca8 B12 Cl4 O32'
_cell_volume   761.78097861
_cell_formula_units_Z   4
loop_
 _symmetry_equiv_pos_site_id
 _symmetry_equiv_pos_as_xyz
  1  'x, y, z'
loop_
 _atom_site_type_symbol
 _atom_site_label
 _atom_site_symmetry_multiplicity
 _atom_site_fract_x
 _atom_site_fract_y
 _atom_site_fract_z
 _atom_site_occupancy
  Ca  Ca0  1  0.84577200  0.46817700  0.79715900  1
  Ca  Ca1  1  0.15422800  0.53182300  0.20284100  1
  Ca  Ca2  1  0.34577200  0.53182300  0.70284100  1
  Ca  Ca3  1  0.65422800  0.46817700  0.29715900  1
  Ca  Ca4  1  0.65185700  0.90146400  0.74187900  1
  Ca  Ca5  1  0.34814300  0.09853600  0.25812100  1
  Ca  Ca6  1  0.15185700  0.09853600  0.75812100  1
  Ca  Ca7  1  0.84814300  0.90146400  0.24187900  1
  B  B0  1  0.99952600  0.79487700  0.61215400  1
  B  B1  1  0.00047400  0.20512300  0.38784600  1
  B  B2  1  0.49952600  0.20512300  0.88784600  1
  B  B3  1  0.50047400  0.79487700  0.11215400  1
  B  B4  1  0.72529700  0.59146000  0.57941800  1
  B  B5  1  0.27470300  0.40854000  0.42058200  1
  B  B6  1  0.22529700  0.40854000  0.92058200  1
  B  B7  1  0.77470300  0.59146000  0.07941800  1
  B  B8  1  0.58320400  0.67296000  0.93005600  1
  B  B9  1  0.41679600  0.32704000  0.06994400  1
  B  B10  1  0.08320400  0.32704000  0.56994400  1
  B  B11  1  0.91679600  0.67296000  0.43005600  1
  Cl  Cl0  1  0.95009900  0.90729500  0.88460000  1
  Cl  Cl1  1  0.04990100  0.09270500  0.11540000  1
  Cl  Cl2  1  0.45009900  0.09270500  0.61540000  1
  Cl  Cl3  1  0.54990100  0.90729500  0.38460000  1
  O  O0  1  0.56554000  0.69223900  0.60091600  1
  O  O1  1  0.43446000  0.30776100  0.39908400  1
  O  O2  1  0.06554000  0.30776100  0.89908400  1
  O  O3  1  0.93446000  0.69223900  0.10091600  1
  O  O4  1  0.48446600  0.78031300  0.99696100  1
  O  O5  1  0.51553400  0.21968700  0.00303900  1
  O  O6  1  0.98446600  0.21968700  0.50303900  1
  O  O7  1  0.01553400  0.78031300  0.49696100  1
  O  O8  1  0.86697600  0.67282000  0.65233400  1
  O  O9  1  0.13302400  0.32718000  0.34766600  1
  O  O10  1  0.36697600  0.32718000  0.84766600  1
  O  O11  1  0.63302400  0.67282000  0.15233400  1
  O  O12  1  0.93238500  0.95198800  0.65446500  1
  O  O13  1  0.06761500  0.04801200  0.34553500  1
  O  O14  1  0.43238500  0.04801200  0.84553500  1
  O  O15  1  0.56761500  0.95198800  0.15446500  1
  O  O16  1  0.65451400  0.45483600  0.62967000  1
  O  O17  1  0.34548600  0.54516400  0.37033000  1
  O  O18  1  0.15451400  0.54516400  0.87033000  1
  O  O19  1  0.84548600  0.45483600  0.12967000  1
  O  O20  1  0.56480300  0.66482700  0.82164700  1
  O  O21  1  0.43519700  0.33517300  0.17835300  1
  O  O22  1  0.06480300  0.33517300  0.67835300  1
  O  O23  1  0.93519700  0.66482700  0.32164700  1
  O  O24  1  0.71388200  0.56966900  0.96947300  1
  O  O25  1  0.28611800  0.43033100  0.03052700  1
  O  O26  1  0.21388200  0.43033100  0.53052700  1
  O  O27  1  0.78611800  0.56966900  0.46947300  1
  O  O28  1  0.66860600  0.22886600  0.83212300  1
  O  O29  1  0.33139400  0.77113400  0.16787700  1
  O  O30  1  0.16860600  0.77113400  0.66787700  1
  O  O31  1  0.83139400  0.22886600  0.33212300  1
loop_
_geom_bond_atom_site_label_1
_geom_bond_atom_site_label_2
_geom_bond_distance
_geom_bond_site_symmetry_2
Ca0 O22 2.398638 1_655
Ca0 O28 2.445157 1_555
Ca0 O24 2.453439 1_555
Ca0 O18 2.506258 1_655
Ca0 O2 2.507109 1_655
Ca0 O16 2.520359 1_555
Ca0 O8 2.591908 1_555
Ca0 O20 2.632385 1_555
Ca1 O23 2.398638 1_455
Ca1 O29 2.445157 1_555
Ca1 O25 2.453439 1_555
Ca1 O19 2.506258 1_455
Ca1 O3 2.507109 1_455
Ca1 O17 2.520359 1_555
Ca1 O9 2.591908 1_555
Ca1 O21 2.632385 1_555
Ca2 O20 2.398638 1_555
Ca2 O30 2.445157 1_555
Ca2 O26 2.453439 1_555
Ca2 O16 2.506258 1_555
Ca2 O0 2.507109 1_555
Ca2 O18 2.520359 1_555
Ca2 O10 2.591908 1_555
Ca2 O22 2.632385 1_555
Ca3 O21 2.398638 1_555
Ca3 O31 2.445157 1_555
Ca3 O27 2.453439 1_555
Ca3 O17 2.506258 1_555
Ca3 O1 2.507109 1_555
Ca3 O19 2.520359 1_555
Ca3 O11 2.591908 1_555
Ca3 O23 2.632385 1_555
Ca4 O14 2.346465 1_565
Ca4 O20 2.365796 1_555
Ca4 O12 2.384150 1_555
Ca4 O0 2.459640 1_555
Ca4 O8 2.648437 1_555
Ca4 Cl2 2.764239 1_565
Ca4 Cl0 2.823788 1_555
Ca4 O28 2.863799 1_565
Ca5 O15 2.346465 1_545
Ca5 O21 2.365796 1_555
Ca5 O13 2.384150 1_555
Ca5 O1 2.459640 1_555
Ca5 O9 2.648437 1_555
Ca5 Cl3 2.764239 1_545
Ca5 Cl1 2.823788 1_555
Ca5 O29 2.863799 1_545
Ca6 O12 2.346465 1_445
Ca6 O22 2.365796 1_555
Ca6 O14 2.384150 1_555
Ca6 O2 2.459640 1_555
Ca6 O10 2.648437 1_555
Ca6 Cl0 2.764239 1_445
Ca6 Cl2 2.823788 1_555
Ca6 O30 2.863799 1_545
Ca7 O13 2.346465 1_665
Ca7 O23 2.365796 1_555
Ca7 O15 2.384150 1_555
Ca7 O3 2.459640 1_555
Ca7 O11 2.648437 1_555
Ca7 Cl1 2.764239 1_665
Ca7 Cl3 2.823788 1_555
Ca7 O31 2.863799 1_565
B0 O7 1.444454 1_655
B0 O30 1.444567 1_655
B0 O12 1.454908 1_555
B0 O8 1.520211 1_555
B1 O6 1.444454 1_455
B1 O31 1.444567 1_455
B1 O13 1.454908 1_555
B1 O9 1.520211 1_555
B2 O5 1.444454 1_556
B2 O28 1.444567 1_555
B2 O14 1.454908 1_555
B2 O10 1.520211 1_555
B3 O4 1.444454 1_554
B3 O29 1.444567 1_555
B3 O15 1.454908 1_555
B3 O11 1.520211 1_555
B4 O16 1.439636 1_555
B4 O27 1.446298 1_555
B4 O0 1.452597 1_555
B4 O8 1.507362 1_555
B5 O17 1.439636 1_555
B5 O26 1.446298 1_555
B5 O1 1.452597 1_555
B5 O9 1.507362 1_555
B6 O18 1.439636 1_555
B6 O25 1.446298 1_556
B6 O2 1.452597 1_555
B6 O10 1.507362 1_555
B7 O19 1.439636 1_555
B7 O24 1.446298 1_554
B7 O3 1.452597 1_555
B7 O11 1.507362 1_555
B8 O20 1.362264 1_555
B8 O4 1.379357 1_555
B8 O24 1.403099 1_555
B9 O21 1.362264 1_555
B9 O5 1.379357 1_555
B9 O25 1.403099 1_555
B10 O22 1.362264 1_555
B10 O6 1.379357 1_455
B10 O26 1.403099 1_555
B11 O23 1.362264 1_555
B11 O7 1.379357 1_655
B11 O27 1.403099 1_555
