# generated using pymatgen
data_YSi3
_symmetry_space_group_name_H-M   'P 1'
_cell_length_a   7.45692518
_cell_length_b   7.45692518
_cell_length_c   7.45692518
_cell_angle_alpha   121.97225610
_cell_angle_beta   121.97225610
_cell_angle_gamma   86.61660230
_symmetry_Int_Tables_number   1
_chemical_formula_structural   YSi3
_chemical_formula_sum   'Y4 Si12'
_cell_volume   283.92103641
_cell_formula_units_Z   4
loop_
 _symmetry_equiv_pos_site_id
 _symmetry_equiv_pos_as_xyz
  1  'x, y, z'
loop_
 _atom_site_type_symbol
 _atom_site_label
 _atom_site_symmetry_multiplicity
 _atom_site_fract_x
 _atom_site_fract_y
 _atom_site_fract_z
 _atom_site_occupancy
  Y  Y0  1  0.82902300  0.82902300  0.00000000  1
  Y  Y1  1  0.17097700  0.17097700  0.00000000  1
  Y  Y2  1  0.25000000  0.75000000  0.50000000  1
  Y  Y3  1  0.75000000  0.25000000  0.50000000  1
  Si  Si0  1  0.32827500  0.00000000  0.32827500  1
  Si  Si1  1  0.67172500  0.00000000  0.67172500  1
  Si  Si2  1  0.00000000  0.67172500  0.67172500  1
  Si  Si3  1  0.00000000  0.32827500  0.32827500  1
  Si  Si4  1  0.20158700  0.20158700  0.62745600  1
  Si  Si5  1  0.57413100  0.57413100  0.37254400  1
  Si  Si6  1  0.20158700  0.57413100  0.00000000  1
  Si  Si7  1  0.57413100  0.20158700  0.00000000  1
  Si  Si8  1  0.79841300  0.79841300  0.37254400  1
  Si  Si9  1  0.42586900  0.42586900  0.62745600  1
  Si  Si10  1  0.79841300  0.42586900  0.00000000  1
  Si  Si11  1  0.42586900  0.79841300  0.00000000  1
loop_
_geom_bond_atom_site_label_1
_geom_bond_atom_site_label_2
_geom_bond_distance
_geom_bond_site_symmetry_2
Si0 Si1 2.484358 1_555
Si0 Si11 2.577241 1_545
Si0 Si4 2.577241 1_555
Si0 Si9 2.577241 1_555
Si0 Si6 2.577241 1_545
Si0 Y2 2.983946 1_545
Si0 Y3 2.983946 1_555
Si0 Y1 3.013569 1_555
Si0 Y0 3.013569 1_445
Si1 Si10 2.577241 1_556
Si1 Si8 2.577241 1_545
Si1 Si5 2.577241 1_545
Si1 Si7 2.577241 1_556
Si1 Y2 2.983946 1_545
Si1 Y3 2.983946 1_555
Si1 Y1 3.013569 1_656
Si1 Y0 3.013569 1_546
Si2 Si3 2.484358 1_555
Si2 Si5 2.577241 1_455
Si2 Si6 2.577241 1_556
Si2 Si8 2.577241 1_455
Si2 Y3 2.983946 1_455
Si2 Y2 2.983946 1_555
Si2 Y0 3.013569 1_456
Si2 Y1 3.013569 1_566
Si3 Si9 2.577241 1_555
Si3 Si7 2.577241 1_455
Si3 Si4 2.577241 1_555
Si3 Y3 2.983946 1_455
Si3 Y2 2.983946 1_555
Si3 Y1 3.013569 1_555
Si3 Y0 3.013569 1_445
Si4 Si9 2.434001 1_555
Si4 Si6 2.694810 1_556
Si4 Si7 2.694810 1_556
Si4 Y1 3.028345 1_556
Si4 Y3 3.033782 1_455
Si4 Y2 3.033782 1_545
Si4 Y0 3.272264 1_445
Si5 Si8 2.434001 1_555
Si5 Si7 2.694810 1_555
Si5 Si6 2.694810 1_555
Si5 Y1 3.028345 1_555
Si5 Y2 3.033782 1_555
Si5 Y3 3.033782 1_555
Si5 Y0 3.272264 1_556
Si6 Y1 3.028345 1_555
Si6 Y3 3.033782 1_454
Si6 Y2 3.033782 1_555
Si6 Y0 3.272264 1_455
Si7 Y1 3.028345 1_555
Si7 Y3 3.033782 1_555
Si7 Y2 3.033782 1_544
Si7 Y0 3.272264 1_545
Si8 Y0 3.028345 1_555
Si8 Y3 3.033782 1_565
Si8 Y2 3.033782 1_655
Si8 Y1 3.272264 1_666
Si9 Y0 3.028345 1_556
Si9 Y2 3.033782 1_555
Si9 Y3 3.033782 1_555
Si9 Y1 3.272264 1_555
Si10 Si7 2.434001 1_555
Si10 Si3 2.577241 1_655
Si10 Si9 2.694810 1_554
Si10 Si8 2.694810 1_555
Si10 Y0 3.028345 1_555
Si10 Y3 3.033782 1_554
Si10 Y2 3.033782 1_655
Si10 Y1 3.272264 1_655
Si11 Si6 2.434001 1_555
Si11 Si2 2.577241 1_554
Si11 Si9 2.694810 1_554
Si11 Si8 2.694810 1_555
Si11 Y0 3.028345 1_555
Si11 Y2 3.033782 1_554
Si11 Y3 3.033782 1_565
Si11 Y1 3.272264 1_565
