# generated using pymatgen
data_V2OF5
_symmetry_space_group_name_H-M   'P 1'
_cell_length_a   5.09009653
_cell_length_b   13.24954905
_cell_length_c   5.09071695
_cell_angle_alpha   89.98837999
_cell_angle_beta   59.98833952
_cell_angle_gamma   89.99324799
_symmetry_Int_Tables_number   1
_chemical_formula_structural   V2OF5
_chemical_formula_sum   'V6 O3 F15'
_cell_volume   297.29366030
_cell_formula_units_Z   3
loop_
 _symmetry_equiv_pos_site_id
 _symmetry_equiv_pos_as_xyz
  1  'x, y, z'
loop_
 _atom_site_type_symbol
 _atom_site_label
 _atom_site_symmetry_multiplicity
 _atom_site_fract_x
 _atom_site_fract_y
 _atom_site_fract_z
 _atom_site_occupancy
  V  V0  1  0.30603455  0.82714145  0.35409340  1
  V  V1  1  0.68233814  0.66902661  0.65740860  1
  V  V2  1  0.68751004  0.16052098  0.67307895  1
  V  V3  1  0.00637555  0.49377922  0.97275767  1
  V  V4  1  0.99062816  0.00236072  0.99351471  1
  V  V5  1  0.32690919  0.33571141  0.34906457  1
  O  O0  1  0.01659183  0.74880289  0.56895727  1
  O  O1  1  0.08126880  0.41555375  0.68311739  1
  O  O2  1  0.90222639  0.08226169  0.74784644  1
  F  F0  1  0.00663107  0.24950428  0.38496264  1
  F  F1  1  0.27500330  0.91612796  0.67341488  1
  F  F2  1  0.71773843  0.58281712  0.94240645  1
  F  F3  1  0.61645413  0.74979404  0.38174655  1
  F  F4  1  0.40521423  0.75451503  0.98177448  1
  F  F5  1  0.27993432  0.42109031  0.07155723  1
  F  F6  1  0.71579628  0.08332760  0.33467884  1
  F  F7  1  0.66889210  0.41624959  0.28251981  1
  F  F8  1  0.31538995  0.08767254  0.94580936  1
  F  F9  1  0.06629733  0.92226616  0.27761638  1
  F  F10  1  0.92930400  0.57881969  0.33276526  1
  F  F11  1  0.61078501  0.25555682  -0.01039367  1
  F  F12  1  0.40471255  0.24572661  0.59640537  1
  F  F13  1  0.66535185  0.91242048  0.07177604  1
  F  F14  1  0.32261279  0.58895505  0.73312039  1
loop_
_geom_bond_atom_site_label_1
_geom_bond_atom_site_label_2
_geom_bond_distance
_geom_bond_site_symmetry_2
O0 V0 1.682909 1_555
O0 V1 1.857032 1_455
O1 V3 1.682818 1_555
O1 V5 1.856814 1_555
O2 V2 1.682330 1_555
O2 V4 1.857307 1_555
F0 V5 1.923034 1_555
F0 V2 1.948396 1_455
F1 V4 1.922715 1_465
F1 V0 1.949728 1_555
F2 V1 1.924297 1_555
F2 V3 1.949543 1_655
F3 V1 1.922766 1_555
F3 V0 1.946471 1_555
F4 V1 1.915644 1_555
F4 V0 1.953634 1_556
F5 V5 1.915674 1_555
F5 V3 1.954351 1_554
F6 V4 1.922014 1_554
F6 V2 1.946036 1_555
F7 V5 1.921971 1_555
F7 V3 1.944922 1_654
F8 V4 1.915208 1_455
F8 V2 1.953497 1_555
F9 V0 1.924543 1_555
F9 V4 1.980604 1_464
F10 V1 1.913699 1_555
F10 V3 2.015874 1_654
F11 V2 1.925020 1_554
F11 V5 1.979816 1_555
F12 V5 1.913600 1_555
F12 V2 2.015045 1_555
F13 V4 1.913245 1_564
F13 V0 2.014361 1_555
F14 V3 1.924830 1_555
F14 V1 1.980176 1_555
