# generated using pymatgen
data_MgZn4(Co3O8)2
_symmetry_space_group_name_H-M   'P 1'
_cell_length_a   5.90777424
_cell_length_b   5.88865146
_cell_length_c   9.64373782
_cell_angle_alpha   90.43262062
_cell_angle_beta   90.06339835
_cell_angle_gamma   120.79952107
_symmetry_Int_Tables_number   1
_chemical_formula_structural   MgZn4(Co3O8)2
_chemical_formula_sum   'Mg1 Zn4 Co6 O16'
_cell_volume   288.16453429
_cell_formula_units_Z   1
loop_
 _symmetry_equiv_pos_site_id
 _symmetry_equiv_pos_as_xyz
  1  'x, y, z'
loop_
 _atom_site_type_symbol
 _atom_site_label
 _atom_site_symmetry_multiplicity
 _atom_site_fract_x
 _atom_site_fract_y
 _atom_site_fract_z
 _atom_site_occupancy
  Mg  Mg0  1  0.99138400  0.99000800  0.02887600  1
  Zn  Zn0  1  0.68151300  0.33566000  0.02791900  1
  Zn  Zn1  1  0.31947200  0.66200600  0.53227900  1
  Zn  Zn2  1  0.66141000  0.33456900  0.42338000  1
  Zn  Zn3  1  0.34378700  0.66927000  0.92195600  1
  Co  Co0  1  0.66524100  0.83058900  0.26386200  1
  Co  Co1  1  0.83315400  0.16862800  0.74037600  1
  Co  Co2  1  0.16678500  0.33473800  0.25219700  1
  Co  Co3  1  0.83093900  0.66984000  0.73360000  1
  Co  Co4  1  0.33398000  0.17253000  0.73371800  1
  Co  Co5  1  0.16907900  0.83288900  0.25222100  1
  O  O0  1  0.84932100  0.15882800  0.14594000  1
  O  O1  1  0.66920300  0.86881300  0.63952900  1
  O  O2  1  0.16200800  0.32521700  0.64430100  1
  O  O3  1  0.85544200  0.67836400  0.14544700  1
  O  O4  1  0.31300500  0.15710200  0.14659300  1
  O  O5  1  0.12934900  0.81469000  0.63671200  1
  O  O6  1  0.55460000  0.51171800  0.86630600  1
  O  O7  1  0.03324000  0.51548100  0.35861900  1
  O  O8  1  0.46462100  0.96419100  0.36879500  1
  O  O9  1  0.51448900  0.03899300  0.86482800  1
  O  O10  1  0.02107900  0.01043900  0.34955600  1
  O  O11  1  0.00110000  0.98230200  0.83816100  1
  O  O12  1  0.32282200  0.66178100  0.14403200  1
  O  O13  1  0.97472800  0.44811100  0.86832700  1
  O  O14  1  0.46877300  0.50959000  0.36713300  1
  O  O15  1  0.66947500  0.35366100  0.62805200  1
loop_
_geom_bond_atom_site_label_1
_geom_bond_atom_site_label_2
_geom_bond_distance
_geom_bond_site_symmetry_2
Mg0 O11 1.841106 1_654
Mg0 O3 1.949468 1_555
Mg0 O0 1.951085 1_565
Mg0 O4 1.982660 1_665
Co0 O14 1.922572 1_555
Co0 O10 1.981623 1_665
Co0 O8 1.998314 1_555
Co0 O0 2.023676 1_565
Co0 O12 2.081828 1_555
Co0 O3 2.095022 1_555
Co1 O1 1.794934 1_545
Co1 O13 1.867648 1_555
Co1 O2 1.914543 1_655
Co1 O9 2.028417 1_555
Co1 O11 2.050847 1_645
Co1 O15 2.095261 1_555
Co2 O14 1.889149 1_555
Co2 O10 1.901276 1_555
Co2 O0 1.905455 1_455
Co2 O7 1.911485 1_555
Co2 O4 1.946481 1_555
Co2 O12 1.964983 1_555
Co3 O5 1.784459 1_655
Co3 O11 1.867731 1_655
Co3 O15 1.887590 1_555
Co3 O6 1.906822 1_555
Co3 O1 2.066265 1_555
Co3 O13 2.296420 1_555
Co4 O2 1.878681 1_555
Co4 O11 1.975400 1_545
Co4 O15 1.990083 1_555
Co4 O5 2.033690 1_545
Co4 O9 2.055491 1_555
Co4 O6 2.148239 1_555
Co5 O8 1.873557 1_555
Co5 O3 1.891168 1_455
Co5 O10 1.913607 1_565
Co5 O7 1.919663 1_555
Co5 O4 1.942795 1_565
Co5 O12 1.962707 1_555
O0 Zn0 2.105970 1_555
O1 Zn1 2.054567 1_555
O2 Zn1 2.027539 1_555
O3 Zn0 2.062126 1_555
O4 Zn0 2.198738 1_555
O5 Zn1 2.026644 1_555
O6 Zn3 1.969044 1_555
O6 Zn0 2.209963 1_556
O7 Zn2 1.991725 1_455
O7 Zn1 2.210523 1_555
O8 Zn2 1.941707 1_565
O8 Zn1 2.206850 1_555
O9 Zn3 1.957417 1_545
O9 Zn0 2.165422 1_556
O12 Zn3 2.144840 1_554
O13 Zn3 1.948542 1_655
O13 Zn0 2.157429 1_556
O14 Zn2 1.964650 1_555
O14 Zn1 2.216353 1_555
O15 Zn2 1.975288 1_555
