# generated using pymatgen
data_MgAl3
_symmetry_space_group_name_H-M   'P 1'
_cell_length_a   5.03442744
_cell_length_b   5.03442744
_cell_length_c   5.03442744
_cell_angle_alpha   132.05517325
_cell_angle_beta   132.05517325
_cell_angle_gamma   70.14190069
_symmetry_Int_Tables_number   1
_chemical_formula_structural   MgAl3
_chemical_formula_sum   'Mg1 Al3'
_cell_volume   68.95795754
_cell_formula_units_Z   1
loop_
 _symmetry_equiv_pos_site_id
 _symmetry_equiv_pos_as_xyz
  1  'x, y, z'
loop_
 _atom_site_type_symbol
 _atom_site_label
 _atom_site_symmetry_multiplicity
 _atom_site_fract_x
 _atom_site_fract_y
 _atom_site_fract_z
 _atom_site_occupancy
  Mg  Mg0  1  -0.00000000  0.00000000  0.00000000  1
  Al  Al0  1  0.50000000  0.50000000  0.00000000  1
  Al  Al1  1  0.25000000  0.75000000  0.50000000  1
  Al  Al2  1  0.75000000  0.25000000  0.50000000  1
loop_
_geom_bond_atom_site_label_1
_geom_bond_atom_site_label_2
_geom_bond_distance
_geom_bond_site_symmetry_2
Al0 Mg0 2.892734 1_554
Al0 Mg0 2.892734 1_565
Al0 Mg0 2.892734 1_655
Al0 Mg0 2.892734 1_666
Al0 Al2 2.903161 1_554
Al0 Al1 2.903161 1_544
Al0 Al1 2.903161 1_555
Al0 Al2 2.903161 1_555
Al0 Al2 2.903161 1_454
Al0 Al2 2.903161 1_565
Al0 Al1 2.903161 1_554
Al0 Al1 2.903161 1_655
Al1 Al2 2.892734 1_555
Al1 Al2 2.892734 1_454
Al1 Al2 2.892734 1_465
Al1 Al2 2.892734 1_566
Al1 Mg0 2.903161 1_666
Al1 Mg0 2.903161 1_566
Al1 Mg0 2.903161 1_565
Al1 Mg0 2.903161 1_555
Al2 Mg0 2.903161 1_666
Al2 Mg0 2.903161 1_655
Al2 Mg0 2.903161 1_656
Al2 Mg0 2.903161 1_555
