# generated using pymatgen
data_SrVSi2O7
_symmetry_space_group_name_H-M   'P 1'
_cell_length_a   5.37518271
_cell_length_b   7.12275800
_cell_length_c   7.88698303
_cell_angle_alpha   90.00000000
_cell_angle_beta   109.92335466
_cell_angle_gamma   90.00000000
_symmetry_Int_Tables_number   1
_chemical_formula_structural   SrVSi2O7
_chemical_formula_sum   'Sr2 V2 Si4 O14'
_cell_volume   283.88938636
_cell_formula_units_Z   2
loop_
 _symmetry_equiv_pos_site_id
 _symmetry_equiv_pos_as_xyz
  1  'x, y, z'
loop_
 _atom_site_type_symbol
 _atom_site_label
 _atom_site_symmetry_multiplicity
 _atom_site_fract_x
 _atom_site_fract_y
 _atom_site_fract_z
 _atom_site_occupancy
  Sr  Sr0  1  0.22167400  0.25000000  0.41093900  1
  Sr  Sr1  1  0.81073400  0.75000000  0.58906100  1
  V  V0  1  0.90364700  0.25000000  0.78384500  1
  V  V1  1  0.11980200  0.75000000  0.21615500  1
  Si  Si0  1  0.40624400  0.52416800  0.78415000  1
  Si  Si1  1  0.40624400  0.97583200  0.78415000  1
  Si  Si2  1  0.62209400  0.02416800  0.21585000  1
  Si  Si3  1  0.62209400  0.47583200  0.21585000  1
  O  O0  1  0.91885000  0.56060300  0.30923000  1
  O  O1  1  0.60962000  0.43939700  0.69077000  1
  O  O2  1  0.41361800  0.93897900  0.30442000  1
  O  O3  1  0.10919800  0.06102100  0.69558000  1
  O  O4  1  0.37622000  0.75000000  0.72645400  1
  O  O5  1  0.00659100  0.25000000  0.00609500  1
  O  O6  1  0.60962000  0.06060300  0.69077000  1
  O  O7  1  0.41361800  0.56102100  0.30442000  1
  O  O8  1  0.00049600  0.75000000  0.99390500  1
  O  O9  1  0.64976700  0.25000000  0.27354600  1
  O  O10  1  0.51571100  0.00000000  0.00000000  1
  O  O11  1  0.10919800  0.43897900  0.69558000  1
  O  O12  1  0.91885000  0.93939700  0.30923000  1
  O  O13  1  0.51571100  0.50000000  0.00000000  1
loop_
_geom_bond_atom_site_label_1
_geom_bond_atom_site_label_2
_geom_bond_distance
_geom_bond_site_symmetry_2
O0 Si3 1.628111 1_555
O0 V1 2.016403 1_655
O0 Sr0 2.701409 1_655
O0 Sr1 2.811170 1_555
O1 Si0 1.628111 1_555
O1 V0 2.016403 1_555
O1 Sr1 2.701406 1_555
O1 Sr0 2.811168 1_555
O2 Si2 1.626464 1_565
O2 V1 2.010328 1_555
O2 Sr0 2.696047 1_565
O2 Sr1 2.853454 1_555
O3 Si1 1.626464 1_545
O3 V0 2.010327 1_455
O3 Sr1 2.696050 1_445
O3 Sr0 2.853457 1_555
O4 Si1 1.664478 1_555
O4 Si0 1.664478 1_555
O4 Sr1 2.858069 1_455
O4 Sr1 2.890342 1_555
O5 V0 1.648557 1_454
O5 Sr0 3.002666 1_555
O6 Si1 1.628111 1_545
O6 V0 2.016403 1_555
O6 Sr1 2.701406 1_545
O6 Sr0 2.811168 1_555
O7 Si3 1.626464 1_555
O7 V1 2.010328 1_555
O7 Sr0 2.696047 1_555
O7 Sr1 2.853454 1_555
O8 V1 1.648557 1_556
O8 Sr1 3.002666 1_455
O9 Si3 1.664478 1_555
O9 Si2 1.664478 1_555
O9 Sr0 2.858069 1_555
O9 Sr0 2.890342 1_655
O10 Si2 1.609767 1_555
O10 Si1 1.609767 1_544
O11 Si0 1.626464 1_555
O11 V0 2.010327 1_455
O11 Sr1 2.696050 1_455
O11 Sr0 2.853457 1_555
O12 Si2 1.628111 1_565
O12 V1 2.016403 1_655
O12 Sr0 2.701409 1_665
O12 Sr1 2.811170 1_555
O13 Si3 1.609767 1_555
O13 Si0 1.609767 1_554
