# generated using pymatgen
data_Sm11In9Ni4
_symmetry_space_group_name_H-M   'P 1'
_cell_length_a   26.38923591
_cell_length_b   26.38923591
_cell_length_c   7.41077186
_cell_angle_alpha   90.00000000
_cell_angle_beta   90.00000000
_cell_angle_gamma   112.60804400
_symmetry_Int_Tables_number   1
_chemical_formula_structural   Sm11In9Ni4
_chemical_formula_sum   'Sm88 In72 Ni32'
_cell_volume   4764.22530571
_cell_formula_units_Z   8
loop_
 _symmetry_equiv_pos_site_id
 _symmetry_equiv_pos_as_xyz
  1  'x, y, z'
loop_
 _atom_site_type_symbol
 _atom_site_label
 _atom_site_symmetry_multiplicity
 _atom_site_fract_x
 _atom_site_fract_y
 _atom_site_fract_z
 _atom_site_occupancy
  Sm  Sm0_0  1  0.20832827  0.03958017  0.00000000  1
  Sm  Sm0_1  1  0.20832827  0.03958017  0.50000000  1
  Sm  Sm0_2  1  0.20832827  0.53958017  0.00000000  1
  Sm  Sm0_3  1  0.20832827  0.53958017  0.50000000  1
  Sm  Sm0_4  1  0.70832827  0.03958017  0.00000000  1
  Sm  Sm0_5  1  0.70832827  0.03958017  0.50000000  1
  Sm  Sm0_6  1  0.70832827  0.53958017  0.00000000  1
  Sm  Sm0_7  1  0.70832827  0.53958017  0.50000000  1
  Sm  Sm1_0  1  0.29167173  0.46041983  0.00000000  1
  Sm  Sm1_1  1  0.29167173  0.46041983  0.50000000  1
  Sm  Sm1_2  1  0.29167174  0.96041983  0.00000000  1
  Sm  Sm1_3  1  0.29167174  0.96041983  0.50000000  1
  Sm  Sm1_4  1  0.79167174  0.46041983  0.00000000  1
  Sm  Sm1_5  1  0.79167174  0.46041983  0.50000000  1
  Sm  Sm1_6  1  0.79167173  0.96041983  0.00000000  1
  Sm  Sm1_7  1  0.79167173  0.96041983  0.50000000  1
  Sm  Sm2_0  1  0.03958017  0.20832827  0.00000000  1
  Sm  Sm2_1  1  0.03958017  0.20832827  0.50000000  1
  Sm  Sm2_2  1  0.03958017  0.70832827  0.00000000  1
  Sm  Sm2_3  1  0.03958017  0.70832827  0.50000000  1
  Sm  Sm2_4  1  0.53958017  0.20832827  0.00000000  1
  Sm  Sm2_5  1  0.53958017  0.20832827  0.50000000  1
  Sm  Sm2_6  1  0.53958017  0.70832827  0.00000000  1
  Sm  Sm2_7  1  0.53958017  0.70832827  0.50000000  1
  Sm  Sm3_0  1  0.46041983  0.29167173  0.00000000  1
  Sm  Sm3_1  1  0.46041983  0.29167173  0.50000000  1
  Sm  Sm3_2  1  0.46041983  0.79167173  0.00000000  1
  Sm  Sm3_3  1  0.46041983  0.79167173  0.50000000  1
  Sm  Sm3_4  1  0.96041983  0.29167173  0.00000000  1
  Sm  Sm3_5  1  0.96041983  0.29167173  0.50000000  1
  Sm  Sm3_6  1  0.96041983  0.79167173  0.00000000  1
  Sm  Sm3_7  1  0.96041983  0.79167173  0.50000000  1
  Sm  Sm4_0  1  0.08063899  0.41936101  0.00000000  1
  Sm  Sm4_1  1  0.08063899  0.41936101  0.50000000  1
  Sm  Sm4_2  1  0.08063899  0.91936100  0.00000000  1
  Sm  Sm4_3  1  0.08063899  0.91936100  0.50000000  1
  Sm  Sm4_4  1  0.58063900  0.41936101  0.00000000  1
  Sm  Sm4_5  1  0.58063900  0.41936101  0.50000000  1
  Sm  Sm4_6  1  0.58063899  0.91936101  0.00000000  1
  Sm  Sm4_7  1  0.58063899  0.91936101  0.50000000  1
  Sm  Sm5_0  1  0.41936101  0.08063900  0.00000000  1
  Sm  Sm5_1  1  0.41936101  0.08063900  0.50000000  1
  Sm  Sm5_2  1  0.41936101  0.58063900  0.00000000  1
  Sm  Sm5_3  1  0.41936101  0.58063900  0.50000000  1
  Sm  Sm5_4  1  0.91936100  0.08063899  0.00000000  1
  Sm  Sm5_5  1  0.91936100  0.08063899  0.50000000  1
  Sm  Sm5_6  1  0.91936100  0.58063900  0.00000000  1
  Sm  Sm5_7  1  0.91936100  0.58063900  0.50000000  1
  Sm  Sm6_0  1  0.18742352  0.31257648  0.00000000  1
  Sm  Sm6_1  1  0.18742352  0.31257648  0.50000000  1
  Sm  Sm6_2  1  0.18742352  0.81257648  0.00000000  1
  Sm  Sm6_3  1  0.18742352  0.81257648  0.50000000  1
  Sm  Sm6_4  1  0.68742352  0.31257648  0.00000000  1
  Sm  Sm6_5  1  0.68742352  0.31257648  0.50000000  1
  Sm  Sm6_6  1  0.68742352  0.81257648  0.00000000  1
  Sm  Sm6_7  1  0.68742352  0.81257648  0.50000000  1
  Sm  Sm7_0  1  0.31257648  0.18742352  0.00000000  1
  Sm  Sm7_1  1  0.31257648  0.18742352  0.50000000  1
  Sm  Sm7_2  1  0.31257648  0.68742352  0.00000000  1
  Sm  Sm7_3  1  0.31257648  0.68742352  0.50000000  1
  Sm  Sm7_4  1  0.81257648  0.18742352  0.00000000  1
  Sm  Sm7_5  1  0.81257648  0.18742352  0.50000000  1
  Sm  Sm7_6  1  0.81257648  0.68742352  0.00000000  1
  Sm  Sm7_7  1  0.81257648  0.68742352  0.50000000  1
  Sm  Sm8_0  1  0.15660193  0.15660193  0.00000000  1
  Sm  Sm8_1  1  0.15660193  0.15660193  0.50000000  1
  Sm  Sm8_2  1  0.15660193  0.65660193  0.00000000  1
  Sm  Sm8_3  1  0.15660193  0.65660193  0.50000000  1
  Sm  Sm8_4  1  0.65660193  0.15660193  0.00000000  1
  Sm  Sm8_5  1  0.65660193  0.15660193  0.50000000  1
  Sm  Sm8_6  1  0.65660193  0.65660193  0.00000000  1
  Sm  Sm8_7  1  0.65660193  0.65660193  0.50000000  1
  Sm  Sm9_0  1  0.34339807  0.34339807  0.00000000  1
  Sm  Sm9_1  1  0.34339807  0.34339807  0.50000000  1
  Sm  Sm9_2  1  0.34339807  0.84339807  0.00000000  1
  Sm  Sm9_3  1  0.34339807  0.84339807  0.50000000  1
  Sm  Sm9_4  1  0.84339807  0.34339807  0.00000000  1
  Sm  Sm9_5  1  0.84339807  0.34339807  0.50000000  1
  Sm  Sm9_6  1  0.84339807  0.84339807  0.00000000  1
  Sm  Sm9_7  1  0.84339807  0.84339807  0.50000000  1
  Sm  Sm10_0  1  0.00000000  0.00000000  0.00000000  1
  Sm  Sm10_1  1  0.00000000  0.00000000  0.50000000  1
  Sm  Sm10_2  1  0.00000000  0.50000000  0.00000000  1
  Sm  Sm10_3  1  0.00000000  0.50000000  0.50000000  1
  Sm  Sm10_4  1  0.50000000  0.00000000  0.00000000  1
  Sm  Sm10_5  1  0.50000000  0.00000000  0.50000000  1
  Sm  Sm10_6  1  0.50000000  0.50000000  0.00000000  1
  Sm  Sm10_7  1  0.50000000  0.50000000  0.50000000  1
  In  In0_0  1  0.18364662  0.41923887  0.25000000  1
  In  In0_1  1  0.18364662  0.41923887  0.75000000  1
  In  In0_2  1  0.18364661  0.91923887  0.25000000  1
  In  In0_3  1  0.18364661  0.91923887  0.75000000  1
  In  In0_4  1  0.68364662  0.41923887  0.25000000  1
  In  In0_5  1  0.68364662  0.41923887  0.75000000  1
  In  In0_6  1  0.68364662  0.91923887  0.25000000  1
  In  In0_7  1  0.68364662  0.91923887  0.75000000  1
  In  In1_0  1  0.31635338  0.08076113  0.25000000  1
  In  In1_1  1  0.31635338  0.08076113  0.75000000  1
  In  In1_2  1  0.31635339  0.58076113  0.25000000  1
  In  In1_3  1  0.31635339  0.58076113  0.75000000  1
  In  In1_4  1  0.81635339  0.08076113  0.25000000  1
  In  In1_5  1  0.81635339  0.08076113  0.75000000  1
  In  In1_6  1  0.81635339  0.58076113  0.25000000  1
  In  In1_7  1  0.81635339  0.58076113  0.75000000  1
  In  In2_0  1  0.41923887  0.18364662  0.25000000  1
  In  In2_1  1  0.41923887  0.18364662  0.75000000  1
  In  In2_2  1  0.41923887  0.68364662  0.25000000  1
  In  In2_3  1  0.41923887  0.68364662  0.75000000  1
  In  In2_4  1  0.91923887  0.18364661  0.25000000  1
  In  In2_5  1  0.91923887  0.18364661  0.75000000  1
  In  In2_6  1  0.91923887  0.68364662  0.25000000  1
  In  In2_7  1  0.91923887  0.68364662  0.75000000  1
  In  In3_0  1  0.08076113  0.31635338  0.25000000  1
  In  In3_1  1  0.08076113  0.31635338  0.75000000  1
  In  In3_2  1  0.08076113  0.81635339  0.25000000  1
  In  In3_3  1  0.08076113  0.81635339  0.75000000  1
  In  In3_4  1  0.58076113  0.31635338  0.25000000  1
  In  In3_5  1  0.58076113  0.31635338  0.75000000  1
  In  In3_6  1  0.58076113  0.81635339  0.25000000  1
  In  In3_7  1  0.58076113  0.81635339  0.75000000  1
  In  In4_0  1  0.11008434  0.04019431  0.25000000  1
  In  In4_1  1  0.11008434  0.04019431  0.75000000  1
  In  In4_2  1  0.11008434  0.54019431  0.25000000  1
  In  In4_3  1  0.11008434  0.54019431  0.75000000  1
  In  In4_4  1  0.61008434  0.04019431  0.25000000  1
  In  In4_5  1  0.61008434  0.04019431  0.75000000  1
  In  In4_6  1  0.61008434  0.54019431  0.25000000  1
  In  In4_7  1  0.61008434  0.54019431  0.75000000  1
  In  In5_0  1  0.38991566  0.45980569  0.25000000  1
  In  In5_1  1  0.38991566  0.45980569  0.75000000  1
  In  In5_2  1  0.38991566  0.95980569  0.25000000  1
  In  In5_3  1  0.38991566  0.95980569  0.75000000  1
  In  In5_4  1  0.88991566  0.45980569  0.25000000  1
  In  In5_5  1  0.88991566  0.45980569  0.75000000  1
  In  In5_6  1  0.88991566  0.95980569  0.25000000  1
  In  In5_7  1  0.88991566  0.95980569  0.75000000  1
  In  In6_0  1  0.04019431  0.11008434  0.25000000  1
  In  In6_1  1  0.04019431  0.11008434  0.75000000  1
  In  In6_2  1  0.04019431  0.61008434  0.25000000  1
  In  In6_3  1  0.04019431  0.61008434  0.75000000  1
  In  In6_4  1  0.54019431  0.11008434  0.25000000  1
  In  In6_5  1  0.54019431  0.11008434  0.75000000  1
  In  In6_6  1  0.54019431  0.61008434  0.25000000  1
  In  In6_7  1  0.54019431  0.61008434  0.75000000  1
  In  In7_0  1  0.45980569  0.38991566  0.25000000  1
  In  In7_1  1  0.45980569  0.38991566  0.75000000  1
  In  In7_2  1  0.45980569  0.88991566  0.25000000  1
  In  In7_3  1  0.45980569  0.88991566  0.75000000  1
  In  In7_4  1  0.95980569  0.38991566  0.25000000  1
  In  In7_5  1  0.95980569  0.38991566  0.75000000  1
  In  In7_6  1  0.95980569  0.88991566  0.25000000  1
  In  In7_7  1  0.95980569  0.88991566  0.75000000  1
  In  In8_0  1  0.25000000  0.25000000  0.25000000  1
  In  In8_1  1  0.25000000  0.25000000  0.75000000  1
  In  In8_2  1  0.25000000  0.75000000  0.25000000  1
  In  In8_3  1  0.25000000  0.75000000  0.75000000  1
  In  In8_4  1  0.75000000  0.25000000  0.25000000  1
  In  In8_5  1  0.75000000  0.25000000  0.75000000  1
  In  In8_6  1  0.75000000  0.75000000  0.25000000  1
  In  In8_7  1  0.75000000  0.75000000  0.75000000  1
  Ni  Ni0_0  1  0.22442808  0.12270715  0.25000000  1
  Ni  Ni0_1  1  0.22442808  0.12270715  0.75000000  1
  Ni  Ni0_2  1  0.22442808  0.62270715  0.25000000  1
  Ni  Ni0_3  1  0.22442808  0.62270715  0.75000000  1
  Ni  Ni0_4  1  0.72442808  0.12270714  0.25000000  1
  Ni  Ni0_5  1  0.72442808  0.12270714  0.75000000  1
  Ni  Ni0_6  1  0.72442807  0.62270715  0.25000000  1
  Ni  Ni0_7  1  0.72442807  0.62270715  0.75000000  1
  Ni  Ni1_0  1  0.27557192  0.37729286  0.25000000  1
  Ni  Ni1_1  1  0.27557192  0.37729286  0.75000000  1
  Ni  Ni1_2  1  0.27557193  0.87729286  0.25000000  1
  Ni  Ni1_3  1  0.27557193  0.87729286  0.75000000  1
  Ni  Ni1_4  1  0.77557193  0.37729286  0.25000000  1
  Ni  Ni1_5  1  0.77557193  0.37729286  0.75000000  1
  Ni  Ni1_6  1  0.77557193  0.87729285  0.25000000  1
  Ni  Ni1_7  1  0.77557193  0.87729285  0.75000000  1
  Ni  Ni2_0  1  0.12270715  0.22442808  0.25000000  1
  Ni  Ni2_1  1  0.12270715  0.22442808  0.75000000  1
  Ni  Ni2_2  1  0.12270714  0.72442808  0.25000000  1
  Ni  Ni2_3  1  0.12270714  0.72442808  0.75000000  1
  Ni  Ni2_4  1  0.62270715  0.22442808  0.25000000  1
  Ni  Ni2_5  1  0.62270715  0.22442808  0.75000000  1
  Ni  Ni2_6  1  0.62270715  0.72442807  0.25000000  1
  Ni  Ni2_7  1  0.62270715  0.72442807  0.75000000  1
  Ni  Ni3_0  1  0.37729285  0.27557193  0.25000000  1
  Ni  Ni3_1  1  0.37729285  0.27557193  0.75000000  1
  Ni  Ni3_2  1  0.37729286  0.77557193  0.25000000  1
  Ni  Ni3_3  1  0.37729286  0.77557193  0.75000000  1
  Ni  Ni3_4  1  0.87729286  0.27557193  0.25000000  1
  Ni  Ni3_5  1  0.87729286  0.27557193  0.75000000  1
  Ni  Ni3_6  1  0.87729285  0.77557193  0.25000000  1
  Ni  Ni3_7  1  0.87729285  0.77557193  0.75000000  1
loop_
_geom_bond_atom_site_label_1
_geom_bond_atom_site_label_2
_geom_bond_distance
_geom_bond_site_symmetry_2
Sm0_0 Sm4_2 3.633177 1_545
Sm0_1 Sm4_3 3.633177 1_545
Sm0_2 Sm4_0 3.633177 1_555
Sm0_3 Sm4_1 3.633177 1_555
Sm0_4 Sm4_6 3.633177 1_545
Sm0_5 Sm4_7 3.633177 1_545
Sm0_6 Sm4_4 3.633177 1_555
Sm0_7 Sm4_5 3.633177 1_555
Sm1_0 Sm5_2 3.633177 1_555
Sm1_1 Sm5_3 3.633177 1_555
Sm1_2 Sm5_0 3.633177 1_565
Sm1_3 Sm5_1 3.633177 1_565
Sm1_4 Sm5_6 3.633177 1_555
Sm1_5 Sm5_7 3.633177 1_555
Sm1_6 Sm5_4 3.633177 1_565
Sm1_7 Sm5_5 3.633177 1_565
Sm2_0 Sm5_4 3.633177 1_455
Sm2_1 Sm5_5 3.633177 1_455
Sm2_2 Sm5_6 3.633177 1_455
Sm2_3 Sm5_7 3.633177 1_455
Sm2_4 Sm5_0 3.633177 1_555
Sm2_5 Sm5_1 3.633177 1_555
Sm2_6 Sm5_2 3.633177 1_555
Sm2_7 Sm5_3 3.633177 1_555
Sm3_0 Sm4_4 3.633177 1_555
Sm3_1 Sm4_5 3.633177 1_555
Sm3_2 Sm4_6 3.633177 1_555
Sm3_3 Sm4_7 3.633177 1_555
Sm3_4 Sm4_0 3.633177 1_655
Sm3_5 Sm4_1 3.633177 1_655
Sm3_6 Sm4_2 3.633177 1_655
Sm3_7 Sm4_3 3.633177 1_655
Sm4_0 Sm4_1 3.705386 1_555
Sm4_0 Sm4_1 3.705386 1_554
Sm4_2 Sm4_3 3.705386 1_555
Sm4_2 Sm4_3 3.705386 1_554
Sm4_4 Sm4_5 3.705386 1_555
Sm4_4 Sm4_5 3.705386 1_554
Sm4_6 Sm4_7 3.705386 1_555
Sm4_6 Sm4_7 3.705386 1_554
Sm5_0 Sm5_1 3.705386 1_555
Sm5_0 Sm5_1 3.705386 1_554
Sm5_2 Sm5_3 3.705386 1_555
Sm5_2 Sm5_3 3.705386 1_554
Sm5_4 Sm5_5 3.705386 1_555
Sm5_4 Sm5_5 3.705386 1_554
Sm5_6 Sm5_7 3.705386 1_555
Sm5_6 Sm5_7 3.705386 1_554
Sm10_0 Sm5_4 3.540965 1_455
Sm10_0 Sm4_2 3.540965 1_545
Sm10_0 Sm10_1 3.705386 1_555
Sm10_0 Sm10_1 3.705386 1_554
Sm10_1 Sm5_5 3.540965 1_455
Sm10_1 Sm4_3 3.540965 1_545
Sm10_2 Sm4_0 3.540965 1_555
Sm10_2 Sm5_6 3.540965 1_455
Sm10_2 Sm10_3 3.705386 1_555
Sm10_2 Sm10_3 3.705386 1_554
Sm10_3 Sm4_1 3.540965 1_555
Sm10_3 Sm5_7 3.540965 1_455
Sm10_4 Sm4_6 3.540965 1_545
Sm10_4 Sm5_0 3.540965 1_555
Sm10_4 Sm10_5 3.705386 1_555
Sm10_4 Sm10_5 3.705386 1_554
Sm10_5 Sm4_7 3.540965 1_545
Sm10_5 Sm5_1 3.540965 1_555
Sm10_6 Sm4_4 3.540965 1_555
Sm10_6 Sm5_2 3.540965 1_555
Sm10_6 Sm10_7 3.705386 1_555
Sm10_6 Sm10_7 3.705386 1_554
Sm10_7 Sm4_5 3.540965 1_555
Sm10_7 Sm5_3 3.540965 1_555
In0_0 In3_0 3.012565 1_555
In0_0 Ni1_0 3.028944 1_555
In0_0 Sm1_0 3.218399 1_555
In0_0 Sm1_1 3.218399 1_555
In0_0 Sm4_0 3.290643 1_555
In0_0 Sm4_1 3.290643 1_555
In0_0 Sm6_0 3.403066 1_555
In0_0 Sm6_1 3.403066 1_555
In0_0 Sm0_2 3.514477 1_555
In0_0 Sm0_3 3.514477 1_555
In0_1 In3_1 3.012565 1_555
In0_1 Ni1_1 3.028944 1_555
In0_1 Sm1_1 3.218399 1_555
In0_1 Sm1_0 3.218399 1_556
In0_1 Sm4_1 3.290643 1_555
In0_1 Sm4_0 3.290643 1_556
In0_1 Sm6_1 3.403066 1_555
In0_1 Sm6_0 3.403066 1_556
In0_1 Sm0_3 3.514477 1_555
In0_1 Sm0_2 3.514477 1_556
In0_2 In3_2 3.012565 1_555
In0_2 Ni1_2 3.028944 1_555
In0_2 Sm1_2 3.218399 1_555
In0_2 Sm1_3 3.218399 1_555
In0_2 Sm4_2 3.290643 1_555
In0_2 Sm4_3 3.290643 1_555
In0_2 Sm6_2 3.403066 1_555
In0_2 Sm6_3 3.403066 1_555
In0_2 Sm0_1 3.514477 1_565
In0_2 Sm0_0 3.514477 1_565
In0_3 In3_3 3.012565 1_555
In0_3 Ni1_3 3.028944 1_555
In0_3 Sm1_3 3.218399 1_555
In0_3 Sm1_2 3.218399 1_556
In0_3 Sm4_3 3.290643 1_555
In0_3 Sm4_2 3.290643 1_556
In0_3 Sm6_3 3.403066 1_555
In0_3 Sm6_2 3.403066 1_556
In0_3 Sm0_1 3.514477 1_565
In0_3 Sm0_0 3.514477 1_566
In0_4 In3_4 3.012565 1_555
In0_4 Ni1_4 3.028944 1_555
In0_4 Sm1_5 3.218399 1_555
In0_4 Sm1_4 3.218399 1_555
In0_4 Sm4_4 3.290643 1_555
In0_4 Sm4_5 3.290643 1_555
In0_4 Sm6_4 3.403066 1_555
In0_4 Sm6_5 3.403066 1_555
In0_4 Sm0_7 3.514477 1_555
In0_4 Sm0_6 3.514477 1_555
In0_5 In3_5 3.012565 1_555
In0_5 Ni1_5 3.028944 1_555
In0_5 Sm1_5 3.218399 1_555
In0_5 Sm1_4 3.218399 1_556
In0_5 Sm4_5 3.290643 1_555
In0_5 Sm4_4 3.290643 1_556
In0_5 Sm6_5 3.403066 1_555
In0_5 Sm6_4 3.403066 1_556
In0_5 Sm0_7 3.514477 1_555
In0_5 Sm0_6 3.514477 1_556
In0_6 In3_6 3.012565 1_555
In0_6 Ni1_6 3.028944 1_555
In0_6 Sm1_6 3.218399 1_555
In0_6 Sm1_7 3.218399 1_555
In0_6 Sm4_7 3.290643 1_555
In0_6 Sm4_6 3.290643 1_555
In0_6 Sm6_6 3.403066 1_555
In0_6 Sm6_7 3.403066 1_555
In0_6 Sm0_4 3.514477 1_565
In0_6 Sm0_5 3.514477 1_565
In0_7 In3_7 3.012565 1_555
In0_7 Ni1_7 3.028944 1_555
In0_7 Sm1_7 3.218399 1_555
In0_7 Sm1_6 3.218399 1_556
In0_7 Sm4_7 3.290643 1_555
In0_7 Sm4_6 3.290643 1_556
In0_7 Sm6_7 3.403066 1_555
In0_7 Sm6_6 3.403066 1_556
In0_7 Sm0_5 3.514477 1_565
In0_7 Sm0_4 3.514477 1_566
In1_0 In2_0 3.012565 1_555
In1_0 Ni0_0 3.028944 1_555
In1_0 Sm0_0 3.218399 1_555
In1_0 Sm0_1 3.218399 1_555
In1_0 Sm5_0 3.290643 1_555
In1_0 Sm5_1 3.290643 1_555
In1_0 Sm7_0 3.403066 1_555
In1_0 Sm7_1 3.403066 1_555
In1_0 Sm1_3 3.514477 1_545
In1_0 Sm1_2 3.514477 1_545
In1_1 In2_1 3.012565 1_555
In1_1 Ni0_1 3.028944 1_555
In1_1 Sm0_1 3.218399 1_555
In1_1 Sm0_0 3.218399 1_556
In1_1 Sm5_1 3.290643 1_555
In1_1 Sm5_0 3.290643 1_556
In1_1 Sm7_1 3.403066 1_555
In1_1 Sm7_0 3.403066 1_556
In1_1 Sm1_3 3.514477 1_545
In1_1 Sm1_2 3.514477 1_546
In1_2 In2_2 3.012565 1_555
In1_2 Ni0_2 3.028944 1_555
In1_2 Sm0_2 3.218399 1_555
In1_2 Sm0_3 3.218399 1_555
In1_2 Sm5_3 3.290643 1_555
In1_2 Sm5_2 3.290643 1_555
In1_2 Sm7_2 3.403066 1_555
In1_2 Sm7_3 3.403066 1_555
In1_2 Sm1_0 3.514477 1_555
In1_2 Sm1_1 3.514477 1_555
In1_3 In2_3 3.012565 1_555
In1_3 Ni0_3 3.028944 1_555
In1_3 Sm0_3 3.218399 1_555
In1_3 Sm0_2 3.218399 1_556
In1_3 Sm5_3 3.290643 1_555
In1_3 Sm5_2 3.290643 1_556
In1_3 Sm7_3 3.403066 1_555
In1_3 Sm7_2 3.403066 1_556
In1_3 Sm1_1 3.514477 1_555
In1_3 Sm1_0 3.514477 1_556
In1_4 In2_4 3.012565 1_555
In1_4 Ni0_4 3.028944 1_555
In1_4 Sm0_5 3.218399 1_555
In1_4 Sm0_4 3.218399 1_555
In1_4 Sm5_4 3.290643 1_555
In1_4 Sm5_5 3.290643 1_555
In1_4 Sm7_4 3.403066 1_555
In1_4 Sm7_5 3.403066 1_555
In1_4 Sm1_6 3.514477 1_545
In1_4 Sm1_7 3.514477 1_545
In1_5 In2_5 3.012565 1_555
In1_5 Ni0_5 3.028944 1_555
In1_5 Sm0_5 3.218399 1_555
In1_5 Sm0_4 3.218399 1_556
In1_5 Sm5_5 3.290643 1_555
In1_5 Sm5_4 3.290643 1_556
In1_5 Sm7_5 3.403066 1_555
In1_5 Sm7_4 3.403066 1_556
In1_5 Sm1_7 3.514477 1_545
In1_5 Sm1_6 3.514477 1_546
In1_6 In2_6 3.012565 1_555
In1_6 Ni0_6 3.028944 1_555
In1_6 Sm0_6 3.218399 1_555
In1_6 Sm0_7 3.218399 1_555
In1_6 Sm5_7 3.290643 1_555
In1_6 Sm5_6 3.290643 1_555
In1_6 Sm7_7 3.403066 1_555
In1_6 Sm7_6 3.403066 1_555
In1_6 Sm1_5 3.514477 1_555
In1_6 Sm1_4 3.514477 1_555
In1_7 In2_7 3.012565 1_555
In1_7 Ni0_7 3.028944 1_555
In1_7 Sm0_7 3.218399 1_555
In1_7 Sm0_6 3.218399 1_556
In1_7 Sm5_7 3.290643 1_555
In1_7 Sm5_6 3.290643 1_556
In1_7 Sm7_7 3.403066 1_555
In1_7 Sm7_6 3.403066 1_556
In1_7 Sm1_5 3.514477 1_555
In1_7 Sm1_4 3.514477 1_556
In2_0 Ni3_0 3.028944 1_555
In2_0 Sm3_0 3.218399 1_555
In2_0 Sm3_1 3.218399 1_555
In2_0 Sm5_0 3.290643 1_555
In2_0 Sm5_1 3.290643 1_555
In2_0 Sm7_0 3.403066 1_555
In2_0 Sm7_1 3.403066 1_555
In2_0 Sm2_5 3.514477 1_555
In2_0 Sm2_4 3.514477 1_555
In2_1 Ni3_1 3.028944 1_555
In2_1 Sm3_1 3.218399 1_555
In2_1 Sm3_0 3.218399 1_556
In2_1 Sm5_1 3.290643 1_555
In2_1 Sm5_0 3.290643 1_556
In2_1 Sm7_1 3.403066 1_555
In2_1 Sm7_0 3.403066 1_556
In2_1 Sm2_5 3.514477 1_555
In2_1 Sm2_4 3.514477 1_556
In2_2 Ni3_2 3.028944 1_555
In2_2 Sm3_2 3.218399 1_555
In2_2 Sm3_3 3.218399 1_555
In2_2 Sm5_3 3.290643 1_555
In2_2 Sm5_2 3.290643 1_555
In2_2 Sm7_2 3.403066 1_555
In2_2 Sm7_3 3.403066 1_555
In2_2 Sm2_6 3.514477 1_555
In2_2 Sm2_7 3.514477 1_555
In2_3 Ni3_3 3.028944 1_555
In2_3 Sm3_3 3.218399 1_555
In2_3 Sm3_2 3.218399 1_556
In2_3 Sm5_3 3.290643 1_555
In2_3 Sm5_2 3.290643 1_556
In2_3 Sm7_3 3.403066 1_555
In2_3 Sm7_2 3.403066 1_556
In2_3 Sm2_7 3.514477 1_555
In2_3 Sm2_6 3.514477 1_556
In2_4 Ni3_4 3.028944 1_555
In2_4 Sm3_5 3.218399 1_555
In2_4 Sm3_4 3.218399 1_555
In2_4 Sm5_4 3.290643 1_555
In2_4 Sm5_5 3.290643 1_555
In2_4 Sm7_4 3.403066 1_555
In2_4 Sm7_5 3.403066 1_555
In2_4 Sm2_0 3.514477 1_655
In2_4 Sm2_1 3.514477 1_655
In2_5 Ni3_5 3.028944 1_555
In2_5 Sm3_5 3.218399 1_555
In2_5 Sm3_4 3.218399 1_556
In2_5 Sm5_5 3.290643 1_555
In2_5 Sm5_4 3.290643 1_556
In2_5 Sm7_5 3.403066 1_555
In2_5 Sm7_4 3.403066 1_556
In2_5 Sm2_1 3.514477 1_655
In2_5 Sm2_0 3.514477 1_656
In2_6 Ni3_6 3.028944 1_555
In2_6 Sm3_7 3.218399 1_555
In2_6 Sm3_6 3.218399 1_555
In2_6 Sm5_7 3.290643 1_555
In2_6 Sm5_6 3.290643 1_555
In2_6 Sm7_6 3.403066 1_555
In2_6 Sm7_7 3.403066 1_555
In2_6 Sm2_3 3.514477 1_655
In2_6 Sm2_2 3.514477 1_655
In2_7 Ni3_7 3.028944 1_555
In2_7 Sm3_7 3.218399 1_555
In2_7 Sm3_6 3.218399 1_556
In2_7 Sm5_7 3.290643 1_555
In2_7 Sm5_6 3.290643 1_556
In2_7 Sm7_7 3.403066 1_555
In2_7 Sm7_6 3.403066 1_556
In2_7 Sm2_3 3.514477 1_655
In2_7 Sm2_2 3.514477 1_656
In3_0 Ni2_0 3.028944 1_555
In3_0 Sm2_1 3.218399 1_555
In3_0 Sm2_0 3.218399 1_555
In3_0 Sm4_0 3.290643 1_555
In3_0 Sm4_1 3.290643 1_555
In3_0 Sm6_0 3.403066 1_555
In3_0 Sm6_1 3.403066 1_555
In3_0 Sm3_5 3.514477 1_455
In3_0 Sm3_4 3.514477 1_455
In3_1 Ni2_1 3.028944 1_555
In3_1 Sm2_1 3.218399 1_555
In3_1 Sm2_0 3.218399 1_556
In3_1 Sm4_1 3.290643 1_555
In3_1 Sm4_0 3.290643 1_556
In3_1 Sm6_1 3.403066 1_555
In3_1 Sm6_0 3.403066 1_556
In3_1 Sm3_5 3.514477 1_455
In3_1 Sm3_4 3.514477 1_456
In3_2 Ni2_2 3.028944 1_555
In3_2 Sm2_2 3.218399 1_555
In3_2 Sm2_3 3.218399 1_555
In3_2 Sm4_2 3.290643 1_555
In3_2 Sm4_3 3.290643 1_555
In3_2 Sm6_2 3.403066 1_555
In3_2 Sm6_3 3.403066 1_555
In3_2 Sm3_7 3.514477 1_455
In3_2 Sm3_6 3.514477 1_455
In3_3 Ni2_3 3.028944 1_555
In3_3 Sm2_3 3.218399 1_555
In3_3 Sm2_2 3.218399 1_556
In3_3 Sm4_3 3.290643 1_555
In3_3 Sm4_2 3.290643 1_556
In3_3 Sm6_3 3.403066 1_555
In3_3 Sm6_2 3.403066 1_556
In3_3 Sm3_7 3.514477 1_455
In3_3 Sm3_6 3.514477 1_456
In3_4 Ni2_4 3.028944 1_555
In3_4 Sm2_5 3.218399 1_555
In3_4 Sm2_4 3.218399 1_555
In3_4 Sm4_5 3.290643 1_555
In3_4 Sm4_4 3.290643 1_555
In3_4 Sm6_5 3.403066 1_555
In3_4 Sm6_4 3.403066 1_555
In3_4 Sm3_0 3.514477 1_555
In3_4 Sm3_1 3.514477 1_555
In3_5 Ni2_5 3.028944 1_555
In3_5 Sm2_5 3.218399 1_555
In3_5 Sm2_4 3.218399 1_556
In3_5 Sm4_5 3.290643 1_555
In3_5 Sm4_4 3.290643 1_556
In3_5 Sm6_5 3.403066 1_555
In3_5 Sm6_4 3.403066 1_556
In3_5 Sm3_1 3.514477 1_555
In3_5 Sm3_0 3.514477 1_556
In3_6 Ni2_6 3.028944 1_555
In3_6 Sm2_6 3.218399 1_555
In3_6 Sm2_7 3.218399 1_555
In3_6 Sm4_7 3.290643 1_555
In3_6 Sm4_6 3.290643 1_555
In3_6 Sm6_6 3.403066 1_555
In3_6 Sm6_7 3.403066 1_555
In3_6 Sm3_2 3.514477 1_555
In3_6 Sm3_3 3.514477 1_555
In3_7 Ni2_7 3.028944 1_555
In3_7 Sm2_7 3.218399 1_555
In3_7 Sm2_6 3.218399 1_556
In3_7 Sm4_7 3.290643 1_555
In3_7 Sm4_6 3.290643 1_556
In3_7 Sm6_7 3.403066 1_555
In3_7 Sm6_6 3.403066 1_556
In3_7 Sm3_3 3.514477 1_555
In3_7 Sm3_2 3.514477 1_556
In4_0 Ni0_0 2.965579 1_555
In4_0 In6_0 3.068964 1_555
In4_0 Sm0_1 3.191633 1_555
In4_0 Sm0_0 3.191633 1_555
In4_0 Sm10_0 3.260016 1_555
In4_0 Sm10_1 3.260016 1_555
In4_0 Sm8_0 3.387728 1_555
In4_0 Sm8_1 3.387728 1_555
In4_0 Sm4_3 3.507000 1_545
In4_0 Sm4_2 3.507000 1_545
In4_1 Ni0_1 2.965579 1_555
In4_1 In6_1 3.068964 1_555
In4_1 Sm0_1 3.191633 1_555
In4_1 Sm0_0 3.191633 1_556
In4_1 Sm10_1 3.260016 1_555
In4_1 Sm10_0 3.260016 1_556
In4_1 Sm8_1 3.387728 1_555
In4_1 Sm8_0 3.387728 1_556
In4_1 Sm4_3 3.507000 1_545
In4_1 Sm4_2 3.507000 1_546
In4_2 Ni0_2 2.965579 1_555
In4_2 In6_2 3.068964 1_555
In4_2 Sm0_2 3.191633 1_555
In4_2 Sm0_3 3.191633 1_555
In4_2 Sm10_2 3.260016 1_555
In4_2 Sm10_3 3.260016 1_555
In4_2 Sm8_3 3.387728 1_555
In4_2 Sm8_2 3.387728 1_555
In4_2 Sm4_0 3.507000 1_555
In4_2 Sm4_1 3.507000 1_555
In4_3 Ni0_3 2.965579 1_555
In4_3 In6_3 3.068964 1_555
In4_3 Sm0_3 3.191633 1_555
In4_3 Sm0_2 3.191633 1_556
In4_3 Sm10_3 3.260016 1_555
In4_3 Sm10_2 3.260016 1_556
In4_3 Sm8_3 3.387728 1_555
In4_3 Sm8_2 3.387728 1_556
In4_3 Sm4_1 3.507000 1_555
In4_3 Sm4_0 3.507000 1_556
In4_4 Ni0_4 2.965579 1_555
In4_4 In6_4 3.068964 1_555
In4_4 Sm0_5 3.191633 1_555
In4_4 Sm0_4 3.191633 1_555
In4_4 Sm10_4 3.260016 1_555
In4_4 Sm10_5 3.260016 1_555
In4_4 Sm8_5 3.387728 1_555
In4_4 Sm8_4 3.387728 1_555
In4_4 Sm4_7 3.507000 1_545
In4_4 Sm4_6 3.507000 1_545
In4_5 Ni0_5 2.965579 1_555
In4_5 In6_5 3.068964 1_555
In4_5 Sm0_5 3.191633 1_555
In4_5 Sm0_4 3.191633 1_556
In4_5 Sm10_5 3.260016 1_555
In4_5 Sm10_4 3.260016 1_556
In4_5 Sm8_5 3.387728 1_555
In4_5 Sm8_4 3.387728 1_556
In4_5 Sm4_7 3.507000 1_545
In4_5 Sm4_6 3.507000 1_546
In4_6 Ni0_6 2.965579 1_555
In4_6 In6_6 3.068964 1_555
In4_6 Sm0_6 3.191633 1_555
In4_6 Sm0_7 3.191633 1_555
In4_6 Sm10_6 3.260016 1_555
In4_6 Sm10_7 3.260016 1_555
In4_6 Sm8_6 3.387728 1_555
In4_6 Sm8_7 3.387728 1_555
In4_6 Sm4_4 3.507000 1_555
In4_6 Sm4_5 3.507000 1_555
In4_7 Ni0_7 2.965579 1_555
In4_7 In6_7 3.068964 1_555
In4_7 Sm0_7 3.191633 1_555
In4_7 Sm0_6 3.191633 1_556
In4_7 Sm10_7 3.260016 1_555
In4_7 Sm10_6 3.260016 1_556
In4_7 Sm8_7 3.387728 1_555
In4_7 Sm8_6 3.387728 1_556
In4_7 Sm4_5 3.507000 1_555
In4_7 Sm4_4 3.507000 1_556
In5_0 Ni1_0 2.965579 1_555
In5_0 In7_0 3.068964 1_555
In5_0 Sm1_1 3.191633 1_555
In5_0 Sm1_0 3.191633 1_555
In5_0 Sm10_6 3.260016 1_555
In5_0 Sm10_7 3.260016 1_555
In5_0 Sm9_1 3.387728 1_555
In5_0 Sm9_0 3.387728 1_555
In5_0 Sm5_3 3.507000 1_555
In5_0 Sm5_2 3.507000 1_555
In5_1 Ni1_1 2.965579 1_555
In5_1 In7_1 3.068964 1_555
In5_1 Sm1_1 3.191633 1_555
In5_1 Sm1_0 3.191633 1_556
In5_1 Sm10_7 3.260016 1_555
In5_1 Sm10_6 3.260016 1_556
In5_1 Sm9_1 3.387728 1_555
In5_1 Sm9_0 3.387728 1_556
In5_1 Sm5_3 3.507000 1_555
In5_1 Sm5_2 3.507000 1_556
In5_2 Ni1_2 2.965579 1_555
In5_2 In7_2 3.068964 1_555
In5_2 Sm1_2 3.191633 1_555
In5_2 Sm1_3 3.191633 1_555
In5_2 Sm10_4 3.260016 1_565
In5_2 Sm10_5 3.260016 1_565
In5_2 Sm9_3 3.387728 1_555
In5_2 Sm9_2 3.387728 1_555
In5_2 Sm5_0 3.507000 1_565
In5_2 Sm5_1 3.507000 1_565
In5_3 Ni1_3 2.965579 1_555
In5_3 In7_3 3.068964 1_555
In5_3 Sm1_3 3.191633 1_555
In5_3 Sm1_2 3.191633 1_556
In5_3 Sm10_5 3.260016 1_565
In5_3 Sm10_4 3.260016 1_566
In5_3 Sm9_3 3.387728 1_555
In5_3 Sm9_2 3.387728 1_556
In5_3 Sm5_1 3.507000 1_565
In5_3 Sm5_0 3.507000 1_566
In5_4 Ni1_4 2.965579 1_555
In5_4 In7_4 3.068964 1_555
In5_4 Sm1_4 3.191633 1_555
In5_4 Sm1_5 3.191633 1_555
In5_4 Sm10_2 3.260016 1_655
In5_4 Sm10_3 3.260016 1_655
In5_4 Sm9_4 3.387728 1_555
In5_4 Sm9_5 3.387728 1_555
In5_4 Sm5_6 3.507000 1_555
In5_4 Sm5_7 3.507000 1_555
In5_5 Ni1_5 2.965579 1_555
In5_5 In7_5 3.068964 1_555
In5_5 Sm1_5 3.191633 1_555
In5_5 Sm1_4 3.191633 1_556
In5_5 Sm10_3 3.260016 1_655
In5_5 Sm10_2 3.260016 1_656
In5_5 Sm9_5 3.387728 1_555
In5_5 Sm9_4 3.387728 1_556
In5_5 Sm5_7 3.507000 1_555
In5_5 Sm5_6 3.507000 1_556
In5_6 Ni1_6 2.965579 1_555
In5_6 In7_6 3.068964 1_555
In5_6 Sm1_6 3.191633 1_555
In5_6 Sm1_7 3.191633 1_555
In5_6 Sm10_1 3.260016 1_665
In5_6 Sm10_0 3.260016 1_665
In5_6 Sm9_7 3.387728 1_555
In5_6 Sm9_6 3.387728 1_555
In5_6 Sm5_5 3.507000 1_565
In5_6 Sm5_4 3.507000 1_565
In5_7 Ni1_7 2.965579 1_555
In5_7 In7_7 3.068964 1_555
In5_7 Sm1_7 3.191633 1_555
In5_7 Sm1_6 3.191633 1_556
In5_7 Sm10_1 3.260016 1_665
In5_7 Sm10_0 3.260016 1_666
In5_7 Sm9_7 3.387728 1_555
In5_7 Sm9_6 3.387728 1_556
In5_7 Sm5_5 3.507000 1_565
In5_7 Sm5_4 3.507000 1_566
In6_0 Ni2_0 2.965579 1_555
In6_0 Sm2_0 3.191633 1_555
In6_0 Sm2_1 3.191633 1_555
In6_0 Sm10_0 3.260016 1_555
In6_0 Sm10_1 3.260016 1_555
In6_0 Sm8_0 3.387728 1_555
In6_0 Sm8_1 3.387728 1_555
In6_0 Sm5_4 3.507000 1_455
In6_0 Sm5_5 3.507000 1_455
In6_1 Ni2_1 2.965579 1_555
In6_1 Sm2_1 3.191633 1_555
In6_1 Sm2_0 3.191633 1_556
In6_1 Sm10_1 3.260016 1_555
In6_1 Sm10_0 3.260016 1_556
In6_1 Sm8_1 3.387728 1_555
In6_1 Sm8_0 3.387728 1_556
In6_1 Sm5_5 3.507000 1_455
In6_1 Sm5_4 3.507000 1_456
In6_2 Ni2_2 2.965579 1_555
In6_2 Sm2_2 3.191633 1_555
In6_2 Sm2_3 3.191633 1_555
In6_2 Sm10_2 3.260016 1_555
In6_2 Sm10_3 3.260016 1_555
In6_2 Sm8_3 3.387728 1_555
In6_2 Sm8_2 3.387728 1_555
In6_2 Sm5_6 3.507000 1_455
In6_2 Sm5_7 3.507000 1_455
In6_3 Ni2_3 2.965579 1_555
In6_3 Sm2_3 3.191633 1_555
In6_3 Sm2_2 3.191633 1_556
In6_3 Sm10_3 3.260016 1_555
In6_3 Sm10_2 3.260016 1_556
In6_3 Sm8_3 3.387728 1_555
In6_3 Sm8_2 3.387728 1_556
In6_3 Sm5_7 3.507000 1_455
In6_3 Sm5_6 3.507000 1_456
In6_4 Ni2_4 2.965579 1_555
In6_4 Sm2_4 3.191633 1_555
In6_4 Sm2_5 3.191633 1_555
In6_4 Sm10_4 3.260016 1_555
In6_4 Sm10_5 3.260016 1_555
In6_4 Sm8_4 3.387728 1_555
In6_4 Sm8_5 3.387728 1_555
In6_4 Sm5_0 3.507000 1_555
In6_4 Sm5_1 3.507000 1_555
In6_5 Ni2_5 2.965579 1_555
In6_5 Sm2_5 3.191633 1_555
In6_5 Sm2_4 3.191633 1_556
In6_5 Sm10_5 3.260016 1_555
In6_5 Sm10_4 3.260016 1_556
In6_5 Sm8_5 3.387728 1_555
In6_5 Sm8_4 3.387728 1_556
In6_5 Sm5_1 3.507000 1_555
In6_5 Sm5_0 3.507000 1_556
In6_6 Ni2_6 2.965579 1_555
In6_6 Sm2_7 3.191633 1_555
In6_6 Sm2_6 3.191633 1_555
In6_6 Sm10_6 3.260016 1_555
In6_6 Sm10_7 3.260016 1_555
In6_6 Sm8_7 3.387728 1_555
In6_6 Sm8_6 3.387728 1_555
In6_6 Sm5_2 3.507000 1_555
In6_6 Sm5_3 3.507000 1_555
In6_7 Ni2_7 2.965579 1_555
In6_7 Sm2_7 3.191633 1_555
In6_7 Sm2_6 3.191633 1_556
In6_7 Sm10_7 3.260016 1_555
In6_7 Sm10_6 3.260016 1_556
In6_7 Sm8_7 3.387728 1_555
In6_7 Sm8_6 3.387728 1_556
In6_7 Sm5_3 3.507000 1_555
In6_7 Sm5_2 3.507000 1_556
In7_0 Ni3_0 2.965579 1_555
In7_0 Sm3_0 3.191633 1_555
In7_0 Sm3_1 3.191633 1_555
In7_0 Sm10_6 3.260016 1_555
In7_0 Sm10_7 3.260016 1_555
In7_0 Sm9_0 3.387728 1_555
In7_0 Sm9_1 3.387728 1_555
In7_0 Sm4_4 3.507000 1_555
In7_0 Sm4_5 3.507000 1_555
In7_1 Ni3_1 2.965579 1_555
In7_1 Sm3_1 3.191633 1_555
In7_1 Sm3_0 3.191633 1_556
In7_1 Sm10_7 3.260016 1_555
In7_1 Sm10_6 3.260016 1_556
In7_1 Sm9_1 3.387728 1_555
In7_1 Sm9_0 3.387728 1_556
In7_1 Sm4_5 3.507000 1_555
In7_1 Sm4_4 3.507000 1_556
In7_2 Ni3_2 2.965579 1_555
In7_2 Sm3_2 3.191633 1_555
In7_2 Sm3_3 3.191633 1_555
In7_2 Sm10_4 3.260016 1_565
In7_2 Sm10_5 3.260016 1_565
In7_2 Sm9_2 3.387728 1_555
In7_2 Sm9_3 3.387728 1_555
In7_2 Sm4_7 3.507000 1_555
In7_2 Sm4_6 3.507000 1_555
In7_3 Ni3_3 2.965579 1_555
In7_3 Sm3_3 3.191633 1_555
In7_3 Sm3_2 3.191633 1_556
In7_3 Sm10_5 3.260016 1_565
In7_3 Sm10_4 3.260016 1_566
In7_3 Sm9_3 3.387728 1_555
In7_3 Sm9_2 3.387728 1_556
In7_3 Sm4_7 3.507000 1_555
In7_3 Sm4_6 3.507000 1_556
In7_4 Ni3_4 2.965579 1_555
In7_4 Sm3_4 3.191633 1_555
In7_4 Sm3_5 3.191633 1_555
In7_4 Sm10_2 3.260016 1_655
In7_4 Sm10_3 3.260016 1_655
In7_4 Sm9_5 3.387728 1_555
In7_4 Sm9_4 3.387728 1_555
In7_4 Sm4_1 3.507000 1_655
In7_4 Sm4_0 3.507000 1_655
In7_5 Ni3_5 2.965579 1_555
In7_5 Sm3_5 3.191633 1_555
In7_5 Sm3_4 3.191633 1_556
In7_5 Sm10_3 3.260016 1_655
In7_5 Sm10_2 3.260016 1_656
In7_5 Sm9_5 3.387728 1_555
In7_5 Sm9_4 3.387728 1_556
In7_5 Sm4_1 3.507000 1_655
In7_5 Sm4_0 3.507000 1_656
In7_6 Ni3_6 2.965579 1_555
In7_6 Sm3_6 3.191633 1_555
In7_6 Sm3_7 3.191633 1_555
In7_6 Sm10_1 3.260016 1_665
In7_6 Sm10_0 3.260016 1_665
In7_6 Sm9_7 3.387728 1_555
In7_6 Sm9_6 3.387728 1_555
In7_6 Sm4_2 3.507000 1_655
In7_6 Sm4_3 3.507000 1_655
In7_7 Ni3_7 2.965579 1_555
In7_7 Sm3_7 3.191633 1_555
In7_7 Sm3_6 3.191633 1_556
In7_7 Sm10_1 3.260016 1_665
In7_7 Sm10_0 3.260016 1_666
In7_7 Sm9_7 3.387728 1_555
In7_7 Sm9_6 3.387728 1_556
In7_7 Sm4_3 3.507000 1_655
In7_7 Sm4_2 3.507000 1_656
In8_0 Ni3_0 3.161723 1_555
In8_0 Ni0_0 3.161723 1_555
In8_0 Ni2_0 3.161723 1_555
In8_0 Ni1_0 3.161723 1_555
In8_0 Sm8_0 3.303244 1_555
In8_0 Sm8_1 3.303244 1_555
In8_0 Sm9_0 3.303244 1_555
In8_0 Sm9_1 3.303244 1_555
In8_0 Sm6_1 3.314056 1_555
In8_0 Sm7_0 3.314056 1_555
In8_0 Sm7_1 3.314056 1_555
In8_0 Sm6_0 3.314056 1_555
In8_1 Ni0_1 3.161723 1_555
In8_1 Ni3_1 3.161723 1_555
In8_1 Ni2_1 3.161723 1_555
In8_1 Ni1_1 3.161723 1_555
In8_1 Sm8_1 3.303244 1_555
In8_1 Sm8_0 3.303244 1_556
In8_1 Sm9_1 3.303244 1_555
In8_1 Sm9_0 3.303244 1_556
In8_1 Sm7_1 3.314056 1_555
In8_1 Sm6_1 3.314056 1_555
In8_1 Sm6_0 3.314056 1_556
In8_1 Sm7_0 3.314056 1_556
In8_2 Ni0_2 3.161723 1_555
In8_2 Ni3_2 3.161723 1_555
In8_2 Ni2_2 3.161723 1_555
In8_2 Ni1_2 3.161723 1_555
In8_2 Sm8_2 3.303244 1_555
In8_2 Sm8_3 3.303244 1_555
In8_2 Sm9_2 3.303244 1_555
In8_2 Sm9_3 3.303244 1_555
In8_2 Sm7_2 3.314056 1_555
In8_2 Sm6_2 3.314056 1_555
In8_2 Sm7_3 3.314056 1_555
In8_2 Sm6_3 3.314056 1_555
In8_3 Ni0_3 3.161723 1_555
In8_3 Ni2_3 3.161723 1_555
In8_3 Ni3_3 3.161723 1_555
In8_3 Ni1_3 3.161723 1_555
In8_3 Sm8_3 3.303244 1_555
In8_3 Sm9_3 3.303244 1_555
In8_3 Sm9_2 3.303244 1_556
In8_3 Sm8_2 3.303244 1_556
In8_3 Sm7_3 3.314056 1_555
In8_3 Sm6_3 3.314056 1_555
In8_3 Sm6_2 3.314056 1_556
In8_3 Sm7_2 3.314056 1_556
In8_4 Ni2_4 3.161723 1_555
In8_4 Ni3_4 3.161723 1_555
In8_4 Ni0_4 3.161723 1_555
In8_4 Ni1_4 3.161723 1_555
In8_4 Sm9_4 3.303244 1_555
In8_4 Sm9_5 3.303244 1_555
In8_4 Sm8_5 3.303244 1_555
In8_4 Sm8_4 3.303244 1_555
In8_4 Sm7_5 3.314056 1_555
In8_4 Sm6_4 3.314056 1_555
In8_4 Sm6_5 3.314056 1_555
In8_4 Sm7_4 3.314056 1_555
In8_5 Ni2_5 3.161723 1_555
In8_5 Ni3_5 3.161723 1_555
In8_5 Ni0_5 3.161723 1_555
In8_5 Ni1_5 3.161723 1_555
In8_5 Sm9_5 3.303244 1_555
In8_5 Sm8_5 3.303244 1_555
In8_5 Sm9_4 3.303244 1_556
In8_5 Sm8_4 3.303244 1_556
In8_5 Sm6_5 3.314056 1_555
In8_5 Sm7_5 3.314056 1_555
In8_5 Sm6_4 3.314056 1_556
In8_5 Sm7_4 3.314056 1_556
In8_6 Ni0_6 3.161723 1_555
In8_6 Ni1_6 3.161723 1_555
In8_6 Ni3_6 3.161723 1_555
In8_6 Ni2_6 3.161723 1_555
In8_6 Sm8_6 3.303244 1_555
In8_6 Sm8_7 3.303244 1_555
In8_6 Sm9_6 3.303244 1_555
In8_6 Sm9_7 3.303244 1_555
In8_6 Sm7_6 3.314056 1_555
In8_6 Sm7_7 3.314056 1_555
In8_6 Sm6_6 3.314056 1_555
In8_6 Sm6_7 3.314056 1_555
In8_7 Ni0_7 3.161723 1_555
In8_7 Ni1_7 3.161723 1_555
In8_7 Ni3_7 3.161723 1_555
In8_7 Ni2_7 3.161723 1_555
In8_7 Sm8_7 3.303244 1_555
In8_7 Sm8_6 3.303244 1_556
In8_7 Sm9_7 3.303244 1_555
In8_7 Sm9_6 3.303244 1_556
In8_7 Sm7_7 3.314056 1_555
In8_7 Sm6_7 3.314056 1_555
In8_7 Sm7_6 3.314056 1_556
In8_7 Sm6_6 3.314056 1_556
Ni0_0 Sm0_1 2.776426 1_555
Ni0_0 Sm0_0 2.776426 1_555
Ni0_0 Sm8_0 2.943994 1_555
Ni0_0 Sm8_1 2.943994 1_555
Ni0_0 Sm7_1 2.950556 1_555
Ni0_0 Sm7_0 2.950556 1_555
Ni0_1 Sm0_1 2.776426 1_555
Ni0_1 Sm0_0 2.776426 1_556
Ni0_1 Sm8_1 2.943994 1_555
Ni0_1 Sm8_0 2.943994 1_556
Ni0_1 Sm7_1 2.950556 1_555
Ni0_1 Sm7_0 2.950556 1_556
Ni0_2 Sm0_2 2.776426 1_555
Ni0_2 Sm0_3 2.776426 1_555
Ni0_2 Sm8_2 2.943994 1_555
Ni0_2 Sm8_3 2.943994 1_555
Ni0_2 Sm7_2 2.950556 1_555
Ni0_2 Sm7_3 2.950556 1_555
Ni0_3 Sm0_3 2.776426 1_555
Ni0_3 Sm0_2 2.776426 1_556
Ni0_3 Sm8_3 2.943994 1_555
Ni0_3 Sm8_2 2.943994 1_556
Ni0_3 Sm7_3 2.950556 1_555
Ni0_3 Sm7_2 2.950556 1_556
Ni0_4 Sm0_4 2.776426 1_555
Ni0_4 Sm0_5 2.776426 1_555
Ni0_4 Sm8_4 2.943994 1_555
Ni0_4 Sm8_5 2.943994 1_555
Ni0_4 Sm7_4 2.950556 1_555
Ni0_4 Sm7_5 2.950556 1_555
Ni0_5 Sm0_5 2.776426 1_555
Ni0_5 Sm0_4 2.776426 1_556
Ni0_5 Sm8_5 2.943994 1_555
Ni0_5 Sm8_4 2.943994 1_556
Ni0_5 Sm7_5 2.950556 1_555
Ni0_5 Sm7_4 2.950556 1_556
Ni0_6 Sm0_6 2.776426 1_555
Ni0_6 Sm0_7 2.776426 1_555
Ni0_6 Sm8_6 2.943994 1_555
Ni0_6 Sm8_7 2.943994 1_555
Ni0_6 Sm7_6 2.950556 1_555
Ni0_6 Sm7_7 2.950556 1_555
Ni0_7 Sm0_7 2.776426 1_555
Ni0_7 Sm0_6 2.776426 1_556
Ni0_7 Sm8_7 2.943994 1_555
Ni0_7 Sm8_6 2.943994 1_556
Ni0_7 Sm7_7 2.950556 1_555
Ni0_7 Sm7_6 2.950556 1_556
Ni1_0 Sm1_1 2.776426 1_555
Ni1_0 Sm1_0 2.776426 1_555
Ni1_0 Sm9_1 2.943994 1_555
Ni1_0 Sm9_0 2.943994 1_555
Ni1_0 Sm6_1 2.950556 1_555
Ni1_0 Sm6_0 2.950556 1_555
Ni1_1 Sm1_1 2.776426 1_555
Ni1_1 Sm1_0 2.776426 1_556
Ni1_1 Sm9_1 2.943994 1_555
Ni1_1 Sm9_0 2.943994 1_556
Ni1_1 Sm6_1 2.950556 1_555
Ni1_1 Sm6_0 2.950556 1_556
Ni1_2 Sm1_2 2.776426 1_555
Ni1_2 Sm1_3 2.776426 1_555
Ni1_2 Sm9_2 2.943994 1_555
Ni1_2 Sm9_3 2.943994 1_555
Ni1_2 Sm6_2 2.950556 1_555
Ni1_2 Sm6_3 2.950556 1_555
Ni1_3 Sm1_3 2.776426 1_555
Ni1_3 Sm1_2 2.776426 1_556
Ni1_3 Sm9_3 2.943994 1_555
Ni1_3 Sm9_2 2.943994 1_556
Ni1_3 Sm6_3 2.950556 1_555
Ni1_3 Sm6_2 2.950556 1_556
Ni1_4 Sm1_5 2.776426 1_555
Ni1_4 Sm1_4 2.776426 1_555
Ni1_4 Sm9_5 2.943994 1_555
Ni1_4 Sm9_4 2.943994 1_555
Ni1_4 Sm6_5 2.950556 1_555
Ni1_4 Sm6_4 2.950556 1_555
Ni1_5 Sm1_5 2.776426 1_555
Ni1_5 Sm1_4 2.776426 1_556
Ni1_5 Sm9_5 2.943994 1_555
Ni1_5 Sm9_4 2.943994 1_556
Ni1_5 Sm6_5 2.950556 1_555
Ni1_5 Sm6_4 2.950556 1_556
Ni1_6 Sm1_7 2.776426 1_555
Ni1_6 Sm1_6 2.776426 1_555
Ni1_6 Sm9_6 2.943994 1_555
Ni1_6 Sm9_7 2.943994 1_555
Ni1_6 Sm6_7 2.950556 1_555
Ni1_6 Sm6_6 2.950556 1_555
Ni1_7 Sm1_7 2.776426 1_555
Ni1_7 Sm1_6 2.776426 1_556
Ni1_7 Sm9_7 2.943994 1_555
Ni1_7 Sm9_6 2.943994 1_556
Ni1_7 Sm6_7 2.950556 1_555
Ni1_7 Sm6_6 2.950556 1_556
Ni2_0 Sm2_1 2.776426 1_555
Ni2_0 Sm2_0 2.776426 1_555
Ni2_0 Sm8_0 2.943994 1_555
Ni2_0 Sm8_1 2.943994 1_555
Ni2_0 Sm6_0 2.950556 1_555
Ni2_0 Sm6_1 2.950556 1_555
Ni2_1 Sm2_1 2.776426 1_555
Ni2_1 Sm2_0 2.776426 1_556
Ni2_1 Sm8_1 2.943994 1_555
Ni2_1 Sm8_0 2.943994 1_556
Ni2_1 Sm6_1 2.950556 1_555
Ni2_1 Sm6_0 2.950556 1_556
Ni2_2 Sm2_2 2.776426 1_555
Ni2_2 Sm2_3 2.776426 1_555
Ni2_2 Sm8_3 2.943994 1_555
Ni2_2 Sm8_2 2.943994 1_555
Ni2_2 Sm6_3 2.950556 1_555
Ni2_2 Sm6_2 2.950556 1_555
Ni2_3 Sm2_3 2.776426 1_555
Ni2_3 Sm2_2 2.776426 1_556
Ni2_3 Sm8_3 2.943994 1_555
Ni2_3 Sm8_2 2.943994 1_556
Ni2_3 Sm6_3 2.950556 1_555
Ni2_3 Sm6_2 2.950556 1_556
Ni2_4 Sm2_4 2.776426 1_555
Ni2_4 Sm2_5 2.776426 1_555
Ni2_4 Sm8_4 2.943994 1_555
Ni2_4 Sm8_5 2.943994 1_555
Ni2_4 Sm6_4 2.950556 1_555
Ni2_4 Sm6_5 2.950556 1_555
Ni2_5 Sm2_5 2.776426 1_555
Ni2_5 Sm2_4 2.776426 1_556
Ni2_5 Sm8_5 2.943994 1_555
Ni2_5 Sm8_4 2.943994 1_556
Ni2_5 Sm6_5 2.950556 1_555
Ni2_5 Sm6_4 2.950556 1_556
Ni2_6 Sm2_6 2.776426 1_555
Ni2_6 Sm2_7 2.776426 1_555
Ni2_6 Sm8_6 2.943994 1_555
Ni2_6 Sm8_7 2.943994 1_555
Ni2_6 Sm6_7 2.950556 1_555
Ni2_6 Sm6_6 2.950556 1_555
Ni2_7 Sm2_7 2.776426 1_555
Ni2_7 Sm2_6 2.776426 1_556
Ni2_7 Sm8_7 2.943994 1_555
Ni2_7 Sm8_6 2.943994 1_556
Ni2_7 Sm6_7 2.950556 1_555
Ni2_7 Sm6_6 2.950556 1_556
Ni3_0 Sm3_0 2.776426 1_555
Ni3_0 Sm3_1 2.776426 1_555
Ni3_0 Sm9_1 2.943994 1_555
Ni3_0 Sm9_0 2.943994 1_555
Ni3_0 Sm7_0 2.950556 1_555
Ni3_0 Sm7_1 2.950556 1_555
Ni3_1 Sm3_1 2.776426 1_555
Ni3_1 Sm3_0 2.776426 1_556
Ni3_1 Sm9_1 2.943994 1_555
Ni3_1 Sm9_0 2.943994 1_556
Ni3_1 Sm7_1 2.950556 1_555
Ni3_1 Sm7_0 2.950556 1_556
Ni3_2 Sm3_2 2.776426 1_555
Ni3_2 Sm3_3 2.776426 1_555
Ni3_2 Sm9_2 2.943994 1_555
Ni3_2 Sm9_3 2.943994 1_555
Ni3_2 Sm7_3 2.950556 1_555
Ni3_2 Sm7_2 2.950556 1_555
Ni3_3 Sm3_3 2.776426 1_555
Ni3_3 Sm3_2 2.776426 1_556
Ni3_3 Sm9_3 2.943994 1_555
Ni3_3 Sm9_2 2.943994 1_556
Ni3_3 Sm7_3 2.950556 1_555
Ni3_3 Sm7_2 2.950556 1_556
Ni3_4 Sm3_5 2.776426 1_555
Ni3_4 Sm3_4 2.776426 1_555
Ni3_4 Sm9_5 2.943994 1_555
Ni3_4 Sm9_4 2.943994 1_555
Ni3_4 Sm7_5 2.950556 1_555
Ni3_4 Sm7_4 2.950556 1_555
Ni3_5 Sm3_5 2.776426 1_555
Ni3_5 Sm3_4 2.776426 1_556
Ni3_5 Sm9_5 2.943994 1_555
Ni3_5 Sm9_4 2.943994 1_556
Ni3_5 Sm7_5 2.950556 1_555
Ni3_5 Sm7_4 2.950556 1_556
Ni3_6 Sm3_6 2.776426 1_555
Ni3_6 Sm3_7 2.776426 1_555
Ni3_6 Sm9_7 2.943994 1_555
Ni3_6 Sm9_6 2.943994 1_555
Ni3_6 Sm7_6 2.950556 1_555
Ni3_6 Sm7_7 2.950556 1_555
Ni3_7 Sm3_7 2.776426 1_555
Ni3_7 Sm3_6 2.776426 1_556
Ni3_7 Sm9_7 2.943994 1_555
Ni3_7 Sm9_6 2.943994 1_556
Ni3_7 Sm7_7 2.950556 1_555
Ni3_7 Sm7_6 2.950556 1_556
