# generated using pymatgen
data_Hf2Cr3Si
_symmetry_space_group_name_H-M   'P 1'
_cell_length_a   4.99101407
_cell_length_b   4.99101407
_cell_length_c   8.26909800
_cell_angle_alpha   90.00000000
_cell_angle_beta   90.00000000
_cell_angle_gamma   120.00000098
_symmetry_Int_Tables_number   1
_chemical_formula_structural   Hf2Cr3Si
_chemical_formula_sum   'Hf4 Cr6 Si2'
_cell_volume   178.38829531
_cell_formula_units_Z   2
loop_
 _symmetry_equiv_pos_site_id
 _symmetry_equiv_pos_as_xyz
  1  'x, y, z'
loop_
 _atom_site_type_symbol
 _atom_site_label
 _atom_site_symmetry_multiplicity
 _atom_site_fract_x
 _atom_site_fract_y
 _atom_site_fract_z
 _atom_site_occupancy
  Hf  Hf0  1  0.33333300  0.66666700  0.43661100  1
  Hf  Hf1  1  0.66666700  0.33333300  0.56338900  1
  Hf  Hf2  1  0.66666700  0.33333300  0.93661100  1
  Hf  Hf3  1  0.33333300  0.66666700  0.06338900  1
  Cr  Cr0  1  0.82750500  0.17249500  0.25000000  1
  Cr  Cr1  1  0.82750500  0.65501000  0.25000000  1
  Cr  Cr2  1  0.34499000  0.17249500  0.25000000  1
  Cr  Cr3  1  0.17249500  0.82750500  0.75000000  1
  Cr  Cr4  1  0.17249500  0.34499000  0.75000000  1
  Cr  Cr5  1  0.65501000  0.82750500  0.75000000  1
  Si  Si0  1  0.00000000  0.00000000  0.50000000  1
  Si  Si1  1  0.00000000  0.00000000  0.00000000  1
loop_
_geom_bond_atom_site_label_1
_geom_bond_atom_site_label_2
_geom_bond_distance
_geom_bond_site_symmetry_2
Hf0 Si0 2.928847 1_565
Hf0 Si0 2.928851 1_665
Hf0 Si0 2.928851 1_555
Hf1 Si0 2.928847 1_655
Hf1 Si0 2.928851 1_555
Hf1 Si0 2.928851 1_665
Hf2 Si1 2.928847 1_656
Hf2 Si1 2.928851 1_556
Hf2 Si1 2.928851 1_666
Hf3 Si1 2.928847 1_565
Hf3 Si1 2.928851 1_665
Hf3 Si1 2.928851 1_555
Cr0 Cr1 2.408239 1_555
Cr0 Cr2 2.408239 1_555
Cr0 Si1 2.548960 1_655
Cr0 Si0 2.548960 1_655
Cr0 Cr1 2.582775 1_545
Cr0 Cr2 2.582775 1_655
Cr0 Hf3 2.934496 1_545
Cr0 Hf3 2.934496 1_655
Cr0 Hf0 2.934496 1_545
Cr0 Hf0 2.934496 1_655
Cr0 Hf1 2.940881 1_555
Cr0 Hf2 2.940881 1_554
Cr1 Cr2 2.408239 1_555
Cr1 Si1 2.548960 1_665
Cr1 Si0 2.548960 1_665
Cr1 Cr2 2.582775 1_665
Cr1 Hf0 2.934494 1_655
Cr1 Hf3 2.934494 1_655
Cr1 Hf0 2.934498 1_555
Cr1 Hf3 2.934498 1_555
Cr1 Hf2 2.940883 1_554
Cr1 Hf1 2.940883 1_555
Cr2 Si1 2.548960 1_555
Cr2 Si0 2.548960 1_555
Cr2 Hf3 2.934494 1_545
Cr2 Hf0 2.934494 1_545
Cr2 Hf3 2.934498 1_555
Cr2 Hf0 2.934498 1_555
Cr2 Hf2 2.940883 1_554
Cr2 Hf1 2.940883 1_555
Cr3 Cr5 2.408239 1_555
Cr3 Cr4 2.408239 1_555
Cr3 Si1 2.548960 1_566
Cr3 Si0 2.548960 1_565
Cr3 Cr5 2.582775 1_455
Cr3 Cr4 2.582775 1_565
Cr3 Hf2 2.934496 1_455
Cr3 Hf2 2.934496 1_565
Cr3 Hf1 2.934496 1_565
Cr3 Hf1 2.934496 1_455
Cr3 Hf3 2.940881 1_556
Cr3 Hf0 2.940881 1_555
Cr4 Cr5 2.408239 1_555
Cr4 Si0 2.548960 1_555
Cr4 Si1 2.548960 1_556
Cr4 Cr5 2.582775 1_445
Cr4 Hf1 2.934494 1_455
Cr4 Hf2 2.934494 1_455
Cr4 Hf1 2.934498 1_555
Cr4 Hf2 2.934498 1_555
Cr4 Hf3 2.940883 1_556
Cr4 Hf0 2.940883 1_555
Cr5 Si1 2.548960 1_666
Cr5 Si0 2.548960 1_665
Cr5 Hf2 2.934494 1_565
Cr5 Hf1 2.934494 1_565
Cr5 Hf2 2.934498 1_555
Cr5 Hf1 2.934498 1_555
Cr5 Hf3 2.940883 1_556
Cr5 Hf0 2.940883 1_555
