# generated using pymatgen
data_ZnCoP2O7
_symmetry_space_group_name_H-M   'P 1'
_cell_length_a   6.41364858
_cell_length_b   8.37837160
_cell_length_c   10.34027591
_cell_angle_alpha   89.18880716
_cell_angle_beta   106.52028821
_cell_angle_gamma   79.60951098
_symmetry_Int_Tables_number   1
_chemical_formula_structural   ZnCoP2O7
_chemical_formula_sum   'Zn4 Co4 P8 O28'
_cell_volume   522.70793995
_cell_formula_units_Z   4
loop_
 _symmetry_equiv_pos_site_id
 _symmetry_equiv_pos_as_xyz
  1  'x, y, z'
loop_
 _atom_site_type_symbol
 _atom_site_label
 _atom_site_symmetry_multiplicity
 _atom_site_fract_x
 _atom_site_fract_y
 _atom_site_fract_z
 _atom_site_occupancy
  Zn  Zn0  1  0.84645300  0.63400400  0.56234600  1
  Zn  Zn1  1  0.34844500  0.13401000  0.06309700  1
  Zn  Zn2  1  0.15297800  0.36518500  0.43809900  1
  Zn  Zn3  1  0.65171800  0.86515800  0.93660900  1
  Co  Co0  1  0.32049600  0.56635900  0.23310400  1
  Co  Co1  1  0.17949800  0.93622200  0.26910600  1
  Co  Co2  1  0.82881300  0.06372800  0.73616500  1
  Co  Co3  1  0.67847800  0.43395400  0.76721100  1
  P  P0  1  0.67599000  0.30350200  0.46936900  1
  P  P1  1  0.17650000  0.80254400  0.96765000  1
  P  P2  1  0.32325800  0.69676100  0.53293700  1
  P  P3  1  0.82421100  0.19609200  0.03180400  1
  P  P4  1  0.28666800  0.03476500  0.63991200  1
  P  P5  1  0.78658500  0.53303900  0.14143200  1
  P  P6  1  0.71317400  0.96702500  0.35862200  1
  P  P7  1  0.21341000  0.46575600  0.85885400  1
  O  O0  1  0.22817200  0.85616500  0.59454100  1
  O  O1  1  0.72892600  0.35554600  0.09267100  1
  O  O2  1  0.76981100  0.14424700  0.40746300  1
  O  O3  1  0.27314800  0.64261700  0.90819900  1
  O  O4  1  0.43992500  0.37622900  0.37997000  1
  O  O5  1  0.93981500  0.87151700  0.87664800  1
  O  O6  1  0.55976100  0.62534500  0.62199800  1
  O  O7  1  0.06029800  0.12462000  0.12112500  1
  O  O8  1  0.73527100  0.86618300  0.48827900  1
  O  O9  1  0.23613700  0.36609700  0.98934700  1
  O  O10  1  0.26379600  0.13062900  0.50730900  1
  O  O11  1  0.76380300  0.63305800  0.01108400  1
  O  O12  1  0.88318900  0.90955100  0.28571100  1
  O  O13  1  0.38315200  0.40743100  0.78604300  1
  O  O14  1  0.11488300  0.09868400  0.71018400  1
  O  O15  1  0.61650200  0.59101600  0.21415500  1
  O  O16  1  0.15817600  0.58460000  0.53373600  1
  O  O17  1  0.65881900  0.08388600  0.03211400  1
  O  O18  1  0.84197500  0.41499300  0.46789100  1
  O  O19  1  0.33939800  0.91603800  0.96476400  1
  O  O20  1  0.32956600  0.73509400  0.38880700  1
  O  O21  1  0.83154400  0.23446000  0.88783300  1
  O  O22  1  0.66910900  0.26473000  0.61309000  1
  O  O23  1  0.16927500  0.76681200  0.11180100  1
  O  O24  1  0.47239300  0.00773300  0.26221200  1
  O  O25  1  0.97240700  0.50791300  0.76346800  1
  O  O26  1  0.52658200  0.99452200  0.73603200  1
  O  O27  1  0.02749500  0.49218200  0.23720800  1
loop_
_geom_bond_atom_site_label_1
_geom_bond_atom_site_label_2
_geom_bond_distance
_geom_bond_site_symmetry_2
Co0 O23 1.998878 1_555
Co0 O15 2.009270 1_555
Co0 O4 2.064068 1_555
Co0 O27 2.094119 1_555
Co0 O20 2.152902 1_555
Co1 O20 1.994096 1_555
Co1 O12 2.007159 1_455
Co1 O7 2.061181 1_565
Co1 O24 2.091375 1_565
Co1 O23 2.168636 1_555
Co2 O14 1.999047 1_655
Co2 O22 2.020050 1_555
Co2 O5 2.035309 1_545
Co2 O26 2.120742 1_545
Co2 O21 2.136113 1_555
Co3 O21 1.991445 1_555
Co3 O13 2.008817 1_555
Co3 O6 2.060811 1_555
Co3 O25 2.097968 1_555
Co3 O22 2.143317 1_555
O0 P2 1.585117 1_555
O0 P4 1.649934 1_565
O1 P3 1.581913 1_555
O1 P5 1.648032 1_555
O2 P0 1.582980 1_555
O2 P6 1.644137 1_545
O3 P1 1.580500 1_555
O3 P7 1.648609 1_555
O4 P0 1.540599 1_555
O4 Zn2 2.108504 1_555
O5 P1 1.542589 1_655
O5 Zn3 2.118384 1_555
O6 P2 1.539325 1_555
O6 Zn0 2.111531 1_555
O7 P3 1.538278 1_455
O7 Zn1 2.112662 1_555
O8 P6 1.532335 1_555
O8 Zn0 2.006498 1_555
O9 P7 1.533454 1_555
O9 Zn1 2.005469 1_556
O10 P4 1.535776 1_555
O10 Zn2 2.011566 1_555
O11 P5 1.533654 1_555
O11 Zn3 2.007455 1_554
O12 P6 1.509201 1_555
O13 P7 1.508471 1_555
O14 P4 1.510685 1_555
O15 P5 1.509006 1_555
O16 P2 1.538770 1_555
O16 Zn0 2.072995 1_455
O16 Zn2 2.100807 1_555
O17 P3 1.539672 1_555
O17 Zn1 2.075226 1_555
O17 Zn3 2.095582 1_544
O18 P0 1.540668 1_555
O18 Zn2 2.073782 1_655
O18 Zn0 2.091797 1_555
O19 P1 1.540104 1_555
O19 Zn3 2.075111 1_555
O19 Zn1 2.104678 1_566
O20 P2 1.533406 1_555
O21 P3 1.534112 1_556
O22 P0 1.531278 1_555
O23 P1 1.531403 1_554
O24 P6 1.555576 1_545
O24 Zn1 2.166681 1_555
O25 P7 1.553372 1_655
O25 Zn0 2.183606 1_555
O26 P4 1.550104 1_565
O26 Zn3 2.190061 1_555
O27 P5 1.553937 1_455
O27 Zn2 2.184644 1_555
