# generated using pymatgen
data_Li2TiCoO4
_symmetry_space_group_name_H-M   'P 1'
_cell_length_a   5.94321295
_cell_length_b   5.96446115
_cell_length_c   8.47222801
_cell_angle_alpha   90.00040791
_cell_angle_beta   90.00010422
_cell_angle_gamma   90.05495984
_symmetry_Int_Tables_number   1
_chemical_formula_structural   Li2TiCoO4
_chemical_formula_sum   'Li8 Ti4 Co4 O16'
_cell_volume   300.32393212
_cell_formula_units_Z   4
loop_
 _symmetry_equiv_pos_site_id
 _symmetry_equiv_pos_as_xyz
  1  'x, y, z'
loop_
 _atom_site_type_symbol
 _atom_site_label
 _atom_site_symmetry_multiplicity
 _atom_site_fract_x
 _atom_site_fract_y
 _atom_site_fract_z
 _atom_site_occupancy
  Li  Li0  1  0.25000000  0.24999900  0.25000000  1
  Li  Li1  1  0.74999900  0.75000000  0.75000000  1
  Li  Li2  1  0.75000000  0.25000000  0.75000000  1
  Li  Li3  1  0.25000000  0.75000000  0.25000000  1
  Li  Li4  1  0.00000200  0.49998100  0.00000100  1
  Li  Li5  1  0.49999700  0.00001900  0.49999900  1
  Li  Li6  1  0.49999700  0.49998200  0.00000000  1
  Li  Li7  1  0.00000300  0.00001700  0.50000000  1
  Ti  Ti0  1  0.49999800  0.00004700  0.00000300  1
  Ti  Ti1  1  0.00000100  0.49995100  0.49999600  1
  Ti  Ti2  1  0.00000800  0.00003400  0.00000100  1
  Ti  Ti3  1  0.49999300  0.49996600  0.49999700  1
  Co  Co0  1  0.24999900  0.74999900  0.75000000  1
  Co  Co1  1  0.75000000  0.74999900  0.25000000  1
  Co  Co2  1  0.75000000  0.25000000  0.25000000  1
  Co  Co3  1  0.25000000  0.25000000  0.75000000  1
  O  O0  1  0.50620100  0.49985700  0.26778400  1
  O  O1  1  0.00619600  0.99986800  0.76778600  1
  O  O2  1  0.99380600  0.50015500  0.26778800  1
  O  O3  1  0.49380500  0.00014200  0.76778500  1
  O  O4  1  0.00619600  0.49985800  0.73221200  1
  O  O5  1  0.50619700  0.99984700  0.23221300  1
  O  O6  1  0.49380200  0.50013400  0.73221600  1
  O  O7  1  0.99380000  0.00014200  0.23221600  1
  O  O8  1  0.25024900  0.22777300  0.00395200  1
  O  O9  1  0.75024600  0.72779600  0.50390900  1
  O  O10  1  0.24974700  0.77220200  0.00389700  1
  O  O11  1  0.74975100  0.27222800  0.50394100  1
  O  O12  1  0.75025100  0.22777300  0.99605500  1
  O  O13  1  0.25025200  0.72779800  0.49610300  1
  O  O14  1  0.74975500  0.77220400  0.99609400  1
  O  O15  1  0.24975100  0.27222900  0.49605100  1
loop_
_geom_bond_atom_site_label_1
_geom_bond_atom_site_label_2
_geom_bond_distance
_geom_bond_site_symmetry_2
Li0 O8 2.088785 1_555
Li0 O15 2.088812 1_555
Li0 O7 2.134875 1_455
Li0 O0 2.134884 1_555
Li0 O5 2.138132 1_545
Li0 O2 2.138136 1_455
Li1 O9 2.089141 1_555
Li1 O14 2.089166 1_555
Li1 O6 2.134900 1_555
Li1 O1 2.134910 1_655
Li1 O3 2.138076 1_565
Li1 O4 2.138091 1_655
Li2 O12 2.088847 1_555
Li2 O11 2.088881 1_555
Li2 O3 2.134861 1_555
Li2 O4 2.134867 1_655
Li2 O1 2.138045 1_645
Li2 O6 2.138060 1_555
Li3 O13 2.089243 1_555
Li3 O10 2.089243 1_555
Li3 O2 2.134804 1_455
Li3 O5 2.134825 1_555
Li3 O7 2.138102 1_465
Li3 O0 2.138110 1_555
Li4 O12 2.199023 1_454
Li4 O10 2.199050 1_555
Li4 O8 2.203116 1_555
Li4 O14 2.203177 1_454
Li4 O2 2.269052 1_455
Li4 O4 2.269068 1_554
Li5 O11 2.199039 1_555
Li5 O13 2.199050 1_545
Li5 O15 2.203121 1_555
Li5 O9 2.203185 1_545
Li5 O3 2.269043 1_555
Li5 O5 2.269044 1_545
Li6 O8 2.199017 1_555
Li6 O14 2.199108 1_554
Li6 O12 2.203148 1_554
Li6 O10 2.203174 1_555
Li6 O6 2.269026 1_554
Li6 O0 2.269027 1_555
Li7 O15 2.199029 1_555
Li7 O9 2.199100 1_445
Li7 O11 2.203148 1_455
Li7 O13 2.203166 1_545
Li7 O7 2.269027 1_455
Li7 O1 2.269043 1_545
Co0 O4 2.084231 1_555
Co0 O3 2.084250 1_565
Co0 O6 2.085039 1_555
Co0 O1 2.085058 1_555
Co0 O13 2.155145 1_555
Co0 O10 2.155146 1_556
Co1 O0 2.084218 1_555
Co1 O7 2.084226 1_565
Co1 O2 2.084966 1_555
Co1 O5 2.084970 1_555
Co1 O14 2.155224 1_554
Co1 O9 2.155249 1_555
Co2 O5 2.084281 1_545
Co2 O2 2.084303 1_555
Co2 O0 2.084989 1_555
Co2 O7 2.084997 1_555
Co2 O11 2.155527 1_555
Co2 O12 2.155560 1_554
Co3 O6 2.084196 1_555
Co3 O1 2.084197 1_545
Co3 O4 2.085017 1_555
Co3 O3 2.085020 1_555
Co3 O15 2.155597 1_555
Co3 O8 2.155621 1_556
O0 Ti3 1.967708 1_555
O1 Ti2 1.967722 1_566
O2 Ti1 1.967664 1_655
O3 Ti0 1.967748 1_556
O4 Ti1 1.967731 1_555
O5 Ti0 1.967681 1_565
O6 Ti3 1.967757 1_555
O7 Ti2 1.967725 1_655
O8 Ti0 2.013218 1_555
O8 Ti2 2.013505 1_555
O9 Ti1 2.013718 1_655
O9 Ti3 2.013918 1_555
O10 Ti2 2.013594 1_565
O10 Ti0 2.013967 1_565
O11 Ti3 2.013305 1_555
O11 Ti1 2.013480 1_655
O12 Ti2 2.013305 1_656
O12 Ti0 2.013505 1_556
O13 Ti3 2.013602 1_555
O13 Ti1 2.013975 1_555
O14 Ti0 2.013719 1_566
O14 Ti2 2.013917 1_666
O15 Ti1 2.013205 1_555
O15 Ti3 2.013501 1_555
