# generated using pymatgen
data_K2TiF5
_symmetry_space_group_name_H-M   'P 1'
_cell_length_a   6.15801600
_cell_length_b   7.71045400
_cell_length_c   10.89233700
_cell_angle_alpha   90.00000000
_cell_angle_beta   90.00000000
_cell_angle_gamma   90.00000000
_symmetry_Int_Tables_number   1
_chemical_formula_structural   K2TiF5
_chemical_formula_sum   'K8 Ti4 F20'
_cell_volume   517.18013252
_cell_formula_units_Z   4
loop_
 _symmetry_equiv_pos_site_id
 _symmetry_equiv_pos_as_xyz
  1  'x, y, z'
loop_
 _atom_site_type_symbol
 _atom_site_label
 _atom_site_symmetry_multiplicity
 _atom_site_fract_x
 _atom_site_fract_y
 _atom_site_fract_z
 _atom_site_occupancy
  K  K0  1  0.00938400  0.25000000  0.13315200  1
  K  K1  1  0.50938400  0.25000000  0.36684800  1
  K  K2  1  0.99061600  0.75000000  0.86684800  1
  K  K3  1  0.49061600  0.75000000  0.63315200  1
  K  K4  1  0.08929000  0.75000000  0.21115900  1
  K  K5  1  0.58929000  0.75000000  0.28884100  1
  K  K6  1  0.91071000  0.25000000  0.78884100  1
  K  K7  1  0.41071000  0.25000000  0.71115900  1
  Ti  Ti0  1  0.50000000  0.50000000  0.00000000  1
  Ti  Ti1  1  0.00000000  0.00000000  0.50000000  1
  Ti  Ti2  1  0.50000000  0.00000000  0.00000000  1
  Ti  Ti3  1  0.00000000  0.50000000  0.50000000  1
  F  F0  1  0.78678300  0.55742800  0.07051400  1
  F  F1  1  0.28678300  0.94257200  0.42948600  1
  F  F2  1  0.21321700  0.05742800  0.92948600  1
  F  F3  1  0.71321700  0.44257200  0.57051400  1
  F  F4  1  0.21321700  0.44257200  0.92948600  1
  F  F5  1  0.71321700  0.05742800  0.57051400  1
  F  F6  1  0.78678300  0.94257200  0.07051400  1
  F  F7  1  0.28678300  0.55742800  0.42948600  1
  F  F8  1  0.61941300  0.53216800  0.83255400  1
  F  F9  1  0.11941300  0.96783200  0.66744600  1
  F  F10  1  0.38058700  0.03216800  0.16744600  1
  F  F11  1  0.88058700  0.46783200  0.33255400  1
  F  F12  1  0.38058700  0.46783200  0.16744600  1
  F  F13  1  0.88058700  0.03216800  0.33255400  1
  F  F14  1  0.61941300  0.96783200  0.83255400  1
  F  F15  1  0.11941300  0.53216800  0.66744600  1
  F  F16  1  0.59262100  0.25000000  0.98616000  1
  F  F17  1  0.09262100  0.25000000  0.51384000  1
  F  F18  1  0.40737900  0.75000000  0.01384000  1
  F  F19  1  0.90737900  0.75000000  0.48616000  1
loop_
_geom_bond_atom_site_label_1
_geom_bond_atom_site_label_2
_geom_bond_distance
_geom_bond_site_symmetry_2
F0 Ti0 1.976055 1_555
F0 K0 2.821946 1_655
F0 K4 2.832269 1_655
F0 K2 2.949834 1_554
F0 K5 3.055987 1_555
F1 Ti1 1.976055 1_565
F1 K1 2.821946 1_565
F1 K5 2.832269 1_555
F1 K3 2.949834 1_555
F1 K4 3.055987 1_555
F2 Ti2 1.976055 1_556
F2 K2 2.821946 1_445
F2 K6 2.832269 1_455
F2 K0 2.949834 1_556
F2 K7 3.055987 1_555
F3 Ti3 1.976055 1_655
F3 K3 2.821946 1_555
F3 K7 2.832269 1_555
F3 K1 2.949834 1_555
F3 K6 3.055987 1_555
F4 Ti0 1.976055 1_556
F4 K2 2.821946 1_455
F4 K6 2.832269 1_455
F4 K0 2.949834 1_556
F4 K7 3.055987 1_555
F5 Ti1 1.976055 1_655
F5 K3 2.821946 1_545
F5 K7 2.832269 1_555
F5 K1 2.949834 1_555
F5 K6 3.055987 1_555
F6 Ti2 1.976055 1_565
F6 K0 2.821946 1_665
F6 K4 2.832269 1_655
F6 K2 2.949834 1_554
F6 K5 3.055987 1_555
F7 Ti3 1.976055 1_555
F7 K1 2.821946 1_555
F7 K5 2.832269 1_555
F7 K3 2.949834 1_555
F7 K4 3.055987 1_555
F8 Ti0 1.982117 1_556
F8 K7 2.851941 1_555
F8 K3 2.857874 1_555
F8 K6 2.859701 1_555
F8 K2 2.861076 1_555
F9 Ti1 1.982117 1_565
F9 K6 2.851941 1_465
F9 K2 2.857874 1_455
F9 K7 2.859701 1_565
F9 K3 2.861076 1_555
F10 Ti2 1.982117 1_555
F10 K5 2.851941 1_545
F10 K1 2.857874 1_555
F10 K4 2.859701 1_545
F10 K0 2.861076 1_555
F11 Ti3 1.982117 1_655
F11 K4 2.851941 1_655
F11 K0 2.857874 1_655
F11 K5 2.859701 1_555
F11 K1 2.861076 1_555
F12 Ti0 1.982117 1_555
F12 K5 2.851941 1_555
F12 K1 2.857874 1_555
F12 K4 2.859701 1_555
F12 K0 2.861076 1_555
F13 Ti1 1.982117 1_655
F13 K4 2.851941 1_645
F13 K0 2.857874 1_655
F13 K5 2.859701 1_545
F13 K1 2.861076 1_555
F14 Ti2 1.982117 1_566
F14 K7 2.851941 1_565
F14 K3 2.857874 1_555
F14 K6 2.859701 1_565
F14 K2 2.861076 1_555
F15 Ti3 1.982117 1_555
F15 K6 2.851941 1_455
F15 K2 2.857874 1_455
F15 K7 2.859701 1_555
F15 K3 2.861076 1_555
F16 Ti2 2.015870 1_556
F16 Ti0 2.015870 1_556
F16 K6 2.907959 1_555
F16 K0 3.024906 1_656
F16 K7 3.198017 1_555
F17 Ti3 2.015870 1_555
F17 Ti1 2.015870 1_555
F17 K7 2.907959 1_555
F17 K1 3.024906 1_555
F17 K6 3.198017 1_455
F18 Ti0 2.015870 1_555
F18 Ti2 2.015870 1_565
F18 K4 2.907959 1_555
F18 K2 3.024906 1_454
F18 K5 3.198017 1_555
F19 Ti1 2.015870 1_665
F19 Ti3 2.015870 1_655
F19 K5 2.907959 1_555
F19 K3 3.024906 1_555
F19 K4 3.198017 1_655
