# generated using pymatgen
data_LiMn(CO3)2
_symmetry_space_group_name_H-M   'P 1'
_cell_length_a   4.94107092
_cell_length_b   12.78720712
_cell_length_c   7.91533005
_cell_angle_alpha   89.99698938
_cell_angle_beta   90.00242293
_cell_angle_gamma   84.68707472
_symmetry_Int_Tables_number   1
_chemical_formula_structural   LiMn(CO3)2
_chemical_formula_sum   'Li4 Mn4 C8 O24'
_cell_volume   497.96176153
_cell_formula_units_Z   4
loop_
 _symmetry_equiv_pos_site_id
 _symmetry_equiv_pos_as_xyz
  1  'x, y, z'
loop_
 _atom_site_type_symbol
 _atom_site_label
 _atom_site_symmetry_multiplicity
 _atom_site_fract_x
 _atom_site_fract_y
 _atom_site_fract_z
 _atom_site_occupancy
  Li  Li0  1  0.03281605  0.30343079  0.04839154  1
  Li  Li1  1  0.53404964  0.80339467  0.04841514  1
  Li  Li2  1  0.21581172  0.44664271  0.54855615  1
  Li  Li3  1  0.71708005  0.94659166  0.54842970  1
  Mn  Mn0  1  0.49929340  0.50615274  0.99891536  1
  Mn  Mn1  1  0.25064820  0.74414759  0.49880754  1
  Mn  Mn2  1  0.00073795  0.00577420  0.99840977  1
  Mn  Mn3  1  0.74977633  0.24401306  0.49803151  1
  C  C0  1  0.80679423  0.06131992  0.26106062  1
  C  C1  1  0.30485506  0.56132440  0.26184252  1
  C  C2  1  0.94327003  0.18867221  0.76105872  1
  C  C3  1  0.44520125  0.68860238  0.76164617  1
  C  C4  1  0.52419398  0.31815462  0.24613342  1
  C  C5  1  0.02536645  0.81792411  0.24622541  1
  C  C6  1  0.72459991  0.43204055  0.74633122  1
  C  C7  1  0.22564493  0.93189499  0.74614396  1
  O  O0  1  0.06938132  0.03942865  0.23584184  1
  O  O1  1  0.56757678  0.53908456  0.23704113  1
  O  O2  1  0.68072245  0.21061703  0.73562237  1
  O  O3  1  0.18254888  0.71076282  0.73660201  1
  O  O4  1  0.66234470  0.05721472  0.12412573  1
  O  O5  1  0.16115344  0.55728685  0.12449478  1
  O  O6  1  0.08782449  0.19272169  0.62413512  1
  O  O7  1  0.58906239  0.69276618  0.62442447  1
  O  O8  1  0.70818725  0.08195056  0.40722828  1
  O  O9  1  0.20509006  0.58198744  0.40780080  1
  O  O10  1  0.04176597  0.16804505  0.90724369  1
  O  O11  1  0.54458307  0.66800609  0.90777477  1
  O  O12  1  0.78706535  0.28903662  0.25147581  1
  O  O13  1  0.28821654  0.78855296  0.25132900  1
  O  O14  1  0.46176979  0.46142495  0.75147263  1
  O  O15  1  0.96280429  0.96108007  0.75153293  1
  O  O16  1  0.40538601  0.31547238  0.39522716  1
  O  O17  1  0.90671052  0.81537564  0.39543872  1
  O  O18  1  0.84327088  0.43464582  0.89552194  1
  O  O19  1  0.34462179  0.93447354  0.89521644  1
  O  O20  1  0.39916952  0.34453524  0.11126941  1
  O  O21  1  0.89978835  0.84460070  0.11167099  1
  O  O22  1  0.85011093  0.40539044  0.61175319  1
  O  O23  1  0.35070606  0.90545941  0.61131404  1
loop_
_geom_bond_atom_site_label_1
_geom_bond_atom_site_label_2
_geom_bond_distance
_geom_bond_site_symmetry_2
Li0 O20 1.994209 1_555
Li0 O12 2.033186 1_455
Li0 O10 2.057490 1_554
Li0 O18 2.205722 1_454
Li1 O21 1.992580 1_555
Li1 O13 2.033210 1_555
Li1 O11 2.054915 1_554
Li1 O19 2.205692 1_554
Li2 O22 1.992519 1_455
Li2 O14 2.033422 1_555
Li2 O9 2.054787 1_555
Li2 O16 2.207498 1_555
Li3 O23 1.994464 1_555
Li3 O15 2.033336 1_555
Li3 O8 2.057347 1_565
Li3 O17 2.206548 1_555
Mn0 O1 1.967268 1_556
Mn0 O5 2.001239 1_556
Mn0 O18 2.026559 1_555
Mn0 O14 2.053606 1_555
Mn0 O11 2.222520 1_555
Mn0 O20 2.344314 1_556
Mn1 O3 1.965907 1_555
Mn1 O7 2.003163 1_555
Mn1 O17 2.024897 1_455
Mn1 O13 2.052681 1_555
Mn1 O9 2.226179 1_555
Mn1 O23 2.341222 1_555
Mn2 O0 1.964501 1_556
Mn2 O4 2.003763 1_456
Mn2 O19 2.024566 1_545
Mn2 O15 2.049447 1_445
Mn2 O10 2.223771 1_555
Mn2 O21 2.343136 1_446
Mn3 O2 1.965307 1_555
Mn3 O6 2.003336 1_655
Mn3 O16 2.025984 1_555
Mn3 O12 2.047825 1_555
Mn3 O8 2.220891 1_555
Mn3 O22 2.346051 1_555
C0 O8 1.273510 1_555
C0 O4 1.301483 1_555
C0 O0 1.316958 1_655
C1 O9 1.274169 1_555
C1 O5 1.302095 1_555
C1 O1 1.317652 1_555
C2 O10 1.273365 1_655
C2 O6 1.301676 1_655
C2 O2 1.317094 1_555
C3 O11 1.274488 1_555
C3 O7 1.301888 1_555
C3 O3 1.317462 1_555
C4 O20 1.263436 1_555
C4 O12 1.318298 1_555
C4 O16 1.319951 1_555
C5 O21 1.263485 1_455
C5 O13 1.318761 1_555
C5 O17 1.320348 1_455
C6 O22 1.263487 1_555
C6 O14 1.318713 1_555
C6 O18 1.320228 1_555
C7 O23 1.263523 1_555
C7 O15 1.318333 1_455
C7 O19 1.320045 1_555
