# generated using pymatgen
data_Nb3B2Ru5
_symmetry_space_group_name_H-M   'P 1'
_cell_length_a   9.44322007
_cell_length_b   9.44322007
_cell_length_c   3.00531214
_cell_angle_alpha   90.00000000
_cell_angle_beta   90.00000000
_cell_angle_gamma   90.00000000
_symmetry_Int_Tables_number   1
_chemical_formula_structural   Nb3B2Ru5
_chemical_formula_sum   'Nb6 B4 Ru10'
_cell_volume   267.99692280
_cell_formula_units_Z   2
loop_
 _symmetry_equiv_pos_site_id
 _symmetry_equiv_pos_as_xyz
  1  'x, y, z'
loop_
 _atom_site_type_symbol
 _atom_site_label
 _atom_site_symmetry_multiplicity
 _atom_site_fract_x
 _atom_site_fract_y
 _atom_site_fract_z
 _atom_site_occupancy
  Nb  Nb0  1  0.82356558  0.67643442  0.00000000  1
  Nb  Nb1  1  0.17643442  0.32356558  -0.00000000  1
  Nb  Nb2  1  0.32356558  0.82356558  -0.00000000  1
  Nb  Nb3  1  0.67643442  0.17643442  0.00000000  1
  Nb  Nb4  1  0.50000000  0.50000000  0.00000000  1
  Nb  Nb5  1  0.00000000  0.00000000  0.00000000  1
  B  B0  1  0.62114694  0.87885306  0.00000000  1
  B  B1  1  0.37885306  0.12114694  -0.00000000  1
  B  B2  1  0.12114694  0.62114694  -0.00000000  1
  B  B3  1  0.87885306  0.37885306  0.00000000  1
  Ru  Ru0  1  0.57113963  0.71911597  0.50000000  1
  Ru  Ru1  1  0.42886037  0.28088403  0.50000000  1
  Ru  Ru2  1  0.07113963  0.78088403  0.50000000  1
  Ru  Ru3  1  0.92886037  0.21911597  0.50000000  1
  Ru  Ru4  1  0.28088403  0.57113963  0.50000000  1
  Ru  Ru5  1  0.71911597  0.42886037  0.50000000  1
  Ru  Ru6  1  0.21911597  0.07113963  0.50000000  1
  Ru  Ru7  1  0.78088403  0.92886037  0.50000000  1
  Ru  Ru8  1  0.50000000  0.00000000  0.50000000  1
  Ru  Ru9  1  0.00000000  0.50000000  0.50000000  1
loop_
_geom_bond_atom_site_label_1
_geom_bond_atom_site_label_2
_geom_bond_distance
_geom_bond_site_symmetry_2
Nb0 Ru9 2.794604 1_654
Nb0 Ru9 2.794604 1_655
Nb0 Ru0 2.846492 1_555
Nb0 Ru7 2.846492 1_555
Nb0 Ru7 2.846492 1_554
Nb0 Ru0 2.846492 1_554
Nb0 Ru5 2.949000 1_554
Nb0 Ru5 2.949000 1_555
Nb0 Ru2 2.949000 1_654
Nb0 Ru2 2.949000 1_655
Nb1 Ru9 2.794604 1_554
Nb1 Ru9 2.794604 1_555
Nb1 Ru1 2.846492 1_555
Nb1 Ru6 2.846492 1_554
Nb1 Ru1 2.846492 1_554
Nb1 Ru6 2.846492 1_555
Nb1 Ru4 2.949000 1_555
Nb1 Ru4 2.949000 1_554
Nb1 Ru3 2.949000 1_454
Nb1 Ru3 2.949000 1_455
Nb2 Ru8 2.794604 1_565
Nb2 Ru8 2.794604 1_564
Nb2 Ru2 2.846492 1_554
Nb2 Ru4 2.846492 1_555
Nb2 Ru2 2.846492 1_555
Nb2 Ru4 2.846492 1_554
Nb2 Ru6 2.949000 1_564
Nb2 Ru0 2.949000 1_554
Nb2 Ru6 2.949000 1_565
Nb2 Ru0 2.949000 1_555
Nb3 Ru8 2.794604 1_554
Nb3 Ru8 2.794604 1_555
Nb3 Ru3 2.846492 1_555
Nb3 Ru5 2.846492 1_554
Nb3 Ru3 2.846492 1_554
Nb3 Ru5 2.846492 1_555
Nb3 Ru1 2.949000 1_555
Nb3 Ru1 2.949000 1_554
Nb3 Ru7 2.949000 1_544
Nb3 Ru7 2.949000 1_545
Nb4 Ru1 2.643993 1_554
Nb4 Ru1 2.643993 1_555
Nb4 Ru0 2.643993 1_555
Nb4 Ru5 2.643993 1_554
Nb4 Ru4 2.643993 1_555
Nb4 Ru5 2.643993 1_555
Nb4 Ru0 2.643993 1_554
Nb4 Ru4 2.643993 1_554
Nb5 Ru2 2.643993 1_544
Nb5 Ru2 2.643993 1_545
Nb5 Ru7 2.643993 1_444
Nb5 Ru3 2.643993 1_455
Nb5 Ru3 2.643993 1_454
Nb5 Ru6 2.643993 1_555
Nb5 Ru7 2.643993 1_445
Nb5 Ru6 2.643993 1_554
B0 Ru0 2.180905 1_555
B0 Ru0 2.180905 1_554
B0 Ru7 2.180905 1_555
B0 Ru7 2.180905 1_554
B0 Ru8 2.208059 1_565
B0 Ru8 2.208059 1_564
B0 Nb0 2.703246 1_555
B0 Nb2 2.858214 1_555
B0 Nb3 2.858214 1_565
B1 Ru6 2.180905 1_554
B1 Ru1 2.180905 1_554
B1 Ru6 2.180905 1_555
B1 Ru1 2.180905 1_555
B1 Ru8 2.208059 1_554
B1 Ru8 2.208059 1_555
B1 Nb1 2.703246 1_555
B1 Nb3 2.858214 1_555
B1 Nb2 2.858214 1_545
B2 Ru4 2.180905 1_555
B2 Ru2 2.180905 1_555
B2 Ru4 2.180905 1_554
B2 Ru2 2.180905 1_554
B2 Ru9 2.208059 1_554
B2 Ru9 2.208059 1_555
B2 Nb2 2.703246 1_555
B2 Nb0 2.858214 1_455
B2 Nb1 2.858214 1_555
B3 Ru5 2.180905 1_555
B3 Ru5 2.180905 1_554
B3 Ru3 2.180905 1_555
B3 Ru3 2.180905 1_554
B3 Ru9 2.208059 1_655
B3 Ru9 2.208059 1_654
B3 Nb3 2.703246 1_555
B3 Nb0 2.858214 1_555
B3 Nb1 2.858214 1_655
