# generated using pymatgen
data_K3Rb5(Mo3O10)4
_symmetry_space_group_name_H-M   'P 1'
_cell_length_a   8.42291966
_cell_length_b   11.18530207
_cell_length_c   11.54105167
_cell_angle_alpha   95.05812692
_cell_angle_beta   82.30469349
_cell_angle_gamma   101.69663086
_symmetry_Int_Tables_number   1
_chemical_formula_structural   K3Rb5(Mo3O10)4
_chemical_formula_sum   'K3 Rb5 Mo12 O40'
_cell_volume   1053.06066199
_cell_formula_units_Z   1
loop_
 _symmetry_equiv_pos_site_id
 _symmetry_equiv_pos_as_xyz
  1  'x, y, z'
loop_
 _atom_site_type_symbol
 _atom_site_label
 _atom_site_symmetry_multiplicity
 _atom_site_fract_x
 _atom_site_fract_y
 _atom_site_fract_z
 _atom_site_occupancy
  K  K0  1  0.33328900  0.31053200  0.46355800  1
  K  K1  1  0.16674100  0.18949800  0.03644600  1
  K  K2  1  0.66671000  0.68946900  0.53643700  1
  Rb  Rb0  1  0.68139700  0.44698300  0.13999900  1
  Rb  Rb1  1  0.18145000  0.94702600  0.63994800  1
  Rb  Rb2  1  0.31856900  0.55297100  0.86001500  1
  Rb  Rb3  1  0.81858100  0.05298900  0.36003300  1
  Rb  Rb4  1  0.83320500  0.81024400  0.96320800  1
  Mo  Mo0  1  0.34838100  0.91039400  0.94159900  1
  Mo  Mo1  1  0.84779700  0.41031200  0.44152900  1
  Mo  Mo2  1  0.65203400  0.08993800  0.05855600  1
  Mo  Mo3  1  0.15220900  0.58968600  0.55847400  1
  Mo  Mo4  1  0.12925000  0.46316100  0.22747500  1
  Mo  Mo5  1  0.62916400  0.96323500  0.72737900  1
  Mo  Mo6  1  0.87073500  0.53655300  0.77235500  1
  Mo  Mo7  1  0.37071900  0.03681800  0.27252300  1
  Mo  Mo8  1  0.54250700  0.24418100  0.79033800  1
  Mo  Mo9  1  0.04277300  0.74411000  0.29075100  1
  Mo  Mo10  1  0.45718400  0.75580400  0.20986700  1
  Mo  Mo11  1  0.95743900  0.25578300  0.70965200  1
  O  O0  1  0.23859300  0.63856200  0.23332500  1
  O  O1  1  0.73869400  0.13861900  0.73328300  1
  O  O2  1  0.76130700  0.36131300  0.76668700  1
  O  O3  1  0.26136600  0.86142800  0.26673800  1
  O  O4  1  0.44385400  0.32867700  0.90306300  1
  O  O5  1  0.94382100  0.82871900  0.40316300  1
  O  O6  1  0.55514800  0.67076900  0.09740400  1
  O  O7  1  0.05614300  0.17132600  0.59694500  1
  O  O8  1  0.29798900  0.39269200  0.22308200  1
  O  O9  1  0.79796600  0.89284200  0.72272100  1
  O  O10  1  0.70197700  0.60700700  0.77672400  1
  O  O11  1  0.20200200  0.10729800  0.27692400  1
  O  O12  1  0.09046900  0.44529500  0.08196000  1
  O  O13  1  0.59039100  0.94530700  0.58190000  1
  O  O14  1  0.90960800  0.55425000  0.91785000  1
  O  O15  1  0.40953000  0.05470600  0.41803600  1
  O  O16  1  0.94365000  0.57911000  0.31133800  1
  O  O17  1  0.44367100  0.07927700  0.81124600  1
  O  O18  1  0.05632700  0.42079000  0.68867900  1
  O  O19  1  0.55638800  0.92075400  0.18862200  1
  O  O20  1  0.96436600  0.77083700  0.16641400  1
  O  O21  1  0.46397900  0.27093800  0.66585600  1
  O  O22  1  0.03601100  0.22906000  0.83413300  1
  O  O23  1  0.53603500  0.72907900  0.33419800  1
  O  O24  1  0.11876000  0.46622900  0.43525800  1
  O  O25  1  0.61803200  0.96691400  0.93507900  1
  O  O26  1  0.88125400  0.53376800  0.56474300  1
  O  O27  1  0.38121300  0.03384700  0.06489600  1
  O  O28  1  0.31561400  0.77857200  0.02036000  1
  O  O29  1  0.81568800  0.27862900  0.52035000  1
  O  O30  1  0.68435300  0.22148900  0.97963000  1
  O  O31  1  0.18432500  0.72138400  0.47964400  1
  O  O32  1  0.65399600  0.42249800  0.40875600  1
  O  O33  1  0.15538700  0.92322200  0.90834800  1
  O  O34  1  0.34600000  0.57749900  0.59124300  1
  O  O35  1  0.84587600  0.07763800  0.09126000  1
  O  O36  1  0.94140400  0.34451000  0.28754900  1
  O  O37  1  0.44152500  0.84447500  0.78750500  1
  O  O38  1  0.05858600  0.65545800  0.71244200  1
  O  O39  1  0.55857100  0.15552500  0.21250100  1
loop_
_geom_bond_atom_site_label_1
_geom_bond_atom_site_label_2
_geom_bond_distance
_geom_bond_site_symmetry_2
K0 O32 2.752429 1_555
K0 O21 2.815515 1_555
K0 O24 2.817613 1_555
K0 O7 2.868816 1_555
K0 O15 3.044035 1_555
K0 O8 3.068713 1_555
K0 O11 3.128129 1_555
K0 O34 3.199460 1_555
K1 O35 2.753264 1_455
K1 O22 2.815739 1_554
K1 O27 2.817291 1_555
K1 O4 2.868490 1_554
K1 O12 3.043814 1_555
K1 O11 3.068822 1_555
K1 O8 3.127781 1_555
K1 O33 3.195536 1_544
K2 O34 2.752470 1_555
K2 O23 2.814893 1_555
K2 O26 2.817763 1_555
K2 O5 2.868219 1_555
K2 O13 3.044372 1_555
K2 O10 3.067927 1_555
K2 O9 3.126264 1_555
K2 O32 3.199479 1_555
Mo0 O28 1.755173 1_556
Mo0 O33 1.755473 1_555
Mo0 O27 1.900575 1_566
Mo0 O37 1.987851 1_555
Mo0 O25 2.223586 1_555
Mo0 O17 2.457396 1_565
Mo1 O29 1.754706 1_555
Mo1 O32 1.758104 1_555
Mo1 O26 1.900447 1_555
Mo1 O36 1.987670 1_555
Mo1 O24 2.233894 1_655
Mo1 O16 2.455915 1_555
Mo2 O30 1.753989 1_554
Mo2 O35 1.758528 1_555
Mo2 O25 1.900020 1_544
Mo2 O39 1.986023 1_555
Mo2 O27 2.232831 1_555
Mo2 O19 2.458108 1_545
Mo3 O31 1.754904 1_555
Mo3 O34 1.758009 1_555
Mo3 O24 1.900464 1_555
Mo3 O38 1.987480 1_555
Mo3 O26 2.233832 1_455
Mo3 O18 2.456868 1_555
Mo4 O12 1.740194 1_555
Mo4 O8 1.752644 1_555
Mo4 O36 1.939710 1_455
Mo4 O0 1.990616 1_555
Mo4 O16 2.293070 1_455
Mo4 O24 2.385273 1_555
Mo5 O13 1.739761 1_555
Mo5 O9 1.752238 1_555
Mo5 O37 1.939471 1_555
Mo5 O1 1.990874 1_565
Mo5 O17 2.293110 1_565
Mo5 O25 2.383367 1_555
Mo6 O14 1.740212 1_555
Mo6 O10 1.752718 1_555
Mo6 O38 1.940730 1_655
Mo6 O2 1.989189 1_555
Mo6 O18 2.291028 1_655
Mo6 O26 2.383491 1_555
Mo7 O15 1.740243 1_555
Mo7 O11 1.752542 1_555
Mo7 O39 1.939902 1_555
Mo7 O3 1.990522 1_545
Mo7 O19 2.294481 1_545
Mo7 O27 2.383544 1_555
Mo8 O21 1.732515 1_555
Mo8 O4 1.757362 1_555
Mo8 O17 1.885613 1_555
Mo8 O2 2.033905 1_555
Mo8 O1 2.218332 1_555
Mo8 O30 2.680338 1_555
Mo9 O20 1.730370 1_455
Mo9 O5 1.757029 1_455
Mo9 O16 1.886557 1_455
Mo9 O3 2.033865 1_555
Mo9 O0 2.216365 1_555
Mo9 O31 2.674948 1_555
Mo10 O23 1.732277 1_555
Mo10 O6 1.756101 1_555
Mo10 O19 1.887385 1_555
Mo10 O0 2.032999 1_555
Mo10 O3 2.215943 1_555
Mo10 O28 2.681415 1_555
Mo11 O22 1.732578 1_655
Mo11 O7 1.757191 1_655
Mo11 O18 1.886866 1_655
Mo11 O1 2.033707 1_555
Mo11 O2 2.217685 1_555
Mo11 O29 2.680424 1_555
O4 Rb2 3.014647 1_555
O5 Rb3 3.014465 1_565
O6 Rb4 2.879387 1_554
O6 Rb0 3.012349 1_555
O7 Rb1 3.014661 1_545
O8 Rb0 3.193046 1_555
O9 Rb4 3.070647 1_555
O9 Rb1 3.192982 1_655
O10 Rb4 3.126838 1_555
O10 Rb2 3.193451 1_555
O11 Rb3 3.193205 1_455
O12 Rb2 3.160823 1_554
O12 Rb0 3.424487 1_455
O13 Rb3 3.160479 1_565
O13 Rb1 3.423477 1_555
O14 Rb4 3.046254 1_555
O14 Rb0 3.161511 1_556
O14 Rb2 3.422551 1_655
O15 Rb1 3.160476 1_545
O15 Rb3 3.424350 1_555
O16 Rb0 3.210080 1_555
O17 Rb1 3.209951 1_545
O18 Rb2 3.210155 1_555
O19 Rb3 3.210614 1_565
O20 Rb4 2.826372 1_554
O25 Rb4 2.829607 1_555
O28 Rb2 2.997080 1_554
O29 Rb3 2.997199 1_555
O30 Rb0 2.996287 1_556
O31 Rb1 2.997121 1_555
O32 Rb0 3.111511 1_555
O33 Rb4 2.766320 1_455
O33 Rb1 3.107079 1_555
O34 Rb2 3.111741 1_555
O35 Rb3 3.112059 1_555
O35 Rb4 3.205344 1_544
O36 Rb3 3.359169 1_555
O36 Rb0 3.372009 1_555
O37 Rb2 3.359167 1_555
O37 Rb1 3.372960 1_555
O38 Rb1 3.359718 1_555
O38 Rb2 3.372096 1_555
O39 Rb0 3.358576 1_555
O39 Rb3 3.372263 1_555
