# generated using pymatgen
data_Li3(CoO2)4
_symmetry_space_group_name_H-M   'P 1'
_cell_length_a   5.82219126
_cell_length_b   10.40280230
_cell_length_c   5.81429603
_cell_angle_alpha   106.78854135
_cell_angle_beta   58.85221088
_cell_angle_gamma   106.76512220
_symmetry_Int_Tables_number   1
_chemical_formula_structural   Li3(CoO2)4
_chemical_formula_sum   'Li6 Co8 O16'
_cell_volume   284.35585361
_cell_formula_units_Z   2
loop_
 _symmetry_equiv_pos_site_id
 _symmetry_equiv_pos_as_xyz
  1  'x, y, z'
loop_
 _atom_site_type_symbol
 _atom_site_label
 _atom_site_symmetry_multiplicity
 _atom_site_fract_x
 _atom_site_fract_y
 _atom_site_fract_z
 _atom_site_occupancy
  Li  Li0  1  0.49971700  0.00177800  0.99696800  1
  Li  Li1  1  0.00028000  0.49821700  0.50303100  1
  Li  Li2  1  0.99670900  0.00237200  0.49907500  1
  Li  Li3  1  0.50328700  0.49762000  0.00092100  1
  Li  Li4  1  0.50367000  0.00546100  0.50247000  1
  Li  Li5  1  0.99633000  0.49454100  0.99753100  1
  Co  Co0  1  0.25000000  0.75000000  0.25000000  1
  Co  Co1  1  0.75000000  0.25000000  0.75000000  1
  Co  Co2  1  0.75000000  0.25000000  0.25000000  1
  Co  Co3  1  0.25000000  0.75000000  0.75000000  1
  Co  Co4  1  0.25000000  0.25000000  0.25000000  1
  Co  Co5  1  0.75000000  0.75000000  0.75000000  1
  Co  Co6  1  0.25000000  0.25000000  0.75000000  1
  Co  Co7  1  0.75000000  0.75000000  0.25000000  1
  O  O0  1  0.37843800  0.13655000  0.37860900  1
  O  O1  1  0.89023400  0.63456900  0.88775100  1
  O  O2  1  0.12156200  0.36345100  0.12139100  1
  O  O3  1  0.60976700  0.86543300  0.61225000  1
  O  O4  1  0.87489400  0.14114200  0.39099300  1
  O  O5  1  0.38526300  0.64626900  0.89571800  1
  O  O6  1  0.10888300  0.35881400  0.62560400  1
  O  O7  1  0.60737000  0.85436700  0.11304200  1
  O  O8  1  0.87234400  0.14138600  0.87308700  1
  O  O9  1  0.36672100  0.64236400  0.36521800  1
  O  O10  1  0.62765600  0.35861500  0.62691400  1
  O  O11  1  0.13328000  0.85763700  0.13478200  1
  O  O12  1  0.39111800  0.14118700  0.87439700  1
  O  O13  1  0.89263000  0.64563400  0.38695900  1
  O  O14  1  0.62510700  0.35885900  0.10900700  1
  O  O15  1  0.11473800  0.85373300  0.60428200  1
loop_
_geom_bond_atom_site_label_1
_geom_bond_atom_site_label_2
_geom_bond_distance
_geom_bond_site_symmetry_2
Li0 O8 2.122457 1_555
Li0 O11 2.126550 1_546
Li0 O0 2.130988 1_556
Li0 O12 2.145479 1_555
Li0 O3 2.152830 1_545
Li0 O7 2.188573 1_546
Li1 O10 2.122415 1_455
Li1 O9 2.126596 1_555
Li1 O2 2.130955 1_555
Li1 O6 2.145449 1_555
Li1 O1 2.152872 1_455
Li1 O13 2.188608 1_455
Li2 O11 2.119360 1_645
Li2 O8 2.122037 1_555
Li2 O0 2.131468 1_655
Li2 O4 2.134872 1_555
Li2 O3 2.166605 1_545
Li2 O15 2.198088 1_645
Li3 O9 2.119422 1_555
Li3 O10 2.121973 1_554
Li3 O2 2.131409 1_555
Li3 O14 2.134827 1_555
Li3 O1 2.166673 1_554
Li3 O5 2.198144 1_554
Li4 O3 2.091658 1_545
Li4 O4 2.098352 1_555
Li4 O12 2.098409 1_555
Li4 O0 2.143376 1_555
Li4 O7 2.244822 1_545
Li4 O15 2.249566 1_545
Li5 O1 2.091654 1_555
Li5 O14 2.098353 1_556
Li5 O6 2.098414 1_655
Li5 O2 2.143381 1_656
Li5 O13 2.244817 1_556
Li5 O5 2.249570 1_655
Co0 O9 1.872865 1_555
Co0 O11 1.872869 1_555
Co0 O5 1.885688 1_554
Co0 O15 1.885696 1_555
Co0 O13 1.903754 1_455
Co0 O7 1.903758 1_555
Co1 O4 1.925512 1_555
Co1 O14 1.925517 1_556
Co1 O12 1.927553 1_555
Co1 O6 1.927561 1_655
Co1 O8 1.937783 1_555
Co1 O10 1.937787 1_555
Co2 O0 1.998844 1_555
Co2 O2 1.998848 1_655
Co2 O8 2.001416 1_554
Co2 O10 2.001424 1_555
Co2 O4 2.027604 1_555
Co2 O14 2.027608 1_555
Co3 O1 1.959571 1_455
Co3 O3 1.959583 1_555
Co3 O9 2.034662 1_555
Co3 O11 2.034666 1_556
Co3 O5 2.052102 1_555
Co3 O15 2.052113 1_555
Co4 O12 1.994479 1_554
Co4 O6 1.994487 1_555
Co4 O4 1.995355 1_455
Co4 O14 1.995363 1_555
Co4 O0 2.026976 1_555
Co4 O2 2.026985 1_555
Co5 O13 1.925314 1_555
Co5 O7 1.925322 1_556
Co5 O5 1.933064 1_555
Co5 O15 1.933075 1_655
Co5 O1 2.132537 1_555
Co5 O3 2.132545 1_555
Co6 O0 1.995351 1_555
Co6 O2 1.995355 1_556
Co6 O8 2.007361 1_455
Co6 O10 2.007365 1_555
Co6 O6 2.025778 1_555
Co6 O12 2.025778 1_555
Co7 O1 1.967308 1_554
Co7 O3 1.967320 1_555
Co7 O9 2.031649 1_555
Co7 O11 2.031657 1_655
Co7 O13 2.050882 1_555
Co7 O7 2.050886 1_555
