# generated using pymatgen
data_Mn20O43
_symmetry_space_group_name_H-M   'P 1'
_cell_length_a   8.29737847
_cell_length_b   10.15386683
_cell_length_c   10.15826800
_cell_angle_alpha   87.82214014
_cell_angle_beta   112.36795513
_cell_angle_gamma   112.33351421
_symmetry_Int_Tables_number   1
_chemical_formula_structural   Mn20O43
_chemical_formula_sum   'Mn20 O43'
_cell_volume   726.36877541
_cell_formula_units_Z   1
loop_
 _symmetry_equiv_pos_site_id
 _symmetry_equiv_pos_as_xyz
  1  'x, y, z'
loop_
 _atom_site_type_symbol
 _atom_site_label
 _atom_site_symmetry_multiplicity
 _atom_site_fract_x
 _atom_site_fract_y
 _atom_site_fract_z
 _atom_site_occupancy
  Mn  Mn0  1  0.81800600  0.20288900  0.68746500  1
  Mn  Mn1  1  0.81766200  0.40317100  0.88756700  1
  Mn  Mn2  1  0.81802400  0.60335700  0.08764700  1
  Mn  Mn3  1  0.81803700  0.80366100  0.28733500  1
  Mn  Mn4  1  0.81838900  0.00336200  0.48770500  1
  Mn  Mn5  1  0.18196300  0.19633900  0.71266500  1
  Mn  Mn6  1  0.18197600  0.39664300  0.91235300  1
  Mn  Mn7  1  0.18233800  0.59682900  0.11243300  1
  Mn  Mn8  1  0.18199400  0.79711100  0.31253500  1
  Mn  Mn9  1  0.18161100  0.99663800  0.51229500  1
  Mn  Mn10  1  0.48405300  0.35360300  0.53643700  1
  Mn  Mn11  1  0.48471600  0.55450800  0.73666100  1
  Mn  Mn12  1  0.48443400  0.75452800  0.93660300  1
  Mn  Mn13  1  0.48534300  0.95427300  0.13699200  1
  Mn  Mn14  1  0.48480100  0.15386300  0.33668100  1
  Mn  Mn15  1  0.51465700  0.04572700  0.86300800  1
  Mn  Mn16  1  0.51556600  0.24547200  0.06339700  1
  Mn  Mn17  1  0.51528400  0.44549200  0.26333900  1
  Mn  Mn18  1  0.51594700  0.64639700  0.46356300  1
  Mn  Mn19  1  0.51519900  0.84613700  0.66331900  1
  O  O0  1  0.04719600  0.79384400  0.43437200  1
  O  O1  1  0.04779000  0.59433100  0.23493500  1
  O  O2  1  0.04762600  0.39464100  0.03435800  1
  O  O3  1  0.04751700  0.19490800  0.83395400  1
  O  O4  1  0.04718900  0.99366300  0.63404400  1
  O  O5  1  0.95280400  0.20615600  0.56562800  1
  O  O6  1  0.95281100  0.00633700  0.36595600  1
  O  O7  1  0.95248300  0.80509200  0.16604600  1
  O  O8  1  0.95237400  0.60535900  0.96564200  1
  O  O9  1  0.95221000  0.40566900  0.76506500  1
  O  O10  1  0.63899700  0.91589700  0.86724600  1
  O  O11  1  0.63974300  0.71629400  0.66791800  1
  O  O12  1  0.64004400  0.51579300  0.46789500  1
  O  O13  1  0.63999700  0.31516900  0.26813500  1
  O  O14  1  0.64001100  0.11566000  0.06759500  1
  O  O15  1  0.36100300  0.08410300  0.13275400  1
  O  O16  1  0.35999000  0.88434000  0.93240500  1
  O  O17  1  0.36000300  0.68483100  0.73186500  1
  O  O18  1  0.35995600  0.48420700  0.53210500  1
  O  O19  1  0.36025700  0.28370600  0.33208200  1
  O  O20  1  0.62012900  0.03894300  0.33379400  1
  O  O21  1  0.62016900  0.83891900  0.13283900  1
  O  O22  1  0.61982300  0.63905800  0.93302400  1
  O  O23  1  0.62073900  0.43984000  0.73250300  1
  O  O24  1  0.61979100  0.23801500  0.53269100  1
  O  O25  1  0.37987100  0.96105700  0.66620600  1
  O  O26  1  0.38020900  0.76198500  0.46730900  1
  O  O27  1  0.37926100  0.56016000  0.26749700  1
  O  O28  1  0.38017700  0.36094200  0.06697600  1
  O  O29  1  0.37983100  0.16108100  0.86716100  1
  O  O30  1  0.29299600  0.99871100  0.37722300  1
  O  O31  1  0.29330900  0.79871500  0.17779300  1
  O  O32  1  0.29405500  0.59844000  0.97803300  1
  O  O33  1  0.29275600  0.39844900  0.77689100  1
  O  O34  1  0.29383700  0.19777200  0.57802900  1
  O  O35  1  0.70700400  0.00128900  0.62277700  1
  O  O36  1  0.70616300  0.80222800  0.42197100  1
  O  O37  1  0.70724400  0.60155100  0.22310900  1
  O  O38  1  0.70594500  0.40156000  0.02196700  1
  O  O39  1  0.70669100  0.20128500  0.82220700  1
  O  O40  1  0.00005200  0.90289200  0.90296400  1
  O  O41  1  0.99994800  0.09710800  0.09703600  1
  O  O42  1  0.00000000  0.50000000  0.50000000  1
loop_
_geom_bond_atom_site_label_1
_geom_bond_atom_site_label_2
_geom_bond_distance
_geom_bond_site_symmetry_2
Mn0 O39 1.917257 1_555
Mn0 O35 1.918102 1_555
Mn0 O24 1.933695 1_555
Mn0 O3 1.949036 1_655
Mn0 O5 1.950929 1_555
Mn0 O9 1.952848 1_555
Mn1 O38 1.916633 1_556
Mn1 O39 1.922103 1_555
Mn1 O23 1.936100 1_555
Mn1 O8 1.948898 1_555
Mn1 O2 1.955018 1_656
Mn1 O9 1.956779 1_555
Mn2 O37 1.920086 1_555
Mn2 O38 1.921444 1_555
Mn2 O22 1.935676 1_554
Mn2 O7 1.945704 1_555
Mn2 O8 1.952304 1_554
Mn2 O1 1.957787 1_655
Mn3 O36 1.920126 1_555
Mn3 O37 1.921917 1_555
Mn3 O21 1.931213 1_555
Mn3 O7 1.948108 1_555
Mn3 O6 1.954399 1_565
Mn3 O0 1.956388 1_655
Mn4 O36 1.915465 1_545
Mn4 O35 1.919746 1_555
Mn4 O20 1.931923 1_555
Mn4 O6 1.948315 1_555
Mn4 O4 1.951059 1_645
Mn4 O5 1.953744 1_555
Mn5 O34 1.920126 1_555
Mn5 O33 1.921917 1_555
Mn5 O29 1.931213 1_555
Mn5 O3 1.948108 1_555
Mn5 O4 1.954399 1_545
Mn5 O5 1.956388 1_455
Mn6 O33 1.920086 1_555
Mn6 O32 1.921444 1_555
Mn6 O28 1.935676 1_556
Mn6 O3 1.945704 1_555
Mn6 O2 1.952304 1_556
Mn6 O9 1.957787 1_455
Mn7 O32 1.916633 1_554
Mn7 O31 1.922103 1_555
Mn7 O27 1.936100 1_555
Mn7 O2 1.948898 1_555
Mn7 O8 1.955018 1_454
Mn7 O1 1.956779 1_555
Mn8 O31 1.917257 1_555
Mn8 O30 1.918102 1_555
Mn8 O26 1.933695 1_555
Mn8 O7 1.949036 1_455
Mn8 O0 1.950929 1_555
Mn8 O1 1.952848 1_555
Mn9 O34 1.915465 1_565
Mn9 O30 1.919746 1_555
Mn9 O25 1.931923 1_555
Mn9 O4 1.948315 1_555
Mn9 O6 1.951059 1_465
Mn9 O0 1.953744 1_555
Mn10 O23 1.917921 1_555
Mn10 O24 1.920428 1_555
Mn10 O34 1.931820 1_555
Mn10 O19 1.950166 1_555
Mn10 O18 1.954395 1_555
Mn10 O12 1.962387 1_555
Mn11 O22 1.915568 1_555
Mn11 O23 1.915718 1_555
Mn11 O33 1.934662 1_555
Mn11 O18 1.952674 1_555
Mn11 O17 1.954904 1_555
Mn11 O11 1.957401 1_555
Mn12 O21 1.914169 1_556
Mn12 O22 1.916585 1_555
Mn12 O32 1.933104 1_555
Mn12 O16 1.949857 1_555
Mn12 O17 1.953087 1_555
Mn12 O10 1.956734 1_555
Mn13 O21 1.913298 1_555
Mn13 O20 1.919574 1_565
Mn13 O31 1.935371 1_555
Mn13 O15 1.949262 1_565
Mn13 O16 1.952131 1_554
Mn13 O14 1.957487 1_565
Mn14 O20 1.909648 1_555
Mn14 O24 1.911483 1_555
Mn14 O30 1.930895 1_545
Mn14 O15 1.946067 1_555
Mn14 O19 1.949946 1_555
Mn14 O13 1.954113 1_555
Mn15 O29 1.913298 1_555
Mn15 O25 1.919574 1_545
Mn15 O39 1.935371 1_555
Mn15 O10 1.949262 1_545
Mn15 O14 1.952131 1_556
Mn15 O16 1.957483 1_545
Mn16 O29 1.914169 1_554
Mn16 O28 1.916585 1_555
Mn16 O38 1.933104 1_555
Mn16 O14 1.949863 1_555
Mn16 O13 1.953087 1_555
Mn16 O15 1.956734 1_555
Mn17 O28 1.915568 1_555
Mn17 O27 1.915718 1_555
Mn17 O37 1.934662 1_555
Mn17 O12 1.952674 1_555
Mn17 O13 1.954904 1_555
Mn17 O19 1.957401 1_555
Mn18 O27 1.917921 1_555
Mn18 O26 1.920428 1_555
Mn18 O36 1.931820 1_555
Mn18 O11 1.950166 1_555
Mn18 O12 1.954395 1_555
Mn18 O18 1.962387 1_555
Mn19 O25 1.909648 1_555
Mn19 O26 1.911483 1_555
Mn19 O35 1.930895 1_565
Mn19 O10 1.946067 1_555
Mn19 O11 1.949946 1_555
Mn19 O17 1.954113 1_555
