# generated using pymatgen
data_NaCoSeO6F
_symmetry_space_group_name_H-M   'P 1'
_cell_length_a   7.36869000
_cell_length_b   5.80072000
_cell_length_c   7.22420900
_cell_angle_alpha   69.17604698
_cell_angle_beta   90.00000000
_cell_angle_gamma   90.00000000
_symmetry_Int_Tables_number   1
_chemical_formula_structural   NaCoSeO6F
_chemical_formula_sum   'Na2 Co2 Se2 O12 F2'
_cell_volume   288.61846409
_cell_formula_units_Z   2
loop_
 _symmetry_equiv_pos_site_id
 _symmetry_equiv_pos_as_xyz
  1  'x, y, z'
loop_
 _atom_site_type_symbol
 _atom_site_label
 _atom_site_symmetry_multiplicity
 _atom_site_fract_x
 _atom_site_fract_y
 _atom_site_fract_z
 _atom_site_occupancy
  Na  Na0  1  0.75000000  0.89758900  0.69978100  1
  Na  Na1  1  0.25000000  0.10241100  0.30021900  1
  Co  Co0  1  0.50000000  0.50000000  0.50000000  1
  Co  Co1  1  0.00000000  0.50000000  0.50000000  1
  Se  Se0  1  0.75000000  0.36112800  0.17720300  1
  Se  Se1  1  0.25000000  0.63887200  0.82279700  1
  O  O0  1  0.56534000  0.29158800  0.33717800  1
  O  O1  1  0.06534000  0.70841200  0.66282200  1
  O  O2  1  0.43466000  0.70841200  0.66282200  1
  O  O3  1  0.93466000  0.29158800  0.33717800  1
  O  O4  1  0.75000000  0.15387100  0.06800500  1
  O  O5  1  0.25000000  0.84612900  0.93199500  1
  O  O6  1  0.75000000  0.65134700  0.03125700  1
  O  O7  1  0.25000000  0.34865300  0.96874300  1
  O  O8  1  0.05340500  0.74102600  0.30250800  1
  O  O9  1  0.55340500  0.25897400  0.69749200  1
  O  O10  1  0.94659500  0.25897400  0.69749200  1
  O  O11  1  0.44659500  0.74102600  0.30250800  1
  F  F0  1  0.75000000  0.64320600  0.50293800  1
  F  F1  1  0.25000000  0.35679400  0.49706200  1
loop_
_geom_bond_atom_site_label_1
_geom_bond_atom_site_label_2
_geom_bond_distance
_geom_bond_site_symmetry_2
Na0 O6 2.311425 1_556
Na0 O10 2.543354 1_565
Na0 O9 2.543354 1_565
Na0 O2 2.623572 1_555
Na0 O1 2.623572 1_655
Na1 O7 2.311425 1_554
Na1 O11 2.543354 1_545
Na1 O8 2.543354 1_545
Na1 O3 2.623572 1_455
Na1 O0 2.623572 1_555
Co0 O9 1.651334 1_555
Co0 O11 1.651334 1_555
Co0 O2 2.021878 1_555
Co0 O0 2.021878 1_555
Co0 F0 2.024017 1_555
Co0 F1 2.024017 1_555
Co1 O8 1.651334 1_555
Co1 O10 1.651334 1_455
Co1 O1 2.021878 1_555
Co1 O3 2.021878 1_455
Co1 F0 2.024017 1_455
Co1 F1 2.024017 1_555
O0 Se0 1.737354 1_555
O1 Se1 1.737354 1_555
O2 Se1 1.737354 1_555
O3 Se0 1.737354 1_555
O4 Se0 1.655902 1_555
O5 Se1 1.655902 1_555
O6 Se0 1.638216 1_555
O7 Se1 1.638216 1_555
F0 Na0 2.385690 1_555
F1 Na1 2.385690 1_555
