# generated using pymatgen
data_Li9Mn2Co5O16
_symmetry_space_group_name_H-M   'P 1'
_cell_length_a   5.88715700
_cell_length_b   5.89556808
_cell_length_c   8.09207604
_cell_angle_alpha   90.72646232
_cell_angle_beta   90.90764216
_cell_angle_gamma   93.13607656
_symmetry_Int_Tables_number   1
_chemical_formula_structural   Li9Mn2Co5O16
_chemical_formula_sum   'Li9 Mn2 Co5 O16'
_cell_volume   280.37925914
_cell_formula_units_Z   1
loop_
 _symmetry_equiv_pos_site_id
 _symmetry_equiv_pos_as_xyz
  1  'x, y, z'
loop_
 _atom_site_type_symbol
 _atom_site_label
 _atom_site_symmetry_multiplicity
 _atom_site_fract_x
 _atom_site_fract_y
 _atom_site_fract_z
 _atom_site_occupancy
  Li  Li0  1  0.25478000  0.75415300  0.74191500  1
  Li  Li1  1  0.00000000  0.50000000  0.50000000  1
  Li  Li2  1  0.50000000  0.50000000  0.00000000  1
  Li  Li3  1  0.25522300  0.24644100  0.74327800  1
  Li  Li4  1  0.74522000  0.24584700  0.25808500  1
  Li  Li5  1  0.50000000  0.00000000  0.00000000  1
  Li  Li6  1  0.00000000  0.00000000  0.50000000  1
  Li  Li7  1  0.74477700  0.75355900  0.25672200  1
  Li  Li8  1  0.50000000  0.00000000  0.50000000  1
  Mn  Mn0  1  0.74483600  0.75634700  0.74680400  1
  Mn  Mn1  1  0.25516400  0.24365300  0.25319600  1
  Co  Co0  1  0.50000000  0.50000000  0.50000000  1
  Co  Co1  1  0.00000000  0.00000000  0.00000000  1
  Co  Co2  1  0.74479800  0.25391500  0.74640200  1
  Co  Co3  1  0.25520200  0.74608500  0.25359800  1
  Co  Co4  1  0.00000000  0.50000000  0.00000000  1
  O  O0  1  0.99642100  0.98448600  0.75904700  1
  O  O1  1  0.74400400  0.73926600  0.51278200  1
  O  O2  1  0.23400800  0.73540000  0.01538300  1
  O  O3  1  0.96811300  0.51334400  0.76110000  1
  O  O4  1  0.49830300  0.47772700  0.25946100  1
  O  O5  1  0.23801600  0.23532000  0.00771100  1
  O  O6  1  0.72729400  0.27009800  0.51843200  1
  O  O7  1  0.46644600  0.00659700  0.24843400  1
  O  O8  1  0.50169700  0.52227300  0.74053900  1
  O  O9  1  0.25599600  0.26073400  0.48721800  1
  O  O10  1  0.76599200  0.26460000  0.98461700  1
  O  O11  1  0.53355400  0.99340300  0.75156600  1
  O  O12  1  0.00357900  0.01551400  0.24095300  1
  O  O13  1  0.76198400  0.76468000  0.99228900  1
  O  O14  1  0.27270600  0.72990200  0.48156800  1
  O  O15  1  0.03188700  0.48665600  0.23890000  1
loop_
_geom_bond_atom_site_label_1
_geom_bond_atom_site_label_2
_geom_bond_distance
_geom_bond_site_symmetry_2
Li0 O8 2.049296 1_555
Li0 O0 2.098706 1_455
Li0 O11 2.104520 1_555
Li0 O14 2.114479 1_555
Li0 O3 2.153967 1_455
Li0 O2 2.222050 1_556
Li1 O14 2.052193 1_555
Li1 O6 2.052193 1_455
Li1 O9 2.122658 1_555
Li1 O1 2.122658 1_455
Li1 O15 2.124969 1_555
Li1 O3 2.124969 1_455
Li2 O8 2.105489 1_554
Li2 O4 2.105489 1_555
Li2 O5 2.135384 1_555
Li2 O13 2.135384 1_554
Li2 O10 2.152503 1_554
Li2 O2 2.152503 1_555
Li3 O9 2.074904 1_555
Li3 O0 2.115763 1_445
Li3 O8 2.119957 1_555
Li3 O5 2.145473 1_556
Li3 O11 2.276275 1_545
Li3 O3 2.376301 1_455
Li4 O4 2.049296 1_555
Li4 O12 2.098706 1_655
Li4 O7 2.104520 1_555
Li4 O6 2.114479 1_555
Li4 O15 2.153967 1_655
Li4 O10 2.222050 1_554
Li5 O7 2.023232 1_555
Li5 O11 2.023232 1_544
Li5 O5 2.131293 1_555
Li5 O13 2.131293 1_544
Li5 O2 2.155219 1_545
Li5 O10 2.155219 1_554
Li6 O9 2.097717 1_555
Li6 O1 2.097717 1_445
Li6 O12 2.099769 1_555
Li6 O0 2.099769 1_445
Li6 O14 2.327385 1_545
Li6 O6 2.327385 1_455
Li7 O1 2.074904 1_555
Li7 O12 2.115763 1_665
Li7 O4 2.119957 1_555
Li7 O13 2.145473 1_554
Li7 O7 2.276275 1_565
Li7 O15 2.376301 1_655
Li8 O14 2.025584 1_545
Li8 O6 2.025584 1_555
Li8 O11 2.043204 1_545
Li8 O7 2.043204 1_555
Li8 O1 2.162877 1_545
Li8 O9 2.162877 1_555
Mn0 O1 1.895039 1_555
Mn0 O11 1.921519 1_555
Mn0 O8 1.932786 1_555
Mn0 O0 1.945915 1_555
Mn0 O13 1.987297 1_555
Mn0 O3 1.999774 1_555
Mn1 O9 1.895039 1_555
Mn1 O7 1.921519 1_555
Mn1 O4 1.932786 1_555
Mn1 O12 1.945915 1_555
Mn1 O5 1.987297 1_555
Mn1 O15 1.999774 1_555
Co0 O8 1.949053 1_555
Co0 O4 1.949053 1_555
Co0 O1 1.958035 1_555
Co0 O9 1.958035 1_555
Co0 O6 1.961419 1_555
Co0 O14 1.961419 1_555
Co1 O13 1.916877 1_444
Co1 O5 1.916877 1_555
Co1 O0 1.950521 1_444
Co1 O12 1.950521 1_555
Co1 O2 2.140449 1_545
Co1 O10 2.140449 1_454
Co2 O6 1.849957 1_555
Co2 O11 1.923935 1_545
Co2 O10 1.929722 1_555
Co2 O3 1.962726 1_555
Co2 O8 2.191146 1_555
Co2 O0 2.232657 1_545
Co3 O14 1.849957 1_555
Co3 O7 1.923935 1_565
Co3 O2 1.929722 1_555
Co3 O15 1.962726 1_555
Co3 O4 2.191146 1_555
Co3 O12 2.232657 1_565
Co4 O10 1.902741 1_454
Co4 O2 1.902741 1_555
Co4 O15 1.942332 1_555
Co4 O3 1.942332 1_454
Co4 O13 2.154361 1_454
Co4 O5 2.154361 1_555
