# generated using pymatgen
data_Dy3ReO7
_symmetry_space_group_name_H-M   'P 1'
_cell_length_a   6.44905651
_cell_length_b   6.44905651
_cell_length_c   7.45736900
_cell_angle_alpha   90.00000000
_cell_angle_beta   90.00000000
_cell_angle_gamma   109.40469122
_symmetry_Int_Tables_number   1
_chemical_formula_structural   Dy3ReO7
_chemical_formula_sum   'Dy6 Re2 O14'
_cell_volume   292.53625633
_cell_formula_units_Z   2
loop_
 _symmetry_equiv_pos_site_id
 _symmetry_equiv_pos_as_xyz
  1  'x, y, z'
loop_
 _atom_site_type_symbol
 _atom_site_label
 _atom_site_symmetry_multiplicity
 _atom_site_fract_x
 _atom_site_fract_y
 _atom_site_fract_z
 _atom_site_occupancy
  Dy  Dy0  1  0.51917500  0.51917500  0.25000000  1
  Dy  Dy1  1  0.48082500  0.48082500  0.75000000  1
  Dy  Dy2  1  0.99960400  0.46552700  0.49965900  1
  Dy  Dy3  1  0.53447300  0.00039600  0.50034100  1
  Dy  Dy4  1  0.00039600  0.53447300  0.99965900  1
  Dy  Dy5  1  0.46552700  0.99960400  0.00034100  1
  Re  Re0  1  0.00158800  0.00158800  0.25000000  1
  Re  Re1  1  0.99841200  0.99841200  0.75000000  1
  O  O0  1  0.06450800  0.31680200  0.21972900  1
  O  O1  1  0.68319800  0.93549200  0.78027100  1
  O  O2  1  0.93549200  0.68319800  0.71972900  1
  O  O3  1  0.31680200  0.06450800  0.28027100  1
  O  O4  1  0.67656200  0.92069600  0.22132800  1
  O  O5  1  0.07930400  0.32343800  0.77867200  1
  O  O6  1  0.32343800  0.07930400  0.72132800  1
  O  O7  1  0.92069600  0.67656200  0.27867200  1
  O  O8  1  0.36986600  0.63013400  0.50000000  1
  O  O9  1  0.63013400  0.36986600  0.00000000  1
  O  O10  1  0.36404700  0.63595300  0.00000000  1
  O  O11  1  0.63595300  0.36404700  0.50000000  1
  O  O12  1  0.92920000  0.07080000  0.50000000  1
  O  O13  1  0.07080000  0.92920000  0.00000000  1
loop_
_geom_bond_atom_site_label_1
_geom_bond_atom_site_label_2
_geom_bond_distance
_geom_bond_site_symmetry_2
Dy0 O8 2.317942 1_555
Dy0 O9 2.317942 1_555
Dy0 O10 2.354663 1_555
Dy0 O11 2.354663 1_555
Dy0 O7 2.456557 1_555
Dy0 O4 2.456557 1_555
Dy0 O3 2.794475 1_555
Dy0 O0 2.794475 1_555
Dy1 O8 2.317942 1_555
Dy1 O9 2.317942 1_556
Dy1 O10 2.354663 1_556
Dy1 O11 2.354663 1_555
Dy1 O5 2.456557 1_555
Dy1 O6 2.456557 1_555
Dy1 O1 2.794475 1_555
Dy1 O2 2.794475 1_555
Dy2 O11 2.215502 1_555
Dy2 O8 2.268118 1_655
Dy2 O2 2.284851 1_555
Dy2 O7 2.299405 1_555
Dy2 O0 2.391597 1_655
Dy2 O5 2.397113 1_655
Dy2 O12 2.432758 1_555
Dy3 O11 2.215502 1_555
Dy3 O8 2.268118 1_545
Dy3 O3 2.284851 1_555
Dy3 O6 2.299405 1_555
Dy3 O1 2.391597 1_545
Dy3 O4 2.397113 1_545
Dy3 O12 2.432758 1_555
Dy4 O10 2.215502 1_556
Dy4 O9 2.268118 1_456
Dy4 O0 2.284851 1_556
Dy4 O5 2.299405 1_555
Dy4 O2 2.391597 1_455
Dy4 O7 2.397113 1_456
Dy4 O13 2.432758 1_556
Dy5 O10 2.215502 1_555
Dy5 O9 2.268118 1_565
Dy5 O1 2.284851 1_554
Dy5 O4 2.299405 1_555
Dy5 O3 2.391597 1_565
Dy5 O6 2.397113 1_564
Dy5 O13 2.432758 1_555
O0 Re0 1.949337 1_555
O1 Re1 1.949337 1_555
O2 Re1 1.949337 1_555
O3 Re0 1.949337 1_555
O4 Re0 1.996233 1_665
O5 Re1 1.996233 1_445
O6 Re1 1.996233 1_445
O7 Re0 1.996233 1_665
O12 Re1 2.007833 1_545
O12 Re0 2.007833 1_655
O13 Re0 2.007833 1_565
O13 Re1 2.007833 1_454
