# generated using pymatgen
data_Zn3(SnRu)2
_symmetry_space_group_name_H-M   'P 1'
_cell_length_a   4.21009800
_cell_length_b   8.30855900
_cell_length_c   13.90244400
_cell_angle_alpha   90.00000000
_cell_angle_beta   90.00000000
_cell_angle_gamma   90.00000000
_symmetry_Int_Tables_number   1
_chemical_formula_structural   Zn3(SnRu)2
_chemical_formula_sum   'Zn12 Sn8 Ru8'
_cell_volume   486.30537279
_cell_formula_units_Z   4
loop_
 _symmetry_equiv_pos_site_id
 _symmetry_equiv_pos_as_xyz
  1  'x, y, z'
loop_
 _atom_site_type_symbol
 _atom_site_label
 _atom_site_symmetry_multiplicity
 _atom_site_fract_x
 _atom_site_fract_y
 _atom_site_fract_z
 _atom_site_occupancy
  Zn  Zn0  1  0.75000000  0.46517100  0.95902800  1
  Zn  Zn1  1  0.75000000  0.96517100  0.54097200  1
  Zn  Zn2  1  0.25000000  0.53482900  0.04097200  1
  Zn  Zn3  1  0.25000000  0.03482900  0.45902800  1
  Zn  Zn4  1  0.75000000  0.15747500  0.87045900  1
  Zn  Zn5  1  0.75000000  0.65747500  0.62954100  1
  Zn  Zn6  1  0.25000000  0.84252500  0.12954100  1
  Zn  Zn7  1  0.25000000  0.34252500  0.37045900  1
  Zn  Zn8  1  0.75000000  0.90977600  0.74425700  1
  Zn  Zn9  1  0.75000000  0.40977600  0.75574300  1
  Zn  Zn10  1  0.25000000  0.09022400  0.25574300  1
  Zn  Zn11  1  0.25000000  0.59022400  0.24425700  1
  Sn  Sn0  1  0.75000000  0.34630300  0.19625500  1
  Sn  Sn1  1  0.75000000  0.84630300  0.30374500  1
  Sn  Sn2  1  0.25000000  0.65369700  0.80374500  1
  Sn  Sn3  1  0.25000000  0.15369700  0.69625500  1
  Sn  Sn4  1  0.75000000  0.85108500  0.97617600  1
  Sn  Sn5  1  0.75000000  0.35108500  0.52382400  1
  Sn  Sn6  1  0.25000000  0.14891500  0.02382400  1
  Sn  Sn7  1  0.25000000  0.64891500  0.47617600  1
  Ru  Ru0  1  0.75000000  0.04249800  0.14358100  1
  Ru  Ru1  1  0.75000000  0.54249800  0.35641900  1
  Ru  Ru2  1  0.25000000  0.95750200  0.85641900  1
  Ru  Ru3  1  0.25000000  0.45750200  0.64358100  1
  Ru  Ru4  1  0.75000000  0.65034300  0.13179500  1
  Ru  Ru5  1  0.75000000  0.15034300  0.36820500  1
  Ru  Ru6  1  0.25000000  0.34965700  0.86820500  1
  Ru  Ru7  1  0.25000000  0.84965700  0.63179500  1
loop_
_geom_bond_atom_site_label_1
_geom_bond_atom_site_label_2
_geom_bond_distance
_geom_bond_site_symmetry_2
Zn0 Zn2 2.462523 1_656
Zn0 Zn2 2.462523 1_556
Zn0 Zn4 2.837588 1_555
Zn0 Zn9 2.863390 1_555
Zn1 Zn3 2.462523 1_665
Zn1 Zn3 2.462523 1_565
Zn1 Zn5 2.837588 1_555
Zn1 Zn8 2.863390 1_555
Zn2 Zn6 2.837588 1_555
Zn3 Zn7 2.837588 1_555
Zn4 Zn9 2.633968 1_555
Zn4 Zn8 2.704400 1_545
Zn5 Zn8 2.633968 1_555
Zn5 Zn9 2.704400 1_555
Zn10 Zn7 2.633968 1_555
Zn10 Zn6 2.704400 1_545
Zn10 Zn3 2.863390 1_555
Zn11 Zn6 2.633968 1_555
Zn11 Zn7 2.704400 1_555
Zn11 Zn2 2.863390 1_555
Sn0 Zn11 2.997302 1_655
Sn0 Zn11 2.997302 1_555
Sn0 Zn10 3.105172 1_555
Sn0 Zn10 3.105172 1_655
Sn0 Zn7 3.208992 1_655
Sn0 Zn7 3.208992 1_555
Sn1 Zn10 2.997302 1_565
Sn1 Zn10 2.997302 1_665
Sn1 Zn11 3.105172 1_555
Sn1 Zn11 3.105172 1_655
Sn1 Zn6 3.208992 1_555
Sn1 Zn6 3.208992 1_655
Sn2 Zn9 2.997302 1_555
Sn2 Zn9 2.997302 1_455
Sn2 Zn8 3.105172 1_455
Sn2 Zn8 3.105172 1_555
Sn2 Zn5 3.208992 1_555
Sn2 Zn5 3.208992 1_455
Sn3 Zn8 2.997302 1_445
Sn3 Zn8 2.997302 1_545
Sn3 Zn9 3.105172 1_455
Sn3 Zn9 3.105172 1_555
Sn3 Zn4 3.208992 1_455
Sn3 Zn4 3.208992 1_555
Sn4 Zn4 2.939468 1_565
Sn4 Zn6 2.997056 1_656
Sn4 Zn6 2.997056 1_556
Sn4 Zn0 3.215240 1_555
Sn5 Zn5 2.939468 1_555
Sn5 Zn7 2.997056 1_655
Sn5 Zn7 2.997056 1_555
Sn5 Zn1 3.215240 1_545
Sn6 Zn6 2.939468 1_545
Sn6 Zn4 2.997056 1_554
Sn6 Zn4 2.997056 1_454
Sn6 Zn2 3.215240 1_555
Sn7 Zn7 2.939468 1_555
Sn7 Zn5 2.997056 1_555
Sn7 Zn5 2.997056 1_455
Sn7 Zn3 3.215240 1_565
Ru0 Sn0 2.628260 1_555
Ru0 Zn10 2.649522 1_655
Ru0 Zn10 2.649522 1_555
Ru0 Zn6 2.688842 1_645
Ru0 Zn6 2.688842 1_545
Ru0 Sn1 2.759580 1_545
Ru0 Sn4 2.818824 1_544
Ru0 Sn6 2.825762 1_555
Ru0 Sn6 2.825762 1_655
Ru1 Sn1 2.628260 1_555
Ru1 Zn11 2.649522 1_555
Ru1 Zn11 2.649522 1_655
Ru1 Zn7 2.688842 1_555
Ru1 Zn7 2.688842 1_655
Ru1 Sn0 2.759580 1_555
Ru1 Sn5 2.818824 1_555
Ru1 Sn7 2.825762 1_655
Ru1 Sn7 2.825762 1_555
Ru2 Sn2 2.628260 1_555
Ru2 Zn8 2.649522 1_455
Ru2 Zn8 2.649522 1_555
Ru2 Zn4 2.688842 1_465
Ru2 Zn4 2.688842 1_565
Ru2 Sn3 2.759580 1_565
Ru2 Sn6 2.818824 1_566
Ru2 Sn4 2.825762 1_555
Ru2 Sn4 2.825762 1_455
Ru3 Sn3 2.628260 1_555
Ru3 Zn9 2.649522 1_455
Ru3 Zn9 2.649522 1_555
Ru3 Zn5 2.688842 1_555
Ru3 Zn5 2.688842 1_455
Ru3 Sn2 2.759580 1_555
Ru3 Sn7 2.818824 1_555
Ru3 Sn5 2.825762 1_555
Ru3 Sn5 2.825762 1_455
Ru4 Zn2 2.635655 1_655
Ru4 Zn2 2.635655 1_555
Ru4 Zn6 2.642317 1_555
Ru4 Zn6 2.642317 1_655
Ru4 Zn11 2.669317 1_555
Ru4 Zn11 2.669317 1_655
Ru4 Sn0 2.680381 1_555
Ru4 Sn4 2.731754 1_554
Ru4 Zn0 2.852379 1_554
Ru4 Sn1 2.892312 1_555
Ru5 Zn3 2.635655 1_655
Ru5 Zn3 2.635655 1_555
Ru5 Zn7 2.642317 1_555
Ru5 Zn7 2.642317 1_655
Ru5 Zn10 2.669317 1_555
Ru5 Zn10 2.669317 1_655
Ru5 Sn1 2.680381 1_545
Ru5 Sn5 2.731754 1_555
Ru5 Zn1 2.852379 1_545
Ru5 Sn0 2.892312 1_555
Ru6 Zn0 2.635655 1_455
Ru6 Zn0 2.635655 1_555
Ru6 Zn4 2.642317 1_455
Ru6 Zn4 2.642317 1_555
Ru6 Zn9 2.669317 1_455
Ru6 Zn9 2.669317 1_555
Ru6 Sn2 2.680381 1_555
Ru6 Sn6 2.731754 1_556
Ru6 Zn2 2.852379 1_556
Ru6 Sn3 2.892312 1_555
Ru7 Zn1 2.635655 1_555
Ru7 Zn1 2.635655 1_455
Ru7 Zn5 2.642317 1_555
Ru7 Zn5 2.642317 1_455
Ru7 Zn8 2.669317 1_555
Ru7 Zn8 2.669317 1_455
Ru7 Sn3 2.680381 1_565
Ru7 Sn7 2.731754 1_555
Ru7 Zn3 2.852379 1_565
Ru7 Sn2 2.892312 1_555
