# generated using pymatgen
data_Tb2SeOF2
_symmetry_space_group_name_H-M   'P 1'
_cell_length_a   13.36354229
_cell_length_b   13.36354230
_cell_length_c   3.73976389
_cell_angle_alpha   90.00000000
_cell_angle_beta   90.00000000
_cell_angle_gamma   120.00000072
_symmetry_Int_Tables_number   1
_chemical_formula_structural   Tb2SeOF2
_chemical_formula_sum   'Tb12 Se6 O6 F12'
_cell_volume   578.38630008
_cell_formula_units_Z   6
loop_
 _symmetry_equiv_pos_site_id
 _symmetry_equiv_pos_as_xyz
  1  'x, y, z'
loop_
 _atom_site_type_symbol
 _atom_site_label
 _atom_site_symmetry_multiplicity
 _atom_site_fract_x
 _atom_site_fract_y
 _atom_site_fract_z
 _atom_site_occupancy
  Tb  Tb0  1  0.39727155  0.88295335  0.25000000  1
  Tb  Tb1  1  0.48568179  0.60272845  0.25000000  1
  Tb  Tb2  1  0.11704665  0.51431821  0.25000000  1
  Tb  Tb3  1  0.60272845  0.11704665  0.75000000  1
  Tb  Tb4  1  0.51431821  0.39727155  0.75000000  1
  Tb  Tb5  1  0.88295335  0.48568179  0.75000000  1
  Tb  Tb6  1  0.05508360  0.76637030  0.25000000  1
  Tb  Tb7  1  0.71128671  0.94491640  0.25000000  1
  Tb  Tb8  1  0.23362970  0.28871329  0.25000000  1
  Tb  Tb9  1  0.94491640  0.23362970  0.75000000  1
  Tb  Tb10  1  0.28871329  0.05508360  0.75000000  1
  Tb  Tb11  1  0.76637030  0.71128671  0.75000000  1
  Se  Se0  1  0.71884512  0.51274301  0.25000000  1
  Se  Se1  1  0.79389688  0.28115488  0.25000000  1
  Se  Se2  1  0.48725699  0.20610312  0.25000000  1
  Se  Se3  1  0.28115488  0.48725699  0.75000000  1
  Se  Se4  1  0.20610312  0.71884512  0.75000000  1
  Se  Se5  1  0.51274301  0.79389688  0.75000000  1
  O  O0  1  0.98559623  0.57332967  0.25000000  1
  O  O1  1  0.58773344  0.01440377  0.25000000  1
  O  O2  1  0.42667033  0.41226656  0.25000000  1
  O  O3  1  0.01440377  0.42667033  0.75000000  1
  O  O4  1  0.41226656  0.98559623  0.75000000  1
  O  O5  1  0.57332967  0.58773344  0.75000000  1
  F  F0  1  0.89369171  0.79259096  0.25000000  1
  F  F1  1  0.89889925  0.10630829  0.25000000  1
  F  F2  1  0.20740904  0.10110075  0.25000000  1
  F  F3  1  0.10630829  0.20740904  0.75000000  1
  F  F4  1  0.10110075  0.89369171  0.75000000  1
  F  F5  1  0.79259096  0.89889925  0.75000000  1
  F  F6  1  0.24773806  0.93319335  0.25000000  1
  F  F7  1  0.68545529  0.75226194  0.25000000  1
  F  F8  1  0.06680665  0.31454471  0.25000000  1
  F  F9  1  0.75226194  0.06680665  0.75000000  1
  F  F10  1  0.31454471  0.24773806  0.75000000  1
  F  F11  1  0.93319335  0.68545529  0.75000000  1
loop_
_geom_bond_atom_site_label_1
_geom_bond_atom_site_label_2
_geom_bond_distance
_geom_bond_site_symmetry_2
Se0 Tb4 3.021658 1_555
Se0 Tb4 3.021658 1_554
Se0 Tb5 3.038070 1_554
Se0 Tb5 3.038070 1_555
Se0 Tb11 3.042112 1_555
Se0 Tb11 3.042112 1_554
Se1 Tb5 3.021657 1_555
Se1 Tb5 3.021657 1_554
Se1 Tb3 3.038063 1_555
Se1 Tb3 3.038063 1_554
Se1 Tb9 3.042123 1_555
Se1 Tb9 3.042123 1_554
Se2 Tb3 3.021667 1_555
Se2 Tb3 3.021667 1_554
Se2 Tb4 3.038059 1_555
Se2 Tb4 3.038059 1_554
Se2 Tb10 3.042115 1_555
Se2 Tb10 3.042115 1_554
Se3 Tb1 3.021658 1_555
Se3 Tb1 3.021658 1_556
Se3 Tb2 3.038070 1_555
Se3 Tb2 3.038070 1_556
Se3 Tb8 3.042112 1_556
Se3 Tb8 3.042112 1_555
Se4 Tb2 3.021657 1_555
Se4 Tb2 3.021657 1_556
Se4 Tb0 3.038063 1_555
Se4 Tb0 3.038063 1_556
Se4 Tb6 3.042123 1_556
Se4 Tb6 3.042123 1_555
Se5 Tb0 3.021667 1_555
Se5 Tb0 3.021667 1_556
Se5 Tb1 3.038059 1_555
Se5 Tb1 3.038059 1_556
Se5 Tb7 3.042115 1_556
Se5 Tb7 3.042115 1_555
O0 Tb2 2.256763 1_655
O0 Tb6 2.263111 1_655
O0 Tb5 2.267870 1_555
O0 Tb5 2.267870 1_554
O1 Tb0 2.256764 1_545
O1 Tb7 2.263111 1_545
O1 Tb3 2.267870 1_554
O1 Tb3 2.267870 1_555
O2 Tb1 2.256764 1_555
O2 Tb8 2.263111 1_555
O2 Tb4 2.267870 1_554
O2 Tb4 2.267870 1_555
O3 Tb5 2.256763 1_455
O3 Tb9 2.263111 1_455
O3 Tb2 2.267870 1_555
O3 Tb2 2.267870 1_556
O4 Tb3 2.256764 1_565
O4 Tb10 2.263111 1_565
O4 Tb0 2.267870 1_555
O4 Tb0 2.267870 1_556
O5 Tb4 2.256764 1_555
O5 Tb11 2.263111 1_555
O5 Tb1 2.267870 1_555
O5 Tb1 2.267870 1_556
F0 Tb6 2.351629 1_655
F0 Tb11 2.392339 1_555
F0 Tb11 2.392339 1_554
F1 Tb7 2.351629 1_545
F1 Tb9 2.392340 1_554
F1 Tb9 2.392340 1_555
F2 Tb8 2.351629 1_555
F2 Tb10 2.392339 1_555
F2 Tb10 2.392339 1_554
F3 Tb9 2.351629 1_455
F3 Tb8 2.392339 1_555
F3 Tb8 2.392339 1_556
F4 Tb10 2.351629 1_565
F4 Tb6 2.392340 1_556
F4 Tb6 2.392340 1_555
F5 Tb11 2.351629 1_555
F5 Tb7 2.392339 1_556
F5 Tb7 2.392339 1_555
F6 Tb10 2.357462 1_565
F6 Tb10 2.357462 1_564
F6 Tb0 2.405322 1_555
F6 Tb6 2.420479 1_555
F7 Tb11 2.357462 1_555
F7 Tb11 2.357462 1_554
F7 Tb1 2.405322 1_555
F7 Tb7 2.420479 1_555
F8 Tb9 2.357462 1_454
F8 Tb9 2.357462 1_455
F8 Tb2 2.405322 1_555
F8 Tb8 2.420479 1_555
F9 Tb7 2.357462 1_546
F9 Tb7 2.357462 1_545
F9 Tb3 2.405322 1_555
F9 Tb9 2.420479 1_555
F10 Tb8 2.357462 1_556
F10 Tb8 2.357462 1_555
F10 Tb4 2.405322 1_555
F10 Tb10 2.420479 1_555
F11 Tb6 2.357462 1_655
F11 Tb6 2.357462 1_656
F11 Tb5 2.405322 1_555
F11 Tb11 2.420479 1_555
