# generated using pymatgen
data_PrVSb3
_symmetry_space_group_name_H-M   'P 1'
_cell_length_a   9.40205000
_cell_length_b   8.99198600
_cell_length_c   7.68999500
_cell_angle_alpha   90.00000000
_cell_angle_beta   90.00000000
_cell_angle_gamma   90.00000000
_symmetry_Int_Tables_number   1
_chemical_formula_structural   PrVSb3
_chemical_formula_sum   'Pr4 V4 Sb12'
_cell_volume   650.13603144
_cell_formula_units_Z   4
loop_
 _symmetry_equiv_pos_site_id
 _symmetry_equiv_pos_as_xyz
  1  'x, y, z'
loop_
 _atom_site_type_symbol
 _atom_site_label
 _atom_site_symmetry_multiplicity
 _atom_site_fract_x
 _atom_site_fract_y
 _atom_site_fract_z
 _atom_site_occupancy
  Pr  Pr0  1  0.25000000  0.25336900  0.19321200  1
  Pr  Pr1  1  0.25000000  0.75336900  0.80678800  1
  Pr  Pr2  1  0.75000000  0.74663100  0.80678800  1
  Pr  Pr3  1  0.75000000  0.24663100  0.19321200  1
  V  V0  1  0.00000000  0.75000000  0.18035700  1
  V  V1  1  0.00000000  0.25000000  0.81964300  1
  V  V2  1  0.50000000  0.25000000  0.81964300  1
  V  V3  1  0.50000000  0.75000000  0.18035700  1
  Sb  Sb0  1  0.50000000  0.75000000  0.52815000  1
  Sb  Sb1  1  0.75000000  0.45599600  0.55547100  1
  Sb  Sb2  1  0.75000000  0.60243700  0.17976700  1
  Sb  Sb3  1  0.00000000  0.75000000  0.52815000  1
  Sb  Sb4  1  0.00000000  0.25000000  0.47185000  1
  Sb  Sb5  1  0.25000000  0.39756300  0.82023300  1
  Sb  Sb6  1  0.25000000  0.54400400  0.44452900  1
  Sb  Sb7  1  0.25000000  0.89756300  0.17976700  1
  Sb  Sb8  1  0.25000000  0.04400400  0.55547100  1
  Sb  Sb9  1  0.50000000  0.25000000  0.47185000  1
  Sb  Sb10  1  0.75000000  0.95599600  0.44452900  1
  Sb  Sb11  1  0.75000000  0.10243700  0.82023300  1
loop_
_geom_bond_atom_site_label_1
_geom_bond_atom_site_label_2
_geom_bond_distance
_geom_bond_site_symmetry_2
Pr0 Sb5 3.147659 1_554
Pr0 Sb4 3.180738 1_555
Pr0 Sb9 3.180738 1_555
Pr0 Sb7 3.201073 1_545
Pr0 Sb6 3.250359 1_555
Pr0 Sb8 3.362250 1_555
Pr0 V2 3.711938 1_554
Pr0 V1 3.711938 1_554
Pr1 Sb7 3.147659 1_556
Pr1 Sb0 3.180738 1_555
Pr1 Sb3 3.180738 1_555
Pr1 Sb5 3.201073 1_555
Pr1 Sb8 3.250359 1_565
Pr1 Sb6 3.362250 1_555
Pr1 V3 3.711938 1_556
Pr1 V0 3.711938 1_556
Pr2 Sb2 3.147659 1_556
Pr2 Sb3 3.180738 1_655
Pr2 Sb0 3.180738 1_555
Pr2 Sb11 3.201073 1_565
Pr2 Sb1 3.250359 1_555
Pr2 Sb10 3.362250 1_555
Pr2 V3 3.711938 1_556
Pr2 V0 3.711938 1_656
Pr3 Sb11 3.147659 1_554
Pr3 Sb4 3.180738 1_655
Pr3 Sb9 3.180738 1_555
Pr3 Sb2 3.201073 1_555
Pr3 Sb10 3.250359 1_545
Pr3 Sb1 3.362250 1_555
Pr3 V2 3.711938 1_554
Pr3 V1 3.711938 1_654
Sb0 V3 2.674526 1_555
Sb2 V0 2.699176 1_655
Sb2 V3 2.699176 1_555
Sb3 V0 2.674526 1_555
Sb4 V1 2.674526 1_555
Sb5 V1 2.699176 1_555
Sb5 V2 2.699176 1_555
Sb7 V3 2.699176 1_555
Sb7 V0 2.699176 1_555
Sb9 V2 2.674526 1_555
Sb11 V1 2.699176 1_655
Sb11 V2 2.699176 1_555
