# generated using pymatgen
data_Al4Ni15Ge
_symmetry_space_group_name_H-M   'P 1'
_cell_length_a   3.56108200
_cell_length_b   3.56108200
_cell_length_c   17.80356400
_cell_angle_alpha   90.00000000
_cell_angle_beta   90.00000000
_cell_angle_gamma   90.00000000
_symmetry_Int_Tables_number   1
_chemical_formula_structural   Al4Ni15Ge
_chemical_formula_sum   'Al4 Ni15 Ge1'
_cell_volume   225.77242536
_cell_formula_units_Z   1
loop_
 _symmetry_equiv_pos_site_id
 _symmetry_equiv_pos_as_xyz
  1  'x, y, z'
loop_
 _atom_site_type_symbol
 _atom_site_label
 _atom_site_symmetry_multiplicity
 _atom_site_fract_x
 _atom_site_fract_y
 _atom_site_fract_z
 _atom_site_occupancy
  Al  Al0  1  0.00000000  0.00000000  0.20018300  1
  Al  Al1  1  0.00000000  0.00000000  0.39983200  1
  Al  Al2  1  0.00000000  0.00000000  0.60016800  1
  Al  Al3  1  0.00000000  0.00000000  0.79981700  1
  Ni  Ni0  1  0.50000000  0.50000000  0.00000000  1
  Ni  Ni1  1  0.50000000  0.50000000  0.19987200  1
  Ni  Ni2  1  0.50000000  0.50000000  0.39995400  1
  Ni  Ni3  1  0.50000000  0.50000000  0.60004600  1
  Ni  Ni4  1  0.50000000  0.50000000  0.80012800  1
  Ni  Ni5  1  0.50000000  0.00000000  0.10011900  1
  Ni  Ni6  1  0.50000000  0.00000000  0.30008000  1
  Ni  Ni7  1  0.50000000  0.00000000  0.50000000  1
  Ni  Ni8  1  0.50000000  0.00000000  0.69992000  1
  Ni  Ni9  1  0.50000000  0.00000000  0.89988100  1
  Ni  Ni10  1  0.00000000  0.50000000  0.10011900  1
  Ni  Ni11  1  0.00000000  0.50000000  0.30008000  1
  Ni  Ni12  1  0.00000000  0.50000000  0.50000000  1
  Ni  Ni13  1  0.00000000  0.50000000  0.69992000  1
  Ni  Ni14  1  0.00000000  0.50000000  0.89988100  1
  Ge  Ge0  1  0.00000000  0.00000000  0.00000000  1
loop_
_geom_bond_atom_site_label_1
_geom_bond_atom_site_label_2
_geom_bond_distance
_geom_bond_site_symmetry_2
Al0 Ni6 2.516638 1_555
Al0 Ni6 2.516638 1_455
Al0 Ni11 2.516638 1_555
Al0 Ni11 2.516638 1_545
Al0 Ni1 2.518071 1_545
Al0 Ni1 2.518071 1_455
Al0 Ni1 2.518071 1_445
Al0 Ni1 2.518071 1_555
Al0 Ni10 2.518740 1_555
Al0 Ni10 2.518740 1_545
Al0 Ni5 2.518740 1_455
Al0 Ni5 2.518740 1_555
Al1 Ni11 2.514815 1_545
Al1 Ni6 2.514815 1_555
Al1 Ni6 2.514815 1_455
Al1 Ni11 2.514815 1_555
Al1 Ni2 2.518066 1_455
Al1 Ni2 2.518066 1_555
Al1 Ni2 2.518066 1_545
Al1 Ni2 2.518066 1_445
Al1 Ni12 2.520050 1_555
Al1 Ni12 2.520050 1_545
Al1 Ni7 2.520050 1_455
Al1 Ni7 2.520050 1_555
Al2 Ni13 2.514815 1_555
Al2 Ni13 2.514815 1_545
Al2 Ni8 2.514815 1_455
Al2 Ni8 2.514815 1_555
Al2 Ni3 2.518066 1_455
Al2 Ni3 2.518066 1_555
Al2 Ni3 2.518066 1_445
Al2 Ni3 2.518066 1_545
Al2 Ni12 2.520050 1_545
Al2 Ni7 2.520050 1_455
Al2 Ni7 2.520050 1_555
Al2 Ni12 2.520050 1_555
Al3 Ni13 2.516638 1_555
Al3 Ni13 2.516638 1_545
Al3 Ni8 2.516638 1_555
Al3 Ni8 2.516638 1_455
Al3 Ni4 2.518071 1_445
Al3 Ni4 2.518071 1_555
Al3 Ni4 2.518071 1_455
Al3 Ni4 2.518071 1_545
Al3 Ni9 2.518740 1_455
Al3 Ni14 2.518740 1_545
Al3 Ni14 2.518740 1_555
Al3 Ni9 2.518740 1_555
Ni0 Ni10 2.519433 1_655
Ni0 Ni10 2.519433 1_555
Ni0 Ni5 2.519433 1_565
Ni0 Ni5 2.519433 1_555
Ni0 Ni14 2.519433 1_554
Ni0 Ni9 2.519433 1_554
Ni0 Ni9 2.519433 1_564
Ni0 Ni14 2.519433 1_654
Ni1 Ni5 2.514827 1_565
Ni1 Ni5 2.514827 1_555
Ni1 Ni10 2.514827 1_655
Ni1 Ni10 2.514827 1_555
Ni1 Ni11 2.520554 1_655
Ni1 Ni11 2.520554 1_555
Ni1 Ni6 2.520554 1_565
Ni1 Ni6 2.520554 1_555
Ni2 Ni6 2.516349 1_555
Ni2 Ni6 2.516349 1_565
Ni2 Ni7 2.518514 1_555
Ni2 Ni7 2.518514 1_565
Ni3 Ni8 2.516349 1_555
Ni3 Ni8 2.516349 1_565
Ni3 Ni7 2.518514 1_565
Ni3 Ni7 2.518514 1_555
Ni4 Ni9 2.514827 1_565
Ni4 Ni9 2.514827 1_555
Ni4 Ni8 2.520554 1_555
Ni4 Ni8 2.520554 1_565
Ni10 Ni5 2.518065 1_555
Ni10 Ni5 2.518065 1_465
Ni10 Ni5 2.518065 1_565
Ni10 Ni5 2.518065 1_455
Ni11 Ni2 2.516349 1_455
Ni11 Ni2 2.516349 1_555
Ni11 Ni6 2.518065 1_565
Ni11 Ni6 2.518065 1_555
Ni11 Ni6 2.518065 1_465
Ni11 Ni6 2.518065 1_455
Ni12 Ni7 2.518065 1_565
Ni12 Ni7 2.518065 1_465
Ni12 Ni7 2.518065 1_555
Ni12 Ni7 2.518065 1_455
Ni12 Ni3 2.518514 1_455
Ni12 Ni3 2.518514 1_555
Ni12 Ni2 2.518514 1_455
Ni12 Ni2 2.518514 1_555
Ni13 Ni3 2.516349 1_555
Ni13 Ni3 2.516349 1_455
Ni13 Ni8 2.518065 1_555
Ni13 Ni8 2.518065 1_565
Ni13 Ni8 2.518065 1_465
Ni13 Ni8 2.518065 1_455
Ni13 Ni4 2.520554 1_455
Ni13 Ni4 2.520554 1_555
Ni14 Ni4 2.514827 1_455
Ni14 Ni4 2.514827 1_555
Ni14 Ni9 2.518065 1_455
Ni14 Ni9 2.518065 1_565
Ni14 Ni9 2.518065 1_555
Ni14 Ni9 2.518065 1_465
Ge0 Ni0 2.518065 1_455
Ge0 Ni0 2.518065 1_555
Ge0 Ni0 2.518065 1_545
Ge0 Ni0 2.518065 1_445
Ge0 Ni10 2.519433 1_545
Ge0 Ni10 2.519433 1_555
Ge0 Ni5 2.519433 1_455
Ge0 Ni5 2.519433 1_555
Ge0 Ni14 2.519433 1_554
Ge0 Ni14 2.519433 1_544
Ge0 Ni9 2.519433 1_554
Ge0 Ni9 2.519433 1_454
