# generated using pymatgen
data_KH6Rh(N3O4)2
_symmetry_space_group_name_H-M   'P 1'
_cell_length_a   7.03813600
_cell_length_b   12.06786200
_cell_length_c   13.56152700
_cell_angle_alpha   90.00000000
_cell_angle_beta   90.00000000
_cell_angle_gamma   90.00000000
_symmetry_Int_Tables_number   1
_chemical_formula_structural   KH6Rh(N3O4)2
_chemical_formula_sum   'K4 H24 Rh4 N24 O32'
_cell_volume   1151.85174017
_cell_formula_units_Z   4
loop_
 _symmetry_equiv_pos_site_id
 _symmetry_equiv_pos_as_xyz
  1  'x, y, z'
loop_
 _atom_site_type_symbol
 _atom_site_label
 _atom_site_symmetry_multiplicity
 _atom_site_fract_x
 _atom_site_fract_y
 _atom_site_fract_z
 _atom_site_occupancy
  K  K0  1  0.69029300  0.63627500  0.02154700  1
  K  K1  1  0.80970700  0.36372500  0.52154700  1
  K  K2  1  0.19029300  0.86372500  0.97845300  1
  K  K3  1  0.30970700  0.13627500  0.47845300  1
  H  H0  1  0.09112000  0.39199600  0.27932000  1
  H  H1  1  0.40888000  0.60800400  0.77932000  1
  H  H2  1  0.59112100  0.10800400  0.72068000  1
  H  H3  1  0.90887900  0.89199600  0.22068000  1
  H  H4  1  0.11390100  0.45641600  0.17129200  1
  H  H5  1  0.38609900  0.54358400  0.67129200  1
  H  H6  1  0.61390100  0.04358400  0.82870800  1
  H  H7  1  0.88609900  0.95641600  0.32870800  1
  H  H8  1  0.93764500  0.49188300  0.24817000  1
  H  H9  1  0.56235500  0.50811700  0.74817000  1
  H  H10  1  0.43764500  0.00811700  0.75183000  1
  H  H11  1  0.06235500  0.99188300  0.25183000  1
  H  H12  1  0.38319300  0.77613800  0.36945900  1
  H  H13  1  0.11680700  0.22386200  0.86945900  1
  H  H14  1  0.88319300  0.72386200  0.63054100  1
  H  H15  1  0.61680700  0.27613800  0.13054100  1
  H  H16  1  0.56550300  0.69154700  0.34262700  1
  H  H17  1  0.93449700  0.30845300  0.84262700  1
  H  H18  1  0.06550300  0.80845300  0.65737300  1
  H  H19  1  0.43449700  0.19154700  0.15737300  1
  H  H20  1  0.45193400  0.67900900  0.44973300  1
  H  H21  1  0.04806600  0.32099100  0.94973300  1
  H  H22  1  0.95193400  0.82099100  0.55026700  1
  H  H23  1  0.54806600  0.17900900  0.05026700  1
  Rh  Rh0  1  0.25679600  0.58214700  0.30991700  1
  Rh  Rh1  1  0.24320400  0.41785300  0.80991700  1
  Rh  Rh2  1  0.75679600  0.91785300  0.69008300  1
  Rh  Rh3  1  0.74320400  0.08214700  0.19008300  1
  N  N0  1  0.20649900  0.69141500  0.19548700  1
  N  N1  1  0.29350100  0.30858500  0.69548700  1
  N  N2  1  0.70649900  0.80858500  0.80451300  1
  N  N3  1  0.79350100  0.19141500  0.30451300  1
  N  N4  1  0.31783600  0.47029000  0.42207400  1
  N  N5  1  0.18216400  0.52971000  0.92207400  1
  N  N6  1  0.81783600  0.02971000  0.57792600  1
  N  N7  1  0.68216400  0.97029000  0.07792600  1
  N  N8  1  0.03019700  0.64416000  0.38776000  1
  N  N9  1  0.46980300  0.35584000  0.88776000  1
  N  N10  1  0.53019700  0.85584000  0.61224000  1
  N  N11  1  0.96980300  0.14416000  0.11224000  1
  N  N12  1  0.48362300  0.52323700  0.22705100  1
  N  N13  1  0.01637700  0.47676300  0.72705100  1
  N  N14  1  0.98362300  0.97676300  0.77294900  1
  N  N15  1  0.51637700  0.02323700  0.27294900  1
  N  N16  1  0.07655700  0.46649300  0.24368000  1
  N  N17  1  0.42344300  0.53350700  0.74368000  1
  N  N18  1  0.57655700  0.03350700  0.75632000  1
  N  N19  1  0.92344300  0.96649300  0.25632000  1
  N  N20  1  0.43529400  0.69738600  0.37635000  1
  N  N21  1  0.06470600  0.30261400  0.87635000  1
  N  N22  1  0.93529400  0.80261400  0.62365000  1
  N  N23  1  0.56470600  0.19738600  0.12365000  1
  O  O0  1  0.91352000  0.57978000  0.42721400  1
  O  O1  1  0.58648000  0.42022000  0.92721400  1
  O  O2  1  0.41352000  0.92022000  0.57278600  1
  O  O3  1  0.08648000  0.07978000  0.07278600  1
  O  O4  1  0.01156800  0.74702800  0.39407800  1
  O  O5  1  0.48843200  0.25297200  0.89407800  1
  O  O6  1  0.51156800  0.75297200  0.60592200  1
  O  O7  1  0.98843200  0.24702800  0.10592200  1
  O  O8  1  0.22123200  0.38345600  0.43120400  1
  O  O9  1  0.27876800  0.61654400  0.93120400  1
  O  O10  1  0.72123200  0.11654400  0.56879600  1
  O  O11  1  0.77876800  0.88345600  0.06879600  1
  O  O12  1  0.04247500  0.70309900  0.16129300  1
  O  O13  1  0.45752500  0.29690100  0.66129300  1
  O  O14  1  0.54247500  0.79690100  0.83870700  1
  O  O15  1  0.95752500  0.20309900  0.33870700  1
  O  O16  1  0.45430700  0.45212500  0.16175300  1
  O  O17  1  0.04569300  0.54787500  0.66175300  1
  O  O18  1  0.95430700  0.04787500  0.83824700  1
  O  O19  1  0.54569300  0.95212500  0.33824700  1
  O  O20  1  0.45545400  0.48872300  0.47822300  1
  O  O21  1  0.04454600  0.51127700  0.97822300  1
  O  O22  1  0.95545400  0.01127700  0.52177700  1
  O  O23  1  0.54454600  0.98872300  0.02177700  1
  O  O24  1  0.34299200  0.74513400  0.15957700  1
  O  O25  1  0.15700800  0.25486600  0.65957700  1
  O  O26  1  0.84299200  0.75486600  0.84042300  1
  O  O27  1  0.65700800  0.24513400  0.34042300  1
  O  O28  1  0.64666600  0.56417200  0.23778700  1
  O  O29  1  0.85333400  0.43582800  0.73778700  1
  O  O30  1  0.14666600  0.93582800  0.76221300  1
  O  O31  1  0.35333400  0.06417200  0.26221300  1
loop_
_geom_bond_atom_site_label_1
_geom_bond_atom_site_label_2
_geom_bond_distance
_geom_bond_site_symmetry_2
K0 O21 2.972726 1_654
K0 O1 2.994759 1_554
K0 O26 3.039190 1_554
K0 O28 3.074284 1_555
K0 O11 3.113889 1_555
K0 O9 3.153845 1_554
K0 O12 3.222726 1_655
K0 O14 3.314840 1_554
K0 O24 3.347335 1_555
K0 O16 3.363413 1_555
K1 O20 2.972726 1_555
K1 O0 2.994759 1_555
K1 O27 3.039190 1_555
K1 O29 3.074284 1_555
K1 O10 3.113889 1_555
K1 O8 3.153845 1_655
K1 O13 3.222726 1_555
K1 O15 3.314840 1_555
K1 O25 3.347335 1_655
K1 O17 3.363413 1_655
K2 O23 2.972726 1_556
K2 O3 2.994759 1_566
K2 O24 3.039190 1_556
K2 O30 3.074284 1_555
K2 O9 3.113889 1_555
K2 O11 3.153845 1_456
K2 O14 3.222726 1_555
K2 O12 3.314840 1_556
K2 O26 3.347335 1_455
K2 O18 3.363413 1_465
K3 O22 2.972726 1_455
K3 O2 2.994759 1_545
K3 O25 3.039190 1_555
K3 O31 3.074284 1_555
K3 O8 3.113889 1_555
K3 O10 3.153845 1_555
K3 O15 3.222726 1_455
K3 O13 3.314840 1_555
K3 O27 3.347335 1_555
K3 O19 3.363413 1_545
H0 N16 1.025842 1_555
H1 N17 1.025842 1_555
H2 N18 1.025843 1_555
H3 N19 1.025843 1_555
H4 N16 1.023517 1_555
H5 N17 1.023517 1_555
H6 N18 1.023517 1_555
H7 N19 1.023517 1_555
H8 N16 1.026378 1_655
H9 N17 1.026378 1_555
H10 N18 1.026378 1_555
H11 N19 1.026378 1_455
H12 N20 1.022936 1_555
H13 N21 1.022936 1_555
H14 N22 1.022936 1_555
H15 N23 1.022936 1_555
H16 N20 1.026627 1_555
H17 N21 1.026627 1_655
H18 N22 1.026627 1_455
H19 N23 1.026627 1_555
H20 N20 1.026300 1_555
H21 N21 1.026300 1_555
H22 N22 1.026300 1_555
H23 N23 1.026300 1_555
N0 O12 1.252044 1_555
N0 O24 1.257093 1_555
N0 Rh0 2.066961 1_555
N1 O13 1.252044 1_555
N1 O25 1.257093 1_555
N1 Rh1 2.066961 1_555
N2 O14 1.252044 1_555
N2 O26 1.257093 1_555
N2 Rh2 2.066961 1_555
N3 O15 1.252044 1_555
N3 O27 1.257093 1_555
N3 Rh3 2.066961 1_555
N4 O20 1.251978 1_555
N4 O8 1.255272 1_555
N4 Rh0 2.078516 1_555
N5 O21 1.251978 1_555
N5 O9 1.255272 1_555
N5 Rh1 2.078516 1_555
N6 O22 1.251978 1_555
N6 O10 1.255272 1_555
N6 Rh2 2.078516 1_545
N7 O23 1.251978 1_555
N7 O11 1.255272 1_555
N7 Rh3 2.078516 1_565
N8 O0 1.250702 1_455
N8 O4 1.251239 1_555
N8 Rh0 2.053773 1_555
N9 O1 1.250702 1_555
N9 O5 1.251239 1_555
N9 Rh1 2.053773 1_555
N10 O2 1.250702 1_555
N10 O6 1.251239 1_555
N10 Rh2 2.053773 1_555
N11 O3 1.250702 1_655
N11 O7 1.251239 1_555
N11 Rh3 2.053773 1_555
N12 O16 1.250284 1_555
N12 O28 1.257788 1_555
N12 Rh0 2.077721 1_555
N13 O17 1.250284 1_555
N13 O29 1.257788 1_455
N13 Rh1 2.077721 1_555
N14 O18 1.250284 1_565
N14 O30 1.257788 1_655
N14 Rh2 2.077721 1_555
N15 O19 1.250284 1_545
N15 O31 1.257788 1_555
N15 Rh3 2.077721 1_555
N16 Rh0 2.089037 1_555
N17 Rh1 2.089037 1_555
N18 Rh2 2.089037 1_545
N19 Rh3 2.089037 1_565
N20 Rh0 2.079415 1_555
N21 Rh1 2.079415 1_555
N22 Rh2 2.079415 1_555
N23 Rh3 2.079415 1_555
