# generated using pymatgen
data_Nd5Mg41
_symmetry_space_group_name_H-M   'P 1'
_cell_length_a   11.63095422
_cell_length_b   11.63095422
_cell_length_c   11.63095422
_cell_angle_alpha   101.65052579
_cell_angle_beta   101.65052579
_cell_angle_gamma   126.59227684
_symmetry_Int_Tables_number   1
_chemical_formula_structural   Nd5Mg41
_chemical_formula_sum   'Nd5 Mg41'
_cell_volume   1128.55737430
_cell_formula_units_Z   1
loop_
 _symmetry_equiv_pos_site_id
 _symmetry_equiv_pos_as_xyz
  1  'x, y, z'
loop_
 _atom_site_type_symbol
 _atom_site_label
 _atom_site_symmetry_multiplicity
 _atom_site_fract_x
 _atom_site_fract_y
 _atom_site_fract_z
 _atom_site_occupancy
  Nd  Nd0  1  0.00000000  0.00000000  0.00000000  1
  Nd  Nd1  1  0.76384500  0.57072400  0.33456800  1
  Nd  Nd2  1  0.23615500  0.42927600  0.66543200  1
  Nd  Nd3  1  0.42927600  0.76384500  0.19312100  1
  Nd  Nd4  1  0.57072400  0.23615500  0.80687900  1
  Mg  Mg0  1  0.50000000  0.50000000  0.00000000  1
  Mg  Mg1  1  0.00000000  0.00000000  0.50000000  1
  Mg  Mg2  1  0.50000000  0.50000000  0.50000000  1
  Mg  Mg3  1  0.50000000  0.00000000  0.00000000  1
  Mg  Mg4  1  0.00000000  0.50000000  0.00000000  1
  Mg  Mg5  1  0.00943700  0.59745700  0.60689400  1
  Mg  Mg6  1  0.99056300  0.40254300  0.39310600  1
  Mg  Mg7  1  0.40254300  0.00943700  0.41198000  1
  Mg  Mg8  1  0.59745700  0.99056300  0.58802000  1
  Mg  Mg9  1  0.87792100  0.77849400  0.65641500  1
  Mg  Mg10  1  0.12207900  0.22150600  0.34358500  1
  Mg  Mg11  1  0.22150600  0.87792100  0.09942700  1
  Mg  Mg12  1  0.77849400  0.12207900  0.90057300  1
  Mg  Mg13  1  0.65892500  0.78261600  0.44154000  1
  Mg  Mg14  1  0.34107500  0.21738400  0.55846000  1
  Mg  Mg15  1  0.21738400  0.65892500  0.87630900  1
  Mg  Mg16  1  0.78261600  0.34107500  0.12369100  1
  Mg  Mg17  1  0.92047600  0.08609200  0.71255600  1
  Mg  Mg18  1  0.37353600  0.20791900  0.28744400  1
  Mg  Mg19  1  0.20791900  0.92047600  0.83438300  1
  Mg  Mg20  1  0.08609200  0.37353600  0.16561700  1
  Mg  Mg21  1  0.07952400  0.91390800  0.28744400  1
  Mg  Mg22  1  0.62646400  0.79208100  0.71255600  1
  Mg  Mg23  1  0.79208100  0.07952400  0.16561700  1
  Mg  Mg24  1  0.91390800  0.62646400  0.83438300  1
  Mg  Mg25  1  0.76670900  0.82597600  0.21273000  1
  Mg  Mg26  1  0.61324600  0.55398000  0.78727000  1
  Mg  Mg27  1  0.55398000  0.76670900  0.94073300  1
  Mg  Mg28  1  0.82597600  0.61324600  0.05926700  1
  Mg  Mg29  1  0.23329100  0.17402400  0.78727000  1
  Mg  Mg30  1  0.38675400  0.44602000  0.21273000  1
  Mg  Mg31  1  0.44602000  0.23329100  0.05926700  1
  Mg  Mg32  1  0.17402400  0.38675400  0.94073300  1
  Mg  Mg33  1  0.18192300  0.89161900  0.55663600  1
  Mg  Mg34  1  0.33498200  0.62528700  0.44336400  1
  Mg  Mg35  1  0.62528700  0.18192300  0.29030500  1
  Mg  Mg36  1  0.89161900  0.33498200  0.70969500  1
  Mg  Mg37  1  0.81807700  0.10838100  0.44336400  1
  Mg  Mg38  1  0.66501800  0.37471300  0.55663600  1
  Mg  Mg39  1  0.37471300  0.81807700  0.70969500  1
  Mg  Mg40  1  0.10838100  0.66501800  0.29030500  1
loop_
_geom_bond_atom_site_label_1
_geom_bond_atom_site_label_2
_geom_bond_distance
_geom_bond_site_symmetry_2
Mg0 Mg27 3.034585 1_554
Mg0 Mg31 3.034585 1_555
Mg0 Mg32 3.034589 1_554
Mg0 Mg29 3.034589 1_554
Mg0 Mg28 3.034589 1_555
Mg0 Mg25 3.034589 1_555
Mg0 Mg26 3.034590 1_554
Mg0 Mg30 3.034590 1_555
Mg1 Mg13 2.974945 1_445
Mg1 Mg14 2.974945 1_555
Mg1 Mg21 2.999672 1_545
Mg1 Mg17 2.999672 1_455
Mg1 Mg37 3.074514 1_455
Mg1 Mg33 3.074514 1_545
Mg1 Mg29 3.111631 1_555
Mg1 Mg25 3.111631 1_445
Mg1 Mg9 3.246262 1_445
Mg1 Mg10 3.246262 1_555
Mg1 Nd2 3.716275 1_555
Mg1 Nd1 3.716275 1_445
Mg2 Mg22 2.999680 1_555
Mg2 Mg38 3.074525 1_555
Mg2 Mg34 3.074525 1_555
Mg2 Mg26 3.111628 1_555
Mg2 Mg30 3.111628 1_555
Mg2 Mg9 3.246262 1_555
Mg2 Nd2 3.716283 1_555
Mg2 Nd1 3.716283 1_555
Mg3 Mg35 3.074525 1_555
Mg3 Mg39 3.074525 1_544
Mg3 Mg31 3.111640 1_555
Mg3 Nd4 3.716274 1_554
Mg3 Nd3 3.716274 1_545
Mg4 Mg40 3.074527 1_555
Mg4 Nd3 3.716274 1_555
Mg4 Nd4 3.716274 1_454
Mg5 Mg6 2.877513 1_455
Mg5 Mg9 3.288063 1_455
Mg5 Nd1 3.630117 1_455
Mg6 Nd2 3.630117 1_655
Mg7 Mg8 2.877513 1_545
Mg7 Nd3 3.630109 1_545
Mg8 Nd4 3.630109 1_565
Mg9 Nd1 3.482943 1_555
Mg9 Nd0 3.716462 1_666
Mg10 Mg23 3.097950 1_455
Mg10 Mg20 3.097954 1_555
Mg10 Mg21 3.207142 1_545
Mg10 Mg18 3.207148 1_555
Mg10 Mg14 3.218561 1_555
Mg10 Mg2 3.246262 1_555
Mg10 Mg6 3.288063 1_455
Mg10 Nd2 3.482943 1_555
Mg10 Mg37 3.508213 1_455
Mg10 Mg34 3.508214 1_555
Mg10 Mg30 3.539133 1_555
Mg10 Mg25 3.539136 1_445
Mg10 Nd0 3.716462 1_555
Mg11 Mg18 3.097954 1_565
Mg11 Mg21 3.097963 1_555
Mg11 Mg24 3.207148 1_454
Mg11 Mg19 3.207153 1_554
Mg11 Mg15 3.218554 1_554
Mg11 Mg4 3.246262 1_555
Mg11 Mg3 3.246262 1_565
Mg11 Mg7 3.288063 1_565
Mg11 Nd3 3.482933 1_555
Mg11 Mg35 3.508214 1_565
Mg11 Mg40 3.508215 1_555
Mg11 Mg31 3.539135 1_565
Mg11 Mg28 3.539136 1_455
Mg11 Nd0 3.716462 1_565
Mg12 Mg22 3.097954 1_545
Mg12 Mg17 3.097963 1_555
Mg12 Mg20 3.207148 1_656
Mg12 Mg23 3.207153 1_556
Mg12 Mg16 3.218554 1_556
Mg12 Mg4 3.246262 1_656
Mg12 Mg3 3.246262 1_556
Mg12 Mg8 3.288063 1_545
Mg12 Nd4 3.482933 1_555
Mg12 Mg39 3.508214 1_545
Mg12 Mg36 3.508215 1_555
Mg12 Mg27 3.539135 1_545
Mg12 Mg32 3.539136 1_655
Mg12 Nd0 3.716462 1_656
Mg13 Mg2 2.974954 1_555
Mg13 Mg37 3.061518 1_565
Mg13 Mg34 3.061537 1_555
Mg13 Mg25 3.169241 1_555
Mg13 Mg30 3.169253 1_555
Mg13 Mg8 3.186331 1_555
Mg13 Mg9 3.218561 1_555
Mg13 Mg17 3.237424 1_565
Mg13 Mg22 3.237428 1_555
Mg13 Nd3 3.385768 1_555
Mg13 Nd1 3.474390 1_555
Mg14 Mg2 2.974954 1_555
Mg14 Mg33 3.061518 1_545
Mg14 Mg38 3.061537 1_555
Mg14 Mg29 3.169241 1_555
Mg14 Mg26 3.169253 1_555
Mg14 Mg7 3.186331 1_555
Mg14 Mg21 3.237424 1_545
Mg14 Mg18 3.237428 1_555
Mg14 Nd4 3.385768 1_555
Mg14 Nd2 3.474390 1_555
Mg15 Mg4 2.974947 1_556
Mg15 Mg3 2.974947 1_566
Mg15 Mg36 3.061528 1_455
Mg15 Mg39 3.061532 1_555
Mg15 Mg32 3.169253 1_555
Mg15 Mg27 3.169264 1_555
Mg15 Mg5 3.186326 1_555
Mg15 Mg24 3.237416 1_455
Mg15 Mg19 3.237428 1_555
Mg15 Nd2 3.385769 1_555
Mg15 Nd3 3.474390 1_556
Mg16 Mg4 2.974947 1_655
Mg16 Mg3 2.974947 1_555
Mg16 Mg40 3.061528 1_655
Mg16 Mg35 3.061532 1_555
Mg16 Mg28 3.169253 1_555
Mg16 Mg31 3.169264 1_555
Mg16 Mg6 3.186326 1_555
Mg16 Mg20 3.237416 1_655
Mg16 Mg23 3.237428 1_555
Mg16 Nd1 3.385769 1_555
Mg16 Nd4 3.474390 1_554
Mg17 Mg32 2.960485 1_655
Mg17 Mg29 2.994389 1_655
Mg17 Mg22 3.073425 1_545
Mg17 Mg8 3.102100 1_545
Mg17 Mg36 3.112324 1_555
Mg17 Mg9 3.207142 1_545
Mg17 Mg37 3.237045 1_555
Mg17 Nd2 3.733288 1_655
Mg17 Nd0 3.773970 1_656
Mg18 Mg31 2.960482 1_555
Mg18 Mg30 2.994389 1_555
Mg18 Mg2 2.999680 1_555
Mg18 Mg21 3.073425 1_545
Mg18 Mg7 3.102089 1_555
Mg18 Mg35 3.112324 1_555
Mg18 Mg38 3.237048 1_555
Mg18 Nd1 3.733302 1_555
Mg18 Nd0 3.773973 1_555
Mg19 Mg29 2.960475 1_565
Mg19 Mg31 2.994394 1_566
Mg19 Mg3 2.999686 1_566
Mg19 Mg24 3.073425 1_455
Mg19 Mg9 3.097950 1_455
Mg19 Mg5 3.102096 1_555
Mg19 Mg33 3.112324 1_555
Mg19 Mg39 3.237055 1_555
Mg19 Nd4 3.733295 1_565
Mg19 Nd0 3.773967 1_566
Mg20 Mg30 2.960492 1_555
Mg20 Mg32 2.994400 1_554
Mg20 Mg4 2.999680 1_555
Mg20 Mg23 3.073425 1_455
Mg20 Mg6 3.102089 1_455
Mg20 Mg34 3.112324 1_555
Mg20 Mg40 3.237055 1_555
Mg20 Nd3 3.733298 1_555
Mg20 Nd0 3.773973 1_555
Mg21 Mg28 2.960485 1_455
Mg21 Mg25 2.994389 1_455
Mg21 Mg7 3.102100 1_565
Mg21 Mg40 3.112324 1_555
Mg21 Mg33 3.237045 1_555
Mg21 Nd1 3.733288 1_455
Mg21 Nd0 3.773970 1_565
Mg22 Mg27 2.960482 1_555
Mg22 Mg26 2.994389 1_555
Mg22 Mg8 3.102089 1_555
Mg22 Mg39 3.112324 1_555
Mg22 Mg9 3.207148 1_555
Mg22 Mg34 3.237048 1_555
Mg22 Nd2 3.733302 1_555
Mg22 Nd0 3.773973 1_666
Mg23 Mg25 2.960475 1_545
Mg23 Mg27 2.994394 1_544
Mg23 Mg3 2.999686 1_555
Mg23 Mg6 3.102096 1_555
Mg23 Mg37 3.112324 1_555
Mg23 Mg35 3.237055 1_555
Mg23 Nd3 3.733295 1_545
Mg23 Nd0 3.773967 1_655
Mg24 Mg26 2.960492 1_555
Mg24 Mg28 2.994400 1_556
Mg24 Mg4 2.999680 1_656
Mg24 Mg9 3.097954 1_555
Mg24 Mg5 3.102089 1_655
Mg24 Mg38 3.112324 1_555
Mg24 Mg36 3.237055 1_555
Mg24 Nd4 3.733298 1_555
Mg24 Nd0 3.773973 1_666
Mg25 Mg27 3.244953 1_554
Mg25 Mg28 3.244958 1_555
Mg25 Mg37 3.434528 1_565
Mg25 Nd3 3.488242 1_555
Mg25 Nd1 3.524701 1_555
Mg25 Nd0 3.970847 1_665
Mg26 Mg27 3.244940 1_555
Mg26 Mg28 3.244963 1_556
Mg26 Mg38 3.434542 1_555
Mg26 Nd4 3.488253 1_555
Mg26 Nd2 3.524702 1_555
Mg26 Mg9 3.539133 1_555
Mg26 Nd0 3.970841 1_666
Mg27 Mg3 3.111640 1_566
Mg27 Mg39 3.434542 1_555
Mg27 Nd2 3.488239 1_555
Mg27 Nd3 3.524714 1_556
Mg27 Nd0 3.970837 1_666
Mg28 Mg4 3.111631 1_655
Mg28 Mg40 3.434528 1_655
Mg28 Nd1 3.488230 1_555
Mg28 Nd4 3.524707 1_554
Mg28 Nd0 3.970847 1_665
Mg29 Mg31 3.244953 1_556
Mg29 Mg32 3.244958 1_555
Mg29 Mg33 3.434528 1_545
Mg29 Nd4 3.488242 1_555
Mg29 Nd2 3.524701 1_555
Mg29 Mg9 3.539136 1_445
Mg29 Nd0 3.970847 1_556
Mg30 Mg31 3.244940 1_555
Mg30 Mg32 3.244963 1_554
Mg30 Mg34 3.434542 1_555
Mg30 Nd3 3.488253 1_555
Mg30 Nd1 3.524702 1_555
Mg30 Nd0 3.970841 1_555
Mg31 Mg35 3.434542 1_555
Mg31 Nd1 3.488239 1_555
Mg31 Nd4 3.524714 1_554
Mg31 Nd0 3.970837 1_555
Mg32 Mg4 3.111631 1_556
Mg32 Mg36 3.434528 1_455
Mg32 Nd2 3.488230 1_555
Mg32 Nd3 3.524707 1_556
Mg32 Nd0 3.970847 1_556
Mg33 Mg5 3.028256 1_555
Mg33 Mg7 3.126604 1_565
Mg33 Mg40 3.196610 1_555
Mg33 Mg39 3.196619 1_555
Mg33 Mg9 3.508213 1_455
Mg33 Nd4 3.653462 1_565
Mg33 Nd1 3.693626 1_455
Mg34 Mg6 3.028247 1_455
Mg34 Mg8 3.126605 1_555
Mg34 Mg39 3.196609 1_555
Mg34 Mg40 3.196619 1_555
Mg34 Nd3 3.653464 1_555
Mg34 Nd2 3.693633 1_555
Mg35 Mg7 3.028247 1_555
Mg35 Mg6 3.126605 1_555
Mg35 Mg38 3.196609 1_555
Mg35 Mg37 3.196619 1_555
Mg35 Nd1 3.653466 1_555
Mg35 Nd3 3.693623 1_545
Mg36 Mg8 3.028250 1_545
Mg36 Mg4 3.074527 1_656
Mg36 Mg5 3.126605 1_655
Mg36 Mg37 3.196610 1_555
Mg36 Mg38 3.196619 1_555
Mg36 Nd2 3.653448 1_655
Mg36 Nd4 3.693633 1_555
Mg37 Mg6 3.028256 1_555
Mg37 Mg8 3.126604 1_545
Mg37 Nd3 3.653462 1_545
Mg37 Nd2 3.693626 1_655
Mg38 Mg5 3.028247 1_655
Mg38 Mg7 3.126605 1_555
Mg38 Mg9 3.508214 1_555
Mg38 Nd4 3.653464 1_555
Mg38 Nd1 3.693633 1_555
Mg39 Mg8 3.028247 1_555
Mg39 Mg5 3.126605 1_555
Mg39 Nd2 3.653466 1_555
Mg39 Nd4 3.693623 1_565
Mg40 Mg7 3.028250 1_565
Mg40 Mg6 3.126605 1_455
Mg40 Nd1 3.653448 1_455
Mg40 Nd3 3.693633 1_555
