# generated using pymatgen
data_Ba4Li(RhO3)4
_symmetry_space_group_name_H-M   'P 1'
_cell_length_a   5.90738099
_cell_length_b   5.90972655
_cell_length_c   9.98735179
_cell_angle_alpha   87.70177761
_cell_angle_beta   92.32072076
_cell_angle_gamma   121.29546682
_symmetry_Int_Tables_number   1
_chemical_formula_structural   Ba4Li(RhO3)4
_chemical_formula_sum   'Ba4 Li1 Rh4 O12'
_cell_volume   297.61860896
_cell_formula_units_Z   1
loop_
 _symmetry_equiv_pos_site_id
 _symmetry_equiv_pos_as_xyz
  1  'x, y, z'
loop_
 _atom_site_type_symbol
 _atom_site_label
 _atom_site_symmetry_multiplicity
 _atom_site_fract_x
 _atom_site_fract_y
 _atom_site_fract_z
 _atom_site_occupancy
  Ba  Ba0  1  0.66891300  0.33177800  0.73615500  1
  Ba  Ba1  1  0.28273600  0.71740200  0.28619200  1
  Ba  Ba2  1  0.97289900  0.02805300  0.51737300  1
  Ba  Ba3  1  0.02813700  0.97086500  0.98161100  1
  Li  Li0  1  0.46779000  0.53013200  0.11752400  1
  Rh  Rh0  1  0.35724900  0.64201300  0.88971500  1
  Rh  Rh1  1  0.64308500  0.35732200  0.38450700  1
  Rh  Rh2  1  0.70305000  0.29580000  0.11278300  1
  Rh  Rh3  1  0.31733600  0.68308000  0.61561200  1
  O  O0  1  0.18097400  0.36558400  0.74139900  1
  O  O1  1  0.80983200  0.19118200  0.29042000  1
  O  O2  1  0.37395700  0.19533400  0.22406600  1
  O  O3  1  0.63455300  0.81758400  0.74198400  1
  O  O4  1  0.19272400  0.80849600  0.77183400  1
  O  O5  1  0.80374900  0.62525700  0.22382000  1
  O  O6  1  0.43997900  0.04149900  0.51299200  1
  O  O7  1  0.55619800  0.43786300  0.95896500  1
  O  O8  1  0.55592900  0.91566300  0.03954200  1
  O  O9  1  0.45852500  0.53829300  0.47682800  1
  O  O10  1  0.95935500  0.56327800  0.51258200  1
  O  O11  1  0.08261600  0.44352100  0.03909700  1
loop_
_geom_bond_atom_site_label_1
_geom_bond_atom_site_label_2
_geom_bond_distance
_geom_bond_site_symmetry_2
Ba0 O7 2.540443 1_555
Ba0 O6 2.718765 1_555
Ba0 O10 2.725432 1_555
Ba0 O0 2.924565 1_655
Ba0 O4 2.925508 1_545
Ba0 O4 2.928046 1_655
Ba0 O3 2.936757 1_545
Ba0 O3 2.984442 1_555
Ba0 O0 2.993737 1_555
Ba0 O9 3.286917 1_555
Ba1 O9 2.577594 1_555
Ba1 Li0 2.610198 1_555
Ba1 O2 2.637833 1_565
Ba1 O5 2.640957 1_455
Ba1 O10 2.822806 1_455
Ba1 O6 2.826895 1_565
Ba1 O8 2.858600 1_555
Ba1 O11 2.864204 1_555
Ba1 O1 2.906968 1_455
Ba1 O1 2.911733 1_565
Ba2 O10 2.708308 1_545
Ba2 O6 2.720889 1_655
Ba2 O1 2.758222 1_555
Ba2 O0 2.843205 1_655
Ba2 O3 2.851465 1_545
Ba2 O9 2.914711 1_655
Ba2 O9 2.937986 1_545
Ba2 O6 3.188668 1_555
Ba2 O10 3.203739 1_555
Ba2 O4 3.323752 1_645
Ba3 O8 2.718953 1_456
Ba3 O11 2.723101 1_566
Ba3 O4 2.747917 1_555
Ba3 O7 2.908920 1_565
Ba3 O7 2.937394 1_455
Ba3 O5 2.971717 1_456
Ba3 O2 2.972927 1_566
Ba3 O3 3.080449 1_455
Ba3 O0 3.090424 1_565
Ba3 O11 3.320999 1_556
Ba3 O8 3.325321 1_556
Li0 O7 1.873479 1_554
Li0 O2 2.023300 1_555
Li0 O5 2.024841 1_555
Li0 O8 2.174120 1_555
Li0 O11 2.175014 1_555
O0 Rh3 2.017511 1_555
O0 Rh0 2.061339 1_555
O1 Rh1 1.992749 1_555
O1 Rh2 2.038196 1_555
O2 Rh2 2.071260 1_555
O2 Rh1 2.084992 1_555
O3 Rh3 2.019355 1_555
O3 Rh0 2.060131 1_555
O4 Rh0 2.026464 1_555
O4 Rh3 2.068376 1_555
O5 Rh2 2.071464 1_555
O5 Rh1 2.083695 1_555
O6 Rh1 2.043501 1_555
O6 Rh3 2.086538 1_545
O7 Rh2 2.088714 1_556
O7 Rh0 2.157662 1_555
O8 Rh0 2.076517 1_554
O8 Rh2 2.095019 1_565
O9 Rh3 2.068621 1_555
O9 Rh1 2.134137 1_555
O10 Rh1 2.043793 1_555
O10 Rh3 2.087800 1_655
O11 Rh0 2.076648 1_554
O11 Rh2 2.092810 1_455
