# generated using pymatgen
data_CaMg14Ga
_symmetry_space_group_name_H-M   'P 1'
_cell_length_a   6.42119116
_cell_length_b   6.42119063
_cell_length_c   10.47650274
_cell_angle_alpha   90.00000000
_cell_angle_beta   90.00000000
_cell_angle_gamma   120.00000275
_symmetry_Int_Tables_number   1
_chemical_formula_structural   CaMg14Ga
_chemical_formula_sum   'Ca1 Mg14 Ga1'
_cell_volume   374.09173454
_cell_formula_units_Z   1
loop_
 _symmetry_equiv_pos_site_id
 _symmetry_equiv_pos_as_xyz
  1  'x, y, z'
loop_
 _atom_site_type_symbol
 _atom_site_label
 _atom_site_symmetry_multiplicity
 _atom_site_fract_x
 _atom_site_fract_y
 _atom_site_fract_z
 _atom_site_occupancy
  Ca  Ca0  1  0.16666700  0.33333300  0.12500000  1
  Mg  Mg0  1  0.17276721  0.83638310  0.12500000  1
  Mg  Mg1  1  0.16426532  0.83213216  0.62500000  1
  Mg  Mg2  1  0.66361690  0.32723279  0.12500000  1
  Mg  Mg3  1  0.66786784  0.33573468  0.62500000  1
  Mg  Mg4  1  0.66361690  0.83638310  0.12500000  1
  Mg  Mg5  1  0.66786784  0.83213216  0.62500000  1
  Mg  Mg6  1  0.33336688  0.16663312  0.38210862  1
  Mg  Mg7  1  0.33336688  0.16663312  0.86789138  1
  Mg  Mg8  1  0.33336688  0.66673476  0.38210862  1
  Mg  Mg9  1  0.33336688  0.66673476  0.86789138  1
  Mg  Mg10  1  0.83326524  0.16663312  0.38210862  1
  Mg  Mg11  1  0.83326524  0.16663312  0.86789138  1
  Mg  Mg12  1  0.83333300  0.66666700  0.37107122  1
  Mg  Mg13  1  0.83333300  0.66666700  0.87892878  1
  Ga  Ga0  1  0.16666700  0.33333300  0.62500000  1
loop_
_geom_bond_atom_site_label_1
_geom_bond_atom_site_label_2
_geom_bond_distance
_geom_bond_site_symmetry_2
Ca0 Mg0 3.210774 1_555
Ca0 Mg4 3.210775 1_555
Ca0 Mg4 3.210775 1_445
Ca0 Mg0 3.210775 1_545
Ca0 Mg2 3.210775 1_455
Ca0 Mg2 3.210775 1_555
Ca0 Mg7 3.269988 1_554
Ca0 Mg6 3.269988 1_555
Ca0 Mg8 3.269994 1_555
Ca0 Mg9 3.269994 1_554
Ca0 Mg10 3.269994 1_455
Ca0 Mg11 3.269994 1_454
Mg0 Mg2 3.151839 1_565
Mg0 Mg4 3.151840 1_555
Mg0 Mg12 3.195123 1_455
Mg0 Mg13 3.195123 1_454
Mg0 Mg9 3.260212 1_554
Mg0 Mg8 3.260212 1_555
Mg0 Mg7 3.260218 1_564
Mg0 Mg6 3.260218 1_565
Mg0 Mg2 3.269351 1_455
Mg0 Mg4 3.269351 1_455
Mg1 Mg9 3.152054 1_555
Mg1 Mg8 3.152054 1_555
Mg1 Mg6 3.152060 1_565
Mg1 Mg7 3.152060 1_565
Mg1 Mg3 3.187463 1_455
Mg1 Mg5 3.187463 1_455
Mg1 Mg3 3.233728 1_565
Mg1 Mg5 3.233728 1_555
Mg1 Mg13 3.234776 1_455
Mg1 Mg12 3.234776 1_455
Mg2 Mg4 3.151839 1_545
Mg2 Mg7 3.260218 1_554
Mg2 Mg6 3.260218 1_555
Mg2 Mg4 3.269351 1_555
Mg3 Mg6 3.152060 1_555
Mg3 Mg7 3.152060 1_555
Mg3 Mg5 3.187463 1_555
Mg3 Mg5 3.233728 1_545
Mg4 Mg8 3.260218 1_555
Mg4 Mg9 3.260218 1_554
Mg5 Mg8 3.152060 1_555
Mg5 Mg9 3.152060 1_555
Mg6 Mg8 3.209943 1_545
Mg6 Mg8 3.211248 1_555
Mg7 Mg9 3.209943 1_545
Mg7 Mg9 3.211248 1_555
Mg10 Mg3 3.152054 1_555
Mg10 Mg5 3.152060 1_545
Mg10 Mg8 3.209943 1_545
Mg10 Mg6 3.209943 1_555
Mg10 Mg8 3.211248 1_655
Mg10 Mg6 3.211248 1_655
Mg10 Mg12 3.212677 1_555
Mg10 Mg12 3.212677 1_545
Mg10 Mg2 3.260212 1_555
Mg10 Mg4 3.260218 1_545
Mg11 Mg3 3.152054 1_555
Mg11 Mg5 3.152060 1_545
Mg11 Mg9 3.209943 1_545
Mg11 Mg7 3.209943 1_555
Mg11 Mg9 3.211248 1_655
Mg11 Mg7 3.211248 1_655
Mg11 Mg13 3.212677 1_555
Mg11 Mg13 3.212677 1_545
Mg11 Mg2 3.260212 1_556
Mg11 Mg4 3.260218 1_546
Mg12 Mg4 3.195116 1_555
Mg12 Mg2 3.195122 1_555
Mg12 Mg6 3.212677 1_555
Mg12 Mg6 3.212677 1_665
Mg12 Mg8 3.212677 1_655
Mg12 Mg8 3.212677 1_555
Mg12 Mg5 3.234769 1_555
Mg12 Mg3 3.234775 1_555
Mg13 Mg4 3.195116 1_556
Mg13 Mg2 3.195122 1_556
Mg13 Mg7 3.212677 1_555
Mg13 Mg7 3.212677 1_665
Mg13 Mg9 3.212677 1_555
Mg13 Mg9 3.212677 1_655
Mg13 Mg5 3.234769 1_555
Mg13 Mg3 3.234775 1_555
Ga0 Mg6 3.148428 1_555
Ga0 Mg7 3.148428 1_555
Ga0 Mg9 3.148434 1_555
Ga0 Mg8 3.148434 1_555
Ga0 Mg10 3.148435 1_455
Ga0 Mg11 3.148435 1_455
Ga0 Mg1 3.210623 1_545
Ga0 Mg5 3.210623 1_445
Ga0 Mg1 3.210623 1_555
Ga0 Mg5 3.210623 1_555
Ga0 Mg3 3.210623 1_455
Ga0 Mg3 3.210623 1_555
