# generated using pymatgen
data_BaEr2O4
_symmetry_space_group_name_H-M   'P 1'
_cell_length_a   3.41809719
_cell_length_b   10.36344538
_cell_length_c   12.01602373
_cell_angle_alpha   90.00000000
_cell_angle_beta   90.00000000
_cell_angle_gamma   90.00000000
_symmetry_Int_Tables_number   1
_chemical_formula_structural   BaEr2O4
_chemical_formula_sum   'Ba4 Er8 O16'
_cell_volume   425.64677520
_cell_formula_units_Z   4
loop_
 _symmetry_equiv_pos_site_id
 _symmetry_equiv_pos_as_xyz
  1  'x, y, z'
loop_
 _atom_site_type_symbol
 _atom_site_label
 _atom_site_symmetry_multiplicity
 _atom_site_fract_x
 _atom_site_fract_y
 _atom_site_fract_z
 _atom_site_occupancy
  Ba  Ba0  1  0.75000000  0.25323881  0.14977535  1
  Ba  Ba1  1  0.75000000  0.75323881  0.35022465  1
  Ba  Ba2  1  0.25000000  0.74676119  0.85022465  1
  Ba  Ba3  1  0.25000000  0.24676119  0.64977535  1
  Er  Er0  1  0.75000000  0.42205188  0.89168023  1
  Er  Er1  1  0.75000000  0.92205188  0.60831977  1
  Er  Er2  1  0.25000000  0.57794812  0.10831977  1
  Er  Er3  1  0.25000000  0.07794812  0.39168023  1
  Er  Er4  1  0.75000000  0.92714720  0.11051393  1
  Er  Er5  1  0.75000000  0.42714720  0.38948607  1
  Er  Er6  1  0.25000000  0.07285280  0.88948607  1
  Er  Er7  1  0.25000000  0.57285280  0.61051393  1
  O  O0  1  0.75000000  0.20939228  0.84432142  1
  O  O1  1  0.75000000  0.70939228  0.65567858  1
  O  O2  1  0.25000000  0.79060772  0.15567858  1
  O  O3  1  0.25000000  0.29060772  0.34432142  1
  O  O4  1  0.75000000  0.11350892  0.51727510  1
  O  O5  1  0.75000000  0.61350892  0.98272490  1
  O  O6  1  0.25000000  0.88649108  0.48272490  1
  O  O7  1  0.25000000  0.38649108  0.01727510  1
  O  O8  1  0.75000000  0.01923908  0.28258009  1
  O  O9  1  0.75000000  0.51923908  0.21741991  1
  O  O10  1  0.25000000  0.98076092  0.71741991  1
  O  O11  1  0.25000000  0.48076092  0.78258009  1
  O  O12  1  0.75000000  0.43092327  0.57367609  1
  O  O13  1  0.75000000  0.93092327  0.92632391  1
  O  O14  1  0.25000000  0.56907673  0.42632391  1
  O  O15  1  0.25000000  0.06907673  0.07367609  1
loop_
_geom_bond_atom_site_label_1
_geom_bond_atom_site_label_2
_geom_bond_distance
_geom_bond_site_symmetry_2
Ba0 O7 2.713437 1_655
Ba0 O7 2.713437 1_555
Ba0 O15 2.720215 1_655
Ba0 O15 2.720215 1_555
Ba0 O9 2.874014 1_555
Ba0 O8 2.902992 1_555
Ba0 O3 2.921563 1_655
Ba0 O3 2.921563 1_555
Ba1 O6 2.713437 1_555
Ba1 O6 2.713437 1_655
Ba1 O14 2.720215 1_655
Ba1 O14 2.720215 1_555
Ba1 O8 2.874014 1_565
Ba1 O9 2.902992 1_555
Ba1 O2 2.921563 1_555
Ba1 O2 2.921563 1_655
Ba2 O5 2.713437 1_455
Ba2 O5 2.713437 1_555
Ba2 O13 2.720215 1_555
Ba2 O13 2.720215 1_455
Ba2 O11 2.874014 1_555
Ba2 O10 2.902992 1_555
Ba2 O1 2.921563 1_555
Ba2 O1 2.921563 1_455
Ba3 O4 2.713437 1_455
Ba3 O4 2.713437 1_555
Ba3 O12 2.720215 1_555
Ba3 O12 2.720215 1_455
Ba3 O10 2.874014 1_545
Ba3 O11 2.902992 1_555
Ba3 O0 2.921563 1_555
Ba3 O0 2.921563 1_455
Er0 O11 2.238218 1_655
Er0 O11 2.238218 1_555
Er0 O5 2.265766 1_555
Er0 O0 2.276170 1_555
Er0 O7 2.309589 1_656
Er0 O7 2.309589 1_556
Er1 O10 2.238218 1_555
Er1 O10 2.238218 1_655
Er1 O4 2.265766 1_565
Er1 O1 2.276170 1_555
Er1 O6 2.309589 1_655
Er1 O6 2.309589 1_555
Er2 O9 2.238218 1_555
Er2 O9 2.238218 1_455
Er2 O7 2.265766 1_555
Er2 O2 2.276170 1_555
Er2 O5 2.309589 1_554
Er2 O5 2.309589 1_454
Er3 O8 2.238218 1_455
Er3 O8 2.238218 1_555
Er3 O6 2.265766 1_545
Er3 O3 2.276170 1_555
Er3 O4 2.309589 1_455
Er3 O4 2.309589 1_555
Er4 O13 2.213578 1_554
Er4 O8 2.277197 1_565
Er4 O2 2.284218 1_655
Er4 O2 2.284218 1_555
Er4 O15 2.297883 1_665
Er4 O15 2.297883 1_565
Er5 O12 2.213578 1_555
Er5 O9 2.277197 1_555
Er5 O3 2.284218 1_555
Er5 O3 2.284218 1_655
Er5 O14 2.297883 1_555
Er5 O14 2.297883 1_655
Er6 O15 2.213578 1_556
Er6 O10 2.277197 1_545
Er6 O0 2.284218 1_555
Er6 O0 2.284218 1_455
Er6 O13 2.297883 1_545
Er6 O13 2.297883 1_445
Er7 O14 2.213578 1_555
Er7 O11 2.277197 1_555
Er7 O1 2.284218 1_555
Er7 O1 2.284218 1_455
Er7 O12 2.297883 1_455
Er7 O12 2.297883 1_555
