# generated using pymatgen
data_KSr(BiO3)2
_symmetry_space_group_name_H-M   'P 1'
_cell_length_a   6.07880892
_cell_length_b   6.07880892
_cell_length_c   6.07880892
_cell_angle_alpha   120.94789772
_cell_angle_beta   120.94789772
_cell_angle_gamma   88.36588716
_symmetry_Int_Tables_number   1
_chemical_formula_structural   KSr(BiO3)2
_chemical_formula_sum   'K1 Sr1 Bi2 O6'
_cell_volume   156.48815600
_cell_formula_units_Z   1
loop_
 _symmetry_equiv_pos_site_id
 _symmetry_equiv_pos_as_xyz
  1  'x, y, z'
loop_
 _atom_site_type_symbol
 _atom_site_label
 _atom_site_symmetry_multiplicity
 _atom_site_fract_x
 _atom_site_fract_y
 _atom_site_fract_z
 _atom_site_occupancy
  K  K0  1  0.00000000  0.00000000  0.00000000  1
  Sr  Sr0  1  0.50000000  0.50000000  0.00000000  1
  Bi  Bi0  1  0.75000000  0.25000000  0.50000000  1
  Bi  Bi1  1  0.25000000  0.75000000  0.50000000  1
  O  O0  1  0.45785400  0.07652500  0.00000000  1
  O  O1  1  0.07652500  0.45785400  0.00000000  1
  O  O2  1  0.54214600  0.54214600  0.61867100  1
  O  O3  1  0.92347500  0.92347500  0.38132900  1
  O  O4  1  0.50000000  0.00000000  0.50000000  1
  O  O5  1  0.00000000  0.50000000  0.50000000  1
loop_
_geom_bond_atom_site_label_1
_geom_bond_atom_site_label_2
_geom_bond_distance
_geom_bond_site_symmetry_2
K0 O2 2.834868 1_444
K0 O1 2.834868 1_555
K0 O0 2.834868 1_555
K0 O3 2.834868 1_445
K0 O5 2.995754 1_555
K0 O5 2.995754 1_544
K0 O4 2.995754 1_454
K0 O4 2.995754 1_555
Bi0 O4 2.179612 1_555
Bi0 O5 2.179612 1_655
Bi0 O0 2.182316 1_555
Bi0 O1 2.182316 1_656
Bi0 O2 2.182316 1_555
Bi0 O3 2.182316 1_545
Bi1 O5 2.179612 1_555
Bi1 O4 2.179612 1_565
Bi1 O0 2.182316 1_566
Bi1 O2 2.182316 1_555
Bi1 O1 2.182316 1_555
Bi1 O3 2.182316 1_455
O0 Sr0 2.594201 1_555
O1 Sr0 2.594201 1_555
O2 Sr0 2.594201 1_556
O3 Sr0 2.594201 1_555
O4 Sr0 2.995754 1_556
O4 Sr0 2.995754 1_545
O5 Sr0 2.995754 1_556
O5 Sr0 2.995754 1_455
