# generated using pymatgen
data_DyInPt4
_symmetry_space_group_name_H-M   'P 1'
_cell_length_a   5.40711828
_cell_length_b   5.40711828
_cell_length_c   5.40711828
_cell_angle_alpha   60.00000000
_cell_angle_beta   60.00000000
_cell_angle_gamma   60.00000000
_symmetry_Int_Tables_number   1
_chemical_formula_structural   DyInPt4
_chemical_formula_sum   'Dy1 In1 Pt4'
_cell_volume   111.78476310
_cell_formula_units_Z   1
loop_
 _symmetry_equiv_pos_site_id
 _symmetry_equiv_pos_as_xyz
  1  'x, y, z'
loop_
 _atom_site_type_symbol
 _atom_site_label
 _atom_site_symmetry_multiplicity
 _atom_site_fract_x
 _atom_site_fract_y
 _atom_site_fract_z
 _atom_site_occupancy
  Dy  Dy0  1  0.25000000  0.25000000  0.25000000  1
  In  In0  1  0.00000000  0.00000000  0.00000000  1
  Pt  Pt0  1  0.62534000  0.62534000  0.62534000  1
  Pt  Pt1  1  0.62534000  0.62534000  0.12398100  1
  Pt  Pt2  1  0.62534000  0.12398100  0.62534000  1
  Pt  Pt3  1  0.12398100  0.62534000  0.62534000  1
loop_
_geom_bond_atom_site_label_1
_geom_bond_atom_site_label_2
_geom_bond_distance
_geom_bond_site_symmetry_2
Dy0 Pt2 3.170989 1_554
Dy0 Pt1 3.170989 1_545
Dy0 Pt3 3.170989 1_545
Dy0 Pt2 3.170989 1_455
Dy0 Pt1 3.170989 1_455
Dy0 Pt3 3.170989 1_554
Dy0 Pt0 3.170991 1_455
Dy0 Pt0 3.170991 1_554
Dy0 Pt0 3.170991 1_545
Dy0 Pt2 3.170993 1_555
Dy0 Pt1 3.170993 1_555
Dy0 Pt3 3.170993 1_555
Dy0 In0 3.311170 1_565
Dy0 In0 3.311170 1_556
Dy0 In0 3.311170 1_555
Dy0 In0 3.311170 1_655
In0 Pt1 3.169421 1_445
In0 Pt2 3.169421 1_454
In0 Pt3 3.169421 1_544
In0 Pt0 3.169423 1_445
In0 Pt0 3.169423 1_454
In0 Pt0 3.169423 1_544
In0 Pt3 3.169426 1_554
In0 Pt2 3.169426 1_455
In0 Pt3 3.169426 1_545
In0 Pt1 3.169426 1_455
In0 Pt2 3.169426 1_554
In0 Pt1 3.169426 1_545
Pt0 Pt1 2.696211 1_556
Pt0 Pt2 2.696211 1_565
Pt0 Pt3 2.696211 1_655
Pt0 Pt1 2.710907 1_555
Pt0 Pt2 2.710907 1_555
Pt0 Pt3 2.710907 1_555
Pt1 Pt2 2.696211 1_564
Pt1 Pt3 2.696211 1_654
Pt1 Pt2 2.710907 1_555
Pt1 Pt3 2.710907 1_555
Pt2 Pt3 2.696211 1_645
Pt2 Pt3 2.710907 1_555
