# generated using pymatgen
data_Sm2Ge(BO4)2
_symmetry_space_group_name_H-M   'P 1'
_cell_length_a   4.48119000
_cell_length_b   9.47848500
_cell_length_c   13.71854300
_cell_angle_alpha   90.00000000
_cell_angle_beta   90.00000000
_cell_angle_gamma   90.00000000
_symmetry_Int_Tables_number   1
_chemical_formula_structural   Sm2Ge(BO4)2
_chemical_formula_sum   'Sm8 Ge4 B8 O32'
_cell_volume   582.69363503
_cell_formula_units_Z   4
loop_
 _symmetry_equiv_pos_site_id
 _symmetry_equiv_pos_as_xyz
  1  'x, y, z'
loop_
 _atom_site_type_symbol
 _atom_site_label
 _atom_site_symmetry_multiplicity
 _atom_site_fract_x
 _atom_site_fract_y
 _atom_site_fract_z
 _atom_site_occupancy
  Sm  Sm0  1  0.45931700  0.52553000  0.64025400  1
  Sm  Sm1  1  0.04068300  0.02553000  0.85974600  1
  Sm  Sm2  1  0.04068300  0.47447000  0.14025400  1
  Sm  Sm3  1  0.45931700  0.97447000  0.35974600  1
  Sm  Sm4  1  0.54068300  0.47447000  0.35974600  1
  Sm  Sm5  1  0.95931700  0.97447000  0.14025400  1
  Sm  Sm6  1  0.95931700  0.52553000  0.85974600  1
  Sm  Sm7  1  0.54068300  0.02553000  0.64025400  1
  Ge  Ge0  1  0.92349300  0.75000000  0.50000000  1
  Ge  Ge1  1  0.57650700  0.25000000  0.00000000  1
  Ge  Ge2  1  0.07650700  0.25000000  0.50000000  1
  Ge  Ge3  1  0.42349300  0.75000000  0.00000000  1
  B  B0  1  0.53134200  0.70386100  0.20050300  1
  B  B1  1  0.96865800  0.20386100  0.29949700  1
  B  B2  1  0.96865800  0.29613900  0.70050300  1
  B  B3  1  0.53134200  0.79613900  0.79949700  1
  B  B4  1  0.46865800  0.29613900  0.79949700  1
  B  B5  1  0.03134200  0.79613900  0.70050300  1
  B  B6  1  0.03134200  0.70386100  0.29949700  1
  B  B7  1  0.46865800  0.20386100  0.20050300  1
  O  O0  1  0.53692700  0.55178700  0.19270300  1
  O  O1  1  0.96307300  0.05178700  0.30729700  1
  O  O2  1  0.96307300  0.44821300  0.69270300  1
  O  O3  1  0.53692700  0.94821300  0.80729700  1
  O  O4  1  0.46307300  0.44821300  0.80729700  1
  O  O5  1  0.03692700  0.94821300  0.69270300  1
  O  O6  1  0.03692700  0.55178700  0.30729700  1
  O  O7  1  0.46307300  0.05178700  0.19270300  1
  O  O8  1  0.65462700  0.76722300  0.10691900  1
  O  O9  1  0.84537300  0.26722300  0.39308100  1
  O  O10  1  0.84537300  0.23277700  0.60691900  1
  O  O11  1  0.65462700  0.73277700  0.89308100  1
  O  O12  1  0.34537300  0.23277700  0.89308100  1
  O  O13  1  0.15462700  0.73277700  0.60691900  1
  O  O14  1  0.15462700  0.76722300  0.39308100  1
  O  O15  1  0.34537300  0.26722300  0.10691900  1
  O  O16  1  0.22184200  0.75994300  0.21752800  1
  O  O17  1  0.27815800  0.25994300  0.28247200  1
  O  O18  1  0.27815800  0.24005700  0.71752800  1
  O  O19  1  0.22184200  0.74005700  0.78247200  1
  O  O20  1  0.77815800  0.24005700  0.78247200  1
  O  O21  1  0.72184200  0.74005700  0.71752800  1
  O  O22  1  0.72184200  0.75994300  0.28247200  1
  O  O23  1  0.77815800  0.25994300  0.21752800  1
  O  O24  1  0.70384900  0.59873100  0.49563600  1
  O  O25  1  0.79615100  0.09873100  0.00436400  1
  O  O26  1  0.79615100  0.40126900  0.99563600  1
  O  O27  1  0.70384900  0.90126900  0.50436400  1
  O  O28  1  0.29615100  0.40126900  0.50436400  1
  O  O29  1  0.20384900  0.90126900  0.99563600  1
  O  O30  1  0.20384900  0.59873100  0.00436400  1
  O  O31  1  0.29615100  0.09873100  0.49563600  1
loop_
_geom_bond_atom_site_label_1
_geom_bond_atom_site_label_2
_geom_bond_distance
_geom_bond_site_symmetry_2
Ge0 O27 1.740158 1_555
Ge0 O24 1.740158 1_555
Ge0 O14 1.803015 1_655
Ge0 O13 1.803015 1_655
Ge1 O25 1.740158 1_555
Ge1 O26 1.740158 1_554
Ge1 O12 1.803015 1_554
Ge1 O15 1.803015 1_555
Ge2 O31 1.740158 1_555
Ge2 O28 1.740158 1_555
Ge2 O10 1.803015 1_455
Ge2 O9 1.803015 1_455
Ge3 O29 1.740158 1_554
Ge3 O30 1.740158 1_555
Ge3 O11 1.803015 1_554
Ge3 O8 1.803015 1_555
B0 O0 1.445614 1_555
B0 O16 1.503559 1_555
B0 O22 1.508577 1_555
B0 O8 1.521231 1_555
B1 O1 1.445614 1_555
B1 O17 1.503559 1_655
B1 O23 1.508577 1_555
B1 O9 1.521231 1_555
B2 O2 1.445614 1_555
B2 O18 1.503559 1_655
B2 O20 1.508577 1_555
B2 O10 1.521231 1_555
B3 O3 1.445614 1_555
B3 O19 1.503559 1_555
B3 O21 1.508577 1_555
B3 O11 1.521231 1_555
B4 O4 1.445614 1_555
B4 O20 1.503559 1_555
B4 O18 1.508577 1_555
B4 O12 1.521231 1_555
B5 O5 1.445614 1_555
B5 O21 1.503559 1_455
B5 O19 1.508577 1_555
B5 O13 1.521231 1_555
B6 O6 1.445614 1_555
B6 O22 1.503559 1_455
B6 O16 1.508577 1_555
B6 O14 1.521231 1_555
B7 O7 1.445614 1_555
B7 O23 1.503559 1_555
B7 O17 1.508577 1_555
B7 O15 1.521231 1_555
O0 Sm4 2.405976 1_555
O0 Sm2 2.449470 1_555
O0 Sm2 2.480071 1_655
O1 Sm5 2.405976 1_545
O1 Sm3 2.449470 1_645
O1 Sm3 2.480071 1_545
O2 Sm6 2.405976 1_555
O2 Sm0 2.449470 1_655
O2 Sm0 2.480071 1_555
O3 Sm7 2.405976 1_565
O3 Sm1 2.449470 1_565
O3 Sm1 2.480071 1_665
O4 Sm0 2.405976 1_555
O4 Sm6 2.449470 1_555
O4 Sm6 2.480071 1_455
O5 Sm1 2.405976 1_565
O5 Sm7 2.449470 1_465
O5 Sm7 2.480071 1_565
O6 Sm2 2.405976 1_555
O6 Sm4 2.449470 1_455
O6 Sm4 2.480071 1_555
O7 Sm3 2.405976 1_545
O7 Sm5 2.449470 1_545
O7 Sm5 2.480071 1_445
O8 Sm5 2.435610 1_555
O9 Sm4 2.435610 1_555
O10 Sm7 2.435610 1_555
O11 Sm6 2.435610 1_555
O12 Sm1 2.435610 1_555
O13 Sm0 2.435610 1_555
O14 Sm3 2.435610 1_555
O15 Sm2 2.435610 1_555
O16 Sm5 2.577293 1_455
O17 Sm4 2.577293 1_555
O18 Sm7 2.577293 1_555
O19 Sm6 2.577293 1_455
O20 Sm1 2.577293 1_655
O21 Sm0 2.577293 1_555
O22 Sm3 2.577293 1_555
O23 Sm2 2.577293 1_655
O24 Sm4 2.323174 1_555
O24 Sm0 2.370279 1_555
O25 Sm5 2.323174 1_545
O25 Sm1 2.370279 1_654
O26 Sm6 2.323174 1_555
O26 Sm2 2.370279 1_656
O27 Sm7 2.323174 1_565
O27 Sm3 2.370279 1_555
O28 Sm0 2.323174 1_555
O28 Sm4 2.370279 1_555
O29 Sm1 2.323174 1_565
O29 Sm5 2.370279 1_456
O30 Sm2 2.323174 1_555
O30 Sm6 2.370279 1_454
O31 Sm3 2.323174 1_545
O31 Sm7 2.370279 1_555
