# generated using pymatgen
data_LiYb4(Ru2O7)2
_symmetry_space_group_name_H-M   'P 1'
_cell_length_a   7.24758109
_cell_length_b   7.23052834
_cell_length_c   7.24764533
_cell_angle_alpha   60.55245042
_cell_angle_beta   60.62229050
_cell_angle_gamma   60.54846702
_symmetry_Int_Tables_number   1
_chemical_formula_structural   LiYb4(Ru2O7)2
_chemical_formula_sum   'Li1 Yb4 Ru4 O14'
_cell_volume   272.04664694
_cell_formula_units_Z   1
loop_
 _symmetry_equiv_pos_site_id
 _symmetry_equiv_pos_as_xyz
  1  'x, y, z'
loop_
 _atom_site_type_symbol
 _atom_site_label
 _atom_site_symmetry_multiplicity
 _atom_site_fract_x
 _atom_site_fract_y
 _atom_site_fract_z
 _atom_site_occupancy
  Li  Li0  1  0.74383100  0.74797300  0.74389200  1
  Yb  Yb0  1  0.48356800  0.01110100  0.48350700  1
  Yb  Yb1  1  0.01037200  0.48625500  0.48178800  1
  Yb  Yb2  1  0.48179600  0.48619700  0.01037900  1
  Yb  Yb3  1  0.50206000  0.50102300  0.50205200  1
  Ru  Ru0  1  0.00229400  0.49671600  0.00229900  1
  Ru  Ru1  1  0.49605600  0.00300600  0.00289800  1
  Ru  Ru2  1  0.00291000  0.00300200  0.49604100  1
  Ru  Ru3  1  0.00089900  0.00145500  0.00088000  1
  O  O0  1  0.63726800  0.63614200  0.63729200  1
  O  O1  1  0.37658700  0.37859200  0.37659600  1
  O  O2  1  0.31939100  0.92866300  0.93403700  1
  O  O3  1  0.06378100  0.67707900  0.67684300  1
  O  O4  1  0.93316900  0.31706300  0.93318900  1
  O  O5  1  0.93402800  0.92864200  0.31942300  1
  O  O6  1  0.32460100  0.32550300  0.92924800  1
  O  O7  1  0.32894000  0.92318400  0.32895600  1
  O  O8  1  0.92930000  0.32545600  0.32460400  1
  O  O9  1  0.67686900  0.67705500  0.06380400  1
  O  O10  1  0.07044400  0.07398300  0.67804500  1
  O  O11  1  0.67803700  0.07402000  0.07048300  1
  O  O12  1  0.67229400  0.06894800  0.67225100  1
  O  O13  1  0.07224400  0.67894300  0.07223400  1
loop_
_geom_bond_atom_site_label_1
_geom_bond_atom_site_label_2
_geom_bond_distance
_geom_bond_site_symmetry_2
Li0 O0 1.913383 1_555
Li0 O12 1.954638 1_565
Li0 O9 1.961148 1_556
Li0 O3 1.961246 1_655
O0 Yb1 2.255196 1_655
O0 Yb2 2.255258 1_556
O0 Yb0 2.260666 1_565
O0 Yb3 2.387656 1_555
O1 Yb1 2.190497 1_555
O1 Yb2 2.190624 1_555
O1 Yb0 2.191137 1_555
O1 Yb3 2.198111 1_555
O2 Ru1 1.935200 1_566
O2 Ru3 1.949046 1_566
O2 Yb2 2.668755 1_556
O2 Yb0 2.721198 1_565
O3 Ru2 1.993432 1_565
O3 Ru0 1.994682 1_556
O3 Yb3 2.641295 1_555
O3 Yb1 2.651805 1_555
O4 Ru0 1.927472 1_656
O4 Ru3 1.929544 1_656
O4 Yb2 2.730075 1_556
O4 Yb1 2.730351 1_655
O5 Ru2 1.935079 1_665
O5 Ru3 1.949386 1_665
O5 Yb1 2.668309 1_655
O5 Yb0 2.720674 1_565
O6 Ru1 1.960605 1_556
O6 Ru0 1.963876 1_556
O6 Yb2 2.371603 1_556
O6 Yb3 2.585657 1_555
O7 Ru2 1.980318 1_565
O7 Ru1 1.980586 1_565
O7 Yb0 2.355210 1_565
O7 Yb3 2.545275 1_555
O8 Ru2 1.960404 1_655
O8 Ru0 1.964053 1_655
O8 Yb1 2.371858 1_655
O8 Yb3 2.585774 1_555
O9 Ru1 1.993525 1_565
O9 Ru0 1.994350 1_655
O9 Yb3 2.641274 1_555
O9 Yb2 2.652228 1_555
O10 Ru2 1.946575 1_555
O10 Ru3 1.974859 1_556
O10 Yb1 2.502210 1_555
O10 Yb0 2.511829 1_555
O11 Ru1 1.946861 1_555
O11 Ru3 1.974842 1_655
O11 Yb2 2.501531 1_555
O11 Yb0 2.511231 1_555
O12 Ru2 2.018109 1_655
O12 Ru1 2.018382 1_556
O12 Yb3 2.591837 1_555
O12 Yb0 2.622610 1_555
O13 Ru0 1.953366 1_555
O13 Ru3 1.965598 1_565
O13 Yb2 2.488899 1_555
O13 Yb1 2.489007 1_555
