# generated using pymatgen
data_Tb6Ga19Pt3
_symmetry_space_group_name_H-M   'P 1'
_cell_length_a   4.24154100
_cell_length_b   8.26748677
_cell_length_c   16.55220246
_cell_angle_alpha   108.83084757
_cell_angle_beta   82.63867334
_cell_angle_gamma   104.86363723
_symmetry_Int_Tables_number   1
_chemical_formula_structural   Tb6Ga19Pt3
_chemical_formula_sum   'Tb6 Ga19 Pt3'
_cell_volume   530.33224182
_cell_formula_units_Z   1
loop_
 _symmetry_equiv_pos_site_id
 _symmetry_equiv_pos_as_xyz
  1  'x, y, z'
loop_
 _atom_site_type_symbol
 _atom_site_label
 _atom_site_symmetry_multiplicity
 _atom_site_fract_x
 _atom_site_fract_y
 _atom_site_fract_z
 _atom_site_occupancy
  Tb  Tb0  1  0.25058800  0.74935500  0.24818000  1
  Tb  Tb1  1  0.75123300  0.25150100  0.74903600  1
  Tb  Tb2  1  0.40796200  0.22913100  0.41320600  1
  Tb  Tb3  1  0.91283900  0.73519500  0.90951700  1
  Tb  Tb4  1  0.08647700  0.26322800  0.09027300  1
  Tb  Tb5  1  0.58999900  0.76952500  0.58952600  1
  Ga  Ga0  1  0.17387700  0.80343500  0.45568100  1
  Ga  Ga1  1  0.68217300  0.31691200  0.95256600  1
  Ga  Ga2  1  0.31577200  0.67207700  0.04053300  1
  Ga  Ga3  1  0.82380900  0.19509100  0.54747300  1
  Ga  Ga4  1  0.45612300  0.09702400  0.18477800  1
  Ga  Ga5  1  0.95695700  0.58988600  0.67597200  1
  Ga  Ga6  1  0.04288400  0.41266400  0.32689500  1
  Ga  Ga7  1  0.54823000  0.91455700  0.81809800  1
  Ga  Ga8  1  0.72476000  0.55521700  0.10569700  1
  Ga  Ga9  1  0.23045200  0.06460700  0.60370300  1
  Ga  Ga10  1  0.76725000  0.93354300  0.39904400  1
  Ga  Ga11  1  0.27167300  0.43280400  0.88945700  1
  Ga  Ga12  1  0.60467800  0.44115300  0.23179700  1
  Ga  Ga13  1  0.10740700  0.94381900  0.72900500  1
  Ga  Ga14  1  0.89187300  0.05817000  0.27442400  1
  Ga  Ga15  1  0.39783300  0.56544500  0.76977800  1
  Ga  Ga16  1  0.50797200  0.00847100  0.99252700  1
  Ga  Ga17  1  0.99869100  0.49856100  0.50118000  1
  Ga  Ga18  1  0.88943600  0.88767500  0.10880300  1
  Pt  Pt0  1  0.39090300  0.39245300  0.61064800  1
  Pt  Pt1  1  0.60863700  0.60719500  0.38992200  1
  Pt  Pt2  1  0.10951200  0.11130600  0.89228200  1
loop_
_geom_bond_atom_site_label_1
_geom_bond_atom_site_label_2
_geom_bond_distance
_geom_bond_site_symmetry_2
Ga0 Ga10 2.650978 1_455
Ga0 Ga10 2.650981 1_555
Ga0 Pt1 2.664216 1_455
Ga0 Pt1 2.664220 1_555
Ga0 Ga9 2.681881 1_565
Ga0 Ga17 2.755644 1_455
Ga0 Tb5 3.123901 1_555
Ga0 Tb5 3.123904 1_455
Ga0 Tb0 3.301390 1_555
Ga1 Ga11 2.647424 1_655
Ga1 Ga11 2.647427 1_555
Ga1 Ga8 2.655139 1_556
Ga1 Pt2 2.681952 1_555
Ga1 Pt2 2.681952 1_655
Ga1 Ga16 2.735521 1_555
Ga1 Tb4 3.221556 1_656
Ga1 Tb4 3.221558 1_556
Ga1 Tb1 3.221777 1_555
Ga2 Ga8 2.667992 1_455
Ga2 Ga8 2.667993 1_555
Ga2 Tb3 3.167622 1_554
Ga2 Tb3 3.167623 1_454
Ga2 Tb0 3.275249 1_555
Ga2 Tb4 3.599153 1_555
Ga3 Ga9 2.649348 1_555
Ga3 Ga9 2.649349 1_655
Ga3 Pt0 2.659150 1_555
Ga3 Pt0 2.659153 1_655
Ga3 Tb2 3.129270 1_655
Ga3 Tb2 3.129273 1_555
Ga3 Tb1 3.201447 1_555
Ga4 Tb4 3.148742 1_655
Ga4 Tb4 3.148745 1_555
Ga4 Tb0 3.248150 1_545
Ga4 Tb2 3.575076 1_555
Ga5 Pt0 2.667070 1_555
Ga5 Pt0 2.667073 1_655
Ga5 Tb5 3.131160 1_655
Ga5 Tb5 3.131164 1_555
Ga5 Tb1 3.272889 1_555
Ga6 Pt1 2.647955 1_455
Ga6 Pt1 2.647962 1_555
Ga6 Tb2 3.148481 1_455
Ga6 Tb2 3.148482 1_555
Ga6 Tb0 3.318291 1_555
Ga7 Pt2 2.700807 1_665
Ga7 Pt2 2.700811 1_565
Ga7 Tb3 3.178844 1_555
Ga7 Tb3 3.178847 1_455
Ga7 Tb1 3.221962 1_565
Ga7 Tb5 3.576550 1_555
Ga8 Tb4 3.106193 1_655
Ga8 Tb4 3.106196 1_555
Ga8 Tb0 3.190652 1_555
Ga8 Tb0 3.190654 1_655
Ga9 Pt0 2.587571 1_555
Ga9 Tb5 3.127274 1_545
Ga9 Tb5 3.127277 1_445
Ga9 Tb1 3.203855 1_455
Ga9 Tb1 3.203858 1_555
Ga10 Ga14 2.531621 1_565
Ga10 Pt1 2.566481 1_555
Ga10 Ga3 2.687878 1_565
Ga10 Tb2 3.130270 1_665
Ga10 Tb2 3.130276 1_565
Ga10 Tb0 3.254601 1_555
Ga10 Tb0 3.254601 1_655
Ga11 Ga15 2.498543 1_555
Ga11 Pt2 2.583446 1_555
Ga11 Ga2 2.634022 1_556
Ga11 Tb1 3.144856 1_455
Ga11 Tb1 3.144862 1_555
Ga11 Tb3 3.156516 1_455
Ga11 Tb3 3.156519 1_555
Ga12 Ga8 2.501410 1_555
Ga12 Pt1 2.532804 1_555
Ga12 Ga4 2.621786 1_555
Ga12 Ga6 2.683562 1_655
Ga12 Ga6 2.683565 1_555
Ga12 Tb4 3.149367 1_655
Ga12 Tb4 3.149370 1_555
Ga12 Tb0 3.199174 1_555
Ga12 Tb0 3.199177 1_655
Ga13 Ga9 2.522589 1_565
Ga13 Pt2 2.608734 1_565
Ga13 Ga7 2.626440 1_455
Ga13 Ga7 2.626443 1_555
Ga13 Ga5 2.695820 1_455
Ga13 Tb5 3.122667 1_555
Ga13 Tb5 3.122670 1_455
Ga13 Tb1 3.187739 1_465
Ga13 Tb1 3.187742 1_565
Ga14 Ga18 2.647165 1_545
Ga14 Ga4 2.652558 1_655
Ga14 Ga4 2.652558 1_555
Ga14 Ga6 2.700054 1_655
Ga14 Tb2 3.109927 1_655
Ga14 Tb2 3.109930 1_555
Ga14 Tb0 3.182722 1_545
Ga14 Tb0 3.182725 1_645
Ga15 Pt0 2.559391 1_555
Ga15 Ga7 2.659537 1_555
Ga15 Ga5 2.662519 1_455
Ga15 Ga5 2.662522 1_555
Ga15 Tb3 3.117302 1_455
Ga15 Tb3 3.117305 1_555
Ga15 Tb1 3.223411 1_455
Ga15 Tb1 3.223416 1_555
Ga16 Ga7 2.731737 1_545
Ga16 Pt2 2.949384 1_655
Ga16 Pt2 2.949384 1_555
Ga16 Ga4 3.018266 1_556
Ga16 Ga2 3.021276 1_546
Ga16 Tb4 3.039850 1_656
Ga16 Tb4 3.039853 1_556
Ga16 Tb3 3.053393 1_445
Ga16 Tb3 3.053393 1_545
Ga17 Ga6 2.732901 1_655
Ga17 Ga5 2.738454 1_555
Ga17 Ga3 2.751859 1_555
Ga17 Tb2 3.055789 1_655
Ga17 Tb2 3.055795 1_555
Ga17 Pt0 3.060626 1_555
Ga17 Pt0 3.060627 1_655
Ga17 Tb5 3.064270 1_655
Ga17 Tb5 3.064276 1_555
Ga17 Pt1 3.089646 1_655
Ga17 Pt1 3.089646 1_555
Ga18 Ga8 2.641648 1_555
Ga18 Ga2 2.748428 1_555
Ga18 Ga2 2.748428 1_655
Ga18 Ga4 2.754933 1_665
Ga18 Ga4 2.754933 1_565
Ga18 Tb4 3.106544 1_665
Ga18 Tb3 3.126631 1_554
Ga18 Tb0 3.533250 1_555
Ga18 Tb0 3.533253 1_655
Pt0 Tb2 3.106408 1_555
Pt0 Tb5 3.135458 1_555
Pt0 Tb1 3.531971 1_455
Pt0 Tb1 3.531971 1_555
Pt1 Tb5 3.138178 1_555
Pt1 Tb2 3.157739 1_555
Pt1 Tb0 3.577841 1_655
Pt1 Tb0 3.577841 1_555
Pt2 Tb3 3.102755 1_445
Pt2 Tb4 3.106569 1_556
