# generated using pymatgen
data_K3Na(RuO4)2
_symmetry_space_group_name_H-M   'P 1'
_cell_length_a   6.08125944
_cell_length_b   6.08125944
_cell_length_c   7.80113100
_cell_angle_alpha   90.00000000
_cell_angle_beta   90.00000000
_cell_angle_gamma   119.99999390
_symmetry_Int_Tables_number   1
_chemical_formula_structural   K3Na(RuO4)2
_chemical_formula_sum   'K3 Na1 Ru2 O8'
_cell_volume   249.84766367
_cell_formula_units_Z   1
loop_
 _symmetry_equiv_pos_site_id
 _symmetry_equiv_pos_as_xyz
  1  'x, y, z'
loop_
 _atom_site_type_symbol
 _atom_site_label
 _atom_site_symmetry_multiplicity
 _atom_site_fract_x
 _atom_site_fract_y
 _atom_site_fract_z
 _atom_site_occupancy
  K  K0  1  0.66666700  0.33333300  0.34565900  1
  K  K1  1  0.00000000  0.00000000  0.00000000  1
  K  K2  1  0.33333300  0.66666700  0.65434100  1
  Na  Na0  1  0.00000000  0.00000000  0.50000000  1
  Ru  Ru0  1  0.66666700  0.33333300  0.78654100  1
  Ru  Ru1  1  0.33333300  0.66666700  0.21345900  1
  O  O0  1  0.17556200  0.35112400  0.30434100  1
  O  O1  1  0.64887600  0.82443800  0.30434100  1
  O  O2  1  0.17556200  0.82443800  0.30434100  1
  O  O3  1  0.82443800  0.64887600  0.69565900  1
  O  O4  1  0.82443800  0.17556200  0.69565900  1
  O  O5  1  0.35112400  0.17556200  0.69565900  1
  O  O6  1  0.66666700  0.33333300  0.01351300  1
  O  O7  1  0.33333300  0.66666700  0.98648700  1
loop_
_geom_bond_atom_site_label_1
_geom_bond_atom_site_label_2
_geom_bond_distance
_geom_bond_site_symmetry_2
K0 O6 2.591114 1_555
K0 O1 3.059099 1_545
K0 O0 3.059099 1_655
K0 O2 3.059102 1_655
K0 O2 3.059102 1_545
K0 O1 3.059105 1_555
K0 O0 3.059105 1_555
K0 O4 3.196353 1_555
K0 O3 3.196356 1_555
K0 O5 3.196356 1_555
K1 O4 3.009385 1_454
K1 O2 3.009385 1_545
K1 O0 3.009385 1_555
K1 O1 3.009385 1_445
K1 O5 3.009385 1_554
K1 O3 3.009385 1_444
K2 O7 2.591114 1_555
K2 O5 3.059099 1_565
K2 O3 3.059099 1_455
K2 O4 3.059102 1_565
K2 O4 3.059102 1_455
K2 O3 3.059105 1_555
K2 O5 3.059105 1_555
K2 O2 3.196353 1_555
K2 O1 3.196356 1_555
K2 O0 3.196356 1_555
Na0 O4 2.397777 1_455
Na0 O2 2.397777 1_545
Na0 O0 2.397777 1_555
Na0 O5 2.397777 1_555
Na0 O1 2.397777 1_445
Na0 O3 2.397777 1_445
O0 Ru1 1.806734 1_555
O1 Ru1 1.806734 1_555
O2 Ru1 1.806729 1_555
O3 Ru0 1.806734 1_555
O4 Ru0 1.806729 1_555
O5 Ru0 1.806734 1_555
O6 Ru0 1.770638 1_554
O7 Ru1 1.770638 1_556
