# generated using pymatgen
data_Te3MoWS
_symmetry_space_group_name_H-M   'P 1'
_cell_length_a   3.45138467
_cell_length_b   3.45138467
_cell_length_c   39.39430500
_cell_angle_alpha   90.00000000
_cell_angle_beta   90.00000000
_cell_angle_gamma   120.00001291
_symmetry_Int_Tables_number   1
_chemical_formula_structural   Te3MoWS
_chemical_formula_sum   'Te6 Mo2 W2 S2'
_cell_volume   406.39724075
_cell_formula_units_Z   2
loop_
 _symmetry_equiv_pos_site_id
 _symmetry_equiv_pos_as_xyz
  1  'x, y, z'
loop_
 _atom_site_type_symbol
 _atom_site_label
 _atom_site_symmetry_multiplicity
 _atom_site_fract_x
 _atom_site_fract_y
 _atom_site_fract_z
 _atom_site_occupancy
  Te  Te0  1  0.00000000  0.00000000  0.32882100  1
  Te  Te1  1  0.33333300  0.66666700  0.04688700  1
  Te  Te2  1  0.33333300  0.66666700  0.42242500  1
  Te  Te3  1  0.33333300  0.66666700  0.14092500  1
  Te  Te4  1  0.33333300  0.66666700  0.51701300  1
  Te  Te5  1  0.00000000  0.00000000  0.23480900  1
  Mo  Mo0  1  0.00000000  0.00000000  0.09385500  1
  Mo  Mo1  1  0.33333300  0.66666700  0.28173800  1
  W  W0  1  0.00000000  0.00000000  0.46968300  1
  W  W1  1  0.33333300  0.66666700  0.65752200  1
  S  S0  1  0.00000000  0.00000000  0.69545700  1
  S  S1  1  0.00000000  0.00000000  0.61961500  1
loop_
_geom_bond_atom_site_label_1
_geom_bond_atom_site_label_2
_geom_bond_distance
_geom_bond_site_symmetry_2
Te2 W0 2.727011 1_565
Te2 W0 2.727013 1_665
Te2 W0 2.727013 1_555
Te4 W0 2.728948 1_565
Te4 W0 2.728950 1_555
Te4 W0 2.728950 1_665
Mo0 Te1 2.719225 1_545
Mo0 Te1 2.719227 1_555
Mo0 Te1 2.719227 1_445
Mo0 Te3 2.721961 1_545
Mo0 Te3 2.721962 1_445
Mo0 Te3 2.721962 1_555
Mo1 Te5 2.718180 1_565
Mo1 Te5 2.718182 1_665
Mo1 Te5 2.718182 1_555
Mo1 Te0 2.722309 1_565
Mo1 Te0 2.722311 1_665
Mo1 Te0 2.722311 1_555
S0 W1 2.490779 1_545
S0 W1 2.490781 1_555
S0 W1 2.490781 1_445
S1 W1 2.490117 1_545
S1 W1 2.490119 1_445
S1 W1 2.490119 1_555
