# generated using pymatgen
data_YCu3(MoO3)4
_symmetry_space_group_name_H-M   'P 1'
_cell_length_a   6.67687747
_cell_length_b   6.67218359
_cell_length_c   6.67621218
_cell_angle_alpha   109.47713902
_cell_angle_beta   109.41136408
_cell_angle_gamma   109.48576272
_symmetry_Int_Tables_number   1
_chemical_formula_structural   YCu3(MoO3)4
_chemical_formula_sum   'Y1 Cu3 Mo4 O12'
_cell_volume   229.06590089
_cell_formula_units_Z   1
loop_
 _symmetry_equiv_pos_site_id
 _symmetry_equiv_pos_as_xyz
  1  'x, y, z'
loop_
 _atom_site_type_symbol
 _atom_site_label
 _atom_site_symmetry_multiplicity
 _atom_site_fract_x
 _atom_site_fract_y
 _atom_site_fract_z
 _atom_site_occupancy
  Y  Y0  1  0.00000400  0.00000100  0.99999600  1
  Cu  Cu0  1  0.49999900  0.00000000  0.50000100  1
  Cu  Cu1  1  0.50000000  0.50000000  0.99999900  1
  Cu  Cu2  1  0.00000000  0.50000100  0.50000100  1
  Mo  Mo0  1  0.50000100  0.00000000  0.00000100  1
  Mo  Mo1  1  0.99999900  0.00000000  0.49999900  1
  Mo  Mo2  1  0.00000000  0.50000000  0.00000100  1
  Mo  Mo3  1  0.49999900  0.49999900  0.49999900  1
  O  O0  1  0.83481900  0.29793300  0.13339900  1
  O  O1  1  0.16518100  0.70207000  0.86660300  1
  O  O2  1  0.83769300  0.70491900  0.53088100  1
  O  O3  1  0.29454700  0.46784300  0.16310200  1
  O  O4  1  0.47093500  0.16368700  0.29558800  1
  O  O5  1  0.13416500  0.83561000  0.29722800  1
  O  O6  1  0.70317100  0.86695700  0.16536900  1
  O  O7  1  0.52906300  0.83631100  0.70441100  1
  O  O8  1  0.16230700  0.29508400  0.46912300  1
  O  O9  1  0.70545300  0.53215400  0.83689500  1
  O  O10  1  0.86583400  0.16438900  0.70277300  1
  O  O11  1  0.29682800  0.13304200  0.83463000  1
loop_
_geom_bond_atom_site_label_1
_geom_bond_atom_site_label_2
_geom_bond_distance
_geom_bond_site_symmetry_2
Cu0 O5 2.006637 1_545
Cu0 O10 2.006642 1_555
Cu0 O7 2.012992 1_545
Cu0 O4 2.012998 1_555
Cu1 O6 2.009937 1_556
Cu1 O11 2.009943 1_555
Cu1 O3 2.016404 1_556
Cu1 O9 2.016408 1_555
Cu2 O8 2.008807 1_555
Cu2 O2 2.008813 1_455
Cu2 O0 2.009389 1_455
Cu2 O1 2.009389 1_555
Mo0 O4 2.020763 1_555
Mo0 O7 2.020767 1_544
Mo0 O1 2.067281 1_544
Mo0 O0 2.067282 1_555
Mo0 O6 2.075693 1_545
Mo0 O11 2.075709 1_554
Mo1 O8 2.022121 1_655
Mo1 O2 2.022126 1_545
Mo1 O6 2.065829 1_545
Mo1 O11 2.065838 1_655
Mo1 O5 2.075947 1_645
Mo1 O10 2.075951 1_555
Mo2 O9 2.028131 1_454
Mo2 O3 2.028135 1_555
Mo2 O5 2.066733 1_555
Mo2 O10 2.066738 1_454
Mo2 O0 2.070951 1_455
Mo2 O1 2.070963 1_554
Mo3 O3 2.101828 1_555
Mo3 O9 2.101829 1_555
Mo3 O4 2.103956 1_555
Mo3 O7 2.103958 1_555
Mo3 O8 2.107629 1_555
Mo3 O2 2.107629 1_555
O0 Y0 2.626060 1_654
O1 Y0 2.625998 1_565
O2 Y0 2.658588 1_665
O3 Y0 2.647942 1_554
O4 Y0 2.668576 1_554
O5 Y0 2.620818 1_564
O6 Y0 2.620928 1_664
O7 Y0 2.668613 1_665
O8 Y0 2.658665 1_554
O9 Y0 2.647987 1_665
O10 Y0 2.620769 1_655
O11 Y0 2.620840 1_555
