# generated using pymatgen
data_Li4Mn3CoO8
_symmetry_space_group_name_H-M   'P 1'
_cell_length_a   2.88293100
_cell_length_b   5.38258000
_cell_length_c   9.89850986
_cell_angle_alpha   85.03532056
_cell_angle_beta   90.00000000
_cell_angle_gamma   90.00000000
_symmetry_Int_Tables_number   1
_chemical_formula_structural   Li4Mn3CoO8
_chemical_formula_sum   'Li4 Mn3 Co1 O8'
_cell_volume   153.02490815
_cell_formula_units_Z   1
loop_
 _symmetry_equiv_pos_site_id
 _symmetry_equiv_pos_as_xyz
  1  'x, y, z'
loop_
 _atom_site_type_symbol
 _atom_site_label
 _atom_site_symmetry_multiplicity
 _atom_site_fract_x
 _atom_site_fract_y
 _atom_site_fract_z
 _atom_site_occupancy
  Li  Li0  1  0.50000000  0.50000000  0.00000000  1
  Li  Li1  1  0.00000000  0.75315500  0.75109400  1
  Li  Li2  1  0.50000000  0.00000000  0.50000000  1
  Li  Li3  1  0.00000000  0.24684500  0.24890600  1
  Mn  Mn0  1  0.50000000  0.23491200  0.75367700  1
  Mn  Mn1  1  0.00000000  0.50000000  0.50000000  1
  Mn  Mn2  1  0.50000000  0.76508800  0.24632300  1
  Co  Co0  1  0.00000000  0.00000000  0.00000000  1
  O  O0  1  0.50000000  0.12982400  0.11352100  1
  O  O1  1  0.00000000  0.34114000  0.87122100  1
  O  O2  1  0.50000000  0.61385800  0.61446100  1
  O  O3  1  0.00000000  0.87449600  0.36194000  1
  O  O4  1  0.50000000  0.87017600  0.88647900  1
  O  O5  1  0.00000000  0.12550400  0.63806000  1
  O  O6  1  0.50000000  0.38614200  0.38553900  1
  O  O7  1  0.00000000  0.65886000  0.12877900  1
loop_
_geom_bond_atom_site_label_1
_geom_bond_atom_site_label_2
_geom_bond_distance
_geom_bond_site_symmetry_2
Li0 O7 2.150011 1_555
Li0 O1 2.150011 1_554
Li0 O7 2.150011 1_655
Li0 O1 2.150011 1_654
Li0 O4 2.201185 1_554
Li0 O0 2.201185 1_555
Li1 O4 2.101561 1_555
Li1 O4 2.101561 1_455
Li1 O2 2.155147 1_455
Li1 O2 2.155147 1_555
Li1 O5 2.209196 1_565
Li1 O1 2.423983 1_555
Li2 O5 2.135772 1_655
Li2 O5 2.135772 1_555
Li2 O3 2.135772 1_545
Li2 O3 2.135772 1_645
Li2 O6 2.279474 1_555
Li2 O2 2.279474 1_545
Li3 O0 2.101561 1_455
Li3 O0 2.101561 1_555
Li3 O6 2.155147 1_455
Li3 O6 2.155147 1_555
Li3 O3 2.209196 1_545
Li3 O7 2.423983 1_555
Mn0 O5 1.962398 1_655
Mn0 O5 1.962398 1_555
Mn0 O1 1.968162 1_555
Mn0 O1 1.968162 1_655
Mn0 O4 2.266180 1_545
Mn0 O2 2.360694 1_555
Mn1 O6 1.963992 1_555
Mn1 O6 1.963992 1_455
Mn1 O2 1.963992 1_455
Mn1 O2 1.963992 1_555
Mn1 O5 2.335388 1_555
Mn1 O3 2.335388 1_555
Mn2 O3 1.962398 1_655
Mn2 O3 1.962398 1_555
Mn2 O7 1.968162 1_555
Mn2 O7 1.968162 1_655
Mn2 O0 2.266180 1_565
Mn2 O6 2.360694 1_555
Co0 O0 1.991159 1_555
Co0 O0 1.991159 1_455
Co0 O4 1.991159 1_444
Co0 O4 1.991159 1_544
Co0 O1 2.142770 1_554
Co0 O7 2.142770 1_545
