# generated using pymatgen
data_Sn2Bi2O7
_symmetry_space_group_name_H-M   'P 1'
_cell_length_a   7.65048084
_cell_length_b   7.65048084
_cell_length_c   37.48751100
_cell_angle_alpha   90.00000000
_cell_angle_beta   90.00000000
_cell_angle_gamma   120.00000726
_symmetry_Int_Tables_number   1
_chemical_formula_structural   Sn2Bi2O7
_chemical_formula_sum   'Sn24 Bi24 O84'
_cell_volume   1900.17968065
_cell_formula_units_Z   12
loop_
 _symmetry_equiv_pos_site_id
 _symmetry_equiv_pos_as_xyz
  1  'x, y, z'
loop_
 _atom_site_type_symbol
 _atom_site_label
 _atom_site_symmetry_multiplicity
 _atom_site_fract_x
 _atom_site_fract_y
 _atom_site_fract_z
 _atom_site_occupancy
  Sn  Sn0  1  0.99883700  0.83489400  0.34632100  1
  Sn  Sn1  1  0.16510600  0.16394300  0.67965400  1
  Sn  Sn2  1  0.83605700  0.00116300  0.01298800  1
  Sn  Sn3  1  0.50346800  0.83604400  0.34517700  1
  Sn  Sn4  1  0.16395600  0.66742500  0.67851000  1
  Sn  Sn5  1  0.33257500  0.49653200  0.01184400  1
  Sn  Sn6  1  0.49971900  0.33105500  0.34577000  1
  Sn  Sn7  1  0.66894500  0.16866300  0.67910300  1
  Sn  Sn8  1  0.83133700  0.50028100  0.01243700  1
  Sn  Sn9  1  0.33352000  0.00029200  0.26227600  1
  Sn  Sn10  1  0.99970800  0.33322800  0.59561000  1
  Sn  Sn11  1  0.66677200  0.66648000  0.92894300  1
  Sn  Sn12  1  0.00322900  0.83445700  0.84659800  1
  Sn  Sn13  1  0.16554300  0.16877200  0.17993200  1
  Sn  Sn14  1  0.83122800  0.99677100  0.51326500  1
  Sn  Sn15  1  0.49878200  0.83372000  0.84502000  1
  Sn  Sn16  1  0.16628000  0.66506200  0.17835300  1
  Sn  Sn17  1  0.33493800  0.50121800  0.51168600  1
  Sn  Sn18  1  0.50018900  0.33579700  0.84646400  1
  Sn  Sn19  1  0.66420300  0.16439200  0.17979800  1
  Sn  Sn20  1  0.83560800  0.49981100  0.51313100  1
  Sn  Sn21  1  0.33147800  0.99967800  0.76230500  1
  Sn  Sn22  1  0.00032200  0.33180100  0.09563800  1
  Sn  Sn23  1  0.66819900  0.66852200  0.42897200  1
  Bi  Bi0  1  0.02024700  0.37316900  0.34626300  1
  Bi  Bi1  1  0.62683100  0.64707800  0.67959600  1
  Bi  Bi2  1  0.35292200  0.97975300  0.01292900  1
  Bi  Bi3  1  0.87225300  0.99925400  0.26515900  1
  Bi  Bi4  1  0.00074600  0.87299900  0.59849200  1
  Bi  Bi5  1  0.12700100  0.12774700  0.93182600  1
  Bi  Bi6  1  0.32998000  0.53946700  0.25959300  1
  Bi  Bi7  1  0.46053300  0.79051200  0.59292600  1
  Bi  Bi8  1  0.20948800  0.67002000  0.92625900  1
  Bi  Bi9  1  0.79063000  0.45992700  0.26449900  1
  Bi  Bi10  1  0.54007300  0.33070300  0.59783200  1
  Bi  Bi11  1  0.66929700  0.20937000  0.93116500  1
  Bi  Bi12  1  0.96660400  0.29815200  0.84633800  1
  Bi  Bi13  1  0.70184800  0.66845100  0.17967100  1
  Bi  Bi14  1  0.33154900  0.03339600  0.51300400  1
  Bi  Bi15  1  0.79751800  0.00768300  0.75878400  1
  Bi  Bi16  1  0.99231700  0.78983500  0.09211700  1
  Bi  Bi17  1  0.21016500  0.20248200  0.42545100  1
  Bi  Bi18  1  0.33929700  0.46626100  0.76751000  1
  Bi  Bi19  1  0.53373900  0.87303600  0.10084300  1
  Bi  Bi20  1  0.12696400  0.66070300  0.43417700  1
  Bi  Bi21  1  0.87559100  0.54370100  0.76271700  1
  Bi  Bi22  1  0.45629900  0.33189000  0.09605100  1
  Bi  Bi23  1  0.66811000  0.12440900  0.42938400  1
  O  O0  1  0.00867600  0.34515400  0.28450000  1
  O  O1  1  0.65484600  0.66352300  0.61783300  1
  O  O2  1  0.33647700  0.99132400  0.95116700  1
  O  O3  1  0.00354200  0.34147400  0.40984800  1
  O  O4  1  0.65852600  0.66206700  0.74318100  1
  O  O5  1  0.33793300  0.99645800  0.07651400  1
  O  O6  1  0.99004500  0.32819100  0.78444400  1
  O  O7  1  0.67180900  0.66185400  0.11777700  1
  O  O8  1  0.33814600  0.00995500  0.45111100  1
  O  O9  1  0.99650100  0.32380900  0.91001600  1
  O  O10  1  0.67619100  0.67269200  0.24335000  1
  O  O11  1  0.32730800  0.00349900  0.57668300  1
  O  O12  1  0.38749600  0.52588100  0.33389600  1
  O  O13  1  0.47411900  0.86161400  0.66722900  1
  O  O14  1  0.13838600  0.61250400  0.00056300  1
  O  O15  1  0.79904000  0.92877600  0.33025300  1
  O  O16  1  0.07122400  0.87026400  0.66358700  1
  O  O17  1  0.12973600  0.20096000  0.99692000  1
  O  O18  1  0.80558700  0.52817900  0.33185200  1
  O  O19  1  0.47182100  0.27740800  0.66518500  1
  O  O20  1  0.72259200  0.19441300  0.99851900  1
  O  O21  1  0.48267900  0.26942100  0.29127600  1
  O  O22  1  0.73057900  0.21325800  0.62460900  1
  O  O23  1  0.78674200  0.51732100  0.95794300  1
  O  O24  1  0.45397000  0.85019800  0.29042100  1
  O  O25  1  0.14980200  0.60377200  0.62375400  1
  O  O26  1  0.39622800  0.54603000  0.95708700  1
  O  O27  1  0.06714100  0.88286100  0.29155200  1
  O  O28  1  0.11713900  0.18428000  0.62488600  1
  O  O29  1  0.81572000  0.93285900  0.95821900  1
  O  O30  1  0.21433900  0.73402500  0.23296400  1
  O  O31  1  0.26597500  0.48031400  0.56629800  1
  O  O32  1  0.51968600  0.78566100  0.89963100  1
  O  O33  1  0.18610200  0.12454200  0.23460400  1
  O  O34  1  0.87545800  0.06155900  0.56793700  1
  O  O35  1  0.93844100  0.81389800  0.90127000  1
  O  O36  1  0.60443400  0.15073900  0.23430700  1
  O  O37  1  0.84926100  0.45369500  0.56764000  1
  O  O38  1  0.54630500  0.39556600  0.90097300  1
  O  O39  1  0.93754000  0.78839300  0.40077200  1
  O  O40  1  0.21160700  0.14914800  0.73410500  1
  O  O41  1  0.85085200  0.06246000  0.06743900  1
  O  O42  1  0.54801500  0.81696900  0.40016000  1
  O  O43  1  0.18303100  0.73104600  0.73349300  1
  O  O44  1  0.26895400  0.45198500  0.06682700  1
  O  O45  1  0.52277500  0.39889300  0.40029800  1
  O  O46  1  0.60110700  0.12388200  0.73363100  1
  O  O47  1  0.87611800  0.47722500  0.06696500  1
  O  O48  1  0.40526600  0.53767600  0.82995700  1
  O  O49  1  0.46232400  0.86759000  0.16329000  1
  O  O50  1  0.13241000  0.59473400  0.49662400  1
  O  O51  1  0.80853400  0.94902500  0.83469000  1
  O  O52  1  0.05097500  0.85950900  0.16802400  1
  O  O53  1  0.14049100  0.19146600  0.50135700  1
  O  O54  1  0.80290300  0.53234900  0.83287700  1
  O  O55  1  0.46765100  0.27055400  0.16621000  1
  O  O56  1  0.72944600  0.19709700  0.49954300  1
  O  O57  1  0.45038300  0.26652000  0.79170200  1
  O  O58  1  0.73348000  0.18386300  0.12503500  1
  O  O59  1  0.81613700  0.54961700  0.45836800  1
  O  O60  1  0.48412100  0.88157300  0.79048100  1
  O  O61  1  0.11842700  0.60254800  0.12381500  1
  O  O62  1  0.39745200  0.51587900  0.45714800  1
  O  O63  1  0.06521500  0.84867100  0.79166900  1
  O  O64  1  0.15132900  0.21654400  0.12500200  1
  O  O65  1  0.78345600  0.93478500  0.45833600  1
  O  O66  1  0.53067700  0.39574300  0.02599000  1
  O  O67  1  0.60425700  0.13493400  0.35932400  1
  O  O68  1  0.86506600  0.46932300  0.69265700  1
  O  O69  1  0.85982400  0.05776000  0.19247300  1
  O  O70  1  0.94224000  0.80206400  0.52580700  1
  O  O71  1  0.19793600  0.14017600  0.85914000  1
  O  O72  1  0.26315700  0.46734400  0.19406900  1
  O  O73  1  0.53265600  0.79581300  0.52740300  1
  O  O74  1  0.20418700  0.73684300  0.86073600  1
  O  O75  1  0.93343900  0.80010800  0.02783800  1
  O  O76  1  0.19989200  0.13333100  0.36117100  1
  O  O77  1  0.86666900  0.06656100  0.69450500  1
  O  O78  1  0.85946300  0.47286500  0.19125600  1
  O  O79  1  0.52713500  0.38659800  0.52459000  1
  O  O80  1  0.61340200  0.14053700  0.85792300  1
  O  O81  1  0.52717100  0.80650600  0.02339200  1
  O  O82  1  0.19349400  0.72066500  0.35672500  1
  O  O83  1  0.27933500  0.47282900  0.69005900  1
loop_
_geom_bond_atom_site_label_1
_geom_bond_atom_site_label_2
_geom_bond_distance
_geom_bond_site_symmetry_2
Bi0 O0 2.322844 1_555
Bi0 O82 2.335507 1_555
Bi0 O3 2.392885 1_555
Bi0 O12 2.488249 1_555
Bi0 O18 2.518482 1_455
Bi1 O1 2.322844 1_555
Bi1 O83 2.335513 1_555
Bi1 O4 2.392885 1_555
Bi1 O13 2.488242 1_555
Bi1 O19 2.518482 1_555
Bi2 O2 2.322807 1_554
Bi2 O81 2.335514 1_555
Bi2 O5 2.392884 1_555
Bi2 O14 2.488241 1_555
Bi2 O20 2.518474 1_564
Bi3 O27 2.307068 1_655
Bi3 O10 2.326509 1_555
Bi3 O33 2.386323 1_665
Bi3 O0 2.419910 1_665
Bi3 O15 2.501416 1_555
Bi3 O69 2.770664 1_565
Bi4 O28 2.307084 1_565
Bi4 O11 2.326509 1_565
Bi4 O34 2.386317 1_465
Bi4 O1 2.419909 1_455
Bi4 O16 2.501452 1_555
Bi4 O70 2.770627 1_455
Bi5 O29 2.307067 1_445
Bi5 O9 2.326523 1_455
Bi5 O35 2.386340 1_445
Bi5 O2 2.419904 1_545
Bi5 O17 2.501416 1_555
Bi5 O71 2.770664 1_555
Bi6 O30 2.304691 1_555
Bi6 O0 2.338786 1_555
Bi6 O24 2.373107 1_555
Bi6 O10 2.392800 1_555
Bi6 O72 2.513422 1_555
Bi7 O31 2.304669 1_555
Bi7 O1 2.338775 1_555
Bi7 O25 2.373106 1_555
Bi7 O11 2.392807 1_565
Bi7 O73 2.513385 1_555
Bi8 O32 2.304668 1_555
Bi8 O2 2.338802 1_555
Bi8 O26 2.373101 1_555
Bi8 O9 2.392801 1_455
Bi8 O74 2.513387 1_555
Bi9 O21 2.291001 1_555
Bi9 O10 2.338760 1_555
Bi9 O36 2.352859 1_555
Bi9 O0 2.362348 1_655
Bi9 O18 2.569260 1_555
Bi9 O78 2.788161 1_555
Bi10 O22 2.291001 1_555
Bi10 O11 2.338760 1_555
Bi10 O37 2.352859 1_555
Bi10 O1 2.362355 1_555
Bi10 O19 2.569260 1_555
Bi10 O79 2.788124 1_555
Bi11 O23 2.291017 1_555
Bi11 O9 2.338760 1_555
Bi11 O38 2.352859 1_555
Bi11 O2 2.362365 1_545
Bi11 O20 2.569297 1_555
Bi11 O80 2.788124 1_555
Bi12 O6 2.329663 1_555
Bi12 O51 2.357377 1_545
Bi12 O80 2.384529 1_555
Bi12 O9 2.396735 1_555
Bi12 O71 2.638594 1_655
Bi12 O54 2.697651 1_555
Bi13 O7 2.329663 1_555
Bi13 O52 2.357371 1_655
Bi13 O78 2.384523 1_555
Bi13 O10 2.396772 1_555
Bi13 O69 2.638601 1_565
Bi13 O55 2.697644 1_555
Bi14 O8 2.329625 1_555
Bi14 O53 2.357377 1_555
Bi14 O79 2.384536 1_555
Bi14 O11 2.396772 1_555
Bi14 O70 2.638607 1_445
Bi14 O56 2.697644 1_555
Bi15 O46 2.296328 1_555
Bi15 O6 2.344279 1_555
Bi15 O4 2.377524 1_545
Bi15 O60 2.403785 1_545
Bi15 O77 2.459866 1_555
Bi16 O47 2.296313 1_555
Bi16 O7 2.344279 1_555
Bi16 O5 2.377523 1_655
Bi16 O61 2.403804 1_655
Bi16 O75 2.459866 1_555
Bi17 O45 2.296328 1_555
Bi17 O8 2.344280 1_555
Bi17 O3 2.377517 1_555
Bi17 O62 2.403785 1_555
Bi17 O76 2.459902 1_555
Bi18 O57 2.275642 1_555
Bi18 O4 2.319898 1_555
Bi18 O48 2.399517 1_555
Bi18 O6 2.415714 1_455
Bi18 O40 2.457294 1_555
Bi19 O58 2.275642 1_565
Bi19 O5 2.319893 1_555
Bi19 O49 2.399517 1_555
Bi19 O7 2.415714 1_555
Bi19 O41 2.457276 1_565
Bi20 O59 2.275627 1_455
Bi20 O3 2.319899 1_555
Bi20 O50 2.399517 1_555
Bi20 O8 2.415714 1_565
Bi20 O39 2.457300 1_455
Bi21 O63 2.311156 1_655
Bi21 O43 2.327128 1_655
Bi21 O6 2.364786 1_555
Bi21 O4 2.370223 1_555
Bi21 O68 2.679982 1_555
Bi21 O54 2.680680 1_555
Bi22 O64 2.311138 1_555
Bi22 O44 2.327128 1_555
Bi22 O7 2.364772 1_555
Bi22 O5 2.370241 1_545
Bi22 O66 2.680019 1_555
Bi22 O55 2.680643 1_555
Bi23 O65 2.311156 1_545
Bi23 O42 2.327128 1_545
Bi23 O8 2.364785 1_555
Bi23 O3 2.370228 1_655
Bi23 O67 2.679982 1_555
Bi23 O56 2.680643 1_555
O12 Sn6 2.106320 1_555
O12 Sn3 2.119279 1_555
O13 Sn7 2.106320 1_565
O13 Sn4 2.119277 1_555
O14 Sn8 2.106320 1_455
O14 Sn5 2.119265 1_555
O15 Sn0 2.076778 1_555
O15 Sn3 2.079759 1_555
O16 Sn1 2.076767 1_565
O16 Sn4 2.079742 1_555
O17 Sn2 2.076777 1_456
O17 Sn5 2.079758 1_556
O18 Sn6 2.119752 1_555
O18 Sn0 2.125313 1_555
O19 Sn7 2.119758 1_555
O19 Sn1 2.125313 1_555
O20 Sn8 2.119751 1_556
O20 Sn2 2.125314 1_556
O21 Sn6 2.085924 1_555
O21 Sn9 2.091373 1_555
O22 Sn7 2.085924 1_555
O22 Sn10 2.091354 1_555
O23 Sn8 2.085925 1_556
O23 Sn11 2.091373 1_555
O24 Sn9 2.083049 1_565
O24 Sn3 2.099898 1_555
O25 Sn10 2.083030 1_455
O25 Sn4 2.099899 1_555
O26 Sn11 2.083030 1_555
O26 Sn5 2.099936 1_556
O27 Sn9 2.081794 1_565
O27 Sn0 2.105092 1_455
O28 Sn10 2.081794 1_455
O28 Sn1 2.105055 1_555
O29 Sn11 2.081794 1_555
O29 Sn2 2.105092 1_566
O30 Sn9 2.081123 1_565
O30 Sn16 2.100170 1_555
O31 Sn10 2.081123 1_455
O31 Sn17 2.100206 1_555
O32 Sn11 2.081123 1_555
O32 Sn15 2.100170 1_555
O33 Sn9 2.079360 1_555
O33 Sn13 2.095945 1_555
O34 Sn10 2.079385 1_555
O34 Sn14 2.095943 1_545
O35 Sn11 2.079385 1_555
O35 Sn12 2.095943 1_655
O36 Sn9 2.081898 1_555
O36 Sn19 2.085125 1_555
O37 Sn10 2.081918 1_555
O37 Sn20 2.085125 1_555
O38 Sn11 2.081917 1_555
O38 Sn18 2.085125 1_555
O39 Sn23 2.077233 1_555
O39 Sn0 2.084772 1_555
O40 Sn21 2.077233 1_545
O40 Sn1 2.084771 1_555
O41 Sn22 2.077214 1_655
O41 Sn2 2.084773 1_555
O42 Sn23 2.084714 1_555
O42 Sn3 2.106093 1_555
O43 Sn21 2.084720 1_555
O43 Sn4 2.106091 1_555
O44 Sn22 2.084701 1_555
O44 Sn5 2.106091 1_555
O45 Sn23 2.086472 1_555
O45 Sn6 2.094599 1_555
O46 Sn21 2.086472 1_545
O46 Sn7 2.094599 1_555
O47 Sn22 2.086447 1_655
O47 Sn8 2.094597 1_555
O48 Sn15 2.083267 1_555
O48 Sn18 2.101736 1_555
O49 Sn16 2.083267 1_555
O49 Sn19 2.101747 1_565
O50 Sn17 2.083257 1_555
O50 Sn20 2.101736 1_455
O51 Sn15 2.110308 1_555
O51 Sn12 2.119369 1_655
O52 Sn16 2.110302 1_555
O52 Sn13 2.119369 1_565
O53 Sn17 2.110301 1_555
O53 Sn14 2.119369 1_445
O54 Sn18 2.097988 1_555
O54 Sn12 2.100749 1_655
O55 Sn19 2.097997 1_555
O55 Sn13 2.100759 1_555
O56 Sn20 2.097997 1_555
O56 Sn14 2.100759 1_545
O57 Sn21 2.086260 1_545
O57 Sn18 2.106776 1_555
O58 Sn22 2.086260 1_655
O58 Sn19 2.106812 1_555
O59 Sn23 2.086246 1_555
O59 Sn20 2.106812 1_555
O60 Sn21 2.085903 1_555
O60 Sn15 2.089924 1_555
O61 Sn22 2.085916 1_555
O61 Sn16 2.089887 1_555
O62 Sn23 2.085897 1_555
O62 Sn17 2.089887 1_555
O63 Sn21 2.083884 1_555
O63 Sn12 2.103627 1_555
O64 Sn22 2.083890 1_555
O64 Sn13 2.103664 1_555
O65 Sn23 2.083884 1_555
O65 Sn14 2.103627 1_555
O66 Sn5 2.083601 1_555
O66 Sn8 2.085433 1_555
O67 Sn3 2.083603 1_545
O67 Sn6 2.085436 1_555
O68 Sn4 2.083605 1_655
O68 Sn7 2.085441 1_555
O69 Sn19 2.086139 1_555
O69 Sn13 2.103890 1_655
O70 Sn20 2.086147 1_555
O70 Sn14 2.103898 1_555
O71 Sn18 2.086147 1_555
O71 Sn12 2.103898 1_545
O72 Sn16 2.074991 1_555
O72 Sn13 2.085756 1_555
O73 Sn17 2.075001 1_555
O73 Sn14 2.085765 1_555
O74 Sn15 2.074991 1_555
O74 Sn12 2.085765 1_555
O75 Sn2 2.092099 1_565
O75 Sn8 2.100793 1_555
O76 Sn0 2.092099 1_445
O76 Sn6 2.100792 1_555
O77 Sn1 2.092109 1_655
O77 Sn7 2.100797 1_555
O78 Sn16 2.110541 1_655
O78 Sn19 2.111890 1_555
O79 Sn17 2.110549 1_555
O79 Sn20 2.111898 1_555
O80 Sn15 2.110541 1_545
O80 Sn18 2.111898 1_555
O81 Sn2 2.105954 1_565
O81 Sn5 2.120628 1_555
O82 Sn0 2.105954 1_455
O82 Sn3 2.120627 1_555
O83 Sn1 2.105961 1_555
O83 Sn4 2.120642 1_555
