# generated using pymatgen
data_FeC4S2N3O5
_symmetry_space_group_name_H-M   'P 1'
_cell_length_a   6.52575800
_cell_length_b   8.51121311
_cell_length_c   11.83125045
_cell_angle_alpha   108.69968879
_cell_angle_beta   91.46464563
_cell_angle_gamma   93.03132284
_symmetry_Int_Tables_number   1
_chemical_formula_structural   FeC4S2N3O5
_chemical_formula_sum   'Fe2 C8 S4 N6 O10'
_cell_volume   620.94488009
_cell_formula_units_Z   2
loop_
 _symmetry_equiv_pos_site_id
 _symmetry_equiv_pos_as_xyz
  1  'x, y, z'
loop_
 _atom_site_type_symbol
 _atom_site_label
 _atom_site_symmetry_multiplicity
 _atom_site_fract_x
 _atom_site_fract_y
 _atom_site_fract_z
 _atom_site_occupancy
  Fe  Fe0  1  0.92214400  0.67331200  0.03108100  1
  Fe  Fe1  1  0.07785600  0.32668800  0.96891900  1
  C  C0  1  0.63199100  0.98180500  0.34286400  1
  C  C1  1  0.36800900  0.01819500  0.65713600  1
  C  C2  1  0.67107600  0.14041800  0.34058900  1
  C  C3  1  0.32892400  0.85958200  0.65941100  1
  C  C4  1  0.67419600  0.00188000  0.23495900  1
  C  C5  1  0.32580400  0.99812000  0.76504100  1
  C  C6  1  0.71097200  0.45133600  0.42818800  1
  C  C7  1  0.28902800  0.54866400  0.57181200  1
  S  S0  1  0.93940200  0.49442500  0.14326400  1
  S  S1  1  0.06059800  0.50557500  0.85673600  1
  S  S2  1  0.23243000  0.61534900  0.26775800  1
  S  S3  1  0.76757000  0.38465100  0.73224200  1
  N  N0  1  0.65740000  0.72321300  0.00027200  1
  N  N1  1  0.34260000  0.27678700  0.99972800  1
  N  N2  1  0.05691600  0.88136800  0.09482400  1
  N  N3  1  0.94308400  0.11863200  0.90517600  1
  N  N4  1  0.69258400  0.30239900  0.38800200  1
  N  N5  1  0.30741600  0.69760100  0.61199800  1
  O  O0  1  0.14201400  0.75165400  0.35475300  1
  O  O1  1  0.85798600  0.24834600  0.64524700  1
  O  O2  1  0.28661100  0.47424100  0.30306100  1
  O  O3  1  0.71338900  0.52575900  0.69693900  1
  O  O4  1  0.36561700  0.65870000  0.18347900  1
  O  O5  1  0.63438300  0.34130000  0.81652100  1
  O  O6  1  0.49234800  0.72814100  0.96343500  1
  O  O7  1  0.50765200  0.27185900  0.03656500  1
  O  O8  1  0.16203300  0.00344700  0.13032400  1
  O  O9  1  0.83796700  0.99655300  0.86967600  1
loop_
_geom_bond_atom_site_label_1
_geom_bond_atom_site_label_2
_geom_bond_distance
_geom_bond_site_symmetry_2
Fe0 N2 1.850155 1_655
Fe0 N0 1.855459 1_555
Fe0 S0 2.323518 1_555
Fe0 S1 2.335113 1_654
Fe1 N3 1.850155 1_455
Fe1 N1 1.855459 1_555
Fe1 S1 2.323518 1_555
Fe1 S0 2.335113 1_456
C0 C2 1.369483 1_565
C0 C4 1.373956 1_565
C1 C3 1.369483 1_545
C1 C5 1.373956 1_545
C2 N4 1.309456 1_555
C2 C4 1.418287 1_555
C3 N5 1.309456 1_555
C3 C5 1.418287 1_555
C6 N4 1.200786 1_555
C7 N5 1.200786 1_555
N0 O6 1.159452 1_554
N1 O7 1.159452 1_556
N2 O8 1.164742 1_565
N3 O9 1.164742 1_545
O0 S2 1.446092 1_555
O1 S3 1.446092 1_555
O2 S2 1.449444 1_555
O3 S3 1.449444 1_555
O4 S2 1.460174 1_555
O5 S3 1.460174 1_555
