# generated using pymatgen
data_Ta2CrB2
_symmetry_space_group_name_H-M   'P 1'
_cell_length_a   5.92116150
_cell_length_b   5.92116150
_cell_length_c   3.22658928
_cell_angle_alpha   90.00000000
_cell_angle_beta   90.00000000
_cell_angle_gamma   90.00000000
_symmetry_Int_Tables_number   1
_chemical_formula_structural   Ta2CrB2
_chemical_formula_sum   'Ta4 Cr2 B4'
_cell_volume   113.12471547
_cell_formula_units_Z   2
loop_
 _symmetry_equiv_pos_site_id
 _symmetry_equiv_pos_as_xyz
  1  'x, y, z'
loop_
 _atom_site_type_symbol
 _atom_site_label
 _atom_site_symmetry_multiplicity
 _atom_site_fract_x
 _atom_site_fract_y
 _atom_site_fract_z
 _atom_site_occupancy
  Ta  Ta0  1  0.68086032  0.18086032  0.50000000  1
  Ta  Ta1  1  0.31913968  0.81913968  0.50000000  1
  Ta  Ta2  1  0.18086032  0.31913968  0.50000000  1
  Ta  Ta3  1  0.81913968  0.68086032  0.50000000  1
  Cr  Cr0  1  0.50000000  0.50000000  -0.00000000  1
  Cr  Cr1  1  -0.00000000  0.00000000  -0.00000000  1
  B  B0  1  0.11083946  0.61083946  -0.00000000  1
  B  B1  1  0.88916054  0.38916054  0.00000000  1
  B  B2  1  0.61083946  0.88916054  0.00000000  1
  B  B3  1  0.38916054  0.11083946  -0.00000000  1
loop_
_geom_bond_atom_site_label_1
_geom_bond_atom_site_label_2
_geom_bond_distance
_geom_bond_site_symmetry_2
Cr0 Ta1 2.705630 1_554
Cr0 Ta3 2.705630 1_555
Cr0 Ta0 2.705630 1_555
Cr0 Ta0 2.705630 1_554
Cr0 Ta1 2.705630 1_555
Cr0 Ta2 2.705630 1_554
Cr0 Ta2 2.705630 1_555
Cr0 Ta3 2.705630 1_554
Cr1 Ta1 2.705630 1_544
Cr1 Ta2 2.705630 1_555
Cr1 Ta2 2.705630 1_554
Cr1 Ta1 2.705630 1_545
Cr1 Ta0 2.705630 1_455
Cr1 Ta3 2.705630 1_445
Cr1 Ta0 2.705630 1_454
Cr1 Ta3 2.705630 1_444
B0 B1 1.856292 1_455
B0 Ta1 2.375956 1_554
B0 Ta1 2.375956 1_555
B0 Cr0 2.395923 1_555
B0 Cr1 2.395923 1_565
B0 Ta3 2.399550 1_455
B0 Ta3 2.399550 1_454
B0 Ta2 2.399550 1_554
B0 Ta2 2.399550 1_555
B1 Ta0 2.375956 1_555
B1 Ta0 2.375956 1_554
B1 Cr0 2.395923 1_555
B1 Cr1 2.395923 1_655
B1 Ta3 2.399550 1_555
B1 Ta3 2.399550 1_554
B1 Ta2 2.399550 1_655
B1 Ta2 2.399550 1_654
B2 B3 1.856292 1_565
B2 Ta3 2.375956 1_554
B2 Ta3 2.375956 1_555
B2 Cr1 2.395923 1_665
B2 Cr0 2.395923 1_555
B2 Ta1 2.399550 1_554
B2 Ta1 2.399550 1_555
B2 Ta0 2.399550 1_564
B2 Ta0 2.399550 1_565
B3 Ta2 2.375956 1_555
B3 Ta2 2.375956 1_554
B3 Cr1 2.395923 1_555
B3 Cr0 2.395923 1_555
B3 Ta0 2.399550 1_555
B3 Ta0 2.399550 1_554
B3 Ta1 2.399550 1_545
B3 Ta1 2.399550 1_544
