# generated using pymatgen
data_Sr3LaMn2(WO6)2
_symmetry_space_group_name_H-M   'P 1'
_cell_length_a   5.75328400
_cell_length_b   5.77732132
_cell_length_c   8.16739549
_cell_angle_alpha   90.03699915
_cell_angle_beta   90.05488681
_cell_angle_gamma   90.47354945
_symmetry_Int_Tables_number   1
_chemical_formula_structural   Sr3LaMn2(WO6)2
_chemical_formula_sum   'Sr3 La1 Mn2 W2 O12'
_cell_volume   271.46309486
_cell_formula_units_Z   1
loop_
 _symmetry_equiv_pos_site_id
 _symmetry_equiv_pos_as_xyz
  1  'x, y, z'
loop_
 _atom_site_type_symbol
 _atom_site_label
 _atom_site_symmetry_multiplicity
 _atom_site_fract_x
 _atom_site_fract_y
 _atom_site_fract_z
 _atom_site_occupancy
  Sr  Sr0  1  0.01274500  0.03395100  0.24858600  1
  Sr  Sr1  1  0.49777800  0.52451200  0.24733200  1
  Sr  Sr2  1  0.99206000  0.96713900  0.75194900  1
  La  La0  1  0.50171600  0.46542100  0.75832200  1
  Mn  Mn0  1  0.99959300  0.49975800  0.49770900  1
  Mn  Mn1  1  0.50090300  0.99719900  0.00207700  1
  W  W0  1  0.00200300  0.50019400  0.00036300  1
  W  W1  1  0.49834900  0.99954300  0.50005900  1
  O  O0  1  0.76049600  0.20981000  0.54554800  1
  O  O1  1  0.27898900  0.29190800  0.03431700  1
  O  O2  1  0.23252900  0.79751400  0.46273800  1
  O  O3  1  0.71629600  0.70258500  0.95017000  1
  O  O4  1  0.30282200  0.26804800  0.46277500  1
  O  O5  1  0.79146500  0.23646900  0.94997600  1
  O  O6  1  0.69191600  0.72892400  0.54916300  1
  O  O7  1  0.19700900  0.77462700  0.03779100  1
  O  O8  1  0.92486000  0.48125400  0.24150000  1
  O  O9  1  0.42414500  0.02364800  0.73518600  1
  O  O10  1  0.09462200  0.51471000  0.75515500  1
  O  O11  1  0.57970400  0.98278500  0.26928400  1
loop_
_geom_bond_atom_site_label_1
_geom_bond_atom_site_label_2
_geom_bond_distance
_geom_bond_site_symmetry_2
La0 O10 2.361829 1_555
La0 O3 2.412922 1_555
La0 O6 2.532311 1_555
La0 O9 2.594093 1_555
La0 O5 2.648181 1_555
La0 O0 2.730454 1_555
La0 O1 2.777654 1_556
La0 O4 2.899296 1_555
Mn0 O8 2.138301 1_555
Mn0 O10 2.173557 1_655
Mn0 O2 2.190898 1_655
Mn0 O0 2.194252 1_555
Mn0 O4 2.226205 1_655
Mn0 O6 2.258845 1_555
Mn1 O1 2.152749 1_565
Mn1 O3 2.155784 1_554
Mn1 O7 2.181675 1_555
Mn1 O5 2.202362 1_564
Mn1 O9 2.229264 1_564
Mn1 O11 2.230301 1_555
O0 W1 1.963789 1_545
O0 Sr2 2.571357 1_545
O0 Sr0 3.008144 1_655
O1 W0 2.023783 1_555
O1 Sr1 2.526260 1_555
O1 Sr0 2.756932 1_555
O2 W1 1.939910 1_555
O2 Sr0 2.559573 1_565
O2 Sr1 2.820100 1_555
O2 Sr2 2.911974 1_455
O3 W0 2.065984 1_656
O3 Sr2 2.728042 1_555
O3 Sr1 2.918416 1_556
O4 W1 1.947645 1_545
O4 Sr1 2.555255 1_555
O4 Sr0 2.762004 1_555
O5 W0 1.981345 1_656
O5 Sr2 2.529611 1_545
O5 Sr0 2.993343 1_656
O6 W1 1.968291 1_555
O6 Sr2 2.751606 1_555
O6 Sr1 2.947614 1_555
O7 W0 1.958378 1_555
O7 Sr0 2.521695 1_565
O7 Sr1 2.837267 1_555
O7 Sr2 2.845591 1_454
O8 W0 2.022098 1_655
O8 Sr1 2.472356 1_555
O8 Sr0 2.637973 1_655
O9 W1 1.972739 1_545
O9 Sr2 2.508458 1_445
O10 W0 2.074452 1_556
O10 Sr2 2.684495 1_455
O11 W1 1.945056 1_555
O11 Sr0 2.512323 1_665
O11 Sr1 2.691216 1_555
O11 Sr1 3.174031 1_565
