# generated using pymatgen
data_HgTe
_symmetry_space_group_name_H-M   'P 1'
_cell_length_a   9.16147473
_cell_length_b   9.16147473
_cell_length_c   9.16147473
_cell_angle_alpha   96.65502129
_cell_angle_beta   96.65502129
_cell_angle_gamma   140.19412896
_symmetry_Int_Tables_number   1
_chemical_formula_structural   HgTe
_chemical_formula_sum   'Hg8 Te8'
_cell_volume   462.86770070
_cell_formula_units_Z   8
loop_
 _symmetry_equiv_pos_site_id
 _symmetry_equiv_pos_as_xyz
  1  'x, y, z'
loop_
 _atom_site_type_symbol
 _atom_site_label
 _atom_site_symmetry_multiplicity
 _atom_site_fract_x
 _atom_site_fract_y
 _atom_site_fract_z
 _atom_site_occupancy
  Hg  Hg0_0  1  0.37500000  0.12500000  0.25000000  1
  Hg  Hg0_1  1  0.37500000  0.12500000  0.75000000  1
  Hg  Hg0_2  1  0.37500000  0.62500000  0.25000000  1
  Hg  Hg0_3  1  0.37500000  0.62500000  0.75000000  1
  Hg  Hg0_4  1  0.87500000  0.12500000  0.25000000  1
  Hg  Hg0_5  1  0.87500000  0.12500000  0.75000000  1
  Hg  Hg0_6  1  0.87500000  0.62500000  0.25000000  1
  Hg  Hg0_7  1  0.87500000  0.62500000  0.75000000  1
  Te  Te0_0  1  0.00000000  0.00000000  0.00000000  1
  Te  Te0_1  1  0.00000000  0.00000000  0.50000000  1
  Te  Te0_2  1  0.00000000  0.50000000  0.00000000  1
  Te  Te0_3  1  0.00000000  0.50000000  0.50000000  1
  Te  Te0_4  1  0.50000000  0.00000000  0.00000000  1
  Te  Te0_5  1  0.50000000  0.00000000  0.50000000  1
  Te  Te0_6  1  0.50000000  0.50000000  0.00000000  1
  Te  Te0_7  1  0.50000000  0.50000000  0.50000000  1
loop_
_geom_bond_atom_site_label_1
_geom_bond_atom_site_label_2
_geom_bond_distance
_geom_bond_site_symmetry_2
Hg0_0 Hg0_6 3.118820 1_555
Hg0_0 Hg0_6 3.118820 1_445
Hg0_0 Te0_5 3.143825 1_555
Hg0_0 Te0_0 3.143825 1_555
Hg0_0 Te0_7 3.143825 1_555
Hg0_0 Te0_4 3.143825 1_555
Hg0_1 Hg0_7 3.118820 1_555
Hg0_1 Hg0_7 3.118820 1_445
Hg0_1 Te0_5 3.143825 1_555
Hg0_1 Te0_6 3.143825 1_556
Hg0_1 Te0_4 3.143825 1_556
Hg0_1 Te0_1 3.143825 1_555
Hg0_2 Hg0_4 3.118820 1_565
Hg0_2 Hg0_4 3.118820 1_455
Hg0_2 Te0_2 3.143825 1_555
Hg0_2 Te0_6 3.143825 1_555
Hg0_2 Te0_5 3.143825 1_565
Hg0_2 Te0_7 3.143825 1_555
Hg0_3 Hg0_5 3.118820 1_455
Hg0_3 Hg0_5 3.118820 1_565
Hg0_3 Te0_6 3.143825 1_556
Hg0_3 Te0_3 3.143825 1_555
Hg0_3 Te0_4 3.143825 1_566
Hg0_3 Te0_7 3.143825 1_555
Hg0_4 Te0_4 3.143825 1_555
Hg0_4 Te0_0 3.143825 1_655
Hg0_4 Te0_3 3.143825 1_655
Hg0_4 Te0_1 3.143825 1_655
Hg0_5 Te0_5 3.143825 1_555
Hg0_5 Te0_1 3.143825 1_655
Hg0_5 Te0_0 3.143825 1_656
Hg0_5 Te0_2 3.143825 1_656
Hg0_6 Te0_6 3.143825 1_555
Hg0_6 Te0_2 3.143825 1_655
Hg0_6 Te0_1 3.143825 1_665
Hg0_6 Te0_3 3.143825 1_655
Hg0_7 Te0_0 3.143825 1_666
Hg0_7 Te0_3 3.143825 1_655
Hg0_7 Te0_2 3.143825 1_656
Hg0_7 Te0_7 3.143825 1_555
Te0_0 Te0_6 3.118820 1_445
Te0_0 Te0_6 3.118820 1_555
Te0_1 Te0_7 3.118820 1_555
Te0_1 Te0_7 3.118820 1_445
Te0_2 Te0_4 3.118820 1_565
Te0_2 Te0_4 3.118820 1_455
Te0_3 Te0_5 3.118820 1_565
Te0_3 Te0_5 3.118820 1_455
