# generated using pymatgen
data_Cu3P4H24C6(NO8)2
_symmetry_space_group_name_H-M   'P 1'
_cell_length_a   7.58282706
_cell_length_b   8.18975221
_cell_length_c   10.27835178
_cell_angle_alpha   108.51580232
_cell_angle_beta   104.07415218
_cell_angle_gamma   104.60071971
_symmetry_Int_Tables_number   1
_chemical_formula_structural   Cu3P4H24C6(NO8)2
_chemical_formula_sum   'Cu3 P4 H24 C6 N2 O16'
_cell_volume   548.17271161
_cell_formula_units_Z   1
loop_
 _symmetry_equiv_pos_site_id
 _symmetry_equiv_pos_as_xyz
  1  'x, y, z'
loop_
 _atom_site_type_symbol
 _atom_site_label
 _atom_site_symmetry_multiplicity
 _atom_site_fract_x
 _atom_site_fract_y
 _atom_site_fract_z
 _atom_site_occupancy
  Cu  Cu0  1  0.50000000  0.50000000  0.00000000  1
  Cu  Cu1  1  0.63152700  0.91974200  0.93811000  1
  Cu  Cu2  1  0.36847300  0.08025800  0.06189000  1
  P  P0  1  0.45397000  0.11362200  0.76395700  1
  P  P1  1  0.54603000  0.88637800  0.23604300  1
  P  P2  1  0.89668000  0.72750300  0.86503900  1
  P  P3  1  0.10332000  0.27249700  0.13496100  1
  H  H0  1  0.77459600  0.55295300  0.23095200  1
  H  H1  1  0.22540400  0.44704700  0.76904800  1
  H  H2  1  0.76216200  0.37013600  0.09914400  1
  H  H3  1  0.23783800  0.62986400  0.90085600  1
  H  H4  1  0.03074700  0.78322300  0.44572100  1
  H  H5  1  0.96925300  0.21677700  0.55427900  1
  H  H6  1  0.83999500  0.82281800  0.38942800  1
  H  H7  1  0.16000500  0.17718200  0.61057200  1
  H  H8  1  0.69703800  0.44398600  0.78411300  1
  H  H9  1  0.30296200  0.55601400  0.21588700  1
  H  H10  1  0.79248600  0.16375700  0.79086400  1
  H  H11  1  0.20751400  0.83624300  0.20913600  1
  H  H12  1  0.63743200  0.02832700  0.60308100  1
  H  H13  1  0.36256800  0.97167300  0.39691900  1
  H  H14  1  0.85458800  0.78755800  0.64158100  1
  H  H15  1  0.14541200  0.21244200  0.35841900  1
  H  H16  1  0.96706000  0.99335300  0.80642900  1
  H  H17  1  0.03294000  0.00664700  0.19357100  1
  H  H18  1  0.51771100  0.69929300  0.52040600  1
  H  H19  1  0.48228900  0.30070700  0.47959400  1
  H  H20  1  0.50065500  0.59661400  0.64939700  1
  H  H21  1  0.49934500  0.40338600  0.35060300  1
  H  H22  1  0.36033500  0.73661300  0.62287700  1
  H  H23  1  0.63966500  0.26338700  0.37712300  1
  C  C0  1  0.65504900  0.05062000  0.71766600  1
  C  C1  1  0.34495100  0.94938000  0.28233400  1
  C  C2  1  0.85111900  0.85687500  0.75144900  1
  C  C3  1  0.14888100  0.14312500  0.24855100  1
  C  C4  1  0.49890800  0.71770400  0.62633200  1
  C  C5  1  0.50109200  0.28229600  0.37366800  1
  N  N0  1  0.66175200  0.88253700  0.74155400  1
  N  N1  1  0.33824800  0.11746300  0.25844600  1
  O  O0  1  0.44290100  0.04021800  0.88634100  1
  O  O1  1  0.55709900  0.95978200  0.11365900  1
  O  O2  1  0.68514000  0.44520500  0.13527900  1
  O  O3  1  0.31486000  0.55479500  0.86472100  1
  O  O4  1  0.89067600  0.72200100  0.39187900  1
  O  O5  1  0.10932400  0.27799900  0.60812100  1
  O  O6  1  0.26876800  0.02392000  0.63133600  1
  O  O7  1  0.73123200  0.97608000  0.36866400  1
  O  O8  1  0.52932300  0.32801500  0.82907100  1
  O  O9  1  0.47067700  0.67198500  0.17092900  1
  O  O10  1  0.78143500  0.76619100  0.96920800  1
  O  O11  1  0.21856500  0.23380900  0.03079200  1
  O  O12  1  0.11338900  0.78096900  0.93790300  1
  O  O13  1  0.88661100  0.21903100  0.06209700  1
  O  O14  1  0.80283500  0.51456100  0.75768500  1
  O  O15  1  0.19716500  0.48543900  0.24231500  1
loop_
_geom_bond_atom_site_label_1
_geom_bond_atom_site_label_2
_geom_bond_distance
_geom_bond_site_symmetry_2
Cu0 O3 1.967274 1_554
Cu0 O2 1.967274 1_555
Cu0 O8 1.973865 1_554
Cu0 O9 1.973865 1_555
Cu1 O10 1.942939 1_555
Cu1 O1 1.973455 1_556
Cu1 O0 1.994305 1_565
Cu1 N0 2.023932 1_555
Cu1 O13 2.408372 1_566
Cu2 O11 1.942939 1_555
Cu2 O0 1.973455 1_554
Cu2 O1 1.994305 1_545
Cu2 N1 2.023932 1_555
Cu2 O12 2.408372 1_544
H0 O2 1.014138 1_555
H0 O4 1.628039 1_555
H1 O3 1.014138 1_555
H1 O5 1.628039 1_555
H2 O2 0.999264 1_555
H3 O3 0.999264 1_555
H4 O4 0.977335 1_455
H5 O5 0.977335 1_655
H6 O4 0.999263 1_555
H6 O7 1.705179 1_555
H7 O5 0.999263 1_555
H7 O6 1.705179 1_555
H8 O14 1.011622 1_555
H8 O8 1.639682 1_555
H9 O15 1.011622 1_555
H9 O9 1.639682 1_555
C0 H10 1.095322 1_555
C0 H12 1.101307 1_555
C0 N0 1.483796 1_545
C0 P0 1.846892 1_555
C1 H11 1.095322 1_555
C1 H13 1.101307 1_555
C1 N1 1.483796 1_565
C1 P1 1.846892 1_555
C2 H16 1.096973 1_555
C2 H14 1.101366 1_555
C2 N0 1.486985 1_555
C2 P2 1.838230 1_555
C3 H17 1.096973 1_555
C3 H15 1.101366 1_555
C3 N1 1.486985 1_555
C3 P3 1.838230 1_555
C4 H20 1.092821 1_555
C4 H22 1.093963 1_555
C4 H18 1.100228 1_555
C4 N0 1.477369 1_555
C5 H21 1.092821 1_555
C5 H23 1.093963 1_555
C5 H19 1.100228 1_555
C5 N1 1.477369 1_555
O0 P0 1.567471 1_555
O1 P1 1.567471 1_555
O6 P0 1.510899 1_555
O7 P1 1.510899 1_555
O8 P0 1.555371 1_555
O9 P1 1.555371 1_555
O10 P2 1.545840 1_555
O11 P3 1.545840 1_555
O12 P2 1.511075 1_455
O13 P3 1.511075 1_655
O14 P2 1.592331 1_555
O15 P3 1.592331 1_555
