# generated using pymatgen
data_Rb3(SO4)2
_symmetry_space_group_name_H-M   'P 1'
_cell_length_a   8.02037645
_cell_length_b   8.02042794
_cell_length_c   10.07405516
_cell_angle_alpha   77.94885235
_cell_angle_beta   77.94905850
_cell_angle_gamma   43.29128113
_symmetry_Int_Tables_number   1
_chemical_formula_structural   Rb3(SO4)2
_chemical_formula_sum   'Rb6 S4 O16'
_cell_volume   433.00535425
_cell_formula_units_Z   2
loop_
 _symmetry_equiv_pos_site_id
 _symmetry_equiv_pos_as_xyz
  1  'x, y, z'
loop_
 _atom_site_type_symbol
 _atom_site_label
 _atom_site_symmetry_multiplicity
 _atom_site_fract_x
 _atom_site_fract_y
 _atom_site_fract_z
 _atom_site_occupancy
  Rb  Rb0  1  0.23498839  0.76499691  0.75001546  1
  Rb  Rb1  1  0.76501173  0.23496940  0.24999222  1
  Rb  Rb2  1  0.53887511  0.08288877  0.65096837  1
  Rb  Rb3  1  0.91713292  0.46110183  0.84903932  1
  Rb  Rb4  1  0.46111859  0.91712436  0.34905578  1
  Rb  Rb5  1  0.08288202  0.53888436  0.15094150  1
  S  S0  1  0.10303772  0.66862751  0.46563405  1
  S  S1  1  0.33139136  0.89695146  0.03436896  1
  S  S2  1  0.89695664  0.33135032  0.53439623  1
  S  S3  1  0.66863145  0.10305535  0.96560172  1
  O  O0  1  0.87332462  0.81943872  0.40521234  1
  O  O1  1  0.18055762  0.12668988  0.09479264  1
  O  O2  1  0.12665376  0.18055783  0.59481476  1
  O  O3  1  0.81942178  0.87337024  0.90518364  1
  O  O4  1  0.17748329  0.79987484  0.43976528  1
  O  O5  1  0.20013083  0.82250226  0.06023960  1
  O  O6  1  0.82250859  0.20011791  0.56027049  1
  O  O7  1  0.79985874  0.17751491  0.93971963  1
  O  O8  1  0.07815432  0.61753287  0.61282153  1
  O  O9  1  0.38248083  0.92184723  0.88716813  1
  O  O10  1  0.92183065  0.38244216  0.38721765  1
  O  O11  1  0.61754728  0.07818484  0.11277591  1
  O  O12  1  0.30388574  0.44039701  0.39808983  1
  O  O13  1  0.55962700  0.69610439  0.10191666  1
  O  O14  1  0.69611307  0.55957661  0.60193942  1
  O  O15  1  0.44039594  0.30389802  0.89805888  1
loop_
_geom_bond_atom_site_label_1
_geom_bond_atom_site_label_2
_geom_bond_distance
_geom_bond_site_symmetry_2
O0 S0 1.464461 1_655
O0 Rb1 2.912619 1_565
O0 Rb4 2.947711 1_555
O0 Rb2 2.991610 1_565
O0 Rb5 3.090816 1_655
O1 S1 1.464604 1_545
O1 Rb1 2.912745 1_455
O1 Rb5 2.947666 1_555
O1 Rb3 2.991466 1_454
O1 Rb4 3.090745 1_545
O2 S2 1.464376 1_455
O2 Rb0 2.912672 1_545
O2 Rb2 2.947897 1_555
O2 Rb4 2.991629 1_545
O2 Rb3 3.090416 1_455
O3 S3 1.464319 1_565
O3 Rb0 2.912449 1_655
O3 Rb3 2.948055 1_555
O3 Rb5 2.991691 1_656
O3 Rb2 3.090328 1_565
O4 S0 1.505976 1_555
O4 Rb4 2.963404 1_555
O4 Rb1 3.134631 1_465
O4 Rb0 3.179402 1_555
O5 S1 1.506099 1_555
O5 Rb5 2.963270 1_555
O5 Rb1 3.134555 1_465
O5 Rb0 3.179182 1_554
O6 S2 1.505877 1_555
O6 Rb2 2.963248 1_555
O6 Rb0 3.134532 1_645
O6 Rb1 3.179712 1_555
O7 S3 1.505911 1_555
O7 Rb3 2.963185 1_555
O7 Rb0 3.134433 1_645
O7 Rb1 3.179569 1_556
O8 S0 1.465656 1_555
O8 Rb0 2.909557 1_555
O8 Rb3 2.955269 1_455
O8 Rb2 3.004614 1_555
O8 Rb2 3.031493 1_465
O9 S1 1.465787 1_556
O9 Rb0 2.909582 1_555
O9 Rb2 2.955079 1_565
O9 Rb3 3.004669 1_555
O9 Rb3 3.031369 1_465
O10 S2 1.465560 1_555
O10 Rb1 2.909720 1_555
O10 Rb5 2.955827 1_655
O10 Rb4 3.004767 1_555
O10 Rb4 3.031474 1_645
O11 S3 1.465505 1_554
O11 Rb1 2.909378 1_555
O11 Rb4 2.955830 1_545
O11 Rb5 3.004674 1_555
O11 Rb5 3.031563 1_645
O12 S0 1.475968 1_555
O12 Rb1 2.910401 1_555
O12 Rb5 2.991348 1_555
O12 Rb2 3.057985 1_555
O13 S1 1.475996 1_555
O13 Rb1 2.910471 1_555
O13 Rb4 2.991297 1_555
O13 Rb3 3.057991 1_554
O14 S2 1.475941 1_555
O14 Rb0 2.910328 1_555
O14 Rb3 2.991017 1_555
O14 Rb4 3.058129 1_555
O15 S3 1.475968 1_555
O15 Rb0 2.910089 1_555
O15 Rb2 2.990887 1_555
O15 Rb5 3.058038 1_556
