# generated using pymatgen
data_Li7Mn2(CoO4)3
_symmetry_space_group_name_H-M   'P 1'
_cell_length_a   2.97689700
_cell_length_b   7.61415427
_cell_length_c   9.75731547
_cell_angle_alpha   91.56142715
_cell_angle_beta   97.35267118
_cell_angle_gamma   99.77918871
_symmetry_Int_Tables_number   1
_chemical_formula_structural   Li7Mn2(CoO4)3
_chemical_formula_sum   'Li7 Mn2 Co3 O12'
_cell_volume   215.88727552
_cell_formula_units_Z   1
loop_
 _symmetry_equiv_pos_site_id
 _symmetry_equiv_pos_as_xyz
  1  'x, y, z'
loop_
 _atom_site_type_symbol
 _atom_site_label
 _atom_site_symmetry_multiplicity
 _atom_site_fract_x
 _atom_site_fract_y
 _atom_site_fract_z
 _atom_site_occupancy
  Li  Li0  1  0.73380300  0.73845300  0.74436500  1
  Li  Li1  1  0.90621600  0.57917400  0.25360100  1
  Li  Li2  1  0.07777600  0.42124700  0.73934800  1
  Li  Li3  1  0.25364700  0.24882500  0.25259400  1
  Li  Li4  1  0.42859800  0.08742500  0.75208400  1
  Li  Li5  1  0.59411000  0.91956100  0.25120900  1
  Li  Li6  1  0.51727200  0.50440800  0.50989600  1
  Mn  Mn0  1  0.00000000  0.99979000  0.00028600  1
  Mn  Mn1  1  0.15900400  0.82689500  0.50068100  1
  Co  Co0  1  0.32781600  0.66510100  0.00112800  1
  Co  Co1  1  0.67329400  0.33551600  0.99885300  1
  Co  Co2  1  0.83633300  0.17983300  0.49518400  1
  O  O0  1  0.33268800  0.86739500  0.88347600  1
  O  O1  1  0.56581000  0.72588100  0.39108200  1
  O  O2  1  0.71382500  0.53551800  0.88440400  1
  O  O3  1  0.86536600  0.35396400  0.38388100  1
  O  O4  1  0.06178700  0.20538600  0.88400400  1
  O  O5  1  0.18346600  0.04204300  0.38899500  1
  O  O6  1  0.13361100  0.64290900  0.61845700  1
  O  O7  1  0.28838800  0.46445900  0.11826000  1
  O  O8  1  0.47675300  0.27332600  0.61284800  1
  O  O9  1  0.66602000  0.13351100  0.11705400  1
  O  O10  1  0.76383800  0.95555300  0.60164500  1
  O  O11  1  0.94058300  0.79382300  0.11666500  1
loop_
_geom_bond_atom_site_label_1
_geom_bond_atom_site_label_2
_geom_bond_distance
_geom_bond_site_symmetry_2
Li0 O6 2.018595 1_655
Li0 O6 2.044203 1_555
Li0 O2 2.088736 1_555
Li0 O0 2.167519 1_655
Li0 O10 2.187889 1_555
Li0 O0 2.229929 1_555
Li1 O7 2.111966 1_655
Li1 O11 2.136367 1_555
Li1 O3 2.158402 1_555
Li1 O7 2.158535 1_555
Li1 O1 2.173698 1_555
Li1 O1 2.324187 1_655
Li2 O6 2.081096 1_555
Li2 O2 2.140032 1_455
Li2 O8 2.160476 1_455
Li2 O4 2.193840 1_555
Li2 O8 2.226339 1_555
Li2 O2 2.243378 1_555
Li3 O3 2.062845 1_455
Li3 O5 2.089867 1_555
Li3 O9 2.098292 1_455
Li3 O3 2.109455 1_555
Li3 O7 2.125739 1_555
Li3 O9 2.178377 1_555
Li4 O8 1.988859 1_555
Li4 O4 2.070230 1_555
Li4 O0 2.140128 1_545
Li4 O4 2.181151 1_655
Li4 O10 2.189488 1_545
Li4 O10 2.362243 1_445
Li5 O1 2.035046 1_555
Li5 O11 2.077821 1_555
Li5 O9 2.117204 1_565
Li5 O5 2.127777 1_665
Li5 O5 2.216118 1_565
Li5 O11 2.251662 1_455
Li6 O8 2.043208 1_555
Li6 O6 2.048541 1_555
Li6 O1 2.067660 1_555
Li6 O6 2.094027 1_655
Li6 O3 2.133167 1_555
Li6 O3 2.268808 1_455
Mn0 O4 1.955543 1_564
Mn0 O11 1.958171 1_455
Mn0 O0 1.965083 1_554
Mn0 O9 1.973284 1_465
Mn0 O9 2.222297 1_565
Mn0 O0 2.222410 1_454
Mn1 O6 1.833803 1_555
Mn1 O1 1.950589 1_555
Mn1 O1 1.965690 1_455
Mn1 O10 1.987334 1_455
Mn1 O5 1.988353 1_565
Mn1 O10 2.016503 1_555
Co0 O7 1.929374 1_555
Co0 O0 1.945146 1_554
Co0 O11 2.053421 1_455
Co0 O2 2.061545 1_554
Co0 O11 2.089280 1_555
Co0 O2 2.098752 1_454
Co1 O2 1.909298 1_555
Co1 O9 1.946310 1_556
Co1 O4 2.058033 1_655
Co1 O7 2.072626 1_556
Co1 O4 2.087101 1_555
Co1 O7 2.110711 1_656
Co2 O3 1.734468 1_555
Co2 O8 1.870709 1_555
Co2 O5 1.955824 1_655
Co2 O10 2.017605 1_545
Co2 O8 2.096108 1_655
Co2 O5 2.164301 1_555
