# generated using pymatgen
data_CsPr(WO4)2
_symmetry_space_group_name_H-M   'P 1'
_cell_length_a   7.82861443
_cell_length_b   7.82861443
_cell_length_c   7.66050936
_cell_angle_alpha   63.07353476
_cell_angle_beta   63.07353476
_cell_angle_gamma   89.81321849
_symmetry_Int_Tables_number   1
_chemical_formula_structural   CsPr(WO4)2
_chemical_formula_sum   'Cs2 Pr2 W4 O16'
_cell_volume   360.98541286
_cell_formula_units_Z   2
loop_
 _symmetry_equiv_pos_site_id
 _symmetry_equiv_pos_as_xyz
  1  'x, y, z'
loop_
 _atom_site_type_symbol
 _atom_site_label
 _atom_site_symmetry_multiplicity
 _atom_site_fract_x
 _atom_site_fract_y
 _atom_site_fract_z
 _atom_site_occupancy
  Cs  Cs0  1  0.19652800  0.80347200  0.75000000  1
  Cs  Cs1  1  0.80347200  0.19652800  0.25000000  1
  Pr  Pr0  1  0.77570800  0.22429200  0.75000000  1
  Pr  Pr1  1  0.22429200  0.77570800  0.25000000  1
  W  W0  1  0.69396100  0.68374500  0.78136600  1
  W  W1  1  0.30603900  0.31625500  0.21863400  1
  W  W2  1  0.31625500  0.30603900  0.71863400  1
  W  W3  1  0.68374500  0.69396100  0.28136600  1
  O  O0  1  0.62007100  0.74501700  0.56587300  1
  O  O1  1  0.37992900  0.25498300  0.43412700  1
  O  O2  1  0.25498300  0.37992900  0.93412700  1
  O  O3  1  0.74501700  0.62007100  0.06587300  1
  O  O4  1  0.38073100  0.07288100  0.86456300  1
  O  O5  1  0.61926900  0.92711900  0.13543700  1
  O  O6  1  0.92711900  0.61926900  0.63543700  1
  O  O7  1  0.07288100  0.38073100  0.36456300  1
  O  O8  1  0.58466000  0.37289400  0.97014500  1
  O  O9  1  0.41534000  0.62710600  0.02985500  1
  O  O10  1  0.62710600  0.41534000  0.52985500  1
  O  O11  1  0.37289400  0.58466000  0.47014500  1
  O  O12  1  0.78222900  0.93977400  0.70031800  1
  O  O13  1  0.21777100  0.06022600  0.29968200  1
  O  O14  1  0.06022600  0.21777100  0.79968200  1
  O  O15  1  0.93977400  0.78222900  0.20031800  1
loop_
_geom_bond_atom_site_label_1
_geom_bond_atom_site_label_2
_geom_bond_distance
_geom_bond_site_symmetry_2
Cs0 O13 3.028307 1_565
Cs0 O15 3.028307 1_456
Cs0 O0 3.087403 1_555
Cs0 O2 3.087403 1_555
Cs0 O1 3.090438 1_565
Cs0 O3 3.090438 1_456
Cs0 O11 3.172772 1_555
Cs0 O9 3.172772 1_556
Cs0 O4 3.184411 1_565
Cs0 O6 3.184411 1_455
Cs0 O12 3.539863 1_455
Cs0 O14 3.539863 1_565
Cs1 O14 3.028307 1_654
Cs1 O12 3.028307 1_545
Cs1 O3 3.087403 1_555
Cs1 O1 3.087403 1_555
Cs1 O2 3.090438 1_654
Cs1 O0 3.090438 1_545
Cs1 O8 3.172772 1_554
Cs1 O10 3.172772 1_555
Cs1 O7 3.184411 1_655
Cs1 O5 3.184411 1_545
Cs1 O15 3.539863 1_545
Cs1 O13 3.539863 1_655
O0 W0 1.853557 1_555
O0 W3 2.227563 1_555
O1 W1 1.853557 1_555
O1 W2 2.227563 1_555
O2 W2 1.853557 1_555
O2 W1 2.227563 1_556
O3 W3 1.853557 1_555
O3 W0 2.227563 1_554
O4 W2 1.869005 1_555
O4 Pr1 2.480423 1_546
O4 Pr0 2.891440 1_555
O5 W3 1.869005 1_555
O5 Pr0 2.480423 1_564
O5 Pr1 2.891440 1_555
O6 W0 1.869005 1_555
O6 Pr1 2.480423 1_655
O6 Pr0 2.891440 1_555
O7 W1 1.869005 1_555
O7 Pr0 2.480423 1_455
O7 Pr1 2.891440 1_555
O8 W1 2.014744 1_556
O8 W0 2.109760 1_555
O8 Pr0 2.432172 1_555
O9 W0 2.014744 1_554
O9 W1 2.109760 1_555
O9 Pr1 2.432172 1_555
O10 W3 2.014744 1_555
O10 W2 2.109760 1_555
O10 Pr0 2.432172 1_555
O11 W2 2.014744 1_555
O11 W3 2.109760 1_555
O11 Pr1 2.432172 1_555
O12 W0 1.836788 1_555
O12 Pr0 2.420355 1_565
O13 W1 1.836788 1_555
O13 Pr1 2.420355 1_545
O14 W2 1.836788 1_555
O14 Pr0 2.420355 1_455
O15 W3 1.836788 1_555
O15 Pr1 2.420355 1_655
