# generated using pymatgen
data_GaFe2Co4Si
_symmetry_space_group_name_H-M   'P 1'
_cell_length_a   6.95213021
_cell_length_b   6.95213021
_cell_length_c   6.95213046
_cell_angle_alpha   33.56129835
_cell_angle_beta   33.56129835
_cell_angle_gamma   33.56130174
_symmetry_Int_Tables_number   1
_chemical_formula_structural   GaFe2Co4Si
_chemical_formula_sum   'Ga1 Fe2 Co4 Si1'
_cell_volume   91.47045689
_cell_formula_units_Z   1
loop_
 _symmetry_equiv_pos_site_id
 _symmetry_equiv_pos_as_xyz
  1  'x, y, z'
loop_
 _atom_site_type_symbol
 _atom_site_label
 _atom_site_symmetry_multiplicity
 _atom_site_fract_x
 _atom_site_fract_y
 _atom_site_fract_z
 _atom_site_occupancy
  Ga  Ga0  1  0.00000000  0.00000000  0.00000000  1
  Fe  Fe0  1  0.25104200  0.25104200  0.25104200  1
  Fe  Fe1  1  0.74895800  0.74895800  0.74895800  1
  Co  Co0  1  0.87146300  0.87146300  0.87146300  1
  Co  Co1  1  0.37879000  0.37879000  0.37879000  1
  Co  Co2  1  0.12853700  0.12853700  0.12853700  1
  Co  Co3  1  0.62121000  0.62121000  0.62121000  1
  Si  Si0  1  0.50000000  0.50000000  0.50000000  1
loop_
_geom_bond_atom_site_label_1
_geom_bond_atom_site_label_2
_geom_bond_distance
_geom_bond_site_symmetry_2
Co0 Fe1 2.408854 1_555
Co0 Si0 2.435900 1_556
Co0 Si0 2.435900 1_565
Co0 Si0 2.435900 1_655
Co0 Fe0 2.489654 1_665
Co0 Fe0 2.489655 1_566
Co0 Fe0 2.489655 1_656
Co0 Ga0 2.527463 1_666
Co1 Si0 2.383390 1_555
Co1 Fe1 2.428183 1_554
Co1 Fe1 2.428183 1_545
Co1 Fe1 2.428183 1_455
Co1 Ga0 2.484030 1_556
Co1 Ga0 2.484030 1_565
Co1 Ga0 2.484030 1_655
Co1 Fe0 2.511949 1_555
Co2 Fe0 2.408854 1_555
Co2 Si0 2.435900 1_554
Co2 Si0 2.435900 1_545
Co2 Si0 2.435900 1_455
Co2 Fe1 2.489654 1_445
Co2 Fe1 2.489655 1_454
Co2 Fe1 2.489655 1_544
Co2 Ga0 2.527463 1_555
Co3 Si0 2.383390 1_555
Co3 Fe0 2.428183 1_556
Co3 Fe0 2.428183 1_565
Co3 Fe0 2.428183 1_655
Co3 Ga0 2.484030 1_665
Co3 Ga0 2.484030 1_566
Co3 Ga0 2.484030 1_656
Co3 Fe1 2.511949 1_555
