# generated using pymatgen
data_Gd3BBr3
_symmetry_space_group_name_H-M   'P 1'
_cell_length_a   9.85899645
_cell_length_b   9.85917232
_cell_length_c   9.85875523
_cell_angle_alpha   109.47204607
_cell_angle_beta   109.46848798
_cell_angle_gamma   109.47343051
_symmetry_Int_Tables_number   1
_chemical_formula_structural   Gd3BBr3
_chemical_formula_sum   'Gd12 B4 Br12'
_cell_volume   737.68633413
_cell_formula_units_Z   4
loop_
 _symmetry_equiv_pos_site_id
 _symmetry_equiv_pos_as_xyz
  1  'x, y, z'
loop_
 _atom_site_type_symbol
 _atom_site_label
 _atom_site_symmetry_multiplicity
 _atom_site_fract_x
 _atom_site_fract_y
 _atom_site_fract_z
 _atom_site_occupancy
  Gd  Gd0  1  0.45952182  0.47976859  0.22976175  1
  Gd  Gd1  1  0.75000071  0.22976893  0.27024243  1
  Gd  Gd2  1  0.75000063  0.02025175  0.47977074  1
  Gd  Gd3  1  0.22976937  0.45953490  0.47977382  1
  Gd  Gd4  1  0.27023993  0.75001170  0.22976502  1
  Gd  Gd5  1  0.04047729  0.27023810  0.02023443  1
  Gd  Gd6  1  0.02023728  0.04048441  0.27024075  1
  Gd  Gd7  1  0.47975860  0.75001126  0.02023879  1
  Gd  Gd8  1  0.47976205  0.22977007  0.45952570  1
  Gd  Gd9  1  0.02024019  0.47976964  0.75000526  1
  Gd  Gd10  1  0.27024420  0.02025083  0.04048529  1
  Gd  Gd11  1  0.22976144  0.27024391  0.75000396  1
  B  B0  1  0.25000165  0.25000998  0.25000607  1
  B  B1  1  0.50000359  0.00000984  0.25000609  1
  B  B2  1  0.00000015  0.25000804  0.50000506  1
  B  B3  1  0.25000182  0.50000933  0.00000321  1
  Br  Br0  1  0.25000616  0.75793477  0.74209137  1
  Br  Br1  1  0.51604019  0.50794450  0.75802219  1
  Br  Br2  1  0.98414762  0.74207810  0.99207050  1
  Br  Br3  1  0.74207101  0.25000740  0.75794120  1
  Br  Br4  1  0.99205900  0.98388134  0.74199666  1
  Br  Br5  1  0.25000210  0.99207684  0.50792932  1
  Br  Br6  1  0.75792788  0.51586801  0.50793326  1
  Br  Br7  1  0.50791178  0.25002544  0.99203768  1
  Br  Br8  1  0.75787977  0.74216968  0.24999842  1
  Br  Br9  1  0.74194038  0.99200907  0.98406051  1
  Br  Br10  1  0.99207220  0.50793360  0.24999985  1
  Br  Br11  1  0.50792118  0.75793194  0.51585165  1
loop_
_geom_bond_atom_site_label_1
_geom_bond_atom_site_label_2
_geom_bond_distance
_geom_bond_site_symmetry_2
B0 Gd6 2.625729 1_555
B0 Gd0 2.625732 1_555
B0 Gd3 2.625744 1_555
B0 Gd10 2.625749 1_555
B0 Gd8 2.625825 1_555
B0 Gd5 2.625837 1_555
B1 Gd1 2.625709 1_555
B1 Gd4 2.625720 1_545
B1 Gd7 2.625734 1_545
B1 Gd8 2.625743 1_555
B1 Gd2 2.625812 1_555
B1 Gd10 2.625831 1_555
B2 Gd2 2.625720 1_455
B2 Gd9 2.625726 1_555
B2 Gd3 2.625745 1_555
B2 Gd6 2.625746 1_555
B2 Gd11 2.625829 1_555
B2 Gd1 2.625831 1_455
B3 Gd7 2.625736 1_555
B3 Gd11 2.625739 1_554
B3 Gd5 2.625752 1_555
B3 Gd4 2.625765 1_555
B3 Gd9 2.625805 1_554
B3 Gd0 2.625812 1_555
Br0 Gd7 2.962587 1_556
Br0 Gd9 2.962613 1_555
Br0 Gd10 3.094332 1_566
Br0 Gd3 3.094408 1_555
Br1 Gd11 2.963464 1_555
Br1 Gd3 2.964235 1_555
Br1 Gd8 3.094076 1_555
Br1 Gd7 3.094983 1_556
Br2 Gd10 2.962683 1_666
Br2 Gd4 2.962776 1_656
Br2 Gd9 3.094337 1_655
Br2 Gd6 3.094442 1_666
Br3 Gd2 2.962682 1_555
Br3 Gd9 2.962736 1_655
Br3 Gd5 3.094460 1_656
Br3 Gd8 3.094547 1_555
Br4 Gd11 2.964108 1_665
Br4 Gd5 2.964544 1_666
Br4 Gd10 3.093741 1_666
Br4 Gd2 3.095682 1_565
Br5 Gd8 2.962674 1_565
Br5 Gd6 2.962830 1_565
Br5 Gd4 3.094323 1_555
Br5 Gd11 3.094431 1_565
Br6 Gd8 2.962688 1_555
Br6 Gd1 2.962748 1_555
Br6 Gd0 3.094498 1_555
Br6 Gd9 3.094541 1_655
Br7 Gd0 2.962690 1_556
Br7 Gd10 2.962896 1_556
Br7 Gd11 3.094091 1_555
Br7 Gd1 3.094927 1_556
Br8 Gd2 2.961908 1_565
Br8 Gd7 2.961987 1_555
Br8 Gd6 3.094012 1_665
Br8 Gd0 3.094522 1_555
Br9 Gd1 2.962857 1_566
Br9 Gd6 2.963669 1_666
Br9 Gd7 3.093729 1_556
Br9 Gd5 3.095115 1_666
Br10 Gd5 2.962753 1_655
Br10 Gd3 2.962874 1_655
Br10 Gd4 3.094379 1_655
Br10 Gd1 3.094386 1_555
Br11 Gd0 2.962667 1_555
Br11 Gd4 2.962731 1_555
Br11 Gd3 3.094336 1_555
Br11 Gd2 3.094378 1_565
