# generated using pymatgen
data_Cr2GaS4
_symmetry_space_group_name_H-M   'P 1'
_cell_length_a   7.15659945
_cell_length_b   7.15659945
_cell_length_c   7.15659945
_cell_angle_alpha   60.00000000
_cell_angle_beta   60.00000000
_cell_angle_gamma   60.00000000
_symmetry_Int_Tables_number   1
_chemical_formula_structural   Cr2GaS4
_chemical_formula_sum   'Cr4 Ga2 S8'
_cell_volume   259.18217736
_cell_formula_units_Z   2
loop_
 _symmetry_equiv_pos_site_id
 _symmetry_equiv_pos_as_xyz
  1  'x, y, z'
loop_
 _atom_site_type_symbol
 _atom_site_label
 _atom_site_symmetry_multiplicity
 _atom_site_fract_x
 _atom_site_fract_y
 _atom_site_fract_z
 _atom_site_occupancy
  Cr  Cr0  1  0.62500000  0.62500000  0.12500000  1
  Cr  Cr1  1  0.62500000  0.12500000  0.62500000  1
  Cr  Cr2  1  0.12500000  0.62500000  0.62500000  1
  Cr  Cr3  1  0.62500000  0.62500000  0.62500000  1
  Ga  Ga0  1  0.00000000  0.00000000  0.00000000  1
  Ga  Ga1  1  0.25000000  0.25000000  0.25000000  1
  S  S0  1  0.86397100  0.86397100  0.40808800  1
  S  S1  1  0.86397100  0.40808800  0.86397100  1
  S  S2  1  0.40808800  0.86397100  0.86397100  1
  S  S3  1  0.86397100  0.86397100  0.86397100  1
  S  S4  1  0.38602900  0.38602900  0.84191200  1
  S  S5  1  0.38602900  0.84191200  0.38602900  1
  S  S6  1  0.84191200  0.38602900  0.38602900  1
  S  S7  1  0.38602900  0.38602900  0.38602900  1
loop_
_geom_bond_atom_site_label_1
_geom_bond_atom_site_label_2
_geom_bond_distance
_geom_bond_site_symmetry_2
Cr0 S6 2.423757 1_555
Cr0 S1 2.423757 1_554
Cr0 S5 2.423757 1_555
Cr0 S2 2.423757 1_554
Cr0 S7 2.423762 1_555
Cr0 S3 2.423762 1_554
Cr1 S6 2.423757 1_555
Cr1 S2 2.423757 1_545
Cr1 S0 2.423757 1_545
Cr1 S4 2.423757 1_555
Cr1 S7 2.423762 1_555
Cr1 S3 2.423762 1_545
Cr2 S0 2.423757 1_455
Cr2 S1 2.423757 1_455
Cr2 S5 2.423757 1_555
Cr2 S4 2.423757 1_555
Cr2 S7 2.423762 1_555
Cr2 S3 2.423762 1_455
Cr3 S5 2.423763 1_555
Cr3 S6 2.423763 1_555
Cr3 S4 2.423763 1_555
Cr3 S2 2.423763 1_555
Cr3 S0 2.423763 1_555
Cr3 S1 2.423763 1_555
Ga0 S3 2.384591 1_444
Ga0 S1 2.384597 1_454
Ga0 S0 2.384597 1_445
Ga0 S2 2.384597 1_544
Ga1 S7 2.384591 1_555
Ga1 S6 2.384597 1_455
Ga1 S4 2.384597 1_554
Ga1 S5 2.384597 1_545
