# generated using pymatgen
data_CaGdAlO4
_symmetry_space_group_name_H-M   'P 1'
_cell_length_a   6.52906085
_cell_length_b   6.52906085
_cell_length_c   6.52906085
_cell_angle_alpha   147.12550421
_cell_angle_beta   147.12550421
_cell_angle_gamma   47.17798863
_symmetry_Int_Tables_number   1
_chemical_formula_structural   CaGdAlO4
_chemical_formula_sum   'Ca1 Gd1 Al1 O4'
_cell_volume   81.69238481
_cell_formula_units_Z   1
loop_
 _symmetry_equiv_pos_site_id
 _symmetry_equiv_pos_as_xyz
  1  'x, y, z'
loop_
 _atom_site_type_symbol
 _atom_site_label
 _atom_site_symmetry_multiplicity
 _atom_site_fract_x
 _atom_site_fract_y
 _atom_site_fract_z
 _atom_site_occupancy
  Ca  Ca0  1  0.64287100  0.64287100  0.00000000  1
  Gd  Gd0  1  0.35780500  0.35780500  0.00000000  1
  Al  Al0  1  0.00561800  0.00561800  0.00000000  1
  O  O0  1  0.83284200  0.83284200  0.00000000  1
  O  O1  1  0.16885500  0.16885500  0.00000000  1
  O  O2  1  0.49600400  0.99600400  0.50000000  1
  O  O3  1  0.99600400  0.49600400  0.50000000  1
loop_
_geom_bond_atom_site_label_1
_geom_bond_atom_site_label_2
_geom_bond_distance
_geom_bond_site_symmetry_2
Ca0 O0 2.273379 1_555
Ca0 O3 2.549949 1_454
Ca0 O2 2.549949 1_544
Ca0 O3 2.549949 1_555
Ca0 O2 2.549949 1_555
Ca0 O1 2.631192 1_554
Ca0 O1 2.631192 1_666
Ca0 O1 2.631192 1_655
Ca0 O1 2.631192 1_565
Gd0 O1 2.261161 1_555
Gd0 O2 2.479592 1_544
Gd0 O3 2.479592 1_555
Gd0 O2 2.479592 1_555
Gd0 O3 2.479592 1_454
Gd0 O0 2.629776 1_556
Gd0 O0 2.629776 1_545
Gd0 O0 2.629776 1_444
Gd0 O0 2.629776 1_455
Al0 O3 1.851075 1_455
Al0 O2 1.851075 1_444
Al0 O2 1.851075 1_545
Al0 O3 1.851075 1_444
Al0 O1 1.953454 1_555
Al0 O0 2.067607 1_445
