# generated using pymatgen
data_Cr2CoTe4
_symmetry_space_group_name_H-M   'P 1'
_cell_length_a   6.94890188
_cell_length_b   6.94890188
_cell_length_c   6.88403737
_cell_angle_alpha   61.19229681
_cell_angle_beta   61.19229681
_cell_angle_gamma   33.55131271
_symmetry_Int_Tables_number   1
_chemical_formula_structural   Cr2CoTe4
_chemical_formula_sum   'Cr2 Co1 Te4'
_cell_volume   158.75406306
_cell_formula_units_Z   1
loop_
 _symmetry_equiv_pos_site_id
 _symmetry_equiv_pos_as_xyz
  1  'x, y, z'
loop_
 _atom_site_type_symbol
 _atom_site_label
 _atom_site_symmetry_multiplicity
 _atom_site_fract_x
 _atom_site_fract_y
 _atom_site_fract_z
 _atom_site_occupancy
  Cr  Cr0  1  0.74253700  0.74253700  0.27597800  1
  Cr  Cr1  1  0.25746300  0.25746300  0.72402200  1
  Co  Co0  1  0.00000000  0.00000000  0.00000000  1
  Te  Te0  1  0.88559500  0.88559500  0.44610700  1
  Te  Te1  1  0.11440500  0.11440500  0.55389300  1
  Te  Te2  1  0.62700200  0.62700200  0.03005200  1
  Te  Te3  1  0.37299800  0.37299800  0.96994800  1
loop_
_geom_bond_atom_site_label_1
_geom_bond_atom_site_label_2
_geom_bond_distance
_geom_bond_site_symmetry_2
Cr0 Te0 2.690605 1_555
Cr0 Te1 2.703023 1_655
Cr0 Te1 2.703023 1_565
Cr0 Te3 2.791616 1_564
Cr0 Te3 2.791616 1_654
Cr0 Te2 2.801673 1_555
Cr1 Te1 2.690605 1_555
Cr1 Te0 2.703023 1_455
Cr1 Te0 2.703023 1_545
Cr1 Te2 2.791616 1_546
Cr1 Te2 2.791616 1_456
Cr1 Te3 2.801673 1_555
Co0 Te0 2.653822 1_445
Co0 Te1 2.653822 1_554
Co0 Te2 2.696873 1_545
Co0 Te2 2.696873 1_455
Co0 Te3 2.696873 1_544
Co0 Te3 2.696873 1_454
Co0 Cr0 2.965577 1_445
Co0 Cr1 2.965577 1_554
