# generated using pymatgen
data_La4Ni3O10
_symmetry_space_group_name_H-M   'P 1'
_cell_length_a   3.87291961
_cell_length_b   3.87307869
_cell_length_c   14.26813194
_cell_angle_alpha   97.79779679
_cell_angle_beta   97.79691186
_cell_angle_gamma   90.02272996
_symmetry_Int_Tables_number   1
_chemical_formula_structural   La4Ni3O10
_chemical_formula_sum   'La4 Ni3 O10'
_cell_volume   210.04579315
_cell_formula_units_Z   1
loop_
 _symmetry_equiv_pos_site_id
 _symmetry_equiv_pos_as_xyz
  1  'x, y, z'
loop_
 _atom_site_type_symbol
 _atom_site_label
 _atom_site_symmetry_multiplicity
 _atom_site_fract_x
 _atom_site_fract_y
 _atom_site_fract_z
 _atom_site_occupancy
  La  La0  1  0.30148100  0.30147500  0.60298900  1
  La  La1  1  0.69852000  0.69852600  0.39701200  1
  La  La2  1  0.43279000  0.43279200  0.86564400  1
  La  La3  1  0.56720300  0.56720200  0.13434700  1
  Ni  Ni0  1  0.14043400  0.14042700  0.28074100  1
  Ni  Ni1  1  0.85957700  0.85959200  0.71930900  1
  Ni  Ni2  1  0.99999000  0.99998700  0.99996900  1
  O  O0  1  0.21721800  0.21720900  0.43441200  1
  O  O1  1  0.78278100  0.78279000  0.56558600  1
  O  O2  1  0.86019300  0.36022200  0.72053200  1
  O  O3  1  0.63977900  0.13981000  0.27946500  1
  O  O4  1  0.13980800  0.63977800  0.27946700  1
  O  O5  1  0.36022200  0.86019100  0.72053300  1
  O  O6  1  0.06865200  0.06865600  0.13727500  1
  O  O7  1  0.49999700  0.99999800  0.99999400  1
  O  O8  1  0.93135300  0.93134700  0.86273100  1
  O  O9  1  0.99999700  0.49999700  0.99999400  1
loop_
_geom_bond_atom_site_label_1
_geom_bond_atom_site_label_2
_geom_bond_distance
_geom_bond_site_symmetry_2
La0 O0 2.360574 1_555
La0 O2 2.541289 1_555
La0 O5 2.541356 1_555
La0 O2 2.541632 1_455
La0 O5 2.541703 1_545
La0 O1 2.787674 1_445
La0 O1 2.787773 1_555
La0 O1 2.788747 1_545
La0 O1 2.788835 1_455
La1 O1 2.360532 1_555
La1 O4 2.541304 1_555
La1 O3 2.541379 1_555
La1 O4 2.541653 1_655
La1 O3 2.541735 1_565
La1 O0 2.787663 1_665
La1 O0 2.787768 1_555
La1 O0 2.788739 1_565
La1 O0 2.788827 1_655
La2 O9 2.699749 1_455
La2 O7 2.699822 1_545
La2 O9 2.699935 1_555
La2 O7 2.699976 1_555
La2 O8 2.738300 1_445
La2 O8 2.738469 1_555
La2 O8 2.739449 1_455
La2 O8 2.739492 1_545
La2 O2 2.806820 1_555
La2 O5 2.806866 1_555
La2 O2 2.807048 1_455
La2 O5 2.807091 1_545
La3 O9 2.699785 1_554
La3 O7 2.699861 1_554
La3 O9 2.699958 1_454
La3 O7 2.699996 1_544
La3 O6 2.738319 1_665
La3 O6 2.738456 1_555
La3 O6 2.739461 1_655
La3 O6 2.739487 1_565
La3 O4 2.806890 1_555
La3 O3 2.806928 1_555
La3 O4 2.807140 1_655
La3 O3 2.807171 1_565
Ni0 O3 1.936476 1_555
Ni0 O4 1.936575 1_555
Ni0 O3 1.936608 1_455
Ni0 O4 1.936668 1_545
Ni0 O6 2.008946 1_555
Ni0 O0 2.151846 1_555
Ni1 O5 1.936408 1_555
Ni1 O2 1.936544 1_555
Ni1 O5 1.936664 1_655
Ni1 O2 1.936687 1_565
Ni1 O8 2.008330 1_555
Ni1 O1 2.152574 1_555
Ni2 O8 1.921735 1_555
Ni2 O6 1.922688 1_666
Ni2 O7 1.936439 1_655
Ni2 O7 1.936481 1_555
Ni2 O9 1.936530 1_565
Ni2 O9 1.936549 1_555
