# generated using pymatgen
data_Ca2LaBeO5
_symmetry_space_group_name_H-M   'P 1'
_cell_length_a   6.52079200
_cell_length_b   7.28999300
_cell_length_c   9.45916000
_cell_angle_alpha   90.00000000
_cell_angle_beta   90.00000000
_cell_angle_gamma   90.00000000
_symmetry_Int_Tables_number   1
_chemical_formula_structural   Ca2LaBeO5
_chemical_formula_sum   'Ca8 La4 Be4 O20'
_cell_volume   449.65562452
_cell_formula_units_Z   4
loop_
 _symmetry_equiv_pos_site_id
 _symmetry_equiv_pos_as_xyz
  1  'x, y, z'
loop_
 _atom_site_type_symbol
 _atom_site_label
 _atom_site_symmetry_multiplicity
 _atom_site_fract_x
 _atom_site_fract_y
 _atom_site_fract_z
 _atom_site_occupancy
  Ca  Ca0  1  0.57895000  0.52890400  0.82684600  1
  Ca  Ca1  1  0.42105000  0.47109600  0.17315400  1
  Ca  Ca2  1  0.07895000  0.47109600  0.67315400  1
  Ca  Ca3  1  0.42105000  0.02890400  0.17315400  1
  Ca  Ca4  1  0.92105000  0.52890400  0.32684600  1
  Ca  Ca5  1  0.57895000  0.97109600  0.82684600  1
  Ca  Ca6  1  0.92105000  0.97109600  0.32684600  1
  Ca  Ca7  1  0.07895000  0.02890400  0.67315400  1
  La  La0  1  0.10011100  0.75000000  0.97271700  1
  La  La1  1  0.89988900  0.25000000  0.02728300  1
  La  La2  1  0.60011100  0.25000000  0.52728300  1
  La  La3  1  0.39988900  0.75000000  0.47271700  1
  Be  Be0  1  0.81161300  0.75000000  0.60681100  1
  Be  Be1  1  0.18838700  0.25000000  0.39318900  1
  Be  Be2  1  0.31161300  0.25000000  0.89318900  1
  Be  Be3  1  0.68838700  0.75000000  0.10681100  1
  O  O0  1  0.86050300  0.75000000  0.77722000  1
  O  O1  1  0.13949700  0.25000000  0.22278000  1
  O  O2  1  0.36050300  0.25000000  0.72278000  1
  O  O3  1  0.63949700  0.75000000  0.27722000  1
  O  O4  1  0.33242800  0.75000000  0.73017000  1
  O  O5  1  0.66757200  0.25000000  0.26983000  1
  O  O6  1  0.83242800  0.25000000  0.76983000  1
  O  O7  1  0.16757200  0.75000000  0.23017000  1
  O  O8  1  0.68856400  0.56167600  0.57312200  1
  O  O9  1  0.31143600  0.43832400  0.42687800  1
  O  O10  1  0.18856400  0.43832400  0.92687800  1
  O  O11  1  0.31143600  0.06167600  0.42687800  1
  O  O12  1  0.81143600  0.56167600  0.07312200  1
  O  O13  1  0.68856400  0.93832400  0.57312200  1
  O  O14  1  0.81143600  0.93832400  0.07312200  1
  O  O15  1  0.18856400  0.06167600  0.92687800  1
  O  O16  1  0.02283800  0.75000000  0.51306400  1
  O  O17  1  0.97716200  0.25000000  0.48693600  1
  O  O18  1  0.52283800  0.25000000  0.98693600  1
  O  O19  1  0.47716200  0.75000000  0.01306400  1
loop_
_geom_bond_atom_site_label_1
_geom_bond_atom_site_label_2
_geom_bond_distance
_geom_bond_site_symmetry_2
Ca0 O4 2.453210 1_555
Ca0 O19 2.478139 1_556
Ca0 O0 2.487755 1_555
Ca0 O8 2.515561 1_555
Ca0 O18 2.561439 1_555
Ca0 O2 2.670577 1_555
Ca0 O6 2.675221 1_555
Ca0 O12 2.789656 1_556
Ca0 O10 2.794919 1_555
Ca1 O5 2.453210 1_555
Ca1 O18 2.478139 1_554
Ca1 O1 2.487755 1_555
Ca1 O9 2.515561 1_555
Ca1 O19 2.561439 1_555
Ca1 O3 2.670577 1_555
Ca1 O7 2.675221 1_555
Ca1 O10 2.789656 1_554
Ca1 O12 2.794919 1_555
Ca2 O6 2.453210 1_455
Ca2 O17 2.478139 1_455
Ca2 O2 2.487755 1_555
Ca2 O10 2.515561 1_555
Ca2 O16 2.561439 1_555
Ca2 O0 2.670577 1_455
Ca2 O4 2.675221 1_555
Ca2 O9 2.789656 1_555
Ca2 O8 2.794919 1_455
Ca3 O5 2.453210 1_555
Ca3 O18 2.478139 1_554
Ca3 O1 2.487755 1_555
Ca3 O11 2.515561 1_555
Ca3 O19 2.561439 1_545
Ca3 O3 2.670577 1_545
Ca3 O7 2.675221 1_545
Ca3 O15 2.789656 1_554
Ca3 O14 2.794919 1_545
Ca4 O7 2.453210 1_655
Ca4 O16 2.478139 1_655
Ca4 O3 2.487755 1_555
Ca4 O12 2.515561 1_555
Ca4 O17 2.561439 1_555
Ca4 O1 2.670577 1_655
Ca4 O5 2.675221 1_555
Ca4 O8 2.789656 1_555
Ca4 O9 2.794919 1_655
Ca5 O4 2.453210 1_555
Ca5 O19 2.478139 1_556
Ca5 O0 2.487755 1_555
Ca5 O13 2.515561 1_555
Ca5 O18 2.561439 1_565
Ca5 O2 2.670577 1_565
Ca5 O6 2.675221 1_565
Ca5 O14 2.789656 1_556
Ca5 O15 2.794919 1_565
Ca6 O7 2.453210 1_655
Ca6 O16 2.478139 1_655
Ca6 O3 2.487755 1_555
Ca6 O14 2.515561 1_555
Ca6 O17 2.561439 1_565
Ca6 O1 2.670577 1_665
Ca6 O5 2.675221 1_565
Ca6 O13 2.789656 1_555
Ca6 O11 2.794919 1_665
Ca7 O6 2.453210 1_455
Ca7 O17 2.478139 1_455
Ca7 O2 2.487755 1_555
Ca7 O15 2.515561 1_555
Ca7 O16 2.561439 1_545
Ca7 O0 2.670577 1_445
Ca7 O4 2.675221 1_545
Ca7 O11 2.789656 1_555
Ca7 O13 2.794919 1_445
La0 O15 2.383946 1_565
La0 O10 2.383946 1_555
La0 O0 2.420925 1_455
La0 O7 2.474701 1_556
La0 O19 2.488116 1_556
La0 O14 2.515991 1_456
La0 O12 2.515991 1_456
La0 O4 2.749303 1_555
La1 O12 2.383946 1_555
La1 O14 2.383946 1_545
La1 O1 2.420925 1_655
La1 O6 2.474701 1_554
La1 O18 2.488116 1_554
La1 O10 2.515991 1_654
La1 O15 2.515991 1_654
La1 O5 2.749303 1_555
La2 O8 2.383946 1_555
La2 O13 2.383946 1_545
La2 O2 2.420925 1_555
La2 O5 2.474701 1_555
La2 O17 2.488116 1_555
La2 O9 2.515991 1_555
La2 O11 2.515991 1_555
La2 O6 2.749303 1_555
La3 O11 2.383946 1_565
La3 O9 2.383946 1_555
La3 O3 2.420925 1_555
La3 O4 2.474701 1_555
La3 O16 2.488116 1_555
La3 O13 2.515991 1_555
La3 O8 2.515991 1_555
La3 O7 2.749303 1_555
Be0 O13 1.621777 1_555
Be0 O8 1.621777 1_555
Be0 O16 1.638128 1_655
Be0 O0 1.643149 1_555
Be1 O9 1.621777 1_555
Be1 O11 1.621777 1_555
Be1 O17 1.638128 1_455
Be1 O1 1.643149 1_555
Be2 O10 1.621777 1_555
Be2 O15 1.621777 1_555
Be2 O18 1.638128 1_555
Be2 O2 1.643149 1_555
Be3 O14 1.621777 1_555
Be3 O12 1.621777 1_555
Be3 O19 1.638128 1_555
Be3 O3 1.643149 1_555
