# generated using pymatgen
data_RbLiMg(BH4)4
_symmetry_space_group_name_H-M   'P 1'
_cell_length_a   7.84746857
_cell_length_b   7.84746857
_cell_length_c   8.25402800
_cell_angle_alpha   90.00000000
_cell_angle_beta   90.00000000
_cell_angle_gamma   105.30407199
_symmetry_Int_Tables_number   1
_chemical_formula_structural   RbLiMg(BH4)4
_chemical_formula_sum   'Rb2 Li2 Mg2 B8 H32'
_cell_volume   490.28064419
_cell_formula_units_Z   2
loop_
 _symmetry_equiv_pos_site_id
 _symmetry_equiv_pos_as_xyz
  1  'x, y, z'
loop_
 _atom_site_type_symbol
 _atom_site_label
 _atom_site_symmetry_multiplicity
 _atom_site_fract_x
 _atom_site_fract_y
 _atom_site_fract_z
 _atom_site_occupancy
  Rb  Rb0  1  0.20424300  0.79575700  0.50000000  1
  Rb  Rb1  1  0.70424300  0.29575700  0.00000000  1
  Li  Li0  1  0.84652200  0.15347800  0.50000000  1
  Li  Li1  1  0.34652200  0.65347800  0.00000000  1
  Mg  Mg0  1  0.55910300  0.44089700  0.50000000  1
  Mg  Mg1  1  0.05910300  0.94089700  0.00000000  1
  B  B0  1  0.03386700  0.64199700  0.10479600  1
  B  B1  1  0.35800300  0.96613300  0.89520400  1
  B  B2  1  0.53386700  0.14199700  0.39520400  1
  B  B3  1  0.85800300  0.46613300  0.60479600  1
  B  B4  1  0.47938200  0.58775800  0.26588700  1
  B  B5  1  0.41224200  0.52061800  0.73411300  1
  B  B6  1  0.97938200  0.08775800  0.23411300  1
  B  B7  1  0.91224200  0.02061800  0.76588700  1
  H  H0  1  0.40651300  0.70575800  0.25077600  1
  H  H1  1  0.29424200  0.59348700  0.74922400  1
  H  H2  1  0.90651300  0.20575800  0.24922400  1
  H  H3  1  0.79424200  0.09348700  0.75077600  1
  H  H4  1  0.52297700  0.54035700  0.13499300  1
  H  H5  1  0.45964300  0.47702300  0.86500700  1
  H  H6  1  0.02297700  0.04035700  0.36500700  1
  H  H7  1  0.95964300  0.97702300  0.63499300  1
  H  H8  1  0.61479200  0.64953000  0.34508700  1
  H  H9  1  0.35047000  0.38520800  0.65491300  1
  H  H10  1  0.11479200  0.14953000  0.15491300  1
  H  H11  1  0.85047000  0.88520800  0.84508700  1
  H  H12  1  0.92619000  0.68640900  0.01593600  1
  H  H13  1  0.31359100  0.07381000  0.98406400  1
  H  H14  1  0.42619000  0.18640900  0.48406400  1
  H  H15  1  0.81359100  0.57381000  0.51593600  1
  H  H16  1  0.09552300  0.54028000  0.02621400  1
  H  H17  1  0.45972000  0.90447700  0.97378600  1
  H  H18  1  0.59552300  0.04028000  0.47378600  1
  H  H19  1  0.95972000  0.40447700  0.52621400  1
  H  H20  1  0.95631500  0.57253400  0.22471900  1
  H  H21  1  0.42746600  0.04368500  0.77528100  1
  H  H22  1  0.45631500  0.07253400  0.27528100  1
  H  H23  1  0.92746600  0.54368500  0.72471900  1
  H  H24  1  0.15294300  0.77150100  0.14735600  1
  H  H25  1  0.22849900  0.84705700  0.85264400  1
  H  H26  1  0.65294300  0.27150100  0.35264400  1
  H  H27  1  0.72849900  0.34705700  0.64735600  1
  H  H28  1  0.37534100  0.46031600  0.33090100  1
  H  H29  1  0.53968400  0.62465900  0.66909900  1
  H  H30  1  0.87534100  0.96031600  0.16909900  1
  H  H31  1  0.03968400  0.12465900  0.83090100  1
loop_
_geom_bond_atom_site_label_1
_geom_bond_atom_site_label_2
_geom_bond_distance
_geom_bond_site_symmetry_2
B0 H20 1.213341 1_455
B0 H16 1.223046 1_555
B0 H24 1.236167 1_555
B0 H12 1.236484 1_455
B1 H21 1.213341 1_565
B1 H17 1.223046 1_555
B1 H25 1.236167 1_555
B1 H13 1.236484 1_565
B2 H22 1.213341 1_555
B2 H18 1.223046 1_555
B2 H26 1.236167 1_555
B2 H14 1.236484 1_555
B3 H23 1.213341 1_555
B3 H19 1.223046 1_555
B3 H27 1.236167 1_555
B3 H15 1.236484 1_555
B4 H0 1.216371 1_555
B4 H4 1.220596 1_555
B4 H8 1.232716 1_555
B4 H28 1.234395 1_555
B5 H1 1.216371 1_555
B5 H5 1.220596 1_555
B5 H9 1.232716 1_555
B5 H29 1.234395 1_555
B6 H2 1.216371 1_555
B6 H6 1.220596 1_655
B6 H10 1.232716 1_655
B6 H30 1.234395 1_545
B7 H3 1.216371 1_555
B7 H7 1.220596 1_545
B7 H11 1.232716 1_545
B7 H31 1.234395 1_655
H0 Li1 2.138347 1_555
H0 Rb0 2.800323 1_555
H1 Li1 2.138347 1_556
H1 Rb0 2.800323 1_555
H2 Li0 2.138347 1_555
H2 Rb1 2.800323 1_555
H3 Li0 2.138347 1_555
H3 Rb1 2.800323 1_556
H4 Li1 2.143809 1_555
H4 Rb1 2.896682 1_555
H5 Li1 2.143809 1_556
H5 Rb1 2.896682 1_556
H6 Li0 2.143809 1_455
H6 Rb0 2.896682 1_545
H7 Li0 2.143809 1_565
H7 Rb0 2.896682 1_655
H8 Mg0 2.031945 1_555
H9 Mg0 2.031945 1_555
H10 Mg1 2.031945 1_545
H11 Mg1 2.031945 1_656
H12 Mg1 1.998494 1_655
H12 Rb1 3.103282 1_555
H13 Mg1 1.998494 1_546
H13 Rb1 3.103282 1_556
H14 Mg0 1.998494 1_555
H14 Rb0 3.103282 1_545
H15 Mg0 1.998494 1_555
H15 Rb0 3.103282 1_655
H16 Li1 1.947311 1_555
H16 Rb1 3.169692 1_455
H17 Li1 1.947311 1_556
H17 Rb1 3.169692 1_566
H18 Li0 1.947311 1_555
H18 Rb0 3.169692 1_545
H19 Li0 1.947311 1_555
H19 Rb0 3.169692 1_655
H20 Rb1 3.130965 1_555
H20 Rb0 3.196502 1_655
H21 Rb1 3.130965 1_556
H21 Rb0 3.196502 1_545
H22 Rb0 3.130965 1_545
H22 Rb1 3.196502 1_555
H23 Rb0 3.130965 1_655
H23 Rb1 3.196502 1_556
H24 Mg1 2.074972 1_555
H24 Rb0 2.937723 1_555
H25 Mg1 2.074972 1_556
H25 Rb0 2.937723 1_555
H26 Mg0 2.074972 1_555
H26 Rb1 2.937723 1_555
H27 Mg0 2.074972 1_555
H27 Rb1 2.937723 1_556
H28 Mg0 2.041298 1_555
H29 Mg0 2.041298 1_555
H30 Mg1 2.041298 1_655
H31 Mg1 2.041298 1_546
