# generated using pymatgen
data_Li9Mn7O16
_symmetry_space_group_name_H-M   'P 1'
_cell_length_a   6.07528100
_cell_length_b   6.50459828
_cell_length_c   7.81463689
_cell_angle_alpha   89.73051447
_cell_angle_beta   96.80931092
_cell_angle_gamma   103.25207713
_symmetry_Int_Tables_number   1
_chemical_formula_structural   Li9Mn7O16
_chemical_formula_sum   'Li9 Mn7 O16'
_cell_volume   298.38865848
_cell_formula_units_Z   1
loop_
 _symmetry_equiv_pos_site_id
 _symmetry_equiv_pos_as_xyz
  1  'x, y, z'
loop_
 _atom_site_type_symbol
 _atom_site_label
 _atom_site_symmetry_multiplicity
 _atom_site_fract_x
 _atom_site_fract_y
 _atom_site_fract_z
 _atom_site_occupancy
  Li  Li0  1  0.12081400  0.12319300  0.37128900  1
  Li  Li1  1  0.62266700  0.63140600  0.87849700  1
  Li  Li2  1  0.37509200  0.87662700  0.62881900  1
  Li  Li3  1  0.86889000  0.36866100  0.12543900  1
  Li  Li4  1  0.62490800  0.12337300  0.37118100  1
  Li  Li5  1  0.13111000  0.63133900  0.87456100  1
  Li  Li6  1  0.87918600  0.87680700  0.62871100  1
  Li  Li7  1  0.37733300  0.36859400  0.12150300  1
  Li  Li8  1  0.50000000  0.00000000  0.00000000  1
  Mn  Mn0  1  0.00000000  0.00000000  0.00000000  1
  Mn  Mn1  1  0.24606200  0.75057400  0.24393300  1
  Mn  Mn2  1  0.50000000  0.50000000  0.50000000  1
  Mn  Mn3  1  0.75393800  0.24942600  0.75606700  1
  Mn  Mn4  1  0.00000000  0.50000000  0.50000000  1
  Mn  Mn5  1  0.73826600  0.75050200  0.24345400  1
  Mn  Mn6  1  0.26173400  0.24949800  0.75654600  1
  O  O0  1  0.81975800  0.04464200  0.18334100  1
  O  O1  1  0.32573800  0.54895600  0.68628600  1
  O  O2  1  0.05444500  0.79419800  0.42468200  1
  O  O3  1  0.56105800  0.30704000  0.91871800  1
  O  O4  1  0.27404600  0.04045500  0.17051000  1
  O  O5  1  0.82549600  0.54753900  0.68351200  1
  O  O6  1  0.57199400  0.80128000  0.43632000  1
  O  O7  1  0.07876200  0.29600800  0.93961000  1
  O  O8  1  0.42800600  0.19872000  0.56368000  1
  O  O9  1  0.92123800  0.70399200  0.06039000  1
  O  O10  1  0.72595400  0.95954500  0.82949000  1
  O  O11  1  0.17450400  0.45246100  0.31648800  1
  O  O12  1  0.94555500  0.20580200  0.57531800  1
  O  O13  1  0.43894200  0.69296000  0.08128200  1
  O  O14  1  0.18024200  0.95535800  0.81665900  1
  O  O15  1  0.67426200  0.45104400  0.31371400  1
loop_
_geom_bond_atom_site_label_1
_geom_bond_atom_site_label_2
_geom_bond_distance
_geom_bond_site_symmetry_2
Li0 O4 2.049895 1_555
Li0 O2 2.133562 1_545
Li0 O11 2.140355 1_555
Li0 O12 2.153486 1_455
Li0 O0 2.169128 1_455
Li0 O8 2.214946 1_555
Li1 O3 2.085675 1_555
Li1 O10 2.128705 1_555
Li1 O9 2.129762 1_556
Li1 O13 2.132536 1_556
Li1 O1 2.172431 1_555
Li1 O5 2.213378 1_555
Li2 O8 2.114671 1_565
Li2 O14 2.124938 1_555
Li2 O1 2.136409 1_555
Li2 O6 2.153270 1_555
Li2 O2 2.327958 1_555
Li2 O10 2.445797 1_555
Li3 O0 2.114356 1_555
Li3 O15 2.135520 1_555
Li3 O7 2.163251 1_654
Li3 O9 2.197049 1_555
Li3 O11 2.204481 1_655
Li3 O3 2.283389 1_554
Li4 O6 2.114671 1_545
Li4 O0 2.124938 1_555
Li4 O15 2.136409 1_555
Li4 O8 2.153270 1_555
Li4 O12 2.327958 1_555
Li4 O4 2.445797 1_555
Li5 O14 2.114356 1_555
Li5 O1 2.135520 1_555
Li5 O9 2.163251 1_456
Li5 O7 2.197049 1_555
Li5 O5 2.204481 1_455
Li5 O13 2.283389 1_556
Li6 O10 2.049895 1_555
Li6 O12 2.133562 1_565
Li6 O5 2.140355 1_555
Li6 O2 2.153486 1_655
Li6 O14 2.169128 1_655
Li6 O6 2.214946 1_555
Li7 O13 2.085675 1_555
Li7 O4 2.128705 1_555
Li7 O7 2.129762 1_554
Li7 O3 2.132536 1_554
Li7 O15 2.172431 1_555
Li7 O11 2.213378 1_555
Li8 O13 2.057680 1_545
Li8 O3 2.057680 1_554
Li8 O10 2.081294 1_544
Li8 O4 2.081294 1_555
Li8 O0 2.235204 1_555
Li8 O14 2.235204 1_544
Mn0 O7 1.944608 1_554
Mn0 O9 1.944608 1_445
Mn0 O0 1.964146 1_455
Mn0 O14 1.964146 1_544
Mn0 O10 1.973074 1_444
Mn0 O4 1.973074 1_555
Mn1 O13 1.920456 1_555
Mn1 O4 1.944078 1_565
Mn1 O11 1.982983 1_555
Mn1 O2 1.993982 1_555
Mn1 O9 2.258792 1_455
Mn1 O6 2.299850 1_555
Mn2 O15 1.966176 1_555
Mn2 O1 1.966176 1_555
Mn2 O8 1.982134 1_555
Mn2 O6 1.982134 1_555
Mn2 O11 2.261412 1_555
Mn2 O5 2.261412 1_555
Mn3 O3 1.920456 1_555
Mn3 O10 1.944078 1_545
Mn3 O5 1.982983 1_555
Mn3 O12 1.993982 1_555
Mn3 O7 2.258792 1_655
Mn3 O8 2.299850 1_555
Mn4 O11 1.947084 1_555
Mn4 O5 1.947084 1_455
Mn4 O2 1.965509 1_555
Mn4 O12 1.965509 1_455
Mn4 O1 2.273582 1_555
Mn4 O15 2.273582 1_455
Mn5 O0 1.933592 1_565
Mn5 O9 1.977143 1_555
Mn5 O6 1.979836 1_555
Mn5 O15 1.984972 1_555
Mn5 O13 2.049137 1_555
Mn5 O2 2.210124 1_655
Mn6 O14 1.933592 1_545
Mn6 O7 1.977143 1_555
Mn6 O8 1.979836 1_555
Mn6 O1 1.984972 1_555
Mn6 O3 2.049137 1_555
Mn6 O12 2.210124 1_455
