# generated using pymatgen
data_Ba2Ge2Se5
_symmetry_space_group_name_H-M   'P 1'
_cell_length_a   9.24799457
_cell_length_b   9.31696768
_cell_length_c   12.79024829
_cell_angle_alpha   90.00000000
_cell_angle_beta   90.00000000
_cell_angle_gamma   90.00000000
_symmetry_Int_Tables_number   1
_chemical_formula_structural   Ba2Ge2Se5
_chemical_formula_sum   'Ba8 Ge8 Se20'
_cell_volume   1102.04957219
_cell_formula_units_Z   4
loop_
 _symmetry_equiv_pos_site_id
 _symmetry_equiv_pos_as_xyz
  1  'x, y, z'
loop_
 _atom_site_type_symbol
 _atom_site_label
 _atom_site_symmetry_multiplicity
 _atom_site_fract_x
 _atom_site_fract_y
 _atom_site_fract_z
 _atom_site_occupancy
  Ba  Ba0  1  0.49565974  0.87701772  0.17763534  1
  Ba  Ba1  1  0.50434026  0.37701772  0.32236466  1
  Ba  Ba2  1  0.99565974  0.12298228  0.82236466  1
  Ba  Ba3  1  0.00434026  0.62298228  0.67763534  1
  Ba  Ba4  1  0.50434026  0.12298228  0.82236466  1
  Ba  Ba5  1  0.49565974  0.62298228  0.67763534  1
  Ba  Ba6  1  0.00434026  0.87701772  0.17763534  1
  Ba  Ba7  1  0.99565974  0.37701772  0.32236466  1
  Ge  Ge0  1  0.75000000  0.97514651  0.53664479  1
  Ge  Ge1  1  0.25000000  0.02485349  0.46335521  1
  Ge  Ge2  1  0.75000000  0.52485349  0.03664479  1
  Ge  Ge3  1  0.25000000  0.47514651  0.96335521  1
  Ge  Ge4  1  0.25000000  0.81753190  0.90327471  1
  Ge  Ge5  1  0.75000000  0.31753190  0.59672529  1
  Ge  Ge6  1  0.75000000  0.18246810  0.09672529  1
  Ge  Ge7  1  0.25000000  0.68246810  0.40327471  1
  Se  Se0  1  0.25000000  0.11718286  0.28386936  1
  Se  Se1  1  0.75000000  0.61718286  0.21613064  1
  Se  Se2  1  0.75000000  0.88281714  0.71613064  1
  Se  Se3  1  0.25000000  0.38281714  0.78386936  1
  Se  Se4  1  0.75000000  0.52448623  0.49446089  1
  Se  Se5  1  0.75000000  0.97551377  0.99446089  1
  Se  Se6  1  0.25000000  0.02448623  0.00553911  1
  Se  Se7  1  0.25000000  0.47551377  0.50553911  1
  Se  Se8  1  0.25000000  0.61534888  0.22520105  1
  Se  Se9  1  0.75000000  0.11534888  0.27479895  1
  Se  Se10  1  0.75000000  0.38465112  0.77479895  1
  Se  Se11  1  0.25000000  0.88465112  0.72520105  1
  Se  Se12  1  0.04578688  0.82646520  0.44130453  1
  Se  Se13  1  0.95421312  0.32646520  0.05869547  1
  Se  Se14  1  0.54578688  0.17353480  0.55869547  1
  Se  Se15  1  0.45421312  0.67353480  0.94130453  1
  Se  Se16  1  0.95421312  0.17353480  0.55869547  1
  Se  Se17  1  0.04578688  0.67353480  0.94130453  1
  Se  Se18  1  0.45421312  0.82646520  0.44130453  1
  Se  Se19  1  0.54578688  0.32646520  0.05869547  1
loop_
_geom_bond_atom_site_label_1
_geom_bond_atom_site_label_2
_geom_bond_distance
_geom_bond_site_symmetry_2
Ba0 Se8 3.387495 1_555
Ba0 Se1 3.411099 1_555
Ba0 Se18 3.426631 1_555
Ba0 Se5 3.444361 1_554
Ba0 Se6 3.448795 1_565
Ba0 Se9 3.465212 1_565
Ba0 Se0 3.466191 1_565
Ba0 Se15 3.588598 1_554
Ba1 Se9 3.387495 1_555
Ba1 Se0 3.411099 1_555
Ba1 Se19 3.426631 1_555
Ba1 Se7 3.444361 1_555
Ba1 Se4 3.448795 1_555
Ba1 Se8 3.465212 1_555
Ba1 Se1 3.466191 1_555
Ba1 Se14 3.588598 1_555
Ba2 Se10 3.387495 1_555
Ba2 Se3 3.411099 1_655
Ba2 Se16 3.426631 1_555
Ba2 Se6 3.444361 1_656
Ba2 Se5 3.448795 1_545
Ba2 Se11 3.465212 1_645
Ba2 Se2 3.466191 1_545
Ba2 Se13 3.588598 1_556
Ba3 Se11 3.387495 1_555
Ba3 Se2 3.411099 1_455
Ba3 Se17 3.426631 1_555
Ba3 Se4 3.444361 1_455
Ba3 Se7 3.448795 1_555
Ba3 Se10 3.465212 1_455
Ba3 Se3 3.466191 1_555
Ba3 Se12 3.588598 1_555
Ba4 Se10 3.387495 1_555
Ba4 Se3 3.411099 1_555
Ba4 Se14 3.426631 1_555
Ba4 Se6 3.444361 1_556
Ba4 Se5 3.448795 1_545
Ba4 Se11 3.465212 1_545
Ba4 Se2 3.466191 1_545
Ba4 Se19 3.588598 1_556
Ba5 Se11 3.387495 1_555
Ba5 Se2 3.411099 1_555
Ba5 Se15 3.426631 1_555
Ba5 Se4 3.444361 1_555
Ba5 Se7 3.448795 1_555
Ba5 Se10 3.465212 1_555
Ba5 Se3 3.466191 1_555
Ba5 Se18 3.588598 1_555
Ba6 Se8 3.387495 1_555
Ba6 Se1 3.411099 1_455
Ba6 Se12 3.426631 1_555
Ba6 Se5 3.444361 1_454
Ba6 Se6 3.448795 1_565
Ba6 Se9 3.465212 1_465
Ba6 Se0 3.466191 1_565
Ba6 Se17 3.588598 1_554
Ba7 Se9 3.387495 1_555
Ba7 Se0 3.411099 1_655
Ba7 Se13 3.426631 1_555
Ba7 Se7 3.444361 1_655
Ba7 Se4 3.448795 1_555
Ba7 Se8 3.465212 1_655
Ba7 Se1 3.466191 1_555
Ba7 Se16 3.588598 1_555
Ge0 Se2 2.451548 1_555
Ge0 Se14 2.657575 1_565
Ge0 Se16 2.657575 1_565
Ge1 Se0 2.451548 1_555
Ge1 Se18 2.657575 1_545
Ge1 Se12 2.657575 1_545
Ge2 Se1 2.451548 1_555
Ge2 Se19 2.657575 1_555
Ge2 Se13 2.657575 1_555
Ge3 Se3 2.451548 1_555
Ge3 Se17 2.657575 1_555
Ge3 Se15 2.657575 1_555
Ge4 Se6 2.329964 1_566
Ge4 Se11 2.361895 1_555
Ge4 Se15 2.367107 1_555
Ge4 Se17 2.367107 1_555
Ge5 Se4 2.329964 1_555
Ge5 Se10 2.361895 1_555
Ge5 Se14 2.367107 1_555
Ge5 Se16 2.367107 1_555
Ge6 Se5 2.329964 1_544
Ge6 Se9 2.361895 1_555
Ge6 Se19 2.367107 1_555
Ge6 Se13 2.367107 1_555
Ge7 Se7 2.329964 1_555
Ge7 Se8 2.361895 1_555
Ge7 Se12 2.367107 1_555
Ge7 Se18 2.367107 1_555
