# generated using pymatgen
data_Mg14CrBi
_symmetry_space_group_name_H-M   'P 1'
_cell_length_a   6.35079367
_cell_length_b   6.35079315
_cell_length_c   10.41826459
_cell_angle_alpha   90.00000000
_cell_angle_beta   90.00000000
_cell_angle_gamma   120.00000263
_symmetry_Int_Tables_number   1
_chemical_formula_structural   Mg14CrBi
_chemical_formula_sum   'Mg14 Cr1 Bi1'
_cell_volume   363.89993189
_cell_formula_units_Z   1
loop_
 _symmetry_equiv_pos_site_id
 _symmetry_equiv_pos_as_xyz
  1  'x, y, z'
loop_
 _atom_site_type_symbol
 _atom_site_label
 _atom_site_symmetry_multiplicity
 _atom_site_fract_x
 _atom_site_fract_y
 _atom_site_fract_z
 _atom_site_occupancy
  Mg  Mg0  1  0.16606885  0.83303393  0.12500000  1
  Mg  Mg1  1  0.16515309  0.83257604  0.62500000  1
  Mg  Mg2  1  0.66696607  0.33393115  0.12500000  1
  Mg  Mg3  1  0.66742396  0.33484691  0.62500000  1
  Mg  Mg4  1  0.66696607  0.83303393  0.12500000  1
  Mg  Mg5  1  0.66742396  0.83257604  0.62500000  1
  Mg  Mg6  1  0.33310623  0.16689377  0.36533772  1
  Mg  Mg7  1  0.33310623  0.16689377  0.88466228  1
  Mg  Mg8  1  0.33310623  0.66621345  0.36533772  1
  Mg  Mg9  1  0.33310623  0.66621345  0.88466228  1
  Mg  Mg10  1  0.83378655  0.16689377  0.36533772  1
  Mg  Mg11  1  0.83378655  0.16689377  0.88466228  1
  Mg  Mg12  1  0.83333300  0.66666700  0.37375446  1
  Mg  Mg13  1  0.83333300  0.66666700  0.87624554  1
  Cr  Cr0  1  0.16666700  0.33333300  0.12500000  1
  Bi  Bi0  1  0.16666700  0.33333300  0.62500000  1
loop_
_geom_bond_atom_site_label_1
_geom_bond_atom_site_label_2
_geom_bond_distance
_geom_bond_site_symmetry_2
Mg0 Mg9 3.105022 1_554
Mg0 Mg8 3.105022 1_555
Mg0 Mg7 3.105028 1_564
Mg0 Mg6 3.105028 1_565
Mg0 Mg2 3.169699 1_455
Mg0 Mg4 3.169699 1_455
Mg0 Mg12 3.172593 1_455
Mg0 Mg13 3.172593 1_454
Mg0 Mg2 3.181095 1_565
Mg0 Mg4 3.181095 1_555
Mg1 Mg3 3.160975 1_455
Mg1 Mg5 3.160975 1_455
Mg1 Mg3 3.189818 1_565
Mg1 Mg5 3.189819 1_555
Mg1 Mg12 3.190945 1_455
Mg1 Mg13 3.190945 1_455
Mg1 Mg8 3.270961 1_555
Mg1 Mg9 3.270961 1_555
Mg1 Mg6 3.270967 1_565
Mg1 Mg7 3.270967 1_565
Mg2 Mg7 3.105028 1_554
Mg2 Mg6 3.105028 1_555
Mg2 Mg4 3.169699 1_555
Mg2 Mg4 3.181095 1_545
Mg3 Mg5 3.160975 1_555
Mg3 Mg5 3.189818 1_545
Mg3 Mg6 3.270967 1_555
Mg3 Mg7 3.270967 1_555
Mg4 Mg9 3.105028 1_554
Mg4 Mg8 3.105028 1_555
Mg5 Mg8 3.270967 1_555
Mg5 Mg9 3.270967 1_555
Mg6 Mg8 3.171076 1_555
Mg6 Mg8 3.179717 1_545
Mg7 Mg9 3.171076 1_555
Mg7 Mg9 3.179717 1_545
Mg10 Mg2 3.105022 1_555
Mg10 Mg4 3.105028 1_545
Mg10 Mg8 3.171076 1_655
Mg10 Mg6 3.171076 1_655
Mg10 Mg12 3.176608 1_545
Mg10 Mg12 3.176608 1_555
Mg10 Mg8 3.179717 1_545
Mg10 Mg6 3.179717 1_555
Mg10 Mg3 3.270961 1_555
Mg10 Mg5 3.270967 1_545
Mg11 Mg2 3.105022 1_556
Mg11 Mg4 3.105028 1_546
Mg11 Mg9 3.171076 1_655
Mg11 Mg7 3.171076 1_655
Mg11 Mg13 3.176608 1_545
Mg11 Mg13 3.176608 1_555
Mg11 Mg9 3.179717 1_545
Mg11 Mg7 3.179717 1_555
Mg11 Mg3 3.270961 1_555
Mg11 Mg5 3.270967 1_545
Mg12 Mg4 3.172587 1_555
Mg12 Mg2 3.172593 1_555
Mg12 Mg6 3.176608 1_665
Mg12 Mg6 3.176608 1_555
Mg12 Mg8 3.176608 1_555
Mg12 Mg8 3.176608 1_655
Mg12 Mg5 3.190939 1_555
Mg12 Mg3 3.190945 1_555
Mg13 Mg4 3.172587 1_556
Mg13 Mg2 3.172593 1_556
Mg13 Mg7 3.176608 1_665
Mg13 Mg7 3.176608 1_555
Mg13 Mg9 3.176608 1_555
Mg13 Mg9 3.176608 1_655
Mg13 Mg5 3.190939 1_555
Mg13 Mg3 3.190945 1_555
Cr0 Mg7 3.101839 1_554
Cr0 Mg6 3.101839 1_555
Cr0 Mg9 3.101846 1_554
Cr0 Mg8 3.101846 1_555
Cr0 Mg11 3.101846 1_454
Cr0 Mg10 3.101846 1_455
Cr0 Mg0 3.175398 1_545
Cr0 Mg4 3.175398 1_445
Cr0 Mg4 3.175398 1_555
Cr0 Mg0 3.175398 1_555
Cr0 Mg2 3.175399 1_555
Cr0 Mg2 3.175399 1_455
Bi0 Mg1 3.175407 1_555
Bi0 Mg5 3.175407 1_445
Bi0 Mg5 3.175407 1_555
Bi0 Mg1 3.175408 1_545
Bi0 Mg3 3.175408 1_455
Bi0 Mg3 3.175408 1_555
Bi0 Mg6 3.266520 1_555
Bi0 Mg7 3.266520 1_555
Bi0 Mg8 3.266526 1_555
Bi0 Mg9 3.266526 1_555
Bi0 Mg10 3.266526 1_455
Bi0 Mg11 3.266526 1_455
