# generated using pymatgen
data_Sr2SmCu2(BiO4)2
_symmetry_space_group_name_H-M   'P 1'
_cell_length_a   15.62112041
_cell_length_b   15.62112041
_cell_length_c   15.62112041
_cell_angle_alpha   165.97581478
_cell_angle_beta   165.97581478
_cell_angle_gamma   19.88334278
_symmetry_Int_Tables_number   1
_chemical_formula_structural   Sr2SmCu2(BiO4)2
_chemical_formula_sum   'Sr2 Sm1 Cu2 Bi2 O8'
_cell_volume   223.82386277
_cell_formula_units_Z   1
loop_
 _symmetry_equiv_pos_site_id
 _symmetry_equiv_pos_as_xyz
  1  'x, y, z'
loop_
 _atom_site_type_symbol
 _atom_site_label
 _atom_site_symmetry_multiplicity
 _atom_site_fract_x
 _atom_site_fract_y
 _atom_site_fract_z
 _atom_site_occupancy
  Sr  Sr0  1  0.11472200  0.11472200  0.00000000  1
  Sr  Sr1  1  0.88527800  0.88527800  0.00000000  1
  Sm  Sm0  1  0.00000000  0.00000000  0.00000000  1
  Cu  Cu0  1  0.44648400  0.44648400  0.00000000  1
  Cu  Cu1  1  0.55351600  0.55351600  0.00000000  1
  Bi  Bi0  1  0.29583800  0.29583800  0.00000000  1
  Bi  Bi1  1  0.70416200  0.70416200  0.00000000  1
  O  O0  1  0.55056200  0.05056200  0.50000000  1
  O  O1  1  0.44943800  0.94943800  0.50000000  1
  O  O2  1  0.05056200  0.55056200  0.50000000  1
  O  O3  1  0.94943800  0.44943800  0.50000000  1
  O  O4  1  0.20247200  0.20247200  0.00000000  1
  O  O5  1  0.79752800  0.79752800  0.00000000  1
  O  O6  1  0.36474200  0.36474200  0.00000000  1
  O  O7  1  0.63525800  0.63525800  0.00000000  1
loop_
_geom_bond_atom_site_label_1
_geom_bond_atom_site_label_2
_geom_bond_distance
_geom_bond_site_symmetry_2
Cu0 O1 1.909173 1_555
Cu0 O1 1.909173 1_544
Cu0 O3 1.909173 1_454
Cu0 O3 1.909173 1_555
Cu0 O6 2.515455 1_555
Cu1 O2 1.909173 1_655
Cu1 O0 1.909173 1_565
Cu1 O2 1.909173 1_554
Cu1 O0 1.909173 1_554
Cu1 O7 2.515455 1_555
Bi0 O6 2.120390 1_555
Bi0 O5 2.697418 1_545
Bi0 O5 2.697418 1_444
Bi0 O5 2.697418 1_455
Bi0 O5 2.697418 1_556
Bi0 O4 2.873162 1_555
Bi1 O7 2.120390 1_555
Bi1 O4 2.697418 1_666
Bi1 O4 2.697418 1_554
Bi1 O4 2.697418 1_655
Bi1 O4 2.697418 1_565
Bi1 O5 2.873162 1_555
O0 Sm0 2.461231 1_656
O0 Sm0 2.461231 1_555
O0 Sr0 2.744985 1_656
O0 Sr0 2.744985 1_555
O1 Sm0 2.461231 1_666
O1 Sm0 2.461231 1_565
O1 Sr1 2.744985 1_455
O1 Sr1 2.744985 1_556
O2 Sm0 2.461231 1_566
O2 Sm0 2.461231 1_555
O2 Sr0 2.744985 1_566
O2 Sr0 2.744985 1_555
O3 Sm0 2.461231 1_655
O3 Sm0 2.461231 1_666
O3 Sr1 2.744985 1_556
O3 Sr1 2.744985 1_545
O4 Sr0 2.700340 1_555
O5 Sr1 2.700340 1_555
O6 Sr1 2.769969 1_556
O6 Sr1 2.769969 1_444
O6 Sr1 2.769969 1_545
O6 Sr1 2.769969 1_455
O7 Sr0 2.769969 1_666
O7 Sr0 2.769969 1_565
O7 Sr0 2.769969 1_655
O7 Sr0 2.769969 1_554
