# generated using pymatgen
data_Sr2NdNbO6
_symmetry_space_group_name_H-M   'P 1'
_cell_length_a   8.52314373
_cell_length_b   8.52314373
_cell_length_c   8.52314373
_cell_angle_alpha   90.00000000
_cell_angle_beta   90.00000000
_cell_angle_gamma   90.00000000
_symmetry_Int_Tables_number   1
_chemical_formula_structural   Sr2NdNbO6
_chemical_formula_sum   'Sr8 Nd4 Nb4 O24'
_cell_volume   619.15507450
_cell_formula_units_Z   4
loop_
 _symmetry_equiv_pos_site_id
 _symmetry_equiv_pos_as_xyz
  1  'x, y, z'
loop_
 _atom_site_type_symbol
 _atom_site_label
 _atom_site_symmetry_multiplicity
 _atom_site_fract_x
 _atom_site_fract_y
 _atom_site_fract_z
 _atom_site_occupancy
  Sr  Sr0  1  0.50000000  0.50000000  0.50000000  1
  Sr  Sr1  1  0.00000000  -0.00000000  -0.00000000  1
  Sr  Sr2  1  0.00000000  -0.00000000  0.50000000  1
  Sr  Sr3  1  0.00000000  0.50000000  0.00000000  1
  Sr  Sr4  1  0.50000000  -0.00000000  -0.00000000  1
  Sr  Sr5  1  0.50000000  0.50000000  0.00000000  1
  Sr  Sr6  1  0.50000000  -0.00000000  0.50000000  1
  Sr  Sr7  1  0.00000000  0.50000000  0.50000000  1
  Nd  Nd0  1  0.25000000  0.25000000  0.25000000  1
  Nd  Nd1  1  0.25000000  0.75000000  0.75000000  1
  Nd  Nd2  1  0.75000000  0.25000000  0.75000000  1
  Nd  Nd3  1  0.75000000  0.75000000  0.25000000  1
  Nb  Nb0  1  0.75000000  0.75000000  0.75000000  1
  Nb  Nb1  1  0.75000000  0.25000000  0.25000000  1
  Nb  Nb2  1  0.25000000  0.75000000  0.25000000  1
  Nb  Nb3  1  0.25000000  0.25000000  0.75000000  1
  O  O0  1  0.21315888  0.29654397  0.51903666  1
  O  O1  1  0.21315888  0.70345603  0.48096334  1
  O  O2  1  0.78684112  0.29654397  0.48096334  1
  O  O3  1  0.78684112  0.70345603  0.51903666  1
  O  O4  1  0.29654397  0.51903666  0.21315888  1
  O  O5  1  0.70345603  0.48096334  0.21315888  1
  O  O6  1  0.29654397  0.48096334  0.78684112  1
  O  O7  1  0.70345603  0.51903666  0.78684112  1
  O  O8  1  0.51903666  0.21315888  0.29654397  1
  O  O9  1  0.48096334  0.21315888  0.70345603  1
  O  O10  1  0.48096334  0.78684112  0.29654397  1
  O  O11  1  0.51903666  0.78684112  0.70345603  1
  O  O12  1  0.28684112  0.20345603  0.98096334  1
  O  O13  1  0.28684112  0.79654397  0.01903666  1
  O  O14  1  0.71315888  0.20345603  0.01903666  1
  O  O15  1  0.71315888  0.79654397  0.98096334  1
  O  O16  1  0.20345603  0.98096334  0.28684112  1
  O  O17  1  0.79654397  0.01903666  0.28684112  1
  O  O18  1  0.20345603  0.01903666  0.71315888  1
  O  O19  1  0.79654397  0.98096334  0.71315888  1
  O  O20  1  0.98096334  0.28684112  0.20345603  1
  O  O21  1  0.01903666  0.28684112  0.79654397  1
  O  O22  1  0.01903666  0.71315888  0.20345603  1
  O  O23  1  0.98096334  0.71315888  0.79654397  1
loop_
_geom_bond_atom_site_label_1
_geom_bond_atom_site_label_2
_geom_bond_distance
_geom_bond_site_symmetry_2
Nd0 O12 2.348189 1_554
Nd0 O16 2.348189 1_545
Nd0 O20 2.348189 1_455
Nd0 O0 2.348189 1_555
Nd0 O4 2.348189 1_555
Nd0 O8 2.348189 1_555
Nd1 O1 2.348189 1_555
Nd1 O6 2.348189 1_555
Nd1 O23 2.348189 1_455
Nd1 O18 2.348189 1_565
Nd1 O13 2.348189 1_556
Nd1 O11 2.348189 1_555
Nd2 O19 2.348189 1_545
Nd2 O7 2.348189 1_555
Nd2 O9 2.348189 1_555
Nd2 O2 2.348189 1_555
Nd2 O14 2.348189 1_556
Nd2 O21 2.348189 1_655
Nd3 O15 2.348189 1_554
Nd3 O5 2.348189 1_555
Nd3 O10 2.348189 1_555
Nd3 O3 2.348189 1_555
Nd3 O22 2.348189 1_655
Nd3 O17 2.348189 1_565
Nb0 O11 2.032509 1_555
Nb0 O7 2.032509 1_555
Nb0 O3 2.032509 1_555
Nb0 O23 2.032509 1_555
Nb0 O15 2.032509 1_555
Nb0 O19 2.032509 1_555
Nb1 O14 2.032509 1_555
Nb1 O8 2.032509 1_555
Nb1 O17 2.032509 1_555
Nb1 O5 2.032509 1_555
Nb1 O2 2.032509 1_555
Nb1 O20 2.032509 1_555
Nb2 O4 2.032509 1_555
Nb2 O22 2.032509 1_555
Nb2 O13 2.032509 1_555
Nb2 O10 2.032509 1_555
Nb2 O1 2.032509 1_555
Nb2 O16 2.032509 1_555
Nb3 O0 2.032509 1_555
Nb3 O21 2.032509 1_555
Nb3 O18 2.032509 1_555
Nb3 O6 2.032509 1_555
Nb3 O9 2.032509 1_555
Nb3 O12 2.032509 1_555
O0 Sr7 2.516760 1_555
O0 Sr0 3.001727 1_555
O0 Sr2 3.116925 1_555
O1 Sr7 2.516760 1_555
O1 Sr0 3.001727 1_555
O1 Sr2 3.116925 1_565
O2 Sr7 2.516760 1_655
O2 Sr0 3.001727 1_555
O2 Sr2 3.116925 1_655
O3 Sr7 2.516760 1_655
O3 Sr0 3.001727 1_555
O3 Sr2 3.116925 1_665
O4 Sr5 2.516760 1_555
O4 Sr0 3.001727 1_555
O4 Sr3 3.116925 1_555
O5 Sr5 2.516760 1_555
O5 Sr0 3.001727 1_555
O5 Sr3 3.116925 1_655
O6 Sr5 2.516760 1_556
O6 Sr0 3.001727 1_555
O6 Sr3 3.116925 1_556
O7 Sr5 2.516760 1_556
O7 Sr0 3.001727 1_555
O7 Sr3 3.116925 1_656
O8 Sr6 2.516760 1_555
O8 Sr0 3.001727 1_555
O8 Sr4 3.116925 1_555
O9 Sr6 2.516760 1_555
O9 Sr0 3.001727 1_555
O9 Sr4 3.116925 1_556
O10 Sr6 2.516760 1_565
O10 Sr0 3.001727 1_555
O10 Sr4 3.116925 1_565
O11 Sr6 2.516760 1_565
O11 Sr0 3.001727 1_555
O11 Sr4 3.116925 1_566
O12 Sr4 2.516760 1_556
O12 Sr1 3.001727 1_556
O12 Sr5 3.116925 1_556
O13 Sr4 2.516760 1_565
O13 Sr1 3.001727 1_565
O13 Sr5 3.116925 1_555
O14 Sr4 2.516760 1_555
O14 Sr1 3.001727 1_655
O14 Sr5 3.116925 1_555
O15 Sr4 2.516760 1_566
O15 Sr1 3.001727 1_666
O15 Sr5 3.116925 1_556
O16 Sr2 2.516760 1_565
O16 Sr1 3.001727 1_565
O16 Sr6 3.116925 1_565
O17 Sr2 2.516760 1_655
O17 Sr1 3.001727 1_655
O17 Sr6 3.116925 1_555
O18 Sr2 2.516760 1_555
O18 Sr1 3.001727 1_556
O18 Sr6 3.116925 1_555
O19 Sr2 2.516760 1_665
O19 Sr1 3.001727 1_666
O19 Sr6 3.116925 1_565
O20 Sr3 2.516760 1_655
O20 Sr1 3.001727 1_655
O20 Sr7 3.116925 1_655
O21 Sr3 2.516760 1_556
O21 Sr1 3.001727 1_556
O21 Sr7 3.116925 1_555
O22 Sr3 2.516760 1_555
O22 Sr1 3.001727 1_565
O22 Sr7 3.116925 1_555
O23 Sr3 2.516760 1_656
O23 Sr1 3.001727 1_666
O23 Sr7 3.116925 1_655
