# generated using pymatgen
data_Ca8TiMn7O20
_symmetry_space_group_name_H-M   'P 1'
_cell_length_a   7.69712315
_cell_length_b   7.69712315
_cell_length_c   7.82243645
_cell_angle_alpha   89.81677831
_cell_angle_beta   89.81677831
_cell_angle_gamma   90.51531577
_symmetry_Int_Tables_number   1
_chemical_formula_structural   Ca8TiMn7O20
_chemical_formula_sum   'Ca8 Ti1 Mn7 O20'
_cell_volume   463.42223392
_cell_formula_units_Z   1
loop_
 _symmetry_equiv_pos_site_id
 _symmetry_equiv_pos_as_xyz
  1  'x, y, z'
loop_
 _atom_site_type_symbol
 _atom_site_label
 _atom_site_symmetry_multiplicity
 _atom_site_fract_x
 _atom_site_fract_y
 _atom_site_fract_z
 _atom_site_occupancy
  Ca  Ca0  1  0.24780400  0.24780400  0.24897700  1
  Ca  Ca1  1  0.24672900  0.24672900  0.71545700  1
  Ca  Ca2  1  0.23278000  0.74416500  0.27117100  1
  Ca  Ca3  1  0.26424800  0.71129700  0.73556200  1
  Ca  Ca4  1  0.74416500  0.23278000  0.27117100  1
  Ca  Ca5  1  0.71129700  0.26424800  0.73556200  1
  Ca  Ca6  1  0.75622200  0.75622200  0.30602900  1
  Ca  Ca7  1  0.72742900  0.72742900  0.74683400  1
  Ti  Ti0  1  0.98941000  0.98941000  0.03396800  1
  Mn  Mn0  1  0.99287900  0.99287900  0.53398700  1
  Mn  Mn1  1  0.00168000  0.49820900  0.00717100  1
  Mn  Mn2  1  0.99717600  0.48923400  0.51408000  1
  Mn  Mn3  1  0.49820900  0.00168000  0.00717100  1
  Mn  Mn4  1  0.48923400  0.99717600  0.51408000  1
  Mn  Mn5  1  0.49534600  0.49534600  0.99489300  1
  Mn  Mn6  1  0.48784700  0.48784700  0.48403200  1
  O  O0  1  0.98177600  0.98177600  0.80358300  1
  O  O1  1  0.98137300  0.74118100  0.11523000  1
  O  O2  1  0.05814200  0.48452200  0.76392200  1
  O  O3  1  0.74118100  0.98137300  0.11523000  1
  O  O4  1  0.48452200  0.05814200  0.76392200  1
  O  O5  1  0.46112900  0.46112900  0.73939700  1
  O  O6  1  0.23382500  0.98672200  0.09238600  1
  O  O7  1  0.24131900  0.99229700  0.49430800  1
  O  O8  1  0.25089900  0.50697900  0.07218100  1
  O  O9  1  0.24221800  0.49215900  0.44348600  1
  O  O10  1  0.74069500  0.99148700  0.50718700  1
  O  O11  1  0.75211300  0.49482800  0.94835900  1
  O  O12  1  0.74226600  0.49161900  0.48137800  1
  O  O13  1  0.98672200  0.23382500  0.09238600  1
  O  O14  1  0.99229700  0.24131900  0.49430800  1
  O  O15  1  0.99148700  0.74069500  0.50718700  1
  O  O16  1  0.50697900  0.25089900  0.07218100  1
  O  O17  1  0.49215900  0.24221800  0.44348600  1
  O  O18  1  0.49482800  0.75211300  0.94835900  1
  O  O19  1  0.49161900  0.74226600  0.48137800  1
loop_
_geom_bond_atom_site_label_1
_geom_bond_atom_site_label_2
_geom_bond_distance
_geom_bond_site_symmetry_2
Ca0 O6 2.358628 1_545
Ca0 O13 2.358628 1_455
Ca0 O9 2.423588 1_555
Ca0 O17 2.423588 1_555
Ca0 O8 2.423657 1_555
Ca0 O16 2.423657 1_555
Ca0 O7 2.743475 1_545
Ca0 O14 2.743475 1_455
Ca1 O5 2.331689 1_555
Ca1 O4 2.376887 1_555
Ca1 O2 2.376887 1_555
Ca1 O14 2.617316 1_455
Ca1 O7 2.617316 1_545
Ca1 O9 2.841131 1_555
Ca1 O17 2.841131 1_555
Ca1 O0 2.949666 1_445
Ca2 O1 2.290778 1_455
Ca2 O6 2.329072 1_555
Ca2 O9 2.360324 1_555
Ca2 O8 2.407649 1_555
Ca2 O19 2.587408 1_555
Ca2 O7 2.592012 1_555
Ca2 O15 2.614484 1_455
Ca3 O2 2.357592 1_555
Ca3 O18 2.455951 1_555
Ca3 O5 2.461226 1_555
Ca3 O19 2.653371 1_555
Ca3 O15 2.771344 1_455
Ca3 O9 2.848835 1_555
Ca3 O7 2.872915 1_555
Ca3 O8 3.063713 1_556
Ca3 O0 3.070149 1_455
Ca3 O4 3.158476 1_565
Ca4 O3 2.290778 1_545
Ca4 O13 2.329072 1_555
Ca4 O17 2.360324 1_555
Ca4 O16 2.407649 1_555
Ca4 O12 2.587408 1_555
Ca4 O14 2.592012 1_555
Ca4 O10 2.614484 1_545
Ca5 O4 2.357592 1_555
Ca5 O11 2.455951 1_555
Ca5 O5 2.461226 1_555
Ca5 O12 2.653371 1_555
Ca5 O10 2.771344 1_545
Ca5 O17 2.848835 1_555
Ca5 O14 2.872915 1_555
Ca5 O16 3.063713 1_556
Ca5 O0 3.070149 1_545
Ca5 O2 3.158476 1_655
Ca6 O3 2.287468 1_555
Ca6 O1 2.287468 1_555
Ca6 O15 2.406340 1_555
Ca6 O10 2.406340 1_555
Ca6 O19 2.453224 1_555
Ca6 O12 2.453224 1_555
Ca7 O18 2.390932 1_555
Ca7 O11 2.390932 1_555
Ca7 O15 2.761579 1_555
Ca7 O10 2.761579 1_555
Ca7 O19 2.765086 1_555
Ca7 O12 2.765086 1_555
Ca7 O0 2.793694 1_555
Ca7 O5 2.886561 1_555
Mn0 O7 1.936367 1_655
Mn0 O14 1.936367 1_565
Mn0 O15 1.952983 1_555
Mn0 O10 1.952983 1_555
Mn0 O0 2.111781 1_555
Mn1 O2 1.953826 1_554
Mn1 O11 1.976663 1_454
Mn1 O8 1.986719 1_555
Mn1 O1 2.061809 1_455
Mn1 O13 2.141361 1_455
Mn2 O14 1.915024 1_555
Mn2 O15 1.936997 1_555
Mn2 O9 1.963514 1_655
Mn2 O12 1.979731 1_555
Mn2 O2 2.011670 1_655
Mn3 O4 1.953826 1_554
Mn3 O18 1.976663 1_544
Mn3 O16 1.986719 1_555
Mn3 O3 2.061809 1_545
Mn3 O6 2.141361 1_545
Mn4 O7 1.915024 1_555
Mn4 O10 1.936997 1_555
Mn4 O17 1.963514 1_565
Mn4 O19 1.979731 1_555
Mn4 O4 2.011670 1_565
Mn5 O16 1.977328 1_556
Mn5 O8 1.977328 1_556
Mn5 O11 2.008506 1_555
Mn5 O18 2.008506 1_555
Mn5 O5 2.034360 1_555
Mn6 O9 1.918620 1_555
Mn6 O17 1.918620 1_555
Mn6 O12 1.958291 1_555
Mn6 O19 1.958291 1_555
Mn6 O5 2.017147 1_555
O0 Ti0 1.804445 1_556
O1 Ti0 2.012047 1_555
O3 Ti0 2.012047 1_555
O6 Ti0 1.937692 1_455
O13 Ti0 1.937692 1_545
