# generated using pymatgen
data_CsMg14Si
_symmetry_space_group_name_H-M   'P 1'
_cell_length_a   6.38272686
_cell_length_b   6.38272634
_cell_length_c   11.13476856
_cell_angle_alpha   90.00000000
_cell_angle_beta   90.00000000
_cell_angle_gamma   120.00000268
_symmetry_Int_Tables_number   1
_chemical_formula_structural   CsMg14Si
_chemical_formula_sum   'Cs1 Mg14 Si1'
_cell_volume   392.84777609
_cell_formula_units_Z   1
loop_
 _symmetry_equiv_pos_site_id
 _symmetry_equiv_pos_as_xyz
  1  'x, y, z'
loop_
 _atom_site_type_symbol
 _atom_site_label
 _atom_site_symmetry_multiplicity
 _atom_site_fract_x
 _atom_site_fract_y
 _atom_site_fract_z
 _atom_site_occupancy
  Cs  Cs0  1  0.16666700  0.33333300  0.62500000  1
  Mg  Mg0  1  0.15822872  0.82911386  0.12500000  1
  Mg  Mg1  1  0.17157463  0.83578681  0.62500000  1
  Mg  Mg2  1  0.67088614  0.34177128  0.12500000  1
  Mg  Mg3  1  0.66421319  0.32842537  0.62500000  1
  Mg  Mg4  1  0.67088614  0.82911386  0.12500000  1
  Mg  Mg5  1  0.66421319  0.83578681  0.62500000  1
  Mg  Mg6  1  0.33175026  0.16824974  0.34898218  1
  Mg  Mg7  1  0.33175026  0.16824974  0.90101782  1
  Mg  Mg8  1  0.33175026  0.66350153  0.34898218  1
  Mg  Mg9  1  0.33175026  0.66350153  0.90101782  1
  Mg  Mg10  1  0.83649847  0.16824974  0.34898218  1
  Mg  Mg11  1  0.83649847  0.16824974  0.90101782  1
  Mg  Mg12  1  0.83333300  0.66666700  0.38486747  1
  Mg  Mg13  1  0.83333300  0.66666700  0.86513253  1
  Si  Si0  1  0.16666700  0.33333300  0.12500000  1
loop_
_geom_bond_atom_site_label_1
_geom_bond_atom_site_label_2
_geom_bond_distance
_geom_bond_site_symmetry_2
Cs0 Mg1 3.191478 1_555
Cs0 Mg5 3.191478 1_555
Cs0 Mg5 3.191478 1_445
Cs0 Mg1 3.191478 1_545
Cs0 Mg3 3.191479 1_455
Cs0 Mg3 3.191479 1_555
Cs0 Mg6 3.574421 1_555
Cs0 Mg7 3.574421 1_555
Cs0 Mg8 3.574427 1_555
Cs0 Mg9 3.574427 1_555
Cs0 Mg10 3.574427 1_455
Cs0 Mg11 3.574427 1_455
Mg0 Mg2 3.110574 1_455
Mg0 Mg4 3.110575 1_455
Mg0 Mg9 3.120054 1_554
Mg0 Mg8 3.120054 1_555
Mg0 Mg6 3.120061 1_565
Mg0 Mg7 3.120061 1_564
Mg0 Si0 3.191704 1_565
Mg0 Si0 3.191704 1_555
Mg0 Mg2 3.272152 1_565
Mg0 Mg4 3.272152 1_555
Mg0 Mg12 3.405576 1_455
Mg0 Mg13 3.405576 1_454
Mg1 Mg12 3.262662 1_455
Mg1 Mg13 3.262662 1_455
Mg2 Mg4 3.110574 1_555
Mg2 Mg7 3.120061 1_554
Mg2 Mg6 3.120061 1_555
Mg2 Si0 3.191704 1_655
Mg2 Si0 3.191704 1_555
Mg2 Mg4 3.272152 1_545
Mg4 Mg9 3.120061 1_554
Mg4 Mg8 3.120061 1_555
Mg4 Si0 3.191704 1_665
Mg4 Si0 3.191704 1_555
Mg6 Si0 3.090424 1_555
Mg6 Mg8 3.161057 1_555
Mg6 Mg8 3.221670 1_545
Mg7 Si0 3.090424 1_556
Mg7 Mg9 3.161057 1_555
Mg7 Mg9 3.221670 1_545
Mg8 Si0 3.090430 1_555
Mg9 Si0 3.090430 1_556
Mg10 Si0 3.090430 1_655
Mg10 Mg2 3.120054 1_555
Mg10 Mg4 3.120061 1_545
Mg10 Mg8 3.161057 1_655
Mg10 Mg6 3.161057 1_655
Mg10 Mg12 3.216328 1_555
Mg10 Mg12 3.216328 1_545
Mg10 Mg8 3.221670 1_545
Mg10 Mg6 3.221670 1_555
Mg11 Si0 3.090430 1_656
Mg11 Mg2 3.120054 1_556
Mg11 Mg4 3.120061 1_546
Mg11 Mg9 3.161057 1_655
Mg11 Mg7 3.161057 1_655
Mg11 Mg13 3.216328 1_555
Mg11 Mg13 3.216328 1_545
Mg11 Mg9 3.221670 1_545
Mg11 Mg7 3.221670 1_555
Mg12 Mg6 3.216328 1_665
Mg12 Mg6 3.216328 1_555
Mg12 Mg8 3.216328 1_655
Mg12 Mg8 3.216328 1_555
Mg12 Mg5 3.262656 1_555
Mg12 Mg3 3.262662 1_555
Mg12 Mg4 3.405571 1_555
Mg12 Mg2 3.405576 1_555
Mg13 Mg7 3.216328 1_665
Mg13 Mg7 3.216328 1_555
Mg13 Mg9 3.216328 1_655
Mg13 Mg9 3.216328 1_555
Mg13 Mg5 3.262656 1_555
Mg13 Mg3 3.262662 1_555
Mg13 Mg4 3.405571 1_556
Mg13 Mg2 3.405576 1_556
