# generated using pymatgen
data_CsPb3
_symmetry_space_group_name_H-M   'P 1'
_cell_length_a   8.25490251
_cell_length_b   8.25490251
_cell_length_c   5.74167687
_cell_angle_alpha   90.00000000
_cell_angle_beta   90.00000000
_cell_angle_gamma   119.99999621
_symmetry_Int_Tables_number   1
_chemical_formula_structural   CsPb3
_chemical_formula_sum   'Cs2 Pb6'
_cell_volume   338.83892314
_cell_formula_units_Z   2
loop_
 _symmetry_equiv_pos_site_id
 _symmetry_equiv_pos_as_xyz
  1  'x, y, z'
loop_
 _atom_site_type_symbol
 _atom_site_label
 _atom_site_symmetry_multiplicity
 _atom_site_fract_x
 _atom_site_fract_y
 _atom_site_fract_z
 _atom_site_occupancy
  Cs  Cs0  1  0.33333300  0.66666700  0.75000000  1
  Cs  Cs1  1  0.66666700  0.33333300  0.25000000  1
  Pb  Pb0  1  0.12799258  0.25598416  0.25000000  1
  Pb  Pb1  1  0.74401584  0.87200742  0.25000000  1
  Pb  Pb2  1  0.12799258  0.87200742  0.25000000  1
  Pb  Pb3  1  0.87200742  0.74401584  0.75000000  1
  Pb  Pb4  1  0.25598416  0.12799258  0.75000000  1
  Pb  Pb5  1  0.87200742  0.12799258  0.75000000  1
loop_
_geom_bond_atom_site_label_1
_geom_bond_atom_site_label_2
_geom_bond_distance
_geom_bond_site_symmetry_2
Cs0 Pb2 4.106270 1_555
Cs0 Pb2 4.106270 1_556
Cs0 Pb0 4.106280 1_555
Cs0 Pb1 4.106280 1_555
Cs0 Pb1 4.106280 1_556
Cs0 Pb0 4.106280 1_556
Cs0 Pb4 4.164327 1_565
Cs0 Pb3 4.164327 1_455
Cs0 Pb4 4.164327 1_555
Cs0 Pb3 4.164327 1_555
Cs0 Pb5 4.164328 1_565
Cs0 Pb5 4.164328 1_455
Cs1 Pb5 4.106270 1_555
Cs1 Pb5 4.106270 1_554
Cs1 Pb4 4.106280 1_555
Cs1 Pb3 4.106280 1_555
Cs1 Pb3 4.106280 1_554
Cs1 Pb4 4.106280 1_554
Cs1 Pb0 4.164327 1_655
Cs1 Pb1 4.164327 1_545
Cs1 Pb0 4.164327 1_555
Cs1 Pb1 4.164327 1_555
Cs1 Pb2 4.164328 1_545
Cs1 Pb2 4.164328 1_655
Pb0 Pb2 3.169691 1_545
Pb0 Pb1 3.169691 1_445
Pb0 Pb4 3.404506 1_554
Pb0 Pb4 3.404506 1_555
Pb0 Pb5 3.404513 1_455
Pb0 Pb5 3.404513 1_454
Pb1 Pb2 3.169691 1_655
Pb1 Pb3 3.404506 1_554
Pb1 Pb3 3.404506 1_555
Pb1 Pb5 3.404513 1_565
Pb1 Pb5 3.404513 1_564
Pb2 Pb4 3.404513 1_564
Pb2 Pb4 3.404513 1_565
Pb2 Pb3 3.404513 1_455
Pb2 Pb3 3.404513 1_454
Pb3 Pb5 3.169691 1_565
Pb3 Pb4 3.169691 1_665
Pb4 Pb5 3.169691 1_455
