# generated using pymatgen
data_AgPPt5
_symmetry_space_group_name_H-M   'P 1'
_cell_length_a   3.96301500
_cell_length_b   3.96301500
_cell_length_c   7.11801400
_cell_angle_alpha   90.00000000
_cell_angle_beta   90.00000000
_cell_angle_gamma   90.00000000
_symmetry_Int_Tables_number   1
_chemical_formula_structural   AgPPt5
_chemical_formula_sum   'Ag1 P1 Pt5'
_cell_volume   111.79188268
_cell_formula_units_Z   1
loop_
 _symmetry_equiv_pos_site_id
 _symmetry_equiv_pos_as_xyz
  1  'x, y, z'
loop_
 _atom_site_type_symbol
 _atom_site_label
 _atom_site_symmetry_multiplicity
 _atom_site_fract_x
 _atom_site_fract_y
 _atom_site_fract_z
 _atom_site_occupancy
  Ag  Ag0  1  0.50000000  0.50000000  0.00000000  1
  P  P0  1  0.00000000  0.00000000  0.50000000  1
  Pt  Pt0  1  0.00000000  0.00000000  0.00000000  1
  Pt  Pt1  1  0.50000000  0.00000000  0.70299400  1
  Pt  Pt2  1  0.00000000  0.50000000  0.70299400  1
  Pt  Pt3  1  0.50000000  0.00000000  0.29700600  1
  Pt  Pt4  1  0.00000000  0.50000000  0.29700600  1
loop_
_geom_bond_atom_site_label_1
_geom_bond_atom_site_label_2
_geom_bond_distance
_geom_bond_site_symmetry_2
Ag0 Pt0 2.802275 1_555
Ag0 Pt0 2.802275 1_655
Ag0 Pt0 2.802275 1_565
Ag0 Pt0 2.802275 1_665
Ag0 Pt2 2.897544 1_654
Ag0 Pt1 2.897544 1_554
Ag0 Pt3 2.897544 1_555
Ag0 Pt3 2.897544 1_565
Ag0 Pt4 2.897544 1_555
Ag0 Pt4 2.897544 1_655
Ag0 Pt1 2.897544 1_564
Ag0 Pt2 2.897544 1_554
P0 Pt4 2.452376 1_545
P0 Pt3 2.452376 1_555
P0 Pt3 2.452376 1_455
P0 Pt1 2.452376 1_455
P0 Pt2 2.452376 1_555
P0 Pt4 2.452376 1_555
P0 Pt1 2.452376 1_555
P0 Pt2 2.452376 1_545
Pt0 Pt4 2.897544 1_545
Pt0 Pt3 2.897544 1_455
Pt0 Pt2 2.897544 1_544
Pt0 Pt1 2.897544 1_554
Pt0 Pt1 2.897544 1_454
Pt0 Pt3 2.897544 1_555
Pt0 Pt4 2.897544 1_555
Pt0 Pt2 2.897544 1_554
Pt1 Pt2 2.802275 1_555
Pt1 Pt2 2.802275 1_645
Pt1 Pt2 2.802275 1_545
Pt1 Pt2 2.802275 1_655
Pt1 Pt3 2.889828 1_555
Pt2 Pt4 2.889828 1_555
Pt3 Pt4 2.802275 1_645
Pt3 Pt4 2.802275 1_555
Pt3 Pt4 2.802275 1_655
Pt3 Pt4 2.802275 1_545
