# generated using pymatgen
data_CaCoBP2H5O11
_symmetry_space_group_name_H-M   'P 1'
_cell_length_a   6.61291550
_cell_length_b   7.96026311
_cell_length_c   8.92330788
_cell_angle_alpha   69.41346466
_cell_angle_beta   84.10714233
_cell_angle_gamma   74.40881209
_symmetry_Int_Tables_number   1
_chemical_formula_structural   CaCoBP2H5O11
_chemical_formula_sum   'Ca2 Co2 B2 P4 H10 O22'
_cell_volume   423.53425139
_cell_formula_units_Z   2
loop_
 _symmetry_equiv_pos_site_id
 _symmetry_equiv_pos_as_xyz
  1  'x, y, z'
loop_
 _atom_site_type_symbol
 _atom_site_label
 _atom_site_symmetry_multiplicity
 _atom_site_fract_x
 _atom_site_fract_y
 _atom_site_fract_z
 _atom_site_occupancy
  Ca  Ca0  1  0.91314600  0.45081300  0.84054000  1
  Ca  Ca1  1  0.08685400  0.54918700  0.15946000  1
  Co  Co0  1  0.67324800  0.32537500  0.59672700  1
  Co  Co1  1  0.32675200  0.67462500  0.40327300  1
  B  B0  1  0.53885500  0.98066700  0.20932800  1
  B  B1  1  0.46114500  0.01933300  0.79067200  1
  P  P0  1  0.43797200  0.28632200  0.93571500  1
  P  P1  1  0.56202800  0.71367800  0.06428500  1
  P  P2  1  0.79703400  0.73709400  0.45096800  1
  P  P3  1  0.20296600  0.26290600  0.54903200  1
  H  H0  1  0.73440900  0.94938700  0.67839500  1
  H  H1  1  0.26559100  0.05061300  0.32160500  1
  H  H2  1  0.70950800  0.14864900  0.37959700  1
  H  H3  1  0.29049200  0.85135100  0.62040300  1
  H  H4  1  0.91152400  0.22738100  0.37849100  1
  H  H5  1  0.08847600  0.77261900  0.62150900  1
  H  H6  1  0.84039800  0.13105300  0.10841200  1
  H  H7  1  0.15960200  0.86894700  0.89158800  1
  H  H8  1  0.09116600  0.07580800  0.11182300  1
  H  H9  1  0.90883400  0.92419200  0.88817700  1
  O  O0  1  0.23949300  0.42799000  0.95532200  1
  O  O1  1  0.76050700  0.57201000  0.04467800  1
  O  O2  1  0.60487000  0.36633900  0.82145800  1
  O  O3  1  0.39513000  0.63366100  0.17854200  1
  O  O4  1  0.63604400  0.85114500  0.12335800  1
  O  O5  1  0.36395600  0.14885500  0.87664200  1
  O  O6  1  0.54324800  0.17226700  0.10548200  1
  O  O7  1  0.45675200  0.82773300  0.89451800  1
  O  O8  1  0.83984200  0.74316100  0.61559900  1
  O  O9  1  0.16015800  0.25683900  0.38440100  1
  O  O10  1  0.00356000  0.68555100  0.36074400  1
  O  O11  1  0.99644000  0.31444900  0.63925600  1
  O  O12  1  0.65001100  0.60956800  0.46396300  1
  O  O13  1  0.34998900  0.39043200  0.53603700  1
  O  O14  1  0.67325400  0.94315700  0.34819100  1
  O  O15  1  0.32674600  0.05684300  0.65180900  1
  O  O16  1  0.67388600  0.03796800  0.73645700  1
  O  O17  1  0.32611400  0.96203200  0.26354300  1
  O  O18  1  0.75870800  0.24389600  0.40206100  1
  O  O19  1  0.24129200  0.75610400  0.59793900  1
  O  O20  1  0.96633400  0.17454900  0.06535700  1
  O  O21  1  0.03366600  0.82545100  0.93464300  1
loop_
_geom_bond_atom_site_label_1
_geom_bond_atom_site_label_2
_geom_bond_distance
_geom_bond_site_symmetry_2
Ca0 O2 2.350690 1_555
Ca0 O11 2.356753 1_555
Ca0 O1 2.366994 1_556
Ca0 O20 2.368751 1_556
Ca0 O0 2.419037 1_655
Ca0 O8 2.447052 1_555
Ca1 O3 2.350690 1_555
Ca1 O10 2.356753 1_555
Ca1 O0 2.366994 1_554
Ca1 O21 2.368751 1_554
Ca1 O1 2.419037 1_455
Ca1 O9 2.447052 1_555
Co0 O18 2.037437 1_555
Co0 O12 2.123832 1_555
Co0 O2 2.127582 1_555
Co0 O13 2.139291 1_555
Co0 O11 2.182384 1_555
Co0 O16 2.186018 1_555
Co1 O19 2.037437 1_555
Co1 O13 2.123832 1_555
Co1 O3 2.127582 1_555
Co1 O12 2.139291 1_555
Co1 O10 2.182384 1_555
Co1 O17 2.186018 1_555
B0 O17 1.468741 1_555
B0 O4 1.470840 1_555
B0 O6 1.486642 1_565
B0 O14 1.495918 1_555
B1 O16 1.468741 1_555
B1 O5 1.470840 1_555
B1 O7 1.486642 1_545
B1 O15 1.495918 1_555
H0 O16 0.994213 1_565
H1 O17 0.994213 1_545
H2 O18 0.986796 1_555
H3 O19 0.986796 1_555
H4 O18 0.993547 1_555
H5 O19 0.993547 1_555
H6 O20 0.978163 1_555
H7 O21 0.978163 1_555
H8 O20 0.981574 1_455
H9 O21 0.981574 1_655
O0 P0 1.523491 1_555
O1 P1 1.523491 1_555
O2 P0 1.534097 1_555
O3 P1 1.534097 1_555
O4 P1 1.568886 1_555
O5 P0 1.568886 1_555
O6 P0 1.585372 1_554
O7 P1 1.585372 1_556
O8 P2 1.543769 1_555
O9 P3 1.543769 1_555
O10 P2 1.545015 1_455
O11 P3 1.545015 1_655
O12 P2 1.553653 1_555
O13 P3 1.553653 1_555
O14 P2 1.605061 1_555
O15 P3 1.605061 1_555
