# generated using pymatgen
data_PrAl2Ni
_symmetry_space_group_name_H-M   'P 1'
_cell_length_a   5.89865260
_cell_length_b   5.89865260
_cell_length_c   6.88570434
_cell_angle_alpha   90.00000000
_cell_angle_beta   90.00000000
_cell_angle_gamma   139.83702390
_symmetry_Int_Tables_number   1
_chemical_formula_structural   PrAl2Ni
_chemical_formula_sum   'Pr2 Al4 Ni2'
_cell_volume   154.52170154
_cell_formula_units_Z   2
loop_
 _symmetry_equiv_pos_site_id
 _symmetry_equiv_pos_as_xyz
  1  'x, y, z'
loop_
 _atom_site_type_symbol
 _atom_site_label
 _atom_site_symmetry_multiplicity
 _atom_site_fract_x
 _atom_site_fract_y
 _atom_site_fract_z
 _atom_site_occupancy
  Pr  Pr0  1  0.55270259  0.44729741  0.25000000  1
  Pr  Pr1  1  0.44729741  0.55270259  0.75000000  1
  Al  Al0  1  0.82621052  0.17378948  0.05806243  1
  Al  Al1  1  0.17378948  0.82621052  0.94193757  1
  Al  Al2  1  0.17378948  0.82621052  0.55806243  1
  Al  Al3  1  0.82621052  0.17378948  0.44193757  1
  Ni  Ni0  1  0.28162046  0.71837954  0.25000000  1
  Ni  Ni1  1  0.71837954  0.28162046  0.75000000  1
loop_
_geom_bond_atom_site_label_1
_geom_bond_atom_site_label_2
_geom_bond_distance
_geom_bond_site_symmetry_2
Pr0 Pr1 3.635549 1_554
Pr0 Pr1 3.635549 1_555
Al0 Ni1 2.434563 1_554
Al0 Ni0 2.468358 1_545
Al0 Ni0 2.468358 1_655
Al0 Al3 2.643251 1_555
Al0 Al1 2.755638 1_654
Al0 Al1 2.755638 1_544
Al0 Pr1 3.225157 1_544
Al0 Pr1 3.225157 1_654
Al0 Pr0 3.306143 1_555
Al0 Pr0 3.485190 1_545
Al0 Pr0 3.485190 1_655
Al1 Ni0 2.434563 1_556
Al1 Ni1 2.468358 1_455
Al1 Ni1 2.468358 1_565
Al1 Al2 2.643251 1_555
Al1 Pr0 3.225157 1_456
Al1 Pr0 3.225157 1_566
Al1 Pr1 3.306143 1_555
Al1 Pr1 3.485190 1_455
Al1 Pr1 3.485190 1_565
Al2 Ni0 2.434563 1_555
Al2 Ni1 2.468358 1_455
Al2 Ni1 2.468358 1_565
Al2 Al3 2.755638 1_455
Al2 Al3 2.755638 1_565
Al2 Pr0 3.225157 1_455
Al2 Pr0 3.225157 1_565
Al2 Pr1 3.306143 1_555
Al2 Pr1 3.485190 1_455
Al2 Pr1 3.485190 1_565
Al3 Ni1 2.434563 1_555
Al3 Ni0 2.468358 1_545
Al3 Ni0 2.468358 1_655
Al3 Pr1 3.225157 1_655
Al3 Pr1 3.225157 1_545
Al3 Pr0 3.306143 1_555
Al3 Pr0 3.485190 1_545
Al3 Pr0 3.485190 1_655
Ni0 Pr0 3.003615 1_555
Ni0 Pr0 3.245840 1_565
Ni0 Pr0 3.245840 1_455
Ni1 Pr1 3.003615 1_555
Ni1 Pr1 3.245840 1_655
Ni1 Pr1 3.245840 1_545
