# generated using pymatgen
data_Ba2Sr2CoCu3O10
_symmetry_space_group_name_H-M   'P 1'
_cell_length_a   11.25608228
_cell_length_b   11.20550922
_cell_length_c   18.07524691
_cell_angle_alpha   108.21128022
_cell_angle_beta   108.16494821
_cell_angle_gamma   89.61372572
_symmetry_Int_Tables_number   1
_chemical_formula_structural   Ba2Sr2CoCu3O10
_chemical_formula_sum   'Ba16 Sr16 Co8 Cu24 O80'
_cell_volume   2047.29527060
_cell_formula_units_Z   8
loop_
 _symmetry_equiv_pos_site_id
 _symmetry_equiv_pos_as_xyz
  1  'x, y, z'
loop_
 _atom_site_type_symbol
 _atom_site_label
 _atom_site_symmetry_multiplicity
 _atom_site_fract_x
 _atom_site_fract_y
 _atom_site_fract_z
 _atom_site_occupancy
  Ba  Ba0  1  0.30599300  0.05519000  0.11769600  1
  Ba  Ba1  1  0.30420400  0.05934900  0.61803100  1
  Ba  Ba2  1  0.30501500  0.55722400  0.11582000  1
  Ba  Ba3  1  0.80580900  0.05944900  0.11738700  1
  Ba  Ba4  1  0.80819300  0.55266600  0.11568500  1
  Ba  Ba5  1  0.18935600  0.94640200  0.38717100  1
  Ba  Ba6  1  0.18690500  0.94212400  0.87807100  1
  Ba  Ba7  1  0.68650300  0.43726500  0.87639300  1
  Ba  Ba8  1  0.05378600  0.31331500  0.11906600  1
  Ba  Ba9  1  0.05859000  0.80837800  0.11572000  1
  Ba  Ba10  1  0.55864200  0.31097700  0.11971400  1
  Ba  Ba11  1  0.55448400  0.81057000  0.11709500  1
  Ba  Ba12  1  0.44132200  0.68868200  0.38515700  1
  Ba  Ba13  1  0.43767700  0.69056600  0.87859700  1
  Ba  Ba14  1  0.93852600  0.69018900  0.38582800  1
  Ba  Ba15  1  0.93420100  0.68795500  0.87593700  1
  Sr  Sr0  1  0.30683200  0.55211500  0.60796400  1
  Sr  Sr1  1  0.80804700  0.06027300  0.61033100  1
  Sr  Sr2  1  0.80198900  0.55515600  0.60790400  1
  Sr  Sr3  1  0.19768500  0.44531300  0.39449900  1
  Sr  Sr4  1  0.19176100  0.43842600  0.88523400  1
  Sr  Sr5  1  0.69719500  0.44614500  0.39475500  1
  Sr  Sr6  1  0.69996300  0.94878800  0.39401200  1
  Sr  Sr7  1  0.68993400  0.94411300  0.88454400  1
  Sr  Sr8  1  0.05331600  0.30666800  0.60867900  1
  Sr  Sr9  1  0.05221900  0.79948800  0.60712900  1
  Sr  Sr10  1  0.55840100  0.30753800  0.60906600  1
  Sr  Sr11  1  0.55369100  0.79847300  0.60846300  1
  Sr  Sr12  1  0.45074900  0.19949700  0.39391000  1
  Sr  Sr13  1  0.44097700  0.19365700  0.88876700  1
  Sr  Sr14  1  0.94651800  0.19726800  0.39452800  1
  Sr  Sr15  1  0.94528900  0.19719700  0.88753800  1
  Co  Co0  1  0.99057400  0.99833200  0.99019700  1
  Co  Co1  1  0.99318700  0.49350600  0.98778100  1
  Co  Co2  1  0.49374800  0.99545400  0.98967300  1
  Co  Co3  1  0.50340800  0.00240400  0.50331700  1
  Co  Co4  1  0.49325100  0.49415000  0.99055700  1
  Co  Co5  1  0.24049100  0.74268000  0.98536500  1
  Co  Co6  1  0.74136900  0.24087900  0.98450300  1
  Co  Co7  1  0.74539800  0.74850500  0.99628700  1
  Cu  Cu0  1  0.00084700  0.00378300  0.50544800  1
  Cu  Cu1  1  0.00281200  0.50043900  0.50275900  1
  Cu  Cu2  1  0.50226000  0.50042200  0.50247000  1
  Cu  Cu3  1  0.24615100  0.24764100  0.99462200  1
  Cu  Cu4  1  0.25266400  0.25233600  0.50277900  1
  Cu  Cu5  1  0.25216400  0.75106300  0.50448900  1
  Cu  Cu6  1  0.75274300  0.25217700  0.50204000  1
  Cu  Cu7  1  0.75224400  0.75472800  0.50656700  1
  Cu  Cu8  1  0.11848400  0.10808900  0.25441300  1
  Cu  Cu9  1  0.10894600  0.10125000  0.74749200  1
  Cu  Cu10  1  0.12094200  0.60006800  0.25473800  1
  Cu  Cu11  1  0.11419900  0.59100100  0.74516200  1
  Cu  Cu12  1  0.62062700  0.10619400  0.25703800  1
  Cu  Cu13  1  0.61707200  0.09499200  0.74795000  1
  Cu  Cu14  1  0.61929100  0.60405300  0.25235100  1
  Cu  Cu15  1  0.61476200  0.60228300  0.74678700  1
  Cu  Cu16  1  0.37012100  0.39340200  0.25278000  1
  Cu  Cu17  1  0.36194800  0.39904800  0.74735400  1
  Cu  Cu18  1  0.37487400  0.90600100  0.25827700  1
  Cu  Cu19  1  0.36704300  0.90380100  0.74880000  1
  Cu  Cu20  1  0.87074200  0.39532600  0.25797600  1
  Cu  Cu21  1  0.86685000  0.39400500  0.74411800  1
  Cu  Cu22  1  0.86528000  0.90312000  0.25213700  1
  Cu  Cu23  1  0.85879600  0.90905200  0.74902000  1
  O  O0  1  0.12070200  0.13036500  0.49946700  1
  O  O1  1  0.10929000  0.11619600  0.99503200  1
  O  O2  1  0.12791400  0.62512300  0.50145600  1
  O  O3  1  0.11728000  0.61872300  0.99120200  1
  O  O4  1  0.62673100  0.12708400  0.49762600  1
  O  O5  1  0.61859600  0.11788700  0.98953100  1
  O  O6  1  0.62586000  0.62638100  0.50029800  1
  O  O7  1  0.61125500  0.61397300  0.99509800  1
  O  O8  1  0.11240300  0.38079000  0.99578600  1
  O  O9  1  0.12832600  0.37658200  0.50446100  1
  O  O10  1  0.12913800  0.86397500  0.99653900  1
  O  O11  1  0.12317700  0.87641000  0.50804600  1
  O  O12  1  0.62947400  0.35960700  0.99579700  1
  O  O13  1  0.62768700  0.37801200  0.50552700  1
  O  O14  1  0.61645200  0.88120800  0.99711800  1
  O  O15  1  0.62434500  0.88663700  0.50849000  1
  O  O16  1  0.38494100  0.12115200  0.49989500  1
  O  O17  1  0.38129900  0.11435900  0.99421000  1
  O  O18  1  0.37271600  0.61970100  0.50013800  1
  O  O19  1  0.35729600  0.62891300  0.99297700  1
  O  O20  1  0.87328300  0.12398600  0.49739700  1
  O  O21  1  0.86151200  0.12882600  0.99297200  1
  O  O22  1  0.87095400  0.62368500  0.50087400  1
  O  O23  1  0.87610300  0.61379100  0.99298600  1
  O  O24  1  0.37882700  0.38132900  0.99688700  1
  O  O25  1  0.37868200  0.37597600  0.50429600  1
  O  O26  1  0.37282800  0.87664300  0.99876300  1
  O  O27  1  0.37887900  0.87683500  0.50863900  1
  O  O28  1  0.87370200  0.37308600  0.99608900  1
  O  O29  1  0.87673400  0.37882700  0.50611000  1
  O  O30  1  0.87915300  0.88505500  0.99758900  1
  O  O31  1  0.87360200  0.88142100  0.50820800  1
  O  O32  1  0.06828600  0.08510700  0.14275900  1
  O  O33  1  0.05980900  0.09146400  0.63820900  1
  O  O34  1  0.07616400  0.58422100  0.14517000  1
  O  O35  1  0.08078400  0.58416100  0.63736100  1
  O  O36  1  0.57398000  0.08492300  0.14631100  1
  O  O37  1  0.58076300  0.09149900  0.64048300  1
  O  O38  1  0.57439000  0.57904400  0.14027700  1
  O  O39  1  0.57470400  0.58557200  0.63731500  1
  O  O40  1  0.44239600  0.40865100  0.36257200  1
  O  O41  1  0.42866100  0.41209100  0.86038400  1
  O  O42  1  0.44415500  0.92328100  0.36848900  1
  O  O43  1  0.43328100  0.92240900  0.86024900  1
  O  O44  1  0.94242300  0.41118000  0.36775800  1
  O  O45  1  0.93775000  0.41035600  0.85566300  1
  O  O46  1  0.92698400  0.91915400  0.36242200  1
  O  O47  1  0.92745200  0.92830800  0.86241400  1
  O  O48  1  0.31597100  0.30718700  0.13925500  1
  O  O49  1  0.32071500  0.31004400  0.63651400  1
  O  O50  1  0.32807600  0.81116600  0.14914500  1
  O  O51  1  0.33199800  0.80091900  0.64200700  1
  O  O52  1  0.81935900  0.30905100  0.14730100  1
  O  O53  1  0.82200500  0.29871100  0.63493400  1
  O  O54  1  0.82052200  0.81080500  0.13850800  1
  O  O55  1  0.82662600  0.80528000  0.64153700  1
  O  O56  1  0.19213600  0.20279200  0.36384900  1
  O  O57  1  0.18378700  0.19271800  0.86057500  1
  O  O58  1  0.18132800  0.69484400  0.36380700  1
  O  O59  1  0.17942500  0.68726400  0.85749900  1
  O  O60  1  0.69234000  0.20546800  0.36547600  1
  O  O61  1  0.69494000  0.18669400  0.85932600  1
  O  O62  1  0.67801900  0.70606000  0.35985600  1
  O  O63  1  0.67904300  0.69646100  0.85947200  1
  O  O64  1  0.47009100  0.04995800  0.26114200  1
  O  O65  1  0.46686100  0.05013100  0.75862200  1
  O  O66  1  0.47454600  0.52126600  0.24907300  1
  O  O67  1  0.46118500  0.53086700  0.74107700  1
  O  O68  1  0.97249900  0.04425500  0.26211600  1
  O  O69  1  0.95233800  0.05387100  0.75064400  1
  O  O70  1  0.97400700  0.52134500  0.25050300  1
  O  O71  1  0.95622400  0.53224700  0.73614100  1
  O  O72  1  0.22570100  0.46569800  0.26269100  1
  O  O73  1  0.20396200  0.44369600  0.74862500  1
  O  O74  1  0.22308200  0.97411900  0.25112200  1
  O  O75  1  0.20640000  0.95837900  0.73621600  1
  O  O76  1  0.72571700  0.47122400  0.26450000  1
  O  O77  1  0.71370400  0.46027800  0.74052000  1
  O  O78  1  0.71520600  0.96462700  0.25926700  1
  O  O79  1  0.69599500  0.93802400  0.74540500  1
loop_
_geom_bond_atom_site_label_1
_geom_bond_atom_site_label_2
_geom_bond_distance
_geom_bond_site_symmetry_2
Ba0 O64 2.691727 1_555
Ba0 O48 2.725301 1_555
Ba0 O26 2.736776 1_544
Ba0 O10 2.784985 1_544
Ba0 O32 2.850519 1_555
Ba0 O1 2.855097 1_554
Ba0 O17 2.872690 1_554
Ba0 O36 2.900129 1_555
Ba0 O50 2.955710 1_545
Ba0 O74 3.208855 1_545
Ba1 O65 2.661038 1_555
Ba1 O27 2.698957 1_545
Ba1 O11 2.699954 1_545
Ba1 O49 2.723836 1_555
Ba1 O0 2.788577 1_555
Ba1 O16 2.829824 1_555
Ba1 O33 2.891425 1_555
Ba1 O37 3.020118 1_555
Ba1 O51 3.059287 1_545
Ba1 O75 3.170072 1_545
Ba2 O66 2.708417 1_555
Ba2 O50 2.714496 1_555
Ba2 O24 2.763993 1_554
Ba2 O34 2.783847 1_555
Ba2 O8 2.785723 1_554
Ba2 O19 2.803185 1_554
Ba2 O3 2.827874 1_554
Ba2 O38 2.924991 1_555
Ba2 O48 2.957915 1_555
Ba3 O52 2.673471 1_555
Ba3 O68 2.758007 1_555
Ba3 O30 2.763548 1_544
Ba3 O14 2.777123 1_544
Ba3 O36 2.812745 1_555
Ba3 O21 2.834288 1_554
Ba3 O5 2.846245 1_554
Ba3 O32 2.847114 1_655
Ba3 O54 2.924925 1_545
Ba4 O70 2.689780 1_555
Ba4 O28 2.742443 1_554
Ba4 O54 2.789322 1_555
Ba4 O12 2.798781 1_554
Ba4 O38 2.801357 1_555
Ba4 O23 2.825902 1_554
Ba4 O7 2.835405 1_554
Ba4 O34 2.898522 1_655
Ba4 O52 2.952966 1_555
Ba5 O0 2.703290 1_565
Ba5 O74 2.710883 1_555
Ba5 O58 2.714391 1_555
Ba5 O16 2.756823 1_565
Ba5 O11 2.835009 1_555
Ba5 O27 2.847116 1_555
Ba5 O46 2.849256 1_455
Ba5 O42 2.990978 1_555
Ba5 O56 3.033007 1_565
Ba5 O68 3.216030 1_465
Ba6 O75 2.701671 1_555
Ba6 O17 2.753190 1_565
Ba6 O1 2.754723 1_565
Ba6 O59 2.760639 1_555
Ba6 O26 2.794704 1_555
Ba6 O10 2.796939 1_555
Ba6 O47 2.845404 1_455
Ba6 O43 2.889229 1_555
Ba6 O57 2.921147 1_565
Ba7 O77 2.656621 1_555
Ba7 O61 2.731495 1_555
Ba7 O23 2.748764 1_555
Ba7 O7 2.774326 1_555
Ba7 O28 2.783464 1_555
Ba7 O12 2.805823 1_555
Ba7 O41 2.832486 1_555
Ba7 O45 2.967798 1_555
Ba7 O63 3.012011 1_555
Ba8 O32 2.717452 1_555
Ba8 O72 2.746146 1_555
Ba8 O28 2.757054 1_454
Ba8 O8 2.819382 1_554
Ba8 O1 2.838132 1_554
Ba8 O52 2.842930 1_455
Ba8 O48 2.861602 1_555
Ba8 O21 2.862176 1_454
Ba8 O34 2.922692 1_555
Ba8 O70 3.118493 1_455
Ba9 O74 2.692060 1_555
Ba9 O34 2.719369 1_555
Ba9 O10 2.751640 1_554
Ba9 O30 2.794863 1_454
Ba9 O3 2.817250 1_554
Ba9 O54 2.833988 1_455
Ba9 O23 2.844434 1_454
Ba9 O50 2.900699 1_555
Ba9 O32 2.981666 1_565
Ba10 O36 2.716758 1_555
Ba10 O76 2.765783 1_555
Ba10 O12 2.798510 1_554
Ba10 O24 2.813845 1_554
Ba10 O52 2.820419 1_555
Ba10 O17 2.845503 1_554
Ba10 O48 2.863614 1_555
Ba10 O38 2.908746 1_555
Ba10 O5 2.908962 1_554
Ba10 O66 3.133995 1_555
Ba11 O78 2.688372 1_555
Ba11 O26 2.747078 1_554
Ba11 O38 2.751295 1_555
Ba11 O50 2.783559 1_555
Ba11 O14 2.799900 1_554
Ba11 O7 2.819089 1_554
Ba11 O19 2.864413 1_554
Ba11 O54 2.897227 1_555
Ba11 O36 2.949616 1_565
Ba12 O6 2.706764 1_555
Ba12 O66 2.718345 1_555
Ba12 O42 2.739441 1_555
Ba12 O18 2.743365 1_555
Ba12 O27 2.817389 1_555
Ba12 O58 2.833362 1_555
Ba12 O62 2.857939 1_555
Ba12 O15 2.870787 1_555
Ba12 O40 3.035630 1_555
Ba12 O72 3.210713 1_555
Ba13 O67 2.659794 1_555
Ba13 O43 2.718121 1_555
Ba13 O7 2.744095 1_555
Ba13 O19 2.763644 1_555
Ba13 O14 2.777030 1_555
Ba13 O26 2.781260 1_555
Ba13 O59 2.810398 1_555
Ba13 O63 2.847339 1_555
Ba13 O41 3.032699 1_555
Ba14 O46 2.723641 1_555
Ba14 O22 2.724063 1_555
Ba14 O70 2.725523 1_555
Ba14 O2 2.756384 1_655
Ba14 O11 2.805136 1_655
Ba14 O62 2.834992 1_555
Ba14 O31 2.836031 1_555
Ba14 O58 2.885066 1_655
Ba14 O44 3.041716 1_555
Ba14 O76 3.163561 1_555
Ba15 O71 2.668279 1_555
Ba15 O3 2.738789 1_655
Ba15 O23 2.750164 1_555
Ba15 O47 2.777842 1_555
Ba15 O63 2.797783 1_555
Ba15 O10 2.800981 1_655
Ba15 O30 2.809368 1_555
Ba15 O59 2.881293 1_655
Ba15 O45 3.017766 1_555
Co0 O1 1.848358 1_665
Co0 O30 1.853084 1_555
Co0 O21 2.054769 1_565
Co0 O47 2.075278 1_555
Co0 O10 2.162671 1_655
Co0 O32 2.479207 1_666
Co1 O8 1.840443 1_655
Co1 O23 1.880569 1_555
Co1 O3 1.960093 1_655
Co1 O28 1.982231 1_555
Co1 O45 2.155999 1_555
Co1 O34 2.558783 1_656
Co2 O17 1.832420 1_565
Co2 O14 1.879509 1_555
Co2 O5 1.971673 1_565
Co2 O26 1.988115 1_555
Co2 O43 2.103277 1_555
Co2 O36 2.545694 1_566
Co3 O15 1.875436 1_545
Co3 O16 1.878471 1_555
Co3 O4 2.023463 1_555
Co3 O27 2.036944 1_545
Co3 O42 2.194106 1_545
Co3 O37 2.240628 1_555
Co4 O7 1.860373 1_555
Co4 O24 1.863985 1_555
Co4 O41 2.121409 1_555
Co4 O19 2.143234 1_555
Co4 O12 2.144890 1_555
Co4 O38 2.433982 1_556
Co5 O19 1.829465 1_555
Co5 O10 1.849983 1_555
Co5 O3 2.018088 1_555
Co5 O26 2.027047 1_555
Co5 O59 2.077963 1_555
Co5 O50 2.663663 1_556
Co6 O12 1.834656 1_555
Co6 O21 1.843090 1_555
Co6 O5 1.999926 1_555
Co6 O28 2.024511 1_555
Co6 O61 2.041933 1_555
Co6 O52 2.646987 1_556
Co7 O14 2.070889 1_555
Co7 O23 2.101253 1_555
Co7 O7 2.131454 1_555
Co7 O30 2.143586 1_555
Co7 O63 2.228521 1_555
Co7 O54 2.311207 1_556
Cu0 O20 1.965526 1_455
Cu0 O11 1.977478 1_545
Cu0 O31 2.011888 1_445
Cu0 O0 2.014011 1_555
Cu0 O33 2.169424 1_555
Cu0 O46 2.326385 1_445
Cu1 O9 1.973905 1_555
Cu1 O2 2.000815 1_555
Cu1 O29 2.001479 1_455
Cu1 O22 2.020278 1_455
Cu1 O35 2.196085 1_555
Cu1 O44 2.205979 1_455
Cu2 O13 1.962236 1_555
Cu2 O18 1.971057 1_555
Cu2 O25 1.991006 1_555
Cu2 O6 2.006100 1_555
Cu2 O39 2.198569 1_555
Cu2 O40 2.286354 1_555
Cu3 O24 2.104708 1_555
Cu3 O8 2.112539 1_555
Cu3 O17 2.124668 1_555
Cu3 O1 2.141786 1_555
Cu3 O57 2.180695 1_555
Cu3 O48 2.352240 1_556
Cu4 O9 1.967694 1_555
Cu4 O25 1.977569 1_555
Cu4 O0 1.999677 1_555
Cu4 O16 2.086011 1_555
Cu4 O49 2.173327 1_555
Cu4 O56 2.268355 1_555
Cu5 O2 1.970024 1_555
Cu5 O27 1.980039 1_555
Cu5 O18 1.995357 1_555
Cu5 O11 2.014748 1_555
Cu5 O51 2.245946 1_555
Cu5 O58 2.289123 1_555
Cu6 O29 1.965898 1_555
Cu6 O4 1.967085 1_555
Cu6 O20 1.969953 1_555
Cu6 O13 1.986620 1_555
Cu6 O53 2.169028 1_555
Cu6 O60 2.231632 1_555
Cu7 O31 1.963893 1_555
Cu7 O22 1.979163 1_555
Cu7 O6 1.982477 1_555
Cu7 O15 2.056447 1_555
Cu7 O55 2.200603 1_555
Cu7 O62 2.397598 1_555
Cu8 O56 1.844876 1_555
Cu8 O32 1.850596 1_555
Cu8 O68 1.857942 1_455
Cu8 O74 1.899303 1_545
Cu9 O33 1.845004 1_555
Cu9 O69 1.867268 1_455
Cu9 O57 1.888568 1_555
Cu9 O75 1.928634 1_545
Cu10 O58 1.828129 1_555
Cu10 O34 1.834893 1_555
Cu10 O70 1.848775 1_455
Cu10 O72 1.919340 1_555
Cu11 O71 1.841158 1_455
Cu11 O35 1.842333 1_555
Cu11 O59 1.880885 1_555
Cu11 O73 1.937012 1_555
Cu12 O36 1.840235 1_555
Cu12 O60 1.842174 1_555
Cu12 O64 1.842750 1_555
Cu12 O78 1.908363 1_545
Cu13 O37 1.843784 1_555
Cu13 O65 1.850432 1_555
Cu13 O61 1.869723 1_555
Cu13 O79 1.959310 1_545
Cu14 O62 1.827686 1_555
Cu14 O66 1.855912 1_555
Cu14 O38 1.856448 1_555
Cu14 O76 1.927407 1_555
Cu15 O39 1.834940 1_555
Cu15 O67 1.869534 1_555
Cu15 O63 1.879814 1_555
Cu15 O77 1.930621 1_555
Cu16 O72 1.845013 1_555
Cu16 O40 1.847331 1_555
Cu16 O48 1.872036 1_555
Cu16 O66 1.889650 1_555
Cu17 O49 1.844315 1_555
Cu17 O73 1.849186 1_555
Cu17 O41 1.901988 1_555
Cu17 O67 1.910090 1_555
Cu18 O50 1.829563 1_555
Cu18 O42 1.845654 1_555
Cu18 O74 1.850661 1_555
Cu18 O64 1.920936 1_565
Cu19 O51 1.830622 1_555
Cu19 O43 1.860249 1_555
Cu19 O75 1.873761 1_555
Cu19 O65 1.923810 1_565
Cu20 O52 1.829850 1_555
Cu20 O44 1.844851 1_555
Cu20 O76 1.854887 1_555
Cu20 O70 1.898057 1_555
Cu21 O53 1.832698 1_555
Cu21 O77 1.862878 1_555
Cu21 O45 1.871727 1_555
Cu21 O71 1.919248 1_555
Cu22 O46 1.844719 1_555
Cu22 O78 1.846538 1_555
Cu22 O54 1.891072 1_555
Cu22 O68 1.924026 1_565
Cu23 O79 1.843449 1_555
Cu23 O55 1.847342 1_555
Cu23 O47 1.892869 1_555
Cu23 O69 1.927919 1_565
O0 Sr14 2.560108 1_455
O0 Sr8 2.617404 1_555
O1 Sr15 2.617270 1_455
O2 Sr9 2.617527 1_555
O2 Sr3 2.627661 1_555
O2 Sr0 2.641243 1_555
O3 Sr4 2.648196 1_555
O4 Sr12 2.590452 1_555
O4 Sr6 2.603889 1_545
O4 Sr10 2.671504 1_555
O4 Sr1 2.686294 1_555
O5 Sr7 2.580112 1_545
O5 Sr13 2.590087 1_555
O6 Sr11 2.610287 1_555
O6 Sr5 2.624508 1_555
O6 Sr2 2.625854 1_555
O8 Sr15 2.615411 1_455
O8 Sr4 2.671220 1_555
O9 Sr8 2.607343 1_555
O9 Sr0 2.610658 1_555
O9 Sr3 2.661880 1_555
O9 Sr14 2.682930 1_455
O11 Sr9 2.540563 1_555
O12 Sr13 2.635843 1_555
O13 Sr10 2.564458 1_555
O13 Sr2 2.589725 1_555
O13 Sr12 2.657857 1_555
O13 Sr5 2.672862 1_555
O14 Sr7 2.697248 1_555
O15 Sr1 2.625294 1_565
O15 Sr11 2.626087 1_555
O15 Sr6 2.738254 1_555
O16 Sr12 2.633261 1_555
O16 Sr10 2.672980 1_555
O17 Sr13 2.595791 1_555
O18 Sr3 2.592333 1_555
O18 Sr0 2.598730 1_555
O18 Sr11 2.666991 1_555
O19 Sr4 2.648291 1_555
O20 Sr6 2.576369 1_545
O20 Sr14 2.594285 1_555
O20 Sr1 2.658653 1_555
O20 Sr8 2.698830 1_655
O21 Sr7 2.648286 1_545
O21 Sr15 2.674122 1_555
O22 Sr5 2.605868 1_555
O22 Sr2 2.609193 1_555
O22 Sr9 2.641669 1_655
O24 Sr13 2.644786 1_555
O24 Sr4 2.656180 1_555
O25 Sr0 2.583136 1_555
O25 Sr10 2.600931 1_555
O25 Sr12 2.659142 1_555
O25 Sr3 2.667288 1_555
O27 Sr11 2.579114 1_555
O28 Sr15 2.632655 1_555
O29 Sr8 2.580565 1_655
O29 Sr2 2.582194 1_555
O29 Sr5 2.663940 1_555
O29 Sr14 2.687999 1_555
O30 Sr7 2.694829 1_555
O31 Sr1 2.546641 1_565
O31 Sr9 2.615702 1_655
O31 Sr6 2.662536 1_555
O33 Sr8 2.623597 1_555
O33 Sr1 2.723916 1_455
O33 Sr9 3.138820 1_545
O35 Sr9 2.632098 1_555
O35 Sr0 2.756217 1_555
O35 Sr8 2.989727 1_555
O35 Sr2 3.016758 1_455
O37 Sr10 2.647292 1_555
O37 Sr1 2.775355 1_555
O37 Sr11 3.150387 1_545
O39 Sr11 2.590836 1_555
O39 Sr2 2.768909 1_555
O39 Sr0 2.899468 1_555
O39 Sr10 2.992620 1_555
O40 Sr12 2.572182 1_555
O40 Sr5 2.750235 1_555
O40 Sr3 2.986080 1_555
O41 Sr13 2.647535 1_555
O41 Sr4 2.837737 1_555
O42 Sr6 2.772341 1_555
O42 Sr12 2.981517 1_565
O43 Sr7 2.783791 1_555
O43 Sr13 2.916851 1_565
O44 Sr14 2.586772 1_555
O44 Sr3 2.769265 1_655
O44 Sr5 2.952403 1_555
O45 Sr15 2.621314 1_555
O45 Sr4 2.741104 1_655
O46 Sr6 2.783166 1_555
O46 Sr14 2.982683 1_565
O47 Sr7 2.820500 1_555
O47 Sr15 2.901897 1_565
O49 Sr10 2.867518 1_555
O49 Sr8 2.891244 1_555
O49 Sr0 2.909893 1_555
O51 Sr0 2.657323 1_555
O51 Sr11 2.743615 1_555
O51 Sr9 3.011932 1_555
O53 Sr1 2.565249 1_555
O53 Sr8 2.795026 1_655
O53 Sr10 2.862220 1_555
O53 Sr2 3.057319 1_555
O55 Sr2 2.672517 1_555
O55 Sr9 2.792178 1_655
O55 Sr11 2.937858 1_555
O55 Sr1 3.074407 1_565
O56 Sr3 2.595322 1_555
O56 Sr12 2.791994 1_555
O56 Sr14 2.989072 1_455
O57 Sr4 2.645493 1_555
O57 Sr13 2.778090 1_555
O57 Sr15 2.871503 1_455
O58 Sr3 3.009800 1_555
O59 Sr4 2.978360 1_555
O60 Sr5 2.578416 1_555
O60 Sr14 2.749482 1_555
O60 Sr12 2.925570 1_555
O60 Sr6 3.072859 1_545
O61 Sr15 2.699207 1_555
O61 Sr7 2.896951 1_545
O61 Sr13 3.062771 1_555
O62 Sr6 2.589281 1_555
O62 Sr5 3.159433 1_555
O63 Sr7 2.665574 1_555
O64 Sr12 2.534112 1_555
O65 Sr13 2.502305 1_555
O67 Sr0 2.571071 1_555
O68 Sr14 2.572603 1_555
O69 Sr15 2.518942 1_555
O69 Sr1 2.572763 1_555
O71 Sr2 2.511865 1_555
O72 Sr3 2.576301 1_555
O73 Sr4 2.534205 1_555
O73 Sr8 2.562156 1_555
O75 Sr9 2.558579 1_555
O76 Sr5 2.571237 1_555
O77 Sr10 2.557254 1_555
O78 Sr6 2.554210 1_555
O79 Sr11 2.506042 1_555
O79 Sr7 2.516755 1_555
