# generated using pymatgen
data_K6HgSe4
_symmetry_space_group_name_H-M   'P 1'
_cell_length_a   10.41285240
_cell_length_b   10.41286827
_cell_length_c   7.95112590
_cell_angle_alpha   89.99924114
_cell_angle_beta   90.00154776
_cell_angle_gamma   120.00010583
_symmetry_Int_Tables_number   1
_chemical_formula_structural   K6HgSe4
_chemical_formula_sum   'K12 Hg2 Se8'
_cell_volume   746.61873839
_cell_formula_units_Z   2
loop_
 _symmetry_equiv_pos_site_id
 _symmetry_equiv_pos_as_xyz
  1  'x, y, z'
loop_
 _atom_site_type_symbol
 _atom_site_label
 _atom_site_symmetry_multiplicity
 _atom_site_fract_x
 _atom_site_fract_y
 _atom_site_fract_z
 _atom_site_occupancy
  K  K0  1  0.14937441  0.29873680  0.20563703  1
  K  K1  1  0.14936976  0.85063208  0.20564139  1
  K  K2  1  0.70126401  0.85062626  0.20563687  1
  K  K3  1  0.85063590  0.70126125  0.70564332  1
  K  K4  1  0.85060602  0.14939572  0.70558053  1
  K  K5  1  0.29874043  0.14936533  0.70564302  1
  K  K6  1  0.52637711  0.05274204  0.37772498  1
  K  K7  1  0.52638019  0.47362103  0.37772843  1
  K  K8  1  0.94726010  0.47362453  0.37772527  1
  K  K9  1  0.47362825  0.94724950  0.87772872  1
  K  K10  1  0.47362775  0.52637344  0.87772746  1
  K  K11  1  0.05274849  0.52637291  0.87772863  1
  Hg  Hg0  1  0.33333392  0.66666739  0.50127510  1
  Hg  Hg1  1  0.66666721  0.33333346  0.00129049  1
  Se  Se0  1  0.33332939  0.66666988  0.15545927  1
  Se  Se1  1  0.66665053  0.33335186  0.65546954  1
  Se  Se2  1  0.81066102  0.62130603  0.10539956  1
  Se  Se3  1  0.81066017  0.18933887  0.10539011  1
  Se  Se4  1  0.37869537  0.18934070  0.10540055  1
  Se  Se5  1  0.18933611  0.37867647  0.60535665  1
  Se  Se6  1  0.18934011  0.81066164  0.60531294  1
  Se  Se7  1  0.62131473  0.81065083  0.60539913  1
loop_
_geom_bond_atom_site_label_1
_geom_bond_atom_site_label_2
_geom_bond_distance
_geom_bond_site_symmetry_2
K0 Se3 3.217871 1_455
K0 Se4 3.217926 1_555
K0 Se5 3.258950 1_555
K0 Se0 3.341848 1_555
K1 Se2 3.217842 1_455
K1 Se4 3.217862 1_565
K1 Se6 3.258564 1_555
K1 Se0 3.341763 1_555
K2 Se3 3.217880 1_565
K2 Se2 3.217925 1_555
K2 Se7 3.259316 1_555
K2 Se0 3.341847 1_555
K3 Se7 3.217854 1_555
K3 Se6 3.217974 1_655
K3 Se2 3.259265 1_556
K3 Se1 3.341632 1_555
K4 Se5 3.217908 1_655
K4 Se7 3.217940 1_545
K4 Se3 3.259563 1_556
K4 Se1 3.341586 1_555
K5 Se6 3.217958 1_545
K5 Se5 3.217959 1_555
K5 Se4 3.259258 1_556
K5 Se1 3.341642 1_555
K6 Se4 3.356114 1_555
K6 Se3 3.356260 1_555
K6 Se1 3.358615 1_555
K6 Se6 3.619261 1_545
K6 Se7 3.619521 1_545
K7 Se4 3.356168 1_555
K7 Se2 3.356213 1_555
K7 Se1 3.358082 1_555
K7 Se5 3.619520 1_555
K7 Se7 3.619561 1_555
K8 Se2 3.356123 1_555
K8 Se3 3.356244 1_555
K8 Se1 3.358648 1_555
K8 Se6 3.619221 1_655
K8 Se5 3.619274 1_655
K9 Se7 3.356252 1_555
K9 Se6 3.356634 1_555
K9 Se0 3.358337 1_556
K9 Se3 3.619479 1_566
K9 Se4 3.619541 1_566
K10 Se7 3.356153 1_555
K10 Se5 3.356427 1_555
K10 Se0 3.358487 1_556
K10 Se2 3.619546 1_556
K10 Se4 3.619581 1_556
K11 Se5 3.356463 1_555
K11 Se6 3.356679 1_555
K11 Se0 3.358304 1_556
K11 Se2 3.619515 1_456
K11 Se3 3.619534 1_456
Hg0 Se6 2.725602 1_555
Hg0 Se7 2.725705 1_555
Hg0 Se5 2.725712 1_555
Hg0 Se0 2.749625 1_555
Hg1 Se2 2.725620 1_555
Hg1 Se4 2.725631 1_555
Hg1 Se3 2.725710 1_555
Hg1 Se1 2.749666 1_554
