# generated using pymatgen
data_SrCa7Mn7CrO20
_symmetry_space_group_name_H-M   'P 1'
_cell_length_a   11.03068913
_cell_length_b   15.44216295
_cell_length_c   11.15947640
_cell_angle_alpha   90.00149248
_cell_angle_beta   91.62169947
_cell_angle_gamma   90.28819958
_symmetry_Int_Tables_number   1
_chemical_formula_structural   SrCa7Mn7CrO20
_chemical_formula_sum   'Sr4 Ca28 Mn28 Cr4 O80'
_cell_volume   1900.09410594
_cell_formula_units_Z   4
loop_
 _symmetry_equiv_pos_site_id
 _symmetry_equiv_pos_as_xyz
  1  'x, y, z'
loop_
 _atom_site_type_symbol
 _atom_site_label
 _atom_site_symmetry_multiplicity
 _atom_site_fract_x
 _atom_site_fract_y
 _atom_site_fract_z
 _atom_site_occupancy
  Sr  Sr0  1  0.00076909  0.11192197  0.50989537  1
  Sr  Sr1  1  0.51266202  0.37667952  0.99277943  1
  Sr  Sr2  1  0.24091568  0.38919437  0.26299869  1
  Sr  Sr3  1  0.22981388  0.12128046  0.24927920  1
  Ca  Ca0  1  0.99664319  0.11187920  0.00832469  1
  Ca  Ca1  1  0.00495789  0.61287567  0.50718344  1
  Ca  Ca2  1  0.99846636  0.61241819  0.01130222  1
  Ca  Ca3  1  0.54289988  0.12923876  0.48123558  1
  Ca  Ca4  1  0.54845008  0.12787912  0.98313802  1
  Ca  Ca5  1  0.54280005  0.62976631  0.48176726  1
  Ca  Ca6  1  0.54345102  0.62865438  0.98256016  1
  Ca  Ca7  1  0.51626107  0.37277377  0.49163247  1
  Ca  Ca8  1  0.52013247  0.87279316  0.98801129  1
  Ca  Ca9  1  0.51942463  0.87472702  0.48930202  1
  Ca  Ca10  1  0.96174188  0.38580839  0.00559826  1
  Ca  Ca11  1  0.95776678  0.38721582  0.50629818  1
  Ca  Ca12  1  0.95754234  0.87992485  0.00808542  1
  Ca  Ca13  1  0.95893831  0.88254879  0.50330351  1
  Ca  Ca14  1  0.23419345  0.39642680  0.75721368  1
  Ca  Ca15  1  0.23177793  0.89077551  0.27148198  1
  Ca  Ca16  1  0.23259512  0.89131246  0.76986741  1
  Ca  Ca17  1  0.75841581  0.38196269  0.25716736  1
  Ca  Ca18  1  0.75691844  0.37257119  0.75676320  1
  Ca  Ca19  1  0.75849486  0.87299594  0.25875926  1
  Ca  Ca20  1  0.75380611  0.87384200  0.75538772  1
  Ca  Ca21  1  0.22468414  0.11507463  0.74471812  1
  Ca  Ca22  1  0.22738292  0.61963138  0.24331027  1
  Ca  Ca23  1  0.22452131  0.62172006  0.74833748  1
  Ca  Ca24  1  0.77574076  0.11653243  0.25108495  1
  Ca  Ca25  1  0.78223153  0.12181741  0.75445375  1
  Ca  Ca26  1  0.78138638  0.62437460  0.25188212  1
  Ca  Ca27  1  0.78153594  0.62235427  0.75471270  1
  Mn  Mn0  1  0.99510612  0.99346217  0.75896408  1
  Mn  Mn1  1  0.99545609  0.49837636  0.25716878  1
  Mn  Mn2  1  0.99412141  0.49715210  0.75444993  1
  Mn  Mn3  1  0.50455110  0.98741069  0.23157832  1
  Mn  Mn4  1  0.50571132  0.98957340  0.73684802  1
  Mn  Mn5  1  0.50774775  0.49695691  0.23821933  1
  Mn  Mn6  1  0.50255312  0.49219777  0.73389497  1
  Mn  Mn7  1  0.24550902  0.99647829  0.52229584  1
  Mn  Mn8  1  0.24053323  0.50376777  0.01741821  1
  Mn  Mn9  1  0.24606281  0.50478429  0.52142987  1
  Mn  Mn10  1  0.74648305  0.00088669  0.99747656  1
  Mn  Mn11  1  0.74375465  0.00182765  0.49942180  1
  Mn  Mn12  1  0.74697186  0.50333287  0.99798316  1
  Mn  Mn13  1  0.74283132  0.50349810  0.49894041  1
  Mn  Mn14  1  0.27056141  0.24735435  0.47306138  1
  Mn  Mn15  1  0.27192230  0.74489811  0.95983368  1
  Mn  Mn16  1  0.27502403  0.74266486  0.45920898  1
  Mn  Mn17  1  0.75951645  0.24839016  0.00457478  1
  Mn  Mn18  1  0.75216725  0.24889515  0.50464986  1
  Mn  Mn19  1  0.75656944  0.74665610  0.00079065  1
  Mn  Mn20  1  0.75639161  0.74655422  0.50343757  1
  Mn  Mn21  1  0.99780444  0.25411205  0.76483828  1
  Mn  Mn22  1  0.99634459  0.75233631  0.26196313  1
  Mn  Mn23  1  0.99485458  0.75273955  0.76004944  1
  Mn  Mn24  1  0.51765991  0.25152722  0.25276345  1
  Mn  Mn25  1  0.50731193  0.24808934  0.75240423  1
  Mn  Mn26  1  0.51281488  0.74675448  0.24933567  1
  Mn  Mn27  1  0.51206782  0.74615036  0.74938636  1
  Cr  Cr0  1  0.99484155  0.99650320  0.25462985  1
  Cr  Cr1  1  0.23841224  0.99598708  0.01900711  1
  Cr  Cr2  1  0.26670946  0.24109553  0.94656081  1
  Cr  Cr3  1  0.98550525  0.25332579  0.27179554  1
  O  O0  1  0.59428332  0.25142428  0.09769418  1
  O  O1  1  0.58276480  0.25437566  0.59714600  1
  O  O2  1  0.58758348  0.75440649  0.09106191  1
  O  O3  1  0.58570261  0.75522392  0.59237979  1
  O  O4  1  0.40103805  0.19958384  0.35804640  1
  O  O5  1  0.39474584  0.18199850  0.85996074  1
  O  O6  1  0.39995967  0.67915725  0.34802098  1
  O  O7  1  0.39999642  0.68371836  0.85141133  1
  O  O8  1  0.90557977  0.23759601  0.40661509  1
  O  O9  1  0.91039882  0.23679258  0.92100624  1
  O  O10  1  0.90580008  0.73384127  0.41872337  1
  O  O11  1  0.90727171  0.73364686  0.91786449  1
  O  O12  1  0.14621651  0.25293686  0.32615620  1
  O  O13  1  0.17509523  0.25554421  0.79976610  1
  O  O14  1  0.16465926  0.75186968  0.30881900  1
  O  O15  1  0.16228335  0.75408779  0.80774388  1
  O  O16  1  0.66022953  0.22606941  0.35513533  1
  O  O17  1  0.65862698  0.22965703  0.85614664  1
  O  O18  1  0.65985051  0.72720603  0.35593240  1
  O  O19  1  0.65950998  0.72533035  0.85347950  1
  O  O20  1  0.86527722  0.27652295  0.15103356  1
  O  O21  1  0.86408197  0.27243658  0.64674773  1
  O  O22  1  0.85629215  0.77100096  0.14987550  1
  O  O23  1  0.85628028  0.77336961  0.64959726  1
  O  O24  1  0.35684605  0.51212719  0.15404373  1
  O  O25  1  0.34689847  0.51362662  0.66922478  1
  O  O26  1  0.35031404  0.00609339  0.16122945  1
  O  O27  1  0.34647442  0.00357103  0.67047965  1
  O  O28  1  0.85191941  0.48494188  0.13803886  1
  O  O29  1  0.84533195  0.48114978  0.64060825  1
  O  O30  1  0.84984511  0.97885961  0.14173559  1
  O  O31  1  0.85647253  0.98304336  0.64789072  1
  O  O32  1  0.14821297  0.00554156  0.37319832  1
  O  O33  1  0.14856166  0.00879347  0.86704542  1
  O  O34  1  0.15726843  0.51275606  0.37304439  1
  O  O35  1  0.15384209  0.50887932  0.86876453  1
  O  O36  1  0.62257203  0.02590193  0.34432979  1
  O  O37  1  0.63290762  0.02471584  0.84890312  1
  O  O38  1  0.63442211  0.52773538  0.34943661  1
  O  O39  1  0.62662521  0.52216155  0.84875712  1
  O  O40  1  0.87950812  0.01211500  0.38951502  1
  O  O41  1  0.88658227  0.01475058  0.89485103  1
  O  O42  1  0.88527262  0.51855924  0.39409875  1
  O  O43  1  0.88671925  0.51810115  0.89061005  1
  O  O44  1  0.09800979  0.47549549  0.12246163  1
  O  O45  1  0.09656390  0.47352461  0.62120779  1
  O  O46  1  0.10269910  0.97012965  0.11580703  1
  O  O47  1  0.09897665  0.97013642  0.62576700  1
  O  O48  1  0.60232038  0.50020738  0.09380054  1
  O  O49  1  0.58847546  0.49682800  0.58473139  1
  O  O50  1  0.59502000  0.99568834  0.08512963  1
  O  O51  1  0.59258973  0.99682822  0.58771714  1
  O  O52  1  0.98773386  0.37863475  0.30052583  1
  O  O53  1  0.99563403  0.37555798  0.79848296  1
  O  O54  1  0.99496495  0.87317819  0.29634855  1
  O  O55  1  0.99135759  0.87464966  0.80108429  1
  O  O56  1  0.48172273  0.37694530  0.28113641  1
  O  O57  1  0.46345548  0.37375584  0.77592403  1
  O  O58  1  0.47541489  0.87195957  0.28463812  1
  O  O59  1  0.48180007  0.87086623  0.78241193  1
  O  O60  1  0.99495779  0.12802078  0.22152905  1
  O  O61  1  0.00317231  0.12759225  0.73264011  1
  O  O62  1  0.00046857  0.62756558  0.22207034  1
  O  O63  1  0.99950704  0.62802056  0.71832982  1
  O  O64  1  0.21648216  0.13888733  0.02756225  1
  O  O65  1  0.23299988  0.12896165  0.53802878  1
  O  O66  1  0.21571422  0.63372208  0.03556515  1
  O  O67  1  0.22027911  0.63384733  0.54122929  1
  O  O68  1  0.75761787  0.12515649  0.03791826  1
  O  O69  1  0.75310516  0.12480638  0.54071656  1
  O  O70  1  0.75352338  0.62552855  0.03887203  1
  O  O71  1  0.74950392  0.62568686  0.54457470  1
  O  O72  1  0.29949326  0.37748922  0.49978596  1
  O  O73  1  0.28054094  0.36046073  0.99806510  1
  O  O74  1  0.29958455  0.87552928  0.48635162  1
  O  O75  1  0.29949937  0.87722877  0.98243632  1
  O  O76  1  0.73811882  0.37838560  0.46631194  1
  O  O77  1  0.74563739  0.37756874  0.96671805  1
  O  O78  1  0.74086452  0.87419643  0.46860315  1
  O  O79  1  0.74182390  0.87249331  0.96461421  1
loop_
_geom_bond_atom_site_label_1
_geom_bond_atom_site_label_2
_geom_bond_distance
_geom_bond_site_symmetry_2
Ca0 O41 2.285091 1_554
Ca0 O9 2.354022 1_554
Ca0 O60 2.392869 1_555
Ca0 O64 2.461888 1_655
Ca0 O68 2.675361 1_555
Ca0 O46 2.746837 1_645
Ca1 O42 2.311498 1_455
Ca1 O63 2.370340 1_455
Ca1 O10 2.370591 1_455
Ca1 O67 2.414892 1_555
Ca1 O45 2.687012 1_555
Ca1 O34 2.760824 1_555
Ca1 O71 2.868029 1_455
Ca2 O43 2.311406 1_554
Ca2 O11 2.358677 1_554
Ca2 O62 2.363128 1_655
Ca2 O66 2.424785 1_655
Ca2 O44 2.676094 1_655
Ca2 O70 2.736495 1_555
Ca2 O35 2.864563 1_654
Ca2 O28 2.930183 1_555
Ca3 O4 2.326801 1_555
Ca3 O1 2.357912 1_555
Ca3 O69 2.395033 1_555
Ca3 O36 2.396434 1_555
Ca3 O51 2.422352 1_545
Ca3 O16 2.444349 1_555
Ca4 O5 2.311912 1_555
Ca4 O0 2.341619 1_556
Ca4 O68 2.370674 1_556
Ca4 O50 2.388274 1_546
Ca4 O37 2.396571 1_555
Ca4 O17 2.456398 1_555
Ca5 O6 2.273990 1_555
Ca5 O3 2.336346 1_555
Ca5 O71 2.367491 1_555
Ca5 O49 2.401267 1_555
Ca5 O38 2.405204 1_555
Ca5 O18 2.446678 1_555
Ca6 O7 2.291621 1_555
Ca6 O2 2.330450 1_556
Ca6 O70 2.384439 1_556
Ca6 O48 2.421662 1_556
Ca6 O39 2.422440 1_555
Ca6 O19 2.455172 1_555
Ca7 O1 2.287372 1_555
Ca7 O49 2.306815 1_555
Ca7 O56 2.369983 1_555
Ca7 O72 2.396873 1_555
Ca7 O76 2.472521 1_555
Ca8 O2 2.276740 1_556
Ca8 O59 2.321383 1_555
Ca8 O50 2.322057 1_556
Ca8 O75 2.434078 1_555
Ca8 O79 2.466673 1_555
Ca9 O3 2.286746 1_555
Ca9 O51 2.312375 1_555
Ca9 O58 2.321835 1_555
Ca9 O74 2.424373 1_555
Ca9 O78 2.460086 1_555
Ca10 O53 2.357203 1_554
Ca10 O44 2.397143 1_655
Ca10 O77 2.413558 1_554
Ca10 O28 2.472904 1_555
Ca10 O43 2.542024 1_554
Ca10 O9 2.542359 1_554
Ca10 O20 2.587305 1_555
Ca11 O52 2.333080 1_555
Ca11 O45 2.373399 1_655
Ca11 O29 2.451927 1_555
Ca11 O76 2.454278 1_555
Ca11 O42 2.506124 1_555
Ca11 O21 2.596042 1_555
Ca11 O8 2.618640 1_555
Ca12 O55 2.351818 1_554
Ca12 O46 2.411995 1_655
Ca12 O79 2.417137 1_554
Ca12 O30 2.467438 1_555
Ca12 O11 2.525718 1_554
Ca12 O41 2.550438 1_564
Ca12 O22 2.580991 1_555
Ca13 O54 2.359069 1_555
Ca13 O78 2.428413 1_555
Ca13 O47 2.437745 1_655
Ca13 O40 2.517547 1_565
Ca13 O31 2.531784 1_555
Ca13 O10 2.542202 1_555
Ca13 O23 2.622138 1_555
Ca14 O13 2.320928 1_555
Ca14 O35 2.329918 1_555
Ca14 O25 2.414896 1_555
Ca14 O45 2.431798 1_555
Ca14 O57 2.557461 1_555
Ca14 O53 2.701978 1_455
Ca14 O73 2.778332 1_555
Ca14 O72 2.996046 1_555
Ca15 O14 2.307451 1_555
Ca15 O32 2.313980 1_565
Ca15 O74 2.502949 1_555
Ca15 O46 2.534678 1_555
Ca15 O26 2.542101 1_565
Ca15 O54 2.647335 1_455
Ca15 O58 2.704454 1_555
Ca16 O15 2.296218 1_555
Ca16 O33 2.323826 1_565
Ca16 O27 2.422853 1_565
Ca16 O75 2.474193 1_555
Ca16 O47 2.474658 1_555
Ca16 O55 2.704470 1_455
Ca16 O59 2.768159 1_555
Ca17 O28 2.328339 1_555
Ca17 O76 2.351581 1_555
Ca17 O20 2.354056 1_555
Ca17 O52 2.562683 1_555
Ca17 O38 2.847579 1_555
Ca17 O16 2.864337 1_555
Ca18 O21 2.322945 1_555
Ca18 O29 2.344748 1_555
Ca18 O77 2.351088 1_555
Ca18 O53 2.661203 1_555
Ca18 O17 2.705570 1_555
Ca19 O22 2.282995 1_555
Ca19 O30 2.334798 1_555
Ca19 O78 2.355368 1_555
Ca19 O54 2.630183 1_555
Ca19 O18 2.733239 1_555
Ca19 O40 2.896023 1_565
Ca20 O23 2.274141 1_555
Ca20 O79 2.342415 1_555
Ca20 O31 2.371285 1_555
Ca20 O55 2.655280 1_555
Ca20 O19 2.753211 1_555
Ca21 O33 2.305059 1_555
Ca21 O65 2.320852 1_555
Ca21 O13 2.326520 1_555
Ca21 O27 2.354175 1_555
Ca21 O61 2.451935 1_555
Ca21 O5 2.466740 1_555
Ca21 O47 2.925516 1_545
Ca22 O14 2.286010 1_555
Ca22 O66 2.328512 1_555
Ca22 O34 2.338509 1_555
Ca22 O6 2.385510 1_555
Ca22 O24 2.427330 1_555
Ca22 O62 2.511139 1_555
Ca22 O44 2.944197 1_555
Ca23 O15 2.264672 1_555
Ca23 O67 2.317969 1_555
Ca23 O25 2.340500 1_555
Ca23 O35 2.344354 1_555
Ca23 O7 2.416928 1_555
Ca23 O63 2.497524 1_455
Ca24 O68 2.385350 1_555
Ca24 O16 2.436846 1_555
Ca24 O36 2.443739 1_555
Ca24 O60 2.455274 1_555
Ca24 O40 2.493019 1_555
Ca24 O30 2.598231 1_545
Ca24 O20 2.892048 1_555
Ca24 O8 2.896693 1_555
Ca25 O69 2.398185 1_555
Ca25 O17 2.455668 1_555
Ca25 O61 2.457275 1_655
Ca25 O37 2.479091 1_555
Ca25 O41 2.535829 1_555
Ca25 O31 2.598034 1_545
Ca25 O21 2.776693 1_555
Ca25 O9 2.903690 1_555
Ca26 O70 2.388305 1_555
Ca26 O18 2.403438 1_555
Ca26 O62 2.448980 1_655
Ca26 O38 2.473024 1_555
Ca26 O42 2.533375 1_555
Ca26 O28 2.632110 1_555
Ca26 O22 2.672042 1_555
Ca26 O10 2.835358 1_555
Ca27 O71 2.362192 1_555
Ca27 O19 2.379217 1_555
Ca27 O63 2.450846 1_555
Ca27 O43 2.481361 1_555
Ca27 O39 2.547571 1_555
Ca27 O29 2.633861 1_555
Ca27 O23 2.744004 1_555
Ca27 O11 2.832852 1_555
Mn0 O55 1.894527 1_555
Mn0 O47 1.937124 1_655
Mn0 O31 1.947062 1_555
Mn0 O41 1.986789 1_565
Mn0 O33 2.063129 1_665
Mn0 O61 2.093796 1_665
Mn1 O52 1.913429 1_555
Mn1 O44 1.940253 1_655
Mn1 O42 2.004551 1_555
Mn1 O62 2.033838 1_655
Mn1 O28 2.048127 1_555
Mn1 O34 2.184646 1_655
Mn2 O45 1.928776 1_655
Mn2 O53 1.940955 1_555
Mn2 O43 1.980590 1_555
Mn2 O29 2.060729 1_555
Mn2 O63 2.061601 1_555
Mn2 O35 2.152624 1_655
Mn3 O26 1.877088 1_565
Mn3 O36 1.879033 1_565
Mn3 O58 1.907194 1_555
Mn3 O50 1.942719 1_555
Mn4 O27 1.900191 1_565
Mn4 O59 1.921230 1_555
Mn4 O37 1.928671 1_565
Mn4 O51 1.946736 1_555
Mn5 O38 1.901022 1_555
Mn5 O24 1.903530 1_555
Mn5 O56 1.936171 1_555
Mn5 O48 1.944943 1_555
Mn6 O25 1.874550 1_555
Mn6 O39 1.903808 1_555
Mn6 O57 1.937725 1_555
Mn6 O49 1.939814 1_555
Mn7 O32 1.959665 1_565
Mn7 O27 1.970141 1_565
Mn7 O74 2.007427 1_555
Mn7 O47 2.051927 1_555
Mn7 O65 2.058999 1_565
Mn8 O35 1.893037 1_554
Mn8 O24 1.968502 1_555
Mn8 O44 2.033164 1_555
Mn8 O66 2.037585 1_555
Mn8 O73 2.270206 1_554
Mn9 O34 1.904191 1_555
Mn9 O25 1.967407 1_555
Mn9 O67 2.027571 1_555
Mn9 O45 2.070804 1_555
Mn9 O72 2.071089 1_555
Mn10 O41 1.960234 1_555
Mn10 O50 1.961066 1_546
Mn10 O68 1.973766 1_556
Mn10 O30 1.976696 1_546
Mn10 O79 2.016429 1_545
Mn10 O37 2.083512 1_555
Mn11 O69 1.955688 1_555
Mn11 O51 1.961871 1_545
Mn11 O40 1.968117 1_555
Mn11 O78 2.000616 1_545
Mn11 O31 2.064517 1_545
Mn11 O36 2.189660 1_555
Mn12 O28 1.940238 1_556
Mn12 O70 1.941851 1_556
Mn12 O48 1.946131 1_556
Mn12 O77 1.973062 1_555
Mn12 O43 1.991239 1_555
Mn12 O39 2.121030 1_555
Mn13 O29 1.949262 1_555
Mn13 O71 1.954847 1_555
Mn13 O76 1.966168 1_555
Mn13 O49 1.979070 1_555
Mn13 O42 1.998018 1_555
Mn13 O38 2.060390 1_555
Mn14 O65 2.012264 1_555
Mn14 O72 2.053599 1_555
Mn14 O4 2.092411 1_555
Mn14 O12 2.109562 1_555
Mn15 O66 2.016203 1_556
Mn15 O15 2.061301 1_555
Mn15 O75 2.078776 1_555
Mn15 O7 2.112454 1_555
Mn16 O67 2.011783 1_555
Mn16 O14 2.050605 1_555
Mn16 O74 2.089116 1_555
Mn16 O6 2.123887 1_555
Mn17 O68 1.939164 1_555
Mn17 O9 1.939752 1_554
Mn17 O17 1.989518 1_554
Mn17 O20 2.026805 1_555
Mn17 O77 2.044647 1_554
Mn17 O0 2.124174 1_555
Mn18 O69 1.958041 1_555
Mn18 O16 1.958882 1_555
Mn18 O21 2.013791 1_555
Mn18 O8 2.049088 1_555
Mn18 O76 2.050589 1_555
Mn18 O1 2.162206 1_555
Mn19 O70 1.918491 1_555
Mn19 O11 1.936640 1_554
Mn19 O19 1.963152 1_554
Mn19 O79 1.991222 1_554
Mn19 O22 2.002873 1_555
Mn19 O2 2.147621 1_555
Mn20 O71 1.923735 1_555
Mn20 O10 1.933869 1_555
Mn20 O18 1.957153 1_555
Mn20 O23 1.984830 1_555
Mn20 O78 2.016244 1_555
Mn20 O3 2.157865 1_555
Mn21 O53 1.912994 1_555
Mn21 O21 1.971475 1_555
Mn21 O13 1.983270 1_655
Mn21 O61 1.987974 1_655
Mn21 O9 2.032443 1_555
Mn22 O54 1.905317 1_555
Mn22 O14 1.914605 1_655
Mn22 O62 1.978517 1_655
Mn22 O22 1.982280 1_555
Mn22 O10 2.058015 1_555
Mn23 O15 1.907503 1_655
Mn23 O55 1.938269 1_555
Mn23 O23 1.963560 1_555
Mn23 O63 1.982649 1_555
Mn23 O11 2.053126 1_555
Mn24 O4 1.937493 1_555
Mn24 O0 1.947250 1_555
Mn24 O16 1.958932 1_555
Mn24 O56 2.005767 1_555
Mn25 O1 1.945472 1_555
Mn25 O57 2.021214 1_555
Mn25 O5 2.023783 1_555
Mn25 O17 2.025503 1_555
Mn26 O2 1.973652 1_555
Mn26 O6 1.979069 1_555
Mn26 O18 2.008109 1_555
Mn26 O58 2.020089 1_555
Mn27 O7 1.954924 1_555
Mn27 O3 1.956702 1_555
Mn27 O59 1.992416 1_555
Mn27 O19 1.999056 1_555
Cr0 O54 1.960495 1_555
Cr0 O40 2.013419 1_565
Cr0 O46 2.022500 1_655
Cr0 O30 2.025116 1_555
Cr0 O60 2.064245 1_565
Cr0 O32 2.122101 1_665
Cr1 O46 1.911262 1_555
Cr1 O33 1.950399 1_564
Cr1 O26 1.988497 1_565
Cr1 O75 2.002922 1_554
Cr1 O64 2.223460 1_565
Cr2 O64 1.906505 1_556
Cr2 O13 1.913938 1_555
Cr2 O73 1.934781 1_555
Cr2 O5 1.962553 1_555
Cr3 O8 1.781232 1_555
Cr3 O12 1.857403 1_655
Cr3 O20 1.899184 1_555
Cr3 O52 1.961333 1_555
Cr3 O60 2.018655 1_555
O0 Sr1 2.424978 1_554
O4 Sr3 2.519887 1_555
O8 Sr0 2.479767 1_655
O12 Sr3 2.404832 1_555
O12 Sr2 2.456594 1_555
O24 Sr2 2.604056 1_555
O26 Sr3 2.448219 1_555
O32 Sr3 2.443611 1_555
O32 Sr0 2.799649 1_555
O34 Sr2 2.466147 1_555
O40 Sr0 2.417991 1_655
O44 Sr2 2.569406 1_555
O47 Sr0 2.753921 1_565
O48 Sr1 2.409463 1_554
O52 Sr2 2.839569 1_655
O56 Sr2 2.665920 1_555
O57 Sr1 2.465445 1_555
O60 Sr3 2.602955 1_655
O61 Sr0 2.496840 1_555
O64 Sr3 2.489434 1_555
O65 Sr0 2.584111 1_555
O69 Sr0 2.771251 1_655
O72 Sr2 2.708715 1_555
O73 Sr1 2.573759 1_555
O73 Sr2 3.033804 1_556
O77 Sr1 2.594417 1_555
