# generated using pymatgen
data_LiFeP2(HO3)2
_symmetry_space_group_name_H-M   'P 1'
_cell_length_a   9.12896980
_cell_length_b   9.12896980
_cell_length_c   9.12896980
_cell_angle_alpha   107.92008625
_cell_angle_beta   107.92008625
_cell_angle_gamma   112.62012655
_symmetry_Int_Tables_number   1
_chemical_formula_structural   LiFeP2(HO3)2
_chemical_formula_sum   'Li4 Fe4 P8 H8 O24'
_cell_volume   584.32251176
_cell_formula_units_Z   4
loop_
 _symmetry_equiv_pos_site_id
 _symmetry_equiv_pos_as_xyz
  1  'x, y, z'
loop_
 _atom_site_type_symbol
 _atom_site_label
 _atom_site_symmetry_multiplicity
 _atom_site_fract_x
 _atom_site_fract_y
 _atom_site_fract_z
 _atom_site_occupancy
  Li  Li0  1  0.87500000  0.68793700  0.31293700  1
  Li  Li1  1  0.37500000  0.56206300  0.68706300  1
  Li  Li2  1  0.31206300  0.62500000  0.18706300  1
  Li  Li3  1  0.43793700  0.12500000  0.81293700  1
  Fe  Fe0  1  0.87500000  0.40657000  0.03157000  1
  Fe  Fe1  1  0.37500000  0.84343000  0.96843000  1
  Fe  Fe2  1  0.59343000  0.62500000  0.46843000  1
  Fe  Fe3  1  0.15657000  0.12500000  0.53157000  1
  P  P0  1  0.59918300  0.29686800  0.19714500  1
  P  P1  1  0.15081700  0.84796200  0.19768500  1
  P  P2  1  0.09972300  0.40203800  0.80285500  1
  P  P3  1  0.65027700  0.95313200  0.80231500  1
  P  P4  1  0.70313200  0.90027700  0.30231500  1
  P  P5  1  0.04686800  0.84918300  0.69714500  1
  P  P6  1  0.59796200  0.40081700  0.69768500  1
  P  P7  1  0.15203800  0.34972300  0.30285500  1
  H  H0  1  0.71994000  0.27764600  0.31722500  1
  H  H1  1  0.03006000  0.84728500  0.05770600  1
  H  H2  1  0.96042100  0.40271500  0.68277500  1
  H  H3  1  0.78957900  0.97235400  0.94229400  1
  H  H4  1  0.72235400  0.03957900  0.44229400  1
  H  H5  1  0.02764600  0.96994000  0.81722500  1
  H  H6  1  0.59728500  0.28006000  0.55770600  1
  H  H7  1  0.15271500  0.21042100  0.18277500  1
  O  O0  1  0.45342600  0.10703000  0.03616600  1
  O  O1  1  0.29657400  0.83274000  0.15360400  1
  O  O2  1  0.07086400  0.41726000  0.96383400  1
  O  O3  1  0.67913600  0.14297000  0.84639600  1
  O  O4  1  0.89297000  0.92913600  0.34639600  1
  O  O5  1  0.85703000  0.70342600  0.53616600  1
  O  O6  1  0.58274000  0.54657400  0.65360400  1
  O  O7  1  0.16726000  0.32086400  0.46383400  1
  O  O8  1  0.70732400  0.42109600  0.13770500  1
  O  O9  1  0.04267600  0.68038000  0.21377100  1
  O  O10  1  0.28339100  0.56962000  0.86229500  1
  O  O11  1  0.46660900  0.82890400  0.78622900  1
  O  O12  1  0.57890400  0.71660900  0.28622900  1
  O  O13  1  0.17109600  0.95732400  0.63770500  1
  O  O14  1  0.43038000  0.29267600  0.71377100  1
  O  O15  1  0.31962000  0.53339100  0.36229500  1
  O  O16  1  0.51554900  0.38043200  0.29034600  1
  O  O17  1  0.23445100  0.02479700  0.36488300  1
  O  O18  1  0.09008600  0.22520300  0.70965400  1
  O  O19  1  0.65991400  0.86956800  0.63511700  1
  O  O20  1  0.61956800  0.90991400  0.13511700  1
  O  O21  1  0.13043200  0.76554900  0.79034600  1
  O  O22  1  0.77479700  0.48445100  0.86488300  1
  O  O23  1  0.97520300  0.34008600  0.20965400  1
loop_
_geom_bond_atom_site_label_1
_geom_bond_atom_site_label_2
_geom_bond_distance
_geom_bond_site_symmetry_2
Li0 O8 2.015660 1_555
Li0 O9 2.015667 1_655
Li0 O4 2.060579 1_555
Li0 O5 2.060579 1_555
Li1 O10 2.015659 1_555
Li1 O11 2.015659 1_555
Li1 O6 2.060579 1_555
Li1 O7 2.060579 1_555
Li2 O12 2.015659 1_555
Li2 O15 2.015659 1_555
Li2 O1 2.060579 1_555
Li2 O2 2.060579 1_554
Li3 O13 2.015660 1_545
Li3 O14 2.015667 1_555
Li3 O0 2.060579 1_556
Li3 O3 2.060579 1_555
Fe0 O23 1.991790 1_555
Fe0 O22 1.991790 1_554
Fe0 O2 2.042614 1_654
Fe0 O3 2.042614 1_554
Fe0 O9 2.071026 1_655
Fe0 O8 2.071034 1_555
Fe1 O21 1.991790 1_555
Fe1 O20 1.991790 1_556
Fe1 O0 2.042614 1_566
Fe1 O1 2.042614 1_556
Fe1 O10 2.071026 1_555
Fe1 O11 2.071026 1_555
Fe2 O16 1.991790 1_555
Fe2 O19 1.991790 1_555
Fe2 O6 2.042614 1_555
Fe2 O5 2.042614 1_555
Fe2 O12 2.071026 1_555
Fe2 O15 2.071026 1_555
Fe3 O18 1.991790 1_555
Fe3 O17 1.991790 1_555
Fe3 O4 2.042614 1_445
Fe3 O7 2.042614 1_555
Fe3 O14 2.071026 1_555
Fe3 O13 2.071034 1_545
H0 P0 1.404010 1_555
H1 P1 1.404010 1_555
H2 P2 1.404010 1_655
H3 P3 1.404010 1_555
H4 P4 1.404010 1_545
H5 P5 1.404010 1_555
H6 P6 1.404010 1_555
H7 P7 1.404010 1_555
O0 P0 1.545673 1_555
O1 P1 1.545673 1_555
O2 P2 1.545673 1_555
O3 P3 1.545673 1_545
O4 P4 1.545673 1_555
O5 P5 1.545673 1_655
O6 P6 1.545673 1_555
O7 P7 1.545673 1_555
O8 P0 1.549930 1_555
O9 P1 1.549932 1_555
O10 P2 1.549934 1_555
O11 P3 1.549934 1_555
O12 P4 1.549934 1_555
O13 P5 1.549930 1_555
O14 P6 1.549932 1_555
O15 P7 1.549934 1_555
O16 P0 1.528771 1_555
O17 P1 1.528771 1_545
O18 P2 1.528771 1_555
O19 P3 1.528771 1_555
O20 P4 1.528771 1_555
O21 P5 1.528771 1_555
O22 P6 1.528771 1_555
O23 P7 1.528771 1_655
