# generated using pymatgen
data_Na3CrO6
_symmetry_space_group_name_H-M   'P 1'
_cell_length_a   8.11044249
_cell_length_b   8.23092648
_cell_length_c   32.48920564
_cell_angle_alpha   90.00000000
_cell_angle_beta   90.00000000
_cell_angle_gamma   119.51695246
_symmetry_Int_Tables_number   1
_chemical_formula_structural   Na3CrO6
_chemical_formula_sum   'Na3 Cr1 O6'
_cell_volume   1887.36725153
_cell_formula_units_Z   1
loop_
 _symmetry_equiv_pos_site_id
 _symmetry_equiv_pos_as_xyz
  1  'x, y, z'
loop_
 _atom_site_type_symbol
 _atom_site_label
 _atom_site_symmetry_multiplicity
 _atom_site_fract_x
 _atom_site_fract_y
 _atom_site_fract_z
 _atom_site_occupancy
  Na  Na0  1  -0.00000000  -0.00000000  0.50000000  1
  Na  Na1  1  0.50000000  0.50000000  0.00000000  1
  Na  Na2  1  -0.00000000  0.50000000  0.00000000  1
  Cr  Cr0  1  -0.00000000  -0.00000000  0.00000000  1
  O  O0  1  -0.00000000  -0.00000000  0.76977173  1
  O  O1  1  -0.00000000  -0.00000000  0.23022827  1
  O  O2  1  0.77963997  0.74429187  0.00000000  1
  O  O3  1  0.22036003  0.25570813  0.00000000  1
  O  O4  1  0.03534810  0.25570813  0.00000000  1
  O  O5  1  0.96465190  0.74429187  0.00000000  1
loop_
_geom_bond_atom_site_label_1
_geom_bond_atom_site_label_2
_geom_bond_distance
_geom_bond_site_symmetry_2
Na1 O3 2.166407 1_555
Na1 O2 2.166407 1_555
Na2 O5 2.166407 1_455
Na2 O4 2.166407 1_555
Cr0 O3 1.979255 1_555
Cr0 O2 1.979255 1_445
Cr0 O4 1.979255 1_555
Cr0 O5 1.979255 1_445
O2 O5 1.500529 1_555
O3 O4 1.500529 1_555
