# generated using pymatgen
data_NdMgAg
_symmetry_space_group_name_H-M   'P 1'
_cell_length_a   7.79917527
_cell_length_b   7.79917718
_cell_length_c   4.27546697
_cell_angle_alpha   90.00000000
_cell_angle_beta   90.00000000
_cell_angle_gamma   120.00000777
_symmetry_Int_Tables_number   1
_chemical_formula_structural   NdMgAg
_chemical_formula_sum   'Nd3 Mg3 Ag3'
_cell_volume   225.22241990
_cell_formula_units_Z   3
loop_
 _symmetry_equiv_pos_site_id
 _symmetry_equiv_pos_as_xyz
  1  'x, y, z'
loop_
 _atom_site_type_symbol
 _atom_site_label
 _atom_site_symmetry_multiplicity
 _atom_site_fract_x
 _atom_site_fract_y
 _atom_site_fract_z
 _atom_site_occupancy
  Nd  Nd0  1  0.58490991  0.00000000  0.00000000  1
  Nd  Nd1  1  -0.00000000  0.58490991  0.00000000  1
  Nd  Nd2  1  0.41509009  0.41509009  -0.00000000  1
  Mg  Mg0  1  0.23900383  0.00000000  0.50000000  1
  Mg  Mg1  1  -0.00000000  0.23900383  0.50000000  1
  Mg  Mg2  1  0.76099617  0.76099617  0.50000000  1
  Ag  Ag0  1  0.33333300  0.66666700  0.50000000  1
  Ag  Ag1  1  0.66666700  0.33333300  0.50000000  1
  Ag  Ag2  1  0.00000000  -0.00000000  -0.00000000  1
loop_
_geom_bond_atom_site_label_1
_geom_bond_atom_site_label_2
_geom_bond_distance
_geom_bond_site_symmetry_2
Mg0 Mg2 3.228599 1_445
Mg0 Mg1 3.228600 1_555
Mg0 Nd0 3.442083 1_556
Mg0 Nd0 3.442083 1_555
Mg0 Nd1 3.534187 1_545
Mg0 Nd1 3.534187 1_546
Mg0 Nd2 3.534188 1_555
Mg0 Nd2 3.534188 1_556
Mg1 Mg2 3.228600 1_445
Mg1 Nd1 3.442083 1_556
Mg1 Nd1 3.442083 1_555
Mg1 Nd2 3.534187 1_556
Mg1 Nd2 3.534187 1_555
Mg1 Nd0 3.534187 1_456
Mg1 Nd0 3.534187 1_455
Mg2 Nd2 3.442083 1_555
Mg2 Nd2 3.442083 1_556
Mg2 Nd1 3.534187 1_655
Mg2 Nd1 3.534187 1_656
Mg2 Nd0 3.534188 1_565
Mg2 Nd0 3.534188 1_566
Ag0 Mg0 3.035192 1_565
Ag0 Mg1 3.035197 1_555
Ag0 Mg2 3.035199 1_555
Ag0 Nd1 3.174486 1_555
Ag0 Nd1 3.174486 1_556
Ag0 Nd0 3.174488 1_565
Ag0 Nd0 3.174488 1_566
Ag0 Nd2 3.174492 1_555
Ag0 Nd2 3.174492 1_556
Ag1 Mg1 3.035191 1_655
Ag1 Mg0 3.035196 1_555
Ag1 Mg2 3.035200 1_555
Ag1 Nd0 3.174486 1_555
Ag1 Nd0 3.174486 1_556
Ag1 Nd1 3.174488 1_656
Ag1 Nd1 3.174488 1_655
Ag1 Nd2 3.174492 1_555
Ag1 Nd2 3.174492 1_556
Ag2 Mg0 2.836287 1_555
Ag2 Mg0 2.836287 1_554
Ag2 Mg2 2.836287 1_445
Ag2 Mg2 2.836287 1_444
Ag2 Mg1 2.836287 1_555
Ag2 Mg1 2.836287 1_554
Ag2 Nd0 3.237360 1_455
Ag2 Nd2 3.237360 1_555
Ag2 Nd1 3.237361 1_545
