# generated using pymatgen
data_La2Bi2S4OF
_symmetry_space_group_name_H-M   'P 1'
_cell_length_a   4.10957700
_cell_length_b   4.10957700
_cell_length_c   13.15013600
_cell_angle_alpha   90.00000000
_cell_angle_beta   90.00000000
_cell_angle_gamma   90.00000000
_symmetry_Int_Tables_number   1
_chemical_formula_structural   La2Bi2S4OF
_chemical_formula_sum   'La2 Bi2 S4 O1 F1'
_cell_volume   222.08769087
_cell_formula_units_Z   1
loop_
 _symmetry_equiv_pos_site_id
 _symmetry_equiv_pos_as_xyz
  1  'x, y, z'
loop_
 _atom_site_type_symbol
 _atom_site_label
 _atom_site_symmetry_multiplicity
 _atom_site_fract_x
 _atom_site_fract_y
 _atom_site_fract_z
 _atom_site_occupancy
  La  La0  1  0.50000000  0.00000000  0.10603400  1
  La  La1  1  0.00000000  0.50000000  0.89396600  1
  Bi  Bi0  1  0.50000000  0.00000000  0.61649300  1
  Bi  Bi1  1  0.00000000  0.50000000  0.38350700  1
  S  S0  1  0.50000000  0.00000000  0.37810700  1
  S  S1  1  0.00000000  0.50000000  0.62189300  1
  S  S2  1  0.50000000  0.00000000  0.81665300  1
  S  S3  1  0.00000000  0.50000000  0.18334700  1
  O  O0  1  0.50000000  0.50000000  0.00000000  1
  F  F0  1  0.00000000  0.00000000  0.00000000  1
loop_
_geom_bond_atom_site_label_1
_geom_bond_atom_site_label_2
_geom_bond_distance
_geom_bond_site_symmetry_2
La0 O0 2.483224 1_545
La0 O0 2.483224 1_555
La0 S3 3.078627 1_655
La0 S3 3.078627 1_645
La0 S3 3.078627 1_555
La0 S3 3.078627 1_545
La0 S0 3.577797 1_555
La1 O0 2.483224 1_556
La1 O0 2.483224 1_456
La1 S2 3.078627 1_455
La1 S2 3.078627 1_555
La1 S2 3.078627 1_465
La1 S2 3.078627 1_565
La1 S1 3.577797 1_555
Bi0 S2 2.632131 1_555
Bi0 S1 2.906777 1_655
Bi0 S1 2.906777 1_645
Bi0 S1 2.906777 1_555
Bi0 S1 2.906777 1_545
Bi0 S0 3.134808 1_555
Bi1 S3 2.632131 1_555
Bi1 S0 2.906777 1_455
Bi1 S0 2.906777 1_465
Bi1 S0 2.906777 1_555
Bi1 S0 2.906777 1_565
Bi1 S1 3.134808 1_555
F0 La1 2.483224 1_554
F0 La1 2.483224 1_544
F0 La0 2.483224 1_555
F0 La0 2.483224 1_455
