# generated using pymatgen
data_Mg14CdSb
_symmetry_space_group_name_H-M   'P 1'
_cell_length_a   6.37737264
_cell_length_b   6.37737212
_cell_length_c   10.35865045
_cell_angle_alpha   90.00000000
_cell_angle_beta   90.00000000
_cell_angle_gamma   120.00000268
_symmetry_Int_Tables_number   1
_chemical_formula_structural   Mg14CdSb
_chemical_formula_sum   'Mg14 Cd1 Sb1'
_cell_volume   364.85252107
_cell_formula_units_Z   1
loop_
 _symmetry_equiv_pos_site_id
 _symmetry_equiv_pos_as_xyz
  1  'x, y, z'
loop_
 _atom_site_type_symbol
 _atom_site_label
 _atom_site_symmetry_multiplicity
 _atom_site_fract_x
 _atom_site_fract_y
 _atom_site_fract_z
 _atom_site_occupancy
  Mg  Mg0  1  0.16649651  0.83324776  0.12500000  1
  Mg  Mg1  1  0.16566484  0.83283192  0.62500000  1
  Mg  Mg2  1  0.66675224  0.33350349  0.12500000  1
  Mg  Mg3  1  0.66716808  0.33433516  0.62500000  1
  Mg  Mg4  1  0.66675224  0.83324776  0.12500000  1
  Mg  Mg5  1  0.66716808  0.83283192  0.62500000  1
  Mg  Mg6  1  0.33519098  0.16480902  0.37123399  1
  Mg  Mg7  1  0.33519098  0.16480902  0.87876601  1
  Mg  Mg8  1  0.33519098  0.67038296  0.37123399  1
  Mg  Mg9  1  0.33519098  0.67038296  0.87876601  1
  Mg  Mg10  1  0.82961704  0.16480902  0.37123399  1
  Mg  Mg11  1  0.82961704  0.16480902  0.87876601  1
  Mg  Mg12  1  0.83333300  0.66666700  0.37480750  1
  Mg  Mg13  1  0.83333300  0.66666700  0.87519250  1
  Cd  Cd0  1  0.16666700  0.33333300  0.12500000  1
  Sb  Sb0  1  0.16666700  0.33333300  0.62500000  1
loop_
_geom_bond_atom_site_label_1
_geom_bond_atom_site_label_2
_geom_bond_distance
_geom_bond_site_symmetry_2
Mg0 Mg8 3.139973 1_555
Mg0 Mg9 3.139973 1_554
Mg0 Mg7 3.139979 1_564
Mg0 Mg6 3.139979 1_565
Mg0 Mg12 3.175188 1_455
Mg0 Mg13 3.175188 1_454
Mg0 Mg2 3.187055 1_455
Mg0 Mg4 3.187055 1_455
Mg0 Mg2 3.190317 1_565
Mg0 Mg4 3.190317 1_555
Mg1 Mg13 3.175782 1_455
Mg1 Mg12 3.175782 1_455
Mg1 Mg3 3.179099 1_455
Mg1 Mg5 3.179100 1_455
Mg1 Sb0 3.188691 1_565
Mg1 Sb0 3.188691 1_555
Mg1 Mg3 3.198273 1_565
Mg1 Mg5 3.198273 1_555
Mg1 Mg8 3.205013 1_555
Mg1 Mg9 3.205013 1_555
Mg1 Mg7 3.205019 1_565
Mg1 Mg6 3.205019 1_565
Mg2 Mg6 3.139979 1_555
Mg2 Mg7 3.139979 1_554
Mg2 Mg4 3.187055 1_555
Mg2 Mg4 3.190317 1_545
Mg3 Mg5 3.179099 1_555
Mg3 Sb0 3.188691 1_655
Mg3 Sb0 3.188691 1_555
Mg3 Mg5 3.198273 1_545
Mg3 Mg7 3.205019 1_555
Mg3 Mg6 3.205019 1_555
Mg4 Mg9 3.139979 1_554
Mg4 Mg8 3.139979 1_555
Mg5 Sb0 3.188691 1_665
Mg5 Sb0 3.188691 1_555
Mg5 Mg8 3.205019 1_555
Mg5 Mg9 3.205019 1_555
Mg6 Mg8 3.153139 1_545
Mg6 Sb0 3.221044 1_555
Mg6 Mg8 3.224233 1_555
Mg7 Mg9 3.153139 1_545
Mg7 Sb0 3.221044 1_555
Mg7 Mg9 3.224233 1_555
Mg8 Sb0 3.221050 1_555
Mg9 Sb0 3.221050 1_555
Mg10 Mg2 3.139973 1_555
Mg10 Mg4 3.139979 1_545
Mg10 Mg8 3.153139 1_545
Mg10 Mg6 3.153139 1_555
Mg10 Mg12 3.188967 1_555
Mg10 Mg12 3.188967 1_545
Mg10 Mg3 3.205013 1_555
Mg10 Mg5 3.205019 1_545
Mg10 Sb0 3.221050 1_655
Mg10 Mg8 3.224233 1_655
Mg10 Mg6 3.224233 1_655
Mg11 Mg2 3.139973 1_556
Mg11 Mg4 3.139979 1_546
Mg11 Mg9 3.153139 1_545
Mg11 Mg7 3.153139 1_555
Mg11 Mg13 3.188967 1_555
Mg11 Mg13 3.188967 1_545
Mg11 Mg3 3.205013 1_555
Mg11 Mg5 3.205019 1_545
Mg11 Sb0 3.221050 1_655
Mg11 Mg9 3.224233 1_655
Mg11 Mg7 3.224233 1_655
Mg12 Mg4 3.175181 1_555
Mg12 Mg2 3.175187 1_555
Mg12 Mg5 3.175775 1_555
Mg12 Mg3 3.175782 1_555
Mg12 Mg6 3.188967 1_555
Mg12 Mg6 3.188967 1_665
Mg12 Mg8 3.188967 1_555
Mg12 Mg8 3.188967 1_655
Mg13 Mg4 3.175181 1_556
Mg13 Mg2 3.175187 1_556
Mg13 Mg5 3.175775 1_555
Mg13 Mg3 3.175782 1_555
Mg13 Mg7 3.188967 1_555
Mg13 Mg7 3.188967 1_665
Mg13 Mg9 3.188967 1_555
Mg13 Mg9 3.188967 1_655
Cd0 Mg7 3.157693 1_554
Cd0 Mg6 3.157693 1_555
Cd0 Mg9 3.157699 1_554
Cd0 Mg8 3.157699 1_555
Cd0 Mg11 3.157699 1_454
Cd0 Mg10 3.157699 1_455
Cd0 Mg0 3.188686 1_545
Cd0 Mg4 3.188686 1_445
Cd0 Mg4 3.188686 1_555
Cd0 Mg0 3.188686 1_555
Cd0 Mg2 3.188686 1_555
Cd0 Mg2 3.188686 1_455
