# generated using pymatgen
data_Te4MoW3S4
_symmetry_space_group_name_H-M   'P 1'
_cell_length_a   3.36090962
_cell_length_b   3.36090962
_cell_length_c   38.34242900
_cell_angle_alpha   90.00000000
_cell_angle_beta   90.00000000
_cell_angle_gamma   119.99999250
_symmetry_Int_Tables_number   1
_chemical_formula_structural   Te4MoW3S4
_chemical_formula_sum   'Te4 Mo1 W3 S4'
_cell_volume   375.08004021
_cell_formula_units_Z   1
loop_
 _symmetry_equiv_pos_site_id
 _symmetry_equiv_pos_as_xyz
  1  'x, y, z'
loop_
 _atom_site_type_symbol
 _atom_site_label
 _atom_site_symmetry_multiplicity
 _atom_site_fract_x
 _atom_site_fract_y
 _atom_site_fract_z
 _atom_site_occupancy
  Te  Te0  1  0.33333300  0.66666700  0.70712400  1
  Te  Te1  1  0.66666700  0.33333300  0.04436700  1
  Te  Te2  1  0.66666700  0.33333300  0.14350100  1
  Te  Te3  1  0.33333300  0.66666700  0.60797200  1
  Mo  Mo0  1  0.66666700  0.33333300  0.28179100  1
  W  W0  1  0.33333300  0.66666700  0.09390800  1
  W  W1  1  0.33333300  0.66666700  0.46964400  1
  W  W2  1  0.66666700  0.33333300  0.65757200  1
  S  S0  1  0.33333300  0.66666700  0.32123200  1
  S  S1  1  0.66666700  0.33333300  0.43005900  1
  S  S2  1  0.66666700  0.33333300  0.50922700  1
  S  S3  1  0.33333300  0.66666700  0.24235200  1
loop_
_geom_bond_atom_site_label_1
_geom_bond_atom_site_label_2
_geom_bond_distance
_geom_bond_site_symmetry_2
Te0 W2 2.715698 1_455
Te0 W2 2.715698 1_565
Te0 W2 2.715702 1_555
Te1 W0 2.715403 1_545
Te1 W0 2.715403 1_655
Te1 W0 2.715407 1_555
Te2 W0 2.716799 1_655
Te2 W0 2.716799 1_545
Te2 W0 2.716803 1_555
Te3 W2 2.716986 1_565
Te3 W2 2.716986 1_455
Te3 W2 2.716990 1_555
Mo0 S3 2.460069 1_545
Mo0 S3 2.460069 1_655
Mo0 S3 2.460074 1_555
Mo0 S0 2.460116 1_545
Mo0 S0 2.460116 1_655
Mo0 S0 2.460121 1_555
S1 W1 2.463514 1_545
S1 W1 2.463514 1_655
S1 W1 2.463519 1_555
S2 W1 2.463467 1_545
S2 W1 2.463467 1_655
S2 W1 2.463471 1_555
