# generated using pymatgen
data_Yb4Mn3
_symmetry_space_group_name_H-M   'P 1'
_cell_length_a   12.39107772
_cell_length_b   12.39107772
_cell_length_c   4.16308800
_cell_angle_alpha   90.00000000
_cell_angle_beta   90.00000000
_cell_angle_gamma   119.99999848
_symmetry_Int_Tables_number   1
_chemical_formula_structural   Yb4Mn3
_chemical_formula_sum   'Yb12 Mn9'
_cell_volume   553.55960555
_cell_formula_units_Z   3
loop_
 _symmetry_equiv_pos_site_id
 _symmetry_equiv_pos_as_xyz
  1  'x, y, z'
loop_
 _atom_site_type_symbol
 _atom_site_label
 _atom_site_symmetry_multiplicity
 _atom_site_fract_x
 _atom_site_fract_y
 _atom_site_fract_z
 _atom_site_occupancy
  Yb  Yb0  1  0.51870200  0.37927500  0.25073300  1
  Yb  Yb1  1  0.86057300  0.48129800  0.25073300  1
  Yb  Yb2  1  0.62072500  0.13942700  0.25073300  1
  Yb  Yb3  1  0.48129800  0.62072500  0.74926700  1
  Yb  Yb4  1  0.13942700  0.51870200  0.74926700  1
  Yb  Yb5  1  0.37927500  0.86057300  0.74926700  1
  Yb  Yb6  1  0.98611300  0.23035200  0.24175000  1
  Yb  Yb7  1  0.24423900  0.01388700  0.24175000  1
  Yb  Yb8  1  0.76964800  0.75576100  0.24175000  1
  Yb  Yb9  1  0.01388700  0.76964800  0.75825000  1
  Yb  Yb10  1  0.75576100  0.98611300  0.75825000  1
  Yb  Yb11  1  0.23035200  0.24423900  0.75825000  1
  Mn  Mn0  1  0.33333300  0.66666700  0.24931900  1
  Mn  Mn1  1  0.66666700  0.33333300  0.75068100  1
  Mn  Mn2  1  0.16687900  0.71826400  0.25188400  1
  Mn  Mn3  1  0.55138500  0.83312100  0.25188400  1
  Mn  Mn4  1  0.28173600  0.44861500  0.25188400  1
  Mn  Mn5  1  0.83312100  0.28173600  0.74811600  1
  Mn  Mn6  1  0.44861500  0.16687900  0.74811600  1
  Mn  Mn7  1  0.71826400  0.55138500  0.74811600  1
  Mn  Mn8  1  0.00000000  0.00000000  0.50000000  1
loop_
_geom_bond_atom_site_label_1
_geom_bond_atom_site_label_2
_geom_bond_distance
_geom_bond_site_symmetry_2
Mn0 Mn2 2.445738 1_555
Mn0 Mn3 2.445747 1_555
Mn0 Mn4 2.445750 1_555
Mn0 Yb5 3.010181 1_555
Mn0 Yb4 3.010184 1_555
Mn0 Yb3 3.010190 1_555
Mn0 Yb5 3.010481 1_554
Mn0 Yb4 3.010483 1_554
Mn0 Yb3 3.010489 1_554
Mn1 Mn5 2.445738 1_555
Mn1 Mn6 2.445747 1_555
Mn1 Mn7 2.445750 1_555
Mn1 Yb2 3.010181 1_555
Mn1 Yb1 3.010184 1_555
Mn1 Yb0 3.010190 1_555
Mn1 Yb2 3.010481 1_556
Mn1 Yb1 3.010483 1_556
Mn1 Yb0 3.010489 1_556
Mn2 Yb9 3.070736 1_554
Mn2 Yb9 3.106459 1_555
Mn2 Yb4 3.110761 1_555
Mn2 Yb5 3.111694 1_555
Mn2 Yb4 3.125308 1_554
Mn2 Yb5 3.126236 1_554
Mn2 Yb7 3.290519 1_565
Mn2 Yb1 3.447132 1_455
Mn3 Yb10 3.070737 1_554
Mn3 Yb10 3.106459 1_555
Mn3 Yb5 3.110761 1_555
Mn3 Yb3 3.111694 1_555
Mn3 Yb5 3.125308 1_554
Mn3 Yb3 3.126236 1_554
Mn3 Yb8 3.290519 1_555
Mn3 Yb2 3.447132 1_565
Mn4 Yb11 3.070737 1_554
Mn4 Yb11 3.106459 1_555
Mn4 Yb3 3.110761 1_555
Mn4 Yb4 3.111694 1_555
Mn4 Yb3 3.125308 1_554
Mn4 Yb4 3.126236 1_554
Mn4 Yb6 3.290519 1_455
Mn4 Yb0 3.447132 1_555
Mn5 Yb6 3.070736 1_556
Mn5 Yb6 3.106459 1_555
Mn5 Yb1 3.110761 1_555
Mn5 Yb2 3.111694 1_555
Mn5 Yb1 3.125308 1_556
Mn5 Yb2 3.126236 1_556
Mn5 Yb10 3.290519 1_545
Mn5 Yb4 3.447132 1_655
Mn6 Yb7 3.070737 1_556
Mn6 Yb7 3.106459 1_555
Mn6 Yb2 3.110761 1_555
Mn6 Yb0 3.111694 1_555
Mn6 Yb2 3.125308 1_556
Mn6 Yb0 3.126236 1_556
Mn6 Yb11 3.290519 1_555
Mn6 Yb5 3.447132 1_545
Mn7 Yb8 3.070737 1_556
Mn7 Yb8 3.106459 1_555
Mn7 Yb0 3.110761 1_555
Mn7 Yb1 3.111694 1_555
Mn7 Yb0 3.125308 1_556
Mn7 Yb1 3.126236 1_556
Mn7 Yb9 3.290519 1_655
Mn7 Yb3 3.447132 1_555
Mn8 Yb9 3.134282 1_545
Mn8 Yb6 3.134282 1_455
Mn8 Yb10 3.134282 1_445
Mn8 Yb7 3.134282 1_555
Mn8 Yb8 3.134282 1_445
Mn8 Yb11 3.134282 1_555
