# generated using pymatgen
data_Li5Mn2CoO8
_symmetry_space_group_name_H-M   'P 1'
_cell_length_a   5.76974807
_cell_length_b   6.49779168
_cell_length_c   7.80521420
_cell_angle_alpha   94.22163292
_cell_angle_beta   99.86833171
_cell_angle_gamma   77.20872754
_symmetry_Int_Tables_number   1
_chemical_formula_structural   Li5Mn2CoO8
_chemical_formula_sum   'Li10 Mn4 Co2 O16'
_cell_volume   280.94438002
_cell_formula_units_Z   2
loop_
 _symmetry_equiv_pos_site_id
 _symmetry_equiv_pos_as_xyz
  1  'x, y, z'
loop_
 _atom_site_type_symbol
 _atom_site_label
 _atom_site_symmetry_multiplicity
 _atom_site_fract_x
 _atom_site_fract_y
 _atom_site_fract_z
 _atom_site_occupancy
  Li  Li0  1  0.87595000  0.75015500  0.24966600  1
  Li  Li1  1  0.37405000  0.74983800  0.25033300  1
  Li  Li2  1  0.06753400  0.10770500  0.37488300  1
  Li  Li3  1  0.56517100  0.10583000  0.37082800  1
  Li  Li4  1  0.18246600  0.39229300  0.12511500  1
  Li  Li5  1  0.68482700  0.39417200  0.12917300  1
  Li  Li6  1  0.82222900  0.62909100  0.88795200  1
  Li  Li7  1  0.31918300  0.62977400  0.88797600  1
  Li  Li8  1  0.93081800  0.87022500  0.61202300  1
  Li  Li9  1  0.42776900  0.87090400  0.61204800  1
  Mn  Mn0  1  0.50726300  0.98592500  0.00594600  1
  Mn  Mn1  1  0.74275900  0.51408700  0.49406400  1
  Mn  Mn2  1  0.00893800  0.98830500  0.00605300  1
  Mn  Mn3  1  0.24106200  0.51169000  0.49393600  1
  Co  Co0  1  0.62500100  0.25000100  0.74999500  1
  Co  Co1  1  0.12499800  0.24999200  0.74999900  1
  O  O0  1  0.27895000  0.05957700  0.16596600  1
  O  O1  1  0.77539500  0.06369900  0.16407500  1
  O  O2  1  0.97104400  0.44042000  0.33403400  1
  O  O3  1  0.47461100  0.43630200  0.33593400  1
  O  O4  1  0.02034300  0.55595900  0.66520700  1
  O  O5  1  0.52160000  0.55215400  0.66651700  1
  O  O6  1  0.72839400  0.94784300  0.83347800  1
  O  O7  1  0.22966000  0.94404200  0.83479900  1
  O  O8  1  0.65890100  0.79340600  0.44438000  1
  O  O9  1  0.16062300  0.79118600  0.44380900  1
  O  O10  1  0.08936900  0.70881300  0.05618700  1
  O  O11  1  0.59109400  0.70662000  0.05561900  1
  O  O12  1  0.91992500  0.29401000  0.92461200  1
  O  O13  1  0.40621000  0.29404600  0.92007800  1
  O  O14  1  0.33007300  0.20598500  0.57538600  1
  O  O15  1  0.84379000  0.20595100  0.57992800  1
loop_
_geom_bond_atom_site_label_1
_geom_bond_atom_site_label_2
_geom_bond_distance
_geom_bond_site_symmetry_2
Li0 O10 2.073688 1_655
Li0 O9 2.084797 1_655
Li0 O11 2.089201 1_555
Li0 O2 2.089863 1_555
Li0 O8 2.095394 1_555
Li0 O1 2.116083 1_565
Li1 O9 2.073698 1_555
Li1 O10 2.084833 1_555
Li1 O8 2.089236 1_555
Li1 O0 2.089884 1_565
Li1 O11 2.095385 1_555
Li1 O3 2.116062 1_555
Li2 O9 2.093451 1_545
Li2 O2 2.143165 1_455
Li2 O14 2.149453 1_555
Li2 O0 2.163920 1_555
Li2 O1 2.196304 1_455
Li2 O15 2.197330 1_455
Li3 O8 2.079002 1_545
Li3 O3 2.121028 1_555
Li3 O1 2.146908 1_555
Li3 O0 2.148999 1_555
Li3 O14 2.238565 1_555
Li3 O15 2.253575 1_555
Li4 O10 2.093461 1_555
Li4 O0 2.143174 1_555
Li4 O12 2.149468 1_454
Li4 O2 2.163956 1_455
Li4 O3 2.196384 1_555
Li4 O13 2.197280 1_554
Li5 O11 2.079153 1_555
Li5 O1 2.121044 1_555
Li5 O3 2.146930 1_555
Li5 O2 2.148970 1_555
Li5 O12 2.238588 1_554
Li5 O13 2.253558 1_554
Li6 O10 1.981907 1_656
Li6 O11 1.987096 1_556
Li6 O6 2.077960 1_555
Li6 O12 2.152483 1_555
Li6 O4 2.207732 1_655
Li6 O5 2.339861 1_555
Li7 O10 1.985354 1_556
Li7 O11 1.992442 1_556
Li7 O7 2.047750 1_555
Li7 O13 2.150844 1_555
Li7 O5 2.215620 1_555
Li7 O4 2.332829 1_555
Li8 O9 1.985334 1_655
Li8 O8 1.992401 1_555
Li8 O4 2.047751 1_655
Li8 O15 2.150823 1_565
Li8 O6 2.215618 1_555
Li8 O7 2.332873 1_655
Li9 O9 1.981938 1_555
Li9 O8 1.987078 1_555
Li9 O5 2.077939 1_555
Li9 O14 2.152485 1_565
Li9 O7 2.207757 1_555
Li9 O6 2.339826 1_555
Mn0 O11 1.824452 1_555
Mn0 O0 1.929019 1_565
Mn0 O1 1.942153 1_565
Mn0 O7 1.957056 1_554
Mn0 O6 1.975111 1_554
Mn0 O13 2.084296 1_564
Mn1 O8 1.824560 1_555
Mn1 O2 1.928963 1_555
Mn1 O3 1.942253 1_555
Mn1 O4 1.956940 1_655
Mn1 O5 1.975145 1_555
Mn1 O15 2.084374 1_555
Mn2 O10 1.826425 1_555
Mn2 O1 1.940460 1_465
Mn2 O0 1.940946 1_565
Mn2 O7 1.963656 1_554
Mn2 O6 1.972951 1_454
Mn2 O12 2.058134 1_464
Mn3 O9 1.826436 1_555
Mn3 O3 1.940369 1_555
Mn3 O2 1.940925 1_455
Mn3 O4 1.963745 1_555
Mn3 O5 1.972954 1_555
Mn3 O14 2.058158 1_555
Co0 O15 1.948313 1_555
Co0 O13 1.948420 1_555
Co0 O5 2.042439 1_555
Co0 O6 2.042481 1_545
Co0 O14 2.048909 1_555
Co0 O12 2.048911 1_555
Co1 O12 1.919582 1_455
Co1 O14 1.919593 1_555
Co1 O15 1.971780 1_455
Co1 O13 1.971853 1_555
Co1 O7 2.068825 1_545
Co1 O4 2.068904 1_555
