# generated using pymatgen
data_Li4MnCo2O7
_symmetry_space_group_name_H-M   'P 1'
_cell_length_a   3.02143700
_cell_length_b   9.74026187
_cell_length_c   9.82088260
_cell_angle_alpha   116.45276796
_cell_angle_beta   93.96948321
_cell_angle_gamma   96.23680483
_symmetry_Int_Tables_number   1
_chemical_formula_structural   Li4MnCo2O7
_chemical_formula_sum   'Li8 Mn2 Co4 O14'
_cell_volume   254.97647849
_cell_formula_units_Z   2
loop_
 _symmetry_equiv_pos_site_id
 _symmetry_equiv_pos_as_xyz
  1  'x, y, z'
loop_
 _atom_site_type_symbol
 _atom_site_label
 _atom_site_symmetry_multiplicity
 _atom_site_fract_x
 _atom_site_fract_y
 _atom_site_fract_z
 _atom_site_occupancy
  Li  Li0  1  0.92513500  0.85254300  0.21565200  1
  Li  Li1  1  0.22098200  0.43128400  0.35874200  1
  Li  Li2  1  0.50342300  0.99774900  0.49761000  1
  Li  Li3  1  0.78475500  0.57009900  0.64272100  1
  Li  Li4  1  0.07239500  0.14778400  0.78751400  1
  Li  Li5  1  0.34790100  0.70793400  0.92555600  1
  Li  Li6  1  0.64564200  0.29358300  0.07148600  1
  Li  Li7  1  0.28551000  0.57157600  0.14181500  1
  Mn  Mn0  1  0.99873500  0.00056200  0.00274000  1
  Mn  Mn1  1  0.42993000  0.85505600  0.71009400  1
  Co  Co0  1  0.56702900  0.14512000  0.28873400  1
  Co  Co1  1  0.86122100  0.70768400  0.41396200  1
  Co  Co2  1  0.14516900  0.28797900  0.57284600  1
  Co  Co3  1  0.71680400  0.43263000  0.86843400  1
  O  O0  1  0.44401200  0.94122500  0.11461700  1
  O  O1  1  0.75545900  0.51874400  0.26775500  1
  O  O2  1  0.00143300  0.08473000  0.39722200  1
  O  O3  1  0.30200600  0.65262100  0.53495500  1
  O  O4  1  0.62896400  0.23299000  0.68869300  1
  O  O5  1  0.86962600  0.79516500  0.82367800  1
  O  O6  1  0.16289500  0.36406600  0.95705900  1
  O  O7  1  0.41385000  0.77852200  0.32814400  1
  O  O8  1  0.64964900  0.34390000  0.46340400  1
  O  O9  1  0.98131400  0.91012800  0.59475300  1
  O  O10  1  0.27264000  0.48709600  0.74763300  1
  O  O11  1  0.56113000  0.06085500  0.88861000  1
  O  O12  1  0.81435000  0.62268200  0.01537900  1
  O  O13  1  0.13804100  0.20569600  0.18019400  1
loop_
_geom_bond_atom_site_label_1
_geom_bond_atom_site_label_2
_geom_bond_distance
_geom_bond_site_symmetry_2
Li0 O2 2.141137 1_665
Li0 O7 2.153101 1_655
Li0 O0 2.163472 1_555
Li0 O12 2.194545 1_555
Li0 O7 2.197889 1_555
Li0 O0 2.207552 1_655
Li1 O3 2.050696 1_555
Li1 O1 2.065689 1_455
Li1 O8 2.071986 1_555
Li1 O13 2.086261 1_555
Li1 O1 2.170509 1_555
Li1 O8 2.338109 1_455
Li2 O7 2.012132 1_555
Li2 O9 2.127413 1_555
Li2 O2 2.150925 1_665
Li2 O9 2.183659 1_455
Li2 O4 2.190292 1_565
Li2 O2 2.192391 1_565
Li3 O8 2.090566 1_555
Li3 O5 2.091324 1_555
Li3 O10 2.163101 1_655
Li3 O3 2.166241 1_555
Li3 O10 2.190995 1_555
Li3 O3 2.218699 1_655
Li4 O6 1.992964 1_555
Li4 O4 2.050585 1_455
Li4 O11 2.168157 1_555
Li4 O11 2.183130 1_455
Li4 O9 2.214326 1_445
Li4 O4 2.258072 1_555
Li5 O12 2.046634 1_556
Li5 O10 2.054740 1_555
Li5 O12 2.150622 1_456
Li5 O5 2.152950 1_455
Li5 O0 2.172173 1_556
Li5 O5 2.211925 1_555
Li6 O6 2.130643 1_554
Li6 O11 2.147778 1_554
Li6 O1 2.149982 1_555
Li6 O6 2.207726 1_654
Li6 O13 2.226442 1_655
Li6 O13 2.231691 1_555
Li7 O6 1.997916 1_554
Li7 O7 2.001934 1_555
Li7 O12 2.067883 1_455
Li7 O1 2.072058 1_555
Li7 O12 2.235028 1_555
Li7 O1 2.240908 1_455
Mn0 O13 1.954485 1_655
Mn0 O5 1.961677 1_544
Mn0 O0 1.970108 1_645
Mn0 O11 1.974685 1_554
Mn0 O0 2.227255 1_545
Mn0 O11 2.263171 1_654
Mn1 O3 1.927839 1_555
Mn1 O11 1.961915 1_565
Mn1 O5 1.972952 1_555
Mn1 O9 1.973550 1_455
Mn1 O9 2.225933 1_555
Mn1 O5 2.253275 1_455
Co0 O8 1.905353 1_555
Co0 O13 1.923446 1_555
Co0 O0 1.931941 1_545
Co0 O2 1.932972 1_655
Co0 O2 2.234633 1_555
Co0 O13 2.248279 1_655
Co1 O1 1.733528 1_555
Co1 O7 1.891165 1_555
Co1 O9 1.951547 1_555
Co1 O3 1.994287 1_655
Co1 O7 2.106422 1_655
Co1 O3 2.281078 1_555
Co2 O10 1.906967 1_555
Co2 O2 1.936514 1_555
Co2 O8 2.041921 1_455
Co2 O4 2.049578 1_555
Co2 O8 2.084052 1_555
Co2 O4 2.149641 1_455
Co3 O12 1.743210 1_556
Co3 O6 1.889770 1_655
Co3 O4 1.931985 1_555
Co3 O10 1.996226 1_555
Co3 O6 2.116880 1_555
Co3 O10 2.269887 1_655
