# generated using pymatgen
data_Ce2Sb3Rh4
_symmetry_space_group_name_H-M   'P 1'
_cell_length_a   4.28583600
_cell_length_b   4.28583600
_cell_length_c   10.31798200
_cell_angle_alpha   90.00000000
_cell_angle_beta   90.00000000
_cell_angle_gamma   90.00000000
_symmetry_Int_Tables_number   1
_chemical_formula_structural   Ce2Sb3Rh4
_chemical_formula_sum   'Ce2 Sb3 Rh4'
_cell_volume   189.52471965
_cell_formula_units_Z   1
loop_
 _symmetry_equiv_pos_site_id
 _symmetry_equiv_pos_as_xyz
  1  'x, y, z'
loop_
 _atom_site_type_symbol
 _atom_site_label
 _atom_site_symmetry_multiplicity
 _atom_site_fract_x
 _atom_site_fract_y
 _atom_site_fract_z
 _atom_site_occupancy
  Ce  Ce0  1  0.00000000  0.00000000  0.02556600  1
  Ce  Ce1  1  0.50000000  0.50000000  0.47657700  1
  Sb  Sb0  1  0.00000000  0.00000000  0.63103700  1
  Sb  Sb1  1  0.00000000  0.00000000  0.35568800  1
  Sb  Sb2  1  0.50000000  0.50000000  0.92937300  1
  Rh  Rh0  1  0.00000000  0.50000000  0.20159800  1
  Rh  Rh1  1  0.50000000  0.00000000  0.77873200  1
  Rh  Rh2  1  0.50000000  0.00000000  0.20159800  1
  Rh  Rh3  1  0.00000000  0.50000000  0.77873200  1
loop_
_geom_bond_atom_site_label_1
_geom_bond_atom_site_label_2
_geom_bond_distance
_geom_bond_site_symmetry_2
Ce0 Rh0 2.809097 1_545
Ce0 Rh2 2.809097 1_455
Ce0 Rh0 2.809097 1_555
Ce0 Rh2 2.809097 1_555
Ce0 Sb2 3.188932 1_544
Ce0 Sb2 3.188932 1_444
Ce0 Sb2 3.188932 1_554
Ce0 Sb2 3.188932 1_454
Ce0 Rh3 3.328428 1_544
Ce0 Rh3 3.328428 1_554
Ce0 Rh1 3.328428 1_554
Ce0 Rh1 3.328428 1_454
Ce1 Sb1 3.277198 1_655
Ce1 Sb1 3.277198 1_665
Ce1 Sb1 3.277198 1_555
Ce1 Sb1 3.277198 1_565
Ce1 Sb0 3.424051 1_555
Ce1 Sb0 3.424051 1_565
Ce1 Sb0 3.424051 1_655
Ce1 Sb0 3.424051 1_665
Ce1 Rh0 3.555554 1_555
Ce1 Rh0 3.555554 1_655
Ce1 Rh2 3.555554 1_555
Ce1 Rh2 3.555554 1_565
Ce1 Rh3 3.783083 1_655
Ce1 Rh3 3.783083 1_555
Ce1 Rh1 3.783083 1_565
Ce1 Rh1 3.783083 1_555
Sb0 Sb1 2.841046 1_555
Rh0 Sb1 2.668309 1_555
Rh0 Sb1 2.668309 1_565
Rh1 Sb0 2.629527 1_655
Rh1 Sb0 2.629527 1_555
Rh1 Sb2 2.647259 1_545
Rh1 Sb2 2.647259 1_555
Rh1 Rh3 3.030544 1_545
Rh1 Rh3 3.030544 1_645
Rh1 Rh3 3.030544 1_655
Rh1 Rh3 3.030544 1_555
Rh2 Sb1 2.668309 1_655
Rh2 Sb1 2.668309 1_555
Rh3 Sb0 2.629527 1_565
Rh3 Sb0 2.629527 1_555
Rh3 Sb2 2.647259 1_455
Rh3 Sb2 2.647259 1_555
