# generated using pymatgen
data_NdCuO3
_symmetry_space_group_name_H-M   'P 1'
_cell_length_a   5.33507122
_cell_length_b   6.34205783
_cell_length_c   7.17680555
_cell_angle_alpha   90.00000000
_cell_angle_beta   90.00000000
_cell_angle_gamma   90.00000000
_symmetry_Int_Tables_number   1
_chemical_formula_structural   NdCuO3
_chemical_formula_sum   'Nd4 Cu4 O12'
_cell_volume   242.82958560
_cell_formula_units_Z   4
loop_
 _symmetry_equiv_pos_site_id
 _symmetry_equiv_pos_as_xyz
  1  'x, y, z'
loop_
 _atom_site_type_symbol
 _atom_site_label
 _atom_site_symmetry_multiplicity
 _atom_site_fract_x
 _atom_site_fract_y
 _atom_site_fract_z
 _atom_site_occupancy
  Nd  Nd0  1  0.97420635  0.89919155  0.75000000  1
  Nd  Nd1  1  0.02579365  0.10080845  0.25000000  1
  Nd  Nd2  1  0.47420635  0.60080845  0.25000000  1
  Nd  Nd3  1  0.52579365  0.39919155  0.75000000  1
  Cu  Cu0  1  0.50000000  -0.00000000  0.50000000  1
  Cu  Cu1  1  -0.00000000  0.50000000  0.50000000  1
  Cu  Cu2  1  0.50000000  -0.00000000  0.00000000  1
  Cu  Cu3  1  -0.00000000  0.50000000  0.00000000  1
  O  O0  1  0.10086249  0.52816950  0.75000000  1
  O  O1  1  0.21750911  0.84044461  0.04457261  1
  O  O2  1  0.21750911  0.84044461  0.45542739  1
  O  O3  1  0.28249089  0.34044461  0.04457261  1
  O  O4  1  0.28249089  0.34044461  0.45542739  1
  O  O5  1  0.39913751  0.02816950  0.75000000  1
  O  O6  1  0.60086249  0.97183050  0.25000000  1
  O  O7  1  0.71750911  0.65955539  0.54457261  1
  O  O8  1  0.71750911  0.65955539  0.95542739  1
  O  O9  1  0.78249089  0.15955539  0.54457261  1
  O  O10  1  0.78249089  0.15955539  0.95542739  1
  O  O11  1  0.89913751  0.47183050  0.25000000  1
loop_
_geom_bond_atom_site_label_1
_geom_bond_atom_site_label_2
_geom_bond_distance
_geom_bond_site_symmetry_2
Nd0 O5 2.410096 1_665
Nd0 O9 2.438514 1_565
Nd0 O10 2.438514 1_565
Nd0 O0 2.448144 1_655
Nd0 O1 2.508604 1_656
Nd0 O2 2.508604 1_655
Nd0 O7 2.521681 1_555
Nd0 O8 2.521681 1_555
Nd1 O6 2.410096 1_445
Nd1 O1 2.438514 1_545
Nd1 O2 2.438514 1_545
Nd1 O11 2.448144 1_455
Nd1 O9 2.508604 1_455
Nd1 O10 2.508604 1_454
Nd1 O4 2.521681 1_555
Nd1 O3 2.521681 1_555
Nd2 O11 2.410096 1_555
Nd2 O4 2.438514 1_555
Nd2 O3 2.438514 1_555
Nd2 O6 2.448144 1_555
Nd2 O7 2.508604 1_555
Nd2 O8 2.508604 1_554
Nd2 O1 2.521681 1_555
Nd2 O2 2.521681 1_555
Nd3 O0 2.410096 1_555
Nd3 O8 2.438514 1_555
Nd3 O7 2.438514 1_555
Nd3 O5 2.448144 1_555
Nd3 O3 2.508604 1_556
Nd3 O4 2.508604 1_555
Nd3 O9 2.521681 1_555
Nd3 O10 2.521681 1_555
Cu0 O2 1.843276 1_545
Cu0 O9 1.843276 1_555
Cu0 O5 1.881658 1_555
Cu0 O6 1.881658 1_545
Cu0 O4 2.471986 1_555
Cu0 O7 2.471986 1_545
Cu1 O7 1.843276 1_455
Cu1 O4 1.843276 1_555
Cu1 O0 1.881658 1_555
Cu1 O11 1.881658 1_455
Cu1 O9 2.471986 1_455
Cu1 O2 2.471986 1_555
Cu2 O1 1.843276 1_545
Cu2 O10 1.843276 1_554
Cu2 O5 1.881658 1_554
Cu2 O6 1.881658 1_545
Cu2 O3 2.471986 1_555
Cu2 O8 2.471986 1_544
Cu3 O8 1.843276 1_454
Cu3 O3 1.843276 1_555
Cu3 O11 1.881658 1_455
Cu3 O0 1.881658 1_554
Cu3 O10 2.471986 1_454
Cu3 O1 2.471986 1_555
