# generated using pymatgen
data_HoCr2O2
_symmetry_space_group_name_H-M   'P 1'
_cell_length_a   7.91462210
_cell_length_b   7.91462210
_cell_length_c   7.91462210
_cell_angle_alpha   111.41424342
_cell_angle_beta   111.41424342
_cell_angle_gamma   105.65138682
_symmetry_Int_Tables_number   1
_chemical_formula_structural   HoCr2O2
_chemical_formula_sum   'Ho4 Cr8 O8'
_cell_volume   380.39171996
_cell_formula_units_Z   4
loop_
 _symmetry_equiv_pos_site_id
 _symmetry_equiv_pos_as_xyz
  1  'x, y, z'
loop_
 _atom_site_type_symbol
 _atom_site_label
 _atom_site_symmetry_multiplicity
 _atom_site_fract_x
 _atom_site_fract_y
 _atom_site_fract_z
 _atom_site_occupancy
  Ho  Ho0  1  0.87500000  0.12500000  0.25000000  1
  Ho  Ho1  1  0.87500000  0.62500000  0.75000000  1
  Ho  Ho2  1  0.37500000  0.12500000  0.25000000  1
  Ho  Ho3  1  0.87500000  0.12500000  0.75000000  1
  Cr  Cr0  1  0.51718700  0.21224800  0.69506100  1
  Cr  Cr1  1  0.51718700  0.82212500  0.30493900  1
  Cr  Cr2  1  0.57212500  0.76718700  0.80493900  1
  Cr  Cr3  1  0.23281300  0.42787500  0.19506100  1
  Cr  Cr4  1  0.23281300  0.03775200  0.80493900  1
  Cr  Cr5  1  0.96224800  0.76718700  0.19506100  1
  Cr  Cr6  1  0.17787500  0.48281300  0.69506100  1
  Cr  Cr7  1  0.78775200  0.48281300  0.30493900  1
  O  O0  1  0.67154600  0.51816000  0.84661500  1
  O  O1  1  0.67154600  0.82493100  0.15338500  1
  O  O2  1  0.57493100  0.92154600  0.65338500  1
  O  O3  1  0.07845400  0.42506900  0.34661500  1
  O  O4  1  0.07845400  0.73184000  0.65338500  1
  O  O5  1  0.26816000  0.92154600  0.34661500  1
  O  O6  1  0.17506900  0.32845400  0.84661500  1
  O  O7  1  0.48184000  0.32845400  0.15338500  1
loop_
_geom_bond_atom_site_label_1
_geom_bond_atom_site_label_2
_geom_bond_distance
_geom_bond_site_symmetry_2
Ho0 O3 2.128213 1_655
Ho0 O1 2.128213 1_545
Ho1 O0 2.128215 1_555
Ho1 O4 2.128215 1_655
Ho2 O7 2.128215 1_555
Ho2 O5 2.128215 1_545
Ho3 O6 2.128213 1_655
Ho3 O2 2.128213 1_545
Cr0 O0 2.001665 1_555
Cr0 O2 2.394703 1_545
Cr0 O5 2.394704 1_545
Cr1 O1 2.001672 1_555
Cr1 O2 2.394702 1_555
Cr1 O5 2.394715 1_555
Cr2 O2 2.001672 1_555
Cr2 O1 2.394702 1_556
Cr2 O0 2.394715 1_555
Cr3 O3 2.001672 1_555
Cr3 O6 2.394702 1_554
Cr3 O7 2.394715 1_555
Cr4 O4 2.001665 1_545
Cr4 O6 2.394703 1_555
Cr4 O7 2.394704 1_556
Cr5 O5 2.001665 1_655
Cr5 O1 2.394703 1_555
Cr5 O0 2.394704 1_554
Cr6 O6 2.001672 1_555
Cr6 O3 2.394702 1_555
Cr6 O4 2.394715 1_555
Cr7 O7 2.001665 1_555
Cr7 O3 2.394703 1_655
Cr7 O4 2.394704 1_655
