# generated using pymatgen
data_InNiAg2F7
_symmetry_space_group_name_H-M   'P 1'
_cell_length_a   7.73886910
_cell_length_b   7.73886910
_cell_length_c   7.73886910
_cell_angle_alpha   121.22107228
_cell_angle_beta   118.70633989
_cell_angle_gamma   90.07665529
_symmetry_Int_Tables_number   1
_chemical_formula_structural   InNiAg2F7
_chemical_formula_sum   'In2 Ni2 Ag4 F14'
_cell_volume   327.71335916
_cell_formula_units_Z   2
loop_
 _symmetry_equiv_pos_site_id
 _symmetry_equiv_pos_as_xyz
  1  'x, y, z'
loop_
 _atom_site_type_symbol
 _atom_site_label
 _atom_site_symmetry_multiplicity
 _atom_site_fract_x
 _atom_site_fract_y
 _atom_site_fract_z
 _atom_site_occupancy
  In  In0  1  0.00000000  0.50000000  0.50000000  1
  In  In1  1  0.50000000  0.00000000  0.50000000  1
  Ni  Ni0  1  0.50000000  0.50000000  0.50000000  1
  Ni  Ni1  1  0.50000000  0.00000000  0.00000000  1
  Ag  Ag0  1  0.50000000  0.50000000  0.00000000  1
  Ag  Ag1  1  0.00000000  0.00000000  0.00000000  1
  Ag  Ag2  1  0.00000000  0.50000000  0.00000000  1
  Ag  Ag3  1  0.00000000  0.00000000  0.50000000  1
  F  F0  1  0.86906700  0.60041000  0.26865800  1
  F  F1  1  0.16824800  0.89959000  0.26865800  1
  F  F2  1  0.18869100  0.82484000  0.77486300  1
  F  F3  1  0.45002300  0.67516000  0.36385200  1
  F  F4  1  0.45002300  0.08617200  0.77486300  1
  F  F5  1  0.18869100  0.41382800  0.36385200  1
  F  F6  1  0.81130900  0.58617200  0.63614800  1
  F  F7  1  0.54997700  0.91382800  0.22513700  1
  F  F8  1  0.54997700  0.32484000  0.63614800  1
  F  F9  1  0.81130900  0.17516000  0.22513700  1
  F  F10  1  0.42172500  0.25000000  0.17172500  1
  F  F11  1  0.13093300  0.39959000  0.73134200  1
  F  F12  1  0.83175200  0.10041000  0.73134200  1
  F  F13  1  0.57827500  0.75000000  0.82827500  1
loop_
_geom_bond_atom_site_label_1
_geom_bond_atom_site_label_2
_geom_bond_distance
_geom_bond_site_symmetry_2
Ag0 F0 2.387222 1_555
Ag0 F11 2.387222 1_554
Ag0 F4 2.646966 1_554
Ag0 F7 2.646966 1_555
Ag0 F3 2.646973 1_555
Ag0 F8 2.646973 1_554
Ag1 F1 2.387228 1_545
Ag1 F12 2.387228 1_454
Ag1 F9 2.646966 1_455
Ag1 F2 2.646966 1_544
Ag1 F5 2.646968 1_555
Ag1 F6 2.646968 1_444
Ag2 F1 2.510826 1_555
Ag2 F12 2.510826 1_454
Ag2 F0 2.510832 1_455
Ag2 F11 2.510832 1_554
Ag3 F1 2.510826 1_545
Ag3 F12 2.510826 1_455
Ag3 F0 2.510826 1_445
Ag3 F11 2.510826 1_555
F0 In0 2.130129 1_655
F1 In1 2.130129 1_565
F2 Ni1 2.046413 1_566
F2 In0 2.106996 1_555
F3 Ni0 2.046407 1_555
F3 In1 2.106998 1_565
F4 Ni1 2.046413 1_556
F4 In1 2.106996 1_555
F5 Ni0 2.046415 1_555
F5 In0 2.106991 1_555
F6 Ni0 2.046415 1_555
F6 In0 2.106991 1_655
F7 Ni1 2.046413 1_565
F7 In1 2.106996 1_565
F8 Ni0 2.046407 1_555
F8 In1 2.106998 1_555
F9 Ni1 2.046413 1_555
F9 In0 2.106996 1_655
F10 Ni0 1.996800 1_555
F10 Ni1 1.996800 1_555
F11 In0 2.130129 1_555
F12 In1 2.130129 1_555
F13 Ni0 1.996800 1_555
F13 Ni1 1.996800 1_566
