# generated using pymatgen
data_La2ZnWO6
_symmetry_space_group_name_H-M   'P 1'
_cell_length_a   5.65896299
_cell_length_b   5.65896299
_cell_length_c   5.65896274
_cell_angle_alpha   61.81126786
_cell_angle_beta   61.81126786
_cell_angle_gamma   61.81125852
_symmetry_Int_Tables_number   1
_chemical_formula_structural   La2ZnWO6
_chemical_formula_sum   'La2 Zn1 W1 O6'
_cell_volume   133.34179784
_cell_formula_units_Z   1
loop_
 _symmetry_equiv_pos_site_id
 _symmetry_equiv_pos_as_xyz
  1  'x, y, z'
loop_
 _atom_site_type_symbol
 _atom_site_label
 _atom_site_symmetry_multiplicity
 _atom_site_fract_x
 _atom_site_fract_y
 _atom_site_fract_z
 _atom_site_occupancy
  La  La0  1  0.75026100  0.75026100  0.75026100  1
  La  La1  1  0.24973900  0.24973900  0.24973900  1
  Zn  Zn0  1  0.50000000  0.50000000  0.50000000  1
  W  W0  1  0.00000000  0.00000000  0.00000000  1
  O  O0  1  0.75447200  0.33996000  0.15285500  1
  O  O1  1  0.15285500  0.75447200  0.33996000  1
  O  O2  1  0.33996000  0.15285500  0.75447200  1
  O  O3  1  0.24552800  0.66004000  0.84714500  1
  O  O4  1  0.66004000  0.84714500  0.24552800  1
  O  O5  1  0.84714500  0.24552800  0.66004000  1
loop_
_geom_bond_atom_site_label_1
_geom_bond_atom_site_label_2
_geom_bond_distance
_geom_bond_site_symmetry_2
La0 O2 2.362960 1_565
La0 O0 2.362960 1_556
La0 O1 2.362960 1_655
La0 O4 2.872587 1_556
La0 O3 2.872587 1_655
La0 O5 2.872588 1_565
La0 O4 2.890209 1_555
La0 O5 2.890209 1_555
La0 O3 2.890209 1_555
La1 O4 2.362960 1_545
La1 O3 2.362960 1_554
La1 O5 2.362960 1_455
La1 O2 2.872587 1_554
La1 O0 2.872587 1_455
La1 O1 2.872588 1_545
La1 O2 2.890209 1_555
La1 O1 2.890209 1_555
La1 O0 2.890209 1_555
O0 W0 2.071521 1_655
O0 Zn0 2.128192 1_555
O1 W0 2.071521 1_565
O1 Zn0 2.128192 1_555
O2 W0 2.071521 1_556
O2 Zn0 2.128192 1_555
O3 W0 2.071521 1_566
O3 Zn0 2.128192 1_555
O4 W0 2.071521 1_665
O4 Zn0 2.128192 1_555
O5 W0 2.071521 1_656
O5 Zn0 2.128192 1_555
