# generated using pymatgen
data_Ho3Ge13Ru4
_symmetry_space_group_name_H-M   'P 1'
_cell_length_a   9.03420900
_cell_length_b   9.03420900
_cell_length_c   9.03420900
_cell_angle_alpha   90.00000000
_cell_angle_beta   90.00000000
_cell_angle_gamma   90.00000000
_symmetry_Int_Tables_number   1
_chemical_formula_structural   Ho3Ge13Ru4
_chemical_formula_sum   'Ho6 Ge26 Ru8'
_cell_volume   737.34442394
_cell_formula_units_Z   2
loop_
 _symmetry_equiv_pos_site_id
 _symmetry_equiv_pos_as_xyz
  1  'x, y, z'
loop_
 _atom_site_type_symbol
 _atom_site_label
 _atom_site_symmetry_multiplicity
 _atom_site_fract_x
 _atom_site_fract_y
 _atom_site_fract_z
 _atom_site_occupancy
  Ho  Ho0  1  0.00000000  0.50000000  0.75000000  1
  Ho  Ho1  1  0.50000000  0.25000000  0.00000000  1
  Ho  Ho2  1  0.75000000  0.00000000  0.50000000  1
  Ho  Ho3  1  0.00000000  0.50000000  0.25000000  1
  Ho  Ho4  1  0.50000000  0.75000000  0.00000000  1
  Ho  Ho5  1  0.25000000  0.00000000  0.50000000  1
  Ge  Ge0  1  0.50000000  0.50000000  0.50000000  1
  Ge  Ge1  1  0.00000000  0.00000000  0.00000000  1
  Ge  Ge2  1  0.80676400  0.35103500  0.50000000  1
  Ge  Ge3  1  0.64896500  0.50000000  0.80676400  1
  Ge  Ge4  1  0.50000000  0.19323600  0.64896500  1
  Ge  Ge5  1  0.19323600  0.64896500  0.50000000  1
  Ge  Ge6  1  0.35103500  0.50000000  0.19323600  1
  Ge  Ge7  1  0.50000000  0.80676400  0.35103500  1
  Ge  Ge8  1  0.80676400  0.64896500  0.50000000  1
  Ge  Ge9  1  0.64896500  0.50000000  0.19323600  1
  Ge  Ge10  1  0.19323600  0.35103500  0.50000000  1
  Ge  Ge11  1  0.35103500  0.50000000  0.80676400  1
  Ge  Ge12  1  0.50000000  0.80676400  0.64896500  1
  Ge  Ge13  1  0.50000000  0.19323600  0.35103500  1
  Ge  Ge14  1  0.30676400  0.00000000  0.85103500  1
  Ge  Ge15  1  0.14896500  0.30676400  0.00000000  1
  Ge  Ge16  1  0.00000000  0.14896500  0.69323600  1
  Ge  Ge17  1  0.69323600  0.00000000  0.14896500  1
  Ge  Ge18  1  0.85103500  0.69323600  0.00000000  1
  Ge  Ge19  1  0.00000000  0.85103500  0.30676400  1
  Ge  Ge20  1  0.30676400  0.00000000  0.14896500  1
  Ge  Ge21  1  0.14896500  0.69323600  0.00000000  1
  Ge  Ge22  1  0.69323600  0.00000000  0.85103500  1
  Ge  Ge23  1  0.85103500  0.30676400  0.00000000  1
  Ge  Ge24  1  0.00000000  0.14896500  0.30676400  1
  Ge  Ge25  1  0.00000000  0.85103500  0.69323600  1
  Ru  Ru0  1  0.75000000  0.25000000  0.75000000  1
  Ru  Ru1  1  0.25000000  0.75000000  0.25000000  1
  Ru  Ru2  1  0.75000000  0.75000000  0.25000000  1
  Ru  Ru3  1  0.25000000  0.25000000  0.75000000  1
  Ru  Ru4  1  0.25000000  0.75000000  0.75000000  1
  Ru  Ru5  1  0.75000000  0.25000000  0.25000000  1
  Ru  Ru6  1  0.25000000  0.25000000  0.25000000  1
  Ru  Ru7  1  0.75000000  0.75000000  0.75000000  1
loop_
_geom_bond_atom_site_label_1
_geom_bond_atom_site_label_2
_geom_bond_distance
_geom_bond_site_symmetry_2
Ho0 Ru3 3.194075 1_555
Ho0 Ru0 3.194075 1_455
Ho0 Ru4 3.194075 1_555
Ho0 Ru7 3.194075 1_455
Ho1 Ru0 3.194075 1_554
Ho1 Ru6 3.194075 1_555
Ho1 Ru3 3.194075 1_554
Ho1 Ru5 3.194075 1_555
Ho2 Ru0 3.194075 1_555
Ho2 Ru5 3.194075 1_555
Ho2 Ru2 3.194075 1_545
Ho2 Ru7 3.194075 1_545
Ho3 Ru6 3.194075 1_555
Ho3 Ru2 3.194075 1_455
Ho3 Ru1 3.194075 1_555
Ho3 Ru5 3.194075 1_455
Ho4 Ru1 3.194075 1_555
Ho4 Ru2 3.194075 1_555
Ho4 Ru4 3.194075 1_554
Ho4 Ru7 3.194075 1_554
Ho5 Ru6 3.194075 1_555
Ho5 Ru1 3.194075 1_545
Ho5 Ru4 3.194075 1_545
Ho5 Ru3 3.194075 1_555
Ge0 Ge6 3.080847 1_555
Ge0 Ge2 3.080847 1_555
Ge0 Ge10 3.080847 1_555
Ge0 Ge4 3.080847 1_555
Ge0 Ge11 3.080847 1_555
Ge0 Ge13 3.080847 1_555
Ge0 Ge9 3.080847 1_555
Ge0 Ge3 3.080847 1_555
Ge0 Ge5 3.080847 1_555
Ge0 Ge8 3.080847 1_555
Ge0 Ge7 3.080847 1_555
Ge0 Ge12 3.080847 1_555
Ge1 Ge14 3.080847 1_554
Ge1 Ge19 3.080847 1_545
Ge1 Ge24 3.080847 1_555
Ge1 Ge15 3.080847 1_555
Ge1 Ge23 3.080847 1_455
Ge1 Ge20 3.080847 1_555
Ge1 Ge16 3.080847 1_554
Ge1 Ge21 3.080847 1_545
Ge1 Ge17 3.080847 1_455
Ge1 Ge18 3.080847 1_445
Ge1 Ge22 3.080847 1_454
Ge1 Ge25 3.080847 1_544
Ge2 Ru0 2.489416 1_555
Ge2 Ru5 2.489416 1_555
Ge2 Ge8 2.691562 1_555
Ge2 Ho3 3.155911 1_655
Ge2 Ho0 3.155911 1_655
Ge2 Ho2 3.212519 1_555
Ge3 Ru7 2.489416 1_555
Ge3 Ru0 2.489416 1_555
Ge3 Ho1 3.155911 1_556
Ge3 Ho4 3.155911 1_556
Ge3 Ho0 3.212519 1_655
Ge4 Ru3 2.489416 1_555
Ge4 Ru0 2.489416 1_555
Ge4 Ho2 3.155911 1_555
Ge4 Ho5 3.155911 1_555
Ge4 Ho1 3.212519 1_556
Ge5 Ru4 2.489416 1_555
Ge5 Ru1 2.489416 1_555
Ge5 Ho0 3.155911 1_555
Ge5 Ho3 3.155911 1_555
Ge5 Ho5 3.212519 1_565
Ge6 Ru6 2.489416 1_555
Ge6 Ru1 2.489416 1_555
Ge6 Ge9 2.691562 1_555
Ge6 Ho4 3.155911 1_555
Ge6 Ho1 3.155911 1_555
Ge6 Ho3 3.212519 1_555
Ge7 Ru2 2.489416 1_555
Ge7 Ru1 2.489416 1_555
Ge7 Ho5 3.155911 1_565
Ge7 Ho2 3.155911 1_565
Ge7 Ho4 3.212519 1_555
Ge8 Ru2 2.489416 1_555
Ge8 Ru7 2.489416 1_555
Ge8 Ho3 3.155911 1_655
Ge8 Ho0 3.155911 1_655
Ge8 Ho2 3.212519 1_565
Ge9 Ru2 2.489416 1_555
Ge9 Ru5 2.489416 1_555
Ge9 Ho4 3.155911 1_555
Ge9 Ho1 3.155911 1_555
Ge9 Ho3 3.212519 1_655
Ge10 Ru3 2.489416 1_555
Ge10 Ru6 2.489416 1_555
Ge10 Ge5 2.691562 1_555
Ge10 Ho0 3.155911 1_555
Ge10 Ho3 3.155911 1_555
Ge10 Ho5 3.212519 1_555
Ge11 Ru4 2.489416 1_555
Ge11 Ru3 2.489416 1_555
Ge11 Ge3 2.691562 1_555
Ge11 Ho1 3.155911 1_556
Ge11 Ho4 3.155911 1_556
Ge11 Ho0 3.212519 1_555
Ge12 Ru4 2.489416 1_555
Ge12 Ru7 2.489416 1_555
Ge12 Ge7 2.691562 1_555
Ge12 Ho5 3.155911 1_565
Ge12 Ho2 3.155911 1_565
Ge12 Ho4 3.212519 1_556
Ge13 Ru6 2.489416 1_555
Ge13 Ru5 2.489416 1_555
Ge13 Ge4 2.691562 1_555
Ge13 Ho2 3.155911 1_555
Ge13 Ho5 3.155911 1_555
Ge13 Ho1 3.212519 1_555
Ge14 Ru4 2.489416 1_545
Ge14 Ru3 2.489416 1_555
Ge14 Ge20 2.691562 1_556
Ge14 Ho4 3.155911 1_546
Ge14 Ho1 3.155911 1_556
Ge14 Ho5 3.212519 1_555
Ge15 Ru6 2.489416 1_555
Ge15 Ru3 2.489416 1_554
Ge15 Ge23 2.691562 1_455
Ge15 Ho3 3.155911 1_555
Ge15 Ho0 3.155911 1_554
Ge15 Ho1 3.212519 1_555
Ge16 Ru3 2.489416 1_555
Ge16 Ru0 2.489416 1_455
Ge16 Ge25 2.691562 1_545
Ge16 Ho5 3.155911 1_555
Ge16 Ho2 3.155911 1_455
Ge16 Ho0 3.212519 1_555
Ge17 Ru2 2.489416 1_545
Ge17 Ru5 2.489416 1_555
Ge17 Ge22 2.691562 1_554
Ge17 Ho1 3.155911 1_555
Ge17 Ho4 3.155911 1_545
Ge17 Ho2 3.212519 1_555
Ge18 Ru2 2.489416 1_555
Ge18 Ru7 2.489416 1_554
Ge18 Ge21 2.691562 1_655
Ge18 Ho3 3.155911 1_655
Ge18 Ho0 3.155911 1_654
Ge18 Ho4 3.212519 1_555
Ge19 Ru2 2.489416 1_455
Ge19 Ru1 2.489416 1_555
Ge19 Ge24 2.691562 1_565
Ge19 Ho5 3.155911 1_565
Ge19 Ho2 3.155911 1_465
Ge19 Ho3 3.212519 1_555
Ge20 Ru6 2.489416 1_555
Ge20 Ru1 2.489416 1_545
Ge20 Ho4 3.155911 1_545
Ge20 Ho1 3.155911 1_555
Ge20 Ho5 3.212519 1_555
Ge21 Ru4 2.489416 1_554
Ge21 Ru1 2.489416 1_555
Ge21 Ho3 3.155911 1_555
Ge21 Ho0 3.155911 1_554
Ge21 Ho4 3.212519 1_555
Ge22 Ru7 2.489416 1_545
Ge22 Ru0 2.489416 1_555
Ge22 Ho4 3.155911 1_546
Ge22 Ho1 3.155911 1_556
Ge22 Ho2 3.212519 1_555
Ge23 Ru0 2.489416 1_554
Ge23 Ru5 2.489416 1_555
Ge23 Ho3 3.155911 1_655
Ge23 Ho0 3.155911 1_654
Ge23 Ho1 3.212519 1_555
Ge24 Ru5 2.489416 1_455
Ge24 Ru6 2.489416 1_555
Ge24 Ho5 3.155911 1_555
Ge24 Ho2 3.155911 1_455
Ge24 Ho3 3.212519 1_555
Ge25 Ru4 2.489416 1_555
Ge25 Ru7 2.489416 1_455
Ge25 Ho5 3.155911 1_565
Ge25 Ho2 3.155911 1_465
Ge25 Ho0 3.212519 1_555
