# generated using pymatgen
data_AlC8BrO5
_symmetry_space_group_name_H-M   'P 1'
_cell_length_a   16.32501636
_cell_length_b   16.32501636
_cell_length_c   16.32501636
_cell_angle_alpha   95.51320070
_cell_angle_beta   95.51320070
_cell_angle_gamma   143.88638283
_symmetry_Int_Tables_number   1
_chemical_formula_structural   AlC8BrO5
_chemical_formula_sum   'Al8 C64 Br8 O40'
_cell_volume   2437.97145839
_cell_formula_units_Z   8
loop_
 _symmetry_equiv_pos_site_id
 _symmetry_equiv_pos_as_xyz
  1  'x, y, z'
loop_
 _atom_site_type_symbol
 _atom_site_label
 _atom_site_symmetry_multiplicity
 _atom_site_fract_x
 _atom_site_fract_y
 _atom_site_fract_z
 _atom_site_occupancy
  Al  Al0  1  0.62500000  0.19094600  0.06594600  1
  Al  Al1  1  0.62500000  0.55905400  0.43405400  1
  Al  Al2  1  0.44094600  0.37500000  0.56594600  1
  Al  Al3  1  0.44094600  0.87500000  0.06594600  1
  Al  Al4  1  0.12500000  0.19094600  0.56594600  1
  Al  Al5  1  0.12500000  0.55905400  0.93405400  1
  Al  Al6  1  0.80905400  0.37500000  0.93405400  1
  Al  Al7  1  0.80905400  0.87500000  0.43405400  1
  C  C0  1  0.44102500  0.02854100  0.17744500  1
  C  C1  1  0.44102500  0.26358000  0.41248400  1
  C  C2  1  0.27854100  0.19102500  0.67744500  1
  C  C3  1  0.27854100  0.60109700  0.08751600  1
  C  C4  1  0.85109700  0.02854100  0.58751600  1
  C  C5  1  0.85109700  0.26358000  0.82255500  1
  C  C6  1  0.51358000  0.19102500  0.91248400  1
  C  C7  1  0.51358000  0.60109700  0.32255500  1
  C  C8  1  0.80897500  0.72145900  0.32255500  1
  C  C9  1  0.80897500  0.48642000  0.08751600  1
  C  C10  1  0.97145900  0.55897500  0.82255500  1
  C  C11  1  0.97145900  0.14890300  0.41248400  1
  C  C12  1  0.39890300  0.72145900  0.91248400  1
  C  C13  1  0.39890300  0.48642000  0.67744500  1
  C  C14  1  0.73642000  0.55897500  0.58751600  1
  C  C15  1  0.73642000  0.14890300  0.17744500  1
  C  C16  1  0.38873700  0.02777700  0.24843700  1
  C  C17  1  0.38873700  0.14030000  0.36096000  1
  C  C18  1  0.27777700  0.13873700  0.74843700  1
  C  C19  1  0.27777700  0.52934000  0.13904000  1
  C  C20  1  0.77934000  0.02777700  0.63904000  1
  C  C21  1  0.77934000  0.14030000  0.75156300  1
  C  C22  1  0.39030000  0.13873700  0.86096000  1
  C  C23  1  0.39030000  0.52934000  0.25156300  1
  C  C24  1  0.86126300  0.72222300  0.25156300  1
  C  C25  1  0.86126300  0.60970000  0.13904000  1
  C  C26  1  0.97222300  0.61126300  0.75156300  1
  C  C27  1  0.97222300  0.22066000  0.36096000  1
  C  C28  1  0.47066000  0.72222300  0.86096000  1
  C  C29  1  0.47066000  0.60970000  0.74843700  1
  C  C30  1  0.85970000  0.61126300  0.63904000  1
  C  C31  1  0.85970000  0.22066000  0.24843700  1
  C  C32  1  0.43518100  0.14262500  0.29255600  1
  C  C33  1  0.39262500  0.18518100  0.79255600  1
  C  C34  1  0.39262500  0.60006900  0.20744400  1
  C  C35  1  0.85006900  0.14262500  0.70744400  1
  C  C36  1  0.81481900  0.60737500  0.20744400  1
  C  C37  1  0.85737500  0.56481900  0.70744400  1
  C  C38  1  0.85737500  0.14993100  0.29255600  1
  C  C39  1  0.39993100  0.60737500  0.79255600  1
  C  C40  1  0.29043100  0.91945900  0.28553100  1
  C  C41  1  0.29043100  0.00490000  0.37097200  1
  C  C42  1  0.16945900  0.04043100  0.78553100  1
  C  C43  1  0.16945900  0.38392800  0.12902800  1
  C  C44  1  0.63392800  0.91945900  0.62902800  1
  C  C45  1  0.63392800  0.00490000  0.71446900  1
  C  C46  1  0.25490000  0.04043100  0.87097200  1
  C  C47  1  0.25490000  0.38392800  0.21446900  1
  C  C48  1  0.95956900  0.83054100  0.21446900  1
  C  C49  1  0.95956900  0.74510000  0.12902800  1
  C  C50  1  0.08054100  0.70956900  0.71446900  1
  C  C51  1  0.08054100  0.36607200  0.37097200  1
  C  C52  1  0.61607200  0.83054100  0.87097200  1
  C  C53  1  0.61607200  0.74510000  0.78553100  1
  C  C54  1  0.99510000  0.70956900  0.62902800  1
  C  C55  1  0.99510000  0.36607200  0.28553100  1
  C  C56  1  0.21653300  0.87250000  0.34403300  1
  C  C57  1  0.12250000  0.96653200  0.84403300  1
  C  C58  1  0.12250000  0.27846700  0.15596700  1
  C  C59  1  0.52846700  0.87250000  0.65596700  1
  C  C60  1  0.03346700  0.87750000  0.15596700  1
  C  C61  1  0.12750000  0.78346700  0.65596700  1
  C  C62  1  0.12750000  0.47153300  0.34403300  1
  C  C63  1  0.72153300  0.87750000  0.84403300  1
  Br  Br0  1  0.06721100  0.69591500  0.37129500  1
  Br  Br1  1  0.94591500  0.81721100  0.87129500  1
  Br  Br2  1  0.94591500  0.07462000  0.12870500  1
  Br  Br3  1  0.32462000  0.69591500  0.62870500  1
  Br  Br4  1  0.18278900  0.05408500  0.12870500  1
  Br  Br5  1  0.30408500  0.93278900  0.62870500  1
  Br  Br6  1  0.30408500  0.67538000  0.37129500  1
  Br  Br7  1  0.92538000  0.05408500  0.87129500  1
  O  O0  1  0.50733400  0.00733400  0.01466800  1
  O  O1  1  0.50733400  0.49266600  0.50000000  1
  O  O2  1  0.25733400  0.25733400  0.51466800  1
  O  O3  1  0.25733400  0.74266600  0.00000000  1
  O  O4  1  0.99266600  0.00733400  0.50000000  1
  O  O5  1  0.99266600  0.49266600  0.98533200  1
  O  O6  1  0.74266600  0.25733400  0.00000000  1
  O  O7  1  0.74266600  0.74266600  0.48533200  1
  O  O8  1  0.50785100  0.12946500  0.14306200  1
  O  O9  1  0.50785100  0.36478900  0.37838600  1
  O  O10  1  0.37946500  0.25785100  0.64306200  1
  O  O11  1  0.37946500  0.73640300  0.12161400  1
  O  O12  1  0.98640300  0.12946500  0.62161400  1
  O  O13  1  0.98640300  0.36478900  0.85693800  1
  O  O14  1  0.61478900  0.25785100  0.87838600  1
  O  O15  1  0.61478900  0.73640300  0.35693800  1
  O  O16  1  0.74214900  0.62053500  0.35693800  1
  O  O17  1  0.74214900  0.38521100  0.12161400  1
  O  O18  1  0.87053500  0.49214900  0.85693800  1
  O  O19  1  0.87053500  0.01359700  0.37838600  1
  O  O20  1  0.26359700  0.62053500  0.87838600  1
  O  O21  1  0.26359700  0.38521100  0.64306200  1
  O  O22  1  0.63521100  0.49214900  0.62161400  1
  O  O23  1  0.63521100  0.01359700  0.14306200  1
  O  O24  1  0.41609100  0.93150000  0.16143700  1
  O  O25  1  0.41609100  0.25465400  0.48459100  1
  O  O26  1  0.18150000  0.16609100  0.66143700  1
  O  O27  1  0.18150000  0.52006300  0.01540900  1
  O  O28  1  0.77006300  0.93150000  0.51540900  1
  O  O29  1  0.77006300  0.25465400  0.83856300  1
  O  O30  1  0.50465400  0.16609100  0.98459100  1
  O  O31  1  0.50465400  0.52006300  0.33856300  1
  O  O32  1  0.83390900  0.81850000  0.33856300  1
  O  O33  1  0.83390900  0.49534600  0.01540900  1
  O  O34  1  0.06850000  0.58390900  0.83856300  1
  O  O35  1  0.06850000  0.22993700  0.48459100  1
  O  O36  1  0.47993700  0.81850000  0.98459100  1
  O  O37  1  0.47993700  0.49534600  0.66143700  1
  O  O38  1  0.74534600  0.58390900  0.51540900  1
  O  O39  1  0.74534600  0.22993700  0.16143700  1
loop_
_geom_bond_atom_site_label_1
_geom_bond_atom_site_label_2
_geom_bond_distance
_geom_bond_site_symmetry_2
Al0 O6 1.811456 1_555
Al0 O0 1.811456 1_555
Al0 O17 1.963121 1_555
Al0 O8 1.963121 1_555
Al0 O30 1.973697 1_554
Al0 O39 1.973697 1_555
Al1 O1 1.811456 1_555
Al1 O7 1.811456 1_555
Al1 O9 1.963121 1_555
Al1 O16 1.963121 1_555
Al1 O38 1.973697 1_555
Al1 O31 1.973697 1_555
Al2 O1 1.811456 1_555
Al2 O2 1.811456 1_555
Al2 O22 1.963121 1_555
Al2 O10 1.963121 1_555
Al2 O37 1.973697 1_555
Al2 O25 1.973697 1_555
Al3 O0 1.811456 1_565
Al3 O3 1.811456 1_555
Al3 O23 1.963121 1_565
Al3 O11 1.963121 1_555
Al3 O36 1.973697 1_554
Al3 O24 1.973697 1_555
Al4 O2 1.811456 1_555
Al4 O4 1.811456 1_455
Al4 O21 1.963121 1_555
Al4 O12 1.963121 1_455
Al4 O26 1.973697 1_555
Al4 O35 1.973697 1_555
Al5 O3 1.811456 1_556
Al5 O5 1.811456 1_455
Al5 O20 1.963121 1_555
Al5 O13 1.963121 1_455
Al5 O27 1.973697 1_556
Al5 O34 1.973697 1_555
Al6 O5 1.811456 1_555
Al6 O6 1.811456 1_556
Al6 O18 1.963121 1_555
Al6 O14 1.963121 1_555
Al6 O33 1.973697 1_556
Al6 O29 1.973697 1_555
Al7 O4 1.811456 1_565
Al7 O7 1.811456 1_555
Al7 O19 1.963121 1_565
Al7 O15 1.963121 1_555
Al7 O28 1.973697 1_555
Al7 O32 1.973697 1_555
C0 O24 1.265620 1_545
C0 O8 1.269263 1_555
C0 C16 1.499204 1_555
C1 O25 1.265620 1_555
C1 O9 1.269263 1_555
C1 C17 1.499204 1_555
C2 O26 1.265620 1_555
C2 O10 1.269263 1_555
C3 O27 1.265619 1_555
C3 O11 1.269252 1_555
C4 O28 1.265619 1_545
C4 O12 1.269252 1_555
C5 O29 1.265636 1_555
C5 O13 1.269252 1_555
C6 O30 1.265620 1_555
C6 O14 1.269263 1_555
C7 O31 1.265636 1_555
C7 O15 1.269252 1_555
C8 O32 1.265620 1_555
C8 O16 1.269263 1_555
C9 O33 1.265620 1_555
C9 O17 1.269263 1_555
C10 O34 1.265620 1_655
C10 O18 1.269263 1_555
C10 C26 1.499204 1_555
C11 O35 1.265619 1_655
C11 O19 1.269252 1_555
C11 C27 1.499218 1_555
C12 O36 1.265619 1_555
C12 O20 1.269252 1_555
C12 C28 1.499218 1_555
C13 O37 1.265636 1_555
C13 O21 1.269252 1_555
C13 C29 1.499198 1_555
C14 O38 1.265620 1_555
C14 O22 1.269263 1_555
C14 C30 1.499204 1_555
C15 O39 1.265636 1_555
C15 O23 1.269252 1_555
C15 C31 1.499198 1_555
C16 C40 1.369852 1_545
C16 C32 1.395584 1_555
C17 C41 1.369852 1_555
C17 C32 1.395584 1_555
C18 C42 1.369852 1_555
C18 C33 1.395584 1_555
C18 C2 1.499204 1_555
C19 C43 1.369852 1_555
C19 C34 1.395584 1_555
C19 C3 1.499218 1_555
C20 C44 1.369852 1_545
C20 C35 1.395584 1_555
C20 C4 1.499218 1_555
C21 C45 1.369852 1_555
C21 C35 1.395584 1_555
C21 C5 1.499198 1_555
C22 C46 1.369852 1_555
C22 C33 1.395584 1_555
C22 C6 1.499204 1_555
C23 C47 1.369852 1_555
C23 C34 1.395584 1_555
C23 C7 1.499198 1_555
C24 C48 1.369852 1_555
C24 C36 1.395584 1_555
C24 C8 1.499204 1_555
C25 C49 1.369852 1_555
C25 C36 1.395584 1_555
C25 C9 1.499204 1_555
C26 C50 1.369852 1_655
C26 C37 1.395584 1_555
C27 C51 1.369852 1_655
C27 C38 1.395584 1_555
C28 C52 1.369852 1_555
C28 C39 1.395584 1_555
C29 C53 1.369852 1_555
C29 C39 1.395584 1_555
C30 C54 1.369852 1_555
C30 C37 1.395584 1_555
C31 C55 1.369852 1_555
C31 C38 1.395584 1_555
C40 C56 1.350184 1_555
C41 C56 1.350184 1_545
C42 C57 1.350192 1_545
C43 C58 1.350184 1_555
C44 C59 1.350184 1_555
C45 C59 1.350184 1_545
C46 C57 1.350177 1_545
C47 C58 1.350184 1_555
C48 C60 1.350184 1_655
C49 C60 1.350184 1_655
C50 C61 1.350184 1_555
C51 C62 1.350184 1_555
C52 C63 1.350184 1_555
C53 C63 1.350184 1_555
C54 C61 1.350184 1_655
C55 C62 1.350184 1_655
Br0 C56 1.884600 1_555
Br1 C57 1.884599 1_655
Br2 C58 1.884601 1_655
Br3 C59 1.884601 1_555
Br4 C60 1.884600 1_545
Br5 C61 1.884600 1_555
Br6 C62 1.884601 1_555
Br7 C63 1.884601 1_545
