# generated using pymatgen
data_MnO2
_symmetry_space_group_name_H-M   'P 1'
_cell_length_a   7.11864215
_cell_length_b   7.11864256
_cell_length_c   7.11864232
_cell_angle_alpha   23.13915309
_cell_angle_beta   23.13916259
_cell_angle_gamma   23.13916856
_symmetry_Int_Tables_number   1
_chemical_formula_structural   MnO2
_chemical_formula_sum   'Mn1 O2'
_cell_volume   48.89804980
_cell_formula_units_Z   1
loop_
 _symmetry_equiv_pos_site_id
 _symmetry_equiv_pos_as_xyz
  1  'x, y, z'
loop_
 _atom_site_type_symbol
 _atom_site_label
 _atom_site_symmetry_multiplicity
 _atom_site_fract_x
 _atom_site_fract_y
 _atom_site_fract_z
 _atom_site_occupancy
  Mn  Mn0  1  -0.00000000  0.00000000  0.00000000  1
  O  O0  1  0.62096368  0.62096368  0.62096368  1
  O  O1  1  0.37903632  0.37903632  0.37903632  1
loop_
_geom_bond_atom_site_label_1
_geom_bond_atom_site_label_2
_geom_bond_distance
_geom_bond_site_symmetry_2
Mn0 O1 1.902448 1_554
Mn0 O0 1.902448 1_445
Mn0 O1 1.902448 1_545
Mn0 O0 1.902448 1_454
Mn0 O0 1.902449 1_544
Mn0 O1 1.902449 1_455
