# generated using pymatgen
data_MgSi2
_symmetry_space_group_name_H-M   'P 1'
_cell_length_a   5.52000944
_cell_length_b   5.52000944
_cell_length_c   12.13194711
_cell_angle_alpha   70.48150705
_cell_angle_beta   70.48150705
_cell_angle_gamma   40.31486534
_symmetry_Int_Tables_number   1
_chemical_formula_structural   MgSi2
_chemical_formula_sum   'Mg4 Si8'
_cell_volume   223.50882834
_cell_formula_units_Z   4
loop_
 _symmetry_equiv_pos_site_id
 _symmetry_equiv_pos_as_xyz
  1  'x, y, z'
loop_
 _atom_site_type_symbol
 _atom_site_label
 _atom_site_symmetry_multiplicity
 _atom_site_fract_x
 _atom_site_fract_y
 _atom_site_fract_z
 _atom_site_occupancy
  Mg  Mg0  1  0.20740400  0.20740400  0.87611600  1
  Mg  Mg1  1  0.24331300  0.24331300  0.13413400  1
  Mg  Mg2  1  0.32255700  0.32255700  0.41712100  1
  Mg  Mg3  1  0.87534800  0.87534800  0.61888800  1
  Si  Si0  1  0.55243000  0.55243000  0.08749400  1
  Si  Si1  1  0.46019400  0.46019400  0.93182600  1
  Si  Si2  1  0.15973900  0.15973900  0.65277700  1
  Si  Si3  1  0.02459300  0.02459300  0.36235000  1
  Si  Si4  1  0.94690900  0.94690900  0.82151400  1
  Si  Si5  1  0.92876400  0.92876400  0.20827800  1
  Si  Si6  1  0.67483400  0.67483400  0.33566800  1
  Si  Si7  1  0.60192400  0.60192400  0.55406500  1
loop_
_geom_bond_atom_site_label_1
_geom_bond_atom_site_label_2
_geom_bond_distance
_geom_bond_site_symmetry_2
Mg0 Si2 2.922051 1_555
Mg0 Si1 2.929321 1_555
Mg0 Si4 3.000051 1_445
Mg0 Si4 3.007987 1_455
Mg0 Si4 3.007987 1_545
Mg0 Si1 3.067019 1_545
Mg0 Si1 3.067019 1_455
Mg0 Si0 3.137266 1_456
Mg0 Si0 3.137266 1_546
Mg1 Si1 2.673816 1_554
Mg1 Si3 2.887312 1_555
Mg1 Si0 2.940901 1_545
Mg1 Si0 2.940901 1_455
Mg1 Si6 2.977398 1_455
Mg1 Si6 2.977398 1_545
Mg1 Si0 3.048455 1_555
Mg1 Si5 3.057603 1_445
Mg1 Si5 3.058123 1_455
Mg1 Si5 3.058123 1_545
Mg2 Si3 2.730161 1_565
Mg2 Si3 2.730161 1_655
Mg2 Si2 2.754458 1_555
Mg2 Si6 2.831193 1_455
Mg2 Si6 2.831193 1_545
Mg2 Si7 2.983784 1_455
Mg2 Si7 2.983784 1_545
Mg2 Si5 3.043726 1_455
Mg2 Si5 3.043726 1_545
Mg3 Si4 2.809052 1_555
Mg3 Si2 2.850715 1_655
Mg3 Si2 2.850715 1_565
Mg3 Si7 2.904535 1_565
Mg3 Si7 2.904535 1_655
Mg3 Si3 2.941462 1_665
Mg3 Si2 3.117471 1_665
Si0 Si1 2.401140 1_554
Si0 Si5 2.464018 1_455
Si0 Si5 2.464018 1_545
Si1 Si4 2.357865 1_545
Si1 Si4 2.357865 1_455
Si2 Si4 2.416973 1_445
Si2 Si7 2.433585 1_455
Si2 Si7 2.433585 1_545
Si3 Si6 2.406000 1_455
Si3 Si6 2.406000 1_545
Si3 Si5 2.408664 1_445
Si5 Si6 2.533602 1_555
Si6 Si7 2.483167 1_555
