# generated using pymatgen
data_K3OsF6
_symmetry_space_group_name_H-M   'P 1'
_cell_length_a   8.07547477
_cell_length_b   6.85264593
_cell_length_c   6.78505738
_cell_angle_alpha   81.15617330
_cell_angle_beta   105.42855095
_cell_angle_gamma   127.76465595
_symmetry_Int_Tables_number   1
_chemical_formula_structural   K3OsF6
_chemical_formula_sum   'K3 Os1 F6'
_cell_volume   286.10711460
_cell_formula_units_Z   1
loop_
 _symmetry_equiv_pos_site_id
 _symmetry_equiv_pos_as_xyz
  1  'x, y, z'
loop_
 _atom_site_type_symbol
 _atom_site_label
 _atom_site_symmetry_multiplicity
 _atom_site_fract_x
 _atom_site_fract_y
 _atom_site_fract_z
 _atom_site_occupancy
  K  K0  1  0.00000000  0.00000000  0.50000000  1
  K  K1  1  0.50000000  0.50000000  0.00000000  1
  K  K2  1  0.00000000  0.50000000  0.00000000  1
  Os  Os0  1  0.00000000  0.00000000  0.00000000  1
  F  F0  1  0.06332600  0.27058100  0.78624700  1
  F  F1  1  0.93667400  0.72941900  0.21375300  1
  F  F2  1  0.80686600  0.70438400  0.79324900  1
  F  F3  1  0.19313400  0.29561600  0.20675100  1
  F  F4  1  0.75859400  0.98425200  0.06305600  1
  F  F5  1  0.24140600  0.01574800  0.93694400  1
loop_
_geom_bond_atom_site_label_1
_geom_bond_atom_site_label_2
_geom_bond_distance
_geom_bond_site_symmetry_2
F0 Os0 2.051669 1_556
F0 K0 2.624720 1_555
F0 K2 2.630018 1_556
F0 K1 2.863513 1_556
F1 Os0 2.051669 1_665
F1 K0 2.624720 1_665
F1 K2 2.630018 1_655
F1 K1 2.863513 1_555
F2 Os0 2.084205 1_666
F2 K0 2.652751 1_665
F2 K1 2.657977 1_556
F2 K2 2.696162 1_656
F3 Os0 2.084205 1_555
F3 K0 2.652751 1_555
F3 K1 2.657977 1_555
F3 K2 2.696162 1_555
F4 Os0 2.041328 1_665
F4 K1 2.651247 1_555
F4 K2 2.830928 1_665
F4 K0 3.060556 1_665
F5 Os0 2.041328 1_556
F5 K1 2.651247 1_556
F5 K2 2.830928 1_546
F5 K0 3.060556 1_555
