# generated using pymatgen
data_MgCr4(CuO4)3
_symmetry_space_group_name_H-M   'P 1'
_cell_length_a   7.34450067
_cell_length_b   7.34242899
_cell_length_c   7.34156677
_cell_angle_alpha   90.06930351
_cell_angle_beta   89.87769811
_cell_angle_gamma   90.11522846
_symmetry_Int_Tables_number   1
_chemical_formula_structural   MgCr4(CuO4)3
_chemical_formula_sum   'Mg2 Cr8 Cu6 O24'
_cell_volume   395.90282423
_cell_formula_units_Z   2
loop_
 _symmetry_equiv_pos_site_id
 _symmetry_equiv_pos_as_xyz
  1  'x, y, z'
loop_
 _atom_site_type_symbol
 _atom_site_label
 _atom_site_symmetry_multiplicity
 _atom_site_fract_x
 _atom_site_fract_y
 _atom_site_fract_z
 _atom_site_occupancy
  Mg  Mg0  1  0.99999400  0.99999900  0.00000000  1
  Mg  Mg1  1  0.49999900  0.49999200  0.50000800  1
  Cr  Cr0  1  0.74999700  0.75000200  0.75000100  1
  Cr  Cr1  1  0.75000200  0.25000100  0.25000100  1
  Cr  Cr2  1  0.75000100  0.25000400  0.74999500  1
  Cr  Cr3  1  0.25000000  0.24999800  0.75000100  1
  Cr  Cr4  1  0.25000300  0.25001000  0.24999800  1
  Cr  Cr5  1  0.25000200  0.74999700  0.74999400  1
  Cr  Cr6  1  0.25000000  0.74999500  0.25000200  1
  Cr  Cr7  1  0.74999600  0.74999500  0.25000200  1
  Cu  Cu0  1  0.50000200  0.00000100  0.49999700  1
  Cu  Cu1  1  0.00000200  0.50000500  0.50000400  1
  Cu  Cu2  1  0.49999400  0.49999700  0.99999800  1
  Cu  Cu3  1  0.99999900  0.49999700  0.00000900  1
  Cu  Cu4  1  0.50000100  0.99999300  0.99999800  1
  Cu  Cu5  1  0.00000400  0.00000000  0.50000200  1
  O  O0  1  0.80800200  0.49970800  0.33163200  1
  O  O1  1  0.30800500  0.99970800  0.83161500  1
  O  O2  1  0.69199800  0.00028900  0.16837700  1
  O  O3  1  0.19199800  0.50028800  0.66837000  1
  O  O4  1  0.19131900  0.49931200  0.33069800  1
  O  O5  1  0.69132600  0.99930800  0.83068500  1
  O  O6  1  0.16934600  0.69130100  0.99953700  1
  O  O7  1  0.66933500  0.19130900  0.49952500  1
  O  O8  1  0.99950500  0.83118700  0.30821900  1
  O  O9  1  0.49949600  0.33119700  0.80820200  1
  O  O10  1  0.50015500  0.66888400  0.80846000  1
  O  O11  1  0.00015600  0.16890300  0.30846600  1
  O  O12  1  0.16836700  0.30801600  0.99971400  1
  O  O13  1  0.66835600  0.80802000  0.49971000  1
  O  O14  1  0.50049300  0.66879900  0.19178100  1
  O  O15  1  0.00050100  0.16880900  0.69179500  1
  O  O16  1  0.30868300  0.00069000  0.16931400  1
  O  O17  1  0.80867400  0.50069400  0.66930500  1
  O  O18  1  0.33066800  0.80870600  0.50046000  1
  O  O19  1  0.83065300  0.30869900  0.00047200  1
  O  O20  1  0.99984600  0.83110300  0.69153600  1
  O  O21  1  0.49984400  0.33111000  0.19153600  1
  O  O22  1  0.33164800  0.19198600  0.50028800  1
  O  O23  1  0.83162800  0.69198100  0.00029100  1
loop_
_geom_bond_atom_site_label_1
_geom_bond_atom_site_label_2
_geom_bond_distance
_geom_bond_site_symmetry_2
Mg0 O23 2.575400 1_555
Mg0 O12 2.575418 1_664
Mg0 O2 2.575488 1_565
Mg0 O1 2.575613 1_654
Mg0 O20 2.580607 1_554
Mg0 O11 2.580648 1_665
Mg0 O15 2.581257 1_664
Mg0 O8 2.581355 1_555
Mg0 O19 2.587601 1_565
Mg0 O6 2.587627 1_654
Mg0 O5 2.587756 1_554
Mg0 O16 2.587888 1_665
Mg1 O22 2.575270 1_555
Mg1 O13 2.575432 1_555
Mg1 O3 2.575468 1_555
Mg1 O0 2.575530 1_555
Mg1 O10 2.580516 1_555
Mg1 O21 2.580609 1_555
Mg1 O9 2.581133 1_555
Mg1 O14 2.581388 1_555
Mg1 O7 2.587473 1_555
Mg1 O18 2.587655 1_555
Mg1 O17 2.587737 1_555
Mg1 O4 2.587816 1_555
Cr0 O5 1.971494 1_555
Cr0 O17 1.971544 1_555
Cr0 O10 1.974562 1_555
Cr0 O20 1.974582 1_555
Cr0 O23 1.981172 1_556
Cr0 O13 1.981196 1_555
Cr1 O7 1.972008 1_555
Cr1 O19 1.972017 1_555
Cr1 O0 1.974201 1_555
Cr1 O2 1.974226 1_555
Cr1 O11 1.980580 1_655
Cr1 O21 1.980632 1_555
Cr2 O7 1.979842 1_555
Cr2 O19 1.979859 1_556
Cr2 O17 1.980671 1_555
Cr2 O5 1.980715 1_545
Cr2 O15 1.980727 1_655
Cr2 O9 1.980767 1_555
Cr3 O9 1.973356 1_555
Cr3 O15 1.973362 1_555
Cr3 O12 1.973908 1_555
Cr3 O22 1.973932 1_555
Cr3 O1 1.981080 1_545
Cr3 O3 1.981114 1_555
Cr4 O4 1.971523 1_555
Cr4 O16 1.971604 1_555
Cr4 O21 1.974520 1_555
Cr4 O11 1.974586 1_555
Cr4 O12 1.981118 1_554
Cr4 O22 1.981208 1_555
Cr5 O18 1.972101 1_555
Cr5 O6 1.972120 1_555
Cr5 O3 1.974206 1_555
Cr5 O1 1.974211 1_555
Cr5 O20 1.980600 1_455
Cr5 O10 1.980608 1_555
Cr6 O6 1.979780 1_554
Cr6 O18 1.979790 1_555
Cr6 O4 1.980649 1_555
Cr6 O8 1.980713 1_455
Cr6 O14 1.980714 1_555
Cr6 O16 1.980717 1_565
Cr7 O14 1.973429 1_555
Cr7 O8 1.973455 1_555
Cr7 O23 1.973886 1_555
Cr7 O13 1.973901 1_555
Cr7 O0 1.981097 1_555
Cr7 O2 1.981121 1_565
Cu0 O18 1.874172 1_545
Cu0 O7 1.874238 1_555
Cu0 O13 1.876929 1_545
Cu0 O22 1.876951 1_555
Cu1 O4 1.874018 1_555
Cu1 O17 1.874054 1_455
Cu1 O3 1.877158 1_555
Cu1 O0 1.877209 1_455
Cu2 O14 1.874668 1_556
Cu2 O9 1.874730 1_555
Cu2 O10 1.875973 1_555
Cu2 O21 1.875973 1_556
Cu3 O19 1.874247 1_555
Cu3 O6 1.874285 1_654
Cu3 O12 1.876996 1_654
Cu3 O23 1.877028 1_555
Cu4 O16 1.874073 1_566
Cu4 O5 1.874096 1_555
Cu4 O2 1.877226 1_566
Cu4 O1 1.877240 1_555
Cu5 O8 1.874721 1_445
Cu5 O15 1.874757 1_555
Cu5 O20 1.876000 1_445
Cu5 O11 1.876040 1_555
