# generated using pymatgen
data_Ca2CoIrO6
_symmetry_space_group_name_H-M   'P 1'
_cell_length_a   5.38106767
_cell_length_b   11.15050924
_cell_length_c   7.65725887
_cell_angle_alpha   90.15487685
_cell_angle_beta   90.13953885
_cell_angle_gamma   89.95075824
_symmetry_Int_Tables_number   1
_chemical_formula_structural   Ca2CoIrO6
_chemical_formula_sum   'Ca8 Co4 Ir4 O24'
_cell_volume   459.44491838
_cell_formula_units_Z   4
loop_
 _symmetry_equiv_pos_site_id
 _symmetry_equiv_pos_as_xyz
  1  'x, y, z'
loop_
 _atom_site_type_symbol
 _atom_site_label
 _atom_site_symmetry_multiplicity
 _atom_site_fract_x
 _atom_site_fract_y
 _atom_site_fract_z
 _atom_site_occupancy
  Ca  Ca0  1  0.01451700  0.46999300  0.24748700  1
  Ca  Ca1  1  0.01587400  0.97156100  0.24709000  1
  Ca  Ca2  1  0.48419000  0.22190100  0.25014700  1
  Ca  Ca3  1  0.48493600  0.71825200  0.25134700  1
  Ca  Ca4  1  0.51430700  0.27966200  0.74786400  1
  Ca  Ca5  1  0.51473700  0.77901200  0.75113100  1
  Ca  Ca6  1  0.98616200  0.03144900  0.75152300  1
  Ca  Ca7  1  0.98503800  0.52794100  0.75174700  1
  Co  Co0  1  0.00040400  0.75016400  0.00026700  1
  Co  Co1  1  0.50054300  0.49954500  0.49929200  1
  Co  Co2  1  0.99964900  0.25022600  0.99944800  1
  Co  Co3  1  0.49981300  0.00017100  0.50036800  1
  Ir  Ir0  1  0.99817400  0.25243200  0.49934100  1
  Ir  Ir1  1  0.00120000  0.74782500  0.50027000  1
  Ir  Ir2  1  0.50246200  0.00263800  0.00036400  1
  Ir  Ir3  1  0.49868800  0.49720500  0.99938000  1
  O  O0  1  0.09616200  0.23710000  0.75120600  1
  O  O1  1  0.09754500  0.73235400  0.74486900  1
  O  O2  1  0.40386400  0.48381900  0.74823700  1
  O  O3  1  0.40477500  0.98722400  0.75436300  1
  O  O4  1  0.59666400  0.01642700  0.24689600  1
  O  O5  1  0.59562900  0.51226000  0.25099500  1
  O  O6  1  0.90257100  0.26628500  0.24774600  1
  O  O7  1  0.90203700  0.76391400  0.25613200  1
  O  O8  1  0.19865500  0.10369900  0.04772600  1
  O  O9  1  0.20547200  0.59636000  0.04759900  1
  O  O10  1  0.29969200  0.35251700  0.45288800  1
  O  O11  1  0.29437400  0.84569200  0.45177800  1
  O  O12  1  0.70633000  0.15456900  0.54692600  1
  O  O13  1  0.69897800  0.64693000  0.54889000  1
  O  O14  1  0.80019700  0.39667000  0.95237300  1
  O  O15  1  0.79778800  0.90424900  0.95165800  1
  O  O16  1  0.18980100  0.10621300  0.44870300  1
  O  O17  1  0.19938000  0.59909100  0.44850900  1
  O  O18  1  0.29936900  0.35006600  0.04855300  1
  O  O19  1  0.31143700  0.85638500  0.05067200  1
  O  O20  1  0.70005100  0.15121800  0.94991500  1
  O  O21  1  0.68945500  0.64292300  0.95157300  1
  O  O22  1  0.79918900  0.40109500  0.55007500  1
  O  O23  1  0.80989400  0.89296100  0.55465000  1
loop_
_geom_bond_atom_site_label_1
_geom_bond_atom_site_label_2
_geom_bond_distance
_geom_bond_site_symmetry_2
Ca0 O5 2.302618 1_455
Ca0 O9 2.325040 1_555
Ca0 O17 2.326829 1_555
Ca0 O6 2.350475 1_455
Ca0 O18 2.540665 1_555
Ca0 O10 2.557414 1_555
Ca0 O14 2.661570 1_454
Ca0 O22 2.706561 1_455
Ca1 O4 2.310184 1_465
Ca1 O8 2.343230 1_565
Ca1 O16 2.344445 1_565
Ca1 O7 2.396764 1_455
Ca1 O19 2.537450 1_555
Ca1 O11 2.582465 1_555
Ca1 O15 2.652825 1_454
Ca1 O23 2.751099 1_455
Ca2 O6 2.305634 1_555
Ca2 O18 2.327300 1_555
Ca2 O10 2.347278 1_555
Ca2 O4 2.369309 1_555
Ca2 O8 2.545829 1_555
Ca2 O16 2.551657 1_555
Ca2 O12 2.674193 1_555
Ca2 O20 2.693926 1_554
Ca3 O7 2.302085 1_555
Ca3 O11 2.328011 1_555
Ca3 O19 2.368237 1_555
Ca3 O5 2.372393 1_555
Ca3 O17 2.536040 1_555
Ca3 O9 2.554107 1_555
Ca3 O13 2.673094 1_555
Ca3 O21 2.680684 1_554
Ca4 O0 2.300189 1_555
Ca4 O12 2.318265 1_555
Ca4 O20 2.333651 1_555
Ca4 O2 2.352253 1_555
Ca4 O14 2.549873 1_555
Ca4 O22 2.550129 1_555
Ca4 O10 2.662894 1_555
Ca4 O18 2.693870 1_556
Ca5 O1 2.305226 1_555
Ca5 O13 2.354320 1_555
Ca5 O21 2.354876 1_555
Ca5 O3 2.395472 1_555
Ca5 O23 2.534945 1_555
Ca5 O15 2.570675 1_555
Ca5 O19 2.683635 1_556
Ca5 O11 2.684708 1_555
Ca6 O3 2.305580 1_645
Ca6 O15 2.325832 1_545
Ca6 O23 2.353680 1_545
Ca6 O0 2.368778 1_655
Ca6 O20 2.541360 1_555
Ca6 O12 2.569654 1_555
Ca6 O8 2.660798 1_656
Ca6 O16 2.701268 1_655
Ca7 O2 2.306597 1_655
Ca7 O22 2.316997 1_555
Ca7 O14 2.348190 1_555
Ca7 O1 2.359601 1_655
Ca7 O21 2.551992 1_555
Ca7 O13 2.557079 1_555
Ca7 O9 2.664631 1_656
Ca7 O17 2.715852 1_655
Co0 O1 2.034684 1_554
Co0 O7 2.036059 1_455
Co0 O15 2.068210 1_454
Co0 O9 2.070844 1_555
Co0 O19 2.085867 1_555
Co0 O21 2.089655 1_454
Co1 O5 1.975618 1_555
Co1 O22 1.983708 1_555
Co1 O2 1.985428 1_555
Co1 O10 1.995031 1_555
Co1 O13 1.995722 1_555
Co1 O17 2.001433 1_555
Co2 O0 1.976754 1_655
Co2 O6 1.980570 1_556
Co2 O14 1.986596 1_555
Co2 O8 1.987765 1_656
Co2 O20 1.989854 1_555
Co2 O18 1.994939 1_656
Co3 O3 2.017802 1_545
Co3 O4 2.019543 1_555
Co3 O12 2.079435 1_555
Co3 O11 2.079760 1_545
Co3 O16 2.081690 1_555
Co3 O23 2.093287 1_545
Ir0 O12 1.948762 1_555
Ir0 O16 1.966604 1_655
Ir0 O6 1.999167 1_555
Ir0 O10 2.003127 1_655
Ir0 O0 2.005843 1_655
Ir0 O22 2.010171 1_555
Ir1 O1 1.950224 1_555
Ir1 O7 1.951529 1_455
Ir1 O11 1.955896 1_555
Ir1 O23 1.961562 1_455
Ir1 O17 2.010049 1_555
Ir1 O13 2.014307 1_455
Ir2 O4 1.959116 1_555
Ir2 O3 1.961566 1_544
Ir2 O15 1.966172 1_544
Ir2 O19 1.967921 1_545
Ir2 O20 2.008231 1_554
Ir2 O8 2.017793 1_555
Ir3 O21 1.958509 1_555
Ir3 O9 1.961090 1_556
Ir3 O2 1.993646 1_555
Ir3 O18 1.998070 1_556
Ir3 O5 2.001475 1_556
Ir3 O14 2.004018 1_555
