# generated using pymatgen
data_GdMgTl
_symmetry_space_group_name_H-M   'P 1'
_cell_length_a   7.57311235
_cell_length_b   7.56568368
_cell_length_c   4.67298841
_cell_angle_alpha   90.00000000
_cell_angle_beta   90.00000000
_cell_angle_gamma   119.96756894
_symmetry_Int_Tables_number   1
_chemical_formula_structural   GdMgTl
_chemical_formula_sum   'Gd3 Mg3 Tl3'
_cell_volume   231.94752781
_cell_formula_units_Z   3
loop_
 _symmetry_equiv_pos_site_id
 _symmetry_equiv_pos_as_xyz
  1  'x, y, z'
loop_
 _atom_site_type_symbol
 _atom_site_label
 _atom_site_symmetry_multiplicity
 _atom_site_fract_x
 _atom_site_fract_y
 _atom_site_fract_z
 _atom_site_occupancy
  Gd  Gd0  1  0.57074509  0.57087283  0.00000000  1
  Gd  Gd1  1  0.42925491  0.00012774  0.00000000  1
  Gd  Gd2  1  0.00000000  0.42921647  0.00000000  1
  Mg  Mg0  1  0.24289084  0.24279027  0.50000000  1
  Mg  Mg1  1  0.75710916  0.99989943  0.50000000  1
  Mg  Mg2  1  0.99999900  0.75724021  0.50000000  1
  Tl  Tl0  1  0.66667892  0.33328594  0.50000000  1
  Tl  Tl1  1  0.33332208  0.66660702  0.50000000  1
  Tl  Tl2  1  0.99999900  0.99995910  0.00000000  1
loop_
_geom_bond_atom_site_label_1
_geom_bond_atom_site_label_2
_geom_bond_distance
_geom_bond_site_symmetry_2
Gd0 Tl1 3.243108 1_555
Gd0 Tl1 3.243108 1_554
Gd0 Tl0 3.243872 1_555
Gd0 Tl0 3.243872 1_554
Gd0 Tl2 3.250154 1_555
Gd1 Tl0 3.243113 1_554
Gd1 Tl0 3.243113 1_555
Gd1 Tl1 3.243873 1_545
Gd1 Tl1 3.243873 1_544
Gd1 Tl2 3.250166 1_445
Gd2 Tl0 3.244637 1_454
Gd2 Tl0 3.244637 1_455
Gd2 Tl1 3.244640 1_555
Gd2 Tl1 3.244640 1_554
Gd2 Tl2 3.247622 1_445
Mg0 Tl1 2.925174 1_555
Mg0 Tl0 2.928102 1_555
Mg0 Tl2 2.973538 1_445
Mg0 Tl2 2.973538 1_446
Mg1 Tl0 2.925176 1_565
Mg1 Tl1 2.928097 1_555
Mg1 Tl2 2.973531 1_556
Mg1 Tl2 2.973531 1_555
Mg2 Tl0 2.927688 1_555
Mg2 Tl1 2.927705 1_655
Mg2 Tl2 2.971755 1_555
Mg2 Tl2 2.971755 1_556
