# generated using pymatgen
data_SrCdPt
_symmetry_space_group_name_H-M   'P 1'
_cell_length_a   4.48455244
_cell_length_b   7.55149527
_cell_length_c   8.64259598
_cell_angle_alpha   90.00000000
_cell_angle_beta   90.00000000
_cell_angle_gamma   90.00000000
_symmetry_Int_Tables_number   1
_chemical_formula_structural   SrCdPt
_chemical_formula_sum   'Sr4 Cd4 Pt4'
_cell_volume   292.68217436
_cell_formula_units_Z   4
loop_
 _symmetry_equiv_pos_site_id
 _symmetry_equiv_pos_as_xyz
  1  'x, y, z'
loop_
 _atom_site_type_symbol
 _atom_site_label
 _atom_site_symmetry_multiplicity
 _atom_site_fract_x
 _atom_site_fract_y
 _atom_site_fract_z
 _atom_site_occupancy
  Sr  Sr0  1  0.25000000  0.02949654  0.31919535  1
  Sr  Sr1  1  0.25000000  0.52949654  0.18080465  1
  Sr  Sr2  1  0.75000000  0.97050346  0.68080465  1
  Sr  Sr3  1  0.75000000  0.47050346  0.81919535  1
  Cd  Cd0  1  0.25000000  0.14488985  0.93434097  1
  Cd  Cd1  1  0.25000000  0.64488985  0.56565903  1
  Cd  Cd2  1  0.75000000  0.85511015  0.06565903  1
  Cd  Cd3  1  0.75000000  0.35511015  0.43434097  1
  Pt  Pt0  1  0.25000000  0.27029540  0.62254510  1
  Pt  Pt1  1  0.25000000  0.77029540  0.87745490  1
  Pt  Pt2  1  0.75000000  0.72970460  0.37745490  1
  Pt  Pt3  1  0.75000000  0.22970460  0.12254510  1
loop_
_geom_bond_atom_site_label_1
_geom_bond_atom_site_label_2
_geom_bond_distance
_geom_bond_site_symmetry_2
Sr0 Sr2 3.872132 1_545
Sr0 Sr2 3.872132 1_445
Sr0 Sr1 3.960659 1_545
Sr0 Sr1 3.960659 1_555
Sr1 Sr3 3.872132 1_454
Sr1 Sr3 3.872132 1_554
Sr2 Sr3 3.960659 1_555
Sr2 Sr3 3.960659 1_565
Cd0 Pt3 2.843194 1_456
Cd0 Pt3 2.843194 1_556
Cd0 Pt0 2.856283 1_555
Cd0 Pt1 2.871155 1_545
Cd0 Sr2 3.400497 1_545
Cd0 Sr2 3.400497 1_445
Cd0 Sr0 3.438392 1_556
Cd0 Sr3 3.473353 1_455
Cd0 Sr3 3.473353 1_555
Cd0 Sr1 3.601742 1_556
Cd1 Pt2 2.843194 1_455
Cd1 Pt2 2.843194 1_555
Cd1 Pt1 2.856283 1_555
Cd1 Pt0 2.871155 1_555
Cd1 Sr3 3.400497 1_555
Cd1 Sr3 3.400497 1_455
Cd1 Sr1 3.438392 1_555
Cd1 Sr2 3.473353 1_455
Cd1 Sr2 3.473353 1_555
Cd1 Sr0 3.601742 1_565
Cd2 Pt1 2.843194 1_554
Cd2 Pt1 2.843194 1_654
Cd2 Pt2 2.856283 1_555
Cd2 Pt3 2.871155 1_565
Cd2 Sr0 3.400497 1_565
Cd2 Sr0 3.400497 1_665
Cd2 Sr2 3.438392 1_554
Cd2 Sr1 3.473353 1_655
Cd2 Sr1 3.473353 1_555
Cd2 Sr3 3.601742 1_554
Cd3 Pt0 2.843194 1_555
Cd3 Pt0 2.843194 1_655
Cd3 Pt3 2.856283 1_555
Cd3 Pt2 2.871155 1_555
Cd3 Sr1 3.400497 1_555
Cd3 Sr1 3.400497 1_655
Cd3 Sr3 3.438392 1_555
Cd3 Sr0 3.473353 1_655
Cd3 Sr0 3.473353 1_555
Cd3 Sr2 3.601742 1_545
Pt0 Sr0 3.190613 1_555
Pt0 Sr3 3.194071 1_455
Pt0 Sr3 3.194071 1_555
Pt0 Sr2 3.225906 1_545
Pt0 Sr2 3.225906 1_445
Pt1 Sr1 3.190613 1_556
Pt1 Sr2 3.194071 1_455
Pt1 Sr2 3.194071 1_555
Pt1 Sr3 3.225906 1_555
Pt1 Sr3 3.225906 1_455
Pt2 Sr2 3.190613 1_555
Pt2 Sr1 3.194071 1_555
Pt2 Sr1 3.194071 1_655
Pt2 Sr0 3.225906 1_665
Pt2 Sr0 3.225906 1_565
Pt3 Sr3 3.190613 1_554
Pt3 Sr0 3.194071 1_655
Pt3 Sr0 3.194071 1_555
Pt3 Sr1 3.225906 1_555
Pt3 Sr1 3.225906 1_655
