# generated using pymatgen
data_CaMgCd
_symmetry_space_group_name_H-M   'P 1'
_cell_length_a   6.09932445
_cell_length_b   6.09932445
_cell_length_c   9.64329205
_cell_angle_alpha   90.00000000
_cell_angle_beta   90.00000000
_cell_angle_gamma   119.24960412
_symmetry_Int_Tables_number   1
_chemical_formula_structural   CaMgCd
_chemical_formula_sum   'Ca4 Mg4 Cd4'
_cell_volume   313.00690653
_cell_formula_units_Z   4
loop_
 _symmetry_equiv_pos_site_id
 _symmetry_equiv_pos_as_xyz
  1  'x, y, z'
loop_
 _atom_site_type_symbol
 _atom_site_label
 _atom_site_symmetry_multiplicity
 _atom_site_fract_x
 _atom_site_fract_y
 _atom_site_fract_z
 _atom_site_occupancy
  Ca  Ca0  1  0.66855265  0.33144735  0.31569310  1
  Ca  Ca1  1  0.33550359  0.66449641  0.19599922  1
  Ca  Ca2  1  0.33550359  0.66449641  0.80400078  1
  Ca  Ca3  1  0.66855265  0.33144735  0.68430690  1
  Mg  Mg0  1  0.16347067  0.83652933  0.50000000  1
  Mg  Mg1  1  0.33472933  0.16497297  -0.00000000  1
  Mg  Mg2  1  0.83502703  0.66527067  -0.00000000  1
  Mg  Mg3  1  0.83270539  0.16729461  -0.00000000  1
  Cd  Cd0  1  0.00114301  0.99885699  0.24911357  1
  Cd  Cd1  1  0.00114301  0.99885699  0.75088643  1
  Cd  Cd2  1  0.65606166  0.83233659  0.50000000  1
  Cd  Cd3  1  0.16766341  0.34393834  0.50000000  1
loop_
_geom_bond_atom_site_label_1
_geom_bond_atom_site_label_2
_geom_bond_distance
_geom_bond_site_symmetry_2
Ca0 Cd2 3.493627 1_545
Ca0 Cd3 3.493627 1_655
Ca0 Mg3 3.500342 1_555
Ca0 Mg2 3.524803 1_555
Ca0 Mg1 3.524803 1_555
Ca0 Ca3 3.554651 1_555
Ca0 Cd0 3.558636 1_645
Ca0 Mg0 3.560049 1_655
Ca0 Mg0 3.560049 1_545
Ca0 Cd2 3.567309 1_555
Ca0 Cd3 3.567309 1_555
Ca0 Cd0 3.609507 1_545
Ca0 Cd0 3.609507 1_655
Ca0 Ca1 3.690225 1_555
Ca0 Ca1 3.732507 1_545
Ca0 Ca1 3.732507 1_655
Ca1 Cd2 3.392472 1_555
Ca1 Cd3 3.392472 1_555
Ca1 Mg0 3.445579 1_555
Ca1 Cd0 3.555950 1_555
Ca1 Cd0 3.579576 1_655
Ca1 Cd0 3.579576 1_545
Ca1 Mg2 3.583445 1_555
Ca1 Mg1 3.583445 1_555
Ca1 Mg1 3.592309 1_565
Ca1 Mg2 3.592309 1_455
Ca1 Mg3 3.617384 1_565
Ca1 Mg3 3.617384 1_455
Ca1 Ca2 3.780155 1_554
Ca2 Cd2 3.392472 1_555
Ca2 Cd3 3.392472 1_555
Ca2 Mg0 3.445579 1_555
Ca2 Cd1 3.555950 1_555
Ca2 Cd1 3.579576 1_655
Ca2 Cd1 3.579576 1_545
Ca2 Mg2 3.583445 1_556
Ca2 Mg1 3.583445 1_556
Ca2 Mg1 3.592309 1_566
Ca2 Mg2 3.592309 1_456
Ca2 Mg3 3.617384 1_566
Ca2 Mg3 3.617384 1_456
Ca2 Ca3 3.690225 1_555
Ca2 Ca3 3.732507 1_565
Ca2 Ca3 3.732507 1_455
Ca3 Cd2 3.493627 1_545
Ca3 Cd3 3.493627 1_655
Ca3 Mg3 3.500342 1_556
Ca3 Mg2 3.524803 1_556
Ca3 Mg1 3.524803 1_556
Ca3 Cd1 3.558636 1_645
Ca3 Mg0 3.560049 1_655
Ca3 Mg0 3.560049 1_545
Ca3 Cd2 3.567309 1_555
Ca3 Cd3 3.567309 1_555
Ca3 Cd1 3.609507 1_545
Ca3 Cd1 3.609507 1_655
Mg1 Mg3 3.030424 1_555
Mg1 Mg3 3.068951 1_455
Mg1 Mg2 3.082350 1_445
Mg1 Mg2 3.086023 1_555
Mg2 Mg3 3.030424 1_555
Mg2 Mg3 3.068951 1_565
Cd0 Mg0 2.961733 1_555
Cd0 Mg3 2.985510 1_465
Cd0 Mg1 2.987095 1_565
Cd0 Mg2 2.987095 1_455
Cd0 Cd3 3.037417 1_565
Cd0 Cd2 3.037417 1_455
Cd1 Mg0 2.961733 1_555
Cd1 Mg3 2.985510 1_466
Cd1 Mg2 2.987095 1_456
Cd1 Mg1 2.987095 1_566
Cd1 Cd3 3.037417 1_565
Cd1 Cd2 3.037417 1_455
Cd2 Cd3 3.012623 1_555
Cd2 Mg0 3.017050 1_555
Cd2 Mg0 3.082438 1_655
Cd2 Cd3 3.155750 1_665
Cd3 Mg0 3.017050 1_555
Cd3 Mg0 3.082438 1_545
