# generated using pymatgen
data_CsYbMnSe3
_symmetry_space_group_name_H-M   'P 1'
_cell_length_a   8.30862066
_cell_length_b   8.30862066
_cell_length_c   10.91827403
_cell_angle_alpha   90.00000000
_cell_angle_beta   90.00000000
_cell_angle_gamma   150.94023657
_symmetry_Int_Tables_number   1
_chemical_formula_structural   CsYbMnSe3
_chemical_formula_sum   'Cs2 Yb2 Mn2 Se6'
_cell_volume   366.09964613
_cell_formula_units_Z   2
loop_
 _symmetry_equiv_pos_site_id
 _symmetry_equiv_pos_as_xyz
  1  'x, y, z'
loop_
 _atom_site_type_symbol
 _atom_site_label
 _atom_site_symmetry_multiplicity
 _atom_site_fract_x
 _atom_site_fract_y
 _atom_site_fract_z
 _atom_site_occupancy
  Cs  Cs0  1  0.25816702  0.74183298  0.25000000  1
  Cs  Cs1  1  0.74183298  0.25816702  0.75000000  1
  Yb  Yb0  1  0.00000000  0.00000000  0.00000000  1
  Yb  Yb1  1  0.00000000  0.00000000  0.50000000  1
  Mn  Mn0  1  0.53826649  0.46173351  0.25000000  1
  Mn  Mn1  1  0.46173351  0.53826649  0.75000000  1
  Se  Se0  1  0.61476526  0.38523474  0.05213348  1
  Se  Se1  1  0.38523474  0.61476526  0.94786652  1
  Se  Se2  1  0.38523474  0.61476526  0.55213348  1
  Se  Se3  1  0.61476526  0.38523474  0.44786652  1
  Se  Se4  1  0.94594493  0.05405507  0.25000000  1
  Se  Se5  1  0.05405507  0.94594493  0.75000000  1
loop_
_geom_bond_atom_site_label_1
_geom_bond_atom_site_label_2
_geom_bond_distance
_geom_bond_site_symmetry_2
Cs0 Se4 3.670001 1_565
Cs0 Se4 3.670001 1_455
Cs0 Se3 3.785938 1_455
Cs0 Se3 3.785938 1_565
Cs0 Se0 3.785938 1_455
Cs0 Se0 3.785938 1_565
Cs0 Se2 3.880694 1_555
Cs0 Se1 3.880694 1_554
Cs1 Se5 3.670001 1_655
Cs1 Se5 3.670001 1_545
Cs1 Se1 3.785938 1_655
Cs1 Se1 3.785938 1_545
Cs1 Se2 3.785938 1_655
Cs1 Se2 3.785938 1_545
Cs1 Se0 3.880694 1_556
Cs1 Se3 3.880694 1_555
Mn0 Se3 2.486241 1_555
Mn0 Se0 2.486241 1_555
Mn0 Se4 2.559411 1_565
Mn0 Se4 2.559411 1_455
Mn1 Se1 2.486241 1_555
Mn1 Se2 2.486241 1_555
Mn1 Se5 2.559411 1_545
Mn1 Se5 2.559411 1_655
Se0 Yb0 2.842043 1_555
Se0 Yb0 2.842043 1_665
Se1 Yb0 2.842043 1_556
Se1 Yb0 2.842043 1_666
Se2 Yb1 2.842043 1_555
Se2 Yb1 2.842043 1_665
Se3 Yb1 2.842043 1_555
Se3 Yb1 2.842043 1_665
Se4 Yb0 2.864717 1_655
Se4 Yb1 2.864717 1_655
Se5 Yb0 2.864717 1_566
Se5 Yb1 2.864717 1_565
