# generated using pymatgen
data_YbSi
_symmetry_space_group_name_H-M   'P 1'
_cell_length_a   5.56130524
_cell_length_b   5.56130524
_cell_length_c   3.75773368
_cell_angle_alpha   90.00000000
_cell_angle_beta   90.00000000
_cell_angle_gamma   135.90069070
_symmetry_Int_Tables_number   1
_chemical_formula_structural   YbSi
_chemical_formula_sum   'Yb2 Si2'
_cell_volume   80.87771676
_cell_formula_units_Z   2
loop_
 _symmetry_equiv_pos_site_id
 _symmetry_equiv_pos_as_xyz
  1  'x, y, z'
loop_
 _atom_site_type_symbol
 _atom_site_label
 _atom_site_symmetry_multiplicity
 _atom_site_fract_x
 _atom_site_fract_y
 _atom_site_fract_z
 _atom_site_occupancy
  Yb  Yb0  1  0.14059701  0.85940299  0.25000000  1
  Yb  Yb1  1  0.85940299  0.14059701  0.75000000  1
  Si  Si0  1  0.42219898  0.57780102  0.25000000  1
  Si  Si1  1  0.57780102  0.42219898  0.75000000  1
loop_
_geom_bond_atom_site_label_1
_geom_bond_atom_site_label_2
_geom_bond_distance
_geom_bond_site_symmetry_2
Si0 Si1 2.470491 1_554
Si0 Si1 2.470491 1_555
Si0 Yb1 2.882362 1_564
Si0 Yb1 2.882362 1_455
Si0 Yb1 2.882362 1_454
Si0 Yb1 2.882362 1_565
Si0 Yb0 2.903060 1_555
Si0 Yb0 3.070499 1_545
Si0 Yb0 3.070499 1_655
Si1 Yb0 2.882362 1_545
Si1 Yb0 2.882362 1_546
Si1 Yb0 2.882362 1_655
Si1 Yb0 2.882362 1_656
Si1 Yb1 2.903060 1_555
Si1 Yb1 3.070499 1_565
Si1 Yb1 3.070499 1_455
