# generated using pymatgen
data_TiCrAgS4
_symmetry_space_group_name_H-M   'P 1'
_cell_length_a   3.48848600
_cell_length_b   5.93466100
_cell_length_c   6.54156847
_cell_angle_alpha   88.53081740
_cell_angle_beta   90.00000000
_cell_angle_gamma   90.00000000
_symmetry_Int_Tables_number   1
_chemical_formula_structural   TiCrAgS4
_chemical_formula_sum   'Ti1 Cr1 Ag1 S4'
_cell_volume   135.38545192
_cell_formula_units_Z   1
loop_
 _symmetry_equiv_pos_site_id
 _symmetry_equiv_pos_as_xyz
  1  'x, y, z'
loop_
 _atom_site_type_symbol
 _atom_site_label
 _atom_site_symmetry_multiplicity
 _atom_site_fract_x
 _atom_site_fract_y
 _atom_site_fract_z
 _atom_site_occupancy
  Ti  Ti0  1  0.50000000  0.50000000  0.50000000  1
  Cr  Cr0  1  0.00000000  0.00000000  0.50000000  1
  Ag  Ag0  1  0.00000000  0.00000000  0.00000000  1
  S  S0  1  0.00000000  0.32930000  0.71391800  1
  S  S1  1  0.50000000  0.83262400  0.71113300  1
  S  S2  1  0.50000000  0.16737600  0.28886700  1
  S  S3  1  0.00000000  0.67070000  0.28608200  1
loop_
_geom_bond_atom_site_label_1
_geom_bond_atom_site_label_2
_geom_bond_distance
_geom_bond_site_symmetry_2
Cr0 S2 2.422038 1_455
Cr0 S2 2.422038 1_555
Cr0 S1 2.422038 1_445
Cr0 S1 2.422038 1_545
Cr0 S0 2.432625 1_555
Cr0 S3 2.432625 1_545
Ag0 S3 2.670939 1_545
Ag0 S0 2.670939 1_554
Ag0 S2 2.774179 1_455
Ag0 S2 2.774179 1_555
Ag0 S1 2.774179 1_444
Ag0 S1 2.774179 1_544
S0 Ti0 2.440115 1_455
S0 Ti0 2.440115 1_555
S1 Ti0 2.438047 1_555
S2 Ti0 2.438047 1_555
S3 Ti0 2.440115 1_455
S3 Ti0 2.440115 1_555
