# generated using pymatgen
data_NaSrMg6
_symmetry_space_group_name_H-M   'P 1'
_cell_length_a   5.42068200
_cell_length_b   6.64685500
_cell_length_c   12.34865200
_cell_angle_alpha   90.00000000
_cell_angle_beta   90.00000000
_cell_angle_gamma   90.00000000
_symmetry_Int_Tables_number   1
_chemical_formula_structural   NaSrMg6
_chemical_formula_sum   'Na2 Sr2 Mg12'
_cell_volume   444.92794850
_cell_formula_units_Z   2
loop_
 _symmetry_equiv_pos_site_id
 _symmetry_equiv_pos_as_xyz
  1  'x, y, z'
loop_
 _atom_site_type_symbol
 _atom_site_label
 _atom_site_symmetry_multiplicity
 _atom_site_fract_x
 _atom_site_fract_y
 _atom_site_fract_z
 _atom_site_occupancy
  Na  Na0  1  0.50000000  0.00000000  0.16880100  1
  Na  Na1  1  0.50000000  0.50000000  0.66880100  1
  Sr  Sr0  1  0.50000000  0.50000000  0.17266600  1
  Sr  Sr1  1  0.50000000  0.00000000  0.67266600  1
  Mg  Mg0  1  0.50000000  0.25424000  0.42206600  1
  Mg  Mg1  1  0.50000000  0.74576000  0.42206600  1
  Mg  Mg2  1  0.00000000  0.75636800  0.06898500  1
  Mg  Mg3  1  0.00000000  0.24363200  0.06898500  1
  Mg  Mg4  1  0.00000000  0.00000000  0.33391400  1
  Mg  Mg5  1  0.00000000  0.50000000  0.34251300  1
  Mg  Mg6  1  0.50000000  0.75424000  0.92206600  1
  Mg  Mg7  1  0.50000000  0.24576000  0.92206600  1
  Mg  Mg8  1  0.00000000  0.25636800  0.56898500  1
  Mg  Mg9  1  0.00000000  0.74363200  0.56898500  1
  Mg  Mg10  1  0.00000000  0.50000000  0.83391400  1
  Mg  Mg11  1  0.00000000  0.00000000  0.84251300  1
loop_
_geom_bond_atom_site_label_1
_geom_bond_atom_site_label_2
_geom_bond_distance
_geom_bond_site_symmetry_2
Na0 Sr0 3.323770 1_545
Na0 Sr0 3.323770 1_555
Na1 Sr1 3.323770 1_565
Na1 Sr1 3.323770 1_555
Mg0 Mg8 3.261542 1_555
Mg0 Mg8 3.261542 1_655
Mg0 Mg1 3.267062 1_555
Mg0 Mg5 3.313522 1_555
Mg0 Mg5 3.313522 1_655
Mg0 Mg4 3.374412 1_655
Mg0 Mg4 3.374412 1_555
Mg0 Mg1 3.379793 1_545
Mg0 Na1 3.457121 1_555
Mg0 Sr0 3.486159 1_555
Mg0 Sr1 3.525922 1_555
Mg0 Na0 3.554840 1_555
Mg1 Mg9 3.261542 1_655
Mg1 Mg9 3.261542 1_555
Mg1 Mg5 3.313522 1_555
Mg1 Mg5 3.313522 1_655
Mg1 Mg4 3.374412 1_665
Mg1 Mg4 3.374412 1_565
Mg1 Na1 3.457121 1_555
Mg1 Sr0 3.486159 1_555
Mg1 Sr1 3.525922 1_565
Mg1 Na0 3.554840 1_565
Mg2 Mg3 3.238773 1_565
Mg2 Mg6 3.261542 1_554
Mg2 Mg6 3.261542 1_454
Mg2 Na0 3.389343 1_565
Mg2 Na0 3.389343 1_465
Mg2 Mg3 3.408082 1_555
Mg2 Sr0 3.448032 1_555
Mg2 Sr0 3.448032 1_455
Mg3 Mg7 3.261542 1_554
Mg3 Mg7 3.261542 1_454
Mg3 Na0 3.389343 1_555
Mg3 Na0 3.389343 1_455
Mg3 Sr0 3.448032 1_455
Mg3 Sr0 3.448032 1_555
Mg4 Mg5 3.325123 1_545
Mg4 Mg5 3.325123 1_555
Mg4 Mg8 3.366016 1_555
Mg4 Mg9 3.366016 1_545
Mg4 Na0 3.391630 1_555
Mg4 Na0 3.391630 1_455
Mg5 Mg9 3.231643 1_555
Mg5 Mg8 3.231643 1_555
Mg5 Sr0 3.427092 1_455
Mg5 Sr0 3.427092 1_555
Mg6 Mg7 3.267062 1_565
Mg6 Mg7 3.379793 1_555
Mg6 Na0 3.457121 1_566
Mg6 Sr1 3.486159 1_565
Mg6 Sr0 3.525922 1_556
Mg6 Na1 3.554840 1_555
Mg7 Na0 3.457121 1_556
Mg7 Sr1 3.486159 1_555
Mg7 Sr0 3.525922 1_556
Mg7 Na1 3.554840 1_555
Mg8 Mg9 3.238773 1_555
Mg8 Na1 3.389343 1_455
Mg8 Na1 3.389343 1_555
Mg8 Mg9 3.408082 1_545
Mg8 Sr1 3.448032 1_455
Mg8 Sr1 3.448032 1_555
Mg9 Na1 3.389343 1_455
Mg9 Na1 3.389343 1_555
Mg9 Sr1 3.448032 1_565
Mg9 Sr1 3.448032 1_465
Mg10 Mg11 3.325123 1_555
Mg10 Mg11 3.325123 1_565
Mg10 Mg2 3.366016 1_556
Mg10 Mg3 3.366016 1_556
Mg10 Mg6 3.374412 1_455
Mg10 Mg6 3.374412 1_555
Mg10 Mg7 3.374412 1_455
Mg10 Mg7 3.374412 1_555
Mg10 Na1 3.391630 1_455
Mg10 Na1 3.391630 1_555
Mg11 Mg3 3.231643 1_556
Mg11 Mg2 3.231643 1_546
Mg11 Mg6 3.313522 1_545
Mg11 Mg6 3.313522 1_445
Mg11 Mg7 3.313522 1_455
Mg11 Mg7 3.313522 1_555
Mg11 Sr1 3.427092 1_455
Mg11 Sr1 3.427092 1_555
