# generated using pymatgen
data_Li7Mn4CoO12
_symmetry_space_group_name_H-M   'P 1'
_cell_length_a   3.01228500
_cell_length_b   5.08903829
_cell_length_c   14.53284688
_cell_angle_alpha   87.37005540
_cell_angle_beta   86.63194837
_cell_angle_gamma   88.49939737
_symmetry_Int_Tables_number   1
_chemical_formula_structural   Li7Mn4CoO12
_chemical_formula_sum   'Li7 Mn4 Co1 O12'
_cell_volume   222.10251605
_cell_formula_units_Z   1
loop_
 _symmetry_equiv_pos_site_id
 _symmetry_equiv_pos_as_xyz
  1  'x, y, z'
loop_
 _atom_site_type_symbol
 _atom_site_label
 _atom_site_symmetry_multiplicity
 _atom_site_fract_x
 _atom_site_fract_y
 _atom_site_fract_z
 _atom_site_occupancy
  Li  Li0  1  0.99979000  0.33517100  0.16538300  1
  Li  Li1  1  0.49863100  0.15933900  0.33216900  1
  Li  Li2  1  0.01292100  0.00780800  0.50827600  1
  Li  Li3  1  0.50689300  0.85136000  0.66868200  1
  Li  Li4  1  0.98326400  0.65828500  0.82872100  1
  Li  Li5  1  0.49728000  0.50142100  0.99728200  1
  Li  Li6  1  0.00229400  0.32411400  0.66742700  1
  Mn  Mn0  1  0.97920400  0.00218400  0.99483900  1
  Mn  Mn1  1  0.51482500  0.49336700  0.50814300  1
  Mn  Mn2  1  0.49955200  0.83393800  0.16582200  1
  Mn  Mn3  1  0.02011100  0.67018900  0.33661900  1
  Co  Co0  1  0.48586900  0.17170800  0.82261500  1
  O  O0  1  0.51311600  0.14592700  0.08187800  1
  O  O1  1  0.03683600  0.98525700  0.25092500  1
  O  O2  1  0.55184900  0.81108600  0.41711100  1
  O  O3  1  0.99046900  0.64191600  0.57412200  1
  O  O4  1  0.49875100  0.47024300  0.75864600  1
  O  O5  1  0.95952400  0.30962600  0.91511000  1
  O  O6  1  0.47757300  0.51925200  0.25051200  1
  O  O7  1  0.03860800  0.36544700  0.42645300  1
  O  O8  1  0.50047400  0.18701300  0.57769400  1
  O  O9  1  0.01140400  0.00340100  0.75617400  1
  O  O10  1  0.45998800  0.86482500  0.91468700  1
  O  O11  1  0.96077400  0.68712400  0.08071100  1
loop_
_geom_bond_atom_site_label_1
_geom_bond_atom_site_label_2
_geom_bond_distance
_geom_bond_site_symmetry_2
Li0 O1 2.128766 1_645
Li0 O11 2.130671 1_555
Li0 O0 2.144763 1_655
Li0 O6 2.164073 1_555
Li0 O6 2.205834 1_655
Li0 O0 2.222532 1_555
Li1 O1 2.113639 1_545
Li1 O2 2.120876 1_545
Li1 O6 2.137847 1_555
Li1 O1 2.145491 1_645
Li1 O7 2.174983 1_555
Li1 O7 2.471133 1_655
Li2 O8 2.014945 1_455
Li2 O3 2.054981 1_445
Li2 O8 2.082084 1_555
Li2 O7 2.128494 1_555
Li2 O2 2.257726 1_445
Li2 O2 2.275280 1_545
Li3 O9 2.061538 1_565
Li3 O8 2.112028 1_565
Li3 O9 2.214478 1_665
Li3 O3 2.228082 1_555
Li3 O4 2.288609 1_555
Li3 O3 2.432481 1_455
Li4 O9 2.007673 1_665
Li4 O4 2.046911 1_655
Li4 O4 2.102431 1_555
Li4 O5 2.126331 1_555
Li4 O10 2.225432 1_555
Li4 O10 2.266751 1_655
Li5 O5 2.039115 1_555
Li5 O0 2.141246 1_556
Li5 O10 2.162146 1_555
Li5 O11 2.164637 1_556
Li5 O11 2.184013 1_456
Li5 O5 2.328055 1_455
Li6 O9 2.033876 1_555
Li6 O8 2.058668 1_555
Li6 O3 2.063263 1_455
Li6 O4 2.099115 1_455
Li6 O8 2.200633 1_455
Li6 O4 2.220027 1_555
Mn0 O5 1.905478 1_555
Mn0 O10 1.940725 1_645
Mn0 O0 1.982117 1_556
Mn0 O11 1.985984 1_546
Mn0 O10 2.153534 1_545
Mn0 O0 2.259941 1_656
Mn1 O8 1.818775 1_555
Mn1 O3 1.952380 1_455
Mn1 O3 1.956638 1_555
Mn1 O7 2.029690 1_655
Mn1 O2 2.042735 1_555
Mn1 O7 2.052057 1_555
Mn2 O0 1.957190 1_565
Mn2 O11 1.961357 1_555
Mn2 O1 1.973335 1_555
Mn2 O6 1.974577 1_555
Mn2 O11 2.259717 1_455
Mn2 O1 2.264932 1_655
Mn3 O2 1.924125 1_455
Mn3 O6 1.971046 1_555
Mn3 O7 1.982645 1_555
Mn3 O1 1.984435 1_555
Mn3 O2 2.192119 1_555
Mn3 O6 2.284971 1_455
Co0 O4 1.744457 1_555
Co0 O9 1.999331 1_655
Co0 O9 2.002701 1_555
Co0 O10 2.009448 1_545
Co0 O5 2.142715 1_455
Co0 O5 2.167864 1_555
