# generated using pymatgen
data_CaLaTiFeO6
_symmetry_space_group_name_H-M   'P 1'
_cell_length_a   7.83899935
_cell_length_b   9.55892199
_cell_length_c   7.83894843
_cell_angle_alpha   113.85740566
_cell_angle_beta   90.73480129
_cell_angle_gamma   113.85705870
_symmetry_Int_Tables_number   1
_chemical_formula_structural   CaLaTiFeO6
_chemical_formula_sum   'Ca4 La4 Ti4 Fe4 O24'
_cell_volume   480.24942723
_cell_formula_units_Z   4
loop_
 _symmetry_equiv_pos_site_id
 _symmetry_equiv_pos_as_xyz
  1  'x, y, z'
loop_
 _atom_site_type_symbol
 _atom_site_label
 _atom_site_symmetry_multiplicity
 _atom_site_fract_x
 _atom_site_fract_y
 _atom_site_fract_z
 _atom_site_occupancy
  Ca  Ca0  1  0.64128800  0.24994400  0.09794600  1
  Ca  Ca1  1  0.14129500  0.24996500  0.59795800  1
  Ca  Ca2  1  0.34795900  0.74996200  0.39128800  1
  Ca  Ca3  1  0.84796100  0.74995800  0.89129200  1
  La  La0  1  0.14554900  0.24921300  0.11114800  1
  La  La1  1  0.64555600  0.24920900  0.61113100  1
  La  La2  1  0.86116900  0.74921600  0.39554300  1
  La  La3  1  0.36115100  0.74920100  0.89557200  1
  Ti  Ti0  1  0.99961800  0.49834200  0.49890200  1
  Ti  Ti1  1  0.49959800  0.49836100  0.99888400  1
  Ti  Ti2  1  0.24891300  0.99837100  0.24960900  1
  Ti  Ti3  1  0.74892900  0.99838600  0.74961100  1
  Fe  Fe0  1  0.25006000  0.00015900  0.75031500  1
  Fe  Fe1  1  0.50031500  0.50009600  0.50017100  1
  Fe  Fe2  1  0.75004300  0.00016100  0.25033200  1
  Fe  Fe3  1  0.00035000  0.50015200  0.00003700  1
  O  O0  1  0.59468800  0.75436200  0.57580900  1
  O  O1  1  0.09468600  0.75436500  0.07581900  1
  O  O2  1  0.82578400  0.25431200  0.34465800  1
  O  O3  1  0.32578000  0.25431000  0.84467200  1
  O  O4  1  0.97440100  0.95725500  0.76788200  1
  O  O5  1  0.47440900  0.95725500  0.26788400  1
  O  O6  1  0.51789000  0.45726300  0.22442700  1
  O  O7  1  0.01788600  0.45725900  0.72440700  1
  O  O8  1  0.77738300  0.54466100  0.56134800  1
  O  O9  1  0.27737800  0.54465400  0.06136000  1
  O  O10  1  0.31135300  0.04465700  0.02737500  1
  O  O11  1  0.81134900  0.04465100  0.52737600  1
  O  O12  1  0.67262800  0.74652000  0.15071100  1
  O  O13  1  0.17262700  0.74652100  0.65069600  1
  O  O14  1  0.90070400  0.24652300  0.92262800  1
  O  O15  1  0.40070800  0.24654300  0.42262700  1
  O  O16  1  0.98617100  0.54105100  0.27391100  1
  O  O17  1  0.48620900  0.54107100  0.77395100  1
  O  O18  1  0.52391400  0.04104800  0.73617200  1
  O  O19  1  0.02391100  0.04105400  0.23617000  1
  O  O20  1  0.19373800  0.95848700  0.47643800  1
  O  O21  1  0.69374600  0.95849200  0.97643500  1
  O  O22  1  0.72644100  0.45849400  0.94375600  1
  O  O23  1  0.22646200  0.45850200  0.44374800  1
loop_
_geom_bond_atom_site_label_1
_geom_bond_atom_site_label_2
_geom_bond_distance
_geom_bond_site_symmetry_2
Ca0 O2 2.376495 1_555
Ca0 O10 2.413652 1_555
Ca0 O6 2.414931 1_555
Ca0 O14 2.472709 1_554
Ca0 O18 2.596620 1_554
Ca0 O22 2.602691 1_554
Ca0 O21 2.761910 1_544
Ca0 O16 2.769291 1_555
Ca1 O3 2.376579 1_555
Ca1 O11 2.413780 1_455
Ca1 O7 2.414779 1_555
Ca1 O15 2.472747 1_555
Ca1 O19 2.596734 1_555
Ca1 O23 2.602702 1_555
Ca1 O20 2.762070 1_545
Ca1 O17 2.769442 1_555
Ca2 O0 2.376551 1_555
Ca2 O9 2.413638 1_555
Ca2 O5 2.414748 1_555
Ca2 O13 2.472735 1_555
Ca2 O16 2.596755 1_455
Ca2 O20 2.602676 1_555
Ca2 O23 2.762002 1_555
Ca2 O18 2.769191 1_565
Ca3 O1 2.376516 1_656
Ca3 O8 2.413703 1_555
Ca3 O4 2.414807 1_555
Ca3 O12 2.472808 1_556
Ca3 O17 2.596485 1_555
Ca3 O21 2.602715 1_555
Ca3 O22 2.762044 1_555
Ca3 O19 2.769200 1_666
La0 O14 2.392698 1_454
La0 O19 2.428078 1_555
La0 O23 2.431893 1_555
La0 O3 2.542494 1_554
La0 O10 2.642513 1_555
La0 O6 2.659394 1_555
La0 O4 2.762815 1_444
La0 O9 2.781539 1_555
La1 O15 2.392770 1_555
La1 O18 2.428207 1_555
La1 O22 2.432045 1_555
La1 O2 2.542468 1_555
La1 O11 2.642467 1_555
La1 O7 2.659325 1_655
La1 O5 2.762715 1_545
La1 O8 2.781615 1_555
La2 O12 2.392680 1_555
La2 O16 2.428002 1_555
La2 O20 2.431699 1_655
La2 O0 2.542745 1_555
La2 O8 2.642508 1_555
La2 O4 2.659334 1_555
La2 O6 2.762852 1_555
La2 O11 2.781618 1_565
La3 O13 2.392959 1_555
La3 O17 2.428046 1_555
La3 O21 2.431925 1_555
La3 O1 2.542579 1_556
La3 O9 2.642342 1_556
La3 O5 2.659194 1_556
La3 O7 2.762772 1_555
La3 O10 2.781716 1_566
Fe0 O20 2.025945 1_545
Fe0 O13 2.030353 1_545
Fe0 O18 2.033712 1_555
Fe0 O3 2.042091 1_555
Fe0 O10 2.046798 1_556
Fe0 O4 2.047694 1_445
Fe1 O23 2.026114 1_555
Fe1 O15 2.029455 1_555
Fe1 O17 2.032912 1_555
Fe1 O0 2.043220 1_555
Fe1 O8 2.046547 1_555
Fe1 O6 2.048474 1_555
Fe2 O21 2.026082 1_544
Fe2 O12 2.030405 1_545
Fe2 O19 2.033833 1_655
Fe2 O2 2.042089 1_555
Fe2 O11 2.046714 1_555
Fe2 O5 2.047481 1_545
Fe3 O22 2.026208 1_454
Fe3 O14 2.030290 1_454
Fe3 O16 2.033870 1_455
Fe3 O1 2.042566 1_555
Fe3 O9 2.046589 1_555
Fe3 O7 2.047438 1_554
O0 Ti3 1.965895 1_555
O1 Ti2 1.965749 1_555
O2 Ti0 1.965989 1_555
O3 Ti1 1.966064 1_555
O4 Ti3 1.974904 1_555
O5 Ti2 1.975007 1_555
O6 Ti1 1.975274 1_554
O7 Ti0 1.974873 1_455
O8 Ti0 1.985210 1_555
O9 Ti1 1.985017 1_554
O10 Ti2 1.985036 1_545
O11 Ti3 1.984922 1_545
O12 Ti1 1.988820 1_554
O13 Ti0 1.988890 1_455
O14 Ti3 1.988613 1_545
O15 Ti2 1.988857 1_545
O16 Ti0 1.975066 1_555
O17 Ti1 1.974571 1_555
O18 Ti3 1.974986 1_545
O19 Ti2 1.975005 1_545
O20 Ti2 1.982112 1_555
O21 Ti3 1.982128 1_555
O22 Ti1 1.982096 1_555
O23 Ti0 1.982014 1_455
