# generated using pymatgen
data_PuAlCo
_symmetry_space_group_name_H-M   'P 1'
_cell_length_a   6.37847715
_cell_length_b   6.37847715
_cell_length_c   4.05151800
_cell_angle_alpha   90.00000000
_cell_angle_beta   90.00000000
_cell_angle_gamma   119.99999115
_symmetry_Int_Tables_number   1
_chemical_formula_structural   PuAlCo
_chemical_formula_sum   'Pu3 Al3 Co3'
_cell_volume   142.75208193
_cell_formula_units_Z   3
loop_
 _symmetry_equiv_pos_site_id
 _symmetry_equiv_pos_as_xyz
  1  'x, y, z'
loop_
 _atom_site_type_symbol
 _atom_site_label
 _atom_site_symmetry_multiplicity
 _atom_site_fract_x
 _atom_site_fract_y
 _atom_site_fract_z
 _atom_site_occupancy
  Pu  Pu0  1  0.42845800  0.42845800  0.50000000  1
  Pu  Pu1  1  0.57154200  0.00000000  0.50000000  1
  Pu  Pu2  1  0.00000000  0.57154200  0.50000000  1
  Al  Al0  1  0.76226400  0.76226400  0.00000000  1
  Al  Al1  1  0.23773600  0.00000000  0.00000000  1
  Al  Al2  1  0.00000000  0.23773600  0.00000000  1
  Co  Co0  1  0.66666700  0.33333300  0.00000000  1
  Co  Co1  1  0.33333300  0.66666700  0.00000000  1
  Co  Co2  1  0.00000000  0.00000000  0.50000000  1
loop_
_geom_bond_atom_site_label_1
_geom_bond_atom_site_label_2
_geom_bond_distance
_geom_bond_site_symmetry_2
Al0 Co0 2.487738 1_555
Al0 Co1 2.487738 1_555
Al0 Co2 2.530445 1_665
Al0 Co2 2.530445 1_664
Al0 Al2 2.626471 1_665
Al0 Al1 2.626471 1_665
Al0 Pu0 2.938891 1_555
Al0 Pu0 2.938891 1_554
Al0 Pu2 3.118938 1_655
Al0 Pu1 3.118938 1_564
Al0 Pu2 3.118938 1_654
Al0 Pu1 3.118938 1_565
Al1 Co1 2.487731 1_545
Al1 Co0 2.487736 1_555
Al1 Co2 2.530444 1_554
Al1 Co2 2.530444 1_555
Al1 Al2 2.626471 1_555
Al1 Pu1 2.938891 1_554
Al1 Pu1 2.938891 1_555
Al1 Pu0 3.118939 1_554
Al1 Pu0 3.118939 1_555
Al1 Pu2 3.118939 1_544
Al1 Pu2 3.118939 1_545
Al2 Co0 2.487731 1_455
Al2 Co1 2.487736 1_555
Al2 Co2 2.530444 1_554
Al2 Co2 2.530444 1_555
Al2 Pu2 2.938891 1_555
Al2 Pu2 2.938891 1_554
Al2 Pu0 3.118939 1_554
Al2 Pu0 3.118939 1_555
Al2 Pu1 3.118939 1_455
Al2 Pu1 3.118939 1_454
Co0 Pu1 2.775309 1_555
Co0 Pu1 2.775309 1_554
Co0 Pu2 2.775310 1_655
Co0 Pu2 2.775310 1_654
Co0 Pu0 2.775313 1_555
Co0 Pu0 2.775313 1_554
Co1 Pu2 2.775309 1_554
Co1 Pu2 2.775309 1_555
Co1 Pu1 2.775310 1_565
Co1 Pu1 2.775310 1_564
Co1 Pu0 2.775313 1_555
Co1 Pu0 2.775313 1_554
Co2 Pu2 2.732910 1_545
Co2 Pu1 2.732910 1_455
Co2 Pu0 2.732910 1_555
