# generated using pymatgen
data_NaNd3GeS7
_symmetry_space_group_name_H-M   'P 1'
_cell_length_a   10.29665629
_cell_length_b   10.29665629
_cell_length_c   5.86717500
_cell_angle_alpha   90.00000000
_cell_angle_beta   90.00000000
_cell_angle_gamma   120.00000184
_symmetry_Int_Tables_number   1
_chemical_formula_structural   NaNd3GeS7
_chemical_formula_sum   'Na2 Nd6 Ge2 S14'
_cell_volume   538.70635298
_cell_formula_units_Z   2
loop_
 _symmetry_equiv_pos_site_id
 _symmetry_equiv_pos_as_xyz
  1  'x, y, z'
loop_
 _atom_site_type_symbol
 _atom_site_label
 _atom_site_symmetry_multiplicity
 _atom_site_fract_x
 _atom_site_fract_y
 _atom_site_fract_z
 _atom_site_occupancy
  Na  Na0  1  0.00000000  0.00000000  0.47960000  1
  Na  Na1  1  0.00000000  0.00000000  0.97960000  1
  Nd  Nd0  1  0.76926200  0.13017900  0.75128200  1
  Nd  Nd1  1  0.36091600  0.23073800  0.75128200  1
  Nd  Nd2  1  0.86982100  0.63908400  0.75128200  1
  Nd  Nd3  1  0.23073800  0.86982100  0.25128200  1
  Nd  Nd4  1  0.63908400  0.76926200  0.25128200  1
  Nd  Nd5  1  0.13017900  0.36091600  0.25128200  1
  Ge  Ge0  1  0.66666700  0.33333300  0.33409300  1
  Ge  Ge1  1  0.33333300  0.66666700  0.83409300  1
  S  S0  1  0.66666700  0.33333300  0.95768000  1
  S  S1  1  0.33333300  0.66666700  0.45768000  1
  S  S2  1  0.74099100  0.83524600  0.72635900  1
  S  S3  1  0.09425500  0.25900900  0.72635900  1
  S  S4  1  0.16475400  0.90574500  0.72635900  1
  S  S5  1  0.25900900  0.16475400  0.22635900  1
  S  S6  1  0.90574500  0.74099100  0.22635900  1
  S  S7  1  0.83524600  0.09425500  0.22635900  1
  S  S8  1  0.58529200  0.47975800  0.48950500  1
  S  S9  1  0.89446600  0.41470800  0.48950500  1
  S  S10  1  0.52024200  0.10553400  0.48950500  1
  S  S11  1  0.41470800  0.52024200  0.98950500  1
  S  S12  1  0.10553400  0.58529200  0.98950500  1
  S  S13  1  0.47975800  0.89446600  0.98950500  1
loop_
_geom_bond_atom_site_label_1
_geom_bond_atom_site_label_2
_geom_bond_distance
_geom_bond_site_symmetry_2
Na0 S2 2.749940 1_445
Na0 S3 2.749940 1_555
Na0 S4 2.749940 1_545
Na0 S5 2.770151 1_555
Na0 S6 2.770151 1_445
Na0 S7 2.770151 1_455
Na1 S5 2.749940 1_556
Na1 S6 2.749940 1_446
Na1 S7 2.749940 1_456
Na1 S2 2.770151 1_445
Na1 S3 2.770151 1_555
Na1 S4 2.770151 1_545
Nd0 S10 2.889146 1_555
Nd0 S2 2.905926 1_545
Nd0 S3 2.922336 1_655
Nd0 S7 2.935833 1_556
Nd0 S9 2.971055 1_555
Nd0 S0 3.027840 1_555
Nd0 S13 3.081427 1_545
Nd0 S7 3.214810 1_555
Nd1 S8 2.889150 1_555
Nd1 S3 2.905916 1_555
Nd1 S4 2.922335 1_545
Nd1 S5 2.935831 1_556
Nd1 S10 2.971063 1_555
Nd1 S0 3.027858 1_555
Nd1 S11 3.081423 1_555
Nd1 S5 3.214808 1_555
Nd2 S9 2.889155 1_555
Nd2 S4 2.905922 1_655
Nd2 S2 2.922327 1_555
Nd2 S6 2.935830 1_556
Nd2 S8 2.971055 1_555
Nd2 S0 3.027855 1_555
Nd2 S12 3.081433 1_655
Nd2 S6 3.214807 1_555
Nd3 S13 2.889146 1_554
Nd3 S5 2.905926 1_565
Nd3 S6 2.922336 1_455
Nd3 S4 2.935833 1_555
Nd3 S12 2.971055 1_554
Nd3 S1 3.027840 1_555
Nd3 S10 3.081427 1_565
Nd3 S4 3.214810 1_554
Nd4 S11 2.889150 1_554
Nd4 S6 2.905916 1_555
Nd4 S7 2.922335 1_565
Nd4 S2 2.935831 1_555
Nd4 S13 2.971063 1_554
Nd4 S1 3.027858 1_555
Nd4 S8 3.081423 1_555
Nd4 S2 3.214808 1_554
Nd5 S12 2.889155 1_554
Nd5 S7 2.905922 1_455
Nd5 S5 2.922327 1_555
Nd5 S3 2.935830 1_555
Nd5 S11 2.971055 1_554
Nd5 S1 3.027855 1_555
Nd5 S9 3.081433 1_455
Nd5 S3 3.214807 1_554
Ge0 S0 2.208481 1_554
Ge0 S9 2.251634 1_555
Ge0 S10 2.251635 1_555
Ge0 S8 2.251642 1_555
Ge1 S1 2.208481 1_555
Ge1 S12 2.251634 1_555
Ge1 S13 2.251635 1_555
Ge1 S11 2.251642 1_555
