# generated using pymatgen
data_Yb2B6Rh
_symmetry_space_group_name_H-M   'P 1'
_cell_length_a   3.67994000
_cell_length_b   9.07109400
_cell_length_c   11.43611000
_cell_angle_alpha   90.00000000
_cell_angle_beta   90.00000000
_cell_angle_gamma   90.00000000
_symmetry_Int_Tables_number   1
_chemical_formula_structural   Yb2B6Rh
_chemical_formula_sum   'Yb8 B24 Rh4'
_cell_volume   381.74972172
_cell_formula_units_Z   4
loop_
 _symmetry_equiv_pos_site_id
 _symmetry_equiv_pos_as_xyz
  1  'x, y, z'
loop_
 _atom_site_type_symbol
 _atom_site_label
 _atom_site_symmetry_multiplicity
 _atom_site_fract_x
 _atom_site_fract_y
 _atom_site_fract_z
 _atom_site_occupancy
  Yb  Yb0  1  0.50000000  0.32433500  0.41406000  1
  Yb  Yb1  1  0.50000000  0.67566500  0.58594000  1
  Yb  Yb2  1  0.50000000  0.17566500  0.91406000  1
  Yb  Yb3  1  0.50000000  0.82433500  0.08594000  1
  Yb  Yb4  1  0.50000000  0.44305600  0.13384800  1
  Yb  Yb5  1  0.50000000  0.55694400  0.86615200  1
  Yb  Yb6  1  0.50000000  0.05694400  0.63384800  1
  Yb  Yb7  1  0.50000000  0.94305600  0.36615200  1
  B  B0  1  0.00000000  0.09441000  0.47447000  1
  B  B1  1  0.00000000  0.90559000  0.52553000  1
  B  B2  1  0.00000000  0.40559000  0.97447000  1
  B  B3  1  0.00000000  0.59441000  0.02553000  1
  B  B4  1  0.00000000  0.13070700  0.31463700  1
  B  B5  1  0.00000000  0.86929300  0.68536300  1
  B  B6  1  0.00000000  0.36929300  0.81463700  1
  B  B7  1  0.00000000  0.63070700  0.18536300  1
  B  B8  1  0.00000000  0.05545900  0.06784700  1
  B  B9  1  0.00000000  0.94454100  0.93215300  1
  B  B10  1  0.00000000  0.44454100  0.56784700  1
  B  B11  1  0.00000000  0.55545900  0.43215300  1
  B  B12  1  0.00000000  0.48494800  0.28870200  1
  B  B13  1  0.00000000  0.51505200  0.71129800  1
  B  B14  1  0.00000000  0.01505200  0.78870200  1
  B  B15  1  0.00000000  0.98494800  0.21129800  1
  B  B16  1  0.00000000  0.25131400  0.08180600  1
  B  B17  1  0.00000000  0.74868600  0.91819400  1
  B  B18  1  0.00000000  0.24868600  0.58180600  1
  B  B19  1  0.00000000  0.75131400  0.41819400  1
  B  B20  1  0.00000000  0.29161800  0.23505600  1
  B  B21  1  0.00000000  0.70838200  0.76494400  1
  B  B22  1  0.00000000  0.20838200  0.73505600  1
  B  B23  1  0.00000000  0.79161800  0.26494400  1
  Rh  Rh0  1  0.50000000  0.14035400  0.17971200  1
  Rh  Rh1  1  0.50000000  0.85964600  0.82028800  1
  Rh  Rh2  1  0.50000000  0.35964600  0.67971200  1
  Rh  Rh3  1  0.50000000  0.64035400  0.32028800  1
loop_
_geom_bond_atom_site_label_1
_geom_bond_atom_site_label_2
_geom_bond_distance
_geom_bond_site_symmetry_2
B0 B1 1.809605 1_545
B0 B4 1.857285 1_555
B0 B18 1.861515 1_555
B0 Yb7 2.608628 1_445
B0 Yb7 2.608628 1_545
B0 Yb6 2.612106 1_555
B0 Yb6 2.612106 1_455
B0 Yb0 2.865798 1_455
B0 Yb0 2.865798 1_555
B1 B5 1.857285 1_555
B1 B19 1.861515 1_555
B1 Yb6 2.608628 1_465
B1 Yb6 2.608628 1_565
B1 Yb7 2.612106 1_555
B1 Yb7 2.612106 1_455
B1 Yb1 2.865798 1_455
B1 Yb1 2.865798 1_555
B2 B3 1.809605 1_556
B2 B6 1.857285 1_555
B2 Yb5 2.608628 1_555
B2 Yb5 2.608628 1_455
B2 Yb4 2.612106 1_456
B2 Yb4 2.612106 1_556
B2 Yb2 2.865798 1_555
B2 Yb2 2.865798 1_455
B3 B7 1.857285 1_555
B3 Yb4 2.608628 1_455
B3 Yb4 2.608628 1_555
B3 Yb5 2.612106 1_454
B3 Yb5 2.612106 1_554
B3 Yb3 2.865798 1_555
B3 Yb3 2.865798 1_455
B4 Rh0 2.402925 1_455
B4 Rh0 2.402925 1_555
B4 Yb7 2.574888 1_445
B4 Yb7 2.574888 1_545
B4 Yb0 2.786268 1_555
B4 Yb0 2.786268 1_455
B5 Rh1 2.402925 1_455
B5 Rh1 2.402925 1_555
B5 Yb6 2.574888 1_465
B5 Yb6 2.574888 1_565
B5 Yb1 2.786268 1_455
B5 Yb1 2.786268 1_555
B6 Rh2 2.402925 1_455
B6 Rh2 2.402925 1_555
B6 Yb5 2.574888 1_555
B6 Yb5 2.574888 1_455
B6 Yb2 2.786268 1_455
B6 Yb2 2.786268 1_555
B7 Rh3 2.402925 1_555
B7 Rh3 2.402925 1_455
B7 Yb4 2.574888 1_455
B7 Yb4 2.574888 1_555
B7 Yb3 2.786268 1_555
B7 Yb3 2.786268 1_455
B8 B9 1.849446 1_544
B8 Rh0 2.369628 1_455
B8 Rh0 2.369628 1_555
B8 Yb2 2.769039 1_554
B8 Yb2 2.769039 1_454
B8 Yb3 2.797108 1_545
B8 Yb3 2.797108 1_445
B9 Rh1 2.369628 1_555
B9 Rh1 2.369628 1_455
B9 Yb3 2.769039 1_456
B9 Yb3 2.769039 1_556
B9 Yb2 2.797108 1_465
B9 Yb2 2.797108 1_565
B10 B13 1.760799 1_555
B10 B18 1.783777 1_555
B10 B11 1.849446 1_555
B10 Rh2 2.369628 1_455
B10 Rh2 2.369628 1_555
B10 Yb0 2.769039 1_455
B10 Yb0 2.769039 1_555
B10 Yb1 2.797108 1_455
B10 Yb1 2.797108 1_555
B11 B12 1.760799 1_555
B11 B19 1.783777 1_555
B11 Rh3 2.369628 1_555
B11 Rh3 2.369628 1_455
B11 Yb1 2.769039 1_455
B11 Yb1 2.769039 1_555
B11 Yb0 2.797108 1_455
B11 Yb0 2.797108 1_555
B12 B7 1.773369 1_555
B12 B20 1.857929 1_555
B12 Rh3 2.345897 1_455
B12 Rh3 2.345897 1_555
B12 Yb4 2.581875 1_455
B12 Yb4 2.581875 1_555
B12 Yb0 2.750160 1_455
B12 Yb0 2.750160 1_555
B13 B6 1.773369 1_555
B13 B21 1.857929 1_555
B13 Rh2 2.345897 1_455
B13 Rh2 2.345897 1_555
B13 Yb5 2.581875 1_455
B13 Yb5 2.581875 1_555
B13 Yb1 2.750160 1_455
B13 Yb1 2.750160 1_555
B14 B9 1.760799 1_545
B14 B5 1.773369 1_545
B14 B22 1.857929 1_555
B14 Rh1 2.345897 1_545
B14 Rh1 2.345897 1_445
B14 Yb6 2.581875 1_455
B14 Yb6 2.581875 1_555
B14 Yb2 2.750160 1_555
B14 Yb2 2.750160 1_455
B15 B8 1.760799 1_565
B15 B4 1.773369 1_565
B15 B23 1.857929 1_555
B15 Rh0 2.345897 1_465
B15 Rh0 2.345897 1_565
B15 Yb7 2.581875 1_555
B15 Yb7 2.581875 1_455
B15 Yb3 2.750160 1_455
B15 Yb3 2.750160 1_555
B16 B8 1.783777 1_555
B16 B20 1.790311 1_555
B16 B2 1.861515 1_554
B16 Rh0 2.377443 1_555
B16 Rh0 2.377443 1_455
B16 Yb4 2.600942 1_455
B16 Yb4 2.600942 1_555
B16 Yb2 2.745268 1_554
B16 Yb2 2.745268 1_454
B17 B9 1.783777 1_555
B17 B21 1.790311 1_555
B17 B3 1.861515 1_556
B17 Rh1 2.377443 1_555
B17 Rh1 2.377443 1_455
B17 Yb5 2.600942 1_455
B17 Yb5 2.600942 1_555
B17 Yb3 2.745268 1_456
B17 Yb3 2.745268 1_556
B18 B22 1.790311 1_555
B18 Rh2 2.377443 1_455
B18 Rh2 2.377443 1_555
B18 Yb6 2.600942 1_455
B18 Yb6 2.600942 1_555
B18 Yb0 2.745268 1_555
B18 Yb0 2.745268 1_455
B19 B23 1.790311 1_555
B19 Rh3 2.377443 1_555
B19 Rh3 2.377443 1_455
B19 Yb7 2.600942 1_555
B19 Yb7 2.600942 1_455
B19 Yb1 2.745268 1_555
B19 Yb1 2.745268 1_455
B20 B4 1.720123 1_555
B20 Rh0 2.380928 1_555
B20 Rh0 2.380928 1_455
B20 Yb4 2.571420 1_455
B20 Yb4 2.571420 1_555
B20 Yb0 2.768434 1_455
B20 Yb0 2.768434 1_555
B21 B5 1.720123 1_555
B21 Rh1 2.380928 1_455
B21 Rh1 2.380928 1_555
B21 Yb5 2.571420 1_455
B21 Yb5 2.571420 1_555
B21 Yb1 2.768434 1_455
B21 Yb1 2.768434 1_555
B22 B6 1.720123 1_555
B22 Rh2 2.380928 1_455
B22 Rh2 2.380928 1_555
B22 Yb6 2.571420 1_455
B22 Yb6 2.571420 1_555
B22 Yb2 2.768434 1_555
B22 Yb2 2.768434 1_455
B23 B7 1.720123 1_555
B23 Rh3 2.380928 1_555
B23 Rh3 2.380928 1_455
B23 Yb7 2.571420 1_555
B23 Yb7 2.571420 1_455
B23 Yb3 2.768434 1_455
B23 Yb3 2.768434 1_555
Rh0 Yb7 2.783723 1_545
Rh0 Yb4 2.795485 1_555
Rh0 Yb2 3.054864 1_554
Rh0 Yb3 3.060658 1_545
Rh0 Yb0 3.157185 1_555
Rh1 Yb6 2.783723 1_565
Rh1 Yb5 2.795485 1_555
Rh1 Yb3 3.054864 1_556
Rh1 Yb2 3.060658 1_565
Rh1 Yb1 3.157185 1_555
Rh2 Yb5 2.783723 1_555
Rh2 Yb6 2.795485 1_555
Rh2 Yb0 3.054864 1_555
Rh2 Yb1 3.060658 1_555
Rh2 Yb2 3.157185 1_555
Rh3 Yb4 2.783723 1_555
Rh3 Yb7 2.795485 1_555
Rh3 Yb1 3.054864 1_555
Rh3 Yb0 3.060658 1_555
Rh3 Yb3 3.157185 1_555
