# generated using pymatgen
data_Tb3Ga8Ag3
_symmetry_space_group_name_H-M   'P 1'
_cell_length_a   4.40635200
_cell_length_b   8.35661727
_cell_length_c   8.35661727
_cell_angle_alpha   69.88582634
_cell_angle_beta   74.71356987
_cell_angle_gamma   74.71356987
_symmetry_Int_Tables_number   1
_chemical_formula_structural   Tb3Ga8Ag3
_chemical_formula_sum   'Tb3 Ga8 Ag3'
_cell_volume   273.58915963
_cell_formula_units_Z   1
loop_
 _symmetry_equiv_pos_site_id
 _symmetry_equiv_pos_as_xyz
  1  'x, y, z'
loop_
 _atom_site_type_symbol
 _atom_site_label
 _atom_site_symmetry_multiplicity
 _atom_site_fract_x
 _atom_site_fract_y
 _atom_site_fract_z
 _atom_site_occupancy
  Tb  Tb0  1  0.50000000  0.50000000  0.50000000  1
  Tb  Tb1  1  0.20475500  0.79524500  0.79524500  1
  Tb  Tb2  1  0.79524500  0.20475500  0.20475500  1
  Ga  Ga0  1  0.35766000  0.36177900  0.92290000  1
  Ga  Ga1  1  0.64234000  0.63822100  0.07710000  1
  Ga  Ga2  1  0.35766000  0.92290000  0.36177900  1
  Ga  Ga3  1  0.64234000  0.07710000  0.63822100  1
  Ga  Ga4  1  0.15768300  0.47386800  0.21076600  1
  Ga  Ga5  1  0.84231700  0.52613200  0.78923400  1
  Ga  Ga6  1  0.15768300  0.21076600  0.47386800  1
  Ga  Ga7  1  0.84231700  0.78923400  0.52613200  1
  Ag  Ag0  1  0.50000000  0.00000000  0.00000000  1
  Ag  Ag1  1  0.00000000  0.81077800  0.18922200  1
  Ag  Ag2  1  0.00000000  0.18922200  0.81077800  1
loop_
_geom_bond_atom_site_label_1
_geom_bond_atom_site_label_2
_geom_bond_distance
_geom_bond_site_symmetry_2
Ga0 Ga5 2.632159 1_455
Ga0 Ga5 2.632163 1_555
Ga0 Ga4 2.727183 1_556
Ga0 Tb2 3.149946 1_456
Ga0 Tb2 3.149949 1_556
Ga0 Tb0 3.259218 1_555
Ga0 Tb1 3.338782 1_555
Ga1 Ga4 2.632159 1_655
Ga1 Ga4 2.632163 1_555
Ga1 Ga5 2.727183 1_554
Ga1 Tb1 3.149946 1_654
Ga1 Tb1 3.149949 1_554
Ga1 Tb0 3.259218 1_555
Ga1 Tb2 3.338782 1_555
Ga2 Ga7 2.632159 1_455
Ga2 Ga7 2.632163 1_555
Ga2 Ga6 2.727183 1_565
Ga2 Tb2 3.149946 1_465
Ga2 Tb2 3.149949 1_565
Ga2 Tb0 3.259218 1_555
Ga2 Tb1 3.338782 1_555
Ga3 Ga6 2.632159 1_655
Ga3 Ga6 2.632163 1_555
Ga3 Ga7 2.727183 1_545
Ga3 Tb1 3.149946 1_645
Ga3 Tb1 3.149949 1_545
Ga3 Tb0 3.259218 1_555
Ga3 Tb2 3.338782 1_555
Ga4 Ga6 2.518589 1_555
Ga4 Tb2 3.102293 1_555
Ga4 Tb2 3.102294 1_455
Ga4 Tb0 3.259434 1_455
Ga4 Tb0 3.259435 1_555
Ga5 Ga7 2.518589 1_555
Ga5 Tb1 3.102293 1_555
Ga5 Tb1 3.102294 1_655
Ga5 Tb0 3.259434 1_655
Ga5 Tb0 3.259435 1_555
Ga6 Tb2 3.102293 1_555
Ga6 Tb2 3.102294 1_455
Ga6 Tb0 3.259434 1_455
Ga6 Tb0 3.259435 1_555
Ga7 Tb1 3.102293 1_555
Ga7 Tb1 3.102294 1_655
Ga7 Tb0 3.259434 1_655
Ga7 Tb0 3.259435 1_555
Ag0 Ga0 2.796795 1_554
Ag0 Ga2 2.796795 1_545
Ag0 Ga1 2.796795 1_545
Ag0 Ga3 2.796795 1_554
Ag0 Ag1 2.852194 1_545
Ag0 Ag1 2.852194 1_645
Ag0 Ag2 2.852194 1_654
Ag0 Ag2 2.852194 1_554
Ag0 Tb2 3.450951 1_455
Ag0 Tb1 3.450951 1_644
Ag0 Tb2 3.450952 1_555
Ag0 Tb1 3.450952 1_544
Ag1 Ga7 2.669770 1_455
Ag1 Ga4 2.669770 1_555
Ag1 Ga2 2.889134 1_555
Ag1 Ga1 2.889134 1_455
Ag1 Ga2 2.889137 1_455
Ag1 Ga1 2.889137 1_555
Ag1 Tb1 3.214982 1_554
Ag1 Tb2 3.214982 1_465
Ag2 Ga5 2.669770 1_455
Ag2 Ga6 2.669770 1_555
Ag2 Ga0 2.889134 1_555
Ag2 Ga3 2.889134 1_455
Ag2 Ga0 2.889137 1_455
Ag2 Ga3 2.889137 1_555
Ag2 Tb1 3.214982 1_545
Ag2 Tb2 3.214982 1_456
