# generated using pymatgen
data_In3(Co10B3)2
_symmetry_space_group_name_H-M   'P 1'
_cell_length_a   7.55508523
_cell_length_b   7.55508523
_cell_length_c   7.55508523
_cell_angle_alpha   60.00000000
_cell_angle_beta   60.00000000
_cell_angle_gamma   60.00000000
_symmetry_Int_Tables_number   1
_chemical_formula_structural   In3(Co10B3)2
_chemical_formula_sum   'In3 Co20 B6'
_cell_volume   304.93207330
_cell_formula_units_Z   1
loop_
 _symmetry_equiv_pos_site_id
 _symmetry_equiv_pos_as_xyz
  1  'x, y, z'
loop_
 _atom_site_type_symbol
 _atom_site_label
 _atom_site_symmetry_multiplicity
 _atom_site_fract_x
 _atom_site_fract_y
 _atom_site_fract_z
 _atom_site_occupancy
  In  In0  1  0.00000000  0.00000000  0.00000000  1
  In  In1  1  0.75000000  0.75000000  0.75000000  1
  In  In2  1  0.25000000  0.25000000  0.25000000  1
  Co  Co0  1  0.61332100  0.61332100  0.16003800  1
  Co  Co1  1  0.61332100  0.16003800  0.61332100  1
  Co  Co2  1  0.16003800  0.61332100  0.61332100  1
  Co  Co3  1  0.61332100  0.61332100  0.61332100  1
  Co  Co4  1  0.38667900  0.38667900  0.83996200  1
  Co  Co5  1  0.38667900  0.83996200  0.38667900  1
  Co  Co6  1  0.83996200  0.38667900  0.38667900  1
  Co  Co7  1  0.38667900  0.38667900  0.38667900  1
  Co  Co8  1  0.00000000  0.00000000  0.34445300  1
  Co  Co9  1  0.65554700  0.00000000  0.34445300  1
  Co  Co10  1  0.00000000  0.65554700  0.34445300  1
  Co  Co11  1  0.65554700  0.34445300  0.00000000  1
  Co  Co12  1  0.00000000  0.34445300  0.00000000  1
  Co  Co13  1  0.00000000  0.34445300  0.65554700  1
  Co  Co14  1  0.34445300  0.65554700  0.00000000  1
  Co  Co15  1  0.34445300  0.00000000  0.65554700  1
  Co  Co16  1  0.34445300  0.00000000  0.00000000  1
  Co  Co17  1  0.00000000  0.00000000  0.65554700  1
  Co  Co18  1  0.00000000  0.65554700  0.00000000  1
  Co  Co19  1  0.65554700  0.00000000  0.00000000  1
  B  B0  1  0.72408200  0.72408200  0.27591800  1
  B  B1  1  0.27591800  0.72408200  0.27591800  1
  B  B2  1  0.72408200  0.27591800  0.27591800  1
  B  B3  1  0.27591800  0.27591800  0.72408200  1
  B  B4  1  0.72408200  0.27591800  0.72408200  1
  B  B5  1  0.27591800  0.72408200  0.72408200  1
loop_
_geom_bond_atom_site_label_1
_geom_bond_atom_site_label_2
_geom_bond_distance
_geom_bond_site_symmetry_2
Co0 In1 2.529402 1_554
Co1 In1 2.529402 1_545
Co2 In1 2.529402 1_455
Co3 In1 2.529396 1_555
Co4 In2 2.529402 1_556
Co5 In2 2.529402 1_565
Co6 In2 2.529402 1_655
Co7 In2 2.529396 1_555
Co8 In0 2.602372 1_555
Co8 In2 2.918208 1_555
Co8 In1 2.918208 1_445
Co9 In0 2.602372 1_655
Co9 In1 2.918208 1_545
Co9 In2 2.918208 1_555
Co10 In0 2.602372 1_565
Co10 In2 2.918208 1_555
Co10 In1 2.918208 1_455
Co11 In0 2.602372 1_655
Co11 In2 2.918208 1_555
Co11 In1 2.918208 1_554
Co12 In0 2.602372 1_555
Co12 In2 2.918208 1_555
Co12 In1 2.918208 1_454
Co13 In0 2.602372 1_556
Co13 In2 2.918208 1_555
Co13 In1 2.918208 1_455
Co14 In0 2.602372 1_565
Co14 In2 2.918208 1_555
Co14 In1 2.918208 1_554
Co15 In0 2.602372 1_556
Co15 In1 2.918208 1_545
Co15 In2 2.918208 1_555
Co16 In0 2.602372 1_555
Co16 In2 2.918208 1_555
Co16 In1 2.918208 1_544
Co17 In0 2.602372 1_556
Co17 In2 2.918208 1_555
Co17 In1 2.918208 1_445
Co18 In0 2.602372 1_565
Co18 In2 2.918208 1_555
Co18 In1 2.918208 1_454
Co19 In0 2.602372 1_655
Co19 In2 2.918208 1_555
Co19 In1 2.918208 1_544
B0 Co0 2.081452 1_555
B0 Co6 2.081458 1_555
B0 Co5 2.081458 1_555
B0 Co3 2.081458 1_555
B0 Co18 2.147928 1_655
B0 Co9 2.147928 1_565
B0 Co19 2.147928 1_565
B0 Co10 2.147928 1_655
B1 Co5 2.081452 1_555
B1 Co0 2.081458 1_555
B1 Co2 2.081458 1_555
B1 Co7 2.081458 1_555
B1 Co8 2.147928 1_565
B1 Co10 2.147928 1_555
B1 Co14 2.147928 1_555
B1 Co16 2.147928 1_565
B2 Co6 2.081452 1_555
B2 Co0 2.081458 1_555
B2 Co1 2.081458 1_555
B2 Co7 2.081458 1_555
B2 Co9 2.147928 1_555
B2 Co8 2.147928 1_655
B2 Co12 2.147928 1_655
B2 Co11 2.147928 1_555
B3 Co4 2.081452 1_555
B3 Co1 2.081458 1_555
B3 Co2 2.081458 1_555
B3 Co7 2.081458 1_555
B3 Co12 2.147928 1_556
B3 Co13 2.147928 1_555
B3 Co16 2.147928 1_556
B3 Co15 2.147928 1_555
B4 Co1 2.081452 1_555
B4 Co4 2.081458 1_555
B4 Co6 2.081458 1_555
B4 Co3 2.081458 1_555
B4 Co19 2.147928 1_556
B4 Co13 2.147928 1_655
B4 Co11 2.147928 1_556
B4 Co17 2.147928 1_655
B5 Co2 2.081452 1_555
B5 Co4 2.081458 1_555
B5 Co5 2.081458 1_555
B5 Co3 2.081458 1_555
B5 Co18 2.147928 1_556
B5 Co14 2.147928 1_556
B5 Co15 2.147928 1_565
B5 Co17 2.147928 1_565
