# generated using pymatgen
data_Mg2Cu
_symmetry_space_group_name_H-M   'P 1'
_cell_length_a   5.21466743
_cell_length_b   5.21466743
_cell_length_c   5.21466743
_cell_angle_alpha   120.31482804
_cell_angle_beta   104.25078804
_cell_angle_gamma   104.42321552
_symmetry_Int_Tables_number   1
_chemical_formula_structural   Mg2Cu
_chemical_formula_sum   'Mg4 Cu2'
_cell_volume   106.17945019
_cell_formula_units_Z   2
loop_
 _symmetry_equiv_pos_site_id
 _symmetry_equiv_pos_as_xyz
  1  'x, y, z'
loop_
 _atom_site_type_symbol
 _atom_site_label
 _atom_site_symmetry_multiplicity
 _atom_site_fract_x
 _atom_site_fract_y
 _atom_site_fract_z
 _atom_site_occupancy
  Mg  Mg0  1  0.50006461  0.83211108  0.66795453  1
  Mg  Mg1  1  0.49993539  0.16788892  0.33204547  1
  Mg  Mg2  1  0.16415655  0.33211108  0.83204547  1
  Mg  Mg3  1  0.83584345  0.66788892  0.16795453  1
  Cu  Cu0  1  -0.00000000  0.25000000  0.25000000  1
  Cu  Cu1  1  -0.00000000  0.75000000  0.75000000  1
loop_
_geom_bond_atom_site_label_1
_geom_bond_atom_site_label_2
_geom_bond_distance
_geom_bond_site_symmetry_2
Cu0 Cu1 2.594917 1_555
Cu0 Cu1 2.594917 1_544
Cu0 Mg1 2.710040 1_455
Cu0 Mg0 2.710042 1_555
Cu0 Mg3 2.710045 1_445
Cu0 Mg2 2.710045 1_554
Cu0 Mg2 2.711950 1_555
Cu0 Mg3 2.711950 1_455
Cu0 Mg0 2.711953 1_444
Cu0 Mg1 2.711955 1_555
Cu1 Mg0 2.710040 1_555
Cu1 Mg1 2.710042 1_455
Cu1 Mg2 2.710045 1_565
Cu1 Mg3 2.710045 1_456
Cu1 Mg2 2.711950 1_555
Cu1 Mg3 2.711950 1_455
Cu1 Mg1 2.711953 1_566
Cu1 Mg0 2.711955 1_455
