# generated using pymatgen
data_LiNbPO5
_symmetry_space_group_name_H-M   'P 1'
_cell_length_a   7.63580634
_cell_length_b   7.63580634
_cell_length_c   10.85958607
_cell_angle_alpha   67.91643346
_cell_angle_beta   67.91643346
_cell_angle_gamma   41.56739738
_symmetry_Int_Tables_number   1
_chemical_formula_structural   LiNbPO5
_chemical_formula_sum   'Li4 Nb4 P4 O20'
_cell_volume   384.64732011
_cell_formula_units_Z   4
loop_
 _symmetry_equiv_pos_site_id
 _symmetry_equiv_pos_as_xyz
  1  'x, y, z'
loop_
 _atom_site_type_symbol
 _atom_site_label
 _atom_site_symmetry_multiplicity
 _atom_site_fract_x
 _atom_site_fract_y
 _atom_site_fract_z
 _atom_site_occupancy
  Li  Li0  1  0.50000000  0.00000000  0.50000000  1
  Li  Li1  1  0.50000000  0.50000000  0.50000000  1
  Li  Li2  1  0.50000000  0.50000000  0.00000000  1
  Li  Li3  1  0.00000000  0.50000000  0.00000000  1
  Nb  Nb0  1  0.49962400  0.50037600  0.75000000  1
  Nb  Nb1  1  0.00000000  0.50000000  0.50000000  1
  Nb  Nb2  1  0.50037600  0.49962400  0.25000000  1
  Nb  Nb3  1  0.50000000  0.00000000  0.00000000  1
  P  P0  1  0.87667200  0.87410600  0.68695600  1
  P  P1  1  0.12332800  0.12589400  0.31304400  1
  P  P2  1  0.87410600  0.87667200  0.18695600  1
  P  P3  1  0.12589400  0.12332800  0.81304400  1
  O  O0  1  0.19718000  0.19097500  0.65974100  1
  O  O1  1  0.81790100  0.80616500  0.60054600  1
  O  O2  1  0.18041100  0.70449200  0.65589800  1
  O  O3  1  0.33544500  0.41396300  0.41763800  1
  O  O4  1  0.70334200  0.17683100  0.65264500  1
  O  O5  1  0.66455500  0.58603700  0.58236200  1
  O  O6  1  0.80282000  0.80902500  0.34025900  1
  O  O7  1  0.18209900  0.19383500  0.39945400  1
  O  O8  1  0.70449200  0.18041100  0.15589800  1
  O  O9  1  0.17683100  0.70334200  0.15264500  1
  O  O10  1  0.81958900  0.29550800  0.34410200  1
  O  O11  1  0.29665800  0.82316900  0.34735500  1
  O  O12  1  0.19097500  0.19718000  0.15974100  1
  O  O13  1  0.80616500  0.81790100  0.10054600  1
  O  O14  1  0.82316900  0.29665800  0.84735500  1
  O  O15  1  0.58603700  0.66455500  0.08236200  1
  O  O16  1  0.29550800  0.81958900  0.84410200  1
  O  O17  1  0.41396300  0.33544500  0.91763800  1
  O  O18  1  0.19383500  0.18209900  0.89945400  1
  O  O19  1  0.80902500  0.80282000  0.84025900  1
loop_
_geom_bond_atom_site_label_1
_geom_bond_atom_site_label_2
_geom_bond_distance
_geom_bond_site_symmetry_2
Li0 O0 2.079157 1_555
Li0 O6 2.079157 1_545
Li0 O1 2.162630 1_545
Li0 O7 2.162630 1_555
Li0 O3 2.268574 1_555
Li0 O5 2.268574 1_545
Li1 O4 2.091481 1_555
Li1 O11 2.091481 1_555
Li1 O2 2.106884 1_555
Li1 O10 2.106884 1_555
Li1 O5 2.309214 1_555
Li1 O3 2.309214 1_555
Li2 O14 2.091481 1_554
Li2 O9 2.091481 1_555
Li2 O8 2.106884 1_555
Li2 O16 2.106884 1_554
Li2 O15 2.309214 1_555
Li2 O17 2.309214 1_554
Li3 O12 2.079157 1_555
Li3 O19 2.079157 1_454
Li3 O13 2.162630 1_455
Li3 O18 2.162630 1_554
Li3 O17 2.268574 1_554
Li3 O15 2.268574 1_455
Nb0 O17 1.985292 1_555
Nb0 O5 1.985292 1_555
Nb0 O2 2.098892 1_555
Nb0 O16 2.098892 1_555
Nb0 O4 2.148913 1_555
Nb0 O14 2.148913 1_555
Nb1 O3 1.998391 1_555
Nb1 O5 1.998391 1_455
Nb1 O6 2.100952 1_455
Nb1 O0 2.100952 1_555
Nb1 O1 2.122417 1_455
Nb1 O7 2.122417 1_555
Nb2 O3 1.985292 1_555
Nb2 O15 1.985292 1_555
Nb2 O8 2.098892 1_555
Nb2 O10 2.098892 1_555
Nb2 O9 2.148913 1_555
Nb2 O11 2.148913 1_555
Nb3 O17 1.998391 1_554
Nb3 O15 1.998391 1_545
Nb3 O19 2.100952 1_544
Nb3 O12 2.100952 1_555
Nb3 O13 2.122417 1_545
Nb3 O18 2.122417 1_554
O0 P3 1.558018 1_555
O1 P0 1.543415 1_555
O2 P0 1.554277 1_455
O4 P0 1.542426 1_545
O6 P2 1.558018 1_555
O7 P1 1.543415 1_555
O8 P2 1.554277 1_545
O9 P2 1.542426 1_455
O10 P1 1.554277 1_655
O11 P1 1.542426 1_565
O12 P1 1.558018 1_555
O13 P2 1.543415 1_555
O14 P3 1.542426 1_655
O16 P3 1.554277 1_565
O18 P3 1.543415 1_555
O19 P0 1.558018 1_555
