# generated using pymatgen
data_LaSi3Ru
_symmetry_space_group_name_H-M   'P 1'
_cell_length_a   5.82406257
_cell_length_b   5.82406257
_cell_length_c   5.82406257
_cell_angle_alpha   137.03800750
_cell_angle_beta   137.03800750
_cell_angle_gamma   62.37957667
_symmetry_Int_Tables_number   1
_chemical_formula_structural   LaSi3Ru
_chemical_formula_sum   'La1 Si3 Ru1'
_cell_volume   90.64736861
_cell_formula_units_Z   1
loop_
 _symmetry_equiv_pos_site_id
 _symmetry_equiv_pos_as_xyz
  1  'x, y, z'
loop_
 _atom_site_type_symbol
 _atom_site_label
 _atom_site_symmetry_multiplicity
 _atom_site_fract_x
 _atom_site_fract_y
 _atom_site_fract_z
 _atom_site_occupancy
  La  La0  1  0.99929371  0.99929371  -0.00000000  1
  Si  Si0  1  0.41772753  0.41772753  0.00000000  1
  Si  Si1  1  0.26066472  0.76066472  0.50000000  1
  Si  Si2  1  0.76066472  0.26066472  0.50000000  1
  Ru  Ru0  1  0.65565031  0.65565031  0.00000000  1
loop_
_geom_bond_atom_site_label_1
_geom_bond_atom_site_label_2
_geom_bond_distance
_geom_bond_site_symmetry_2
La0 Si0 3.123723 1_666
La0 Si0 3.123723 1_565
La0 Si0 3.123723 1_554
La0 Si0 3.123723 1_655
La0 Si1 3.194137 1_655
La0 Si2 3.194137 1_565
La0 Si2 3.194137 1_554
La0 Si1 3.194137 1_554
La0 Si2 3.366236 1_665
La0 Si1 3.366236 1_665
La0 Si2 3.366236 1_564
La0 Si1 3.366236 1_654
La0 Ru0 3.394769 1_655
La0 Ru0 3.394769 1_554
La0 Ru0 3.394769 1_666
La0 Ru0 3.394769 1_565
La0 Ru0 3.424223 1_555
Si0 Si2 2.645355 1_555
Si0 Si2 2.645355 1_454
Si0 Si1 2.645355 1_544
Si0 Si1 2.645355 1_555
Ru0 Si0 2.370773 1_555
Ru0 Si2 2.375607 1_554
Ru0 Si1 2.375607 1_554
Ru0 Si1 2.375607 1_655
Ru0 Si2 2.375607 1_565
