# generated using pymatgen
data_Na4FeO5
_symmetry_space_group_name_H-M   'P 1'
_cell_length_a   7.38959104
_cell_length_b   9.32016700
_cell_length_c   7.39282203
_cell_angle_alpha   89.99905417
_cell_angle_beta   89.93937248
_cell_angle_gamma   90.00292968
_symmetry_Int_Tables_number   1
_chemical_formula_structural   Na4FeO5
_chemical_formula_sum   'Na16 Fe4 O20'
_cell_volume   509.15979869
_cell_formula_units_Z   4
loop_
 _symmetry_equiv_pos_site_id
 _symmetry_equiv_pos_as_xyz
  1  'x, y, z'
loop_
 _atom_site_type_symbol
 _atom_site_label
 _atom_site_symmetry_multiplicity
 _atom_site_fract_x
 _atom_site_fract_y
 _atom_site_fract_z
 _atom_site_occupancy
  Na  Na0  1  0.29612000  0.25040600  0.10458500  1
  Na  Na1  1  0.78971900  0.49911100  0.60282500  1
  Na  Na2  1  0.28901200  0.75035200  0.10178000  1
  Na  Na3  1  0.79641200  0.00004500  0.60532900  1
  Na  Na4  1  0.39520300  0.00008000  0.79657000  1
  Na  Na5  1  0.89524600  0.25045500  0.29595300  1
  Na  Na6  1  0.39746600  0.49910600  0.78986800  1
  Na  Na7  1  0.89817500  0.75046200  0.28893900  1
  Na  Na8  1  0.60240700  0.49918400  0.21013500  1
  Na  Na9  1  0.10160000  0.75045900  0.71100800  1
  Na  Na10  1  0.60474000  0.00001300  0.20340600  1
  Na  Na11  1  0.10478500  0.25047000  0.70409100  1
  Na  Na12  1  0.70397200  0.25030300  0.89532600  1
  Na  Na13  1  0.21033400  0.49922100  0.39681000  1
  Na  Na14  1  0.71102500  0.75043400  0.89838900  1
  Na  Na15  1  0.20366000  0.99993700  0.39459200  1
  Fe  Fe0  1  0.00010500  0.49118300  0.00011900  1
  Fe  Fe1  1  0.49997200  0.75954000  0.49993900  1
  Fe  Fe2  1  0.00003400  0.02889900  0.00004300  1
  Fe  Fe3  1  0.50003200  0.22235900  0.49999400  1
  O  O0  1  0.00004000  0.27410400  0.00006100  1
  O  O1  1  0.50001600  0.55845000  0.49999600  1
  O  O2  1  0.99998700  0.69195900  0.00010500  1
  O  O3  1  0.50002700  0.97417100  0.50000300  1
  O  O4  1  0.24518500  0.49494600  0.07007500  1
  O  O5  1  0.74530300  0.75471500  0.57016200  1
  O  O6  1  0.23752200  0.00357200  0.06880700  1
  O  O7  1  0.73753700  0.24663000  0.56873000  1
  O  O8  1  0.43128000  0.24661800  0.73737500  1
  O  O9  1  0.92980700  0.49486900  0.24516300  1
  O  O10  1  0.42985100  0.75466600  0.74498300  1
  O  O11  1  0.93108900  0.00358300  0.23746900  1
  O  O12  1  0.56874600  0.24662000  0.26264200  1
  O  O13  1  0.06994800  0.49488200  0.75490200  1
  O  O14  1  0.57014700  0.75469500  0.25493800  1
  O  O15  1  0.06887300  0.00360200  0.76258200  1
  O  O16  1  0.76255100  0.00354900  0.93120100  1
  O  O17  1  0.26249800  0.24664000  0.43126200  1
  O  O18  1  0.75508500  0.49496000  0.92982900  1
  O  O19  1  0.25448700  0.75475000  0.43001000  1
loop_
_geom_bond_atom_site_label_1
_geom_bond_atom_site_label_2
_geom_bond_distance
_geom_bond_site_symmetry_2
Na0 O4 2.324128 1_555
Na0 O12 2.330276 1_555
Na0 O0 2.331622 1_555
Na0 O6 2.355861 1_555
Na0 O17 2.427803 1_555
Na0 O8 2.891845 1_554
Na1 O1 2.338863 1_555
Na1 O13 2.357670 1_655
Na1 O7 2.397862 1_555
Na1 O5 2.416916 1_555
Na1 O18 2.431030 1_555
Na1 O9 2.838809 1_555
Na2 O2 2.329383 1_455
Na2 O14 2.367390 1_555
Na2 O6 2.402980 1_565
Na2 O4 2.413785 1_555
Na2 O19 2.439998 1_555
Na2 O10 2.834890 1_554
Na3 O15 2.326206 1_655
Na3 O5 2.332065 1_545
Na3 O3 2.337699 1_545
Na3 O7 2.354698 1_555
Na3 O16 2.422031 1_555
Na3 O11 2.895099 1_555
Na4 O6 2.324725 1_556
Na4 O10 2.332942 1_545
Na4 O3 2.337024 1_545
Na4 O8 2.354148 1_555
Na4 O15 2.424989 1_555
Na4 O16 2.892434 1_555
Na5 O9 2.322738 1_555
Na5 O7 2.328326 1_555
Na5 O0 2.330170 1_655
Na5 O11 2.356062 1_555
Na5 O12 2.425758 1_555
Na5 O17 2.893542 1_655
Na6 O1 2.338587 1_555
Na6 O4 2.356703 1_556
Na6 O8 2.398044 1_555
Na6 O10 2.416690 1_555
Na6 O13 2.434578 1_555
Na6 O18 2.839287 1_555
Na7 O2 2.327985 1_555
Na7 O5 2.365400 1_555
Na7 O11 2.401906 1_565
Na7 O9 2.415373 1_555
Na7 O14 2.437577 1_555
Na7 O19 2.833329 1_655
Na8 O1 2.337997 1_555
Na8 O18 2.358758 1_554
Na8 O12 2.398601 1_555
Na8 O14 2.416101 1_555
Na8 O9 2.433778 1_555
Na8 O4 2.836832 1_555
Na9 O2 2.329254 1_456
Na9 O19 2.363994 1_555
Na9 O15 2.402127 1_565
Na9 O13 2.415323 1_555
Na9 O10 2.439188 1_555
Na9 O5 2.832612 1_455
Na10 O16 2.325004 1_554
Na10 O14 2.331916 1_545
Na10 O3 2.336881 1_545
Na10 O12 2.354803 1_555
Na10 O11 2.425189 1_555
Na10 O6 2.891462 1_555
Na11 O13 2.323007 1_555
Na11 O17 2.328677 1_555
Na11 O0 2.330592 1_556
Na11 O15 2.356052 1_555
Na11 O8 2.425706 1_555
Na11 O7 2.893648 1_455
Na12 O18 2.325376 1_555
Na12 O8 2.330288 1_555
Na12 O0 2.332130 1_656
Na12 O16 2.355222 1_555
Na12 O7 2.427154 1_555
Na12 O12 2.892734 1_556
Na13 O1 2.339295 1_555
Na13 O9 2.358106 1_455
Na13 O17 2.399065 1_555
Na13 O19 2.416339 1_555
Na13 O4 2.429240 1_555
Na13 O13 2.842579 1_555
Na14 O2 2.329278 1_556
Na14 O10 2.368508 1_555
Na14 O16 2.401910 1_565
Na14 O18 2.414477 1_555
Na14 O5 2.439768 1_555
Na14 O14 2.833286 1_556
Na15 O11 2.326444 1_465
Na15 O19 2.330659 1_555
Na15 O3 2.337702 1_555
Na15 O17 2.355747 1_565
Na15 O6 2.421407 1_565
Na15 O15 2.896296 1_565
Fe0 O2 1.871266 1_455
Fe0 O4 1.884288 1_555
Fe0 O9 1.884362 1_455
Fe0 O18 1.884550 1_454
Fe0 O13 1.884671 1_554
Fe0 O0 2.023213 1_555
Fe1 O1 1.874192 1_555
Fe1 O14 1.884035 1_555
Fe1 O10 1.884235 1_555
Fe1 O5 1.886829 1_555
Fe1 O19 1.887313 1_555
Fe1 O3 2.000397 1_555
Fe2 O11 1.842340 1_455
Fe2 O15 1.842362 1_554
Fe2 O6 1.842794 1_555
Fe2 O16 1.842925 1_454
Fe2 O0 2.285352 1_555
Fe3 O12 1.840115 1_555
Fe3 O8 1.840408 1_555
Fe3 O7 1.841601 1_555
Fe3 O17 1.841828 1_555
Fe3 O3 2.313154 1_545
