# generated using pymatgen
data_Li2Mn3TeO8
_symmetry_space_group_name_H-M   'P 1'
_cell_length_a   5.92258652
_cell_length_b   6.28700194
_cell_length_c   8.98177705
_cell_angle_alpha   90.02050887
_cell_angle_beta   89.99780125
_cell_angle_gamma   90.05830679
_symmetry_Int_Tables_number   1
_chemical_formula_structural   Li2Mn3TeO8
_chemical_formula_sum   'Li4 Mn6 Te2 O16'
_cell_volume   334.43908427
_cell_formula_units_Z   2
loop_
 _symmetry_equiv_pos_site_id
 _symmetry_equiv_pos_as_xyz
  1  'x, y, z'
loop_
 _atom_site_type_symbol
 _atom_site_label
 _atom_site_symmetry_multiplicity
 _atom_site_fract_x
 _atom_site_fract_y
 _atom_site_fract_z
 _atom_site_occupancy
  Li  Li0  1  0.00043700  0.29179600  0.13124500  1
  Li  Li1  1  0.49921100  0.79229200  0.63089700  1
  Li  Li2  1  0.99946900  0.70761400  0.86914700  1
  Li  Li3  1  0.50071500  0.20829200  0.36875300  1
  Mn  Mn0  1  0.50024600  0.00006400  0.99997700  1
  Mn  Mn1  1  0.75002800  0.74890900  0.25120300  1
  Mn  Mn2  1  0.24986800  0.25113000  0.74896000  1
  Mn  Mn3  1  0.00055000  0.50013100  0.49969000  1
  Mn  Mn4  1  0.25005500  0.75085400  0.24883200  1
  Mn  Mn5  1  0.74984000  0.24906700  0.75104900  1
  Te  Te0  1  0.99993500  0.00017500  0.49992200  1
  Te  Te1  1  0.49996800  0.49988000  0.00011000  1
  O  O0  1  0.00068400  0.55423700  0.25990900  1
  O  O1  1  0.49919000  0.05426100  0.75987600  1
  O  O2  1  0.99930100  0.44590200  0.74016600  1
  O  O3  1  0.50078700  0.94575600  0.24013200  1
  O  O4  1  0.22817700  0.77717400  0.49755200  1
  O  O5  1  0.72930500  0.27791500  0.99786000  1
  O  O6  1  0.77096500  0.77770700  0.49865400  1
  O  O7  1  0.27206800  0.27657800  0.99867400  1
  O  O8  1  0.99893300  0.98143900  0.27558700  1
  O  O9  1  0.49923400  0.48119200  0.77575100  1
  O  O10  1  0.00096900  0.01876000  0.72427500  1
  O  O11  1  0.50065200  0.51846200  0.22442700  1
  O  O12  1  0.22904100  0.22246500  0.50123000  1
  O  O13  1  0.72784900  0.72310000  0.00152000  1
  O  O14  1  0.77180700  0.22303900  0.50229500  1
  O  O15  1  0.27071600  0.72181000  0.00230600  1
loop_
_geom_bond_atom_site_label_1
_geom_bond_atom_site_label_2
_geom_bond_distance
_geom_bond_site_symmetry_2
Li0 O7 2.003787 1_554
Li0 O5 2.005316 1_454
Li0 O0 2.014077 1_555
Li0 O8 2.343047 1_445
Li1 O6 2.002435 1_555
Li1 O4 2.004982 1_555
Li1 O1 2.013274 1_565
Li1 O9 2.349475 1_555
Li2 O13 2.002761 1_556
Li2 O15 2.004735 1_656
Li2 O2 2.011963 1_555
Li2 O10 2.349815 1_665
Li3 O12 2.003183 1_555
Li3 O14 2.006208 1_555
Li3 O3 2.014346 1_545
Li3 O11 2.341980 1_555
Mn0 O1 2.183417 1_555
Mn0 O3 2.183998 1_546
Mn0 O7 2.203047 1_555
Mn0 O13 2.203207 1_546
Mn0 O5 2.210762 1_555
Mn0 O15 2.214489 1_546
Mn1 O0 1.926568 1_655
Mn1 O3 1.929851 1_555
Mn1 O11 2.081760 1_555
Mn1 O8 2.086559 1_555
Mn1 O6 2.233287 1_555
Mn1 O13 2.252231 1_555
Mn2 O2 1.926594 1_455
Mn2 O1 1.930236 1_555
Mn2 O9 2.080052 1_555
Mn2 O10 2.086115 1_555
Mn2 O12 2.235678 1_555
Mn2 O7 2.252354 1_555
Mn3 O0 2.180478 1_555
Mn3 O2 2.186776 1_455
Mn3 O4 2.201558 1_555
Mn3 O14 2.205891 1_455
Mn3 O12 2.209920 1_555
Mn3 O6 2.213427 1_455
Mn4 O3 1.925906 1_555
Mn4 O0 1.927583 1_555
Mn4 O8 2.091768 1_455
Mn4 O11 2.095154 1_555
Mn4 O15 2.225066 1_555
Mn4 O4 2.243758 1_555
Mn5 O1 1.925195 1_555
Mn5 O2 1.928780 1_555
Mn5 O10 2.090605 1_655
Mn5 O9 2.094300 1_555
Mn5 O5 2.227472 1_555
Mn5 O14 2.243958 1_555
O4 Te0 1.948648 1_465
O5 Te1 1.948471 1_556
O6 Te0 1.947176 1_565
O7 Te1 1.946556 1_556
O8 Te0 2.018334 1_565
O9 Te1 2.018527 1_556
O10 Te0 2.018441 1_455
O11 Te1 2.018112 1_555
O12 Te0 1.946935 1_455
O13 Te1 1.946105 1_555
O14 Te0 1.947559 1_555
O15 Te1 1.947958 1_555
