# generated using pymatgen
data_AlCoN2
_symmetry_space_group_name_H-M   'P 1'
_cell_length_a   5.39530900
_cell_length_b   6.30263200
_cell_length_c   4.88089500
_cell_angle_alpha   90.00000000
_cell_angle_beta   90.00000000
_cell_angle_gamma   90.00000000
_symmetry_Int_Tables_number   1
_chemical_formula_structural   AlCoN2
_chemical_formula_sum   'Al4 Co4 N8'
_cell_volume   165.97311227
_cell_formula_units_Z   4
loop_
 _symmetry_equiv_pos_site_id
 _symmetry_equiv_pos_as_xyz
  1  'x, y, z'
loop_
 _atom_site_type_symbol
 _atom_site_label
 _atom_site_symmetry_multiplicity
 _atom_site_fract_x
 _atom_site_fract_y
 _atom_site_fract_z
 _atom_site_occupancy
  Al  Al0  1  0.58764800  0.37473900  0.00141700  1
  Al  Al1  1  0.41235200  0.62526100  0.50141700  1
  Al  Al2  1  0.91235200  0.87473900  0.50141700  1
  Al  Al3  1  0.08764800  0.12526100  0.00141700  1
  Co  Co0  1  0.57949800  0.87674400  0.99456800  1
  Co  Co1  1  0.42050200  0.12325600  0.49456800  1
  Co  Co2  1  0.92050200  0.37674400  0.49456800  1
  Co  Co3  1  0.07949800  0.62325600  0.99456800  1
  N  N0  1  0.58401500  0.37664200  0.39454200  1
  N  N1  1  0.41598500  0.62335800  0.89454200  1
  N  N2  1  0.91598500  0.87664200  0.89454200  1
  N  N3  1  0.08401500  0.12335800  0.39454200  1
  N  N4  1  0.58197100  0.87028000  0.37947400  1
  N  N5  1  0.41802900  0.12972000  0.87947400  1
  N  N6  1  0.91802900  0.37028000  0.87947400  1
  N  N7  1  0.08197100  0.62972000  0.37947400  1
loop_
_geom_bond_atom_site_label_1
_geom_bond_atom_site_label_2
_geom_bond_distance
_geom_bond_site_symmetry_2
Al0 N6 1.879461 1_554
Al0 N5 1.891163 1_554
Al0 N1 1.893478 1_554
Al0 N0 1.918939 1_555
Al1 N7 1.879461 1_555
Al1 N4 1.891163 1_555
Al1 N0 1.893478 1_555
Al1 N1 1.918939 1_555
Al2 N4 1.879461 1_555
Al2 N7 1.891163 1_655
Al2 N3 1.893478 1_665
Al2 N2 1.918939 1_555
Al3 N5 1.879461 1_554
Al3 N6 1.891163 1_454
Al3 N2 1.893478 1_444
Al3 N3 1.918939 1_555
Co0 N4 1.879175 1_556
Co0 N2 1.879952 1_555
Co0 N1 1.888662 1_555
Co0 N5 1.901757 1_565
Co1 N5 1.879175 1_555
Co1 N3 1.879952 1_555
Co1 N0 1.888662 1_555
Co1 N4 1.901757 1_545
Co2 N6 1.879175 1_555
Co2 N0 1.879952 1_555
Co2 N3 1.888662 1_655
Co2 N7 1.901757 1_655
Co3 N7 1.879175 1_556
Co3 N1 1.879952 1_555
Co3 N2 1.888662 1_455
Co3 N6 1.901757 1_455
