# generated using pymatgen
data_TiNbTlO5
_symmetry_space_group_name_H-M   'P 1'
_cell_length_a   3.83978800
_cell_length_b   6.52782800
_cell_length_c   19.19722000
_cell_angle_alpha   90.00000000
_cell_angle_beta   90.00000000
_cell_angle_gamma   90.00000000
_symmetry_Int_Tables_number   1
_chemical_formula_structural   TiNbTlO5
_chemical_formula_sum   'Ti4 Nb4 Tl4 O20'
_cell_volume   481.18744989
_cell_formula_units_Z   4
loop_
 _symmetry_equiv_pos_site_id
 _symmetry_equiv_pos_as_xyz
  1  'x, y, z'
loop_
 _atom_site_type_symbol
 _atom_site_label
 _atom_site_symmetry_multiplicity
 _atom_site_fract_x
 _atom_site_fract_y
 _atom_site_fract_z
 _atom_site_occupancy
  Ti  Ti0  1  0.25000000  0.31712000  0.96689200  1
  Ti  Ti1  1  0.25000000  0.81712000  0.53310800  1
  Ti  Ti2  1  0.75000000  0.68288000  0.03310800  1
  Ti  Ti3  1  0.75000000  0.18288000  0.46689200  1
  Nb  Nb0  1  0.25000000  0.77191500  0.89266400  1
  Nb  Nb1  1  0.25000000  0.27191500  0.60733600  1
  Nb  Nb2  1  0.75000000  0.22808500  0.10733600  1
  Nb  Nb3  1  0.75000000  0.72808500  0.39266400  1
  Tl  Tl0  1  0.25000000  0.77069100  0.19581000  1
  Tl  Tl1  1  0.25000000  0.27069100  0.30419000  1
  Tl  Tl2  1  0.75000000  0.22930900  0.80419000  1
  Tl  Tl3  1  0.75000000  0.72930900  0.69581000  1
  O  O0  1  0.25000000  0.24058400  0.07762600  1
  O  O1  1  0.25000000  0.74058400  0.42237400  1
  O  O2  1  0.75000000  0.75941600  0.92237400  1
  O  O3  1  0.75000000  0.25941600  0.57762600  1
  O  O4  1  0.25000000  0.46407100  0.88316800  1
  O  O5  1  0.25000000  0.96407100  0.61683200  1
  O  O6  1  0.75000000  0.53592900  0.11683200  1
  O  O7  1  0.75000000  0.03592900  0.38316800  1
  O  O8  1  0.25000000  0.06447900  0.92937200  1
  O  O9  1  0.25000000  0.56447900  0.57062800  1
  O  O10  1  0.75000000  0.93552100  0.07062800  1
  O  O11  1  0.75000000  0.43552100  0.42937200  1
  O  O12  1  0.25000000  0.64458100  0.00976100  1
  O  O13  1  0.25000000  0.14458100  0.49023900  1
  O  O14  1  0.75000000  0.35541900  0.99023900  1
  O  O15  1  0.75000000  0.85541900  0.50976100  1
  O  O16  1  0.25000000  0.83192700  0.80055900  1
  O  O17  1  0.25000000  0.33192700  0.69944100  1
  O  O18  1  0.75000000  0.16807300  0.19944100  1
  O  O19  1  0.75000000  0.66807300  0.30055900  1
loop_
_geom_bond_atom_site_label_1
_geom_bond_atom_site_label_2
_geom_bond_distance
_geom_bond_site_symmetry_2
Nb0 O16 1.811037 1_555
Nb0 O2 2.004482 1_455
Nb0 O2 2.004482 1_555
Nb0 O4 2.017804 1_555
Nb0 O8 2.035671 1_565
Nb0 O12 2.396693 1_556
Nb1 O17 1.811037 1_555
Nb1 O3 2.004482 1_455
Nb1 O3 2.004482 1_555
Nb1 O5 2.017804 1_545
Nb1 O9 2.035671 1_555
Nb1 O13 2.396693 1_555
Nb2 O18 1.811037 1_555
Nb2 O0 2.004482 1_555
Nb2 O0 2.004482 1_655
Nb2 O6 2.017804 1_555
Nb2 O10 2.035671 1_545
Nb2 O14 2.396693 1_554
Nb3 O19 1.811037 1_555
Nb3 O1 2.004482 1_555
Nb3 O1 2.004482 1_655
Nb3 O7 2.017804 1_565
Nb3 O11 2.035671 1_555
Nb3 O15 2.396693 1_555
O0 Ti0 2.183707 1_554
O1 Ti1 2.183707 1_555
O2 Ti2 2.183707 1_556
O3 Ti3 2.183707 1_555
O4 Ti0 1.871767 1_555
O4 Tl2 2.886735 1_555
O4 Tl2 2.886735 1_455
O5 Ti1 1.871767 1_555
O5 Tl3 2.886735 1_455
O5 Tl3 2.886735 1_555
O6 Ti2 1.871767 1_555
O6 Tl0 2.886735 1_555
O6 Tl0 2.886735 1_655
O7 Ti3 1.871767 1_555
O7 Tl1 2.886735 1_555
O7 Tl1 2.886735 1_655
O8 Ti0 1.799626 1_555
O9 Ti1 1.799626 1_555
O10 Ti2 1.799626 1_555
O11 Ti3 1.799626 1_555
O12 Ti2 1.987304 1_555
O12 Ti2 1.987304 1_455
O12 Ti0 2.290556 1_554
O13 Ti3 1.987304 1_455
O13 Ti3 1.987304 1_555
O13 Ti1 2.290556 1_545
O14 Ti0 1.987304 1_555
O14 Ti0 1.987304 1_655
O14 Ti2 2.290556 1_556
O15 Ti1 1.987304 1_555
O15 Ti1 1.987304 1_655
O15 Ti3 2.290556 1_565
O16 Tl3 2.859790 1_455
O16 Tl3 2.859790 1_555
O17 Tl2 2.859790 1_455
O17 Tl2 2.859790 1_555
O18 Tl1 2.859790 1_555
O18 Tl1 2.859790 1_655
O19 Tl0 2.859790 1_555
O19 Tl0 2.859790 1_655
