# generated using pymatgen
data_Zr5SiPb3
_symmetry_space_group_name_H-M   'P 1'
_cell_length_a   8.78249124
_cell_length_b   8.78249124
_cell_length_c   5.94026406
_cell_angle_alpha   90.00000000
_cell_angle_beta   90.00000000
_cell_angle_gamma   119.99999730
_symmetry_Int_Tables_number   1
_chemical_formula_structural   Zr5SiPb3
_chemical_formula_sum   'Zr10 Si2 Pb6'
_cell_volume   396.80016597
_cell_formula_units_Z   2
loop_
 _symmetry_equiv_pos_site_id
 _symmetry_equiv_pos_as_xyz
  1  'x, y, z'
loop_
 _atom_site_type_symbol
 _atom_site_label
 _atom_site_symmetry_multiplicity
 _atom_site_fract_x
 _atom_site_fract_y
 _atom_site_fract_z
 _atom_site_occupancy
  Zr  Zr0  1  0.66666700  0.33333300  0.50000000  1
  Zr  Zr1  1  0.33333300  0.66666700  0.50000000  1
  Zr  Zr2  1  0.33333300  0.66666700  0.00000000  1
  Zr  Zr3  1  0.66666700  0.33333300  0.00000000  1
  Zr  Zr4  1  0.74539456  0.74539456  0.25000000  1
  Zr  Zr5  1  0.25460544  0.00000000  0.25000000  1
  Zr  Zr6  1  0.00000000  0.25460544  0.25000000  1
  Zr  Zr7  1  0.25460544  0.25460544  0.75000000  1
  Zr  Zr8  1  0.74539456  1.00000000  0.75000000  1
  Zr  Zr9  1  1.00000000  0.74539456  0.75000000  1
  Si  Si0  1  0.00000000  -0.00000000  0.50000000  1
  Si  Si1  1  0.00000000  -0.00000000  0.00000000  1
  Pb  Pb0  1  0.39443201  0.39443201  0.25000000  1
  Pb  Pb1  1  0.60556799  0.00000000  0.25000000  1
  Pb  Pb2  1  0.00000000  0.60556799  0.25000000  1
  Pb  Pb3  1  0.60556799  0.60556799  0.75000000  1
  Pb  Pb4  1  0.39443201  1.00000000  0.75000000  1
  Pb  Pb5  1  1.00000000  0.39443201  0.75000000  1
loop_
_geom_bond_atom_site_label_1
_geom_bond_atom_site_label_2
_geom_bond_distance
_geom_bond_site_symmetry_2
Si0 Zr9 2.684293 1_445
Si0 Zr8 2.684293 1_445
Si0 Zr6 2.684293 1_555
Si0 Zr5 2.684293 1_555
Si0 Zr4 2.684293 1_445
Si0 Zr7 2.684293 1_555
Si1 Zr8 2.684293 1_444
Si1 Zr9 2.684293 1_444
Si1 Zr6 2.684293 1_555
Si1 Zr5 2.684293 1_555
Si1 Zr4 2.684293 1_445
Si1 Zr7 2.684293 1_554
Pb0 Zr6 3.042040 1_555
Pb0 Zr5 3.042040 1_555
Pb0 Zr2 3.081028 1_555
Pb0 Zr1 3.081028 1_555
Pb0 Zr3 3.081028 1_555
Pb0 Zr0 3.081028 1_555
Pb0 Zr4 3.082326 1_555
Pb0 Zr7 3.213990 1_555
Pb0 Zr7 3.213990 1_554
Pb1 Zr4 3.042040 1_545
Pb1 Zr6 3.042040 1_655
Pb1 Zr3 3.081020 1_555
Pb1 Zr0 3.081020 1_555
Pb1 Zr1 3.081023 1_545
Pb1 Zr2 3.081023 1_545
Pb1 Zr5 3.082326 1_555
Pb1 Zr8 3.213990 1_545
Pb1 Zr8 3.213990 1_544
Pb2 Zr4 3.042040 1_455
Pb2 Zr5 3.042040 1_565
Pb2 Zr2 3.081020 1_555
Pb2 Zr1 3.081020 1_555
Pb2 Zr3 3.081023 1_455
Pb2 Zr0 3.081023 1_455
Pb2 Zr6 3.082326 1_555
Pb2 Zr9 3.213990 1_454
Pb2 Zr9 3.213990 1_455
Pb3 Zr8 3.042040 1_555
Pb3 Zr9 3.042040 1_555
Pb3 Zr2 3.081028 1_556
Pb3 Zr0 3.081028 1_555
Pb3 Zr3 3.081028 1_556
Pb3 Zr1 3.081028 1_555
Pb3 Zr7 3.082326 1_555
Pb3 Zr4 3.213990 1_555
Pb3 Zr4 3.213990 1_556
Pb4 Zr7 3.042040 1_565
Pb4 Zr9 3.042040 1_455
Pb4 Zr1 3.081020 1_555
Pb4 Zr2 3.081020 1_556
Pb4 Zr3 3.081023 1_566
Pb4 Zr0 3.081023 1_565
Pb4 Zr8 3.082326 1_555
Pb4 Zr5 3.213990 1_566
Pb4 Zr5 3.213990 1_565
Pb5 Zr7 3.042040 1_655
Pb5 Zr8 3.042040 1_545
Pb5 Zr0 3.081020 1_555
Pb5 Zr3 3.081020 1_556
Pb5 Zr1 3.081023 1_655
Pb5 Zr2 3.081023 1_656
Pb5 Zr9 3.082326 1_555
Pb5 Zr6 3.213990 1_655
Pb5 Zr6 3.213990 1_656
