# generated using pymatgen
data_AgSbO12
_symmetry_space_group_name_H-M   'P 1'
_cell_length_a   7.43822028
_cell_length_b   7.43822028
_cell_length_c   7.43822028
_cell_angle_alpha   60.00000000
_cell_angle_beta   60.00000000
_cell_angle_gamma   60.00000000
_symmetry_Int_Tables_number   1
_chemical_formula_structural   AgSbO12
_chemical_formula_sum   'Ag2 Sb2 O24'
_cell_volume   290.99941050
_cell_formula_units_Z   2
loop_
 _symmetry_equiv_pos_site_id
 _symmetry_equiv_pos_as_xyz
  1  'x, y, z'
loop_
 _atom_site_type_symbol
 _atom_site_label
 _atom_site_symmetry_multiplicity
 _atom_site_fract_x
 _atom_site_fract_y
 _atom_site_fract_z
 _atom_site_occupancy
  Ag  Ag0  1  0.00000000  0.00000000  0.00000000  1
  Ag  Ag1  1  0.25000000  0.25000000  0.25000000  1
  Sb  Sb0  1  0.50000000  0.50000000  0.50000000  1
  Sb  Sb1  1  0.75000000  0.75000000  0.75000000  1
  O  O0  1  0.89481700  0.28249600  0.28249600  1
  O  O1  1  0.28249600  0.89481700  0.54019100  1
  O  O2  1  0.28249600  0.54019100  0.89481700  1
  O  O3  1  0.28249600  0.89481700  0.28249600  1
  O  O4  1  0.35518300  0.96750400  0.70980900  1
  O  O5  1  0.35518300  0.96750400  0.96750400  1
  O  O6  1  0.54019100  0.28249600  0.28249600  1
  O  O7  1  0.54019100  0.28249600  0.89481700  1
  O  O8  1  0.96750400  0.35518300  0.96750400  1
  O  O9  1  0.96750400  0.35518300  0.70980900  1
  O  O10  1  0.89481700  0.28249600  0.54019100  1
  O  O11  1  0.96750400  0.70980900  0.96750400  1
  O  O12  1  0.96750400  0.70980900  0.35518300  1
  O  O13  1  0.28249600  0.54019100  0.28249600  1
  O  O14  1  0.70980900  0.96750400  0.35518300  1
  O  O15  1  0.70980900  0.96750400  0.96750400  1
  O  O16  1  0.28249600  0.28249600  0.89481700  1
  O  O17  1  0.54019100  0.89481700  0.28249600  1
  O  O18  1  0.28249600  0.28249600  0.54019100  1
  O  O19  1  0.89481700  0.54019100  0.28249600  1
  O  O20  1  0.70980900  0.35518300  0.96750400  1
  O  O21  1  0.96750400  0.96750400  0.35518300  1
  O  O22  1  0.35518300  0.70980900  0.96750400  1
  O  O23  1  0.96750400  0.96750400  0.70980900  1
loop_
_geom_bond_atom_site_label_1
_geom_bond_atom_site_label_2
_geom_bond_distance
_geom_bond_site_symmetry_2
Ag0 O11 2.424436 1_444
Ag0 O15 2.424436 1_444
Ag0 O14 2.424436 1_445
Ag0 O20 2.424436 1_454
Ag0 O22 2.424436 1_544
Ag0 O23 2.424436 1_444
Ag0 O9 2.424436 1_454
Ag0 O4 2.424436 1_544
Ag0 O5 2.424436 1_544
Ag0 O8 2.424436 1_454
Ag0 O21 2.424436 1_445
Ag0 O12 2.424436 1_445
Ag1 O6 2.424436 1_555
Ag1 O19 2.424436 1_455
Ag1 O13 2.424436 1_555
Ag1 O17 2.424436 1_545
Ag1 O3 2.424436 1_545
Ag1 O18 2.424436 1_555
Ag1 O2 2.424436 1_554
Ag1 O1 2.424436 1_545
Ag1 O0 2.424436 1_455
Ag1 O10 2.424436 1_455
Ag1 O16 2.424436 1_554
Ag1 O7 2.424436 1_554
O0 O19 1.916792 1_555
O0 O10 1.916792 1_555
O0 O8 1.957800 1_554
O0 O21 1.957800 1_545
O0 Sb0 2.640892 1_555
O1 O17 1.916792 1_555
O1 O3 1.916792 1_555
O1 O23 1.957800 1_455
O1 O4 1.957800 1_555
O1 Sb0 2.640892 1_555
O2 O7 1.916792 1_555
O2 O22 1.957800 1_555
O2 Sb0 2.640892 1_555
O3 O5 1.957800 1_554
O3 Sb0 2.640892 1_555
O4 O5 1.916792 1_555
O4 Sb1 2.640892 1_555
O5 Sb1 2.640892 1_555
O6 Sb0 2.640892 1_555
O7 Sb0 2.640892 1_555
O8 O9 1.916792 1_555
O8 Sb1 2.640892 1_555
O9 Sb1 2.640892 1_555
O10 O19 1.916792 1_555
O10 O23 1.957800 1_545
O10 O9 1.957800 1_555
O10 Sb0 2.640892 1_555
O11 O15 1.916792 1_555
O11 O23 1.916792 1_555
O11 O19 1.957800 1_556
O11 O2 1.957800 1_655
O11 Sb1 2.640892 1_555
O12 O14 1.916792 1_555
O12 O21 1.916792 1_555
O12 O13 1.957800 1_655
O12 O19 1.957800 1_555
O12 Sb1 2.640892 1_555
O13 O6 1.916792 1_555
O13 O18 1.916792 1_555
O13 O22 1.957800 1_554
O13 Sb0 2.640892 1_555
O14 O21 1.916792 1_555
O14 O6 1.957800 1_565
O14 O17 1.957800 1_555
O14 Sb1 2.640892 1_555
O15 O23 1.916792 1_555
O15 O7 1.957800 1_565
O15 O17 1.957800 1_556
O15 Sb1 2.640892 1_555
O16 O2 1.916792 1_555
O16 O7 1.916792 1_555
O16 O5 1.957800 1_545
O16 O8 1.957800 1_455
O16 Sb0 2.640892 1_555
O17 O3 1.916792 1_555
O17 Sb0 2.640892 1_555
O18 O6 1.916792 1_555
O18 O9 1.957800 1_455
O18 O4 1.957800 1_545
O18 Sb0 2.640892 1_555
O19 Sb0 2.640892 1_555
O20 O9 1.916792 1_555
O20 O8 1.916792 1_555
O20 O6 1.957800 1_556
O20 O7 1.957800 1_555
O20 Sb1 2.640892 1_555
O21 O3 1.957800 1_655
O21 Sb1 2.640892 1_555
O22 O4 1.916792 1_555
O22 O5 1.916792 1_555
O22 Sb1 2.640892 1_555
O23 Sb1 2.640892 1_555
