# generated using pymatgen
data_Sr2LiLa2RuO8
_symmetry_space_group_name_H-M   'P 1'
_cell_length_a   5.99816658
_cell_length_b   6.02163074
_cell_length_c   26.61184009
_cell_angle_alpha   105.51174691
_cell_angle_beta   105.40280939
_cell_angle_gamma   83.92213739
_symmetry_Int_Tables_number   1
_chemical_formula_structural   Sr2LiLa2RuO8
_chemical_formula_sum   'Sr8 Li4 La8 Ru4 O32'
_cell_volume   892.28116022
_cell_formula_units_Z   4
loop_
 _symmetry_equiv_pos_site_id
 _symmetry_equiv_pos_as_xyz
  1  'x, y, z'
loop_
 _atom_site_type_symbol
 _atom_site_label
 _atom_site_symmetry_multiplicity
 _atom_site_fract_x
 _atom_site_fract_y
 _atom_site_fract_z
 _atom_site_occupancy
  Sr  Sr0  1  0.11421300  0.09078700  0.56571500  1
  Sr  Sr1  1  0.15228900  0.62525300  0.68258600  1
  Sr  Sr2  1  0.14682300  0.63078900  0.18276800  1
  Sr  Sr3  1  0.87018300  0.35572000  0.81883900  1
  Sr  Sr4  1  0.60360800  0.62081600  0.06903700  1
  Sr  Sr5  1  0.88213000  0.89820700  0.93258000  1
  Sr  Sr6  1  0.86666500  0.35065800  0.31858100  1
  Sr  Sr7  1  0.88770600  0.90667700  0.43323000  1
  Li  Li0  1  0.22808100  0.24759700  0.74613600  1
  Li  Li1  1  0.49906200  0.98020700  0.99664500  1
  Li  Li2  1  0.24725500  0.26434500  0.25303700  1
  Li  Li3  1  0.49704400  0.99174000  0.49735700  1
  La  La0  1  0.34892800  0.88363600  0.81622400  1
  La  La1  1  0.14020700  0.10777200  0.06700400  1
  La  La2  1  0.39672800  0.36080700  0.93449700  1
  La  La3  1  0.35881700  0.88677600  0.31692200  1
  La  La4  1  0.38863000  0.36109500  0.43366400  1
  La  La5  1  0.62386500  0.64582400  0.57042500  1
  La  La6  1  0.60234900  0.14629000  0.68500300  1
  La  La7  1  0.61533300  0.14707200  0.18528200  1
  Ru  Ru0  1  0.75933300  0.75079100  0.75198900  1
  Ru  Ru1  1  0.99494900  0.50527500  0.00008300  1
  Ru  Ru2  1  0.75694500  0.74662200  0.25141400  1
  Ru  Ru3  1  0.99880800  0.50146200  0.49979800  1
  O  O0  1  0.01117200  0.52000000  0.75414800  1
  O  O1  1  0.97569200  0.98684200  0.75583600  1
  O  O2  1  0.03684200  0.55285400  0.57968600  1
  O  O3  1  0.22350200  0.21669300  0.66081700  1
  O  O4  1  0.99178000  0.49803200  0.25018500  1
  O  O5  1  0.98302400  0.97565800  0.25747400  1
  O  O6  1  0.28462300  0.28041200  0.84571500  1
  O  O7  1  0.46265900  0.96022900  0.90596000  1
  O  O8  1  0.22735000  0.23244900  0.49536900  1
  O  O9  1  0.25228600  0.70820200  0.50779800  1
  O  O10  1  0.05207500  0.54345700  0.07993700  1
  O  O11  1  0.21796500  0.21765400  0.15635300  1
  O  O12  1  0.53082500  0.52658900  0.74590400  1
  O  O13  1  0.49819500  0.99451300  0.75086700  1
  O  O14  1  0.28687800  0.28497000  0.34438200  1
  O  O15  1  0.46505500  0.96182500  0.40627700  1
  O  O16  1  0.24864900  0.24771700  0.99968700  1
  O  O17  1  0.23102000  0.72855400  0.00668000  1
  O  O18  1  0.55489700  0.02150400  0.59534500  1
  O  O19  1  0.69892000  0.70024300  0.66836200  1
  O  O20  1  0.51878000  0.52772800  0.24639800  1
  O  O21  1  0.50619700  0.00541100  0.25190000  1
  O  O22  1  0.80064100  0.80907000  0.83057600  1
  O  O23  1  0.95326400  0.45130400  0.92064800  1
  O  O24  1  0.75743300  0.28713100  0.49275700  1
  O  O25  1  0.76872500  0.76450200  0.50357500  1
  O  O26  1  0.53718000  0.03568100  0.09616600  1
  O  O27  1  0.69947800  0.70694900  0.17160200  1
  O  O28  1  0.80197100  0.80788600  0.33119500  1
  O  O29  1  0.95240200  0.45865100  0.42075700  1
  O  O30  1  0.77332800  0.27053100  0.99342200  1
  O  O31  1  0.75202300  0.74531800  0.00018700  1
loop_
_geom_bond_atom_site_label_1
_geom_bond_atom_site_label_2
_geom_bond_distance
_geom_bond_site_symmetry_2
Li0 O0 1.984237 1_555
Li0 O13 2.105891 1_545
Li0 O3 2.220922 1_555
Li0 O1 2.398252 1_445
Li0 O6 2.536368 1_555
Li0 O12 2.603351 1_555
Li1 O31 1.962789 1_556
Li1 O16 2.083249 1_565
Li1 O7 2.335916 1_555
Li1 O17 2.431661 1_556
Li1 O26 2.529702 1_566
Li1 O30 2.556198 1_565
Li2 O4 1.967948 1_455
Li2 O21 2.081178 1_555
Li2 O14 2.349225 1_555
Li2 O20 2.459433 1_555
Li2 O11 2.472518 1_555
Li2 O5 2.518015 1_445
Li3 O25 2.015187 1_555
Li3 O8 2.054171 1_565
Li3 O15 2.338983 1_555
Li3 O9 2.479682 1_555
Li3 O18 2.496967 1_565
Li3 O24 2.534681 1_565
La0 O7 2.234495 1_555
La0 O6 2.331497 1_565
La0 O13 2.418129 1_555
La0 O1 2.511800 1_455
La0 O22 2.640644 1_555
La0 O12 2.784004 1_555
La0 O0 2.975705 1_555
La1 O11 2.223452 1_555
La1 O26 2.332402 1_555
La1 O16 2.425894 1_554
La1 O17 2.515672 1_545
La1 O10 2.569210 1_555
La1 O30 2.813948 1_454
La1 O31 3.185561 1_445
La2 O6 2.209495 1_555
La2 O7 2.351434 1_545
La2 O16 2.416768 1_555
La2 O30 2.484230 1_555
La2 O23 2.605369 1_455
La2 O17 2.802592 1_556
La2 O31 3.139998 1_556
La3 O15 2.223957 1_555
La3 O14 2.341099 1_565
La3 O21 2.427631 1_565
La3 O5 2.484595 1_455
La3 O28 2.593895 1_555
La3 O20 2.732088 1_555
La4 O14 2.221305 1_555
La4 O15 2.351301 1_545
La4 O24 2.425484 1_555
La4 O8 2.432135 1_555
La4 O29 2.571870 1_455
La4 O9 2.686852 1_555
La5 O18 2.207631 1_565
La5 O2 2.442548 1_655
La5 O19 2.460471 1_555
La5 O25 2.462345 1_555
La5 O9 2.463856 1_555
La5 O24 2.775697 1_555
La6 O3 2.218726 1_555
La6 O18 2.250347 1_555
La6 O13 2.420160 1_545
La6 O12 2.496207 1_555
La6 O19 2.629917 1_545
La6 O1 2.785726 1_545
La7 O26 2.217897 1_555
La7 O11 2.332393 1_555
La7 O21 2.417167 1_555
La7 O20 2.541632 1_555
La7 O27 2.590257 1_545
La7 O5 2.819259 1_545
La7 O4 3.087783 1_555
O0 Ru0 1.941278 1_455
O0 Sr1 2.521976 1_555
O0 Sr3 2.553211 1_455
O1 Ru0 1.989291 1_555
O1 Sr3 2.533678 1_565
O1 Sr1 2.828605 1_655
O2 Ru3 2.018158 1_455
O2 Sr1 2.566375 1_555
O2 Sr0 2.712977 1_555
O3 Sr0 2.367978 1_555
O3 Sr1 2.391074 1_555
O4 Ru2 1.943634 1_555
O4 Sr6 2.528681 1_555
O4 Sr2 2.556076 1_655
O5 Ru2 1.981899 1_555
O5 Sr6 2.556500 1_565
O5 Sr2 2.761801 1_655
O6 Sr3 2.426332 1_455
O7 Sr5 2.442861 1_555
O8 Ru3 2.007638 1_455
O8 Sr0 2.518785 1_555
O8 Sr7 2.838079 1_445
O9 Ru3 1.998465 1_455
O9 Sr0 2.596860 1_565
O9 Sr7 2.925445 1_455
O10 Ru1 2.013631 1_455
O10 Sr2 2.560373 1_555
O10 Sr4 2.632406 1_455
O11 Sr2 2.421630 1_555
O12 Ru0 1.970920 1_555
O12 Sr1 2.562223 1_555
O12 Sr3 2.737737 1_555
O13 Ru0 2.029780 1_555
O13 Sr1 3.060052 1_555
O13 Sr3 3.124203 1_565
O14 Sr6 2.448609 1_455
O15 Sr7 2.456591 1_555
O16 Ru1 2.054542 1_456
O16 Sr5 3.055439 1_445
O16 Sr4 3.113595 1_556
O17 Ru1 1.997097 1_455
O17 Sr4 2.543211 1_555
O17 Sr5 2.782848 1_454
O18 Sr0 2.572561 1_555
O19 Ru0 2.099839 1_555
O19 Sr1 2.650815 1_655
O20 Ru2 1.999825 1_555
O20 Sr2 2.547962 1_555
O20 Sr6 2.770586 1_555
O21 Ru2 2.047902 1_545
O21 Sr6 3.014355 1_555
O21 Sr2 3.134209 1_545
O22 Ru0 1.977085 1_555
O22 Sr5 2.543035 1_555
O22 Sr3 2.663822 1_555
O23 Ru1 2.001434 1_556
O23 Sr3 2.535647 1_555
O23 Sr5 2.626135 1_555
O24 Ru3 1.979696 1_555
O24 Sr7 2.589562 1_545
O24 Sr0 2.869154 1_655
O25 Ru3 1.987255 1_555
O25 Sr7 2.538305 1_555
O25 Sr0 2.862394 1_665
O26 Sr4 2.428611 1_545
O27 Ru2 2.011011 1_555
O27 Sr4 2.553772 1_555
O27 Sr2 2.624350 1_655
O28 Ru2 2.003557 1_555
O28 Sr7 2.539773 1_555
O28 Sr6 2.681848 1_555
O29 Ru3 1.995616 1_555
O29 Sr6 2.542254 1_555
O29 Sr7 2.628098 1_555
O30 Ru1 1.983766 1_556
O30 Sr5 2.526628 1_545
O30 Sr4 2.810311 1_556
O31 Ru1 1.940748 1_555
O31 Sr4 2.540488 1_555
O31 Sr5 2.545088 1_554
