# generated using pymatgen
data_Li2V3CoO8
_symmetry_space_group_name_H-M   'P 1'
_cell_length_a   5.94070350
_cell_length_b   5.94232744
_cell_length_c   10.27593966
_cell_angle_alpha   89.35120956
_cell_angle_beta   107.66996886
_cell_angle_gamma   119.58355932
_symmetry_Int_Tables_number   1
_chemical_formula_structural   Li2V3CoO8
_chemical_formula_sum   'Li4 V6 Co2 O16'
_cell_volume   296.35297683
_cell_formula_units_Z   2
loop_
 _symmetry_equiv_pos_site_id
 _symmetry_equiv_pos_as_xyz
  1  'x, y, z'
loop_
 _atom_site_type_symbol
 _atom_site_label
 _atom_site_symmetry_multiplicity
 _atom_site_fract_x
 _atom_site_fract_y
 _atom_site_fract_z
 _atom_site_occupancy
  Li  Li0  1  0.88130600  0.43868000  0.31861000  1
  Li  Li1  1  0.87299800  0.93644000  0.81022800  1
  Li  Li2  1  0.12663200  0.06273500  0.18944600  1
  Li  Li3  1  0.11931800  0.56347900  0.68266500  1
  V  V0  1  0.49215500  0.49356500  0.99615200  1
  V  V1  1  0.50222600  0.00353600  0.50579900  1
  V  V2  1  0.50261600  0.99844100  0.99619500  1
  V  V3  1  0.49903600  0.50270200  0.50087800  1
  V  V4  1  0.99815100  0.50420200  0.99643900  1
  V  V5  1  0.99738800  0.00178600  0.50085800  1
  Co  Co0  1  0.49476300  0.25338100  0.74853500  1
  Co  Co1  1  0.50896200  0.74616700  0.25392900  1
  O  O0  1  0.25923200  0.13440600  0.39392600  1
  O  O1  1  0.25699700  0.63154700  0.88841900  1
  O  O2  1  0.73871400  0.36636400  0.10505300  1
  O  O3  1  0.74366400  0.86600600  0.61057600  1
  O  O4  1  0.75937400  0.10281800  0.38979900  1
  O  O5  1  0.71936800  0.58875800  0.88091700  1
  O  O6  1  0.75920100  0.63967200  0.39720300  1
  O  O7  1  0.74596200  0.15977100  0.88185300  1
  O  O8  1  0.28794000  0.62969200  0.38897500  1
  O  O9  1  0.29173000  0.13739200  0.88106600  1
  O  O10  1  0.71022900  0.86325300  0.10331100  1
  O  O11  1  0.70483200  0.36457200  0.62579000  1
  O  O12  1  0.23765500  0.84135800  0.10258600  1
  O  O13  1  0.26380300  0.35593700  0.62191400  1
  O  O14  1  0.26265000  0.39246000  0.10311300  1
  O  O15  1  0.26309800  0.92088300  0.62576300  1
loop_
_geom_bond_atom_site_label_1
_geom_bond_atom_site_label_2
_geom_bond_distance
_geom_bond_site_symmetry_2
Li0 O6 1.959047 1_555
Li0 O8 1.974236 1_655
Li0 O4 1.975915 1_555
Li0 O2 2.061912 1_555
Li1 O3 1.928630 1_555
Li1 O9 2.032541 1_665
Li1 O5 2.033664 1_555
Li1 O7 2.054435 1_565
Li2 O0 1.975155 1_555
Li2 O10 2.026606 1_445
Li2 O14 2.027690 1_555
Li2 O12 2.050093 1_545
Li3 O1 1.986406 1_555
Li3 O13 2.008832 1_555
Li3 O15 2.016420 1_555
Li3 O11 2.017438 1_455
Co0 O13 1.915942 1_555
Co0 O15 1.925366 1_545
Co0 O11 1.925468 1_555
Co0 O5 1.984069 1_555
Co0 O9 1.984864 1_555
Co0 O7 1.993610 1_555
Co1 O8 2.077484 1_555
Co1 O4 2.084968 1_565
Co1 O6 2.087378 1_555
Co1 O10 2.141692 1_555
Co1 O14 2.149661 1_555
Co1 O12 2.166783 1_555
O0 V3 2.013104 1_555
O0 V5 2.013900 1_455
O0 V1 2.022616 1_555
O1 V0 2.005259 1_555
O1 V4 2.009371 1_455
O1 V2 2.010350 1_555
O2 V0 2.011976 1_554
O2 V4 2.017203 1_554
O2 V2 2.018329 1_544
O3 V5 2.001087 1_565
O3 V3 2.001545 1_555
O3 V1 2.020982 1_565
O4 V5 1.872227 1_555
O4 V1 2.074190 1_555
O5 V0 1.935303 1_555
O5 V4 2.004792 1_555
O6 V5 1.974227 1_565
O6 V3 1.980927 1_555
O7 V4 1.943209 1_555
O7 V2 2.006674 1_545
O8 V3 1.871822 1_555
O8 V1 2.082575 1_565
O9 V2 1.936603 1_545
O9 V0 2.002361 1_555
O10 V2 1.874099 1_554
O10 V0 2.023744 1_554
O11 V3 1.957127 1_555
O11 V1 2.044763 1_555
O12 V4 1.876394 1_454
O12 V2 2.028549 1_554
O13 V5 2.014090 1_455
O13 V3 2.021781 1_555
O14 V0 1.874546 1_554
O14 V4 2.019803 1_454
O15 V5 1.968653 1_465
O15 V1 2.034559 1_565
