# generated using pymatgen
data_Eu2O3
_symmetry_space_group_name_H-M   'P 1'
_cell_length_a   3.78829582
_cell_length_b   3.78830376
_cell_length_c   5.82083711
_cell_angle_alpha   89.99975266
_cell_angle_beta   90.00003304
_cell_angle_gamma   119.99971530
_symmetry_Int_Tables_number   1
_chemical_formula_structural   Eu2O3
_chemical_formula_sum   'Eu2 O3'
_cell_volume   72.34458065
_cell_formula_units_Z   1
loop_
 _symmetry_equiv_pos_site_id
 _symmetry_equiv_pos_as_xyz
  1  'x, y, z'
loop_
 _atom_site_type_symbol
 _atom_site_label
 _atom_site_symmetry_multiplicity
 _atom_site_fract_x
 _atom_site_fract_y
 _atom_site_fract_z
 _atom_site_occupancy
  Eu  Eu0  1  0.66666372  0.33333110  0.75755591  1
  Eu  Eu1  1  0.33333628  0.66666890  0.24244409  1
  O  O0  1  -0.00000000  0.00000000  0.00000000  1
  O  O1  1  0.66666938  0.33333417  0.34889643  1
  O  O2  1  0.33333062  0.66666583  0.65110357  1
loop_
_geom_bond_atom_site_label_1
_geom_bond_atom_site_label_2
_geom_bond_distance
_geom_bond_site_symmetry_2
Eu0 O2 2.273255 1_555
Eu0 O2 2.273260 1_655
Eu0 O2 2.273263 1_545
Eu0 O1 2.378740 1_555
Eu0 O0 2.602934 1_556
Eu0 O0 2.602937 1_656
Eu0 O0 2.602960 1_666
Eu1 O1 2.273255 1_555
Eu1 O1 2.273260 1_455
Eu1 O1 2.273263 1_565
Eu1 O2 2.378740 1_555
Eu1 O0 2.602934 1_665
Eu1 O0 2.602937 1_565
Eu1 O0 2.602960 1_555
