# generated using pymatgen
data_HoSeF
_symmetry_space_group_name_H-M   'P 1'
_cell_length_a   4.09926100
_cell_length_b   9.97946700
_cell_length_c   18.95913500
_cell_angle_alpha   90.00000000
_cell_angle_beta   90.00000000
_cell_angle_gamma   90.00000000
_symmetry_Int_Tables_number   1
_chemical_formula_structural   HoSeF
_chemical_formula_sum   'Ho12 Se12 F12'
_cell_volume   775.58863421
_cell_formula_units_Z   12
loop_
 _symmetry_equiv_pos_site_id
 _symmetry_equiv_pos_as_xyz
  1  'x, y, z'
loop_
 _atom_site_type_symbol
 _atom_site_label
 _atom_site_symmetry_multiplicity
 _atom_site_fract_x
 _atom_site_fract_y
 _atom_site_fract_z
 _atom_site_occupancy
  Ho  Ho0  1  0.75000000  0.40798400  0.58357100  1
  Ho  Ho1  1  0.75000000  0.90798400  0.91642900  1
  Ho  Ho2  1  0.25000000  0.59201600  0.41642900  1
  Ho  Ho3  1  0.25000000  0.09201600  0.08357100  1
  Ho  Ho4  1  0.75000000  0.24446000  0.26055300  1
  Ho  Ho5  1  0.75000000  0.74446000  0.23944700  1
  Ho  Ho6  1  0.25000000  0.75554000  0.73944700  1
  Ho  Ho7  1  0.25000000  0.25554000  0.76055300  1
  Ho  Ho8  1  0.75000000  0.42243300  0.91907300  1
  Ho  Ho9  1  0.75000000  0.92243300  0.58092700  1
  Ho  Ho10  1  0.25000000  0.57756700  0.08092700  1
  Ho  Ho11  1  0.25000000  0.07756700  0.41907300  1
  Se  Se0  1  0.75000000  0.16371000  0.65928300  1
  Se  Se1  1  0.75000000  0.66371000  0.84071700  1
  Se  Se2  1  0.25000000  0.83629000  0.34071700  1
  Se  Se3  1  0.25000000  0.33629000  0.15928300  1
  Se  Se4  1  0.75000000  0.16485700  0.98638300  1
  Se  Se5  1  0.75000000  0.66485700  0.51361700  1
  Se  Se6  1  0.25000000  0.83514300  0.01361700  1
  Se  Se7  1  0.25000000  0.33514300  0.48638300  1
  Se  Se8  1  0.75000000  0.00582000  0.17785700  1
  Se  Se9  1  0.75000000  0.50582000  0.32214300  1
  Se  Se10  1  0.25000000  0.99418000  0.82214300  1
  Se  Se11  1  0.25000000  0.49418000  0.67785700  1
  F  F0  1  0.75000000  0.30121700  0.80559400  1
  F  F1  1  0.75000000  0.80121700  0.69440600  1
  F  F2  1  0.25000000  0.69878300  0.19440600  1
  F  F3  1  0.25000000  0.19878300  0.30559400  1
  F  F4  1  0.75000000  0.13689000  0.36482100  1
  F  F5  1  0.75000000  0.63689000  0.13517900  1
  F  F6  1  0.25000000  0.86311000  0.63517900  1
  F  F7  1  0.25000000  0.36311000  0.86482100  1
  F  F8  1  0.75000000  0.02528900  0.47321600  1
  F  F9  1  0.75000000  0.52528900  0.02678400  1
  F  F10  1  0.25000000  0.97471100  0.52678400  1
  F  F11  1  0.25000000  0.47471100  0.97321600  1
loop_
_geom_bond_atom_site_label_1
_geom_bond_atom_site_label_2
_geom_bond_distance
_geom_bond_site_symmetry_2
Ho0 Se0 2.828952 1_555
Ho0 Se7 2.850362 1_655
Ho0 Se7 2.850362 1_555
Ho0 Se11 2.852430 1_555
Ho0 Se11 2.852430 1_655
Ho0 Se5 2.886224 1_555
Ho1 Se1 2.828952 1_555
Ho1 Se6 2.850362 1_656
Ho1 Se6 2.850362 1_556
Ho1 Se10 2.852430 1_555
Ho1 Se10 2.852430 1_655
Ho1 Se4 2.886224 1_565
Ho2 Se2 2.828952 1_555
Ho2 Se5 2.850362 1_455
Ho2 Se5 2.850362 1_555
Ho2 Se9 2.852430 1_455
Ho2 Se9 2.852430 1_555
Ho2 Se7 2.886224 1_555
Ho3 Se3 2.828952 1_555
Ho3 Se4 2.850362 1_454
Ho3 Se4 2.850362 1_554
Ho3 Se8 2.852430 1_555
Ho3 Se8 2.852430 1_455
Ho3 Se6 2.886224 1_545
Ho4 Se8 2.851259 1_555
Ho4 Se9 2.857689 1_555
Ho4 Se3 2.954178 1_555
Ho4 Se3 2.954178 1_655
Ho5 Se9 2.851259 1_555
Ho5 Se8 2.857689 1_565
Ho5 Se2 2.954178 1_555
Ho5 Se2 2.954178 1_655
Ho6 Se10 2.851259 1_555
Ho6 Se11 2.857689 1_555
Ho6 Se1 2.954178 1_555
Ho6 Se1 2.954178 1_455
Ho7 Se11 2.851259 1_555
Ho7 Se10 2.857689 1_545
Ho7 Se0 2.954178 1_455
Ho7 Se0 2.954178 1_555
Ho8 Se1 2.829217 1_555
Ho8 Se4 2.869818 1_555
Ho9 Se0 2.829217 1_565
Ho9 Se5 2.869818 1_555
Ho10 Se3 2.829217 1_555
Ho10 Se6 2.869818 1_555
Ho11 Se2 2.829217 1_545
Ho11 Se7 2.869818 1_555
F0 Ho7 2.266711 1_655
F0 Ho7 2.266711 1_555
F0 Ho8 2.468218 1_555
F1 Ho6 2.266711 1_655
F1 Ho6 2.266711 1_555
F1 Ho9 2.468218 1_555
F2 Ho5 2.266711 1_455
F2 Ho5 2.266711 1_555
F2 Ho10 2.468218 1_555
F3 Ho4 2.266711 1_555
F3 Ho4 2.266711 1_455
F3 Ho11 2.468218 1_555
F4 Ho4 2.249499 1_555
F4 Ho11 2.368422 1_555
F4 Ho11 2.368422 1_655
F5 Ho5 2.249499 1_555
F5 Ho10 2.368422 1_655
F5 Ho10 2.368422 1_555
F6 Ho6 2.249499 1_555
F6 Ho9 2.368422 1_455
F6 Ho9 2.368422 1_555
F7 Ho7 2.249499 1_555
F7 Ho8 2.368422 1_555
F7 Ho8 2.368422 1_455
F8 Ho9 2.285563 1_545
F8 Ho11 2.350931 1_555
F8 Ho11 2.350931 1_655
F9 Ho8 2.285563 1_554
F9 Ho10 2.350931 1_555
F9 Ho10 2.350931 1_655
F10 Ho11 2.285563 1_565
F10 Ho9 2.350931 1_455
F10 Ho9 2.350931 1_555
F11 Ho10 2.285563 1_556
F11 Ho8 2.350931 1_555
F11 Ho8 2.350931 1_455
