# generated using pymatgen
data_TiV4Si3
_symmetry_space_group_name_H-M   'P 1'
_cell_length_a   4.71618700
_cell_length_b   7.14608036
_cell_length_c   7.14608036
_cell_angle_alpha   83.74868969
_cell_angle_beta   70.73218020
_cell_angle_gamma   70.73218020
_symmetry_Int_Tables_number   1
_chemical_formula_structural   TiV4Si3
_chemical_formula_sum   'Ti2 V8 Si6'
_cell_volume   214.61413234
_cell_formula_units_Z   2
loop_
 _symmetry_equiv_pos_site_id
 _symmetry_equiv_pos_as_xyz
  1  'x, y, z'
loop_
 _atom_site_type_symbol
 _atom_site_label
 _atom_site_symmetry_multiplicity
 _atom_site_fract_x
 _atom_site_fract_y
 _atom_site_fract_z
 _atom_site_occupancy
  Ti  Ti0  1  0.75000000  0.50000000  0.50000000  1
  Ti  Ti1  1  0.25000000  0.50000000  0.50000000  1
  V  V0  1  0.22010900  0.70790400  0.85187800  1
  V  V1  1  0.77989100  0.29209600  0.14812200  1
  V  V2  1  0.27989100  0.14812200  0.29209600  1
  V  V3  1  0.72010900  0.85187800  0.70790400  1
  V  V4  1  0.07198700  0.14812200  0.70790400  1
  V  V5  1  0.92801300  0.85187800  0.29209600  1
  V  V6  1  0.57198700  0.70790400  0.14812200  1
  V  V7  1  0.42801300  0.29209600  0.85187800  1
  Si  Si0  1  0.67028000  0.15943900  0.50000000  1
  Si  Si1  1  0.32972000  0.84056100  0.50000000  1
  Si  Si2  1  0.82972000  0.50000000  0.84056100  1
  Si  Si3  1  0.17028000  0.50000000  0.15943900  1
  Si  Si4  1  0.25000000  0.00000000  0.00000000  1
  Si  Si5  1  0.75000000  0.00000000  0.00000000  1
loop_
_geom_bond_atom_site_label_1
_geom_bond_atom_site_label_2
_geom_bond_distance
_geom_bond_site_symmetry_2
Ti0 Ti1 2.358093 1_555
Ti0 Ti1 2.358093 1_655
Si0 V5 2.504300 1_545
Si0 V3 2.504300 1_545
Si0 V1 2.536781 1_555
Si0 V7 2.536781 1_555
Si0 Ti1 2.582246 1_555
Si0 Ti0 2.582249 1_555
Si0 V4 2.744699 1_555
Si0 V2 2.744699 1_555
Si0 V2 2.744703 1_655
Si0 V4 2.744703 1_655
Si1 V4 2.504300 1_565
Si1 V2 2.504300 1_565
Si1 V0 2.536781 1_555
Si1 V6 2.536781 1_555
Si1 Ti0 2.582246 1_555
Si1 Ti1 2.582249 1_555
Si1 V5 2.744699 1_555
Si1 V3 2.744699 1_555
Si1 V3 2.744703 1_455
Si1 V5 2.744703 1_455
Si2 V6 2.504300 1_556
Si2 V1 2.504300 1_556
Si2 V3 2.536781 1_555
Si2 V4 2.536781 1_655
Si2 Ti1 2.582246 1_655
Si2 Ti0 2.582249 1_555
Si2 V7 2.744699 1_655
Si2 V0 2.744699 1_655
Si2 V0 2.744703 1_555
Si2 V7 2.744703 1_555
Si3 V7 2.504300 1_554
Si3 V0 2.504300 1_554
Si3 V2 2.536781 1_555
Si3 V5 2.536781 1_455
Si3 Ti0 2.582246 1_455
Si3 Ti1 2.582249 1_555
Si3 V6 2.744699 1_455
Si3 V1 2.744699 1_455
Si3 V1 2.744703 1_555
Si3 V6 2.744703 1_555
Si4 Si5 2.358093 1_555
Si4 Si5 2.358093 1_455
Si4 V1 2.504220 1_455
Si4 V3 2.504220 1_544
Si4 V5 2.504220 1_445
Si4 V6 2.504220 1_545
Si4 V7 2.504220 1_554
Si4 V4 2.504220 1_554
Si4 V0 2.504220 1_544
Si4 V2 2.504220 1_555
Si5 V0 2.504220 1_644
Si5 V2 2.504220 1_555
Si5 V7 2.504220 1_554
Si5 V4 2.504220 1_654
Si5 V5 2.504220 1_545
Si5 V6 2.504220 1_545
Si5 V3 2.504220 1_544
Si5 V1 2.504220 1_555
