# generated using pymatgen
data_Li7Mn5O12
_symmetry_space_group_name_H-M   'P 1'
_cell_length_a   5.09639376
_cell_length_b   5.09639376
_cell_length_c   15.89357011
_cell_angle_alpha   82.54154614
_cell_angle_beta   82.54154614
_cell_angle_gamma   32.86529938
_symmetry_Int_Tables_number   1
_chemical_formula_structural   Li7Mn5O12
_chemical_formula_sum   'Li7 Mn5 O12'
_cell_volume   221.95546114
_cell_formula_units_Z   1
loop_
 _symmetry_equiv_pos_site_id
 _symmetry_equiv_pos_as_xyz
  1  'x, y, z'
loop_
 _atom_site_type_symbol
 _atom_site_label
 _atom_site_symmetry_multiplicity
 _atom_site_fract_x
 _atom_site_fract_y
 _atom_site_fract_z
 _atom_site_occupancy
  Li  Li0  1  0.24959000  0.24959000  0.92349700  1
  Li  Li1  1  0.75041000  0.75041000  0.07650300  1
  Li  Li2  1  0.25877000  0.25877000  0.24119600  1
  Li  Li3  1  0.74972000  0.74972000  0.41653200  1
  Li  Li4  1  0.25028000  0.25028000  0.58346800  1
  Li  Li5  1  0.74123000  0.74123000  0.75880400  1
  Li  Li6  1  0.50000000  0.50000000  0.00000000  1
  Mn  Mn0  1  0.98738500  0.98738500  0.84597700  1
  Mn  Mn1  1  0.01261500  0.01261500  0.15402300  1
  Mn  Mn2  1  0.50738600  0.50738600  0.32698800  1
  Mn  Mn3  1  0.00000000  0.00000000  0.50000000  1
  Mn  Mn4  1  0.49261400  0.49261400  0.67301200  1
  O  O0  1  0.37982100  0.37982100  0.80145700  1
  O  O1  1  0.88227700  0.88227700  0.94827300  1
  O  O2  1  0.39317200  0.39317200  0.12837200  1
  O  O3  1  0.89596400  0.89596400  0.28567400  1
  O  O4  1  0.38449000  0.38449000  0.46287800  1
  O  O5  1  0.88019100  0.88019100  0.63331400  1
  O  O6  1  0.11772300  0.11772300  0.05172700  1
  O  O7  1  0.62017900  0.62017900  0.19854300  1
  O  O8  1  0.11980900  0.11980900  0.36668600  1
  O  O9  1  0.61551000  0.61551000  0.53712200  1
  O  O10  1  0.10403600  0.10403600  0.71432600  1
  O  O11  1  0.60682800  0.60682800  0.87162800  1
loop_
_geom_bond_atom_site_label_1
_geom_bond_atom_site_label_2
_geom_bond_distance
_geom_bond_site_symmetry_2
Li0 O1 2.013602 1_455
Li0 O1 2.013602 1_545
Li0 O0 2.171368 1_555
Li0 O11 2.239990 1_455
Li0 O11 2.239990 1_545
Li0 O6 2.259297 1_556
Li1 O6 2.013602 1_655
Li1 O6 2.013602 1_565
Li1 O7 2.171368 1_555
Li1 O2 2.239990 1_655
Li1 O2 2.239990 1_565
Li1 O1 2.259297 1_554
Li2 O2 2.074670 1_555
Li2 O7 2.150006 1_545
Li2 O7 2.150006 1_455
Li2 O3 2.152648 1_455
Li2 O3 2.152648 1_545
Li2 O8 2.256147 1_555
Li3 O8 2.142795 1_655
Li3 O8 2.142795 1_565
Li3 O4 2.149371 1_655
Li3 O4 2.149371 1_565
Li3 O9 2.171244 1_555
Li3 O3 2.359000 1_555
Li4 O5 2.142795 1_545
Li4 O5 2.142795 1_455
Li4 O9 2.149371 1_455
Li4 O9 2.149371 1_545
Li4 O4 2.171244 1_555
Li4 O10 2.359000 1_555
Li5 O11 2.074670 1_555
Li5 O0 2.150006 1_655
Li5 O0 2.150006 1_565
Li5 O10 2.152648 1_655
Li5 O10 2.152648 1_565
Li5 O5 2.256147 1_555
Li6 O6 2.082096 1_655
Li6 O6 2.082096 1_565
Li6 O1 2.082096 1_544
Li6 O1 2.082096 1_454
Li6 O2 2.162587 1_555
Li6 O11 2.162587 1_554
Mn0 O1 1.801972 1_555
Mn0 O11 1.933178 1_565
Mn0 O11 1.933178 1_655
Mn0 O0 1.971408 1_565
Mn0 O0 1.971408 1_655
Mn0 O10 2.243402 1_665
Mn1 O6 1.801972 1_555
Mn1 O2 1.933178 1_545
Mn1 O2 1.933178 1_455
Mn1 O7 1.971408 1_455
Mn1 O7 1.971408 1_545
Mn1 O3 2.243402 1_445
Mn2 O8 1.967823 1_655
Mn2 O8 1.967823 1_565
Mn2 O3 1.972279 1_455
Mn2 O3 1.972279 1_545
Mn2 O7 2.184989 1_555
Mn2 O4 2.325044 1_555
Mn3 O9 1.970338 1_455
Mn3 O9 1.970338 1_545
Mn3 O4 1.970338 1_545
Mn3 O4 1.970338 1_455
Mn3 O5 2.278085 1_445
Mn3 O8 2.278085 1_555
Mn4 O5 1.967823 1_545
Mn4 O5 1.967823 1_455
Mn4 O10 1.972279 1_565
Mn4 O10 1.972279 1_655
Mn4 O0 2.184989 1_555
Mn4 O9 2.325044 1_555
