# generated using pymatgen
data_Rb2USi2O9
_symmetry_space_group_name_H-M   'P 1'
_cell_length_a   7.78114800
_cell_length_b   20.50617600
_cell_length_c   13.77572926
_cell_angle_alpha   90.00000000
_cell_angle_beta   117.47211867
_cell_angle_gamma   90.00000000
_symmetry_Int_Tables_number   1
_chemical_formula_structural   Rb2USi2O9
_chemical_formula_sum   'Rb16 U8 Si16 O72'
_cell_volume   1950.21201940
_cell_formula_units_Z   8
loop_
 _symmetry_equiv_pos_site_id
 _symmetry_equiv_pos_as_xyz
  1  'x, y, z'
loop_
 _atom_site_type_symbol
 _atom_site_label
 _atom_site_symmetry_multiplicity
 _atom_site_fract_x
 _atom_site_fract_y
 _atom_site_fract_z
 _atom_site_occupancy
  Rb  Rb0  1  0.17617400  0.25064700  0.17916300  1
  Rb  Rb1  1  0.17617400  0.24935300  0.67916300  1
  Rb  Rb2  1  0.82382600  0.74935300  0.82083700  1
  Rb  Rb3  1  0.82382600  0.75064700  0.32083700  1
  Rb  Rb4  1  0.34747400  0.43570800  0.85126700  1
  Rb  Rb5  1  0.34747400  0.06429200  0.35126700  1
  Rb  Rb6  1  0.65252600  0.56429200  0.14873300  1
  Rb  Rb7  1  0.65252600  0.93570800  0.64873300  1
  Rb  Rb8  1  0.83034600  0.31602000  0.86289600  1
  Rb  Rb9  1  0.83034600  0.18398000  0.36289600  1
  Rb  Rb10  1  0.16965400  0.68398000  0.13710400  1
  Rb  Rb11  1  0.16965400  0.81602000  0.63710400  1
  Rb  Rb12  1  0.29774300  0.50299300  0.33468300  1
  Rb  Rb13  1  0.29774300  0.99700700  0.83468300  1
  Rb  Rb14  1  0.70225700  0.49700700  0.66531700  1
  Rb  Rb15  1  0.70225700  0.00299300  0.16531700  1
  U  U0  1  0.47799700  0.25244700  0.01118000  1
  U  U1  1  0.47799700  0.24755300  0.51118000  1
  U  U2  1  0.52200300  0.74755300  0.98882000  1
  U  U3  1  0.52200300  0.75244700  0.48882000  1
  U  U4  1  0.00000000  0.50000000  0.50000000  1
  U  U5  1  0.00000000  0.00000000  0.00000000  1
  U  U6  1  0.00000000  0.50000000  0.00000000  1
  U  U7  1  0.00000000  0.00000000  0.50000000  1
  Si  Si0  1  0.82100500  0.37915800  0.13563800  1
  Si  Si1  1  0.82100500  0.12084200  0.63563800  1
  Si  Si2  1  0.17899500  0.62084200  0.86436200  1
  Si  Si3  1  0.17899500  0.87915800  0.36436200  1
  Si  Si4  1  0.66471400  0.37063700  0.38605700  1
  Si  Si5  1  0.66471400  0.12936300  0.88605700  1
  Si  Si6  1  0.33528600  0.62936300  0.61394300  1
  Si  Si7  1  0.33528600  0.87063700  0.11394300  1
  Si  Si8  1  0.43326000  0.39724800  0.14022300  1
  Si  Si9  1  0.43326000  0.10275200  0.64022300  1
  Si  Si10  1  0.56674000  0.60275200  0.85977700  1
  Si  Si11  1  0.56674000  0.89724800  0.35977700  1
  Si  Si12  1  0.05118900  0.35435400  0.38099900  1
  Si  Si13  1  0.05118900  0.14564600  0.88099900  1
  Si  Si14  1  0.94881100  0.64564600  0.61900100  1
  Si  Si15  1  0.94881100  0.85435400  0.11900100  1
  O  O0  1  0.84172500  0.16803400  0.87507800  1
  O  O1  1  0.84172500  0.33196600  0.37507800  1
  O  O2  1  0.15827500  0.83196600  0.12492200  1
  O  O3  1  0.15827500  0.66803400  0.62492200  1
  O  O4  1  0.50698500  0.20981300  0.13984900  1
  O  O5  1  0.50698500  0.29018700  0.63984900  1
  O  O6  1  0.49301500  0.79018700  0.86015100  1
  O  O7  1  0.49301500  0.70981300  0.36015100  1
  O  O8  1  0.98956700  0.45104100  0.88313800  1
  O  O9  1  0.98956700  0.04895900  0.38313800  1
  O  O10  1  0.01043300  0.54895900  0.11686200  1
  O  O11  1  0.01043300  0.95104100  0.61686200  1
  O  O12  1  0.61112500  0.16995400  0.96955700  1
  O  O13  1  0.61112500  0.33004600  0.46955700  1
  O  O14  1  0.38887500  0.83004600  0.03044300  1
  O  O15  1  0.38887500  0.66995400  0.53044300  1
  O  O16  1  0.47454600  0.37123000  0.26334700  1
  O  O17  1  0.47454600  0.12877000  0.76334700  1
  O  O18  1  0.52545400  0.62877000  0.73665300  1
  O  O19  1  0.52545400  0.87123000  0.23665300  1
  O  O20  1  0.87280500  0.41507200  0.04740600  1
  O  O21  1  0.87280500  0.08492800  0.54740600  1
  O  O22  1  0.12719500  0.58492800  0.95259400  1
  O  O23  1  0.12719500  0.91507200  0.45259400  1
  O  O24  1  0.01205900  0.38043900  0.25821500  1
  O  O25  1  0.01205900  0.11956100  0.75821500  1
  O  O26  1  0.98794100  0.61956100  0.74178500  1
  O  O27  1  0.98794100  0.88043900  0.24178500  1
  O  O28  1  0.14291400  0.41527000  0.46532900  1
  O  O29  1  0.14291400  0.08473000  0.96532900  1
  O  O30  1  0.85708600  0.58473000  0.53467100  1
  O  O31  1  0.85708600  0.91527000  0.03467100  1
  O  O32  1  0.72377800  0.44591200  0.42518500  1
  O  O33  1  0.72377800  0.05408800  0.92518500  1
  O  O34  1  0.27622200  0.55408800  0.57481500  1
  O  O35  1  0.27622200  0.94591200  0.07481500  1
  O  O36  1  0.18285400  0.21115900  0.91237500  1
  O  O37  1  0.18285400  0.28884100  0.41237500  1
  O  O38  1  0.81714600  0.78884100  0.08762500  1
  O  O39  1  0.81714600  0.71115900  0.58762500  1
  O  O40  1  0.04641400  0.46427200  0.63654400  1
  O  O41  1  0.04641400  0.03572800  0.13654400  1
  O  O42  1  0.95358600  0.53572800  0.36345600  1
  O  O43  1  0.95358600  0.96427200  0.86345600  1
  O  O44  1  0.30081900  0.46264200  0.11011500  1
  O  O45  1  0.30081900  0.03735800  0.61011500  1
  O  O46  1  0.69918100  0.53735800  0.88988500  1
  O  O47  1  0.69918100  0.96264200  0.38988500  1
  O  O48  1  0.33998700  0.33721000  0.05412800  1
  O  O49  1  0.33998700  0.16279000  0.55412800  1
  O  O50  1  0.66001300  0.66279000  0.94587200  1
  O  O51  1  0.66001300  0.83721000  0.44587200  1
  O  O52  1  0.44980100  0.29737500  0.88613500  1
  O  O53  1  0.44980100  0.20262500  0.38613500  1
  O  O54  1  0.55019900  0.70262500  0.11386500  1
  O  O55  1  0.55019900  0.79737500  0.61386500  1
  O  O56  1  0.64205600  0.41926700  0.14334500  1
  O  O57  1  0.64205600  0.08073300  0.64334500  1
  O  O58  1  0.35794400  0.58073300  0.85665500  1
  O  O59  1  0.35794400  0.91926700  0.35665500  1
  O  O60  1  0.76063500  0.30309900  0.10280100  1
  O  O61  1  0.76063500  0.19690100  0.60280100  1
  O  O62  1  0.23936500  0.69690100  0.89719900  1
  O  O63  1  0.23936500  0.80309900  0.39719900  1
  O  O64  1  0.44318200  0.39059100  0.67081600  1
  O  O65  1  0.44318200  0.10940900  0.17081600  1
  O  O66  1  0.55681800  0.60940900  0.32918400  1
  O  O67  1  0.55681800  0.89059100  0.82918400  1
  O  O68  1  0.91551700  0.13384100  0.16533000  1
  O  O69  1  0.91551700  0.36615900  0.66533000  1
  O  O70  1  0.08448300  0.86615900  0.83467000  1
  O  O71  1  0.08448300  0.63384100  0.33467000  1
loop_
_geom_bond_atom_site_label_1
_geom_bond_atom_site_label_2
_geom_bond_distance
_geom_bond_site_symmetry_2
O0 Si5 1.655598 1_555
O0 Si13 1.658686 1_655
O0 Rb8 3.038298 1_555
O1 Si4 1.655598 1_555
O1 Si12 1.658686 1_655
O1 Rb9 3.038298 1_555
O2 Si7 1.655598 1_555
O2 Si15 1.658686 1_455
O2 Rb10 3.038298 1_555
O3 Si6 1.655598 1_555
O3 Si14 1.658686 1_455
O3 Rb11 3.038298 1_555
O4 U0 1.894234 1_555
O4 Rb0 2.984395 1_555
O4 Rb9 2.986566 1_555
O5 U1 1.894234 1_555
O5 Rb1 2.984395 1_555
O5 Rb8 2.986566 1_555
O6 U2 1.894234 1_555
O6 Rb2 2.984395 1_555
O6 Rb11 2.986566 1_555
O7 U3 1.894234 1_555
O7 Rb3 2.984395 1_555
O7 Rb10 2.986566 1_555
O8 U6 1.866976 1_656
O8 Rb14 2.949744 1_555
O8 Rb8 2.993325 1_555
O8 Rb4 3.029118 1_655
O9 U7 1.866976 1_655
O9 Rb15 2.949744 1_555
O9 Rb9 2.993325 1_555
O9 Rb5 3.029118 1_655
O10 U6 1.866976 1_555
O10 Rb12 2.949744 1_555
O10 Rb10 2.993325 1_555
O10 Rb6 3.029118 1_455
O11 U7 1.866976 1_565
O11 Rb13 2.949744 1_555
O11 Rb11 2.993325 1_555
O11 Rb7 3.029118 1_455
O12 Si5 1.622460 1_555
O12 U0 2.193494 1_556
O13 Si4 1.622460 1_555
O13 U1 2.193494 1_555
O14 Si7 1.622460 1_555
O14 U2 2.193494 1_554
O15 Si6 1.622460 1_555
O15 U3 2.193494 1_555
O16 Si4 1.655119 1_555
O16 Si8 1.661915 1_555
O16 Rb0 3.219498 1_555
O16 Rb12 3.377314 1_555
O17 Si5 1.655119 1_555
O17 Si9 1.661915 1_555
O17 Rb1 3.219498 1_555
O17 Rb13 3.377314 1_545
O18 Si6 1.655119 1_555
O18 Si10 1.661915 1_555
O18 Rb2 3.219498 1_555
O18 Rb14 3.377314 1_555
O19 Si7 1.655119 1_555
O19 Si11 1.661915 1_555
O19 Rb3 3.219498 1_555
O19 Rb15 3.377314 1_565
O20 Si0 1.623016 1_555
O20 U6 2.243960 1_655
O20 Rb8 3.149698 1_554
O21 Si1 1.623016 1_555
O21 U7 2.243960 1_655
O21 Rb9 3.149698 1_555
O22 Si2 1.623016 1_555
O22 U6 2.243960 1_556
O22 Rb10 3.149698 1_556
O23 Si3 1.623016 1_555
O23 U7 2.243960 1_565
O23 Rb11 3.149698 1_555
O24 Si0 1.657100 1_455
O24 Si12 1.662719 1_555
O24 Rb12 3.194747 1_555
O24 Rb0 3.344175 1_555
O25 Si1 1.657100 1_455
O25 Si13 1.662719 1_555
O25 Rb13 3.194747 1_545
O25 Rb1 3.344175 1_555
O26 Si2 1.657100 1_655
O26 Si14 1.662719 1_555
O26 Rb14 3.194747 1_555
O26 Rb2 3.344175 1_555
O27 Si3 1.657100 1_655
O27 Si15 1.662719 1_555
O27 Rb15 3.194747 1_565
O27 Rb3 3.344175 1_555
O28 Si12 1.629221 1_555
O28 U4 2.230167 1_555
O28 Rb12 3.150697 1_555
O29 Si13 1.629221 1_555
O29 U5 2.230167 1_556
O29 Rb13 3.150697 1_545
O30 Si14 1.629221 1_555
O30 U4 2.230167 1_655
O30 Rb14 3.150697 1_555
O31 Si15 1.629221 1_555
O31 U5 2.230167 1_665
O31 Rb15 3.150697 1_565
O32 Si4 1.629696 1_555
O32 U4 2.206400 1_655
O32 Rb12 3.178164 1_555
O32 Rb14 3.546796 1_555
O33 Si5 1.629696 1_555
O33 U5 2.206400 1_656
O33 Rb13 3.178164 1_545
O33 Rb15 3.546796 1_556
O34 Si6 1.629696 1_555
O34 U4 2.206400 1_555
O34 Rb14 3.178164 1_555
O34 Rb12 3.546796 1_555
O35 Si7 1.629696 1_555
O35 U5 2.206400 1_565
O35 Rb15 3.178164 1_565
O35 Rb13 3.546796 1_554
O36 Si13 1.622545 1_555
O36 U0 2.227011 1_556
O36 Rb1 3.283790 1_555
O36 Rb8 3.299547 1_455
O37 Si12 1.622545 1_555
O37 U1 2.227011 1_555
O37 Rb0 3.283790 1_555
O37 Rb9 3.299547 1_455
O38 Si15 1.622545 1_555
O38 U2 2.227011 1_554
O38 Rb3 3.283790 1_555
O38 Rb10 3.299547 1_655
O39 Si14 1.622545 1_555
O39 U3 2.227011 1_555
O39 Rb2 3.283790 1_555
O39 Rb11 3.299547 1_655
O40 U4 1.891709 1_555
O40 Rb4 2.861324 1_555
O40 Rb14 2.959457 1_455
O41 U5 1.891709 1_555
O41 Rb5 2.861324 1_555
O41 Rb15 2.959457 1_455
O42 U4 1.891709 1_655
O42 Rb6 2.861324 1_555
O42 Rb12 2.959457 1_655
O43 U5 1.891709 1_666
O43 Rb7 2.861324 1_555
O43 Rb13 2.959457 1_655
O44 Si8 1.624166 1_555
O44 U6 2.256298 1_555
O44 Rb12 3.213073 1_555
O44 Rb6 3.282399 1_555
O45 Si9 1.624166 1_555
O45 U7 2.256298 1_555
O45 Rb13 3.213073 1_545
O45 Rb7 3.282399 1_545
O46 Si10 1.624166 1_555
O46 U6 2.256298 1_656
O46 Rb14 3.213073 1_555
O46 Rb4 3.282399 1_555
O47 Si11 1.624166 1_555
O47 U7 2.256298 1_665
O47 Rb15 3.213073 1_565
O47 Rb5 3.282399 1_565
O48 Si8 1.629397 1_555
O48 U0 2.260677 1_555
O48 Rb0 3.125401 1_555
O49 Si9 1.629397 1_555
O49 U1 2.260677 1_555
O49 Rb1 3.125401 1_555
O50 Si10 1.629397 1_555
O50 U2 2.260677 1_555
O50 Rb2 3.125401 1_555
O51 Si11 1.629397 1_555
O51 U3 2.260677 1_555
O51 Rb3 3.125401 1_555
O52 U0 1.874978 1_556
O52 Rb1 2.833957 1_555
O52 Rb4 2.925506 1_555
O52 Rb8 3.145035 1_555
O53 U1 1.874978 1_555
O53 Rb0 2.833957 1_555
O53 Rb5 2.925506 1_555
O53 Rb9 3.145035 1_555
O54 U2 1.874978 1_554
O54 Rb3 2.833957 1_555
O54 Rb6 2.925506 1_555
O54 Rb10 3.145035 1_555
O55 U3 1.874978 1_555
O55 Rb2 2.833957 1_555
O55 Rb7 2.925506 1_555
O55 Rb11 3.145035 1_555
O56 Si0 1.662228 1_555
O56 Si8 1.667579 1_555
O56 Rb6 2.975012 1_555
O57 Si1 1.662228 1_555
O57 Si9 1.667579 1_555
O57 Rb7 2.975012 1_545
O58 Si2 1.662228 1_555
O58 Si10 1.667579 1_555
O58 Rb4 2.975012 1_555
O59 Si3 1.662228 1_555
O59 Si11 1.667579 1_555
O59 Rb5 2.975012 1_565
O60 Si0 1.631513 1_555
O60 U0 2.224306 1_555
O60 Rb0 3.095156 1_655
O61 Si1 1.631513 1_555
O61 U1 2.224306 1_555
O61 Rb1 3.095156 1_655
O62 Si2 1.631513 1_555
O62 U2 2.224306 1_555
O62 Rb2 3.095156 1_455
O63 Si3 1.631513 1_555
O63 U3 2.224306 1_555
O63 Rb3 3.095156 1_455
O64 Rb14 2.995400 1_555
O64 Rb4 3.049263 1_555
O64 Rb8 3.325783 1_555
O65 Rb15 2.995400 1_555
O65 Rb5 3.049263 1_555
O65 Rb9 3.325783 1_555
O66 Rb12 2.995400 1_555
O66 Rb6 3.049263 1_555
O66 Rb10 3.325783 1_555
O67 Rb13 2.995400 1_555
O67 Rb7 3.049263 1_555
O67 Rb11 3.325783 1_555
O68 Rb0 3.087160 1_655
O68 Rb15 3.154818 1_555
O68 Rb9 3.250794 1_555
O68 Rb5 3.456707 1_655
O69 Rb1 3.087160 1_655
O69 Rb14 3.154818 1_555
O69 Rb8 3.250794 1_555
O69 Rb4 3.456707 1_655
O70 Rb2 3.087160 1_455
O70 Rb13 3.154818 1_555
O70 Rb11 3.250794 1_555
O70 Rb7 3.456707 1_455
O71 Rb3 3.087160 1_455
O71 Rb12 3.154818 1_555
O71 Rb10 3.250794 1_555
O71 Rb6 3.456707 1_455
