# generated using pymatgen
data_BiPtO14
_symmetry_space_group_name_H-M   'P 1'
_cell_length_a   8.16511191
_cell_length_b   8.16511191
_cell_length_c   8.16511191
_cell_angle_alpha   60.00000000
_cell_angle_beta   60.00000000
_cell_angle_gamma   60.00000000
_symmetry_Int_Tables_number   1
_chemical_formula_structural   BiPtO14
_chemical_formula_sum   'Bi2 Pt2 O28'
_cell_volume   384.92084145
_cell_formula_units_Z   2
loop_
 _symmetry_equiv_pos_site_id
 _symmetry_equiv_pos_as_xyz
  1  'x, y, z'
loop_
 _atom_site_type_symbol
 _atom_site_label
 _atom_site_symmetry_multiplicity
 _atom_site_fract_x
 _atom_site_fract_y
 _atom_site_fract_z
 _atom_site_occupancy
  Bi  Bi0  1  0.50000000  0.50000000  0.50000000  1
  Bi  Bi1  1  0.75000000  0.75000000  0.75000000  1
  Pt  Pt0  1  0.00000000  0.00000000  0.00000000  1
  Pt  Pt1  1  0.25000000  0.25000000  0.25000000  1
  O  O0  1  0.84575900  0.45036300  0.45036300  1
  O  O1  1  0.45036300  0.84575900  0.25351500  1
  O  O2  1  0.45036300  0.25351500  0.84575900  1
  O  O3  1  0.45036300  0.84575900  0.45036300  1
  O  O4  1  0.40424100  0.79963700  0.99648500  1
  O  O5  1  0.40424100  0.79963700  0.79963700  1
  O  O6  1  0.25351500  0.45036300  0.45036300  1
  O  O7  1  0.25351500  0.45036300  0.84575900  1
  O  O8  1  0.79963700  0.40424100  0.79963700  1
  O  O9  1  0.79963700  0.40424100  0.99648500  1
  O  O10  1  0.84575900  0.45036300  0.25351500  1
  O  O11  1  0.79963700  0.99648500  0.79963700  1
  O  O12  1  0.79963700  0.99648500  0.40424100  1
  O  O13  1  0.45036300  0.25351500  0.45036300  1
  O  O14  1  0.99648500  0.79963700  0.40424100  1
  O  O15  1  0.99648500  0.79963700  0.79963700  1
  O  O16  1  0.45036300  0.45036300  0.84575900  1
  O  O17  1  0.25351500  0.84575900  0.45036300  1
  O  O18  1  0.45036300  0.45036300  0.25351500  1
  O  O19  1  0.84575900  0.25351500  0.45036300  1
  O  O20  1  0.99648500  0.40424100  0.79963700  1
  O  O21  1  0.79963700  0.79963700  0.40424100  1
  O  O22  1  0.40424100  0.99648500  0.79963700  1
  O  O23  1  0.79963700  0.79963700  0.99648500  1
  O  O24  1  0.12500000  0.12500000  0.12500000  1
  O  O25  1  0.12500000  0.12500000  0.62500000  1
  O  O26  1  0.12500000  0.62500000  0.12500000  1
  O  O27  1  0.62500000  0.12500000  0.12500000  1
loop_
_geom_bond_atom_site_label_1
_geom_bond_atom_site_label_2
_geom_bond_distance
_geom_bond_site_symmetry_2
Bi0 O3 2.484877 1_555
Bi0 O0 2.484877 1_555
Bi0 O16 2.484877 1_555
Bi0 O1 2.484877 1_555
Bi0 O7 2.484877 1_555
Bi0 O10 2.484877 1_555
Bi0 O19 2.484877 1_555
Bi0 O17 2.484877 1_555
Bi0 O2 2.484877 1_555
Bi0 O13 2.484877 1_555
Bi0 O18 2.484877 1_555
Bi0 O6 2.484877 1_555
Bi1 O23 2.484877 1_555
Bi1 O11 2.484877 1_555
Bi1 O15 2.484877 1_555
Bi1 O4 2.484877 1_555
Bi1 O20 2.484877 1_555
Bi1 O22 2.484877 1_555
Bi1 O14 2.484877 1_555
Bi1 O9 2.484877 1_555
Bi1 O12 2.484877 1_555
Bi1 O8 2.484877 1_555
Bi1 O21 2.484877 1_555
Bi1 O5 2.484877 1_555
O0 O10 1.607286 1_555
O0 O19 1.607286 1_555
O1 O3 1.607286 1_555
O1 O17 1.607286 1_555
O2 O7 1.607286 1_555
O4 O5 1.607286 1_555
O8 O9 1.607286 1_555
O10 O19 1.607286 1_555
O11 O23 1.607286 1_555
O11 O15 1.607286 1_555
O12 O14 1.607286 1_555
O12 O21 1.607286 1_555
O13 O18 1.607286 1_555
O13 O6 1.607286 1_555
O14 O21 1.607286 1_555
O15 O23 1.607286 1_555
O16 O7 1.607286 1_555
O16 O2 1.607286 1_555
O17 O3 1.607286 1_555
O18 O6 1.607286 1_555
O20 O9 1.607286 1_555
O20 O8 1.607286 1_555
O22 O5 1.607286 1_555
O22 O4 1.607286 1_555
O24 Pt0 2.500045 1_555
O24 Pt1 2.500045 1_555
O25 Pt1 2.500045 1_555
O25 Pt0 2.500045 1_556
O26 Pt0 2.500045 1_565
O26 Pt1 2.500045 1_555
O27 Pt1 2.500045 1_555
O27 Pt0 2.500045 1_655
