# generated using pymatgen
data_CsCoPO4
_symmetry_space_group_name_H-M   'P 1'
_cell_length_a   5.45785068
_cell_length_b   9.21350281
_cell_length_c   9.26324605
_cell_angle_alpha   89.73717615
_cell_angle_beta   90.00000000
_cell_angle_gamma   90.00000000
_symmetry_Int_Tables_number   1
_chemical_formula_structural   CsCoPO4
_chemical_formula_sum   'Cs4 Co4 P4 O16'
_cell_volume   465.80597316
_cell_formula_units_Z   4
loop_
 _symmetry_equiv_pos_site_id
 _symmetry_equiv_pos_as_xyz
  1  'x, y, z'
loop_
 _atom_site_type_symbol
 _atom_site_label
 _atom_site_symmetry_multiplicity
 _atom_site_fract_x
 _atom_site_fract_y
 _atom_site_fract_z
 _atom_site_occupancy
  Cs  Cs0  1  0.99659460  0.00055590  0.19160239  1
  Cs  Cs1  1  0.49659460  0.99944410  0.80839761  1
  Cs  Cs2  1  0.04019936  0.50630734  0.29084368  1
  Cs  Cs3  1  0.54019936  0.49369266  0.70915632  1
  Co  Co0  1  0.53692350  0.32194830  0.08162215  1
  Co  Co1  1  0.03692350  0.67805170  0.91837785  1
  Co  Co2  1  0.99615725  0.16661388  0.58861982  1
  Co  Co3  1  0.49615725  0.83338612  0.41138018  1
  P  P0  1  0.53140324  0.69233021  0.08430452  1
  P  P1  1  0.03140324  0.30766979  0.91569548  1
  P  P2  1  0.49743641  0.19159702  0.40614096  1
  P  P3  1  0.99743641  0.80840298  0.59385904  1
  O  O0  1  0.09163509  0.27904377  0.75653359  1
  O  O1  1  0.59163509  0.72095623  0.24346641  1
  O  O2  1  0.01618354  0.47011458  0.94230613  1
  O  O3  1  0.51618354  0.52988542  0.05769387  1
  O  O4  1  0.23046864  0.23866740  0.01250321  1
  O  O5  1  0.73046864  0.76133260  0.98749679  1
  O  O6  1  0.51741795  0.03475203  0.35129438  1
  O  O7  1  0.01741795  0.96524797  0.64870562  1
  O  O8  1  0.58849990  0.29548885  0.28731421  1
  O  O9  1  0.08849990  0.70451115  0.71268579  1
  O  O10  1  0.22848363  0.22822167  0.44076414  1
  O  O11  1  0.72848363  0.77177833  0.55923586  1
  O  O12  1  0.28328388  0.76340451  0.04454388  1
  O  O13  1  0.78328388  0.23659549  0.95545612  1
  O  O14  1  0.65631401  0.21375636  0.54169981  1
  O  O15  1  0.15631401  0.78624364  0.45830019  1
loop_
_geom_bond_atom_site_label_1
_geom_bond_atom_site_label_2
_geom_bond_distance
_geom_bond_site_symmetry_2
Cs0 O12 3.017535 1_645
Cs0 O6 3.021826 1_555
Cs0 O4 3.026761 1_655
Cs0 O6 3.220560 1_655
Cs0 O5 3.252780 1_544
Cs0 O15 3.273740 1_645
Cs0 O13 3.290346 1_554
Cs0 O10 3.372418 1_655
Cs0 O1 3.426475 1_545
Cs0 O8 3.626733 1_555
Cs1 O13 3.017535 1_565
Cs1 O7 3.021826 1_555
Cs1 O5 3.026761 1_555
Cs1 O7 3.220560 1_655
Cs1 O4 3.252780 1_566
Cs1 O14 3.273740 1_565
Cs1 O12 3.290346 1_556
Cs1 O11 3.372418 1_555
Cs1 O0 3.426475 1_565
Cs1 O9 3.626733 1_555
Cs2 O15 3.081681 1_555
Cs2 O10 3.084895 1_555
Cs2 O8 3.138825 1_455
Cs2 O1 3.176394 1_455
Cs2 O2 3.249930 1_554
Cs3 O14 3.081681 1_555
Cs3 O11 3.084895 1_555
Cs3 O9 3.138825 1_555
Cs3 O0 3.176394 1_555
Cs3 O3 3.249930 1_556
Co0 O3 1.930919 1_555
Co0 O8 1.940327 1_555
Co0 O13 1.949532 1_554
Co0 O4 1.949551 1_555
Co1 O2 1.930919 1_555
Co1 O9 1.940327 1_555
Co1 O12 1.949532 1_556
Co1 O5 1.949551 1_455
Co2 O7 1.938006 1_645
Co2 O0 1.943892 1_655
Co2 O10 1.949042 1_655
Co2 O14 1.953500 1_555
Co3 O6 1.938006 1_565
Co3 O1 1.943892 1_555
Co3 O11 1.949042 1_555
Co3 O15 1.953500 1_555
O0 P1 1.534575 1_555
O1 P0 1.534575 1_555
O2 P1 1.520235 1_555
O3 P0 1.520235 1_555
O4 P1 1.543870 1_554
O5 P0 1.543870 1_556
O6 P2 1.537869 1_555
O7 P3 1.537869 1_455
O8 P2 1.537917 1_555
O9 P3 1.537917 1_455
O10 P2 1.540281 1_555
O11 P3 1.540281 1_555
O12 P0 1.547939 1_555
O13 P1 1.547939 1_655
O14 P2 1.540380 1_555
O15 P3 1.540380 1_455
