# generated using pymatgen
data_SmAl3(BO3)4
_symmetry_space_group_name_H-M   'P 1'
_cell_length_a   5.95951573
_cell_length_b   5.95951573
_cell_length_c   11.19933665
_cell_angle_alpha   81.88480341
_cell_angle_beta   81.88480341
_cell_angle_gamma   104.41891251
_symmetry_Int_Tables_number   1
_chemical_formula_structural   SmAl3(BO3)4
_chemical_formula_sum   'Sm2 Al6 B8 O24'
_cell_volume   374.86375316
_cell_formula_units_Z   2
loop_
 _symmetry_equiv_pos_site_id
 _symmetry_equiv_pos_as_xyz
  1  'x, y, z'
loop_
 _atom_site_type_symbol
 _atom_site_label
 _atom_site_symmetry_multiplicity
 _atom_site_fract_x
 _atom_site_fract_y
 _atom_site_fract_z
 _atom_site_occupancy
  Sm  Sm0  1  0.96394200  0.03605800  0.75000000  1
  Sm  Sm1  1  0.03605800  0.96394200  0.25000000  1
  Al  Al0  1  0.69530000  0.19501800  0.02818600  1
  Al  Al1  1  0.30470000  0.80498200  0.97181400  1
  Al  Al2  1  0.80498200  0.30470000  0.47181400  1
  Al  Al3  1  0.19501800  0.69530000  0.52818600  1
  Al  Al4  1  0.41162200  0.58837800  0.75000000  1
  Al  Al5  1  0.58837800  0.41162200  0.25000000  1
  B  B0  1  0.49297600  0.12062100  0.72223100  1
  B  B1  1  0.50702400  0.87937900  0.27776900  1
  B  B2  1  0.87937900  0.50702400  0.77776900  1
  B  B3  1  0.12062100  0.49297600  0.22223100  1
  B  B4  1  0.71984400  0.77691400  0.50474800  1
  B  B5  1  0.28015600  0.22308600  0.49525200  1
  B  B6  1  0.22308600  0.28015600  0.99525200  1
  B  B7  1  0.77691400  0.71984400  0.00474800  1
  O  O0  1  0.19302100  0.99732000  0.56349500  1
  O  O1  1  0.80697900  0.00268000  0.43650500  1
  O  O2  1  0.00268000  0.80697900  0.93650500  1
  O  O3  1  0.99732000  0.19302100  0.06349500  1
  O  O4  1  0.42237800  0.89567300  0.79484300  1
  O  O5  1  0.57762200  0.10432700  0.20515700  1
  O  O6  1  0.10432700  0.57762200  0.70515700  1
  O  O7  1  0.89567300  0.42237800  0.29484300  1
  O  O8  1  0.69905600  0.17983400  0.63850700  1
  O  O9  1  0.30094400  0.82016600  0.36149300  1
  O  O10  1  0.82016600  0.30094400  0.86149300  1
  O  O11  1  0.17983400  0.69905600  0.13850700  1
  O  O12  1  0.63067800  0.86995600  0.99676800  1
  O  O13  1  0.36932200  0.13004400  0.00323200  1
  O  O14  1  0.13004400  0.36932200  0.50323200  1
  O  O15  1  0.86995600  0.63067800  0.49676800  1
  O  O16  1  0.35320100  0.26874600  0.74145500  1
  O  O17  1  0.64679900  0.73125400  0.25854500  1
  O  O18  1  0.73125400  0.64679900  0.75854500  1
  O  O19  1  0.26874600  0.35320100  0.24145500  1
  O  O20  1  0.49374900  0.69787100  0.57367400  1
  O  O21  1  0.50625100  0.30212900  0.42632600  1
  O  O22  1  0.30212900  0.50625100  0.92632600  1
  O  O23  1  0.69787100  0.49374900  0.07367400  1
loop_
_geom_bond_atom_site_label_1
_geom_bond_atom_site_label_2
_geom_bond_distance
_geom_bond_site_symmetry_2
Al0 O10 1.865075 1_554
Al0 O3 1.899055 1_555
Al0 O23 1.916735 1_555
Al0 O13 1.952233 1_555
Al0 O5 1.956650 1_555
Al0 O12 1.970803 1_544
Al1 O11 1.865075 1_556
Al1 O2 1.899055 1_555
Al1 O22 1.916735 1_555
Al1 O12 1.952233 1_555
Al1 O4 1.956650 1_555
Al1 O13 1.970803 1_566
Al2 O8 1.865075 1_555
Al2 O1 1.899055 1_555
Al2 O21 1.916735 1_555
Al2 O15 1.952233 1_555
Al2 O7 1.956650 1_555
Al2 O14 1.970803 1_655
Al3 O9 1.865075 1_555
Al3 O0 1.899055 1_555
Al3 O20 1.916735 1_555
Al3 O14 1.952233 1_555
Al3 O6 1.956650 1_555
Al3 O15 1.970803 1_455
Al4 O18 1.868000 1_555
Al4 O16 1.868000 1_555
Al4 O20 1.941441 1_555
Al4 O22 1.941441 1_555
Al4 O6 1.954579 1_555
Al4 O4 1.954579 1_555
Al5 O19 1.868000 1_555
Al5 O17 1.868000 1_555
Al5 O23 1.941441 1_555
Al5 O21 1.941441 1_555
Al5 O5 1.954579 1_555
Al5 O7 1.954579 1_555
B0 O8 1.370281 1_555
B0 O16 1.374304 1_555
B0 O4 1.396496 1_545
B1 O9 1.370281 1_555
B1 O17 1.374304 1_555
B1 O5 1.396496 1_565
B2 O10 1.370281 1_555
B2 O18 1.374304 1_555
B2 O6 1.396496 1_655
B3 O11 1.370281 1_555
B3 O19 1.374304 1_555
B3 O7 1.396496 1_455
B4 O1 1.383368 1_565
B4 O20 1.385961 1_555
B4 O15 1.398386 1_555
B5 O0 1.383368 1_545
B5 O21 1.385961 1_555
B5 O14 1.398386 1_555
B6 O3 1.383368 1_456
B6 O22 1.385961 1_555
B6 O13 1.398386 1_556
B7 O2 1.383368 1_654
B7 O23 1.385961 1_555
B7 O12 1.398386 1_554
O0 Sm0 2.401646 1_465
O1 Sm1 2.401646 1_645
O2 Sm0 2.401646 1_465
O3 Sm1 2.401646 1_645
O8 Sm0 2.390251 1_555
O9 Sm1 2.390251 1_555
O10 Sm0 2.390251 1_555
O11 Sm1 2.390251 1_555
O16 Sm0 2.368830 1_455
O17 Sm1 2.368830 1_655
O18 Sm0 2.368830 1_565
O19 Sm1 2.368830 1_545
