# generated using pymatgen
data_MgCd2
_symmetry_space_group_name_H-M   'P 1'
_cell_length_a   12.08770341
_cell_length_b   12.08770341
_cell_length_c   14.72552504
_cell_angle_alpha   73.43563872
_cell_angle_beta   73.43563872
_cell_angle_gamma   29.57660553
_symmetry_Int_Tables_number   1
_chemical_formula_structural   MgCd2
_chemical_formula_sum   'Mg16 Cd32'
_cell_volume   1014.77813608
_cell_formula_units_Z   16
loop_
 _symmetry_equiv_pos_site_id
 _symmetry_equiv_pos_as_xyz
  1  'x, y, z'
loop_
 _atom_site_type_symbol
 _atom_site_label
 _atom_site_symmetry_multiplicity
 _atom_site_fract_x
 _atom_site_fract_y
 _atom_site_fract_z
 _atom_site_occupancy
  Mg  Mg0_0  1  0.26318567  0.26318567  0.09897363  1
  Mg  Mg0_1  1  0.26318567  0.26318567  0.59897363  1
  Mg  Mg0_2  1  0.26318567  0.76318567  0.09897363  1
  Mg  Mg0_3  1  0.26318567  0.76318567  0.59897363  1
  Mg  Mg0_4  1  0.76318567  0.26318567  0.09897363  1
  Mg  Mg0_5  1  0.76318567  0.26318567  0.59897363  1
  Mg  Mg0_6  1  0.76318567  0.76318567  0.09897363  1
  Mg  Mg0_7  1  0.76318567  0.76318567  0.59897363  1
  Mg  Mg1_0  1  0.23681433  0.23681433  0.40102637  1
  Mg  Mg1_1  1  0.23681433  0.23681433  0.90102637  1
  Mg  Mg1_2  1  0.23681433  0.73681433  0.40102637  1
  Mg  Mg1_3  1  0.23681433  0.73681433  0.90102637  1
  Mg  Mg1_4  1  0.73681433  0.23681433  0.40102637  1
  Mg  Mg1_5  1  0.73681433  0.23681433  0.90102637  1
  Mg  Mg1_6  1  0.73681433  0.73681433  0.40102637  1
  Mg  Mg1_7  1  0.73681433  0.73681433  0.90102637  1
  Cd  Cd0_0  1  0.40421314  0.40421314  0.06887646  1
  Cd  Cd0_1  1  0.40421314  0.40421313  0.56887645  1
  Cd  Cd0_2  1  0.40421313  0.90421314  0.06887646  1
  Cd  Cd0_3  1  0.40421313  0.90421313  0.56887646  1
  Cd  Cd0_4  1  0.90421314  0.40421314  0.06887646  1
  Cd  Cd0_5  1  0.90421314  0.40421313  0.56887646  1
  Cd  Cd0_6  1  0.90421314  0.90421314  0.06887646  1
  Cd  Cd0_7  1  0.90421313  0.90421313  0.56887646  1
  Cd  Cd1_0  1  0.06900528  0.06900528  0.23490305  1
  Cd  Cd1_1  1  0.06900528  0.06900528  0.73490305  1
  Cd  Cd1_2  1  0.06900527  0.56900527  0.23490305  1
  Cd  Cd1_3  1  0.06900527  0.56900527  0.73490305  1
  Cd  Cd1_4  1  0.56900527  0.06900528  0.23490305  1
  Cd  Cd1_5  1  0.56900528  0.06900528  0.73490305  1
  Cd  Cd1_6  1  0.56900527  0.56900527  0.23490305  1
  Cd  Cd1_7  1  0.56900527  0.56900527  0.73490305  1
  Cd  Cd2_0  1  0.43099472  0.43099472  0.26509695  1
  Cd  Cd2_1  1  0.43099473  0.43099473  0.76509695  1
  Cd  Cd2_2  1  0.43099472  0.93099472  0.26509695  1
  Cd  Cd2_3  1  0.43099472  0.93099472  0.76509695  1
  Cd  Cd2_4  1  0.93099473  0.43099473  0.26509695  1
  Cd  Cd2_5  1  0.93099472  0.43099472  0.76509695  1
  Cd  Cd2_6  1  0.93099473  0.93099473  0.26509695  1
  Cd  Cd2_7  1  0.93099472  0.93099472  0.76509695  1
  Cd  Cd3_0  1  0.09578686  0.09578687  0.43112354  1
  Cd  Cd3_1  1  0.09578687  0.09578687  0.93112354  1
  Cd  Cd3_2  1  0.09578686  0.59578686  0.43112354  1
  Cd  Cd3_3  1  0.09578686  0.59578686  0.93112355  1
  Cd  Cd3_4  1  0.59578686  0.09578687  0.43112354  1
  Cd  Cd3_5  1  0.59578687  0.09578687  0.93112355  1
  Cd  Cd3_6  1  0.59578686  0.59578686  0.43112354  1
  Cd  Cd3_7  1  0.59578686  0.59578686  0.93112354  1
loop_
_geom_bond_atom_site_label_1
_geom_bond_atom_site_label_2
_geom_bond_distance
_geom_bond_site_symmetry_2
Mg0_0 Mg0_6 3.085367 1_455
Mg0_0 Mg0_6 3.085367 1_545
Mg0_0 Mg1_1 3.152155 1_554
Mg0_1 Mg0_7 3.085367 1_455
Mg0_1 Mg0_7 3.085367 1_545
Mg0_1 Mg1_0 3.152155 1_555
Mg0_2 Mg0_4 3.085367 1_465
Mg0_2 Mg0_4 3.085367 1_555
Mg0_2 Mg1_3 3.152155 1_554
Mg0_3 Mg0_5 3.085367 1_465
Mg0_3 Mg0_5 3.085367 1_555
Mg0_3 Mg1_2 3.152155 1_555
Mg0_4 Mg1_5 3.152155 1_554
Mg0_5 Mg1_4 3.152155 1_555
Mg0_6 Mg1_7 3.152155 1_554
Mg0_7 Mg1_6 3.152155 1_555
Mg1_0 Mg1_6 3.085367 1_455
Mg1_0 Mg1_6 3.085367 1_545
Mg1_1 Mg1_7 3.085367 1_455
Mg1_1 Mg1_7 3.085367 1_545
Mg1_2 Mg1_4 3.085367 1_465
Mg1_2 Mg1_4 3.085367 1_555
Mg1_3 Mg1_5 3.085367 1_465
Mg1_3 Mg1_5 3.085367 1_555
Cd0_0 Mg1_3 3.066377 1_554
Cd0_0 Mg1_5 3.066377 1_554
Cd0_0 Cd1_4 3.074471 1_555
Cd0_0 Cd1_2 3.074471 1_555
Cd0_0 Cd0_6 3.085367 1_545
Cd0_0 Cd0_6 3.085367 1_455
Cd0_0 Mg0_2 3.119329 1_555
Cd0_0 Mg0_4 3.119329 1_555
Cd0_0 Cd2_0 3.131693 1_555
Cd0_0 Cd3_5 3.161237 1_554
Cd0_0 Cd3_3 3.161237 1_554
Cd0_0 Mg0_0 3.193981 1_555
Cd0_1 Mg1_2 3.066377 1_555
Cd0_1 Mg1_4 3.066377 1_555
Cd0_1 Cd1_5 3.074471 1_555
Cd0_1 Cd1_3 3.074471 1_555
Cd0_1 Cd0_7 3.085367 1_545
Cd0_1 Cd0_7 3.085367 1_455
Cd0_1 Mg0_3 3.119329 1_555
Cd0_1 Mg0_5 3.119329 1_555
Cd0_1 Cd2_1 3.131693 1_555
Cd0_1 Cd3_4 3.161237 1_555
Cd0_1 Cd3_2 3.161237 1_555
Cd0_1 Mg0_1 3.193981 1_555
Cd0_2 Mg1_7 3.066377 1_554
Cd0_2 Mg1_1 3.066377 1_564
Cd0_2 Cd1_0 3.074471 1_565
Cd0_2 Cd1_6 3.074471 1_555
Cd0_2 Cd0_4 3.085367 1_465
Cd0_2 Cd0_4 3.085367 1_555
Cd0_2 Mg0_6 3.119329 1_555
Cd0_2 Mg0_0 3.119329 1_565
Cd0_2 Cd2_2 3.131693 1_555
Cd0_2 Cd3_1 3.161237 1_564
Cd0_2 Cd3_7 3.161237 1_554
Cd0_2 Mg0_2 3.193981 1_555
Cd0_3 Mg1_6 3.066377 1_555
Cd0_3 Mg1_0 3.066377 1_565
Cd0_3 Cd1_1 3.074471 1_565
Cd0_3 Cd1_7 3.074471 1_555
Cd0_3 Cd0_5 3.085367 1_555
Cd0_3 Cd0_5 3.085367 1_465
Cd0_3 Mg0_7 3.119329 1_555
Cd0_3 Mg0_1 3.119329 1_565
Cd0_3 Cd2_3 3.131693 1_555
Cd0_3 Cd3_6 3.161237 1_555
Cd0_3 Cd3_0 3.161237 1_565
Cd0_3 Mg0_3 3.193981 1_555
Cd0_4 Mg1_7 3.066377 1_554
Cd0_4 Mg1_1 3.066377 1_654
Cd0_4 Cd1_0 3.074471 1_655
Cd0_4 Cd1_6 3.074471 1_555
Cd0_4 Mg0_6 3.119329 1_555
Cd0_4 Mg0_0 3.119329 1_655
Cd0_4 Cd2_4 3.131693 1_555
Cd0_4 Cd3_1 3.161237 1_654
Cd0_4 Cd3_7 3.161237 1_554
Cd0_4 Mg0_4 3.193981 1_555
Cd0_5 Mg1_6 3.066377 1_555
Cd0_5 Mg1_0 3.066377 1_655
Cd0_5 Cd1_1 3.074471 1_655
Cd0_5 Cd1_7 3.074471 1_555
Cd0_5 Mg0_7 3.119329 1_555
Cd0_5 Mg0_1 3.119329 1_655
Cd0_5 Cd2_5 3.131693 1_555
Cd0_5 Cd3_0 3.161237 1_655
Cd0_5 Cd3_6 3.161237 1_555
Cd0_5 Mg0_5 3.193981 1_555
Cd0_6 Mg1_3 3.066377 1_654
Cd0_6 Mg1_5 3.066377 1_564
Cd0_6 Cd1_4 3.074471 1_565
Cd0_6 Cd1_2 3.074471 1_655
Cd0_6 Mg0_2 3.119329 1_655
Cd0_6 Mg0_4 3.119329 1_565
Cd0_6 Cd2_6 3.131693 1_555
Cd0_6 Cd3_5 3.161237 1_564
Cd0_6 Cd3_3 3.161237 1_654
Cd0_6 Mg0_6 3.193981 1_555
Cd0_7 Mg1_2 3.066377 1_655
Cd0_7 Mg1_4 3.066377 1_565
Cd0_7 Cd1_5 3.074471 1_565
Cd0_7 Cd1_3 3.074471 1_655
Cd0_7 Mg0_3 3.119329 1_655
Cd0_7 Mg0_5 3.119329 1_565
Cd0_7 Cd2_7 3.131693 1_555
Cd0_7 Cd3_4 3.161237 1_565
Cd0_7 Cd3_2 3.161237 1_655
Cd0_7 Mg0_7 3.193981 1_555
Cd1_0 Mg1_4 3.046878 1_455
Cd1_0 Mg1_2 3.046878 1_545
Cd1_0 Cd1_6 3.085367 1_545
Cd1_0 Cd1_6 3.085367 1_455
Cd1_0 Mg0_4 3.103054 1_455
Cd1_0 Mg0_2 3.103054 1_545
Cd1_0 Cd2_6 3.123867 1_445
Cd1_0 Cd3_0 3.131693 1_555
Cd1_0 Cd2_2 3.180618 1_545
Cd1_0 Cd2_4 3.180618 1_455
Cd1_1 Mg1_5 3.046878 1_455
Cd1_1 Mg1_3 3.046878 1_545
Cd1_1 Cd1_7 3.085367 1_545
Cd1_1 Cd1_7 3.085367 1_455
Cd1_1 Mg0_5 3.103054 1_455
Cd1_1 Mg0_3 3.103054 1_545
Cd1_1 Cd2_7 3.123867 1_445
Cd1_1 Cd3_1 3.131693 1_555
Cd1_1 Cd2_3 3.180618 1_545
Cd1_1 Cd2_5 3.180618 1_455
Cd1_2 Mg1_0 3.046878 1_555
Cd1_2 Mg1_6 3.046878 1_455
Cd1_2 Cd1_4 3.085367 1_555
Cd1_2 Cd1_4 3.085367 1_465
Cd1_2 Mg0_0 3.103054 1_555
Cd1_2 Mg0_6 3.103054 1_455
Cd1_2 Cd2_4 3.123867 1_455
Cd1_2 Cd3_2 3.131693 1_555
Cd1_2 Cd2_0 3.180618 1_555
Cd1_2 Cd2_6 3.180618 1_455
Cd1_3 Mg1_1 3.046878 1_555
Cd1_3 Mg1_7 3.046878 1_455
Cd1_3 Cd1_5 3.085367 1_465
Cd1_3 Cd1_5 3.085367 1_555
Cd1_3 Mg0_1 3.103054 1_555
Cd1_3 Mg0_7 3.103054 1_455
Cd1_3 Cd2_5 3.123867 1_455
Cd1_3 Cd3_3 3.131693 1_555
Cd1_3 Cd2_7 3.180618 1_455
Cd1_3 Cd2_1 3.180618 1_555
Cd1_4 Mg1_0 3.046878 1_555
Cd1_4 Mg1_6 3.046878 1_545
Cd1_4 Mg0_0 3.103054 1_555
Cd1_4 Mg0_6 3.103054 1_545
Cd1_4 Cd2_2 3.123867 1_545
Cd1_4 Cd3_4 3.131693 1_555
Cd1_4 Cd2_0 3.180618 1_555
Cd1_4 Cd2_6 3.180618 1_545
Cd1_5 Mg1_1 3.046878 1_555
Cd1_5 Mg1_7 3.046878 1_545
Cd1_5 Mg0_1 3.103054 1_555
Cd1_5 Mg0_7 3.103054 1_545
Cd1_5 Cd2_3 3.123867 1_545
Cd1_5 Cd3_5 3.131693 1_555
Cd1_5 Cd2_7 3.180618 1_545
Cd1_5 Cd2_1 3.180618 1_555
Cd1_6 Mg1_4 3.046878 1_555
Cd1_6 Mg1_2 3.046878 1_555
Cd1_6 Mg0_4 3.103054 1_555
Cd1_6 Mg0_2 3.103054 1_555
Cd1_6 Cd2_0 3.123867 1_555
Cd1_6 Cd3_6 3.131693 1_555
Cd1_6 Cd2_2 3.180618 1_555
Cd1_6 Cd2_4 3.180618 1_555
Cd1_7 Mg1_5 3.046878 1_555
Cd1_7 Mg1_3 3.046878 1_555
Cd1_7 Mg0_5 3.103054 1_555
Cd1_7 Mg0_3 3.103054 1_555
Cd1_7 Cd2_1 3.123867 1_555
Cd1_7 Cd3_7 3.131693 1_555
Cd1_7 Cd2_3 3.180618 1_555
Cd1_7 Cd2_5 3.180618 1_555
Cd2_0 Mg0_2 3.046878 1_555
Cd2_0 Mg0_4 3.046878 1_555
Cd2_0 Cd3_4 3.074471 1_555
Cd2_0 Cd3_2 3.074471 1_555
Cd2_0 Cd2_6 3.085367 1_455
Cd2_0 Cd2_6 3.085367 1_545
Cd2_0 Mg1_2 3.103054 1_555
Cd2_0 Mg1_4 3.103054 1_555
Cd2_1 Mg0_3 3.046878 1_555
Cd2_1 Mg0_5 3.046878 1_555
Cd2_1 Cd3_5 3.074471 1_555
Cd2_1 Cd3_3 3.074471 1_555
Cd2_1 Cd2_7 3.085367 1_455
Cd2_1 Cd2_7 3.085367 1_545
Cd2_1 Mg1_3 3.103054 1_555
Cd2_1 Mg1_5 3.103054 1_555
Cd2_2 Mg0_6 3.046878 1_555
Cd2_2 Mg0_0 3.046878 1_565
Cd2_2 Cd3_0 3.074471 1_565
Cd2_2 Cd3_6 3.074471 1_555
Cd2_2 Cd2_4 3.085367 1_555
Cd2_2 Cd2_4 3.085367 1_465
Cd2_2 Mg1_6 3.103054 1_555
Cd2_2 Mg1_0 3.103054 1_565
Cd2_3 Mg0_7 3.046878 1_555
Cd2_3 Mg0_1 3.046878 1_565
Cd2_3 Cd3_1 3.074471 1_565
Cd2_3 Cd3_7 3.074471 1_555
Cd2_3 Cd2_5 3.085367 1_465
Cd2_3 Cd2_5 3.085367 1_555
Cd2_3 Mg1_7 3.103054 1_555
Cd2_3 Mg1_1 3.103054 1_565
Cd2_4 Mg0_6 3.046878 1_555
Cd2_4 Mg0_0 3.046878 1_655
Cd2_4 Cd3_0 3.074471 1_655
Cd2_4 Cd3_6 3.074471 1_555
Cd2_4 Mg1_6 3.103054 1_555
Cd2_4 Mg1_0 3.103054 1_655
Cd2_5 Mg0_7 3.046878 1_555
Cd2_5 Mg0_1 3.046878 1_655
Cd2_5 Cd3_1 3.074471 1_655
Cd2_5 Cd3_7 3.074471 1_555
Cd2_5 Mg1_7 3.103054 1_555
Cd2_5 Mg1_1 3.103054 1_655
Cd2_6 Mg0_2 3.046878 1_655
Cd2_6 Mg0_4 3.046878 1_565
Cd2_6 Cd3_4 3.074471 1_565
Cd2_6 Cd3_2 3.074471 1_655
Cd2_6 Mg1_2 3.103054 1_655
Cd2_6 Mg1_4 3.103054 1_565
Cd2_7 Mg0_3 3.046878 1_655
Cd2_7 Mg0_5 3.046878 1_565
Cd2_7 Cd3_5 3.074471 1_565
Cd2_7 Cd3_3 3.074471 1_655
Cd2_7 Mg1_3 3.103054 1_655
Cd2_7 Mg1_5 3.103054 1_565
Cd3_0 Mg0_5 3.066377 1_455
Cd3_0 Mg0_3 3.066377 1_545
Cd3_0 Cd3_6 3.085367 1_455
Cd3_0 Cd3_6 3.085367 1_545
Cd3_0 Mg1_4 3.119329 1_455
Cd3_0 Mg1_2 3.119329 1_545
Cd3_0 Mg1_0 3.193981 1_555
Cd3_1 Mg0_4 3.066377 1_456
Cd3_1 Mg0_2 3.066377 1_546
Cd3_1 Cd3_7 3.085367 1_545
Cd3_1 Cd3_7 3.085367 1_455
Cd3_1 Mg1_5 3.119329 1_455
Cd3_1 Mg1_3 3.119329 1_545
Cd3_1 Mg1_1 3.193981 1_555
Cd3_2 Mg0_1 3.066377 1_555
Cd3_2 Mg0_7 3.066377 1_455
Cd3_2 Cd3_4 3.085367 1_555
Cd3_2 Cd3_4 3.085367 1_465
Cd3_2 Mg1_0 3.119329 1_555
Cd3_2 Mg1_6 3.119329 1_455
Cd3_2 Mg1_2 3.193981 1_555
Cd3_3 Mg0_0 3.066377 1_556
Cd3_3 Mg0_6 3.066377 1_456
Cd3_3 Cd3_5 3.085367 1_465
Cd3_3 Cd3_5 3.085367 1_555
Cd3_3 Mg1_1 3.119329 1_555
Cd3_3 Mg1_7 3.119329 1_455
Cd3_3 Mg1_3 3.193981 1_555
Cd3_4 Mg0_1 3.066377 1_555
Cd3_4 Mg0_7 3.066377 1_545
Cd3_4 Mg1_0 3.119329 1_555
Cd3_4 Mg1_6 3.119329 1_545
Cd3_4 Mg1_4 3.193981 1_555
Cd3_5 Mg0_0 3.066377 1_556
Cd3_5 Mg0_6 3.066377 1_546
Cd3_5 Mg1_1 3.119329 1_555
Cd3_5 Mg1_7 3.119329 1_545
Cd3_5 Mg1_5 3.193981 1_555
Cd3_6 Mg0_5 3.066377 1_555
Cd3_6 Mg0_3 3.066377 1_555
Cd3_6 Mg1_4 3.119329 1_555
Cd3_6 Mg1_2 3.119329 1_555
Cd3_6 Mg1_6 3.193981 1_555
Cd3_7 Mg0_2 3.066377 1_556
Cd3_7 Mg0_4 3.066377 1_556
Cd3_7 Mg1_5 3.119329 1_555
Cd3_7 Mg1_3 3.119329 1_555
Cd3_7 Mg1_7 3.193981 1_555
