# generated using pymatgen
data_CeNiGe
_symmetry_space_group_name_H-M   'P 1'
_cell_length_a   4.17066606
_cell_length_b   4.17066606
_cell_length_c   7.61874534
_cell_angle_alpha   90.00000000
_cell_angle_beta   90.00000000
_cell_angle_gamma   120.00134483
_symmetry_Int_Tables_number   1
_chemical_formula_structural   CeNiGe
_chemical_formula_sum   'Ce2 Ni2 Ge2'
_cell_volume   114.76753101
_cell_formula_units_Z   2
loop_
 _symmetry_equiv_pos_site_id
 _symmetry_equiv_pos_as_xyz
  1  'x, y, z'
loop_
 _atom_site_type_symbol
 _atom_site_label
 _atom_site_symmetry_multiplicity
 _atom_site_fract_x
 _atom_site_fract_y
 _atom_site_fract_z
 _atom_site_occupancy
  Ce  Ce0  1  0.00000000  -0.00000000  0.50000000  1
  Ce  Ce1  1  0.00000000  -0.00000000  -0.00000000  1
  Ni  Ni0  1  0.66680841  0.33319159  0.75000000  1
  Ni  Ni1  1  0.33319159  0.66680841  0.25000000  1
  Ge  Ge0  1  0.66659536  0.33340464  0.25000000  1
  Ge  Ge1  1  0.33340464  0.66659536  0.75000000  1
loop_
_geom_bond_atom_site_label_1
_geom_bond_atom_site_label_2
_geom_bond_distance
_geom_bond_site_symmetry_2
Ce0 Ni0 3.069386 1_455
Ce0 Ni1 3.069386 1_545
Ce0 Ge0 3.069949 1_555
Ce0 Ge1 3.069949 1_555
Ce0 Ge1 3.069949 1_445
Ce0 Ge0 3.069949 1_445
Ce0 Ni0 3.070552 1_445
Ce0 Ni0 3.070552 1_555
Ce0 Ni1 3.070552 1_555
Ce0 Ni1 3.070552 1_445
Ce0 Ge1 3.070593 1_545
Ce0 Ge0 3.070593 1_455
Ce1 Ni0 3.069386 1_454
Ce1 Ni1 3.069386 1_545
Ce1 Ge0 3.069949 1_555
Ce1 Ge1 3.069949 1_554
Ce1 Ge0 3.069949 1_445
Ce1 Ge1 3.069949 1_444
Ce1 Ni0 3.070552 1_444
Ce1 Ni1 3.070552 1_555
Ce1 Ni1 3.070552 1_445
Ce1 Ni0 3.070552 1_554
Ce1 Ge1 3.070593 1_544
Ce1 Ge0 3.070593 1_455
Ge0 Ni1 2.407648 1_545
Ge0 Ni1 2.407648 1_655
Ge0 Ni1 2.408460 1_555
Ge1 Ni0 2.407648 1_455
Ge1 Ni0 2.407648 1_565
Ge1 Ni0 2.408460 1_555
