# generated using pymatgen
data_Mg14ZrMo
_symmetry_space_group_name_H-M   'P 1'
_cell_length_a   6.38426075
_cell_length_b   6.14821904
_cell_length_c   10.13653636
_cell_angle_alpha   90.00000000
_cell_angle_beta   90.00000000
_cell_angle_gamma   118.78432131
_symmetry_Int_Tables_number   1
_chemical_formula_structural   Mg14ZrMo
_chemical_formula_sum   'Mg14 Zr1 Mo1'
_cell_volume   348.71527040
_cell_formula_units_Z   1
loop_
 _symmetry_equiv_pos_site_id
 _symmetry_equiv_pos_as_xyz
  1  'x, y, z'
loop_
 _atom_site_type_symbol
 _atom_site_label
 _atom_site_symmetry_multiplicity
 _atom_site_fract_x
 _atom_site_fract_y
 _atom_site_fract_z
 _atom_site_occupancy
  Mg  Mg0  1  0.16672107  0.33336003  0.62500000  1
  Mg  Mg1  1  0.16353312  0.83176606  0.62500000  1
  Mg  Mg2  1  0.65863856  0.32558789  0.12500000  1
  Mg  Mg3  1  0.66384737  0.33372919  0.62500000  1
  Mg  Mg4  1  0.65863856  0.83304967  0.12500000  1
  Mg  Mg5  1  0.66384737  0.83011718  0.62500000  1
  Mg  Mg6  1  0.33109048  0.15940211  0.36810108  1
  Mg  Mg7  1  0.33109048  0.15940211  0.88189892  1
  Mg  Mg8  1  0.33109048  0.67168937  0.36810108  1
  Mg  Mg9  1  0.33109048  0.67168937  0.88189892  1
  Mg  Mg10  1  0.84170438  0.17085269  0.37691667  1
  Mg  Mg11  1  0.84170438  0.17085269  0.87308333  1
  Mg  Mg12  1  0.85037453  0.67518776  0.36298399  1
  Mg  Mg13  1  0.85037453  0.67518776  0.88701601  1
  Zr  Zr0  1  0.15805948  0.32902924  0.12500000  1
  Mo  Mo0  1  0.15819472  0.82909686  0.12500000  1
loop_
_geom_bond_atom_site_label_1
_geom_bond_atom_site_label_2
_geom_bond_distance
_geom_bond_site_symmetry_2
Mg0 Mg1 3.074161 1_545
Mg0 Mg1 3.074161 1_555
Mg0 Mg10 3.103395 1_455
Mg0 Mg11 3.103395 1_455
Mg0 Mg5 3.172691 1_555
Mg0 Mg3 3.172692 1_555
Mg0 Mg6 3.179165 1_555
Mg0 Mg7 3.179165 1_555
Mg0 Mg8 3.179171 1_555
Mg0 Mg9 3.179171 1_555
Mg0 Mg5 3.211570 1_445
Mg0 Mg3 3.211570 1_455
Mg1 Mg8 3.147696 1_555
Mg1 Mg9 3.147696 1_555
Mg1 Mg6 3.147702 1_565
Mg1 Mg7 3.147702 1_565
Mg1 Mg13 3.181882 1_455
Mg1 Mg12 3.181882 1_455
Mg1 Mg3 3.185255 1_455
Mg1 Mg5 3.185255 1_455
Mg1 Mg3 3.199030 1_565
Mg1 Mg5 3.199030 1_555
Mg2 Mg4 3.028233 1_545
Mg2 Mg7 3.071083 1_554
Mg2 Mg6 3.071083 1_555
Mg2 Mg4 3.119986 1_555
Mg2 Zr0 3.178300 1_655
Mg2 Mo0 3.183333 1_545
Mg2 Mo0 3.201070 1_655
Mg2 Zr0 3.206069 1_555
Mg3 Mg5 3.051902 1_555
Mg3 Mg5 3.096317 1_545
Mg3 Mg6 3.201603 1_555
Mg3 Mg7 3.201603 1_555
Mg4 Mg9 3.071083 1_554
Mg4 Mg8 3.071083 1_555
Mg4 Zr0 3.178299 1_665
Mg4 Mo0 3.183333 1_555
Mg4 Mo0 3.201070 1_655
Mg4 Zr0 3.206069 1_555
Mg5 Mg8 3.201603 1_555
Mg5 Mg9 3.201603 1_555
Mg6 Mg8 2.998565 1_545
Mg6 Mo0 3.042379 1_545
Mg6 Zr0 3.080540 1_555
Mg6 Mg8 3.149654 1_555
Mg7 Mg9 2.998565 1_545
Mg7 Mo0 3.042379 1_546
Mg7 Zr0 3.080540 1_556
Mg7 Mg9 3.149654 1_555
Mg8 Mo0 3.042373 1_555
Mg8 Zr0 3.080547 1_555
Mg9 Mo0 3.042373 1_556
Mg9 Zr0 3.080547 1_556
Mg10 Mg12 3.077734 1_555
Mg10 Mg12 3.077734 1_545
Mg10 Zr0 3.107099 1_655
Mg10 Mg3 3.116233 1_555
Mg10 Mg5 3.116239 1_545
Mg10 Mg2 3.140456 1_555
Mg10 Mg4 3.140461 1_545
Mg10 Mg8 3.160133 1_655
Mg10 Mg6 3.160134 1_655
Mg10 Mg8 3.227820 1_545
Mg10 Mg6 3.227821 1_555
Mg11 Mg13 3.077734 1_555
Mg11 Mg13 3.077734 1_545
Mg11 Zr0 3.107099 1_656
Mg11 Mg3 3.116233 1_555
Mg11 Mg5 3.116239 1_545
Mg11 Mg2 3.140456 1_556
Mg11 Mg4 3.140461 1_546
Mg11 Mg9 3.160133 1_655
Mg11 Mg7 3.160134 1_655
Mg11 Mg9 3.227820 1_545
Mg11 Mg7 3.227821 1_555
Mg12 Mo0 2.964110 1_655
Mg12 Mg4 3.066578 1_555
Mg12 Mg2 3.066584 1_555
Mg12 Mg6 3.079867 1_665
Mg12 Mg8 3.079867 1_655
Mg12 Mg5 3.236016 1_555
Mg12 Mg3 3.236022 1_555
Mg12 Mg6 3.305348 1_555
Mg12 Mg8 3.305349 1_555
Mg13 Mo0 2.964110 1_656
Mg13 Mg4 3.066578 1_556
Mg13 Mg2 3.066584 1_556
Mg13 Mg7 3.079867 1_665
Mg13 Mg9 3.079867 1_655
Mg13 Mg5 3.236016 1_555
Mg13 Mg3 3.236022 1_555
Mg13 Mg7 3.305348 1_555
Mg13 Mg9 3.305349 1_555
Mo0 Zr0 3.074110 1_555
Mo0 Zr0 3.074110 1_565
