# generated using pymatgen
data_Cs2SbCl6
_symmetry_space_group_name_H-M   'P 1'
_cell_length_a   12.87984256
_cell_length_b   12.87981816
_cell_length_c   12.88009575
_cell_angle_alpha   131.75905700
_cell_angle_beta   131.75948544
_cell_angle_gamma   70.60431468
_symmetry_Int_Tables_number   1
_chemical_formula_structural   Cs2SbCl6
_chemical_formula_sum   'Cs8 Sb4 Cl24'
_cell_volume   1164.83535410
_cell_formula_units_Z   4
loop_
 _symmetry_equiv_pos_site_id
 _symmetry_equiv_pos_as_xyz
  1  'x, y, z'
loop_
 _atom_site_type_symbol
 _atom_site_label
 _atom_site_symmetry_multiplicity
 _atom_site_fract_x
 _atom_site_fract_y
 _atom_site_fract_z
 _atom_site_occupancy
  Cs  Cs0  1  0.62714645  0.62467619  0.50081951  1
  Cs  Cs1  1  0.87371611  0.37292381  0.99747573  1
  Cs  Cs2  1  0.12386316  0.12639089  0.49928702  1
  Cs  Cs3  1  0.37554413  0.87627274  0.00260791  1
  Cs  Cs4  1  0.12373096  0.62445196  0.99739052  1
  Cs  Cs5  1  0.87361428  0.87614562  0.50072754  1
  Cs  Cs6  1  0.37532300  0.37285079  0.49917507  1
  Cs  Cs7  1  0.62706891  0.12628455  0.00251704  1
  Sb  Sb0  1  0.24998478  0.75000474  0.49999621  1
  Sb  Sb1  1  0.50000635  0.49999060  -0.00001726  1
  Sb  Sb2  1  0.74997069  0.25002158  0.49998955  1
  Sb  Sb3  1  0.00002172  0.99999494  0.00001470  1
  Cl  Cl0  1  0.12025441  0.12016150  0.99997066  1
  Cl  Cl1  1  0.48838014  0.74975410  0.73855269  1
  Cl  Cl2  1  0.87018576  0.37025230  0.50000256  1
  Cl  Cl3  1  0.99042940  0.25030015  0.74013029  1
  Cl  Cl4  1  0.87982517  0.87974225  0.00003078  1
  Cl  Cl5  1  0.25013611  0.98880135  0.73856104  1
  Cl  Cl6  1  0.26049875  0.50068426  0.75984826  1
  Cl  Cl7  1  0.49939127  0.25917500  0.75985774  1
  Cl  Cl8  1  0.49933016  0.73951326  0.24016116  1
  Cl  Cl9  1  0.51010370  0.25039513  0.25985019  1
  Cl  Cl10  1  0.00084706  0.76052432  0.75982280  1
  Cl  Cl11  1  0.25022728  0.51160249  0.26142457  1
  Cl  Cl12  1  0.13056693  0.63058190  0.50000036  1
  Cl  Cl13  1  0.74084372  0.50061984  0.24015751  1
  Cl  Cl14  1  0.23948199  0.99915505  0.24019444  1
  Cl  Cl15  1  0.74970566  0.00957648  0.25987434  1
  Cl  Cl16  1  0.75905313  0.99922695  0.75982059  1
  Cl  Cl17  1  0.62974837  0.12981755  0.49999738  1
  Cl  Cl18  1  0.37977460  0.37975856  0.00000903  1
  Cl  Cl19  1  0.62025489  0.62023692  0.00001018  1
  Cl  Cl20  1  0.74960537  0.48988548  0.74013155  1
  Cl  Cl21  1  0.01118502  0.74985872  0.26142647  1
  Cl  Cl22  1  0.00077033  0.24094831  0.24019093  1
  Cl  Cl23  1  0.36940923  0.86941973  0.49999094  1
loop_
_geom_bond_atom_site_label_1
_geom_bond_atom_site_label_2
_geom_bond_distance
_geom_bond_site_symmetry_2
Cl0 Sb3 2.527404 1_546
Cl0 Cs3 3.716631 1_546
Cl0 Cs6 3.717317 1_556
Cl0 Cs1 3.717522 1_455
Cl0 Cs5 3.717611 1_445
Cl1 Sb0 2.511730 1_555
Cl1 Cs3 3.736773 1_556
Cl1 Cs6 3.737723 1_555
Cl1 Cs7 3.737773 1_566
Cl1 Cs0 3.737974 1_555
Cl2 Sb2 2.527293 1_555
Cl2 Cs4 3.704270 1_655
Cl2 Cs0 3.704341 1_555
Cl2 Cs2 3.704891 1_655
Cl2 Cs7 3.704998 1_555
Cl3 Sb2 2.528148 1_555
Cl3 Cs4 3.714599 1_655
Cl3 Cs2 3.716017 1_655
Cl3 Cs1 3.718609 1_555
Cl3 Cs5 3.719941 1_545
Cl4 Sb3 2.527635 1_655
Cl4 Cs4 3.716757 1_654
Cl4 Cs0 3.717363 1_554
Cl4 Cs7 3.717503 1_565
Cl4 Cs2 3.717704 1_665
Cl5 Sb0 2.511789 1_555
Cl5 Cs2 3.737308 1_565
Cl5 Cs7 3.737524 1_566
Cl5 Cs3 3.737598 1_556
Cl5 Cs5 3.737977 1_455
Cl6 Sb1 2.528256 1_556
Cl6 Cs6 3.715413 1_555
Cl6 Cs3 3.716961 1_556
Cl6 Cs2 3.717258 1_555
Cl6 Cs4 3.717867 1_555
Cl7 Sb1 2.528221 1_556
Cl7 Cs2 3.716051 1_555
Cl7 Cs7 3.716510 1_556
Cl7 Cs6 3.717276 1_555
Cl7 Cs1 3.717788 1_555
Cl8 Sb1 2.528494 1_555
Cl8 Cs0 3.715432 1_555
Cl8 Cs4 3.717088 1_554
Cl8 Cs5 3.717116 1_555
Cl8 Cs3 3.717809 1_555
Cl9 Sb2 2.528460 1_555
Cl9 Cs7 3.715488 1_555
Cl9 Cs0 3.716120 1_555
Cl9 Cs3 3.719215 1_545
Cl9 Cs6 3.719739 1_555
Cl10 Sb3 2.529089 1_556
Cl10 Cs5 3.708656 1_455
Cl10 Cs3 3.709289 1_556
Cl10 Cs0 3.713226 1_455
Cl10 Cs4 3.713416 1_555
Cl11 Sb0 2.511822 1_555
Cl11 Cs4 3.736748 1_554
Cl11 Cs1 3.737568 1_454
Cl11 Cs0 3.737885 1_555
Cl11 Cs6 3.737916 1_555
Cl12 Sb0 2.510602 1_555
Cl12 Cs6 3.742249 1_555
Cl12 Cs5 3.742453 1_455
Cl12 Cs1 3.743031 1_454
Cl12 Cs3 3.743616 1_556
Cl13 Sb1 2.528504 1_555
Cl13 Cs5 3.715986 1_555
Cl13 Cs1 3.716509 1_554
Cl13 Cs0 3.717343 1_555
Cl13 Cs7 3.717919 1_555
Cl14 Sb3 2.529030 1_555
Cl14 Cs2 3.708606 1_565
Cl14 Cs4 3.709304 1_554
Cl14 Cs6 3.713234 1_565
Cl14 Cs3 3.713532 1_555
Cl15 Sb2 2.528032 1_555
Cl15 Cs3 3.714684 1_545
Cl15 Cs5 3.716077 1_545
Cl15 Cs7 3.718615 1_555
Cl15 Cs2 3.719925 1_655
Cl16 Sb3 2.528582 1_656
Cl16 Cs0 3.707508 1_555
Cl16 Cs7 3.708911 1_566
Cl16 Cs5 3.712878 1_555
Cl16 Cs1 3.713810 1_565
Cl17 Sb2 2.527308 1_555
Cl17 Cs3 3.704282 1_545
Cl17 Cs6 3.704308 1_555
Cl17 Cs5 3.704885 1_545
Cl17 Cs1 3.704946 1_555
Cl18 Sb1 2.527895 1_555
Cl18 Cs4 3.728219 1_554
Cl18 Cs7 3.728436 1_555
Cl18 Cs2 3.728618 1_554
Cl18 Cs0 3.729252 1_555
Cl19 Sb1 2.527657 1_555
Cl19 Cs3 3.728288 1_555
Cl19 Cs1 3.728481 1_554
Cl19 Cs5 3.728582 1_555
Cl19 Cs6 3.729435 1_554
Cl20 Sb2 2.528433 1_555
Cl20 Cs1 3.715554 1_555
Cl20 Cs6 3.716147 1_555
Cl20 Cs4 3.719208 1_655
Cl20 Cs0 3.719680 1_555
Cl21 Sb0 2.511841 1_555
Cl21 Cs5 3.737363 1_455
Cl21 Cs1 3.737520 1_454
Cl21 Cs4 3.737687 1_554
Cl21 Cs2 3.738076 1_565
Cl22 Sb3 2.528527 1_545
Cl22 Cs6 3.707564 1_555
Cl22 Cs1 3.709012 1_454
Cl22 Cs2 3.712808 1_555
Cl22 Cs7 3.713783 1_455
Cl23 Sb0 2.510600 1_555
Cl23 Cs0 3.742207 1_555
Cl23 Cs2 3.742464 1_565
Cl23 Cs7 3.743047 1_566
Cl23 Cs4 3.743568 1_554
