# generated using pymatgen
data_VOF2
_symmetry_space_group_name_H-M   'P 1'
_cell_length_a   5.06573832
_cell_length_b   7.33412912
_cell_length_c   5.31725733
_cell_angle_alpha   93.01404072
_cell_angle_beta   90.04813747
_cell_angle_gamma   89.98189095
_symmetry_Int_Tables_number   1
_chemical_formula_structural   VOF2
_chemical_formula_sum   'V4 O4 F8'
_cell_volume   197.27753271
_cell_formula_units_Z   4
loop_
 _symmetry_equiv_pos_site_id
 _symmetry_equiv_pos_as_xyz
  1  'x, y, z'
loop_
 _atom_site_type_symbol
 _atom_site_label
 _atom_site_symmetry_multiplicity
 _atom_site_fract_x
 _atom_site_fract_y
 _atom_site_fract_z
 _atom_site_occupancy
  V  V0  1  0.97826032  0.50696688  0.04391934  1
  V  V1  1  0.97840575  0.99310964  0.95571007  1
  V  V2  1  0.46786955  0.00657025  0.46686528  1
  V  V3  1  0.46831076  0.49327506  0.53321697  1
  O  O0  1  0.79991414  0.54719493  0.29565844  1
  O  O1  1  0.80114831  0.95208304  0.70338759  1
  O  O2  1  0.21817036  0.05017810  0.28616880  1
  O  O3  1  0.22000283  0.45001936  0.71569877  1
  F  F0  1  0.89236259  0.25020531  0.99838733  1
  F  F1  1  0.11857928  0.75011898  0.00097349  1
  F  F2  1  0.61862950  0.24976447  0.50100976  1
  F  F3  1  0.39565923  0.74969123  0.49904647  1
  F  F4  1  0.71614295  0.93938808  0.20327296  1
  F  F5  1  0.71735965  0.56413680  0.79550244  1
  F  F6  1  0.30396835  0.44145693  0.20851013  1
  F  F7  1  0.30521544  0.05584194  0.79267415  1
loop_
_geom_bond_atom_site_label_1
_geom_bond_atom_site_label_2
_geom_bond_distance
_geom_bond_site_symmetry_2
O0 V0 1.629527 1_555
O0 V3 2.151803 1_555
O1 V1 1.628677 1_555
O1 V2 2.154205 1_565
O2 V2 1.629558 1_555
O2 V1 2.158081 1_444
O3 V3 1.630651 1_555
O3 V0 2.155586 1_456
F0 V0 1.935589 1_556
F0 V1 1.936883 1_545
F1 V0 1.944608 1_455
F1 V1 1.944770 1_454
F2 V2 1.940124 1_555
F2 V3 1.940604 1_555
F3 V3 1.934027 1_555
F3 V2 1.935698 1_565
F4 V1 1.926369 1_554
F4 V2 1.928458 1_565
F5 V0 1.929327 1_556
F5 V3 1.930810 1_555
F6 V3 1.935787 1_555
F6 V0 1.939174 1_455
F7 V2 1.935748 1_555
F7 V1 1.936189 1_445
