# generated using pymatgen
data_Yb4S7
_symmetry_space_group_name_H-M   'P 1'
_cell_length_a   8.56649051
_cell_length_b   8.56649051
_cell_length_c   8.56649051
_cell_angle_alpha   143.77560594
_cell_angle_beta   143.77560594
_cell_angle_gamma   52.16297216
_symmetry_Int_Tables_number   1
_chemical_formula_structural   Yb4S7
_chemical_formula_sum   'Yb4 S7'
_cell_volume   218.27767549
_cell_formula_units_Z   1
loop_
 _symmetry_equiv_pos_site_id
 _symmetry_equiv_pos_as_xyz
  1  'x, y, z'
loop_
 _atom_site_type_symbol
 _atom_site_label
 _atom_site_symmetry_multiplicity
 _atom_site_fract_x
 _atom_site_fract_y
 _atom_site_fract_z
 _atom_site_occupancy
  Yb  Yb0  1  0.62183105  0.62183105  0.51399636  1
  Yb  Yb1  1  0.10783369  0.10783369  0.48600364  1
  Yb  Yb2  1  0.37816895  0.89216631  0.00000000  1
  Yb  Yb3  1  0.89216631  0.37816895  0.00000000  1
  S  S0  1  0.44164822  0.44164822  0.51760243  1
  S  S1  1  0.92404579  0.92404579  0.48239757  1
  S  S2  1  0.55835178  0.07595421  0.00000000  1
  S  S3  1  0.07595421  0.55835178  0.00000000  1
  S  S4  1  0.00000000  0.00000000  0.00000000  1
  S  S5  1  0.00000000  0.50000000  0.50000000  1
  S  S6  1  0.50000000  0.00000000  0.50000000  1
loop_
_geom_bond_atom_site_label_1
_geom_bond_atom_site_label_2
_geom_bond_distance
_geom_bond_site_symmetry_2
S0 Yb3 2.754392 1_556
S0 Yb2 2.754392 1_556
S0 Yb3 2.772895 1_455
S0 Yb2 2.772895 1_545
S0 Yb0 2.800490 1_555
S1 Yb2 2.754392 1_555
S1 Yb3 2.754392 1_555
S1 Yb3 2.772895 1_566
S1 Yb2 2.772895 1_656
S1 Yb1 2.800475 1_665
S2 Yb1 2.754387 1_554
S2 Yb0 2.754392 1_555
S2 Yb1 2.772896 1_655
S2 Yb0 2.772900 1_544
S2 Yb2 2.800483 1_545
S3 Yb1 2.754387 1_554
S3 Yb0 2.754392 1_555
S3 Yb1 2.772896 1_565
S3 Yb0 2.772900 1_454
S3 Yb3 2.800483 1_455
S4 Yb0 2.770701 1_444
S4 Yb3 2.770704 1_455
S4 Yb2 2.770704 1_545
S4 Yb1 2.770713 1_555
S5 Yb0 2.806300 1_455
S5 Yb3 2.806305 1_455
S5 Yb2 2.806305 1_556
S5 Yb1 2.806311 1_555
S6 Yb0 2.806300 1_545
S6 Yb3 2.806305 1_556
S6 Yb2 2.806305 1_545
S6 Yb1 2.806311 1_555
