# generated using pymatgen
data_CsReO4
_symmetry_space_group_name_H-M   'P 1'
_cell_length_a   5.68704375
_cell_length_b   6.05000135
_cell_length_c   14.24207947
_cell_angle_alpha   90.00000000
_cell_angle_beta   90.00000000
_cell_angle_gamma   90.00000000
_symmetry_Int_Tables_number   1
_chemical_formula_structural   CsReO4
_chemical_formula_sum   'Cs4 Re4 O16'
_cell_volume   490.02185002
_cell_formula_units_Z   4
loop_
 _symmetry_equiv_pos_site_id
 _symmetry_equiv_pos_as_xyz
  1  'x, y, z'
loop_
 _atom_site_type_symbol
 _atom_site_label
 _atom_site_symmetry_multiplicity
 _atom_site_fract_x
 _atom_site_fract_y
 _atom_site_fract_z
 _atom_site_occupancy
  Cs  Cs0  1  0.47183610  0.25000000  0.62774444  1
  Cs  Cs1  1  0.97183610  0.25000000  0.87225556  1
  Cs  Cs2  1  0.52816390  0.75000000  0.37225556  1
  Cs  Cs3  1  0.02816390  0.75000000  0.12774444  1
  Re  Re0  1  0.45269710  0.75000000  0.88115086  1
  Re  Re1  1  0.95269710  0.75000000  0.61884914  1
  Re  Re2  1  0.54730290  0.25000000  0.11884914  1
  Re  Re3  1  0.04730290  0.25000000  0.38115086  1
  O  O0  1  0.51581236  0.51485946  0.81527678  1
  O  O1  1  0.01581236  0.98514054  0.68472322  1
  O  O2  1  0.48418764  0.01485946  0.18472322  1
  O  O3  1  0.98418764  0.48514054  0.31527678  1
  O  O4  1  0.48418764  0.48514054  0.18472322  1
  O  O5  1  0.98418764  0.01485946  0.31527678  1
  O  O6  1  0.51581236  0.98514054  0.81527678  1
  O  O7  1  0.01581236  0.51485946  0.68472322  1
  O  O8  1  0.84542052  0.25000000  0.08913996  1
  O  O9  1  0.34542052  0.25000000  0.41086004  1
  O  O10  1  0.15457948  0.75000000  0.91086004  1
  O  O11  1  0.65457948  0.75000000  0.58913996  1
  O  O12  1  0.87797685  0.25000000  0.48303153  1
  O  O13  1  0.37797685  0.25000000  0.01696847  1
  O  O14  1  0.12202315  0.75000000  0.51696847  1
  O  O15  1  0.62202315  0.75000000  0.98303153  1
loop_
_geom_bond_atom_site_label_1
_geom_bond_atom_site_label_2
_geom_bond_distance
_geom_bond_site_symmetry_2
Cs0 O12 3.095589 1_555
Cs0 O0 3.124688 1_555
Cs0 O6 3.124688 1_545
Cs0 O7 3.154691 1_555
Cs0 O1 3.154691 1_545
Cs0 O9 3.171446 1_555
Cs0 O11 3.245458 1_545
Cs0 O11 3.245458 1_555
Cs0 O1 3.577244 1_645
Cs0 O7 3.577244 1_655
Cs1 O13 3.095589 1_656
Cs1 O1 3.124688 1_645
Cs1 O7 3.124688 1_655
Cs1 O6 3.154691 1_545
Cs1 O0 3.154691 1_555
Cs1 O8 3.171446 1_556
Cs1 O10 3.245458 1_645
Cs1 O10 3.245458 1_655
Cs1 O0 3.577244 1_655
Cs1 O6 3.577244 1_645
Cs2 O14 3.095589 1_555
Cs2 O2 3.124688 1_565
Cs2 O4 3.124688 1_555
Cs2 O5 3.154691 1_565
Cs2 O3 3.154691 1_555
Cs2 O11 3.171446 1_555
Cs2 O9 3.245458 1_555
Cs2 O9 3.245458 1_565
Cs2 O5 3.577244 1_465
Cs2 O3 3.577244 1_455
Cs3 O15 3.095589 1_454
Cs3 O3 3.124688 1_455
Cs3 O5 3.124688 1_465
Cs3 O4 3.154691 1_555
Cs3 O2 3.154691 1_565
Cs3 O10 3.171446 1_554
Cs3 O8 3.245458 1_465
Cs3 O8 3.245458 1_455
Cs3 O4 3.577244 1_455
Cs3 O2 3.577244 1_465
O0 Re0 1.741499 1_555
O1 Re1 1.741499 1_455
O2 Re2 1.741499 1_555
O3 Re3 1.741499 1_655
O4 Re2 1.741499 1_555
O5 Re3 1.741499 1_655
O6 Re0 1.741499 1_555
O7 Re1 1.741499 1_455
O8 Re2 1.747409 1_555
O9 Re3 1.747409 1_555
O10 Re0 1.747409 1_555
O11 Re1 1.747409 1_555
O12 Re3 1.741459 1_655
O13 Re2 1.741459 1_555
O14 Re1 1.741459 1_455
O15 Re0 1.741459 1_555
