# generated using pymatgen
data_Rb(CuO5)2
_symmetry_space_group_name_H-M   'P 1'
_cell_length_a   5.70475162
_cell_length_b   5.70475162
_cell_length_c   8.24323845
_cell_angle_alpha   65.12500953
_cell_angle_beta   65.12500953
_cell_angle_gamma   67.70067668
_symmetry_Int_Tables_number   1
_chemical_formula_structural   Rb(CuO5)2
_chemical_formula_sum   'Rb1 Cu2 O10'
_cell_volume   214.01486636
_cell_formula_units_Z   1
loop_
 _symmetry_equiv_pos_site_id
 _symmetry_equiv_pos_as_xyz
  1  'x, y, z'
loop_
 _atom_site_type_symbol
 _atom_site_label
 _atom_site_symmetry_multiplicity
 _atom_site_fract_x
 _atom_site_fract_y
 _atom_site_fract_z
 _atom_site_occupancy
  Rb  Rb0  1  0.00000000  0.00000000  0.00000000  1
  Cu  Cu0  1  0.50000000  0.00000000  0.50000000  1
  Cu  Cu1  1  0.00000000  0.50000000  0.50000000  1
  O  O0  1  0.56540500  0.93092200  0.73121700  1
  O  O1  1  0.43459500  0.06907800  0.26878300  1
  O  O2  1  0.06907800  0.43459500  0.26878300  1
  O  O3  1  0.93092200  0.56540500  0.73121700  1
  O  O4  1  0.33825400  0.33825400  0.18471300  1
  O  O5  1  0.66174600  0.66174600  0.81528700  1
  O  O6  1  0.49410100  0.49410100  0.42800400  1
  O  O7  1  0.50589900  0.50589900  0.57199600  1
  O  O8  1  0.15687300  0.15687300  0.60595200  1
  O  O9  1  0.84312700  0.84312700  0.39404800  1
loop_
_geom_bond_atom_site_label_1
_geom_bond_atom_site_label_2
_geom_bond_distance
_geom_bond_site_symmetry_2
Cu0 O9 1.812514 1_545
Cu0 O8 1.812514 1_555
Cu0 O1 1.944756 1_555
Cu0 O0 1.944756 1_545
Cu0 O7 2.614580 1_545
Cu0 O6 2.614580 1_555
Cu1 O9 1.812514 1_455
Cu1 O8 1.812514 1_555
Cu1 O2 1.944756 1_555
Cu1 O3 1.944756 1_455
Cu1 O6 2.614580 1_555
Cu1 O7 2.614580 1_455
O0 O5 1.387452 1_555
O0 Rb0 3.037412 1_566
O1 O4 1.387452 1_555
O1 Rb0 3.037412 1_655
O2 O4 1.387452 1_555
O2 Rb0 3.037412 1_565
O3 O5 1.387452 1_555
O3 Rb0 3.037412 1_656
O6 O7 1.247313 1_555
O8 Rb0 2.805264 1_556
O9 Rb0 2.805264 1_665
