# generated using pymatgen
data_LiMn3O5F
_symmetry_space_group_name_H-M   'P 1'
_cell_length_a   4.95328700
_cell_length_b   5.09242106
_cell_length_c   5.38338858
_cell_angle_alpha   116.98699944
_cell_angle_beta   90.10727156
_cell_angle_gamma   117.19152336
_symmetry_Int_Tables_number   1
_chemical_formula_structural   LiMn3O5F
_chemical_formula_sum   'Li1 Mn3 O5 F1'
_cell_volume   103.81439835
_cell_formula_units_Z   1
loop_
 _symmetry_equiv_pos_site_id
 _symmetry_equiv_pos_as_xyz
  1  'x, y, z'
loop_
 _atom_site_type_symbol
 _atom_site_label
 _atom_site_symmetry_multiplicity
 _atom_site_fract_x
 _atom_site_fract_y
 _atom_site_fract_z
 _atom_site_occupancy
  Li  Li0  1  0.10049700  0.84934100  0.39762500  1
  Mn  Mn0  1  0.87464000  0.16606300  0.56587300  1
  Mn  Mn1  1  0.34154300  0.65413700  0.01821400  1
  Mn  Mn2  1  0.66685700  0.35563600  0.96079900  1
  O  O0  1  0.58681200  0.06072100  0.78468600  1
  O  O1  1  0.71055500  0.52162600  0.24609900  1
  O  O2  1  0.04962100  0.27016500  0.24183200  1
  O  O3  1  0.96728900  0.77047900  0.75920800  1
  O  O4  1  0.27571500  0.45191700  0.77218900  1
  F  F0  1  0.42647300  0.89991400  0.25347700  1
loop_
_geom_bond_atom_site_label_1
_geom_bond_atom_site_label_2
_geom_bond_distance
_geom_bond_site_symmetry_2
Li0 O1 1.730259 1_455
Li0 O3 2.204037 1_455
Mn0 O4 1.783455 1_655
Mn0 O0 1.894405 1_555
Mn0 O2 2.121406 1_655
Mn1 O4 1.172436 1_554
Mn2 O0 1.213954 1_555
Mn2 O1 1.331751 1_556
F0 Mn1 1.194012 1_555
F0 Li0 1.755460 1_555
F0 Mn0 2.181916 1_565
