# generated using pymatgen
data_UAlCo
_symmetry_space_group_name_H-M   'P 1'
_cell_length_a   5.09054768
_cell_length_b   5.09054768
_cell_length_c   5.09054768
_cell_angle_alpha   85.56885301
_cell_angle_beta   60.56005908
_cell_angle_gamma   115.54551801
_symmetry_Int_Tables_number   1
_chemical_formula_structural   UAlCo
_chemical_formula_sum   'U2 Al2 Co2'
_cell_volume   96.37355017
_cell_formula_units_Z   2
loop_
 _symmetry_equiv_pos_site_id
 _symmetry_equiv_pos_as_xyz
  1  'x, y, z'
loop_
 _atom_site_type_symbol
 _atom_site_label
 _atom_site_symmetry_multiplicity
 _atom_site_fract_x
 _atom_site_fract_y
 _atom_site_fract_z
 _atom_site_occupancy
  U  U0  1  0.50000000  0.78222600  0.71777400  1
  U  U1  1  0.00000000  0.96777400  0.03222600  1
  Al  Al0  1  0.75000000  0.37500000  0.87500000  1
  Al  Al1  1  0.25000000  0.37500000  0.37500000  1
  Co  Co0  1  0.25000000  0.87500000  0.37500000  1
  Co  Co1  1  0.75000000  0.37500000  0.37500000  1
loop_
_geom_bond_atom_site_label_1
_geom_bond_atom_site_label_2
_geom_bond_distance
_geom_bond_site_symmetry_2
Al0 Co0 2.545274 1_546
Al0 Co1 2.545274 1_555
Al0 Co0 2.545274 1_655
Al0 Co1 2.545274 1_556
Al0 Al1 2.566790 1_556
Al0 Al1 2.566790 1_655
Al0 U0 3.070538 1_545
Al0 U0 3.070538 1_655
Al0 U1 3.070538 1_546
Al0 U1 3.070538 1_656
Al0 U1 3.094795 1_646
Al0 U0 3.094795 1_555
Al1 Co0 2.545274 1_555
Al1 Co1 2.545274 1_455
Al1 Co1 2.545274 1_555
Al1 Co0 2.545274 1_545
Al1 U0 3.070538 1_555
Al1 U1 3.070538 1_545
Al1 U0 3.070538 1_445
Al1 U1 3.070538 1_655
Al1 U0 3.094795 1_554
Al1 U1 3.094795 1_546
Co0 Co1 2.714680 1_565
Co0 Co1 2.714680 1_455
Co0 U0 2.731538 1_555
Co0 U1 2.731538 1_555
Co0 U0 3.100479 1_554
Co0 U0 3.100479 1_455
Co0 U1 3.100479 1_655
Co0 U1 3.100479 1_556
Co1 U1 2.731538 1_655
Co1 U0 2.731538 1_545
Co1 U1 3.100479 1_546
Co1 U1 3.100479 1_645
Co1 U0 3.100479 1_555
Co1 U0 3.100479 1_654
