# generated using pymatgen
data_Ba2SrWO6
_symmetry_space_group_name_H-M   'P 1'
_cell_length_a   6.12945974
_cell_length_b   6.12945948
_cell_length_c   6.12945974
_cell_angle_alpha   60.95509712
_cell_angle_beta   60.95509218
_cell_angle_gamma   60.95509712
_symmetry_Int_Tables_number   1
_chemical_formula_structural   Ba2SrWO6
_chemical_formula_sum   'Ba2 Sr1 W1 O6'
_cell_volume   166.34065980
_cell_formula_units_Z   1
loop_
 _symmetry_equiv_pos_site_id
 _symmetry_equiv_pos_as_xyz
  1  'x, y, z'
loop_
 _atom_site_type_symbol
 _atom_site_label
 _atom_site_symmetry_multiplicity
 _atom_site_fract_x
 _atom_site_fract_y
 _atom_site_fract_z
 _atom_site_occupancy
  Ba  Ba0  1  0.74682800  0.74682800  0.74682800  1
  Ba  Ba1  1  0.25317200  0.25317200  0.25317200  1
  Sr  Sr0  1  0.00000000  0.00000000  0.00000000  1
  W  W0  1  0.50000000  0.50000000  0.50000000  1
  O  O0  1  0.78225600  0.28589800  0.66072100  1
  O  O1  1  0.71410200  0.33927900  0.21774400  1
  O  O2  1  0.28589800  0.66072100  0.78225600  1
  O  O3  1  0.66072100  0.78225600  0.28589800  1
  O  O4  1  0.33927900  0.21774400  0.71410200  1
  O  O5  1  0.21774400  0.71410200  0.33927900  1
loop_
_geom_bond_atom_site_label_1
_geom_bond_atom_site_label_2
_geom_bond_distance
_geom_bond_site_symmetry_2
Ba0 O5 2.745025 1_655
Ba0 O1 2.745025 1_556
Ba0 O4 2.745025 1_565
Ba0 O0 3.008096 1_555
Ba0 O2 3.008096 1_555
Ba0 O3 3.008096 1_555
Ba0 O0 3.183645 1_565
Ba0 O3 3.183645 1_556
Ba0 O2 3.183645 1_655
Ba1 O0 2.745025 1_455
Ba1 O2 2.745025 1_554
Ba1 O3 2.745025 1_545
Ba1 O5 3.008096 1_555
Ba1 O1 3.008096 1_555
Ba1 O4 3.008096 1_555
Ba1 O5 3.183645 1_545
Ba1 O4 3.183645 1_554
Ba1 O1 3.183645 1_455
O0 W0 1.969999 1_555
O0 Sr0 2.462192 1_656
O1 W0 1.969998 1_555
O1 Sr0 2.462192 1_655
O2 W0 1.969998 1_555
O2 Sr0 2.462192 1_566
O3 W0 1.969998 1_555
O3 Sr0 2.462192 1_665
O4 W0 1.969998 1_555
O4 Sr0 2.462192 1_556
O5 W0 1.969999 1_555
O5 Sr0 2.462192 1_565
