# generated using pymatgen
data_ErB4Rh
_symmetry_space_group_name_H-M   'P 1'
_cell_length_a   3.53256460
_cell_length_b   5.92550153
_cell_length_c   11.48808632
_cell_angle_alpha   90.00022327
_cell_angle_beta   89.99998993
_cell_angle_gamma   90.00000724
_symmetry_Int_Tables_number   1
_chemical_formula_structural   ErB4Rh
_chemical_formula_sum   'Er4 B16 Rh4'
_cell_volume   240.47111510
_cell_formula_units_Z   4
loop_
 _symmetry_equiv_pos_site_id
 _symmetry_equiv_pos_as_xyz
  1  'x, y, z'
loop_
 _atom_site_type_symbol
 _atom_site_label
 _atom_site_symmetry_multiplicity
 _atom_site_fract_x
 _atom_site_fract_y
 _atom_site_fract_z
 _atom_site_occupancy
  Er  Er0  1  0.00000007  0.13147489  0.64880722  1
  Er  Er1  1  0.00000008  0.86852657  0.35118137  1
  Er  Er2  1  -0.00000030  0.63147223  0.85120830  1
  Er  Er3  1  -0.00000014  0.36853061  0.14880448  1
  B  B0  1  0.50000020  0.79087827  0.68706564  1
  B  B1  1  0.50000042  0.20911429  0.31292971  1
  B  B2  1  0.49999985  0.29087908  0.81294318  1
  B  B3  1  0.49999996  0.70911340  0.18706117  1
  B  B4  1  0.49999974  0.86405362  0.53059146  1
  B  B5  1  0.50000016  0.13594687  0.46939616  1
  B  B6  1  0.50000004  0.36405593  0.96940844  1
  B  B7  1  0.49999985  0.63594509  0.03060361  1
  B  B8  1  0.49999998  0.02212565  0.19284719  1
  B  B9  1  0.50000035  0.97788101  0.80715691  1
  B  B10  1  0.49999988  0.52212707  0.30714389  1
  B  B11  1  0.49999997  0.47787887  0.69285177  1
  B  B12  1  0.49999970  0.11245891  0.04710610  1
  B  B13  1  0.50000028  0.88754477  0.95290474  1
  B  B14  1  0.50000026  0.61245707  0.45289175  1
  B  B15  1  0.50000046  0.38754608  0.54709739  1
  Rh  Rh0  1  0.00000015  0.64255542  0.59475703  1
  Rh  Rh1  1  -0.00000057  0.35744053  0.40523731  1
  Rh  Rh2  1  0.00000003  0.14256070  0.90525087  1
  Rh  Rh3  1  -0.00000042  0.85743507  0.09475431  1
loop_
_geom_bond_atom_site_label_1
_geom_bond_atom_site_label_2
_geom_bond_distance
_geom_bond_site_symmetry_2
Er0 Rh2 2.946779 1_555
Er0 Rh0 2.962886 1_545
Er0 Rh0 3.091412 1_555
Er0 Rh1 3.102015 1_555
Er1 Rh3 2.946589 1_555
Er1 Rh1 2.962868 1_565
Er1 Rh1 3.091458 1_555
Er1 Rh0 3.102089 1_555
Er2 Rh0 2.946866 1_555
Er2 Rh2 2.962826 1_555
Er2 Rh2 3.091436 1_565
Er2 Rh3 3.101751 1_556
Er3 Rh1 2.946656 1_555
Er3 Rh3 2.962804 1_555
Er3 Rh3 3.091495 1_545
Er3 Rh2 3.101848 1_554
B0 B9 1.769517 1_555
B0 B4 1.849146 1_555
B0 B11 1.855869 1_555
B0 Rh0 2.239808 1_655
B0 Rh0 2.239809 1_555
B0 Er0 2.717735 1_665
B0 Er0 2.717737 1_565
B0 Er2 2.750957 1_655
B0 Er2 2.750959 1_555
B1 B8 1.769386 1_555
B1 B5 1.849049 1_555
B1 B10 1.855949 1_555
B1 Rh1 2.239808 1_655
B1 Rh1 2.239813 1_555
B1 Er1 2.717684 1_645
B1 Er1 2.717685 1_545
B1 Er3 2.750840 1_655
B1 Er3 2.750843 1_555
B2 B6 1.849045 1_555
B2 B9 1.855861 1_545
B2 Rh2 2.239795 1_555
B2 Rh2 2.239797 1_655
B2 Er2 2.717730 1_655
B2 Er2 2.717731 1_555
B2 Er0 2.750896 1_555
B2 Er0 2.750897 1_655
B3 B7 1.848947 1_555
B3 B8 1.855945 1_565
B3 Rh3 2.239798 1_655
B3 Rh3 2.239801 1_555
B3 Er3 2.717669 1_655
B3 Er3 2.717670 1_555
B3 Er1 2.750790 1_555
B3 Er1 2.750791 1_655
B4 B5 1.757810 1_565
B4 Rh0 2.320723 1_555
B4 Rh0 2.320725 1_655
B4 Er1 2.714498 1_555
B4 Er1 2.714499 1_655
B4 Er0 2.734057 1_565
B4 Er0 2.734059 1_665
B5 Rh1 2.320682 1_655
B5 Rh1 2.320686 1_555
B5 Er0 2.714507 1_555
B5 Er0 2.714507 1_655
B5 Er1 2.734049 1_645
B5 Er1 2.734049 1_545
B6 B7 1.757783 1_556
B6 Rh2 2.320682 1_555
B6 Rh2 2.320682 1_655
B6 Er3 2.714376 1_656
B6 Er3 2.714376 1_556
B6 Er2 2.733957 1_655
B6 Er2 2.733959 1_555
B7 Rh3 2.320638 1_655
B7 Rh3 2.320640 1_555
B7 Er2 2.714369 1_654
B7 Er2 2.714370 1_554
B7 Er3 2.733955 1_555
B7 Er3 2.733956 1_655
B8 Rh3 2.311271 1_645
B8 Rh3 2.311273 1_545
B8 Er1 2.693834 1_545
B8 Er1 2.693835 1_645
B8 Er3 2.754818 1_655
B8 Er3 2.754819 1_555
B9 Rh2 2.311250 1_665
B9 Rh2 2.311251 1_565
B9 Er0 2.693944 1_665
B9 Er0 2.693946 1_565
B9 Er2 2.754852 1_655
B9 Er2 2.754855 1_555
B10 B14 1.757834 1_555
B10 B3 1.769386 1_555
B10 Rh1 2.311268 1_655
B10 Rh1 2.311269 1_555
B10 Er3 2.693865 1_655
B10 Er3 2.693865 1_555
B10 Er1 2.754780 1_555
B10 Er1 2.754781 1_655
B11 B15 1.757911 1_555
B11 B2 1.769514 1_555
B11 Rh0 2.311251 1_555
B11 Rh0 2.311251 1_655
B11 Er2 2.693991 1_655
B11 Er2 2.693992 1_555
B11 Er0 2.754815 1_555
B11 Er0 2.754815 1_655
B12 B13 1.716770 1_544
B12 B6 1.737625 1_554
B12 B8 1.757770 1_555
B12 Rh3 2.388085 1_645
B12 Rh3 2.388085 1_545
B12 Rh2 2.409836 1_554
B12 Rh2 2.409838 1_654
B12 Er3 2.605200 1_555
B12 Er3 2.605201 1_655
B13 B7 1.737645 1_556
B13 B9 1.757849 1_555
B13 Rh2 2.388069 1_665
B13 Rh2 2.388071 1_565
B13 Rh3 2.409795 1_656
B13 Rh3 2.409798 1_556
B13 Er2 2.605192 1_655
B13 Er2 2.605195 1_555
B14 B15 1.716793 1_555
B14 B4 1.737629 1_555
B14 Rh1 2.388069 1_655
B14 Rh1 2.388073 1_555
B14 Rh0 2.409912 1_655
B14 Rh0 2.409913 1_555
B14 Er1 2.605260 1_655
B14 Er1 2.605261 1_555
B15 B5 1.737651 1_555
B15 Rh0 2.388057 1_655
B15 Rh0 2.388059 1_555
B15 Rh1 2.409872 1_655
B15 Rh1 2.409878 1_555
B15 Er0 2.605263 1_655
B15 Er0 2.605264 1_555
Rh0 Rh1 2.755810 1_555
Rh2 Rh3 2.755712 1_546
