# generated using pymatgen
data_AlPb3OF9
_symmetry_space_group_name_H-M   'P 1'
_cell_length_a   5.79316000
_cell_length_b   5.73736600
_cell_length_c   24.93790107
_cell_angle_alpha   81.67814063
_cell_angle_beta   90.00000000
_cell_angle_gamma   90.00000000
_symmetry_Int_Tables_number   1
_chemical_formula_structural   AlPb3OF9
_chemical_formula_sum   'Al4 Pb12 O4 F36'
_cell_volume   820.14546890
_cell_formula_units_Z   4
loop_
 _symmetry_equiv_pos_site_id
 _symmetry_equiv_pos_as_xyz
  1  'x, y, z'
loop_
 _atom_site_type_symbol
 _atom_site_label
 _atom_site_symmetry_multiplicity
 _atom_site_fract_x
 _atom_site_fract_y
 _atom_site_fract_z
 _atom_site_occupancy
  Al  Al0  1  0.18443200  0.89551700  0.40758600  1
  Al  Al1  1  0.31556800  0.89551700  0.90758600  1
  Al  Al2  1  0.81556800  0.10448300  0.59241400  1
  Al  Al3  1  0.68443200  0.10448300  0.09241400  1
  Pb  Pb0  1  0.67396100  0.38169200  0.43916600  1
  Pb  Pb1  1  0.82603900  0.38169200  0.93916600  1
  Pb  Pb2  1  0.32603900  0.61830800  0.56083400  1
  Pb  Pb3  1  0.17396100  0.61830800  0.06083400  1
  Pb  Pb4  1  0.67605400  0.94303000  0.31019700  1
  Pb  Pb5  1  0.82394600  0.94303000  0.81019700  1
  Pb  Pb6  1  0.32394600  0.05697000  0.68980300  1
  Pb  Pb7  1  0.17605400  0.05697000  0.18980300  1
  Pb  Pb8  1  0.14380000  0.46907300  0.31176600  1
  Pb  Pb9  1  0.35620000  0.46907300  0.81176600  1
  Pb  Pb10  1  0.85620000  0.53092700  0.68823400  1
  Pb  Pb11  1  0.64380000  0.53092700  0.18823400  1
  O  O0  1  0.72126800  0.63776400  0.50647900  1
  O  O1  1  0.77873200  0.63776400  0.00647900  1
  O  O2  1  0.27873200  0.36223600  0.49352100  1
  O  O3  1  0.22126800  0.36223600  0.99352100  1
  F  F0  1  0.36203300  0.16649200  0.39012400  1
  F  F1  1  0.13796700  0.16649200  0.89012400  1
  F  F2  1  0.63796700  0.83350800  0.60987600  1
  F  F3  1  0.86203300  0.83350800  0.10987600  1
  F  F4  1  0.13273300  0.90869500  0.33326300  1
  F  F5  1  0.36726700  0.90869500  0.83326300  1
  F  F6  1  0.86726700  0.09130500  0.66673700  1
  F  F7  1  0.63273300  0.09130500  0.16673700  1
  F  F8  1  0.24329100  0.88284700  0.47763700  1
  F  F9  1  0.25670900  0.88284700  0.97763700  1
  F  F10  1  0.75670900  0.11715300  0.52236300  1
  F  F11  1  0.74329100  0.11715300  0.02236300  1
  F  F12  1  0.03214800  0.61286200  0.41547100  1
  F  F13  1  0.46785200  0.61286200  0.91547100  1
  F  F14  1  0.96785200  0.38713800  0.58452900  1
  F  F15  1  0.53214800  0.38713800  0.08452900  1
  F  F16  1  0.45099400  0.72801500  0.39618300  1
  F  F17  1  0.04900600  0.72801500  0.89618300  1
  F  F18  1  0.54900600  0.27198500  0.60381700  1
  F  F19  1  0.95099400  0.27198500  0.10381700  1
  F  F20  1  0.91682900  0.06869300  0.40748500  1
  F  F21  1  0.58317100  0.06869300  0.90748500  1
  F  F22  1  0.08317100  0.93130700  0.59251500  1
  F  F23  1  0.41682900  0.93130700  0.09251500  1
  F  F24  1  0.91661400  0.75488600  0.24524900  1
  F  F25  1  0.58338600  0.75488600  0.74524900  1
  F  F26  1  0.08338600  0.24511400  0.75475100  1
  F  F27  1  0.41661400  0.24511400  0.25475100  1
  F  F28  1  0.92077100  0.25520300  0.24840400  1
  F  F29  1  0.57922900  0.25520300  0.74840400  1
  F  F30  1  0.07922900  0.74479700  0.75159600  1
  F  F31  1  0.42077100  0.74479700  0.25159600  1
  F  F32  1  0.73157600  0.47531500  0.34073700  1
  F  F33  1  0.76842400  0.47531500  0.84073700  1
  F  F34  1  0.26842400  0.52468500  0.65926300  1
  F  F35  1  0.23157600  0.52468500  0.15926300  1
loop_
_geom_bond_atom_site_label_1
_geom_bond_atom_site_label_2
_geom_bond_distance
_geom_bond_site_symmetry_2
Al0 F8 1.771028 1_555
Al0 F12 1.831541 1_555
Al0 F20 1.841141 1_465
Al0 F16 1.862309 1_555
Al0 F0 1.862598 1_565
Al0 F4 1.868198 1_555
Al1 F9 1.771028 1_555
Al1 F13 1.831541 1_555
Al1 F21 1.841141 1_565
Al1 F17 1.862309 1_555
Al1 F1 1.862598 1_565
Al1 F5 1.868198 1_555
Al2 F10 1.771028 1_555
Al2 F14 1.831541 1_555
Al2 F22 1.841141 1_645
Al2 F18 1.862309 1_555
Al2 F2 1.862598 1_545
Al2 F6 1.868198 1_555
Al3 F11 1.771028 1_555
Al3 F15 1.831541 1_555
Al3 F23 1.841141 1_545
Al3 F19 1.862309 1_555
Al3 F3 1.862598 1_545
Al3 F7 1.868198 1_555
O0 Pb0 2.401111 1_555
O0 Pb2 2.654887 1_555
O1 Pb1 2.401111 1_554
O1 Pb3 2.654887 1_655
O2 Pb2 2.401111 1_555
O2 Pb0 2.654887 1_555
O3 Pb3 2.401111 1_556
O3 Pb1 2.654887 1_455
F0 Pb0 2.592818 1_555
F0 Pb8 2.729210 1_555
F1 Pb1 2.592818 1_455
F1 Pb9 2.729210 1_555
F2 Pb2 2.592818 1_555
F2 Pb10 2.729210 1_555
F3 Pb3 2.592818 1_655
F3 Pb11 2.729210 1_555
F4 Pb8 2.654198 1_555
F4 Pb4 2.708534 1_455
F5 Pb9 2.654198 1_555
F5 Pb5 2.708534 1_555
F6 Pb10 2.654198 1_555
F6 Pb6 2.708534 1_655
F7 Pb11 2.654198 1_555
F7 Pb7 2.708534 1_555
F8 Pb2 2.434436 1_555
F9 Pb3 2.434436 1_556
F10 Pb0 2.434436 1_555
F11 Pb1 2.434436 1_554
F12 Pb0 2.487401 1_455
F13 Pb1 2.487401 1_555
F14 Pb2 2.487401 1_655
F15 Pb3 2.487401 1_555
F16 Pb0 2.479718 1_555
F16 Pb4 2.655953 1_555
F17 Pb1 2.479718 1_455
F17 Pb5 2.655953 1_455
F18 Pb2 2.479718 1_555
F18 Pb6 2.655953 1_555
F19 Pb3 2.479718 1_655
F19 Pb7 2.655953 1_655
F20 Pb0 2.497862 1_555
F21 Pb1 2.497862 1_555
F22 Pb2 2.497862 1_555
F23 Pb3 2.497862 1_555
F24 Pb4 2.497349 1_555
F24 Pb8 2.526933 1_655
F24 Pb7 2.545778 1_665
F24 Pb11 2.588311 1_555
F25 Pb5 2.497349 1_555
F25 Pb9 2.526933 1_555
F25 Pb6 2.545778 1_565
F25 Pb10 2.588311 1_555
F26 Pb6 2.497349 1_555
F26 Pb10 2.526933 1_455
F26 Pb5 2.545778 1_445
F26 Pb9 2.588311 1_555
F27 Pb7 2.497349 1_555
F27 Pb11 2.526933 1_555
F27 Pb4 2.545778 1_545
F27 Pb8 2.588311 1_555
F28 Pb7 2.469298 1_655
F28 Pb8 2.496605 1_655
F28 Pb11 2.577105 1_555
F28 Pb4 2.606417 1_545
F29 Pb6 2.469298 1_555
F29 Pb9 2.496605 1_555
F29 Pb10 2.577105 1_555
F29 Pb5 2.606417 1_545
F30 Pb5 2.469298 1_455
F30 Pb10 2.496605 1_455
F30 Pb9 2.577105 1_555
F30 Pb6 2.606417 1_565
F31 Pb4 2.469298 1_555
F31 Pb11 2.496605 1_555
F31 Pb8 2.577105 1_555
F31 Pb7 2.606417 1_565
F32 Pb0 2.458332 1_555
F32 Pb8 2.496731 1_655
F32 Pb4 2.700522 1_555
F33 Pb1 2.458332 1_555
F33 Pb9 2.496731 1_555
F33 Pb5 2.700522 1_555
F34 Pb2 2.458332 1_555
F34 Pb10 2.496731 1_455
F34 Pb6 2.700522 1_555
F35 Pb3 2.458332 1_555
F35 Pb11 2.496731 1_555
F35 Pb7 2.700522 1_555
