# generated using pymatgen
data_Na3V5O10
_symmetry_space_group_name_H-M   'P 1'
_cell_length_a   5.12111291
_cell_length_b   12.19546758
_cell_length_c   7.25210307
_cell_angle_alpha   78.61836058
_cell_angle_beta   97.37717068
_cell_angle_gamma   85.44975272
_symmetry_Int_Tables_number   1
_chemical_formula_structural   Na3V5O10
_chemical_formula_sum   'Na6 V10 O20'
_cell_volume   437.78354508
_cell_formula_units_Z   2
loop_
 _symmetry_equiv_pos_site_id
 _symmetry_equiv_pos_as_xyz
  1  'x, y, z'
loop_
 _atom_site_type_symbol
 _atom_site_label
 _atom_site_symmetry_multiplicity
 _atom_site_fract_x
 _atom_site_fract_y
 _atom_site_fract_z
 _atom_site_occupancy
  Na  Na0  1  0.24658900  0.34825200  0.85153500  1
  Na  Na1  1  0.75351800  0.85166200  0.34844000  1
  Na  Na2  1  0.74821900  0.04811400  0.54994600  1
  Na  Na3  1  0.24726400  0.54469000  0.05131100  1
  Na  Na4  1  0.25196900  0.15187000  0.65008300  1
  Na  Na5  1  0.75266000  0.65531400  0.14869200  1
  V  V0  1  0.00008500  0.59993100  0.60010200  1
  V  V1  1  0.50021200  0.09996000  0.10013400  1
  V  V2  1  0.50745800  0.29835900  0.30379900  1
  V  V3  1  0.00816500  0.79966500  0.80523700  1
  V  V4  1  0.99160600  0.40034800  0.39462500  1
  V  V5  1  0.49250800  0.90169900  0.89619300  1
  V  V6  1  0.99852200  0.20184300  0.19564800  1
  V  V7  1  0.49692600  0.70222200  0.69356400  1
  V  V8  1  0.50290700  0.49776600  0.50632600  1
  V  V9  1  0.00146700  0.99819100  0.00427200  1
  O  O0  1  0.84640200  0.04495700  0.23395200  1
  O  O1  1  0.34514500  0.54467200  0.73246400  1
  O  O2  1  0.15349900  0.15497300  0.96621300  1
  O  O3  1  0.65452300  0.65519200  0.46774900  1
  O  O4  1  0.63228600  0.05855500  0.86678600  1
  O  O5  1  0.13017700  0.55564800  0.36693900  1
  O  O6  1  0.36780900  0.14159900  0.33326200  1
  O  O7  1  0.86963600  0.64441100  0.83309900  1
  O  O8  1  0.34624400  0.34655300  0.52975300  1
  O  O9  1  0.86555400  0.84258000  0.03085800  1
  O  O10  1  0.13459900  0.35750500  0.16909000  1
  O  O11  1  0.65391200  0.85354600  0.67026300  1
  O  O12  1  0.62318500  0.25412700  0.07384400  1
  O  O13  1  0.12385500  0.75361900  0.57239700  1
  O  O14  1  0.87596500  0.44626500  0.62761600  1
  O  O15  1  0.37691000  0.94585400  0.12613200  1
  O  O16  1  0.87555000  0.24535100  0.43755700  1
  O  O17  1  0.35150700  0.73848300  0.93101300  1
  O  O18  1  0.64854000  0.46154800  0.26881900  1
  O  O19  1  0.12462300  0.95467800  0.76228700  1
loop_
_geom_bond_atom_site_label_1
_geom_bond_atom_site_label_2
_geom_bond_distance
_geom_bond_site_symmetry_2
Na0 O14 2.398048 1_455
Na0 O12 2.399206 1_556
Na0 O2 2.445683 1_555
Na0 O8 2.455564 1_555
Na0 O10 2.465090 1_556
Na0 O1 2.495164 1_555
Na1 O13 2.397313 1_655
Na1 O15 2.399475 1_555
Na1 O0 2.445289 1_565
Na1 O11 2.456178 1_555
Na1 O9 2.464922 1_555
Na1 O3 2.496760 1_555
Na2 O19 2.362650 1_645
Na2 O6 2.391377 1_555
Na2 O0 2.415258 1_555
Na2 O11 2.469388 1_545
Na2 O4 2.470262 1_555
Na2 O16 2.546962 1_555
Na3 O7 2.409257 1_454
Na3 O10 2.416533 1_555
Na3 O1 2.428143 1_554
Na3 O18 2.438220 1_555
Na3 O5 2.465207 1_555
Na3 O17 2.477444 1_554
Na4 O16 2.363468 1_455
Na4 O4 2.390525 1_555
Na4 O2 2.416584 1_555
Na4 O6 2.469511 1_555
Na4 O8 2.470625 1_555
Na4 O19 2.546273 1_545
Na5 O5 2.408778 1_655
Na5 O9 2.417916 1_555
Na5 O3 2.429772 1_555
Na5 O17 2.438402 1_554
Na5 O7 2.464611 1_554
Na5 O18 2.476698 1_555
O0 V1 1.909817 1_555
O0 V9 2.091190 1_645
O0 V6 2.104055 1_555
O1 V0 1.902187 1_555
O1 V8 2.075252 1_555
O1 V7 2.110655 1_555
O2 V1 1.912314 1_556
O2 V6 2.089893 1_456
O2 V9 2.102691 1_546
O3 V0 1.904321 1_655
O3 V7 2.073368 1_555
O3 V8 2.108885 1_555
O4 V9 2.028765 1_646
O4 V1 2.037943 1_556
O4 V5 2.076690 1_545
O5 V8 2.042713 1_555
O5 V0 2.046300 1_555
O5 V4 2.056872 1_455
O6 V6 2.029220 1_455
O6 V1 2.038280 1_555
O6 V2 2.075304 1_555
O7 V7 2.042806 1_555
O7 V0 2.046909 1_655
O7 V3 2.056208 1_655
O8 V4 1.946603 1_455
O8 V8 2.054113 1_555
O8 V2 2.088720 1_555
O9 V3 2.017113 1_654
O9 V5 2.036585 1_554
O9 V9 2.054922 1_655
O10 V4 2.017076 1_455
O10 V2 2.035926 1_555
O10 V6 2.055867 1_455
O11 V3 1.944762 1_655
O11 V7 2.056171 1_555
O11 V5 2.088824 1_555
O12 V2 1.995354 1_555
O12 V6 2.007161 1_555
O12 V1 2.011240 1_555
O13 V7 1.994159 1_555
O13 V0 2.006908 1_555
O13 V3 2.023864 1_555
O14 V8 1.994521 1_555
O14 V0 2.007439 1_655
O14 V4 2.024126 1_555
O15 V5 1.994607 1_554
O15 V9 2.007840 1_555
O15 V1 2.011320 1_565
O16 V2 2.000454 1_555
O16 V4 2.004183 1_555
O16 V6 2.086615 1_555
O17 V3 1.895174 1_555
O17 V7 2.071972 1_555
O17 V5 2.150287 1_555
O18 V4 1.894106 1_555
O18 V8 2.072668 1_555
O18 V2 2.150132 1_555
O19 V5 1.999817 1_555
O19 V3 2.005173 1_555
O19 V9 2.087519 1_556
