# generated using pymatgen
data_K5Na3Cu8(S2O9)4
_symmetry_space_group_name_H-M   'P 1'
_cell_length_a   14.18770600
_cell_length_b   4.98616800
_cell_length_c   24.10953098
_cell_angle_alpha   90.00000000
_cell_angle_beta   90.31353274
_cell_angle_gamma   90.00000000
_symmetry_Int_Tables_number   1
_chemical_formula_structural   K5Na3Cu8(S2O9)4
_chemical_formula_sum   'K10 Na6 Cu16 S16 O72'
_cell_volume   1705.53779094
_cell_formula_units_Z   2
loop_
 _symmetry_equiv_pos_site_id
 _symmetry_equiv_pos_as_xyz
  1  'x, y, z'
loop_
 _atom_site_type_symbol
 _atom_site_label
 _atom_site_symmetry_multiplicity
 _atom_site_fract_x
 _atom_site_fract_y
 _atom_site_fract_z
 _atom_site_occupancy
  K  K0  1  0.50000000  0.20787300  0.25000000  1
  K  K1  1  0.50000000  0.79212700  0.75000000  1
  K  K2  1  0.38780500  0.74210400  0.54607600  1
  K  K3  1  0.61219500  0.74210400  0.95392400  1
  K  K4  1  0.61219500  0.25789600  0.45392400  1
  K  K5  1  0.38780500  0.25789600  0.04607600  1
  K  K6  1  0.92528200  0.21311600  0.43547200  1
  K  K7  1  0.07471800  0.21311600  0.06452800  1
  K  K8  1  0.07471800  0.78688400  0.56452800  1
  K  K9  1  0.92528200  0.78688400  0.93547200  1
  Na  Na0  1  0.74475700  0.25640300  0.85097200  1
  Na  Na1  1  0.25524300  0.25640300  0.64902800  1
  Na  Na2  1  0.25524300  0.74359700  0.14902800  1
  Na  Na3  1  0.74475700  0.74359700  0.35097200  1
  Na  Na4  1  0.00000000  0.14463300  0.25000000  1
  Na  Na5  1  0.00000000  0.85536700  0.75000000  1
  Cu  Cu0  1  0.21338000  0.77152400  0.41931700  1
  Cu  Cu1  1  0.78662000  0.77152400  0.08068300  1
  Cu  Cu2  1  0.78662000  0.22847600  0.58068300  1
  Cu  Cu3  1  0.21338000  0.22847600  0.91931700  1
  Cu  Cu4  1  0.28236500  0.72739400  0.30394400  1
  Cu  Cu5  1  0.71763500  0.72739400  0.19605600  1
  Cu  Cu6  1  0.71763500  0.27260600  0.69605600  1
  Cu  Cu7  1  0.28236500  0.27260600  0.80394400  1
  Cu  Cu8  1  0.35184300  0.27424500  0.38632700  1
  Cu  Cu9  1  0.64815700  0.27424500  0.11367300  1
  Cu  Cu10  1  0.64815700  0.72575500  0.61367300  1
  Cu  Cu11  1  0.35184300  0.72575500  0.88632700  1
  Cu  Cu12  1  0.15242600  0.21785100  0.34478200  1
  Cu  Cu13  1  0.84757400  0.21785100  0.15521800  1
  Cu  Cu14  1  0.84757400  0.78214900  0.65521800  1
  Cu  Cu15  1  0.15242600  0.78214900  0.84478200  1
  S  S0  1  0.25267100  0.23312500  0.22430200  1
  S  S1  1  0.74732900  0.23312500  0.27569800  1
  S  S2  1  0.74732900  0.76687500  0.77569800  1
  S  S3  1  0.25267100  0.76687500  0.72430200  1
  S  S4  1  0.22846600  0.25544600  0.49832100  1
  S  S5  1  0.77153400  0.25544600  0.00167900  1
  S  S6  1  0.77153400  0.74455400  0.50167900  1
  S  S7  1  0.22846600  0.74455400  0.99832100  1
  S  S8  1  0.48508800  0.76442800  0.37639600  1
  S  S9  1  0.51491200  0.76442800  0.12360400  1
  S  S10  1  0.51491200  0.23557200  0.62360400  1
  S  S11  1  0.48508800  0.23557200  0.87639600  1
  S  S12  1  0.01399300  0.70257200  0.35486700  1
  S  S13  1  0.98600700  0.70257200  0.14513300  1
  S  S14  1  0.98600700  0.29742800  0.64513300  1
  S  S15  1  0.01399300  0.29742800  0.85486700  1
  O  O0  1  0.25147600  0.26499800  0.16317300  1
  O  O1  1  0.74852400  0.26499800  0.33682700  1
  O  O2  1  0.74852400  0.73500200  0.83682700  1
  O  O3  1  0.25147600  0.73500200  0.66317300  1
  O  O4  1  0.29467900  0.95955800  0.23613600  1
  O  O5  1  0.70532100  0.95955800  0.26386400  1
  O  O6  1  0.70532100  0.04044200  0.76386400  1
  O  O7  1  0.29467900  0.04044200  0.73613600  1
  O  O8  1  0.31823300  0.43657900  0.24998500  1
  O  O9  1  0.68176700  0.43657900  0.25001500  1
  O  O10  1  0.68176700  0.56342100  0.75001500  1
  O  O11  1  0.31823300  0.56342100  0.74998500  1
  O  O12  1  0.15847300  0.25994900  0.24867200  1
  O  O13  1  0.84152700  0.25994900  0.25132800  1
  O  O14  1  0.84152700  0.74005100  0.75132800  1
  O  O15  1  0.15847300  0.74005100  0.74867200  1
  O  O16  1  0.16209400  0.09559000  0.46197400  1
  O  O17  1  0.83790600  0.09559000  0.03802600  1
  O  O18  1  0.83790600  0.90441000  0.53802600  1
  O  O19  1  0.16209400  0.90441000  0.96197400  1
  O  O20  1  0.32722600  0.19562600  0.48309500  1
  O  O21  1  0.67277400  0.19562600  0.01690500  1
  O  O22  1  0.67277400  0.80437400  0.51690500  1
  O  O23  1  0.32722600  0.80437400  0.98309500  1
  O  O24  1  0.21022200  0.19115200  0.55705400  1
  O  O25  1  0.78977800  0.19115200  0.94294600  1
  O  O26  1  0.78977800  0.80884800  0.44294600  1
  O  O27  1  0.21022200  0.80884800  0.05705400  1
  O  O28  1  0.20798000  0.55120900  0.49021200  1
  O  O29  1  0.79202000  0.55120900  0.00978800  1
  O  O30  1  0.79202000  0.44879100  0.50978800  1
  O  O31  1  0.20798000  0.44879100  0.99021200  1
  O  O32  1  0.45700600  0.71089300  0.31831000  1
  O  O33  1  0.54299400  0.71089300  0.18169000  1
  O  O34  1  0.54299400  0.28910700  0.68169000  1
  O  O35  1  0.45700600  0.28910700  0.81831000  1
  O  O36  1  0.03405700  0.72744400  0.41527300  1
  O  O37  1  0.96594300  0.72744400  0.08472700  1
  O  O38  1  0.96594300  0.27255600  0.58472700  1
  O  O39  1  0.03405700  0.27255600  0.91527300  1
  O  O40  1  0.91631300  0.76915900  0.34105400  1
  O  O41  1  0.08368700  0.76915900  0.15894600  1
  O  O42  1  0.08368700  0.23084100  0.65894600  1
  O  O43  1  0.91631300  0.23084100  0.84105400  1
  O  O44  1  0.58617200  0.71845000  0.38696500  1
  O  O45  1  0.41382800  0.71845000  0.11303500  1
  O  O46  1  0.41382800  0.28155000  0.61303500  1
  O  O47  1  0.58617200  0.28155000  0.88696500  1
  O  O48  1  0.42784300  0.59228400  0.41559400  1
  O  O49  1  0.57215700  0.59228400  0.08440600  1
  O  O50  1  0.57215700  0.40771600  0.58440600  1
  O  O51  1  0.42784300  0.40771600  0.91559400  1
  O  O52  1  0.26485000  0.00161300  0.36025400  1
  O  O53  1  0.73515000  0.00161300  0.13974600  1
  O  O54  1  0.73515000  0.99838700  0.63974600  1
  O  O55  1  0.26485000  0.99838700  0.86025400  1
  O  O56  1  0.24576300  0.49461900  0.36607000  1
  O  O57  1  0.75423700  0.49461900  0.13393000  1
  O  O58  1  0.75423700  0.50538100  0.63393000  1
  O  O59  1  0.24576300  0.50538100  0.86607000  1
  O  O60  1  0.46675700  0.05686500  0.39069400  1
  O  O61  1  0.53324300  0.05686500  0.10930600  1
  O  O62  1  0.53324300  0.94313500  0.60930600  1
  O  O63  1  0.46675700  0.94313500  0.89069400  1
  O  O64  1  0.03242200  0.41410200  0.33757600  1
  O  O65  1  0.96757800  0.41410200  0.16242400  1
  O  O66  1  0.96757800  0.58589800  0.66242400  1
  O  O67  1  0.03242200  0.58589800  0.83757600  1
  O  O68  1  0.08013900  0.87890200  0.32216000  1
  O  O69  1  0.91986100  0.87890200  0.17784000  1
  O  O70  1  0.91986100  0.12109800  0.67784000  1
  O  O71  1  0.08013900  0.12109800  0.82216000  1
loop_
_geom_bond_atom_site_label_1
_geom_bond_atom_site_label_2
_geom_bond_distance
_geom_bond_site_symmetry_2
K0 O8 2.819739 1_555
K0 O9 2.819739 1_555
K0 O33 3.039086 1_545
K0 O32 3.039086 1_545
K0 O33 3.063692 1_555
K0 O32 3.063692 1_555
K0 O5 3.181168 1_545
K0 O4 3.181168 1_545
K1 O11 2.819739 1_555
K1 O10 2.819739 1_555
K1 O34 3.039086 1_565
K1 O35 3.039086 1_565
K1 O34 3.063692 1_555
K1 O35 3.063692 1_555
K1 O6 3.181168 1_565
K1 O7 3.181168 1_565
K2 O62 2.748093 1_555
K2 O46 2.830083 1_555
K2 O20 2.853722 1_565
K2 O28 3.031757 1_555
K2 O46 3.157653 1_565
K2 O50 3.232412 1_555
K2 O20 3.233387 1_555
K2 O48 3.285836 1_555
K2 O24 3.382079 1_565
K2 O3 3.431082 1_555
K3 O63 2.748093 1_555
K3 O47 2.830083 1_555
K3 O21 2.853722 1_566
K3 O29 3.031757 1_556
K3 O47 3.157653 1_565
K3 O51 3.232412 1_555
K3 O21 3.233387 1_556
K3 O49 3.285836 1_556
K3 O25 3.382079 1_565
K3 O2 3.431082 1_555
K4 O60 2.748093 1_555
K4 O44 2.830083 1_555
K4 O22 2.853722 1_545
K4 O30 3.031757 1_555
K4 O44 3.157653 1_545
K4 O48 3.232412 1_555
K4 O22 3.233387 1_555
K4 O50 3.285836 1_555
K4 O26 3.382079 1_545
K4 O1 3.431082 1_555
K5 O61 2.748093 1_555
K5 O45 2.830083 1_555
K5 O23 2.853722 1_544
K5 O31 3.031757 1_554
K5 O45 3.157653 1_545
K5 O49 3.232412 1_555
K5 O23 3.233387 1_554
K5 O51 3.285836 1_554
K5 O27 3.382079 1_545
K5 O0 3.431082 1_555
K6 O26 2.792038 1_545
K6 O30 2.864075 1_555
K6 O36 2.914002 1_645
K6 O64 2.987450 1_655
K6 O36 3.033785 1_655
K6 O18 3.170652 1_545
K6 O40 3.177282 1_545
K7 O27 2.792038 1_545
K7 O31 2.864075 1_554
K7 O37 2.914002 1_445
K7 O65 2.987450 1_455
K7 O37 3.033785 1_455
K7 O19 3.170652 1_544
K7 O41 3.177282 1_545
K8 O24 2.792038 1_565
K8 O28 2.864075 1_555
K8 O38 2.914002 1_465
K8 O66 2.987450 1_455
K8 O38 3.033785 1_455
K8 O16 3.170652 1_565
K8 O42 3.177282 1_565
K9 O25 2.792038 1_565
K9 O29 2.864075 1_556
K9 O39 2.914002 1_665
K9 O67 2.987450 1_655
K9 O39 3.033785 1_655
K9 O17 3.170652 1_566
K9 O43 3.177282 1_565
Na0 O25 2.327108 1_555
Na0 O2 2.411253 1_555
Na0 O47 2.419180 1_555
Na0 O6 2.422867 1_555
Na0 O43 2.450323 1_555
Na0 O2 2.622648 1_545
Na1 O24 2.327108 1_555
Na1 O3 2.411253 1_555
Na1 O46 2.419180 1_555
Na1 O7 2.422867 1_555
Na1 O42 2.450323 1_555
Na1 O3 2.622648 1_545
Na2 O27 2.327108 1_555
Na2 O0 2.411253 1_555
Na2 O45 2.419180 1_555
Na2 O4 2.422867 1_555
Na2 O41 2.450323 1_555
Na2 O0 2.622648 1_565
Na3 O26 2.327108 1_555
Na3 O1 2.411253 1_555
Na3 O44 2.419180 1_555
Na3 O5 2.422867 1_555
Na3 O40 2.450323 1_555
Na3 O1 2.622648 1_565
Na4 O12 2.321116 1_555
Na4 O13 2.321116 1_455
Na4 O68 2.460360 1_545
Na4 O69 2.460360 1_445
Na4 O64 2.542509 1_555
Na4 O65 2.542509 1_455
Na5 O15 2.321116 1_555
Na5 O14 2.321116 1_455
Na5 O71 2.460360 1_565
Na5 O70 2.460360 1_465
Na5 O67 2.542509 1_555
Na5 O66 2.542509 1_455
Cu0 O56 1.942138 1_555
Cu0 O52 1.971945 1_565
Cu0 O28 2.033614 1_555
Cu0 O16 2.050924 1_565
Cu0 O36 2.554987 1_555
Cu1 O57 1.942138 1_555
Cu1 O53 1.971945 1_565
Cu1 O29 2.033614 1_555
Cu1 O17 2.050924 1_565
Cu1 O37 2.554987 1_555
Cu2 O58 1.942138 1_555
Cu2 O54 1.971945 1_545
Cu2 O30 2.033614 1_555
Cu2 O18 2.050924 1_545
Cu2 O38 2.554987 1_555
Cu3 O59 1.942138 1_555
Cu3 O55 1.971945 1_545
Cu3 O31 2.033614 1_555
Cu3 O19 2.050924 1_545
Cu3 O39 2.554987 1_555
Cu4 O52 1.943722 1_565
Cu4 O56 1.966925 1_555
Cu4 O4 2.011552 1_555
Cu4 O8 2.015259 1_555
Cu4 O32 2.501322 1_555
Cu5 O53 1.943722 1_565
Cu5 O57 1.966925 1_555
Cu5 O5 2.011552 1_555
Cu5 O9 2.015259 1_555
Cu5 O33 2.501322 1_555
Cu6 O54 1.943722 1_545
Cu6 O58 1.966925 1_555
Cu6 O6 2.011552 1_555
Cu6 O10 2.015259 1_555
Cu6 O34 2.501322 1_555
Cu7 O55 1.943722 1_545
Cu7 O59 1.966925 1_555
Cu7 O7 2.011552 1_555
Cu7 O11 2.015259 1_555
Cu7 O35 2.501322 1_555
Cu8 O56 1.924320 1_555
Cu8 O52 1.938536 1_555
Cu8 O60 1.960134 1_555
Cu8 O48 2.041316 1_555
Cu8 O20 2.393241 1_555
Cu9 O57 1.924320 1_555
Cu9 O53 1.938536 1_555
Cu9 O61 1.960134 1_555
Cu9 O49 2.041316 1_555
Cu9 O21 2.393241 1_555
Cu10 O58 1.924320 1_555
Cu10 O54 1.938536 1_555
Cu10 O62 1.960134 1_555
Cu10 O50 2.041316 1_555
Cu10 O22 2.393241 1_555
Cu11 O59 1.924320 1_555
Cu11 O55 1.938536 1_555
Cu11 O63 1.960134 1_555
Cu11 O51 2.041316 1_555
Cu11 O23 2.393241 1_555
Cu12 O52 1.959412 1_555
Cu12 O64 1.970602 1_555
Cu12 O56 1.978388 1_555
Cu12 O68 2.049260 1_545
Cu12 O12 2.328704 1_555
Cu13 O53 1.959412 1_555
Cu13 O65 1.970602 1_555
Cu13 O57 1.978388 1_555
Cu13 O69 2.049260 1_545
Cu13 O13 2.328704 1_555
Cu14 O54 1.959412 1_555
Cu14 O66 1.970602 1_555
Cu14 O58 1.978388 1_555
Cu14 O70 2.049260 1_565
Cu14 O14 2.328704 1_555
Cu15 O55 1.959412 1_555
Cu15 O67 1.970602 1_555
Cu15 O59 1.978388 1_555
Cu15 O71 2.049260 1_565
Cu15 O15 2.328704 1_555
O0 S0 1.482340 1_555
O1 S1 1.482340 1_555
O2 S2 1.482340 1_555
O3 S3 1.482340 1_555
O4 S0 1.515054 1_565
O5 S1 1.515054 1_565
O6 S2 1.515054 1_545
O7 S3 1.515054 1_545
O8 S0 1.507135 1_555
O9 S1 1.507135 1_555
O10 S2 1.507135 1_555
O11 S3 1.507135 1_555
O12 S0 1.468947 1_555
O13 S1 1.468947 1_555
O14 S2 1.468947 1_555
O15 S3 1.468947 1_555
O16 S4 1.510278 1_555
O17 S5 1.510278 1_555
O18 S6 1.510278 1_555
O19 S7 1.510278 1_555
O20 S4 1.480760 1_555
O21 S5 1.480760 1_555
O22 S6 1.480760 1_555
O23 S7 1.480760 1_555
O24 S4 1.476113 1_555
O25 S5 1.476113 1_556
O26 S6 1.476113 1_555
O27 S7 1.476113 1_554
O28 S4 1.515549 1_555
O29 S5 1.515549 1_555
O30 S6 1.515549 1_555
O31 S7 1.515549 1_555
O32 S8 1.478201 1_555
O33 S9 1.478201 1_555
O34 S10 1.478201 1_555
O35 S11 1.478201 1_555
O36 S12 1.487569 1_555
O37 S13 1.487569 1_555
O38 S14 1.487569 1_555
O39 S15 1.487569 1_555
O40 S12 1.461739 1_655
O41 S13 1.461739 1_455
O42 S14 1.461739 1_455
O43 S15 1.461739 1_655
O44 S8 1.473185 1_555
O45 S9 1.473185 1_555
O46 S10 1.473185 1_555
O47 S11 1.473185 1_555
O48 S8 1.515878 1_555
O49 S9 1.515878 1_555
O50 S10 1.515878 1_555
O51 S11 1.515878 1_555
O60 S8 1.521060 1_545
O61 S9 1.521060 1_545
O62 S10 1.521060 1_565
O63 S11 1.521060 1_565
O64 S12 1.520600 1_555
O65 S13 1.520600 1_555
O66 S14 1.520600 1_555
O67 S15 1.520600 1_555
O68 S12 1.511168 1_555
O69 S13 1.511168 1_555
O70 S14 1.511168 1_555
O71 S15 1.511168 1_555
