# generated using pymatgen
data_Cs2O3
_symmetry_space_group_name_H-M   'P 1'
_cell_length_a   8.56121537
_cell_length_b   8.56121537
_cell_length_c   8.56121537
_cell_angle_alpha   109.47122063
_cell_angle_beta   109.47122063
_cell_angle_gamma   109.47122063
_symmetry_Int_Tables_number   1
_chemical_formula_structural   Cs2O3
_chemical_formula_sum   'Cs8 O12'
_cell_volume   483.04142533
_cell_formula_units_Z   4
loop_
 _symmetry_equiv_pos_site_id
 _symmetry_equiv_pos_as_xyz
  1  'x, y, z'
loop_
 _atom_site_type_symbol
 _atom_site_label
 _atom_site_symmetry_multiplicity
 _atom_site_fract_x
 _atom_site_fract_y
 _atom_site_fract_z
 _atom_site_occupancy
  Cs  Cs0  1  0.39824000  0.39824000  0.39824000  1
  Cs  Cs1  1  0.10176000  0.50000000  0.00000000  1
  Cs  Cs2  1  0.00000000  0.10176000  0.50000000  1
  Cs  Cs3  1  0.89824000  0.89824000  0.89824000  1
  Cs  Cs4  1  0.50000000  0.00000000  0.10176000  1
  Cs  Cs5  1  0.60176000  0.50000000  0.00000000  1
  Cs  Cs6  1  0.50000000  0.00000000  0.60176000  1
  Cs  Cs7  1  0.00000000  0.60176000  0.50000000  1
  O  O0  1  0.19574600  0.94574600  0.25000000  1
  O  O1  1  0.30425400  0.55425400  0.75000000  1
  O  O2  1  0.94574600  0.25000000  0.19574600  1
  O  O3  1  0.69574600  0.75000000  0.44574600  1
  O  O4  1  0.55425400  0.75000000  0.30425400  1
  O  O5  1  0.80425400  0.25000000  0.05425400  1
  O  O6  1  0.25000000  0.19574600  0.94574600  1
  O  O7  1  0.44574600  0.69574600  0.75000000  1
  O  O8  1  0.75000000  0.30425400  0.55425400  1
  O  O9  1  0.05425400  0.80425400  0.25000000  1
  O  O10  1  0.75000000  0.44574600  0.69574600  1
  O  O11  1  0.25000000  0.05425400  0.80425400  1
loop_
_geom_bond_atom_site_label_1
_geom_bond_atom_site_label_2
_geom_bond_distance
_geom_bond_site_symmetry_2
Cs0 O10 3.016804 1_555
Cs0 O7 3.016804 1_555
Cs0 O3 3.016804 1_555
Cs0 O0 3.225143 1_545
Cs0 O6 3.225143 1_554
Cs0 O2 3.225143 1_455
Cs0 O8 3.339294 1_555
Cs0 O1 3.339294 1_555
Cs0 O4 3.339294 1_555
Cs1 O9 3.016804 1_555
Cs1 O10 3.016804 1_454
Cs1 O5 3.016804 1_455
Cs1 O1 3.225143 1_554
Cs1 O4 3.225143 1_555
Cs1 O6 3.225143 1_554
Cs1 O8 3.339294 1_454
Cs1 O0 3.339294 1_555
Cs1 O2 3.339294 1_455
Cs2 O11 3.016804 1_555
Cs2 O3 3.016804 1_445
Cs2 O9 3.016804 1_545
Cs2 O8 3.225143 1_455
Cs2 O1 3.225143 1_555
Cs2 O2 3.225143 1_455
Cs2 O4 3.339294 1_445
Cs2 O6 3.339294 1_555
Cs2 O0 3.339294 1_545
Cs3 O0 3.016804 1_656
Cs3 O6 3.016804 1_665
Cs3 O2 3.016804 1_566
Cs3 O10 3.225143 1_555
Cs3 O3 3.225143 1_555
Cs3 O7 3.225143 1_555
Cs3 O5 3.339294 1_566
Cs3 O11 3.339294 1_665
Cs3 O9 3.339294 1_656
Cs4 O5 3.016804 1_555
Cs4 O7 3.016804 1_544
Cs4 O11 3.016804 1_554
Cs4 O4 3.225143 1_545
Cs4 O8 3.225143 1_555
Cs4 O0 3.225143 1_545
Cs4 O1 3.339294 1_544
Cs4 O6 3.339294 1_554
Cs4 O2 3.339294 1_555
Cs5 O4 3.016804 1_555
Cs5 O6 3.016804 1_554
Cs5 O1 3.016804 1_554
Cs5 O5 3.225143 1_555
Cs5 O9 3.225143 1_655
Cs5 O10 3.225143 1_554
Cs5 O11 3.339294 1_554
Cs5 O3 3.339294 1_555
Cs5 O7 3.339294 1_554
Cs6 O8 3.016804 1_555
Cs6 O0 3.016804 1_545
Cs6 O4 3.016804 1_545
Cs6 O11 3.225143 1_555
Cs6 O5 3.225143 1_556
Cs6 O7 3.225143 1_545
Cs6 O9 3.339294 1_545
Cs6 O3 3.339294 1_545
Cs6 O10 3.339294 1_555
Cs7 O1 3.016804 1_555
Cs7 O2 3.016804 1_455
Cs7 O8 3.016804 1_455
Cs7 O9 3.225143 1_555
Cs7 O11 3.225143 1_565
Cs7 O3 3.225143 1_455
Cs7 O5 3.339294 1_455
Cs7 O10 3.339294 1_455
Cs7 O7 3.339294 1_555
O0 O9 1.398739 1_555
O1 O7 1.398739 1_555
O2 O5 1.398739 1_555
O3 O4 1.398739 1_555
O10 O8 1.398739 1_555
O11 O6 1.398739 1_555
