# generated using pymatgen
data_YbGa3Cu
_symmetry_space_group_name_H-M   'P 1'
_cell_length_a   6.02780585
_cell_length_b   6.02780585
_cell_length_c   6.02780585
_cell_angle_alpha   141.27522708
_cell_angle_beta   141.27522708
_cell_angle_gamma   55.92206940
_symmetry_Int_Tables_number   1
_chemical_formula_structural   YbGa3Cu
_chemical_formula_sum   'Yb1 Ga3 Cu1'
_cell_volume   85.05626737
_cell_formula_units_Z   1
loop_
 _symmetry_equiv_pos_site_id
 _symmetry_equiv_pos_as_xyz
  1  'x, y, z'
loop_
 _atom_site_type_symbol
 _atom_site_label
 _atom_site_symmetry_multiplicity
 _atom_site_fract_x
 _atom_site_fract_y
 _atom_site_fract_z
 _atom_site_occupancy
  Yb  Yb0  1  0.00000000  0.00000000  0.00000000  1
  Ga  Ga0  1  0.61231482  0.61231482  0.00000000  1
  Ga  Ga1  1  0.38768518  0.38768518  0.00000000  1
  Ga  Ga2  1  0.75000000  0.25000000  0.50000000  1
  Cu  Cu0  1  0.25000000  0.75000000  0.50000000  1
loop_
_geom_bond_atom_site_label_1
_geom_bond_atom_site_label_2
_geom_bond_distance
_geom_bond_site_symmetry_2
Ga0 Ga1 2.391928 1_555
Ga0 Ga2 2.478584 1_565
Ga0 Ga2 2.478584 1_554
Ga0 Yb0 3.068891 1_666
Ga0 Yb0 3.068891 1_554
Ga0 Yb0 3.068891 1_655
Ga0 Yb0 3.068891 1_565
Ga1 Ga2 2.478584 1_555
Ga1 Ga2 2.478584 1_454
Ga1 Yb0 3.068891 1_554
Ga1 Yb0 3.068891 1_666
Ga1 Yb0 3.068891 1_655
Ga1 Yb0 3.068891 1_565
Ga2 Yb0 3.328746 1_555
Ga2 Yb0 3.328746 1_655
Ga2 Yb0 3.328746 1_666
Ga2 Yb0 3.328746 1_656
Cu0 Ga1 2.478584 1_566
Cu0 Ga1 2.478584 1_555
Cu0 Ga0 2.478584 1_455
Cu0 Ga0 2.478584 1_556
Cu0 Ga2 2.826263 1_454
Cu0 Ga2 2.826263 1_566
Cu0 Ga2 2.826263 1_465
Cu0 Ga2 2.826263 1_555
Cu0 Yb0 3.328746 1_555
Cu0 Yb0 3.328746 1_565
Cu0 Yb0 3.328746 1_566
Cu0 Yb0 3.328746 1_666
