# generated using pymatgen
data_CrH5O4
_symmetry_space_group_name_H-M   'P 1'
_cell_length_a   3.09289300
_cell_length_b   4.36547800
_cell_length_c   5.86107739
_cell_angle_alpha   78.61028103
_cell_angle_beta   90.00000000
_cell_angle_gamma   90.00000000
_symmetry_Int_Tables_number   1
_chemical_formula_structural   CrH5O4
_chemical_formula_sum   'Cr1 H5 O4'
_cell_volume   77.57755600
_cell_formula_units_Z   1
loop_
 _symmetry_equiv_pos_site_id
 _symmetry_equiv_pos_as_xyz
  1  'x, y, z'
loop_
 _atom_site_type_symbol
 _atom_site_label
 _atom_site_symmetry_multiplicity
 _atom_site_fract_x
 _atom_site_fract_y
 _atom_site_fract_z
 _atom_site_occupancy
  Cr  Cr0  1  0.50000000  0.95220500  0.54348900  1
  H  H0  1  0.25916900  0.36940900  0.78582800  1
  H  H1  1  0.74083100  0.36940900  0.78582800  1
  H  H2  1  0.50000000  0.94663500  0.08206100  1
  H  H3  1  0.00000000  0.42548400  0.47492400  1
  H  H4  1  0.50000000  0.58193500  0.21392400  1
  O  O0  1  0.00000000  0.67228000  0.67162800  1
  O  O1  1  0.00000000  0.23319000  0.40502500  1
  O  O2  1  0.50000000  0.20234100  0.81974300  1
  O  O3  1  0.50000000  0.79831200  0.23461700  1
loop_
_geom_bond_atom_site_label_1
_geom_bond_atom_site_label_2
_geom_bond_distance
_geom_bond_site_symmetry_2
Cr0 O0 2.021475 1_555
Cr0 O0 2.021475 1_655
Cr0 O1 2.039991 1_665
Cr0 O1 2.039991 1_565
Cr0 O3 2.051575 1_555
Cr0 O2 2.124225 1_565
H0 O2 1.033925 1_555
H0 O0 1.577707 1_555
H1 O2 1.033925 1_555
H1 O0 1.577707 1_655
H2 O3 0.995028 1_555
H3 O1 1.004170 1_555
H3 O0 1.726416 1_555
H4 O3 0.975811 1_555
