# generated using pymatgen
data_HoCo4B
_symmetry_space_group_name_H-M   'P 1'
_cell_length_a   4.99059384
_cell_length_b   4.99059384
_cell_length_c   6.85409500
_cell_angle_alpha   90.00000000
_cell_angle_beta   90.00000000
_cell_angle_gamma   119.99999789
_symmetry_Int_Tables_number   1
_chemical_formula_structural   HoCo4B
_chemical_formula_sum   'Ho2 Co8 B2'
_cell_volume   147.83770535
_cell_formula_units_Z   2
loop_
 _symmetry_equiv_pos_site_id
 _symmetry_equiv_pos_as_xyz
  1  'x, y, z'
loop_
 _atom_site_type_symbol
 _atom_site_label
 _atom_site_symmetry_multiplicity
 _atom_site_fract_x
 _atom_site_fract_y
 _atom_site_fract_z
 _atom_site_occupancy
  Ho  Ho0  1  0.00000000  0.00000000  0.50000000  1
  Ho  Ho1  1  0.00000000  0.00000000  0.00000000  1
  Co  Co0  1  0.50000000  0.00000000  0.21222300  1
  Co  Co1  1  0.50000000  0.50000000  0.21222300  1
  Co  Co2  1  0.00000000  0.50000000  0.21222300  1
  Co  Co3  1  0.50000000  0.00000000  0.78777700  1
  Co  Co4  1  0.50000000  0.50000000  0.78777700  1
  Co  Co5  1  0.00000000  0.50000000  0.78777700  1
  Co  Co6  1  0.33333300  0.66666600  0.50000000  1
  Co  Co7  1  0.66666700  0.33333400  0.50000000  1
  B  B0  1  0.33333300  0.66666600  0.00000000  1
  B  B1  1  0.66666700  0.33333400  0.00000000  1
loop_
_geom_bond_atom_site_label_1
_geom_bond_atom_site_label_2
_geom_bond_distance
_geom_bond_site_symmetry_2
Co0 Co7 2.442555 1_555
Co0 Co6 2.442555 1_545
Co0 Ho1 2.888314 1_655
Co0 Ho1 2.888314 1_555
Co1 Co6 2.442552 1_555
Co1 Co7 2.442552 1_555
Co1 Ho1 2.888314 1_555
Co1 Ho1 2.888314 1_665
Co2 Co7 2.442552 1_455
Co2 Co6 2.442552 1_555
Co2 Ho1 2.888314 1_565
Co2 Ho1 2.888314 1_555
Co3 Co7 2.442555 1_555
Co3 Co6 2.442555 1_545
Co3 Ho1 2.888314 1_656
Co3 Ho1 2.888314 1_556
Co4 Co6 2.442552 1_555
Co4 Co7 2.442552 1_555
Co4 Ho1 2.888314 1_666
Co4 Ho1 2.888314 1_556
Co5 Co6 2.442552 1_555
Co5 Co7 2.442552 1_455
Co5 Ho1 2.888314 1_566
Co5 Ho1 2.888314 1_556
Co6 Ho0 2.881318 1_555
Co6 Ho0 2.881322 1_565
Co6 Ho0 2.881322 1_665
Co7 Ho0 2.881318 1_665
Co7 Ho0 2.881322 1_655
Co7 Ho0 2.881322 1_555
B0 Co1 2.047279 1_555
B0 Co4 2.047279 1_554
B0 Co2 2.047279 1_555
B0 Co5 2.047279 1_554
B0 Co0 2.047282 1_565
B0 Co3 2.047282 1_564
B0 Ho1 2.881318 1_555
B0 Ho1 2.881322 1_565
B0 Ho1 2.881322 1_665
B1 Co1 2.047279 1_555
B1 Co4 2.047279 1_554
B1 Co2 2.047279 1_655
B1 Co5 2.047279 1_654
B1 Co0 2.047282 1_555
B1 Co3 2.047282 1_554
B1 Ho1 2.881318 1_665
B1 Ho1 2.881322 1_655
B1 Ho1 2.881322 1_555
