# generated using pymatgen
data_LiMnPO4
_symmetry_space_group_name_H-M   'P 1'
_cell_length_a   4.79202900
_cell_length_b   10.59418400
_cell_length_c   6.17859100
_cell_angle_alpha   90.00009504
_cell_angle_beta   90.00006369
_cell_angle_gamma   90.00004555
_symmetry_Int_Tables_number   1
_chemical_formula_structural   LiMnPO4
_chemical_formula_sum   'Li4 Mn4 P4 O16'
_cell_volume   313.67246481
_cell_formula_units_Z   4
loop_
 _symmetry_equiv_pos_site_id
 _symmetry_equiv_pos_as_xyz
  1  'x, y, z'
loop_
 _atom_site_type_symbol
 _atom_site_label
 _atom_site_symmetry_multiplicity
 _atom_site_fract_x
 _atom_site_fract_y
 _atom_site_fract_z
 _atom_site_occupancy
  Li  Li0  1  0.00000000  0.00000200  0.99999900  1
  Li  Li1  1  0.49999800  0.50000200  0.50000100  1
  Li  Li2  1  0.00000000  0.00000200  0.50000200  1
  Li  Li3  1  0.49999800  0.50000200  0.00000000  1
  Mn  Mn0  1  0.97254900  0.28116300  0.25003000  1
  Mn  Mn1  1  0.52746800  0.78114300  0.25001200  1
  Mn  Mn2  1  0.02742000  0.71882900  0.74997000  1
  Mn  Mn3  1  0.47258000  0.21882400  0.74996300  1
  P  P0  1  0.58955900  0.90790100  0.75000000  1
  P  P1  1  0.91044000  0.40790100  0.74999900  1
  P  P2  1  0.41044300  0.09210200  0.25000400  1
  P  P3  1  0.08955700  0.59210200  0.25000100  1
  O  O0  1  0.26865200  0.90341500  0.75000000  1
  O  O1  1  0.23134700  0.40341700  0.75000100  1
  O  O2  1  0.73134800  0.09658800  0.25000200  1
  O  O3  1  0.76865100  0.59658600  0.25000100  1
  O  O4  1  0.78997500  0.54435000  0.75000100  1
  O  O5  1  0.71002100  0.04435000  0.75000100  1
  O  O6  1  0.21002300  0.45565300  0.25000100  1
  O  O7  1  0.28997700  0.95565300  0.25000100  1
  O  O8  1  0.72252600  0.83891800  0.95054300  1
  O  O9  1  0.77747200  0.33891800  0.54945800  1
  O  O10  1  0.27747500  0.16108600  0.45054500  1
  O  O11  1  0.22252400  0.66108600  0.04945900  1
  O  O12  1  0.27747400  0.16108500  0.04945800  1
  O  O13  1  0.22252400  0.66108500  0.45054400  1
  O  O14  1  0.72252800  0.83891800  0.54945900  1
  O  O15  1  0.77747200  0.33891800  0.95054500  1
loop_
_geom_bond_atom_site_label_1
_geom_bond_atom_site_label_2
_geom_bond_distance
_geom_bond_site_symmetry_2
Li0 O5 2.130163 1_455
Li0 O7 2.130177 1_546
Li0 O12 2.184873 1_556
Li0 O8 2.184879 1_445
Li0 O0 2.256180 1_545
Li0 O2 2.256192 1_456
Li1 O6 2.130160 1_555
Li1 O4 2.130164 1_555
Li1 O13 2.184874 1_555
Li1 O9 2.184882 1_555
Li1 O1 2.256173 1_555
Li1 O3 2.256174 1_555
Li2 O5 2.130168 1_455
Li2 O7 2.130173 1_545
Li2 O14 2.184875 1_445
Li2 O10 2.184884 1_555
Li2 O0 2.256176 1_545
Li2 O2 2.256180 1_455
Li3 O4 2.130163 1_554
Li3 O6 2.130168 1_555
Li3 O15 2.184880 1_554
Li3 O11 2.184884 1_555
Li3 O1 2.256165 1_554
Li3 O3 2.256174 1_555
Mn0 O9 2.161231 1_555
Mn0 O15 2.161533 1_554
Mn0 O6 2.170771 1_655
Mn0 O2 2.271484 1_555
Mn0 O10 2.299632 1_655
Mn0 O12 2.299824 1_655
Mn1 O14 2.161354 1_555
Mn1 O8 2.161470 1_554
Mn1 O7 2.170995 1_555
Mn1 O3 2.271278 1_555
Mn1 O13 2.299633 1_555
Mn1 O11 2.299693 1_555
Mn2 O13 2.161244 1_555
Mn2 O11 2.161574 1_556
Mn2 O4 2.170599 1_455
Mn2 O0 2.271660 1_555
Mn2 O14 2.299586 1_455
Mn2 O8 2.299798 1_455
Mn3 O10 2.161183 1_555
Mn3 O12 2.161599 1_556
Mn3 O5 2.170545 1_555
Mn3 O1 2.271728 1_555
Mn3 O9 2.299596 1_555
Mn3 O15 2.299848 1_555
O0 P0 1.538530 1_555
O1 P1 1.538529 1_455
O2 P2 1.538520 1_555
O3 P3 1.538524 1_655
O4 P1 1.556568 1_555
O5 P0 1.556562 1_545
O6 P3 1.556570 1_555
O7 P2 1.556569 1_565
O8 P0 1.573341 1_555
O9 P1 1.573330 1_555
O10 P2 1.573337 1_555
O11 P3 1.573341 1_555
O12 P2 1.573359 1_555
O13 P3 1.573338 1_555
O14 P0 1.573334 1_555
O15 P1 1.573358 1_555
