# generated using pymatgen
data_CaLaCrMoO6
_symmetry_space_group_name_H-M   'P 1'
_cell_length_a   5.56365652
_cell_length_b   5.69656500
_cell_length_c   7.86663458
_cell_angle_alpha   89.99689548
_cell_angle_beta   89.17743215
_cell_angle_gamma   90.00096544
_symmetry_Int_Tables_number   1
_chemical_formula_structural   CaLaCrMoO6
_chemical_formula_sum   'Ca2 La2 Cr2 Mo2 O12'
_cell_volume   249.29730646
_cell_formula_units_Z   2
loop_
 _symmetry_equiv_pos_site_id
 _symmetry_equiv_pos_as_xyz
  1  'x, y, z'
loop_
 _atom_site_type_symbol
 _atom_site_label
 _atom_site_symmetry_multiplicity
 _atom_site_fract_x
 _atom_site_fract_y
 _atom_site_fract_z
 _atom_site_occupancy
  Ca  Ca0  1  0.48580600  0.45273800  0.74919700  1
  Ca  Ca1  1  0.98574900  0.04725900  0.24916500  1
  La  La0  1  0.01274800  0.95888100  0.75237500  1
  La  La1  1  0.51269200  0.54112400  0.25232200  1
  Cr  Cr0  1  0.50055900  0.99993400  0.49940400  1
  Cr  Cr1  1  0.00055300  0.50005900  0.99939700  1
  Mo  Mo0  1  0.50025500  0.00105400  0.00053300  1
  Mo  Mo1  1  0.00027700  0.49893300  0.50053500  1
  O  O0  1  0.08480100  0.47110700  0.24774200  1
  O  O1  1  0.58484400  0.02883600  0.74775100  1
  O  O2  1  0.20190500  0.21670700  0.94919000  1
  O  O3  1  0.70194300  0.28330500  0.44913700  1
  O  O4  1  0.20788900  0.20887800  0.54330000  1
  O  O5  1  0.70785600  0.29109100  0.04327800  1
  O  O6  1  0.29701700  0.70678100  0.95440200  1
  O  O7  1  0.79701900  0.79322400  0.45437400  1
  O  O8  1  0.30176400  0.71274300  0.55267200  1
  O  O9  1  0.80181500  0.78725500  0.05262600  1
  O  O10  1  0.40722900  0.97557100  0.25129300  1
  O  O11  1  0.90727600  0.52451900  0.75130500  1
loop_
_geom_bond_atom_site_label_1
_geom_bond_atom_site_label_2
_geom_bond_distance
_geom_bond_site_symmetry_2
Ca0 O11 2.380585 1_555
Ca0 O8 2.382765 1_555
Ca0 O6 2.398970 1_555
Ca0 O1 2.476853 1_555
Ca0 O2 2.589652 1_555
Ca0 O4 2.648807 1_555
Ca0 O5 2.794277 1_556
Ca0 O3 2.805029 1_555
Ca1 O10 2.380566 1_645
Ca1 O9 2.382653 1_545
Ca1 O7 2.398696 1_545
Ca1 O0 2.476551 1_655
Ca1 O3 2.589396 1_555
Ca1 O5 2.648531 1_555
Ca1 O4 2.794875 1_655
Ca1 O2 2.804442 1_654
La0 O2 2.389315 1_565
La0 O1 2.414628 1_465
La0 O4 2.420823 1_565
La0 O11 2.543035 1_455
La0 O8 2.635795 1_555
La0 O6 2.676109 1_555
La0 O9 2.798589 1_456
La0 O7 2.812058 1_455
La1 O3 2.389444 1_555
La1 O0 2.414592 1_555
La1 O5 2.420962 1_555
La1 O10 2.543511 1_555
La1 O9 2.635980 1_555
La1 O7 2.676485 1_555
La1 O8 2.799319 1_555
La1 O6 2.811320 1_554
Cr0 O3 2.001164 1_565
Cr0 O8 2.015428 1_555
Cr0 O1 2.022402 1_565
Cr0 O10 2.031633 1_555
Cr0 O4 2.042387 1_565
Cr0 O7 2.053274 1_555
Cr1 O2 2.000953 1_555
Cr1 O9 2.015284 1_456
Cr1 O0 2.022343 1_556
Cr1 O11 2.031434 1_455
Cr1 O5 2.042514 1_456
Cr1 O6 2.053233 1_555
Mo0 O10 2.037375 1_545
Mo0 O1 2.043020 1_554
Mo0 O5 2.046486 1_555
Mo0 O6 2.057231 1_544
Mo0 O2 2.108764 1_554
Mo0 O9 2.118006 1_545
Mo1 O11 2.037476 1_455
Mo1 O0 2.043064 1_555
Mo1 O4 2.046632 1_555
Mo1 O7 2.057418 1_455
Mo1 O3 2.108692 1_455
Mo1 O8 2.117784 1_555
