# generated using pymatgen
data_Dy2Mo4O15
_symmetry_space_group_name_H-M   'P 1'
_cell_length_a   9.59017263
_cell_length_b   6.79983707
_cell_length_c   10.56870552
_cell_angle_alpha   74.63350620
_cell_angle_beta   90.00000000
_cell_angle_gamma   90.00000000
_symmetry_Int_Tables_number   1
_chemical_formula_structural   Dy2Mo4O15
_chemical_formula_sum   'Dy4 Mo8 O30'
_cell_volume   664.56370269
_cell_formula_units_Z   2
loop_
 _symmetry_equiv_pos_site_id
 _symmetry_equiv_pos_as_xyz
  1  'x, y, z'
loop_
 _atom_site_type_symbol
 _atom_site_label
 _atom_site_symmetry_multiplicity
 _atom_site_fract_x
 _atom_site_fract_y
 _atom_site_fract_z
 _atom_site_occupancy
  Dy  Dy0  1  0.52323696  0.71193058  0.22368098  1
  Dy  Dy1  1  0.47676304  0.28806942  0.77631902  1
  Dy  Dy2  1  0.02323696  0.28806942  0.27631902  1
  Dy  Dy3  1  0.97676304  0.71193058  0.72368098  1
  Mo  Mo0  1  0.74363988  0.41837247  0.01108688  1
  Mo  Mo1  1  0.25636012  0.58162753  0.98891312  1
  Mo  Mo2  1  0.24363988  0.58162753  0.48891312  1
  Mo  Mo3  1  0.75636012  0.41837247  0.51108688  1
  Mo  Mo4  1  0.90456352  0.88019795  0.15606196  1
  Mo  Mo5  1  0.09543648  0.11980205  0.84393804  1
  Mo  Mo6  1  0.40456352  0.11980205  0.34393804  1
  Mo  Mo7  1  0.59543648  0.88019795  0.65606196  1
  O  O0  1  0.72337015  0.88843939  0.14758289  1
  O  O1  1  0.27662985  0.11156061  0.85241711  1
  O  O2  1  0.22337015  0.11156061  0.35241711  1
  O  O3  1  0.77662985  0.88843939  0.64758289  1
  O  O4  1  0.62683143  0.52213262  0.10316450  1
  O  O5  1  0.37316857  0.47786738  0.89683550  1
  O  O6  1  0.12683143  0.47786738  0.39683550  1
  O  O7  1  0.87316857  0.52213262  0.60316450  1
  O  O8  1  0.34735976  0.72043592  0.08109501  1
  O  O9  1  0.65264024  0.27956408  0.91890499  1
  O  O10  1  0.84735976  0.27956408  0.41890499  1
  O  O11  1  0.15264024  0.72043592  0.58109501  1
  O  O12  1  0.00000000  0.00000000  -0.00000000  1
  O  O13  1  0.50000000  0.00000000  0.50000000  1
  O  O14  1  0.66695402  0.61783492  0.40058284  1
  O  O15  1  0.33304598  0.38216508  0.59941716  1
  O  O16  1  0.16695402  0.38216508  0.09941716  1
  O  O17  1  0.83304598  0.61783492  0.90058284  1
  O  O18  1  0.97202859  0.94632547  0.29274712  1
  O  O19  1  0.02797141  0.05367453  0.70725288  1
  O  O20  1  0.47202859  0.05367453  0.20725288  1
  O  O21  1  0.52797141  0.94632547  0.79274712  1
  O  O22  1  0.94396347  0.62268021  0.18222136  1
  O  O23  1  0.05603653  0.37731979  0.81777864  1
  O  O24  1  0.44396347  0.37731979  0.31777864  1
  O  O25  1  0.55603653  0.62268021  0.68222136  1
  O  O26  1  0.86475529  0.25421122  0.11717657  1
  O  O27  1  0.13524471  0.74578878  0.88282343  1
  O  O28  1  0.36475529  0.74578878  0.38282343  1
  O  O29  1  0.63524471  0.25421122  0.61717657  1
loop_
_geom_bond_atom_site_label_1
_geom_bond_atom_site_label_2
_geom_bond_distance
_geom_bond_site_symmetry_2
Dy0 O8 2.252328 1_555
Dy0 O4 2.268520 1_555
Dy0 O14 2.273878 1_555
Dy0 O0 2.293371 1_555
Dy0 O28 2.323169 1_555
Dy0 O20 2.336140 1_565
Dy0 O24 2.354727 1_555
Dy1 O9 2.252328 1_555
Dy1 O5 2.268520 1_555
Dy1 O15 2.273878 1_555
Dy1 O1 2.293371 1_555
Dy1 O29 2.323169 1_555
Dy1 O21 2.336140 1_545
Dy1 O25 2.354727 1_555
Dy2 O10 2.252328 1_455
Dy2 O6 2.268520 1_555
Dy2 O16 2.273878 1_555
Dy2 O2 2.293371 1_555
Dy2 O26 2.323169 1_455
Dy2 O18 2.336140 1_445
Dy2 O22 2.354727 1_455
Dy3 O11 2.252328 1_655
Dy3 O7 2.268520 1_555
Dy3 O17 2.273878 1_555
Dy3 O3 2.293371 1_555
Dy3 O27 2.323169 1_655
Dy3 O19 2.336140 1_665
Dy3 O23 2.354727 1_655
Mo0 O4 1.750307 1_555
Mo0 O9 1.757559 1_554
Mo0 O17 1.760455 1_554
Mo0 O26 1.785781 1_555
Mo1 O5 1.750307 1_555
Mo1 O8 1.757559 1_556
Mo1 O16 1.760455 1_556
Mo1 O27 1.785781 1_555
Mo2 O6 1.750307 1_555
Mo2 O11 1.757559 1_555
Mo2 O15 1.760455 1_555
Mo2 O28 1.785781 1_555
Mo3 O7 1.750307 1_555
Mo3 O10 1.757559 1_555
Mo3 O14 1.760455 1_555
Mo3 O29 1.785781 1_555
Mo4 O0 1.740122 1_555
Mo4 O22 1.740376 1_555
Mo4 O18 1.746966 1_555
Mo4 O12 1.873404 1_665
Mo4 O26 2.495741 1_565
Mo5 O1 1.740122 1_555
Mo5 O23 1.740376 1_555
Mo5 O19 1.746966 1_555
Mo5 O12 1.873404 1_556
Mo5 O27 2.495741 1_545
Mo6 O2 1.740122 1_555
Mo6 O24 1.740376 1_555
Mo6 O20 1.746966 1_555
Mo6 O13 1.873404 1_555
Mo6 O28 2.495741 1_545
Mo7 O3 1.740122 1_555
Mo7 O25 1.740376 1_555
Mo7 O21 1.746966 1_555
Mo7 O13 1.873404 1_565
Mo7 O29 2.495741 1_565
