# generated using pymatgen
data_Y3Er
_symmetry_space_group_name_H-M   'P 1'
_cell_length_a   7.32109205
_cell_length_b   7.32110958
_cell_length_c   5.63323230
_cell_angle_alpha   89.99997684
_cell_angle_beta   90.00001805
_cell_angle_gamma   120.00004151
_symmetry_Int_Tables_number   1
_chemical_formula_structural   Y3Er
_chemical_formula_sum   'Y6 Er2'
_cell_volume   261.48145061
_cell_formula_units_Z   2
loop_
 _symmetry_equiv_pos_site_id
 _symmetry_equiv_pos_as_xyz
  1  'x, y, z'
loop_
 _atom_site_type_symbol
 _atom_site_label
 _atom_site_symmetry_multiplicity
 _atom_site_fract_x
 _atom_site_fract_y
 _atom_site_fract_z
 _atom_site_occupancy
  Y  Y0  1  0.16770830  0.33541382  0.24999992  1
  Y  Y1  1  0.66458854  0.83229289  0.25000033  1
  Y  Y2  1  0.16770661  0.83229481  0.24999993  1
  Y  Y3  1  0.83226256  0.66452353  0.74999989  1
  Y  Y4  1  0.33547580  0.16773604  0.74999992  1
  Y  Y5  1  0.83226050  0.16773739  0.74999997  1
  Er  Er0  1  0.33333197  0.66666829  0.75000000  1
  Er  Er1  1  0.66666771  0.33333522  0.25000003  1
loop_
_geom_bond_atom_site_label_1
_geom_bond_atom_site_label_2
_geom_bond_distance
_geom_bond_site_symmetry_2
Y0 Y4 3.529397 1_555
Y0 Y4 3.529399 1_554
Y0 Y5 3.529405 1_454
Y0 Y5 3.529406 1_455
Y0 Y1 3.637704 1_555
Y0 Y2 3.637726 1_555
Y0 Y2 3.683383 1_545
Y0 Y1 3.683392 1_445
Y1 Y3 3.529388 1_555
Y1 Y3 3.529393 1_554
Y1 Y5 3.529395 1_565
Y1 Y5 3.529397 1_564
Y1 Y2 3.637725 1_555
Y1 Y2 3.683367 1_655
Y2 Y4 3.529383 1_564
Y2 Y4 3.529384 1_565
Y2 Y3 3.529391 1_454
Y2 Y3 3.529391 1_455
Y3 Y5 3.637018 1_555
Y3 Y4 3.637026 1_555
Y3 Y4 3.684070 1_665
Y3 Y5 3.684091 1_565
Y4 Y5 3.637002 1_555
Y4 Y5 3.684090 1_455
Er0 Y2 3.513440 1_555
Er0 Y2 3.513441 1_556
Er0 Y0 3.513450 1_556
Er0 Y0 3.513452 1_555
Er0 Y1 3.513455 1_555
Er0 Y1 3.513457 1_556
Er0 Y3 3.660550 1_455
Er0 Y4 3.660550 1_565
Er0 Y5 3.660565 1_565
Er0 Y5 3.660582 1_455
Er0 Y3 3.660593 1_555
Er0 Y4 3.660611 1_555
Er1 Y3 3.513200 1_555
Er1 Y3 3.513200 1_554
Er1 Y5 3.513207 1_555
Er1 Y5 3.513209 1_554
Er1 Y4 3.513211 1_555
Er1 Y4 3.513211 1_554
Er1 Y1 3.660558 1_555
Er1 Y0 3.660560 1_555
Er1 Y2 3.660566 1_655
Er1 Y2 3.660577 1_545
Er1 Y0 3.660579 1_655
Er1 Y1 3.660599 1_545
