# generated using pymatgen
data_AlW3C4
_symmetry_space_group_name_H-M   'P 1'
_cell_length_a   2.83236400
_cell_length_b   2.94740600
_cell_length_c   10.13795200
_cell_angle_alpha   90.00000000
_cell_angle_beta   90.00000000
_cell_angle_gamma   90.00000000
_symmetry_Int_Tables_number   1
_chemical_formula_structural   AlW3C4
_chemical_formula_sum   'Al1 W3 C4'
_cell_volume   84.63290725
_cell_formula_units_Z   1
loop_
 _symmetry_equiv_pos_site_id
 _symmetry_equiv_pos_as_xyz
  1  'x, y, z'
loop_
 _atom_site_type_symbol
 _atom_site_label
 _atom_site_symmetry_multiplicity
 _atom_site_fract_x
 _atom_site_fract_y
 _atom_site_fract_z
 _atom_site_occupancy
  Al  Al0  1  0.00000000  0.00000000  0.73889600  1
  W  W0  1  0.00000000  0.50000000  0.00188100  1
  W  W1  1  0.00000000  0.00000000  0.25134700  1
  W  W2  1  0.00000000  0.50000000  0.50165500  1
  C  C0  1  0.50000000  0.50000000  0.16804400  1
  C  C1  1  0.50000000  0.00000000  0.41766900  1
  C  C2  1  0.50000000  0.50000000  0.66168700  1
  C  C3  1  0.50000000  0.00000000  0.92552200  1
loop_
_geom_bond_atom_site_label_1
_geom_bond_atom_site_label_2
_geom_bond_distance
_geom_bond_site_symmetry_2
Al0 C2 2.188620 1_545
Al0 C2 2.188620 1_445
Al0 C2 2.188620 1_455
Al0 C2 2.188620 1_555
Al0 C3 2.363315 1_555
Al0 C3 2.363315 1_455
C0 W0 2.200747 1_555
C0 W0 2.200747 1_655
C0 W1 2.211468 1_555
C0 W1 2.211468 1_565
C0 W1 2.211468 1_655
C0 W1 2.211468 1_665
C1 W1 2.201981 1_555
C1 W1 2.201981 1_655
C1 W2 2.214121 1_545
C1 W2 2.214121 1_645
C1 W2 2.214121 1_555
C1 W2 2.214121 1_655
C2 W2 2.153542 1_555
C2 W2 2.153542 1_655
C3 W0 2.185553 1_546
C3 W0 2.185553 1_656
C3 W0 2.185553 1_556
C3 W0 2.185553 1_646
