# generated using pymatgen
data_CeY2(AlPd)3
_symmetry_space_group_name_H-M   'P 1'
_cell_length_a   7.19228920
_cell_length_b   7.19228920
_cell_length_c   4.03101700
_cell_angle_alpha   90.00000000
_cell_angle_beta   90.00000000
_cell_angle_gamma   119.10832254
_symmetry_Int_Tables_number   1
_chemical_formula_structural   CeY2(AlPd)3
_chemical_formula_sum   'Ce1 Y2 Al3 Pd3'
_cell_volume   182.18475406
_cell_formula_units_Z   1
loop_
 _symmetry_equiv_pos_site_id
 _symmetry_equiv_pos_as_xyz
  1  'x, y, z'
loop_
 _atom_site_type_symbol
 _atom_site_label
 _atom_site_symmetry_multiplicity
 _atom_site_fract_x
 _atom_site_fract_y
 _atom_site_fract_z
 _atom_site_occupancy
  Ce  Ce0  1  0.58120400  0.58120400  0.50000000  1
  Y  Y0  1  0.41629400  0.00061500  0.50000000  1
  Y  Y1  1  0.00061500  0.41629400  0.50000000  1
  Al  Al0  1  0.23480600  0.23480600  0.00000000  1
  Al  Al1  1  0.76206800  0.00238300  0.00000000  1
  Al  Al2  1  0.00238300  0.76206800  0.00000000  1
  Pd  Pd0  1  0.33607200  0.66633100  0.00000000  1
  Pd  Pd1  1  0.66633100  0.33607200  0.00000000  1
  Pd  Pd2  1  0.00012700  0.00012700  0.50000000  1
loop_
_geom_bond_atom_site_label_1
_geom_bond_atom_site_label_2
_geom_bond_distance
_geom_bond_site_symmetry_2
Ce0 Pd1 2.931849 1_555
Ce0 Pd0 2.931849 1_555
Ce0 Pd0 2.931849 1_556
Ce0 Pd1 2.931849 1_556
Ce0 Pd2 3.053532 1_665
Al0 Pd2 2.643548 1_554
Al0 Pd2 2.643548 1_555
Al0 Pd1 2.822027 1_555
Al0 Pd0 2.822027 1_555
Al0 Ce0 3.230693 1_554
Al0 Ce0 3.230693 1_555
Al0 Y0 3.277548 1_555
Al0 Y0 3.277548 1_554
Al0 Y1 3.277548 1_554
Al0 Y1 3.277548 1_555
Al1 Pd2 2.649747 1_655
Al1 Pd2 2.649747 1_654
Al1 Pd1 2.800336 1_555
Al1 Pd0 2.832728 1_545
Al1 Y0 3.196306 1_555
Al1 Y0 3.196306 1_554
Al1 Y1 3.301355 1_655
Al1 Y1 3.301355 1_654
Al1 Ce0 3.331201 1_544
Al1 Ce0 3.331201 1_545
Al2 Pd2 2.649747 1_564
Al2 Pd2 2.649747 1_565
Al2 Pd0 2.800336 1_555
Al2 Pd1 2.832728 1_455
Al2 Y1 3.196306 1_555
Al2 Y1 3.196306 1_554
Al2 Y0 3.301355 1_564
Al2 Y0 3.301355 1_565
Al2 Ce0 3.331201 1_455
Al2 Ce0 3.331201 1_454
Pd0 Y0 2.970863 1_564
Pd0 Y0 2.970863 1_565
Pd0 Y1 2.982625 1_554
Pd0 Y1 2.982625 1_555
Pd1 Y1 2.970863 1_654
Pd1 Y1 2.970863 1_655
Pd1 Y0 2.982625 1_555
Pd1 Y0 2.982625 1_554
Pd2 Y1 2.991488 1_555
Pd2 Y0 2.991488 1_555
