# generated using pymatgen
data_GdCu5Sn
_symmetry_space_group_name_H-M   'P 1'
_cell_length_a   5.02062400
_cell_length_b   8.22849000
_cell_length_c   10.53912700
_cell_angle_alpha   90.00000000
_cell_angle_beta   90.00000000
_cell_angle_gamma   90.00000000
_symmetry_Int_Tables_number   1
_chemical_formula_structural   GdCu5Sn
_chemical_formula_sum   'Gd4 Cu20 Sn4'
_cell_volume   435.39404163
_cell_formula_units_Z   4
loop_
 _symmetry_equiv_pos_site_id
 _symmetry_equiv_pos_as_xyz
  1  'x, y, z'
loop_
 _atom_site_type_symbol
 _atom_site_label
 _atom_site_symmetry_multiplicity
 _atom_site_fract_x
 _atom_site_fract_y
 _atom_site_fract_z
 _atom_site_occupancy
  Gd  Gd0  1  0.25000000  0.75307300  0.06268500  1
  Gd  Gd1  1  0.75000000  0.24692700  0.93731500  1
  Gd  Gd2  1  0.75000000  0.74692700  0.56268500  1
  Gd  Gd3  1  0.25000000  0.25307300  0.43731500  1
  Cu  Cu0  1  0.25000000  0.81424200  0.74502600  1
  Cu  Cu1  1  0.75000000  0.18575800  0.25497400  1
  Cu  Cu2  1  0.75000000  0.68575800  0.24502600  1
  Cu  Cu3  1  0.25000000  0.31424200  0.75497400  1
  Cu  Cu4  1  0.50027200  0.56489300  0.81336600  1
  Cu  Cu5  1  0.49972800  0.43510700  0.18663400  1
  Cu  Cu6  1  0.49972800  0.93510700  0.31336600  1
  Cu  Cu7  1  0.00027200  0.43510700  0.18663400  1
  Cu  Cu8  1  0.50027200  0.06489300  0.68663400  1
  Cu  Cu9  1  0.99972800  0.56489300  0.81336600  1
  Cu  Cu10  1  0.99972800  0.06489300  0.68663400  1
  Cu  Cu11  1  0.00027200  0.93510700  0.31336600  1
  Cu  Cu12  1  0.25000000  0.91416200  0.51813100  1
  Cu  Cu13  1  0.75000000  0.08583800  0.48186900  1
  Cu  Cu14  1  0.75000000  0.58583800  0.01813100  1
  Cu  Cu15  1  0.25000000  0.41416200  0.98186900  1
  Cu  Cu16  1  0.25000000  0.56002800  0.60340000  1
  Cu  Cu17  1  0.75000000  0.43997200  0.39660000  1
  Cu  Cu18  1  0.75000000  0.93997200  0.10340000  1
  Cu  Cu19  1  0.25000000  0.06002800  0.89660000  1
  Sn  Sn0  1  0.25000000  0.64071600  0.36133800  1
  Sn  Sn1  1  0.75000000  0.35928400  0.63866200  1
  Sn  Sn2  1  0.75000000  0.85928400  0.86133800  1
  Sn  Sn3  1  0.25000000  0.14071600  0.13866200  1
loop_
_geom_bond_atom_site_label_1
_geom_bond_atom_site_label_2
_geom_bond_distance
_geom_bond_site_symmetry_2
Gd0 Sn0 3.280514 1_555
Gd0 Sn3 3.288687 1_565
Gd0 Sn2 3.401241 1_554
Gd0 Sn2 3.401241 1_454
Gd1 Sn1 3.280514 1_555
Gd1 Sn2 3.288687 1_545
Gd1 Sn3 3.401241 1_656
Gd1 Sn3 3.401241 1_556
Gd2 Sn2 3.280514 1_555
Gd2 Sn1 3.288687 1_555
Gd2 Sn0 3.401241 1_655
Gd2 Sn0 3.401241 1_555
Gd3 Sn3 3.280514 1_555
Gd3 Sn0 3.288687 1_555
Gd3 Sn1 3.401241 1_555
Gd3 Sn1 3.401241 1_455
Cu0 Cu8 2.492265 1_565
Cu0 Cu10 2.492265 1_465
Cu0 Cu4 2.511442 1_555
Cu0 Cu9 2.511442 1_455
Cu0 Cu12 2.528675 1_555
Cu0 Cu16 2.569730 1_555
Cu0 Cu19 2.577240 1_565
Cu0 Sn2 2.818099 1_455
Cu0 Sn2 2.818099 1_555
Cu0 Gd2 3.209589 1_455
Cu0 Gd2 3.209589 1_555
Cu0 Gd0 3.385473 1_556
Cu1 Cu11 2.492265 1_645
Cu1 Cu6 2.492265 1_545
Cu1 Cu7 2.511442 1_655
Cu1 Cu5 2.511442 1_555
Cu1 Cu13 2.528675 1_555
Cu1 Cu17 2.569730 1_555
Cu1 Cu18 2.577240 1_545
Cu1 Sn3 2.818099 1_655
Cu1 Sn3 2.818099 1_555
Cu1 Gd3 3.209589 1_655
Cu1 Gd3 3.209589 1_555
Cu1 Gd1 3.385473 1_554
Cu2 Cu7 2.492265 1_655
Cu2 Cu5 2.492265 1_555
Cu2 Cu6 2.511442 1_555
Cu2 Sn0 2.818099 1_555
Cu2 Sn0 2.818099 1_655
Cu2 Gd0 3.209589 1_555
Cu2 Gd0 3.209589 1_655
Cu2 Gd2 3.385473 1_555
Cu3 Cu4 2.492265 1_555
Cu3 Cu9 2.492265 1_455
Cu3 Cu8 2.511442 1_555
Cu3 Sn1 2.818099 1_555
Cu3 Sn1 2.818099 1_455
Cu3 Gd1 3.209589 1_455
Cu3 Gd1 3.209589 1_555
Cu3 Gd3 3.385473 1_555
Cu4 Cu9 2.507581 1_555
Cu4 Cu9 2.513043 1_455
Cu4 Sn2 2.774093 1_555
Cu4 Sn1 2.797226 1_555
Cu4 Gd1 3.181806 1_555
Cu4 Gd2 3.285656 1_555
Cu4 Gd0 3.298607 1_556
Cu5 Cu7 2.507581 1_555
Cu5 Cu7 2.513043 1_655
Cu5 Sn3 2.774093 1_555
Cu5 Sn0 2.797226 1_555
Cu5 Gd0 3.181806 1_555
Cu5 Gd3 3.285656 1_555
Cu5 Gd1 3.298607 1_554
Cu6 Sn0 2.774093 1_555
Cu6 Sn3 2.797226 1_565
Cu6 Gd3 3.181806 1_565
Cu6 Gd0 3.285656 1_555
Cu6 Gd2 3.298607 1_555
Cu7 Sn3 2.774093 1_555
Cu7 Sn0 2.797226 1_555
Cu7 Gd0 3.181806 1_555
Cu7 Gd3 3.285656 1_555
Cu7 Gd1 3.298607 1_454
Cu8 Sn1 2.774093 1_555
Cu8 Sn2 2.797226 1_545
Cu8 Gd2 3.181806 1_545
Cu8 Gd1 3.285656 1_555
Cu8 Gd3 3.298607 1_555
Cu9 Sn2 2.774093 1_555
Cu9 Sn1 2.797226 1_555
Cu9 Gd1 3.181806 1_555
Cu9 Gd2 3.285656 1_555
Cu9 Gd0 3.298607 1_656
Cu10 Cu13 2.501769 1_555
Cu10 Cu12 2.504175 1_645
Cu10 Cu8 2.507581 1_555
Cu10 Cu3 2.511442 1_655
Cu10 Cu8 2.513043 1_655
Cu10 Cu19 2.545033 1_655
Cu10 Sn1 2.774093 1_555
Cu10 Sn2 2.797226 1_545
Cu10 Gd2 3.181806 1_545
Cu10 Gd1 3.285656 1_555
Cu10 Gd3 3.298607 1_655
Cu11 Cu12 2.501769 1_555
Cu11 Cu13 2.504175 1_465
Cu11 Cu6 2.507581 1_555
Cu11 Cu2 2.511442 1_455
Cu11 Cu6 2.513043 1_455
Cu11 Cu18 2.545033 1_455
Cu11 Sn0 2.774093 1_555
Cu11 Sn3 2.797226 1_565
Cu11 Gd3 3.181806 1_565
Cu11 Gd0 3.285656 1_555
Cu11 Gd2 3.298607 1_455
Cu12 Cu6 2.501769 1_555
Cu12 Cu8 2.504175 1_565
Cu12 Sn0 2.791656 1_555
Cu12 Gd2 2.900997 1_455
Cu12 Gd2 2.900997 1_555
Cu12 Gd3 2.915894 1_565
Cu12 Cu16 3.049413 1_555
Cu13 Cu8 2.501769 1_555
Cu13 Cu6 2.504175 1_545
Cu13 Sn1 2.791656 1_555
Cu13 Gd3 2.900997 1_555
Cu13 Gd3 2.900997 1_655
Cu13 Gd2 2.915894 1_545
Cu13 Cu17 3.049413 1_555
Cu14 Cu9 2.501769 1_554
Cu14 Cu4 2.501769 1_554
Cu14 Cu7 2.504175 1_655
Cu14 Cu5 2.504175 1_555
Cu14 Cu2 2.528675 1_555
Cu14 Sn2 2.791656 1_554
Cu14 Gd0 2.900997 1_655
Cu14 Gd0 2.900997 1_555
Cu14 Gd1 2.915894 1_554
Cu14 Cu18 3.049413 1_555
Cu15 Cu5 2.501769 1_556
Cu15 Cu7 2.501769 1_556
Cu15 Cu4 2.504175 1_555
Cu15 Cu9 2.504175 1_455
Cu15 Cu3 2.528675 1_555
Cu15 Sn3 2.791656 1_556
Cu15 Gd1 2.900997 1_455
Cu15 Gd1 2.900997 1_555
Cu15 Gd0 2.915894 1_556
Cu15 Cu19 3.049413 1_555
Cu16 Cu4 2.545033 1_555
Cu16 Cu9 2.545033 1_455
Cu16 Cu3 2.577240 1_555
Cu16 Sn0 2.636103 1_555
Cu16 Gd2 2.975049 1_455
Cu16 Gd2 2.975049 1_555
Cu16 Sn1 3.027918 1_555
Cu16 Sn1 3.027918 1_455
Cu16 Gd3 3.073014 1_555
Cu17 Cu7 2.545033 1_655
Cu17 Cu5 2.545033 1_555
Cu17 Cu2 2.577240 1_555
Cu17 Sn1 2.636103 1_555
Cu17 Gd3 2.975049 1_555
Cu17 Gd3 2.975049 1_655
Cu17 Sn0 3.027918 1_655
Cu17 Sn0 3.027918 1_555
Cu17 Gd2 3.073014 1_555
Cu18 Cu6 2.545033 1_555
Cu18 Cu2 2.569730 1_555
Cu18 Sn2 2.636103 1_554
Cu18 Gd0 2.975049 1_555
Cu18 Gd0 2.975049 1_655
Cu18 Sn3 3.027918 1_665
Cu18 Sn3 3.027918 1_565
Cu18 Gd1 3.073014 1_564
Cu19 Cu8 2.545033 1_555
Cu19 Cu3 2.569730 1_555
Cu19 Sn3 2.636103 1_556
Cu19 Gd1 2.975049 1_455
Cu19 Gd1 2.975049 1_555
Cu19 Sn2 3.027918 1_445
Cu19 Sn2 3.027918 1_545
Cu19 Gd0 3.073014 1_546
