# generated using pymatgen
data_K3LiPb4
_symmetry_space_group_name_H-M   'P 1'
_cell_length_a   8.74660598
_cell_length_b   8.74660598
_cell_length_c   10.39058196
_cell_angle_alpha   90.00000000
_cell_angle_beta   90.00000000
_cell_angle_gamma   132.34971490
_symmetry_Int_Tables_number   1
_chemical_formula_structural   K3LiPb4
_chemical_formula_sum   'K6 Li2 Pb8'
_cell_volume   587.47713595
_cell_formula_units_Z   2
loop_
 _symmetry_equiv_pos_site_id
 _symmetry_equiv_pos_as_xyz
  1  'x, y, z'
loop_
 _atom_site_type_symbol
 _atom_site_label
 _atom_site_symmetry_multiplicity
 _atom_site_fract_x
 _atom_site_fract_y
 _atom_site_fract_z
 _atom_site_occupancy
  K  K0  1  0.22640105  0.77359895  0.25000000  1
  K  K1  1  0.77359895  0.22640105  0.75000000  1
  K  K2  1  0.61106327  0.38893673  0.04350117  1
  K  K3  1  0.38893673  0.61106327  0.95649883  1
  K  K4  1  0.38893673  0.61106327  0.54350117  1
  K  K5  1  0.61106327  0.38893673  0.45649883  1
  Li  Li0  1  0.00000000  0.00000000  0.00000000  1
  Li  Li1  1  0.00000000  0.00000000  0.50000000  1
  Pb  Pb0  1  0.18896678  0.26096992  0.25000000  1
  Pb  Pb1  1  0.81103322  0.73903008  0.75000000  1
  Pb  Pb2  1  0.73903008  0.81103322  0.25000000  1
  Pb  Pb3  1  0.26096992  0.18896678  0.75000000  1
  Pb  Pb4  1  0.82734689  0.17265311  0.10285456  1
  Pb  Pb5  1  0.17265311  0.82734689  0.89714544  1
  Pb  Pb6  1  0.17265311  0.82734689  0.60285456  1
  Pb  Pb7  1  0.82734689  0.17265311  0.39714544  1
loop_
_geom_bond_atom_site_label_1
_geom_bond_atom_site_label_2
_geom_bond_distance
_geom_bond_site_symmetry_2
K0 Pb5 3.765900 1_554
K0 Pb6 3.765900 1_555
K0 Pb7 4.174964 1_455
K0 Pb4 4.174964 1_455
K0 Pb7 4.174964 1_565
K0 Pb4 4.174964 1_565
K1 Pb4 3.765900 1_556
K1 Pb7 3.765900 1_555
K1 Pb6 4.174964 1_545
K1 Pb6 4.174964 1_655
K1 Pb5 4.174964 1_655
K1 Pb5 4.174964 1_545
K2 Pb4 3.515591 1_555
K2 Pb2 3.730863 1_555
K2 Pb0 3.730863 1_555
K2 Pb3 3.810541 1_554
K2 Pb1 3.810541 1_554
K2 Pb5 3.970796 1_544
K2 Pb5 3.970796 1_654
K3 Pb5 3.515591 1_555
K3 Pb3 3.730863 1_555
K3 Pb1 3.730863 1_555
K3 Pb0 3.810541 1_556
K3 Pb2 3.810541 1_556
K3 Pb4 3.970796 1_566
K3 Pb4 3.970796 1_456
K4 Pb6 3.515591 1_555
K4 Pb3 3.730863 1_555
K4 Pb1 3.730863 1_555
K4 Pb2 3.810541 1_555
K4 Pb0 3.810541 1_555
K4 Pb7 3.970796 1_455
K4 Pb7 3.970796 1_565
K5 Pb7 3.515591 1_555
K5 Pb2 3.730863 1_555
K5 Pb0 3.730863 1_555
K5 Pb3 3.810541 1_555
K5 Pb1 3.810541 1_555
K5 Pb6 3.970796 1_545
K5 Pb6 3.970796 1_655
Li0 Pb5 2.962374 1_544
Li0 Pb4 2.962374 1_455
Li0 Pb2 3.099486 1_445
Li0 Pb1 3.099486 1_444
Li0 Pb0 3.099486 1_555
Li0 Pb3 3.099486 1_554
Li1 Pb7 2.962374 1_455
Li1 Pb6 2.962374 1_545
Li1 Pb1 3.099486 1_445
Li1 Pb2 3.099486 1_445
Li1 Pb3 3.099486 1_555
Li1 Pb0 3.099486 1_555
Pb0 Pb4 3.105914 1_455
Pb0 Pb7 3.105914 1_455
Pb1 Pb6 3.105914 1_655
Pb1 Pb5 3.105914 1_655
Pb2 Pb7 3.105914 1_565
Pb2 Pb4 3.105914 1_565
Pb3 Pb6 3.105914 1_545
Pb3 Pb5 3.105914 1_545
Pb4 Pb7 3.057854 1_555
Pb5 Pb6 3.057854 1_555
