# generated using pymatgen
data_LiTi8O16
_symmetry_space_group_name_H-M   'P 1'
_cell_length_a   5.27358366
_cell_length_b   5.54278437
_cell_length_c   9.28746741
_cell_angle_alpha   90.41561502
_cell_angle_beta   91.32965344
_cell_angle_gamma   90.06891359
_symmetry_Int_Tables_number   1
_chemical_formula_structural   LiTi8O16
_chemical_formula_sum   'Li1 Ti8 O16'
_cell_volume   271.39530831
_cell_formula_units_Z   1
loop_
 _symmetry_equiv_pos_site_id
 _symmetry_equiv_pos_as_xyz
  1  'x, y, z'
loop_
 _atom_site_type_symbol
 _atom_site_label
 _atom_site_symmetry_multiplicity
 _atom_site_fract_x
 _atom_site_fract_y
 _atom_site_fract_z
 _atom_site_occupancy
  Li  Li0  1  0.50000000  0.50000000  0.50000000  1
  Ti  Ti0  1  0.10360800  0.39139200  0.63892300  1
  Ti  Ti1  1  0.62812000  0.60069800  0.87057400  1
  Ti  Ti2  1  0.36828700  0.91638700  0.36656400  1
  Ti  Ti3  1  0.86164100  0.10700700  0.12172000  1
  Ti  Ti4  1  0.89639200  0.60860800  0.36107700  1
  Ti  Ti5  1  0.37188000  0.39930200  0.12942600  1
  Ti  Ti6  1  0.63171300  0.08361300  0.63343600  1
  Ti  Ti7  1  0.13835900  0.89299300  0.87828000  1
  O  O0  1  0.46128700  0.40223200  0.72185200  1
  O  O1  1  0.95565300  0.60823700  0.77124800  1
  O  O2  1  0.03853300  0.89392500  0.26961500  1
  O  O3  1  0.54390000  0.10428900  0.22887000  1
  O  O4  1  0.53871300  0.59776800  0.27814800  1
  O  O5  1  0.04434700  0.39176300  0.22875200  1
  O  O6  1  0.96146700  0.10607500  0.73038500  1
  O  O7  1  0.45610000  0.89571100  0.77113000  1
  O  O8  1  0.81965200  0.84938700  0.98918400  1
  O  O9  1  0.32860400  0.16174500  0.50434800  1
  O  O10  1  0.67834200  0.34741900  0.00772400  1
  O  O11  1  0.17978900  0.65336400  0.49192600  1
  O  O12  1  0.18034800  0.15061300  0.01081600  1
  O  O13  1  0.67139600  0.83825500  0.49565200  1
  O  O14  1  0.32165800  0.65258100  0.99227600  1
  O  O15  1  0.82021100  0.34663600  0.50807400  1
loop_
_geom_bond_atom_site_label_1
_geom_bond_atom_site_label_2
_geom_bond_distance
_geom_bond_site_symmetry_2
Li0 O15 1.891640 1_555
Li0 O11 1.891640 1_555
Li0 O9 2.081462 1_555
Li0 O13 2.081462 1_555
Li0 O0 2.148540 1_555
Li0 O4 2.148540 1_555
O0 Ti1 1.952246 1_555
O0 Ti0 2.021482 1_555
O0 Ti6 2.148949 1_555
O1 Ti0 1.894492 1_655
O1 Ti1 1.977507 1_555
O1 Ti7 2.082498 1_655
O2 Ti2 1.943063 1_555
O2 Ti4 1.957199 1_455
O2 Ti3 2.029422 1_465
O3 Ti2 1.910438 1_545
O3 Ti3 1.968717 1_555
O3 Ti5 2.082402 1_555
O4 Ti5 1.952246 1_555
O4 Ti4 2.021482 1_555
O4 Ti2 2.148949 1_555
O5 Ti4 1.894492 1_455
O5 Ti5 1.977507 1_555
O5 Ti3 2.082498 1_455
O6 Ti6 1.943063 1_555
O6 Ti0 1.957199 1_655
O6 Ti7 2.029422 1_645
O7 Ti6 1.910438 1_565
O7 Ti7 1.968717 1_555
O7 Ti1 2.082402 1_555
O8 Ti3 1.887932 1_566
O8 Ti7 2.006783 1_655
O8 Ti1 2.014141 1_555
O9 Ti2 1.875822 1_545
O9 Ti6 2.024914 1_555
O9 Ti0 2.153980 1_555
O10 Ti1 1.916947 1_554
O10 Ti3 1.951174 1_555
O10 Ti5 2.013310 1_555
O11 Ti4 1.918962 1_455
O11 Ti0 2.046100 1_555
O11 Ti2 2.131667 1_555
O12 Ti7 1.887932 1_544
O12 Ti3 2.006783 1_455
O12 Ti5 2.014141 1_555
O13 Ti6 1.875822 1_565
O13 Ti2 2.024914 1_555
O13 Ti4 2.153980 1_555
O14 Ti5 1.916947 1_556
O14 Ti7 1.951174 1_555
O14 Ti1 2.013310 1_555
O15 Ti0 1.918962 1_655
O15 Ti4 2.046100 1_555
O15 Ti6 2.131667 1_555
