# generated using pymatgen
data_Ba4LaTiNb3O15
_symmetry_space_group_name_H-M   'P 1'
_cell_length_a   5.81577038
_cell_length_b   5.81577038
_cell_length_c   11.69400100
_cell_angle_alpha   90.00000000
_cell_angle_beta   90.00000000
_cell_angle_gamma   120.00000431
_symmetry_Int_Tables_number   1
_chemical_formula_structural   Ba4LaTiNb3O15
_chemical_formula_sum   'Ba4 La1 Ti1 Nb3 O15'
_cell_volume   342.53759313
_cell_formula_units_Z   1
loop_
 _symmetry_equiv_pos_site_id
 _symmetry_equiv_pos_as_xyz
  1  'x, y, z'
loop_
 _atom_site_type_symbol
 _atom_site_label
 _atom_site_symmetry_multiplicity
 _atom_site_fract_x
 _atom_site_fract_y
 _atom_site_fract_z
 _atom_site_occupancy
  Ba  Ba0  1  0.66666700  0.33333300  0.79115300  1
  Ba  Ba1  1  0.00000000  0.00000000  0.20364500  1
  Ba  Ba2  1  0.66666700  0.33333300  0.41661000  1
  Ba  Ba3  1  0.33333300  0.66666700  0.99887600  1
  La  La0  1  0.00000000  0.00000000  0.55101700  1
  Ti  Ti0  1  0.00000000  0.00000000  0.88404500  1
  Nb  Nb0  1  0.66666700  0.33333300  0.09711700  1
  Nb  Nb1  1  0.33333300  0.66666700  0.31849600  1
  Nb  Nb2  1  0.33333300  0.66666700  0.68140300  1
  O  O0  1  0.00289300  0.50144700  0.60689000  1
  O  O1  1  0.49855300  0.50144700  0.60689000  1
  O  O2  1  0.49855300  0.99710700  0.60689000  1
  O  O3  1  0.66770200  0.83385100  0.40070200  1
  O  O4  1  0.16614900  0.83385100  0.40070200  1
  O  O5  1  0.16614900  0.33229800  0.40070200  1
  O  O6  1  0.99929900  0.49964900  0.20330500  1
  O  O7  1  0.50035100  0.49964900  0.20330500  1
  O  O8  1  0.50035100  0.00070100  0.20330500  1
  O  O9  1  0.67599900  0.83799900  0.80478200  1
  O  O10  1  0.16200100  0.83799900  0.80478200  1
  O  O11  1  0.16200100  0.32400100  0.80478200  1
  O  O12  1  0.83188400  0.16811600  0.00352500  1
  O  O13  1  0.83188400  0.66376900  0.00352500  1
  O  O14  1  0.33623100  0.16811600  0.00352500  1
loop_
_geom_bond_atom_site_label_1
_geom_bond_atom_site_label_2
_geom_bond_distance
_geom_bond_site_symmetry_2
Ba0 O2 2.740579 1_545
Ba0 O0 2.740579 1_655
Ba0 O1 2.740585 1_555
Ba0 O10 2.912629 1_545
Ba0 O10 2.912629 1_655
Ba0 O9 2.912629 1_555
Ba0 O11 2.912629 1_555
Ba0 O9 2.912629 1_545
Ba0 O11 2.912629 1_655
Ba0 O12 2.989556 1_556
Ba0 O14 2.989561 1_556
Ba0 O13 2.989561 1_556
Ba1 O5 2.848035 1_555
Ba1 O3 2.848035 1_445
Ba1 O4 2.848035 1_545
Ba1 O13 2.888662 1_445
Ba1 O14 2.888662 1_555
Ba1 O12 2.888665 1_455
Ba1 O8 2.907887 1_455
Ba1 O6 2.907887 1_455
Ba1 O7 2.907890 1_555
Ba1 O7 2.907890 1_445
Ba1 O6 2.907893 1_445
Ba1 O8 2.907893 1_555
Ba2 O0 2.796239 1_655
Ba2 O2 2.796239 1_545
Ba2 O1 2.796245 1_555
Ba2 O5 2.913831 1_655
Ba2 O3 2.913831 1_545
Ba2 O4 2.913834 1_655
Ba2 O4 2.913834 1_545
Ba2 O5 2.913837 1_555
Ba2 O3 2.913837 1_555
Ba2 O6 3.004784 1_555
Ba2 O8 3.004784 1_555
Ba2 O7 3.004784 1_555
Ba3 O10 2.851369 1_555
Ba3 O11 2.851375 1_555
Ba3 O9 2.851375 1_555
Ba3 O12 2.908430 1_566
Ba3 O12 2.908430 1_456
Ba3 O14 2.908430 1_566
Ba3 O13 2.908430 1_456
Ba3 O13 2.908430 1_556
Ba3 O14 2.908430 1_556
Ba3 O6 2.923251 1_456
Ba3 O8 2.923251 1_566
Ba3 O7 2.923257 1_556
La0 O3 2.427122 1_445
La0 O5 2.427122 1_555
La0 O4 2.427122 1_545
Nb0 O12 1.991892 1_555
Nb0 O14 1.991900 1_555
Nb0 O13 1.991900 1_555
Nb0 O8 2.085360 1_555
Nb0 O6 2.085360 1_555
Nb0 O7 2.085360 1_555
Nb1 O4 1.939138 1_555
Nb1 O3 1.939142 1_555
Nb1 O5 1.939142 1_555
Nb1 O6 2.155223 1_455
Nb1 O8 2.155223 1_565
Nb1 O7 2.155231 1_555
Nb2 O2 1.878600 1_555
Nb2 O0 1.878600 1_555
Nb2 O1 1.878601 1_555
Nb2 O10 2.249502 1_555
Nb2 O11 2.249510 1_555
Nb2 O9 2.249510 1_555
O9 Ti0 1.876734 1_665
O10 Ti0 1.876738 1_565
O11 Ti0 1.876734 1_555
O12 Ti0 2.195450 1_654
O13 Ti0 2.195446 1_664
O14 Ti0 2.195446 1_554
