# generated using pymatgen
data_Li2V2Cr(PO4)3
_symmetry_space_group_name_H-M   'P 1'
_cell_length_a   8.67976406
_cell_length_b   8.67976406
_cell_length_c   8.45217341
_cell_angle_alpha   63.20413696
_cell_angle_beta   63.20413696
_cell_angle_gamma   62.42015519
_symmetry_Int_Tables_number   1
_chemical_formula_structural   Li2V2Cr(PO4)3
_chemical_formula_sum   'Li4 V4 Cr2 P6 O24'
_cell_volume   479.64119724
_cell_formula_units_Z   2
loop_
 _symmetry_equiv_pos_site_id
 _symmetry_equiv_pos_as_xyz
  1  'x, y, z'
loop_
 _atom_site_type_symbol
 _atom_site_label
 _atom_site_symmetry_multiplicity
 _atom_site_fract_x
 _atom_site_fract_y
 _atom_site_fract_z
 _atom_site_occupancy
  Li  Li0  1  0.85831200  0.14168800  0.00000000  1
  Li  Li1  1  0.16035000  0.83965000  0.50000000  1
  Li  Li2  1  0.74607800  0.65538700  0.10331100  1
  Li  Li3  1  0.34461300  0.25392200  0.89668900  1
  V  V0  1  0.64456800  0.14478200  0.39601500  1
  V  V1  1  0.15103100  0.64882400  0.89852800  1
  V  V2  1  0.85521800  0.35543200  0.60398500  1
  V  V3  1  0.35117600  0.84896900  0.10147200  1
  Cr  Cr0  1  0.99594500  0.50542800  0.74546900  1
  Cr  Cr1  1  0.49457200  0.00405500  0.25453100  1
  P  P0  1  0.25271500  0.05637000  0.68385800  1
  P  P1  1  0.94363000  0.74728500  0.31614200  1
  P  P2  1  0.55889200  0.44110800  0.00000000  1
  P  P3  1  0.45988600  0.54011400  0.50000000  1
  P  P4  1  0.03813300  0.24922700  0.19474200  1
  P  P5  1  0.75077300  0.96186700  0.80525800  1
  O  O0  1  0.09959000  0.80237700  0.29187300  1
  O  O1  1  0.53483600  0.59625600  0.05738400  1
  O  O2  1  0.31095000  0.03156700  0.84256800  1
  O  O3  1  0.08825300  0.24272100  0.67377300  1
  O  O4  1  0.19762300  0.90041000  0.70812700  1
  O  O5  1  0.40747200  0.07978600  0.49140500  1
  O  O6  1  0.92021400  0.59252800  0.50859500  1
  O  O7  1  0.75727900  0.91174700  0.32622700  1
  O  O8  1  0.61147100  0.49850200  0.57337700  1
  O  O9  1  0.58833700  0.24533600  0.15061000  1
  O  O10  1  0.26732200  0.55936400  0.65221000  1
  O  O11  1  0.98073100  0.31920700  0.35481300  1
  O  O12  1  0.96843300  0.68905000  0.15743200  1
  O  O13  1  0.75466400  0.41166300  0.84939000  1
  O  O14  1  0.44063600  0.73267800  0.34779000  1
  O  O15  1  0.40374400  0.46516400  0.94261600  1
  O  O16  1  0.23203700  0.09890800  0.18310500  1
  O  O17  1  0.06372600  0.40354700  0.99838300  1
  O  O18  1  0.59645300  0.93627400  0.00161700  1
  O  O19  1  0.81723600  0.10728000  0.78639200  1
  O  O20  1  0.90109200  0.76796300  0.81689500  1
  O  O21  1  0.68079300  0.01926900  0.64518700  1
  O  O22  1  0.50149800  0.38852900  0.42662300  1
  O  O23  1  0.89272000  0.18276400  0.21360800  1
loop_
_geom_bond_atom_site_label_1
_geom_bond_atom_site_label_2
_geom_bond_distance
_geom_bond_site_symmetry_2
Li0 O13 2.076516 1_554
Li0 O9 2.076516 1_555
Li0 O23 2.154320 1_555
Li0 O19 2.154320 1_554
Li0 O7 2.614182 1_545
Li0 O3 2.614182 1_654
Li1 O10 2.144581 1_555
Li1 O14 2.144581 1_555
Li1 O4 2.232690 1_555
Li1 O0 2.232690 1_555
Li2 O18 2.134153 1_555
Li2 O20 2.184812 1_554
Li2 O12 2.336272 1_555
Li2 O1 2.338521 1_555
Li2 O14 2.532243 1_555
Li3 O17 2.134153 1_555
Li3 O16 2.184812 1_556
Li3 O2 2.336272 1_555
Li3 O15 2.338521 1_555
Li3 O10 2.532243 1_555
Cr0 O6 2.091350 1_555
Cr0 O17 2.155355 1_655
Cr0 O13 2.257205 1_555
Cr0 O20 2.299993 1_555
Cr0 O3 2.307603 1_655
Cr0 O10 2.324467 1_655
Cr1 O5 2.091350 1_555
Cr1 O18 2.155355 1_545
Cr1 O9 2.257205 1_555
Cr1 O16 2.299993 1_555
Cr1 O7 2.307603 1_545
Cr1 O14 2.324467 1_545
O0 P1 1.537474 1_455
O0 V3 2.141117 1_555
O1 P2 1.526278 1_555
O1 V3 2.110695 1_555
O2 P0 1.533468 1_555
O2 V3 2.114690 1_546
O3 P0 1.583868 1_555
O3 V2 2.029633 1_455
O4 P0 1.537474 1_565
O4 V1 2.141117 1_555
O5 P0 1.573620 1_555
O5 V0 2.091017 1_555
O6 P1 1.573620 1_555
O6 V2 2.091017 1_555
O7 P1 1.583868 1_555
O7 V0 2.029633 1_565
O8 P3 1.529689 1_555
O8 V2 1.963706 1_555
O9 P2 1.585605 1_555
O9 V0 2.046552 1_555
O10 P3 1.572608 1_555
O10 V1 2.189356 1_555
O11 P4 1.516773 1_655
O11 V2 1.983010 1_555
O12 P1 1.533468 1_555
O12 V1 2.114690 1_654
O13 P2 1.585605 1_556
O13 V2 2.046552 1_555
O14 P3 1.572608 1_555
O14 V3 2.189356 1_555
O15 P2 1.526278 1_556
O15 V1 2.110695 1_555
O16 P4 1.574080 1_555
O16 V3 2.209242 1_545
O17 P4 1.592710 1_556
O17 V1 2.261886 1_555
O18 P5 1.592710 1_554
O18 V3 2.261886 1_555
O19 P5 1.536572 1_545
O19 V2 2.080889 1_555
O20 P5 1.574080 1_555
O20 V1 2.209242 1_655
O21 P5 1.516773 1_545
O21 V0 1.983010 1_555
O22 P3 1.529689 1_555
O22 V0 1.963706 1_555
O23 P4 1.536572 1_655
O23 V0 2.080889 1_555
