# generated using pymatgen
data_Ca
_symmetry_space_group_name_H-M   'P 1'
_cell_length_a   7.88510398
_cell_length_b   13.01822348
_cell_length_c   13.58196072
_cell_angle_alpha   90.00000000
_cell_angle_beta   90.00000000
_cell_angle_gamma   90.00000000
_symmetry_Int_Tables_number   1
_chemical_formula_structural   Ca
_chemical_formula_sum   Ca32
_cell_volume   1394.18888962
_cell_formula_units_Z   32
loop_
 _symmetry_equiv_pos_site_id
 _symmetry_equiv_pos_as_xyz
  1  'x, y, z'
loop_
 _atom_site_type_symbol
 _atom_site_label
 _atom_site_symmetry_multiplicity
 _atom_site_fract_x
 _atom_site_fract_y
 _atom_site_fract_z
 _atom_site_occupancy
  Ca  Ca0_0  1  0.49992378  0.37500000  0.08220670  1
  Ca  Ca0_1  1  0.49992378  0.37500000  0.58220670  1
  Ca  Ca0_2  1  0.49992378  0.87500000  0.08220670  1
  Ca  Ca0_3  1  0.49992378  0.87500000  0.58220670  1
  Ca  Ca0_4  1  0.99992377  0.37500000  0.08220670  1
  Ca  Ca0_5  1  0.99992377  0.37500000  0.58220670  1
  Ca  Ca0_6  1  0.99992377  0.87500000  0.08220670  1
  Ca  Ca0_7  1  0.99992377  0.87500000  0.58220670  1
  Ca  Ca1_0  1  0.25007622  0.37500000  0.33220670  1
  Ca  Ca1_1  1  0.25007622  0.37500000  0.83220670  1
  Ca  Ca1_2  1  0.25007622  0.87500000  0.33220670  1
  Ca  Ca1_3  1  0.25007622  0.87500000  0.83220670  1
  Ca  Ca1_4  1  0.75007622  0.37500000  0.33220670  1
  Ca  Ca1_5  1  0.75007622  0.37500000  0.83220670  1
  Ca  Ca1_6  1  0.75007622  0.87500000  0.33220670  1
  Ca  Ca1_7  1  0.75007622  0.87500000  0.83220670  1
  Ca  Ca2_0  1  0.00007622  0.12500000  0.41779330  1
  Ca  Ca2_1  1  0.00007622  0.12500000  0.91779330  1
  Ca  Ca2_2  1  0.00007622  0.62500000  0.41779330  1
  Ca  Ca2_3  1  0.00007622  0.62500000  0.91779330  1
  Ca  Ca2_4  1  0.50007622  0.12500000  0.41779330  1
  Ca  Ca2_5  1  0.50007622  0.12500000  0.91779330  1
  Ca  Ca2_6  1  0.50007622  0.62500000  0.41779330  1
  Ca  Ca2_7  1  0.50007622  0.62500000  0.91779330  1
  Ca  Ca3_0  1  0.24992378  0.12500000  0.16779330  1
  Ca  Ca3_1  1  0.24992378  0.12500000  0.66779330  1
  Ca  Ca3_2  1  0.24992378  0.62500000  0.16779330  1
  Ca  Ca3_3  1  0.24992378  0.62500000  0.66779330  1
  Ca  Ca3_4  1  0.74992377  0.12500000  0.16779330  1
  Ca  Ca3_5  1  0.74992377  0.12500000  0.66779330  1
  Ca  Ca3_6  1  0.74992377  0.62500000  0.16779330  1
  Ca  Ca3_7  1  0.74992377  0.62500000  0.66779330  1
loop_
_geom_bond_atom_site_label_1
_geom_bond_atom_site_label_2
_geom_bond_distance
_geom_bond_site_symmetry_2
Ca0_0 Ca1_0 3.925627 1_555
Ca0_0 Ca1_1 3.925627 1_554
Ca0_0 Ca1_4 3.926834 1_555
Ca0_0 Ca1_5 3.926834 1_554
Ca0_0 Ca0_4 3.942552 1_555
Ca0_0 Ca0_4 3.942552 1_455
Ca0_0 Ca2_5 3.946983 1_554
Ca0_0 Ca2_7 3.946983 1_554
Ca0_0 Ca3_4 3.978607 1_555
Ca0_0 Ca3_0 3.978607 1_555
Ca0_0 Ca3_6 3.978607 1_555
Ca0_0 Ca3_2 3.978607 1_555
Ca0_1 Ca1_1 3.925627 1_555
Ca0_1 Ca1_0 3.925627 1_555
Ca0_1 Ca1_5 3.926834 1_555
Ca0_1 Ca1_4 3.926834 1_555
Ca0_1 Ca0_5 3.942552 1_555
Ca0_1 Ca0_5 3.942552 1_455
Ca0_1 Ca2_4 3.946983 1_555
Ca0_1 Ca2_6 3.946983 1_555
Ca0_1 Ca3_5 3.978607 1_555
Ca0_1 Ca3_1 3.978607 1_555
Ca0_1 Ca3_7 3.978607 1_555
Ca0_1 Ca3_3 3.978607 1_555
Ca0_2 Ca1_2 3.925627 1_555
Ca0_2 Ca1_3 3.925627 1_554
Ca0_2 Ca1_6 3.926834 1_555
Ca0_2 Ca1_7 3.926834 1_554
Ca0_2 Ca0_6 3.942552 1_555
Ca0_2 Ca0_6 3.942552 1_455
Ca0_2 Ca2_7 3.946983 1_554
Ca0_2 Ca2_5 3.946983 1_564
Ca0_2 Ca3_6 3.978607 1_555
Ca0_2 Ca3_2 3.978607 1_555
Ca0_2 Ca3_4 3.978607 1_565
Ca0_2 Ca3_0 3.978607 1_565
Ca0_3 Ca1_3 3.925627 1_555
Ca0_3 Ca1_2 3.925627 1_555
Ca0_3 Ca1_7 3.926834 1_555
Ca0_3 Ca1_6 3.926834 1_555
Ca0_3 Ca0_7 3.942552 1_555
Ca0_3 Ca0_7 3.942552 1_455
Ca0_3 Ca2_6 3.946983 1_555
Ca0_3 Ca2_4 3.946983 1_565
Ca0_3 Ca3_7 3.978607 1_555
Ca0_3 Ca3_3 3.978607 1_555
Ca0_3 Ca3_5 3.978607 1_565
Ca0_3 Ca3_1 3.978607 1_565
Ca0_4 Ca1_4 3.925627 1_555
Ca0_4 Ca1_5 3.925627 1_554
Ca0_4 Ca1_0 3.926834 1_655
Ca0_4 Ca1_1 3.926834 1_654
Ca0_4 Ca2_1 3.946983 1_654
Ca0_4 Ca2_3 3.946983 1_654
Ca0_4 Ca3_4 3.978607 1_555
Ca0_4 Ca3_0 3.978607 1_655
Ca0_4 Ca3_6 3.978607 1_555
Ca0_4 Ca3_2 3.978607 1_655
Ca0_5 Ca1_5 3.925627 1_555
Ca0_5 Ca1_4 3.925627 1_555
Ca0_5 Ca1_1 3.926834 1_655
Ca0_5 Ca1_0 3.926834 1_655
Ca0_5 Ca2_0 3.946983 1_655
Ca0_5 Ca2_2 3.946983 1_655
Ca0_5 Ca3_5 3.978607 1_555
Ca0_5 Ca3_1 3.978607 1_655
Ca0_5 Ca3_7 3.978607 1_555
Ca0_5 Ca3_3 3.978607 1_655
Ca0_6 Ca1_6 3.925627 1_555
Ca0_6 Ca1_7 3.925627 1_554
Ca0_6 Ca1_2 3.926834 1_655
Ca0_6 Ca1_3 3.926834 1_654
Ca0_6 Ca2_3 3.946983 1_654
Ca0_6 Ca2_1 3.946983 1_664
Ca0_6 Ca3_6 3.978607 1_555
Ca0_6 Ca3_2 3.978607 1_655
Ca0_6 Ca3_4 3.978607 1_565
Ca0_6 Ca3_0 3.978607 1_665
Ca0_7 Ca1_7 3.925627 1_555
Ca0_7 Ca1_6 3.925627 1_555
Ca0_7 Ca1_3 3.926834 1_655
Ca0_7 Ca1_2 3.926834 1_655
Ca0_7 Ca2_2 3.946983 1_655
Ca0_7 Ca2_0 3.946983 1_665
Ca0_7 Ca3_7 3.978607 1_555
Ca0_7 Ca3_3 3.978607 1_655
Ca0_7 Ca3_5 3.978607 1_565
Ca0_7 Ca3_1 3.978607 1_665
Ca1_0 Ca1_4 3.942552 1_555
Ca1_0 Ca1_4 3.942552 1_455
Ca1_0 Ca3_0 3.946983 1_555
Ca1_0 Ca3_2 3.946983 1_555
Ca1_0 Ca2_0 3.978607 1_555
Ca1_0 Ca2_4 3.978607 1_555
Ca1_0 Ca2_6 3.978607 1_555
Ca1_0 Ca2_2 3.978607 1_555
Ca1_1 Ca1_5 3.942552 1_555
Ca1_1 Ca1_5 3.942552 1_455
Ca1_1 Ca3_1 3.946983 1_555
Ca1_1 Ca3_3 3.946983 1_555
Ca1_1 Ca2_1 3.978607 1_555
Ca1_1 Ca2_5 3.978607 1_555
Ca1_1 Ca2_7 3.978607 1_555
Ca1_1 Ca2_3 3.978607 1_555
Ca1_2 Ca1_6 3.942552 1_555
Ca1_2 Ca1_6 3.942552 1_455
Ca1_2 Ca3_2 3.946983 1_555
Ca1_2 Ca3_0 3.946983 1_565
Ca1_2 Ca2_6 3.978607 1_555
Ca1_2 Ca2_2 3.978607 1_555
Ca1_2 Ca2_0 3.978607 1_565
Ca1_2 Ca2_4 3.978607 1_565
Ca1_3 Ca1_7 3.942552 1_555
Ca1_3 Ca1_7 3.942552 1_455
Ca1_3 Ca3_3 3.946983 1_555
Ca1_3 Ca3_1 3.946983 1_565
Ca1_3 Ca2_7 3.978607 1_555
Ca1_3 Ca2_3 3.978607 1_555
Ca1_3 Ca2_1 3.978607 1_565
Ca1_3 Ca2_5 3.978607 1_565
Ca1_4 Ca3_4 3.946983 1_555
Ca1_4 Ca3_6 3.946983 1_555
Ca1_4 Ca2_4 3.978607 1_555
Ca1_4 Ca2_0 3.978607 1_655
Ca1_4 Ca2_6 3.978607 1_555
Ca1_4 Ca2_2 3.978607 1_655
Ca1_5 Ca3_5 3.946983 1_555
Ca1_5 Ca3_7 3.946983 1_555
Ca1_5 Ca2_1 3.978607 1_655
Ca1_5 Ca2_5 3.978607 1_555
Ca1_5 Ca2_7 3.978607 1_555
Ca1_5 Ca2_3 3.978607 1_655
Ca1_6 Ca3_6 3.946983 1_555
Ca1_6 Ca3_4 3.946983 1_565
Ca1_6 Ca2_6 3.978607 1_555
Ca1_6 Ca2_2 3.978607 1_655
Ca1_6 Ca2_0 3.978607 1_665
Ca1_6 Ca2_4 3.978607 1_565
Ca1_7 Ca3_7 3.946983 1_555
Ca1_7 Ca3_5 3.946983 1_565
Ca1_7 Ca2_3 3.978607 1_655
Ca1_7 Ca2_7 3.978607 1_555
Ca1_7 Ca2_1 3.978607 1_665
Ca1_7 Ca2_5 3.978607 1_565
Ca2_0 Ca3_1 3.925627 1_555
Ca2_0 Ca3_0 3.925627 1_555
Ca2_0 Ca3_5 3.926834 1_455
Ca2_0 Ca3_4 3.926834 1_455
Ca2_0 Ca2_4 3.942552 1_555
Ca2_0 Ca2_4 3.942552 1_455
Ca2_1 Ca3_0 3.925627 1_556
Ca2_1 Ca3_1 3.925627 1_555
Ca2_1 Ca3_4 3.926834 1_456
Ca2_1 Ca3_5 3.926834 1_455
Ca2_1 Ca2_5 3.942552 1_555
Ca2_1 Ca2_5 3.942552 1_455
Ca2_2 Ca3_3 3.925627 1_555
Ca2_2 Ca3_2 3.925627 1_555
Ca2_2 Ca3_7 3.926834 1_455
Ca2_2 Ca3_6 3.926834 1_455
Ca2_2 Ca2_6 3.942552 1_555
Ca2_2 Ca2_6 3.942552 1_455
Ca2_3 Ca3_2 3.925627 1_556
Ca2_3 Ca3_3 3.925627 1_555
Ca2_3 Ca3_6 3.926834 1_456
Ca2_3 Ca3_7 3.926834 1_455
Ca2_3 Ca2_7 3.942552 1_555
Ca2_3 Ca2_7 3.942552 1_455
Ca2_4 Ca3_5 3.925627 1_555
Ca2_4 Ca3_4 3.925627 1_555
Ca2_4 Ca3_1 3.926834 1_555
Ca2_4 Ca3_0 3.926834 1_555
Ca2_5 Ca3_4 3.925627 1_556
Ca2_5 Ca3_5 3.925627 1_555
Ca2_5 Ca3_0 3.926834 1_556
Ca2_5 Ca3_1 3.926834 1_555
Ca2_6 Ca3_7 3.925627 1_555
Ca2_6 Ca3_6 3.925627 1_555
Ca2_6 Ca3_3 3.926834 1_555
Ca2_6 Ca3_2 3.926834 1_555
Ca2_7 Ca3_6 3.925627 1_556
Ca2_7 Ca3_7 3.925627 1_555
Ca2_7 Ca3_2 3.926834 1_556
Ca2_7 Ca3_3 3.926834 1_555
Ca3_0 Ca3_4 3.942552 1_555
Ca3_0 Ca3_4 3.942552 1_455
Ca3_1 Ca3_5 3.942552 1_555
Ca3_1 Ca3_5 3.942552 1_455
Ca3_2 Ca3_6 3.942552 1_555
Ca3_2 Ca3_6 3.942552 1_455
Ca3_3 Ca3_7 3.942552 1_555
Ca3_3 Ca3_7 3.942552 1_455
