# generated using pymatgen
data_Eu(CrAs)2
_symmetry_space_group_name_H-M   'P 1'
_cell_length_a   6.60564900
_cell_length_b   6.60564900
_cell_length_c   6.60564900
_cell_angle_alpha   144.44769390
_cell_angle_beta   144.44769390
_cell_angle_gamma   51.15835549
_symmetry_Int_Tables_number   1
_chemical_formula_structural   Eu(CrAs)2
_chemical_formula_sum   'Eu1 Cr2 As2'
_cell_volume   96.93010849
_cell_formula_units_Z   1
loop_
 _symmetry_equiv_pos_site_id
 _symmetry_equiv_pos_as_xyz
  1  'x, y, z'
loop_
 _atom_site_type_symbol
 _atom_site_label
 _atom_site_symmetry_multiplicity
 _atom_site_fract_x
 _atom_site_fract_y
 _atom_site_fract_z
 _atom_site_occupancy
  Eu  Eu0  1  0.00000000  0.00000000  0.00000000  1
  Cr  Cr0  1  0.75000000  0.25000000  0.50000000  1
  Cr  Cr1  1  0.25000000  0.75000000  0.50000000  1
  As  As0  1  0.63423500  0.63423500  0.00000000  1
  As  As1  1  0.36576500  0.36576500  0.00000000  1
loop_
_geom_bond_atom_site_label_1
_geom_bond_atom_site_label_2
_geom_bond_distance
_geom_bond_site_symmetry_2
As0 Cr1 2.443382 1_655
As0 Cr0 2.443382 1_554
As0 Cr0 2.443382 1_565
As0 Cr1 2.443382 1_554
As0 Eu0 3.269997 1_655
As0 Eu0 3.269997 1_666
As0 Eu0 3.269997 1_554
As0 Eu0 3.269997 1_565
As1 Cr1 2.443382 1_544
As1 Cr0 2.443382 1_555
As1 Cr0 2.443382 1_454
As1 Cr1 2.443382 1_555
As1 Eu0 3.269997 1_655
As1 Eu0 3.269997 1_666
As1 Eu0 3.269997 1_554
As1 Eu0 3.269997 1_565
