# generated using pymatgen
data_Mg26Ag7
_symmetry_space_group_name_H-M   'P 1'
_cell_length_a   12.52142332
_cell_length_b   12.52142332
_cell_length_c   12.52142332
_cell_angle_alpha   60.00000000
_cell_angle_beta   60.00000000
_cell_angle_gamma   60.00000000
_symmetry_Int_Tables_number   1
_chemical_formula_structural   Mg26Ag7
_chemical_formula_sum   'Mg52 Ag14'
_cell_volume   1388.18100355
_cell_formula_units_Z   2
loop_
 _symmetry_equiv_pos_site_id
 _symmetry_equiv_pos_as_xyz
  1  'x, y, z'
loop_
 _atom_site_type_symbol
 _atom_site_label
 _atom_site_symmetry_multiplicity
 _atom_site_fract_x
 _atom_site_fract_y
 _atom_site_fract_z
 _atom_site_occupancy
  Mg  Mg0  1  0.27328448  0.72671552  0.54960710  1
  Mg  Mg1  1  0.72671552  0.27328448  0.45039290  1
  Mg  Mg2  1  0.45039290  0.54960710  0.72671552  1
  Mg  Mg3  1  0.54960710  0.45039290  0.27328448  1
  Mg  Mg4  1  0.72671552  0.54960710  0.27328448  1
  Mg  Mg5  1  0.27328448  0.45039290  0.72671552  1
  Mg  Mg6  1  0.54960710  0.72671552  0.45039290  1
  Mg  Mg7  1  0.45039290  0.27328448  0.54960710  1
  Mg  Mg8  1  0.54960710  0.27328448  0.72671552  1
  Mg  Mg9  1  0.45039290  0.72671552  0.27328448  1
  Mg  Mg10  1  0.27328448  0.54960710  0.45039290  1
  Mg  Mg11  1  0.72671552  0.45039290  0.54960710  1
  Mg  Mg12  1  0.78567700  0.78567700  0.21432300  1
  Mg  Mg13  1  0.21432300  0.21432300  0.78567700  1
  Mg  Mg14  1  0.78567700  0.21432300  0.78567700  1
  Mg  Mg15  1  0.21432300  0.78567700  0.21432300  1
  Mg  Mg16  1  0.21432300  0.78567700  0.78567700  1
  Mg  Mg17  1  0.78567700  0.21432300  0.21432300  1
  Mg  Mg18  1  0.75000000  0.75000000  0.75000000  1
  Mg  Mg19  1  0.25000000  0.25000000  0.25000000  1
  Mg  Mg20  1  0.79820833  0.00894890  0.68184451  1
  Mg  Mg21  1  0.20179167  0.99105110  0.31815549  1
  Mg  Mg22  1  0.51099827  0.68184451  0.00894890  1
  Mg  Mg23  1  0.68184451  0.51099827  0.79820833  1
  Mg  Mg24  1  0.00894890  0.68184451  0.79820833  1
  Mg  Mg25  1  0.48900173  0.31815549  0.99105110  1
  Mg  Mg26  1  0.31815549  0.48900173  0.20179167  1
  Mg  Mg27  1  0.99105110  0.31815549  0.20179167  1
  Mg  Mg28  1  0.00894890  0.79820833  0.51099827  1
  Mg  Mg29  1  0.68184451  0.00894890  0.51099827  1
  Mg  Mg30  1  0.99105110  0.20179167  0.48900173  1
  Mg  Mg31  1  0.31815549  0.99105110  0.48900173  1
  Mg  Mg32  1  0.51099827  0.79820833  0.68184451  1
  Mg  Mg33  1  0.48900173  0.20179167  0.31815549  1
  Mg  Mg34  1  0.79820833  0.51099827  0.00894890  1
  Mg  Mg35  1  0.20179167  0.48900173  0.99105110  1
  Mg  Mg36  1  0.68184451  0.79820833  0.00894890  1
  Mg  Mg37  1  0.31815549  0.20179167  0.99105110  1
  Mg  Mg38  1  0.79820833  0.68184451  0.51099827  1
  Mg  Mg39  1  0.20179167  0.31815549  0.48900173  1
  Mg  Mg40  1  0.51099827  0.00894890  0.79820833  1
  Mg  Mg41  1  0.48900173  0.99105110  0.20179167  1
  Mg  Mg42  1  0.00894890  0.51099827  0.68184451  1
  Mg  Mg43  1  0.99105110  0.48900173  0.31815549  1
  Mg  Mg44  1  0.90680014  0.90680014  0.90680014  1
  Mg  Mg45  1  0.09319986  0.09319986  0.09319986  1
  Mg  Mg46  1  0.27959957  0.90680014  0.90680014  1
  Mg  Mg47  1  0.90680014  0.27959957  0.90680014  1
  Mg  Mg48  1  0.72040043  0.09319986  0.09319986  1
  Mg  Mg49  1  0.09319986  0.72040043  0.09319986  1
  Mg  Mg50  1  0.90680014  0.90680014  0.27959957  1
  Mg  Mg51  1  0.09319986  0.09319986  0.72040043  1
  Ag  Ag0  1  0.06690440  0.93309560  0.61718236  1
  Ag  Ag1  1  0.93309560  0.06690440  0.38281764  1
  Ag  Ag2  1  0.38281764  0.61718236  0.93309560  1
  Ag  Ag3  1  0.61718236  0.38281764  0.06690440  1
  Ag  Ag4  1  0.93309560  0.61718236  0.06690440  1
  Ag  Ag5  1  0.06690440  0.38281764  0.93309560  1
  Ag  Ag6  1  0.61718236  0.93309560  0.38281764  1
  Ag  Ag7  1  0.38281764  0.06690440  0.61718236  1
  Ag  Ag8  1  0.61718236  0.06690440  0.93309560  1
  Ag  Ag9  1  0.38281764  0.93309560  0.06690440  1
  Ag  Ag10  1  0.06690440  0.61718236  0.38281764  1
  Ag  Ag11  1  0.93309560  0.38281764  0.61718236  1
  Ag  Ag12  1  0.50000000  0.50000000  0.50000000  1
  Ag  Ag13  1  -0.00000000  0.00000000  0.00000000  1
loop_
_geom_bond_atom_site_label_1
_geom_bond_atom_site_label_2
_geom_bond_distance
_geom_bond_site_symmetry_2
Mg18 Mg32 3.206384 1_555
Mg18 Mg23 3.206384 1_555
Mg18 Mg38 3.206384 1_555
Mg18 Mg42 3.206384 1_655
Mg18 Mg29 3.206384 1_565
Mg18 Mg22 3.206384 1_556
Mg18 Mg34 3.206384 1_556
Mg18 Mg28 3.206384 1_655
Mg18 Mg40 3.206384 1_565
Mg18 Mg20 3.206384 1_565
Mg18 Mg24 3.206384 1_655
Mg18 Mg36 3.206384 1_556
Mg19 Mg33 3.206384 1_555
Mg19 Mg39 3.206384 1_555
Mg19 Mg26 3.206384 1_555
Mg19 Mg43 3.206384 1_455
Mg19 Mg31 3.206384 1_545
Mg19 Mg25 3.206384 1_554
Mg19 Mg41 3.206384 1_545
Mg19 Mg30 3.206384 1_455
Mg19 Mg35 3.206384 1_554
Mg19 Mg27 3.206384 1_455
Mg19 Mg37 3.206384 1_554
Mg19 Mg21 3.206384 1_545
Ag0 Mg0 2.719172 1_555
Ag0 Mg20 2.779682 1_465
Ag0 Mg30 2.779682 1_465
Ag0 Mg16 2.803308 1_555
Ag0 Mg31 3.011482 1_555
Ag0 Mg24 3.011482 1_555
Ag0 Mg44 3.078046 1_455
Ag0 Mg51 3.078046 1_565
Ag0 Mg28 3.095674 1_555
Ag0 Mg21 3.095674 1_555
Ag1 Mg1 2.719172 1_555
Ag1 Mg21 2.779682 1_645
Ag1 Mg28 2.779682 1_645
Ag1 Mg17 2.803308 1_555
Ag1 Mg29 3.011482 1_555
Ag1 Mg27 3.011482 1_555
Ag1 Mg45 3.078046 1_655
Ag1 Mg50 3.078046 1_545
Ag1 Mg30 3.095674 1_555
Ag1 Mg20 3.095674 1_555
Ag2 Mg2 2.719172 1_555
Ag2 Mg26 2.779682 1_556
Ag2 Mg22 2.779682 1_556
Ag2 Mg16 2.803308 1_555
Ag2 Mg32 3.011482 1_555
Ag2 Mg35 3.011482 1_555
Ag2 Mg46 3.078046 1_555
Ag2 Mg49 3.078046 1_556
Ag2 Mg23 3.095674 1_555
Ag2 Mg25 3.095674 1_555
Ag3 Mg3 2.719172 1_555
Ag3 Mg23 2.779682 1_554
Ag3 Mg25 2.779682 1_554
Ag3 Mg17 2.803308 1_555
Ag3 Mg33 3.011482 1_555
Ag3 Mg34 3.011482 1_555
Ag3 Mg48 3.078046 1_555
Ag3 Mg47 3.078046 1_554
Ag3 Mg26 3.095674 1_555
Ag3 Mg22 3.095674 1_555
Ag4 Mg4 2.719172 1_555
Ag4 Mg24 2.779682 1_654
Ag4 Mg35 2.779682 1_654
Ag4 Mg12 2.803308 1_555
Ag4 Mg43 3.011482 1_555
Ag4 Mg36 3.011482 1_555
Ag4 Mg44 3.078046 1_554
Ag4 Mg49 3.078046 1_655
Ag4 Mg34 3.095674 1_555
Ag4 Mg27 3.095674 1_555
Ag5 Mg5 2.719172 1_555
Ag5 Mg27 2.779682 1_456
Ag5 Mg34 2.779682 1_456
Ag5 Mg13 2.803308 1_555
Ag5 Mg42 3.011482 1_555
Ag5 Mg37 3.011482 1_555
Ag5 Mg45 3.078046 1_556
Ag5 Mg47 3.078046 1_455
Ag5 Mg35 3.095674 1_555
Ag5 Mg24 3.095674 1_555
Ag6 Mg6 2.719172 1_555
Ag6 Mg33 2.779682 1_565
Ag6 Mg29 2.779682 1_565
Ag6 Mg12 2.803308 1_555
Ag6 Mg38 3.011482 1_555
Ag6 Mg41 3.011482 1_555
Ag6 Mg50 3.078046 1_555
Ag6 Mg48 3.078046 1_565
Ag6 Mg32 3.095674 1_555
Ag6 Mg31 3.095674 1_555
Ag7 Mg7 2.719172 1_555
Ag7 Mg32 2.779682 1_545
Ag7 Mg31 2.779682 1_545
Ag7 Mg13 2.803308 1_555
Ag7 Mg39 3.011482 1_555
Ag7 Mg40 3.011482 1_555
Ag7 Mg51 3.078046 1_555
Ag7 Mg46 3.078046 1_545
Ag7 Mg33 3.095674 1_555
Ag7 Mg29 3.095674 1_555
Ag8 Mg8 2.719172 1_555
Ag8 Mg36 2.779682 1_546
Ag8 Mg41 2.779682 1_546
Ag8 Mg14 2.803308 1_555
Ag8 Mg25 3.011482 1_555
Ag8 Mg20 3.011482 1_555
Ag8 Mg44 3.078046 1_545
Ag8 Mg48 3.078046 1_556
Ag8 Mg40 3.095674 1_555
Ag8 Mg37 3.095674 1_555
Ag9 Mg9 2.719172 1_555
Ag9 Mg37 2.779682 1_564
Ag9 Mg40 2.779682 1_564
Ag9 Mg15 2.803308 1_555
Ag9 Mg22 3.011482 1_555
Ag9 Mg21 3.011482 1_555
Ag9 Mg45 3.078046 1_565
Ag9 Mg46 3.078046 1_554
Ag9 Mg41 3.095674 1_555
Ag9 Mg36 3.095674 1_555
Ag10 Mg10 2.719172 1_555
Ag10 Mg38 2.779682 1_455
Ag10 Mg43 2.779682 1_455
Ag10 Mg15 2.803308 1_555
Ag10 Mg26 3.011482 1_555
Ag10 Mg28 3.011482 1_555
Ag10 Mg49 3.078046 1_555
Ag10 Mg50 3.078046 1_455
Ag10 Mg39 3.095674 1_555
Ag10 Mg42 3.095674 1_555
Ag11 Mg11 2.719172 1_555
Ag11 Mg39 2.779682 1_655
Ag11 Mg42 2.779682 1_655
Ag11 Mg14 2.803308 1_555
Ag11 Mg23 3.011482 1_555
Ag11 Mg30 3.011482 1_555
Ag11 Mg47 3.078046 1_555
Ag11 Mg51 3.078046 1_655
Ag11 Mg38 3.095674 1_555
Ag11 Mg43 3.095674 1_555
Ag12 Mg11 2.905963 1_555
Ag12 Mg0 2.905963 1_555
Ag12 Mg6 2.905963 1_555
Ag12 Mg4 2.905963 1_555
Ag12 Mg8 2.905963 1_555
Ag12 Mg2 2.905963 1_555
Ag12 Mg10 2.905963 1_555
Ag12 Mg1 2.905963 1_555
Ag12 Mg5 2.905963 1_555
Ag12 Mg9 2.905963 1_555
Ag12 Mg3 2.905963 1_555
Ag12 Mg7 2.905963 1_555
Ag13 Mg51 2.858542 1_554
Ag13 Mg47 2.858542 1_454
Ag13 Mg46 2.858542 1_544
Ag13 Mg48 2.858542 1_455
Ag13 Mg49 2.858542 1_545
Ag13 Mg50 2.858542 1_445
Ag13 Mg45 2.858542 1_555
Ag13 Mg44 2.858542 1_444
