# generated using pymatgen
data_LiP3N2O11
_symmetry_space_group_name_H-M   'P 1'
_cell_length_a   8.46919414
_cell_length_b   16.60255200
_cell_length_c   7.61765764
_cell_angle_alpha   90.00000000
_cell_angle_beta   104.98787902
_cell_angle_gamma   90.00000000
_symmetry_Int_Tables_number   1
_chemical_formula_structural   LiP3N2O11
_chemical_formula_sum   'Li4 P12 N8 O44'
_cell_volume   1034.68171325
_cell_formula_units_Z   4
loop_
 _symmetry_equiv_pos_site_id
 _symmetry_equiv_pos_as_xyz
  1  'x, y, z'
loop_
 _atom_site_type_symbol
 _atom_site_label
 _atom_site_symmetry_multiplicity
 _atom_site_fract_x
 _atom_site_fract_y
 _atom_site_fract_z
 _atom_site_occupancy
  Li  Li0  1  0.41617600  0.22303500  0.82481700  1
  Li  Li1  1  0.58382400  0.72303500  0.67518300  1
  Li  Li2  1  0.58382400  0.77696500  0.17518300  1
  Li  Li3  1  0.41617600  0.27696500  0.32481700  1
  P  P0  1  0.49059000  0.11841300  0.14570800  1
  P  P1  1  0.50941000  0.61841300  0.35429200  1
  P  P2  1  0.50941000  0.88158700  0.85429200  1
  P  P3  1  0.49059000  0.38158700  0.64570800  1
  P  P4  1  0.16686800  0.10133900  0.88880500  1
  P  P5  1  0.83313200  0.60133900  0.61119500  1
  P  P6  1  0.83313200  0.89866100  0.11119500  1
  P  P7  1  0.16686800  0.39866100  0.38880500  1
  P  P8  1  0.75151300  0.01303400  0.36385900  1
  P  P9  1  0.24848700  0.51303400  0.13614100  1
  P  P10  1  0.24848700  0.98696600  0.63614100  1
  P  P11  1  0.75151300  0.48696600  0.86385900  1
  N  N0  1  0.02375400  0.18862500  0.11612700  1
  N  N1  1  0.97624600  0.68862500  0.38387300  1
  N  N2  1  0.97624600  0.81137500  0.88387300  1
  N  N3  1  0.02375400  0.31137500  0.61612700  1
  N  N4  1  0.72219800  0.37377100  0.13282500  1
  N  N5  1  0.27780200  0.87377100  0.36717500  1
  N  N6  1  0.27780200  0.62622900  0.86717500  1
  N  N7  1  0.72219800  0.12622900  0.63282500  1
  O  O0  1  0.55064600  0.15158900  0.99181100  1
  O  O1  1  0.44935400  0.65158900  0.50818900  1
  O  O2  1  0.44935400  0.84841100  0.00818900  1
  O  O3  1  0.55064600  0.34841100  0.49181100  1
  O  O4  1  0.48567900  0.17209900  0.30228200  1
  O  O5  1  0.51432100  0.67209900  0.19771800  1
  O  O6  1  0.51432100  0.82790100  0.69771800  1
  O  O7  1  0.48567900  0.32790100  0.80228200  1
  O  O8  1  0.30655600  0.07900200  0.06699700  1
  O  O9  1  0.69344400  0.57900200  0.43300300  1
  O  O10  1  0.69344400  0.92099800  0.93300300  1
  O  O11  1  0.30655600  0.42099800  0.56699700  1
  O  O12  1  0.14041000  0.01984000  0.77139400  1
  O  O13  1  0.85959000  0.51984000  0.72860600  1
  O  O14  1  0.85959000  0.98016000  0.22860600  1
  O  O15  1  0.14041000  0.48016000  0.27139400  1
  O  O16  1  0.20800200  0.17348900  0.79304000  1
  O  O17  1  0.79199800  0.67348900  0.70696000  1
  O  O18  1  0.79199800  0.82651100  0.20696000  1
  O  O19  1  0.20800200  0.32651100  0.29304000  1
  O  O20  1  0.00356900  0.10837300  0.94745300  1
  O  O21  1  0.99643100  0.60837300  0.55254700  1
  O  O22  1  0.99643100  0.89162700  0.05254700  1
  O  O23  1  0.00356900  0.39162700  0.44745300  1
  O  O24  1  0.27775800  0.04820100  0.50754800  1
  O  O25  1  0.72224200  0.54820100  0.99245200  1
  O  O26  1  0.72224200  0.95179900  0.49245200  1
  O  O27  1  0.27775800  0.45179900  0.00754800  1
  O  O28  1  0.83227300  0.09302400  0.44208000  1
  O  O29  1  0.16772700  0.59302400  0.05792000  1
  O  O30  1  0.16772700  0.90697600  0.55792000  1
  O  O31  1  0.83227300  0.40697600  0.94208000  1
  O  O32  1  0.58163300  0.03481900  0.21612900  1
  O  O33  1  0.41836700  0.53481900  0.28387100  1
  O  O34  1  0.41836700  0.96518100  0.78387100  1
  O  O35  1  0.58163300  0.46518100  0.71612900  1
  O  O36  1  0.65462300  0.42334400  0.18336500  1
  O  O37  1  0.34537700  0.92334400  0.31663500  1
  O  O38  1  0.34537700  0.57665600  0.81663500  1
  O  O39  1  0.65462300  0.07665600  0.68336500  1
  O  O40  1  0.89809000  0.28530600  0.60591400  1
  O  O41  1  0.10191000  0.78530600  0.89408600  1
  O  O42  1  0.10191000  0.71469400  0.39408600  1
  O  O43  1  0.89809000  0.21469400  0.10591400  1
loop_
_geom_bond_atom_site_label_1
_geom_bond_atom_site_label_2
_geom_bond_distance
_geom_bond_site_symmetry_2
Li0 O7 1.859961 1_555
Li0 O0 1.890222 1_555
Li0 O16 1.903394 1_555
Li1 O6 1.859961 1_555
Li1 O1 1.890222 1_555
Li1 O17 1.903394 1_555
Li2 O5 1.859961 1_555
Li2 O2 1.890222 1_555
Li2 O18 1.903394 1_555
Li3 O4 1.859961 1_555
Li3 O3 1.890222 1_555
Li3 O19 1.903394 1_555
N0 O43 1.132797 1_455
N0 O20 1.828070 1_554
N1 O42 1.132797 1_655
N1 O21 1.828070 1_555
N2 O41 1.132797 1_655
N2 O22 1.828070 1_556
N3 O40 1.132797 1_455
N3 O23 1.828070 1_555
N4 O36 1.125661 1_555
N4 O31 1.996228 1_554
N5 O37 1.125661 1_555
N5 O30 1.996228 1_555
N6 O38 1.125661 1_555
N6 O29 1.996228 1_556
N7 O39 1.125661 1_555
N7 O28 1.996228 1_555
O0 P0 1.498289 1_556
O1 P1 1.498289 1_555
O2 P2 1.498289 1_554
O3 P3 1.498289 1_555
O4 P0 1.498148 1_555
O5 P1 1.498148 1_555
O6 P2 1.498148 1_555
O7 P3 1.498148 1_555
O8 P4 1.596581 1_554
O8 P0 1.653353 1_555
O9 P5 1.596581 1_555
O9 P1 1.653353 1_555
O10 P6 1.596581 1_556
O10 P2 1.653353 1_555
O11 P7 1.596581 1_555
O11 P3 1.653353 1_555
O12 P4 1.605414 1_555
O12 P10 1.638607 1_545
O13 P5 1.605414 1_555
O13 P11 1.638607 1_555
O14 P6 1.605414 1_555
O14 P8 1.638607 1_565
O15 P7 1.605414 1_555
O15 P9 1.638607 1_555
O16 P4 1.489930 1_555
O17 P5 1.489930 1_555
O18 P6 1.489930 1_555
O19 P7 1.489930 1_555
O20 P4 1.563821 1_555
O21 P5 1.563821 1_555
O22 P6 1.563821 1_555
O23 P7 1.563821 1_555
O24 P10 1.476558 1_545
O25 P11 1.476558 1_555
O26 P8 1.476558 1_565
O27 P9 1.476558 1_555
O28 P8 1.541349 1_555
O29 P9 1.541349 1_555
O30 P10 1.541349 1_555
O31 P11 1.541349 1_555
O32 P0 1.610763 1_555
O32 P8 1.621662 1_555
O33 P1 1.610763 1_555
O33 P9 1.621662 1_555
O34 P2 1.610763 1_555
O34 P10 1.621662 1_555
O35 P3 1.610763 1_555
O35 P11 1.621662 1_555
