# generated using pymatgen
data_Ba3Ga4Sb5
_symmetry_space_group_name_H-M   'P 1'
_cell_length_a   4.49331100
_cell_length_b   13.53705600
_cell_length_c   25.68597700
_cell_angle_alpha   90.00000000
_cell_angle_beta   90.00000000
_cell_angle_gamma   90.00000000
_symmetry_Int_Tables_number   1
_chemical_formula_structural   Ba3Ga4Sb5
_chemical_formula_sum   'Ba12 Ga16 Sb20'
_cell_volume   1562.38044181
_cell_formula_units_Z   4
loop_
 _symmetry_equiv_pos_site_id
 _symmetry_equiv_pos_as_xyz
  1  'x, y, z'
loop_
 _atom_site_type_symbol
 _atom_site_label
 _atom_site_symmetry_multiplicity
 _atom_site_fract_x
 _atom_site_fract_y
 _atom_site_fract_z
 _atom_site_occupancy
  Ba  Ba0  1  0.50000000  0.07088800  0.00366300  1
  Ba  Ba1  1  0.50000000  0.57883500  0.49142900  1
  Ba  Ba2  1  0.00000000  0.42116500  0.99142900  1
  Ba  Ba3  1  0.00000000  0.92911200  0.50366300  1
  Ba  Ba4  1  0.00000000  0.27266800  0.38060900  1
  Ba  Ba5  1  0.00000000  0.76251200  0.11497600  1
  Ba  Ba6  1  0.50000000  0.23748800  0.61497600  1
  Ba  Ba7  1  0.50000000  0.72733200  0.88061000  1
  Ba  Ba8  1  0.50000000  0.11112300  0.22200200  1
  Ba  Ba9  1  0.50000000  0.60242300  0.28200800  1
  Ba  Ba10  1  0.00000000  0.39757700  0.78200800  1
  Ba  Ba11  1  0.00000000  0.88887700  0.72200200  1
  Ga  Ga0  1  0.00000000  0.34657800  0.22428900  1
  Ga  Ga1  1  0.00000000  0.84708800  0.27871300  1
  Ga  Ga2  1  0.50000000  0.15291200  0.77871300  1
  Ga  Ga3  1  0.50000000  0.65342200  0.72428900  1
  Ga  Ga4  1  0.50000000  0.00965800  0.38421200  1
  Ga  Ga5  1  0.50000000  0.49637800  0.11513900  1
  Ga  Ga6  1  0.00000000  0.50362200  0.61513900  1
  Ga  Ga7  1  0.00000000  0.99034200  0.88421200  1
  Ga  Ga8  1  0.00000000  0.25254700  0.13734200  1
  Ga  Ga9  1  0.00000000  0.74192300  0.36499100  1
  Ga  Ga10  1  0.50000000  0.25807700  0.86499100  1
  Ga  Ga11  1  0.50000000  0.74745300  0.63734200  1
  Ga  Ga12  1  0.50000000  0.93392000  0.11639600  1
  Ga  Ga13  1  0.00000000  0.06608000  0.61639600  1
  Ga  Ga14  1  0.00000000  0.66402700  0.97162600  1
  Ga  Ga15  1  0.50000000  0.33597300  0.47162600  1
  Sb  Sb0  1  0.50000000  0.83721600  0.21678700  1
  Sb  Sb1  1  0.50000000  0.34213600  0.28390200  1
  Sb  Sb2  1  0.00000000  0.65786400  0.78390200  1
  Sb  Sb3  1  0.00000000  0.16278400  0.71678700  1
  Sb  Sb4  1  0.50000000  0.30376000  0.08239000  1
  Sb  Sb5  1  0.50000000  0.81152300  0.41486800  1
  Sb  Sb6  1  0.00000000  0.18847700  0.91486800  1
  Sb  Sb7  1  0.00000000  0.69624000  0.58239000  1
  Sb  Sb8  1  0.00000000  0.05212500  0.11537500  1
  Sb  Sb9  1  0.00000000  0.54446400  0.38548700  1
  Sb  Sb10  1  0.50000000  0.45553600  0.88548700  1
  Sb  Sb11  1  0.50000000  0.94787500  0.61537500  1
  Sb  Sb12  1  0.50000000  0.12719300  0.47125400  1
  Sb  Sb13  1  0.50000000  0.63364600  0.03574000  1
  Sb  Sb14  1  0.00000000  0.36635400  0.53574000  1
  Sb  Sb15  1  0.00000000  0.87280700  0.97125400  1
  Sb  Sb16  1  0.00000000  0.02947900  0.32311300  1
  Sb  Sb17  1  0.00000000  0.52530600  0.17554900  1
  Sb  Sb18  1  0.50000000  0.47469400  0.67554900  1
  Sb  Sb19  1  0.50000000  0.97052100  0.82311300  1
loop_
_geom_bond_atom_site_label_1
_geom_bond_atom_site_label_2
_geom_bond_distance
_geom_bond_site_symmetry_2
Ba0 Ga12 3.438412 1_545
Ba0 Sb6 3.575374 1_554
Ba0 Sb6 3.575374 1_654
Ba0 Sb15 3.595905 1_544
Ba0 Sb15 3.595905 1_644
Ba0 Sb8 3.653165 1_555
Ba0 Sb8 3.653165 1_655
Ba0 Sb4 3.745243 1_555
Ba1 Ga15 3.326753 1_555
Ba1 Sb9 3.559355 1_655
Ba1 Sb9 3.559355 1_555
Ba1 Sb7 3.610022 1_555
Ba1 Sb7 3.610022 1_655
Ba1 Sb5 3.713385 1_555
Ba1 Sb14 3.823138 1_555
Ba1 Sb14 3.823138 1_655
Ba2 Ga14 3.326753 1_555
Ba2 Sb10 3.559355 1_555
Ba2 Sb10 3.559355 1_455
Ba2 Sb4 3.610022 1_456
Ba2 Sb4 3.610022 1_556
Ba2 Sb6 3.713385 1_555
Ba2 Sb13 3.823138 1_556
Ba2 Sb13 3.823138 1_456
Ba3 Ga13 3.438412 1_565
Ba3 Sb5 3.575374 1_555
Ba3 Sb5 3.575374 1_455
Ba3 Sb12 3.595905 1_465
Ba3 Sb12 3.595905 1_565
Ba3 Sb11 3.653165 1_555
Ba3 Sb11 3.653165 1_455
Ba3 Sb7 3.745243 1_555
Ba4 Ga15 3.353720 1_455
Ba4 Ga15 3.353720 1_555
Ba4 Sb1 3.478811 1_455
Ba4 Sb1 3.478811 1_555
Ba4 Sb16 3.608149 1_555
Ba4 Sb9 3.681450 1_555
Ba4 Sb12 3.787694 1_555
Ba4 Sb12 3.787694 1_455
Ba5 Ga12 3.229994 1_555
Ba5 Ga12 3.229994 1_455
Ba5 Sb13 3.497554 1_555
Ba5 Sb13 3.497554 1_455
Ba5 Sb17 3.568155 1_555
Ba5 Sb0 3.592904 1_455
Ba5 Sb0 3.592904 1_555
Ba5 Sb15 3.982143 1_554
Ba6 Ga13 3.229994 1_555
Ba6 Ga13 3.229994 1_655
Ba6 Sb14 3.497554 1_555
Ba6 Sb14 3.497554 1_655
Ba6 Sb18 3.568155 1_555
Ba6 Sb3 3.592904 1_555
Ba6 Sb3 3.592904 1_655
Ba6 Sb12 3.982143 1_555
Ba7 Ga14 3.353702 1_655
Ba7 Ga14 3.353702 1_555
Ba7 Sb2 3.478829 1_655
Ba7 Sb2 3.478829 1_555
Ba7 Sb19 3.608159 1_555
Ba7 Sb10 3.681450 1_555
Ba7 Sb15 3.787678 1_555
Ba7 Sb15 3.787678 1_655
Ba8 Sb1 3.508217 1_555
Ba8 Sb16 3.607503 1_555
Ba8 Sb16 3.607503 1_655
Ba8 Ga12 3.621110 1_545
Ba8 Sb8 3.631315 1_655
Ba8 Sb8 3.631315 1_555
Ba8 Ga8 3.666253 1_555
Ba8 Ga8 3.666253 1_655
Ba8 Sb0 3.710313 1_545
Ba8 Ga0 3.900029 1_555
Ba8 Ga0 3.900029 1_655
Ba9 Sb1 3.523856 1_555
Ba9 Sb9 3.567604 1_655
Ba9 Sb9 3.567604 1_555
Ba9 Sb0 3.592879 1_555
Ba9 Ga9 3.627241 1_655
Ba9 Ga9 3.627241 1_555
Ba9 Sb17 3.689820 1_555
Ba9 Sb17 3.689820 1_655
Ba10 Sb2 3.523856 1_555
Ba10 Sb10 3.567604 1_455
Ba10 Sb10 3.567604 1_555
Ba10 Sb3 3.592879 1_555
Ba10 Ga10 3.627241 1_555
Ba10 Ga10 3.627241 1_455
Ba10 Sb18 3.689820 1_455
Ba10 Sb18 3.689820 1_555
Ba11 Sb2 3.508217 1_555
Ba11 Sb19 3.607503 1_455
Ba11 Sb19 3.607503 1_555
Ba11 Ga13 3.621110 1_565
Ba11 Sb11 3.631315 1_455
Ba11 Sb11 3.631315 1_555
Ba11 Ga11 3.666253 1_455
Ba11 Ga11 3.666253 1_555
Ba11 Sb3 3.710313 1_565
Ba11 Ga3 3.900029 1_555
Ba11 Ga3 3.900029 1_455
Ga0 Ga8 2.570602 1_555
Ga0 Sb1 2.719505 1_555
Ga0 Sb1 2.719505 1_455
Ga0 Sb17 2.724166 1_555
Ga1 Ga9 2.634001 1_555
Ga1 Sb16 2.719704 1_565
Ga1 Sb0 2.755980 1_455
Ga1 Sb0 2.755980 1_555
Ga2 Sb19 2.719704 1_545
Ga2 Sb3 2.755980 1_555
Ga2 Sb3 2.755980 1_655
Ga3 Sb2 2.719505 1_655
Ga3 Sb2 2.719505 1_555
Ga3 Sb18 2.724166 1_555
Ga4 Sb12 2.744111 1_555
Ga4 Sb16 2.753622 1_555
Ga4 Sb16 2.753622 1_655
Ga4 Sb5 2.795363 1_545
Ga5 Sb4 2.739809 1_555
Ga5 Sb17 2.758361 1_555
Ga5 Sb17 2.758361 1_655
Ga5 Sb13 2.759029 1_555
Ga6 Sb7 2.739809 1_555
Ga6 Sb18 2.758361 1_555
Ga6 Sb18 2.758361 1_455
Ga6 Sb14 2.759029 1_555
Ga7 Sb15 2.744111 1_555
Ga7 Sb19 2.753622 1_455
Ga7 Sb19 2.753622 1_555
Ga7 Sb6 2.795363 1_565
Ga8 Sb4 2.742336 1_455
Ga8 Sb4 2.742336 1_555
Ga8 Sb8 2.771175 1_555
Ga9 Sb9 2.724364 1_555
Ga9 Sb5 2.752541 1_555
Ga9 Sb5 2.752541 1_455
Ga10 Ga2 2.634001 1_555
Ga10 Sb10 2.724364 1_555
Ga10 Sb6 2.752541 1_555
Ga10 Sb6 2.752541 1_655
Ga11 Ga3 2.570602 1_555
Ga11 Sb7 2.742336 1_555
Ga11 Sb7 2.742336 1_655
Ga11 Sb11 2.771175 1_555
Ga12 Sb8 2.758373 1_665
Ga12 Sb8 2.758373 1_565
Ga12 Sb0 2.891902 1_555
Ga13 Sb11 2.758373 1_545
Ga13 Sb11 2.758373 1_445
Ga13 Sb3 2.891902 1_555
Ga14 Sb13 2.815787 1_556
Ga14 Sb13 2.815787 1_456
Ga14 Sb15 2.826283 1_555
Ga15 Sb14 2.815787 1_555
Ga15 Sb14 2.815787 1_655
Ga15 Sb12 2.826283 1_555
