# generated using pymatgen
data_Mg2FeWO6
_symmetry_space_group_name_H-M   'P 1'
_cell_length_a   5.23208223
_cell_length_b   5.33566350
_cell_length_c   7.89186282
_cell_angle_alpha   89.97057012
_cell_angle_beta   89.82267791
_cell_angle_gamma   90.10514984
_symmetry_Int_Tables_number   1
_chemical_formula_structural   Mg2FeWO6
_chemical_formula_sum   'Mg4 Fe2 W2 O12'
_cell_volume   220.31276000
_cell_formula_units_Z   2
loop_
 _symmetry_equiv_pos_site_id
 _symmetry_equiv_pos_as_xyz
  1  'x, y, z'
loop_
 _atom_site_type_symbol
 _atom_site_label
 _atom_site_symmetry_multiplicity
 _atom_site_fract_x
 _atom_site_fract_y
 _atom_site_fract_z
 _atom_site_occupancy
  Mg  Mg0  1  0.00215100  0.03944700  0.27244100  1
  Mg  Mg1  1  0.49938300  0.53981100  0.22799300  1
  Mg  Mg2  1  0.99798700  0.96045900  0.72765600  1
  Mg  Mg3  1  0.50056900  0.46007300  0.77201500  1
  Fe  Fe0  1  0.99982100  0.49993900  0.49983500  1
  Fe  Fe1  1  0.49999300  0.99996600  0.00020100  1
  W  W0  1  0.99996100  0.50005700  0.99997200  1
  W  W1  1  0.50001200  0.99997500  0.50004800  1
  O  O0  1  0.65876900  0.29946000  0.40441800  1
  O  O1  1  0.84177000  0.79825000  0.09655100  1
  O  O2  1  0.34126300  0.70041800  0.59549100  1
  O  O3  1  0.15829500  0.20177000  0.90349700  1
  O  O4  1  0.18044300  0.17392800  0.54522000  1
  O  O5  1  0.31979800  0.67454100  0.95405500  1
  O  O6  1  0.81950200  0.82624800  0.45470200  1
  O  O7  1  0.68020100  0.32574000  0.04592900  1
  O  O8  1  0.12916100  0.40221700  0.22481900  1
  O  O9  1  0.37173100  0.90254900  0.27491500  1
  O  O10  1  0.62831400  0.09740600  0.72508800  1
  O  O11  1  0.87088100  0.59774800  0.77515200  1
loop_
_geom_bond_atom_site_label_1
_geom_bond_atom_site_label_2
_geom_bond_distance
_geom_bond_site_symmetry_2
Mg0 O6 2.064469 1_445
Mg0 O9 2.068434 1_545
Mg0 O1 2.071778 1_445
Mg0 O8 2.079049 1_555
Mg0 O4 2.455786 1_555
Mg0 O0 2.497271 1_455
Mg1 O7 2.064308 1_555
Mg1 O8 2.070460 1_555
Mg1 O0 2.070723 1_555
Mg1 O9 2.081611 1_555
Mg1 O5 2.467148 1_554
Mg1 O1 2.482859 1_555
Mg2 O4 2.065757 1_665
Mg2 O10 2.068991 1_565
Mg2 O3 2.071741 1_665
Mg2 O11 2.078738 1_555
Mg2 O6 2.456964 1_555
Mg2 O2 2.497572 1_655
Mg3 O5 2.065239 1_555
Mg3 O11 2.071048 1_555
Mg3 O2 2.071059 1_555
Mg3 O10 2.081422 1_555
Mg3 O7 2.466460 1_556
Mg3 O3 2.482163 1_555
Fe0 O4 2.013620 1_655
Fe0 O6 2.013894 1_555
Fe0 O0 2.213037 1_555
Fe0 O2 2.215331 1_655
Fe0 O8 2.331045 1_655
Fe0 O11 2.332758 1_555
Fe1 O5 2.008281 1_554
Fe1 O7 2.009321 1_565
Fe1 O1 2.224611 1_555
Fe1 O3 2.225469 1_564
Fe1 O9 2.325795 1_555
Fe1 O10 2.328843 1_564
O0 W1 1.950121 1_545
O1 W0 1.949257 1_554
O2 W1 1.949850 1_555
O3 W0 1.949665 1_455
O4 W1 1.945900 1_545
O5 W0 1.946419 1_455
O6 W1 1.945216 1_555
O7 W0 1.945706 1_554
O8 W0 1.971285 1_454
O9 W1 1.970909 1_555
O10 W1 1.970291 1_545
O11 W0 1.970665 1_555
