# generated using pymatgen
data_Li5Mn3O8
_symmetry_space_group_name_H-M   'P 1'
_cell_length_a   5.86376912
_cell_length_b   5.86376912
_cell_length_c   5.86376891
_cell_angle_alpha   59.87198566
_cell_angle_beta   59.87198566
_cell_angle_gamma   59.87199196
_symmetry_Int_Tables_number   1
_chemical_formula_structural   Li5Mn3O8
_chemical_formula_sum   'Li5 Mn3 O8'
_cell_volume   142.15176196
_cell_formula_units_Z   1
loop_
 _symmetry_equiv_pos_site_id
 _symmetry_equiv_pos_as_xyz
  1  'x, y, z'
loop_
 _atom_site_type_symbol
 _atom_site_label
 _atom_site_symmetry_multiplicity
 _atom_site_fract_x
 _atom_site_fract_y
 _atom_site_fract_z
 _atom_site_occupancy
  Li  Li0  1  0.00000000  0.50000000  0.50000000  1
  Li  Li1  1  0.50000000  0.50000000  0.00000000  1
  Li  Li2  1  0.00000000  0.00000000  0.00000000  1
  Li  Li3  1  0.50000000  0.00000000  0.50000000  1
  Li  Li4  1  0.50000000  0.50000000  0.50000000  1
  Mn  Mn0  1  0.50000000  0.00000000  0.00000000  1
  Mn  Mn1  1  0.00000000  0.00000000  0.50000000  1
  Mn  Mn2  1  0.00000000  0.50000000  0.00000000  1
  O  O0  1  0.77804300  0.25024300  0.25024300  1
  O  O1  1  0.25024300  0.25024300  0.77804300  1
  O  O2  1  0.75443300  0.75443300  0.75443300  1
  O  O3  1  0.25024300  0.77804300  0.25024300  1
  O  O4  1  0.22195700  0.74975700  0.74975700  1
  O  O5  1  0.74975700  0.74975700  0.22195700  1
  O  O6  1  0.24556700  0.24556700  0.24556700  1
  O  O7  1  0.74975700  0.22195700  0.74975700  1
loop_
_geom_bond_atom_site_label_1
_geom_bond_atom_site_label_2
_geom_bond_distance
_geom_bond_site_symmetry_2
Li0 O2 2.108659 1_455
Li0 O6 2.108659 1_555
Li0 O3 2.191685 1_555
Li0 O7 2.191685 1_455
Li0 O1 2.191685 1_555
Li0 O5 2.191685 1_455
Li1 O2 2.108659 1_554
Li1 O6 2.108659 1_555
Li1 O3 2.191685 1_555
Li1 O0 2.191685 1_555
Li1 O7 2.191685 1_554
Li1 O4 2.191685 1_554
Li2 O1 2.080240 1_554
Li2 O5 2.080240 1_445
Li2 O3 2.080240 1_545
Li2 O7 2.080240 1_454
Li2 O0 2.080240 1_455
Li2 O4 2.080240 1_544
Li3 O2 2.108659 1_545
Li3 O6 2.108659 1_555
Li3 O0 2.191685 1_555
Li3 O4 2.191685 1_545
Li3 O1 2.191685 1_555
Li3 O5 2.191685 1_545
Li4 O1 2.075321 1_555
Li4 O5 2.075321 1_555
Li4 O3 2.075322 1_555
Li4 O0 2.075322 1_555
Li4 O7 2.075322 1_555
Li4 O4 2.075322 1_555
Mn0 O7 1.957261 1_554
Mn0 O3 1.957261 1_545
Mn0 O5 1.957262 1_545
Mn0 O1 1.957262 1_554
Mn0 O6 2.034946 1_555
Mn0 O2 2.034946 1_544
Mn1 O4 1.957262 1_545
Mn1 O7 1.957262 1_455
Mn1 O0 1.957262 1_455
Mn1 O3 1.957262 1_545
Mn1 O6 2.034946 1_555
Mn1 O2 2.034946 1_445
Mn2 O4 1.957261 1_554
Mn2 O0 1.957261 1_455
Mn2 O5 1.957262 1_455
Mn2 O1 1.957262 1_554
Mn2 O6 2.034946 1_555
Mn2 O2 2.034946 1_454
