# generated using pymatgen
data_Li2MnPO4F
_symmetry_space_group_name_H-M   'P 1'
_cell_length_a   5.44889400
_cell_length_b   5.46507117
_cell_length_c   7.53646172
_cell_angle_alpha   107.14796392
_cell_angle_beta   106.66384481
_cell_angle_gamma   94.97539170
_symmetry_Int_Tables_number   1
_chemical_formula_structural   Li2MnPO4F
_chemical_formula_sum   'Li4 Mn2 P2 O8 F2'
_cell_volume   201.81471846
_cell_formula_units_Z   2
loop_
 _symmetry_equiv_pos_site_id
 _symmetry_equiv_pos_as_xyz
  1  'x, y, z'
loop_
 _atom_site_type_symbol
 _atom_site_label
 _atom_site_symmetry_multiplicity
 _atom_site_fract_x
 _atom_site_fract_y
 _atom_site_fract_z
 _atom_site_occupancy
  Li  Li0  1  0.41314200  0.75244900  0.84801900  1
  Li  Li1  1  0.86845500  0.55067800  0.15345100  1
  Li  Li2  1  0.00086000  0.49936700  0.51465000  1
  Li  Li3  1  0.55116400  0.19476400  0.16906200  1
  Mn  Mn0  1  0.99771100  0.00420000  0.99098300  1
  Mn  Mn1  1  0.01856700  0.01800900  0.51342200  1
  P  P0  1  0.63122100  0.34535500  0.76163200  1
  P  P1  1  0.37509900  0.65970200  0.23031100  1
  O  O0  1  0.20865700  0.72690400  0.36889400  1
  O  O1  1  0.78041400  0.27510900  0.61440100  1
  O  O2  1  0.66903800  0.66677000  0.33490900  1
  O  O3  1  0.35095500  0.85536100  0.11273100  1
  O  O4  1  0.65639900  0.16109600  0.88938200  1
  O  O5  1  0.74736700  0.62976400  0.91332200  1
  O  O6  1  0.34076100  0.34722300  0.65874500  1
  O  O7  1  0.25850100  0.37632800  0.08778200  1
  F  F0  1  0.90921400  0.17918700  0.27161900  1
  F  F1  1  0.09084000  0.82985000  0.72527400  1
loop_
_geom_bond_atom_site_label_1
_geom_bond_atom_site_label_2
_geom_bond_distance
_geom_bond_site_symmetry_2
Li0 O5 1.975025 1_555
Li0 O3 2.042118 1_556
Li0 O6 2.181231 1_555
Li0 O4 2.383418 1_565
Li1 O5 1.929543 1_554
Li1 O2 1.978283 1_555
Li1 O0 2.010521 1_655
Li1 O4 2.363195 1_554
Li1 O7 2.519176 1_655
Li2 O1 2.077477 1_455
Li2 O6 2.224177 1_555
Li2 O0 2.304253 1_555
Li2 O2 2.356713 1_455
Li3 O3 1.931294 1_545
Li3 O7 1.993866 1_555
Li3 O4 2.299618 1_554
Li3 O2 2.445365 1_555
Mn0 O4 2.151125 1_555
Mn0 O7 2.171812 1_656
Mn0 O5 2.177712 1_545
Mn0 O3 2.215211 1_646
Mn1 O1 2.118827 1_455
Mn1 O0 2.168244 1_545
Mn1 O6 2.169356 1_555
Mn1 O2 2.344241 1_445
O0 P1 1.556613 1_555
O1 P0 1.536142 1_555
O2 P1 1.560570 1_555
O3 P1 1.569145 1_555
O4 P0 1.574710 1_555
O5 P0 1.577965 1_555
O6 P0 1.552383 1_555
O7 P1 1.553325 1_555
F0 Li3 1.900984 1_555
F0 Li2 2.024825 1_655
F0 Mn1 2.206062 1_655
F0 Mn0 2.256659 1_554
F0 Li1 2.448510 1_555
F1 Li0 1.883283 1_555
F1 Li2 1.931738 1_555
F1 Mn1 2.107000 1_565
F1 Mn0 2.171852 1_465
