# generated using pymatgen
data_ZnBi2P2O9
_symmetry_space_group_name_H-M   'P 1'
_cell_length_a   7.11872300
_cell_length_b   7.47462800
_cell_length_c   15.76945900
_cell_angle_alpha   90.00000000
_cell_angle_beta   90.00000000
_cell_angle_gamma   90.00000000
_symmetry_Int_Tables_number   1
_chemical_formula_structural   ZnBi2P2O9
_chemical_formula_sum   'Zn4 Bi8 P8 O36'
_cell_volume   839.08985822
_cell_formula_units_Z   4
loop_
 _symmetry_equiv_pos_site_id
 _symmetry_equiv_pos_as_xyz
  1  'x, y, z'
loop_
 _atom_site_type_symbol
 _atom_site_label
 _atom_site_symmetry_multiplicity
 _atom_site_fract_x
 _atom_site_fract_y
 _atom_site_fract_z
 _atom_site_occupancy
  Zn  Zn0  1  0.75000000  0.96061900  0.75727900  1
  Zn  Zn1  1  0.75000000  0.53938100  0.25727900  1
  Zn  Zn2  1  0.25000000  0.46061900  0.74272100  1
  Zn  Zn3  1  0.25000000  0.03938100  0.24272100  1
  Bi  Bi0  1  0.75000000  0.39772700  0.88032000  1
  Bi  Bi1  1  0.25000000  0.60227300  0.11968000  1
  Bi  Bi2  1  0.25000000  0.89772700  0.61968000  1
  Bi  Bi3  1  0.75000000  0.10227300  0.38032000  1
  Bi  Bi4  1  0.50000000  0.00000000  0.00000000  1
  Bi  Bi5  1  0.50000000  0.50000000  0.50000000  1
  Bi  Bi6  1  0.00000000  0.50000000  0.50000000  1
  Bi  Bi7  1  0.00000000  0.00000000  0.00000000  1
  P  P0  1  0.25000000  0.38352800  0.91141400  1
  P  P1  1  0.75000000  0.61647200  0.08858600  1
  P  P2  1  0.75000000  0.88352800  0.58858600  1
  P  P3  1  0.25000000  0.11647200  0.41141400  1
  P  P4  1  0.75000000  0.38504500  0.68923400  1
  P  P5  1  0.75000000  0.11495500  0.18923400  1
  P  P6  1  0.25000000  0.88504500  0.81076600  1
  P  P7  1  0.25000000  0.61495500  0.31076600  1
  O  O0  1  0.06558800  0.62483000  0.36359300  1
  O  O1  1  0.56558800  0.37517000  0.63640700  1
  O  O2  1  0.93441200  0.12483000  0.13640700  1
  O  O3  1  0.43441200  0.87517000  0.86359300  1
  O  O4  1  0.93441200  0.37517000  0.63640700  1
  O  O5  1  0.43441200  0.62483000  0.36359300  1
  O  O6  1  0.06558800  0.87517000  0.86359300  1
  O  O7  1  0.56558800  0.12483000  0.13640700  1
  O  O8  1  0.25000000  0.29081100  0.46706300  1
  O  O9  1  0.75000000  0.70918900  0.53293700  1
  O  O10  1  0.75000000  0.79081100  0.03293700  1
  O  O11  1  0.25000000  0.20918900  0.96706300  1
  O  O12  1  0.75000000  0.11801200  0.92397600  1
  O  O13  1  0.25000000  0.88198800  0.07602400  1
  O  O14  1  0.25000000  0.61801200  0.57602400  1
  O  O15  1  0.75000000  0.38198800  0.42397600  1
  O  O16  1  0.75000000  0.22103800  0.75510600  1
  O  O17  1  0.25000000  0.77896200  0.24489400  1
  O  O18  1  0.25000000  0.72103800  0.74489400  1
  O  O19  1  0.75000000  0.27896200  0.25510600  1
  O  O20  1  0.41998100  0.11860900  0.34759400  1
  O  O21  1  0.91998100  0.88139100  0.65240600  1
  O  O22  1  0.58001900  0.61860900  0.15240600  1
  O  O23  1  0.08001900  0.38139100  0.84759400  1
  O  O24  1  0.58001900  0.88139100  0.65240600  1
  O  O25  1  0.08001900  0.11860900  0.34759400  1
  O  O26  1  0.41998100  0.38139100  0.84759400  1
  O  O27  1  0.91998100  0.61860900  0.15240600  1
  O  O28  1  0.75000000  0.45392300  0.03119100  1
  O  O29  1  0.25000000  0.04921500  0.75169700  1
  O  O30  1  0.25000000  0.45078500  0.25169700  1
  O  O31  1  0.75000000  0.54921500  0.74830300  1
  O  O32  1  0.75000000  0.04607700  0.53119100  1
  O  O33  1  0.25000000  0.95392300  0.46880900  1
  O  O34  1  0.25000000  0.54607700  0.96880900  1
  O  O35  1  0.75000000  0.95078500  0.24830300  1
loop_
_geom_bond_atom_site_label_1
_geom_bond_atom_site_label_2
_geom_bond_distance
_geom_bond_site_symmetry_2
Bi0 O12 2.201190 1_555
Bi0 O31 2.369849 1_555
Bi0 O16 2.375517 1_555
Bi0 O26 2.408426 1_555
Bi0 O23 2.408426 1_655
Bi0 O28 2.415949 1_556
Bi1 O13 2.201190 1_555
Bi1 O30 2.369849 1_555
Bi1 O17 2.375517 1_555
Bi1 O27 2.408426 1_455
Bi1 O22 2.408426 1_555
Bi1 O34 2.415949 1_554
Bi2 O14 2.201190 1_555
Bi2 O29 2.369849 1_565
Bi2 O18 2.375517 1_555
Bi2 O24 2.408426 1_555
Bi2 O21 2.408426 1_455
Bi2 O33 2.415949 1_555
Bi3 O15 2.201190 1_555
Bi3 O35 2.369849 1_545
Bi3 O19 2.375517 1_555
Bi3 O20 2.408426 1_555
Bi3 O25 2.408426 1_655
Bi3 O32 2.415949 1_555
Bi4 O13 2.320046 1_545
Bi4 O12 2.320046 1_554
Bi4 O3 2.390748 1_544
Bi4 O7 2.390748 1_555
Bi4 O11 2.425266 1_554
Bi4 O10 2.425266 1_545
Bi5 O15 2.320046 1_555
Bi5 O14 2.320046 1_555
Bi5 O1 2.390748 1_555
Bi5 O5 2.390748 1_555
Bi5 O8 2.425266 1_555
Bi5 O9 2.425266 1_555
Bi6 O14 2.320046 1_555
Bi6 O15 2.320046 1_455
Bi6 O4 2.390748 1_455
Bi6 O0 2.390748 1_555
Bi6 O9 2.425266 1_455
Bi6 O8 2.425266 1_555
Bi7 O13 2.320046 1_545
Bi7 O12 2.320046 1_454
Bi7 O6 2.390748 1_544
Bi7 O2 2.390748 1_455
Bi7 O10 2.425266 1_445
Bi7 O11 2.425266 1_554
O0 P7 1.556538 1_555
O1 P4 1.556538 1_555
O2 P5 1.556538 1_555
O3 P6 1.556538 1_555
O4 P4 1.556538 1_555
O5 P7 1.556538 1_555
O6 P6 1.556538 1_555
O7 P5 1.556538 1_555
O8 P3 1.571058 1_555
O9 P2 1.571058 1_555
O10 P1 1.571058 1_555
O11 P0 1.571058 1_555
O16 P4 1.606812 1_555
O16 Zn0 1.946837 1_545
O17 P7 1.606812 1_555
O17 Zn3 1.946837 1_565
O18 P6 1.606812 1_555
O18 Zn2 1.946837 1_555
O19 P5 1.606812 1_555
O19 Zn1 1.946837 1_555
O20 P3 1.573952 1_555
O20 Zn3 2.133059 1_555
O21 P2 1.573952 1_555
O21 Zn0 2.133059 1_555
O22 P1 1.573952 1_555
O22 Zn1 2.133059 1_555
O23 P0 1.573952 1_555
O23 Zn2 2.133059 1_555
O24 P2 1.573952 1_555
O24 Zn0 2.133059 1_555
O25 P3 1.573952 1_555
O25 Zn3 2.133059 1_555
O26 P0 1.573952 1_555
O26 Zn2 2.133059 1_555
O27 P1 1.573952 1_555
O27 Zn1 2.133059 1_555
O28 P1 1.515056 1_555
O29 P6 1.540605 1_545
O30 P7 1.540605 1_555
O31 P4 1.540605 1_555
O32 P2 1.515056 1_545
O33 P3 1.515056 1_565
O34 P0 1.515056 1_555
O35 P5 1.540605 1_565
