# generated using pymatgen
data_Li2MnO3
_symmetry_space_group_name_H-M   'P 1'
_cell_length_a   2.89490084
_cell_length_b   7.80803215
_cell_length_c   10.14882269
_cell_angle_alpha   69.57885798
_cell_angle_beta   90.00047056
_cell_angle_gamma   79.32690848
_symmetry_Int_Tables_number   1
_chemical_formula_structural   Li2MnO3
_chemical_formula_sum   'Li8 Mn4 O12'
_cell_volume   210.74167131
_cell_formula_units_Z   4
loop_
 _symmetry_equiv_pos_site_id
 _symmetry_equiv_pos_as_xyz
  1  'x, y, z'
loop_
 _atom_site_type_symbol
 _atom_site_label
 _atom_site_symmetry_multiplicity
 _atom_site_fract_x
 _atom_site_fract_y
 _atom_site_fract_z
 _atom_site_occupancy
  Li  Li0  1  0.16670900  0.66664200  0.91668600  1
  Li  Li1  1  0.16664900  0.66671400  0.41668200  1
  Li  Li2  1  0.66665400  0.66675200  0.66659400  1
  Li  Li3  1  0.66668900  0.66660400  0.16667600  1
  Li  Li4  1  0.82693400  0.34667000  0.08665300  1
  Li  Li5  1  0.82689700  0.34673800  0.58664200  1
  Li  Li6  1  0.50639000  0.98672000  0.74668500  1
  Li  Li7  1  0.50636800  0.98666100  0.24672500  1
  Mn  Mn0  1  0.00429800  0.99049900  0.00690500  1
  Mn  Mn1  1  0.32907200  0.34235700  0.82661700  1
  Mn  Mn2  1  0.00441900  0.99084200  0.50685100  1
  Mn  Mn3  1  0.32891300  0.34263200  0.32641800  1
  O  O0  1  0.42343100  0.15290000  0.02939400  1
  O  O1  1  0.42335500  0.15323700  0.52936200  1
  O  O2  1  0.90993700  0.18035100  0.30389500  1
  O  O3  1  0.90995300  0.18019400  0.80396700  1
  O  O4  1  0.76131000  0.47793200  0.87352400  1
  O  O5  1  0.76130800  0.47800900  0.37352200  1
  O  O6  1  0.57206900  0.85520500  0.95980600  1
  O  O7  1  0.57199300  0.85555300  0.45974700  1
  O  O8  1  0.07535500  0.84880200  0.69314500  1
  O  O9  1  0.07542100  0.84855300  0.19324800  1
  O  O10  1  0.25792200  0.48476100  0.14008000  1
  O  O11  1  0.25795400  0.48467300  0.64017500  1
loop_
_geom_bond_atom_site_label_1
_geom_bond_atom_site_label_2
_geom_bond_distance
_geom_bond_site_symmetry_2
Li0 O6 2.196774 1_555
Li0 O4 2.197996 1_455
Li0 O6 2.198485 1_455
Li0 O4 2.199277 1_555
Li0 O10 2.200204 1_556
Li0 O8 2.201980 1_555
Li1 O5 2.197844 1_455
Li1 O7 2.198310 1_555
Li1 O5 2.199356 1_555
Li1 O7 2.199555 1_455
Li1 O9 2.200445 1_555
Li1 O11 2.201343 1_555
Li2 O7 2.084688 1_555
Li2 O4 2.085377 1_555
Li2 O11 2.093309 1_555
Li2 O8 2.093613 1_655
Li2 O11 2.094697 1_655
Li2 O8 2.095055 1_555
Li3 O5 2.084147 1_555
Li3 O6 2.084348 1_554
Li3 O10 2.092573 1_555
Li3 O9 2.093099 1_655
Li3 O10 2.094166 1_655
Li3 O9 2.094620 1_555
Li4 O10 1.979772 1_655
Li4 O10 1.979912 1_555
Li4 O4 2.036167 1_554
Li4 O2 2.119314 1_555
Li4 O0 2.292250 1_655
Li4 O0 2.293328 1_555
Li5 O11 1.979496 1_655
Li5 O11 1.979674 1_555
Li5 O5 2.036095 1_555
Li5 O3 2.120412 1_555
Li5 O1 2.291003 1_655
Li5 O1 2.291734 1_555
Li6 O8 1.979382 1_555
Li6 O8 1.979689 1_655
Li6 O6 2.036324 1_555
Li6 O1 2.120347 1_565
Li6 O3 2.290846 1_465
Li6 O3 2.291604 1_565
Li7 O9 1.980022 1_555
Li7 O9 1.980299 1_655
Li7 O7 2.035066 1_555
Li7 O0 2.119918 1_565
Li7 O2 2.291312 1_465
Li7 O2 2.292486 1_565
Mn0 O9 1.816605 1_555
Mn0 O6 1.937020 1_454
Mn0 O6 1.937838 1_554
Mn0 O0 1.974784 1_465
Mn0 O0 1.975872 1_565
Mn0 O3 2.057094 1_464
Mn1 O11 1.818091 1_555
Mn1 O4 1.937837 1_555
Mn1 O4 1.938009 1_455
Mn1 O3 1.974395 1_555
Mn1 O3 1.974919 1_455
Mn1 O0 2.055225 1_556
Mn2 O8 1.816359 1_555
Mn2 O7 1.937415 1_555
Mn2 O7 1.937439 1_455
Mn2 O1 1.975253 1_465
Mn2 O1 1.975492 1_565
Mn2 O2 2.056729 1_465
Mn3 O10 1.816886 1_555
Mn3 O5 1.937808 1_455
Mn3 O5 1.937888 1_555
Mn3 O2 1.974743 1_555
Mn3 O2 1.974910 1_455
Mn3 O1 2.056330 1_555
