# generated using pymatgen
data_Yb5(PrS4)3
_symmetry_space_group_name_H-M   'P 1'
_cell_length_a   4.17573400
_cell_length_b   10.95444900
_cell_length_c   11.47231831
_cell_angle_alpha   76.94398126
_cell_angle_beta   90.00000000
_cell_angle_gamma   90.00000000
_symmetry_Int_Tables_number   1
_chemical_formula_structural   Yb5(PrS4)3
_chemical_formula_sum   'Yb5 Pr3 S12'
_cell_volume   511.21105381
_cell_formula_units_Z   1
loop_
 _symmetry_equiv_pos_site_id
 _symmetry_equiv_pos_as_xyz
  1  'x, y, z'
loop_
 _atom_site_type_symbol
 _atom_site_label
 _atom_site_symmetry_multiplicity
 _atom_site_fract_x
 _atom_site_fract_y
 _atom_site_fract_z
 _atom_site_occupancy
  Yb  Yb0  1  0.00000000  0.94588300  0.65943500  1
  Yb  Yb1  1  0.50000000  0.05692400  0.34393500  1
  Yb  Yb2  1  0.00000000  0.67535300  0.41695900  1
  Yb  Yb3  1  0.50000000  0.32908800  0.57820400  1
  Yb  Yb4  1  0.50000000  0.82350000  0.03092900  1
  Pr  Pr0  1  0.00000000  0.53341100  0.81952300  1
  Pr  Pr1  1  0.50000000  0.47086400  0.17905600  1
  Pr  Pr2  1  0.00000000  0.16751800  0.96784900  1
  S  S0  1  0.00000000  0.61581900  0.04176800  1
  S  S1  1  0.50000000  0.38061400  0.95695600  1
  S  S2  1  0.00000000  0.26792000  0.26469200  1
  S  S3  1  0.50000000  0.73197400  0.73715700  1
  S  S4  1  0.00000000  0.39501900  0.37872700  1
  S  S5  1  0.50000000  0.60695900  0.62088400  1
  S  S6  1  0.00000000  0.94441500  0.89407800  1
  S  S7  1  0.50000000  0.04954100  0.10907900  1
  S  S8  1  0.00000000  0.90973400  0.43179200  1
  S  S9  1  0.50000000  0.09323200  0.57136900  1
  S  S10  1  0.00000000  0.31161900  0.72920000  1
  S  S11  1  0.50000000  0.69061200  0.26841000  1
loop_
_geom_bond_atom_site_label_1
_geom_bond_atom_site_label_2
_geom_bond_distance
_geom_bond_site_symmetry_2
Pr0 S10 2.848545 1_555
Pr0 S0 2.890611 1_556
Pr0 S1 2.907642 1_555
Pr0 S1 2.907642 1_455
Pr0 S3 3.009107 1_455
Pr0 S3 3.009107 1_555
Pr0 S5 3.061362 1_455
Pr0 S5 3.061362 1_555
Pr1 S11 2.821421 1_555
Pr1 S0 2.869029 1_655
Pr1 S0 2.869029 1_555
Pr1 S1 2.933913 1_554
Pr1 S2 3.046299 1_655
Pr1 S2 3.046299 1_555
Pr1 S4 3.071948 1_655
Pr1 S4 3.071948 1_555
Pr2 S6 2.761118 1_545
Pr2 S7 2.776422 1_456
Pr2 S7 2.776422 1_556
Pr2 S10 2.834614 1_555
Pr2 S1 3.113228 1_455
Pr2 S1 3.113228 1_555
S0 Yb4 3.069626 1_455
S0 Yb4 3.069626 1_555
S2 S4 2.114937 1_555
S2 Yb1 3.094933 1_455
S2 Yb1 3.094933 1_555
S3 S5 2.116634 1_555
S3 Yb0 3.114656 1_655
S3 Yb0 3.114656 1_555
S4 Yb3 3.061230 1_455
S4 Yb3 3.061230 1_555
S4 Yb2 3.198654 1_555
S5 Yb2 3.098680 1_555
S5 Yb2 3.098680 1_655
S5 Yb3 3.190392 1_555
S6 Yb0 2.688312 1_555
S6 Yb4 2.763870 1_556
S6 Yb4 2.763870 1_456
S7 Yb1 2.713757 1_555
S7 Yb4 2.817479 1_545
S8 Yb2 2.611224 1_555
S8 Yb1 2.690841 1_465
S8 Yb1 2.690841 1_565
S8 Yb0 2.728456 1_555
S9 Yb3 2.602508 1_555
S9 Yb0 2.692312 1_545
S9 Yb0 2.692312 1_645
S9 Yb1 2.726713 1_555
S10 Yb3 2.691990 1_555
S10 Yb3 2.691990 1_455
S11 Yb2 2.676327 1_555
S11 Yb2 2.676327 1_655
S11 Yb4 2.783863 1_555
