# generated using pymatgen
data_NdPb7F17
_symmetry_space_group_name_H-M   'P 1'
_cell_length_a   4.19045300
_cell_length_b   4.22167900
_cell_length_c   28.06057645
_cell_angle_alpha   94.18901062
_cell_angle_beta   89.88948015
_cell_angle_gamma   119.68401046
_symmetry_Int_Tables_number   1
_chemical_formula_structural   NdPb7F17
_chemical_formula_sum   'Nd1 Pb7 F17'
_cell_volume   429.78001865
_cell_formula_units_Z   1
loop_
 _symmetry_equiv_pos_site_id
 _symmetry_equiv_pos_as_xyz
  1  'x, y, z'
loop_
 _atom_site_type_symbol
 _atom_site_label
 _atom_site_symmetry_multiplicity
 _atom_site_fract_x
 _atom_site_fract_y
 _atom_site_fract_z
 _atom_site_occupancy
  Nd  Nd0  1  0.39359700  0.64132200  0.11864100  1
  Pb  Pb0  1  0.00256800  0.98830600  0.99872100  1
  Pb  Pb1  1  0.69050200  0.41856500  0.87242400  1
  Pb  Pb2  1  0.28257900  0.77136100  0.74665200  1
  Pb  Pb3  1  0.50287500  0.50349400  0.49662300  1
  Pb  Pb4  1  0.88379800  0.13172200  0.62172000  1
  Pb  Pb5  1  0.12792400  0.87811200  0.37208400  1
  Pb  Pb6  1  0.75565900  0.25618700  0.24553600  1
  F  F0  1  0.70073700  0.40112700  0.96336200  1
  F  F1  1  0.93343700  0.11427100  0.71417300  1
  F  F2  1  0.02727500  0.06776100  0.90548700  1
  F  F3  1  0.34304200  0.75826800  0.84046200  1
  F  F4  1  0.53864800  0.47622900  0.58979500  1
  F  F5  1  0.62721900  0.42833600  0.77738800  1
  F  F6  1  0.15924200  0.84906500  0.46410800  1
  F  F7  1  0.22843700  0.78733400  0.65304500  1
  F  F8  1  0.78548700  0.22333200  0.34125300  1
  F  F9  1  0.84547500  0.15768200  0.52752000  1
  F  F10  1  0.41431000  0.60838400  0.20649900  1
  F  F11  1  0.47036600  0.53185300  0.40380500  1
  F  F12  1  0.09726200  0.90989300  0.27485100  1
  F  F13  1  0.06630000  0.00070300  0.11734000  1
  F  F14  1  0.73414100  0.29483800  0.15921800  1
  F  F15  1  0.73865400  0.41565000  0.07216500  1
  F  F16  1  0.38196800  0.72670100  0.03162900  1
loop_
_geom_bond_atom_site_label_1
_geom_bond_atom_site_label_2
_geom_bond_distance
_geom_bond_site_symmetry_2
F0 Pb0 2.295484 1_655
F0 Pb1 2.559257 1_555
F1 Pb2 2.506476 1_655
F1 Pb2 2.576352 1_545
F1 Pb4 2.612315 1_555
F1 Pb2 2.713396 1_645
F2 Pb1 2.483257 1_445
F2 Pb1 2.625323 1_555
F2 Pb0 2.657160 1_545
F2 Pb1 2.705814 1_455
F3 Pb1 2.512917 1_565
F3 Pb1 2.575400 1_455
F3 Pb2 2.652223 1_555
F3 Pb1 2.691118 1_555
F4 Pb4 2.496188 1_565
F4 Pb4 2.583792 1_455
F4 Pb3 2.633190 1_555
F4 Pb4 2.699711 1_555
F5 Pb2 2.492026 1_545
F5 Pb2 2.572411 1_655
F5 Pb2 2.680549 1_555
F5 Pb1 2.685757 1_555
F6 Pb3 2.497100 1_565
F6 Pb3 2.595469 1_455
F6 Pb5 2.600724 1_555
F6 Pb3 2.704543 1_555
F7 Pb4 2.491878 1_455
F7 Pb4 2.578994 1_565
F7 Pb2 2.645511 1_555
F7 Pb4 2.691350 1_465
F8 Pb5 2.485057 1_655
F8 Pb5 2.581233 1_545
F8 Pb5 2.681779 1_645
F8 Pb6 2.705859 1_555
F9 Pb3 2.483572 1_545
F9 Pb3 2.581542 1_655
F9 Pb4 2.662003 1_555
F9 Pb3 2.685082 1_555
F10 Nd0 2.483478 1_555
F10 Pb6 2.533595 1_565
F10 Pb6 2.681465 1_455
F10 Pb6 2.794134 1_555
F11 Pb5 2.488367 1_545
F11 Pb5 2.590940 1_655
F11 Pb3 2.622885 1_555
F11 Pb5 2.694611 1_555
F12 Pb6 2.470247 1_455
F12 Pb6 2.568652 1_565
F12 Pb6 2.667581 1_465
F12 Pb5 2.747847 1_555
F13 Nd0 2.347052 1_555
F13 Nd0 2.453839 1_445
F13 Nd0 2.500703 1_545
F14 Pb6 2.444307 1_555
F14 Nd0 2.567586 1_545
F14 Nd0 2.701893 1_655
F14 Nd0 2.790966 1_555
F15 Nd0 2.423801 1_555
F15 Nd0 2.717232 1_655
F16 Pb0 2.476004 1_654
F16 Nd0 2.498032 1_555
F16 Pb0 2.548291 1_554
