# generated using pymatgen
data_PrIn2Rh
_symmetry_space_group_name_H-M   'P 1'
_cell_length_a   5.61990855
_cell_length_b   5.61990855
_cell_length_c   7.96639876
_cell_angle_alpha   90.00000000
_cell_angle_beta   90.00000000
_cell_angle_gamma   133.30607943
_symmetry_Int_Tables_number   1
_chemical_formula_structural   PrIn2Rh
_chemical_formula_sum   'Pr2 In4 Rh2'
_cell_volume   183.09349048
_cell_formula_units_Z   2
loop_
 _symmetry_equiv_pos_site_id
 _symmetry_equiv_pos_as_xyz
  1  'x, y, z'
loop_
 _atom_site_type_symbol
 _atom_site_label
 _atom_site_symmetry_multiplicity
 _atom_site_fract_x
 _atom_site_fract_y
 _atom_site_fract_z
 _atom_site_occupancy
  Pr  Pr0  1  0.56595715  0.43404285  0.25000000  1
  Pr  Pr1  1  0.43404285  0.56595715  0.75000000  1
  In  In0  1  0.85235395  0.14764605  0.05103214  1
  In  In1  1  0.14764605  0.85235395  0.94896786  1
  In  In2  1  0.14764605  0.85235395  0.55103214  1
  In  In3  1  0.85235395  0.14764605  0.44896786  1
  Rh  Rh0  1  0.28590966  0.71409034  0.25000000  1
  Rh  Rh1  1  0.71409034  0.28590966  0.75000000  1
loop_
_geom_bond_atom_site_label_1
_geom_bond_atom_site_label_2
_geom_bond_distance
_geom_bond_site_symmetry_2
Pr0 Rh0 2.889956 1_555
Pr0 Rh0 3.179977 1_655
Pr0 Rh0 3.179977 1_545
Pr1 Rh1 2.889956 1_555
Pr1 Rh1 3.179977 1_455
Pr1 Rh1 3.179977 1_565
In0 Rh1 2.790499 1_554
In0 Rh0 2.818296 1_545
In0 Rh0 2.818296 1_655
In0 Pr0 3.353693 1_555
In0 Pr1 3.379639 1_544
In0 Pr1 3.379639 1_654
In0 Pr0 3.511625 1_655
In0 Pr0 3.511625 1_545
In1 Rh0 2.790499 1_556
In1 Rh1 2.818296 1_455
In1 Rh1 2.818296 1_565
In1 Pr1 3.353693 1_555
In1 Pr0 3.379639 1_456
In1 Pr0 3.379639 1_566
In1 Pr1 3.511625 1_455
In1 Pr1 3.511625 1_565
In2 Rh0 2.790499 1_555
In2 Rh1 2.818296 1_455
In2 Rh1 2.818296 1_565
In2 Pr1 3.353693 1_555
In2 Pr0 3.379639 1_565
In2 Pr0 3.379639 1_455
In2 Pr1 3.511625 1_455
In2 Pr1 3.511625 1_565
In3 Rh1 2.790499 1_555
In3 Rh0 2.818296 1_545
In3 Rh0 2.818296 1_655
In3 Pr0 3.353693 1_555
In3 Pr1 3.379639 1_655
In3 Pr1 3.379639 1_545
In3 Pr0 3.511625 1_655
In3 Pr0 3.511625 1_545
