# generated using pymatgen
data_LiAl2V4O8
_symmetry_space_group_name_H-M   'P 1'
_cell_length_a   5.77110054
_cell_length_b   6.66807165
_cell_length_c   6.00010333
_cell_angle_alpha   92.31283003
_cell_angle_beta   118.71186129
_cell_angle_gamma   121.85723594
_symmetry_Int_Tables_number   1
_chemical_formula_structural   LiAl2V4O8
_chemical_formula_sum   'Li1 Al2 V4 O8'
_cell_volume   158.04865732
_cell_formula_units_Z   1
loop_
 _symmetry_equiv_pos_site_id
 _symmetry_equiv_pos_as_xyz
  1  'x, y, z'
loop_
 _atom_site_type_symbol
 _atom_site_label
 _atom_site_symmetry_multiplicity
 _atom_site_fract_x
 _atom_site_fract_y
 _atom_site_fract_z
 _atom_site_occupancy
  Li  Li0  1  0.93022600  0.91655700  0.48864200  1
  Al  Al0  1  0.97410100  0.96870100  0.02970900  1
  Al  Al1  1  0.47891700  0.98966100  0.99544400  1
  V  V0  1  0.49436900  0.99693400  0.48725400  1
  V  V1  1  0.40471800  0.43882100  0.68482800  1
  V  V2  1  0.00584200  0.48453600  0.00569700  1
  V  V3  1  0.91704500  0.51093000  0.46437000  1
  O  O0  1  0.95903000  0.74358800  0.21591700  1
  O  O1  1  0.50866900  0.80267500  0.76067200  1
  O  O2  1  0.49790700  0.81207400  0.22584600  1
  O  O3  1  0.95633900  0.73983700  0.76565300  1
  O  O4  1  0.46045500  0.16255400  0.75094000  1
  O  O5  1  0.42761400  0.17112900  0.19843200  1
  O  O6  1  0.98220300  0.21791100  0.21559200  1
  O  O7  1  0.99219700  0.28363900  0.71104700  1
loop_
_geom_bond_atom_site_label_1
_geom_bond_atom_site_label_2
_geom_bond_distance
_geom_bond_site_symmetry_2
Li0 O2 1.868974 1_555
Li0 O3 2.068508 1_555
Li0 O0 2.084956 1_555
Li0 O4 2.096939 1_665
Li0 O7 2.500755 1_565
Al0 O5 1.819785 1_665
Al0 O1 1.896578 1_554
Al0 O0 1.897359 1_555
Al0 O6 1.930238 1_565
Al0 O3 2.081662 1_554
Al1 O2 1.857130 1_556
Al1 O4 1.899649 1_565
Al1 O5 1.908132 1_566
Al1 O1 1.971044 1_555
Al1 O6 1.995616 1_566
Al1 O3 2.070628 1_455
O0 V0 2.117838 1_655
O0 V3 2.196524 1_555
O0 V2 2.300427 1_655
O0 V1 2.708909 1_554
O1 V0 2.128458 1_555
O1 V1 2.136724 1_555
O1 V3 2.340922 1_455
O2 V0 1.970095 1_555
O2 V2 2.048198 1_555
O3 V3 2.160359 1_555
O3 V2 2.317333 1_656
O3 V1 2.468070 1_555
O4 V0 2.036118 1_545
O4 V1 2.053363 1_555
O4 V2 2.198152 1_656
O5 V3 2.068850 1_555
O5 V0 2.119937 1_545
O6 V2 2.203470 1_655
O6 V1 2.306502 1_655
O7 V0 2.000082 1_545
O7 V2 2.118969 1_656
O7 V1 2.129730 1_655
O7 V3 2.221249 1_555
