# generated using pymatgen
data_K2EuCl5
_symmetry_space_group_name_H-M   'P 1'
_cell_length_a   7.92579884
_cell_length_b   8.74840922
_cell_length_c   12.79174586
_cell_angle_alpha   90.00000000
_cell_angle_beta   90.00000000
_cell_angle_gamma   90.00000000
_symmetry_Int_Tables_number   1
_chemical_formula_structural   K2EuCl5
_chemical_formula_sum   'K8 Eu4 Cl20'
_cell_volume   886.95575844
_cell_formula_units_Z   4
loop_
 _symmetry_equiv_pos_site_id
 _symmetry_equiv_pos_as_xyz
  1  'x, y, z'
loop_
 _atom_site_type_symbol
 _atom_site_label
 _atom_site_symmetry_multiplicity
 _atom_site_fract_x
 _atom_site_fract_y
 _atom_site_fract_z
 _atom_site_occupancy
  K  K0  1  0.54421857  0.49731584  0.82830738  1
  K  K1  1  0.45578143  0.50268416  0.17169262  1
  K  K2  1  0.04421857  0.50268416  0.67169262  1
  K  K3  1  0.45578143  0.99731584  0.17169262  1
  K  K4  1  0.95578143  0.49731584  0.32830738  1
  K  K5  1  0.54421857  0.00268416  0.82830738  1
  K  K6  1  0.95578143  0.00268416  0.32830738  1
  K  K7  1  0.04421857  0.99731584  0.67169262  1
  Eu  Eu0  1  0.56600094  0.75000000  0.50254811  1
  Eu  Eu1  1  0.43399906  0.25000000  0.49745189  1
  Eu  Eu2  1  0.06600094  0.25000000  0.99745189  1
  Eu  Eu3  1  0.93399906  0.75000000  0.00254811  1
  Cl  Cl0  1  0.83221123  0.75000000  0.79583065  1
  Cl  Cl1  1  0.16778877  0.25000000  0.20416935  1
  Cl  Cl2  1  0.33221123  0.25000000  0.70416935  1
  Cl  Cl3  1  0.66778877  0.75000000  0.29583065  1
  Cl  Cl4  1  0.36614354  0.75000000  0.67763942  1
  Cl  Cl5  1  0.63385646  0.25000000  0.32236058  1
  Cl  Cl6  1  0.86614354  0.25000000  0.82236058  1
  Cl  Cl7  1  0.13385646  0.75000000  0.17763942  1
  Cl  Cl8  1  0.92188784  0.75000000  0.50860369  1
  Cl  Cl9  1  0.07811216  0.25000000  0.49139631  1
  Cl  Cl10  1  0.42188784  0.25000000  0.99139631  1
  Cl  Cl11  1  0.57811216  0.75000000  0.00860369  1
  Cl  Cl12  1  0.66068077  0.03850186  0.58320236  1
  Cl  Cl13  1  0.33931923  0.96149814  0.41679764  1
  Cl  Cl14  1  0.16068077  0.96149814  0.91679764  1
  Cl  Cl15  1  0.33931923  0.53850186  0.41679764  1
  Cl  Cl16  1  0.83931923  0.03850186  0.08320236  1
  Cl  Cl17  1  0.66068077  0.46149814  0.58320236  1
  Cl  Cl18  1  0.83931923  0.46149814  0.08320236  1
  Cl  Cl19  1  0.16068077  0.53850186  0.91679764  1
loop_
_geom_bond_atom_site_label_1
_geom_bond_atom_site_label_2
_geom_bond_distance
_geom_bond_site_symmetry_2
Cl0 Eu3 2.764606 1_556
Cl0 K2 3.166435 1_655
Cl0 K7 3.166435 1_655
Cl0 K0 3.204591 1_555
Cl0 K5 3.204591 1_565
Cl1 Eu2 2.764606 1_554
Cl1 K6 3.166435 1_455
Cl1 K4 3.166435 1_455
Cl1 K3 3.204591 1_545
Cl1 K1 3.204591 1_555
Cl2 Eu1 2.764606 1_555
Cl2 K5 3.166435 1_555
Cl2 K0 3.166435 1_555
Cl2 K7 3.204591 1_545
Cl2 K2 3.204591 1_555
Cl3 Eu0 2.764606 1_555
Cl3 K1 3.166435 1_555
Cl3 K3 3.166435 1_555
Cl3 K4 3.204591 1_555
Cl3 K6 3.204591 1_565
Cl4 Eu0 2.743267 1_555
Cl4 K0 3.254721 1_555
Cl4 K5 3.254721 1_565
Cl4 K2 3.346230 1_555
Cl4 K7 3.346230 1_555
Cl5 Eu1 2.743267 1_555
Cl5 K3 3.254721 1_545
Cl5 K1 3.254721 1_555
Cl5 K4 3.346230 1_555
Cl5 K6 3.346230 1_555
Cl6 Eu2 2.743267 1_655
Cl6 K7 3.254721 1_645
Cl6 K2 3.254721 1_655
Cl6 K5 3.346230 1_555
Cl6 K0 3.346230 1_555
Cl7 Eu3 2.743267 1_455
Cl7 K4 3.254721 1_455
Cl7 K6 3.254721 1_465
Cl7 K1 3.346230 1_555
Cl7 K3 3.346230 1_555
Cl8 Eu0 2.821751 1_555
Cl8 K2 3.158087 1_655
Cl8 K7 3.158087 1_655
Cl8 K6 3.205915 1_565
Cl8 K4 3.205915 1_555
Cl9 Eu1 2.821751 1_555
Cl9 K6 3.158087 1_455
Cl9 K4 3.158087 1_455
Cl9 K7 3.205915 1_545
Cl9 K2 3.205915 1_555
Cl10 Eu2 2.821751 1_555
Cl10 K5 3.158087 1_555
Cl10 K0 3.158087 1_555
Cl10 K3 3.205915 1_546
Cl10 K1 3.205915 1_556
Cl11 Eu3 2.821751 1_555
Cl11 K1 3.158087 1_555
Cl11 K3 3.158087 1_555
Cl11 K0 3.205915 1_554
Cl11 K5 3.205915 1_564
Cl12 Eu1 2.802603 1_555
Cl12 Eu0 2.828034 1_545
Cl12 K7 3.263705 1_645
Cl12 K5 3.283361 1_555
Cl13 Eu0 2.802603 1_555
Cl13 Eu1 2.828034 1_565
Cl13 K6 3.263705 1_465
Cl13 K3 3.283361 1_555
Cl14 Eu3 2.802603 1_456
Cl14 Eu2 2.828034 1_565
Cl14 K5 3.263705 1_565
Cl14 K7 3.283361 1_555
Cl15 Eu0 2.802603 1_555
Cl15 Eu1 2.828034 1_555
Cl15 K4 3.263705 1_455
Cl15 K1 3.283361 1_555
Cl16 Eu2 2.802603 1_654
Cl16 Eu3 2.828034 1_545
Cl16 K3 3.263705 1_545
Cl16 K6 3.283361 1_555
Cl17 Eu1 2.802603 1_555
Cl17 Eu0 2.828034 1_555
Cl17 K2 3.263705 1_655
Cl17 K0 3.283361 1_555
Cl18 Eu2 2.802603 1_654
Cl18 Eu3 2.828034 1_555
Cl18 K1 3.263705 1_555
Cl18 K4 3.283361 1_555
Cl19 Eu3 2.802603 1_456
Cl19 Eu2 2.828034 1_555
Cl19 K0 3.263705 1_555
Cl19 K2 3.283361 1_555
