# generated using pymatgen
data_MgZn3
_symmetry_space_group_name_H-M   'P 1'
_cell_length_a   5.73242649
_cell_length_b   5.73242692
_cell_length_c   4.36563978
_cell_angle_alpha   90.00000000
_cell_angle_beta   90.00000000
_cell_angle_gamma   119.99998583
_symmetry_Int_Tables_number   1
_chemical_formula_structural   MgZn3
_chemical_formula_sum   'Mg2 Zn6'
_cell_volume   124.23833220
_cell_formula_units_Z   2
loop_
 _symmetry_equiv_pos_site_id
 _symmetry_equiv_pos_as_xyz
  1  'x, y, z'
loop_
 _atom_site_type_symbol
 _atom_site_label
 _atom_site_symmetry_multiplicity
 _atom_site_fract_x
 _atom_site_fract_y
 _atom_site_fract_z
 _atom_site_occupancy
  Mg  Mg0  1  0.66666700  0.33333300  0.75000000  1
  Mg  Mg1  1  0.33333300  0.66666700  0.25000000  1
  Zn  Zn0  1  0.67970924  0.83985462  0.75000000  1
  Zn  Zn1  1  0.16014538  0.32029076  0.75000000  1
  Zn  Zn2  1  0.16014538  0.83985462  0.75000000  1
  Zn  Zn3  1  0.83985462  0.67970924  0.25000000  1
  Zn  Zn4  1  0.83985462  0.16014538  0.25000000  1
  Zn  Zn5  1  0.32029076  0.16014538  0.25000000  1
loop_
_geom_bond_atom_site_label_1
_geom_bond_atom_site_label_2
_geom_bond_distance
_geom_bond_site_symmetry_2
Mg0 Zn4 2.778771 1_555
Mg0 Zn4 2.778771 1_556
Mg0 Zn5 2.778775 1_556
Mg0 Zn5 2.778775 1_555
Mg0 Zn3 2.778775 1_555
Mg0 Zn3 2.778775 1_556
Mg0 Zn1 2.866942 1_655
Mg0 Zn0 2.866942 1_545
Mg0 Zn2 2.866945 1_545
Mg0 Zn2 2.866945 1_655
Mg0 Zn1 2.866947 1_555
Mg0 Zn0 2.866948 1_555
Mg1 Zn2 2.778771 1_555
Mg1 Zn2 2.778771 1_554
Mg1 Zn0 2.778775 1_555
Mg1 Zn0 2.778775 1_554
Mg1 Zn1 2.778775 1_554
Mg1 Zn1 2.778775 1_555
Mg1 Zn3 2.866942 1_455
Mg1 Zn5 2.866942 1_565
Mg1 Zn4 2.866945 1_565
Mg1 Zn4 2.866945 1_455
Mg1 Zn3 2.866947 1_555
Mg1 Zn5 2.866948 1_555
Zn0 Zn3 2.700554 1_555
Zn0 Zn3 2.700554 1_556
Zn0 Zn4 2.700555 1_565
Zn0 Zn4 2.700555 1_566
Zn0 Zn2 2.754065 1_655
Zn0 Zn1 2.754066 1_665
Zn0 Zn2 2.978362 1_555
Zn0 Zn1 2.978362 1_555
Zn1 Zn5 2.700554 1_556
Zn1 Zn5 2.700554 1_555
Zn1 Zn4 2.700554 1_455
Zn1 Zn4 2.700554 1_456
Zn1 Zn2 2.754065 1_545
Zn1 Zn2 2.978362 1_555
Zn2 Zn3 2.700554 1_455
Zn2 Zn3 2.700554 1_456
Zn2 Zn5 2.700555 1_566
Zn2 Zn5 2.700555 1_565
Zn3 Zn4 2.754065 1_565
Zn3 Zn5 2.754066 1_665
Zn3 Zn4 2.978362 1_555
Zn3 Zn5 2.978362 1_555
Zn4 Zn5 2.754065 1_655
Zn4 Zn5 2.978362 1_555
