# generated using pymatgen
data_YbNi
_symmetry_space_group_name_H-M   'P 1'
_cell_length_a   4.04048500
_cell_length_b   5.38616600
_cell_length_c   7.29228200
_cell_angle_alpha   90.00000000
_cell_angle_beta   90.00000000
_cell_angle_gamma   90.00000000
_symmetry_Int_Tables_number   1
_chemical_formula_structural   YbNi
_chemical_formula_sum   'Yb4 Ni4'
_cell_volume   158.69991270
_cell_formula_units_Z   4
loop_
 _symmetry_equiv_pos_site_id
 _symmetry_equiv_pos_as_xyz
  1  'x, y, z'
loop_
 _atom_site_type_symbol
 _atom_site_label
 _atom_site_symmetry_multiplicity
 _atom_site_fract_x
 _atom_site_fract_y
 _atom_site_fract_z
 _atom_site_occupancy
  Yb  Yb0  1  0.25000000  0.37855100  0.67986600  1
  Yb  Yb1  1  0.25000000  0.12144900  0.17986600  1
  Yb  Yb2  1  0.75000000  0.62144900  0.32013400  1
  Yb  Yb3  1  0.75000000  0.87855100  0.82013400  1
  Ni  Ni0  1  0.25000000  0.90031700  0.52860300  1
  Ni  Ni1  1  0.25000000  0.59968300  0.02860300  1
  Ni  Ni2  1  0.75000000  0.09968300  0.47139700  1
  Ni  Ni3  1  0.75000000  0.40031700  0.97139700  1
loop_
_geom_bond_atom_site_label_1
_geom_bond_atom_site_label_2
_geom_bond_distance
_geom_bond_site_symmetry_2
Ni0 Ni2 2.325616 1_565
Ni0 Ni2 2.325616 1_465
Ni0 Yb0 2.802091 1_565
Ni0 Yb1 2.808186 1_565
Ni0 Yb3 2.935079 1_555
Ni0 Yb3 2.935079 1_455
Ni0 Yb2 2.940837 1_455
Ni0 Yb2 2.940837 1_555
Ni0 Yb0 3.019042 1_555
Ni1 Ni3 2.325616 1_454
Ni1 Ni3 2.325616 1_554
Ni1 Yb1 2.802091 1_555
Ni1 Yb0 2.808186 1_554
Ni1 Yb2 2.935079 1_455
Ni1 Yb2 2.935079 1_555
Ni1 Yb3 2.940837 1_454
Ni1 Yb3 2.940837 1_554
Ni1 Yb1 3.019042 1_565
Ni2 Yb2 2.802091 1_545
Ni2 Yb3 2.808186 1_545
Ni2 Yb1 2.935079 1_655
Ni2 Yb1 2.935079 1_555
Ni2 Yb0 2.940837 1_655
Ni2 Yb0 2.940837 1_555
Ni2 Yb2 3.019042 1_555
Ni3 Yb3 2.802091 1_555
Ni3 Yb2 2.808186 1_556
Ni3 Yb0 2.935079 1_555
Ni3 Yb0 2.935079 1_655
Ni3 Yb1 2.940837 1_556
Ni3 Yb1 2.940837 1_656
Ni3 Yb3 3.019042 1_545
