# generated using pymatgen
data_YbO3
_symmetry_space_group_name_H-M   'P 1'
_cell_length_a   3.68997100
_cell_length_b   4.48476900
_cell_length_c   6.32021390
_cell_angle_alpha   73.91698258
_cell_angle_beta   90.00000000
_cell_angle_gamma   90.00000000
_symmetry_Int_Tables_number   1
_chemical_formula_structural   YbO3
_chemical_formula_sum   'Yb2 O6'
_cell_volume   100.49755919
_cell_formula_units_Z   2
loop_
 _symmetry_equiv_pos_site_id
 _symmetry_equiv_pos_as_xyz
  1  'x, y, z'
loop_
 _atom_site_type_symbol
 _atom_site_label
 _atom_site_symmetry_multiplicity
 _atom_site_fract_x
 _atom_site_fract_y
 _atom_site_fract_z
 _atom_site_occupancy
  Yb  Yb0  1  0.75000000  0.67965400  0.69422000  1
  Yb  Yb1  1  0.25000000  0.32034600  0.30578000  1
  O  O0  1  0.75000000  0.55638500  0.08267500  1
  O  O1  1  0.75000000  0.98948300  0.27536900  1
  O  O2  1  0.75000000  0.24303100  0.55243800  1
  O  O3  1  0.25000000  0.44361500  0.91732500  1
  O  O4  1  0.25000000  0.01051700  0.72463100  1
  O  O5  1  0.25000000  0.75696900  0.44756200  1
loop_
_geom_bond_atom_site_label_1
_geom_bond_atom_site_label_2
_geom_bond_distance
_geom_bond_site_symmetry_2
O0 Yb0 2.362461 1_554
O0 Yb1 2.384499 1_655
O0 Yb1 2.384499 1_555
O1 Yb1 2.408470 1_665
O1 Yb1 2.408470 1_565
O1 Yb0 2.626886 1_555
O2 Yb0 2.368448 1_555
O2 Yb1 2.378019 1_555
O2 Yb1 2.378019 1_655
O2 Yb0 2.435638 1_545
O3 Yb1 2.362461 1_556
O3 Yb0 2.384499 1_455
O3 Yb0 2.384499 1_555
O4 Yb0 2.408470 1_545
O4 Yb0 2.408470 1_445
O4 Yb1 2.626886 1_555
O5 Yb1 2.368448 1_555
O5 Yb0 2.378019 1_455
O5 Yb0 2.378019 1_555
O5 Yb1 2.435638 1_565
