# generated using pymatgen
data_Tl4GeI6
_symmetry_space_group_name_H-M   'P 1'
_cell_length_a   9.28207400
_cell_length_b   9.28207400
_cell_length_c   10.30934000
_cell_angle_alpha   90.00000000
_cell_angle_beta   90.00000000
_cell_angle_gamma   90.00000000
_symmetry_Int_Tables_number   1
_chemical_formula_structural   Tl4GeI6
_chemical_formula_sum   'Tl8 Ge2 I12'
_cell_volume   888.22075216
_cell_formula_units_Z   2
loop_
 _symmetry_equiv_pos_site_id
 _symmetry_equiv_pos_as_xyz
  1  'x, y, z'
loop_
 _atom_site_type_symbol
 _atom_site_label
 _atom_site_symmetry_multiplicity
 _atom_site_fract_x
 _atom_site_fract_y
 _atom_site_fract_z
 _atom_site_occupancy
  Tl  Tl0  1  0.15161000  0.65161000  0.25000000  1
  Tl  Tl1  1  0.84839000  0.34839000  0.75000000  1
  Tl  Tl2  1  0.84839000  0.34839000  0.25000000  1
  Tl  Tl3  1  0.34839000  0.15161000  0.25000000  1
  Tl  Tl4  1  0.15161000  0.65161000  0.75000000  1
  Tl  Tl5  1  0.65161000  0.84839000  0.75000000  1
  Tl  Tl6  1  0.65161000  0.84839000  0.25000000  1
  Tl  Tl7  1  0.34839000  0.15161000  0.75000000  1
  Ge  Ge0  1  0.00000000  0.00000000  0.00000000  1
  Ge  Ge1  1  0.50000000  0.50000000  0.50000000  1
  I  I0  1  0.00000000  0.00000000  0.29047700  1
  I  I1  1  0.00000000  0.00000000  0.70952300  1
  I  I2  1  0.50000000  0.50000000  0.20952300  1
  I  I3  1  0.50000000  0.50000000  0.79047700  1
  I  I4  1  0.13577600  0.30111200  0.00000000  1
  I  I5  1  0.86422400  0.69888800  0.00000000  1
  I  I6  1  0.69888800  0.13577600  0.00000000  1
  I  I7  1  0.36422400  0.80111200  0.50000000  1
  I  I8  1  0.30111200  0.86422400  0.00000000  1
  I  I9  1  0.63577600  0.19888800  0.50000000  1
  I  I10  1  0.80111200  0.63577600  0.50000000  1
  I  I11  1  0.19888800  0.36422400  0.50000000  1
loop_
_geom_bond_atom_site_label_1
_geom_bond_atom_site_label_2
_geom_bond_distance
_geom_bond_site_symmetry_2
Ge0 I0 2.994626 1_555
Ge0 I1 2.994626 1_554
Ge0 I4 3.065946 1_555
Ge0 I8 3.065946 1_545
Ge0 I6 3.065946 1_455
Ge0 I5 3.065946 1_445
Ge1 I2 2.994626 1_555
Ge1 I3 2.994626 1_555
Ge1 I11 3.065946 1_555
Ge1 I9 3.065946 1_555
Ge1 I7 3.065946 1_555
Ge1 I10 3.065946 1_555
I0 Tl3 3.551316 1_555
I0 Tl0 3.551316 1_545
I0 Tl6 3.551316 1_445
I0 Tl2 3.551316 1_455
I1 Tl5 3.551316 1_445
I1 Tl1 3.551316 1_455
I1 Tl7 3.551316 1_555
I1 Tl4 3.551316 1_545
I2 Tl2 3.551316 1_555
I2 Tl3 3.551316 1_555
I2 Tl6 3.551316 1_555
I2 Tl0 3.551316 1_555
I3 Tl7 3.551316 1_555
I3 Tl4 3.551316 1_555
I3 Tl1 3.551316 1_555
I3 Tl5 3.551316 1_555
I4 Tl3 3.530302 1_555
I4 Tl7 3.530302 1_554
I5 Tl6 3.530302 1_555
I5 Tl5 3.530302 1_554
I6 Tl1 3.530302 1_554
I6 Tl2 3.530302 1_555
I7 Tl4 3.530302 1_555
I7 Tl0 3.530302 1_555
I8 Tl4 3.530302 1_554
I8 Tl0 3.530302 1_555
I9 Tl2 3.530302 1_555
I9 Tl1 3.530302 1_555
I10 Tl5 3.530302 1_555
I10 Tl6 3.530302 1_555
I11 Tl7 3.530302 1_555
I11 Tl3 3.530302 1_555
