# generated using pymatgen
data_NaH2SNO3
_symmetry_space_group_name_H-M   'P 1'
_cell_length_a   5.63854300
_cell_length_b   12.81687500
_cell_length_c   15.93988900
_cell_angle_alpha   90.00000000
_cell_angle_beta   90.00000000
_cell_angle_gamma   90.00000000
_symmetry_Int_Tables_number   1
_chemical_formula_structural   NaH2SNO3
_chemical_formula_sum   'Na12 H24 S12 N12 O36'
_cell_volume   1151.95188116
_cell_formula_units_Z   12
loop_
 _symmetry_equiv_pos_site_id
 _symmetry_equiv_pos_as_xyz
  1  'x, y, z'
loop_
 _atom_site_type_symbol
 _atom_site_label
 _atom_site_symmetry_multiplicity
 _atom_site_fract_x
 _atom_site_fract_y
 _atom_site_fract_z
 _atom_site_occupancy
  Na  Na0  1  0.95394300  0.53621500  0.72563300  1
  Na  Na1  1  0.54605700  0.46378500  0.22563300  1
  Na  Na2  1  0.45394300  0.96378500  0.27436700  1
  Na  Na3  1  0.04605700  0.03621500  0.77436700  1
  Na  Na4  1  0.95404100  0.78088700  0.22860900  1
  Na  Na5  1  0.54595900  0.21911300  0.72860900  1
  Na  Na6  1  0.45404100  0.71911300  0.77139100  1
  Na  Na7  1  0.04595900  0.28088700  0.27139100  1
  Na  Na8  1  0.99772900  0.78613900  0.63196900  1
  Na  Na9  1  0.50227100  0.21386100  0.13196900  1
  Na  Na10  1  0.49772900  0.71386100  0.36803100  1
  Na  Na11  1  0.00227100  0.28613900  0.86803100  1
  H  H0  1  0.16023900  0.99649900  0.48190700  1
  H  H1  1  0.33976100  0.00350100  0.98190700  1
  H  H2  1  0.66023900  0.50350100  0.51809300  1
  H  H3  1  0.83976100  0.49649900  0.01809300  1
  H  H4  1  0.00912900  0.04738900  0.40061100  1
  H  H5  1  0.49087100  0.95261100  0.90061100  1
  H  H6  1  0.50912900  0.45261100  0.59938900  1
  H  H7  1  0.99087100  0.54738900  0.09938900  1
  H  H8  1  0.42366000  0.24848300  0.49243200  1
  H  H9  1  0.07634000  0.75151700  0.99243200  1
  H  H10  1  0.92366000  0.25151700  0.50756800  1
  H  H11  1  0.57634000  0.74848300  0.00756800  1
  H  H12  1  0.50220500  0.35530000  0.44077900  1
  H  H13  1  0.99779500  0.64470000  0.94077900  1
  H  H14  1  0.00220500  0.14470000  0.55922100  1
  H  H15  1  0.49779500  0.85530000  0.05922100  1
  H  H16  1  0.98466300  0.12362900  0.02920700  1
  H  H17  1  0.51533700  0.87637100  0.52920700  1
  H  H18  1  0.48466300  0.37637100  0.97079300  1
  H  H19  1  0.01533700  0.62362900  0.47079300  1
  H  H20  1  0.90168700  0.99997300  0.02137100  1
  H  H21  1  0.59831300  0.00002700  0.52137100  1
  H  H22  1  0.40168700  0.50002700  0.97862900  1
  H  H23  1  0.09831300  0.49997300  0.47862900  1
  S  S0  1  0.98145600  0.87328800  0.41086800  1
  S  S1  1  0.51854400  0.12671200  0.91086800  1
  S  S2  1  0.48145600  0.62671200  0.58913200  1
  S  S3  1  0.01854400  0.37328800  0.08913200  1
  S  S4  1  0.54219400  0.21443900  0.35993200  1
  S  S5  1  0.95780600  0.78556100  0.85993200  1
  S  S6  1  0.04219400  0.28556100  0.64006800  1
  S  S7  1  0.45780600  0.71443900  0.14006800  1
  S  S8  1  0.98828600  0.04625900  0.15340200  1
  S  S9  1  0.51171400  0.95374100  0.65340200  1
  S  S10  1  0.48828600  0.45374100  0.84659800  1
  S  S11  1  0.01171400  0.54625900  0.34659800  1
  N  N0  1  0.00393700  0.99372800  0.44836900  1
  N  N1  1  0.49606300  0.00627200  0.94836900  1
  N  N2  1  0.50393700  0.50627200  0.55163100  1
  N  N3  1  0.99606300  0.49372800  0.05163100  1
  N  N4  1  0.41586800  0.28555100  0.43540800  1
  N  N5  1  0.08413200  0.71444900  0.93540800  1
  N  N6  1  0.91586800  0.21444900  0.56459200  1
  N  N7  1  0.58413200  0.78555100  0.06459200  1
  N  N8  1  0.02246200  0.04918600  0.04891000  1
  N  N9  1  0.47753800  0.95081400  0.54891000  1
  N  N10  1  0.52246200  0.45081400  0.95109000  1
  N  N11  1  0.97753800  0.54918600  0.45109000  1
  O  O0  1  0.76021800  0.87256400  0.36147000  1
  O  O1  1  0.73978200  0.12743600  0.86147000  1
  O  O2  1  0.26021800  0.62743600  0.63853000  1
  O  O3  1  0.23978200  0.37256400  0.13853000  1
  O  O4  1  0.18764900  0.84904000  0.35638800  1
  O  O5  1  0.31235100  0.15096000  0.85638800  1
  O  O6  1  0.68764900  0.65096000  0.64361200  1
  O  O7  1  0.81235100  0.34904000  0.14361200  1
  O  O8  1  0.97541600  0.80713100  0.48550500  1
  O  O9  1  0.52458400  0.19286900  0.98550500  1
  O  O10  1  0.47541600  0.69286900  0.51449500  1
  O  O11  1  0.02458400  0.30713100  0.01449500  1
  O  O12  1  0.48165300  0.27267800  0.28280600  1
  O  O13  1  0.01834700  0.72732200  0.78280600  1
  O  O14  1  0.98165300  0.22732200  0.71719400  1
  O  O15  1  0.51834700  0.77267800  0.21719400  1
  O  O16  1  0.42603300  0.11248500  0.36597700  1
  O  O17  1  0.07396700  0.88751500  0.86597700  1
  O  O18  1  0.92603300  0.38751500  0.63402300  1
  O  O19  1  0.57396700  0.61248500  0.13402300  1
  O  O20  1  0.80055800  0.20970100  0.37315100  1
  O  O21  1  0.69944200  0.79029900  0.87315100  1
  O  O22  1  0.30055800  0.29029900  0.62684900  1
  O  O23  1  0.19944200  0.70970100  0.12684900  1
  O  O24  1  0.73440900  0.05995200  0.17365900  1
  O  O25  1  0.76559100  0.94004800  0.67365900  1
  O  O26  1  0.23440900  0.44004800  0.82634100  1
  O  O27  1  0.26559100  0.55995200  0.32634100  1
  O  O28  1  0.13597600  0.13331900  0.18277200  1
  O  O29  1  0.36402400  0.86668100  0.68277200  1
  O  O30  1  0.63597600  0.36668100  0.81722800  1
  O  O31  1  0.86402400  0.63331900  0.31722800  1
  O  O32  1  0.08011400  0.94459700  0.17990300  1
  O  O33  1  0.41988600  0.05540300  0.67990300  1
  O  O34  1  0.58011400  0.55540300  0.82009700  1
  O  O35  1  0.91988600  0.44459700  0.32009700  1
loop_
_geom_bond_atom_site_label_1
_geom_bond_atom_site_label_2
_geom_bond_distance
_geom_bond_site_symmetry_2
Na0 O18 2.406126 1_555
Na0 O6 2.475221 1_555
Na0 O2 2.505390 1_655
Na0 O26 2.568462 1_655
Na0 O34 2.602074 1_555
Na0 O13 2.638547 1_655
Na1 O19 2.406126 1_555
Na1 O7 2.475221 1_555
Na1 O3 2.505390 1_555
Na1 O27 2.568462 1_555
Na1 O35 2.602074 1_555
Na1 O12 2.638547 1_555
Na2 O16 2.406126 1_565
Na2 O4 2.475221 1_555
Na2 O0 2.505390 1_555
Na2 O24 2.568462 1_565
Na2 O32 2.602074 1_555
Na2 O15 2.638547 1_555
Na3 O17 2.406126 1_545
Na3 O5 2.475221 1_555
Na3 O1 2.505390 1_455
Na3 O25 2.568462 1_445
Na3 O33 2.602074 1_555
Na3 O14 2.638547 1_455
Na4 O23 2.319073 1_655
Na4 O32 2.347496 1_655
Na4 O31 2.414589 1_555
Na4 O15 2.465654 1_555
Na4 O4 2.578089 1_655
Na4 O0 2.657080 1_555
Na5 O22 2.319073 1_555
Na5 O33 2.347496 1_555
Na5 O30 2.414589 1_555
Na5 O14 2.465654 1_555
Na5 O5 2.578089 1_555
Na5 O1 2.657080 1_555
Na6 O21 2.319073 1_555
Na6 O34 2.347496 1_555
Na6 O29 2.414589 1_555
Na6 O13 2.465654 1_555
Na6 O6 2.578089 1_555
Na6 O2 2.657080 1_555
Na7 O20 2.319073 1_455
Na7 O35 2.347496 1_455
Na7 O28 2.414589 1_555
Na7 O12 2.465654 1_555
Na7 O7 2.578089 1_455
Na7 O3 2.657080 1_555
Na8 O8 2.353437 1_555
Na8 O29 2.446867 1_655
Na8 O25 2.458893 1_555
Na8 O6 2.468431 1_555
Na8 O2 2.517731 1_655
Na8 O13 2.522416 1_655
Na9 O9 2.353437 1_554
Na9 O28 2.446867 1_555
Na9 O24 2.458893 1_555
Na9 O7 2.468431 1_555
Na9 O3 2.517731 1_555
Na9 O12 2.522416 1_555
Na10 O10 2.353437 1_555
Na10 O31 2.446867 1_555
Na10 O27 2.458893 1_555
Na10 O4 2.468431 1_555
Na10 O0 2.517731 1_555
Na10 O15 2.522416 1_555
Na11 O11 2.353437 1_556
Na11 O30 2.446867 1_455
Na11 O26 2.458893 1_555
Na11 O5 2.468431 1_555
Na11 O1 2.517731 1_455
Na11 O14 2.522416 1_455
H0 N0 1.031391 1_555
H1 N1 1.031391 1_555
H2 N2 1.031391 1_555
H3 N3 1.031391 1_555
H4 N0 1.026349 1_545
H5 N1 1.026349 1_565
H6 N2 1.026349 1_555
H7 N3 1.026349 1_555
H8 N4 1.026571 1_555
H9 N5 1.026571 1_555
H10 N6 1.026571 1_555
H11 N7 1.026571 1_555
H12 N4 1.021514 1_555
H13 N5 1.021514 1_655
H14 N6 1.021514 1_455
H15 N7 1.021514 1_555
H16 N8 1.026849 1_655
H17 N9 1.026849 1_555
H18 N10 1.026849 1_555
H19 N11 1.026849 1_455
H20 N8 1.026792 1_665
H21 N9 1.026792 1_545
H22 N10 1.026792 1_555
H23 N11 1.026792 1_455
N0 S0 1.660207 1_455
N1 S1 1.660207 1_555
N2 S2 1.660207 1_555
N3 S3 1.660207 1_655
N4 S4 1.668974 1_555
N5 S5 1.668974 1_455
N6 S6 1.668974 1_655
N7 S7 1.668974 1_555
N8 S8 1.677121 1_455
N9 S9 1.677121 1_555
N10 S10 1.677121 1_555
N11 S11 1.677121 1_655
O0 S0 1.475208 1_555
O1 S1 1.475208 1_555
O2 S2 1.475208 1_555
O3 S3 1.475208 1_555
O4 S0 1.484055 1_455
O5 S1 1.484055 1_555
O6 S2 1.484055 1_555
O7 S3 1.484055 1_655
O8 S0 1.461348 1_555
O9 S1 1.461348 1_555
O10 S2 1.461348 1_555
O11 S3 1.461348 1_555
O12 S4 1.478201 1_555
O13 S5 1.478201 1_455
O14 S6 1.478201 1_655
O15 S7 1.478201 1_555
O16 S4 1.464865 1_555
O17 S5 1.464865 1_455
O18 S6 1.464865 1_655
O19 S7 1.464865 1_555
O20 S4 1.473208 1_555
O21 S5 1.473208 1_555
O22 S6 1.473208 1_555
O23 S7 1.473208 1_555
O24 S8 1.477919 1_555
O25 S9 1.477919 1_555
O26 S10 1.477919 1_555
O27 S11 1.477919 1_555
O28 S8 1.468926 1_455
O29 S9 1.468926 1_555
O30 S10 1.468926 1_555
O31 S11 1.468926 1_655
O32 S8 1.464348 1_465
O33 S9 1.464348 1_545
O34 S10 1.464348 1_555
O35 S11 1.464348 1_655
