# generated using pymatgen
data_Mg14GaBi
_symmetry_space_group_name_H-M   'P 1'
_cell_length_a   6.38131745
_cell_length_b   6.57628305
_cell_length_c   10.29811996
_cell_angle_alpha   90.00000000
_cell_angle_beta   90.00000000
_cell_angle_gamma   121.01592930
_symmetry_Int_Tables_number   1
_chemical_formula_structural   Mg14GaBi
_chemical_formula_sum   'Mg14 Ga1 Bi1'
_cell_volume   370.37513004
_cell_formula_units_Z   1
loop_
 _symmetry_equiv_pos_site_id
 _symmetry_equiv_pos_as_xyz
  1  'x, y, z'
loop_
 _atom_site_type_symbol
 _atom_site_label
 _atom_site_symmetry_multiplicity
 _atom_site_fract_x
 _atom_site_fract_y
 _atom_site_fract_z
 _atom_site_occupancy
  Mg  Mg0  1  0.16778431  0.33389165  0.62500000  1
  Mg  Mg1  1  0.16796772  0.83398336  0.62500000  1
  Mg  Mg2  1  0.66845493  0.33369220  0.12500000  1
  Mg  Mg3  1  0.66683043  0.33350007  0.62500000  1
  Mg  Mg4  1  0.66845493  0.83476173  0.12500000  1
  Mg  Mg5  1  0.66683043  0.83332936  0.62500000  1
  Mg  Mg6  1  0.33290407  0.17148848  0.37532875  1
  Mg  Mg7  1  0.33290407  0.17148848  0.87467125  1
  Mg  Mg8  1  0.33290407  0.66141659  0.37532875  1
  Mg  Mg9  1  0.33290407  0.66141659  0.87467125  1
  Mg  Mg10  1  0.83611316  0.16805708  0.37327859  1
  Mg  Mg11  1  0.83611316  0.16805708  0.87672141  1
  Mg  Mg12  1  0.83043841  0.66521970  0.37807349  1
  Mg  Mg13  1  0.83043841  0.66521970  0.87192651  1
  Ga  Ga0  1  0.16413572  0.33206736  0.12500000  1
  Bi  Bi0  1  0.16482213  0.83241056  0.12500000  1
loop_
_geom_bond_atom_site_label_1
_geom_bond_atom_site_label_2
_geom_bond_distance
_geom_bond_site_symmetry_2
Mg0 Mg10 3.163858 1_455
Mg0 Mg11 3.163858 1_455
Mg0 Mg7 3.165659 1_555
Mg0 Mg6 3.165659 1_555
Mg0 Mg8 3.165666 1_555
Mg0 Mg9 3.165666 1_555
Mg0 Mg5 3.185899 1_555
Mg0 Mg3 3.185899 1_555
Mg0 Mg5 3.195419 1_445
Mg0 Mg3 3.195420 1_455
Mg0 Mg1 3.288142 1_545
Mg0 Mg1 3.288142 1_555
Mg1 Mg12 3.142242 1_455
Mg1 Mg13 3.142242 1_455
Mg1 Mg3 3.185619 1_565
Mg1 Mg5 3.185620 1_555
Mg1 Mg3 3.195702 1_455
Mg1 Mg5 3.195702 1_455
Mg1 Mg9 3.199590 1_555
Mg1 Mg8 3.199590 1_555
Mg1 Mg6 3.199597 1_565
Mg1 Mg7 3.199597 1_565
Mg2 Mg6 3.164587 1_555
Mg2 Mg7 3.164587 1_554
Mg2 Mg4 3.281108 1_545
Mg2 Mg4 3.295175 1_555
Mg3 Mg6 3.153877 1_555
Mg3 Mg7 3.153877 1_555
Mg3 Mg5 3.287019 1_555
Mg3 Mg5 3.289264 1_545
Mg4 Mg9 3.164587 1_554
Mg4 Mg8 3.164587 1_555
Mg5 Mg9 3.153877 1_555
Mg5 Mg8 3.153877 1_555
Mg6 Mg8 3.221906 1_555
Mg6 Mg8 3.354377 1_545
Mg7 Mg9 3.221906 1_555
Mg7 Mg9 3.354377 1_545
Mg10 Mg8 3.158682 1_655
Mg10 Mg6 3.158683 1_655
Mg10 Mg2 3.173226 1_555
Mg10 Mg4 3.173233 1_545
Mg10 Mg3 3.206508 1_555
Mg10 Mg5 3.206514 1_545
Mg10 Mg8 3.222892 1_545
Mg10 Mg6 3.222892 1_555
Mg10 Mg12 3.288659 1_555
Mg10 Mg12 3.288659 1_545
Mg11 Mg9 3.158682 1_655
Mg11 Mg7 3.158683 1_655
Mg11 Mg2 3.173226 1_556
Mg11 Mg4 3.173233 1_546
Mg11 Mg3 3.206508 1_555
Mg11 Mg5 3.206514 1_545
Mg11 Mg9 3.222892 1_545
Mg11 Mg7 3.222892 1_555
Mg11 Mg13 3.288659 1_555
Mg11 Mg13 3.288659 1_545
Mg12 Mg5 3.157204 1_555
Mg12 Mg3 3.157210 1_555
Mg12 Mg6 3.162236 1_555
Mg12 Mg8 3.162236 1_555
Mg12 Mg4 3.208034 1_555
Mg12 Mg2 3.208041 1_555
Mg12 Mg6 3.219475 1_665
Mg12 Mg8 3.219476 1_655
Mg13 Mg5 3.157204 1_555
Mg13 Mg3 3.157210 1_555
Mg13 Mg7 3.162236 1_555
Mg13 Mg9 3.162236 1_555
Mg13 Mg4 3.208034 1_556
Mg13 Mg2 3.208041 1_556
Mg13 Mg7 3.219475 1_665
Mg13 Mg9 3.219476 1_655
Ga0 Mg10 3.123371 1_455
Ga0 Mg11 3.123371 1_454
Ga0 Mg4 3.168615 1_445
Ga0 Mg2 3.168616 1_455
Ga0 Mg7 3.176901 1_554
Ga0 Mg6 3.176901 1_555
Ga0 Mg9 3.176907 1_554
Ga0 Mg8 3.176907 1_555
Ga0 Mg4 3.212728 1_555
Ga0 Mg2 3.212728 1_555
Bi0 Mg2 3.175471 1_455
Bi0 Mg4 3.175472 1_455
Bi0 Mg12 3.183774 1_455
Bi0 Mg13 3.183774 1_454
Bi0 Mg2 3.205901 1_565
Bi0 Mg4 3.205901 1_555
Bi0 Mg9 3.209918 1_554
Bi0 Mg8 3.209918 1_555
Bi0 Mg7 3.209925 1_564
Bi0 Mg6 3.209925 1_565
Bi0 Ga0 3.288144 1_555
Bi0 Ga0 3.288144 1_565
