# generated using pymatgen
data_Na3YSi2O7
_symmetry_space_group_name_H-M   'P 1'
_cell_length_a   9.51144612
_cell_length_b   9.51144612
_cell_length_c   13.93651300
_cell_angle_alpha   90.00000000
_cell_angle_beta   90.00000000
_cell_angle_gamma   120.00000083
_symmetry_Int_Tables_number   1
_chemical_formula_structural   Na3YSi2O7
_chemical_formula_sum   'Na18 Y6 Si12 O42'
_cell_volume   1091.88740493
_cell_formula_units_Z   6
loop_
 _symmetry_equiv_pos_site_id
 _symmetry_equiv_pos_as_xyz
  1  'x, y, z'
loop_
 _atom_site_type_symbol
 _atom_site_label
 _atom_site_symmetry_multiplicity
 _atom_site_fract_x
 _atom_site_fract_y
 _atom_site_fract_z
 _atom_site_occupancy
  Na  Na0  1  0.33333300  0.66666700  0.25006500  1
  Na  Na1  1  0.66666700  0.33333300  0.75006500  1
  Na  Na2  1  0.00000000  0.00000000  0.00004900  1
  Na  Na3  1  0.00000000  0.00000000  0.50004900  1
  Na  Na4  1  0.33333300  0.66666700  0.77038000  1
  Na  Na5  1  0.66666700  0.33333300  0.27038000  1
  Na  Na6  1  0.01519300  0.68518400  0.08757400  1
  Na  Na7  1  0.31481600  0.33000900  0.08757400  1
  Na  Na8  1  0.66999100  0.98480700  0.08757400  1
  Na  Na9  1  0.98480700  0.31481600  0.58757400  1
  Na  Na10  1  0.68518400  0.66999100  0.58757400  1
  Na  Na11  1  0.33000900  0.01519300  0.58757400  1
  Na  Na12  1  0.98430700  0.31440700  0.91262700  1
  Na  Na13  1  0.68559300  0.66990000  0.91262700  1
  Na  Na14  1  0.33010000  0.01569300  0.91262700  1
  Na  Na15  1  0.01569300  0.68559300  0.41262700  1
  Na  Na16  1  0.31440700  0.33010000  0.41262700  1
  Na  Na17  1  0.66990000  0.98430700  0.41262700  1
  Y  Y0  1  0.66666700  0.33333300  0.51981200  1
  Y  Y1  1  0.33333300  0.66666700  0.01981200  1
  Y  Y2  1  0.33333300  0.66666700  0.48215500  1
  Y  Y3  1  0.66666700  0.33333300  0.98215500  1
  Y  Y4  1  0.00000000  0.00000000  0.74983300  1
  Y  Y5  1  0.00000000  0.00000000  0.24983300  1
  Si  Si0  1  0.01895600  0.67221800  0.64079500  1
  Si  Si1  1  0.32778200  0.34673700  0.64079500  1
  Si  Si2  1  0.65326300  0.98104400  0.64079500  1
  Si  Si3  1  0.98104400  0.32778200  0.14079500  1
  Si  Si4  1  0.67221800  0.65326300  0.14079500  1
  Si  Si5  1  0.34673700  0.01895600  0.14079500  1
  Si  Si6  1  0.98198900  0.32794600  0.35911800  1
  Si  Si7  1  0.67205400  0.65404300  0.35911800  1
  Si  Si8  1  0.34595700  0.01801100  0.35911800  1
  Si  Si9  1  0.01801100  0.67205400  0.85911800  1
  Si  Si10  1  0.32794600  0.34595700  0.85911800  1
  Si  Si11  1  0.65404300  0.98198900  0.85911800  1
  O  O0  1  0.51498900  0.39145500  0.62081000  1
  O  O1  1  0.60854500  0.12353500  0.62081000  1
  O  O2  1  0.87646500  0.48501100  0.62081000  1
  O  O3  1  0.48501100  0.60854500  0.12081000  1
  O  O4  1  0.39145500  0.87646500  0.12081000  1
  O  O5  1  0.12353500  0.51498900  0.12081000  1
  O  O6  1  0.48492000  0.60838100  0.37922100  1
  O  O7  1  0.39161900  0.87653900  0.37922100  1
  O  O8  1  0.12346100  0.51508000  0.37922100  1
  O  O9  1  0.51508000  0.39161900  0.87922100  1
  O  O10  1  0.60838100  0.12346100  0.87922100  1
  O  O11  1  0.87653900  0.48492000  0.87922100  1
  O  O12  1  0.17184700  0.73076700  0.93337700  1
  O  O13  1  0.26923300  0.44108000  0.93337700  1
  O  O14  1  0.55892000  0.82815300  0.93337700  1
  O  O15  1  0.82815300  0.26923300  0.43337700  1
  O  O16  1  0.73076700  0.55892000  0.43337700  1
  O  O17  1  0.44108000  0.17184700  0.43337700  1
  O  O18  1  0.82903300  0.26882400  0.06578800  1
  O  O19  1  0.73117600  0.56020900  0.06578800  1
  O  O20  1  0.43979100  0.17096700  0.06578800  1
  O  O21  1  0.17096700  0.73117600  0.56578800  1
  O  O22  1  0.26882400  0.43979100  0.56578800  1
  O  O23  1  0.56020900  0.82903300  0.56578800  1
  O  O24  1  0.95179500  0.80088700  0.86116400  1
  O  O25  1  0.19911300  0.15090800  0.86116400  1
  O  O26  1  0.84909200  0.04820500  0.86116400  1
  O  O27  1  0.04820500  0.19911300  0.36116400  1
  O  O28  1  0.80088700  0.84909200  0.36116400  1
  O  O29  1  0.15090800  0.95179500  0.36116400  1
  O  O30  1  0.04821500  0.19934100  0.13900600  1
  O  O31  1  0.80065900  0.84887400  0.13900600  1
  O  O32  1  0.15112600  0.95178500  0.13900600  1
  O  O33  1  0.95178500  0.80065900  0.63900600  1
  O  O34  1  0.19934100  0.15112600  0.63900600  1
  O  O35  1  0.84887400  0.04821500  0.63900600  1
  O  O36  1  0.09923900  0.68090700  0.75009000  1
  O  O37  1  0.31909300  0.41833100  0.75009000  1
  O  O38  1  0.58166900  0.90076100  0.75009000  1
  O  O39  1  0.90076100  0.31909300  0.25009000  1
  O  O40  1  0.68090700  0.58166900  0.25009000  1
  O  O41  1  0.41833100  0.09923900  0.25009000  1
loop_
_geom_bond_atom_site_label_1
_geom_bond_atom_site_label_2
_geom_bond_distance
_geom_bond_site_symmetry_2
Na0 O7 2.534835 1_555
Na0 O8 2.534837 1_555
Na0 O6 2.534842 1_555
Na0 O4 2.535611 1_555
Na0 O5 2.535615 1_555
Na0 O3 2.535624 1_555
Na1 O10 2.534835 1_555
Na1 O11 2.534837 1_555
Na1 O9 2.534842 1_555
Na1 O1 2.535611 1_555
Na1 O2 2.535615 1_555
Na1 O0 2.535624 1_555
Na2 O25 2.583604 1_554
Na2 O24 2.583604 1_444
Na2 O26 2.583604 1_454
Na2 O31 2.585735 1_445
Na2 O30 2.585735 1_555
Na2 O32 2.585735 1_545
Na3 O28 2.583604 1_445
Na3 O27 2.583604 1_555
Na3 O29 2.583604 1_545
Na3 O34 2.585735 1_555
Na3 O33 2.585735 1_445
Na3 O35 2.585735 1_455
Na4 O36 2.314628 1_555
Na4 O38 2.314638 1_555
Na4 O37 2.314647 1_555
Na5 O39 2.314628 1_555
Na5 O41 2.314638 1_555
Na5 O40 2.314647 1_555
Na6 O32 2.310188 1_555
Na6 O5 2.359052 1_555
Na6 O19 2.364668 1_455
Na6 O12 2.525896 1_554
Na7 O30 2.310188 1_555
Na7 O3 2.359045 1_555
Na7 O20 2.364668 1_555
Na7 O13 2.525896 1_554
Na8 O31 2.310188 1_555
Na8 O4 2.359044 1_555
Na8 O18 2.364668 1_565
Na8 O14 2.525896 1_554
Na9 O35 2.310188 1_555
Na9 O2 2.359052 1_555
Na9 O22 2.364668 1_655
Na9 O15 2.525896 1_555
Na10 O33 2.310188 1_555
Na10 O0 2.359045 1_555
Na10 O23 2.364668 1_555
Na10 O16 2.525896 1_555
Na11 O34 2.310188 1_555
Na11 O1 2.359044 1_555
Na11 O21 2.364668 1_545
Na11 O17 2.525896 1_555
Na12 O26 2.307150 1_555
Na12 O11 2.358001 1_555
Na12 O13 2.369492 1_655
Na12 O18 2.507001 1_556
Na13 O24 2.307150 1_555
Na13 O9 2.358001 1_555
Na13 O14 2.369492 1_555
Na13 O19 2.507001 1_556
Na14 O25 2.307150 1_555
Na14 O10 2.358001 1_555
Na14 O12 2.369492 1_545
Na14 O20 2.507001 1_556
Na15 O29 2.307150 1_555
Na15 O8 2.358001 1_555
Na15 O16 2.369492 1_455
Na15 O21 2.507001 1_555
Na16 O27 2.307150 1_555
Na16 O6 2.358001 1_555
Na16 O17 2.369492 1_555
Na16 O22 2.507001 1_555
Na17 O28 2.307150 1_555
Na17 O7 2.358001 1_555
Na17 O15 2.369492 1_565
Na17 O23 2.507001 1_555
O0 Si1 1.634534 1_555
O0 Y0 2.272818 1_555
O1 Si2 1.634552 1_545
O1 Y0 2.272804 1_555
O2 Si0 1.634539 1_655
O2 Y0 2.272808 1_555
O3 Si4 1.634534 1_555
O3 Y1 2.272818 1_555
O4 Si5 1.634552 1_565
O4 Y1 2.272804 1_555
O5 Si3 1.634539 1_455
O5 Y1 2.272808 1_555
O6 Si7 1.631618 1_555
O6 Y2 2.289845 1_555
O7 Si8 1.631618 1_565
O7 Y2 2.289837 1_555
O8 Si6 1.631618 1_455
O8 Y2 2.289839 1_555
O9 Si10 1.631618 1_555
O9 Y3 2.289845 1_555
O10 Si11 1.631618 1_545
O10 Y3 2.289837 1_555
O11 Si9 1.631618 1_655
O11 Y3 2.289839 1_555
O12 Si9 1.645219 1_555
O12 Y1 2.262393 1_556
O13 Si10 1.645219 1_555
O13 Y1 2.262401 1_556
O14 Si11 1.645219 1_555
O14 Y1 2.262399 1_556
O15 Si6 1.645219 1_555
O15 Y0 2.262393 1_555
O16 Si7 1.645219 1_555
O16 Y0 2.262401 1_555
O17 Si8 1.645219 1_555
O17 Y0 2.262399 1_555
O18 Si3 1.639167 1_555
O18 Y3 2.251116 1_554
O19 Si4 1.639174 1_555
O19 Y3 2.251123 1_554
O20 Si5 1.639168 1_555
O20 Y3 2.251121 1_554
O21 Si0 1.639167 1_555
O21 Y2 2.251116 1_555
O22 Si1 1.639174 1_555
O22 Y2 2.251123 1_555
O23 Si2 1.639168 1_555
O23 Y2 2.251121 1_555
O24 Si9 1.634262 1_655
O24 Y4 2.309962 1_665
O25 Si10 1.634262 1_555
O25 Y4 2.309962 1_555
O26 Si11 1.634262 1_545
O26 Y4 2.309962 1_655
O27 Si6 1.634262 1_455
O27 Y5 2.309962 1_555
O28 Si7 1.634262 1_555
O28 Y5 2.309962 1_665
O29 Si8 1.634262 1_565
O29 Y5 2.309962 1_565
O30 Si3 1.637611 1_455
O30 Y5 2.306797 1_555
O31 Si4 1.637603 1_555
O31 Y5 2.306797 1_665
O32 Si5 1.637602 1_565
O32 Y5 2.306797 1_565
O33 Si0 1.637611 1_655
O33 Y4 2.306797 1_665
O34 Si1 1.637603 1_555
O34 Y4 2.306797 1_555
O35 Si2 1.637602 1_545
O35 Y4 2.306797 1_655
O36 Si0 1.687285 1_555
O36 Si9 1.687521 1_555
O37 Si1 1.687285 1_555
O37 Si10 1.687517 1_555
O38 Si2 1.687285 1_555
O38 Si11 1.687520 1_555
O39 Si3 1.687285 1_555
O39 Si6 1.687521 1_555
O40 Si4 1.687285 1_555
O40 Si7 1.687517 1_555
O41 Si5 1.687285 1_555
O41 Si8 1.687520 1_555
