# generated using pymatgen
data_HfAsPd
_symmetry_space_group_name_H-M   'P 1'
_cell_length_a   6.74003652
_cell_length_b   6.74003652
_cell_length_c   3.96172300
_cell_angle_alpha   90.00000000
_cell_angle_beta   90.00000000
_cell_angle_gamma   120.00000511
_symmetry_Int_Tables_number   1
_chemical_formula_structural   HfAsPd
_chemical_formula_sum   'Hf3 As3 Pd3'
_cell_volume   155.86163068
_cell_formula_units_Z   3
loop_
 _symmetry_equiv_pos_site_id
 _symmetry_equiv_pos_as_xyz
  1  'x, y, z'
loop_
 _atom_site_type_symbol
 _atom_site_label
 _atom_site_symmetry_multiplicity
 _atom_site_fract_x
 _atom_site_fract_y
 _atom_site_fract_z
 _atom_site_occupancy
  Hf  Hf0  1  0.59545100  0.00000000  0.00000000  1
  Hf  Hf1  1  0.00000000  0.59545100  0.00000000  1
  Hf  Hf2  1  0.40454900  0.40454900  0.00000000  1
  As  As0  1  0.33333300  0.66666700  0.50000000  1
  As  As1  1  0.66666700  0.33333300  0.50000000  1
  As  As2  1  0.00000000  0.00000000  0.00000000  1
  Pd  Pd0  1  0.26392600  0.00000000  0.50000000  1
  Pd  Pd1  1  0.00000000  0.26392600  0.50000000  1
  Pd  Pd2  1  0.73607400  0.73607400  0.50000000  1
loop_
_geom_bond_atom_site_label_1
_geom_bond_atom_site_label_2
_geom_bond_distance
_geom_bond_site_symmetry_2
Hf0 Pd0 2.986095 1_555
Hf0 Pd0 2.986095 1_554
Hf0 Pd1 3.110072 1_654
Hf0 Pd1 3.110072 1_655
Hf0 Pd2 3.110072 1_544
Hf0 Pd2 3.110072 1_545
Hf1 Pd1 2.986095 1_555
Hf1 Pd1 2.986095 1_554
Hf1 Pd0 3.110072 1_565
Hf1 Pd0 3.110072 1_564
Hf1 Pd2 3.110072 1_454
Hf1 Pd2 3.110072 1_455
Hf2 Pd2 2.986094 1_555
Hf2 Pd2 2.986094 1_554
Hf2 Pd0 3.110072 1_555
Hf2 Pd0 3.110072 1_554
Hf2 Pd1 3.110072 1_554
Hf2 Pd1 3.110072 1_555
As0 Pd0 2.513445 1_565
As0 Pd1 2.513449 1_555
As0 Pd2 2.513452 1_555
As0 Hf1 2.850152 1_556
As0 Hf1 2.850152 1_555
As0 Hf0 2.850153 1_565
As0 Hf0 2.850153 1_566
As0 Hf2 2.850157 1_555
As0 Hf2 2.850157 1_556
As1 Pd1 2.513445 1_655
As1 Pd0 2.513449 1_555
As1 Pd2 2.513452 1_555
As1 Hf0 2.850152 1_555
As1 Hf0 2.850152 1_556
As1 Hf1 2.850153 1_655
As1 Hf1 2.850153 1_656
As1 Hf2 2.850157 1_555
As1 Hf2 2.850157 1_556
As2 Pd2 2.662366 1_444
As2 Pd2 2.662366 1_445
As2 Pd1 2.662366 1_555
As2 Pd0 2.662366 1_555
As2 Pd0 2.662366 1_554
As2 Pd1 2.662366 1_554
As2 Hf2 2.726675 1_555
As2 Hf1 2.726675 1_545
As2 Hf0 2.726675 1_455
