# generated using pymatgen
data_Ca(AgO2)2
_symmetry_space_group_name_H-M   'P 1'
_cell_length_a   6.59461195
_cell_length_b   6.59461195
_cell_length_c   16.23099457
_cell_angle_alpha   89.58030243
_cell_angle_beta   89.58030243
_cell_angle_gamma   59.82260741
_symmetry_Int_Tables_number   1
_chemical_formula_structural   Ca(AgO2)2
_chemical_formula_sum   'Ca6 Ag12 O24'
_cell_volume   610.18237012
_cell_formula_units_Z   6
loop_
 _symmetry_equiv_pos_site_id
 _symmetry_equiv_pos_as_xyz
  1  'x, y, z'
loop_
 _atom_site_type_symbol
 _atom_site_label
 _atom_site_symmetry_multiplicity
 _atom_site_fract_x
 _atom_site_fract_y
 _atom_site_fract_z
 _atom_site_occupancy
  Ca  Ca0  1  0.84780200  0.84780200  0.95995400  1
  Ca  Ca1  1  0.16630100  0.16630100  0.66842500  1
  Ca  Ca2  1  0.33536100  0.33536100  0.83398500  1
  Ca  Ca3  1  0.83397000  0.83397000  0.33209400  1
  Ca  Ca4  1  0.00035800  0.00035800  0.49996200  1
  Ca  Ca5  1  0.66362300  0.66362300  0.16561900  1
  Ag  Ag0  1  0.83171500  0.33778700  0.83373800  1
  Ag  Ag1  1  0.50602200  0.50602200  0.62011500  1
  Ag  Ag2  1  0.49976100  0.49976100  0.99951300  1
  Ag  Ag3  1  0.33778700  0.83171500  0.83373800  1
  Ag  Ag4  1  0.50001500  0.99994500  0.50018500  1
  Ag  Ag5  1  0.17251900  0.17251900  0.29266500  1
  Ag  Ag6  1  0.99994500  0.50001500  0.50018500  1
  Ag  Ag7  1  0.16618400  0.66388500  0.16648700  1
  Ag  Ag8  1  0.82955300  0.82955300  0.70676600  1
  Ag  Ag9  1  0.66388500  0.16618400  0.16648700  1
  Ag  Ag10  1  0.49302400  0.49302400  0.37946600  1
  Ag  Ag11  1  0.16487200  0.16487200  0.04309900  1
  O  O0  1  0.66179700  0.22081000  0.91538200  1
  O  O1  1  0.51380700  0.51380700  0.76017000  1
  O  O2  1  0.22081000  0.66179700  0.91538200  1
  O  O3  1  0.65560700  0.65560700  0.91165800  1
  O  O4  1  0.33978800  0.86706300  0.57430400  1
  O  O5  1  0.00308900  0.00308900  0.76417800  1
  O  O6  1  0.18038800  0.18038800  0.42789300  1
  O  O7  1  0.47451200  0.99046700  0.76196000  1
  O  O8  1  0.86706300  0.33978800  0.57430400  1
  O  O9  1  0.15097400  0.15097400  0.90398300  1
  O  O10  1  0.32346100  0.32346100  0.57177600  1
  O  O11  1  0.99046700  0.47451200  0.76196000  1
  O  O12  1  0.00730900  0.52655000  0.23895300  1
  O  O13  1  0.67651500  0.67651500  0.42849800  1
  O  O14  1  0.13375400  0.65987100  0.42614300  1
  O  O15  1  0.52655000  0.00730900  0.23895300  1
  O  O16  1  0.84573900  0.84573900  0.09970400  1
  O  O17  1  0.82038000  0.82038000  0.57229200  1
  O  O18  1  0.99831800  0.99831800  0.24070300  1
  O  O19  1  0.65987100  0.13375400  0.42614300  1
  O  O20  1  0.34314200  0.34314200  0.08338400  1
  O  O21  1  0.78245000  0.33121500  0.08168000  1
  O  O22  1  0.48302300  0.48302300  0.23637600  1
  O  O23  1  0.33121500  0.78245000  0.08168000  1
loop_
_geom_bond_atom_site_label_1
_geom_bond_atom_site_label_2
_geom_bond_distance
_geom_bond_site_symmetry_2
Ca0 O0 2.243273 1_565
Ca0 O2 2.243273 1_655
Ca0 O16 2.268205 1_556
Ca0 O3 2.339125 1_555
Ca1 O4 2.299053 1_545
Ca1 O8 2.299053 1_455
Ca1 O11 2.330352 1_455
Ca1 O7 2.330352 1_545
Ca1 O10 2.375163 1_555
Ca1 O5 2.418268 1_555
Ca2 O11 2.303634 1_455
Ca2 O7 2.303634 1_545
Ca2 O0 2.311370 1_555
Ca2 O2 2.311370 1_555
Ca2 O1 2.357113 1_555
Ca2 O9 2.386196 1_555
Ca3 O19 2.300731 1_565
Ca3 O14 2.300731 1_655
Ca3 O15 2.322042 1_565
Ca3 O12 2.322042 1_655
Ca3 O13 2.375100 1_555
Ca3 O18 2.384010 1_555
Ca4 O8 2.298917 1_455
Ca4 O4 2.298917 1_545
Ca4 O14 2.299850 1_545
Ca4 O19 2.299850 1_455
Ca4 O6 2.358752 1_555
Ca4 O17 2.360309 1_445
Ca5 O12 2.309723 1_655
Ca5 O15 2.309723 1_565
Ca5 O16 2.332763 1_555
Ca5 O22 2.354108 1_555
Ca5 O23 2.361499 1_555
Ca5 O21 2.361499 1_555
Ag0 O11 2.044999 1_555
Ag0 O0 2.106910 1_555
Ag0 O9 2.158068 1_655
Ag0 O1 2.176752 1_555
Ag0 O3 2.216133 1_555
Ag0 O5 2.221186 1_655
Ag1 O8 2.187551 1_555
Ag1 O4 2.187551 1_555
Ag1 O10 2.235908 1_555
Ag1 O1 2.275725 1_555
Ag2 O23 2.102596 1_556
Ag2 O21 2.102596 1_556
Ag2 O0 2.104690 1_555
Ag2 O2 2.104690 1_555
Ag2 O20 2.240082 1_556
Ag2 O3 2.272640 1_555
Ag3 O7 2.044999 1_555
Ag3 O2 2.106910 1_555
Ag3 O9 2.158068 1_565
Ag3 O1 2.176752 1_555
Ag3 O3 2.216133 1_555
Ag3 O5 2.221186 1_565
Ag4 O4 2.056328 1_555
Ag4 O19 2.058000 1_565
Ag4 O6 2.174813 1_565
Ag4 O17 2.176279 1_555
Ag4 O10 2.185563 1_565
Ag4 O13 2.185979 1_555
Ag5 O18 2.169312 1_445
Ag5 O15 2.196513 1_555
Ag5 O12 2.196513 1_555
Ag5 O6 2.197487 1_555
Ag6 O8 2.056328 1_555
Ag6 O14 2.058000 1_655
Ag6 O6 2.174813 1_655
Ag6 O17 2.176279 1_555
Ag6 O10 2.185563 1_655
Ag6 O13 2.185979 1_555
Ag7 O12 2.054678 1_555
Ag7 O23 2.123282 1_555
Ag7 O16 2.132015 1_455
Ag7 O22 2.141152 1_555
Ag7 O18 2.259515 1_455
Ag7 O20 2.278669 1_555
Ag8 O17 2.186050 1_555
Ag8 O5 2.198997 1_665
Ag8 O11 2.212668 1_555
Ag8 O7 2.212668 1_555
Ag9 O15 2.054678 1_555
Ag9 O21 2.123282 1_555
Ag9 O16 2.132015 1_545
Ag9 O22 2.141152 1_555
Ag9 O18 2.259515 1_545
Ag9 O20 2.278669 1_555
Ag10 O14 2.182438 1_555
Ag10 O19 2.182438 1_555
Ag10 O13 2.249910 1_555
Ag10 O22 2.326270 1_555
Ag11 O20 2.145629 1_555
Ag11 O9 2.264913 1_554
Ag11 O23 2.271831 1_545
Ag11 O21 2.271831 1_455
