# generated using pymatgen
data_GaNi9B8
_symmetry_space_group_name_H-M   'P 1'
_cell_length_a   5.39865364
_cell_length_b   5.39865364
_cell_length_c   10.74428200
_cell_angle_alpha   90.00000000
_cell_angle_beta   90.00000000
_cell_angle_gamma   97.55291538
_symmetry_Int_Tables_number   1
_chemical_formula_structural   GaNi9B8
_chemical_formula_sum   'Ga2 Ni18 B16'
_cell_volume   310.43015532
_cell_formula_units_Z   2
loop_
 _symmetry_equiv_pos_site_id
 _symmetry_equiv_pos_as_xyz
  1  'x, y, z'
loop_
 _atom_site_type_symbol
 _atom_site_label
 _atom_site_symmetry_multiplicity
 _atom_site_fract_x
 _atom_site_fract_y
 _atom_site_fract_z
 _atom_site_occupancy
  Ga  Ga0  1  0.91446200  0.08553800  0.75000000  1
  Ga  Ga1  1  0.08553800  0.91446200  0.25000000  1
  Ni  Ni0  1  0.00000000  0.00000000  0.00000000  1
  Ni  Ni1  1  0.00000000  0.00000000  0.50000000  1
  Ni  Ni2  1  0.71020800  0.28979200  0.91913100  1
  Ni  Ni3  1  0.28979200  0.71020800  0.08086900  1
  Ni  Ni4  1  0.71020800  0.28979200  0.58086900  1
  Ni  Ni5  1  0.28979200  0.71020800  0.41913100  1
  Ni  Ni6  1  0.39716900  0.05179000  0.75000000  1
  Ni  Ni7  1  0.05179000  0.39716900  0.25000000  1
  Ni  Ni8  1  0.60283100  0.94821000  0.25000000  1
  Ni  Ni9  1  0.94821000  0.60283100  0.75000000  1
  Ni  Ni10  1  0.62208500  0.75942700  0.88596200  1
  Ni  Ni11  1  0.75942700  0.62208500  0.11403800  1
  Ni  Ni12  1  0.62208500  0.75942700  0.61403800  1
  Ni  Ni13  1  0.75942700  0.62208500  0.38596200  1
  Ni  Ni14  1  0.37791500  0.24057300  0.11403800  1
  Ni  Ni15  1  0.24057300  0.37791500  0.88596200  1
  Ni  Ni16  1  0.37791500  0.24057300  0.38596200  1
  Ni  Ni17  1  0.24057300  0.37791500  0.61403800  1
  B  B0  1  0.56457800  0.43542200  0.75000000  1
  B  B1  1  0.43542200  0.56457800  0.25000000  1
  B  B2  1  0.35157900  0.64842100  0.75000000  1
  B  B3  1  0.64842100  0.35157900  0.25000000  1
  B  B4  1  0.77912100  0.22087900  0.38020800  1
  B  B5  1  0.22087900  0.77912100  0.61979200  1
  B  B6  1  0.77912100  0.22087900  0.11979200  1
  B  B7  1  0.22087900  0.77912100  0.88020800  1
  B  B8  1  0.38300700  0.03987700  0.94887100  1
  B  B9  1  0.03987700  0.38300700  0.05112900  1
  B  B10  1  0.38300700  0.03987700  0.55112900  1
  B  B11  1  0.03987700  0.38300700  0.44887100  1
  B  B12  1  0.61699300  0.96012300  0.05112900  1
  B  B13  1  0.96012300  0.61699300  0.94887100  1
  B  B14  1  0.61699300  0.96012300  0.44887100  1
  B  B15  1  0.96012300  0.61699300  0.55112900  1
loop_
_geom_bond_atom_site_label_1
_geom_bond_atom_site_label_2
_geom_bond_distance
_geom_bond_site_symmetry_2
Ga0 Ni2 2.460430 1_555
Ga0 Ni4 2.460430 1_555
Ga0 Ni6 2.636110 1_655
Ga0 Ni9 2.636110 1_545
Ga0 Ni15 2.644710 1_655
Ga0 Ni10 2.644710 1_545
Ga0 Ni17 2.644710 1_655
Ga0 Ni12 2.644710 1_545
Ga0 Ni0 2.774443 1_656
Ga0 Ni1 2.774443 1_655
Ga0 Ni6 2.774623 1_555
Ga0 Ni9 2.774623 1_555
Ga1 Ni5 2.460430 1_555
Ga1 Ni3 2.460430 1_555
Ga1 Ni7 2.636110 1_565
Ga1 Ni8 2.636110 1_455
Ga1 Ni16 2.644710 1_565
Ga1 Ni13 2.644710 1_455
Ga1 Ni14 2.644710 1_565
Ga1 Ni11 2.644710 1_455
Ga1 Ni1 2.774443 1_565
Ga1 Ni0 2.774443 1_565
Ga1 Ni7 2.774623 1_555
Ga1 Ni8 2.774623 1_555
B0 B2 1.729793 1_555
B0 Ni6 2.148067 1_555
B0 Ni9 2.148067 1_555
B0 Ni2 2.168160 1_555
B0 Ni4 2.168160 1_555
B0 Ni10 2.268760 1_555
B0 Ni15 2.268760 1_555
B0 Ni12 2.268760 1_555
B0 Ni17 2.268760 1_555
B1 B3 1.729793 1_555
B1 Ni7 2.148067 1_555
B1 Ni8 2.148067 1_555
B1 Ni5 2.168160 1_555
B1 Ni3 2.168160 1_555
B1 Ni13 2.268760 1_555
B1 Ni16 2.268760 1_555
B1 Ni11 2.268760 1_555
B1 Ni14 2.268760 1_555
B2 B5 1.756079 1_555
B2 B7 1.756079 1_555
B2 Ni10 2.096598 1_555
B2 Ni15 2.096598 1_555
B2 Ni12 2.096598 1_555
B2 Ni17 2.096598 1_555
B2 Ni9 2.159129 1_455
B2 Ni6 2.159129 1_565
B3 B6 1.756079 1_555
B3 B4 1.756079 1_555
B3 Ni13 2.096598 1_555
B3 Ni16 2.096598 1_555
B3 Ni11 2.096598 1_555
B3 Ni14 2.096598 1_555
B3 Ni8 2.159129 1_545
B3 Ni7 2.159129 1_655
B4 Ni8 2.159071 1_545
B4 Ni7 2.159071 1_655
B4 Ni16 2.183369 1_555
B4 Ni13 2.183369 1_555
B4 Ni1 2.207769 1_655
B4 Ni4 2.227412 1_555
B5 Ni9 2.159071 1_455
B5 Ni6 2.159071 1_565
B5 Ni17 2.183369 1_555
B5 Ni12 2.183369 1_555
B5 Ni1 2.207769 1_565
B5 Ni5 2.227412 1_555
B6 B9 1.722832 1_655
B6 Ni8 2.159071 1_545
B6 Ni7 2.159071 1_655
B6 Ni14 2.183369 1_555
B6 Ni11 2.183369 1_555
B6 Ni0 2.207769 1_655
B6 Ni2 2.227412 1_554
B7 B8 1.722832 1_565
B7 Ni9 2.159071 1_455
B7 Ni6 2.159071 1_565
B7 Ni15 2.183369 1_555
B7 Ni10 2.183369 1_555
B7 Ni0 2.207769 1_566
B7 Ni3 2.227412 1_556
B8 Ni14 2.081283 1_556
B8 Ni2 2.101488 1_555
B8 Ni0 2.122871 1_556
B8 Ni6 2.138758 1_555
B8 Ni15 2.178874 1_555
B8 Ni10 2.220099 1_545
B8 Ni3 2.279634 1_546
B9 Ni15 2.081283 1_554
B9 Ni3 2.101488 1_555
B9 Ni0 2.122871 1_555
B9 Ni7 2.138758 1_555
B9 Ni14 2.178874 1_555
B9 Ni11 2.220099 1_455
B9 Ni2 2.279634 1_454
B10 B5 1.722832 1_545
B10 B14 1.769514 1_545
B10 Ni16 2.081283 1_555
B10 Ni4 2.101488 1_555
B10 Ni1 2.122871 1_555
B10 Ni6 2.138758 1_555
B10 Ni17 2.178874 1_555
B10 Ni12 2.220099 1_545
B10 Ni5 2.279634 1_545
B11 B4 1.722832 1_455
B11 B15 1.769514 1_455
B11 Ni17 2.081283 1_555
B11 Ni5 2.101488 1_555
B11 Ni1 2.122871 1_555
B11 Ni7 2.138758 1_555
B11 Ni16 2.178874 1_555
B11 Ni13 2.220099 1_455
B11 Ni4 2.279634 1_455
B12 B6 1.722832 1_565
B12 B8 1.769514 1_564
B12 Ni10 2.081283 1_554
B12 Ni3 2.101488 1_555
B12 Ni0 2.122871 1_665
B12 Ni8 2.138758 1_555
B12 Ni11 2.178874 1_555
B12 Ni14 2.220099 1_565
B12 Ni2 2.279634 1_564
B13 B7 1.722832 1_655
B13 B9 1.769514 1_656
B13 Ni11 2.081283 1_556
B13 Ni2 2.101488 1_555
B13 Ni0 2.122871 1_666
B13 Ni9 2.138758 1_555
B13 Ni10 2.178874 1_555
B13 Ni15 2.220099 1_655
B13 Ni3 2.279634 1_656
B14 B4 1.722832 1_565
B14 Ni12 2.081283 1_555
B14 Ni5 2.101488 1_555
B14 Ni1 2.122871 1_665
B14 Ni8 2.138758 1_555
B14 Ni13 2.178874 1_555
B14 Ni16 2.220099 1_565
B14 Ni4 2.279634 1_565
B15 B5 1.722832 1_655
B15 Ni13 2.081283 1_555
B15 Ni4 2.101488 1_555
B15 Ni1 2.122871 1_665
B15 Ni9 2.138758 1_555
B15 Ni12 2.178874 1_555
B15 Ni17 2.220099 1_655
B15 Ni5 2.279634 1_655
