# generated using pymatgen
data_Li4MnCo2O7
_symmetry_space_group_name_H-M   'P 1'
_cell_length_a   2.98765900
_cell_length_b   7.77638915
_cell_length_c   11.20039392
_cell_angle_alpha   79.98241958
_cell_angle_beta   82.96032671
_cell_angle_gamma   82.52379845
_symmetry_Int_Tables_number   1
_chemical_formula_structural   Li4MnCo2O7
_chemical_formula_sum   'Li8 Mn2 Co4 O14'
_cell_volume   252.74131631
_cell_formula_units_Z   2
loop_
 _symmetry_equiv_pos_site_id
 _symmetry_equiv_pos_as_xyz
  1  'x, y, z'
loop_
 _atom_site_type_symbol
 _atom_site_label
 _atom_site_symmetry_multiplicity
 _atom_site_fract_x
 _atom_site_fract_y
 _atom_site_fract_z
 _atom_site_occupancy
  Li  Li0  1  0.77740400  0.36189200  0.06339600  1
  Li  Li1  1  0.92164800  0.78525500  0.35808300  1
  Li  Li2  1  0.06700700  0.21454900  0.65251800  1
  Li  Li3  1  0.24203500  0.63784400  0.92313000  1
  Li  Li4  1  0.36458000  0.07077300  0.21550300  1
  Li  Li5  1  0.49799100  0.49999300  0.50368700  1
  Li  Li6  1  0.62751700  0.94113000  0.78362800  1
  Li  Li7  1  0.45414800  0.27747900  0.85066000  1
  Mn  Mn0  1  0.99110900  0.00887400  0.99555100  1
  Mn  Mn1  1  0.15190900  0.42812800  0.28356000  1
  Co  Co0  1  0.27642600  0.85286900  0.57438300  1
  Co  Co1  1  0.55088700  0.71835800  0.14323900  1
  Co  Co2  1  0.72123700  0.13920600  0.43330000  1
  Co  Co3  1  0.86727500  0.56156000  0.71946900  1
  O  O0  1  0.42145700  0.15720700  0.03090400  1
  O  O1  1  0.51056600  0.60821600  0.31133500  1
  O  O2  1  0.62384500  0.03116500  0.60069200  1
  O  O3  1  0.82321300  0.48408400  0.87616100  1
  O  O4  1  0.92820900  0.88609000  0.16999400  1
  O  O5  1  0.13311200  0.31553900  0.45469500  1
  O  O6  1  0.24085300  0.74385600  0.73916100  1
  O  O7  1  0.19714400  0.54394000  0.11038800  1
  O  O8  1  0.29479800  0.96279100  0.40782400  1
  O  O9  1  0.49797700  0.40895700  0.68042100  1
  O  O10  1  0.56150600  0.84045600  0.97678700  1
  O  O11  1  0.79379400  0.24695700  0.25708700  1
  O  O12  1  0.92324500  0.67687500  0.55119300  1
  O  O13  1  0.03910800  0.09595700  0.83325200  1
loop_
_geom_bond_atom_site_label_1
_geom_bond_atom_site_label_2
_geom_bond_distance
_geom_bond_site_symmetry_2
Li0 O0 2.129268 1_555
Li0 O3 2.142363 1_554
Li0 O7 2.164140 1_555
Li0 O7 2.176413 1_655
Li0 O11 2.201745 1_555
Li0 O0 2.366733 1_655
Li1 O8 2.068730 1_655
Li1 O4 2.114826 1_555
Li1 O1 2.127521 1_555
Li1 O1 2.158686 1_655
Li1 O12 2.180781 1_555
Li1 O8 2.250075 1_555
Li2 O13 2.069870 1_555
Li2 O2 2.138274 1_555
Li2 O9 2.153772 1_455
Li2 O9 2.193317 1_555
Li2 O5 2.211967 1_555
Li2 O2 2.256402 1_455
Li3 O3 2.010404 1_455
Li3 O3 2.043540 1_555
Li3 O6 2.082175 1_555
Li3 O7 2.091379 1_556
Li3 O10 2.148499 1_555
Li3 O10 2.484714 1_455
Li4 O0 2.053209 1_555
Li4 O11 2.102724 1_455
Li4 O11 2.136362 1_555
Li4 O4 2.138449 1_545
Li4 O8 2.166748 1_545
Li4 O4 2.219663 1_445
Li5 O9 1.982929 1_555
Li5 O5 2.091489 1_555
Li5 O12 2.130666 1_455
Li5 O12 2.159729 1_555
Li5 O1 2.169976 1_555
Li5 O5 2.295538 1_655
Li6 O13 2.014024 1_665
Li6 O2 2.047674 1_565
Li6 O13 2.071591 1_565
Li6 O10 2.163028 1_555
Li6 O6 2.191803 1_555
Li6 O6 2.295618 1_655
Li7 O9 1.998394 1_555
Li7 O13 2.044185 1_555
Li7 O0 2.068432 1_556
Li7 O13 2.110725 1_655
Li7 O3 2.139285 1_555
Li7 O3 2.335751 1_455
Mn0 O13 1.821182 1_655
Mn0 O0 1.951944 1_656
Mn0 O0 1.966403 1_556
Mn0 O10 2.001537 1_545
Mn0 O4 2.017947 1_546
Mn0 O10 2.022558 1_645
Mn1 O1 1.957035 1_555
Mn1 O11 1.957776 1_455
Mn1 O5 1.961204 1_555
Mn1 O7 1.987733 1_555
Mn1 O1 2.244248 1_455
Mn1 O11 2.247968 1_555
Co0 O6 1.888692 1_555
Co0 O12 1.902784 1_455
Co0 O8 1.909505 1_555
Co0 O2 1.917865 1_565
Co0 O12 2.233243 1_555
Co0 O2 2.260167 1_465
Co1 O4 1.913997 1_555
Co1 O1 1.924336 1_555
Co1 O7 1.932350 1_555
Co1 O10 1.937975 1_554
Co1 O4 2.149397 1_455
Co1 O7 2.240762 1_655
Co2 O2 1.920293 1_555
Co2 O11 2.002863 1_555
Co2 O5 2.019316 1_655
Co2 O8 2.065623 1_545
Co2 O8 2.074722 1_645
Co2 O5 2.099828 1_555
Co3 O3 1.748295 1_555
Co3 O9 1.859154 1_555
Co3 O12 1.938602 1_555
Co3 O6 1.970999 1_655
Co3 O9 2.132338 1_655
Co3 O6 2.208637 1_555
