# generated using pymatgen
data_Th2Zn17
_symmetry_space_group_name_H-M   'P 1'
_cell_length_a   8.75458577
_cell_length_b   8.95700058
_cell_length_c   8.95700058
_cell_angle_alpha   119.99557955
_cell_angle_beta   90.00000000
_cell_angle_gamma   90.00000000
_symmetry_Int_Tables_number   1
_chemical_formula_structural   Th2Zn17
_chemical_formula_sum   'Th4 Zn34'
_cell_volume   608.29014701
_cell_formula_units_Z   2
loop_
 _symmetry_equiv_pos_site_id
 _symmetry_equiv_pos_as_xyz
  1  'x, y, z'
loop_
 _atom_site_type_symbol
 _atom_site_label
 _atom_site_symmetry_multiplicity
 _atom_site_fract_x
 _atom_site_fract_y
 _atom_site_fract_z
 _atom_site_occupancy
  Th  Th0  1  0.75000000  0.00003977  0.99996023  1
  Th  Th1  1  0.25000000  0.99996023  0.00003977  1
  Th  Th2  1  0.25000000  0.66667241  0.33332759  1
  Th  Th3  1  0.75000000  0.33332759  0.66667241  1
  Zn  Zn0  1  0.60405446  0.66663645  0.33336355  1
  Zn  Zn1  1  0.39594554  0.33336355  0.66663645  1
  Zn  Zn2  1  0.10405446  0.33336355  0.66663645  1
  Zn  Zn3  1  0.89594554  0.66663645  0.33336355  1
  Zn  Zn4  1  0.50000000  0.50000000  -0.00000000  1
  Zn  Zn5  1  0.50000000  0.50000000  0.50000000  1
  Zn  Zn6  1  0.50000000  -0.00000000  0.50000000  1
  Zn  Zn7  1  -0.00000000  0.50000000  -0.00000000  1
  Zn  Zn8  1  -0.00000000  0.50000000  0.50000000  1
  Zn  Zn9  1  -0.00000000  -0.00000000  0.50000000  1
  Zn  Zn10  1  0.75000000  0.66997419  0.04439215  1
  Zn  Zn11  1  0.75000000  0.37450382  0.33001617  1
  Zn  Zn12  1  0.75000000  0.95560462  0.62553805  1
  Zn  Zn13  1  0.75000000  0.37446195  0.04439538  1
  Zn  Zn14  1  0.75000000  0.95560785  0.33002581  1
  Zn  Zn15  1  0.75000000  0.66998383  0.62549618  1
  Zn  Zn16  1  0.25000000  0.33002581  0.95560785  1
  Zn  Zn17  1  0.25000000  0.62549618  0.66998383  1
  Zn  Zn18  1  0.25000000  0.04439538  0.37446195  1
  Zn  Zn19  1  0.25000000  0.62553805  0.95560462  1
  Zn  Zn20  1  0.25000000  0.04439215  0.66997419  1
  Zn  Zn21  1  0.25000000  0.33001617  0.37450382  1
  Zn  Zn22  1  0.48005859  0.83709531  0.67419772  1
  Zn  Zn23  1  0.48017950  0.83706751  0.16293249  1
  Zn  Zn24  1  0.48005859  0.32580228  0.16290469  1
  Zn  Zn25  1  0.51994141  0.16290469  0.32580228  1
  Zn  Zn26  1  0.51982050  0.16293249  0.83706751  1
  Zn  Zn27  1  0.51994141  0.67419772  0.83709531  1
  Zn  Zn28  1  0.98005859  0.16290469  0.32580228  1
  Zn  Zn29  1  0.98017950  0.16293249  0.83706751  1
  Zn  Zn30  1  0.98005859  0.67419772  0.83709531  1
  Zn  Zn31  1  0.01994141  0.83709531  0.67419772  1
  Zn  Zn32  1  0.01982050  0.83706751  0.16293249  1
  Zn  Zn33  1  0.01994141  0.32580228  0.16290469  1
loop_
_geom_bond_atom_site_label_1
_geom_bond_atom_site_label_2
_geom_bond_distance
_geom_bond_site_symmetry_2
Th0 Zn13 3.173499 1_556
Th0 Zn12 3.173499 1_545
Th0 Zn10 3.174129 1_546
Th0 Zn14 3.174129 1_546
Th0 Zn15 3.174150 1_545
Th0 Zn11 3.174150 1_556
Th0 Zn25 3.231960 1_556
Th0 Zn27 3.231960 1_545
Th0 Zn28 3.231960 1_556
Th0 Zn30 3.231960 1_545
Th0 Zn29 3.232144 1_555
Th0 Zn26 3.232144 1_555
Th0 Zn31 3.459886 1_645
Th0 Zn33 3.459886 1_656
Th0 Zn24 3.459886 1_556
Th0 Zn22 3.459886 1_545
Th0 Zn32 3.460071 1_646
Th0 Zn23 3.460071 1_546
Th1 Zn18 3.173499 1_565
Th1 Zn19 3.173499 1_554
Th1 Zn16 3.174129 1_564
Th1 Zn20 3.174129 1_564
Th1 Zn21 3.174150 1_565
Th1 Zn17 3.174150 1_554
Th1 Zn22 3.231960 1_554
Th1 Zn31 3.231960 1_554
Th1 Zn24 3.231960 1_565
Th1 Zn33 3.231960 1_565
Th1 Zn23 3.232144 1_555
Th1 Zn32 3.232144 1_555
Th1 Zn28 3.459886 1_465
Th1 Zn30 3.459886 1_454
Th1 Zn27 3.459886 1_554
Th1 Zn25 3.459886 1_565
Th1 Zn29 3.460071 1_464
Th1 Zn26 3.460071 1_564
Th2 Zn3 3.099600 1_455
Th2 Zn0 3.099600 1_555
Th2 Zn19 3.214944 1_554
Th2 Zn18 3.214944 1_565
Th2 Zn16 3.215327 1_554
Th2 Zn20 3.215327 1_565
Th2 Zn21 3.215716 1_555
Th2 Zn17 3.215716 1_555
Th2 Zn24 3.323928 1_555
Th2 Zn33 3.323928 1_555
Th2 Zn22 3.323928 1_555
Th2 Zn31 3.323928 1_555
Th2 Zn23 3.323935 1_555
Th2 Zn32 3.323935 1_555
Th2 Zn8 3.387623 1_555
Th2 Zn5 3.387623 1_555
Th2 Zn6 3.387653 1_565
Th2 Zn7 3.387653 1_555
Th2 Zn4 3.387653 1_555
Th2 Zn9 3.387653 1_565
Th3 Zn1 3.099600 1_555
Th3 Zn2 3.099600 1_655
Th3 Zn12 3.214944 1_545
Th3 Zn13 3.214944 1_556
Th3 Zn14 3.215327 1_545
Th3 Zn10 3.215327 1_556
Th3 Zn15 3.215716 1_555
Th3 Zn11 3.215716 1_555
Th3 Zn25 3.323928 1_555
Th3 Zn27 3.323928 1_555
Th3 Zn28 3.323928 1_555
Th3 Zn30 3.323928 1_555
Th3 Zn26 3.323935 1_555
Th3 Zn29 3.323935 1_555
Th3 Zn5 3.387623 1_555
Th3 Zn8 3.387623 1_655
Th3 Zn7 3.387653 1_656
Th3 Zn4 3.387653 1_556
Th3 Zn9 3.387653 1_655
Th3 Zn6 3.387653 1_555
Zn0 Zn3 2.555385 1_555
Zn0 Zn5 2.740943 1_555
Zn0 Zn6 2.741769 1_565
Zn0 Zn4 2.741769 1_555
Zn0 Zn23 2.857770 1_555
Zn0 Zn22 2.858134 1_555
Zn0 Zn24 2.858134 1_555
Zn0 Zn11 2.898572 1_555
Zn0 Zn15 2.898572 1_555
Zn0 Zn13 2.899620 1_555
Zn0 Zn12 2.899620 1_555
Zn0 Zn14 2.900025 1_555
Zn0 Zn10 2.900025 1_555
Zn1 Zn2 2.555385 1_555
Zn1 Zn5 2.740943 1_555
Zn1 Zn4 2.741769 1_556
Zn1 Zn6 2.741769 1_555
Zn1 Zn26 2.857770 1_555
Zn1 Zn27 2.858134 1_555
Zn1 Zn25 2.858134 1_555
Zn1 Zn17 2.898572 1_555
Zn1 Zn21 2.898572 1_555
Zn1 Zn19 2.899620 1_555
Zn1 Zn18 2.899620 1_555
Zn1 Zn16 2.900025 1_555
Zn1 Zn20 2.900025 1_555
Zn2 Zn8 2.740943 1_555
Zn2 Zn7 2.741769 1_556
Zn2 Zn9 2.741769 1_555
Zn2 Zn29 2.857770 1_455
Zn2 Zn30 2.858134 1_455
Zn2 Zn28 2.858134 1_455
Zn2 Zn21 2.898572 1_555
Zn2 Zn20 2.900025 1_555
Zn3 Zn8 2.740943 1_655
Zn3 Zn9 2.741769 1_665
Zn3 Zn7 2.741769 1_655
Zn3 Zn32 2.857770 1_655
Zn3 Zn31 2.858134 1_655
Zn3 Zn33 2.858134 1_655
Zn10 Zn14 2.558592 1_555
Zn10 Zn7 2.580867 1_655
Zn10 Zn4 2.580867 1_555
Zn10 Zn13 2.646918 1_555
Zn10 Zn32 2.712613 1_655
Zn10 Zn23 2.712613 1_555
Zn10 Zn27 2.752396 1_554
Zn10 Zn30 2.752396 1_554
Zn10 Zn3 2.900025 1_555
Zn11 Zn13 2.558118 1_555
Zn11 Zn5 2.580820 1_555
Zn11 Zn8 2.580820 1_655
Zn11 Zn15 2.646791 1_555
Zn11 Zn33 2.713435 1_655
Zn11 Zn24 2.713435 1_555
Zn11 Zn25 2.752908 1_555
Zn11 Zn28 2.752908 1_555
Zn11 Zn3 2.898572 1_555
Zn12 Zn15 2.558118 1_555
Zn12 Zn6 2.580649 1_565
Zn12 Zn9 2.580649 1_665
Zn12 Zn14 2.646918 1_555
Zn12 Zn31 2.713694 1_655
Zn12 Zn22 2.713694 1_555
Zn12 Zn29 2.753378 1_565
Zn12 Zn26 2.753378 1_565
Zn12 Zn3 2.899620 1_555
Zn13 Zn4 2.580649 1_555
Zn13 Zn7 2.580649 1_655
Zn13 Zn33 2.713694 1_655
Zn13 Zn24 2.713694 1_555
Zn13 Zn26 2.753378 1_554
Zn13 Zn29 2.753378 1_554
Zn13 Zn3 2.899620 1_555
Zn14 Zn6 2.580867 1_565
Zn14 Zn9 2.580867 1_665
Zn14 Zn32 2.712613 1_655
Zn14 Zn23 2.712613 1_555
Zn14 Zn25 2.752396 1_565
Zn14 Zn28 2.752396 1_565
Zn14 Zn3 2.900025 1_555
Zn15 Zn5 2.580820 1_555
Zn15 Zn8 2.580820 1_655
Zn15 Zn31 2.713435 1_655
Zn15 Zn22 2.713435 1_555
Zn15 Zn27 2.752908 1_555
Zn15 Zn30 2.752908 1_555
Zn15 Zn3 2.898572 1_555
Zn16 Zn20 2.558592 1_555
Zn16 Zn4 2.580867 1_556
Zn16 Zn7 2.580867 1_556
Zn16 Zn19 2.646918 1_555
Zn16 Zn26 2.712613 1_555
Zn16 Zn29 2.712613 1_455
Zn16 Zn33 2.752396 1_556
Zn16 Zn24 2.752396 1_556
Zn16 Zn2 2.900025 1_555
Zn17 Zn19 2.558118 1_555
Zn17 Zn5 2.580820 1_555
Zn17 Zn8 2.580820 1_555
Zn17 Zn21 2.646791 1_555
Zn17 Zn30 2.713435 1_455
Zn17 Zn27 2.713435 1_555
Zn17 Zn31 2.752908 1_555
Zn17 Zn22 2.752908 1_555
Zn17 Zn2 2.898572 1_555
Zn18 Zn21 2.558118 1_555
Zn18 Zn9 2.580649 1_555
Zn18 Zn6 2.580649 1_555
Zn18 Zn20 2.646918 1_555
Zn18 Zn28 2.713694 1_455
Zn18 Zn25 2.713694 1_555
Zn18 Zn23 2.753378 1_545
Zn18 Zn32 2.753378 1_545
Zn18 Zn2 2.899620 1_555
Zn19 Zn4 2.580649 1_556
Zn19 Zn7 2.580649 1_556
Zn19 Zn30 2.713694 1_455
Zn19 Zn27 2.713694 1_555
Zn19 Zn23 2.753378 1_556
Zn19 Zn32 2.753378 1_556
Zn19 Zn2 2.899620 1_555
Zn20 Zn6 2.580867 1_555
Zn20 Zn9 2.580867 1_555
Zn20 Zn26 2.712613 1_555
Zn20 Zn29 2.712613 1_455
Zn20 Zn22 2.752396 1_545
Zn20 Zn31 2.752396 1_545
Zn21 Zn5 2.580820 1_555
Zn21 Zn8 2.580820 1_555
Zn21 Zn28 2.713435 1_455
Zn21 Zn25 2.713435 1_555
Zn21 Zn24 2.752908 1_555
Zn21 Zn33 2.752908 1_555
Zn22 Zn27 2.551140 1_555
Zn22 Zn26 2.551485 1_565
Zn22 Zn6 2.621151 1_565
Zn22 Zn5 2.621275 1_555
Zn23 Zn25 2.551485 1_565
Zn23 Zn27 2.551485 1_554
Zn23 Zn6 2.620973 1_565
Zn23 Zn4 2.620973 1_555
Zn24 Zn25 2.551140 1_555
Zn24 Zn26 2.551485 1_554
Zn24 Zn4 2.621151 1_555
Zn24 Zn5 2.621275 1_555
Zn25 Zn6 2.621151 1_555
Zn25 Zn5 2.621275 1_555
Zn26 Zn6 2.620973 1_555
Zn26 Zn4 2.620973 1_556
Zn27 Zn4 2.621151 1_556
Zn27 Zn5 2.621275 1_555
Zn28 Zn33 2.551140 1_655
Zn28 Zn32 2.551485 1_645
Zn28 Zn9 2.621151 1_655
Zn28 Zn8 2.621275 1_655
Zn29 Zn31 2.551485 1_645
Zn29 Zn33 2.551485 1_656
Zn29 Zn9 2.620973 1_655
Zn29 Zn7 2.620973 1_656
Zn30 Zn31 2.551140 1_655
Zn30 Zn32 2.551485 1_656
Zn30 Zn7 2.621151 1_656
Zn30 Zn8 2.621275 1_655
Zn31 Zn9 2.621151 1_565
Zn31 Zn8 2.621275 1_555
Zn32 Zn7 2.620973 1_555
Zn32 Zn9 2.620973 1_565
Zn33 Zn7 2.621151 1_555
Zn33 Zn8 2.621275 1_555
