# generated using pymatgen
data_SmCo9Si2
_symmetry_space_group_name_H-M   'P 1'
_cell_length_a   7.54603391
_cell_length_b   7.54603391
_cell_length_c   7.54603391
_cell_angle_alpha   100.03419318
_cell_angle_beta   100.03419318
_cell_angle_gamma   130.65692642
_symmetry_Int_Tables_number   1
_chemical_formula_structural   SmCo9Si2
_chemical_formula_sum   'Sm2 Co18 Si4'
_cell_volume   296.21772777
_cell_formula_units_Z   2
loop_
 _symmetry_equiv_pos_site_id
 _symmetry_equiv_pos_as_xyz
  1  'x, y, z'
loop_
 _atom_site_type_symbol
 _atom_site_label
 _atom_site_symmetry_multiplicity
 _atom_site_fract_x
 _atom_site_fract_y
 _atom_site_fract_z
 _atom_site_occupancy
  Sm  Sm0  1  0.75000000  0.25000000  0.50000000  1
  Sm  Sm1  1  0.50000000  0.50000000  0.00000000  1
  Co  Co0  1  0.25000000  0.75000000  0.50000000  1
  Co  Co1  1  0.26595400  0.43607300  0.58201900  1
  Co  Co2  1  0.85405400  0.68393500  0.41798100  1
  Co  Co3  1  0.93393500  0.01595400  0.32988100  1
  Co  Co4  1  0.39594600  0.31392700  0.32988100  1
  Co  Co5  1  0.98404600  0.06606500  0.67011900  1
  Co  Co6  1  0.68607300  0.60405400  0.67011900  1
  Co  Co7  1  0.31606500  0.14594600  0.58201900  1
  Co  Co8  1  0.56392700  0.14594600  0.82988100  1
  Co  Co9  1  0.98404600  0.31392700  0.91798100  1
  Co  Co10  1  0.39594600  0.06606500  0.08201900  1
  Co  Co11  1  0.31606500  0.73404600  0.17011900  1
  Co  Co12  1  0.85405400  0.43607300  0.17011900  1
  Co  Co13  1  0.26595400  0.68393500  0.82988100  1
  Co  Co14  1  0.68607300  0.01595400  0.08201900  1
  Co  Co15  1  0.93393500  0.60405400  0.91798100  1
  Co  Co16  1  0.56392700  0.73404600  0.41798100  1
  Co  Co17  1  0.00000000  0.00000000  0.00000000  1
  Si  Si0  1  0.12500000  0.87500000  0.75000000  1
  Si  Si1  1  0.62500000  0.87500000  0.75000000  1
  Si  Si2  1  0.12500000  0.87500000  0.25000000  1
  Si  Si3  1  0.12500000  0.37500000  0.25000000  1
loop_
_geom_bond_atom_site_label_1
_geom_bond_atom_site_label_2
_geom_bond_distance
_geom_bond_site_symmetry_2
Co0 Si1 2.549066 1_555
Co0 Si2 2.549066 1_555
Co0 Si3 2.549066 1_555
Co0 Si0 2.549066 1_555
Co0 Co7 2.620272 1_565
Co0 Co1 2.620272 1_555
Co0 Co8 2.620272 1_565
Co0 Co11 2.620272 1_555
Co0 Co2 2.620272 1_455
Co0 Co13 2.620272 1_555
Co0 Co16 2.620272 1_555
Co0 Co12 2.620272 1_455
Co0 Sm0 3.149833 1_455
Co0 Sm0 3.149833 1_565
Co1 Si1 2.358938 1_555
Co1 Si3 2.377214 1_555
Co1 Co13 2.403653 1_555
Co1 Co6 2.415497 1_555
Co1 Co3 2.415497 1_455
Co1 Co7 2.452511 1_555
Co1 Co5 2.482567 1_455
Co1 Co4 2.578607 1_555
Co1 Co16 2.644930 1_555
Co1 Sm0 3.040910 1_455
Co1 Sm1 3.117481 1_556
Co2 Si2 2.358938 1_655
Co2 Si0 2.377214 1_655
Co2 Co6 2.415497 1_555
Co2 Co3 2.415497 1_565
Co2 Co4 2.482567 1_555
Co2 Co5 2.578607 1_565
Co2 Co7 2.644930 1_665
Co2 Sm0 3.040910 1_555
Co2 Sm1 3.117481 1_555
Co3 Si3 2.358938 1_655
Co3 Si2 2.377214 1_645
Co3 Co5 2.452511 1_555
Co3 Co7 2.578607 1_655
Co3 Co4 2.644930 1_655
Co3 Sm1 3.040910 1_545
Co3 Sm0 3.117481 1_555
Co4 Si2 2.358938 1_545
Co4 Si3 2.377214 1_555
Co4 Co7 2.415497 1_555
Co4 Co6 2.452511 1_555
Co4 Sm1 3.040910 1_555
Co4 Sm0 3.117481 1_555
Co5 Si1 2.358938 1_545
Co5 Si0 2.377214 1_645
Co5 Co9 2.403653 1_555
Co5 Co7 2.415497 1_655
Co5 Co6 2.644930 1_545
Co5 Sm1 3.040910 1_656
Co5 Sm0 3.117481 1_555
Co6 Si0 2.358938 1_655
Co6 Si1 2.377214 1_555
Co6 Co7 2.482567 1_555
Co6 Sm1 3.040910 1_556
Co6 Sm0 3.117481 1_555
Co7 Si0 2.358938 1_545
Co7 Si2 2.377214 1_545
Co7 Co8 2.403653 1_555
Co7 Sm0 3.040910 1_555
Co7 Sm1 3.117481 1_556
Co8 Si0 2.358938 1_545
Co8 Si1 2.377214 1_545
Co8 Co9 2.415497 1_555
Co8 Sm0 3.040910 1_555
Co8 Sm1 3.117481 1_556
Co9 Si1 2.358938 1_545
Co9 Si3 2.377214 1_656
Co9 Sm1 3.040910 1_656
Co9 Sm0 3.117481 1_555
Co10 Si2 2.358938 1_545
Co10 Si0 2.377214 1_544
Co10 Co4 2.403653 1_555
Co10 Co11 2.415497 1_545
Co10 Co8 2.415497 1_554
Co10 Co14 2.452511 1_555
Co10 Co12 2.482567 1_555
Co10 Co13 2.578607 1_544
Co10 Co17 2.620272 1_555
Co10 Co15 2.644930 1_444
Co10 Sm1 3.040910 1_555
Co10 Sm0 3.117481 1_555
Co11 Si3 2.358938 1_555
Co11 Si2 2.377214 1_555
Co11 Co16 2.403653 1_555
Co11 Co9 2.415497 1_454
Co11 Co13 2.452511 1_554
Co11 Co14 2.482567 1_565
Co11 Co15 2.578607 1_454
Co11 Co12 2.644930 1_455
Co11 Sm0 3.040910 1_565
Co11 Sm1 3.117481 1_555
Co12 Si2 2.358938 1_655
Co12 Si3 2.377214 1_655
Co12 Co2 2.403653 1_555
Co12 Co14 2.415497 1_555
Co12 Co15 2.415497 1_554
Co12 Co8 2.452511 1_554
Co12 Co9 2.578607 1_554
Co12 Sm0 3.040910 1_555
Co12 Sm1 3.117481 1_555
Co13 Si1 2.358938 1_555
Co13 Si0 2.377214 1_555
Co13 Co14 2.415497 1_566
Co13 Co15 2.415497 1_455
Co13 Co9 2.482567 1_455
Co13 Co8 2.644930 1_565
Co13 Sm0 3.040910 1_455
Co13 Sm1 3.117481 1_556
Co14 Si3 2.358938 1_655
Co14 Si1 2.377214 1_544
Co14 Co3 2.403653 1_555
Co14 Co8 2.578607 1_554
Co14 Co17 2.620272 1_655
Co14 Co9 2.644930 1_554
Co14 Sm1 3.040910 1_545
Co14 Sm0 3.117481 1_555
Co15 Si0 2.358938 1_655
Co15 Si2 2.377214 1_656
Co15 Co6 2.403653 1_555
Co15 Co9 2.452511 1_555
Co15 Co8 2.482567 1_555
Co15 Co17 2.620272 1_666
Co15 Sm1 3.040910 1_556
Co15 Sm0 3.117481 1_555
Co16 Si3 2.358938 1_555
Co16 Si1 2.377214 1_555
Co16 Co4 2.415497 1_555
Co16 Co5 2.415497 1_565
Co16 Co2 2.452511 1_555
Co16 Co3 2.482567 1_565
Co16 Co6 2.578607 1_555
Co16 Sm0 3.040910 1_565
Co16 Sm1 3.117481 1_555
Co17 Si0 2.549066 1_544
Co17 Si1 2.549066 1_444
Co17 Si2 2.549066 1_545
Co17 Si3 2.549066 1_555
Co17 Co6 2.620272 1_444
Co17 Co5 2.620272 1_454
Co17 Co9 2.620272 1_454
Co17 Co3 2.620272 1_455
Co17 Co4 2.620272 1_555
Co17 Sm1 3.149833 1_555
Co17 Sm1 3.149833 1_445
