# generated using pymatgen
data_K12Mg(Pb2O5)2
_symmetry_space_group_name_H-M   'P 1'
_cell_length_a   6.41922387
_cell_length_b   8.43639550
_cell_length_c   12.35340519
_cell_angle_alpha   84.05065953
_cell_angle_beta   83.55260788
_cell_angle_gamma   87.39315736
_symmetry_Int_Tables_number   1
_chemical_formula_structural   K12Mg(Pb2O5)2
_chemical_formula_sum   'K12 Mg1 Pb4 O10'
_cell_volume   660.80059894
_cell_formula_units_Z   1
loop_
 _symmetry_equiv_pos_site_id
 _symmetry_equiv_pos_as_xyz
  1  'x, y, z'
loop_
 _atom_site_type_symbol
 _atom_site_label
 _atom_site_symmetry_multiplicity
 _atom_site_fract_x
 _atom_site_fract_y
 _atom_site_fract_z
 _atom_site_occupancy
  K  K0  1  0.40384833  0.61396089  0.36045426  1
  K  K1  1  0.51485013  0.46241592  0.62060784  1
  K  K2  1  0.90901893  0.45109172  0.36906964  1
  K  K3  1  0.99668261  0.59484278  0.62515921  1
  K  K4  1  0.31880498  0.92728647  0.11623432  1
  K  K5  1  0.75747228  0.94675909  0.88661633  1
  K  K6  1  0.33932247  0.46785712  0.07826815  1
  K  K7  1  0.78433081  0.53597289  0.89966427  1
  K  K8  1  0.77265470  0.69857092  0.14046800  1
  K  K9  1  0.12427578  0.23318053  0.90063841  1
  K  K10  1  0.38533995  0.16923786  0.36153638  1
  K  K11  1  0.59011242  0.94721415  0.61007733  1
  Mg  Mg0  1  0.56621127  0.27325387  0.82875912  1
  Pb  Pb0  1  0.89343030  0.88176776  0.36181478  1
  Pb  Pb1  1  0.10453617  0.17751274  0.64061647  1
  Pb  Pb2  1  0.77148229  0.19001235  0.13779223  1
  Pb  Pb3  1  0.32732731  0.72861697  0.84576886  1
  O  O0  1  0.64017482  0.97024355  0.24161599  1
  O  O1  1  0.39265495  0.16313058  0.73415934  1
  O  O2  1  0.59076266  0.19589171  0.99035284  1
  O  O3  1  0.51622546  0.73492231  0.98708966  1
  O  O4  1  0.71768647  0.70083649  0.47307657  1
  O  O5  1  0.20309406  0.37279500  0.51535162  1
  O  O6  1  0.60530371  0.37618280  0.22808808  1
  O  O7  1  0.38489774  0.46547614  0.84750438  1
  O  O8  1  0.07376202  0.71649085  0.26170461  1
  O  O9  1  0.85740437  0.31280955  0.75001130  1
loop_
_geom_bond_atom_site_label_1
_geom_bond_atom_site_label_2
_geom_bond_distance
_geom_bond_site_symmetry_2
K0 O8 2.630801 1_555
K0 O4 2.739810 1_555
K0 O6 2.887770 1_555
K0 O5 2.887796 1_555
K1 O5 2.681999 1_555
K1 O4 2.829849 1_555
K1 O7 2.835661 1_555
K1 O1 2.856027 1_555
K1 O9 3.017029 1_555
K2 O8 2.678702 1_655
K2 O4 2.751345 1_555
K2 O5 2.769592 1_655
K2 O6 2.887273 1_555
K3 O5 2.646173 1_655
K3 O4 2.792569 1_555
K3 O9 2.821797 1_555
K4 O3 2.584664 1_554
K4 O0 2.772744 1_555
K4 O8 2.797029 1_555
K4 O2 3.101709 1_564
K5 O3 2.548114 1_555
K5 O2 2.692711 1_565
K6 O3 2.655928 1_554
K6 O6 2.689161 1_555
K6 O7 2.834894 1_554
K6 O2 2.972371 1_554
K7 O3 2.577013 1_555
K7 O9 2.762024 1_555
K7 O7 2.816462 1_555
K8 O8 2.593370 1_655
K8 O3 2.632062 1_554
K8 O0 2.777628 1_555
K8 O6 3.019485 1_555
K9 O7 2.618258 1_555
K9 O1 2.628764 1_555
K9 O9 2.683380 1_455
K10 O6 2.619986 1_555
K10 O0 2.722214 1_545
K10 O5 2.814727 1_555
K11 O1 2.684531 1_565
K11 O4 2.849280 1_555
Mg0 O7 1.970707 1_555
Mg0 O1 2.020308 1_555
Mg0 O9 2.032931 1_555
Mg0 O2 2.055958 1_555
O0 Pb2 2.280222 1_565
O0 Pb0 2.367882 1_555
O1 Pb1 2.280619 1_555
O2 Pb2 2.261909 1_556
O3 Pb3 2.240873 1_555
O4 Pb0 2.205734 1_555
O5 Pb1 2.203521 1_555
O6 Pb2 2.189185 1_555
O7 Pb3 2.232161 1_555
O8 Pb0 2.168585 1_455
O9 Pb1 2.306368 1_655
