# generated using pymatgen
data_Sr5Cr3O12F
_symmetry_space_group_name_H-M   'P 1'
_cell_length_a   7.27153146
_cell_length_b   9.90776752
_cell_length_c   9.90770471
_cell_angle_alpha   120.00247003
_cell_angle_beta   90.00000000
_cell_angle_gamma   90.00000000
_symmetry_Int_Tables_number   1
_chemical_formula_structural   Sr5Cr3O12F
_chemical_formula_sum   'Sr10 Cr6 O24 F2'
_cell_volume   618.15099263
_cell_formula_units_Z   2
loop_
 _symmetry_equiv_pos_site_id
 _symmetry_equiv_pos_as_xyz
  1  'x, y, z'
loop_
 _atom_site_type_symbol
 _atom_site_label
 _atom_site_symmetry_multiplicity
 _atom_site_fract_x
 _atom_site_fract_y
 _atom_site_fract_z
 _atom_site_occupancy
  Sr  Sr0  1  0.49994144  0.66665944  0.33333684  1
  Sr  Sr1  1  -0.00005856  0.33334056  0.66666316  1
  Sr  Sr2  1  0.50005856  0.33334056  0.66666316  1
  Sr  Sr3  1  0.00005856  0.66665944  0.33333684  1
  Sr  Sr4  1  0.75000000  0.23644313  0.00562667  1
  Sr  Sr5  1  0.75000000  0.99440179  0.23083176  1
  Sr  Sr6  1  0.75000000  0.76916593  0.76357478  1
  Sr  Sr7  1  0.25000000  0.76355687  0.99437333  1
  Sr  Sr8  1  0.25000000  0.00559821  0.76916824  1
  Sr  Sr9  1  0.25000000  0.23083407  0.23642522  1
  Cr  Cr0  1  0.75000000  0.02740637  0.62472138  1
  Cr  Cr1  1  0.75000000  0.37532087  0.40273113  1
  Cr  Cr2  1  0.75000000  0.59725301  0.97255524  1
  Cr  Cr3  1  0.25000000  0.97259363  0.37527862  1
  Cr  Cr4  1  0.25000000  0.62467913  0.59726887  1
  Cr  Cr5  1  0.25000000  0.40274699  0.02744476  1
  O  O0  1  0.75000000  0.82996262  0.52325161  1
  O  O1  1  0.75000000  0.47680241  0.30677974  1
  O  O2  1  0.75000000  0.69319378  0.17000339  1
  O  O3  1  0.25000000  0.17003738  0.47674839  1
  O  O4  1  0.25000000  0.52319759  0.69322026  1
  O  O5  1  0.25000000  0.30680622  0.82999661  1
  O  O6  1  0.75000000  0.12411075  0.52314194  1
  O  O7  1  0.75000000  0.47689895  0.60101541  1
  O  O8  1  0.75000000  0.39897158  0.87585643  1
  O  O9  1  0.25000000  0.87588925  0.47685806  1
  O  O10  1  0.25000000  0.52310105  0.39898459  1
  O  O11  1  0.25000000  0.60102842  0.12414357  1
  O  O12  1  0.56387663  0.09049656  0.74348442  1
  O  O13  1  0.56386796  0.25656349  0.34705368  1
  O  O14  1  0.56387827  0.65289298  0.90943842  1
  O  O15  1  0.06387663  0.90950344  0.25651558  1
  O  O16  1  0.06386796  0.74343651  0.65294632  1
  O  O17  1  0.06387827  0.34710702  0.09056158  1
  O  O18  1  0.43612337  0.90950344  0.25651558  1
  O  O19  1  0.43613204  0.74343651  0.65294632  1
  O  O20  1  0.43612173  0.34710702  0.09056158  1
  O  O21  1  0.93612337  0.09049656  0.74348442  1
  O  O22  1  0.93613204  0.25656349  0.34705368  1
  O  O23  1  0.93612173  0.65289298  0.90943842  1
  F  F0  1  0.50000000  0.00000000  0.00000000  1
  F  F1  1  -0.00000000  0.00000000  0.00000000  1
loop_
_geom_bond_atom_site_label_1
_geom_bond_atom_site_label_2
_geom_bond_distance
_geom_bond_site_symmetry_2
Cr0 O0 1.694317 1_545
Cr0 O21 1.694522 1_555
Cr0 O12 1.694522 1_555
Cr0 O6 1.701537 1_555
Cr1 O1 1.694287 1_555
Cr1 O13 1.694547 1_555
Cr1 O22 1.694547 1_555
Cr1 O7 1.701471 1_555
Cr2 O2 1.694352 1_556
Cr2 O23 1.694512 1_555
Cr2 O14 1.694512 1_555
Cr2 O8 1.701460 1_555
Cr3 O3 1.694317 1_565
Cr3 O18 1.694522 1_555
Cr3 O15 1.694522 1_555
Cr3 O9 1.701537 1_555
Cr4 O4 1.694287 1_555
Cr4 O19 1.694547 1_555
Cr4 O16 1.694547 1_555
Cr4 O10 1.701471 1_555
Cr5 O5 1.694352 1_554
Cr5 O20 1.694512 1_555
Cr5 O17 1.694512 1_555
Cr5 O11 1.701460 1_555
O0 Sr0 2.533759 1_555
O0 Sr3 2.533759 1_655
O0 Sr6 2.732507 1_555
O1 Sr3 2.533551 1_655
O1 Sr0 2.533551 1_555
O1 Sr4 2.732725 1_555
O2 Sr3 2.533691 1_655
O2 Sr0 2.533691 1_555
O2 Sr5 2.733234 1_555
O3 Sr2 2.533759 1_555
O3 Sr1 2.533759 1_555
O3 Sr9 2.732507 1_555
O4 Sr2 2.533551 1_555
O4 Sr1 2.533551 1_555
O4 Sr7 2.732725 1_555
O5 Sr2 2.533691 1_555
O5 Sr1 2.533691 1_555
O5 Sr8 2.733234 1_555
O6 Sr5 2.513348 1_545
O6 Sr1 2.583508 1_655
O6 Sr2 2.583508 1_555
O7 Sr6 2.512966 1_555
O7 Sr1 2.583494 1_655
O7 Sr2 2.583494 1_555
O8 Sr4 2.513302 1_556
O8 Sr1 2.583393 1_655
O8 Sr2 2.583393 1_555
O9 Sr8 2.513348 1_565
O9 Sr3 2.583508 1_555
O9 Sr0 2.583508 1_555
O10 Sr9 2.512966 1_555
O10 Sr3 2.583494 1_555
O10 Sr0 2.583494 1_555
O11 Sr7 2.513302 1_554
O11 Sr3 2.583393 1_555
O11 Sr0 2.583393 1_555
O12 Sr8 2.489084 1_555
O12 Sr4 2.629132 1_556
O12 Sr2 2.900883 1_555
O13 Sr9 2.489142 1_555
O13 Sr5 2.629321 1_545
O13 Sr2 2.900395 1_555
O14 Sr7 2.489340 1_555
O14 Sr6 2.629122 1_555
O14 Sr2 2.899812 1_555
O15 Sr5 2.489084 1_455
O15 Sr7 2.629132 1_554
O15 Sr3 2.900883 1_555
O16 Sr6 2.489142 1_455
O16 Sr8 2.629321 1_565
O16 Sr3 2.900395 1_555
O17 Sr4 2.489340 1_455
O17 Sr9 2.629122 1_555
O17 Sr3 2.899812 1_555
O18 Sr5 2.489084 1_555
O18 Sr7 2.629132 1_554
O18 Sr0 2.900883 1_555
O19 Sr6 2.489142 1_555
O19 Sr8 2.629321 1_565
O19 Sr0 2.900395 1_555
O20 Sr4 2.489340 1_555
O20 Sr9 2.629122 1_555
O20 Sr0 2.899812 1_555
O21 Sr8 2.489084 1_655
O21 Sr4 2.629132 1_556
O21 Sr1 2.900883 1_655
O22 Sr9 2.489142 1_655
O22 Sr5 2.629321 1_545
O22 Sr1 2.900395 1_655
O23 Sr7 2.489340 1_655
O23 Sr6 2.629122 1_555
O23 Sr1 2.899812 1_655
F0 Sr9 2.943573 1_555
F0 Sr6 2.943573 1_544
F0 Sr8 2.943648 1_554
F0 Sr5 2.943648 1_545
F0 Sr4 2.943652 1_555
F0 Sr7 2.943652 1_544
F1 Sr9 2.943573 1_555
F1 Sr6 2.943573 1_444
F1 Sr8 2.943648 1_554
F1 Sr5 2.943648 1_445
F1 Sr7 2.943652 1_544
F1 Sr4 2.943652 1_455
