# generated using pymatgen
data_Sr2FeMoO6
_symmetry_space_group_name_H-M   'P 1'
_cell_length_a   5.63651455
_cell_length_b   5.62790908
_cell_length_c   68.17910381
_cell_angle_alpha   119.65357933
_cell_angle_beta   119.70618598
_cell_angle_gamma   90.04768580
_symmetry_Int_Tables_number   1
_chemical_formula_structural   Sr2FeMoO6
_chemical_formula_sum   'Sr24 Fe12 Mo12 O72'
_cell_volume   1543.36570275
_cell_formula_units_Z   12
loop_
 _symmetry_equiv_pos_site_id
 _symmetry_equiv_pos_as_xyz
  1  'x, y, z'
loop_
 _atom_site_type_symbol
 _atom_site_label
 _atom_site_symmetry_multiplicity
 _atom_site_fract_x
 _atom_site_fract_y
 _atom_site_fract_z
 _atom_site_occupancy
  Sr  Sr0  1  0.24404984  0.74314691  0.95732306  1
  Sr  Sr1  1  0.24870813  0.74892372  0.87475767  1
  Sr  Sr2  1  0.74853968  0.24922784  0.95818887  1
  Sr  Sr3  1  0.24269609  0.74263219  0.79061403  1
  Sr  Sr4  1  0.74844955  0.24816397  0.87474103  1
  Sr  Sr5  1  0.25048188  0.74859445  0.70823145  1
  Sr  Sr6  1  0.74063295  0.24244664  0.79027060  1
  Sr  Sr7  1  0.25801077  0.76159866  0.62668977  1
  Sr  Sr8  1  0.75198578  0.24965714  0.70844468  1
  Sr  Sr9  1  0.25451346  0.75388075  0.54220526  1
  Sr  Sr10  1  0.75526194  0.25695864  0.62620388  1
  Sr  Sr11  1  0.25068598  0.75006522  0.45847318  1
  Sr  Sr12  1  0.75545614  0.25487874  0.54233824  1
  Sr  Sr13  1  0.25042535  0.75007675  0.37501856  1
  Sr  Sr14  1  0.75088598  0.25019143  0.45847227  1
  Sr  Sr15  1  0.25078617  0.74940467  0.29166064  1
  Sr  Sr16  1  0.75070080  0.25016174  0.37504174  1
  Sr  Sr17  1  0.24946141  0.75013225  0.20836456  1
  Sr  Sr18  1  0.75072451  0.24951075  0.29166971  1
  Sr  Sr19  1  0.24923246  0.74965707  0.12490806  1
  Sr  Sr20  1  0.74948150  0.25018030  0.20836529  1
  Sr  Sr21  1  0.24941731  0.74935918  0.04154955  1
  Sr  Sr22  1  0.74957277  0.24993363  0.12496048  1
  Sr  Sr23  1  0.74692240  0.24679100  0.04111220  1
  Fe  Fe0  1  0.00160213  0.00199604  0.91694602  1
  Fe  Fe1  1  0.99727003  0.99798639  0.83283708  1
  Fe  Fe2  1  0.00012924  0.00057320  0.66683969  1
  Fe  Fe3  1  0.00368607  0.00397407  0.58378675  1
  Fe  Fe4  1  0.99952433  0.99938985  0.75003382  1
  Fe  Fe5  1  0.00057429  0.00012019  0.41673917  1
  Fe  Fe6  1  0.00061547  0.99927159  0.33331508  1
  Fe  Fe7  1  0.00263155  0.00196944  0.50036508  1
  Fe  Fe8  1  0.99554237  0.99631634  0.16599820  1
  Fe  Fe9  1  0.00126819  0.00098238  0.25022078  1
  Fe  Fe10  1  0.50536796  0.50544839  0.08422968  1
  Fe  Fe11  1  0.49166919  0.49132872  0.99855620  1
  Mo  Mo0  1  0.49402349  0.49453041  0.91569275  1
  Mo  Mo1  1  0.49773799  0.49884540  0.83299923  1
  Mo  Mo2  1  0.49660595  0.49598911  0.74948532  1
  Mo  Mo3  1  0.50267803  0.50287249  0.66722329  1
  Mo  Mo4  1  0.50474520  0.50548372  0.58403927  1
  Mo  Mo5  1  0.50207261  0.50129301  0.50026525  1
  Mo  Mo6  1  0.50060086  0.50035239  0.41676690  1
  Mo  Mo7  1  0.50136747  0.49996448  0.33344101  1
  Mo  Mo8  1  0.49949537  0.49932447  0.24993373  1
  Mo  Mo9  1  0.99473414  0.99488537  0.08246424  1
  Mo  Mo10  1  0.50294909  0.50381265  0.16723969  1
  Mo  Mo11  1  0.00261428  0.00225185  0.00037309  1
  O  O0  1  0.25024572  0.24955036  0.95798622  1
  O  O1  1  0.21511155  0.71723991  0.91600274  1
  O  O2  1  0.28751382  0.22547308  0.91637651  1
  O  O3  1  0.24640407  0.24855572  0.87457372  1
  O  O4  1  0.74856564  0.74805027  0.95804295  1
  O  O5  1  0.71102183  0.77308351  0.91664512  1
  O  O6  1  0.21793673  0.70301141  0.83291158  1
  O  O7  1  0.77681269  0.27541099  0.91600453  1
  O  O8  1  0.28409134  0.20904789  0.83313921  1
  O  O9  1  0.24787232  0.25275658  0.79145139  1
  O  O10  1  0.74791026  0.75027589  0.87488336  1
  O  O11  1  0.71349273  0.78919765  0.83301103  1
  O  O12  1  0.21440408  0.71511641  0.75005581  1
  O  O13  1  0.77610347  0.29388374  0.83292567  1
  O  O14  1  0.28041888  0.21247534  0.74920549  1
  O  O15  1  0.25023882  0.24489389  0.70907934  1
  O  O16  1  0.74736834  0.74893032  0.79077327  1
  O  O17  1  0.71077467  0.77890854  0.74968550  1
  O  O18  1  0.21145671  0.71213117  0.66650649  1
  O  O19  1  0.78102383  0.27964769  0.74919636  1
  O  O20  1  0.29299612  0.22117129  0.66772699  1
  O  O21  1  0.26145931  0.26178572  0.62628283  1
  O  O22  1  0.74063880  0.73908508  0.70771913  1
  O  O23  1  0.71450973  0.78706516  0.66719717  1
  O  O24  1  0.22862333  0.71288865  0.58432725  1
  O  O25  1  0.79447082  0.29409844  0.66786494  1
  O  O26  1  0.28968296  0.21513653  0.58398900  1
  O  O27  1  0.25396879  0.25274871  0.54207288  1
  O  O28  1  0.75203197  0.75848918  0.62552073  1
  O  O29  1  0.72220123  0.79485983  0.58415819  1
  O  O30  1  0.21276290  0.71600175  0.50023569  1
  O  O31  1  0.78294510  0.29922708  0.58412055  1
  O  O32  1  0.29598058  0.22352613  0.50022116  1
  O  O33  1  0.25006163  0.25044092  0.45838607  1
  O  O34  1  0.75496857  0.75223425  0.54223575  1
  O  O35  1  0.70833757  0.77988427  0.50040396  1
  O  O36  1  0.22308055  0.70614328  0.41677639  1
  O  O37  1  0.79096630  0.28646383  0.50028087  1
  O  O38  1  0.28537169  0.21136641  0.41673691  1
  O  O39  1  0.24995875  0.24897961  0.37488868  1
  O  O40  1  0.75104309  0.75135678  0.45862595  1
  O  O41  1  0.71516662  0.78900839  0.41670462  1
  O  O42  1  0.21195720  0.71429339  0.33337837  1
  O  O43  1  0.77778699  0.29429111  0.41669676  1
  O  O44  1  0.29452334  0.22147485  0.33329102  1
  O  O45  1  0.25000057  0.24778093  0.29152270  1
  O  O46  1  0.75206195  0.75035809  0.37519209  1
  O  O47  1  0.70640612  0.77754067  0.33340071  1
  O  O48  1  0.22179853  0.70535754  0.24992214  1
  O  O49  1  0.78963162  0.28492656  0.33337762  1
  O  O50  1  0.28392701  0.21045227  0.24990295  1
  O  O51  1  0.24827236  0.24913561  0.20809321  1
  O  O52  1  0.75017387  0.74950453  0.29176470  1
  O  O53  1  0.71483100  0.78819051  0.24993920  1
  O  O54  1  0.21263667  0.71540004  0.16698866  1
  O  O55  1  0.77851163  0.29483163  0.25017529  1
  O  O56  1  0.29469041  0.22224174  0.16660030  1
  O  O57  1  0.24869374  0.24909217  0.12481508  1
  O  O58  1  0.74971514  0.75165949  0.20844146  1
  O  O59  1  0.70393829  0.77766117  0.16661131  1
  O  O60  1  0.20374644  0.72110235  0.08317617  1
  O  O61  1  0.79034678  0.28913384  0.16696557  1
  O  O62  1  0.28684634  0.20995203  0.08287731  1
  O  O63  1  0.25023098  0.24967010  0.04160653  1
  O  O64  1  0.74948088  0.74982188  0.12495647  1
  O  O65  1  0.70783530  0.78488801  0.08290314  1
  O  O66  1  0.21376583  0.71355341  0.00003018  1
  O  O67  1  0.79446793  0.27729478  0.08319571  1
  O  O68  1  0.27763825  0.19836005  0.99924991  1
  O  O69  1  0.74685940  0.74692237  0.04113867  1
  O  O70  1  0.71489278  0.79368734  0.99935789  1
  O  O71  1  0.78775061  0.28728429  0.00010077  1
loop_
_geom_bond_atom_site_label_1
_geom_bond_atom_site_label_2
_geom_bond_distance
_geom_bond_site_symmetry_2
Fe0 O0 1.996799 1_555
Fe0 O7 1.999406 1_455
Fe0 O1 1.999657 1_545
Fe0 O10 2.046499 1_445
Fe0 O5 2.068757 1_445
Fe0 O2 2.070600 1_555
Fe1 O8 1.991128 1_665
Fe1 O11 1.992179 1_555
Fe1 O3 2.030633 1_665
Fe1 O16 2.046668 1_555
Fe1 O6 2.075685 1_655
Fe1 O13 2.080433 1_565
Fe2 O28 2.010562 1_445
Fe2 O25 2.011652 1_455
Fe2 O18 2.011986 1_545
Fe2 O20 2.023182 1_555
Fe2 O23 2.025060 1_445
Fe2 O15 2.055810 1_555
Fe3 O29 1.992276 1_445
Fe3 O26 1.992407 1_555
Fe3 O34 2.021639 1_445
Fe3 O21 2.067695 1_555
Fe3 O31 2.074552 1_455
Fe3 O24 2.075916 1_545
Fe4 O12 2.007563 1_655
Fe4 O19 2.007603 1_565
Fe4 O9 2.015287 1_665
Fe4 O14 2.024979 1_665
Fe4 O17 2.029368 1_555
Fe4 O22 2.059262 1_555
Fe5 O38 1.996884 1_555
Fe5 O41 1.997462 1_445
Fe5 O46 2.021404 1_445
Fe5 O33 2.026257 1_555
Fe5 O36 2.077177 1_545
Fe5 O43 2.079039 1_455
Fe6 O42 1.999064 1_555
Fe6 O49 2.000045 1_465
Fe6 O52 2.021571 1_455
Fe6 O39 2.022689 1_565
Fe6 O44 2.075934 1_565
Fe6 O47 2.078608 1_455
Fe7 O37 1.998111 1_455
Fe7 O30 1.998137 1_545
Fe7 O27 2.029230 1_555
Fe7 O40 2.030753 1_445
Fe7 O32 2.076912 1_555
Fe7 O35 2.077973 1_445
Fe8 O64 1.996812 1_555
Fe8 O54 2.007069 1_655
Fe8 O61 2.007240 1_565
Fe8 O51 2.048057 1_665
Fe8 O59 2.081635 1_555
Fe8 O56 2.082704 1_665
Fe9 O53 1.996120 1_445
Fe9 O50 1.996224 1_555
Fe9 O45 2.009484 1_555
Fe9 O58 2.032717 1_445
Fe9 O48 2.075714 1_545
Fe9 O55 2.077511 1_455
Fe10 O64 1.981489 1_555
Fe10 O62 2.005879 1_555
Fe10 O65 2.005954 1_555
Fe10 O63 2.073755 1_555
Fe10 O67 2.082495 1_555
Fe10 O60 2.082587 1_555
Fe11 O0 1.973910 1_555
Fe11 O66 2.015636 1_556
Fe11 O71 2.015830 1_556
Fe11 O69 2.071774 1_556
Fe11 O68 2.075225 1_555
Fe11 O70 2.077957 1_555
Mo0 O2 1.941815 1_555
Mo0 O5 1.942985 1_555
Mo0 O3 2.000583 1_555
Mo0 O1 2.013181 1_555
Mo0 O7 2.014320 1_555
Mo0 O4 2.060476 1_555
Mo1 O13 1.948713 1_555
Mo1 O6 1.951417 1_555
Mo1 O9 2.021515 1_555
Mo1 O8 2.033169 1_555
Mo1 O11 2.035568 1_555
Mo1 O10 2.037806 1_555
Mo2 O15 1.966618 1_555
Mo2 O17 1.987875 1_555
Mo2 O14 1.993669 1_555
Mo2 O16 2.009083 1_555
Mo2 O19 2.015848 1_555
Mo2 O12 2.017326 1_555
Mo3 O22 1.970813 1_555
Mo3 O21 1.992198 1_555
Mo3 O23 1.996367 1_555
Mo3 O20 2.000612 1_555
Mo3 O18 2.016045 1_555
Mo3 O25 2.017482 1_555
Mo4 O24 1.948275 1_555
Mo4 O31 1.951185 1_555
Mo4 O28 2.018361 1_555
Mo4 O26 2.031403 1_555
Mo4 O29 2.031855 1_555
Mo4 O27 2.041814 1_555
Mo5 O35 1.944589 1_555
Mo5 O32 1.944743 1_555
Mo5 O37 2.028828 1_555
Mo5 O30 2.030210 1_555
Mo5 O33 2.037561 1_555
Mo5 O34 2.042013 1_555
Mo6 O43 1.947005 1_555
Mo6 O36 1.947180 1_555
Mo6 O38 2.026776 1_555
Mo6 O41 2.027416 1_555
Mo6 O40 2.036580 1_555
Mo6 O39 2.037512 1_555
Mo7 O47 1.944334 1_555
Mo7 O44 1.945543 1_555
Mo7 O49 2.027236 1_555
Mo7 O42 2.029159 1_555
Mo7 O46 2.031324 1_555
Mo7 O45 2.039464 1_555
Mo8 O55 1.947866 1_555
Mo8 O48 1.948643 1_555
Mo8 O50 2.027368 1_555
Mo8 O53 2.027752 1_555
Mo8 O52 2.035215 1_555
Mo8 O51 2.035680 1_555
Mo9 O67 1.945030 1_565
Mo9 O60 1.945450 1_655
Mo9 O69 2.010621 1_555
Mo9 O65 2.022986 1_555
Mo9 O62 2.023300 1_665
Mo9 O57 2.060504 1_665
Mo10 O56 1.941339 1_555
Mo10 O59 1.941922 1_555
Mo10 O58 2.004603 1_555
Mo10 O54 2.022765 1_555
Mo10 O61 2.023646 1_555
Mo10 O57 2.064093 1_555
Mo11 O70 1.953920 1_444
Mo11 O68 1.955877 1_554
Mo11 O63 2.006139 1_555
Mo11 O66 2.012488 1_545
Mo11 O71 2.012645 1_455
Mo11 O4 2.059497 1_444
O0 Sr0 2.800529 1_555
O0 Sr2 2.801827 1_555
O0 Sr0 2.827806 1_545
O0 Sr2 2.834749 1_455
O1 Sr4 2.666053 1_455
O1 Sr0 2.668796 1_555
O1 Sr1 2.999863 1_555
O1 Sr2 3.028156 1_565
O2 Sr1 2.673195 1_545
O2 Sr2 2.679085 1_555
O2 Sr0 2.995427 1_555
O2 Sr4 3.019507 1_455
O3 Sr1 2.809832 1_555
O3 Sr4 2.812402 1_455
O3 Sr1 2.818122 1_545
O3 Sr4 2.824158 1_555
O4 Sr2 2.812263 1_555
O4 Sr2 2.815673 1_565
O4 Sr0 2.817369 1_655
O4 Sr0 2.819585 1_555
O5 Sr2 2.672657 1_565
O5 Sr1 2.684072 1_555
O5 Sr0 2.991905 1_655
O5 Sr4 3.030014 1_555
O6 Sr1 2.648896 1_555
O6 Sr6 2.681124 1_455
O6 Sr4 3.059839 1_565
O6 Sr3 3.069310 1_555
O7 Sr4 2.662911 1_555
O7 Sr0 2.664343 1_655
O7 Sr1 2.998688 1_545
O7 Sr2 3.031929 1_555
O8 Sr4 2.639597 1_555
O8 Sr3 2.673697 1_545
O8 Sr1 3.058407 1_555
O8 Sr6 3.103586 1_455
O9 Sr3 2.785544 1_555
O9 Sr6 2.818039 1_555
O9 Sr6 2.819763 1_455
O9 Sr3 2.842956 1_545
O10 Sr4 2.806887 1_565
O10 Sr1 2.809516 1_555
O10 Sr4 2.821061 1_555
O10 Sr1 2.827016 1_655
O11 Sr4 2.641430 1_565
O11 Sr3 2.667008 1_555
O11 Sr1 3.063125 1_655
O11 Sr6 3.090829 1_555
O12 Sr3 2.614396 1_555
O12 Sr8 2.647713 1_455
O12 Sr6 2.999402 1_565
O12 Sr5 3.051958 1_555
O13 Sr1 2.649554 1_655
O13 Sr6 2.678043 1_555
O13 Sr4 3.063422 1_555
O13 Sr3 3.085243 1_545
O14 Sr6 2.632492 1_555
O14 Sr5 2.638869 1_545
O14 Sr8 3.001848 1_455
O14 Sr3 3.029658 1_555
O15 Sr5 2.764999 1_545
O15 Sr8 2.787578 1_455
O15 Sr8 2.850100 1_555
O15 Sr5 2.863835 1_555
O16 Sr6 2.794638 1_565
O16 Sr3 2.797504 1_655
O16 Sr6 2.833640 1_555
O16 Sr3 2.839353 1_555
O17 Sr6 2.624003 1_565
O17 Sr5 2.646302 1_555
O17 Sr3 3.015018 1_655
O17 Sr8 3.032025 1_555
O18 Sr10 2.597231 1_455
O18 Sr5 2.642971 1_555
O18 Sr7 2.994911 1_555
O18 Sr8 3.066129 1_565
O19 Sr8 2.619174 1_555
O19 Sr3 2.638194 1_655
O19 Sr5 3.020452 1_545
O19 Sr6 3.024878 1_555
O20 Sr7 2.616939 1_545
O20 Sr8 2.620358 1_555
O20 Sr5 3.006711 1_555
O20 Sr10 3.050037 1_455
O21 Sr10 2.786126 1_555
O21 Sr7 2.799458 1_555
O21 Sr7 2.828982 1_545
O21 Sr10 2.850607 1_455
O22 Sr8 2.779487 1_555
O22 Sr5 2.780478 1_555
O22 Sr8 2.849417 1_565
O22 Sr5 2.856722 1_655
O23 Sr7 2.614049 1_555
O23 Sr8 2.626167 1_565
O23 Sr10 3.025132 1_555
O23 Sr5 3.037141 1_655
O24 Sr12 2.659377 1_455
O24 Sr7 2.680823 1_555
O24 Sr10 3.045218 1_565
O24 Sr9 3.064778 1_555
O25 Sr5 2.595346 1_655
O25 Sr10 2.636433 1_555
O25 Sr8 3.019228 1_555
O25 Sr7 3.041750 1_545
O26 Sr9 2.648664 1_545
O26 Sr10 2.658708 1_555
O26 Sr12 3.055481 1_455
O26 Sr7 3.101981 1_555
O27 Sr9 2.812059 1_545
O27 Sr9 2.815865 1_555
O27 Sr12 2.817696 1_555
O27 Sr12 2.818881 1_455
O28 Sr10 2.782485 1_565
O28 Sr7 2.813106 1_655
O28 Sr7 2.824728 1_555
O28 Sr10 2.845826 1_555
O29 Sr9 2.656486 1_555
O29 Sr10 2.666188 1_565
O29 Sr12 3.058880 1_555
O29 Sr7 3.069699 1_655
O30 Sr14 2.648240 1_455
O30 Sr9 2.649082 1_555
O30 Sr11 3.054997 1_555
O30 Sr12 3.076054 1_565
O31 Sr12 2.657108 1_555
O31 Sr7 2.679140 1_655
O31 Sr9 3.054143 1_545
O31 Sr10 3.071204 1_555
O32 Sr11 2.653445 1_545
O32 Sr12 2.666690 1_555
O32 Sr14 3.052905 1_455
O32 Sr9 3.060596 1_555
O33 Sr11 2.808902 1_555
O33 Sr14 2.816528 1_455
O33 Sr11 2.819014 1_545
O33 Sr14 2.819999 1_555
O34 Sr12 2.802536 1_555
O34 Sr9 2.816734 1_655
O34 Sr9 2.819819 1_555
O34 Sr12 2.825383 1_565
O35 Sr11 2.659087 1_555
O35 Sr12 2.659767 1_565
O35 Sr9 3.055958 1_655
O35 Sr14 3.060233 1_555
O36 Sr16 2.650607 1_455
O36 Sr11 2.652035 1_555
O36 Sr14 3.049073 1_565
O36 Sr13 3.053155 1_555
O37 Sr14 2.646471 1_555
O37 Sr9 2.657683 1_655
O37 Sr12 3.060549 1_555
O37 Sr11 3.062491 1_545
O38 Sr13 2.646862 1_545
O38 Sr14 2.648259 1_555
O38 Sr16 3.055399 1_455
O38 Sr11 3.056587 1_555
O39 Sr13 2.812171 1_545
O39 Sr13 2.815753 1_555
O39 Sr16 2.817273 1_555
O39 Sr16 2.819262 1_455
O40 Sr14 2.812594 1_565
O40 Sr11 2.815113 1_555
O40 Sr14 2.815342 1_555
O40 Sr11 2.821423 1_655
O41 Sr13 2.644168 1_555
O41 Sr14 2.646453 1_565
O41 Sr16 3.057188 1_555
O41 Sr11 3.060741 1_655
O42 Sr13 2.640367 1_555
O42 Sr18 2.643598 1_455
O42 Sr16 3.056810 1_565
O42 Sr15 3.057759 1_555
O43 Sr16 2.650071 1_555
O43 Sr11 2.651756 1_655
O43 Sr13 3.048356 1_545
O43 Sr14 3.053584 1_555
O44 Sr15 2.649344 1_545
O44 Sr16 2.651537 1_555
O44 Sr18 3.048896 1_455
O44 Sr13 3.055002 1_555
O45 Sr15 2.809481 1_545
O45 Sr18 2.817376 1_555
O45 Sr15 2.818444 1_555
O45 Sr18 2.819165 1_455
O46 Sr16 2.809992 1_555
O46 Sr13 2.814913 1_655
O46 Sr16 2.817938 1_565
O46 Sr13 2.821634 1_555
O47 Sr16 2.649818 1_565
O47 Sr15 2.651216 1_555
O47 Sr13 3.047815 1_655
O47 Sr18 3.054143 1_555
O48 Sr20 2.647312 1_455
O48 Sr15 2.650887 1_555
O48 Sr17 3.043025 1_555
O48 Sr18 3.052466 1_565
O49 Sr13 2.642980 1_655
O49 Sr18 2.644799 1_555
O49 Sr16 3.053396 1_555
O49 Sr15 3.055907 1_545
O50 Sr17 2.638881 1_545
O50 Sr18 2.652149 1_555
O50 Sr20 3.052416 1_455
O50 Sr15 3.053462 1_555
O51 Sr17 2.810437 1_555
O51 Sr20 2.815908 1_555
O51 Sr17 2.817536 1_545
O51 Sr20 2.820672 1_455
O52 Sr18 2.810729 1_555
O52 Sr15 2.811296 1_555
O52 Sr18 2.817202 1_565
O52 Sr15 2.825231 1_655
O53 Sr17 2.643892 1_555
O53 Sr18 2.644951 1_565
O53 Sr20 3.049206 1_555
O53 Sr15 3.060031 1_655
O54 Sr17 2.629288 1_555
O54 Sr22 2.652188 1_455
O54 Sr20 3.048918 1_565
O54 Sr19 3.073236 1_555
O55 Sr15 2.645260 1_655
O55 Sr20 2.654146 1_555
O55 Sr18 3.040760 1_555
O55 Sr17 3.054284 1_545
O56 Sr19 2.648702 1_545
O56 Sr20 2.650665 1_555
O56 Sr22 3.052532 1_455
O56 Sr17 3.057653 1_555
O57 Sr19 2.813918 1_545
O57 Sr19 2.813998 1_555
O57 Sr22 2.818228 1_455
O57 Sr22 2.818304 1_555
O58 Sr20 2.808203 1_565
O58 Sr17 2.817091 1_555
O58 Sr17 2.819441 1_655
O58 Sr20 2.819712 1_555
O59 Sr19 2.647903 1_555
O59 Sr20 2.650545 1_565
O59 Sr22 3.054633 1_555
O59 Sr17 3.056844 1_655
O60 Sr19 2.647918 1_555
O60 Sr23 2.659891 1_455
O60 Sr21 3.052341 1_555
O60 Sr22 3.057326 1_565
O61 Sr17 2.626434 1_655
O61 Sr22 2.650592 1_555
O61 Sr20 3.053644 1_555
O61 Sr19 3.073252 1_545
O62 Sr21 2.624093 1_545
O62 Sr22 2.651198 1_555
O62 Sr23 3.067476 1_455
O62 Sr19 3.077831 1_555
O63 Sr21 2.813781 1_545
O63 Sr21 2.814133 1_555
O63 Sr23 2.816426 1_555
O63 Sr23 2.820294 1_455
O64 Sr22 2.813461 1_555
O64 Sr22 2.814448 1_565
O64 Sr19 2.818022 1_555
O64 Sr19 2.818494 1_655
O65 Sr21 2.624251 1_555
O65 Sr22 2.651757 1_565
O65 Sr23 3.069692 1_555
O65 Sr19 3.074819 1_655
O66 Sr21 2.639292 1_555
O66 Sr2 2.653496 1_454
O66 Sr23 3.034368 1_565
O66 Sr0 3.083420 1_554
O67 Sr19 2.647298 1_655
O67 Sr23 2.661603 1_555
O67 Sr21 3.052831 1_545
O67 Sr22 3.056776 1_555
O68 Sr23 2.638882 1_556
O68 Sr0 2.643248 1_545
O68 Sr2 3.054990 1_455
O68 Sr21 3.092694 1_556
O69 Sr23 2.813802 1_555
O69 Sr23 2.814108 1_565
O69 Sr21 2.817804 1_555
O69 Sr21 2.818852 1_655
O70 Sr23 2.635528 1_566
O70 Sr0 2.644138 1_555
O70 Sr2 3.053141 1_555
O70 Sr21 3.088042 1_656
O71 Sr21 2.636043 1_655
O71 Sr2 2.651134 1_554
O71 Sr23 3.031729 1_555
O71 Sr0 3.092571 1_544
