# generated using pymatgen
data_CuH9C5NO5
_symmetry_space_group_name_H-M   'P 1'
_cell_length_a   6.73614700
_cell_length_b   7.82991185
_cell_length_c   10.35332892
_cell_angle_alpha   100.57144387
_cell_angle_beta   100.15911527
_cell_angle_gamma   109.77396315
_symmetry_Int_Tables_number   1
_chemical_formula_structural   CuH9C5NO5
_chemical_formula_sum   'Cu2 H18 C10 N2 O10'
_cell_volume   488.07867094
_cell_formula_units_Z   2
loop_
 _symmetry_equiv_pos_site_id
 _symmetry_equiv_pos_as_xyz
  1  'x, y, z'
loop_
 _atom_site_type_symbol
 _atom_site_label
 _atom_site_symmetry_multiplicity
 _atom_site_fract_x
 _atom_site_fract_y
 _atom_site_fract_z
 _atom_site_occupancy
  Cu  Cu0  1  0.87455200  0.43169100  0.87366100  1
  Cu  Cu1  1  0.12544800  0.56830900  0.12633900  1
  H  H0  1  0.41496900  0.82312300  0.88228800  1
  H  H1  1  0.58503100  0.17687700  0.11771200  1
  H  H2  1  0.21987400  0.13661500  0.93654400  1
  H  H3  1  0.78012600  0.86338500  0.06345600  1
  H  H4  1  0.38678300  0.36244900  0.71376700  1
  H  H5  1  0.61321700  0.63755100  0.28623300  1
  H  H6  1  0.56130000  0.19644900  0.42214500  1
  H  H7  1  0.43870000  0.80355100  0.57785500  1
  H  H8  1  0.28431900  0.04377000  0.33724400  1
  H  H9  1  0.71568100  0.95623000  0.66275600  1
  H  H10  1  0.38810300  0.27778800  0.31891700  1
  H  H11  1  0.61189700  0.72221200  0.68108300  1
  H  H12  1  0.08030300  0.31476500  0.58417700  1
  H  H13  1  0.91969700  0.68523500  0.41582300  1
  H  H14  1  0.09405000  0.35349700  0.42043300  1
  H  H15  1  0.90595000  0.64650300  0.57956700  1
  H  H16  1  0.98626200  0.11944100  0.43819900  1
  H  H17  1  0.01373800  0.88055900  0.56180100  1
  C  C0  1  0.28898900  0.72256900  0.91680000  1
  C  C1  1  0.71101100  0.27743100  0.08320000  1
  C  C2  1  0.15344300  0.24775200  0.95355100  1
  C  C3  1  0.84655700  0.75224800  0.04644900  1
  C  C4  1  0.46213700  0.31641800  0.63458200  1
  C  C5  1  0.53786300  0.68358200  0.36541800  1
  C  C6  1  0.39454300  0.18971600  0.38973100  1
  C  C7  1  0.60545700  0.81028400  0.61026900  1
  C  C8  1  0.11025300  0.26183400  0.48689600  1
  C  C9  1  0.88974700  0.73816600  0.51310400  1
  N  N0  1  0.32795500  0.25713500  0.50908500  1
  N  N1  1  0.67204500  0.74286500  0.49091500  1
  O  O0  1  0.12108900  0.61146800  0.82393000  1
  O  O1  1  0.87891100  0.38853200  0.17607000  1
  O  O2  1  0.33385600  0.73676900  0.04356300  1
  O  O3  1  0.66614400  0.26323100  0.95643700  1
  O  O4  1  0.01539000  0.24496100  0.85186600  1
  O  O5  1  0.98461000  0.75503900  0.14813400  1
  O  O6  1  0.22675900  0.35906300  0.07190200  1
  O  O7  1  0.77324100  0.64093700  0.92809800  1
  O  O8  1  0.65320100  0.32138200  0.66215600  1
  O  O9  1  0.34679900  0.67861800  0.33784400  1
loop_
_geom_bond_atom_site_label_1
_geom_bond_atom_site_label_2
_geom_bond_distance
_geom_bond_site_symmetry_2
Cu0 O4 1.995402 1_655
Cu0 O0 1.997587 1_655
Cu0 O7 2.005259 1_555
Cu0 O3 2.007836 1_555
Cu0 O8 2.246601 1_555
Cu1 O5 1.995402 1_455
Cu1 O1 1.997587 1_455
Cu1 O6 2.005259 1_555
Cu1 O2 2.007836 1_555
Cu1 O9 2.246601 1_555
C0 H0 1.107171 1_555
C0 O0 1.266562 1_555
C0 O2 1.268836 1_556
C1 H1 1.107171 1_555
C1 O1 1.266562 1_555
C1 O3 1.268836 1_554
C2 H2 1.106136 1_555
C2 O4 1.267304 1_555
C2 O6 1.268216 1_556
C3 H3 1.106136 1_555
C3 O5 1.267304 1_555
C3 O7 1.268216 1_554
C4 H4 1.105369 1_555
C4 O8 1.253769 1_555
C4 N0 1.342083 1_555
C5 H5 1.105369 1_555
C5 O9 1.253769 1_555
C5 N1 1.342083 1_555
C6 H6 1.094377 1_555
C6 H8 1.099168 1_555
C6 H10 1.099764 1_555
C6 N0 1.457130 1_555
C7 H7 1.094377 1_555
C7 H9 1.099168 1_555
C7 H11 1.099764 1_555
C7 N1 1.457130 1_555
C8 H12 1.096347 1_555
C8 H14 1.099202 1_555
C8 H16 1.099985 1_455
C8 N0 1.457888 1_555
C9 H13 1.096347 1_555
C9 H15 1.099202 1_555
C9 H17 1.099985 1_655
C9 N1 1.457888 1_555
