# generated using pymatgen
data_CaLa2Mn3O9
_symmetry_space_group_name_H-M   'P 1'
_cell_length_a   5.56159400
_cell_length_b   9.56071200
_cell_length_c   13.53921812
_cell_angle_alpha   89.90121192
_cell_angle_beta   90.00000000
_cell_angle_gamma   90.00000000
_symmetry_Int_Tables_number   1
_chemical_formula_structural   CaLa2Mn3O9
_chemical_formula_sum   'Ca4 La8 Mn12 O36'
_cell_volume   719.91704704
_cell_formula_units_Z   4
loop_
 _symmetry_equiv_pos_site_id
 _symmetry_equiv_pos_as_xyz
  1  'x, y, z'
loop_
 _atom_site_type_symbol
 _atom_site_label
 _atom_site_symmetry_multiplicity
 _atom_site_fract_x
 _atom_site_fract_y
 _atom_site_fract_z
 _atom_site_occupancy
  Ca  Ca0  1  0.03651800  0.50095300  0.74963700  1
  Ca  Ca1  1  0.53651800  0.99904700  0.25036300  1
  Ca  Ca2  1  0.96348200  0.49904700  0.25036300  1
  Ca  Ca3  1  0.46348200  0.00095300  0.74963700  1
  La  La0  1  0.03607100  0.16386600  0.41055500  1
  La  La1  1  0.02696100  0.83177300  0.08599400  1
  La  La2  1  0.52696100  0.66822700  0.91400600  1
  La  La3  1  0.53607100  0.33613400  0.58944500  1
  La  La4  1  0.97303900  0.16822700  0.91400600  1
  La  La5  1  0.96392900  0.83613400  0.58944500  1
  La  La6  1  0.46392900  0.66386600  0.41055500  1
  La  La7  1  0.47303900  0.33177300  0.08599400  1
  Mn  Mn0  1  0.99741400  0.83360700  0.33350700  1
  Mn  Mn1  1  0.00000000  0.50000000  0.00000000  1
  Mn  Mn2  1  0.00258600  0.16639300  0.66649300  1
  Mn  Mn3  1  0.50000000  0.00000000  0.00000000  1
  Mn  Mn4  1  0.49741400  0.66639300  0.66649300  1
  Mn  Mn5  1  0.50258600  0.33360700  0.33350700  1
  Mn  Mn6  1  0.00130100  0.16785500  0.16763300  1
  Mn  Mn7  1  0.99869900  0.83214500  0.83236700  1
  Mn  Mn8  1  0.00000000  0.50000000  0.50000000  1
  Mn  Mn9  1  0.49869900  0.66785500  0.16763300  1
  Mn  Mn10  1  0.50130100  0.33214500  0.83236700  1
  Mn  Mn11  1  0.50000000  0.00000000  0.50000000  1
  O  O0  1  0.79359900  0.95046200  0.42257600  1
  O  O1  1  0.78204700  0.61809900  0.08221300  1
  O  O2  1  0.79419200  0.28859100  0.75067800  1
  O  O3  1  0.29419200  0.21140900  0.24932200  1
  O  O4  1  0.28204700  0.88190100  0.91778700  1
  O  O5  1  0.29359900  0.54953800  0.57742400  1
  O  O6  1  0.21413000  0.09471100  0.05811900  1
  O  O7  1  0.20956600  0.75432900  0.72826700  1
  O  O8  1  0.20621600  0.42935800  0.39066300  1
  O  O9  1  0.71413000  0.40528900  0.94188100  1
  O  O10  1  0.70621600  0.07064200  0.60933700  1
  O  O11  1  0.70956600  0.74567100  0.27173300  1
  O  O12  1  0.21795300  0.38190100  0.91778700  1
  O  O13  1  0.20640100  0.04953800  0.57742400  1
  O  O14  1  0.20580800  0.71140900  0.24932200  1
  O  O15  1  0.71795300  0.11809900  0.08221300  1
  O  O16  1  0.70580800  0.78859100  0.75067800  1
  O  O17  1  0.70640100  0.45046200  0.42257600  1
  O  O18  1  0.79043400  0.24567100  0.27173300  1
  O  O19  1  0.78587000  0.90528900  0.94188100  1
  O  O20  1  0.79378400  0.57064200  0.60933700  1
  O  O21  1  0.29378400  0.92935800  0.39066300  1
  O  O22  1  0.28587000  0.59471100  0.05811900  1
  O  O23  1  0.29043400  0.25432900  0.72826700  1
  O  O24  1  0.49192000  0.19051900  0.44081400  1
  O  O25  1  0.47997500  0.85630400  0.10552900  1
  O  O26  1  0.47896900  0.51897200  0.76954500  1
  O  O27  1  0.97896900  0.98102800  0.23045500  1
  O  O28  1  0.97997500  0.64369600  0.89447100  1
  O  O29  1  0.99192000  0.30948100  0.55918600  1
  O  O30  1  0.52002500  0.14369600  0.89447100  1
  O  O31  1  0.50808000  0.80948100  0.55918600  1
  O  O32  1  0.52103100  0.48102800  0.23045500  1
  O  O33  1  0.02002500  0.35630400  0.10552900  1
  O  O34  1  0.02103100  0.01897200  0.76954500  1
  O  O35  1  0.00808000  0.69051900  0.44081400  1
loop_
_geom_bond_atom_site_label_1
_geom_bond_atom_site_label_2
_geom_bond_distance
_geom_bond_site_symmetry_2
Ca0 O28 2.411613 1_455
Ca0 O20 2.422876 1_455
Ca0 O2 2.436944 1_455
Ca0 O26 2.481470 1_555
Ca0 O7 2.622183 1_555
Ca0 O12 2.736390 1_555
Ca0 O23 2.764057 1_555
Ca0 O5 2.773590 1_555
Ca1 O25 2.411613 1_555
Ca1 O21 2.422876 1_555
Ca1 O3 2.436944 1_565
Ca1 O27 2.481470 1_555
Ca1 O11 2.622183 1_555
Ca1 O15 2.736390 1_565
Ca1 O18 2.764057 1_565
Ca1 O0 2.773590 1_555
Ca2 O33 2.411613 1_655
Ca2 O8 2.422876 1_655
Ca2 O14 2.436944 1_655
Ca2 O32 2.481470 1_555
Ca2 O18 2.622183 1_555
Ca2 O1 2.736390 1_555
Ca2 O11 2.764057 1_555
Ca2 O17 2.773590 1_555
Ca3 O30 2.411613 1_555
Ca3 O10 2.422876 1_555
Ca3 O16 2.436944 1_545
Ca3 O34 2.481470 1_555
Ca3 O23 2.622183 1_555
Ca3 O4 2.736390 1_545
Ca3 O7 2.764057 1_545
Ca3 O13 2.773590 1_555
La0 O18 2.450638 1_455
La0 O0 2.450853 1_445
La0 O29 2.461234 1_455
La0 O24 2.580816 1_555
La0 O3 2.651299 1_555
La0 O21 2.675033 1_545
La0 O13 2.681040 1_555
La0 O8 2.721865 1_555
La1 O27 2.437755 1_455
La1 O1 2.455946 1_455
La1 O19 2.468656 1_454
La1 O25 2.544200 1_555
La1 O14 2.682323 1_555
La1 O22 2.712152 1_555
La1 O4 2.724904 1_554
La1 O6 2.746329 1_565
La2 O26 2.437755 1_555
La2 O4 2.455946 1_555
La2 O22 2.468656 1_556
La2 O28 2.544200 1_555
La2 O16 2.682323 1_555
La2 O19 2.712152 1_555
La2 O1 2.724904 1_556
La2 O9 2.746329 1_555
La3 O23 2.450638 1_555
La3 O5 2.450853 1_555
La3 O24 2.461234 1_555
La3 O29 2.580816 1_555
La3 O2 2.651299 1_555
La3 O20 2.675033 1_555
La3 O17 2.681040 1_555
La3 O10 2.721865 1_555
La4 O34 2.437755 1_655
La4 O12 2.455946 1_655
La4 O6 2.468656 1_656
La4 O30 2.544200 1_555
La4 O2 2.682323 1_555
La4 O9 2.712152 1_555
La4 O15 2.724904 1_556
La4 O19 2.746329 1_545
La5 O7 2.450638 1_655
La5 O13 2.450853 1_665
La5 O35 2.461234 1_655
La5 O31 2.580816 1_555
La5 O16 2.651299 1_555
La5 O10 2.675033 1_565
La5 O0 2.681040 1_555
La5 O20 2.721865 1_555
La6 O11 2.450638 1_555
La6 O17 2.450853 1_555
La6 O31 2.461234 1_555
La6 O35 2.580816 1_555
La6 O14 2.651299 1_555
La6 O8 2.675033 1_555
La6 O5 2.681040 1_555
La6 O21 2.721865 1_555
La7 O32 2.437755 1_555
La7 O15 2.455946 1_555
La7 O9 2.468656 1_554
La7 O33 2.544200 1_555
La7 O3 2.682323 1_555
La7 O6 2.712152 1_555
La7 O12 2.724904 1_554
La7 O22 2.746329 1_555
Mn0 O27 1.984186 1_555
Mn0 O11 1.992895 1_555
Mn0 O35 1.994727 1_655
Mn0 O0 1.997994 1_555
Mn0 O14 2.002984 1_655
Mn0 O21 2.038673 1_655
Mn1 O33 1.983551 1_555
Mn1 O28 1.983551 1_454
Mn1 O22 1.992321 1_555
Mn1 O9 1.992321 1_454
Mn1 O1 1.996888 1_455
Mn1 O12 1.996888 1_554
Mn2 O34 1.984186 1_555
Mn2 O23 1.992895 1_555
Mn2 O29 1.994727 1_455
Mn2 O13 1.997994 1_555
Mn2 O2 2.002984 1_455
Mn2 O10 2.038673 1_455
Mn3 O25 1.983551 1_545
Mn3 O30 1.983551 1_554
Mn3 O6 1.992321 1_555
Mn3 O19 1.992321 1_544
Mn3 O15 1.996888 1_555
Mn3 O4 1.996888 1_544
Mn4 O26 1.984186 1_555
Mn4 O7 1.992895 1_555
Mn4 O31 1.994727 1_555
Mn4 O5 1.997994 1_555
Mn4 O16 2.002984 1_555
Mn4 O20 2.038673 1_555
Mn5 O32 1.984186 1_555
Mn5 O18 1.992895 1_555
Mn5 O24 1.994727 1_555
Mn5 O17 1.997994 1_555
Mn5 O3 2.002984 1_555
Mn5 O8 2.038673 1_555
Mn6 O18 1.979640 1_455
Mn6 O27 1.980946 1_445
Mn6 O33 1.989668 1_555
Mn6 O15 2.012234 1_455
Mn6 O3 2.012878 1_555
Mn6 O6 2.022914 1_555
Mn7 O7 1.979640 1_655
Mn7 O34 1.980946 1_665
Mn7 O28 1.989668 1_555
Mn7 O4 2.012234 1_655
Mn7 O16 2.012878 1_555
Mn7 O19 2.022914 1_555
Mn8 O29 1.989214 1_455
Mn8 O35 1.989214 1_555
Mn8 O8 1.991570 1_555
Mn8 O20 1.991570 1_455
Mn8 O5 1.997791 1_555
Mn8 O17 1.997791 1_455
Mn9 O11 1.979640 1_555
Mn9 O32 1.980946 1_555
Mn9 O25 1.989668 1_555
Mn9 O1 2.012234 1_555
Mn9 O14 2.012878 1_555
Mn9 O22 2.022914 1_555
Mn10 O23 1.979640 1_555
Mn10 O26 1.980946 1_555
Mn10 O30 1.989668 1_555
Mn10 O12 2.012234 1_555
Mn10 O2 2.012878 1_555
Mn10 O9 2.022914 1_555
Mn11 O31 1.989214 1_545
Mn11 O24 1.989214 1_555
Mn11 O10 1.991570 1_555
Mn11 O21 1.991570 1_545
Mn11 O13 1.997791 1_555
Mn11 O0 1.997791 1_545
