# generated using pymatgen
data_SrNd2Mn3O9
_symmetry_space_group_name_H-M   'P 1'
_cell_length_a   5.46352048
_cell_length_b   7.68382151
_cell_length_c   16.36217982
_cell_angle_alpha   90.00000000
_cell_angle_beta   90.00000000
_cell_angle_gamma   90.00000000
_symmetry_Int_Tables_number   1
_chemical_formula_structural   SrNd2Mn3O9
_chemical_formula_sum   'Sr4 Nd8 Mn12 O36'
_cell_volume   686.89602718
_cell_formula_units_Z   4
loop_
 _symmetry_equiv_pos_site_id
 _symmetry_equiv_pos_as_xyz
  1  'x, y, z'
loop_
 _atom_site_type_symbol
 _atom_site_label
 _atom_site_symmetry_multiplicity
 _atom_site_fract_x
 _atom_site_fract_y
 _atom_site_fract_z
 _atom_site_occupancy
  Sr  Sr0  1  0.99501698  0.75000000  0.83905599  1
  Sr  Sr1  1  0.50498302  0.75000000  0.33905599  1
  Sr  Sr2  1  0.00498302  0.25000000  0.16094401  1
  Sr  Sr3  1  0.49501698  0.25000000  0.66094401  1
  Nd  Nd0  1  0.99277507  0.75000000  0.50908074  1
  Nd  Nd1  1  0.99631325  0.75000000  0.17744973  1
  Nd  Nd2  1  0.50368675  0.75000000  0.67744973  1
  Nd  Nd3  1  0.50722493  0.75000000  0.00908074  1
  Nd  Nd4  1  0.00368675  0.25000000  0.82255027  1
  Nd  Nd5  1  0.00722493  0.25000000  0.49091926  1
  Nd  Nd6  1  0.49277507  0.25000000  0.99091926  1
  Nd  Nd7  1  0.49631325  0.25000000  0.32255027  1
  Mn  Mn0  1  0.49817861  0.99953670  0.83397955  1
  Mn  Mn1  1  0.50000000  -0.00000000  0.50000000  1
  Mn  Mn2  1  0.50182139  0.00046330  0.16602045  1
  Mn  Mn3  1  0.00000000  0.50000000  -0.00000000  1
  Mn  Mn4  1  0.99817861  0.49953670  0.66602045  1
  Mn  Mn5  1  0.00182139  0.50046330  0.33397955  1
  Mn  Mn6  1  0.49817861  0.50046330  0.83397955  1
  Mn  Mn7  1  0.50000000  0.50000000  0.50000000  1
  Mn  Mn8  1  0.50182139  0.49953670  0.16602045  1
  Mn  Mn9  1  0.00000000  -0.00000000  -0.00000000  1
  Mn  Mn10  1  0.99817861  0.00046330  0.66602045  1
  Mn  Mn11  1  0.00182139  0.99953670  0.33397955  1
  O  O0  1  0.06994343  0.75000000  0.99762077  1
  O  O1  1  0.06604989  0.75000000  0.66165728  1
  O  O2  1  0.04903640  0.75000000  0.33195543  1
  O  O3  1  0.45096360  0.75000000  0.83195543  1
  O  O4  1  0.43005657  0.75000000  0.49762077  1
  O  O5  1  0.43395011  0.75000000  0.16165728  1
  O  O6  1  0.95096360  0.25000000  0.66804457  1
  O  O7  1  0.93395011  0.25000000  0.33834272  1
  O  O8  1  0.93005657  0.25000000  0.00237923  1
  O  O9  1  0.56604989  0.25000000  0.83834272  1
  O  O10  1  0.56994343  0.25000000  0.50237923  1
  O  O11  1  0.54903640  0.25000000  0.16804457  1
  O  O12  1  0.71620756  0.97220868  0.92867041  1
  O  O13  1  0.72220900  0.95613535  0.59125599  1
  O  O14  1  0.73763868  0.97296961  0.25530137  1
  O  O15  1  0.76236132  0.52703039  0.75530137  1
  O  O16  1  0.78379244  0.52779132  0.42867041  1
  O  O17  1  0.77779100  0.54386465  0.09125599  1
  O  O18  1  0.26236132  0.47296961  0.74469863  1
  O  O19  1  0.27779100  0.45613535  0.40874401  1
  O  O20  1  0.28379244  0.47220868  0.07132959  1
  O  O21  1  0.22220900  0.04386465  0.90874401  1
  O  O22  1  0.21620756  0.02779132  0.57132959  1
  O  O23  1  0.23763868  0.02703039  0.24469863  1
  O  O24  1  0.26236132  0.02703039  0.74469863  1
  O  O25  1  0.27779100  0.04386465  0.40874401  1
  O  O26  1  0.28379244  0.02779132  0.07132959  1
  O  O27  1  0.22220900  0.45613535  0.90874401  1
  O  O28  1  0.21620756  0.47220868  0.57132959  1
  O  O29  1  0.23763868  0.47296961  0.24469863  1
  O  O30  1  0.71620756  0.52779132  0.92867041  1
  O  O31  1  0.72220900  0.54386465  0.59125599  1
  O  O32  1  0.73763868  0.52703039  0.25530137  1
  O  O33  1  0.76236132  0.97296961  0.75530137  1
  O  O34  1  0.78379244  0.97220868  0.42867041  1
  O  O35  1  0.77779100  0.95613535  0.09125599  1
loop_
_geom_bond_atom_site_label_1
_geom_bond_atom_site_label_2
_geom_bond_distance
_geom_bond_site_symmetry_2
Nd0 O4 2.396444 1_655
Nd0 O16 2.439253 1_555
Nd0 O34 2.439253 1_555
Nd0 O1 2.528380 1_655
Nd0 O13 2.549867 1_555
Nd0 O31 2.549867 1_555
Nd0 O22 2.661515 1_665
Nd0 O28 2.661515 1_655
Nd0 O2 2.914412 1_655
Nd1 O5 2.404960 1_655
Nd1 O17 2.433754 1_555
Nd1 O35 2.433754 1_555
Nd1 O2 2.544408 1_655
Nd1 O32 2.560317 1_555
Nd1 O14 2.560317 1_555
Nd1 O23 2.735016 1_665
Nd1 O29 2.735016 1_655
Nd1 O0 2.969766 1_654
Nd1 O5 3.083329 1_555
Nd1 O26 3.168274 1_665
Nd1 O20 3.168274 1_655
Nd2 O1 2.404960 1_555
Nd2 O13 2.433754 1_555
Nd2 O31 2.433754 1_555
Nd2 O3 2.544408 1_555
Nd2 O15 2.560317 1_555
Nd2 O33 2.560317 1_555
Nd2 O24 2.735016 1_565
Nd2 O18 2.735016 1_555
Nd2 O4 2.969766 1_555
Nd2 O1 3.083329 1_655
Nd2 O22 3.168274 1_565
Nd2 O28 3.168274 1_555
Nd3 O0 2.396444 1_554
Nd3 O12 2.439253 1_554
Nd3 O30 2.439253 1_554
Nd3 O5 2.528380 1_555
Nd3 O35 2.549867 1_555
Nd3 O17 2.549867 1_555
Nd3 O26 2.661515 1_565
Nd3 O20 2.661515 1_555
Nd3 O3 2.914412 1_554
Nd4 O9 2.404960 1_455
Nd4 O21 2.433754 1_555
Nd4 O27 2.433754 1_555
Nd4 O6 2.544408 1_455
Nd4 O24 2.560317 1_555
Nd4 O18 2.560317 1_555
Nd4 O15 2.735016 1_455
Nd4 O33 2.735016 1_445
Nd4 O8 2.969766 1_456
Nd4 O9 3.083329 1_555
Nd4 O12 3.168274 1_445
Nd4 O30 3.168274 1_455
Nd5 O10 2.396444 1_455
Nd5 O22 2.439253 1_555
Nd5 O28 2.439253 1_555
Nd5 O7 2.528380 1_455
Nd5 O25 2.549867 1_555
Nd5 O19 2.549867 1_555
Nd5 O34 2.661515 1_445
Nd5 O16 2.661515 1_455
Nd5 O6 2.914412 1_455
Nd6 O8 2.396444 1_556
Nd6 O26 2.439253 1_556
Nd6 O20 2.439253 1_556
Nd6 O9 2.528380 1_555
Nd6 O21 2.549867 1_555
Nd6 O27 2.549867 1_555
Nd6 O12 2.661515 1_545
Nd6 O30 2.661515 1_555
Nd6 O11 2.914412 1_556
Nd7 O7 2.404960 1_555
Nd7 O25 2.433754 1_555
Nd7 O19 2.433754 1_555
Nd7 O11 2.544408 1_555
Nd7 O29 2.560317 1_555
Nd7 O23 2.560317 1_555
Nd7 O32 2.735016 1_555
Nd7 O14 2.735016 1_545
Nd7 O10 2.969766 1_555
Nd7 O7 3.083329 1_455
Nd7 O16 3.168274 1_555
Nd7 O34 3.168274 1_545
Mn0 O3 1.934954 1_555
Mn0 O33 1.944799 1_555
Mn0 O24 1.959237 1_565
Mn0 O9 1.961214 1_565
Mn0 O12 1.965590 1_555
Mn0 O21 1.971258 1_565
Mn1 O34 1.952386 1_545
Mn1 O22 1.952386 1_555
Mn1 O13 1.953712 1_545
Mn1 O25 1.953712 1_555
Mn1 O4 1.958983 1_545
Mn1 O10 1.958983 1_555
Mn2 O11 1.934954 1_555
Mn2 O23 1.944799 1_555
Mn2 O14 1.959237 1_545
Mn2 O5 1.961214 1_545
Mn2 O26 1.965590 1_555
Mn2 O35 1.971258 1_545
Mn3 O20 1.952386 1_555
Mn3 O30 1.952386 1_454
Mn3 O27 1.953712 1_554
Mn3 O17 1.953712 1_455
Mn3 O0 1.958983 1_554
Mn3 O8 1.958983 1_455
Mn4 O6 1.934954 1_555
Mn4 O18 1.944799 1_655
Mn4 O15 1.959237 1_555
Mn4 O1 1.961214 1_655
Mn4 O28 1.965590 1_655
Mn4 O31 1.971258 1_555
Mn5 O2 1.934954 1_555
Mn5 O32 1.944799 1_455
Mn5 O29 1.959237 1_555
Mn5 O7 1.961214 1_455
Mn5 O16 1.965590 1_455
Mn5 O19 1.971258 1_555
Mn6 O3 1.934954 1_555
Mn6 O15 1.944799 1_555
Mn6 O18 1.959237 1_555
Mn6 O9 1.961214 1_555
Mn6 O30 1.965590 1_555
Mn6 O27 1.971258 1_555
Mn7 O16 1.952386 1_555
Mn7 O28 1.952386 1_555
Mn7 O31 1.953712 1_555
Mn7 O19 1.953712 1_555
Mn7 O4 1.958983 1_555
Mn7 O10 1.958983 1_555
Mn8 O11 1.934954 1_555
Mn8 O29 1.944799 1_555
Mn8 O32 1.959237 1_555
Mn8 O5 1.961214 1_555
Mn8 O20 1.965590 1_555
Mn8 O17 1.971258 1_555
Mn9 O26 1.952386 1_555
Mn9 O12 1.952386 1_444
Mn9 O21 1.953712 1_554
Mn9 O35 1.953712 1_445
Mn9 O0 1.958983 1_544
Mn9 O8 1.958983 1_455
Mn10 O6 1.934954 1_555
Mn10 O24 1.944799 1_655
Mn10 O33 1.959237 1_545
Mn10 O1 1.961214 1_645
Mn10 O22 1.965590 1_655
Mn10 O13 1.971258 1_545
Mn11 O2 1.934954 1_555
Mn11 O14 1.944799 1_455
Mn11 O23 1.959237 1_565
Mn11 O7 1.961214 1_465
Mn11 O34 1.965590 1_455
Mn11 O25 1.971258 1_565
O0 Sr0 2.626562 1_455
O1 Sr0 2.928459 1_455
O2 Sr1 2.493781 1_555
O2 Sr1 2.974716 1_455
O3 Sr0 2.493781 1_455
O3 Sr0 2.974716 1_555
O4 Sr1 2.626562 1_555
O5 Sr1 2.928459 1_555
O6 Sr3 2.493781 1_555
O6 Sr3 2.974716 1_655
O7 Sr2 2.928459 1_655
O8 Sr2 2.626562 1_655
O9 Sr3 2.928459 1_555
O10 Sr3 2.626562 1_555
O11 Sr2 2.493781 1_655
O11 Sr2 2.974716 1_555
O12 Sr0 2.717653 1_555
O13 Sr3 2.817710 1_565
O14 Sr1 2.535551 1_555
O14 Sr2 3.008028 1_665
O15 Sr0 2.535551 1_555
O15 Sr3 3.008028 1_555
O16 Sr1 2.717653 1_555
O17 Sr2 2.817710 1_655
O18 Sr3 2.535551 1_555
O18 Sr0 3.008028 1_455
O19 Sr1 2.817710 1_555
O20 Sr2 2.717653 1_555
O21 Sr0 2.817710 1_445
O22 Sr3 2.717653 1_555
O23 Sr2 2.535551 1_555
O23 Sr1 3.008028 1_545
O24 Sr3 2.535551 1_555
O24 Sr0 3.008028 1_445
O25 Sr1 2.817710 1_545
O26 Sr2 2.717653 1_555
O27 Sr0 2.817710 1_455
O28 Sr3 2.717653 1_555
O29 Sr2 2.535551 1_555
O29 Sr1 3.008028 1_555
O30 Sr0 2.717653 1_555
O31 Sr3 2.817710 1_555
O32 Sr1 2.535551 1_555
O32 Sr2 3.008028 1_655
O33 Sr0 2.535551 1_555
O33 Sr3 3.008028 1_565
O34 Sr1 2.717653 1_555
O35 Sr2 2.817710 1_665
