# generated using pymatgen
data_ZnSnO3
_symmetry_space_group_name_H-M   'P 1'
_cell_length_a   5.65912198
_cell_length_b   5.65912198
_cell_length_c   5.65912176
_cell_angle_alpha   56.42809504
_cell_angle_beta   56.42809504
_cell_angle_gamma   56.42809210
_symmetry_Int_Tables_number   1
_chemical_formula_structural   ZnSnO3
_chemical_formula_sum   'Zn2 Sn2 O6'
_cell_volume   117.57007878
_cell_formula_units_Z   2
loop_
 _symmetry_equiv_pos_site_id
 _symmetry_equiv_pos_as_xyz
  1  'x, y, z'
loop_
 _atom_site_type_symbol
 _atom_site_label
 _atom_site_symmetry_multiplicity
 _atom_site_fract_x
 _atom_site_fract_y
 _atom_site_fract_z
 _atom_site_occupancy
  Zn  Zn0  1  0.71592800  0.71592800  0.71592800  1
  Zn  Zn1  1  0.21592800  0.21592800  0.21592800  1
  Sn  Sn0  1  0.99815600  0.99815600  0.99815600  1
  Sn  Sn1  1  0.49815600  0.49815600  0.49815600  1
  O  O0  1  0.78719200  0.10723100  0.39289400  1
  O  O1  1  0.10723100  0.39289400  0.78719200  1
  O  O2  1  0.39289400  0.78719200  0.10723100  1
  O  O3  1  0.28719200  0.89289400  0.60723100  1
  O  O4  1  0.60723100  0.28719200  0.89289400  1
  O  O5  1  0.89289400  0.60723100  0.28719200  1
loop_
_geom_bond_atom_site_label_1
_geom_bond_atom_site_label_2
_geom_bond_distance
_geom_bond_site_symmetry_2
O0 Zn0 2.025693 1_545
O0 Sn1 2.074214 1_555
O0 Sn0 2.134702 1_544
O0 Zn1 2.355865 1_655
O1 Zn0 2.025693 1_455
O1 Sn1 2.074214 1_555
O1 Sn0 2.134702 1_445
O1 Zn1 2.355865 1_556
O2 Zn0 2.025693 1_554
O2 Sn1 2.074214 1_555
O2 Sn0 2.134702 1_454
O2 Zn1 2.355865 1_565
O3 Zn1 2.025693 1_565
O3 Sn0 2.074214 1_455
O3 Sn1 2.134702 1_555
O3 Zn0 2.355865 1_555
O4 Zn1 2.025693 1_556
O4 Sn0 2.074214 1_545
O4 Sn1 2.134702 1_555
O4 Zn0 2.355865 1_555
O5 Zn1 2.025693 1_655
O5 Sn0 2.074214 1_554
O5 Sn1 2.134702 1_555
O5 Zn0 2.355865 1_555
