# generated using pymatgen
data_Li2Fe(CoO3)2
_symmetry_space_group_name_H-M   'P 1'
_cell_length_a   5.08417220
_cell_length_b   5.23413630
_cell_length_c   10.22401438
_cell_angle_alpha   90.01306833
_cell_angle_beta   89.11563799
_cell_angle_gamma   59.03162132
_symmetry_Int_Tables_number   1
_chemical_formula_structural   Li2Fe(CoO3)2
_chemical_formula_sum   'Li4 Fe2 Co4 O12'
_cell_volume   233.25168922
_cell_formula_units_Z   2
loop_
 _symmetry_equiv_pos_site_id
 _symmetry_equiv_pos_as_xyz
  1  'x, y, z'
loop_
 _atom_site_type_symbol
 _atom_site_label
 _atom_site_symmetry_multiplicity
 _atom_site_fract_x
 _atom_site_fract_y
 _atom_site_fract_z
 _atom_site_occupancy
  Li  Li0  1  0.44831500  0.15346100  0.74427400  1
  Li  Li1  1  0.45826000  0.39156400  0.25509300  1
  Li  Li2  1  0.45926500  0.64981600  0.75496800  1
  Li  Li3  1  0.45172600  0.89691300  0.24422200  1
  Fe  Fe0  1  0.01406400  0.99015000  0.99945800  1
  Fe  Fe1  1  0.01120500  0.49716300  0.49917800  1
  Co  Co0  1  0.34003600  0.32598800  0.00145300  1
  Co  Co1  1  0.33707200  0.83514700  0.50107500  1
  Co  Co2  1  0.67474200  0.15943100  0.49924600  1
  Co  Co3  1  0.67760900  0.66433200  0.99907000  1
  O  O0  1  0.03687800  0.13765700  0.59722100  1
  O  O1  1  0.04067200  0.32355100  0.09746100  1
  O  O2  1  0.02212600  0.64317200  0.90454400  1
  O  O3  1  0.35207300  0.97288300  0.88809000  1
  O  O4  1  0.01879200  0.83617600  0.40440600  1
  O  O5  1  0.34949400  0.17640600  0.38789800  1
  O  O6  1  0.35820700  0.46583300  0.61039600  1
  O  O7  1  0.36163300  0.67429400  0.11036700  1
  O  O8  1  0.65252400  0.02229900  0.10516300  1
  O  O9  1  0.64469300  0.31932300  0.89573200  1
  O  O10  1  0.64167000  0.53773900  0.39572900  1
  O  O11  1  0.64894600  0.82670500  0.60495600  1
loop_
_geom_bond_atom_site_label_1
_geom_bond_atom_site_label_2
_geom_bond_distance
_geom_bond_site_symmetry_2
Li0 O3 1.936274 1_545
Li0 O6 2.001538 1_555
Li0 O11 2.037916 1_545
Li0 O9 2.255555 1_555
Li1 O7 1.973830 1_555
Li1 O5 2.008999 1_555
Li1 O10 2.073037 1_555
Li1 O8 2.246828 1_555
Li2 O6 1.976898 1_555
Li2 O3 2.009104 1_555
Li2 O9 2.077754 1_555
Li2 O11 2.239066 1_555
Li3 O5 1.939325 1_565
Li3 O7 2.002081 1_555
Li3 O8 2.034556 1_565
Li3 O10 2.246200 1_555
Fe0 O3 2.009374 1_555
Fe0 O2 2.040355 1_555
Fe0 O8 2.048243 1_466
Fe0 O7 2.048857 1_556
Fe0 O1 2.076984 1_566
Fe0 O9 2.086221 1_465
Fe1 O5 2.009544 1_555
Fe1 O4 2.039378 1_555
Fe1 O6 2.048565 1_555
Fe1 O11 2.050664 1_455
Fe1 O0 2.077202 1_555
Fe1 O10 2.084316 1_455
Co0 O1 1.803908 1_555
Co0 O9 1.860489 1_554
Co0 O8 1.904967 1_555
Co0 O2 1.907616 1_554
Co0 O3 2.154845 1_544
Co0 O7 2.187352 1_555
Co1 O0 1.807967 1_565
Co1 O10 1.856974 1_555
Co1 O11 1.903698 1_555
Co1 O4 1.906777 1_555
Co1 O5 2.155969 1_565
Co1 O6 2.188235 1_555
Co2 O6 1.933885 1_555
Co2 O4 1.940043 1_645
Co2 O5 1.986279 1_555
Co2 O0 2.060898 1_655
Co2 O11 2.109447 1_545
Co2 O10 2.175560 1_555
Co3 O7 1.932782 1_556
Co3 O2 1.939680 1_655
Co3 O3 1.985688 1_555
Co3 O1 2.066521 1_656
Co3 O8 2.110041 1_566
Co3 O9 2.172753 1_555
