# generated using pymatgen
data_SrEuMgWO6
_symmetry_space_group_name_H-M   'P 1'
_cell_length_a   5.66810549
_cell_length_b   5.66810549
_cell_length_c   5.66810549
_cell_angle_alpha   60.00000000
_cell_angle_beta   60.00000000
_cell_angle_gamma   60.00000000
_symmetry_Int_Tables_number   1
_chemical_formula_structural   SrEuMgWO6
_chemical_formula_sum   'Sr1 Eu1 Mg1 W1 O6'
_cell_volume   128.76527977
_cell_formula_units_Z   1
loop_
 _symmetry_equiv_pos_site_id
 _symmetry_equiv_pos_as_xyz
  1  'x, y, z'
loop_
 _atom_site_type_symbol
 _atom_site_label
 _atom_site_symmetry_multiplicity
 _atom_site_fract_x
 _atom_site_fract_y
 _atom_site_fract_z
 _atom_site_occupancy
  Sr  Sr0  1  0.75000000  0.75000000  0.75000000  1
  Eu  Eu0  1  0.25000000  0.25000000  0.25000000  1
  Mg  Mg0  1  -0.00000000  -0.00000000  -0.00000000  1
  W  W0  1  0.50000000  0.50000000  0.50000000  1
  O  O0  1  0.74357794  0.25642206  0.25642206  1
  O  O1  1  0.25642206  0.74357794  0.74357794  1
  O  O2  1  0.74357794  0.25642206  0.74357794  1
  O  O3  1  0.25642206  0.74357794  0.25642206  1
  O  O4  1  0.74357794  0.74357794  0.25642206  1
  O  O5  1  0.25642206  0.25642206  0.74357794  1
loop_
_geom_bond_atom_site_label_1
_geom_bond_atom_site_label_2
_geom_bond_distance
_geom_bond_site_symmetry_2
Eu0 O5 2.834520 1_555
Eu0 O5 2.834520 1_554
Eu0 O4 2.834520 1_545
Eu0 O4 2.834520 1_455
Eu0 O3 2.834520 1_555
Eu0 O1 2.834520 1_545
Eu0 O0 2.834520 1_555
Eu0 O1 2.834520 1_554
Eu0 O3 2.834520 1_545
Eu0 O2 2.834520 1_455
Eu0 O2 2.834520 1_554
Eu0 O0 2.834520 1_455
Mg0 O4 2.055457 1_445
Mg0 O3 2.055457 1_545
Mg0 O5 2.055457 1_554
Mg0 O2 2.055457 1_454
Mg0 O1 2.055457 1_544
Mg0 O0 2.055457 1_455
O0 W0 1.952499 1_555
O0 Sr0 2.834520 1_554
O0 Sr0 2.834520 1_545
O1 W0 1.952499 1_555
O1 Sr0 2.834520 1_455
O1 Sr0 2.834520 1_555
O2 W0 1.952499 1_555
O2 Sr0 2.834520 1_545
O2 Sr0 2.834520 1_555
O3 W0 1.952499 1_555
O3 Sr0 2.834520 1_455
O3 Sr0 2.834520 1_554
O4 W0 1.952499 1_555
O4 Sr0 2.834520 1_555
O4 Sr0 2.834520 1_554
O5 W0 1.952499 1_555
O5 Sr0 2.834520 1_545
O5 Sr0 2.834520 1_455
