# generated using pymatgen
data_NbSiRh
_symmetry_space_group_name_H-M   'P 1'
_cell_length_a   3.75346865
_cell_length_b   6.42988934
_cell_length_c   7.32052387
_cell_angle_alpha   90.00000000
_cell_angle_beta   90.00000000
_cell_angle_gamma   90.00000000
_symmetry_Int_Tables_number   1
_chemical_formula_structural   NbSiRh
_chemical_formula_sum   'Nb4 Si4 Rh4'
_cell_volume   176.67636389
_cell_formula_units_Z   4
loop_
 _symmetry_equiv_pos_site_id
 _symmetry_equiv_pos_as_xyz
  1  'x, y, z'
loop_
 _atom_site_type_symbol
 _atom_site_label
 _atom_site_symmetry_multiplicity
 _atom_site_fract_x
 _atom_site_fract_y
 _atom_site_fract_z
 _atom_site_occupancy
  Nb  Nb0  1  0.75000000  0.47498206  0.67330490  1
  Nb  Nb1  1  0.25000000  0.02501794  0.17330490  1
  Nb  Nb2  1  0.75000000  0.97498206  0.82669510  1
  Nb  Nb3  1  0.25000000  0.52501794  0.32669510  1
  Si  Si0  1  0.25000000  0.26957198  0.87580181  1
  Si  Si1  1  0.25000000  0.76957198  0.62419819  1
  Si  Si2  1  0.75000000  0.73042802  0.12419819  1
  Si  Si3  1  0.75000000  0.23042802  0.37580181  1
  Rh  Rh0  1  0.25000000  0.64415335  0.93710518  1
  Rh  Rh1  1  0.25000000  0.14415335  0.56289482  1
  Rh  Rh2  1  0.75000000  0.85584665  0.43710518  1
  Rh  Rh3  1  0.75000000  0.35584665  0.06289482  1
loop_
_geom_bond_atom_site_label_1
_geom_bond_atom_site_label_2
_geom_bond_distance
_geom_bond_site_symmetry_2
Nb0 Si3 2.686219 1_555
Nb0 Si1 2.690591 1_655
Nb0 Si1 2.690591 1_555
Nb0 Si0 2.732034 1_555
Nb0 Si0 2.732034 1_655
Nb0 Rh0 2.904256 1_555
Nb0 Rh0 2.904256 1_655
Nb0 Rh1 2.949637 1_555
Nb0 Rh1 2.949637 1_655
Nb0 Rh3 2.953086 1_556
Nb0 Rh2 2.997833 1_555
Nb1 Si0 2.686219 1_554
Nb1 Si2 2.690591 1_445
Nb1 Si2 2.690591 1_545
Nb1 Si3 2.732034 1_555
Nb1 Si3 2.732034 1_455
Nb1 Rh2 2.904256 1_545
Nb1 Rh2 2.904256 1_445
Nb1 Rh3 2.949637 1_555
Nb1 Rh3 2.949637 1_455
Nb1 Rh1 2.953086 1_555
Nb1 Rh0 2.997833 1_544
Nb2 Si2 2.686219 1_556
Nb2 Si0 2.690591 1_565
Nb2 Si0 2.690591 1_665
Nb2 Si1 2.732034 1_555
Nb2 Si1 2.732034 1_655
Nb2 Rh1 2.904256 1_665
Nb2 Rh1 2.904256 1_565
Nb2 Rh0 2.949637 1_555
Nb2 Rh0 2.949637 1_655
Nb2 Rh2 2.953086 1_555
Nb2 Rh3 2.997833 1_566
Nb3 Si1 2.686219 1_555
Nb3 Si3 2.690591 1_555
Nb3 Si3 2.690591 1_455
Nb3 Si2 2.732034 1_555
Nb3 Si2 2.732034 1_455
Nb3 Rh3 2.904256 1_455
Nb3 Rh3 2.904256 1_555
Nb3 Rh2 2.949637 1_555
Nb3 Rh2 2.949637 1_455
Nb3 Rh0 2.953086 1_554
Nb3 Rh1 2.997833 1_555
Rh0 Si2 2.388665 1_556
Rh0 Si2 2.388665 1_456
Rh0 Si1 2.428450 1_555
Rh0 Si0 2.449969 1_555
Rh1 Si3 2.388665 1_455
Rh1 Si3 2.388665 1_555
Rh1 Si0 2.428450 1_555
Rh1 Si1 2.449969 1_545
Rh2 Si1 2.388665 1_655
Rh2 Si1 2.388665 1_555
Rh2 Si2 2.428450 1_555
Rh2 Si3 2.449969 1_565
Rh3 Si0 2.388665 1_654
Rh3 Si0 2.388665 1_554
Rh3 Si3 2.428450 1_555
Rh3 Si2 2.449969 1_555
