# generated using pymatgen
data_Ba2V2FeHO9
_symmetry_space_group_name_H-M   'P 1'
_cell_length_a   6.26773500
_cell_length_b   8.02085651
_cell_length_c   9.32073648
_cell_angle_alpha   112.93526418
_cell_angle_beta   90.00000000
_cell_angle_gamma   90.00000000
_symmetry_Int_Tables_number   1
_chemical_formula_structural   Ba2V2FeHO9
_chemical_formula_sum   'Ba4 V4 Fe2 H2 O18'
_cell_volume   431.53462055
_cell_formula_units_Z   2
loop_
 _symmetry_equiv_pos_site_id
 _symmetry_equiv_pos_as_xyz
  1  'x, y, z'
loop_
 _atom_site_type_symbol
 _atom_site_label
 _atom_site_symmetry_multiplicity
 _atom_site_fract_x
 _atom_site_fract_y
 _atom_site_fract_z
 _atom_site_occupancy
  Ba  Ba0  1  0.75000000  0.32011500  0.41050400  1
  Ba  Ba1  1  0.25000000  0.67988500  0.58949600  1
  Ba  Ba2  1  0.75000000  0.73519000  0.24571400  1
  Ba  Ba3  1  0.25000000  0.26481000  0.75428600  1
  V  V0  1  0.25000000  0.04567600  0.33320900  1
  V  V1  1  0.75000000  0.95432400  0.66679100  1
  V  V2  1  0.75000000  0.56488700  0.82696600  1
  V  V3  1  0.25000000  0.43511300  0.17303400  1
  Fe  Fe0  1  0.50000000  0.00000000  0.00000000  1
  Fe  Fe1  1  0.00000000  0.00000000  0.00000000  1
  H  H0  1  0.75000000  0.26537400  0.01941700  1
  H  H1  1  0.25000000  0.73462600  0.98058300  1
  O  O0  1  0.48689600  0.00283700  0.21749300  1
  O  O1  1  0.98689600  0.99716300  0.78250700  1
  O  O2  1  0.51310400  0.99716300  0.78250700  1
  O  O3  1  0.01310400  0.00283700  0.21749300  1
  O  O4  1  0.53001400  0.50116400  0.70676100  1
  O  O5  1  0.03001300  0.49883600  0.29323900  1
  O  O6  1  0.46998600  0.49883600  0.29323900  1
  O  O7  1  0.96998600  0.50116400  0.70676100  1
  O  O8  1  0.75000000  0.80933000  0.95059400  1
  O  O9  1  0.25000000  0.19067000  0.04940600  1
  O  O10  1  0.25000000  0.26826300  0.45754300  1
  O  O11  1  0.75000000  0.73173700  0.54245700  1
  O  O12  1  0.75000000  0.17539500  0.06871000  1
  O  O13  1  0.25000000  0.82460500  0.93128900  1
  O  O14  1  0.25000000  0.92097400  0.44534200  1
  O  O15  1  0.75000000  0.07902600  0.55465800  1
  O  O16  1  0.75000000  0.45027300  0.94863700  1
  O  O17  1  0.25000000  0.54972700  0.05136300  1
loop_
_geom_bond_atom_site_label_1
_geom_bond_atom_site_label_2
_geom_bond_distance
_geom_bond_site_symmetry_2
Ba0 O5 2.747886 1_655
Ba0 O6 2.747890 1_555
Ba0 O15 2.751304 1_555
Ba0 O4 2.917126 1_555
Ba0 O7 2.917126 1_555
Ba0 O12 2.935032 1_555
Ba0 O0 2.977231 1_555
Ba0 O3 2.977231 1_655
Ba0 O11 3.041087 1_555
Ba0 O10 3.213789 1_555
Ba0 O10 3.213789 1_655
Ba1 O7 2.747890 1_455
Ba1 O4 2.747890 1_555
Ba1 O14 2.751304 1_555
Ba1 O6 2.917126 1_555
Ba1 O5 2.917129 1_555
Ba1 O13 2.935024 1_555
Ba1 O2 2.977231 1_555
Ba1 O1 2.977231 1_455
Ba1 O10 3.041087 1_555
Ba1 O11 3.213789 1_555
Ba1 O11 3.213789 1_455
Ba2 O5 2.743140 1_655
Ba2 O6 2.743144 1_555
Ba2 O11 2.776773 1_555
Ba2 O3 2.799515 1_665
Ba2 O0 2.799515 1_565
Ba2 O16 2.820974 1_554
Ba2 O8 3.032336 1_554
Ba2 O15 3.115822 1_565
Ba3 O7 2.743144 1_455
Ba3 O4 2.743144 1_555
Ba3 O10 2.776773 1_555
Ba3 O2 2.799515 1_545
Ba3 O1 2.799515 1_445
Ba3 O17 2.820974 1_556
Ba3 O9 3.032336 1_556
Ba3 O14 3.115822 1_545
Fe0 O0 2.020107 1_555
Fe0 O2 2.020107 1_544
Fe0 O12 2.035281 1_555
Fe0 O13 2.035282 1_544
Fe0 O8 2.111238 1_544
Fe0 O9 2.111238 1_555
Fe1 O3 2.020107 1_555
Fe1 O1 2.020107 1_444
Fe1 O12 2.035281 1_455
Fe1 O13 2.035282 1_544
Fe1 O8 2.111238 1_444
Fe1 O9 2.111238 1_555
H0 O12 0.995182 1_555
H1 O13 0.995189 1_555
O0 V0 1.788058 1_555
O1 V1 1.788058 1_555
O2 V1 1.788058 1_555
O3 V0 1.788058 1_555
O4 V2 1.723759 1_555
O5 V3 1.723764 1_555
O6 V3 1.723759 1_555
O7 V2 1.723759 1_555
O8 V2 1.846916 1_555
O9 V3 1.846916 1_555
O10 V0 1.708188 1_555
O11 V1 1.708188 1_555
O14 V0 1.705155 1_565
O15 V1 1.705155 1_545
O16 V2 1.715739 1_555
O17 V3 1.715739 1_555
