# generated using pymatgen
data_CsYb(WO4)2
_symmetry_space_group_name_H-M   'P 1'
_cell_length_a   5.34440900
_cell_length_b   7.44729500
_cell_length_c   9.44974777
_cell_angle_alpha   84.51387075
_cell_angle_beta   90.00000000
_cell_angle_gamma   90.00000000
_symmetry_Int_Tables_number   1
_chemical_formula_structural   CsYb(WO4)2
_chemical_formula_sum   'Cs2 Yb2 W4 O16'
_cell_volume   374.39026657
_cell_formula_units_Z   2
loop_
 _symmetry_equiv_pos_site_id
 _symmetry_equiv_pos_as_xyz
  1  'x, y, z'
loop_
 _atom_site_type_symbol
 _atom_site_label
 _atom_site_symmetry_multiplicity
 _atom_site_fract_x
 _atom_site_fract_y
 _atom_site_fract_z
 _atom_site_occupancy
  Cs  Cs0  1  0.40684000  0.75000000  0.50000000  1
  Cs  Cs1  1  0.59316000  0.25000000  0.50000000  1
  Yb  Yb0  1  0.47094500  0.75000000  0.00000000  1
  Yb  Yb1  1  0.52905500  0.25000000  0.00000000  1
  W  W0  1  0.97806400  0.51137900  0.18113400  1
  W  W1  1  0.02193600  0.48862100  0.81886600  1
  W  W2  1  0.97806400  0.98862100  0.81886600  1
  W  W3  1  0.02193600  0.01137900  0.18113400  1
  O  O0  1  0.86589200  0.25607100  0.16710700  1
  O  O1  1  0.13410800  0.74392900  0.83289300  1
  O  O2  1  0.86589200  0.24392900  0.83289300  1
  O  O3  1  0.13410800  0.75607100  0.16710700  1
  O  O4  1  0.89001500  0.94927600  0.35337700  1
  O  O5  1  0.10998500  0.05072400  0.64662300  1
  O  O6  1  0.89001500  0.55072400  0.64662300  1
  O  O7  1  0.10998500  0.44927600  0.35337700  1
  O  O8  1  0.77105200  0.97068300  0.03457300  1
  O  O9  1  0.22894800  0.02931700  0.96542700  1
  O  O10  1  0.77105200  0.52931700  0.96542700  1
  O  O11  1  0.22894800  0.47068300  0.03457300  1
  O  O12  1  0.66648600  0.60141900  0.21701500  1
  O  O13  1  0.33351400  0.39858100  0.78298500  1
  O  O14  1  0.66648600  0.89858100  0.78298500  1
  O  O15  1  0.33351400  0.10141900  0.21701500  1
loop_
_geom_bond_atom_site_label_1
_geom_bond_atom_site_label_2
_geom_bond_distance
_geom_bond_site_symmetry_2
Cs0 O5 3.169516 1_565
Cs0 O7 3.169516 1_555
Cs0 O6 3.224473 1_555
Cs0 O4 3.224473 1_555
Cs0 O12 3.296480 1_555
Cs0 O14 3.296480 1_555
Cs0 O6 3.370217 1_455
Cs0 O4 3.370217 1_455
Cs0 O3 3.463408 1_555
Cs0 O1 3.463408 1_555
Cs0 O15 3.579904 1_565
Cs0 O13 3.579904 1_555
Cs1 O6 3.169516 1_555
Cs1 O4 3.169516 1_545
Cs1 O5 3.224473 1_555
Cs1 O7 3.224473 1_555
Cs1 O15 3.296480 1_555
Cs1 O13 3.296480 1_555
Cs1 O5 3.370217 1_655
Cs1 O7 3.370217 1_655
Cs1 O2 3.463408 1_555
Cs1 O0 3.463408 1_555
Cs1 O12 3.579904 1_555
Cs1 O14 3.579904 1_545
O0 W3 1.996905 1_655
O0 W0 2.010049 1_555
O0 Yb1 2.397919 1_555
O1 W2 1.996905 1_455
O1 W1 2.010049 1_555
O1 Yb0 2.397919 1_556
O2 W1 1.996905 1_655
O2 W2 2.010049 1_545
O2 Yb1 2.397919 1_556
O3 W0 1.996905 1_455
O3 W3 2.010049 1_565
O3 Yb0 2.397919 1_555
O4 W3 1.793405 1_665
O5 W2 1.793405 1_445
O6 W1 1.793405 1_655
O7 W0 1.793405 1_455
O8 W3 1.971816 1_665
O8 W2 2.311879 1_554
O8 Yb0 2.341569 1_555
O8 Yb1 2.444697 1_565
O9 W2 1.971816 1_445
O9 W3 2.311879 1_556
O9 Yb1 2.341569 1_556
O9 Yb0 2.444697 1_546
O10 W1 1.971816 1_655
O10 W0 2.311879 1_556
O10 Yb0 2.341569 1_556
O10 Yb1 2.444697 1_556
O11 W0 1.971816 1_455
O11 W1 2.311879 1_554
O11 Yb1 2.341569 1_555
O11 Yb0 2.444697 1_555
O12 W0 1.838743 1_555
O12 Yb0 2.467420 1_555
O13 W1 1.838743 1_555
O13 Yb1 2.467420 1_556
O14 W2 1.838743 1_555
O14 Yb0 2.467420 1_556
O15 W3 1.838743 1_555
O15 Yb1 2.467420 1_555
