# generated using pymatgen
data_K2HgCl4O
_symmetry_space_group_name_H-M   'P 1'
_cell_length_a   8.01859500
_cell_length_b   8.43482100
_cell_length_c   12.45772700
_cell_angle_alpha   90.00000000
_cell_angle_beta   90.00000000
_cell_angle_gamma   90.00000000
_symmetry_Int_Tables_number   1
_chemical_formula_structural   K2HgCl4O
_chemical_formula_sum   'K8 Hg4 Cl16 O4'
_cell_volume   842.58351687
_cell_formula_units_Z   4
loop_
 _symmetry_equiv_pos_site_id
 _symmetry_equiv_pos_as_xyz
  1  'x, y, z'
loop_
 _atom_site_type_symbol
 _atom_site_label
 _atom_site_symmetry_multiplicity
 _atom_site_fract_x
 _atom_site_fract_y
 _atom_site_fract_z
 _atom_site_occupancy
  K  K0  1  0.59071600  0.00000000  0.16554800  1
  K  K1  1  0.40928400  0.00000000  0.83445200  1
  K  K2  1  0.09071600  0.00000000  0.33445200  1
  K  K3  1  0.90928400  0.00000000  0.66554800  1
  K  K4  1  0.59326100  0.50000000  0.17261800  1
  K  K5  1  0.40673900  0.50000000  0.82738200  1
  K  K6  1  0.09326100  0.50000000  0.32738200  1
  K  K7  1  0.90673900  0.50000000  0.67261800  1
  Hg  Hg0  1  0.50000000  0.24536700  0.50000000  1
  Hg  Hg1  1  0.00000000  0.75463300  0.00000000  1
  Hg  Hg2  1  0.50000000  0.75463300  0.50000000  1
  Hg  Hg3  1  0.00000000  0.24536700  0.00000000  1
  Cl  Cl0  1  0.73354400  0.00000000  0.44000900  1
  Cl  Cl1  1  0.26645600  0.00000000  0.55999100  1
  Cl  Cl2  1  0.23354400  0.00000000  0.05999100  1
  Cl  Cl3  1  0.76645600  0.00000000  0.94000900  1
  Cl  Cl4  1  0.74741300  0.50000000  0.44530300  1
  Cl  Cl5  1  0.25258700  0.50000000  0.55469700  1
  Cl  Cl6  1  0.24741300  0.50000000  0.05469700  1
  Cl  Cl7  1  0.75258700  0.50000000  0.94530300  1
  Cl  Cl8  1  0.39411600  0.25056400  0.31517700  1
  Cl  Cl9  1  0.60588400  0.25056400  0.68482300  1
  Cl  Cl10  1  0.89411600  0.74943600  0.18482300  1
  Cl  Cl11  1  0.10588400  0.74943600  0.81517700  1
  Cl  Cl12  1  0.60588400  0.74943600  0.68482300  1
  Cl  Cl13  1  0.39411600  0.74943600  0.31517700  1
  Cl  Cl14  1  0.10588400  0.25056400  0.81517700  1
  Cl  Cl15  1  0.89411600  0.25056400  0.18482300  1
  O  O0  1  0.50000000  0.26803500  0.00000000  1
  O  O1  1  0.00000000  0.73196500  0.50000000  1
  O  O2  1  0.50000000  0.73196500  0.00000000  1
  O  O3  1  0.00000000  0.26803500  0.50000000  1
loop_
_geom_bond_atom_site_label_1
_geom_bond_atom_site_label_2
_geom_bond_distance
_geom_bond_site_symmetry_2
K0 O0 3.145436 1_555
K0 O2 3.145436 1_545
K1 O0 3.145436 1_556
K1 O2 3.145436 1_546
K2 O3 3.145436 1_555
K2 O1 3.145436 1_545
K3 O3 3.145436 1_655
K3 O1 3.145436 1_645
K4 O2 3.001965 1_555
K4 O0 3.001965 1_555
K5 O2 3.001965 1_556
K5 O0 3.001965 1_556
K6 O1 3.001965 1_555
K6 O3 3.001965 1_555
K7 O1 3.001965 1_655
K7 O3 3.001965 1_655
Cl0 Hg0 2.889442 1_555
Cl0 Hg2 2.889442 1_545
Cl0 K3 3.143285 1_555
Cl0 K2 3.151479 1_655
Cl0 K0 3.605873 1_555
Cl1 Hg0 2.889442 1_555
Cl1 Hg2 2.889442 1_545
Cl1 K2 3.143285 1_555
Cl1 K3 3.151479 1_455
Cl1 K1 3.605873 1_555
Cl2 Hg1 2.889442 1_545
Cl2 Hg3 2.889442 1_555
Cl2 K1 3.143285 1_554
Cl2 K0 3.151479 1_555
Cl2 K2 3.605873 1_555
Cl3 Hg3 2.889442 1_656
Cl3 Hg1 2.889442 1_646
Cl3 K0 3.143285 1_556
Cl3 K1 3.151479 1_555
Cl3 K3 3.605873 1_555
Cl4 Hg2 3.002192 1_555
Cl4 Hg0 3.002192 1_555
Cl4 K7 3.106676 1_555
Cl4 K6 3.138274 1_655
Cl4 K4 3.614934 1_555
Cl5 Hg2 3.002192 1_555
Cl5 Hg0 3.002192 1_555
Cl5 K6 3.106676 1_555
Cl5 K7 3.138274 1_455
Cl5 K5 3.614934 1_555
Cl6 Hg3 3.002192 1_555
Cl6 Hg1 3.002192 1_555
Cl6 K5 3.106676 1_554
Cl6 K4 3.138274 1_555
Cl6 K6 3.614934 1_555
Cl7 Hg1 3.002192 1_656
Cl7 Hg3 3.002192 1_656
Cl7 K4 3.106676 1_556
Cl7 K5 3.138274 1_555
Cl7 K7 3.614934 1_555
Cl8 Hg0 2.454421 1_555
Cl8 K4 3.182861 1_555
Cl8 K6 3.204615 1_555
Cl8 K0 3.229020 1_555
Cl8 K2 3.231579 1_555
Cl9 Hg0 2.454421 1_555
Cl9 K5 3.182861 1_555
Cl9 K7 3.204615 1_555
Cl9 K1 3.229020 1_555
Cl9 K3 3.231579 1_555
Cl10 Hg1 2.454421 1_655
Cl10 K6 3.182861 1_655
Cl10 K4 3.204615 1_555
Cl10 K2 3.229020 1_665
Cl10 K0 3.231579 1_565
Cl11 Hg1 2.454421 1_556
Cl11 K7 3.182861 1_455
Cl11 K5 3.204615 1_555
Cl11 K3 3.229020 1_465
Cl11 K1 3.231579 1_565
Cl12 Hg2 2.454421 1_555
Cl12 K5 3.182861 1_555
Cl12 K7 3.204615 1_555
Cl12 K1 3.229020 1_565
Cl12 K3 3.231579 1_565
Cl13 Hg2 2.454421 1_555
Cl13 K4 3.182861 1_555
Cl13 K6 3.204615 1_555
Cl13 K0 3.229020 1_565
Cl13 K2 3.231579 1_565
Cl14 Hg3 2.454421 1_556
Cl14 K7 3.182861 1_455
Cl14 K5 3.204615 1_555
Cl14 K3 3.229020 1_455
Cl14 K1 3.231579 1_555
Cl15 Hg3 2.454421 1_655
Cl15 K6 3.182861 1_655
Cl15 K4 3.204615 1_555
Cl15 K2 3.229020 1_655
Cl15 K0 3.231579 1_555
