# generated using pymatgen
data_Mg14FeCu
_symmetry_space_group_name_H-M   'P 1'
_cell_length_a   6.26972321
_cell_length_b   6.30712758
_cell_length_c   9.79006094
_cell_angle_alpha   90.00000000
_cell_angle_beta   90.00000000
_cell_angle_gamma   120.19755175
_symmetry_Int_Tables_number   1
_chemical_formula_structural   Mg14FeCu
_chemical_formula_sum   'Mg14 Fe1 Cu1'
_cell_volume   334.60161363
_cell_formula_units_Z   1
loop_
 _symmetry_equiv_pos_site_id
 _symmetry_equiv_pos_as_xyz
  1  'x, y, z'
loop_
 _atom_site_type_symbol
 _atom_site_label
 _atom_site_symmetry_multiplicity
 _atom_site_fract_x
 _atom_site_fract_y
 _atom_site_fract_z
 _atom_site_occupancy
  Mg  Mg0  1  0.17217958  0.33608929  0.62500000  1
  Mg  Mg1  1  0.17154319  0.83577109  0.62500000  1
  Mg  Mg2  1  0.68836309  0.34195090  0.12500000  1
  Mg  Mg3  1  0.66409698  0.33218707  0.62500000  1
  Mg  Mg4  1  0.68836309  0.84641119  0.12500000  1
  Mg  Mg5  1  0.66409698  0.83190891  0.62500000  1
  Mg  Mg6  1  0.32018947  0.16212332  0.35160202  1
  Mg  Mg7  1  0.32018947  0.16212332  0.89839798  1
  Mg  Mg8  1  0.32018947  0.65806715  0.35160202  1
  Mg  Mg9  1  0.32018947  0.65806715  0.89839798  1
  Mg  Mg10  1  0.84163121  0.17081610  0.37023960  1
  Mg  Mg11  1  0.84163121  0.17081610  0.87976040  1
  Mg  Mg12  1  0.83831633  0.66915866  0.37027713  1
  Mg  Mg13  1  0.83831633  0.66915866  0.87972287  1
  Fe  Fe0  1  0.15281645  0.32640773  0.12500000  1
  Cu  Cu0  1  0.15788771  0.82894335  0.12500000  1
loop_
_geom_bond_atom_site_label_1
_geom_bond_atom_site_label_2
_geom_bond_distance
_geom_bond_site_symmetry_2
Mg0 Mg11 3.070677 1_455
Mg0 Mg10 3.070677 1_455
Mg0 Mg5 3.096638 1_555
Mg0 Mg3 3.096638 1_555
Mg0 Mg1 3.153566 1_555
Mg0 Mg1 3.153566 1_545
Mg0 Mg5 3.173229 1_445
Mg0 Mg3 3.173229 1_455
Mg0 Mg6 3.202097 1_555
Mg0 Mg7 3.202097 1_555
Mg0 Mg8 3.202104 1_555
Mg0 Mg9 3.202104 1_555
Mg1 Mg12 3.078869 1_455
Mg1 Mg13 3.078869 1_455
Mg1 Mg3 3.100499 1_565
Mg1 Mg5 3.100500 1_555
Mg1 Mg3 3.169365 1_455
Mg1 Mg5 3.169365 1_455
Mg1 Mg8 3.215532 1_555
Mg1 Mg9 3.215532 1_555
Mg1 Mg6 3.215539 1_565
Mg1 Mg7 3.215539 1_565
Mg2 Mg7 2.983729 1_554
Mg2 Mg6 2.983729 1_555
Mg2 Mg4 3.125432 1_545
Mg2 Mg4 3.181695 1_555
Mg3 Mg5 3.151809 1_555
Mg3 Mg5 3.155318 1_545
Mg3 Mg6 3.261479 1_555
Mg3 Mg7 3.261479 1_555
Mg4 Mg9 2.983729 1_554
Mg4 Mg8 2.983729 1_555
Mg5 Mg8 3.261479 1_555
Mg5 Mg9 3.261479 1_555
Mg10 Mg2 2.982656 1_555
Mg10 Mg4 2.982663 1_545
Mg10 Mg3 3.104053 1_555
Mg10 Mg5 3.104059 1_545
Mg11 Mg2 2.982656 1_556
Mg11 Mg4 2.982663 1_546
Mg11 Mg3 3.104053 1_555
Mg11 Mg5 3.104059 1_545
Mg12 Mg4 2.992858 1_555
Mg12 Mg2 2.992865 1_555
Mg12 Mg5 3.097344 1_555
Mg12 Mg3 3.097350 1_555
Mg13 Mg4 2.992858 1_556
Mg13 Mg2 2.992865 1_556
Mg13 Mg5 3.097344 1_555
Mg13 Mg3 3.097350 1_555
Fe0 Mg7 2.861846 1_554
Fe0 Mg6 2.861846 1_555
Fe0 Mg9 2.861853 1_554
Fe0 Mg8 2.861853 1_555
Fe0 Mg10 2.933925 1_455
Fe0 Mg11 2.933925 1_454
Fe0 Mg4 2.962515 1_445
Fe0 Mg2 2.962515 1_455
Fe0 Mg4 3.309505 1_555
Fe0 Mg2 3.309505 1_555
Cu0 Mg9 2.867359 1_554
Cu0 Mg8 2.867359 1_555
Cu0 Mg6 2.867366 1_565
Cu0 Mg7 2.867366 1_564
Cu0 Mg13 2.960576 1_454
Cu0 Mg12 2.960576 1_455
Cu0 Mg2 3.000715 1_455
Cu0 Mg4 3.000715 1_455
Cu0 Fe0 3.153683 1_555
Cu0 Fe0 3.153684 1_565
Cu0 Mg2 3.271905 1_565
Cu0 Mg4 3.271905 1_555
