# generated using pymatgen
data_Y5(SiB4)2
_symmetry_space_group_name_H-M   'P 1'
_cell_length_a   7.23681071
_cell_length_b   7.23681071
_cell_length_c   8.11971149
_cell_angle_alpha   90.00000000
_cell_angle_beta   90.00000000
_cell_angle_gamma   90.00000000
_symmetry_Int_Tables_number   1
_chemical_formula_structural   Y5(SiB4)2
_chemical_formula_sum   'Y10 Si4 B16'
_cell_volume   425.24089585
_cell_formula_units_Z   2
loop_
 _symmetry_equiv_pos_site_id
 _symmetry_equiv_pos_as_xyz
  1  'x, y, z'
loop_
 _atom_site_type_symbol
 _atom_site_label
 _atom_site_symmetry_multiplicity
 _atom_site_fract_x
 _atom_site_fract_y
 _atom_site_fract_z
 _atom_site_occupancy
  Y  Y0  1  0.68090652  0.18090652  0.22377655  1
  Y  Y1  1  0.31909348  0.81909348  0.77622345  1
  Y  Y2  1  0.31909348  0.81909348  0.22377655  1
  Y  Y3  1  0.81909348  0.68090652  0.22377655  1
  Y  Y4  1  0.81909348  0.68090652  0.77622345  1
  Y  Y5  1  0.68090652  0.18090652  0.77622345  1
  Y  Y6  1  0.18090652  0.31909348  0.77622345  1
  Y  Y7  1  0.18090652  0.31909348  0.22377655  1
  Y  Y8  1  -0.00000000  -0.00000000  0.50000000  1
  Y  Y9  1  0.50000000  0.50000000  0.50000000  1
  Si  Si0  1  0.11476157  0.61476157  0.50000000  1
  Si  Si1  1  0.88523843  0.38523843  0.50000000  1
  Si  Si2  1  0.38523843  0.11476157  0.50000000  1
  Si  Si3  1  0.61476157  0.88523843  0.50000000  1
  B  B0  1  0.17179937  0.03925265  0.00000000  1
  B  B1  1  0.82820063  0.96074735  0.00000000  1
  B  B2  1  0.96074735  0.17179937  0.00000000  1
  B  B3  1  0.32820063  0.53925265  0.00000000  1
  B  B4  1  0.03925265  0.82820063  0.00000000  1
  B  B5  1  0.67179937  0.46074735  0.00000000  1
  B  B6  1  0.53925265  0.67179937  0.00000000  1
  B  B7  1  0.46074735  0.32820063  0.00000000  1
  B  B8  1  0.09091687  0.59091687  0.00000000  1
  B  B9  1  0.90908313  0.40908313  0.00000000  1
  B  B10  1  0.40908313  0.09091687  0.00000000  1
  B  B11  1  0.59091687  0.90908313  0.00000000  1
  B  B12  1  -0.00000000  -0.00000000  0.16079730  1
  B  B13  1  -0.00000000  -0.00000000  0.83920270  1
  B  B14  1  0.50000000  0.50000000  0.83920270  1
  B  B15  1  0.50000000  0.50000000  0.16079730  1
loop_
_geom_bond_atom_site_label_1
_geom_bond_atom_site_label_2
_geom_bond_distance
_geom_bond_site_symmetry_2
Si0 Si1 2.349031 1_455
Si0 Y8 2.908972 1_565
Si0 Y9 2.908972 1_555
Si0 Y1 3.066524 1_555
Si0 Y2 3.066524 1_555
Si0 Y3 3.136530 1_455
Si0 Y4 3.136530 1_455
Si0 Y6 3.136530 1_555
Si0 Y7 3.136530 1_555
Si1 Y9 2.908972 1_555
Si1 Y8 2.908972 1_655
Si1 Y0 3.066524 1_555
Si1 Y5 3.066524 1_555
Si1 Y7 3.136530 1_655
Si1 Y3 3.136530 1_555
Si1 Y6 3.136530 1_655
Si1 Y4 3.136530 1_555
Si2 Si3 2.349031 1_545
Si2 Y8 2.908972 1_555
Si2 Y9 2.908972 1_555
Si2 Y6 3.066524 1_555
Si2 Y7 3.066524 1_555
Si2 Y1 3.136530 1_545
Si2 Y2 3.136530 1_545
Si2 Y0 3.136530 1_555
Si2 Y5 3.136530 1_555
Si3 Y8 2.908972 1_665
Si3 Y9 2.908972 1_555
Si3 Y4 3.066524 1_555
Si3 Y3 3.066524 1_555
Si3 Y5 3.136530 1_565
Si3 Y0 3.136530 1_565
Si3 Y2 3.136530 1_555
Si3 Y1 3.136530 1_555
B0 B10 1.757410 1_555
B0 B4 1.803572 1_545
B0 B2 1.803572 1_455
B0 B12 1.825130 1_555
B0 B13 1.825130 1_554
B0 Y1 2.641243 1_544
B0 Y2 2.641243 1_545
B0 Y6 2.721597 1_554
B0 Y7 2.721597 1_555
B1 B11 1.757410 1_555
B1 B4 1.803572 1_655
B1 B2 1.803572 1_565
B1 B12 1.825130 1_665
B1 B13 1.825130 1_664
B1 Y0 2.641243 1_565
B1 Y5 2.641243 1_564
B1 Y4 2.721597 1_554
B1 Y3 2.721597 1_555
B2 B9 1.757410 1_555
B2 Y6 2.641243 1_654
B2 Y7 2.641243 1_655
B2 Y5 2.721597 1_554
B2 Y0 2.721597 1_555
B3 B8 1.757410 1_555
B3 B6 1.803572 1_555
B3 B7 1.803572 1_555
B3 Y6 2.641243 1_554
B3 Y7 2.641243 1_555
B3 Y1 2.721597 1_554
B3 Y2 2.721597 1_555
B4 B8 1.757410 1_555
B4 Y4 2.641243 1_454
B4 Y3 2.641243 1_455
B4 Y1 2.721597 1_554
B4 Y2 2.721597 1_555
B5 B9 1.757410 1_555
B5 B6 1.803572 1_555
B5 B7 1.803572 1_555
B5 Y4 2.641243 1_554
B5 Y3 2.641243 1_555
B5 Y5 2.721597 1_554
B5 Y0 2.721597 1_555
B6 Y1 2.641243 1_554
B6 Y2 2.641243 1_555
B6 Y4 2.721597 1_554
B6 Y3 2.721597 1_555
B7 Y5 2.641243 1_554
B7 Y0 2.641243 1_555
B7 Y6 2.721597 1_554
B7 Y7 2.721597 1_555
B8 B9 1.860958 1_455
B8 Y4 2.755943 1_454
B8 Y3 2.755943 1_455
B8 Y6 2.755943 1_554
B8 Y7 2.755943 1_555
B8 Y1 2.958865 1_554
B8 Y2 2.958865 1_555
B9 Y3 2.755943 1_555
B9 Y4 2.755943 1_554
B9 Y6 2.755943 1_654
B9 Y7 2.755943 1_655
B9 Y0 2.958865 1_555
B9 Y5 2.958865 1_554
B10 B7 1.757410 1_555
B10 B11 1.860958 1_545
B10 Y0 2.755943 1_555
B10 Y5 2.755943 1_554
B10 Y1 2.755943 1_544
B10 Y2 2.755943 1_545
B10 Y7 2.958865 1_555
B10 Y6 2.958865 1_554
B11 B6 1.757410 1_555
B11 Y5 2.755943 1_564
B11 Y1 2.755943 1_554
B11 Y0 2.755943 1_565
B11 Y2 2.755943 1_555
B11 Y4 2.958865 1_554
B11 Y3 2.958865 1_555
B12 B4 1.825130 1_545
B12 B2 1.825130 1_455
B12 Y2 2.703325 1_545
B12 Y7 2.703325 1_555
B12 Y0 2.703325 1_455
B12 Y3 2.703325 1_445
B12 Y8 2.754228 1_555
B13 B4 1.825130 1_546
B13 B2 1.825130 1_456
B13 Y6 2.703325 1_555
B13 Y5 2.703325 1_455
B13 Y1 2.703325 1_545
B13 Y4 2.703325 1_445
B13 Y8 2.754228 1_555
B14 B3 1.825130 1_556
B14 B6 1.825130 1_556
B14 B7 1.825130 1_556
B14 B5 1.825130 1_556
B14 Y5 2.703325 1_555
B14 Y4 2.703325 1_555
B14 Y1 2.703325 1_555
B14 Y6 2.703325 1_555
B14 Y9 2.754228 1_555
B15 B3 1.825130 1_555
B15 B7 1.825130 1_555
B15 B6 1.825130 1_555
B15 B5 1.825130 1_555
B15 Y7 2.703325 1_555
B15 Y2 2.703325 1_555
B15 Y3 2.703325 1_555
B15 Y0 2.703325 1_555
B15 Y9 2.754228 1_555
