# generated using pymatgen
data_CeSiAs3
_symmetry_space_group_name_H-M   'P 1'
_cell_length_a   5.99083700
_cell_length_b   25.81413300
_cell_length_c   5.90847800
_cell_angle_alpha   90.00000000
_cell_angle_beta   90.00000000
_cell_angle_gamma   90.00000000
_symmetry_Int_Tables_number   1
_chemical_formula_structural   CeSiAs3
_chemical_formula_sum   'Ce8 Si8 As24'
_cell_volume   913.73586026
_cell_formula_units_Z   8
loop_
 _symmetry_equiv_pos_site_id
 _symmetry_equiv_pos_as_xyz
  1  'x, y, z'
loop_
 _atom_site_type_symbol
 _atom_site_label
 _atom_site_symmetry_multiplicity
 _atom_site_fract_x
 _atom_site_fract_y
 _atom_site_fract_z
 _atom_site_occupancy
  Ce  Ce0  1  0.51304400  0.41523600  0.75288500  1
  Ce  Ce1  1  0.48695600  0.58476400  0.25288500  1
  Ce  Ce2  1  0.98695600  0.91523600  0.25288500  1
  Ce  Ce3  1  0.01304400  0.08476400  0.75288500  1
  Ce  Ce4  1  0.01696000  0.41008600  0.25289900  1
  Ce  Ce5  1  0.98304000  0.58991400  0.75289900  1
  Ce  Ce6  1  0.48304000  0.91008600  0.75289900  1
  Ce  Ce7  1  0.51696000  0.08991400  0.25289900  1
  Si  Si0  1  0.44211900  0.29592700  0.33670000  1
  Si  Si1  1  0.55788100  0.70407300  0.83670000  1
  Si  Si2  1  0.05788100  0.79592700  0.83670000  1
  Si  Si3  1  0.94211900  0.20407300  0.33670000  1
  Si  Si4  1  0.11369000  0.29360800  0.83395600  1
  Si  Si5  1  0.88631000  0.70639200  0.33395600  1
  Si  Si6  1  0.38631000  0.79360800  0.33395600  1
  Si  Si7  1  0.61369000  0.20639200  0.83395600  1
  As  As0  1  0.01062400  0.37964600  0.74894700  1
  As  As1  1  0.98937600  0.62035400  0.24894700  1
  As  As2  1  0.48937600  0.87964600  0.24894700  1
  As  As3  1  0.51062400  0.12035400  0.74894700  1
  As  As4  1  0.52517700  0.38283800  0.24859800  1
  As  As5  1  0.47482300  0.61716200  0.74859800  1
  As  As6  1  0.97482300  0.88283800  0.74859800  1
  As  As7  1  0.02517700  0.11716200  0.24859800  1
  As  As8  1  0.77257500  0.49944900  0.49947700  1
  As  As9  1  0.22742500  0.50055100  0.99947700  1
  As  As10  1  0.72742500  0.99944900  0.99947700  1
  As  As11  1  0.27257500  0.00055100  0.49947700  1
  As  As12  1  0.22905400  0.50050200  0.51542400  1
  As  As13  1  0.77094600  0.49949800  0.01542400  1
  As  As14  1  0.27094600  0.00050200  0.01542400  1
  As  As15  1  0.72905400  0.99949800  0.51542400  1
  As  As16  1  0.06305700  0.28918600  0.23468900  1
  As  As17  1  0.93694300  0.71081400  0.73468900  1
  As  As18  1  0.43694300  0.78918600  0.73468900  1
  As  As19  1  0.56305700  0.21081400  0.23468900  1
  As  As20  1  0.49551700  0.29254000  0.73642400  1
  As  As21  1  0.50448300  0.70746000  0.23642400  1
  As  As22  1  0.00448300  0.79254000  0.23642400  1
  As  As23  1  0.99551700  0.20746000  0.73642400  1
loop_
_geom_bond_atom_site_label_1
_geom_bond_atom_site_label_2
_geom_bond_distance
_geom_bond_site_symmetry_2
As0 Si4 2.359311 1_555
As0 Ce4 3.034634 1_555
As0 Ce4 3.079762 1_556
As0 Ce0 3.119373 1_455
As0 Ce0 3.147093 1_555
As1 Si5 2.359311 1_555
As1 Ce5 3.034634 1_554
As1 Ce5 3.079762 1_555
As1 Ce1 3.119373 1_655
As1 Ce1 3.147093 1_555
As2 Si6 2.359311 1_555
As2 Ce6 3.034634 1_554
As2 Ce6 3.079762 1_555
As2 Ce2 3.119373 1_555
As2 Ce2 3.147093 1_455
As3 Si7 2.359311 1_555
As3 Ce7 3.034634 1_555
As3 Ce7 3.079762 1_556
As3 Ce3 3.119373 1_555
As3 Ce3 3.147093 1_655
As4 Si0 2.356268 1_555
As4 Ce4 3.029099 1_655
As4 Ce0 3.046840 1_554
As4 Ce0 3.095570 1_555
As4 Ce4 3.124941 1_555
As5 Si1 2.356268 1_555
As5 Ce5 3.029099 1_455
As5 Ce1 3.046840 1_555
As5 Ce1 3.095570 1_556
As5 Ce5 3.124941 1_555
As6 Si2 2.356268 1_655
As6 Ce6 3.029099 1_555
As6 Ce2 3.046840 1_555
As6 Ce2 3.095570 1_556
As6 Ce6 3.124941 1_655
As7 Si3 2.356268 1_455
As7 Ce7 3.029099 1_555
As7 Ce3 3.046840 1_554
As7 Ce3 3.095570 1_555
As7 Ce7 3.124941 1_455
As8 Ce5 3.047180 1_555
As8 Ce0 3.063492 1_555
As8 Ce4 3.096372 1_655
As8 Ce1 3.146573 1_555
As9 Ce4 3.047180 1_556
As9 Ce1 3.063492 1_556
As9 Ce5 3.096372 1_455
As9 Ce0 3.146573 1_555
As10 As14 2.736449 1_566
As10 As15 2.860033 1_555
As10 Ce7 3.047180 1_566
As10 As15 3.048477 1_556
As10 Ce2 3.063492 1_556
As10 Ce6 3.096372 1_555
As10 Ce3 3.146573 1_665
As11 As15 2.736449 1_545
As11 As14 2.860033 1_555
As11 Ce6 3.047180 1_545
As11 As14 3.048477 1_556
As11 Ce3 3.063492 1_555
As11 Ce7 3.096372 1_555
As11 Ce2 3.146573 1_445
As12 As8 2.736449 1_455
As12 As9 2.860033 1_555
As12 As9 3.048477 1_554
As12 Ce4 3.077022 1_555
As12 Ce5 3.077044 1_455
As12 Ce1 3.086211 1_555
As12 Ce0 3.115727 1_555
As13 As9 2.736449 1_654
As13 As8 2.860033 1_555
As13 As8 3.048477 1_554
As13 Ce5 3.077022 1_554
As13 Ce4 3.077044 1_655
As13 Ce0 3.086211 1_554
As13 Ce1 3.115727 1_555
As14 Ce6 3.077022 1_544
As14 Ce7 3.077044 1_555
As14 Ce3 3.086211 1_554
As14 Ce2 3.115727 1_445
As15 Ce7 3.077022 1_565
As15 Ce6 3.077044 1_555
As15 Ce2 3.086211 1_555
As15 Ce3 3.115727 1_665
As16 Si0 2.355959 1_555
As16 Si4 2.389801 1_554
As16 Si3 2.390720 1_455
As16 Ce4 3.134970 1_555
As17 Si1 2.355959 1_555
As17 Si5 2.389801 1_555
As17 Si2 2.390720 1_655
As17 Ce5 3.134970 1_555
As18 Si2 2.355959 1_555
As18 Si6 2.389801 1_555
As18 Si1 2.390720 1_555
As18 Ce6 3.134970 1_555
As19 Si3 2.355959 1_555
As19 Si7 2.389801 1_554
As19 Si0 2.390720 1_555
As19 Ce7 3.134970 1_555
As20 Si4 2.359095 1_555
As20 Si0 2.384930 1_555
As20 Si7 2.403899 1_555
As20 Ce0 3.170523 1_555
As21 Si5 2.359095 1_555
As21 Si1 2.384930 1_554
As21 Si6 2.403899 1_555
As21 Ce1 3.170523 1_555
As22 Si6 2.359095 1_555
As22 Si2 2.384930 1_554
As22 Si5 2.403899 1_455
As22 Ce2 3.170523 1_455
As23 Si7 2.359095 1_555
As23 Si3 2.384930 1_555
As23 Si4 2.403899 1_655
As23 Ce3 3.170523 1_655
