# generated using pymatgen
data_Li2VFeS4
_symmetry_space_group_name_H-M   'P 1'
_cell_length_a   3.38549913
_cell_length_b   3.38549913
_cell_length_c   11.98465700
_cell_angle_alpha   90.00000000
_cell_angle_beta   90.00000000
_cell_angle_gamma   119.99998300
_symmetry_Int_Tables_number   1
_chemical_formula_structural   Li2VFeS4
_chemical_formula_sum   'Li2 V1 Fe1 S4'
_cell_volume   118.96021166
_cell_formula_units_Z   1
loop_
 _symmetry_equiv_pos_site_id
 _symmetry_equiv_pos_as_xyz
  1  'x, y, z'
loop_
 _atom_site_type_symbol
 _atom_site_label
 _atom_site_symmetry_multiplicity
 _atom_site_fract_x
 _atom_site_fract_y
 _atom_site_fract_z
 _atom_site_occupancy
  Li  Li0  1  0.00000000  0.00000000  0.75832600  1
  Li  Li1  1  0.00000000  0.00000000  0.24167400  1
  V  V0  1  0.00000000  0.00000000  0.50000000  1
  Fe  Fe0  1  0.00000000  0.00000000  0.00000000  1
  S  S0  1  0.66666700  0.33333300  0.90053100  1
  S  S1  1  0.66666700  0.33333300  0.38309900  1
  S  S2  1  0.33333300  0.66666700  0.61690100  1
  S  S3  1  0.33333300  0.66666700  0.09946900  1
loop_
_geom_bond_atom_site_label_1
_geom_bond_atom_site_label_2
_geom_bond_distance
_geom_bond_site_symmetry_2
Li0 S2 2.587144 1_545
Li0 S2 2.587147 1_555
Li0 S2 2.587147 1_445
Li0 S0 2.593278 1_455
Li0 S0 2.593281 1_445
Li0 S0 2.593281 1_555
Li1 S1 2.587144 1_455
Li1 S1 2.587147 1_555
Li1 S1 2.587147 1_445
Li1 S3 2.593278 1_545
Li1 S3 2.593281 1_445
Li1 S3 2.593281 1_555
Fe0 S3 2.289461 1_545
Fe0 S0 2.289461 1_454
Fe0 S0 2.289464 1_554
Fe0 S3 2.289464 1_445
Fe0 S0 2.289464 1_444
Fe0 S3 2.289464 1_555
S1 V0 2.404866 1_655
S1 V0 2.404868 1_665
S1 V0 2.404868 1_555
S2 V0 2.404866 1_565
S2 V0 2.404868 1_555
S2 V0 2.404868 1_665
