# generated using pymatgen
data_MgTa4Mn4Nb4O24
_symmetry_space_group_name_H-M   'P 1'
_cell_length_a   5.18117298
_cell_length_b   5.95955324
_cell_length_c   14.75260233
_cell_angle_alpha   90.00000000
_cell_angle_beta   90.20440858
_cell_angle_gamma   90.00000000
_symmetry_Int_Tables_number   1
_chemical_formula_structural   MgTa4Mn4Nb4O24
_chemical_formula_sum   'Mg1 Ta4 Mn4 Nb4 O24'
_cell_volume   455.52022871
_cell_formula_units_Z   1
loop_
 _symmetry_equiv_pos_site_id
 _symmetry_equiv_pos_as_xyz
  1  'x, y, z'
loop_
 _atom_site_type_symbol
 _atom_site_label
 _atom_site_symmetry_multiplicity
 _atom_site_fract_x
 _atom_site_fract_y
 _atom_site_fract_z
 _atom_site_occupancy
  Mg  Mg0  1  0.25000000  0.58111021  0.00000000  1
  Ta  Ta0  1  0.26052090  0.66849457  0.18396917  1
  Ta  Ta1  1  0.76052926  0.84772749  0.34386725  1
  Ta  Ta2  1  0.73947074  0.84772749  0.65613275  1
  Ta  Ta3  1  0.23947910  0.66849457  0.81603083  1
  Mn  Mn0  1  0.25000000  0.11315547  0.00000000  1
  Mn  Mn1  1  0.75000000  0.34200619  0.50000000  1
  Mn  Mn2  1  0.75000000  0.82506961  0.00000000  1
  Mn  Mn3  1  0.25000000  0.67682435  0.50000000  1
  Nb  Nb0  1  0.73279668  0.31804236  0.84120956  1
  Nb  Nb1  1  0.22400632  0.18524458  0.66011465  1
  Nb  Nb2  1  0.27599368  0.18524458  0.33988535  1
  Nb  Nb3  1  0.76720332  0.31804236  0.15879044  1
  O  O0  1  0.91179824  0.13805307  0.74871110  1
  O  O1  1  0.40192623  0.38900496  0.76002156  1
  O  O2  1  0.09807377  0.38900496  0.23997844  1
  O  O3  1  0.58820176  0.13805307  0.25128890  1
  O  O4  1  0.08372733  0.88182425  0.25644331  1
  O  O5  1  0.59072051  0.64046004  0.24615677  1
  O  O6  1  0.90927949  0.64046004  0.75384323  1
  O  O7  1  0.41627267  0.88182425  0.74355669  1
  O  O8  1  0.59412841  0.11069825  0.92024989  1
  O  O9  1  0.09656317  0.38913740  0.57919747  1
  O  O10  1  0.40343683  0.38913740  0.42080253  1
  O  O11  1  0.90587159  0.11069825  0.07975011  1
  O  O12  1  0.39444012  0.83551756  0.08131170  1
  O  O13  1  0.90069205  0.63117705  0.41778839  1
  O  O14  1  0.59930795  0.63117705  0.58221161  1
  O  O15  1  0.10555988  0.83551756  0.91868830  1
  O  O16  1  0.05848574  0.38998470  0.90647443  1
  O  O17  1  0.57544268  0.10898221  0.60017724  1
  O  O18  1  0.92455732  0.10898221  0.39982276  1
  O  O19  1  0.44151426  0.38998470  0.09352557  1
  O  O20  1  0.95776876  0.59549894  0.09564159  1
  O  O21  1  0.43428740  0.89794465  0.40248315  1
  O  O22  1  0.06571260  0.89794465  0.59751685  1
  O  O23  1  0.54223124  0.59549894  0.90435841  1
loop_
_geom_bond_atom_site_label_1
_geom_bond_atom_site_label_2
_geom_bond_distance
_geom_bond_site_symmetry_2
Mg0 O16 2.043502 1_554
Mg0 O19 2.043502 1_555
Mg0 O15 2.071549 1_554
Mg0 O12 2.071549 1_555
Mg0 O23 2.075069 1_554
Mg0 O20 2.075069 1_455
Mn0 O11 2.139728 1_455
Mn0 O8 2.139728 1_554
Mn0 O15 2.174922 1_544
Mn0 O12 2.174922 1_545
Mn0 O16 2.366494 1_554
Mn0 O19 2.366494 1_555
Mn1 O9 2.157129 1_655
Mn1 O10 2.157129 1_555
Mn1 O18 2.222645 1_555
Mn1 O17 2.222645 1_555
Mn1 O13 2.248817 1_555
Mn1 O14 2.248817 1_555
Mn2 O15 2.202805 1_654
Mn2 O12 2.202805 1_555
Mn2 O8 2.219727 1_564
Mn2 O11 2.219727 1_565
Mn2 O23 2.238437 1_554
Mn2 O20 2.238437 1_555
Mn3 O21 2.174323 1_555
Mn3 O22 2.174323 1_555
Mn3 O14 2.191980 1_555
Mn3 O13 2.191980 1_455
Mn3 O9 2.223324 1_555
Mn3 O10 2.223324 1_555
Nb0 O8 1.846278 1_555
Nb0 O0 1.970248 1_555
Nb0 O16 1.986644 1_655
Nb0 O1 2.130160 1_555
Nb0 O23 2.140898 1_555
Nb0 O6 2.489529 1_555
Nb1 O9 1.825345 1_555
Nb1 O17 2.077359 1_555
Nb1 O0 2.102177 1_455
Nb1 O22 2.109884 1_545
Nb1 O1 2.118254 1_555
Nb1 O7 2.401810 1_545
Nb2 O10 1.825345 1_555
Nb2 O18 2.077359 1_455
Nb2 O3 2.102177 1_555
Nb2 O21 2.109884 1_545
Nb2 O2 2.118254 1_555
Nb2 O4 2.401810 1_545
Nb3 O11 1.846278 1_555
Nb3 O3 1.970248 1_555
Nb3 O19 1.986644 1_555
Nb3 O2 2.130160 1_655
Nb3 O20 2.140898 1_555
Nb3 O5 2.489529 1_555
O0 Ta2 2.376438 1_545
O1 Ta3 2.042166 1_555
O2 Ta0 2.042166 1_555
O3 Ta1 2.376438 1_545
O4 Ta0 1.898821 1_555
O4 Ta1 2.127018 1_455
O5 Ta0 1.945585 1_555
O5 Ta1 2.090134 1_555
O6 Ta3 1.945585 1_655
O6 Ta2 2.090134 1_555
O7 Ta3 1.898821 1_555
O7 Ta2 2.127018 1_555
O12 Ta0 1.942505 1_555
O13 Ta1 1.837521 1_555
O14 Ta2 1.837521 1_555
O15 Ta3 1.942505 1_555
O16 Ta3 2.328848 1_555
O17 Ta2 1.955202 1_545
O18 Ta1 1.955202 1_545
O19 Ta0 2.328848 1_555
O20 Ta0 2.081627 1_655
O21 Ta1 1.924819 1_555
O22 Ta2 1.924819 1_455
O23 Ta3 2.081627 1_555
