# generated using pymatgen
data_Sr6Y2Al4O15
_symmetry_space_group_name_H-M   'P 1'
_cell_length_a   9.34672441
_cell_length_b   9.34672441
_cell_length_c   7.77352640
_cell_angle_alpha   89.38691660
_cell_angle_beta   89.38691660
_cell_angle_gamma   36.14414214
_symmetry_Int_Tables_number   1
_chemical_formula_structural   Sr6Y2Al4O15
_chemical_formula_sum   'Sr6 Y2 Al4 O15'
_cell_volume   400.52346468
_cell_formula_units_Z   1
loop_
 _symmetry_equiv_pos_site_id
 _symmetry_equiv_pos_as_xyz
  1  'x, y, z'
loop_
 _atom_site_type_symbol
 _atom_site_label
 _atom_site_symmetry_multiplicity
 _atom_site_fract_x
 _atom_site_fract_y
 _atom_site_fract_z
 _atom_site_occupancy
  Sr  Sr0  1  0.68735100  0.65722300  0.49565400  1
  Sr  Sr1  1  0.34277700  0.31264900  0.50434600  1
  Sr  Sr2  1  0.69109200  0.62711800  0.03449200  1
  Sr  Sr3  1  0.37288200  0.30890800  0.96550800  1
  Sr  Sr4  1  0.97393500  0.02606500  0.00000000  1
  Sr  Sr5  1  0.90481100  0.09518900  0.50000000  1
  Y  Y0  1  0.84988900  0.83537800  0.24678400  1
  Y  Y1  1  0.16462200  0.15011100  0.75321600  1
  Al  Al0  1  0.82778400  0.79101100  0.75538100  1
  Al  Al1  1  0.20898900  0.17221600  0.24461900  1
  Al  Al2  1  0.48182900  0.54517500  0.77360800  1
  Al  Al3  1  0.45482500  0.51817100  0.22639200  1
  O  O0  1  0.86231500  0.86305700  0.94831900  1
  O  O1  1  0.13694300  0.13768500  0.05168100  1
  O  O2  1  0.04658400  0.47416100  0.76434500  1
  O  O3  1  0.52583900  0.95341600  0.23565600  1
  O  O4  1  0.53424600  0.94574500  0.77222100  1
  O  O5  1  0.05425500  0.46575400  0.22777900  1
  O  O6  1  0.75941700  0.41870800  0.74320300  1
  O  O7  1  0.58129200  0.24058300  0.25679700  1
  O  O8  1  0.22709300  0.85990200  0.72721500  1
  O  O9  1  0.14009800  0.77290700  0.27278500  1
  O  O10  1  0.51226900  0.34814800  0.69129600  1
  O  O11  1  0.65185200  0.48773100  0.30870400  1
  O  O12  1  0.84691800  0.83682000  0.53740800  1
  O  O13  1  0.16318000  0.15308200  0.46259200  1
  O  O14  1  0.46771100  0.53228900  0.00000000  1
loop_
_geom_bond_atom_site_label_1
_geom_bond_atom_site_label_2
_geom_bond_distance
_geom_bond_site_symmetry_2
Al0 O2 1.781761 1_655
Al0 O12 1.785504 1_555
Al0 O0 1.786070 1_555
Al0 O4 1.795561 1_555
Al1 O3 1.781761 1_545
Al1 O13 1.785504 1_555
Al1 O1 1.786070 1_555
Al1 O5 1.795561 1_555
Al2 O10 1.748371 1_555
Al2 O8 1.770921 1_555
Al2 O14 1.773472 1_556
Al2 O6 1.795652 1_555
Al3 O11 1.748371 1_555
Al3 O9 1.770921 1_555
Al3 O14 1.773472 1_555
Al3 O7 1.795652 1_555
O0 Y0 2.343783 1_556
O0 Sr4 2.482024 1_566
O0 Sr3 2.742389 1_565
O0 Sr3 3.113993 1_655
O1 Y1 2.343783 1_554
O1 Sr4 2.482024 1_455
O1 Sr2 2.742389 1_455
O1 Sr2 3.113993 1_545
O2 Y1 2.237189 1_555
O2 Sr3 2.564118 1_555
O2 Sr1 2.687711 1_555
O2 Sr0 3.059243 1_455
O2 Sr2 3.120419 1_456
O3 Y0 2.237189 1_555
O3 Sr2 2.564123 1_555
O3 Sr0 2.687705 1_555
O3 Sr1 3.059237 1_565
O3 Sr3 3.120424 1_564
O4 Y1 2.225480 1_565
O4 Sr0 2.787077 1_555
O4 Sr3 2.801153 1_565
O4 Sr2 2.838607 1_556
O4 Sr1 3.051914 1_565
O5 Y0 2.225480 1_455
O5 Sr1 2.787077 1_555
O5 Sr2 2.801153 1_455
O5 Sr3 2.838607 1_554
O5 Sr0 3.051914 1_455
O6 Y1 2.301836 1_655
O6 Sr0 2.576308 1_555
O6 Sr2 2.717334 1_556
O6 Sr5 2.827568 1_555
O6 Sr4 3.085133 1_556
O7 Y0 2.301836 1_545
O7 Sr1 2.576308 1_555
O7 Sr3 2.717334 1_554
O7 Sr5 2.827568 1_555
O7 Sr4 3.085133 1_555
O8 Y1 2.278306 1_565
O8 Sr5 2.522208 1_465
O8 Sr4 2.556435 1_466
O9 Y0 2.278306 1_455
O9 Sr5 2.522208 1_465
O9 Sr4 2.556435 1_465
O10 Sr1 2.374923 1_555
O10 Sr3 2.659153 1_555
O10 Sr5 2.685335 1_555
O11 Sr0 2.374923 1_555
O11 Sr2 2.659153 1_555
O11 Sr5 2.685335 1_555
O12 Y0 2.259098 1_555
O12 Sr1 2.864323 1_565
O12 Sr5 2.881178 1_565
O12 Sr1 2.979583 1_655
O12 Sr0 3.035297 1_555
O13 Y1 2.259098 1_555
O13 Sr0 2.864323 1_455
O13 Sr5 2.881178 1_455
O13 Sr0 2.979583 1_545
O13 Sr1 3.035297 1_555
O14 Sr4 2.863383 1_465
O14 Sr3 2.867509 1_554
O14 Sr2 2.867509 1_555
O14 Sr4 2.935569 1_555
