# generated using pymatgen
data_PH10C2NO4
_symmetry_space_group_name_H-M   'P 1'
_cell_length_a   7.01467931
_cell_length_b   9.66658498
_cell_length_c   9.69380000
_cell_angle_alpha   90.00000000
_cell_angle_beta   90.00000000
_cell_angle_gamma   89.72903150
_symmetry_Int_Tables_number   1
_chemical_formula_structural   PH10C2NO4
_chemical_formula_sum   'P4 H40 C8 N4 O16'
_cell_volume   657.30977774
_cell_formula_units_Z   4
loop_
 _symmetry_equiv_pos_site_id
 _symmetry_equiv_pos_as_xyz
  1  'x, y, z'
loop_
 _atom_site_type_symbol
 _atom_site_label
 _atom_site_symmetry_multiplicity
 _atom_site_fract_x
 _atom_site_fract_y
 _atom_site_fract_z
 _atom_site_occupancy
  P  P0  1  0.73786600  0.83028800  0.03062300  1
  P  P1  1  0.25611600  0.33273800  0.47260400  1
  P  P2  1  0.24388400  0.16726200  0.97260400  1
  P  P3  1  0.76213400  0.66971200  0.53062300  1
  H  H0  1  0.73205200  0.49814200  0.18960400  1
  H  H1  1  0.23231900  0.99938600  0.30973500  1
  H  H2  1  0.26768100  0.50061400  0.80973500  1
  H  H3  1  0.76794800  0.00185800  0.68960400  1
  H  H4  1  0.91646700  0.14062100  0.22541400  1
  H  H5  1  0.41620500  0.64225400  0.27229800  1
  H  H6  1  0.08379500  0.85774600  0.77229800  1
  H  H7  1  0.58353300  0.35937900  0.72541400  1
  H  H8  1  0.64572000  0.35964300  0.08273000  1
  H  H9  1  0.14673200  0.85914600  0.41528700  1
  H  H10  1  0.35326800  0.64085400  0.91528700  1
  H  H11  1  0.85428000  0.14035700  0.58273000  1
  H  H12  1  0.89672200  0.37362600  0.11972300  1
  H  H13  1  0.39729600  0.87442300  0.37888800  1
  H  H14  1  0.10270400  0.62557700  0.87888800  1
  H  H15  1  0.60327800  0.12637400  0.61972300  1
  H  H16  1  0.74005400  0.09426000  0.35202000  1
  H  H17  1  0.23810300  0.59540600  0.14749000  1
  H  H18  1  0.26189700  0.90459400  0.64749000  1
  H  H19  1  0.75994600  0.40574000  0.85202000  1
  H  H20  1  0.81554600  0.33786600  0.36001400  1
  H  H21  1  0.32147400  0.83913500  0.13824900  1
  H  H22  1  0.17852600  0.66086500  0.63824900  1
  H  H23  1  0.68445400  0.16213400  0.86001400  1
  H  H24  1  0.58172900  0.30937600  0.31566300  1
  H  H25  1  0.08552100  0.81312500  0.18044300  1
  H  H26  1  0.41447900  0.68687500  0.68044300  1
  H  H27  1  0.91827100  0.19062400  0.81566300  1
  H  H28  1  0.67397300  0.11568200  0.17542600  1
  H  H29  1  0.17431500  0.61951500  0.32474800  1
  H  H30  1  0.32568500  0.88048500  0.82474800  1
  H  H31  1  0.82602700  0.38431800  0.67542600  1
  H  H32  1  0.72313300  0.70686800  0.83545000  1
  H  H33  1  0.22533200  0.20992700  0.66654500  1
  H  H34  1  0.27466800  0.29007300  0.16654500  1
  H  H35  1  0.77686700  0.79313200  0.33545000  1
  H  H36  1  0.52806500  0.51084100  0.49397000  1
  H  H37  1  0.97193500  0.98915900  0.99397000  1
  H  H38  1  0.01193200  0.48154000  0.49159600  1
  H  H39  1  0.48806800  0.01846000  0.99159600  1
  C  C0  1  0.76763500  0.15279300  0.25756500  1
  C  C1  1  0.26703300  0.65482000  0.24120400  1
  C  C2  1  0.23296700  0.84518000  0.74120400  1
  C  C3  1  0.73236500  0.34720700  0.75756500  1
  C  C4  1  0.75206600  0.38990800  0.15952300  1
  C  C5  1  0.25276700  0.89091300  0.33884200  1
  C  C6  1  0.24723300  0.60908700  0.83884200  1
  C  C7  1  0.74793400  0.11009200  0.65952300  1
  N  N0  1  0.72528800  0.30135300  0.28327100  1
  N  N1  1  0.22760400  0.80346500  0.21425200  1
  N  N2  1  0.27239600  0.69653500  0.71425200  1
  N  N3  1  0.77471200  0.19864700  0.78327100  1
  O  O0  1  0.84631100  0.94814900  0.94930500  1
  O  O1  1  0.36110500  0.44791400  0.54744600  1
  O  O2  1  0.13889500  0.05208600  0.04744600  1
  O  O3  1  0.65368900  0.55185100  0.44930500  1
  O  O4  1  0.75281600  0.69449800  0.93660300  1
  O  O5  1  0.25172300  0.19569900  0.56505000  1
  O  O6  1  0.24827700  0.30430100  0.06505000  1
  O  O7  1  0.74718400  0.80550200  0.43660300  1
  O  O8  1  0.52839800  0.87754000  0.04022000  1
  O  O9  1  0.03775300  0.37968200  0.45647700  1
  O  O10  1  0.46224700  0.12031800  0.95647700  1
  O  O11  1  0.97160200  0.62246000  0.54022000  1
  O  O12  1  0.83499500  0.79560300  0.16642200  1
  O  O13  1  0.33740200  0.28970200  0.33330100  1
  O  O14  1  0.16259800  0.21029800  0.83330100  1
  O  O15  1  0.66500500  0.70439700  0.66642200  1
loop_
_geom_bond_atom_site_label_1
_geom_bond_atom_site_label_2
_geom_bond_distance
_geom_bond_site_symmetry_2
H20 N0 1.039702 1_555
H21 N1 1.047584 1_555
H22 N2 1.047584 1_555
H23 N3 1.039702 1_555
H24 N0 1.057338 1_555
H24 O13 1.733740 1_555
H25 N1 1.052899 1_555
H26 N2 1.052899 1_555
H27 N3 1.057338 1_555
H27 O14 1.733740 1_655
H32 O4 1.009410 1_555
H33 O5 1.010421 1_555
H33 O14 1.675327 1_555
H34 O6 1.010421 1_555
H34 O13 1.675327 1_555
H35 O7 1.009410 1_555
H36 O3 1.060405 1_555
H36 O1 1.420253 1_555
H37 O0 1.060405 1_555
H37 O2 1.420253 1_666
H38 O9 1.056642 1_555
H38 O11 1.467716 1_455
H39 O10 1.056642 1_555
H39 O8 1.467716 1_546
C0 H28 1.093882 1_555
C0 H16 1.094069 1_555
C0 H4 1.095341 1_555
C0 N0 1.486133 1_555
C1 H17 1.094263 1_555
C1 H29 1.094278 1_555
C1 H5 1.095147 1_555
C1 N1 1.485143 1_555
C2 H18 1.094263 1_555
C2 H30 1.094278 1_555
C2 H6 1.095147 1_555
C2 N2 1.485143 1_555
C3 H31 1.093882 1_555
C3 H19 1.094069 1_555
C3 H7 1.095341 1_555
C3 N3 1.486133 1_555
C4 H0 1.094530 1_555
C4 H8 1.094669 1_555
C4 H12 1.096248 1_555
C4 N0 1.486134 1_555
C5 H1 1.094646 1_555
C5 H9 1.094917 1_555
C5 H13 1.096548 1_555
C5 N1 1.485194 1_555
C6 H2 1.094646 1_555
C6 H10 1.094917 1_555
C6 H14 1.096548 1_555
C6 N2 1.485194 1_555
C7 H3 1.094530 1_555
C7 H11 1.094669 1_555
C7 H15 1.096248 1_555
C7 N3 1.486134 1_555
O0 P0 1.583128 1_556
O1 P1 1.521860 1_555
O2 P2 1.521860 1_554
O3 P3 1.583128 1_555
O4 P0 1.601047 1_556
O5 P1 1.599767 1_555
O6 P2 1.599767 1_554
O7 P3 1.601047 1_555
O8 P0 1.539459 1_555
O9 P1 1.603133 1_555
O10 P2 1.603133 1_555
O11 P3 1.539459 1_555
O12 P0 1.519011 1_555
O13 P1 1.522977 1_555
O14 P2 1.522977 1_555
O15 P3 1.519011 1_555
