# generated using pymatgen
data_Ca3(CrN2)2
_symmetry_space_group_name_H-M   'P 1'
_cell_length_a   5.59927300
_cell_length_b   9.65457500
_cell_length_c   9.09756200
_cell_angle_alpha   90.00000000
_cell_angle_beta   90.00000000
_cell_angle_gamma   90.00000000
_symmetry_Int_Tables_number   1
_chemical_formula_structural   Ca3(CrN2)2
_chemical_formula_sum   'Ca12 Cr8 N16'
_cell_volume   491.80147536
_cell_formula_units_Z   4
loop_
 _symmetry_equiv_pos_site_id
 _symmetry_equiv_pos_as_xyz
  1  'x, y, z'
loop_
 _atom_site_type_symbol
 _atom_site_label
 _atom_site_symmetry_multiplicity
 _atom_site_fract_x
 _atom_site_fract_y
 _atom_site_fract_z
 _atom_site_occupancy
  Ca  Ca0  1  0.61868900  0.15582200  0.41844600  1
  Ca  Ca1  1  0.88131100  0.84417800  0.41844600  1
  Ca  Ca2  1  0.61868900  0.34417800  0.08155400  1
  Ca  Ca3  1  0.88131100  0.65582200  0.08155400  1
  Ca  Ca4  1  0.38131100  0.84417800  0.58155400  1
  Ca  Ca5  1  0.11868900  0.15582200  0.58155400  1
  Ca  Ca6  1  0.38131100  0.65582200  0.91844600  1
  Ca  Ca7  1  0.11868900  0.34417800  0.91844600  1
  Ca  Ca8  1  0.75000000  0.50000000  0.40202800  1
  Ca  Ca9  1  0.75000000  0.00000000  0.09797200  1
  Ca  Ca10  1  0.25000000  0.50000000  0.59797200  1
  Ca  Ca11  1  0.25000000  0.00000000  0.90202800  1
  Cr  Cr0  1  0.75000000  0.50000000  0.73477300  1
  Cr  Cr1  1  0.75000000  0.00000000  0.76522700  1
  Cr  Cr2  1  0.25000000  0.50000000  0.26522700  1
  Cr  Cr3  1  0.25000000  0.00000000  0.23477300  1
  Cr  Cr4  1  0.65283100  0.25000000  0.75000000  1
  Cr  Cr5  1  0.84716900  0.75000000  0.75000000  1
  Cr  Cr6  1  0.34716900  0.75000000  0.25000000  1
  Cr  Cr7  1  0.15283100  0.25000000  0.25000000  1
  N  N0  1  0.86797600  0.35154900  0.62447600  1
  N  N1  1  0.63202400  0.64845100  0.62447600  1
  N  N2  1  0.86797600  0.14845100  0.87552400  1
  N  N3  1  0.63202400  0.85154900  0.87552400  1
  N  N4  1  0.13202400  0.64845100  0.37552400  1
  N  N5  1  0.36797600  0.35154900  0.37552400  1
  N  N6  1  0.13202400  0.85154900  0.12447600  1
  N  N7  1  0.36797600  0.14845100  0.12447600  1
  N  N8  1  0.50695800  0.41170200  0.83725000  1
  N  N9  1  0.99304200  0.58829800  0.83725000  1
  N  N10  1  0.50695800  0.08829800  0.66275000  1
  N  N11  1  0.99304200  0.91170200  0.66275000  1
  N  N12  1  0.49304200  0.58829800  0.16275000  1
  N  N13  1  0.00695800  0.41170200  0.16275000  1
  N  N14  1  0.49304200  0.91170200  0.33725000  1
  N  N15  1  0.00695800  0.08829800  0.33725000  1
loop_
_geom_bond_atom_site_label_1
_geom_bond_atom_site_label_2
_geom_bond_distance
_geom_bond_site_symmetry_2
Ca0 N5 2.386207 1_555
Ca0 N15 2.386845 1_655
Ca0 N10 2.399209 1_555
Ca0 N14 2.568165 1_545
Ca1 N4 2.386207 1_655
Ca1 N14 2.386845 1_555
Ca1 N11 2.399209 1_555
Ca1 N15 2.568165 1_665
Ca2 N7 2.386207 1_555
Ca2 N13 2.386845 1_655
Ca2 N8 2.399209 1_554
Ca2 N12 2.568165 1_555
Ca3 N6 2.386207 1_655
Ca3 N12 2.386845 1_555
Ca3 N9 2.399209 1_554
Ca3 N13 2.568165 1_655
Ca4 N1 2.386207 1_555
Ca4 N11 2.386845 1_455
Ca4 N14 2.399209 1_555
Ca4 N10 2.568165 1_565
Ca5 N0 2.386207 1_455
Ca5 N10 2.386845 1_555
Ca5 N15 2.399209 1_555
Ca5 N11 2.568165 1_445
Ca6 N3 2.386207 1_555
Ca6 N9 2.386845 1_455
Ca6 N12 2.399209 1_556
Ca6 N8 2.568165 1_555
Ca7 N2 2.386207 1_455
Ca7 N8 2.386845 1_555
Ca7 N13 2.399209 1_556
Ca7 N9 2.568165 1_455
Ca8 N1 2.566324 1_555
Ca8 N0 2.566324 1_555
Ca8 N4 2.586089 1_655
Ca8 N5 2.586089 1_555
Ca8 N13 2.745080 1_655
Ca8 N12 2.745080 1_555
Ca9 N3 2.566324 1_544
Ca9 N2 2.566324 1_554
Ca9 N6 2.586089 1_645
Ca9 N7 2.586089 1_555
Ca9 N15 2.745080 1_655
Ca9 N14 2.745080 1_545
Ca10 N4 2.566324 1_555
Ca10 N5 2.566324 1_555
Ca10 N1 2.586089 1_555
Ca10 N0 2.586089 1_455
Ca10 N9 2.745080 1_455
Ca10 N8 2.745080 1_555
Ca11 N7 2.566324 1_556
Ca11 N6 2.566324 1_546
Ca11 N2 2.586089 1_455
Ca11 N3 2.586089 1_545
Ca11 N10 2.745080 1_555
Ca11 N11 2.745080 1_445
Cr0 N8 1.856832 1_555
Cr0 N9 1.856832 1_555
Cr0 N0 1.870133 1_555
Cr0 N1 1.870133 1_555
Cr1 N11 1.856832 1_545
Cr1 N10 1.856832 1_555
Cr1 N3 1.870133 1_545
Cr1 N2 1.870133 1_555
Cr2 N12 1.856832 1_555
Cr2 N13 1.856832 1_555
Cr2 N4 1.870133 1_555
Cr2 N5 1.870133 1_555
Cr3 N14 1.856832 1_545
Cr3 N15 1.856832 1_555
Cr3 N6 1.870133 1_545
Cr3 N7 1.870133 1_555
Cr4 N0 1.927818 1_555
Cr4 N2 1.927818 1_555
Cr4 N10 1.932466 1_555
Cr4 N8 1.932466 1_555
Cr5 N3 1.927818 1_555
Cr5 N1 1.927818 1_555
Cr5 N11 1.932466 1_555
Cr5 N9 1.932466 1_555
Cr6 N6 1.927818 1_555
Cr6 N4 1.927818 1_555
Cr6 N12 1.932466 1_555
Cr6 N14 1.932466 1_555
Cr7 N5 1.927818 1_555
Cr7 N7 1.927818 1_555
Cr7 N15 1.932466 1_555
Cr7 N13 1.932466 1_555
