# generated using pymatgen
data_Li9Mn2Co5O16
_symmetry_space_group_name_H-M   'P 1'
_cell_length_a   5.76603500
_cell_length_b   5.83742860
_cell_length_c   10.10846084
_cell_angle_alpha   74.17113114
_cell_angle_beta   73.76683521
_cell_angle_gamma   60.63820328
_symmetry_Int_Tables_number   1
_chemical_formula_structural   Li9Mn2Co5O16
_chemical_formula_sum   'Li9 Mn2 Co5 O16'
_cell_volume   280.94153673
_cell_formula_units_Z   1
loop_
 _symmetry_equiv_pos_site_id
 _symmetry_equiv_pos_as_xyz
  1  'x, y, z'
loop_
 _atom_site_type_symbol
 _atom_site_label
 _atom_site_symmetry_multiplicity
 _atom_site_fract_x
 _atom_site_fract_y
 _atom_site_fract_z
 _atom_site_occupancy
  Li  Li0  1  0.75198500  0.23991100  0.26124300  1
  Li  Li1  1  0.25457500  0.25082800  0.74694800  1
  Li  Li2  1  0.24192200  0.75957200  0.25250200  1
  Li  Li3  1  0.75602700  0.75155800  0.74885400  1
  Li  Li4  1  0.24397300  0.24844200  0.25114600  1
  Li  Li5  1  0.75807800  0.24042800  0.74749800  1
  Li  Li6  1  0.74542500  0.74917200  0.25305200  1
  Li  Li7  1  0.24801500  0.76008900  0.73875700  1
  Li  Li8  1  0.00000000  0.00000000  0.50000000  1
  Mn  Mn0  1  0.00000000  0.00000000  0.00000000  1
  Mn  Mn1  1  0.00000000  0.50000000  0.50000000  1
  Co  Co0  1  0.50000000  0.00000000  0.50000000  1
  Co  Co1  1  0.50000000  0.50000000  0.00000000  1
  Co  Co2  1  0.50000000  0.00000000  0.00000000  1
  Co  Co3  1  0.00000000  0.50000000  0.00000000  1
  Co  Co4  1  0.50000000  0.50000000  0.50000000  1
  O  O0  1  0.10413500  0.12814600  0.12200200  1
  O  O1  1  0.60723100  0.15145200  0.60284400  1
  O  O2  1  0.62096200  0.65282700  0.11120900  1
  O  O3  1  0.14543200  0.60920700  0.61052200  1
  O  O4  1  0.63854600  0.11455600  0.11245900  1
  O  O5  1  0.14265300  0.14129600  0.60588900  1
  O  O6  1  0.11166100  0.64977500  0.11618200  1
  O  O7  1  0.64493700  0.59584400  0.61781700  1
  O  O8  1  0.35506300  0.40415600  0.38218300  1
  O  O9  1  0.88833900  0.35022500  0.88381800  1
  O  O10  1  0.85734700  0.85870400  0.39411100  1
  O  O11  1  0.36145400  0.88544400  0.88754100  1
  O  O12  1  0.85456800  0.39079300  0.38947800  1
  O  O13  1  0.37903800  0.34717300  0.88879100  1
  O  O14  1  0.39276900  0.84854800  0.39715600  1
  O  O15  1  0.89586500  0.87185400  0.87799800  1
loop_
_geom_bond_atom_site_label_1
_geom_bond_atom_site_label_2
_geom_bond_distance
_geom_bond_site_symmetry_2
Li0 O0 2.033147 1_655
Li0 O12 2.090045 1_555
Li0 O8 2.138939 1_555
Li0 O10 2.150538 1_545
Li0 O4 2.201135 1_555
Li0 O2 2.354008 1_555
Li1 O1 2.059464 1_555
Li1 O5 2.067586 1_555
Li1 O3 2.072355 1_555
Li1 O13 2.073203 1_555
Li1 O9 2.076810 1_455
Li1 O11 2.120342 1_545
Li2 O8 2.028691 1_555
Li2 O0 2.088492 1_565
Li2 O6 2.099124 1_555
Li2 O2 2.147004 1_555
Li2 O10 2.172544 1_455
Li2 O14 2.175504 1_555
Li3 O15 2.119265 1_555
Li3 O7 2.166381 1_555
Li3 O3 2.176262 1_655
Li3 O11 2.196162 1_555
Li3 O9 2.239949 1_555
Li3 O1 2.286504 1_565
Li4 O0 2.119265 1_555
Li4 O8 2.166381 1_555
Li4 O12 2.176262 1_455
Li4 O4 2.196162 1_555
Li4 O6 2.239949 1_555
Li4 O14 2.286504 1_545
Li5 O7 2.028691 1_555
Li5 O15 2.088492 1_545
Li5 O9 2.099124 1_555
Li5 O13 2.147004 1_555
Li5 O5 2.172544 1_655
Li5 O1 2.175504 1_555
Li6 O14 2.059464 1_555
Li6 O10 2.067586 1_555
Li6 O12 2.072355 1_555
Li6 O2 2.073203 1_555
Li6 O6 2.076810 1_655
Li6 O4 2.120342 1_565
Li7 O15 2.033147 1_455
Li7 O3 2.090045 1_555
Li7 O7 2.138939 1_555
Li7 O5 2.150538 1_565
Li7 O11 2.201135 1_555
Li7 O13 2.354008 1_555
Li8 O5 2.035129 1_555
Li8 O10 2.035129 1_445
Li8 O14 2.052543 1_545
Li8 O1 2.052543 1_455
Li8 O3 2.100679 1_545
Li8 O12 2.100679 1_455
Mn0 O6 1.948219 1_545
Mn0 O9 1.948219 1_454
Mn0 O0 1.949040 1_555
Mn0 O15 1.949040 1_444
Mn0 O11 1.951030 1_544
Mn0 O4 1.951030 1_455
Mn1 O5 1.946099 1_555
Mn1 O10 1.946099 1_455
Mn1 O12 1.947892 1_455
Mn1 O3 1.947892 1_555
Mn1 O7 1.949325 1_455
Mn1 O8 1.949325 1_555
Co0 O1 1.908267 1_555
Co0 O14 1.908267 1_545
Co0 O10 1.911418 1_545
Co0 O5 1.911418 1_555
Co0 O7 2.184706 1_545
Co0 O8 2.184706 1_555
Co1 O13 2.035117 1_554
Co1 O2 2.035117 1_555
Co1 O6 2.080297 1_555
Co1 O9 2.080297 1_554
Co1 O11 2.083918 1_554
Co1 O4 2.083918 1_555
Co2 O2 1.914858 1_545
Co2 O13 1.914858 1_554
Co2 O11 1.955491 1_544
Co2 O4 1.955491 1_555
Co2 O0 2.132046 1_555
Co2 O15 2.132046 1_544
Co3 O9 2.023145 1_454
Co3 O6 2.023145 1_555
Co3 O2 2.024264 1_455
Co3 O13 2.024264 1_554
Co3 O15 2.066095 1_454
Co3 O0 2.066095 1_555
Co4 O14 1.890652 1_555
Co4 O1 1.890652 1_555
Co4 O12 1.915138 1_555
Co4 O3 1.915138 1_555
Co4 O7 1.951478 1_555
Co4 O8 1.951478 1_555
