# generated using pymatgen
data_ZnS
_symmetry_space_group_name_H-M   'P 1'
_cell_length_a   13.62910644
_cell_length_b   13.72193178
_cell_length_c   12.79081167
_cell_angle_alpha   90.34381164
_cell_angle_beta   93.99988673
_cell_angle_gamma   93.10335212
_symmetry_Int_Tables_number   1
_chemical_formula_structural   ZnS
_chemical_formula_sum   'Zn50 S50'
_cell_volume   2382.66680715
_cell_formula_units_Z   50
loop_
 _symmetry_equiv_pos_site_id
 _symmetry_equiv_pos_as_xyz
  1  'x, y, z'
loop_
 _atom_site_type_symbol
 _atom_site_label
 _atom_site_symmetry_multiplicity
 _atom_site_fract_x
 _atom_site_fract_y
 _atom_site_fract_z
 _atom_site_occupancy
  Zn  Zn0  1  0.55642246  0.94080760  0.33889656  1
  Zn  Zn1  1  0.39000611  0.45658051  0.06313741  1
  Zn  Zn2  1  0.78268951  0.12569288  0.92144810  1
  Zn  Zn3  1  0.62862531  0.35593164  0.92841601  1
  Zn  Zn4  1  0.00802951  0.30460099  0.37074824  1
  Zn  Zn5  1  0.63874860  0.20954285  0.62491490  1
  Zn  Zn6  1  0.91389863  0.81239834  0.41111214  1
  Zn  Zn7  1  0.80088110  0.95295159  0.18494590  1
  Zn  Zn8  1  0.38528140  0.26340793  0.62119806  1
  Zn  Zn9  1  0.74182914  0.86977039  0.89086469  1
  Zn  Zn10  1  0.61324376  0.45578770  0.61077118  1
  Zn  Zn11  1  0.70438849  0.18292798  0.16742605  1
  Zn  Zn12  1  0.86925302  0.43119339  0.07273446  1
  Zn  Zn13  1  0.99409988  0.99105741  0.83410999  1
  Zn  Zn14  1  0.31741628  0.60434246  0.84954991  1
  Zn  Zn15  1  0.60889925  0.48581697  0.24763315  1
  Zn  Zn16  1  0.14168923  0.89956424  0.63602057  1
  Zn  Zn17  1  0.17166261  0.80020236  0.96494237  1
  Zn  Zn18  1  0.90757597  0.15397159  0.36063646  1
  Zn  Zn19  1  0.40052981  0.04417317  0.59146519  1
  Zn  Zn20  1  0.96985228  0.26219209  0.86369699  1
  Zn  Zn21  1  0.53508857  0.05250035  0.85986246  1
  Zn  Zn22  1  0.70930458  0.34746518  0.26415054  1
  Zn  Zn23  1  0.79456409  0.96403710  0.65919918  1
  Zn  Zn24  1  0.27192542  0.01041282  0.88722785  1
  Zn  Zn25  1  0.19181492  0.74766335  0.74918590  1
  Zn  Zn26  1  0.89098386  0.67149775  0.53960554  1
  Zn  Zn27  1  0.33603124  0.68843650  0.14114896  1
  Zn  Zn28  1  0.78055341  0.04167003  0.49154200  1
  Zn  Zn29  1  0.36035505  0.26478927  0.90477075  1
  Zn  Zn30  1  0.29317531  0.88190606  0.33860763  1
  Zn  Zn31  1  0.90032042  0.42374834  0.60793265  1
  Zn  Zn32  1  0.16823804  0.68385995  0.43445764  1
  Zn  Zn33  1  0.34236876  0.09513286  0.35525594  1
  Zn  Zn34  1  0.12089076  0.31688151  0.12421154  1
  Zn  Zn35  1  0.40582263  0.06314435  0.14429127  1
  Zn  Zn36  1  0.58759142  0.20198330  0.30846992  1
  Zn  Zn37  1  0.78726749  0.47748543  0.80474745  1
  Zn  Zn38  1  0.20345944  0.12399771  0.65678675  1
  Zn  Zn39  1  0.30162776  0.31453975  0.34294344  1
  Zn  Zn40  1  0.40064197  0.57685086  0.35959811  1
  Zn  Zn41  1  0.48221524  0.65438822  0.79434830  1
  Zn  Zn42  1  0.12290155  0.37422619  0.68908123  1
  Zn  Zn43  1  0.89025574  0.56346160  0.31145451  1
  Zn  Zn44  1  0.96179254  0.05071055  0.50779891  1
  Zn  Zn45  1  0.34759178  0.78895899  0.87122039  1
  Zn  Zn46  1  0.92721434  0.75096888  0.09100150  1
  Zn  Zn47  1  0.02468629  0.61160615  0.83010059  1
  Zn  Zn48  1  0.16568164  0.44481251  0.95275937  1
  Zn  Zn49  1  0.99217787  0.78689571  0.66840825  1
  S  S0  1  0.65701752  0.20100356  0.98851802  1
  S  S1  1  0.12854512  0.95948975  0.94740449  1
  S  S2  1  0.35471063  0.44402615  0.46370998  1
  S  S3  1  0.00826516  0.37745879  0.99812049  1
  S  S4  1  0.96957769  0.28943327  0.69133945  1
  S  S5  1  0.94577562  0.11745706  0.93893652  1
  S  S6  1  0.25944934  0.32051715  0.03210573  1
  S  S7  1  0.74476326  0.49097879  0.97170877  1
  S  S8  1  0.77502862  0.90757052  0.36123130  1
  S  S9  1  0.89206853  0.57236239  0.70968575  1
  S  S10  1  0.58838358  0.61778151  0.65060370  1
  S  S11  1  0.38956390  0.74473904  0.58578681  1
  S  S12  1  0.41957830  0.22750679  0.26879722  1
  S  S13  1  0.58265236  0.78342651  0.88745145  1
  S  S14  1  0.03119851  0.57508942  0.45146689  1
  S  S15  1  0.68944912  0.18002689  0.46593375  1
  S  S16  1  0.48375174  0.87592361  0.80839217  1
  S  S17  1  0.27093713  0.57128984  0.02129717  1
  S  S18  1  0.26134289  0.65650111  0.59563723  1
  S  S19  1  0.69430127  0.01535734  0.81171426  1
  S  S20  1  0.87799242  0.40632668  0.24763930  1
  S  S21  1  0.67755281  0.34966220  0.73928495  1
  S  S22  1  0.05245555  0.04088110  0.66500303  1
  S  S23  1  0.15004508  0.36305939  0.28835273  1
  S  S24  1  0.29491990  0.70561927  0.31666626  1
  S  S25  1  0.29115711  0.97530109  0.70851278  1
  S  S26  1  0.50066082  0.67601016  0.52326474  1
  S  S27  1  0.76593739  0.57963510  0.43554126  1
  S  S28  1  0.46880579  0.40232014  0.91877324  1
  S  S29  1  0.75142398  0.43828453  0.49796029  1
  S  S30  1  0.15789794  0.51798633  0.78686802  1
  S  S31  1  0.88123593  0.86162657  0.77819853  1
  S  S32  1  0.47926136  0.36978005  0.51976241  1
  S  S33  1  0.85392165  0.11110717  0.18831805  1
  S  S34  1  0.15682486  0.86120653  0.45465601  1
  S  S35  1  0.04508686  0.43290904  0.51373377  1
  S  S36  1  0.57070779  0.04238270  0.20147112  1
  S  S37  1  0.78860799  0.83198380  0.06259893  1
  S  S38  1  0.25946722  0.27355847  0.73797383  1
  S  S39  1  0.42768074  0.96252214  0.44218499  1
  S  S40  1  0.46722851  0.56651074  0.19870235  1
  S  S41  1  0.33391588  0.82749172  0.04623338  1
  S  S42  1  0.26307124  0.00380462  0.21858258  1
  S  S43  1  0.40332317  0.10448002  0.95856276  1
  S  S44  1  0.64960111  0.81324848  0.37081758  1
  S  S45  1  0.04299878  0.68390468  0.99115334  1
  S  S46  1  0.27610914  0.17041221  0.49847837  1
  S  S47  1  0.03395079  0.94099928  0.39397489  1
  S  S48  1  0.49861841  0.15103399  0.69820645  1
  S  S49  1  0.95350004  0.71321898  0.26694600  1
loop_
_geom_bond_atom_site_label_1
_geom_bond_atom_site_label_2
_geom_bond_distance
_geom_bond_site_symmetry_2
Zn18 Zn4 2.414336 1_655
S0 Zn2 2.263528 1_555
S0 Zn3 2.308118 1_555
S0 Zn11 2.352246 1_556
S1 Zn24 2.228868 1_565
S1 Zn17 2.302095 1_555
S1 Zn13 2.316941 1_455
S2 S32 2.111816 1_555
S2 Zn40 2.347135 1_555
S2 Zn39 2.395520 1_555
S3 Zn12 2.332192 1_456
S3 Zn34 2.336055 1_556
S3 Zn20 2.341840 1_455
S3 Zn48 2.399827 1_555
S4 Zn20 2.238049 1_555
S4 Zn42 2.338140 1_655
S4 Zn31 2.344670 1_555
S5 Zn2 2.227425 1_555
S5 Zn20 2.230391 1_555
S5 Zn13 2.336417 1_545
S6 Zn34 2.292918 1_555
S6 Zn29 2.353765 1_554
S6 Zn48 2.376562 1_554
S6 Zn1 2.518425 1_555
S7 Zn12 2.253684 1_556
S7 Zn37 2.260528 1_555
S7 Zn3 2.407051 1_555
S8 Zn7 2.387494 1_555
S8 Zn6 2.409136 1_555
S8 Zn28 2.469917 1_565
S9 Zn37 2.296410 1_555
S9 Zn47 2.329252 1_655
S9 Zn31 2.424581 1_555
S9 Zn26 2.572268 1_555
S10 S26 2.137312 1_555
S10 Zn10 2.325416 1_555
S10 Zn41 2.483007 1_555
S11 S26 2.033742 1_555
S11 S18 2.083083 1_555
S12 Zn39 2.305846 1_555
S12 Zn36 2.355955 1_555
S12 Zn33 2.368374 1_555
S12 Zn35 2.743622 1_555
S13 S16 2.112096 1_555
S13 Zn9 2.412465 1_555
S13 Zn41 2.431464 1_555
S14 S35 2.124644 1_555
S14 Zn32 2.349930 1_555
S14 Zn43 2.531025 1_455
S14 Zn26 2.688744 1_455
S15 Zn5 2.234522 1_555
S15 Zn28 2.336533 1_555
S15 Zn36 2.395206 1_555
S16 Zn45 2.343797 1_555
S16 Zn21 2.554761 1_565
S17 Zn27 2.312452 1_555
S17 Zn48 2.318439 1_554
S17 Zn1 2.358602 1_555
S17 Zn14 2.368090 1_554
S18 Zn32 2.386903 1_555
S18 Zn25 2.584300 1_555
S19 Zn2 2.292295 1_555
S19 Zn9 2.346995 1_545
S19 Zn21 2.376981 1_555
S19 Zn23 2.574569 1_545
S20 Zn12 2.260964 1_555
S20 Zn43 2.294384 1_555
S20 Zn22 2.418966 1_555
S20 Zn4 2.733850 1_655
S21 Zn37 2.353134 1_555
S21 Zn10 2.357298 1_555
S21 Zn5 2.421725 1_555
S21 Zn3 2.555989 1_555
S22 Zn44 2.294101 1_455
S22 Zn38 2.307566 1_555
S22 Zn16 2.384615 1_545
S22 Zn13 2.444889 1_445
S23 Zn34 2.192643 1_555
S23 Zn39 2.269842 1_555
S23 Zn4 2.372158 1_555
S24 Zn27 2.364962 1_555
S24 Zn32 2.377527 1_555
S24 Zn40 2.382598 1_555
S24 Zn30 2.435134 1_555
S25 Zn19 2.352101 1_565
S25 Zn16 2.363333 1_555
S25 Zn24 2.368600 1_565
S25 Zn38 2.489885 1_565
S26 Zn40 2.731104 1_555
S27 S29 2.106582 1_555
S27 Zn26 2.386631 1_555
S27 Zn43 2.418850 1_555
S28 Zn3 2.297504 1_555
S28 Zn29 2.331371 1_555
S28 Zn1 2.337565 1_556
S29 Zn31 2.405314 1_555
S29 Zn10 2.471925 1_555
S30 Zn42 2.338510 1_555
S30 Zn48 2.351072 1_555
S30 Zn47 2.374113 1_555
S30 Zn14 2.498025 1_555
S31 Zn13 2.359537 1_555
S31 Zn23 2.375186 1_555
S31 Zn49 2.399317 1_555
S31 Zn9 2.470270 1_555
S32 Zn8 2.346622 1_555
S32 Zn10 2.352879 1_555
S33 Zn7 2.249193 1_545
S33 Zn11 2.311010 1_555
S33 Zn18 2.334896 1_555
S34 S47 2.152475 1_555
S34 Zn16 2.401026 1_555
S34 Zn32 2.460101 1_555
S34 Zn30 2.463762 1_555
S35 Zn31 2.380552 1_455
S35 Zn4 2.536929 1_555
S35 Zn42 2.566278 1_555
S36 Zn0 2.262337 1_545
S36 Zn35 2.347057 1_555
S36 Zn36 2.566666 1_555
S36 Zn11 2.639841 1_555
S37 Zn46 2.252316 1_555
S37 Zn7 2.265943 1_555
S37 Zn9 2.313990 1_554
S38 Zn38 2.359461 1_555
S38 Zn8 2.360382 1_555
S38 Zn42 2.426915 1_555
S38 Zn29 2.463445 1_555
S39 Zn19 2.270662 1_565
S39 Zn0 2.299615 1_555
S39 Zn30 2.400728 1_555
S39 Zn33 2.443862 1_565
S40 Zn40 2.313011 1_555
S40 Zn15 2.327476 1_555
S40 Zn1 2.435560 1_555
S40 Zn27 2.587162 1_555
S41 Zn27 2.268146 1_555
S41 Zn45 2.319511 1_554
S41 Zn17 2.386712 1_554
S42 Zn30 2.310921 1_545
S42 Zn33 2.314756 1_555
S42 Zn35 2.333863 1_555
S43 Zn24 2.283279 1_555
S43 Zn29 2.399311 1_555
S43 Zn21 2.402451 1_555
S43 Zn35 2.444058 1_556
S44 S8 2.098584 1_555
S44 Zn0 2.240564 1_555
S45 Zn47 2.273109 1_555
S45 Zn46 2.322164 1_456
S45 Zn17 2.349368 1_555
S46 Zn33 2.355339 1_555
S46 Zn38 2.390216 1_555
S46 Zn8 2.398071 1_555
S46 Zn19 2.711500 1_555
S46 Zn39 2.838899 1_555
S47 Zn6 2.362470 1_455
S47 Zn44 2.384735 1_465
S48 Zn5 2.294279 1_555
S48 Zn19 2.304450 1_555
S48 Zn8 2.407873 1_555
S48 Zn21 2.512674 1_555
S49 Zn43 2.276106 1_555
S49 Zn46 2.320109 1_555
S49 Zn6 2.394171 1_555
