# generated using pymatgen
data_NbH8N2OF5
_symmetry_space_group_name_H-M   'P 1'
_cell_length_a   10.76093116
_cell_length_b   10.76093116
_cell_length_c   14.51560106
_cell_angle_alpha   47.85255440
_cell_angle_beta   47.85255440
_cell_angle_gamma   32.73369155
_symmetry_Int_Tables_number   1
_chemical_formula_structural   NbH8N2OF5
_chemical_formula_sum   'Nb4 H32 N8 O4 F20'
_cell_volume   649.63950079
_cell_formula_units_Z   4
loop_
 _symmetry_equiv_pos_site_id
 _symmetry_equiv_pos_as_xyz
  1  'x, y, z'
loop_
 _atom_site_type_symbol
 _atom_site_label
 _atom_site_symmetry_multiplicity
 _atom_site_fract_x
 _atom_site_fract_y
 _atom_site_fract_z
 _atom_site_occupancy
  Nb  Nb0  1  0.70345100  0.19964000  0.58837900  1
  Nb  Nb1  1  0.19964000  0.70345100  0.08837900  1
  Nb  Nb2  1  0.94874800  0.45038100  0.54039200  1
  Nb  Nb3  1  0.45038100  0.94874800  0.04039200  1
  H  H0  1  0.23522300  0.65096400  0.34854400  1
  H  H1  1  0.65096400  0.23522300  0.84854400  1
  H  H2  1  0.32656200  0.64690400  0.41161200  1
  H  H3  1  0.64690400  0.32656200  0.91161200  1
  H  H4  1  0.19175100  0.55478700  0.51094900  1
  H  H5  1  0.55478700  0.19175100  0.01094900  1
  H  H6  1  0.03037900  0.84466000  0.43514100  1
  H  H7  1  0.84466000  0.03037900  0.93514100  1
  H  H8  1  0.49317200  0.83012400  0.71742900  1
  H  H9  1  0.83012400  0.49317200  0.21742900  1
  H  H10  1  0.59475500  0.95419300  0.62360800  1
  H  H11  1  0.95419300  0.59475500  0.12360800  1
  H  H12  1  0.47387400  0.92983900  0.78436100  1
  H  H13  1  0.92983900  0.47387400  0.28436100  1
  H  H14  1  0.30034200  0.12805400  0.68611300  1
  H  H15  1  0.12805400  0.30034200  0.18611300  1
  H  H16  1  0.45532100  0.98696200  0.28301200  1
  H  H17  1  0.98696200  0.45532100  0.78301200  1
  H  H18  1  0.42644600  0.06101500  0.37316600  1
  H  H19  1  0.06101500  0.42644600  0.87316600  1
  H  H20  1  0.58302100  0.77654200  0.40759600  1
  H  H21  1  0.77654200  0.58302100  0.90759600  1
  H  H22  1  0.28021100  0.99747000  0.43375600  1
  H  H23  1  0.99747000  0.28021100  0.93375600  1
  H  H24  1  0.74648100  0.07494600  0.25352600  1
  H  H25  1  0.07494600  0.74648100  0.75352600  1
  H  H26  1  0.86126000  0.16029400  0.21115600  1
  H  H27  1  0.16029400  0.86126000  0.71115600  1
  H  H28  1  0.66509200  0.17588500  0.35307300  1
  H  H29  1  0.17588500  0.66509200  0.85307300  1
  H  H30  1  0.56892100  0.36933100  0.21768700  1
  H  H31  1  0.36933100  0.56892100  0.71768700  1
  N  N0  1  0.19778400  0.67335400  0.42594000  1
  N  N1  1  0.67335400  0.19778400  0.92594000  1
  N  N2  1  0.46667900  0.95856900  0.70315800  1
  N  N3  1  0.95856900  0.46667900  0.20315800  1
  N  N4  1  0.43697600  0.95455500  0.37551800  1
  N  N5  1  0.95455500  0.43697600  0.87551800  1
  N  N6  1  0.71004100  0.19610900  0.25739100  1
  N  N7  1  0.19610900  0.71004100  0.75739100  1
  O  O0  1  0.67598500  0.26149200  0.69143500  1
  O  O1  1  0.26149200  0.67598500  0.19143500  1
  O  O2  1  0.89191900  0.47550200  0.43580000  1
  O  O3  1  0.47550200  0.89191900  0.93580000  1
  F  F0  1  0.72079200  0.11227100  0.47774400  1
  F  F1  1  0.11227100  0.72079200  0.97774400  1
  F  F2  1  0.56966500  0.50750500  0.45210000  1
  F  F3  1  0.50750500  0.56966500  0.95210000  1
  F  F4  1  0.38311500  0.32918100  0.67055900  1
  F  F5  1  0.32918100  0.38311500  0.17055900  1
  F  F6  1  0.85955300  0.86689300  0.68970500  1
  F  F7  1  0.86689300  0.85955300  0.18970500  1
  F  F8  1  0.03019600  0.05748600  0.47448200  1
  F  F9  1  0.05748600  0.03019600  0.97448200  1
  F  F10  1  0.03307300  0.43507600  0.65322800  1
  F  F11  1  0.43507600  0.03307300  0.15322800  1
  F  F12  1  0.28187800  0.29467000  0.44178800  1
  F  F13  1  0.29467000  0.28187800  0.94178800  1
  F  F14  1  0.09202500  0.12347300  0.65596700  1
  F  F15  1  0.12347300  0.09202500  0.15596700  1
  F  F16  1  0.63838300  0.58683800  0.67410300  1
  F  F17  1  0.58683800  0.63838300  0.17410300  1
  F  F18  1  0.82113800  0.76927100  0.45951600  1
  F  F19  1  0.76927100  0.82113800  0.95951600  1
loop_
_geom_bond_atom_site_label_1
_geom_bond_atom_site_label_2
_geom_bond_distance
_geom_bond_site_symmetry_2
Nb0 O0 1.783271 1_555
Nb1 O1 1.783271 1_555
Nb2 O2 1.780208 1_555
Nb3 O3 1.780208 1_554
H0 N0 1.036834 1_555
H1 N1 1.036834 1_555
H2 N0 1.036192 1_555
H3 N1 1.036192 1_555
H4 N0 1.036165 1_555
H5 N1 1.036165 1_554
H6 N0 1.040121 1_555
H7 N1 1.040121 1_555
H8 N2 1.032803 1_555
H9 N3 1.032803 1_555
H10 N2 1.031020 1_555
H11 N3 1.031020 1_555
H12 N2 1.041188 1_555
H13 N3 1.041188 1_555
H14 N2 1.043060 1_545
H15 N3 1.043060 1_455
H16 N4 1.046543 1_555
H17 N5 1.046543 1_555
H18 N4 1.029918 1_545
H19 N5 1.029918 1_455
H20 N4 1.037475 1_555
H21 N5 1.037475 1_555
H22 N4 1.035882 1_555
H23 N5 1.035882 1_555
H24 N6 1.032169 1_555
H25 N7 1.032169 1_555
H26 N6 1.035981 1_555
H27 N7 1.035981 1_555
H28 N6 1.039304 1_555
H29 N7 1.039304 1_555
H30 N6 1.040844 1_555
H31 N7 1.040844 1_555
F0 Nb0 2.196990 1_555
F1 Nb1 2.196990 1_556
F2 Nb0 1.990943 1_555
F3 Nb1 1.990943 1_556
F4 Nb0 1.969154 1_555
F5 Nb1 1.969154 1_555
F6 Nb0 1.983621 1_565
F7 Nb1 1.983621 1_655
F8 Nb0 1.994965 1_455
F9 Nb1 1.994965 1_546
F10 Nb2 2.216841 1_455
F11 Nb3 2.216841 1_545
F12 Nb2 1.983438 1_455
F13 Nb3 1.983438 1_546
F14 Nb2 1.998191 1_455
F15 Nb3 1.998191 1_545
F16 Nb2 1.988007 1_555
F17 Nb3 1.988007 1_555
F18 Nb2 1.966881 1_555
F19 Nb3 1.966881 1_556
