# generated using pymatgen
data_Ca4Ge3O11
_symmetry_space_group_name_H-M   'P 1'
_cell_length_a   7.08387352
_cell_length_b   7.08387352
_cell_length_c   21.38945800
_cell_angle_alpha   90.00000000
_cell_angle_beta   90.00000000
_cell_angle_gamma   96.71604717
_symmetry_Int_Tables_number   1
_chemical_formula_structural   Ca4Ge3O11
_chemical_formula_sum   'Ca16 Ge12 O44'
_cell_volume   1065.98463956
_cell_formula_units_Z   4
loop_
 _symmetry_equiv_pos_site_id
 _symmetry_equiv_pos_as_xyz
  1  'x, y, z'
loop_
 _atom_site_type_symbol
 _atom_site_label
 _atom_site_symmetry_multiplicity
 _atom_site_fract_x
 _atom_site_fract_y
 _atom_site_fract_z
 _atom_site_occupancy
  Ca  Ca0  1  0.28898000  0.04003300  0.75000000  1
  Ca  Ca1  1  0.04003300  0.28898000  0.25000000  1
  Ca  Ca2  1  0.79154900  0.14192500  0.75000000  1
  Ca  Ca3  1  0.14192500  0.79154900  0.25000000  1
  Ca  Ca4  1  0.69085900  0.69085900  0.00000000  1
  Ca  Ca5  1  0.69085900  0.69085900  0.50000000  1
  Ca  Ca6  1  0.28526100  0.28526100  0.00000000  1
  Ca  Ca7  1  0.28526100  0.28526100  0.50000000  1
  Ca  Ca8  1  0.55182000  0.39740600  0.85911100  1
  Ca  Ca9  1  0.39740600  0.55182000  0.14088900  1
  Ca  Ca10  1  0.55182000  0.39740600  0.64088900  1
  Ca  Ca11  1  0.39740600  0.55182000  0.35911100  1
  Ca  Ca12  1  0.74501100  0.95479800  0.14816100  1
  Ca  Ca13  1  0.95479800  0.74501100  0.85183900  1
  Ca  Ca14  1  0.74501100  0.95479800  0.35183900  1
  Ca  Ca15  1  0.95479800  0.74501100  0.64816100  1
  Ge  Ge0  1  0.21339300  0.78284500  0.99619900  1
  Ge  Ge1  1  0.78284500  0.21339300  0.00380100  1
  Ge  Ge2  1  0.21339300  0.78284500  0.50380100  1
  Ge  Ge3  1  0.78284500  0.21339300  0.49619900  1
  Ge  Ge4  1  0.27090400  0.02972800  0.12742200  1
  Ge  Ge5  1  0.02972800  0.27090400  0.87257800  1
  Ge  Ge6  1  0.27090400  0.02972800  0.37257800  1
  Ge  Ge7  1  0.02972800  0.27090400  0.62742200  1
  Ge  Ge8  1  0.46236500  0.87138400  0.87165700  1
  Ge  Ge9  1  0.87138400  0.46236500  0.12834300  1
  Ge  Ge10  1  0.46236500  0.87138400  0.62834300  1
  Ge  Ge11  1  0.87138400  0.46236500  0.37165700  1
  O  O0  1  0.35120900  0.61615300  0.02806100  1
  O  O1  1  0.61615300  0.35120900  0.97193900  1
  O  O2  1  0.35120900  0.61615300  0.47193900  1
  O  O3  1  0.61615300  0.35120900  0.52806100  1
  O  O4  1  0.27465100  0.76181900  0.82425000  1
  O  O5  1  0.76181900  0.27465100  0.17575000  1
  O  O6  1  0.27465100  0.76181900  0.67575000  1
  O  O7  1  0.76181900  0.27465100  0.32425000  1
  O  O8  1  0.16298800  0.95775900  0.05307000  1
  O  O9  1  0.95775900  0.16298800  0.94693000  1
  O  O10  1  0.16298800  0.95775900  0.44693000  1
  O  O11  1  0.95775900  0.16298800  0.55307000  1
  O  O12  1  0.40820000  0.87307000  0.16477900  1
  O  O13  1  0.87307000  0.40820000  0.83522100  1
  O  O14  1  0.40820000  0.87307000  0.33522100  1
  O  O15  1  0.87307000  0.40820000  0.66477900  1
  O  O16  1  0.83714100  0.81281600  0.75000000  1
  O  O17  1  0.81281600  0.83714100  0.25000000  1
  O  O18  1  0.70229800  0.00027700  0.04056600  1
  O  O19  1  0.00027700  0.70229800  0.95943400  1
  O  O20  1  0.70229800  0.00027700  0.45943400  1
  O  O21  1  0.00027700  0.70229800  0.54056600  1
  O  O22  1  0.46954100  0.36058600  0.75000000  1
  O  O23  1  0.36058600  0.46954100  0.25000000  1
  O  O24  1  0.07558400  0.04525700  0.17887100  1
  O  O25  1  0.04525700  0.07558400  0.82112900  1
  O  O26  1  0.07558400  0.04525700  0.32112900  1
  O  O27  1  0.04525700  0.07558400  0.67887100  1
  O  O28  1  0.35940600  0.94597000  0.94404600  1
  O  O29  1  0.94597000  0.35940600  0.05595400  1
  O  O30  1  0.35940600  0.94597000  0.55595400  1
  O  O31  1  0.94597000  0.35940600  0.44404600  1
  O  O32  1  0.54743000  0.07538500  0.82767700  1
  O  O33  1  0.07538500  0.54743000  0.17232300  1
  O  O34  1  0.54743000  0.07538500  0.67232300  1
  O  O35  1  0.07538500  0.54743000  0.32767700  1
  O  O36  1  0.63459100  0.72126000  0.88982000  1
  O  O37  1  0.72126000  0.63459100  0.11018000  1
  O  O38  1  0.63459100  0.72126000  0.61018000  1
  O  O39  1  0.72126000  0.63459100  0.38982000  1
  O  O40  1  0.38774100  0.25139500  0.10521200  1
  O  O41  1  0.25139500  0.38774100  0.89478800  1
  O  O42  1  0.38774100  0.25139500  0.39478800  1
  O  O43  1  0.25139500  0.38774100  0.60521200  1
loop_
_geom_bond_atom_site_label_1
_geom_bond_atom_site_label_2
_geom_bond_distance
_geom_bond_site_symmetry_2
Ca0 O25 2.336798 1_555
Ca0 O27 2.336798 1_555
Ca0 O32 2.463307 1_555
Ca0 O34 2.463307 1_555
Ca0 O22 2.472451 1_555
Ca0 O6 2.523880 1_545
Ca0 O4 2.523880 1_545
Ca1 O26 2.336798 1_555
Ca1 O24 2.336798 1_555
Ca1 O35 2.463307 1_555
Ca1 O33 2.463307 1_555
Ca1 O23 2.472451 1_555
Ca1 O7 2.523880 1_455
Ca1 O5 2.523880 1_455
Ca2 O16 2.390752 1_545
Ca2 O32 2.404685 1_555
Ca2 O34 2.404685 1_555
Ca2 O27 2.441957 1_655
Ca2 O25 2.441957 1_655
Ca2 O15 2.638066 1_555
Ca2 O13 2.638066 1_555
Ca2 O22 2.903271 1_555
Ca3 O17 2.390752 1_455
Ca3 O35 2.404685 1_555
Ca3 O33 2.404685 1_555
Ca3 O24 2.441957 1_565
Ca3 O26 2.441957 1_565
Ca3 O14 2.638066 1_555
Ca3 O12 2.638066 1_555
Ca3 O23 2.903271 1_555
Ca4 O19 2.349942 1_654
Ca4 O18 2.349942 1_565
Ca4 O36 2.404023 1_554
Ca4 O37 2.404023 1_555
Ca4 O0 2.476188 1_555
Ca4 O1 2.476188 1_554
Ca5 O20 2.349942 1_565
Ca5 O21 2.349942 1_655
Ca5 O38 2.404023 1_555
Ca5 O39 2.404023 1_555
Ca5 O2 2.476188 1_555
Ca5 O3 2.476188 1_555
Ca6 O41 2.385314 1_554
Ca6 O40 2.385314 1_555
Ca6 O1 2.411782 1_554
Ca6 O0 2.411782 1_555
Ca6 O9 2.636492 1_454
Ca6 O8 2.636492 1_545
Ca6 O29 2.789323 1_455
Ca6 O28 2.789323 1_544
Ca7 O43 2.385314 1_555
Ca7 O42 2.385314 1_555
Ca7 O3 2.411782 1_555
Ca7 O2 2.411782 1_555
Ca7 O11 2.636492 1_455
Ca7 O10 2.636492 1_545
Ca7 O30 2.789323 1_545
Ca7 O31 2.789323 1_455
Ca8 O41 2.254344 1_555
Ca8 O13 2.324876 1_555
Ca8 O32 2.374892 1_555
Ca8 O36 2.392425 1_555
Ca8 O22 2.412246 1_555
Ca8 O1 2.484718 1_555
Ca9 O40 2.254344 1_555
Ca9 O12 2.324876 1_555
Ca9 O33 2.374892 1_555
Ca9 O37 2.392425 1_555
Ca9 O23 2.412246 1_555
Ca9 O0 2.484718 1_555
Ca10 O43 2.254344 1_555
Ca10 O15 2.324876 1_555
Ca10 O34 2.374892 1_555
Ca10 O38 2.392425 1_555
Ca10 O22 2.412246 1_555
Ca10 O3 2.484718 1_555
Ca11 O42 2.254344 1_555
Ca11 O14 2.324876 1_555
Ca11 O35 2.374892 1_555
Ca11 O39 2.392425 1_555
Ca11 O23 2.412246 1_555
Ca11 O2 2.484718 1_555
Ca12 O5 2.330912 1_565
Ca12 O18 2.348314 1_565
Ca12 O37 2.396714 1_555
Ca12 O17 2.400817 1_555
Ca12 O12 2.414764 1_555
Ca12 O24 2.444351 1_665
Ca13 O4 2.330912 1_655
Ca13 O19 2.348314 1_655
Ca13 O36 2.396714 1_555
Ca13 O16 2.400817 1_555
Ca13 O13 2.414764 1_555
Ca13 O25 2.444351 1_665
Ca14 O7 2.330912 1_565
Ca14 O20 2.348314 1_565
Ca14 O39 2.396714 1_555
Ca14 O17 2.400817 1_555
Ca14 O14 2.414764 1_555
Ca14 O26 2.444351 1_665
Ca15 O6 2.330912 1_655
Ca15 O21 2.348314 1_655
Ca15 O38 2.396714 1_555
Ca15 O16 2.400817 1_555
Ca15 O15 2.414764 1_555
Ca15 O27 2.444351 1_665
Ge0 O19 1.738286 1_555
Ge0 O0 1.755434 1_556
Ge0 O8 1.801664 1_556
Ge0 O28 1.835755 1_555
Ge1 O18 1.738286 1_555
Ge1 O1 1.755434 1_554
Ge1 O9 1.801664 1_554
Ge1 O29 1.835755 1_555
Ge2 O21 1.738286 1_555
Ge2 O2 1.755434 1_555
Ge2 O10 1.801664 1_555
Ge2 O30 1.835755 1_555
Ge3 O20 1.738286 1_555
Ge3 O3 1.755434 1_555
Ge3 O11 1.801664 1_555
Ge3 O31 1.835755 1_555
Ge4 O12 1.751681 1_545
Ge4 O40 1.752837 1_555
Ge4 O24 1.781330 1_555
Ge4 O8 1.811731 1_545
Ge5 O13 1.751681 1_455
Ge5 O41 1.752837 1_555
Ge5 O25 1.781330 1_555
Ge5 O9 1.811731 1_455
Ge6 O14 1.751681 1_545
Ge6 O42 1.752837 1_555
Ge6 O26 1.781330 1_555
Ge6 O10 1.811731 1_545
Ge7 O15 1.751681 1_455
Ge7 O43 1.752837 1_555
Ge7 O27 1.781330 1_555
Ge7 O11 1.811731 1_455
Ge8 O36 1.753229 1_555
Ge8 O32 1.769952 1_565
Ge8 O4 1.776916 1_555
Ge8 O28 1.816224 1_555
Ge9 O37 1.753229 1_555
Ge9 O33 1.769952 1_655
Ge9 O5 1.776916 1_555
Ge9 O29 1.816224 1_555
Ge10 O38 1.753229 1_555
Ge10 O34 1.769952 1_565
Ge10 O6 1.776916 1_555
Ge10 O30 1.816224 1_555
Ge11 O39 1.753229 1_555
Ge11 O35 1.769952 1_655
Ge11 O7 1.776916 1_555
Ge11 O31 1.816224 1_555
