# generated using pymatgen
data_Ca4Si6W5O17
_symmetry_space_group_name_H-M   'P 1'
_cell_length_a   6.78794783
_cell_length_b   6.80309662
_cell_length_c   12.11367034
_cell_angle_alpha   73.69189771
_cell_angle_beta   83.80672959
_cell_angle_gamma   67.40628515
_symmetry_Int_Tables_number   1
_chemical_formula_structural   Ca4Si6W5O17
_chemical_formula_sum   'Ca4 Si6 W5 O17'
_cell_volume   495.68581607
_cell_formula_units_Z   1
loop_
 _symmetry_equiv_pos_site_id
 _symmetry_equiv_pos_as_xyz
  1  'x, y, z'
loop_
 _atom_site_type_symbol
 _atom_site_label
 _atom_site_symmetry_multiplicity
 _atom_site_fract_x
 _atom_site_fract_y
 _atom_site_fract_z
 _atom_site_occupancy
  Ca  Ca0  1  0.18336500  0.98178000  0.40409400  1
  Ca  Ca1  1  0.18336500  0.38587300  0.59590600  1
  Ca  Ca2  1  0.68939200  0.89852800  0.56857400  1
  Ca  Ca3  1  0.68939200  0.46710200  0.43142600  1
  Si  Si0  1  0.22410400  0.80688500  0.67849600  1
  Si  Si1  1  0.22410400  0.48538100  0.32150400  1
  Si  Si2  1  0.00548200  0.94010700  0.13639000  1
  Si  Si3  1  0.00548200  0.07649600  0.86361000  1
  Si  Si4  1  0.64081600  0.07180000  0.31170000  1
  Si  Si5  1  0.64081600  0.38350000  0.68830000  1
  W  W0  1  0.72574400  0.78395200  0.84869600  1
  W  W1  1  0.72574400  0.63264800  0.15130400  1
  W  W2  1  0.02248600  0.39820900  0.00000000  1
  W  W3  1  0.42941200  0.03828800  0.00000000  1
  W  W4  1  0.49312100  0.49393000  0.00000000  1
  O  O0  1  0.42242200  0.29486500  0.27227800  1
  O  O1  1  0.42242200  0.56714200  0.72772200  1
  O  O2  1  0.30867400  0.99315800  0.59631500  1
  O  O3  1  0.30867400  0.58947200  0.40368500  1
  O  O4  1  0.13995000  0.08673800  0.14874600  1
  O  O5  1  0.13995000  0.23548400  0.85125400  1
  O  O6  1  0.06167400  0.76466400  0.60647400  1
  O  O7  1  0.06167400  0.37113700  0.39352600  1
  O  O8  1  0.79301200  0.10978500  0.39333500  1
  O  O9  1  0.79301200  0.50312000  0.60666500  1
  O  O10  1  0.11011900  0.88000200  0.79686300  1
  O  O11  1  0.11011900  0.67686500  0.20313700  1
  O  O12  1  0.56966900  0.86890800  0.38517100  1
  O  O13  1  0.56966900  0.25407800  0.61482900  1
  O  O14  1  0.76360900  0.02551700  0.19059300  1
  O  O15  1  0.76360900  0.21611000  0.80940700  1
  O  O16  1  0.98011800  0.95727400  0.00000000  1
loop_
_geom_bond_atom_site_label_1
_geom_bond_atom_site_label_2
_geom_bond_distance
_geom_bond_site_symmetry_2
Ca0 O7 2.422016 1_565
Ca0 O12 2.437243 1_555
Ca0 O8 2.456417 1_465
Ca0 O3 2.471592 1_555
Ca0 O2 2.594336 1_555
Ca0 O6 2.709455 1_555
Ca0 O4 2.993191 1_565
Ca1 O6 2.422029 1_555
Ca1 O13 2.437243 1_555
Ca1 O9 2.456417 1_455
Ca1 O2 2.471579 1_545
Ca1 O3 2.594336 1_555
Ca1 O7 2.709455 1_555
Ca1 O5 2.993190 1_555
Ca2 O6 2.381851 1_655
Ca2 O8 2.409918 1_565
Ca2 O2 2.421093 1_555
Ca2 O9 2.421331 1_555
Ca2 O13 2.444923 1_565
Ca2 O12 2.530561 1_555
Ca2 W0 3.275732 1_555
Ca3 O7 2.381851 1_655
Ca3 O9 2.409918 1_555
Ca3 O3 2.421094 1_555
Ca3 O8 2.421331 1_555
Ca3 O12 2.444929 1_555
Ca3 O13 2.530564 1_555
Ca3 W1 3.275732 1_555
W0 W2 2.887381 1_656
W0 W3 2.951355 1_566
W0 W4 3.079631 1_556
W1 W2 2.887381 1_655
W1 W3 2.951354 1_565
W1 W4 3.079631 1_555
O0 Si4 1.657030 1_555
O0 Si1 1.663677 1_555
O1 Si5 1.657027 1_555
O1 Si0 1.663680 1_555
O2 Si0 1.629001 1_555
O3 Si1 1.628996 1_555
O4 Si2 1.632053 1_545
O4 W2 2.289102 1_555
O4 W3 2.507589 1_555
O5 Si3 1.632059 1_555
O5 W2 2.289102 1_556
O5 W3 2.507589 1_556
O6 Si0 1.628176 1_555
O7 Si1 1.628181 1_555
O8 Si4 1.637400 1_555
O9 Si5 1.637400 1_555
O10 Si3 1.642779 1_565
O10 Si0 1.663576 1_555
O10 W0 2.890475 1_455
O11 Si2 1.642785 1_555
O11 Si1 1.663576 1_555
O11 W1 2.890475 1_455
O12 Si4 1.630983 1_565
O13 Si5 1.630989 1_555
O14 Si2 1.647104 1_645
O14 Si4 1.655307 1_555
O14 W1 2.950367 1_545
O15 Si3 1.647105 1_655
O15 Si5 1.655307 1_555
O15 W0 2.950367 1_545
O16 Si3 1.646374 1_664
O16 Si2 1.646375 1_655
