# generated using pymatgen
data_Li3V3CoO8
_symmetry_space_group_name_H-M   'P 1'
_cell_length_a   10.37858780
_cell_length_b   10.32522650
_cell_length_c   14.66513061
_cell_angle_alpha   18.95961733
_cell_angle_beta   19.15903645
_cell_angle_gamma   32.83599843
_symmetry_Int_Tables_number   1
_chemical_formula_structural   Li3V3CoO8
_chemical_formula_sum   'Li3 V3 Co1 O8'
_cell_volume   145.28236072
_cell_formula_units_Z   1
loop_
 _symmetry_equiv_pos_site_id
 _symmetry_equiv_pos_as_xyz
  1  'x, y, z'
loop_
 _atom_site_type_symbol
 _atom_site_label
 _atom_site_symmetry_multiplicity
 _atom_site_fract_x
 _atom_site_fract_y
 _atom_site_fract_z
 _atom_site_occupancy
  Li  Li0  1  0.00000400  0.50000100  0.49999500  1
  Li  Li1  1  0.49999300  0.00000700  0.49999900  1
  Li  Li2  1  0.50000600  0.50000500  0.49999000  1
  V  V0  1  0.00000700  0.50006500  0.99995800  1
  V  V1  1  0.50008700  0.00003600  0.99992600  1
  V  V2  1  0.49990500  0.49990400  0.00013200  1
  Co  Co0  1  0.99998300  0.99996600  0.00002700  1
  O  O0  1  0.01428500  0.00261800  0.24548300  1
  O  O1  1  0.99729200  0.50928600  0.25689700  1
  O  O2  1  0.51846600  0.99056500  0.25622500  1
  O  O3  1  0.98572100  0.99737700  0.75450200  1
  O  O4  1  0.47088100  0.49904900  0.28121500  1
  O  O5  1  0.00271700  0.49072900  0.74309400  1
  O  O6  1  0.48154400  0.00944700  0.74376500  1
  O  O7  1  0.52910800  0.50094700  0.71879100  1
loop_
_geom_bond_atom_site_label_1
_geom_bond_atom_site_label_2
_geom_bond_distance
_geom_bond_site_symmetry_2
Li0 O0 2.120032 1_565
Li0 O3 2.120147 1_445
Li0 O4 2.129246 1_555
Li0 O7 2.129294 1_455
Li0 O6 2.182196 1_564
Li0 O2 2.182255 1_446
Li1 O5 2.176229 1_654
Li1 O1 2.176280 1_446
Li1 O0 2.198998 1_655
Li1 O3 2.199028 1_445
Li1 O4 2.209160 1_555
Li1 O7 2.209229 1_545
Li2 O0 2.120415 1_556
Li2 O3 2.120469 1_554
Li2 O6 2.135129 1_555
Li2 O2 2.135232 1_555
Li2 O5 2.186220 1_555
Li2 O1 2.186322 1_555
Co0 O2 1.937288 1_555
Co0 O6 1.937454 1_664
Co0 O1 1.949087 1_555
Co0 O5 1.949426 1_664
Co0 O7 1.950496 1_555
Co0 O4 1.950544 1_664
O0 V1 2.010899 1_554
O0 V0 2.028715 1_554
O0 V2 2.052422 1_446
O1 V1 2.001020 1_555
O1 V2 2.032554 1_655
O2 V0 1.999968 1_555
O2 V2 2.026023 1_565
O3 V1 2.010280 1_565
O3 V0 2.028137 1_655
O3 V2 2.051690 1_665
O4 V1 1.943557 1_564
O4 V0 2.095885 1_654
O5 V1 2.001268 1_564
O5 V2 2.032812 1_456
O6 V0 2.000071 1_654
O6 V2 2.026270 1_546
O7 V1 1.943421 1_555
O7 V0 2.095884 1_555
