# generated using pymatgen
data_Fe3H9S2O15
_symmetry_space_group_name_H-M   'P 1'
_cell_length_a   7.14869100
_cell_length_b   7.16497903
_cell_length_c   7.17162813
_cell_angle_alpha   62.98883599
_cell_angle_beta   62.29952439
_cell_angle_gamma   63.19356841
_symmetry_Int_Tables_number   1
_chemical_formula_structural   Fe3H9S2O15
_chemical_formula_sum   'Fe3 H9 S2 O15'
_cell_volume   276.03459021
_cell_formula_units_Z   1
loop_
 _symmetry_equiv_pos_site_id
 _symmetry_equiv_pos_as_xyz
  1  'x, y, z'
loop_
 _atom_site_type_symbol
 _atom_site_label
 _atom_site_symmetry_multiplicity
 _atom_site_fract_x
 _atom_site_fract_y
 _atom_site_fract_z
 _atom_site_occupancy
  Fe  Fe0  1  0.00283400  0.99458100  0.50553500  1
  Fe  Fe1  1  0.49975600  0.00279300  0.99901800  1
  Fe  Fe2  1  0.00493300  0.50031500  0.99392100  1
  H  H0  1  0.30075000  0.72111800  0.30357700  1
  H  H1  1  0.31173800  0.30587300  0.71411300  1
  H  H2  1  0.71673200  0.30076000  0.31308700  1
  H  H3  1  0.70326900  0.27776300  0.69941300  1
  H  H4  1  0.69897900  0.69958100  0.28168900  1
  H  H5  1  0.28585600  0.69681100  0.68993500  1
  H  H6  1  0.11693200  0.02379700  0.90634000  1
  H  H7  1  0.91970000  0.11317900  0.12227900  1
  H  H8  1  0.91253800  0.90331900  0.05655400  1
  S  S0  1  0.30489700  0.31013000  0.30774000  1
  S  S1  1  0.68910500  0.69270800  0.69524500  1
  O  O0  1  0.39118800  0.39944500  0.38933300  1
  O  O1  1  0.60468700  0.60305700  0.61215500  1
  O  O2  1  0.16499900  0.17228900  0.50125800  1
  O  O3  1  0.49378100  0.17225000  0.16895700  1
  O  O4  1  0.16516000  0.49396100  0.17198800  1
  O  O5  1  0.82956100  0.82969100  0.50330000  1
  O  O6  1  0.49781800  0.83082700  0.83428400  1
  O  O7  1  0.82598200  0.50969500  0.83370100  1
  O  O8  1  0.27009500  0.87991100  0.26844500  1
  O  O9  1  0.26089900  0.25987600  0.87749600  1
  O  O10  1  0.88017000  0.24701400  0.24936900  1
  O  O11  1  0.72733400  0.12307700  0.72336900  1
  O  O12  1  0.75434100  0.74877700  0.11788300  1
  O  O13  1  0.12325300  0.73590000  0.73669400  1
  O  O14  1  0.96371200  0.03450000  0.00632300  1
loop_
_geom_bond_atom_site_label_1
_geom_bond_atom_site_label_2
_geom_bond_distance
_geom_bond_site_symmetry_2
Fe0 O11 1.994371 1_465
Fe0 O13 2.005315 1_555
Fe0 O8 2.012287 1_555
Fe0 O2 2.056424 1_565
Fe0 O5 2.070254 1_455
Fe0 O10 2.112891 1_465
Fe1 O8 2.003336 1_546
Fe1 O11 2.006126 1_555
Fe1 O9 2.038766 1_555
Fe1 O3 2.051887 1_556
Fe1 O6 2.065648 1_545
Fe1 O12 2.096874 1_546
Fe2 O13 1.994095 1_555
Fe2 O9 2.013984 1_555
Fe2 O7 2.044559 1_455
Fe2 O4 2.050586 1_556
Fe2 O12 2.061354 1_456
Fe2 O10 2.089578 1_456
H0 O8 0.985922 1_555
H1 O9 0.987419 1_555
H2 O10 0.989875 1_555
H3 O11 0.984904 1_555
H4 O12 0.989133 1_555
H5 O13 0.985567 1_555
H6 O14 0.981717 1_456
H7 O14 1.063452 1_555
H7 O10 1.462920 1_555
H8 O14 1.013455 1_565
O0 S0 1.471133 1_555
O1 S1 1.470892 1_555
O2 S0 1.502383 1_555
O3 S0 1.493433 1_555
O4 S0 1.494394 1_555
O5 S1 1.497676 1_555
O6 S1 1.500540 1_555
O7 S1 1.492045 1_555
