# generated using pymatgen
data_BaSr4(FeO3)5
_symmetry_space_group_name_H-M   'P 1'
_cell_length_a   5.57063677
_cell_length_b   5.57063818
_cell_length_c   20.22690108
_cell_angle_alpha   82.09624168
_cell_angle_beta   82.09620918
_cell_angle_gamma   89.99226105
_symmetry_Int_Tables_number   1
_chemical_formula_structural   BaSr4(FeO3)5
_chemical_formula_sum   'Ba2 Sr8 Fe10 O30'
_cell_volume   615.69968391
_cell_formula_units_Z   2
loop_
 _symmetry_equiv_pos_site_id
 _symmetry_equiv_pos_as_xyz
  1  'x, y, z'
loop_
 _atom_site_type_symbol
 _atom_site_label
 _atom_site_symmetry_multiplicity
 _atom_site_fract_x
 _atom_site_fract_y
 _atom_site_fract_z
 _atom_site_occupancy
  Ba  Ba0  1  0.44987000  0.95001400  0.10002100  1
  Ba  Ba1  1  0.95001400  0.44987100  0.10002100  1
  Sr  Sr0  1  0.34860800  0.84887500  0.30263700  1
  Sr  Sr1  1  0.84887300  0.34860800  0.30263700  1
  Sr  Sr2  1  0.05163000  0.55124000  0.89694000  1
  Sr  Sr3  1  0.55124000  0.05163100  0.89694000  1
  Sr  Sr4  1  0.24953600  0.74953600  0.50094500  1
  Sr  Sr5  1  0.74953300  0.24953500  0.50094500  1
  Sr  Sr6  1  0.15049600  0.65025400  0.69915600  1
  Sr  Sr7  1  0.65025400  0.15049600  0.69915700  1
  Fe  Fe0  1  0.19979900  0.19979000  0.60013000  1
  Fe  Fe1  1  0.70034100  0.70033400  0.59976300  1
  Fe  Fe2  1  0.00218700  0.00219000  0.99514800  1
  Fe  Fe3  1  0.39876800  0.39876800  0.20279400  1
  Fe  Fe4  1  0.89804500  0.89805000  0.20380600  1
  Fe  Fe5  1  0.50142900  0.50142500  0.99731900  1
  Fe  Fe6  1  0.29929800  0.29927200  0.40183100  1
  Fe  Fe7  1  0.79875900  0.79877800  0.40205500  1
  Fe  Fe8  1  0.10099700  0.10100100  0.79786300  1
  Fe  Fe9  1  0.60127600  0.60126900  0.79730300  1
  O  O0  1  0.44860400  0.44860400  0.10226100  1
  O  O1  1  0.94794500  0.94794500  0.10393400  1
  O  O2  1  0.34713400  0.34713400  0.30342100  1
  O  O3  1  0.84964600  0.84964700  0.30228400  1
  O  O4  1  0.05392300  0.05392300  0.89409100  1
  O  O5  1  0.55327000  0.55327100  0.89350300  1
  O  O6  1  0.24950700  0.24950800  0.50112000  1
  O  O7  1  0.74950000  0.74950000  0.50135200  1
  O  O8  1  0.15116100  0.15116200  0.69947100  1
  O  O9  1  0.64917700  0.64917600  0.70025100  1
  O  O10  1  0.44924500  0.95013300  0.60055000  1
  O  O11  1  0.95013400  0.44924400  0.60055000  1
  O  O12  1  0.95050200  0.95050100  0.60070100  1
  O  O13  1  0.44907800  0.44907800  0.60033300  1
  O  O14  1  0.25269600  0.75309800  0.99406600  1
  O  O15  1  0.75309700  0.25269800  0.99406600  1
  O  O16  1  0.64813500  0.14552100  0.20640400  1
  O  O17  1  0.14552000  0.64813600  0.20640400  1
  O  O18  1  0.75320800  0.75320900  0.99394700  1
  O  O19  1  0.25278200  0.25278200  0.99406100  1
  O  O20  1  0.14530900  0.14530900  0.20621800  1
  O  O21  1  0.64820800  0.64820900  0.20656300  1
  O  O22  1  0.54866900  0.04896400  0.40232000  1
  O  O23  1  0.04896300  0.54867100  0.40232000  1
  O  O24  1  0.35448700  0.84841600  0.79688900  1
  O  O25  1  0.84841600  0.35448600  0.79688900  1
  O  O26  1  0.04927300  0.04927500  0.40253200  1
  O  O27  1  0.54831300  0.54831400  0.40213900  1
  O  O28  1  0.84765000  0.84765000  0.79690000  1
  O  O29  1  0.35549500  0.35549600  0.79704800  1
loop_
_geom_bond_atom_site_label_1
_geom_bond_atom_site_label_2
_geom_bond_distance
_geom_bond_site_symmetry_2
Ba0 O0 2.784049 1_565
Ba0 O1 2.786242 1_455
Ba0 O1 2.786559 1_555
Ba0 O0 2.787299 1_555
Ba0 O19 2.880285 1_564
Ba0 O14 2.880463 1_554
Ba0 O15 2.881104 1_564
Ba0 O18 2.882709 1_554
Ba0 O20 2.883746 1_565
Ba0 O16 2.886980 1_565
Ba0 O17 2.887025 1_555
Ba0 O21 2.889518 1_555
Ba1 O0 2.784048 1_655
Ba1 O1 2.786248 1_545
Ba1 O1 2.786554 1_555
Ba1 O0 2.787298 1_555
Ba1 O19 2.880287 1_654
Ba1 O15 2.880463 1_554
Ba1 O14 2.881099 1_654
Ba1 O18 2.882712 1_554
Ba1 O20 2.883750 1_655
Ba1 O17 2.886978 1_655
Ba1 O16 2.887028 1_555
Ba1 O21 2.889519 1_555
Fe0 O12 1.961867 1_445
Fe0 O6 1.964439 1_555
Fe0 O13 1.964808 1_555
Fe0 O10 1.965870 1_545
Fe0 O11 1.965933 1_455
Fe0 O8 1.971019 1_555
Fe1 O7 1.952553 1_555
Fe1 O11 1.972926 1_555
Fe1 O10 1.972973 1_555
Fe1 O12 1.974720 1_555
Fe1 O13 1.977364 1_555
Fe1 O9 1.993778 1_555
Fe2 O18 1.966483 1_445
Fe2 O15 1.967919 1_455
Fe2 O14 1.967931 1_545
Fe2 O19 1.970169 1_555
Fe2 O4 2.005077 1_555
Fe2 O1 2.158401 1_446
Fe3 O16 1.980976 1_555
Fe3 O17 1.980984 1_555
Fe3 O21 1.981479 1_555
Fe3 O20 1.984599 1_555
Fe3 O0 1.994657 1_555
Fe3 O2 1.996550 1_555
Fe4 O3 1.953891 1_555
Fe4 O20 1.958147 1_665
Fe4 O21 1.958303 1_555
Fe4 O16 1.959747 1_565
Fe4 O17 1.959779 1_655
Fe4 O1 1.981540 1_555
Fe5 O18 1.971559 1_555
Fe5 O15 1.971997 1_555
Fe5 O14 1.972041 1_555
Fe5 O19 1.972849 1_555
Fe5 O5 2.059792 1_555
Fe5 O0 2.082136 1_556
Fe6 O2 1.952559 1_555
Fe6 O27 1.963218 1_555
Fe6 O26 1.967029 1_555
Fe6 O22 1.968145 1_555
Fe6 O23 1.968362 1_555
Fe6 O6 1.969974 1_555
Fe7 O7 1.970133 1_555
Fe7 O22 1.970479 1_565
Fe7 O23 1.970617 1_655
Fe7 O27 1.972906 1_555
Fe7 O26 1.975532 1_665
Fe7 O3 1.979554 1_555
Fe8 O4 1.909255 1_555
Fe8 O8 1.952193 1_555
Fe8 O25 1.993371 1_455
Fe8 O24 1.993406 1_545
Fe8 O28 1.999915 1_445
Fe8 O29 2.001937 1_555
Fe9 O5 1.908685 1_555
Fe9 O9 1.925594 1_555
Fe9 O29 1.937389 1_555
Fe9 O28 1.939542 1_555
Fe9 O25 1.945466 1_555
Fe9 O24 1.945517 1_555
O2 Sr0 2.777850 1_545
O2 Sr1 2.777861 1_455
O2 Sr1 2.792876 1_555
O2 Sr0 2.792888 1_555
O3 Sr1 2.780523 1_565
O3 Sr0 2.780528 1_655
O3 Sr0 2.790130 1_555
O3 Sr1 2.790137 1_555
O4 Sr3 2.778874 1_555
O4 Sr2 2.778875 1_555
O4 Sr3 2.792918 1_455
O4 Sr2 2.792919 1_545
O5 Sr2 2.785731 1_555
O5 Sr3 2.785732 1_555
O5 Sr2 2.786576 1_655
O5 Sr3 2.786576 1_565
O6 Sr5 2.784979 1_555
O6 Sr4 2.784991 1_555
O6 Sr4 2.785652 1_545
O6 Sr5 2.785662 1_455
O7 Sr5 2.784394 1_565
O7 Sr4 2.784399 1_655
O7 Sr4 2.786262 1_555
O7 Sr5 2.786268 1_555
O8 Sr6 2.779395 1_555
O8 Sr7 2.779403 1_555
O8 Sr7 2.791256 1_455
O8 Sr6 2.791265 1_545
O9 Sr7 2.781094 1_555
O9 Sr6 2.781102 1_555
O9 Sr6 2.789707 1_655
O9 Sr7 2.789716 1_565
O10 Sr7 2.775700 1_565
O10 Sr6 2.776659 1_555
O10 Sr4 2.789499 1_555
O10 Sr5 2.790838 1_565
O11 Sr6 2.775683 1_655
O11 Sr7 2.776670 1_555
O11 Sr5 2.789511 1_555
O11 Sr4 2.790849 1_655
O12 Sr6 2.774554 1_655
O12 Sr7 2.774573 1_565
O12 Sr4 2.792110 1_655
O12 Sr5 2.792123 1_565
O13 Sr6 2.778344 1_555
O13 Sr7 2.778359 1_555
O13 Sr5 2.786938 1_555
O13 Sr4 2.786945 1_555
O14 Sr2 2.755274 1_555
O14 Sr3 2.755837 1_565
O15 Sr3 2.755274 1_555
O15 Sr2 2.755832 1_655
O16 Sr1 2.742952 1_555
O16 Sr0 2.743466 1_545
O17 Sr0 2.742957 1_555
O17 Sr1 2.743471 1_455
O18 Sr3 2.754812 1_565
O18 Sr2 2.754814 1_655
O19 Sr3 2.754193 1_555
O19 Sr2 2.754197 1_555
O20 Sr0 2.744845 1_545
O20 Sr1 2.744850 1_455
O21 Sr0 2.741584 1_555
O21 Sr1 2.741585 1_555
O22 Sr5 2.776177 1_555
O22 Sr4 2.776681 1_545
O22 Sr0 2.790377 1_545
O22 Sr1 2.792155 1_555
O23 Sr4 2.776185 1_555
O23 Sr5 2.776695 1_455
O23 Sr1 2.790385 1_455
O23 Sr0 2.792158 1_555
O24 Sr6 2.763341 1_555
O24 Sr7 2.764833 1_565
O24 Sr3 2.796187 1_565
O24 Sr2 2.796914 1_555
O25 Sr7 2.763322 1_555
O25 Sr6 2.764847 1_655
O25 Sr2 2.796187 1_655
O25 Sr3 2.796909 1_555
O26 Sr5 2.773286 1_455
O26 Sr4 2.773292 1_545
O26 Sr1 2.793324 1_455
O26 Sr0 2.793328 1_545
O27 Sr4 2.778778 1_555
O27 Sr5 2.778779 1_555
O27 Sr1 2.789283 1_555
O27 Sr0 2.789284 1_555
O28 Sr7 2.764792 1_565
O28 Sr6 2.764805 1_655
O28 Sr2 2.797341 1_655
O28 Sr3 2.797343 1_565
O29 Sr7 2.765502 1_555
O29 Sr6 2.765512 1_555
O29 Sr2 2.793130 1_555
O29 Sr3 2.793134 1_555
