# generated using pymatgen
data_HfNi2Sb
_symmetry_space_group_name_H-M   'P 1'
_cell_length_a   4.42920024
_cell_length_b   4.42920024
_cell_length_c   7.55179700
_cell_angle_alpha   90.00000000
_cell_angle_beta   90.00000000
_cell_angle_gamma   120.00000364
_symmetry_Int_Tables_number   1
_chemical_formula_structural   HfNi2Sb
_chemical_formula_sum   'Hf2 Ni4 Sb2'
_cell_volume   128.30144665
_cell_formula_units_Z   2
loop_
 _symmetry_equiv_pos_site_id
 _symmetry_equiv_pos_as_xyz
  1  'x, y, z'
loop_
 _atom_site_type_symbol
 _atom_site_label
 _atom_site_symmetry_multiplicity
 _atom_site_fract_x
 _atom_site_fract_y
 _atom_site_fract_z
 _atom_site_occupancy
  Hf  Hf0  1  0.00000000  0.00000000  0.00000000  1
  Hf  Hf1  1  0.00000000  0.00000000  0.50000000  1
  Ni  Ni0  1  0.33333300  0.66666700  0.59281500  1
  Ni  Ni1  1  0.66666700  0.33333300  0.40718500  1
  Ni  Ni2  1  0.66666700  0.33333300  0.09281500  1
  Ni  Ni3  1  0.33333300  0.66666700  0.90718500  1
  Sb  Sb0  1  0.33333300  0.66666700  0.25000000  1
  Sb  Sb1  1  0.66666700  0.33333300  0.75000000  1
loop_
_geom_bond_atom_site_label_1
_geom_bond_atom_site_label_2
_geom_bond_distance
_geom_bond_site_symmetry_2
Hf0 Ni3 2.651518 1_544
Hf0 Ni2 2.651518 1_455
Hf0 Ni2 2.651522 1_555
Hf0 Ni3 2.651522 1_554
Hf0 Ni3 2.651522 1_444
Hf0 Ni2 2.651522 1_445
Hf0 Sb0 3.178618 1_545
Hf0 Sb1 3.178618 1_454
Hf0 Sb1 3.178621 1_444
Hf0 Sb0 3.178621 1_555
Hf0 Sb0 3.178621 1_445
Hf0 Sb1 3.178621 1_554
Hf1 Ni1 2.651518 1_455
Hf1 Ni0 2.651518 1_545
Hf1 Ni0 2.651522 1_445
Hf1 Ni1 2.651522 1_555
Hf1 Ni1 2.651522 1_445
Hf1 Ni0 2.651522 1_555
Hf1 Sb0 3.178618 1_545
Hf1 Sb1 3.178618 1_455
Hf1 Sb1 3.178621 1_445
Hf1 Sb0 3.178621 1_555
Hf1 Sb0 3.178621 1_445
Hf1 Sb1 3.178621 1_555
Ni0 Ni3 2.374058 1_555
Ni0 Sb0 2.588869 1_555
Ni0 Sb1 2.819272 1_455
Ni0 Sb1 2.819272 1_565
Ni0 Sb1 2.819279 1_555
Ni1 Ni2 2.374058 1_555
Ni1 Sb1 2.588869 1_555
Ni1 Sb0 2.819272 1_545
Ni1 Sb0 2.819272 1_655
Ni1 Sb0 2.819279 1_555
Ni2 Sb1 2.588869 1_554
Ni2 Sb0 2.819272 1_545
Ni2 Sb0 2.819272 1_655
Ni2 Sb0 2.819279 1_555
Ni3 Sb0 2.588869 1_556
Ni3 Sb1 2.819272 1_455
Ni3 Sb1 2.819272 1_565
Ni3 Sb1 2.819279 1_555
