# generated using pymatgen
data_Mg6TiCO8
_symmetry_space_group_name_H-M   'P 1'
_cell_length_a   9.12217365
_cell_length_b   4.17574505
_cell_length_c   4.17574505
_cell_angle_alpha   90.00000000
_cell_angle_beta   90.00000000
_cell_angle_gamma   90.00000000
_symmetry_Int_Tables_number   1
_chemical_formula_structural   Mg6TiCO8
_chemical_formula_sum   'Mg6 Ti1 C1 O8'
_cell_volume   159.06194371
_cell_formula_units_Z   1
loop_
 _symmetry_equiv_pos_site_id
 _symmetry_equiv_pos_as_xyz
  1  'x, y, z'
loop_
 _atom_site_type_symbol
 _atom_site_label
 _atom_site_symmetry_multiplicity
 _atom_site_fract_x
 _atom_site_fract_y
 _atom_site_fract_z
 _atom_site_occupancy
  Mg  Mg0  1  -0.00000000  0.50000000  0.50000000  1
  Mg  Mg1  1  0.50000000  0.50000000  0.50000000  1
  Mg  Mg2  1  0.26838576  -0.00000000  0.50000000  1
  Mg  Mg3  1  0.73161424  0.00000000  0.50000000  1
  Mg  Mg4  1  0.26838576  0.50000000  -0.00000000  1
  Mg  Mg5  1  0.73161424  0.50000000  0.00000000  1
  Ti  Ti0  1  0.00000000  0.00000000  0.00000000  1
  C  C0  1  0.50000000  0.00000000  0.00000000  1
  O  O0  1  0.21441344  -0.00000000  0.00000000  1
  O  O1  1  0.78558656  0.00000000  -0.00000000  1
  O  O2  1  0.25643992  0.50000000  0.50000000  1
  O  O3  1  0.74356008  0.50000000  0.50000000  1
  O  O4  1  0.00000000  0.00000000  0.50000000  1
  O  O5  1  0.50000000  0.00000000  0.50000000  1
  O  O6  1  -0.00000000  0.50000000  0.00000000  1
  O  O7  1  0.50000000  0.50000000  0.00000000  1
loop_
_geom_bond_atom_site_label_1
_geom_bond_atom_site_label_2
_geom_bond_distance
_geom_bond_site_symmetry_2
Mg0 O4 2.087873 1_565
Mg0 O6 2.087873 1_556
Mg0 O6 2.087873 1_555
Mg0 O4 2.087873 1_555
Mg0 O2 2.339289 1_555
Mg0 O3 2.339289 1_455
Mg1 O5 2.087873 1_555
Mg1 O5 2.087873 1_565
Mg1 O7 2.087873 1_555
Mg1 O7 2.087873 1_556
Mg1 O3 2.221797 1_555
Mg1 O2 2.221797 1_555
Mg2 O2 2.090714 1_555
Mg2 O2 2.090714 1_545
Mg2 O5 2.112825 1_555
Mg2 O0 2.145138 1_555
Mg2 O0 2.145138 1_556
Mg2 O4 2.448262 1_555
Mg3 O3 2.090714 1_545
Mg3 O3 2.090714 1_555
Mg3 O5 2.112825 1_555
Mg3 O1 2.145138 1_555
Mg3 O1 2.145138 1_556
Mg3 O4 2.448262 1_655
Mg4 O2 2.090714 1_554
Mg4 O2 2.090714 1_555
Mg4 O7 2.112825 1_555
Mg4 O0 2.145138 1_555
Mg4 O0 2.145138 1_565
Mg4 O6 2.448262 1_555
Mg5 O3 2.090714 1_555
Mg5 O3 2.090714 1_554
Mg5 O7 2.112825 1_555
Mg5 O1 2.145138 1_555
Mg5 O1 2.145138 1_565
Mg5 O6 2.448262 1_655
C0 O7 2.087873 1_555
C0 O5 2.087873 1_554
C0 O5 2.087873 1_555
C0 O7 2.087873 1_545
O0 Ti0 1.955917 1_555
O1 Ti0 1.955917 1_655
O4 Ti0 2.087873 1_556
O4 Ti0 2.087873 1_555
O6 Ti0 2.087873 1_555
O6 Ti0 2.087873 1_565
