# generated using pymatgen
data_Li4TiCu3(PO4)4
_symmetry_space_group_name_H-M   'P 1'
_cell_length_a   6.05907300
_cell_length_b   4.81568600
_cell_length_c   10.36313943
_cell_angle_alpha   89.38117644
_cell_angle_beta   90.00000000
_cell_angle_gamma   90.00000000
_symmetry_Int_Tables_number   1
_chemical_formula_structural   Li4TiCu3(PO4)4
_chemical_formula_sum   'Li4 Ti1 Cu3 P4 O16'
_cell_volume   302.36419141
_cell_formula_units_Z   1
loop_
 _symmetry_equiv_pos_site_id
 _symmetry_equiv_pos_as_xyz
  1  'x, y, z'
loop_
 _atom_site_type_symbol
 _atom_site_label
 _atom_site_symmetry_multiplicity
 _atom_site_fract_x
 _atom_site_fract_y
 _atom_site_fract_z
 _atom_site_occupancy
  Li  Li0  1  0.26435000  0.99033900  0.01265600  1
  Li  Li1  1  0.73565000  0.99033900  0.01265600  1
  Li  Li2  1  0.73939700  0.49874200  0.48757400  1
  Li  Li3  1  0.26060300  0.49874200  0.48757400  1
  Ti  Ti0  1  0.00000000  0.01039400  0.71765600  1
  Cu  Cu0  1  0.50000000  0.99340000  0.27948000  1
  Cu  Cu1  1  0.50000000  0.54026900  0.78824600  1
  Cu  Cu2  1  0.00000000  0.46411800  0.21601900  1
  P  P0  1  0.00000000  0.92461200  0.40787700  1
  P  P1  1  0.00000000  0.59306100  0.89797100  1
  P  P2  1  0.50000000  0.41449400  0.09195800  1
  P  P3  1  0.50000000  0.06872300  0.59889700  1
  O  O0  1  0.00000000  0.80955800  0.55645800  1
  O  O1  1  0.20795500  0.79042700  0.34684600  1
  O  O2  1  0.79204500  0.79042700  0.34684600  1
  O  O3  1  0.50000000  0.75019800  0.59847200  1
  O  O4  1  0.50000000  0.73294900  0.08808200  1
  O  O5  1  0.19580700  0.74325300  0.82298700  1
  O  O6  1  0.80419300  0.74325300  0.82298700  1
  O  O7  1  0.00000000  0.69771800  0.03698500  1
  O  O8  1  0.50000000  0.29103600  0.95214700  1
  O  O9  1  0.70388000  0.27978500  0.16388700  1
  O  O10  1  0.29612000  0.27978500  0.16388700  1
  O  O11  1  0.00000000  0.27654800  0.88076600  1
  O  O12  1  0.00000000  0.24377500  0.41097700  1
  O  O13  1  0.71341500  0.18325200  0.67156300  1
  O  O14  1  0.28658500  0.18325200  0.67156300  1
  O  O15  1  0.50000000  0.21755100  0.46698000  1
loop_
_geom_bond_atom_site_label_1
_geom_bond_atom_site_label_2
_geom_bond_distance
_geom_bond_site_symmetry_2
Li0 O4 2.040859 1_555
Li0 O10 2.117392 1_565
Li0 O8 2.123476 1_564
Li0 O7 2.146427 1_555
Li0 O5 2.345695 1_554
Li0 O11 2.508509 1_564
Li1 O4 2.040859 1_555
Li1 O9 2.117392 1_565
Li1 O8 2.123476 1_564
Li1 O7 2.146427 1_655
Li1 O6 2.345695 1_554
Li1 O11 2.508509 1_664
Li2 O15 1.997366 1_555
Li2 O2 2.038988 1_555
Li2 O12 2.156855 1_655
Li2 O3 2.218382 1_555
Li2 O0 2.294850 1_655
Li2 O13 2.430227 1_555
Li3 O15 1.997366 1_555
Li3 O1 2.038988 1_555
Li3 O12 2.156855 1_555
Li3 O3 2.218382 1_555
Li3 O0 2.294850 1_555
Li3 O14 2.430227 1_555
Cu0 O1 2.135243 1_555
Cu0 O2 2.135243 1_555
Cu0 O10 2.197122 1_565
Cu0 O9 2.197122 1_565
Cu0 O15 2.232956 1_565
Cu0 O4 2.358196 1_555
Cu1 O8 2.069181 1_555
Cu1 O6 2.118929 1_555
Cu1 O5 2.118929 1_555
Cu1 O3 2.201547 1_555
Cu1 O13 2.476915 1_555
Cu1 O14 2.476915 1_555
Cu2 O9 2.075915 1_455
Cu2 O10 2.075915 1_555
Cu2 O7 2.159341 1_555
Cu2 O12 2.271905 1_555
Cu2 O2 2.437436 1_455
Cu2 O1 2.437436 1_555
O0 P0 1.630778 1_555
O0 Ti0 1.939312 1_565
O1 P0 1.553722 1_555
O2 P0 1.553722 1_655
O3 P3 1.533970 1_565
O4 P2 1.533671 1_555
O5 P1 1.588204 1_555
O5 Ti0 2.055172 1_565
O6 P1 1.588204 1_655
O6 Ti0 2.055172 1_665
O7 P1 1.531367 1_554
O8 P2 1.572048 1_556
O9 P2 1.578622 1_555
O10 P2 1.578622 1_555
O11 P1 1.536532 1_555
O11 Ti0 2.132325 1_555
O12 P0 1.537671 1_545
O13 P3 1.597606 1_555
O13 Ti0 1.981852 1_655
O14 P3 1.597606 1_555
O14 Ti0 1.981852 1_555
O15 P3 1.536685 1_555
