# generated using pymatgen
data_Pr6Ni20P13
_symmetry_space_group_name_H-M   'P 1'
_cell_length_a   12.74620935
_cell_length_b   12.74624967
_cell_length_c   3.84907211
_cell_angle_alpha   90.00000000
_cell_angle_beta   90.00000000
_cell_angle_gamma   119.99669812
_symmetry_Int_Tables_number   1
_chemical_formula_structural   Pr6Ni20P13
_chemical_formula_sum   'Pr6 Ni20 P13'
_cell_volume   541.58246695
_cell_formula_units_Z   1
loop_
 _symmetry_equiv_pos_site_id
 _symmetry_equiv_pos_as_xyz
  1  'x, y, z'
loop_
 _atom_site_type_symbol
 _atom_site_label
 _atom_site_symmetry_multiplicity
 _atom_site_fract_x
 _atom_site_fract_y
 _atom_site_fract_z
 _atom_site_occupancy
  Pr  Pr0  1  0.18473321  0.46689707  0.00000000  1
  Pr  Pr1  1  0.53311222  0.71781994  0.00000000  1
  Pr  Pr2  1  0.28219526  0.81528494  0.00000000  1
  Pr  Pr3  1  0.71802743  0.18425739  0.50000000  1
  Pr  Pr4  1  0.81572398  0.53377274  0.50000000  1
  Pr  Pr5  1  0.46623259  0.28198197  0.50000000  1
  Ni  Ni0  1  0.08662456  0.19180292  0.00000000  1
  Ni  Ni1  1  0.80814535  0.89471933  -0.00000000  1
  Ni  Ni2  1  0.10524805  0.91350443  -0.00000000  1
  Ni  Ni3  1  0.33340327  0.66667695  0.50000000  1
  Ni  Ni4  1  0.92538198  0.06752335  0.50000000  1
  Ni  Ni5  1  0.93236878  0.85781658  0.50000000  1
  Ni  Ni6  1  0.14223040  0.07466640  0.50000000  1
  Ni  Ni7  1  0.66659530  0.33332509  0.00000000  1
  Ni  Ni8  1  0.41394537  0.43832093  0.00000000  1
  Ni  Ni9  1  0.56168234  0.97559022  -0.00000000  1
  Ni  Ni10  1  0.02438782  0.58609579  -0.00000000  1
  Ni  Ni11  1  0.23882359  0.30868648  0.50000000  1
  Ni  Ni12  1  0.69132417  0.93004294  0.50000000  1
  Ni  Ni13  1  0.06992484  0.76130708  0.50000000  1
  Ni  Ni14  1  0.43298145  0.02588027  0.50000000  1
  Ni  Ni15  1  0.97413291  0.40705671  0.50000000  1
  Ni  Ni16  1  0.59286720  0.56703020  0.50000000  1
  Ni  Ni17  1  0.92163254  0.23816043  0.00000000  1
  Ni  Ni18  1  0.76169347  0.68340909  -0.00000000  1
  Ni  Ni19  1  0.31662272  0.07839912  0.00000000  1
  P  P0  1  0.38694195  0.51777614  0.50000000  1
  P  P1  1  0.48222419  0.86915964  0.50000000  1
  P  P2  1  0.13083005  0.61305099  0.50000000  1
  P  P3  1  0.03813998  0.26935768  0.50000000  1
  P  P4  1  0.73065353  0.76878968  0.50000000  1
  P  P5  1  0.23122642  0.96187155  0.50000000  1
  P  P6  1  0.51782197  0.13163298  -0.00000000  1
  P  P7  1  0.86835820  0.38618705  0.00000000  1
  P  P8  1  0.61380991  0.48217786  0.00000000  1
  P  P9  1  0.76326598  0.03984252  -0.00000000  1
  P  P10  1  0.96013515  0.72343532  0.00000000  1
  P  P11  1  0.27655619  0.23669372  0.00000000  1
  P  P12  1  -0.00000532  -0.00000048  0.00000000  1
loop_
_geom_bond_atom_site_label_1
_geom_bond_atom_site_label_2
_geom_bond_distance
_geom_bond_site_symmetry_2
Ni0 P12 2.120596 1_555
Ni0 P11 2.191602 1_555
Ni0 P3 2.381974 1_554
Ni0 P3 2.381974 1_555
Ni0 Pr0 3.078046 1_555
Ni1 P12 2.121169 1_665
Ni1 P9 2.192475 1_565
Ni1 P4 2.381305 1_555
Ni1 P4 2.381305 1_554
Ni1 Pr1 3.077314 1_555
Ni2 P12 2.119965 1_565
Ni2 P10 2.193142 1_455
Ni2 P5 2.381699 1_554
Ni2 P5 2.381699 1_555
Ni2 Pr2 3.078557 1_555
Ni3 P0 2.315785 1_555
Ni3 P1 2.316040 1_555
Ni3 P2 2.317201 1_555
Ni3 Pr1 2.991539 1_556
Ni3 Pr1 2.991539 1_555
Ni3 Pr2 2.992336 1_556
Ni3 Pr2 2.992336 1_555
Ni3 Pr0 2.992355 1_555
Ni3 Pr0 2.992355 1_556
Ni4 P3 2.233152 1_655
Ni4 P12 2.483446 1_655
Ni4 P12 2.483446 1_656
Ni4 P9 2.714626 1_555
Ni4 P9 2.714626 1_556
Ni5 P4 2.231808 1_555
Ni5 P12 2.483801 1_665
Ni5 P12 2.483801 1_666
Ni5 P10 2.714613 1_555
Ni5 P10 2.714613 1_556
Ni6 P5 2.232602 1_545
Ni6 P12 2.484189 1_555
Ni6 P12 2.484189 1_556
Ni6 P11 2.713827 1_556
Ni6 P11 2.713827 1_555
Ni7 P8 2.308439 1_555
Ni7 P6 2.308787 1_555
Ni7 P7 2.309778 1_555
Ni7 Pr5 2.997196 1_554
Ni7 Pr5 2.997196 1_555
Ni7 Pr4 2.998122 1_555
Ni7 Pr4 2.998122 1_554
Ni7 Pr3 2.998215 1_554
Ni7 Pr3 2.998215 1_555
Ni8 P11 2.274077 1_555
Ni8 P0 2.279589 1_555
Ni8 P0 2.279589 1_554
Ni8 P8 2.319133 1_555
Ni8 Pr5 3.073591 1_554
Ni8 Pr5 3.073591 1_555
Ni8 Pr1 3.096493 1_555
Ni8 Pr0 3.119677 1_555
Ni9 P9 2.273453 1_565
Ni9 P1 2.279499 1_555
Ni9 P1 2.279499 1_554
Ni9 P6 2.319553 1_565
Ni9 Pr3 3.073998 1_565
Ni9 Pr3 3.073998 1_564
Ni9 Pr2 3.096360 1_555
Ni9 Pr1 3.119526 1_555
Ni10 P10 2.273484 1_455
Ni10 P2 2.279587 1_555
Ni10 P2 2.279587 1_554
Ni10 P7 2.319682 1_455
Ni10 Pr4 3.073901 1_454
Ni10 Pr4 3.073901 1_455
Ni10 Pr0 3.096835 1_555
Ni10 Pr2 3.119873 1_555
Ni11 P11 2.284404 1_555
Ni11 P11 2.284404 1_556
Ni11 P3 2.347822 1_555
Ni11 P0 2.374040 1_555
Ni11 Pr5 3.082903 1_555
Ni11 Pr0 3.104193 1_555
Ni11 Pr0 3.104193 1_556
Ni12 P9 2.284769 1_565
Ni12 P9 2.284769 1_566
Ni12 P4 2.346513 1_555
Ni12 P1 2.374360 1_555
Ni12 Pr3 3.084234 1_565
Ni12 Pr1 3.103763 1_555
Ni12 Pr1 3.103763 1_556
Ni13 P10 2.284673 1_455
Ni13 P10 2.284673 1_456
Ni13 P5 2.346699 1_555
Ni13 P2 2.374977 1_555
Ni13 Pr4 3.084384 1_455
Ni13 Pr2 3.104251 1_556
Ni13 Pr2 3.104251 1_555
Ni14 P5 2.276168 1_545
Ni14 P6 2.287510 1_556
Ni14 P6 2.287510 1_555
Ni14 P1 2.374457 1_545
Ni14 Pr2 3.073211 1_546
Ni14 Pr2 3.073211 1_545
Ni14 Pr5 3.074434 1_555
Ni14 Pr3 3.153091 1_555
Ni15 P3 2.275507 1_655
Ni15 P7 2.287730 1_556
Ni15 P7 2.287730 1_555
Ni15 P2 2.374777 1_655
Ni15 Pr0 3.073128 1_655
Ni15 Pr0 3.073128 1_656
Ni15 Pr3 3.074328 1_555
Ni15 Pr4 3.153791 1_555
Ni16 P4 2.276375 1_555
Ni16 P8 2.287690 1_556
Ni16 P8 2.287690 1_555
Ni16 P0 2.373997 1_555
Ni16 Pr1 3.072750 1_556
Ni16 Pr1 3.072750 1_555
Ni16 Pr4 3.074510 1_555
Ni16 Pr5 3.153131 1_555
Ni17 P7 2.302638 1_555
Ni17 P9 2.315686 1_555
Ni17 P3 2.340259 1_655
Ni17 P3 2.340259 1_654
Ni17 Pr3 3.021265 1_555
Ni17 Pr3 3.021265 1_554
Ni17 Pr0 3.157558 1_655
Ni18 P8 2.301667 1_555
Ni18 P10 2.316835 1_555
Ni18 P4 2.339927 1_555
Ni18 P4 2.339927 1_554
Ni18 Pr4 3.021477 1_554
Ni18 Pr4 3.021477 1_555
Ni18 Pr1 3.155772 1_555
Ni19 P6 2.301579 1_555
Ni19 P11 2.315617 1_555
Ni19 P5 2.340548 1_545
Ni19 P5 2.340548 1_544
Ni19 Pr5 3.020931 1_555
Ni19 Pr5 3.020931 1_554
Ni19 Pr2 3.157287 1_545
P0 Pr1 2.987716 1_555
P0 Pr1 2.987716 1_556
P0 Pr0 3.015967 1_556
P0 Pr0 3.015967 1_555
P1 Pr2 2.987519 1_556
P1 Pr2 2.987519 1_555
P1 Pr1 3.016081 1_556
P1 Pr1 3.016081 1_555
P2 Pr0 2.987666 1_555
P2 Pr0 2.987666 1_556
P2 Pr2 3.016295 1_555
P2 Pr2 3.016295 1_556
P3 Pr0 2.971648 1_556
P3 Pr0 2.971648 1_555
P4 Pr1 2.971548 1_556
P4 Pr1 2.971548 1_555
P5 Pr2 2.971640 1_556
P5 Pr2 2.971640 1_555
P6 Pr3 2.992362 1_555
P6 Pr3 2.992362 1_554
P6 Pr5 3.011445 1_554
P6 Pr5 3.011445 1_555
P7 Pr4 2.992429 1_554
P7 Pr4 2.992429 1_555
P7 Pr3 3.011439 1_554
P7 Pr3 3.011439 1_555
P8 Pr5 2.992343 1_554
P8 Pr5 2.992343 1_555
P8 Pr4 3.011243 1_554
P8 Pr4 3.011243 1_555
P9 Pr3 2.913072 1_554
P9 Pr3 2.913072 1_555
P10 Pr4 2.913216 1_554
P10 Pr4 2.913216 1_555
P11 Pr5 2.913186 1_554
P11 Pr5 2.913186 1_555
