# generated using pymatgen
data_Sc7NiBr12
_symmetry_space_group_name_H-M   'P 1'
_cell_length_a   8.65525962
_cell_length_b   8.65536533
_cell_length_c   8.65515536
_cell_angle_alpha   107.35579108
_cell_angle_beta   107.35682378
_cell_angle_gamma   107.35620704
_symmetry_Int_Tables_number   1
_chemical_formula_structural   Sc7NiBr12
_chemical_formula_sum   'Sc7 Ni1 Br12'
_cell_volume   534.65560686
_cell_formula_units_Z   1
loop_
 _symmetry_equiv_pos_site_id
 _symmetry_equiv_pos_as_xyz
  1  'x, y, z'
loop_
 _atom_site_type_symbol
 _atom_site_label
 _atom_site_symmetry_multiplicity
 _atom_site_fract_x
 _atom_site_fract_y
 _atom_site_fract_z
 _atom_site_occupancy
  Sc  Sc0  1  0.50000224  0.50000259  0.50000330  1
  Sc  Sc1  1  0.10206576  0.03051821  0.30729734  1
  Sc  Sc2  1  0.03051967  0.30729950  0.10206240  1
  Sc  Sc3  1  0.30729820  0.10206043  0.03051831  1
  Sc  Sc4  1  0.89793842  0.96948144  0.69270157  1
  Sc  Sc5  1  0.96948469  0.69270286  0.89794474  1
  Sc  Sc6  1  0.69270507  0.89793801  0.96947745  1
  Ni  Ni0  1  0.00000154  -0.00000013  -0.00000069  1
  Br  Br0  1  0.07435591  0.68277014  0.22254581  1
  Br  Br1  1  0.68279489  0.22254733  0.07437233  1
  Br  Br2  1  0.22253935  0.07435649  0.68277830  1
  Br  Br3  1  0.92562183  0.31720579  0.77744587  1
  Br  Br4  1  0.31720585  0.77745350  0.92562686  1
  Br  Br5  1  0.77746288  0.92566421  0.31720141  1
  Br  Br6  1  0.46288356  0.15566691  0.38626017  1
  Br  Br7  1  0.15567291  0.38625950  0.46288316  1
  Br  Br8  1  0.38626069  0.46287442  0.15565848  1
  Br  Br9  1  0.53711522  0.84433636  0.61373919  1
  Br  Br10  1  0.84433458  0.61373496  0.53713799  1
  Br  Br11  1  0.61373576  0.53712447  0.84434503  1
loop_
_geom_bond_atom_site_label_1
_geom_bond_atom_site_label_2
_geom_bond_distance
_geom_bond_site_symmetry_2
Ni0 Sc4 2.442127 1_444
Ni0 Sc1 2.442130 1_555
Ni0 Sc6 2.442145 1_444
Ni0 Sc3 2.442155 1_555
Ni0 Sc5 2.442201 1_444
Ni0 Sc2 2.442220 1_555
Br0 Sc5 2.719112 1_454
Br0 Sc1 2.793229 1_565
Br0 Sc2 2.966350 1_555
Br1 Sc6 2.719181 1_544
Br1 Sc2 2.793043 1_655
Br1 Sc3 2.966471 1_555
Br2 Sc4 2.719118 1_445
Br2 Sc3 2.793088 1_556
Br2 Sc1 2.966339 1_555
Br3 Sc2 2.719146 1_656
Br3 Sc4 2.793106 1_545
Br3 Sc5 2.966496 1_555
Br4 Sc3 2.719151 1_566
Br4 Sc5 2.793035 1_455
Br4 Sc6 2.966501 1_555
Br5 Sc1 2.719055 1_665
Br5 Sc6 2.792893 1_554
Br5 Sc4 2.966552 1_555
Br6 Sc0 2.728447 1_555
Br6 Sc1 2.767668 1_555
Br6 Sc3 2.794637 1_555
Br7 Sc0 2.728349 1_555
Br7 Sc2 2.767657 1_555
Br7 Sc1 2.794719 1_555
Br8 Sc0 2.728412 1_555
Br8 Sc3 2.767686 1_555
Br8 Sc2 2.794696 1_555
Br9 Sc0 2.728447 1_555
Br9 Sc4 2.767713 1_555
Br9 Sc6 2.794626 1_555
Br10 Sc0 2.728334 1_555
Br10 Sc5 2.767530 1_555
Br10 Sc4 2.794749 1_555
Br11 Sc0 2.728403 1_555
Br11 Sc6 2.767671 1_555
Br11 Sc5 2.794751 1_555
