# generated using pymatgen
data_La2Ga10Ni
_symmetry_space_group_name_H-M   'P 1'
_cell_length_a   13.51326888
_cell_length_b   13.51326888
_cell_length_c   13.51326888
_cell_angle_alpha   161.28933979
_cell_angle_beta   161.28933979
_cell_angle_gamma   26.58118583
_symmetry_Int_Tables_number   1
_chemical_formula_structural   La2Ga10Ni
_chemical_formula_sum   'La2 Ga10 Ni1'
_cell_volume   253.84040674
_cell_formula_units_Z   1
loop_
 _symmetry_equiv_pos_site_id
 _symmetry_equiv_pos_as_xyz
  1  'x, y, z'
loop_
 _atom_site_type_symbol
 _atom_site_label
 _atom_site_symmetry_multiplicity
 _atom_site_fract_x
 _atom_site_fract_y
 _atom_site_fract_z
 _atom_site_occupancy
  La  La0  1  0.64535000  0.64535000  0.00000000  1
  La  La1  1  0.35465000  0.35465000  0.00000000  1
  Ga  Ga0  1  0.75000000  0.25000000  0.50000000  1
  Ga  Ga1  1  0.25000000  0.75000000  0.50000000  1
  Ga  Ga2  1  0.54953200  0.04953200  0.50000000  1
  Ga  Ga3  1  0.04953200  0.54953200  0.50000000  1
  Ga  Ga4  1  0.45046800  0.95046800  0.50000000  1
  Ga  Ga5  1  0.95046800  0.45046800  0.50000000  1
  Ga  Ga6  1  0.89564000  0.89564000  0.00000000  1
  Ga  Ga7  1  0.10436000  0.10436000  0.00000000  1
  Ga  Ga8  1  0.80264800  0.80264800  0.00000000  1
  Ga  Ga9  1  0.19735200  0.19735200  0.00000000  1
  Ni  Ni0  1  0.50000000  0.50000000  0.00000000  1
loop_
_geom_bond_atom_site_label_1
_geom_bond_atom_site_label_2
_geom_bond_distance
_geom_bond_site_symmetry_2
Ga0 Ga9 2.596728 1_656
Ga0 Ga9 2.596728 1_555
Ga0 Ga8 2.596728 1_556
Ga0 Ga8 2.596728 1_545
Ga0 La1 3.521653 1_656
Ga0 La0 3.521653 1_556
Ga0 La1 3.521653 1_555
Ga0 La0 3.521653 1_545
Ga1 Ga9 2.596728 1_566
Ga1 Ga9 2.596728 1_555
Ga1 Ga8 2.596728 1_455
Ga1 Ga8 2.596728 1_556
Ga1 La1 3.521653 1_566
Ga1 La0 3.521653 1_556
Ga1 La1 3.521653 1_555
Ga1 La0 3.521653 1_455
Ga2 Ni0 2.553962 1_556
Ga2 Ni0 2.553962 1_545
Ga2 Ga4 2.605648 1_545
Ga2 Ga7 2.627754 1_656
Ga2 Ga7 2.627754 1_555
Ga2 La0 3.343222 1_556
Ga2 La0 3.343222 1_545
Ga3 Ni0 2.553962 1_455
Ga3 Ni0 2.553962 1_556
Ga3 Ga5 2.605648 1_455
Ga3 Ga7 2.627754 1_566
Ga3 Ga7 2.627754 1_555
Ga3 La0 3.343222 1_556
Ga3 La0 3.343222 1_455
Ga4 Ni0 2.553962 1_555
Ga4 Ni0 2.553962 1_566
Ga4 Ga6 2.627754 1_455
Ga4 Ga6 2.627754 1_556
Ga4 La1 3.343222 1_555
Ga4 La1 3.343222 1_566
Ga5 Ni0 2.553962 1_555
Ga5 Ni0 2.553962 1_656
Ga5 Ga6 2.627754 1_556
Ga5 Ga6 2.627754 1_545
Ga5 La1 3.343222 1_555
Ga5 La1 3.343222 1_656
Ga6 Ga8 2.445938 1_555
Ga6 La1 3.288335 1_565
Ga6 La1 3.288335 1_554
Ga6 La1 3.288335 1_655
Ga6 La1 3.288335 1_666
Ga7 Ga9 2.445938 1_555
Ga7 La0 3.288335 1_556
Ga7 La0 3.288335 1_545
Ga7 La0 3.288335 1_444
Ga7 La0 3.288335 1_455
Ga8 La1 3.394348 1_565
Ga8 La1 3.394348 1_655
Ga8 La1 3.394348 1_666
Ga8 La1 3.394348 1_554
Ga9 La0 3.394348 1_545
Ga9 La0 3.394348 1_556
Ga9 La0 3.394348 1_444
Ga9 La0 3.394348 1_455
