# generated using pymatgen
data_Li9Co7O16
_symmetry_space_group_name_H-M   'P 1'
_cell_length_a   5.71868532
_cell_length_b   5.71868532
_cell_length_c   9.69787800
_cell_angle_alpha   81.11506149
_cell_angle_beta   81.11506149
_cell_angle_gamma   60.89750994
_symmetry_Int_Tables_number   1
_chemical_formula_structural   Li9Co7O16
_chemical_formula_sum   'Li9 Co7 O16'
_cell_volume   272.62926720
_cell_formula_units_Z   1
loop_
 _symmetry_equiv_pos_site_id
 _symmetry_equiv_pos_as_xyz
  1  'x, y, z'
loop_
 _atom_site_type_symbol
 _atom_site_label
 _atom_site_symmetry_multiplicity
 _atom_site_fract_x
 _atom_site_fract_y
 _atom_site_fract_z
 _atom_site_occupancy
  Li  Li0  1  0.37812700  0.86988800  0.75387000  1
  Li  Li1  1  0.62187300  0.13011200  0.24613000  1
  Li  Li2  1  0.86988800  0.37812700  0.75387000  1
  Li  Li3  1  0.87455900  0.87455900  0.75571800  1
  Li  Li4  1  0.12544100  0.12544100  0.24428200  1
  Li  Li5  1  0.37664500  0.37664500  0.75554700  1
  Li  Li6  1  0.62335500  0.62335500  0.24445300  1
  Li  Li7  1  0.13011200  0.62187300  0.24613000  1
  Li  Li8  1  0.50000000  0.50000000  0.00000000  1
  Co  Co0  1  0.00000000  0.00000000  0.00000000  1
  Co  Co1  1  0.50000000  0.00000000  0.00000000  1
  Co  Co2  1  0.25014400  0.25014400  0.49940000  1
  Co  Co3  1  0.74985600  0.74985600  0.50060000  1
  Co  Co4  1  0.75008900  0.24991100  0.50000000  1
  Co  Co5  1  0.00000000  0.50000000  0.00000000  1
  Co  Co6  1  0.24991100  0.75008900  0.50000000  1
  O  O0  1  0.16399300  0.70070800  0.89197600  1
  O  O1  1  0.43408200  0.93210000  0.38175600  1
  O  O2  1  0.70070800  0.16399300  0.89197600  1
  O  O3  1  0.69650700  0.69650700  0.89417900  1
  O  O4  1  0.92853800  0.92853800  0.38489200  1
  O  O5  1  0.18512300  0.18512300  0.89330400  1
  O  O6  1  0.42979200  0.42979200  0.38292000  1
  O  O7  1  0.93210000  0.43408200  0.38175600  1
  O  O8  1  0.56591800  0.06790000  0.61824400  1
  O  O9  1  0.83600700  0.29929200  0.10802400  1
  O  O10  1  0.06790000  0.56591800  0.61824400  1
  O  O11  1  0.07146200  0.07146200  0.61510800  1
  O  O12  1  0.30349300  0.30349300  0.10582100  1
  O  O13  1  0.57020800  0.57020800  0.61708000  1
  O  O14  1  0.81487700  0.81487700  0.10669600  1
  O  O15  1  0.29929200  0.83600700  0.10802400  1
loop_
_geom_bond_atom_site_label_1
_geom_bond_atom_site_label_2
_geom_bond_distance
_geom_bond_site_symmetry_2
Li0 O13 2.079512 1_555
Li0 O8 2.109990 1_565
Li0 O0 2.115413 1_555
Li0 O11 2.120985 1_565
Li0 O5 2.157084 1_565
Li0 O3 2.177630 1_555
Li1 O6 2.079512 1_555
Li1 O1 2.109990 1_545
Li1 O9 2.115413 1_555
Li1 O4 2.120985 1_545
Li1 O14 2.157084 1_545
Li1 O12 2.177630 1_555
Li2 O13 2.079512 1_555
Li2 O10 2.109990 1_655
Li2 O2 2.115413 1_555
Li2 O11 2.120985 1_655
Li2 O5 2.157084 1_655
Li2 O3 2.177630 1_555
Li3 O3 2.010086 1_555
Li3 O2 2.035501 1_565
Li3 O0 2.035501 1_655
Li3 O8 2.118593 1_565
Li3 O10 2.118593 1_655
Li3 O11 2.163351 1_665
Li4 O12 2.010086 1_555
Li4 O15 2.035501 1_545
Li4 O9 2.035501 1_455
Li4 O1 2.118593 1_545
Li4 O7 2.118593 1_455
Li4 O4 2.163351 1_445
Li5 O5 2.108754 1_555
Li5 O10 2.117547 1_555
Li5 O8 2.117547 1_555
Li5 O13 2.127758 1_555
Li5 O0 2.175301 1_555
Li5 O2 2.175301 1_555
Li6 O14 2.108754 1_555
Li6 O1 2.117547 1_555
Li6 O7 2.117547 1_555
Li6 O6 2.127758 1_555
Li6 O15 2.175301 1_555
Li6 O9 2.175301 1_555
Li7 O6 2.079512 1_555
Li7 O7 2.109990 1_455
Li7 O15 2.115413 1_555
Li7 O4 2.120985 1_455
Li7 O14 2.157084 1_455
Li7 O12 2.177630 1_555
Li8 O3 2.023559 1_554
Li8 O12 2.023559 1_555
Li8 O2 2.052345 1_554
Li8 O15 2.052345 1_555
Li8 O0 2.052345 1_554
Li8 O9 2.052345 1_555
Co0 O15 1.896155 1_545
Co0 O0 1.896155 1_544
Co0 O9 1.896155 1_455
Co0 O2 1.896155 1_454
Co0 O5 1.930192 1_554
Co0 O14 1.930192 1_445
Co1 O12 1.903936 1_555
Co1 O3 1.903936 1_544
Co1 O15 1.914829 1_545
Co1 O2 1.914829 1_554
Co1 O14 1.953634 1_545
Co1 O5 1.953634 1_554
Co2 O11 1.911729 1_555
Co2 O6 1.922664 1_555
Co2 O10 2.028943 1_555
Co2 O8 2.028943 1_555
Co2 O1 2.031102 1_545
Co2 O7 2.031102 1_455
Co3 O4 1.911729 1_555
Co3 O13 1.922664 1_555
Co3 O1 2.028943 1_555
Co3 O7 2.028943 1_555
Co3 O8 2.031102 1_565
Co3 O10 2.031102 1_655
Co4 O7 1.957607 1_555
Co4 O8 1.957607 1_555
Co4 O11 2.030424 1_655
Co4 O4 2.030424 1_545
Co4 O13 2.037450 1_555
Co4 O6 2.037450 1_555
Co5 O12 1.903936 1_555
Co5 O3 1.903936 1_454
Co5 O0 1.914829 1_554
Co5 O9 1.914829 1_455
Co5 O14 1.953634 1_455
Co5 O5 1.953634 1_554
Co6 O1 1.957607 1_555
Co6 O10 1.957607 1_555
Co6 O11 2.030424 1_565
Co6 O4 2.030424 1_455
Co6 O13 2.037450 1_555
Co6 O6 2.037450 1_555
