# generated using pymatgen
data_Hf2(Ni7B2)3
_symmetry_space_group_name_H-M   'P 1'
_cell_length_a   7.48123500
_cell_length_b   7.48123500
_cell_length_c   7.48123500
_cell_angle_alpha   60.00000000
_cell_angle_beta   60.00000000
_cell_angle_gamma   60.00000000
_symmetry_Int_Tables_number   1
_chemical_formula_structural   Hf2(Ni7B2)3
_chemical_formula_sum   'Hf2 Ni21 B6'
_cell_volume   296.07715098
_cell_formula_units_Z   1
loop_
 _symmetry_equiv_pos_site_id
 _symmetry_equiv_pos_as_xyz
  1  'x, y, z'
loop_
 _atom_site_type_symbol
 _atom_site_label
 _atom_site_symmetry_multiplicity
 _atom_site_fract_x
 _atom_site_fract_y
 _atom_site_fract_z
 _atom_site_occupancy
  Hf  Hf0  1  0.75000000  0.75000000  0.75000000  1
  Hf  Hf1  1  0.25000000  0.25000000  0.25000000  1
  Ni  Ni0  1  0.00000000  0.00000000  0.00000000  1
  Ni  Ni1  1  0.61395500  0.61395500  0.15813400  1
  Ni  Ni2  1  0.61395500  0.15813400  0.61395500  1
  Ni  Ni3  1  0.15813400  0.61395500  0.61395500  1
  Ni  Ni4  1  0.61395500  0.61395500  0.61395500  1
  Ni  Ni5  1  0.38604500  0.38604500  0.84186600  1
  Ni  Ni6  1  0.38604500  0.84186600  0.38604500  1
  Ni  Ni7  1  0.84186600  0.38604500  0.38604500  1
  Ni  Ni8  1  0.38604500  0.38604500  0.38604500  1
  Ni  Ni9  1  0.00000000  0.00000000  0.33946800  1
  Ni  Ni10  1  0.66053200  0.00000000  0.33946800  1
  Ni  Ni11  1  0.00000000  0.66053200  0.33946800  1
  Ni  Ni12  1  0.66053200  0.33946800  0.00000000  1
  Ni  Ni13  1  0.00000000  0.33946800  0.00000000  1
  Ni  Ni14  1  0.00000000  0.33946800  0.66053200  1
  Ni  Ni15  1  0.33946800  0.66053200  0.00000000  1
  Ni  Ni16  1  0.33946800  0.00000000  0.66053200  1
  Ni  Ni17  1  0.33946800  0.00000000  0.00000000  1
  Ni  Ni18  1  0.00000000  0.00000000  0.66053200  1
  Ni  Ni19  1  0.00000000  0.66053200  0.00000000  1
  Ni  Ni20  1  0.66053200  0.00000000  0.00000000  1
  B  B0  1  0.73251600  0.73251600  0.26748400  1
  B  B1  1  0.26748400  0.73251600  0.26748400  1
  B  B2  1  0.73251600  0.26748400  0.26748400  1
  B  B3  1  0.26748400  0.26748400  0.73251600  1
  B  B4  1  0.73251600  0.26748400  0.73251600  1
  B  B5  1  0.26748400  0.73251600  0.73251600  1
loop_
_geom_bond_atom_site_label_1
_geom_bond_atom_site_label_2
_geom_bond_distance
_geom_bond_site_symmetry_2
Hf0 Ni2 2.493047 1_565
Hf0 Ni1 2.493047 1_556
Hf0 Ni3 2.493047 1_655
Hf0 Ni4 2.493053 1_555
Hf0 Ni14 2.904902 1_655
Hf0 Ni17 2.904902 1_566
Hf0 Ni18 2.904902 1_665
Hf0 Ni11 2.904902 1_655
Hf0 Ni19 2.904902 1_656
Hf0 Ni9 2.904902 1_665
Hf0 Ni15 2.904902 1_556
Hf0 Ni12 2.904902 1_556
Hf0 Ni16 2.904902 1_565
Hf0 Ni13 2.904902 1_656
Hf0 Ni10 2.904902 1_565
Hf0 Ni20 2.904902 1_566
Hf1 Ni6 2.493047 1_545
Hf1 Ni7 2.493047 1_455
Hf1 Ni5 2.493047 1_554
Hf1 Ni8 2.493053 1_555
Hf1 Ni9 2.904902 1_555
Hf1 Ni18 2.904902 1_555
Hf1 Ni15 2.904902 1_555
Hf1 Ni12 2.904902 1_555
Hf1 Ni19 2.904902 1_555
Hf1 Ni13 2.904902 1_555
Hf1 Ni10 2.904902 1_555
Hf1 Ni16 2.904902 1_555
Hf1 Ni20 2.904902 1_555
Hf1 Ni14 2.904902 1_555
Hf1 Ni11 2.904902 1_555
Hf1 Ni17 2.904902 1_555
Ni0 Ni20 2.539640 1_455
Ni0 Ni16 2.539640 1_554
Ni0 Ni11 2.539640 1_545
Ni0 Ni9 2.539640 1_555
Ni0 Ni17 2.539640 1_555
Ni0 Ni15 2.539640 1_545
Ni0 Ni12 2.539640 1_455
Ni0 Ni14 2.539640 1_554
Ni0 Ni10 2.539640 1_455
Ni0 Ni13 2.539640 1_555
Ni0 Ni19 2.539640 1_545
Ni0 Ni18 2.539640 1_554
B0 Ni19 2.072307 1_655
B0 Ni20 2.072307 1_565
B0 Ni11 2.072307 1_655
B0 Ni10 2.072307 1_565
B0 Ni6 2.116758 1_555
B0 Ni7 2.116758 1_555
B0 Ni4 2.116758 1_555
B0 Ni1 2.116764 1_555
B1 Ni11 2.072307 1_555
B1 Ni15 2.072307 1_555
B1 Ni17 2.072307 1_565
B1 Ni9 2.072307 1_565
B1 Ni3 2.116758 1_555
B1 Ni1 2.116758 1_555
B1 Ni8 2.116758 1_555
B1 Ni6 2.116764 1_555
B2 Ni10 2.072307 1_555
B2 Ni12 2.072307 1_555
B2 Ni9 2.072307 1_655
B2 Ni13 2.072307 1_655
B2 Ni1 2.116758 1_555
B2 Ni2 2.116758 1_555
B2 Ni8 2.116758 1_555
B2 Ni7 2.116764 1_555
B3 Ni14 2.072307 1_555
B3 Ni16 2.072307 1_555
B3 Ni13 2.072307 1_556
B3 Ni17 2.072307 1_556
B3 Ni3 2.116758 1_555
B3 Ni2 2.116758 1_555
B3 Ni8 2.116758 1_555
B3 Ni5 2.116764 1_555
B4 Ni18 2.072307 1_655
B4 Ni20 2.072307 1_556
B4 Ni12 2.072307 1_556
B4 Ni14 2.072307 1_655
B4 Ni7 2.116758 1_555
B4 Ni5 2.116758 1_555
B4 Ni4 2.116758 1_555
B4 Ni2 2.116764 1_555
B5 Ni19 2.072307 1_556
B5 Ni18 2.072307 1_565
B5 Ni16 2.072307 1_565
B5 Ni15 2.072307 1_556
B5 Ni6 2.116758 1_555
B5 Ni5 2.116758 1_555
B5 Ni4 2.116758 1_555
B5 Ni3 2.116764 1_555
