# generated using pymatgen
data_BaN6O
_symmetry_space_group_name_H-M   'P 1'
_cell_length_a   6.73706961
_cell_length_b   6.73706961
_cell_length_c   7.09376236
_cell_angle_alpha   79.42799166
_cell_angle_beta   79.42799166
_cell_angle_gamma   118.96322523
_symmetry_Int_Tables_number   1
_chemical_formula_structural   BaN6O
_chemical_formula_sum   'Ba2 N12 O2'
_cell_volume   262.67490724
_cell_formula_units_Z   2
loop_
 _symmetry_equiv_pos_site_id
 _symmetry_equiv_pos_as_xyz
  1  'x, y, z'
loop_
 _atom_site_type_symbol
 _atom_site_label
 _atom_site_symmetry_multiplicity
 _atom_site_fract_x
 _atom_site_fract_y
 _atom_site_fract_z
 _atom_site_occupancy
  Ba  Ba0  1  0.31697300  0.61074000  0.76292900  1
  Ba  Ba1  1  0.61074000  0.31697300  0.26292900  1
  N  N0  1  0.23292800  0.72988700  0.25187500  1
  N  N1  1  0.72988700  0.23292800  0.75187500  1
  N  N2  1  0.12598000  0.64878300  0.14315300  1
  N  N3  1  0.64878300  0.12598000  0.64315300  1
  N  N4  1  0.81294700  0.33995200  0.86103200  1
  N  N5  1  0.33995200  0.81294700  0.36103200  1
  N  N6  1  0.91550400  0.87059700  0.85652500  1
  N  N7  1  0.87059700  0.91550400  0.35652500  1
  N  N8  1  0.12138000  0.96934800  0.76096800  1
  N  N9  1  0.96934800  0.12138000  0.26096800  1
  N  N10  1  0.76580800  0.71166900  0.45564700  1
  N  N11  1  0.71166900  0.76580800  0.95564700  1
  O  O0  1  0.24178900  0.30091700  0.52617100  1
  O  O1  1  0.30091700  0.24178900  0.02617100  1
loop_
_geom_bond_atom_site_label_1
_geom_bond_atom_site_label_2
_geom_bond_distance
_geom_bond_site_symmetry_2
Ba0 O1 2.763966 1_556
Ba0 O0 2.829963 1_555
Ba0 N4 2.830256 1_455
Ba0 N5 2.866430 1_555
Ba0 N2 2.880263 1_556
Ba0 N3 2.911009 1_565
Ba0 N11 3.032933 1_555
Ba0 N10 3.066521 1_555
Ba0 N8 3.263612 1_555
Ba1 O0 2.763966 1_555
Ba1 O1 2.829963 1_555
Ba1 N5 2.830256 1_545
Ba1 N4 2.866430 1_554
Ba1 N3 2.880263 1_555
Ba1 N2 2.911009 1_655
Ba1 N10 3.032933 1_555
Ba1 N11 3.066521 1_554
Ba1 N9 3.263612 1_555
N0 N2 1.178888 1_555
N0 N5 1.185626 1_555
N1 N3 1.178888 1_555
N1 N4 1.185626 1_555
N6 N8 1.192355 1_655
N7 N9 1.192355 1_565
N10 N7 1.184579 1_555
N11 N6 1.184579 1_555
