# generated using pymatgen
data_BaSrBiSbO6
_symmetry_space_group_name_H-M   'P 1'
_cell_length_a   6.05249504
_cell_length_b   6.08677075
_cell_length_c   8.57325756
_cell_angle_alpha   89.68050432
_cell_angle_beta   90.40603800
_cell_angle_gamma   89.86313695
_symmetry_Int_Tables_number   1
_chemical_formula_structural   BaSrBiSbO6
_chemical_formula_sum   'Ba2 Sr2 Bi2 Sb2 O12'
_cell_volume   315.82632062
_cell_formula_units_Z   2
loop_
 _symmetry_equiv_pos_site_id
 _symmetry_equiv_pos_as_xyz
  1  'x, y, z'
loop_
 _atom_site_type_symbol
 _atom_site_label
 _atom_site_symmetry_multiplicity
 _atom_site_fract_x
 _atom_site_fract_y
 _atom_site_fract_z
 _atom_site_occupancy
  Ba  Ba0  1  0.99472865  0.02753218  0.25010456  1
  Ba  Ba1  1  0.00527135  0.97246782  0.74989544  1
  Sr  Sr0  1  0.50800335  0.53663337  0.24791808  1
  Sr  Sr1  1  0.49199665  0.46336663  0.75208192  1
  Bi  Bi0  1  0.00000000  0.50000000  -0.00000000  1
  Bi  Bi1  1  0.50000000  0.00000000  0.50000000  1
  Sb  Sb0  1  0.50000000  0.00000000  -0.00000000  1
  Sb  Sb1  1  0.00000000  0.50000000  0.50000000  1
  O  O0  1  0.23570428  0.20021754  0.96748240  1
  O  O1  1  0.26710134  0.69444442  0.54544755  1
  O  O2  1  0.76429572  0.79978246  0.03251760  1
  O  O3  1  0.73289866  0.30555558  0.45455245  1
  O  O4  1  0.31229088  0.72753257  0.95643321  1
  O  O5  1  0.19777883  0.23624423  0.54023164  1
  O  O6  1  0.68770912  0.27246743  0.04356679  1
  O  O7  1  0.80222117  0.76375577  0.45976836  1
  O  O8  1  0.43579981  0.96430070  0.23092354  1
  O  O9  1  0.08644378  0.49238502  0.27014769  1
  O  O10  1  0.56420019  0.03569930  0.76907646  1
  O  O11  1  0.91355622  0.50761498  0.72985231  1
loop_
_geom_bond_atom_site_label_1
_geom_bond_atom_site_label_2
_geom_bond_distance
_geom_bond_site_symmetry_2
Ba0 O7 2.678209 1_545
Ba0 O8 2.702564 1_645
Ba0 O2 2.710704 1_545
Ba0 O9 2.890510 1_655
Ba0 O3 2.916677 1_555
Ba0 O6 2.953267 1_555
Ba0 O0 3.021910 1_654
Ba0 O5 3.051298 1_655
Ba0 O9 3.306291 1_645
Ba1 O5 2.678209 1_565
Ba1 O10 2.702564 1_465
Ba1 O0 2.710704 1_565
Ba1 O11 2.890510 1_455
Ba1 O1 2.916677 1_555
Ba1 O4 2.953267 1_555
Ba1 O2 3.021910 1_456
Ba1 O7 3.051298 1_455
Ba1 O11 3.306291 1_465
Bi0 O0 2.332667 1_554
Bi0 O2 2.332667 1_455
Bi0 O9 2.370963 1_555
Bi0 O11 2.370963 1_454
Bi0 O4 2.376328 1_554
Bi0 O6 2.376328 1_455
Bi1 O8 2.348000 1_545
Bi1 O10 2.348000 1_555
Bi1 O7 2.352565 1_545
Bi1 O5 2.352565 1_555
Bi1 O1 2.368564 1_545
Bi1 O3 2.368564 1_555
O0 Sb0 2.025425 1_556
O0 Sr1 2.898535 1_555
O1 Sb1 2.042407 1_555
O1 Sr1 2.626462 1_555
O1 Sr0 3.102986 1_555
O2 Sb0 2.025425 1_565
O2 Sr0 2.898535 1_555
O3 Sb1 2.042407 1_655
O3 Sr0 2.626462 1_555
O3 Sr1 3.102986 1_555
O4 Sb0 2.047094 1_566
O4 Sr1 2.624470 1_555
O4 Sr0 2.986179 1_556
O5 Sb1 2.026839 1_555
O5 Sr1 2.893942 1_555
O6 Sb0 2.047094 1_555
O6 Sr0 2.624470 1_555
O6 Sr1 2.986179 1_554
O7 Sb1 2.026839 1_655
O7 Sr0 2.893942 1_555
O8 Sb0 2.030810 1_565
O8 Sr0 2.641560 1_555
O9 Sb1 2.043184 1_555
O9 Sr0 2.574597 1_555
O10 Sb0 2.030810 1_556
O10 Sr1 2.641560 1_555
O11 Sb1 2.043184 1_655
O11 Sr1 2.574597 1_555
