# generated using pymatgen
data_Sr3RuN3
_symmetry_space_group_name_H-M   'P 1'
_cell_length_a   7.78017689
_cell_length_b   7.77971544
_cell_length_c   5.29682378
_cell_angle_alpha   90.00000000
_cell_angle_beta   90.00000000
_cell_angle_gamma   120.00351038
_symmetry_Int_Tables_number   1
_chemical_formula_structural   Sr3RuN3
_chemical_formula_sum   'Sr6 Ru2 N6'
_cell_volume   277.64124074
_cell_formula_units_Z   2
loop_
 _symmetry_equiv_pos_site_id
 _symmetry_equiv_pos_as_xyz
  1  'x, y, z'
loop_
 _atom_site_type_symbol
 _atom_site_label
 _atom_site_symmetry_multiplicity
 _atom_site_fract_x
 _atom_site_fract_y
 _atom_site_fract_z
 _atom_site_occupancy
  Sr  Sr0  1  0.90748965  0.64290154  0.25000000  1
  Sr  Sr1  1  0.73531442  0.09251354  0.25000000  1
  Sr  Sr2  1  0.35722428  0.26468225  0.25000000  1
  Sr  Sr3  1  0.09249648  0.35726956  0.75000000  1
  Sr  Sr4  1  0.26484071  0.90750572  0.75000000  1
  Sr  Sr5  1  0.64266074  0.73517305  0.75000000  1
  Ru  Ru0  1  0.66670635  0.33337154  0.75000000  1
  Ru  Ru1  1  0.33328220  0.66661520  0.25000000  1
  N  N0  1  0.89153544  0.58225696  0.75000000  1
  N  N1  1  0.69070660  0.10850713  0.75000000  1
  N  N2  1  0.41784580  0.30933977  0.75000000  1
  N  N3  1  0.10874015  0.41757052  0.25000000  1
  N  N4  1  0.30884056  0.89120206  0.25000000  1
  N  N5  1  0.58231565  0.69109116  0.25000000  1
loop_
_geom_bond_atom_site_label_1
_geom_bond_atom_site_label_2
_geom_bond_distance
_geom_bond_site_symmetry_2
N0 Ru0 1.849743 1_555
N0 Sr0 2.682073 1_555
N0 Sr0 2.682073 1_556
N0 Sr5 2.732802 1_555
N0 Sr4 2.736458 1_655
N0 Sr3 2.871449 1_655
N1 Ru0 1.849835 1_555
N1 Sr1 2.682015 1_555
N1 Sr1 2.682015 1_556
N1 Sr3 2.732555 1_655
N1 Sr5 2.736723 1_545
N1 Sr4 2.870821 1_545
N2 Ru0 1.849788 1_555
N2 Sr2 2.682044 1_556
N2 Sr2 2.682044 1_555
N2 Sr4 2.732786 1_545
N2 Sr3 2.736852 1_555
N2 Sr5 2.870412 1_555
N3 Ru1 1.849514 1_555
N3 Sr3 2.681574 1_555
N3 Sr3 2.681574 1_554
N3 Sr2 2.729817 1_555
N3 Sr1 2.736433 1_455
N3 Sr0 2.875719 1_455
N4 Ru1 1.849657 1_555
N4 Sr4 2.681564 1_555
N4 Sr4 2.681564 1_554
N4 Sr0 2.729369 1_455
N4 Sr2 2.736817 1_565
N4 Sr1 2.874913 1_565
N5 Ru1 1.849671 1_555
N5 Sr5 2.681622 1_555
N5 Sr5 2.681622 1_554
N5 Sr1 2.729827 1_565
N5 Sr0 2.736708 1_555
N5 Sr2 2.874285 1_555
