# generated using pymatgen
data_NiSeO4
_symmetry_space_group_name_H-M   'P 1'
_cell_length_a   4.89335023
_cell_length_b   4.89335010
_cell_length_c   6.28119404
_cell_angle_alpha   90.00000000
_cell_angle_beta   90.00000000
_cell_angle_gamma   112.66744825
_symmetry_Int_Tables_number   1
_chemical_formula_structural   NiSeO4
_chemical_formula_sum   'Ni2 Se2 O8'
_cell_volume   138.78490608
_cell_formula_units_Z   2
loop_
 _symmetry_equiv_pos_site_id
 _symmetry_equiv_pos_as_xyz
  1  'x, y, z'
loop_
 _atom_site_type_symbol
 _atom_site_label
 _atom_site_symmetry_multiplicity
 _atom_site_fract_x
 _atom_site_fract_y
 _atom_site_fract_z
 _atom_site_occupancy
  Ni  Ni0  1  0.00000000  -0.00000000  -0.00000000  1
  Ni  Ni1  1  0.00000000  -0.00000000  0.50000000  1
  Se  Se0  1  0.35132434  0.64867766  0.75000000  1
  Se  Se1  1  0.64867666  0.35132434  0.25000000  1
  O  O0  1  0.22778444  0.27519173  0.75000000  1
  O  O1  1  0.77221556  0.72480727  0.25000000  1
  O  O2  1  0.27519073  0.22778444  0.25000000  1
  O  O3  1  0.72480727  0.77221556  0.75000000  1
  O  O4  1  0.24490580  0.75509420  0.97073644  1
  O  O5  1  0.75509320  0.24490480  0.47073544  1
  O  O6  1  0.24490580  0.75509420  0.52926456  1
  O  O7  1  0.75509320  0.24490480  0.02926356  1
loop_
_geom_bond_atom_site_label_1
_geom_bond_atom_site_label_2
_geom_bond_distance
_geom_bond_site_symmetry_2
Ni0 O4 2.003277 1_544
Ni0 O7 2.003277 1_455
Ni0 O2 2.089184 1_555
Ni0 O0 2.089186 1_554
Ni0 O1 2.089188 1_445
Ni0 O3 2.089188 1_444
Ni1 O6 2.003278 1_545
Ni1 O5 2.003278 1_455
Ni1 O2 2.089184 1_555
Ni1 O0 2.089186 1_555
Ni1 O1 2.089188 1_445
Ni1 O3 2.089188 1_445
O0 Se0 1.689379 1_555
O1 Se1 1.689365 1_555
O2 Se1 1.689379 1_555
O3 Se0 1.689366 1_555
O4 Se0 1.635143 1_555
O5 Se1 1.635140 1_555
O6 Se0 1.635138 1_555
O7 Se1 1.635145 1_555
