# generated using pymatgen
data_Mg30CuSiO32
_symmetry_space_group_name_H-M   'P 1'
_cell_length_a   8.52396381
_cell_length_b   8.52396381
_cell_length_c   8.57006597
_cell_angle_alpha   90.00000000
_cell_angle_beta   90.00000000
_cell_angle_gamma   90.00000000
_symmetry_Int_Tables_number   1
_chemical_formula_structural   Mg30CuSiO32
_chemical_formula_sum   'Mg30 Cu1 Si1 O32'
_cell_volume   622.68350217
_cell_formula_units_Z   1
loop_
 _symmetry_equiv_pos_site_id
 _symmetry_equiv_pos_as_xyz
  1  'x, y, z'
loop_
 _atom_site_type_symbol
 _atom_site_label
 _atom_site_symmetry_multiplicity
 _atom_site_fract_x
 _atom_site_fract_y
 _atom_site_fract_z
 _atom_site_occupancy
  Mg  Mg0  1  -0.00000000  0.50000000  -0.00000000  1
  Mg  Mg1  1  -0.00000000  0.50000000  0.50000000  1
  Mg  Mg2  1  0.50000000  -0.00000000  -0.00000000  1
  Mg  Mg3  1  0.50000000  -0.00000000  0.50000000  1
  Mg  Mg4  1  0.50000000  0.50000000  -0.00000000  1
  Mg  Mg5  1  0.50000000  0.50000000  0.50000000  1
  Mg  Mg6  1  -0.00000000  0.24896566  0.24530448  1
  Mg  Mg7  1  -0.00000000  0.24896566  0.75469552  1
  Mg  Mg8  1  -0.00000000  0.75103434  0.24530448  1
  Mg  Mg9  1  -0.00000000  0.75103434  0.75469552  1
  Mg  Mg10  1  0.50000000  0.24982863  0.24845711  1
  Mg  Mg11  1  0.50000000  0.24982863  0.75154289  1
  Mg  Mg12  1  0.50000000  0.75017137  0.24845711  1
  Mg  Mg13  1  0.50000000  0.75017137  0.75154289  1
  Mg  Mg14  1  0.24896566  -0.00000000  0.24530448  1
  Mg  Mg15  1  0.24896566  -0.00000000  0.75469552  1
  Mg  Mg16  1  0.24982863  0.50000000  0.24845711  1
  Mg  Mg17  1  0.24982863  0.50000000  0.75154289  1
  Mg  Mg18  1  0.75103434  -0.00000000  0.24530448  1
  Mg  Mg19  1  0.75103434  -0.00000000  0.75469552  1
  Mg  Mg20  1  0.75017137  0.50000000  0.24845711  1
  Mg  Mg21  1  0.75017137  0.50000000  0.75154289  1
  Mg  Mg22  1  0.24802222  0.24802222  -0.00000000  1
  Mg  Mg23  1  0.25065527  0.25065527  0.50000000  1
  Mg  Mg24  1  0.24802222  0.75197778  0.00000000  1
  Mg  Mg25  1  0.25065527  0.74934473  0.50000000  1
  Mg  Mg26  1  0.75197778  0.24802222  -0.00000000  1
  Mg  Mg27  1  0.74934473  0.25065527  0.50000000  1
  Mg  Mg28  1  0.75197778  0.75197778  0.00000000  1
  Mg  Mg29  1  0.74934473  0.74934473  0.50000000  1
  Cu  Cu0  1  -0.00000000  -0.00000000  -0.00000000  1
  Si  Si0  1  -0.00000000  -0.00000000  0.50000000  1
  O  O0  1  0.26186092  -0.00000000  -0.00000000  1
  O  O1  1  0.22700192  -0.00000000  0.50000000  1
  O  O2  1  0.25137549  0.50000000  0.00000000  1
  O  O3  1  0.24708616  0.50000000  0.50000000  1
  O  O4  1  0.73813908  -0.00000000  0.00000000  1
  O  O5  1  0.77299808  -0.00000000  0.50000000  1
  O  O6  1  0.74862451  0.50000000  -0.00000000  1
  O  O7  1  0.75291384  0.50000000  0.50000000  1
  O  O8  1  0.24883590  0.24883590  0.25124676  1
  O  O9  1  0.24883590  0.24883590  0.74875324  1
  O  O10  1  0.24883590  0.75116410  0.25124676  1
  O  O11  1  0.24883590  0.75116410  0.74875324  1
  O  O12  1  0.75116410  0.24883590  0.25124676  1
  O  O13  1  0.75116410  0.24883590  0.74875324  1
  O  O14  1  0.75116410  0.75116410  0.25124676  1
  O  O15  1  0.75116410  0.75116410  0.74875324  1
  O  O16  1  -0.00000000  -0.00000000  0.29490796  1
  O  O17  1  -0.00000000  -0.00000000  0.70509204  1
  O  O18  1  -0.00000000  0.50000000  0.25674824  1
  O  O19  1  -0.00000000  0.50000000  0.74325176  1
  O  O20  1  0.50000000  -0.00000000  0.25674824  1
  O  O21  1  0.50000000  -0.00000000  0.74325176  1
  O  O22  1  0.50000000  0.50000000  0.25237473  1
  O  O23  1  0.50000000  0.50000000  0.74762527  1
  O  O24  1  -0.00000000  0.26186092  0.00000000  1
  O  O25  1  -0.00000000  0.22700192  0.50000000  1
  O  O26  1  -0.00000000  0.73813908  0.00000000  1
  O  O27  1  -0.00000000  0.77299808  0.50000000  1
  O  O28  1  0.50000000  0.25137549  -0.00000000  1
  O  O29  1  0.50000000  0.24708616  0.50000000  1
  O  O30  1  0.50000000  0.74862451  0.00000000  1
  O  O31  1  0.50000000  0.75291384  0.50000000  1
loop_
_geom_bond_atom_site_label_1
_geom_bond_atom_site_label_2
_geom_bond_distance
_geom_bond_site_symmetry_2
Mg0 O26 2.029889 1_555
Mg0 O24 2.029889 1_555
Mg0 O2 2.142716 1_555
Mg0 O6 2.142716 1_455
Mg0 O19 2.200349 1_554
Mg0 O18 2.200349 1_555
Mg1 O18 2.084684 1_555
Mg1 O19 2.084684 1_555
Mg1 O3 2.106153 1_555
Mg1 O7 2.106153 1_455
Mg1 O27 2.327026 1_555
Mg1 O25 2.327026 1_555
Mg2 O4 2.029889 1_555
Mg2 O0 2.029889 1_555
Mg2 O28 2.142716 1_555
Mg2 O30 2.142716 1_545
Mg2 O21 2.200349 1_554
Mg2 O20 2.200349 1_555
Mg3 O20 2.084684 1_555
Mg3 O21 2.084684 1_555
Mg3 O29 2.106153 1_555
Mg3 O31 2.106153 1_545
Mg3 O5 2.327026 1_555
Mg3 O1 2.327026 1_555
Mg4 O30 2.119266 1_555
Mg4 O6 2.119266 1_555
Mg4 O2 2.119266 1_555
Mg4 O28 2.119266 1_555
Mg4 O22 2.162868 1_555
Mg4 O23 2.162868 1_554
Mg5 O22 2.122165 1_555
Mg5 O23 2.122165 1_555
Mg5 O7 2.155828 1_555
Mg5 O31 2.155828 1_555
Mg5 O3 2.155828 1_555
Mg5 O29 2.155828 1_555
Mg6 O24 2.105147 1_555
Mg6 O12 2.121680 1_455
Mg6 O8 2.121680 1_555
Mg6 O18 2.142054 1_555
Mg6 O16 2.164333 1_555
Mg6 O25 2.190772 1_555
Mg7 O24 2.105147 1_556
Mg7 O9 2.121680 1_555
Mg7 O13 2.121680 1_455
Mg7 O19 2.142054 1_555
Mg7 O17 2.164333 1_555
Mg7 O25 2.190772 1_555
Mg8 O26 2.105147 1_555
Mg8 O14 2.121680 1_455
Mg8 O10 2.121680 1_555
Mg8 O18 2.142054 1_555
Mg8 O16 2.164333 1_565
Mg8 O27 2.190772 1_555
Mg9 O26 2.105147 1_556
Mg9 O15 2.121680 1_455
Mg9 O11 2.121680 1_555
Mg9 O19 2.142054 1_555
Mg9 O17 2.164333 1_565
Mg9 O27 2.190772 1_555
Mg10 O28 2.129335 1_555
Mg10 O20 2.130715 1_555
Mg10 O22 2.132716 1_555
Mg10 O12 2.141064 1_555
Mg10 O8 2.141064 1_555
Mg10 O29 2.155866 1_555
Mg11 O28 2.129335 1_556
Mg11 O21 2.130715 1_555
Mg11 O23 2.132716 1_555
Mg11 O9 2.141064 1_555
Mg11 O13 2.141064 1_555
Mg11 O29 2.155866 1_555
Mg12 O30 2.129335 1_555
Mg12 O20 2.130715 1_565
Mg12 O22 2.132716 1_555
Mg12 O10 2.141064 1_555
Mg12 O14 2.141064 1_555
Mg12 O31 2.155866 1_555
Mg13 O30 2.129335 1_556
Mg13 O21 2.130715 1_565
Mg13 O23 2.132716 1_555
Mg13 O15 2.141064 1_555
Mg13 O11 2.141064 1_555
Mg13 O31 2.155866 1_555
Mg14 O0 2.105147 1_555
Mg14 O10 2.121680 1_545
Mg14 O8 2.121680 1_555
Mg14 O20 2.142054 1_555
Mg14 O16 2.164333 1_555
Mg14 O1 2.190772 1_555
Mg15 O0 2.105147 1_556
Mg15 O9 2.121680 1_555
Mg15 O11 2.121680 1_545
Mg15 O21 2.142054 1_555
Mg15 O17 2.164333 1_555
Mg15 O1 2.190772 1_555
Mg16 O2 2.129335 1_555
Mg16 O18 2.130715 1_555
Mg16 O22 2.132716 1_555
Mg16 O10 2.141064 1_555
Mg16 O8 2.141064 1_555
Mg16 O3 2.155866 1_555
Mg17 O2 2.129335 1_556
Mg17 O19 2.130715 1_555
Mg17 O23 2.132716 1_555
Mg17 O9 2.141064 1_555
Mg17 O11 2.141064 1_555
Mg17 O3 2.155866 1_555
Mg18 O4 2.105147 1_555
Mg18 O14 2.121680 1_545
Mg18 O12 2.121680 1_555
Mg18 O20 2.142054 1_555
Mg18 O16 2.164333 1_655
Mg18 O5 2.190772 1_555
Mg19 O4 2.105147 1_556
Mg19 O15 2.121680 1_545
Mg19 O13 2.121680 1_555
Mg19 O21 2.142054 1_555
Mg19 O17 2.164333 1_655
Mg19 O5 2.190772 1_555
Mg20 O6 2.129335 1_555
Mg20 O18 2.130715 1_655
Mg20 O22 2.132716 1_555
Mg20 O12 2.141064 1_555
Mg20 O14 2.141064 1_555
Mg20 O7 2.155866 1_555
Mg21 O6 2.129335 1_556
Mg21 O19 2.130715 1_655
Mg21 O23 2.132716 1_555
Mg21 O15 2.141064 1_555
Mg21 O13 2.141064 1_555
Mg21 O7 2.155866 1_555
Mg22 O0 2.117421 1_555
Mg22 O24 2.117421 1_555
Mg22 O2 2.148040 1_555
Mg22 O28 2.148040 1_555
Mg22 O8 2.153224 1_555
Mg22 O9 2.153224 1_554
Mg23 O29 2.125623 1_555
Mg23 O3 2.125623 1_555
Mg23 O9 2.131944 1_555
Mg23 O8 2.131944 1_555
Mg23 O1 2.146068 1_555
Mg23 O25 2.146068 1_555
Mg24 O26 2.117421 1_555
Mg24 O0 2.117421 1_565
Mg24 O30 2.148040 1_555
Mg24 O2 2.148040 1_555
Mg24 O10 2.153224 1_555
Mg24 O11 2.153224 1_554
Mg25 O31 2.125623 1_555
Mg25 O3 2.125623 1_555
Mg25 O10 2.131944 1_555
Mg25 O11 2.131944 1_555
Mg25 O1 2.146068 1_565
Mg25 O27 2.146068 1_555
Mg26 O4 2.117421 1_555
Mg26 O24 2.117421 1_655
Mg26 O28 2.148040 1_555
Mg26 O6 2.148040 1_555
Mg26 O13 2.153224 1_554
Mg26 O12 2.153224 1_555
Mg27 O29 2.125623 1_555
Mg27 O7 2.125623 1_555
Mg27 O13 2.131944 1_555
Mg27 O12 2.131944 1_555
Mg27 O25 2.146068 1_655
Mg27 O5 2.146068 1_555
Mg28 O26 2.117421 1_655
Mg28 O4 2.117421 1_565
Mg28 O30 2.148040 1_555
Mg28 O6 2.148040 1_555
Mg28 O14 2.153224 1_555
Mg28 O15 2.153224 1_554
Mg29 O31 2.125623 1_555
Mg29 O7 2.125623 1_555
Mg29 O15 2.131944 1_555
Mg29 O14 2.131944 1_555
Mg29 O27 2.146068 1_655
Mg29 O5 2.146068 1_565
Cu0 O24 2.232093 1_555
Cu0 O0 2.232093 1_555
Cu0 O4 2.232093 1_455
Cu0 O26 2.232093 1_545
Cu0 O17 2.527381 1_554
Cu0 O16 2.527381 1_555
O1 Si0 1.934956 1_555
O5 Si0 1.934956 1_655
O16 Si0 1.757652 1_555
O17 Si0 1.757652 1_555
O25 Si0 1.934956 1_555
O27 Si0 1.934956 1_565
