# generated using pymatgen
data_BaNaGdWO6
_symmetry_space_group_name_H-M   'P 1'
_cell_length_a   8.43305697
_cell_length_b   8.45092405
_cell_length_c   8.37852002
_cell_angle_alpha   90.00000000
_cell_angle_beta   90.00000000
_cell_angle_gamma   90.00000000
_symmetry_Int_Tables_number   1
_chemical_formula_structural   BaNaGdWO6
_chemical_formula_sum   'Ba4 Na4 Gd4 W4 O24'
_cell_volume   597.11302489
_cell_formula_units_Z   4
loop_
 _symmetry_equiv_pos_site_id
 _symmetry_equiv_pos_as_xyz
  1  'x, y, z'
loop_
 _atom_site_type_symbol
 _atom_site_label
 _atom_site_symmetry_multiplicity
 _atom_site_fract_x
 _atom_site_fract_y
 _atom_site_fract_z
 _atom_site_occupancy
  Ba  Ba0  1  -0.00000000  -0.00000000  0.00000000  1
  Ba  Ba1  1  0.50000000  0.50000000  0.50000000  1
  Ba  Ba2  1  0.50000000  -0.00000000  0.50000000  1
  Ba  Ba3  1  -0.00000000  0.50000000  0.00000000  1
  Na  Na0  1  -0.00000000  0.50000000  0.50000000  1
  Na  Na1  1  0.50000000  0.50000000  0.00000000  1
  Na  Na2  1  0.50000000  -0.00000000  0.00000000  1
  Na  Na3  1  -0.00000000  -0.00000000  0.50000000  1
  Gd  Gd0  1  0.75000000  0.75000000  0.75000000  1
  Gd  Gd1  1  0.25000000  0.25000000  0.75000000  1
  Gd  Gd2  1  0.25000000  0.75000000  0.25000000  1
  Gd  Gd3  1  0.75000000  0.25000000  0.25000000  1
  W  W0  1  0.25000000  0.25000000  0.25000000  1
  W  W1  1  0.75000000  0.75000000  0.25000000  1
  W  W2  1  0.75000000  0.25000000  0.75000000  1
  W  W3  1  0.25000000  0.75000000  0.75000000  1
  O  O0  1  0.02069825  0.21989263  0.27065805  1
  O  O1  1  0.97930175  0.78010737  0.27065805  1
  O  O2  1  0.97930175  0.21989263  0.72934195  1
  O  O3  1  0.02069825  0.78010737  0.72934195  1
  O  O4  1  0.27716749  0.02071694  0.22219384  1
  O  O5  1  0.27716749  0.97928306  0.77780616  1
  O  O6  1  0.72283251  0.97928306  0.22219384  1
  O  O7  1  0.72283251  0.02071694  0.77780616  1
  O  O8  1  0.22069676  0.27148771  0.01936560  1
  O  O9  1  0.77930324  0.27148771  0.98063440  1
  O  O10  1  0.22069676  0.72851229  0.98063440  1
  O  O11  1  0.77930324  0.72851229  0.01936560  1
  O  O12  1  0.47930175  0.28010737  0.22934195  1
  O  O13  1  0.52069825  0.71989263  0.22934195  1
  O  O14  1  0.52069825  0.28010737  0.77065805  1
  O  O15  1  0.47930175  0.71989263  0.77065805  1
  O  O16  1  0.22283251  0.47928306  0.27780616  1
  O  O17  1  0.22283251  0.52071694  0.72219384  1
  O  O18  1  0.77716749  0.52071694  0.27780616  1
  O  O19  1  0.77716749  0.47928306  0.72219384  1
  O  O20  1  0.27930324  0.22851229  0.48063440  1
  O  O21  1  0.72069676  0.22851229  0.51936560  1
  O  O22  1  0.27930324  0.77148771  0.51936560  1
  O  O23  1  0.72069676  0.77148771  0.48063440  1
loop_
_geom_bond_atom_site_label_1
_geom_bond_atom_site_label_2
_geom_bond_distance
_geom_bond_site_symmetry_2
Ba0 O2 2.937049 1_454
Ba0 O3 2.937049 1_544
Ba0 O1 2.937049 1_445
Ba0 O0 2.937049 1_555
Ba0 O11 2.958735 1_445
Ba0 O10 2.958735 1_544
Ba0 O9 2.958735 1_454
Ba0 O8 2.958735 1_555
Ba0 O6 2.993277 1_445
Ba0 O7 2.993277 1_454
Ba0 O5 2.993277 1_544
Ba0 O4 2.993277 1_555
Ba1 O14 2.937049 1_555
Ba1 O12 2.937049 1_555
Ba1 O13 2.937049 1_555
Ba1 O15 2.937049 1_555
Ba1 O21 2.958735 1_555
Ba1 O22 2.958735 1_555
Ba1 O20 2.958735 1_555
Ba1 O23 2.958735 1_555
Ba1 O18 2.993277 1_555
Ba1 O19 2.993277 1_555
Ba1 O16 2.993277 1_555
Ba1 O17 2.993277 1_555
Ba2 O22 2.686913 1_545
Ba2 O21 2.686913 1_555
Ba2 O23 2.686913 1_545
Ba2 O20 2.686913 1_555
Ba2 O7 2.996604 1_555
Ba2 O5 2.996604 1_545
Ba2 O4 2.996604 1_555
Ba2 O6 2.996604 1_545
Ba2 O13 3.282753 1_545
Ba2 O15 3.282753 1_545
Ba2 O14 3.282753 1_555
Ba2 O12 3.282753 1_555
Ba3 O9 2.686913 1_454
Ba3 O11 2.686913 1_455
Ba3 O8 2.686913 1_555
Ba3 O10 2.686913 1_554
Ba3 O19 2.996604 1_454
Ba3 O16 2.996604 1_555
Ba3 O17 2.996604 1_554
Ba3 O18 2.996604 1_455
Ba3 O3 3.282753 1_554
Ba3 O1 3.282753 1_455
Ba3 O0 3.282753 1_555
Ba3 O2 3.282753 1_454
Na0 O17 2.650972 1_555
Na0 O16 2.650972 1_555
Na0 O19 2.650972 1_455
Na0 O18 2.650972 1_455
Na1 O12 2.678819 1_555
Na1 O14 2.678819 1_554
Na1 O15 2.678819 1_554
Na1 O13 2.678819 1_555
Na1 O8 3.050155 1_555
Na1 O11 3.050155 1_555
Na1 O10 3.050155 1_554
Na1 O9 3.050155 1_554
Na2 O4 2.650972 1_555
Na2 O7 2.650972 1_554
Na2 O5 2.650972 1_544
Na2 O6 2.650972 1_545
Na3 O2 2.678819 1_455
Na3 O3 2.678819 1_545
Na3 O1 2.678819 1_445
Na3 O0 2.678819 1_555
Na3 O23 3.050155 1_445
Na3 O21 3.050155 1_455
Na3 O22 3.050155 1_545
Na3 O20 3.050155 1_555
Gd0 O11 2.277624 1_556
Gd0 O23 2.277624 1_555
Gd0 O3 2.303461 1_655
Gd0 O15 2.303461 1_555
Gd0 O7 2.311024 1_565
Gd0 O19 2.311024 1_555
Gd1 O8 2.277624 1_556
Gd1 O20 2.277624 1_555
Gd1 O2 2.303461 1_455
Gd1 O14 2.303461 1_555
Gd1 O17 2.311024 1_555
Gd1 O5 2.311024 1_545
Gd2 O22 2.277624 1_555
Gd2 O10 2.277624 1_554
Gd2 O13 2.303461 1_555
Gd2 O1 2.303461 1_455
Gd2 O4 2.311024 1_565
Gd2 O16 2.311024 1_555
Gd3 O21 2.277624 1_555
Gd3 O9 2.277624 1_554
Gd3 O0 2.303461 1_655
Gd3 O12 2.303461 1_555
Gd3 O6 2.311024 1_545
Gd3 O18 2.311024 1_555
O0 W0 1.958047 1_555
O1 W1 1.958047 1_555
O2 W2 1.958047 1_555
O3 W3 1.958047 1_555
O4 W0 1.965011 1_555
O5 W3 1.965011 1_555
O6 W1 1.965011 1_555
O7 W2 1.965011 1_555
O8 W0 1.956557 1_555
O9 W2 1.956557 1_555
O10 W3 1.956557 1_555
O11 W1 1.956557 1_555
O12 W0 1.958047 1_555
O13 W1 1.958047 1_555
O14 W2 1.958047 1_555
O15 W3 1.958047 1_555
O16 W0 1.965011 1_555
O17 W3 1.965011 1_555
O18 W1 1.965011 1_555
O19 W2 1.965011 1_555
O20 W0 1.956557 1_555
O21 W2 1.956557 1_555
O22 W3 1.956557 1_555
O23 W1 1.956557 1_555
