# generated using pymatgen
data_Ba3CoIr2O9
_symmetry_space_group_name_H-M   'P 1'
_cell_length_a   5.85119207
_cell_length_b   5.85119207
_cell_length_c   14.47056500
_cell_angle_alpha   90.00000000
_cell_angle_beta   90.00000000
_cell_angle_gamma   120.00000084
_symmetry_Int_Tables_number   1
_chemical_formula_structural   Ba3CoIr2O9
_chemical_formula_sum   'Ba6 Co2 Ir4 O18'
_cell_volume   429.04695673
_cell_formula_units_Z   2
loop_
 _symmetry_equiv_pos_site_id
 _symmetry_equiv_pos_as_xyz
  1  'x, y, z'
loop_
 _atom_site_type_symbol
 _atom_site_label
 _atom_site_symmetry_multiplicity
 _atom_site_fract_x
 _atom_site_fract_y
 _atom_site_fract_z
 _atom_site_occupancy
  Ba  Ba0  1  0.33333300  0.66666700  0.08784800  1
  Ba  Ba1  1  0.66666700  0.33333300  0.91215200  1
  Ba  Ba2  1  0.66666700  0.33333300  0.58784800  1
  Ba  Ba3  1  0.33333300  0.66666700  0.41215200  1
  Ba  Ba4  1  0.00000000  0.00000000  0.25000000  1
  Ba  Ba5  1  0.00000000  0.00000000  0.75000000  1
  Co  Co0  1  0.00000000  0.00000000  0.00000000  1
  Co  Co1  1  0.00000000  0.00000000  0.50000000  1
  Ir  Ir0  1  0.33333300  0.66666700  0.65489700  1
  Ir  Ir1  1  0.66666700  0.33333300  0.34510300  1
  Ir  Ir2  1  0.66666700  0.33333300  0.15489700  1
  Ir  Ir3  1  0.33333300  0.66666700  0.84510300  1
  O  O0  1  0.51453100  0.02906100  0.25000000  1
  O  O1  1  0.48546900  0.97093900  0.75000000  1
  O  O2  1  0.97093900  0.48546900  0.25000000  1
  O  O3  1  0.02906100  0.51453100  0.75000000  1
  O  O4  1  0.51453100  0.48546900  0.25000000  1
  O  O5  1  0.48546900  0.51453100  0.75000000  1
  O  O6  1  0.16942500  0.33885000  0.58184500  1
  O  O7  1  0.83057500  0.66115000  0.41815500  1
  O  O8  1  0.66115000  0.83057500  0.58184500  1
  O  O9  1  0.83057500  0.66115000  0.08184500  1
  O  O10  1  0.33885000  0.16942500  0.41815500  1
  O  O11  1  0.16942500  0.33885000  0.91815500  1
  O  O12  1  0.16942500  0.83057500  0.58184500  1
  O  O13  1  0.33885000  0.16942500  0.08184500  1
  O  O14  1  0.83057500  0.16942500  0.41815500  1
  O  O15  1  0.66115000  0.83057500  0.91815500  1
  O  O16  1  0.83057500  0.16942500  0.08184500  1
  O  O17  1  0.16942500  0.83057500  0.91815500  1
loop_
_geom_bond_atom_site_label_1
_geom_bond_atom_site_label_2
_geom_bond_distance
_geom_bond_site_symmetry_2
Ba0 O13 2.927016 1_565
Ba0 O9 2.927016 1_455
Ba0 O16 2.927019 1_565
Ba0 O16 2.927019 1_455
Ba0 O9 2.927022 1_555
Ba0 O13 2.927022 1_555
Ba0 O17 2.964644 1_554
Ba0 O11 2.964647 1_554
Ba0 O15 2.964647 1_554
Ba0 O0 2.979585 1_565
Ba0 O2 2.979585 1_455
Ba0 O4 2.979591 1_555
Ba1 O11 2.927016 1_655
Ba1 O15 2.927016 1_545
Ba1 O17 2.927019 1_655
Ba1 O17 2.927019 1_545
Ba1 O15 2.927022 1_555
Ba1 O11 2.927022 1_555
Ba1 O16 2.964644 1_556
Ba1 O9 2.964647 1_556
Ba1 O13 2.964647 1_556
Ba1 O1 2.979585 1_545
Ba1 O3 2.979585 1_655
Ba1 O5 2.979591 1_555
Ba2 O6 2.927016 1_655
Ba2 O8 2.927016 1_545
Ba2 O12 2.927019 1_655
Ba2 O12 2.927019 1_545
Ba2 O8 2.927022 1_555
Ba2 O6 2.927022 1_555
Ba2 O14 2.964644 1_555
Ba2 O10 2.964647 1_555
Ba2 O7 2.964647 1_555
Ba2 O1 2.979585 1_545
Ba2 O3 2.979585 1_655
Ba2 O5 2.979591 1_555
Ba3 O10 2.927016 1_565
Ba3 O7 2.927016 1_455
Ba3 O14 2.927019 1_565
Ba3 O14 2.927019 1_455
Ba3 O7 2.927022 1_555
Ba3 O10 2.927022 1_555
Ba3 O12 2.964644 1_555
Ba3 O8 2.964647 1_555
Ba3 O6 2.964647 1_555
Ba3 O0 2.979585 1_565
Ba3 O2 2.979585 1_455
Ba3 O4 2.979591 1_555
Ba4 O2 2.929297 1_455
Ba4 O0 2.929297 1_455
Ba4 O4 2.929300 1_555
Ba4 O4 2.929300 1_445
Ba4 O2 2.929303 1_445
Ba4 O0 2.929303 1_555
Ba4 O10 2.978119 1_555
Ba4 O13 2.978119 1_555
Ba4 O9 2.978119 1_445
Ba4 O7 2.978119 1_445
Ba4 O14 2.978119 1_455
Ba4 O16 2.978119 1_455
Ba5 O1 2.929297 1_545
Ba5 O3 2.929297 1_545
Ba5 O5 2.929300 1_555
Ba5 O5 2.929300 1_445
Ba5 O3 2.929303 1_555
Ba5 O1 2.929303 1_445
Ba5 O11 2.978119 1_555
Ba5 O15 2.978119 1_445
Ba5 O6 2.978119 1_555
Ba5 O8 2.978119 1_445
Ba5 O12 2.978119 1_545
Ba5 O17 2.978119 1_545
Co0 O11 2.085887 1_554
Co0 O15 2.085887 1_444
Co0 O13 2.085887 1_555
Co0 O9 2.085887 1_445
Co0 O17 2.085887 1_544
Co0 O16 2.085887 1_455
Co1 O6 2.085887 1_555
Co1 O8 2.085887 1_445
Co1 O10 2.085887 1_555
Co1 O7 2.085887 1_445
Co1 O12 2.085887 1_545
Co1 O14 2.085887 1_455
Ir0 O12 1.968969 1_555
Ir0 O6 1.968974 1_555
Ir0 O8 1.968974 1_555
Ir0 O3 2.066677 1_555
Ir0 O1 2.066677 1_555
Ir0 O5 2.066677 1_555
Ir1 O14 1.968969 1_555
Ir1 O7 1.968974 1_555
Ir1 O10 1.968974 1_555
Ir1 O0 2.066677 1_555
Ir1 O2 2.066677 1_555
Ir1 O4 2.066677 1_555
Ir2 O16 1.968969 1_555
Ir2 O9 1.968974 1_555
Ir2 O13 1.968974 1_555
Ir2 O0 2.066677 1_555
Ir2 O2 2.066677 1_555
Ir2 O4 2.066677 1_555
Ir3 O17 1.968969 1_555
Ir3 O11 1.968974 1_555
Ir3 O15 1.968974 1_555
Ir3 O3 2.066677 1_555
Ir3 O1 2.066677 1_555
Ir3 O5 2.066677 1_555
