# generated using pymatgen
data_U2CoS5
_symmetry_space_group_name_H-M   'P 1'
_cell_length_a   7.75443108
_cell_length_b   7.75443108
_cell_length_c   6.92124575
_cell_angle_alpha   83.57306992
_cell_angle_beta   83.57306992
_cell_angle_gamma   45.49342213
_symmetry_Int_Tables_number   1
_chemical_formula_structural   U2CoS5
_chemical_formula_sum   'U4 Co2 S10'
_cell_volume   294.61465585
_cell_formula_units_Z   2
loop_
 _symmetry_equiv_pos_site_id
 _symmetry_equiv_pos_as_xyz
  1  'x, y, z'
loop_
 _atom_site_type_symbol
 _atom_site_label
 _atom_site_symmetry_multiplicity
 _atom_site_fract_x
 _atom_site_fract_y
 _atom_site_fract_z
 _atom_site_occupancy
  U  U0  1  0.10514800  0.67869400  0.58192400  1
  U  U1  1  0.32130600  0.89485200  0.91807600  1
  U  U2  1  0.89485200  0.32130600  0.41807600  1
  U  U3  1  0.67869400  0.10514800  0.08192400  1
  Co  Co0  1  0.00000000  0.50000000  0.00000000  1
  Co  Co1  1  0.50000000  0.00000000  0.50000000  1
  S  S0  1  0.91040700  0.08959300  0.75000000  1
  S  S1  1  0.08959300  0.91040700  0.25000000  1
  S  S2  1  0.28906200  0.52955700  0.92538700  1
  S  S3  1  0.47044300  0.71093800  0.57461300  1
  S  S4  1  0.71093800  0.47044300  0.07461300  1
  S  S5  1  0.52955700  0.28906200  0.42538700  1
  S  S6  1  0.14279500  0.29994900  0.69223200  1
  S  S7  1  0.70005100  0.85720500  0.80776800  1
  S  S8  1  0.85720500  0.70005100  0.30776800  1
  S  S9  1  0.29994900  0.14279500  0.19223200  1
loop_
_geom_bond_atom_site_label_1
_geom_bond_atom_site_label_2
_geom_bond_distance
_geom_bond_site_symmetry_2
Co0 S7 2.384930 1_454
Co0 S9 2.384930 1_555
Co0 S2 2.403792 1_554
Co0 S4 2.403792 1_455
Co0 S8 2.444089 1_455
Co0 S6 2.444089 1_554
Co1 S6 2.384930 1_555
Co1 S8 2.384930 1_545
Co1 S5 2.403792 1_555
Co1 S3 2.403792 1_545
Co1 S9 2.444089 1_555
Co1 S7 2.444089 1_545
S0 U3 2.711980 1_556
S0 U2 2.711980 1_555
S0 U1 2.734376 1_645
S0 U0 2.734376 1_645
S1 U0 2.711980 1_555
S1 U1 2.711980 1_554
S1 U2 2.734376 1_465
S1 U3 2.734376 1_465
S2 U0 2.617937 1_555
S2 U3 2.669742 1_556
S2 U1 3.007833 1_555
S3 U1 2.617937 1_555
S3 U2 2.669742 1_555
S3 U0 3.007833 1_555
S4 U2 2.617937 1_555
S4 U1 2.669742 1_554
S4 U3 3.007833 1_555
S5 U3 2.617937 1_555
S5 U0 2.669742 1_555
S5 U2 3.007833 1_555
S6 U1 2.741548 1_545
S6 U2 2.761254 1_455
S6 U0 2.763995 1_555
S7 U0 2.741548 1_655
S7 U3 2.761254 1_566
S7 U1 2.763995 1_555
S8 U3 2.741548 1_565
S8 U0 2.761254 1_655
S8 U2 2.763995 1_555
S9 U2 2.741548 1_455
S9 U1 2.761254 1_544
S9 U3 2.763995 1_555
