# generated using pymatgen
data_Li2CeIn
_symmetry_space_group_name_H-M   'P 1'
_cell_length_a   5.00127151
_cell_length_b   5.00127151
_cell_length_c   5.00127151
_cell_angle_alpha   60.00000000
_cell_angle_beta   60.00000000
_cell_angle_gamma   60.00000000
_symmetry_Int_Tables_number   1
_chemical_formula_structural   Li2CeIn
_chemical_formula_sum   'Li2 Ce1 In1'
_cell_volume   88.45579685
_cell_formula_units_Z   1
loop_
 _symmetry_equiv_pos_site_id
 _symmetry_equiv_pos_as_xyz
  1  'x, y, z'
loop_
 _atom_site_type_symbol
 _atom_site_label
 _atom_site_symmetry_multiplicity
 _atom_site_fract_x
 _atom_site_fract_y
 _atom_site_fract_z
 _atom_site_occupancy
  Li  Li0  1  0.25000000  0.25000000  0.25000000  1
  Li  Li1  1  0.75000000  0.75000000  0.75000000  1
  Ce  Ce0  1  0.50000000  0.50000000  0.50000000  1
  In  In0  1  0.00000000  0.00000000  0.00000000  1
loop_
_geom_bond_atom_site_label_1
_geom_bond_atom_site_label_2
_geom_bond_distance
_geom_bond_site_symmetry_2
Ce0 Li1 3.062641 1_455
Ce0 Li0 3.062641 1_565
Ce0 Li0 3.062641 1_655
Ce0 Li1 3.062641 1_545
Ce0 Li0 3.062641 1_556
Ce0 Li1 3.062641 1_554
Ce0 Li0 3.062641 1_555
Ce0 Li1 3.062641 1_555
Ce0 In0 3.536433 1_655
Ce0 In0 3.536433 1_656
Ce0 In0 3.536433 1_665
Ce0 In0 3.536433 1_556
Ce0 In0 3.536433 1_565
Ce0 In0 3.536433 1_566
In0 Li1 3.062641 1_454
In0 Li0 3.062641 1_545
In0 Li0 3.062641 1_455
In0 Li1 3.062641 1_544
In0 Li1 3.062641 1_445
In0 Li0 3.062641 1_555
In0 Li0 3.062641 1_554
In0 Li1 3.062641 1_444
