# generated using pymatgen
data_Na2Ti2Si2H2O9
_symmetry_space_group_name_H-M   'P 1'
_cell_length_a   5.43173000
_cell_length_b   7.09781509
_cell_length_c   11.86477335
_cell_angle_alpha   93.71636057
_cell_angle_beta   97.65755960
_cell_angle_gamma   90.32910191
_symmetry_Int_Tables_number   1
_chemical_formula_structural   Na2Ti2Si2H2O9
_chemical_formula_sum   'Na4 Ti4 Si4 H4 O18'
_cell_volume   452.34712144
_cell_formula_units_Z   2
loop_
 _symmetry_equiv_pos_site_id
 _symmetry_equiv_pos_as_xyz
  1  'x, y, z'
loop_
 _atom_site_type_symbol
 _atom_site_label
 _atom_site_symmetry_multiplicity
 _atom_site_fract_x
 _atom_site_fract_y
 _atom_site_fract_z
 _atom_site_occupancy
  Na  Na0  1  0.20696200  0.46266800  0.28907300  1
  Na  Na1  1  0.64035900  0.02306400  0.59610900  1
  Na  Na2  1  0.27589000  0.67978000  0.00338800  1
  Na  Na3  1  0.70952700  0.23552300  0.31170500  1
  Ti  Ti0  1  0.28308000  0.17601300  0.05043800  1
  Ti  Ti1  1  0.23659400  0.96259300  0.30280100  1
  Ti  Ti2  1  0.67963000  0.73857800  0.29647500  1
  Ti  Ti3  1  0.62853300  0.53051400  0.54952900  1
  Si  Si0  1  0.78307300  0.47548600  0.07103600  1
  Si  Si1  1  0.13287600  0.23130200  0.52771100  1
  Si  Si2  1  0.11598800  0.80148100  0.54291700  1
  Si  Si3  1  0.79467200  0.90607200  0.05749000  1
  H  H0  1  0.18815600  0.58935800  0.79157700  1
  H  H1  1  0.70582600  0.52489500  0.75740800  1
  H  H2  1  0.70246500  0.12647600  0.80290900  1
  H  H3  1  0.23140900  0.19557600  0.84432100  1
  O  O0  1  0.40132200  0.33046400  0.57341700  1
  O  O1  1  0.38482000  0.71486000  0.58586700  1
  O  O2  1  0.59113600  0.55042200  0.39741900  1
  O  O3  1  0.37101400  0.74868000  0.21325700  1
  O  O4  1  0.03488300  0.37488700  0.04013000  1
  O  O5  1  0.54511400  0.95326000  0.38578200  1
  O  O6  1  0.88060100  0.72089500  0.59786200  1
  O  O7  1  0.51758100  0.37188800  0.02664800  1
  O  O8  1  0.52490700  0.99122100  0.01481700  1
  O  O9  1  0.80588800  0.51979700  0.21061100  1
  O  O10  1  0.11239200  0.18483000  0.38868600  1
  O  O11  1  0.05344100  0.78846600  0.39986000  1
  O  O12  1  0.02859800  0.98837500  0.00237700  1
  O  O13  1  0.31831000  0.15399200  0.20232100  1
  O  O14  1  0.86040800  0.91735900  0.20028900  1
  O  O15  1  0.77224800  0.68045500  0.01154100  1
  O  O16  1  0.88438400  0.33818700  0.55737100  1
  O  O17  1  0.13531300  0.02748500  0.58825500  1
loop_
_geom_bond_atom_site_label_1
_geom_bond_atom_site_label_2
_geom_bond_distance
_geom_bond_site_symmetry_2
Na0 O9 2.301224 1_455
Na0 O2 2.358238 1_555
Na0 O10 2.449893 1_555
Na0 O13 2.472688 1_555
Na0 O3 2.480709 1_555
Na0 O11 2.773238 1_555
Na1 O5 2.496651 1_545
Na1 O6 2.516721 1_545
Na1 O0 2.556242 1_555
Na1 O1 2.571489 1_545
Na1 O16 2.689324 1_555
Na1 O17 2.702525 1_655
Na1 O17 2.732848 1_555
Na2 O3 2.490547 1_555
Na2 O7 2.567098 1_555
Na2 O8 2.571448 1_555
Na2 O12 2.575837 1_555
Na2 O4 2.613197 1_555
Na2 O15 2.684870 1_555
Na2 O15 2.750229 1_455
Na3 O10 2.295897 1_655
Na3 O13 2.385018 1_555
Na3 O5 2.449636 1_545
Na3 O9 2.500556 1_555
Na3 O2 2.517849 1_555
Na3 O14 2.727987 1_545
H0 Na2 2.534335 1_556
H1 Ti3 2.449111 1_555
H2 Na1 2.493186 1_555
H3 Ti0 2.437258 1_556
O0 Si1 1.625913 1_555
O0 Ti3 1.935169 1_555
O1 Si2 1.619431 1_555
O1 Ti3 1.936287 1_555
O2 Ti3 1.803896 1_555
O2 Ti2 1.949983 1_555
O3 Ti2 1.832902 1_555
O3 Ti1 1.994358 1_555
O4 Si0 1.620502 1_455
O4 Ti0 1.955829 1_555
O5 Ti1 1.830860 1_555
O5 Ti2 1.997078 1_555
O6 Si2 1.627555 1_655
O6 Ti3 1.923147 1_555
O7 Si0 1.622612 1_555
O7 Ti0 1.939417 1_555
O8 Si3 1.618893 1_555
O8 Ti0 1.928790 1_565
O9 Si0 1.653492 1_555
O9 Ti2 1.978113 1_555
O10 Si1 1.649899 1_555
O10 Ti1 1.992171 1_545
O11 Si2 1.682423 1_555
O11 Ti1 2.078231 1_555
O11 Ti2 2.241515 1_455
O12 Si3 1.626576 1_455
O12 Ti0 1.918316 1_565
O13 Ti0 1.803722 1_555
O13 Ti1 1.951384 1_545
O14 Si3 1.680874 1_555
O14 Ti2 2.085403 1_555
O14 Ti1 2.244364 1_655
O15 Si0 1.655697 1_555
O15 Si3 1.656315 1_555
O16 Si1 1.620164 1_655
O16 Ti3 1.951221 1_555
O17 Si1 1.655718 1_555
O17 Si2 1.656739 1_545
