# generated using pymatgen
data_Sm10As8Au3O10
_symmetry_space_group_name_H-M   'P 1'
_cell_length_a   9.73529699
_cell_length_b   9.73529699
_cell_length_c   9.73529699
_cell_angle_alpha   123.80715936
_cell_angle_beta   123.80715936
_cell_angle_gamma   83.52331524
_symmetry_Int_Tables_number   1
_chemical_formula_structural   Sm10As8Au3O10
_chemical_formula_sum   'Sm10 As8 Au3 O10'
_cell_volume   610.60876498
_cell_formula_units_Z   1
loop_
 _symmetry_equiv_pos_site_id
 _symmetry_equiv_pos_as_xyz
  1  'x, y, z'
loop_
 _atom_site_type_symbol
 _atom_site_label
 _atom_site_symmetry_multiplicity
 _atom_site_fract_x
 _atom_site_fract_y
 _atom_site_fract_z
 _atom_site_occupancy
  Sm  Sm0  1  0.33592900  0.33592900  0.00000000  1
  Sm  Sm1  1  0.66407100  0.66407100  0.00000000  1
  Sm  Sm2  1  0.11940100  0.72453000  0.19552700  1
  Sm  Sm3  1  0.52900200  0.92387400  0.80447300  1
  Sm  Sm4  1  0.72453000  0.52900200  0.60512900  1
  Sm  Sm5  1  0.92387400  0.11940100  0.39487100  1
  Sm  Sm6  1  0.88059900  0.27547000  0.80447300  1
  Sm  Sm7  1  0.47099800  0.07612600  0.19552700  1
  Sm  Sm8  1  0.27547000  0.47099800  0.39487100  1
  Sm  Sm9  1  0.07612600  0.88059900  0.60512900  1
  As  As0  1  0.24812500  0.12837900  0.37650400  1
  As  As1  1  0.75187500  0.87162100  0.62349600  1
  As  As2  1  0.12837900  0.75187500  0.88025400  1
  As  As3  1  0.87162100  0.24812500  0.11974600  1
  As  As4  1  0.27253400  0.40927100  0.68180500  1
  As  As5  1  0.72746600  0.59072900  0.31819500  1
  As  As6  1  0.40927100  0.72746600  0.13673700  1
  As  As7  1  0.59072900  0.27253400  0.86326300  1
  Au  Au0  1  0.00000000  0.00000000  0.00000000  1
  Au  Au1  1  0.00000000  0.50000000  0.50000000  1
  Au  Au2  1  0.50000000  0.00000000  0.50000000  1
  O  O0  1  0.45168500  0.35457500  0.29798300  1
  O  O1  1  0.05659300  0.15370200  0.70201700  1
  O  O2  1  0.35457500  0.05659300  0.90289000  1
  O  O3  1  0.15370200  0.45168500  0.09711000  1
  O  O4  1  0.54831500  0.64542500  0.70201700  1
  O  O5  1  0.94340700  0.84629800  0.29798300  1
  O  O6  1  0.64542500  0.94340700  0.09711000  1
  O  O7  1  0.84629800  0.54831500  0.90289000  1
  O  O8  1  0.25000000  0.75000000  0.50000000  1
  O  O9  1  0.75000000  0.25000000  0.50000000  1
loop_
_geom_bond_atom_site_label_1
_geom_bond_atom_site_label_2
_geom_bond_distance
_geom_bond_site_symmetry_2
As0 Au0 2.561762 1_555
As0 As4 2.585432 1_555
As0 Au2 2.592352 1_555
As0 Sm5 3.272916 1_455
As0 Sm8 3.272926 1_555
As0 Sm2 3.328402 1_545
As0 Sm7 3.328411 1_555
As1 Au0 2.561762 1_666
As1 As5 2.585432 1_555
As1 Au2 2.592352 1_565
As1 Sm9 3.272916 1_655
As1 Sm4 3.272926 1_555
As1 Sm6 3.328402 1_565
As1 Sm3 3.328411 1_555
As2 Au0 2.561762 1_566
As2 As6 2.585432 1_556
As2 Au1 2.592352 1_555
As2 Sm2 3.272916 1_556
As2 Sm7 3.272922 1_566
As2 Sm9 3.328402 1_555
As2 Sm4 3.328405 1_455
As3 Au0 2.561762 1_655
As3 As7 2.585432 1_554
As3 Au1 2.592352 1_655
As3 Sm6 3.272916 1_554
As3 Sm3 3.272922 1_544
As3 Sm5 3.328402 1_555
As3 Sm8 3.328405 1_655
As4 Au1 2.633931 1_555
As4 Sm5 3.182077 1_455
As4 Sm8 3.182083 1_555
As4 Sm1 3.274292 1_556
As4 Sm0 3.274292 1_556
As5 Au1 2.633931 1_655
As5 Sm9 3.182077 1_655
As5 Sm4 3.182083 1_555
As5 Sm0 3.274292 1_555
As5 Sm1 3.274292 1_555
As6 Au2 2.633931 1_565
As6 Sm2 3.182077 1_555
As6 Sm7 3.182079 1_565
As6 Sm0 3.274292 1_555
As6 Sm1 3.274292 1_555
As7 Au2 2.633931 1_555
As7 Sm6 3.182077 1_555
As7 Sm3 3.182079 1_545
As7 Sm1 3.274292 1_556
As7 Sm0 3.274292 1_556
Au1 Sm9 3.298645 1_555
Au1 Sm5 3.298645 1_455
Au1 Sm8 3.298646 1_555
Au1 Sm4 3.298646 1_455
Au2 Sm2 3.298645 1_545
Au2 Sm6 3.298645 1_555
Au2 Sm3 3.298649 1_545
Au2 Sm7 3.298649 1_555
O0 Sm8 2.299915 1_555
O0 Sm4 2.325707 1_555
O0 Sm7 2.337405 1_555
O0 Sm0 2.353867 1_555
O1 Sm9 2.299911 1_545
O1 Sm5 2.325707 1_455
O1 Sm6 2.337412 1_455
O1 Sm0 2.353861 1_556
O2 Sm7 2.299916 1_556
O2 Sm3 2.325703 1_545
O2 Sm9 2.337404 1_545
O2 Sm0 2.353858 1_556
O3 Sm6 2.299913 1_454
O3 Sm2 2.325709 1_555
O3 Sm8 2.337397 1_555
O3 Sm0 2.353867 1_555
O4 Sm4 2.299915 1_555
O4 Sm8 2.325707 1_555
O4 Sm3 2.337405 1_555
O4 Sm1 2.353867 1_556
O5 Sm5 2.299911 1_565
O5 Sm9 2.325707 1_655
O5 Sm2 2.337412 1_655
O5 Sm1 2.353861 1_555
O6 Sm3 2.299916 1_554
O6 Sm7 2.325703 1_565
O6 Sm5 2.337404 1_565
O6 Sm1 2.353858 1_555
O7 Sm2 2.299913 1_656
O7 Sm6 2.325709 1_555
O7 Sm4 2.337397 1_555
O7 Sm1 2.353867 1_556
O8 Sm8 2.350217 1_555
O8 Sm3 2.350221 1_555
O8 Sm2 2.350226 1_555
O8 Sm9 2.350226 1_555
O9 Sm4 2.350217 1_555
O9 Sm7 2.350221 1_555
O9 Sm5 2.350226 1_555
O9 Sm6 2.350226 1_555
