# generated using pymatgen
data_Pu2TcB6
_symmetry_space_group_name_H-M   'P 1'
_cell_length_a   3.68409295
_cell_length_b   9.30425830
_cell_length_c   11.44757364
_cell_angle_alpha   90.00000000
_cell_angle_beta   90.00000000
_cell_angle_gamma   90.00000000
_symmetry_Int_Tables_number   1
_chemical_formula_structural   Pu2TcB6
_chemical_formula_sum   'Pu8 Tc4 B24'
_cell_volume   392.39709490
_cell_formula_units_Z   4
loop_
 _symmetry_equiv_pos_site_id
 _symmetry_equiv_pos_as_xyz
  1  'x, y, z'
loop_
 _atom_site_type_symbol
 _atom_site_label
 _atom_site_symmetry_multiplicity
 _atom_site_fract_x
 _atom_site_fract_y
 _atom_site_fract_z
 _atom_site_occupancy
  Pu  Pu0  1  -0.00000000  0.33563159  0.40950488  1
  Pu  Pu1  1  0.00000000  0.66436841  0.59049512  1
  Pu  Pu2  1  -0.00000000  0.83563159  0.09049512  1
  Pu  Pu3  1  0.00000000  0.16436841  0.90950488  1
  Pu  Pu4  1  0.00000000  0.95238163  0.38638403  1
  Pu  Pu5  1  -0.00000000  0.04761837  0.61361597  1
  Pu  Pu6  1  -0.00000000  0.45238163  0.11361597  1
  Pu  Pu7  1  0.00000000  0.54761837  0.88638403  1
  Tc  Tc0  1  -0.00000000  0.64462567  0.32009237  1
  Tc  Tc1  1  0.00000000  0.35537433  0.67990763  1
  Tc  Tc2  1  -0.00000000  0.14462567  0.17990763  1
  Tc  Tc3  1  -0.00000000  0.85537433  0.82009237  1
  B  B0  1  0.50000000  0.55310357  0.43104791  1
  B  B1  1  0.50000000  0.44689643  0.56895209  1
  B  B2  1  0.50000000  0.05310357  0.06895209  1
  B  B3  1  0.50000000  0.94689643  0.93104791  1
  B  B4  1  0.50000000  0.74499358  0.42096386  1
  B  B5  1  0.50000000  0.25500642  0.57903614  1
  B  B6  1  0.50000000  0.24499358  0.07903614  1
  B  B7  1  0.50000000  0.75500642  0.92096386  1
  B  B8  1  0.50000000  0.79941323  0.27083636  1
  B  B9  1  0.50000000  0.20058677  0.72916364  1
  B  B10  1  0.50000000  0.29941323  0.22916364  1
  B  B11  1  0.50000000  0.70058677  0.77083636  1
  B  B12  1  0.50000000  0.64115666  0.18815947  1
  B  B13  1  0.50000000  0.35884334  0.81184053  1
  B  B14  1  0.50000000  0.14115666  0.31184053  1
  B  B15  1  0.50000000  0.85884334  0.68815947  1
  B  B16  1  0.50000000  0.98826426  0.21646807  1
  B  B17  1  0.50000000  0.01173574  0.78353193  1
  B  B18  1  0.50000000  0.48826426  0.28353193  1
  B  B19  1  0.50000000  0.51173574  0.71646807  1
  B  B20  1  0.50000000  0.63688662  0.03727538  1
  B  B21  1  0.50000000  0.36311338  0.96272462  1
  B  B22  1  0.50000000  0.13688662  0.46272462  1
  B  B23  1  0.50000000  0.86311338  0.53727538  1
loop_
_geom_bond_atom_site_label_1
_geom_bond_atom_site_label_2
_geom_bond_distance
_geom_bond_site_symmetry_2
Pu0 Tc0 3.051732 1_555
Pu0 Tc1 3.100901 1_555
Pu0 Tc2 3.172768 1_555
Pu1 Tc1 3.051732 1_555
Pu1 Tc0 3.100901 1_555
Pu1 Tc3 3.172768 1_555
Pu2 Tc2 3.051732 1_565
Pu2 Tc3 3.100901 1_554
Pu2 Tc0 3.172768 1_555
Pu3 Tc3 3.051732 1_545
Pu3 Tc2 3.100901 1_556
Pu3 Tc1 3.172768 1_555
Pu4 Pu5 2.748038 1_565
Pu4 Tc0 2.962295 1_555
Pu4 Tc2 2.964163 1_565
Pu5 Tc1 2.962295 1_555
Pu5 Tc3 2.964163 1_545
Pu6 Pu7 2.748038 1_554
Pu6 Tc2 2.962295 1_555
Pu6 Tc0 2.964163 1_555
Pu7 Tc3 2.962295 1_555
Pu7 Tc1 2.964163 1_555
B0 B4 1.789122 1_555
B0 B18 1.793225 1_555
B0 B1 1.862442 1_555
B0 Tc0 2.394076 1_655
B0 Tc0 2.394076 1_555
B0 Pu0 2.747392 1_655
B0 Pu0 2.747392 1_555
B0 Pu1 2.792223 1_655
B0 Pu1 2.792223 1_555
B1 B5 1.789122 1_555
B1 B19 1.793225 1_555
B1 Tc1 2.394076 1_655
B1 Tc1 2.394076 1_555
B1 Pu1 2.747392 1_555
B1 Pu1 2.747392 1_655
B1 Pu0 2.792223 1_655
B1 Pu0 2.792223 1_555
B2 B6 1.789122 1_555
B2 B3 1.862442 1_544
B2 Tc2 2.394076 1_555
B2 Tc2 2.394076 1_655
B2 Pu2 2.747392 1_545
B2 Pu2 2.747392 1_645
B2 Pu3 2.792223 1_554
B2 Pu3 2.792223 1_654
B3 B7 1.789122 1_555
B3 Tc3 2.394076 1_555
B3 Tc3 2.394076 1_655
B3 Pu3 2.747392 1_565
B3 Pu3 2.747392 1_665
B3 Pu2 2.792223 1_556
B3 Pu2 2.792223 1_656
B4 B8 1.791632 1_555
B4 Tc0 2.366140 1_655
B4 Tc0 2.366140 1_555
B4 Pu4 2.696880 1_555
B4 Pu4 2.696880 1_655
B4 Pu1 2.778898 1_555
B4 Pu1 2.778898 1_655
B5 B9 1.791632 1_555
B5 Tc1 2.366140 1_555
B5 Tc1 2.366140 1_655
B5 Pu5 2.696880 1_655
B5 Pu5 2.696880 1_555
B5 Pu0 2.778898 1_555
B5 Pu0 2.778898 1_655
B6 Tc2 2.366140 1_655
B6 Tc2 2.366140 1_555
B6 Pu6 2.696880 1_555
B6 Pu6 2.696880 1_655
B6 Pu3 2.778898 1_554
B6 Pu3 2.778898 1_654
B7 Tc3 2.366140 1_555
B7 Tc3 2.366140 1_655
B7 Pu7 2.696880 1_555
B7 Pu7 2.696880 1_655
B7 Pu2 2.778898 1_556
B7 Pu2 2.778898 1_656
B8 Tc0 2.405245 1_555
B8 Tc0 2.405245 1_655
B8 Pu4 2.677394 1_555
B8 Pu4 2.677394 1_655
B8 Pu2 2.787244 1_555
B8 Pu2 2.787244 1_655
B9 Tc1 2.405245 1_655
B9 Tc1 2.405245 1_555
B9 Pu5 2.677394 1_555
B9 Pu5 2.677394 1_655
B9 Pu3 2.787244 1_555
B9 Pu3 2.787244 1_655
B10 B14 1.750402 1_555
B10 B6 1.791632 1_555
B10 B18 1.864089 1_555
B10 Tc2 2.405245 1_655
B10 Tc2 2.405245 1_555
B10 Pu6 2.677394 1_555
B10 Pu6 2.677394 1_655
B10 Pu0 2.787244 1_555
B10 Pu0 2.787244 1_655
B11 B15 1.750402 1_555
B11 B7 1.791632 1_555
B11 B19 1.864089 1_555
B11 Tc3 2.405245 1_555
B11 Tc3 2.405245 1_655
B11 Pu7 2.677394 1_555
B11 Pu7 2.677394 1_655
B11 Pu1 2.787244 1_655
B11 Pu1 2.787244 1_555
B12 B20 1.727714 1_555
B12 B8 1.750402 1_555
B12 B18 1.793221 1_555
B12 Tc0 2.382272 1_655
B12 Tc0 2.382272 1_555
B12 Pu6 2.684457 1_655
B12 Pu6 2.684457 1_555
B12 Pu2 2.813751 1_555
B12 Pu2 2.813751 1_655
B13 B21 1.727714 1_555
B13 B9 1.750402 1_555
B13 B19 1.793221 1_555
B13 Tc1 2.382272 1_655
B13 Tc1 2.382272 1_555
B13 Pu7 2.684457 1_555
B13 Pu7 2.684457 1_655
B13 Pu3 2.813751 1_655
B13 Pu3 2.813751 1_555
B14 B22 1.727714 1_555
B14 B16 1.793221 1_545
B14 Tc2 2.382272 1_555
B14 Tc2 2.382272 1_655
B14 Pu4 2.684457 1_545
B14 Pu4 2.684457 1_645
B14 Pu0 2.813751 1_655
B14 Pu0 2.813751 1_555
B15 B23 1.727714 1_555
B15 B17 1.793221 1_565
B15 Tc3 2.382272 1_655
B15 Tc3 2.382272 1_555
B15 Pu5 2.684457 1_665
B15 Pu5 2.684457 1_565
B15 Pu1 2.813751 1_555
B15 Pu1 2.813751 1_655
B16 B2 1.793225 1_565
B16 B8 1.864089 1_555
B16 Tc2 2.384287 1_565
B16 Tc2 2.384287 1_665
B16 Pu4 2.699650 1_555
B16 Pu4 2.699650 1_655
B16 Pu2 2.736699 1_555
B16 Pu2 2.736699 1_655
B17 B3 1.793225 1_545
B17 B9 1.864089 1_555
B17 Tc3 2.384287 1_545
B17 Tc3 2.384287 1_645
B17 Pu5 2.699650 1_555
B17 Pu5 2.699650 1_655
B17 Pu3 2.736699 1_555
B17 Pu3 2.736699 1_655
B18 Tc0 2.384287 1_555
B18 Tc0 2.384287 1_655
B18 Pu6 2.699650 1_655
B18 Pu6 2.699650 1_555
B18 Pu0 2.736699 1_555
B18 Pu0 2.736699 1_655
B19 Tc1 2.384287 1_655
B19 Tc1 2.384287 1_555
B19 Pu7 2.699650 1_555
B19 Pu7 2.699650 1_655
B19 Pu1 2.736699 1_655
B19 Pu1 2.736699 1_555
B20 B7 1.726468 1_554
B20 Pu7 2.658325 1_554
B20 Pu7 2.658325 1_654
B20 Pu6 2.665307 1_555
B20 Pu6 2.665307 1_655
B20 Pu2 2.680252 1_555
B20 Pu2 2.680252 1_655
B21 B6 1.726468 1_556
B21 Pu6 2.658325 1_656
B21 Pu6 2.658325 1_556
B21 Pu7 2.665307 1_555
B21 Pu7 2.665307 1_655
B21 Pu3 2.680252 1_555
B21 Pu3 2.680252 1_655
B22 B5 1.726468 1_555
B22 Pu5 2.658325 1_555
B22 Pu5 2.658325 1_655
B22 Pu4 2.665307 1_545
B22 Pu4 2.665307 1_645
B22 Pu0 2.680252 1_655
B22 Pu0 2.680252 1_555
B23 B4 1.726468 1_555
B23 Pu4 2.658325 1_655
B23 Pu4 2.658325 1_555
B23 Pu5 2.665307 1_565
B23 Pu5 2.665307 1_665
B23 Pu1 2.680252 1_555
B23 Pu1 2.680252 1_655
