# generated using pymatgen
data_Ca2MgFe(SiO3)4
_symmetry_space_group_name_H-M   'P 1'
_cell_length_a   5.33109515
_cell_length_b   9.90704360
_cell_length_c   9.09451469
_cell_angle_alpha   89.83466432
_cell_angle_beta   89.95121372
_cell_angle_gamma   105.34943414
_symmetry_Int_Tables_number   1
_chemical_formula_structural   Ca2MgFe(SiO3)4
_chemical_formula_sum   'Ca4 Mg2 Fe2 Si8 O24'
_cell_volume   463.19410591
_cell_formula_units_Z   2
loop_
 _symmetry_equiv_pos_site_id
 _symmetry_equiv_pos_as_xyz
  1  'x, y, z'
loop_
 _atom_site_type_symbol
 _atom_site_label
 _atom_site_symmetry_multiplicity
 _atom_site_fract_x
 _atom_site_fract_y
 _atom_site_fract_z
 _atom_site_occupancy
  Ca  Ca0  1  0.25054500  0.49943300  0.79672900  1
  Ca  Ca1  1  0.74710000  0.00047900  0.29670400  1
  Ca  Ca2  1  0.74985000  0.49977600  0.19994000  1
  Ca  Ca3  1  0.25028700  0.00021500  0.70041200  1
  Mg  Mg0  1  0.24978200  0.50019000  0.40739800  1
  Mg  Mg1  1  0.75039800  0.99959300  0.90747100  1
  Fe  Fe0  1  0.24952700  0.99949900  0.09340500  1
  Fe  Fe1  1  0.75006200  0.50014700  0.59265000  1
  Si  Si0  1  0.44706500  0.71177800  0.09303200  1
  Si  Si1  1  0.94694200  0.21209600  0.59344900  1
  Si  Si2  1  0.05288500  0.28777300  0.09367500  1
  Si  Si3  1  0.55289300  0.78809600  0.59293800  1
  Si  Si4  1  0.55368900  0.28604400  0.90937600  1
  Si  Si5  1  0.05460300  0.78689600  0.40767600  1
  Si  Si6  1  0.94537700  0.71298600  0.90753500  1
  Si  Si7  1  0.44691400  0.21431800  0.40888200  1
  O  O0  1  0.45824400  0.63527600  0.24781900  1
  O  O1  1  0.95766400  0.13538100  0.74818700  1
  O  O2  1  0.04216100  0.36439000  0.24792000  1
  O  O3  1  0.54139800  0.86449400  0.74728500  1
  O  O4  1  0.53871000  0.36131300  0.75451300  1
  O  O5  1  0.04193700  0.86368900  0.25288600  1
  O  O6  1  0.95913900  0.63621200  0.75358300  1
  O  O7  1  0.46420900  0.14003800  0.25426300  1
  O  O8  1  0.53672600  0.88129800  0.08771700  1
  O  O9  1  0.03552900  0.38167500  0.58714700  1
  O  O10  1  0.96494100  0.11820900  0.08734900  1
  O  O11  1  0.46404400  0.61860100  0.58768600  1
  O  O12  1  0.47377000  0.11584900  0.91217500  1
  O  O13  1  0.97591600  0.61718300  0.40792000  1
  O  O14  1  0.02248100  0.88250300  0.90699900  1
  O  O15  1  0.52571600  0.38430600  0.41049000  1
  O  O16  1  0.14980400  0.65184600  0.01736300  1
  O  O17  1  0.64910100  0.15157400  0.51880500  1
  O  O18  1  0.35048500  0.34856600  0.01817200  1
  O  O19  1  0.85006300  0.84847600  0.51643000  1
  O  O20  1  0.85068200  0.35094800  0.98367200  1
  O  O21  1  0.35077400  0.85151300  0.48300400  1
  O  O22  1  0.64896700  0.64817700  0.98356000  1
  O  O23  1  0.14962000  0.14916200  0.48378100  1
loop_
_geom_bond_atom_site_label_1
_geom_bond_atom_site_label_2
_geom_bond_distance
_geom_bond_site_symmetry_2
Ca0 O4 2.344088 1_555
Ca0 O6 2.348627 1_455
Ca0 O11 2.361272 1_555
Ca0 O9 2.369930 1_555
Ca0 O18 2.641918 1_556
Ca0 O16 2.653238 1_556
Ca0 O20 2.813882 1_455
Ca0 O22 2.816671 1_555
Ca1 O7 2.331704 1_555
Ca1 O8 2.362178 1_545
Ca1 O5 2.365510 1_645
Ca1 O10 2.366547 1_555
Ca1 O19 2.642792 1_545
Ca1 O17 2.650159 1_555
Ca1 O21 2.800272 1_545
Ca1 O23 2.831338 1_655
Ca2 O0 2.348490 1_555
Ca2 O2 2.349930 1_655
Ca2 O13 2.378554 1_555
Ca2 O15 2.379676 1_555
Ca2 O22 2.593648 1_554
Ca2 O20 2.601152 1_554
Ca2 O18 2.800266 1_555
Ca2 O16 2.802140 1_655
Ca3 O3 2.345363 1_545
Ca3 O1 2.350255 1_455
Ca3 O14 2.366110 1_545
Ca3 O12 2.394769 1_555
Ca3 O23 2.598318 1_555
Ca3 O21 2.607587 1_545
Ca3 O17 2.790822 1_555
Ca3 O19 2.816820 1_445
Mg0 O0 2.081110 1_555
Mg0 O2 2.089108 1_555
Mg0 O13 2.090682 1_455
Mg0 O15 2.092070 1_555
Mg0 O9 2.152048 1_555
Mg0 O11 2.161988 1_555
Mg1 O1 2.080433 1_565
Mg1 O14 2.083366 1_655
Mg1 O3 2.092765 1_555
Mg1 O12 2.098235 1_565
Mg1 O8 2.153406 1_556
Mg1 O10 2.160556 1_566
Fe0 O5 2.082408 1_555
Fe0 O7 2.135315 1_565
Fe0 O10 2.152279 1_465
Fe0 O8 2.160464 1_555
Fe0 O12 2.174977 1_564
Fe0 O14 2.225892 1_554
Fe1 O6 2.102460 1_555
Fe1 O4 2.119757 1_555
Fe1 O9 2.154524 1_655
Fe1 O11 2.156692 1_555
Fe1 O15 2.186256 1_555
Fe1 O13 2.205187 1_555
O0 Si0 1.605469 1_555
O1 Si1 1.605696 1_555
O2 Si2 1.605056 1_555
O3 Si3 1.605480 1_555
O4 Si4 1.603649 1_555
O5 Si5 1.608189 1_555
O6 Si6 1.606159 1_555
O7 Si7 1.602832 1_555
O8 Si0 1.620445 1_555
O9 Si1 1.621161 1_455
O10 Si2 1.621343 1_655
O11 Si3 1.620418 1_555
O12 Si4 1.626228 1_555
O13 Si5 1.621575 1_655
O14 Si6 1.619845 1_455
O15 Si7 1.624322 1_555
O16 Si0 1.686285 1_555
O16 Si6 1.702969 1_454
O17 Si1 1.685729 1_555
O17 Si7 1.703107 1_555
O18 Si2 1.685593 1_555
O18 Si4 1.700929 1_554
O19 Si3 1.686951 1_555
O19 Si5 1.700968 1_655
O20 Si4 1.685881 1_555
O20 Si2 1.705866 1_656
O21 Si5 1.685637 1_555
O21 Si3 1.706449 1_555
O22 Si6 1.686933 1_555
O22 Si0 1.705177 1_556
O23 Si7 1.687184 1_555
O23 Si1 1.705690 1_455
