# generated using pymatgen
data_MgAl2(Si3O8)2
_symmetry_space_group_name_H-M   'P 1'
_cell_length_a   5.08438815
_cell_length_b   8.92885339
_cell_length_c   8.64950675
_cell_angle_alpha   91.22604661
_cell_angle_beta   91.54874728
_cell_angle_gamma   90.65671480
_symmetry_Int_Tables_number   1
_chemical_formula_structural   MgAl2(Si3O8)2
_chemical_formula_sum   'Mg1 Al2 Si6 O16'
_cell_volume   392.40641204
_cell_formula_units_Z   1
loop_
 _symmetry_equiv_pos_site_id
 _symmetry_equiv_pos_as_xyz
  1  'x, y, z'
loop_
 _atom_site_type_symbol
 _atom_site_label
 _atom_site_symmetry_multiplicity
 _atom_site_fract_x
 _atom_site_fract_y
 _atom_site_fract_z
 _atom_site_occupancy
  Mg  Mg0  1  0.13930888  0.11419256  0.47075782  1
  Al  Al0  1  0.62760240  0.31636609  0.31598681  1
  Al  Al1  1  0.88492584  0.16687507  0.81177609  1
  Si  Si0  1  0.91578098  0.82159916  0.81188845  1
  Si  Si1  1  0.57341783  0.68019463  0.32262641  1
  Si  Si2  1  0.42558261  0.67325577  0.66452173  1
  Si  Si3  1  0.07815214  0.82668975  0.17744300  1
  Si  Si4  1  0.40560103  0.31852752  0.65948952  1
  Si  Si5  1  0.13161164  0.17074687  0.16538413  1
  O  O0  1  0.98903050  0.16699394  0.00194234  1
  O  O1  1  0.48278250  0.24450988  0.48768081  1
  O  O2  1  0.32487542  0.71542522  0.20385278  1
  O  O3  1  0.17424737  0.76591256  0.72157918  1
  O  O4  1  0.16899353  0.99709295  0.24637953  1
  O  O5  1  0.34632419  0.49661421  0.64880584  1
  O  O6  1  0.83274418  0.98175323  0.74313875  1
  O  O7  1  0.65125410  0.50823264  0.32066066  1
  O  O8  1  0.82626358  0.78434705  0.27909195  1
  O  O9  1  0.67645655  0.69884590  0.78403688  1
  O  O10  1  0.49118478  0.73986360  0.49517492  1
  O  O11  1  0.99404626  0.83106295  0.99656332  1
  O  O12  1  0.12626529  0.22277644  0.67571671  1
  O  O13  1  0.41778841  0.24600315  0.17044572  1
  O  O14  1  0.61921071  0.28417572  0.79092631  1
  O  O15  1  0.94655028  0.23508415  0.30938635  1
loop_
_geom_bond_atom_site_label_1
_geom_bond_atom_site_label_2
_geom_bond_distance
_geom_bond_site_symmetry_2
Mg0 O12 2.005357 1_555
Mg0 O15 2.022045 1_455
Mg0 O1 2.087443 1_555
Mg0 O4 2.194346 1_545
Al0 O7 1.715524 1_555
Al0 O13 1.730794 1_555
Al0 O15 1.786044 1_555
Al0 O1 1.802302 1_555
Al1 O0 1.714215 1_556
Al1 O14 1.726856 1_555
Al1 O6 1.759104 1_545
Al1 O12 1.796926 1_655
O0 Si5 1.570732 1_655
O1 Si4 1.671702 1_555
O2 Si3 1.623439 1_555
O2 Si1 1.644395 1_555
O3 Si2 1.613029 1_555
O3 Si0 1.624257 1_455
O4 Si3 1.677504 1_555
O4 Si5 1.725431 1_565
O5 Si2 1.625345 1_555
O5 Si4 1.625912 1_555
O6 Si0 1.616599 1_555
O7 Si1 1.589845 1_555
O8 Si3 1.618684 1_655
O8 Si1 1.634946 1_555
O9 Si2 1.630883 1_555
O9 Si0 1.637767 1_555
O10 Si2 1.633904 1_555
O10 Si1 1.640398 1_555
O11 Si3 1.612124 1_656
O11 Si0 1.635879 1_555
O12 Si4 1.660068 1_555
O13 Si5 1.594818 1_555
O14 Si4 1.588052 1_555
O15 Si5 1.676858 1_655
