# generated using pymatgen
data_ZrWN3
_symmetry_space_group_name_H-M   'P 1'
_cell_length_a   6.38090340
_cell_length_b   7.87153065
_cell_length_c   5.75067486
_cell_angle_alpha   94.29900769
_cell_angle_beta   92.62872463
_cell_angle_gamma   108.15389749
_symmetry_Int_Tables_number   1
_chemical_formula_structural   ZrWN3
_chemical_formula_sum   'Zr4 W4 N12'
_cell_volume   272.96074750
_cell_formula_units_Z   4
loop_
 _symmetry_equiv_pos_site_id
 _symmetry_equiv_pos_as_xyz
  1  'x, y, z'
loop_
 _atom_site_type_symbol
 _atom_site_label
 _atom_site_symmetry_multiplicity
 _atom_site_fract_x
 _atom_site_fract_y
 _atom_site_fract_z
 _atom_site_occupancy
  Zr  Zr0  1  0.23083200  0.46715100  0.45118200  1
  Zr  Zr1  1  0.76916800  0.53284900  0.54881800  1
  Zr  Zr2  1  0.10183300  0.84131300  0.12631400  1
  Zr  Zr3  1  0.89816700  0.15868700  0.87368600  1
  W  W0  1  0.57020400  0.67660100  0.97549100  1
  W  W1  1  0.42979600  0.32339900  0.02450900  1
  W  W2  1  0.68180800  0.08437800  0.36489200  1
  W  W3  1  0.31819200  0.91562200  0.63510800  1
  N  N0  1  0.36632300  0.03429500  0.32561100  1
  N  N1  1  0.63367700  0.96570500  0.67438900  1
  N  N2  1  0.85132900  0.70321900  0.84774600  1
  N  N3  1  0.14867100  0.29678100  0.15225400  1
  N  N4  1  0.79050600  0.93329100  0.17334700  1
  N  N5  1  0.20949400  0.06670900  0.82665300  1
  N  N6  1  0.10445600  0.69057800  0.43347900  1
  N  N7  1  0.89554400  0.30942200  0.56652100  1
  N  N8  1  0.68419900  0.25383300  0.09985300  1
  N  N9  1  0.31580100  0.74616700  0.90014700  1
  N  N10  1  0.54722700  0.56183700  0.27042100  1
  N  N11  1  0.45277300  0.43816300  0.72957900  1
loop_
_geom_bond_atom_site_label_1
_geom_bond_atom_site_label_2
_geom_bond_distance
_geom_bond_site_symmetry_2
N0 W2 1.925963 1_555
N0 W3 2.062840 1_545
N0 Zr2 2.105559 1_545
N1 W3 1.925963 1_555
N1 W2 2.062840 1_565
N1 Zr3 2.105559 1_565
N2 W0 1.926433 1_555
N2 Zr1 2.040101 1_555
N2 Zr2 2.173522 1_656
N3 W1 1.926433 1_555
N3 Zr0 2.040101 1_555
N3 Zr3 2.173522 1_454
N4 W2 1.869892 1_565
N4 W0 2.256535 1_554
N4 Zr2 2.336640 1_655
N4 Zr3 2.529194 1_564
N5 W3 1.869892 1_545
N5 W1 2.256535 1_556
N5 Zr3 2.336640 1_455
N5 Zr2 2.529194 1_546
N6 W3 2.093803 1_555
N6 Zr0 2.157953 1_555
N6 Zr2 2.202764 1_555
N6 Zr1 2.270911 1_455
N7 W2 2.093803 1_555
N7 Zr1 2.157953 1_555
N7 Zr3 2.202764 1_555
N7 Zr0 2.270911 1_655
N8 W1 1.909903 1_555
N8 W2 2.096839 1_555
N8 Zr3 2.184174 1_554
N9 W0 1.909903 1_555
N9 W3 2.096839 1_555
N9 Zr2 2.184174 1_556
N10 W0 1.970819 1_554
N10 Zr1 2.160767 1_555
N10 W1 2.170825 1_555
N10 Zr0 2.254543 1_555
N11 W1 1.970819 1_556
N11 Zr0 2.160767 1_555
N11 W0 2.170825 1_555
N11 Zr1 2.254543 1_555
