# generated using pymatgen
data_Np3Au
_symmetry_space_group_name_H-M   'P 1'
_cell_length_a   6.66802900
_cell_length_b   6.66802608
_cell_length_c   4.10679500
_cell_angle_alpha   90.00000000
_cell_angle_beta   90.00000000
_cell_angle_gamma   119.99999961
_symmetry_Int_Tables_number   1
_chemical_formula_structural   Np3Au
_chemical_formula_sum   'Np6 Au2'
_cell_volume   158.13515465
_cell_formula_units_Z   2
loop_
 _symmetry_equiv_pos_site_id
 _symmetry_equiv_pos_as_xyz
  1  'x, y, z'
loop_
 _atom_site_type_symbol
 _atom_site_label
 _atom_site_symmetry_multiplicity
 _atom_site_fract_x
 _atom_site_fract_y
 _atom_site_fract_z
 _atom_site_occupancy
  Np  Np0  1  0.15000500  0.30001000  0.25000000  1
  Np  Np1  1  0.69999100  0.84999500  0.25000000  1
  Np  Np2  1  0.15000500  0.84999500  0.25000000  1
  Np  Np3  1  0.84999700  0.69998900  0.74999900  1
  Np  Np4  1  0.30001200  0.15000600  0.74999900  1
  Np  Np5  1  0.84999400  0.15000600  0.74999900  1
  Au  Au0  1  0.33333300  0.66666700  0.74999900  1
  Au  Au1  1  0.66666700  0.33333300  0.25000000  1
loop_
_geom_bond_atom_site_label_1
_geom_bond_atom_site_label_2
_geom_bond_distance
_geom_bond_site_symmetry_2
Np0 Np4 2.686609 1_555
Np0 Np5 2.686610 1_455
Np0 Np4 2.686616 1_554
Np0 Np5 2.686616 1_454
Np0 Np1 3.000709 1_445
Np0 Np2 3.000712 1_545
Np0 Np2 3.667314 1_555
Np0 Np1 3.667318 1_555
Np1 Np5 2.686609 1_565
Np1 Np3 2.686613 1_555
Np1 Np5 2.686615 1_564
Np1 Np3 2.686619 1_554
Np1 Np2 3.000706 1_655
Np1 Np2 3.667323 1_555
Np2 Np3 2.686598 1_455
Np2 Np3 2.686605 1_454
Np2 Np4 2.686609 1_565
Np2 Np4 2.686615 1_564
Np3 Np4 3.000719 1_665
Np3 Np5 3.000735 1_565
Np3 Np5 3.667291 1_555
Np3 Np4 3.667308 1_555
Np4 Np5 3.000733 1_455
Np4 Np5 3.667296 1_555
Au0 Np2 2.949487 1_555
Au0 Np0 2.949491 1_555
Au0 Np2 2.949493 1_556
Au0 Np1 2.949496 1_555
Au0 Np0 2.949497 1_556
Au0 Np1 2.949502 1_556
Au0 Np3 3.339543 1_455
Au0 Np4 3.339558 1_565
Au0 Np5 3.339562 1_455
Au0 Np5 3.339562 1_565
Au0 Np4 3.339564 1_555
Au0 Np3 3.339583 1_555
Au1 Np5 2.949479 1_555
Au1 Np4 2.949483 1_555
Au1 Np5 2.949485 1_554
Au1 Np3 2.949487 1_555
Au1 Np4 2.949489 1_554
Au1 Np3 2.949493 1_554
Au1 Np0 3.339560 1_655
Au1 Np1 3.339562 1_555
Au1 Np1 3.339562 1_545
Au1 Np2 3.339563 1_655
Au1 Np2 3.339563 1_545
Au1 Np0 3.339567 1_555
