# generated using pymatgen
data_ZrGePt
_symmetry_space_group_name_H-M   'P 1'
_cell_length_a   3.98859116
_cell_length_b   6.69686484
_cell_length_c   7.69624478
_cell_angle_alpha   90.00000000
_cell_angle_beta   90.00000000
_cell_angle_gamma   90.00000000
_symmetry_Int_Tables_number   1
_chemical_formula_structural   ZrGePt
_chemical_formula_sum   'Zr4 Ge4 Pt4'
_cell_volume   205.57482454
_cell_formula_units_Z   4
loop_
 _symmetry_equiv_pos_site_id
 _symmetry_equiv_pos_as_xyz
  1  'x, y, z'
loop_
 _atom_site_type_symbol
 _atom_site_label
 _atom_site_symmetry_multiplicity
 _atom_site_fract_x
 _atom_site_fract_y
 _atom_site_fract_z
 _atom_site_occupancy
  Zr  Zr0  1  0.25000000  0.02720673  0.31714128  1
  Zr  Zr1  1  0.25000000  0.52720673  0.18285872  1
  Zr  Zr2  1  0.75000000  0.97279327  0.68285872  1
  Zr  Zr3  1  0.75000000  0.47279327  0.81714128  1
  Ge  Ge0  1  0.25000000  0.25448210  0.62142075  1
  Ge  Ge1  1  0.25000000  0.75448210  0.87857925  1
  Ge  Ge2  1  0.75000000  0.74551790  0.37857925  1
  Ge  Ge3  1  0.75000000  0.24551790  0.12142075  1
  Pt  Pt0  1  0.25000000  0.14460404  0.93626990  1
  Pt  Pt1  1  0.25000000  0.64460404  0.56373010  1
  Pt  Pt2  1  0.75000000  0.85539596  0.06373010  1
  Pt  Pt3  1  0.75000000  0.35539596  0.43626990  1
loop_
_geom_bond_atom_site_label_1
_geom_bond_atom_site_label_2
_geom_bond_distance
_geom_bond_site_symmetry_2
Ge0 Pt0 2.532419 1_555
Ge0 Pt3 2.542530 1_455
Ge0 Pt3 2.542530 1_555
Ge0 Pt1 2.650054 1_555
Ge0 Zr2 2.785574 1_445
Ge0 Zr2 2.785574 1_545
Ge0 Zr0 2.792965 1_555
Ge0 Zr3 2.895451 1_555
Ge0 Zr3 2.895451 1_455
Ge1 Pt1 2.532419 1_555
Ge1 Pt2 2.542530 1_456
Ge1 Pt2 2.542530 1_556
Ge1 Pt0 2.650054 1_565
Ge1 Zr3 2.785574 1_555
Ge1 Zr3 2.785574 1_455
Ge1 Zr1 2.792965 1_556
Ge1 Zr2 2.895451 1_455
Ge1 Zr2 2.895451 1_555
Ge2 Pt2 2.532419 1_555
Ge2 Pt1 2.542530 1_655
Ge2 Pt1 2.542530 1_555
Ge2 Pt3 2.650054 1_555
Ge2 Zr0 2.785574 1_565
Ge2 Zr0 2.785574 1_665
Ge2 Zr2 2.792965 1_555
Ge2 Zr1 2.895451 1_655
Ge2 Zr1 2.895451 1_555
Ge3 Pt3 2.532419 1_555
Ge3 Pt0 2.542530 1_554
Ge3 Pt0 2.542530 1_654
Ge3 Pt2 2.650054 1_545
Ge3 Zr1 2.785574 1_655
Ge3 Zr1 2.785574 1_555
Ge3 Zr3 2.792965 1_554
Ge3 Zr0 2.895451 1_555
Ge3 Zr0 2.895451 1_655
Pt0 Pt2 2.947991 1_546
Pt0 Pt2 2.947991 1_446
Pt0 Zr2 3.017417 1_445
Pt0 Zr2 3.017417 1_545
Pt0 Zr0 3.034880 1_556
Pt0 Zr3 3.106173 1_455
Pt0 Zr3 3.106173 1_555
Pt0 Zr1 3.188533 1_556
Pt1 Pt3 2.947991 1_555
Pt1 Pt3 2.947991 1_455
Pt1 Zr3 3.017417 1_555
Pt1 Zr3 3.017417 1_455
Pt1 Zr1 3.034880 1_555
Pt1 Zr2 3.106173 1_455
Pt1 Zr2 3.106173 1_555
Pt1 Zr0 3.188533 1_565
Pt2 Zr0 3.017417 1_565
Pt2 Zr0 3.017417 1_665
Pt2 Zr2 3.034880 1_554
Pt2 Zr1 3.106173 1_655
Pt2 Zr1 3.106173 1_555
Pt2 Zr3 3.188533 1_554
Pt3 Zr1 3.017417 1_655
Pt3 Zr1 3.017417 1_555
Pt3 Zr3 3.034880 1_555
Pt3 Zr0 3.106173 1_555
Pt3 Zr0 3.106173 1_655
Pt3 Zr2 3.188533 1_545
