# generated using pymatgen
data_Lu(SiPt)2
_symmetry_space_group_name_H-M   'P 1'
_cell_length_a   5.93364855
_cell_length_b   5.93364855
_cell_length_c   5.93364855
_cell_angle_alpha   139.28654753
_cell_angle_beta   139.28654753
_cell_angle_gamma   58.93819392
_symmetry_Int_Tables_number   1
_chemical_formula_structural   Lu(SiPt)2
_chemical_formula_sum   'Lu1 Si2 Pt2'
_cell_volume   88.03872828
_cell_formula_units_Z   1
loop_
 _symmetry_equiv_pos_site_id
 _symmetry_equiv_pos_as_xyz
  1  'x, y, z'
loop_
 _atom_site_type_symbol
 _atom_site_label
 _atom_site_symmetry_multiplicity
 _atom_site_fract_x
 _atom_site_fract_y
 _atom_site_fract_z
 _atom_site_occupancy
  Lu  Lu0  1  0.00000000  0.00000000  0.00000000  1
  Si  Si0  1  0.25000000  0.75000000  0.50000000  1
  Si  Si1  1  0.75000000  0.25000000  0.50000000  1
  Pt  Pt0  1  0.62987400  0.62987400  0.00000000  1
  Pt  Pt1  1  0.37012600  0.37012600  0.00000000  1
loop_
_geom_bond_atom_site_label_1
_geom_bond_atom_site_label_2
_geom_bond_distance
_geom_bond_site_symmetry_2
Lu0 Pt1 3.212724 1_455
Lu0 Pt0 3.212724 1_455
Lu0 Pt1 3.212724 1_556
Lu0 Pt1 3.212724 1_545
Lu0 Pt0 3.212724 1_444
Lu0 Pt0 3.212724 1_545
Lu0 Pt1 3.212724 1_444
Lu0 Pt0 3.212724 1_556
Lu0 Si1 3.306404 1_555
Lu0 Si0 3.306404 1_545
Lu0 Si0 3.306404 1_444
Lu0 Si1 3.306404 1_454
Lu0 Si0 3.306404 1_544
Lu0 Si1 3.306404 1_444
Lu0 Si1 3.306404 1_455
Lu0 Si0 3.306404 1_555
Pt0 Si0 2.408512 1_655
Pt0 Si1 2.408512 1_565
Pt0 Si0 2.408512 1_554
Pt0 Si1 2.408512 1_554
Pt0 Pt1 2.683696 1_555
Pt1 Si1 2.408512 1_454
Pt1 Si0 2.408512 1_544
Pt1 Si0 2.408512 1_555
Pt1 Si1 2.408512 1_555
