# generated using pymatgen
data_CuTe2O7
_symmetry_space_group_name_H-M   'P 1'
_cell_length_a   9.54264500
_cell_length_b   10.62613600
_cell_length_c   11.16304128
_cell_angle_alpha   85.63492537
_cell_angle_beta   90.00000000
_cell_angle_gamma   90.00000000
_symmetry_Int_Tables_number   1
_chemical_formula_structural   CuTe2O7
_chemical_formula_sum   'Cu6 Te12 O42'
_cell_volume   1128.66509329
_cell_formula_units_Z   6
loop_
 _symmetry_equiv_pos_site_id
 _symmetry_equiv_pos_as_xyz
  1  'x, y, z'
loop_
 _atom_site_type_symbol
 _atom_site_label
 _atom_site_symmetry_multiplicity
 _atom_site_fract_x
 _atom_site_fract_y
 _atom_site_fract_z
 _atom_site_occupancy
  Cu  Cu0  1  0.93691000  0.40951300  0.19608000  1
  Cu  Cu1  1  0.06309000  0.59048700  0.80392000  1
  Cu  Cu2  1  0.43518100  0.25000000  0.50000000  1
  Cu  Cu3  1  0.93691000  0.09048700  0.80392000  1
  Cu  Cu4  1  0.56481900  0.75000000  0.50000000  1
  Cu  Cu5  1  0.06309000  0.90951300  0.19608000  1
  Te  Te0  1  0.21189900  0.29313200  0.83370400  1
  Te  Te1  1  0.75487400  0.37764200  0.83826300  1
  Te  Te2  1  0.24512600  0.87764200  0.83826300  1
  Te  Te3  1  0.78810100  0.79313200  0.83370400  1
  Te  Te4  1  0.28454900  0.95846000  0.52212000  1
  Te  Te5  1  0.75487400  0.12235800  0.16173700  1
  Te  Te6  1  0.71545100  0.45846000  0.52212000  1
  Te  Te7  1  0.24512600  0.62235800  0.16173700  1
  Te  Te8  1  0.28454900  0.54154000  0.47788000  1
  Te  Te9  1  0.71545100  0.04154000  0.47788000  1
  Te  Te10  1  0.78810100  0.70686800  0.16629600  1
  Te  Te11  1  0.21189900  0.20686800  0.16629600  1
  O  O0  1  0.78851900  0.96768600  0.80526900  1
  O  O1  1  0.78264400  0.29418700  0.17373200  1
  O  O2  1  0.85363500  0.75000000  0.00000000  1
  O  O3  1  0.88686700  0.10879000  0.49458200  1
  O  O4  1  0.36975400  0.58302700  0.04983100  1
  O  O5  1  0.93455200  0.72031100  0.75361900  1
  O  O6  1  0.34367700  0.93774000  0.69025600  1
  O  O7  1  0.11313300  0.60879000  0.49458200  1
  O  O8  1  0.71564600  0.86859600  0.51739000  1
  O  O9  1  0.36975400  0.91697300  0.95016900  1
  O  O10  1  0.71564600  0.63140400  0.48261000  1
  O  O11  1  0.43310100  0.88067300  0.44881100  1
  O  O12  1  0.92507300  0.03829700  0.15062200  1
  O  O13  1  0.06544800  0.22031100  0.75361900  1
  O  O14  1  0.65632300  0.06226000  0.30974400  1
  O  O15  1  0.34367700  0.56226000  0.30974400  1
  O  O16  1  0.93455200  0.77968900  0.24638100  1
  O  O17  1  0.63024600  0.41697300  0.95016900  1
  O  O18  1  0.21148100  0.46768600  0.80526900  1
  O  O19  1  0.56689900  0.11932700  0.55118900  1
  O  O20  1  0.38185600  0.27241800  0.19437500  1
  O  O21  1  0.28435400  0.13140400  0.48261000  1
  O  O22  1  0.07492700  0.53829700  0.15062200  1
  O  O23  1  0.28435400  0.36859600  0.51739000  1
  O  O24  1  0.88686700  0.39121000  0.50541800  1
  O  O25  1  0.56689900  0.38067300  0.44881100  1
  O  O26  1  0.11313300  0.89121000  0.50541800  1
  O  O27  1  0.61814400  0.77241800  0.19437500  1
  O  O28  1  0.61814400  0.72758200  0.80562500  1
  O  O29  1  0.07492700  0.96170300  0.84937800  1
  O  O30  1  0.06544800  0.27968900  0.24638100  1
  O  O31  1  0.78851900  0.53231400  0.19473100  1
  O  O32  1  0.14636500  0.25000000  0.00000000  1
  O  O33  1  0.21735600  0.79418700  0.17373200  1
  O  O34  1  0.63024600  0.08302700  0.04983100  1
  O  O35  1  0.92507300  0.46170300  0.84937800  1
  O  O36  1  0.21148100  0.03231400  0.19473100  1
  O  O37  1  0.78264400  0.20581300  0.82626800  1
  O  O38  1  0.43310100  0.61932700  0.55118900  1
  O  O39  1  0.65632300  0.43774000  0.69025600  1
  O  O40  1  0.21735600  0.70581300  0.82626800  1
  O  O41  1  0.38185600  0.22758200  0.80562500  1
loop_
_geom_bond_atom_site_label_1
_geom_bond_atom_site_label_2
_geom_bond_distance
_geom_bond_site_symmetry_2
Cu0 O30 1.898685 1_655
Cu0 O31 1.924884 1_555
Cu0 O22 1.938850 1_655
Cu0 O1 1.943616 1_555
Cu1 O5 1.898685 1_455
Cu1 O18 1.924884 1_555
Cu1 O35 1.938850 1_455
Cu1 O40 1.943616 1_555
Cu2 O25 1.927098 1_555
Cu2 O19 1.927098 1_555
Cu2 O23 1.932517 1_555
Cu2 O21 1.932517 1_555
Cu3 O13 1.898685 1_655
Cu3 O0 1.924884 1_545
Cu3 O29 1.938850 1_645
Cu3 O37 1.943616 1_555
Cu4 O11 1.927098 1_555
Cu4 O38 1.927098 1_555
Cu4 O8 1.932517 1_555
Cu4 O10 1.932517 1_555
Cu5 O16 1.898685 1_455
Cu5 O36 1.924884 1_565
Cu5 O12 1.938850 1_465
Cu5 O33 1.943616 1_555
O0 Te3 1.857837 1_555
O1 Te5 1.859893 1_555
O2 Te3 1.979328 1_554
O2 Te10 1.979328 1_555
O3 Te9 1.800396 1_555
O4 Te7 1.796959 1_555
O5 Te3 1.859137 1_555
O6 Te4 1.956201 1_555
O6 Te2 1.965051 1_555
O7 Te8 1.800396 1_555
O8 Te9 1.856983 1_565
O9 Te2 1.796959 1_555
O10 Te6 1.856983 1_555
O11 Te4 1.861565 1_555
O12 Te5 1.862259 1_555
O13 Te0 1.859137 1_555
O14 Te9 1.956201 1_555
O14 Te5 1.965051 1_555
O15 Te8 1.956201 1_555
O15 Te7 1.965051 1_555
O16 Te10 1.859137 1_555
O17 Te1 1.796959 1_555
O18 Te0 1.857837 1_555
O19 Te9 1.861565 1_555
O20 Te11 1.801949 1_555
O21 Te4 1.856983 1_545
O22 Te7 1.862259 1_555
O23 Te8 1.856983 1_555
O24 Te6 1.800396 1_555
O25 Te6 1.861565 1_555
O26 Te4 1.800396 1_555
O27 Te10 1.801949 1_555
O28 Te3 1.801949 1_555
O29 Te2 1.862259 1_555
O30 Te11 1.859137 1_555
O31 Te10 1.857837 1_555
O32 Te0 1.979328 1_554
O32 Te11 1.979328 1_555
O33 Te7 1.859893 1_555
O34 Te5 1.796959 1_555
O35 Te1 1.862259 1_555
O36 Te11 1.857837 1_555
O37 Te1 1.859893 1_555
O38 Te8 1.861565 1_555
O39 Te6 1.956201 1_555
O39 Te1 1.965051 1_555
O40 Te2 1.859893 1_555
O41 Te0 1.801949 1_555
