# generated using pymatgen
data_SrAg2(IO2)4
_symmetry_space_group_name_H-M   'P 1'
_cell_length_a   7.42978330
_cell_length_b   7.42978330
_cell_length_c   7.42978330
_cell_angle_alpha   115.87578394
_cell_angle_beta   115.87578394
_cell_angle_gamma   97.30533101
_symmetry_Int_Tables_number   1
_chemical_formula_structural   SrAg2(IO2)4
_chemical_formula_sum   'Sr1 Ag2 I4 O8'
_cell_volume   305.39780275
_cell_formula_units_Z   1
loop_
 _symmetry_equiv_pos_site_id
 _symmetry_equiv_pos_as_xyz
  1  'x, y, z'
loop_
 _atom_site_type_symbol
 _atom_site_label
 _atom_site_symmetry_multiplicity
 _atom_site_fract_x
 _atom_site_fract_y
 _atom_site_fract_z
 _atom_site_occupancy
  Sr  Sr0  1  0.00000000  0.00000000  0.00000000  1
  Ag  Ag0  1  0.50000000  0.00000000  0.50000000  1
  Ag  Ag1  1  0.00000000  0.50000000  0.50000000  1
  I  I0  1  0.49033200  0.50966800  0.50000000  1
  I  I1  1  0.00966800  0.99033200  0.50000000  1
  I  I2  1  0.50966800  0.00966800  0.01933600  1
  I  I3  1  0.99033200  0.49033200  0.98066400  1
  O  O0  1  0.19245700  0.88283900  0.77597000  1
  O  O1  1  0.10686900  0.41648700  0.22403000  1
  O  O2  1  0.80754300  0.58351300  0.69038200  1
  O  O3  1  0.89313100  0.11716100  0.30961800  1
  O  O4  1  0.58351300  0.89313100  0.77597000  1
  O  O5  1  0.11716100  0.80754300  0.22403000  1
  O  O6  1  0.88283900  0.10686900  0.69038200  1
  O  O7  1  0.41648700  0.19245700  0.30961800  1
loop_
_geom_bond_atom_site_label_1
_geom_bond_atom_site_label_2
_geom_bond_distance
_geom_bond_site_symmetry_2
Ag0 O6 2.378117 1_555
Ag0 O7 2.378117 1_555
Ag0 O5 2.378117 1_545
Ag0 O4 2.378117 1_545
Ag1 O1 2.378117 1_555
Ag1 O0 2.378117 1_555
Ag1 O2 2.378117 1_455
Ag1 O3 2.378117 1_455
I0 O2 1.985030 1_555
I0 O7 1.985030 1_555
I0 O4 2.441514 1_555
I0 O1 2.441514 1_555
I1 O6 1.985030 1_465
I1 O3 1.985030 1_465
I1 O5 2.441514 1_555
I1 O0 2.441514 1_555
I2 O4 1.985030 1_544
I2 O0 1.985030 1_544
I2 O3 2.441514 1_555
I2 O7 2.441514 1_555
I3 O1 1.985030 1_656
I3 O5 1.985030 1_656
I3 O2 2.441514 1_555
I3 O6 2.441514 1_555
O0 Sr0 2.588870 1_566
O1 Sr0 2.588870 1_555
O2 Sr0 2.588870 1_666
O3 Sr0 2.588870 1_655
O4 Sr0 2.588870 1_666
O5 Sr0 2.588870 1_565
O6 Sr0 2.588870 1_656
O7 Sr0 2.588870 1_555
