# generated using pymatgen
data_K2Re
_symmetry_space_group_name_H-M   'P 1'
_cell_length_a   21.23888111
_cell_length_b   21.23888050
_cell_length_c   5.50125400
_cell_angle_alpha   90.00000000
_cell_angle_beta   90.00000000
_cell_angle_gamma   120.03704513
_symmetry_Int_Tables_number   1
_chemical_formula_structural   K2Re
_chemical_formula_sum   'K48 Re24'
_cell_volume   2148.29216658
_cell_formula_units_Z   24
loop_
 _symmetry_equiv_pos_site_id
 _symmetry_equiv_pos_as_xyz
  1  'x, y, z'
loop_
 _atom_site_type_symbol
 _atom_site_label
 _atom_site_symmetry_multiplicity
 _atom_site_fract_x
 _atom_site_fract_y
 _atom_site_fract_z
 _atom_site_occupancy
  K  K0_0  1  0.17891400  0.17891400  0.00000000  1
  K  K0_1  1  0.17891400  0.17891400  0.50000000  1
  K  K0_2  1  0.17891400  0.67891400  0.00000000  1
  K  K0_3  1  0.17891400  0.67891400  0.50000000  1
  K  K0_4  1  0.67891400  0.17891400  0.00000000  1
  K  K0_5  1  0.67891400  0.17891400  0.50000000  1
  K  K0_6  1  0.67891400  0.67891400  0.00000000  1
  K  K0_7  1  0.67891400  0.67891400  0.50000000  1
  K  K1_0  1  0.32126800  0.49984950  0.00000000  1
  K  K1_1  1  0.32126800  0.49984950  0.50000000  1
  K  K1_2  1  0.32126800  0.99984950  0.00000000  1
  K  K1_3  1  0.32126800  0.99984950  0.50000000  1
  K  K1_4  1  0.82126800  0.49984950  0.00000000  1
  K  K1_5  1  0.82126800  0.49984950  0.50000000  1
  K  K1_6  1  0.82126800  0.99984950  0.00000000  1
  K  K1_7  1  0.82126800  0.99984950  0.50000000  1
  K  K2_0  1  0.49984950  0.32126800  0.00000000  1
  K  K2_1  1  0.49984950  0.32126800  0.50000000  1
  K  K2_2  1  0.49984950  0.82126800  0.00000000  1
  K  K2_3  1  0.49984950  0.82126800  0.50000000  1
  K  K2_4  1  0.99984950  0.32126800  0.00000000  1
  K  K2_5  1  0.99984950  0.32126800  0.50000000  1
  K  K2_6  1  0.99984950  0.82126800  0.00000000  1
  K  K2_7  1  0.99984950  0.82126800  0.50000000  1
  K  K3_0  1  0.34492150  0.34492150  0.25000000  1
  K  K3_1  1  0.34492150  0.34492150  0.75000000  1
  K  K3_2  1  0.34492150  0.84492150  0.25000000  1
  K  K3_3  1  0.34492150  0.84492150  0.75000000  1
  K  K3_4  1  0.84492150  0.34492150  0.25000000  1
  K  K3_5  1  0.84492150  0.34492150  0.75000000  1
  K  K3_6  1  0.84492150  0.84492150  0.25000000  1
  K  K3_7  1  0.84492150  0.84492150  0.75000000  1
  K  K4_0  1  0.15510050  0.00020850  0.25000000  1
  K  K4_1  1  0.15510050  0.00020850  0.75000000  1
  K  K4_2  1  0.15510050  0.50020850  0.25000000  1
  K  K4_3  1  0.15510050  0.50020850  0.75000000  1
  K  K4_4  1  0.65510050  0.00020850  0.25000000  1
  K  K4_5  1  0.65510050  0.00020850  0.75000000  1
  K  K4_6  1  0.65510050  0.50020850  0.25000000  1
  K  K4_7  1  0.65510050  0.50020850  0.75000000  1
  K  K5_0  1  0.00020850  0.15510050  0.25000000  1
  K  K5_1  1  0.00020850  0.15510050  0.75000000  1
  K  K5_2  1  0.00020850  0.65510050  0.25000000  1
  K  K5_3  1  0.00020850  0.65510050  0.75000000  1
  K  K5_4  1  0.50020850  0.15510050  0.25000000  1
  K  K5_5  1  0.50020850  0.15510050  0.75000000  1
  K  K5_6  1  0.50020850  0.65510050  0.25000000  1
  K  K5_7  1  0.50020850  0.65510050  0.75000000  1
  Re  Re0_0  1  0.49998600  0.49998600  0.00000000  1
  Re  Re0_1  1  0.49998600  0.49998600  0.50000000  1
  Re  Re0_2  1  0.49998600  0.99998600  0.00000000  1
  Re  Re0_3  1  0.49998600  0.99998600  0.50000000  1
  Re  Re0_4  1  0.99998600  0.49998600  0.00000000  1
  Re  Re0_5  1  0.99998600  0.49998600  0.50000000  1
  Re  Re0_6  1  0.99998600  0.99998600  0.00000000  1
  Re  Re0_7  1  0.99998600  0.99998600  0.50000000  1
  Re  Re1_0  1  0.33335750  0.16644500  0.25000000  1
  Re  Re1_1  1  0.33335750  0.16644500  0.75000000  1
  Re  Re1_2  1  0.33335750  0.66644500  0.25000000  1
  Re  Re1_3  1  0.33335750  0.66644500  0.75000000  1
  Re  Re1_4  1  0.83335750  0.16644500  0.25000000  1
  Re  Re1_5  1  0.83335750  0.16644500  0.75000000  1
  Re  Re1_6  1  0.83335750  0.66644500  0.25000000  1
  Re  Re1_7  1  0.83335750  0.66644500  0.75000000  1
  Re  Re2_0  1  0.16644500  0.33335750  0.25000000  1
  Re  Re2_1  1  0.16644500  0.33335750  0.75000000  1
  Re  Re2_2  1  0.16644500  0.83335750  0.25000000  1
  Re  Re2_3  1  0.16644500  0.83335750  0.75000000  1
  Re  Re2_4  1  0.66644500  0.33335750  0.25000000  1
  Re  Re2_5  1  0.66644500  0.33335750  0.75000000  1
  Re  Re2_6  1  0.66644500  0.83335750  0.25000000  1
  Re  Re2_7  1  0.66644500  0.83335750  0.75000000  1
loop_
_geom_bond_atom_site_label_1
_geom_bond_atom_site_label_2
_geom_bond_distance
_geom_bond_site_symmetry_2
K0_0 K0_1 2.750627 1_555
K0_0 K0_1 2.750627 1_554
K0_0 Re2_1 3.686603 1_554
K0_0 Re2_0 3.686603 1_555
K0_0 Re1_1 3.686603 1_554
K0_0 Re1_0 3.686603 1_555
K0_0 Re0_6 3.798102 1_445
K0_1 Re2_0 3.686603 1_555
K0_1 Re2_1 3.686603 1_555
K0_1 Re1_0 3.686603 1_555
K0_1 Re1_1 3.686603 1_555
K0_1 Re0_7 3.798102 1_445
K0_2 K0_3 2.750627 1_554
K0_2 K0_3 2.750627 1_555
K0_2 Re2_2 3.686603 1_555
K0_2 Re2_3 3.686603 1_554
K0_2 Re1_3 3.686603 1_554
K0_2 Re1_2 3.686603 1_555
K0_2 Re0_4 3.798102 1_455
K0_3 Re2_2 3.686603 1_555
K0_3 Re2_3 3.686603 1_555
K0_3 Re1_2 3.686603 1_555
K0_3 Re1_3 3.686603 1_555
K0_3 Re0_5 3.798102 1_455
K0_4 K0_5 2.750627 1_554
K0_4 K0_5 2.750627 1_555
K0_4 Re2_5 3.686603 1_554
K0_4 Re2_4 3.686603 1_555
K0_4 Re1_5 3.686603 1_554
K0_4 Re1_4 3.686603 1_555
K0_4 Re0_2 3.798102 1_545
K0_5 Re2_4 3.686603 1_555
K0_5 Re2_5 3.686603 1_555
K0_5 Re1_4 3.686603 1_555
K0_5 Re1_5 3.686603 1_555
K0_5 Re0_3 3.798102 1_545
K0_6 K0_7 2.750627 1_555
K0_6 K0_7 2.750627 1_554
K0_6 Re2_6 3.686603 1_555
K0_6 Re2_7 3.686603 1_554
K0_6 Re1_7 3.686603 1_554
K0_6 Re1_6 3.686603 1_555
K0_6 Re0_0 3.798102 1_555
K0_7 Re2_6 3.686603 1_555
K0_7 Re2_7 3.686603 1_555
K0_7 Re1_6 3.686603 1_555
K0_7 Re1_7 3.686603 1_555
K0_7 Re0_1 3.798102 1_555
K1_0 K1_1 2.750627 1_554
K1_0 K1_1 2.750627 1_555
K1_0 Re1_3 3.683403 1_554
K1_0 Re1_2 3.683403 1_555
K1_0 Re2_1 3.683415 1_554
K1_0 Re2_0 3.683415 1_555
K1_0 Re0_0 3.794320 1_555
K1_1 Re1_2 3.683403 1_555
K1_1 Re1_3 3.683403 1_555
K1_1 Re2_0 3.683415 1_555
K1_1 Re2_1 3.683415 1_555
K1_1 Re0_1 3.794320 1_555
K1_2 K1_3 2.750627 1_554
K1_2 K1_3 2.750627 1_555
K1_2 Re1_1 3.683403 1_564
K1_2 Re1_0 3.683403 1_565
K1_2 Re2_3 3.683415 1_554
K1_2 Re2_2 3.683415 1_555
K1_2 Re0_2 3.794320 1_555
K1_3 Re1_0 3.683403 1_565
K1_3 Re1_1 3.683403 1_565
K1_3 Re2_2 3.683415 1_555
K1_3 Re2_3 3.683415 1_555
K1_3 Re0_3 3.794320 1_555
K1_4 K1_5 2.750627 1_554
K1_4 K1_5 2.750627 1_555
K1_4 Re1_6 3.683403 1_555
K1_4 Re1_7 3.683403 1_554
K1_4 Re2_5 3.683415 1_554
K1_4 Re2_4 3.683415 1_555
K1_4 Re0_4 3.794320 1_555
K1_5 Re1_6 3.683403 1_555
K1_5 Re1_7 3.683403 1_555
K1_5 Re2_4 3.683415 1_555
K1_5 Re2_5 3.683415 1_555
K1_5 Re0_5 3.794320 1_555
K1_6 K1_7 2.750627 1_554
K1_6 K1_7 2.750627 1_555
K1_6 Re1_5 3.683403 1_564
K1_6 Re1_4 3.683403 1_565
K1_6 Re2_7 3.683415 1_554
K1_6 Re2_6 3.683415 1_555
K1_6 Re0_6 3.794320 1_555
K1_7 Re1_4 3.683403 1_565
K1_7 Re1_5 3.683403 1_565
K1_7 Re2_6 3.683415 1_555
K1_7 Re2_7 3.683415 1_555
K1_7 Re0_7 3.794320 1_555
K2_0 K2_1 2.750627 1_555
K2_0 K2_1 2.750627 1_554
K2_0 Re2_4 3.683403 1_555
K2_0 Re2_5 3.683403 1_554
K2_0 Re1_0 3.683415 1_555
K2_0 Re1_1 3.683415 1_554
K2_0 Re0_0 3.794320 1_555
K2_1 Re2_4 3.683403 1_555
K2_1 Re2_5 3.683403 1_555
K2_1 Re1_0 3.683415 1_555
K2_1 Re1_1 3.683415 1_555
K2_1 Re0_1 3.794320 1_555
K2_2 K2_3 2.750627 1_554
K2_2 K2_3 2.750627 1_555
K2_2 Re2_7 3.683403 1_554
K2_2 Re2_6 3.683403 1_555
K2_2 Re1_3 3.683415 1_554
K2_2 Re1_2 3.683415 1_555
K2_2 Re0_2 3.794320 1_555
K2_3 Re2_6 3.683403 1_555
K2_3 Re2_7 3.683403 1_555
K2_3 Re1_2 3.683415 1_555
K2_3 Re1_3 3.683415 1_555
K2_3 Re0_3 3.794320 1_555
K2_4 K2_5 2.750627 1_555
K2_4 K2_5 2.750627 1_554
K2_4 Re2_1 3.683403 1_654
K2_4 Re2_0 3.683403 1_655
K2_4 Re1_5 3.683415 1_554
K2_4 Re1_4 3.683415 1_555
K2_4 Re0_4 3.794320 1_555
K2_5 Re2_0 3.683403 1_655
K2_5 Re2_1 3.683403 1_655
K2_5 Re1_4 3.683415 1_555
K2_5 Re1_5 3.683415 1_555
K2_5 Re0_5 3.794320 1_555
K2_6 K2_7 2.750627 1_555
K2_6 K2_7 2.750627 1_554
K2_6 Re2_3 3.683403 1_654
K2_6 Re2_2 3.683403 1_655
K2_6 Re1_7 3.683415 1_554
K2_6 Re1_6 3.683415 1_555
K2_6 Re0_6 3.794320 1_555
K2_7 Re2_2 3.683403 1_655
K2_7 Re2_3 3.683403 1_655
K2_7 Re1_6 3.683415 1_555
K2_7 Re1_7 3.683415 1_555
K2_7 Re0_7 3.794320 1_555
K3_0 K3_1 2.750627 1_554
K3_0 K3_1 2.750627 1_555
K3_0 Re0_0 3.567324 1_555
K3_0 Re0_1 3.567324 1_555
K3_0 Re1_0 3.673858 1_555
K3_0 Re2_0 3.673858 1_555
K3_1 Re0_0 3.567324 1_556
K3_1 Re0_1 3.567324 1_555
K3_1 Re1_1 3.673858 1_555
K3_1 Re2_1 3.673858 1_555
K3_2 K3_3 2.750627 1_554
K3_2 K3_3 2.750627 1_555
K3_2 Re0_2 3.567324 1_555
K3_2 Re0_3 3.567324 1_555
K3_2 Re1_2 3.673858 1_555
K3_2 Re2_2 3.673858 1_555
K3_3 Re0_2 3.567324 1_556
K3_3 Re0_3 3.567324 1_555
K3_3 Re1_3 3.673858 1_555
K3_3 Re2_3 3.673858 1_555
K3_4 K3_5 2.750627 1_554
K3_4 K3_5 2.750627 1_555
K3_4 Re0_4 3.567324 1_555
K3_4 Re0_5 3.567324 1_555
K3_4 Re1_4 3.673858 1_555
K3_4 Re2_4 3.673858 1_555
K3_5 Re0_4 3.567324 1_556
K3_5 Re0_5 3.567324 1_555
K3_5 Re1_5 3.673858 1_555
K3_5 Re2_5 3.673858 1_555
K3_6 K3_7 2.750627 1_554
K3_6 K3_7 2.750627 1_555
K3_6 Re0_7 3.567324 1_555
K3_6 Re0_6 3.567324 1_555
K3_6 Re1_6 3.673858 1_555
K3_6 Re2_6 3.673858 1_555
K3_7 Re0_6 3.567324 1_556
K3_7 Re0_7 3.567324 1_555
K3_7 Re1_7 3.673858 1_555
K3_7 Re2_7 3.673858 1_555
K4_0 K4_1 2.750627 1_554
K4_0 K4_1 2.750627 1_555
K4_0 Re0_7 3.567826 1_445
K4_0 Re0_6 3.567826 1_445
K4_0 Re1_0 3.662961 1_555
K4_0 Re2_2 3.670267 1_545
K4_1 Re0_6 3.567826 1_446
K4_1 Re0_7 3.567826 1_445
K4_1 Re1_1 3.662961 1_555
K4_1 Re2_3 3.670267 1_545
K4_2 K4_3 2.750627 1_554
K4_2 K4_3 2.750627 1_555
K4_2 Re0_4 3.567826 1_455
K4_2 Re0_5 3.567826 1_455
K4_2 Re1_2 3.662961 1_555
K4_2 Re2_0 3.670267 1_555
K4_3 Re0_4 3.567826 1_456
K4_3 Re0_5 3.567826 1_455
K4_3 Re1_3 3.662961 1_555
K4_3 Re2_1 3.670267 1_555
K4_4 K4_5 2.750627 1_554
K4_4 K4_5 2.750627 1_555
K4_4 Re0_2 3.567826 1_545
K4_4 Re0_3 3.567826 1_545
K4_4 Re1_4 3.662961 1_555
K4_4 Re2_6 3.670267 1_545
K4_5 Re0_2 3.567826 1_546
K4_5 Re0_3 3.567826 1_545
K4_5 Re1_5 3.662961 1_555
K4_5 Re2_7 3.670267 1_545
K4_6 K4_7 2.750627 1_554
K4_6 K4_7 2.750627 1_555
K4_6 Re0_0 3.567826 1_555
K4_6 Re0_1 3.567826 1_555
K4_6 Re1_6 3.662961 1_555
K4_6 Re2_4 3.670267 1_555
K4_7 Re0_0 3.567826 1_556
K4_7 Re0_1 3.567826 1_555
K4_7 Re1_7 3.662961 1_555
K4_7 Re2_5 3.670267 1_555
K5_0 K5_1 2.750627 1_554
K5_0 K5_1 2.750627 1_555
K5_0 Re0_7 3.567826 1_445
K5_0 Re0_6 3.567826 1_445
K5_0 Re2_0 3.662961 1_555
K5_0 Re1_4 3.670268 1_455
K5_1 Re0_6 3.567826 1_446
K5_1 Re0_7 3.567826 1_445
K5_1 Re2_1 3.662961 1_555
K5_1 Re1_5 3.670268 1_455
K5_2 K5_3 2.750627 1_554
K5_2 K5_3 2.750627 1_555
K5_2 Re0_4 3.567826 1_455
K5_2 Re0_5 3.567826 1_455
K5_2 Re2_2 3.662961 1_555
K5_2 Re1_6 3.670268 1_455
K5_3 Re0_4 3.567826 1_456
K5_3 Re0_5 3.567826 1_455
K5_3 Re2_3 3.662961 1_555
K5_3 Re1_7 3.670268 1_455
K5_4 K5_5 2.750627 1_554
K5_4 K5_5 2.750627 1_555
K5_4 Re0_3 3.567826 1_545
K5_4 Re0_2 3.567826 1_545
K5_4 Re2_4 3.662961 1_555
K5_4 Re1_0 3.670268 1_555
K5_5 Re0_2 3.567826 1_546
K5_5 Re0_3 3.567826 1_545
K5_5 Re2_5 3.662961 1_555
K5_5 Re1_1 3.670268 1_555
K5_6 K5_7 2.750627 1_554
K5_6 K5_7 2.750627 1_555
K5_6 Re0_0 3.567826 1_555
K5_6 Re0_1 3.567826 1_555
K5_6 Re2_6 3.662961 1_555
K5_6 Re1_2 3.670268 1_555
K5_7 Re0_0 3.567826 1_556
K5_7 Re0_1 3.567826 1_555
K5_7 Re2_7 3.662961 1_555
K5_7 Re1_3 3.670268 1_555
Re0_0 Re0_1 2.750627 1_554
Re0_0 Re0_1 2.750627 1_555
Re0_2 Re0_3 2.750627 1_555
Re0_2 Re0_3 2.750627 1_554
Re0_4 Re0_5 2.750627 1_554
Re0_4 Re0_5 2.750627 1_555
Re0_6 Re0_7 2.750627 1_554
Re0_6 Re0_7 2.750627 1_555
Re1_0 Re1_1 2.750627 1_554
Re1_0 Re1_1 2.750627 1_555
Re1_2 Re1_3 2.750627 1_554
Re1_2 Re1_3 2.750627 1_555
Re1_4 Re1_5 2.750627 1_554
Re1_4 Re1_5 2.750627 1_555
Re1_6 Re1_7 2.750627 1_554
Re1_6 Re1_7 2.750627 1_555
Re2_0 Re2_1 2.750627 1_554
Re2_0 Re2_1 2.750627 1_555
Re2_2 Re2_3 2.750627 1_554
Re2_2 Re2_3 2.750627 1_555
Re2_4 Re2_5 2.750627 1_554
Re2_4 Re2_5 2.750627 1_555
Re2_6 Re2_7 2.750627 1_554
Re2_6 Re2_7 2.750627 1_555
