# generated using pymatgen
data_Li9Mn2Co5O16
_symmetry_space_group_name_H-M   'P 1'
_cell_length_a   5.07325700
_cell_length_b   6.64880337
_cell_length_c   8.70904488
_cell_angle_alpha   98.06366442
_cell_angle_beta   94.58001484
_cell_angle_gamma   98.06811233
_symmetry_Int_Tables_number   1
_chemical_formula_structural   Li9Mn2Co5O16
_chemical_formula_sum   'Li9 Mn2 Co5 O16'
_cell_volume   286.49370337
_cell_formula_units_Z   1
loop_
 _symmetry_equiv_pos_site_id
 _symmetry_equiv_pos_as_xyz
  1  'x, y, z'
loop_
 _atom_site_type_symbol
 _atom_site_label
 _atom_site_symmetry_multiplicity
 _atom_site_fract_x
 _atom_site_fract_y
 _atom_site_fract_z
 _atom_site_occupancy
  Li  Li0  1  0.25462600  0.69097500  0.81925500  1
  Li  Li1  1  0.23706000  0.93611900  0.56079800  1
  Li  Li2  1  0.74019400  0.57826700  0.94276900  1
  Li  Li3  1  0.75550200  0.80763700  0.68613500  1
  Li  Li4  1  0.25693600  0.44000900  0.06698000  1
  Li  Li5  1  0.25706300  0.18141800  0.30565700  1
  Li  Li6  1  0.74051800  0.05547500  0.42727900  1
  Li  Li7  1  0.75212100  0.30910400  0.19047200  1
  Li  Li8  1  0.49819300  0.87581700  0.12539100  1
  Mn  Mn0  1  0.00015400  0.99377800  0.99881400  1
  Mn  Mn1  1  0.49971700  0.37553900  0.62602900  1
  Co  Co0  1  0.00688700  0.24925300  0.75222700  1
  Co  Co1  1  0.99882100  0.50414400  0.49462200  1
  Co  Co2  1  0.00583200  0.76214300  0.24932600  1
  Co  Co3  1  0.50210300  0.11686100  0.88352900  1
  Co  Co4  1  0.50273900  0.63142500  0.36592700  1
  O  O0  1  0.12890200  0.97181700  0.79008300  1
  O  O1  1  0.13862800  0.23233300  0.55099100  1
  O  O2  1  0.64888800  0.86175600  0.90677500  1
  O  O3  1  0.63050500  0.12203000  0.66853600  1
  O  O4  1  0.10753300  0.73827700  0.03038100  1
  O  O5  1  0.11794900  0.47661900  0.29244500  1
  O  O6  1  0.61752900  0.34744800  0.42097100  1
  O  O7  1  0.63339800  0.59573800  0.17115000  1
  O  O8  1  0.37012000  0.39755500  0.83202500  1
  O  O9  1  0.37863800  0.63098900  0.58886900  1
  O  O10  1  0.89097700  0.25988100  0.95691600  1
  O  O11  1  0.85516300  0.51712100  0.70430300  1
  O  O12  1  0.36215800  0.15015200  0.07621800  1
  O  O13  1  0.35517600  0.89010700  0.34444000  1
  O  O14  1  0.86852500  0.77309400  0.46688100  1
  O  O15  1  0.88744200  0.02711400  0.20380700  1
loop_
_geom_bond_atom_site_label_1
_geom_bond_atom_site_label_2
_geom_bond_distance
_geom_bond_site_symmetry_2
Li0 O4 2.039461 1_556
Li0 O0 2.097515 1_555
Li0 O8 2.129082 1_555
Li0 O9 2.151333 1_555
Li0 O2 2.178822 1_555
Li0 O11 2.266979 1_455
Li1 O13 2.018220 1_555
Li1 O14 2.068273 1_455
Li1 O0 2.103193 1_555
Li1 O1 2.109957 1_565
Li1 O3 2.252878 1_565
Li1 O9 2.282897 1_555
Li2 O4 2.043452 1_656
Li2 O2 2.062328 1_555
Li2 O7 2.094764 1_556
Li2 O8 2.156684 1_555
Li2 O11 2.200402 1_555
Li2 O10 2.365210 1_555
Li3 O14 2.028911 1_555
Li3 O2 2.034962 1_555
Li3 O11 2.087772 1_555
Li3 O0 2.113798 1_655
Li3 O9 2.141117 1_555
Li3 O3 2.289451 1_565
Li4 O12 2.081096 1_555
Li4 O7 2.108901 1_555
Li4 O5 2.132442 1_555
Li4 O10 2.137686 1_454
Li4 O8 2.160456 1_554
Li4 O4 2.273668 1_555
Li5 O15 2.072365 1_455
Li5 O6 2.097727 1_555
Li5 O12 2.098807 1_555
Li5 O13 2.130870 1_545
Li5 O5 2.191548 1_555
Li5 O1 2.258315 1_555
Li6 O13 2.121330 1_545
Li6 O6 2.127280 1_555
Li6 O15 2.132400 1_555
Li6 O14 2.133969 1_545
Li6 O3 2.217607 1_555
Li6 O1 2.291982 1_655
Li7 O5 2.086323 1_655
Li7 O15 2.099926 1_555
Li7 O7 2.102156 1_555
Li7 O6 2.164530 1_555
Li7 O12 2.196523 1_555
Li7 O10 2.201707 1_554
Li8 O13 2.089107 1_555
Li8 O15 2.100541 1_565
Li8 O2 2.102566 1_554
Li8 O4 2.113292 1_555
Li8 O12 2.124137 1_565
Li8 O7 2.149455 1_555
Mn0 O4 1.903958 1_556
Mn0 O15 1.910751 1_466
Mn0 O2 1.929809 1_455
Mn0 O0 1.973437 1_555
Mn0 O12 1.994481 1_566
Mn0 O10 1.998538 1_465
Mn1 O6 1.920842 1_555
Mn1 O11 1.936436 1_555
Mn1 O9 1.944750 1_555
Mn1 O8 1.952936 1_555
Mn1 O1 1.958097 1_555
Mn1 O3 1.966743 1_555
Co0 O10 1.916337 1_455
Co0 O1 1.919304 1_555
Co0 O8 1.986010 1_555
Co0 O3 2.011036 1_455
Co0 O0 2.086390 1_545
Co0 O11 2.116768 1_455
Co1 O5 1.899908 1_655
Co1 O11 2.014778 1_555
Co1 O14 2.029893 1_555
Co1 O9 2.048172 1_655
Co1 O6 2.070604 1_555
Co1 O1 2.136168 1_655
Co2 O13 1.922416 1_555
Co2 O4 2.005617 1_555
Co2 O15 2.019049 1_465
Co2 O7 2.062550 1_455
Co2 O14 2.065607 1_455
Co2 O5 2.130126 1_555
Co3 O12 1.870664 1_556
Co3 O2 1.974649 1_545
Co3 O3 2.034184 1_555
Co3 O0 2.048972 1_545
Co3 O10 2.075191 1_555
Co3 O8 2.161064 1_555
Co4 O7 1.866549 1_555
Co4 O13 1.995732 1_555
Co4 O14 2.029879 1_555
Co4 O5 2.081221 1_555
Co4 O9 2.088672 1_555
Co4 O6 2.156823 1_555
