# generated using pymatgen
data_Mg3Fe(SiO4)2
_symmetry_space_group_name_H-M   'P 1'
_cell_length_a   4.80516400
_cell_length_b   6.09809800
_cell_length_c   10.42541800
_cell_angle_alpha   90.00000000
_cell_angle_beta   90.00000000
_cell_angle_gamma   90.00000000
_symmetry_Int_Tables_number   1
_chemical_formula_structural   Mg3Fe(SiO4)2
_chemical_formula_sum   'Mg6 Fe2 Si4 O16'
_cell_volume   305.48936158
_cell_formula_units_Z   2
loop_
 _symmetry_equiv_pos_site_id
 _symmetry_equiv_pos_as_xyz
  1  'x, y, z'
loop_
 _atom_site_type_symbol
 _atom_site_label
 _atom_site_symmetry_multiplicity
 _atom_site_fract_x
 _atom_site_fract_y
 _atom_site_fract_z
 _atom_site_occupancy
  Mg  Mg0  1  0.25662300  0.00000000  0.22233500  1
  Mg  Mg1  1  0.74337700  0.00000000  0.72233500  1
  Mg  Mg2  1  0.24985700  0.74976800  0.50006900  1
  Mg  Mg3  1  0.75014300  0.25023200  0.00006900  1
  Mg  Mg4  1  0.24985700  0.25023200  0.50006900  1
  Mg  Mg5  1  0.75014300  0.74976800  0.00006900  1
  Fe  Fe0  1  0.23561000  0.50000000  0.77856000  1
  Fe  Fe1  1  0.76439000  0.50000000  0.27856000  1
  Si  Si0  1  0.67509000  0.50000000  0.59526000  1
  Si  Si1  1  0.32491000  0.50000000  0.09526000  1
  Si  Si2  1  0.82204800  0.00000000  0.40704200  1
  Si  Si3  1  0.17795200  0.00000000  0.90704200  1
  O  O0  1  0.53148500  0.71924100  0.66214300  1
  O  O1  1  0.46851500  0.28075900  0.16214300  1
  O  O2  1  0.97304900  0.21292500  0.33678300  1
  O  O3  1  0.02695100  0.78707500  0.83678300  1
  O  O4  1  0.97304900  0.78707500  0.33678300  1
  O  O5  1  0.02695100  0.21292500  0.83678300  1
  O  O6  1  0.53148500  0.28075900  0.66214300  1
  O  O7  1  0.46851500  0.71924100  0.16214300  1
  O  O8  1  0.01489800  0.50000000  0.58785000  1
  O  O9  1  0.98510200  0.50000000  0.08785000  1
  O  O10  1  0.48234600  0.00000000  0.40820800  1
  O  O11  1  0.51765400  0.00000000  0.90820800  1
  O  O12  1  0.47664100  0.50000000  0.95062100  1
  O  O13  1  0.52335900  0.50000000  0.45062100  1
  O  O14  1  0.02850800  0.00000000  0.05213400  1
  O  O15  1  0.97149200  0.00000000  0.55213400  1
loop_
_geom_bond_atom_site_label_1
_geom_bond_atom_site_label_2
_geom_bond_distance
_geom_bond_site_symmetry_2
Mg0 O14 2.085679 1_555
Mg0 O7 2.088479 1_545
Mg0 O1 2.088479 1_555
Mg0 O10 2.220702 1_555
Mg0 O2 2.228525 1_455
Mg0 O4 2.228525 1_445
Mg1 O15 2.085679 1_555
Mg1 O6 2.088479 1_555
Mg1 O0 2.088479 1_545
Mg1 O11 2.220702 1_555
Mg1 O5 2.228525 1_655
Mg1 O3 2.228525 1_645
Mg2 O13 2.076728 1_555
Mg2 O15 2.100540 1_465
Mg2 O8 2.105243 1_555
Mg2 O10 2.119830 1_565
Mg2 O4 2.172292 1_455
Mg2 O0 2.172795 1_555
Mg3 O12 2.076728 1_554
Mg3 O14 2.100540 1_655
Mg3 O9 2.105243 1_555
Mg3 O11 2.119830 1_554
Mg3 O5 2.172292 1_654
Mg3 O1 2.172795 1_555
Mg4 O13 2.076728 1_555
Mg4 O15 2.100540 1_455
Mg4 O8 2.105243 1_555
Mg4 O10 2.119830 1_555
Mg4 O2 2.172292 1_455
Mg4 O6 2.172795 1_555
Mg5 O12 2.076728 1_554
Mg5 O14 2.100540 1_665
Mg5 O9 2.105243 1_555
Mg5 O11 2.119830 1_564
Mg5 O3 2.172292 1_654
Mg5 O7 2.172795 1_555
Fe0 O3 2.106746 1_555
Fe0 O5 2.106746 1_555
Fe0 O12 2.135219 1_555
Fe0 O8 2.253408 1_555
Fe0 O0 2.298219 1_555
Fe0 O6 2.298219 1_555
Fe1 O2 2.106746 1_555
Fe1 O4 2.106746 1_555
Fe1 O13 2.135219 1_555
Fe1 O9 2.253408 1_555
Fe1 O7 2.298219 1_555
Fe1 O1 2.298219 1_555
O0 Si0 1.658255 1_555
O1 Si1 1.658255 1_555
O2 Si2 1.657992 1_555
O3 Si3 1.657992 1_565
O4 Si2 1.657992 1_565
O5 Si3 1.657992 1_555
O6 Si0 1.658255 1_555
O7 Si1 1.658255 1_555
O8 Si0 1.634660 1_455
O9 Si1 1.634660 1_655
O10 Si2 1.632369 1_555
O11 Si3 1.632369 1_555
O12 Si1 1.674934 1_556
O13 Si0 1.674934 1_555
O14 Si3 1.674445 1_554
O15 Si2 1.674445 1_555
