# generated using pymatgen
data_LiSnSb
_symmetry_space_group_name_H-M   'P 1'
_cell_length_a   9.20001414
_cell_length_b   9.20001414
_cell_length_c   8.32842200
_cell_angle_alpha   90.00000000
_cell_angle_beta   90.00000000
_cell_angle_gamma   120.00000100
_symmetry_Int_Tables_number   1
_chemical_formula_structural   LiSnSb
_chemical_formula_sum   'Li8 Sn8 Sb8'
_cell_volume   610.47845245
_cell_formula_units_Z   8
loop_
 _symmetry_equiv_pos_site_id
 _symmetry_equiv_pos_as_xyz
  1  'x, y, z'
loop_
 _atom_site_type_symbol
 _atom_site_label
 _atom_site_symmetry_multiplicity
 _atom_site_fract_x
 _atom_site_fract_y
 _atom_site_fract_z
 _atom_site_occupancy
  Li  Li0  1  0.17227000  0.34454100  0.39570500  1
  Li  Li1  1  0.17227000  0.82773000  0.39570500  1
  Li  Li2  1  0.65545900  0.82773000  0.39570500  1
  Li  Li3  1  0.82773000  0.65545900  0.89570500  1
  Li  Li4  1  0.82773000  0.17227000  0.89570500  1
  Li  Li5  1  0.34454100  0.17227000  0.89570500  1
  Li  Li6  1  0.33333300  0.66666700  0.53653800  1
  Li  Li7  1  0.66666700  0.33333300  0.03653800  1
  Sn  Sn0  1  0.16756400  0.33512900  0.74894500  1
  Sn  Sn1  1  0.16756400  0.83243600  0.74894500  1
  Sn  Sn2  1  0.66487100  0.83243600  0.74894500  1
  Sn  Sn3  1  0.83243600  0.66487100  0.24894500  1
  Sn  Sn4  1  0.83243600  0.16756400  0.24894500  1
  Sn  Sn5  1  0.33512900  0.16756400  0.24894500  1
  Sn  Sn6  1  0.33333300  0.66666700  0.17052800  1
  Sn  Sn7  1  0.66666700  0.33333300  0.67052800  1
  Sb  Sb0  1  0.51709300  0.03418700  0.45827800  1
  Sb  Sb1  1  0.51709300  0.48290700  0.45827800  1
  Sb  Sb2  1  0.96581300  0.48290700  0.45827800  1
  Sb  Sb3  1  0.48290700  0.96581300  0.95827800  1
  Sb  Sb4  1  0.48290700  0.51709300  0.95827800  1
  Sb  Sb5  1  0.03418700  0.51709300  0.95827800  1
  Sb  Sb6  1  0.00000000  0.00000000  0.45400200  1
  Sb  Sb7  1  0.00000000  0.00000000  0.95400200  1
loop_
_geom_bond_atom_site_label_1
_geom_bond_atom_site_label_2
_geom_bond_distance
_geom_bond_site_symmetry_2
Li0 Sb6 2.787718 1_555
Li0 Sb1 2.813835 1_555
Li0 Sb2 2.813835 1_455
Li0 Li6 2.821837 1_555
Li0 Sn0 2.942887 1_555
Li0 Sn4 2.971419 1_455
Li0 Sn5 2.971434 1_555
Li0 Sn6 3.178686 1_555
Li1 Sb6 2.787710 1_565
Li1 Sb0 2.813835 1_565
Li1 Sb2 2.813835 1_455
Li1 Li6 2.821837 1_555
Li1 Sn1 2.942887 1_555
Li1 Sn5 2.971419 1_565
Li1 Sn3 2.971419 1_455
Li1 Sn6 3.178686 1_555
Li2 Sb6 2.787718 1_665
Li2 Sb1 2.813835 1_555
Li2 Sb0 2.813835 1_565
Li2 Li6 2.821837 1_555
Li2 Sn2 2.942887 1_555
Li2 Sn4 2.971419 1_565
Li2 Sn3 2.971434 1_555
Li2 Sn6 3.178686 1_555
Li3 Sb7 2.787718 1_665
Li3 Sb4 2.813835 1_555
Li3 Sb5 2.813835 1_655
Li3 Li7 2.821837 1_556
Li3 Sn3 2.942887 1_556
Li3 Sn1 2.971419 1_655
Li3 Sn2 2.971434 1_555
Li3 Sn7 3.178686 1_555
Li4 Sb7 2.787710 1_655
Li4 Sb3 2.813835 1_545
Li4 Sb5 2.813835 1_655
Li4 Li7 2.821837 1_556
Li4 Sn4 2.942887 1_556
Li4 Sn0 2.971419 1_655
Li4 Sn2 2.971419 1_545
Li4 Sn7 3.178686 1_555
Li5 Sb7 2.787718 1_555
Li5 Sb4 2.813835 1_555
Li5 Sb3 2.813835 1_545
Li5 Li7 2.821837 1_556
Li5 Sn5 2.942887 1_556
Li5 Sn1 2.971419 1_545
Li5 Sn0 2.971434 1_555
Li5 Sn7 3.178686 1_555
Li6 Sb2 2.999858 1_455
Li6 Sb0 2.999858 1_565
Li6 Sb1 2.999858 1_555
Li6 Sn6 3.048286 1_555
Li6 Sn2 3.179150 1_555
Li6 Sn0 3.179150 1_555
Li6 Sn1 3.179150 1_555
Li7 Sb3 2.999858 1_544
Li7 Sb5 2.999858 1_654
Li7 Sb4 2.999858 1_554
Li7 Sn7 3.048286 1_554
Li7 Sn3 3.179150 1_555
Li7 Sn5 3.179150 1_555
Li7 Sn4 3.179150 1_555
Sb0 Sn7 2.967411 1_555
Sb0 Sn5 3.066254 1_555
Sb0 Sn4 3.066267 1_555
Sb1 Sn7 2.967424 1_555
Sb1 Sn3 3.066266 1_555
Sb1 Sn5 3.066266 1_555
Sb2 Sn7 2.967411 1_555
Sb2 Sn3 3.066254 1_555
Sb2 Sn4 3.066267 1_555
Sb3 Sn6 2.967411 1_556
Sb3 Sn2 3.066254 1_555
Sb3 Sn1 3.066267 1_555
Sb4 Sn6 2.967424 1_556
Sb4 Sn0 3.066266 1_555
Sb4 Sn2 3.066266 1_555
Sb5 Sn6 2.967411 1_556
Sb5 Sn0 3.066254 1_555
Sb5 Sn1 3.066267 1_555
Sb6 Sn4 3.169558 1_455
Sb6 Sn5 3.169564 1_555
Sb6 Sn3 3.169564 1_445
Sb7 Sn1 3.169558 1_545
Sb7 Sn0 3.169564 1_555
Sb7 Sn2 3.169564 1_445
