# generated using pymatgen
data_AlH18C6N2Cl3
_symmetry_space_group_name_H-M   'P 1'
_cell_length_a   10.28707600
_cell_length_b   10.91792800
_cell_length_c   13.96876000
_cell_angle_alpha   90.00000000
_cell_angle_beta   90.00000000
_cell_angle_gamma   90.00000000
_symmetry_Int_Tables_number   1
_chemical_formula_structural   AlH18C6N2Cl3
_chemical_formula_sum   'Al4 H72 C24 N8 Cl12'
_cell_volume   1568.88109592
_cell_formula_units_Z   4
loop_
 _symmetry_equiv_pos_site_id
 _symmetry_equiv_pos_as_xyz
  1  'x, y, z'
loop_
 _atom_site_type_symbol
 _atom_site_label
 _atom_site_symmetry_multiplicity
 _atom_site_fract_x
 _atom_site_fract_y
 _atom_site_fract_z
 _atom_site_occupancy
  Al  Al0  1  0.70305800  0.25000000  0.47603700  1
  Al  Al1  1  0.20305800  0.25000000  0.02396300  1
  Al  Al2  1  0.29694200  0.75000000  0.52396300  1
  Al  Al3  1  0.79694200  0.75000000  0.97603700  1
  H  H0  1  0.49259200  0.25000000  0.22325400  1
  H  H1  1  0.99259200  0.25000000  0.27674600  1
  H  H2  1  0.50740800  0.75000000  0.77674600  1
  H  H3  1  0.00740800  0.75000000  0.72325400  1
  H  H4  1  0.63620600  0.16809200  0.25746300  1
  H  H5  1  0.13620600  0.33190800  0.24253700  1
  H  H6  1  0.36379400  0.66809200  0.74253700  1
  H  H7  1  0.86379400  0.83190800  0.75746300  1
  H  H8  1  0.36379400  0.83190800  0.74253700  1
  H  H9  1  0.86379400  0.66809200  0.75746300  1
  H  H10  1  0.63620600  0.33190800  0.25746300  1
  H  H11  1  0.13620600  0.16809200  0.24253700  1
  H  H12  1  0.50725500  0.05650700  0.37451000  1
  H  H13  1  0.00725500  0.44349300  0.12549000  1
  H  H14  1  0.49274500  0.55650700  0.62549000  1
  H  H15  1  0.99274500  0.94349300  0.87451000  1
  H  H16  1  0.49274500  0.94349300  0.62549000  1
  H  H17  1  0.99274500  0.55650700  0.87451000  1
  H  H18  1  0.50725500  0.44349300  0.37451000  1
  H  H19  1  0.00725500  0.05650700  0.12549000  1
  H  H20  1  0.40932000  0.13802400  0.45827500  1
  H  H21  1  0.90932000  0.36197600  0.04172500  1
  H  H22  1  0.59068000  0.63802400  0.54172500  1
  H  H23  1  0.09068000  0.86197600  0.95827500  1
  H  H24  1  0.59068000  0.86197600  0.54172500  1
  H  H25  1  0.09068000  0.63802400  0.95827500  1
  H  H26  1  0.40932000  0.36197600  0.45827500  1
  H  H27  1  0.90932000  0.13802400  0.04172500  1
  H  H28  1  0.36964600  0.14141600  0.33357600  1
  H  H29  1  0.86964600  0.35858400  0.16642400  1
  H  H30  1  0.63035400  0.64141600  0.66642400  1
  H  H31  1  0.13035400  0.85858400  0.83357600  1
  H  H32  1  0.63035400  0.85858400  0.66642400  1
  H  H33  1  0.13035400  0.64141600  0.83357600  1
  H  H34  1  0.36964600  0.35858400  0.33357600  1
  H  H35  1  0.86964600  0.14141600  0.16642400  1
  H  H36  1  0.08064800  0.25000000  0.58827400  1
  H  H37  1  0.58064800  0.25000000  0.91172600  1
  H  H38  1  0.91935200  0.75000000  0.41172600  1
  H  H39  1  0.41935200  0.75000000  0.08827400  1
  H  H40  1  0.01006700  0.16788800  0.49036600  1
  H  H41  1  0.51006700  0.33211200  0.00963400  1
  H  H42  1  0.98993300  0.66788800  0.50963400  1
  H  H43  1  0.48993300  0.83211200  0.99036600  1
  H  H44  1  0.98993300  0.83211200  0.50963400  1
  H  H45  1  0.48993300  0.66788800  0.99036600  1
  H  H46  1  0.01006700  0.33211200  0.49036600  1
  H  H47  1  0.51006700  0.16788800  0.00963400  1
  H  H48  1  0.87520000  0.44309100  0.60272400  1
  H  H49  1  0.37520000  0.05690900  0.89727600  1
  H  H50  1  0.12480000  0.94309100  0.39727600  1
  H  H51  1  0.62480000  0.55690900  0.10272400  1
  H  H52  1  0.12480000  0.55690900  0.39727600  1
  H  H53  1  0.62480000  0.94309100  0.10272400  1
  H  H54  1  0.87520000  0.05690900  0.60272400  1
  H  H55  1  0.37520000  0.44309100  0.89727600  1
  H  H56  1  0.95249200  0.35895300  0.69697900  1
  H  H57  1  0.45249200  0.14104700  0.80302100  1
  H  H58  1  0.04750800  0.85895300  0.30302100  1
  H  H59  1  0.54750800  0.64104700  0.19697900  1
  H  H60  1  0.04750800  0.64104700  0.30302100  1
  H  H61  1  0.54750800  0.85895300  0.19697900  1
  H  H62  1  0.95249200  0.14104700  0.69697900  1
  H  H63  1  0.45249200  0.35895300  0.80302100  1
  H  H64  1  0.77904100  0.36180600  0.68825100  1
  H  H65  1  0.27904100  0.13819400  0.81174900  1
  H  H66  1  0.22095900  0.86180600  0.31174900  1
  H  H67  1  0.72095900  0.63819400  0.18825100  1
  H  H68  1  0.22095900  0.63819400  0.31174900  1
  H  H69  1  0.72095900  0.86180600  0.18825100  1
  H  H70  1  0.77904100  0.13819400  0.68825100  1
  H  H71  1  0.27904100  0.36180600  0.81174900  1
  C  C0  1  0.44970800  0.13952100  0.38585300  1
  C  C1  1  0.94970800  0.36047900  0.11414700  1
  C  C2  1  0.55029200  0.63952100  0.61414700  1
  C  C3  1  0.05029200  0.86047900  0.88585300  1
  C  C4  1  0.55029200  0.86047900  0.61414700  1
  C  C5  1  0.05029200  0.63952100  0.88585300  1
  C  C6  1  0.44970800  0.36047900  0.38585300  1
  C  C7  1  0.94970800  0.13952100  0.11414700  1
  C  C8  1  0.57769900  0.25000000  0.27138300  1
  C  C9  1  0.07769900  0.25000000  0.22861700  1
  C  C10  1  0.42230100  0.75000000  0.72861700  1
  C  C11  1  0.92230100  0.75000000  0.77138300  1
  C  C12  1  0.00121700  0.25000000  0.53523600  1
  C  C13  1  0.50121700  0.25000000  0.96476400  1
  C  C14  1  0.99878300  0.75000000  0.46476400  1
  C  C15  1  0.49878300  0.75000000  0.03523600  1
  C  C16  1  0.86965300  0.36011400  0.64698200  1
  C  C17  1  0.36965300  0.13988600  0.85301800  1
  C  C18  1  0.13034700  0.86011400  0.35301800  1
  C  C19  1  0.63034700  0.63988600  0.14698200  1
  C  C20  1  0.13034700  0.63988600  0.35301800  1
  C  C21  1  0.63034700  0.86011400  0.14698200  1
  C  C22  1  0.86965300  0.13988600  0.64698200  1
  C  C23  1  0.36965300  0.36011400  0.85301800  1
  N  N0  1  0.53303000  0.25000000  0.37256500  1
  N  N1  1  0.03303000  0.25000000  0.12743500  1
  N  N2  1  0.46697000  0.75000000  0.62743500  1
  N  N3  1  0.96697000  0.75000000  0.87256500  1
  N  N4  1  0.87371200  0.25000000  0.58453500  1
  N  N5  1  0.37371200  0.25000000  0.91546500  1
  N  N6  1  0.12628800  0.75000000  0.41546500  1
  N  N7  1  0.62628800  0.75000000  0.08453500  1
  Cl  Cl0  1  0.56917700  0.25000000  0.59598000  1
  Cl  Cl1  1  0.06917700  0.25000000  0.90402000  1
  Cl  Cl2  1  0.43082300  0.75000000  0.40402000  1
  Cl  Cl3  1  0.93082300  0.75000000  0.09598000  1
  Cl  Cl4  1  0.77307900  0.42172800  0.41660100  1
  Cl  Cl5  1  0.27307900  0.07827200  0.08339900  1
  Cl  Cl6  1  0.22692100  0.92172800  0.58339900  1
  Cl  Cl7  1  0.72692100  0.57827200  0.91660100  1
  Cl  Cl8  1  0.22692100  0.57827200  0.58339900  1
  Cl  Cl9  1  0.72692100  0.92172800  0.91660100  1
  Cl  Cl10  1  0.77307900  0.07827200  0.41660100  1
  Cl  Cl11  1  0.27307900  0.42172800  0.08339900  1
loop_
_geom_bond_atom_site_label_1
_geom_bond_atom_site_label_2
_geom_bond_distance
_geom_bond_site_symmetry_2
Al0 Cl0 2.168859 1_555
Al0 Cl10 2.173353 1_555
Al0 Cl4 2.173353 1_555
Al0 N0 2.269015 1_555
Al0 N4 2.319241 1_555
Al1 Cl1 2.168859 1_554
Al1 Cl5 2.173353 1_555
Al1 Cl11 2.173353 1_555
Al1 N1 2.269015 1_555
Al1 N5 2.319241 1_554
Al2 Cl2 2.168859 1_555
Al2 Cl8 2.173353 1_555
Al2 Cl6 2.173353 1_555
Al2 N2 2.269015 1_555
Al2 N6 2.319241 1_555
Al3 Cl3 2.168859 1_556
Al3 Cl7 2.173353 1_555
Al3 Cl9 2.173353 1_555
Al3 N3 2.269015 1_555
Al3 N7 2.319241 1_556
C0 H20 1.093761 1_555
C0 H12 1.094080 1_555
C0 H28 1.100913 1_555
C0 N0 1.491330 1_555
C1 H21 1.093761 1_555
C1 H13 1.094080 1_655
C1 H29 1.100913 1_555
C1 N1 1.491330 1_655
C2 H22 1.093761 1_555
C2 H14 1.094080 1_555
C2 H30 1.100913 1_555
C2 N2 1.491330 1_555
C3 H23 1.093761 1_555
C3 H15 1.094080 1_455
C3 H31 1.100913 1_555
C3 N3 1.491330 1_455
C4 H24 1.093761 1_555
C4 H16 1.094080 1_555
C4 H32 1.100913 1_555
C4 N2 1.491330 1_555
C5 H25 1.093761 1_555
C5 H17 1.094080 1_455
C5 H33 1.100913 1_555
C5 N3 1.491330 1_455
C6 H26 1.093761 1_555
C6 H18 1.094080 1_555
C6 H34 1.100913 1_555
C6 N0 1.491330 1_555
C7 H27 1.093761 1_555
C7 H19 1.094080 1_655
C7 H35 1.100913 1_555
C7 N1 1.491330 1_655
C8 H10 1.095337 1_555
C8 H4 1.095337 1_555
C8 H0 1.103854 1_555
C8 N0 1.486208 1_555
C9 H5 1.095337 1_555
C9 H11 1.095337 1_555
C9 H1 1.103854 1_455
C9 N1 1.486208 1_555
C10 H8 1.095337 1_555
C10 H6 1.095337 1_555
C10 H2 1.103854 1_555
C10 N2 1.486208 1_555
C11 H7 1.095337 1_555
C11 H9 1.095337 1_555
C11 H3 1.103854 1_655
C11 N3 1.486208 1_555
C12 H46 1.097652 1_555
C12 H40 1.097652 1_555
C12 H36 1.102982 1_555
C12 N4 1.481441 1_455
C13 H41 1.097652 1_556
C13 H47 1.097652 1_556
C13 H37 1.102982 1_555
C13 N5 1.481441 1_555
C14 H44 1.097652 1_555
C14 H42 1.097652 1_555
C14 H38 1.102982 1_555
C14 N6 1.481441 1_655
C15 H43 1.097652 1_554
C15 H45 1.097652 1_554
C15 H39 1.102982 1_555
C15 N7 1.481441 1_555
C16 H64 1.096147 1_555
C16 H48 1.098265 1_555
C16 H56 1.101868 1_555
C16 N4 1.485930 1_555
C17 H65 1.096147 1_555
C17 H49 1.098265 1_555
C17 H57 1.101868 1_555
C17 N5 1.485930 1_555
C18 H66 1.096147 1_555
C18 H50 1.098265 1_555
C18 H58 1.101868 1_555
C18 N6 1.485930 1_555
C19 H67 1.096147 1_555
C19 H51 1.098265 1_555
C19 H59 1.101868 1_555
C19 N7 1.485930 1_555
C20 H68 1.096147 1_555
C20 H52 1.098265 1_555
C20 H60 1.101868 1_555
C20 N6 1.485930 1_555
C21 H69 1.096147 1_555
C21 H53 1.098265 1_555
C21 H61 1.101868 1_555
C21 N7 1.485930 1_555
C22 H70 1.096147 1_555
C22 H54 1.098265 1_555
C22 H62 1.101868 1_555
C22 N4 1.485930 1_555
C23 H71 1.096147 1_555
C23 H55 1.098265 1_555
C23 H63 1.101868 1_555
C23 N5 1.485930 1_555
