# generated using pymatgen
data_RhN5O7
_symmetry_space_group_name_H-M   'P 1'
_cell_length_a   9.28611900
_cell_length_b   6.48403000
_cell_length_c   14.33206731
_cell_angle_alpha   76.95517866
_cell_angle_beta   90.00000000
_cell_angle_gamma   90.00000000
_symmetry_Int_Tables_number   1
_chemical_formula_structural   RhN5O7
_chemical_formula_sum   'Rh4 N20 O28'
_cell_volume   840.68530712
_cell_formula_units_Z   4
loop_
 _symmetry_equiv_pos_site_id
 _symmetry_equiv_pos_as_xyz
  1  'x, y, z'
loop_
 _atom_site_type_symbol
 _atom_site_label
 _atom_site_symmetry_multiplicity
 _atom_site_fract_x
 _atom_site_fract_y
 _atom_site_fract_z
 _atom_site_occupancy
  Rh  Rh0  1  0.33427400  0.02037900  0.49602100  1
  Rh  Rh1  1  0.83427400  0.97962100  0.00397900  1
  Rh  Rh2  1  0.66572600  0.97962100  0.50397900  1
  Rh  Rh3  1  0.16572600  0.02037900  0.99602100  1
  N  N0  1  0.22652400  0.33422100  0.46003300  1
  N  N1  1  0.72652400  0.66577900  0.03996700  1
  N  N2  1  0.77347600  0.66577900  0.53996700  1
  N  N3  1  0.27347600  0.33422100  0.96003300  1
  N  N4  1  0.18811100  0.90495200  0.62039100  1
  N  N5  1  0.68811100  0.09504800  0.87960900  1
  N  N6  1  0.81188900  0.09504800  0.37960900  1
  N  N7  1  0.31188900  0.90495200  0.12039100  1
  N  N8  1  0.41792600  0.23844200  0.64205400  1
  N  N9  1  0.91792600  0.76155800  0.85794600  1
  N  N10  1  0.58207400  0.76155800  0.35794600  1
  N  N11  1  0.08207400  0.23844200  0.14205400  1
  N  N12  1  0.23236200  0.90931500  0.42634600  1
  N  N13  1  0.73236200  0.09068500  0.07365400  1
  N  N14  1  0.76763800  0.09068500  0.57365400  1
  N  N15  1  0.26763800  0.90931500  0.92634600  1
  N  N16  1  0.47037700  0.38662500  0.22410600  1
  N  N17  1  0.97037700  0.61337500  0.27589400  1
  N  N18  1  0.52962300  0.61337500  0.77589400  1
  N  N19  1  0.02962300  0.38662500  0.72410600  1
  O  O0  1  0.51124700  0.15450600  0.43423300  1
  O  O1  1  0.01124700  0.84549400  0.06576700  1
  O  O2  1  0.48875300  0.84549400  0.56576700  1
  O  O3  1  0.98875300  0.15450600  0.93423300  1
  O  O4  1  0.21997100  0.41311600  0.37425500  1
  O  O5  1  0.71997100  0.58688400  0.12574500  1
  O  O6  1  0.78002900  0.58688400  0.62574500  1
  O  O7  1  0.28002900  0.41311600  0.87425500  1
  O  O8  1  0.18393700  0.40966900  0.52622300  1
  O  O9  1  0.68393700  0.59033100  0.97377700  1
  O  O10  1  0.81606300  0.59033100  0.47377700  1
  O  O11  1  0.31606300  0.40966900  0.02622300  1
  O  O12  1  0.07091500  0.99288400  0.61609700  1
  O  O13  1  0.57091500  0.00711600  0.88390300  1
  O  O14  1  0.92908500  0.00711600  0.38390300  1
  O  O15  1  0.42908500  0.99288400  0.11609700  1
  O  O16  1  0.23378000  0.75939400  0.68277500  1
  O  O17  1  0.73378000  0.24060600  0.81722500  1
  O  O18  1  0.76622000  0.24060600  0.31722500  1
  O  O19  1  0.26622000  0.75939400  0.18277500  1
  O  O20  1  0.51364900  0.36181100  0.61055400  1
  O  O21  1  0.01364900  0.63818900  0.88944600  1
  O  O22  1  0.48635100  0.63818900  0.38944600  1
  O  O23  1  0.98635100  0.36181100  0.11055400  1
  O  O24  1  0.35857300  0.18460700  0.71849600  1
  O  O25  1  0.85857300  0.81539300  0.78150400  1
  O  O26  1  0.64142700  0.81539300  0.28150400  1
  O  O27  1  0.14142700  0.18460700  0.21849600  1
loop_
_geom_bond_atom_site_label_1
_geom_bond_atom_site_label_2
_geom_bond_distance
_geom_bond_site_symmetry_2
N0 O4 1.221826 1_555
N0 O8 1.226839 1_555
N0 Rh0 2.221360 1_555
N1 O5 1.221826 1_555
N1 O9 1.226839 1_554
N1 Rh1 2.221360 1_555
N2 O6 1.221826 1_555
N2 O10 1.226839 1_555
N2 Rh2 2.221360 1_555
N3 O7 1.221826 1_555
N3 O11 1.226839 1_556
N3 Rh3 2.221360 1_555
N4 O16 1.220278 1_555
N4 O12 1.223687 1_555
N4 Rh0 2.231004 1_565
N5 O17 1.220278 1_555
N5 O13 1.223687 1_555
N5 Rh1 2.231004 1_546
N6 O18 1.220278 1_555
N6 O14 1.223687 1_555
N6 Rh2 2.231004 1_545
N7 O19 1.220278 1_555
N7 O15 1.223687 1_555
N7 Rh3 2.231004 1_564
N8 O24 1.205514 1_555
N8 O20 1.212770 1_555
N9 O25 1.205514 1_555
N9 O21 1.212770 1_655
N10 O26 1.205514 1_555
N10 O22 1.212770 1_555
N11 O27 1.205514 1_555
N11 O23 1.212770 1_455
N12 Rh0 1.654093 1_565
N13 Rh1 1.654093 1_545
N14 Rh2 1.654093 1_545
N15 Rh3 1.654093 1_565
O0 Rh2 1.957344 1_545
O0 Rh0 1.973226 1_555
O1 Rh3 1.957344 1_564
O1 Rh1 1.973226 1_455
O2 Rh0 1.957344 1_565
O2 Rh2 1.973226 1_555
O3 Rh1 1.957344 1_546
O3 Rh3 1.973226 1_655
