# generated using pymatgen
data_Nb10Se40I3
_symmetry_space_group_name_H-M   'P 1'
_cell_length_a   9.71394400
_cell_length_b   9.72007200
_cell_length_c   32.38297339
_cell_angle_alpha   87.76527130
_cell_angle_beta   90.00000000
_cell_angle_gamma   90.00000000
_symmetry_Int_Tables_number   1
_chemical_formula_structural   Nb10Se40I3
_chemical_formula_sum   'Nb20 Se80 I6'
_cell_volume   3055.28254183
_cell_formula_units_Z   2
loop_
 _symmetry_equiv_pos_site_id
 _symmetry_equiv_pos_as_xyz
  1  'x, y, z'
loop_
 _atom_site_type_symbol
 _atom_site_label
 _atom_site_symmetry_multiplicity
 _atom_site_fract_x
 _atom_site_fract_y
 _atom_site_fract_z
 _atom_site_occupancy
  Nb  Nb0  1  0.50121400  0.00000000  0.25000000  1
  Nb  Nb1  1  0.49878600  0.00000000  0.75000000  1
  Nb  Nb2  1  0.00090300  0.50000000  0.25000000  1
  Nb  Nb3  1  0.99909700  0.50000000  0.75000000  1
  Nb  Nb4  1  0.50045600  0.00012800  0.45180100  1
  Nb  Nb5  1  0.50045600  0.99987200  0.04819900  1
  Nb  Nb6  1  0.49954400  0.99987200  0.54819900  1
  Nb  Nb7  1  0.49954400  0.00012800  0.95180100  1
  Nb  Nb8  1  0.00017100  0.50010400  0.45094200  1
  Nb  Nb9  1  0.00017100  0.49989600  0.04905800  1
  Nb  Nb10  1  0.99982900  0.49989600  0.54905800  1
  Nb  Nb11  1  0.99982900  0.50010400  0.95094200  1
  Nb  Nb12  1  0.50101900  0.99928200  0.34851000  1
  Nb  Nb13  1  0.50101900  0.00071800  0.15149000  1
  Nb  Nb14  1  0.49898100  0.00071800  0.65149000  1
  Nb  Nb15  1  0.49898100  0.99928200  0.84851000  1
  Nb  Nb16  1  0.00058300  0.50032900  0.34916800  1
  Nb  Nb17  1  0.00058300  0.49967100  0.15083200  1
  Nb  Nb18  1  0.99941700  0.49967100  0.65083200  1
  Nb  Nb19  1  0.99941700  0.50032900  0.84916800  1
  Se  Se0  1  0.31876800  0.12545600  0.40166200  1
  Se  Se1  1  0.31876800  0.87454400  0.09833800  1
  Se  Se2  1  0.68123200  0.87454400  0.59833800  1
  Se  Se3  1  0.68123200  0.12545600  0.90166200  1
  Se  Se4  1  0.68255200  0.87489400  0.40478500  1
  Se  Se5  1  0.68255200  0.12510600  0.09521500  1
  Se  Se6  1  0.31744800  0.12510600  0.59521500  1
  Se  Se7  1  0.31744800  0.87489400  0.90478500  1
  Se  Se8  1  0.87555100  0.31811500  0.40497300  1
  Se  Se9  1  0.87555100  0.68188500  0.09502700  1
  Se  Se10  1  0.12444900  0.68188500  0.59502700  1
  Se  Se11  1  0.12444900  0.31811500  0.90497300  1
  Se  Se12  1  0.12558100  0.68260600  0.40123400  1
  Se  Se13  1  0.12558100  0.31739400  0.09876600  1
  Se  Se14  1  0.87441900  0.31739400  0.59876600  1
  Se  Se15  1  0.87441900  0.68260600  0.90123400  1
  Se  Se16  1  0.38059300  0.18877500  0.29419200  1
  Se  Se17  1  0.38059300  0.81122500  0.20580800  1
  Se  Se18  1  0.61940700  0.81122500  0.70580800  1
  Se  Se19  1  0.61940700  0.18877500  0.79419200  1
  Se  Se20  1  0.62197700  0.18973400  0.20172600  1
  Se  Se21  1  0.62197700  0.81026600  0.29827400  1
  Se  Se22  1  0.37802300  0.81026600  0.79827400  1
  Se  Se23  1  0.37802300  0.18973400  0.70172600  1
  Se  Se24  1  0.81178700  0.37963800  0.29748600  1
  Se  Se25  1  0.81178700  0.62036200  0.20251400  1
  Se  Se26  1  0.18821300  0.62036200  0.70251400  1
  Se  Se27  1  0.18821300  0.37963800  0.79748600  1
  Se  Se28  1  0.18980600  0.61963600  0.29494900  1
  Se  Se29  1  0.18980600  0.38036400  0.20505100  1
  Se  Se30  1  0.81019400  0.38036400  0.70505100  1
  Se  Se31  1  0.81019400  0.61963600  0.79494900  1
  Se  Se32  1  0.71838000  0.03553800  0.30203200  1
  Se  Se33  1  0.71838000  0.96446200  0.19796800  1
  Se  Se34  1  0.28162000  0.96446200  0.69796800  1
  Se  Se35  1  0.28162000  0.03553800  0.80203200  1
  Se  Se36  1  0.28412400  0.03719900  0.19722200  1
  Se  Se37  1  0.28412400  0.96280100  0.30277800  1
  Se  Se38  1  0.71587600  0.96280100  0.80277800  1
  Se  Se39  1  0.71587600  0.03719900  0.69722200  1
  Se  Se40  1  0.96426300  0.71712400  0.29993300  1
  Se  Se41  1  0.96426300  0.28287600  0.20006700  1
  Se  Se42  1  0.03573700  0.28287600  0.70006700  1
  Se  Se43  1  0.03573700  0.71712400  0.79993300  1
  Se  Se44  1  0.03774000  0.28328000  0.30525200  1
  Se  Se45  1  0.03774000  0.71672000  0.19474800  1
  Se  Se46  1  0.96226000  0.71672000  0.69474800  1
  Se  Se47  1  0.96226000  0.28328000  0.80525200  1
  Se  Se48  1  0.55083600  0.21101400  0.39410700  1
  Se  Se49  1  0.55083600  0.78898600  0.10589300  1
  Se  Se50  1  0.44916400  0.78898600  0.60589300  1
  Se  Se51  1  0.44916400  0.21101400  0.89410700  1
  Se  Se52  1  0.45115600  0.78797100  0.39924600  1
  Se  Se53  1  0.45115600  0.21202900  0.10075400  1
  Se  Se54  1  0.54884400  0.21202900  0.60075400  1
  Se  Se55  1  0.54884400  0.78797100  0.89924600  1
  Se  Se56  1  0.78816700  0.55065800  0.39616300  1
  Se  Se57  1  0.78816700  0.44934200  0.10383700  1
  Se  Se58  1  0.21183300  0.44934200  0.60383700  1
  Se  Se59  1  0.21183300  0.55065800  0.89616300  1
  Se  Se60  1  0.21308300  0.45054200  0.39734800  1
  Se  Se61  1  0.21308300  0.54945800  0.10265200  1
  Se  Se62  1  0.78691700  0.54945800  0.60265200  1
  Se  Se63  1  0.78691700  0.45054200  0.89734800  1
  Se  Se64  1  0.69629900  0.10718400  0.49902900  1
  Se  Se65  1  0.69629900  0.89281600  0.00097100  1
  Se  Se66  1  0.30370100  0.89281600  0.50097100  1
  Se  Se67  1  0.30370100  0.10718400  0.99902900  1
  Se  Se68  1  0.89347900  0.69608100  0.49766900  1
  Se  Se69  1  0.89347900  0.30391900  0.00233100  1
  Se  Se70  1  0.10652100  0.30391900  0.50233100  1
  Se  Se71  1  0.10652100  0.69608100  0.99766900  1
  Se  Se72  1  0.48092600  0.22157300  0.49733900  1
  Se  Se73  1  0.48092600  0.77842700  0.00266100  1
  Se  Se74  1  0.51907400  0.77842700  0.50266100  1
  Se  Se75  1  0.51907400  0.22157300  0.99733900  1
  Se  Se76  1  0.77958900  0.48013700  0.50019700  1
  Se  Se77  1  0.77958900  0.51986300  0.99980300  1
  Se  Se78  1  0.22041100  0.51986300  0.49980300  1
  Se  Se79  1  0.22041100  0.48013700  0.00019700  1
  I  I0  1  0.00292900  0.00090900  0.42150900  1
  I  I1  1  0.00292900  0.99909100  0.07849100  1
  I  I2  1  0.99707100  0.99909100  0.57849100  1
  I  I3  1  0.99707100  0.00090900  0.92150900  1
  I  I4  1  0.50419400  0.50000000  0.25000000  1
  I  I5  1  0.49580600  0.50000000  0.75000000  1
loop_
_geom_bond_atom_site_label_1
_geom_bond_atom_site_label_2
_geom_bond_distance
_geom_bond_site_symmetry_2
Nb0 Se17 2.644337 1_545
Nb0 Se16 2.644337 1_555
Nb0 Se21 2.645040 1_545
Nb0 Se20 2.645040 1_555
Nb0 Se36 2.729585 1_555
Nb0 Se37 2.729585 1_545
Nb0 Se33 2.730188 1_545
Nb0 Se32 2.730188 1_555
Nb1 Se18 2.644337 1_545
Nb1 Se19 2.644337 1_555
Nb1 Se22 2.645040 1_545
Nb1 Se23 2.645040 1_555
Nb1 Se38 2.729585 1_545
Nb1 Se39 2.729585 1_555
Nb1 Se35 2.730188 1_555
Nb1 Se34 2.730188 1_545
Nb2 Se24 2.639671 1_455
Nb2 Se25 2.639671 1_455
Nb2 Se28 2.640112 1_555
Nb2 Se29 2.640112 1_555
Nb2 Se41 2.731571 1_455
Nb2 Se40 2.731571 1_455
Nb2 Se45 2.733663 1_555
Nb2 Se44 2.733663 1_555
Nb3 Se26 2.639671 1_655
Nb3 Se27 2.639671 1_655
Nb3 Se30 2.640112 1_555
Nb3 Se31 2.640112 1_555
Nb3 Se42 2.731571 1_655
Nb3 Se43 2.731571 1_655
Nb3 Se46 2.733663 1_555
Nb3 Se47 2.733663 1_555
Nb4 Se4 2.659564 1_545
Nb4 Se0 2.660994 1_555
Nb4 Se72 2.662937 1_555
Nb4 Se74 2.666895 1_545
Nb4 Se66 2.673342 1_545
Nb4 Se64 2.676773 1_555
Nb4 Se48 2.762822 1_555
Nb4 Se52 2.766235 1_545
Nb5 Se5 2.659564 1_565
Nb5 Se1 2.660994 1_555
Nb5 Se73 2.662937 1_555
Nb5 Se75 2.666895 1_564
Nb5 Se67 2.673342 1_564
Nb5 Se65 2.676773 1_555
Nb5 Se49 2.762822 1_555
Nb5 Se53 2.766235 1_565
Nb6 Se6 2.659564 1_565
Nb6 Se2 2.660994 1_555
Nb6 Se74 2.662937 1_555
Nb6 Se72 2.666895 1_565
Nb6 Se64 2.673342 1_565
Nb6 Se66 2.676773 1_555
Nb6 Se50 2.762822 1_555
Nb6 Se54 2.766235 1_565
Nb7 Se7 2.659564 1_545
Nb7 Se3 2.660994 1_555
Nb7 Se75 2.662937 1_555
Nb7 Se73 2.666895 1_546
Nb7 Se65 2.673342 1_546
Nb7 Se67 2.676773 1_555
Nb7 Se51 2.762822 1_555
Nb7 Se55 2.766235 1_545
Nb8 Se12 2.645625 1_555
Nb8 Se8 2.648761 1_455
Nb8 Se78 2.672298 1_555
Nb8 Se76 2.673739 1_455
Nb8 Se68 2.686494 1_455
Nb8 Se70 2.688026 1_555
Nb8 Se56 2.749788 1_455
Nb8 Se60 2.754428 1_555
Nb9 Se13 2.645625 1_555
Nb9 Se9 2.648761 1_455
Nb9 Se79 2.672298 1_555
Nb9 Se77 2.673739 1_454
Nb9 Se69 2.686494 1_455
Nb9 Se71 2.688026 1_554
Nb9 Se57 2.749788 1_455
Nb9 Se61 2.754428 1_555
Nb10 Se14 2.645625 1_555
Nb10 Se10 2.648761 1_655
Nb10 Se76 2.672298 1_555
Nb10 Se78 2.673739 1_655
Nb10 Se70 2.686494 1_655
Nb10 Se68 2.688026 1_555
Nb10 Se58 2.749788 1_655
Nb10 Se62 2.754428 1_555
Nb11 Se15 2.645625 1_555
Nb11 Se11 2.648761 1_655
Nb11 Se77 2.672298 1_555
Nb11 Se79 2.673739 1_656
Nb11 Se71 2.686494 1_655
Nb11 Se69 2.688026 1_556
Nb11 Se59 2.749788 1_655
Nb11 Se63 2.754428 1_555
Nb12 Se37 2.607475 1_555
Nb12 Se32 2.608887 1_565
Nb12 Se48 2.624307 1_565
Nb12 Se52 2.624799 1_555
Nb12 Se16 2.757234 1_565
Nb12 Se21 2.763259 1_555
Nb12 Se4 2.778587 1_555
Nb12 Se0 2.786676 1_565
Nb13 Se36 2.607475 1_555
Nb13 Se33 2.608887 1_545
Nb13 Se49 2.624307 1_545
Nb13 Se53 2.624799 1_555
Nb13 Se17 2.757234 1_545
Nb13 Se20 2.763259 1_555
Nb13 Se5 2.778587 1_555
Nb13 Se1 2.786676 1_545
Nb14 Se39 2.607475 1_555
Nb14 Se34 2.608887 1_545
Nb14 Se50 2.624307 1_545
Nb14 Se54 2.624799 1_555
Nb14 Se18 2.757234 1_545
Nb14 Se23 2.763259 1_555
Nb14 Se6 2.778587 1_555
Nb14 Se2 2.786676 1_545
Nb15 Se38 2.607475 1_555
Nb15 Se35 2.608887 1_565
Nb15 Se51 2.624307 1_565
Nb15 Se55 2.624799 1_555
Nb15 Se19 2.757234 1_565
Nb15 Se22 2.763259 1_555
Nb15 Se7 2.778587 1_555
Nb15 Se3 2.786676 1_565
Nb16 Se44 2.614897 1_555
Nb16 Se40 2.616304 1_455
Nb16 Se60 2.621172 1_555
Nb16 Se56 2.621255 1_455
Nb16 Se8 2.761914 1_455
Nb16 Se28 2.765394 1_555
Nb16 Se12 2.772933 1_555
Nb16 Se24 2.773755 1_455
Nb17 Se45 2.614897 1_555
Nb17 Se41 2.616304 1_455
Nb17 Se61 2.621172 1_555
Nb17 Se57 2.621255 1_455
Nb17 Se9 2.761914 1_455
Nb17 Se29 2.765394 1_555
Nb17 Se13 2.772933 1_555
Nb17 Se25 2.773755 1_455
Nb18 Se46 2.614897 1_555
Nb18 Se42 2.616304 1_655
Nb18 Se62 2.621172 1_555
Nb18 Se58 2.621255 1_655
Nb18 Se10 2.761914 1_655
Nb18 Se30 2.765394 1_555
Nb18 Se14 2.772933 1_555
Nb18 Se26 2.773755 1_655
Nb19 Se47 2.614897 1_555
Nb19 Se43 2.616304 1_655
Nb19 Se63 2.621172 1_555
Nb19 Se59 2.621255 1_655
Nb19 Se11 2.761914 1_655
Nb19 Se31 2.765394 1_555
Nb19 Se15 2.772933 1_555
Nb19 Se27 2.773755 1_655
Se0 Se48 2.411938 1_555
Se1 Se49 2.411938 1_555
Se2 Se50 2.411938 1_555
Se3 Se51 2.411938 1_555
Se4 Se52 2.410457 1_555
Se5 Se53 2.410457 1_555
Se10 Se58 2.420899 1_555
Se11 Se59 2.420899 1_555
Se12 Se60 2.418376 1_555
Se13 Se61 2.418376 1_555
Se14 Se62 2.418376 1_555
Se15 Se63 2.418376 1_555
Se16 Se37 2.394236 1_545
Se17 Se36 2.394236 1_565
Se18 Se39 2.394236 1_565
Se19 Se38 2.394236 1_545
Se20 Se33 2.388964 1_545
Se21 Se32 2.388964 1_565
Se22 Se35 2.388964 1_565
Se23 Se34 2.388964 1_545
Se24 Se44 2.395761 1_655
Se25 Se45 2.395761 1_655
Se26 Se46 2.395761 1_455
Se27 Se47 2.395761 1_455
Se28 Se40 2.394995 1_455
Se29 Se41 2.394995 1_455
Se30 Se42 2.394995 1_655
Se31 Se43 2.394995 1_655
Se54 Se6 2.410457 1_555
Se55 Se7 2.410457 1_555
Se56 Se8 2.420899 1_555
Se57 Se9 2.420899 1_555
Se64 Se72 2.368855 1_555
Se65 Se73 2.368855 1_555
Se66 Se74 2.368855 1_555
Se67 Se75 2.368855 1_555
Se68 Se76 2.371289 1_555
Se69 Se77 2.371289 1_554
Se70 Se78 2.371289 1_555
Se71 Se79 2.371289 1_556
