# generated using pymatgen
data_As
_symmetry_space_group_name_H-M   'P 1'
_cell_length_a   4.98713338
_cell_length_b   4.98713338
_cell_length_c   4.98713338
_cell_angle_alpha   131.81745508
_cell_angle_beta   131.81745508
_cell_angle_gamma   70.51748997
_symmetry_Int_Tables_number   1
_chemical_formula_structural   As
_chemical_formula_sum   As3
_cell_volume   67.50334330
_cell_formula_units_Z   3
loop_
 _symmetry_equiv_pos_site_id
 _symmetry_equiv_pos_as_xyz
  1  'x, y, z'
loop_
 _atom_site_type_symbol
 _atom_site_label
 _atom_site_symmetry_multiplicity
 _atom_site_fract_x
 _atom_site_fract_y
 _atom_site_fract_z
 _atom_site_occupancy
  As  As0  1  0.75000000  0.25000000  0.50000000  1
  As  As1  1  0.25000000  0.75000000  0.50000000  1
  As  As2  1  0.50000000  0.50000000  0.00000000  1
loop_
_geom_bond_atom_site_label_1
_geom_bond_atom_site_label_2
_geom_bond_distance
_geom_bond_site_symmetry_2
As0 As1 2.878922 1_645
As0 As1 2.878922 1_555
As0 As1 2.878922 1_544
As0 As1 2.878922 1_656
As0 As2 2.879223 1_556
As0 As2 2.879223 1_555
As0 As2 2.879223 1_656
As0 As2 2.879223 1_545
As1 As2 2.879223 1_455
As1 As2 2.879223 1_556
As1 As2 2.879223 1_555
As1 As2 2.879223 1_566
