# generated using pymatgen
data_MgBi
_symmetry_space_group_name_H-M   'P 1'
_cell_length_a   11.07759978
_cell_length_b   7.19077458
_cell_length_c   33.79720982
_cell_angle_alpha   90.00000000
_cell_angle_beta   90.00000000
_cell_angle_gamma   90.00000000
_symmetry_Int_Tables_number   1
_chemical_formula_structural   MgBi
_chemical_formula_sum   'Mg48 Bi48'
_cell_volume   2692.16821817
_cell_formula_units_Z   48
loop_
 _symmetry_equiv_pos_site_id
 _symmetry_equiv_pos_as_xyz
  1  'x, y, z'
loop_
 _atom_site_type_symbol
 _atom_site_label
 _atom_site_symmetry_multiplicity
 _atom_site_fract_x
 _atom_site_fract_y
 _atom_site_fract_z
 _atom_site_occupancy
  Mg  Mg0_0  1  0.00000000  0.25000000  0.08251340  1
  Mg  Mg0_1  1  0.00000000  0.25000000  0.58251340  1
  Mg  Mg0_2  1  0.00000000  0.75000000  0.08251340  1
  Mg  Mg0_3  1  0.00000000  0.75000000  0.58251340  1
  Mg  Mg0_4  1  0.50000000  0.25000000  0.08251340  1
  Mg  Mg0_5  1  0.50000000  0.25000000  0.58251340  1
  Mg  Mg0_6  1  0.50000000  0.75000000  0.08251340  1
  Mg  Mg0_7  1  0.50000000  0.75000000  0.58251340  1
  Mg  Mg1_0  1  0.25000000  0.25000000  0.19506974  1
  Mg  Mg1_1  1  0.25000000  0.25000000  0.69506974  1
  Mg  Mg1_2  1  0.25000000  0.75000000  0.19506974  1
  Mg  Mg1_3  1  0.25000000  0.75000000  0.69506974  1
  Mg  Mg1_4  1  0.75000000  0.25000000  0.19506974  1
  Mg  Mg1_5  1  0.75000000  0.25000000  0.69506974  1
  Mg  Mg1_6  1  0.75000000  0.75000000  0.19506974  1
  Mg  Mg1_7  1  0.75000000  0.75000000  0.69506974  1
  Mg  Mg2_0  1  0.25000000  0.00000000  0.11294942  1
  Mg  Mg2_1  1  0.25000000  0.00000000  0.61294942  1
  Mg  Mg2_2  1  0.25000000  0.50000000  0.11294942  1
  Mg  Mg2_3  1  0.25000000  0.50000000  0.61294942  1
  Mg  Mg2_4  1  0.75000000  0.00000000  0.11294942  1
  Mg  Mg2_5  1  0.75000000  0.00000000  0.61294942  1
  Mg  Mg2_6  1  0.75000000  0.50000000  0.11294942  1
  Mg  Mg2_7  1  0.75000000  0.50000000  0.61294942  1
  Mg  Mg3_0  1  0.00000000  0.00000000  0.33251339  1
  Mg  Mg3_1  1  0.00000000  0.00000000  0.83251339  1
  Mg  Mg3_2  1  0.00000000  0.50000000  0.33251339  1
  Mg  Mg3_3  1  0.00000000  0.50000000  0.83251339  1
  Mg  Mg3_4  1  0.50000000  0.00000000  0.33251339  1
  Mg  Mg3_5  1  0.50000000  0.00000000  0.83251339  1
  Mg  Mg3_6  1  0.50000000  0.50000000  0.33251339  1
  Mg  Mg3_7  1  0.50000000  0.50000000  0.83251339  1
  Mg  Mg4_0  1  0.25000000  0.00000000  0.44506974  1
  Mg  Mg4_1  1  0.25000000  0.00000000  0.94506974  1
  Mg  Mg4_2  1  0.25000000  0.50000000  0.44506974  1
  Mg  Mg4_3  1  0.25000000  0.50000000  0.94506974  1
  Mg  Mg4_4  1  0.75000000  0.00000000  0.44506974  1
  Mg  Mg4_5  1  0.75000000  0.00000000  0.94506974  1
  Mg  Mg4_6  1  0.75000000  0.50000000  0.44506974  1
  Mg  Mg4_7  1  0.75000000  0.50000000  0.94506974  1
  Mg  Mg5_0  1  0.25000000  0.25000000  0.36294942  1
  Mg  Mg5_1  1  0.25000000  0.25000000  0.86294942  1
  Mg  Mg5_2  1  0.25000000  0.75000000  0.36294942  1
  Mg  Mg5_3  1  0.25000000  0.75000000  0.86294942  1
  Mg  Mg5_4  1  0.75000000  0.25000000  0.36294942  1
  Mg  Mg5_5  1  0.75000000  0.25000000  0.86294942  1
  Mg  Mg5_6  1  0.75000000  0.75000000  0.36294942  1
  Mg  Mg5_7  1  0.75000000  0.75000000  0.86294942  1
  Bi  Bi0_0  1  0.00000000  0.00000000  0.00715476  1
  Bi  Bi0_1  1  0.00000000  0.00000000  0.50715476  1
  Bi  Bi0_2  1  0.00000000  0.50000000  0.00715476  1
  Bi  Bi0_3  1  0.00000000  0.50000000  0.50715476  1
  Bi  Bi0_4  1  0.50000000  0.00000000  0.00715476  1
  Bi  Bi0_5  1  0.50000000  0.00000000  0.50715476  1
  Bi  Bi0_6  1  0.50000000  0.50000000  0.00715476  1
  Bi  Bi0_7  1  0.50000000  0.50000000  0.50715476  1
  Bi  Bi1_0  1  0.00000000  0.00000000  0.15540503  1
  Bi  Bi1_1  1  0.00000000  0.00000000  0.65540504  1
  Bi  Bi1_2  1  0.00000000  0.50000000  0.15540503  1
  Bi  Bi1_3  1  0.00000000  0.50000000  0.65540504  1
  Bi  Bi1_4  1  0.50000000  0.00000000  0.15540503  1
  Bi  Bi1_5  1  0.50000000  0.00000000  0.65540504  1
  Bi  Bi1_6  1  0.50000000  0.50000000  0.15540503  1
  Bi  Bi1_7  1  0.50000000  0.50000000  0.65540504  1
  Bi  Bi2_0  1  0.25000000  0.25000000  0.03024115  1
  Bi  Bi2_1  1  0.25000000  0.25000000  0.53024114  1
  Bi  Bi2_2  1  0.25000000  0.75000000  0.03024115  1
  Bi  Bi2_3  1  0.25000000  0.75000000  0.53024114  1
  Bi  Bi2_4  1  0.75000000  0.25000000  0.03024115  1
  Bi  Bi2_5  1  0.75000000  0.25000000  0.53024114  1
  Bi  Bi2_6  1  0.75000000  0.75000000  0.03024115  1
  Bi  Bi2_7  1  0.75000000  0.75000000  0.53024114  1
  Bi  Bi3_0  1  0.00000000  0.25000000  0.25715476  1
  Bi  Bi3_1  1  0.00000000  0.25000000  0.75715476  1
  Bi  Bi3_2  1  0.00000000  0.75000000  0.25715476  1
  Bi  Bi3_3  1  0.00000000  0.75000000  0.75715476  1
  Bi  Bi3_4  1  0.50000000  0.25000000  0.25715476  1
  Bi  Bi3_5  1  0.50000000  0.25000000  0.75715476  1
  Bi  Bi3_6  1  0.50000000  0.75000000  0.25715476  1
  Bi  Bi3_7  1  0.50000000  0.75000000  0.75715476  1
  Bi  Bi4_0  1  0.00000000  0.25000000  0.40540504  1
  Bi  Bi4_1  1  0.00000000  0.25000000  0.90540504  1
  Bi  Bi4_2  1  0.00000000  0.75000000  0.40540504  1
  Bi  Bi4_3  1  0.00000000  0.75000000  0.90540504  1
  Bi  Bi4_4  1  0.50000000  0.25000000  0.40540504  1
  Bi  Bi4_5  1  0.50000000  0.25000000  0.90540504  1
  Bi  Bi4_6  1  0.50000000  0.75000000  0.40540504  1
  Bi  Bi4_7  1  0.50000000  0.75000000  0.90540504  1
  Bi  Bi5_0  1  0.25000000  0.00000000  0.28024115  1
  Bi  Bi5_1  1  0.25000000  0.00000000  0.78024115  1
  Bi  Bi5_2  1  0.25000000  0.50000000  0.28024115  1
  Bi  Bi5_3  1  0.25000000  0.50000000  0.78024115  1
  Bi  Bi5_4  1  0.75000000  0.00000000  0.28024115  1
  Bi  Bi5_5  1  0.75000000  0.00000000  0.78024115  1
  Bi  Bi5_6  1  0.75000000  0.50000000  0.28024115  1
  Bi  Bi5_7  1  0.75000000  0.50000000  0.78024115  1
loop_
_geom_bond_atom_site_label_1
_geom_bond_atom_site_label_2
_geom_bond_distance
_geom_bond_site_symmetry_2
Mg0_0 Mg2_0 3.458237 1_555
Mg0_0 Mg2_2 3.458237 1_555
Mg0_0 Mg2_6 3.458237 1_455
Mg0_0 Mg2_4 3.458237 1_455
Mg0_1 Mg2_1 3.458237 1_555
Mg0_1 Mg2_3 3.458237 1_555
Mg0_1 Mg2_5 3.458237 1_455
Mg0_1 Mg2_7 3.458237 1_455
Mg0_2 Mg2_0 3.458237 1_565
Mg0_2 Mg2_4 3.458237 1_465
Mg0_2 Mg2_2 3.458237 1_555
Mg0_2 Mg2_6 3.458237 1_455
Mg0_3 Mg2_1 3.458237 1_565
Mg0_3 Mg2_5 3.458237 1_465
Mg0_3 Mg2_3 3.458237 1_555
Mg0_3 Mg2_7 3.458237 1_455
Mg0_4 Mg2_0 3.458237 1_555
Mg0_4 Mg2_2 3.458237 1_555
Mg0_4 Mg2_4 3.458237 1_555
Mg0_4 Mg2_6 3.458237 1_555
Mg0_5 Mg2_1 3.458237 1_555
Mg0_5 Mg2_3 3.458237 1_555
Mg0_5 Mg2_5 3.458237 1_555
Mg0_5 Mg2_7 3.458237 1_555
Mg0_6 Mg2_0 3.458237 1_565
Mg0_6 Mg2_2 3.458237 1_555
Mg0_6 Mg2_4 3.458237 1_565
Mg0_6 Mg2_6 3.458237 1_555
Mg0_7 Mg2_1 3.458237 1_565
Mg0_7 Mg2_3 3.458237 1_555
Mg0_7 Mg2_5 3.458237 1_565
Mg0_7 Mg2_7 3.458237 1_555
Mg1_0 Mg2_0 3.306774 1_555
Mg1_0 Mg2_2 3.306774 1_555
Mg1_0 Mg1_2 3.595387 1_545
Mg1_0 Mg1_2 3.595387 1_555
Mg1_1 Mg2_3 3.306774 1_555
Mg1_1 Mg2_1 3.306774 1_555
Mg1_1 Mg1_3 3.595387 1_545
Mg1_1 Mg1_3 3.595387 1_555
Mg1_2 Mg2_0 3.306774 1_565
Mg1_2 Mg2_2 3.306774 1_555
Mg1_3 Mg2_1 3.306774 1_565
Mg1_3 Mg2_3 3.306774 1_555
Mg1_4 Mg2_6 3.306774 1_555
Mg1_4 Mg2_4 3.306774 1_555
Mg1_4 Mg1_6 3.595387 1_545
Mg1_4 Mg1_6 3.595387 1_555
Mg1_5 Mg2_5 3.306774 1_555
Mg1_5 Mg2_7 3.306774 1_555
Mg1_5 Mg1_7 3.595387 1_545
Mg1_5 Mg1_7 3.595387 1_555
Mg1_6 Mg2_4 3.306774 1_565
Mg1_6 Mg2_6 3.306774 1_555
Mg1_7 Mg2_5 3.306774 1_565
Mg1_7 Mg2_7 3.306774 1_555
Mg3_0 Mg5_2 3.458237 1_545
Mg3_0 Mg5_6 3.458237 1_445
Mg3_0 Mg5_0 3.458237 1_555
Mg3_0 Mg5_4 3.458237 1_455
Mg3_1 Mg5_3 3.458237 1_545
Mg3_1 Mg5_7 3.458237 1_445
Mg3_1 Mg5_1 3.458237 1_555
Mg3_1 Mg5_5 3.458237 1_455
Mg3_2 Mg5_0 3.458237 1_555
Mg3_2 Mg5_4 3.458237 1_455
Mg3_2 Mg5_2 3.458237 1_555
Mg3_2 Mg5_6 3.458237 1_455
Mg3_3 Mg5_1 3.458237 1_555
Mg3_3 Mg5_5 3.458237 1_455
Mg3_3 Mg5_7 3.458237 1_455
Mg3_3 Mg5_3 3.458237 1_555
Mg3_4 Mg5_2 3.458237 1_545
Mg3_4 Mg5_0 3.458237 1_555
Mg3_4 Mg5_6 3.458237 1_545
Mg3_4 Mg5_4 3.458237 1_555
Mg3_5 Mg5_3 3.458237 1_545
Mg3_5 Mg5_1 3.458237 1_555
Mg3_5 Mg5_7 3.458237 1_545
Mg3_5 Mg5_5 3.458237 1_555
Mg3_6 Mg5_0 3.458237 1_555
Mg3_6 Mg5_2 3.458237 1_555
Mg3_6 Mg5_4 3.458237 1_555
Mg3_6 Mg5_6 3.458237 1_555
Mg3_7 Mg5_1 3.458237 1_555
Mg3_7 Mg5_5 3.458237 1_555
Mg3_7 Mg5_3 3.458237 1_555
Mg3_7 Mg5_7 3.458237 1_555
Mg4_0 Mg5_2 3.306774 1_545
Mg4_0 Mg5_0 3.306774 1_555
Mg4_0 Mg4_2 3.595387 1_555
Mg4_0 Mg4_2 3.595387 1_545
Mg4_1 Mg5_3 3.306774 1_545
Mg4_1 Mg5_1 3.306774 1_555
Mg4_1 Mg4_3 3.595387 1_545
Mg4_1 Mg4_3 3.595387 1_555
Mg4_2 Mg5_2 3.306774 1_555
Mg4_2 Mg5_0 3.306774 1_555
Mg4_3 Mg5_1 3.306774 1_555
Mg4_3 Mg5_3 3.306774 1_555
Mg4_4 Mg5_6 3.306774 1_545
Mg4_4 Mg5_4 3.306774 1_555
Mg4_4 Mg4_6 3.595387 1_545
Mg4_4 Mg4_6 3.595387 1_555
Mg4_5 Mg5_7 3.306774 1_545
Mg4_5 Mg5_5 3.306774 1_555
Mg4_5 Mg4_7 3.595387 1_555
Mg4_5 Mg4_7 3.595387 1_545
Mg4_6 Mg5_4 3.306774 1_555
Mg4_6 Mg5_6 3.306774 1_555
Mg4_7 Mg5_5 3.306774 1_555
Mg4_7 Mg5_7 3.306774 1_555
Bi0_0 Mg0_2 3.117445 1_545
Bi0_0 Mg0_0 3.117445 1_555
Bi0_0 Bi2_6 3.392650 1_445
Bi0_0 Bi2_2 3.392650 1_545
Bi0_0 Bi2_0 3.392650 1_555
Bi0_0 Bi2_4 3.392650 1_455
Bi0_0 Mg4_5 3.474542 1_454
Bi0_0 Mg4_1 3.474542 1_554
Bi0_0 Bi0_2 3.595387 1_555
Bi0_0 Bi0_2 3.595387 1_545
Bi0_1 Mg0_3 3.117445 1_545
Bi0_1 Mg0_1 3.117445 1_555
Bi0_1 Bi2_7 3.392650 1_445
Bi0_1 Bi2_3 3.392650 1_545
Bi0_1 Bi2_5 3.392650 1_455
Bi0_1 Bi2_1 3.392650 1_555
Bi0_1 Mg4_0 3.474542 1_555
Bi0_1 Mg4_4 3.474542 1_455
Bi0_1 Bi0_3 3.595387 1_555
Bi0_1 Bi0_3 3.595387 1_545
Bi0_2 Mg0_0 3.117445 1_555
Bi0_2 Mg0_2 3.117445 1_555
Bi0_2 Bi2_0 3.392650 1_555
Bi0_2 Bi2_2 3.392650 1_555
Bi0_2 Bi2_4 3.392650 1_455
Bi0_2 Bi2_6 3.392650 1_455
Bi0_2 Mg4_7 3.474542 1_454
Bi0_2 Mg4_3 3.474542 1_554
Bi0_3 Mg0_1 3.117445 1_555
Bi0_3 Mg0_3 3.117445 1_555
Bi0_3 Bi2_5 3.392650 1_455
Bi0_3 Bi2_1 3.392650 1_555
Bi0_3 Bi2_3 3.392650 1_555
Bi0_3 Bi2_7 3.392650 1_455
Bi0_3 Mg4_6 3.474542 1_455
Bi0_3 Mg4_2 3.474542 1_555
Bi0_4 Mg0_6 3.117445 1_545
Bi0_4 Mg0_4 3.117445 1_555
Bi0_4 Bi2_2 3.392650 1_545
Bi0_4 Bi2_0 3.392650 1_555
Bi0_4 Bi2_6 3.392650 1_545
Bi0_4 Bi2_4 3.392650 1_555
Bi0_4 Mg4_1 3.474542 1_554
Bi0_4 Mg4_5 3.474542 1_554
Bi0_4 Bi0_6 3.595387 1_555
Bi0_4 Bi0_6 3.595387 1_545
Bi0_5 Mg0_7 3.117445 1_545
Bi0_5 Mg0_5 3.117445 1_555
Bi0_5 Bi2_3 3.392650 1_545
Bi0_5 Bi2_7 3.392650 1_545
Bi0_5 Bi2_1 3.392650 1_555
Bi0_5 Bi2_5 3.392650 1_555
Bi0_5 Mg4_0 3.474542 1_555
Bi0_5 Mg4_4 3.474542 1_555
Bi0_5 Bi0_7 3.595387 1_545
Bi0_5 Bi0_7 3.595387 1_555
Bi0_6 Mg0_4 3.117445 1_555
Bi0_6 Mg0_6 3.117445 1_555
Bi0_6 Bi2_0 3.392650 1_555
Bi0_6 Bi2_2 3.392650 1_555
Bi0_6 Bi2_6 3.392650 1_555
Bi0_6 Bi2_4 3.392650 1_555
Bi0_6 Mg4_3 3.474542 1_554
Bi0_6 Mg4_7 3.474542 1_554
Bi0_7 Mg0_5 3.117445 1_555
Bi0_7 Mg0_7 3.117445 1_555
Bi0_7 Bi2_1 3.392650 1_555
Bi0_7 Bi2_3 3.392650 1_555
Bi0_7 Bi2_7 3.392650 1_555
Bi0_7 Bi2_5 3.392650 1_555
Bi0_7 Mg4_2 3.474542 1_555
Bi0_7 Mg4_6 3.474542 1_555
Bi1_0 Mg0_2 3.049705 1_545
Bi1_0 Mg0_0 3.049705 1_555
Bi1_0 Mg2_0 3.119048 1_555
Bi1_0 Mg2_4 3.119048 1_455
Bi1_0 Mg1_2 3.563477 1_545
Bi1_0 Mg1_6 3.563477 1_445
Bi1_0 Mg1_4 3.563477 1_455
Bi1_0 Mg1_0 3.563477 1_555
Bi1_0 Bi1_2 3.595387 1_555
Bi1_0 Bi1_2 3.595387 1_545
Bi1_1 Mg0_3 3.049705 1_545
Bi1_1 Mg0_1 3.049705 1_555
Bi1_1 Mg2_1 3.119048 1_555
Bi1_1 Mg2_5 3.119048 1_455
Bi1_1 Mg1_3 3.563477 1_545
Bi1_1 Mg1_7 3.563477 1_445
Bi1_1 Mg1_5 3.563477 1_455
Bi1_1 Mg1_1 3.563477 1_555
Bi1_1 Bi1_3 3.595387 1_545
Bi1_1 Bi1_3 3.595387 1_555
Bi1_2 Mg0_0 3.049705 1_555
Bi1_2 Mg0_2 3.049705 1_555
Bi1_2 Mg2_2 3.119048 1_555
Bi1_2 Mg2_6 3.119048 1_455
Bi1_2 Mg1_4 3.563477 1_455
Bi1_2 Mg1_0 3.563477 1_555
Bi1_2 Mg1_2 3.563477 1_555
Bi1_2 Mg1_6 3.563477 1_455
Bi1_3 Mg0_1 3.049705 1_555
Bi1_3 Mg0_3 3.049705 1_555
Bi1_3 Mg2_3 3.119048 1_555
Bi1_3 Mg2_7 3.119048 1_455
Bi1_3 Mg1_5 3.563477 1_455
Bi1_3 Mg1_1 3.563477 1_555
Bi1_3 Mg1_7 3.563477 1_455
Bi1_3 Mg1_3 3.563477 1_555
Bi1_4 Mg0_6 3.049705 1_545
Bi1_4 Mg0_4 3.049705 1_555
Bi1_4 Mg2_0 3.119048 1_555
Bi1_4 Mg2_4 3.119048 1_555
Bi1_4 Mg1_2 3.563477 1_545
Bi1_4 Mg1_6 3.563477 1_545
Bi1_4 Mg1_0 3.563477 1_555
Bi1_4 Mg1_4 3.563477 1_555
Bi1_4 Bi1_6 3.595387 1_555
Bi1_4 Bi1_6 3.595387 1_545
Bi1_5 Mg0_7 3.049705 1_545
Bi1_5 Mg0_5 3.049705 1_555
Bi1_5 Mg2_1 3.119048 1_555
Bi1_5 Mg2_5 3.119048 1_555
Bi1_5 Mg1_3 3.563477 1_545
Bi1_5 Mg1_7 3.563477 1_545
Bi1_5 Mg1_1 3.563477 1_555
Bi1_5 Mg1_5 3.563477 1_555
Bi1_5 Bi1_7 3.595387 1_545
Bi1_5 Bi1_7 3.595387 1_555
Bi1_6 Mg0_4 3.049705 1_555
Bi1_6 Mg0_6 3.049705 1_555
Bi1_6 Mg2_2 3.119048 1_555
Bi1_6 Mg2_6 3.119048 1_555
Bi1_6 Mg1_0 3.563477 1_555
Bi1_6 Mg1_2 3.563477 1_555
Bi1_6 Mg1_4 3.563477 1_555
Bi1_6 Mg1_6 3.563477 1_555
Bi1_7 Mg0_5 3.049705 1_555
Bi1_7 Mg0_7 3.049705 1_555
Bi1_7 Mg2_3 3.119048 1_555
Bi1_7 Mg2_7 3.119048 1_555
Bi1_7 Mg1_1 3.563477 1_555
Bi1_7 Mg1_5 3.563477 1_555
Bi1_7 Mg1_3 3.563477 1_555
Bi1_7 Mg1_7 3.563477 1_555
Bi2_0 Mg0_0 3.284913 1_555
Bi2_0 Mg0_4 3.284913 1_555
Bi2_0 Mg2_0 3.323470 1_555
Bi2_0 Mg2_2 3.323470 1_555
Bi2_0 Mg4_3 3.393786 1_554
Bi2_0 Mg4_1 3.393786 1_554
Bi2_0 Bi2_2 3.595387 1_545
Bi2_0 Bi2_2 3.595387 1_555
Bi2_1 Mg0_1 3.284913 1_555
Bi2_1 Mg0_5 3.284913 1_555
Bi2_1 Mg2_3 3.323470 1_555
Bi2_1 Mg2_1 3.323470 1_555
Bi2_1 Mg4_2 3.393786 1_555
Bi2_1 Mg4_0 3.393786 1_555
Bi2_1 Bi2_3 3.595387 1_545
Bi2_1 Bi2_3 3.595387 1_555
Bi2_2 Mg0_2 3.284913 1_555
Bi2_2 Mg0_6 3.284913 1_555
Bi2_2 Mg2_0 3.323470 1_565
Bi2_2 Mg2_2 3.323470 1_555
Bi2_2 Mg4_1 3.393786 1_564
Bi2_2 Mg4_3 3.393786 1_554
Bi2_3 Mg0_3 3.284913 1_555
Bi2_3 Mg0_7 3.284913 1_555
Bi2_3 Mg2_1 3.323470 1_565
Bi2_3 Mg2_3 3.323470 1_555
Bi2_3 Mg4_0 3.393786 1_565
Bi2_3 Mg4_2 3.393786 1_555
Bi2_4 Mg0_4 3.284913 1_555
Bi2_4 Mg0_0 3.284913 1_655
Bi2_4 Mg2_4 3.323470 1_555
Bi2_4 Mg2_6 3.323470 1_555
Bi2_4 Mg4_5 3.393786 1_554
Bi2_4 Mg4_7 3.393786 1_554
Bi2_4 Bi2_6 3.595387 1_545
Bi2_4 Bi2_6 3.595387 1_555
Bi2_5 Mg0_1 3.284913 1_655
Bi2_5 Mg0_5 3.284913 1_555
Bi2_5 Mg2_5 3.323470 1_555
Bi2_5 Mg2_7 3.323470 1_555
Bi2_5 Mg4_6 3.393786 1_555
Bi2_5 Mg4_4 3.393786 1_555
Bi2_5 Bi2_7 3.595387 1_545
Bi2_5 Bi2_7 3.595387 1_555
Bi2_6 Mg0_2 3.284913 1_655
Bi2_6 Mg0_6 3.284913 1_555
Bi2_6 Mg2_4 3.323470 1_565
Bi2_6 Mg2_6 3.323470 1_555
Bi2_6 Mg4_5 3.393786 1_564
Bi2_6 Mg4_7 3.393786 1_554
Bi2_7 Mg0_3 3.284913 1_655
Bi2_7 Mg0_7 3.284913 1_555
Bi2_7 Mg2_5 3.323470 1_565
Bi2_7 Mg2_7 3.323470 1_555
Bi2_7 Mg4_4 3.393786 1_565
Bi2_7 Mg4_6 3.393786 1_555
Bi3_0 Mg3_0 3.117445 1_555
Bi3_0 Mg3_2 3.117445 1_555
Bi3_0 Bi5_2 3.392650 1_555
Bi3_0 Bi5_4 3.392650 1_455
Bi3_0 Bi5_0 3.392650 1_555
Bi3_0 Bi5_6 3.392650 1_455
Bi3_0 Mg1_0 3.474542 1_555
Bi3_0 Mg1_4 3.474542 1_455
Bi3_0 Bi3_2 3.595387 1_545
Bi3_0 Bi3_2 3.595387 1_555
Bi3_1 Mg3_1 3.117445 1_555
Bi3_1 Mg3_3 3.117445 1_555
Bi3_1 Bi5_7 3.392650 1_455
Bi3_1 Bi5_3 3.392650 1_555
Bi3_1 Bi5_5 3.392650 1_455
Bi3_1 Bi5_1 3.392650 1_555
Bi3_1 Mg1_5 3.474542 1_455
Bi3_1 Mg1_1 3.474542 1_555
Bi3_1 Bi3_3 3.595387 1_545
Bi3_1 Bi3_3 3.595387 1_555
Bi3_2 Mg3_0 3.117445 1_565
Bi3_2 Mg3_2 3.117445 1_555
Bi3_2 Bi5_0 3.392650 1_565
Bi3_2 Bi5_4 3.392650 1_465
Bi3_2 Bi5_6 3.392650 1_455
Bi3_2 Bi5_2 3.392650 1_555
Bi3_2 Mg1_6 3.474542 1_455
Bi3_2 Mg1_2 3.474542 1_555
Bi3_3 Mg3_1 3.117445 1_565
Bi3_3 Mg3_3 3.117445 1_555
Bi3_3 Bi5_1 3.392650 1_565
Bi3_3 Bi5_5 3.392650 1_465
Bi3_3 Bi5_7 3.392650 1_455
Bi3_3 Bi5_3 3.392650 1_555
Bi3_3 Mg1_3 3.474542 1_555
Bi3_3 Mg1_7 3.474542 1_455
Bi3_4 Mg3_4 3.117445 1_555
Bi3_4 Mg3_6 3.117445 1_555
Bi3_4 Bi5_2 3.392650 1_555
Bi3_4 Bi5_0 3.392650 1_555
Bi3_4 Bi5_6 3.392650 1_555
Bi3_4 Bi5_4 3.392650 1_555
Bi3_4 Mg1_0 3.474542 1_555
Bi3_4 Mg1_4 3.474542 1_555
Bi3_4 Bi3_6 3.595387 1_545
Bi3_4 Bi3_6 3.595387 1_555
Bi3_5 Mg3_7 3.117445 1_555
Bi3_5 Mg3_5 3.117445 1_555
Bi3_5 Bi5_3 3.392650 1_555
Bi3_5 Bi5_1 3.392650 1_555
Bi3_5 Bi5_7 3.392650 1_555
Bi3_5 Bi5_5 3.392650 1_555
Bi3_5 Mg1_1 3.474542 1_555
Bi3_5 Mg1_5 3.474542 1_555
Bi3_5 Bi3_7 3.595387 1_545
Bi3_5 Bi3_7 3.595387 1_555
Bi3_6 Mg3_4 3.117445 1_565
Bi3_6 Mg3_6 3.117445 1_555
Bi3_6 Bi5_0 3.392650 1_565
Bi3_6 Bi5_4 3.392650 1_565
Bi3_6 Bi5_2 3.392650 1_555
Bi3_6 Bi5_6 3.392650 1_555
Bi3_6 Mg1_2 3.474542 1_555
Bi3_6 Mg1_6 3.474542 1_555
Bi3_7 Mg3_5 3.117445 1_565
Bi3_7 Mg3_7 3.117445 1_555
Bi3_7 Bi5_1 3.392650 1_565
Bi3_7 Bi5_5 3.392650 1_565
Bi3_7 Bi5_3 3.392650 1_555
Bi3_7 Bi5_7 3.392650 1_555
Bi3_7 Mg1_3 3.474542 1_555
Bi3_7 Mg1_7 3.474542 1_555
Bi4_0 Mg3_2 3.049705 1_555
Bi4_0 Mg3_0 3.049705 1_555
Bi4_0 Mg5_0 3.119048 1_555
Bi4_0 Mg5_4 3.119048 1_455
Bi4_0 Mg4_0 3.563477 1_555
Bi4_0 Mg4_4 3.563477 1_455
Bi4_0 Mg4_6 3.563477 1_455
Bi4_0 Mg4_2 3.563477 1_555
Bi4_0 Bi4_2 3.595387 1_545
Bi4_0 Bi4_2 3.595387 1_555
Bi4_1 Mg3_1 3.049705 1_555
Bi4_1 Mg3_3 3.049705 1_555
Bi4_1 Mg5_1 3.119048 1_555
Bi4_1 Mg5_5 3.119048 1_455
Bi4_1 Mg4_1 3.563477 1_555
Bi4_1 Mg4_5 3.563477 1_455
Bi4_1 Mg4_3 3.563477 1_555
Bi4_1 Mg4_7 3.563477 1_455
Bi4_1 Bi4_3 3.595387 1_545
Bi4_1 Bi4_3 3.595387 1_555
Bi4_2 Mg3_0 3.049705 1_565
Bi4_2 Mg3_2 3.049705 1_555
Bi4_2 Mg5_2 3.119048 1_555
Bi4_2 Mg5_6 3.119048 1_455
Bi4_2 Mg4_0 3.563477 1_565
Bi4_2 Mg4_4 3.563477 1_465
Bi4_2 Mg4_6 3.563477 1_455
Bi4_2 Mg4_2 3.563477 1_555
Bi4_3 Mg3_1 3.049705 1_565
Bi4_3 Mg3_3 3.049705 1_555
Bi4_3 Mg5_3 3.119048 1_555
Bi4_3 Mg5_7 3.119048 1_455
Bi4_3 Mg4_5 3.563477 1_465
Bi4_3 Mg4_1 3.563477 1_565
Bi4_3 Mg4_3 3.563477 1_555
Bi4_3 Mg4_7 3.563477 1_455
Bi4_4 Mg3_4 3.049705 1_555
Bi4_4 Mg3_6 3.049705 1_555
Bi4_4 Mg5_0 3.119048 1_555
Bi4_4 Mg5_4 3.119048 1_555
Bi4_4 Mg4_0 3.563477 1_555
Bi4_4 Mg4_2 3.563477 1_555
Bi4_4 Mg4_6 3.563477 1_555
Bi4_4 Mg4_4 3.563477 1_555
Bi4_4 Bi4_6 3.595387 1_545
Bi4_4 Bi4_6 3.595387 1_555
Bi4_5 Mg3_7 3.049705 1_555
Bi4_5 Mg3_5 3.049705 1_555
Bi4_5 Mg5_1 3.119048 1_555
Bi4_5 Mg5_5 3.119048 1_555
Bi4_5 Mg4_1 3.563477 1_555
Bi4_5 Mg4_3 3.563477 1_555
Bi4_5 Mg4_7 3.563477 1_555
Bi4_5 Mg4_5 3.563477 1_555
Bi4_5 Bi4_7 3.595387 1_545
Bi4_5 Bi4_7 3.595387 1_555
Bi4_6 Mg3_4 3.049705 1_565
Bi4_6 Mg3_6 3.049705 1_555
Bi4_6 Mg5_2 3.119048 1_555
Bi4_6 Mg5_6 3.119048 1_555
Bi4_6 Mg4_0 3.563477 1_565
Bi4_6 Mg4_4 3.563477 1_565
Bi4_6 Mg4_2 3.563477 1_555
Bi4_6 Mg4_6 3.563477 1_555
Bi4_7 Mg3_5 3.049705 1_565
Bi4_7 Mg3_7 3.049705 1_555
Bi4_7 Mg5_3 3.119048 1_555
Bi4_7 Mg5_7 3.119048 1_555
Bi4_7 Mg4_1 3.563477 1_565
Bi4_7 Mg4_5 3.563477 1_565
Bi4_7 Mg4_3 3.563477 1_555
Bi4_7 Mg4_7 3.563477 1_555
Bi5_0 Mg3_0 3.284913 1_555
Bi5_0 Mg3_4 3.284913 1_555
Bi5_0 Mg5_2 3.323470 1_545
Bi5_0 Mg5_0 3.323470 1_555
Bi5_0 Mg1_2 3.393786 1_545
Bi5_0 Mg1_0 3.393786 1_555
Bi5_0 Bi5_2 3.595387 1_545
Bi5_0 Bi5_2 3.595387 1_555
Bi5_1 Mg3_1 3.284913 1_555
Bi5_1 Mg3_5 3.284913 1_555
Bi5_1 Mg5_3 3.323470 1_545
Bi5_1 Mg5_1 3.323470 1_555
Bi5_1 Mg1_3 3.393786 1_545
Bi5_1 Mg1_1 3.393786 1_555
Bi5_1 Bi5_3 3.595387 1_545
Bi5_1 Bi5_3 3.595387 1_555
Bi5_2 Mg3_6 3.284913 1_555
Bi5_2 Mg3_2 3.284913 1_555
Bi5_2 Mg5_0 3.323470 1_555
Bi5_2 Mg5_2 3.323470 1_555
Bi5_2 Mg1_0 3.393786 1_555
Bi5_2 Mg1_2 3.393786 1_555
Bi5_3 Mg3_7 3.284913 1_555
Bi5_3 Mg3_3 3.284913 1_555
Bi5_3 Mg5_1 3.323470 1_555
Bi5_3 Mg5_3 3.323470 1_555
Bi5_3 Mg1_1 3.393786 1_555
Bi5_3 Mg1_3 3.393786 1_555
Bi5_4 Mg3_0 3.284913 1_655
Bi5_4 Mg3_4 3.284913 1_555
Bi5_4 Mg5_6 3.323470 1_545
Bi5_4 Mg5_4 3.323470 1_555
Bi5_4 Mg1_6 3.393786 1_545
Bi5_4 Mg1_4 3.393786 1_555
Bi5_4 Bi5_6 3.595387 1_545
Bi5_4 Bi5_6 3.595387 1_555
Bi5_5 Mg3_1 3.284913 1_655
Bi5_5 Mg3_5 3.284913 1_555
Bi5_5 Mg5_7 3.323470 1_545
Bi5_5 Mg5_5 3.323470 1_555
Bi5_5 Mg1_5 3.393786 1_555
Bi5_5 Mg1_7 3.393786 1_545
Bi5_5 Bi5_7 3.595387 1_555
Bi5_5 Bi5_7 3.595387 1_545
Bi5_6 Mg3_2 3.284913 1_655
Bi5_6 Mg3_6 3.284913 1_555
Bi5_6 Mg5_4 3.323470 1_555
Bi5_6 Mg5_6 3.323470 1_555
Bi5_6 Mg1_4 3.393786 1_555
Bi5_6 Mg1_6 3.393786 1_555
Bi5_7 Mg3_3 3.284913 1_655
Bi5_7 Mg3_7 3.284913 1_555
Bi5_7 Mg5_5 3.323470 1_555
Bi5_7 Mg5_7 3.323470 1_555
Bi5_7 Mg1_5 3.393786 1_555
Bi5_7 Mg1_7 3.393786 1_555
