# generated using pymatgen
data_Ce2(SO6)3
_symmetry_space_group_name_H-M   'P 1'
_cell_length_a   8.29798298
_cell_length_b   8.29798298
_cell_length_c   15.71548409
_cell_angle_alpha   86.73279517
_cell_angle_beta   86.73279517
_cell_angle_gamma   50.31542727
_symmetry_Int_Tables_number   1
_chemical_formula_structural   Ce2(SO6)3
_chemical_formula_sum   'Ce4 S6 O36'
_cell_volume   831.11133819
_cell_formula_units_Z   2
loop_
 _symmetry_equiv_pos_site_id
 _symmetry_equiv_pos_as_xyz
  1  'x, y, z'
loop_
 _atom_site_type_symbol
 _atom_site_label
 _atom_site_symmetry_multiplicity
 _atom_site_fract_x
 _atom_site_fract_y
 _atom_site_fract_z
 _atom_site_occupancy
  Ce  Ce0  1  0.94256600  0.89531300  0.57934800  1
  Ce  Ce1  1  0.89531300  0.94256600  0.07934800  1
  Ce  Ce2  1  0.05743400  0.10468700  0.42065200  1
  Ce  Ce3  1  0.10468700  0.05743400  0.92065200  1
  S  S0  1  0.27889000  0.33229000  0.08052500  1
  S  S1  1  0.33229000  0.27889000  0.58052500  1
  S  S2  1  0.72111000  0.66771000  0.91947500  1
  S  S3  1  0.66771000  0.72111000  0.41947500  1
  S  S4  1  0.73249500  0.26750500  0.75000000  1
  S  S5  1  0.26750500  0.73249500  0.25000000  1
  O  O0  1  0.19913800  0.28010200  0.48633000  1
  O  O1  1  0.28010200  0.19913800  0.98633000  1
  O  O2  1  0.80086200  0.71989800  0.51367000  1
  O  O3  1  0.71989800  0.80086200  0.01367000  1
  O  O4  1  0.54538400  0.16838800  0.54739100  1
  O  O5  1  0.16838800  0.54538300  0.04739100  1
  O  O6  1  0.45461600  0.83161200  0.45260900  1
  O  O7  1  0.83161200  0.45461600  0.95260900  1
  O  O8  1  0.28853500  0.17256000  0.63974300  1
  O  O9  1  0.17256000  0.28853500  0.13974300  1
  O  O10  1  0.71146500  0.82744000  0.36025700  1
  O  O11  1  0.82744000  0.71146500  0.86025700  1
  O  O12  1  0.21434300  0.50270200  0.59135300  1
  O  O13  1  0.50270200  0.21434300  0.09135300  1
  O  O14  1  0.78565700  0.49729800  0.40864700  1
  O  O15  1  0.49729800  0.78565700  0.90864700  1
  O  O16  1  0.55383800  0.35365100  0.81168300  1
  O  O17  1  0.35365100  0.55383800  0.31168300  1
  O  O18  1  0.44616200  0.64634900  0.18831700  1
  O  O19  1  0.64634900  0.44616200  0.68831700  1
  O  O20  1  0.92157500  0.21079300  0.79048900  1
  O  O21  1  0.21079300  0.92157500  0.29048900  1
  O  O22  1  0.07842500  0.78920700  0.20951100  1
  O  O23  1  0.78920700  0.07842500  0.70951100  1
  O  O24  1  0.22049100  0.81566700  0.64895400  1
  O  O25  1  0.81566700  0.22049100  0.14895400  1
  O  O26  1  0.77950900  0.18433300  0.35104600  1
  O  O27  1  0.18433300  0.77950900  0.85104600  1
  O  O28  1  0.27943000  0.26865000  0.90846000  1
  O  O29  1  0.26865000  0.27943000  0.40846000  1
  O  O30  1  0.72057000  0.73135000  0.09154000  1
  O  O31  1  0.73135000  0.72057000  0.59154000  1
  O  O32  1  0.94955100  0.14092900  0.54806100  1
  O  O33  1  0.14092900  0.94955100  0.04806100  1
  O  O34  1  0.05044900  0.85907100  0.45193900  1
  O  O35  1  0.85907100  0.05044900  0.95193900  1
loop_
_geom_bond_atom_site_label_1
_geom_bond_atom_site_label_2
_geom_bond_distance
_geom_bond_site_symmetry_2
Ce0 O34 2.102741 1_655
Ce0 O32 2.105335 1_565
Ce0 O24 2.282677 1_655
Ce0 O23 2.387607 1_565
Ce0 O12 2.516051 1_655
Ce0 O4 2.601991 1_565
Ce0 O2 2.657483 1_555
Ce0 O31 2.896000 1_555
Ce1 O35 2.102741 1_564
Ce1 O33 2.105335 1_655
Ce1 O25 2.282677 1_565
Ce1 O22 2.387607 1_655
Ce1 O13 2.516051 1_565
Ce1 O5 2.601997 1_655
Ce1 O3 2.657483 1_555
Ce1 O30 2.896000 1_555
Ce2 O32 2.102741 1_455
Ce2 O34 2.105335 1_545
Ce2 O26 2.282677 1_455
Ce2 O21 2.387607 1_545
Ce2 O14 2.516051 1_455
Ce2 O6 2.601991 1_545
Ce2 O0 2.657483 1_555
Ce2 O29 2.896000 1_555
Ce3 O33 2.102741 1_546
Ce3 O35 2.105335 1_455
Ce3 O27 2.282677 1_545
Ce3 O20 2.387607 1_455
Ce3 O15 2.516051 1_545
Ce3 O7 2.601991 1_455
Ce3 O1 2.657483 1_555
Ce3 O28 2.896000 1_555
O0 O29 1.321571 1_555
O0 S1 1.892824 1_555
O1 O28 1.321571 1_555
O1 S0 1.892824 1_556
O2 O31 1.321571 1_555
O2 S3 1.892824 1_555
O3 O30 1.321571 1_555
O3 S2 1.892824 1_554
O4 S1 1.455131 1_555
O5 S0 1.455124 1_555
O6 S3 1.455131 1_555
O7 S2 1.455131 1_555
O8 S1 1.432980 1_555
O9 S0 1.432980 1_555
O10 S3 1.432980 1_555
O11 S2 1.432980 1_555
O12 S1 1.460019 1_555
O13 S0 1.460019 1_555
O14 S3 1.460019 1_555
O15 S2 1.460019 1_555
O16 S4 1.486685 1_555
O17 S5 1.486685 1_555
O18 S5 1.486685 1_555
O19 S4 1.486685 1_555
O20 S4 1.491558 1_555
O21 S5 1.491558 1_555
O22 S5 1.491558 1_555
O23 S4 1.491558 1_555
