# generated using pymatgen
data_LiHoSe2
_symmetry_space_group_name_H-M   'P 1'
_cell_length_a   6.85186506
_cell_length_b   6.85186506
_cell_length_c   6.85186585
_cell_angle_alpha   34.25373087
_cell_angle_beta   34.25373087
_cell_angle_gamma   34.25372380
_symmetry_Int_Tables_number   1
_chemical_formula_structural   LiHoSe2
_chemical_formula_sum   'Li1 Ho1 Se2'
_cell_volume   90.88040626
_cell_formula_units_Z   1
loop_
 _symmetry_equiv_pos_site_id
 _symmetry_equiv_pos_as_xyz
  1  'x, y, z'
loop_
 _atom_site_type_symbol
 _atom_site_label
 _atom_site_symmetry_multiplicity
 _atom_site_fract_x
 _atom_site_fract_y
 _atom_site_fract_z
 _atom_site_occupancy
  Li  Li0  1  0.50000000  0.50000000  0.50000000  1
  Ho  Ho0  1  0.00000000  0.00000000  0.00000000  1
  Se  Se0  1  0.24929320  0.24929320  0.24929320  1
  Se  Se1  1  0.75070680  0.75070680  0.75070680  1
loop_
_geom_bond_atom_site_label_1
_geom_bond_atom_site_label_2
_geom_bond_distance
_geom_bond_site_symmetry_2
Li0 Se0 2.824852 1_655
Li0 Se0 2.824852 1_565
Li0 Se1 2.824852 1_545
Li0 Se1 2.824852 1_455
Li0 Se0 2.824853 1_556
Li0 Se1 2.824853 1_554
Ho0 Se1 2.840392 1_544
Ho0 Se1 2.840392 1_454
Ho0 Se0 2.840392 1_455
Ho0 Se0 2.840392 1_545
Ho0 Se0 2.840393 1_554
Ho0 Se1 2.840393 1_445
