# generated using pymatgen
data_NaPrP2H4CO7
_symmetry_space_group_name_H-M   'P 1'
_cell_length_a   6.76818122
_cell_length_b   6.89017176
_cell_length_c   15.95521800
_cell_angle_alpha   90.00000000
_cell_angle_beta   90.00000000
_cell_angle_gamma   90.84120031
_symmetry_Int_Tables_number   1
_chemical_formula_structural   NaPrP2H4CO7
_chemical_formula_sum   'Na4 Pr4 P8 H16 C4 O28'
_cell_volume   743.97434693
_cell_formula_units_Z   4
loop_
 _symmetry_equiv_pos_site_id
 _symmetry_equiv_pos_as_xyz
  1  'x, y, z'
loop_
 _atom_site_type_symbol
 _atom_site_label
 _atom_site_symmetry_multiplicity
 _atom_site_fract_x
 _atom_site_fract_y
 _atom_site_fract_z
 _atom_site_occupancy
  Na  Na0  1  0.14648200  0.71537800  0.48966500  1
  Na  Na1  1  0.35351800  0.28462200  0.98966500  1
  Na  Na2  1  0.85351800  0.28462200  0.51033500  1
  Na  Na3  1  0.64648200  0.71537800  0.01033500  1
  Pr  Pr0  1  0.59538400  0.83924400  0.60514900  1
  Pr  Pr1  1  0.90461600  0.16075600  0.10514900  1
  Pr  Pr2  1  0.40461600  0.16075600  0.39485100  1
  Pr  Pr3  1  0.09538400  0.83924400  0.89485100  1
  P  P0  1  0.64536800  0.67012200  0.41902800  1
  P  P1  1  0.85463200  0.32987800  0.91902800  1
  P  P2  1  0.35463200  0.32987800  0.58097200  1
  P  P3  1  0.14536800  0.67012200  0.08097200  1
  P  P4  1  0.09809200  0.00291500  0.66060600  1
  P  P5  1  0.40190800  0.99708500  0.16060600  1
  P  P6  1  0.90190800  0.99708500  0.33939400  1
  P  P7  1  0.59809200  0.00291500  0.83939400  1
  H  H0  1  0.93459700  0.69585800  0.71337300  1
  H  H1  1  0.56540300  0.30414200  0.21337300  1
  H  H2  1  0.06540300  0.30414200  0.28662700  1
  H  H3  1  0.43459700  0.69585800  0.78662700  1
  H  H4  1  0.89803800  0.51736100  0.65219300  1
  H  H5  1  0.60196200  0.48263900  0.15219300  1
  H  H6  1  0.10196200  0.48263900  0.34780700  1
  H  H7  1  0.39803800  0.51736100  0.84780700  1
  H  H8  1  0.86454200  0.65437000  0.29980000  1
  H  H9  1  0.63545800  0.34562900  0.79980000  1
  H  H10  1  0.13545800  0.34562900  0.70020000  1
  H  H11  1  0.36454200  0.65437000  0.20020000  1
  H  H12  1  0.65375400  0.79255500  0.27926900  1
  H  H13  1  0.84624600  0.20744500  0.77926900  1
  H  H14  1  0.34624600  0.20744500  0.72073100  1
  H  H15  1  0.15375400  0.79255500  0.22073100  1
  C  C0  1  0.76947200  0.76707200  0.32620200  1
  C  C1  1  0.73052800  0.23292800  0.82620200  1
  C  C2  1  0.23052800  0.23292800  0.67379800  1
  C  C3  1  0.26947200  0.76707200  0.17379800  1
  O  O0  1  0.23549200  0.87232000  0.60963500  1
  O  O1  1  0.26450800  0.12768000  0.10963500  1
  O  O2  1  0.76450800  0.12768000  0.39036500  1
  O  O3  1  0.73549200  0.87232000  0.89036500  1
  O  O4  1  0.90165400  0.04023300  0.61404800  1
  O  O5  1  0.59834600  0.95976700  0.11404800  1
  O  O6  1  0.09834600  0.95976700  0.38595200  1
  O  O7  1  0.40165400  0.04023300  0.88595200  1
  O  O8  1  0.49142100  0.82256300  0.44952400  1
  O  O9  1  0.00857900  0.17743700  0.94952400  1
  O  O10  1  0.50857900  0.17743700  0.55047600  1
  O  O11  1  0.99142100  0.82256300  0.05047600  1
  O  O12  1  0.79862400  0.64631400  0.49077400  1
  O  O13  1  0.70137600  0.35368600  0.99077400  1
  O  O14  1  0.20137600  0.35368600  0.50922600  1
  O  O15  1  0.29862400  0.64631400  0.00922600  1
  O  O16  1  0.54521200  0.48060200  0.39303500  1
  O  O17  1  0.95478800  0.51939800  0.89303500  1
  O  O18  1  0.45478800  0.51939800  0.60696500  1
  O  O19  1  0.04521200  0.48060200  0.10696500  1
  O  O20  1  0.83112300  0.61563100  0.68502300  1
  O  O21  1  0.66887700  0.38436900  0.18502300  1
  O  O22  1  0.16887700  0.38436900  0.31497700  1
  O  O23  1  0.33112300  0.61563100  0.81497700  1
  O  O24  1  0.05625600  0.91622400  0.74857700  1
  O  O25  1  0.44374400  0.08377600  0.24857700  1
  O  O26  1  0.94374400  0.08377600  0.25142300  1
  O  O27  1  0.55625600  0.91622400  0.75142300  1
loop_
_geom_bond_atom_site_label_1
_geom_bond_atom_site_label_2
_geom_bond_distance
_geom_bond_site_symmetry_2
Na0 O0 2.275323 1_555
Na0 O6 2.386619 1_555
Na0 O12 2.395183 1_455
Na0 O8 2.520988 1_555
Na0 O14 2.544266 1_555
Na1 O1 2.275323 1_556
Na1 O7 2.386619 1_555
Na1 O13 2.395183 1_555
Na1 O9 2.520988 1_555
Na1 O15 2.544266 1_556
Na2 O2 2.275323 1_555
Na2 O4 2.386619 1_555
Na2 O14 2.395183 1_655
Na2 O10 2.520988 1_555
Na2 O12 2.544266 1_555
Na3 O3 2.275323 1_554
Na3 O5 2.386619 1_555
Na3 O15 2.395183 1_555
Na3 O11 2.520988 1_555
Na3 O13 2.544266 1_554
H0 O20 0.994617 1_555
H1 O21 0.994617 1_555
H2 O22 0.994617 1_555
H3 O23 0.994617 1_555
H4 O20 0.973115 1_555
H5 O21 0.973115 1_555
H6 O22 0.973115 1_555
H7 O23 0.973115 1_555
C0 H12 1.099550 1_555
C0 H8 1.099618 1_555
C0 P6 1.821461 1_555
C0 P0 1.824505 1_555
C1 H13 1.099550 1_555
C1 H9 1.099613 1_555
C1 P7 1.821461 1_555
C1 P1 1.824505 1_555
C2 H14 1.099550 1_555
C2 H10 1.099613 1_555
C2 P4 1.821461 1_555
C2 P2 1.824505 1_555
C3 H15 1.099550 1_555
C3 H11 1.099618 1_555
C3 P5 1.821461 1_555
C3 P3 1.824505 1_555
O0 P4 1.536370 1_565
O0 Pr0 2.450827 1_555
O1 P5 1.536370 1_545
O1 Pr1 2.450827 1_455
O2 P6 1.536370 1_545
O2 Pr2 2.450827 1_555
O3 P7 1.536370 1_565
O3 Pr3 2.450827 1_655
O4 P4 1.547777 1_655
O4 Pr0 2.480031 1_545
O5 P5 1.547777 1_555
O5 Pr1 2.480031 1_565
O6 P6 1.547777 1_455
O6 Pr2 2.480031 1_565
O7 P7 1.547777 1_555
O7 Pr3 2.480031 1_545
O8 P0 1.567721 1_555
O8 Pr2 2.564406 1_565
O8 Pr0 2.582903 1_555
O9 P1 1.567721 1_455
O9 Pr3 2.564406 1_545
O9 Pr1 2.582903 1_456
O10 P2 1.567721 1_555
O10 Pr0 2.564406 1_545
O10 Pr2 2.582903 1_555
O11 P3 1.567721 1_655
O11 Pr1 2.564406 1_565
O11 Pr3 2.582903 1_654
O12 P0 1.555061 1_555
O12 Pr0 2.653892 1_555
O13 P1 1.555061 1_555
O13 Pr1 2.653892 1_556
O14 P2 1.555061 1_555
O14 Pr2 2.653892 1_555
O15 P3 1.555061 1_555
O15 Pr3 2.653892 1_554
O16 P0 1.520098 1_555
O16 Pr2 2.387776 1_555
O17 P1 1.520098 1_555
O17 Pr3 2.387776 1_655
O18 P2 1.520098 1_555
O18 Pr0 2.387776 1_555
O19 P3 1.520098 1_555
O19 Pr1 2.387776 1_455
O20 Pr0 2.572129 1_555
O21 Pr1 2.572129 1_555
O22 Pr2 2.572129 1_555
O23 Pr3 2.572129 1_555
O24 P4 1.549864 1_565
O24 Pr3 2.408810 1_555
O25 P5 1.549864 1_545
O25 Pr2 2.408810 1_555
O26 P6 1.549864 1_545
O26 Pr1 2.408810 1_555
O27 P7 1.549864 1_565
O27 Pr0 2.408810 1_555
