# generated using pymatgen
data_Yb4(Al8Pt3)3
_symmetry_space_group_name_H-M   'P 1'
_cell_length_a   7.47038200
_cell_length_b   7.48450389
_cell_length_c   13.41733426
_cell_angle_alpha   84.70392299
_cell_angle_beta   100.86178677
_cell_angle_gamma   119.70514399
_symmetry_Int_Tables_number   1
_chemical_formula_structural   Yb4(Al8Pt3)3
_chemical_formula_sum   'Yb4 Al24 Pt9'
_cell_volume   639.93220587
_cell_formula_units_Z   1
loop_
 _symmetry_equiv_pos_site_id
 _symmetry_equiv_pos_as_xyz
  1  'x, y, z'
loop_
 _atom_site_type_symbol
 _atom_site_label
 _atom_site_symmetry_multiplicity
 _atom_site_fract_x
 _atom_site_fract_y
 _atom_site_fract_z
 _atom_site_occupancy
  Yb  Yb0  1  0.43753400  0.83093400  0.80835200  1
  Yb  Yb1  1  0.56246600  0.16906600  0.19164800  1
  Yb  Yb2  1  0.76686700  0.50056300  0.80832700  1
  Yb  Yb3  1  0.23313300  0.49943700  0.19167300  1
  Al  Al0  1  0.48031000  0.16620400  0.94664600  1
  Al  Al1  1  0.51969000  0.83379600  0.05335400  1
  Al  Al2  1  0.01973300  0.16830100  0.55830800  1
  Al  Al3  1  0.98026700  0.83169900  0.44169200  1
  Al  Al4  1  0.35317300  0.83313500  0.55681200  1
  Al  Al5  1  0.64682700  0.16686500  0.44318800  1
  Al  Al6  1  0.61882100  0.83529100  0.32841400  1
  Al  Al7  1  0.38117900  0.16470900  0.67158600  1
  Al  Al8  1  0.05636100  0.49209300  0.67137900  1
  Al  Al9  1  0.94363900  0.50790700  0.32862100  1
  Al  Al10  1  0.73316400  0.84220800  0.67054100  1
  Al  Al11  1  0.26683600  0.15779200  0.32945900  1
  Al  Al12  1  0.14839000  0.49959700  0.94708600  1
  Al  Al13  1  0.85161000  0.50040300  0.05291400  1
  Al  Al14  1  0.81789900  0.83271600  0.95417700  1
  Al  Al15  1  0.18210100  0.16728400  0.04582300  1
  Al  Al16  1  0.31652500  0.50153600  0.44311800  1
  Al  Al17  1  0.68347500  0.49846400  0.55688200  1
  Al  Al18  1  0.10266800  0.83589600  0.18204200  1
  Al  Al19  1  0.89733200  0.16410400  0.81795800  1
  Al  Al20  1  0.30820700  0.36998200  0.81656300  1
  Al  Al21  1  0.69179300  0.63001800  0.18343700  1
  Al  Al22  1  0.10280300  0.95731700  0.81707800  1
  Al  Al23  1  0.89719700  0.04268300  0.18292200  1
  Pt  Pt0  1  0.38702600  0.50757500  0.63736600  1
  Pt  Pt1  1  0.61297400  0.49242500  0.36263400  1
  Pt  Pt2  1  0.17177100  0.82917400  0.99997000  1
  Pt  Pt3  1  0.82822900  0.17082600  0.00003000  1
  Pt  Pt4  1  0.29549900  0.83286800  0.36290700  1
  Pt  Pt5  1  0.70450100  0.16713200  0.63709300  1
  Pt  Pt6  1  0.04581800  0.82561300  0.63548400  1
  Pt  Pt7  1  0.95418200  0.17438700  0.36451600  1
  Pt  Pt8  1  0.50000000  0.50000000  0.00000000  1
loop_
_geom_bond_atom_site_label_1
_geom_bond_atom_site_label_2
_geom_bond_distance
_geom_bond_site_symmetry_2
Al0 Pt3 2.546241 1_556
Al0 Pt8 2.588796 1_556
Al0 Pt2 2.591063 1_545
Al0 Yb2 3.101616 1_555
Al0 Yb0 3.111790 1_545
Al0 Yb1 3.228452 1_556
Al1 Pt2 2.546241 1_554
Al1 Pt8 2.588796 1_555
Al1 Pt3 2.591063 1_565
Al1 Yb3 3.101616 1_555
Al1 Yb1 3.111790 1_565
Al1 Yb0 3.228452 1_554
Al2 Pt7 2.554043 1_455
Al2 Pt5 2.753022 1_455
Al2 Pt0 2.756250 1_555
Al2 Pt6 2.760014 1_545
Al3 Pt6 2.554043 1_655
Al3 Pt4 2.753022 1_655
Al3 Pt1 2.756250 1_555
Al3 Pt7 2.760014 1_565
Al4 Pt4 2.555790 1_555
Al4 Pt6 2.676496 1_555
Al4 Pt0 2.681594 1_555
Al4 Pt5 2.688286 1_565
Al4 Yb0 3.314582 1_555
Al5 Pt5 2.555790 1_555
Al5 Pt7 2.676496 1_555
Al5 Pt1 2.681594 1_555
Al5 Pt4 2.688286 1_545
Al5 Yb1 3.314582 1_555
Al6 Pt7 2.533842 1_565
Al6 Pt4 2.534700 1_555
Al6 Pt1 2.544989 1_555
Al6 Yb3 3.109265 1_555
Al6 Yb1 3.112907 1_565
Al7 Pt6 2.533842 1_545
Al7 Pt5 2.534700 1_555
Al7 Pt0 2.544989 1_555
Al7 Yb2 3.109265 1_555
Al7 Yb0 3.112907 1_545
Al8 Pt6 2.535339 1_555
Al8 Pt5 2.539903 1_455
Al8 Pt0 2.540664 1_555
Al8 Yb0 3.106216 1_555
Al8 Yb2 3.116462 1_455
Al9 Pt7 2.535339 1_555
Al9 Pt4 2.539903 1_655
Al9 Pt1 2.540664 1_555
Al9 Yb1 3.106216 1_555
Al9 Yb3 3.116462 1_655
Al10 Pt6 2.530663 1_655
Al10 Pt5 2.537667 1_565
Al10 Pt0 2.551630 1_555
Al10 Yb2 3.099933 1_555
Al10 Yb0 3.103063 1_555
Al11 Pt7 2.530663 1_455
Al11 Pt4 2.537667 1_545
Al11 Pt1 2.551630 1_555
Al11 Yb3 3.099933 1_555
Al11 Yb1 3.103063 1_555
Al12 Pt2 2.543245 1_555
Al12 Pt8 2.587108 1_556
Al12 Pt3 2.600930 1_456
Al12 Yb2 3.099606 1_455
Al12 Yb0 3.104010 1_555
Al12 Yb3 3.222950 1_556
Al13 Pt3 2.543245 1_555
Al13 Pt8 2.587108 1_555
Al13 Pt2 2.600930 1_654
Al13 Yb3 3.099606 1_655
Al13 Yb1 3.104010 1_555
Al13 Yb2 3.222950 1_554
Al14 Pt8 2.574021 1_556
Al14 Pt2 2.611688 1_655
Al14 Pt3 2.619980 1_566
Al14 Yb0 3.126390 1_555
Al14 Yb2 3.135715 1_555
Al15 Pt8 2.574021 1_555
Al15 Pt3 2.611688 1_455
Al15 Pt2 2.619980 1_544
Al15 Yb1 3.126390 1_555
Al15 Yb3 3.135715 1_555
Al16 Pt0 2.559883 1_555
Al16 Pt1 2.672033 1_555
Al16 Pt4 2.676237 1_555
Al16 Pt7 2.695695 1_455
Al16 Yb3 3.313355 1_555
Al17 Pt1 2.559883 1_555
Al17 Pt0 2.672033 1_555
Al17 Pt5 2.676237 1_555
Al17 Pt6 2.695695 1_655
Al17 Yb2 3.313355 1_555
Al18 Pt4 2.582506 1_555
Al18 Pt2 2.600115 1_554
Al18 Yb1 3.071928 1_565
Al18 Yb3 3.103698 1_555
Al19 Pt5 2.582506 1_555
Al19 Pt3 2.600115 1_556
Al19 Yb0 3.071928 1_545
Al19 Yb2 3.103698 1_555
Al20 Pt0 2.581396 1_555
Al20 Pt8 2.605528 1_556
Al20 Yb2 3.084043 1_555
Al20 Yb0 3.084573 1_555
Al21 Pt1 2.581396 1_555
Al21 Pt8 2.605528 1_555
Al21 Yb3 3.084043 1_555
Al21 Yb1 3.084573 1_555
Al22 Pt6 2.593464 1_555
Al22 Pt2 2.604956 1_555
Al22 Yb2 3.075527 1_455
Al22 Yb0 3.104238 1_555
Al23 Pt7 2.593464 1_555
Al23 Pt3 2.604956 1_555
Al23 Yb3 3.075527 1_655
Al23 Yb1 3.104238 1_555
Pt0 Yb2 3.314887 1_555
Pt0 Yb0 3.325150 1_555
Pt1 Yb3 3.314887 1_555
Pt1 Yb1 3.325150 1_555
Pt2 Yb3 3.524436 1_556
Pt2 Yb0 3.527521 1_555
Pt2 Yb1 3.553100 1_566
Pt2 Yb2 3.559968 1_455
Pt3 Yb2 3.524436 1_554
Pt3 Yb1 3.527521 1_555
Pt3 Yb0 3.553100 1_544
Pt3 Yb3 3.559968 1_655
Pt4 Yb3 3.350547 1_555
Pt4 Yb1 3.357877 1_565
Pt5 Yb2 3.350547 1_555
Pt5 Yb0 3.357877 1_545
Pt6 Yb0 3.359753 1_555
Pt6 Yb2 3.375612 1_455
Pt7 Yb1 3.359753 1_555
Pt7 Yb3 3.375612 1_655
Pt8 Yb0 3.533032 1_554
Pt8 Yb1 3.533032 1_555
Pt8 Yb2 3.536983 1_554
Pt8 Yb3 3.536983 1_555
