# generated using pymatgen
data_Mg14GaNi
_symmetry_space_group_name_H-M   'P 1'
_cell_length_a   6.21235211
_cell_length_b   6.21235163
_cell_length_c   10.04582723
_cell_angle_alpha   90.00000000
_cell_angle_beta   90.00000000
_cell_angle_gamma   120.00000252
_symmetry_Int_Tables_number   1
_chemical_formula_structural   Mg14GaNi
_chemical_formula_sum   'Mg14 Ga1 Ni1'
_cell_volume   335.75958392
_cell_formula_units_Z   1
loop_
 _symmetry_equiv_pos_site_id
 _symmetry_equiv_pos_as_xyz
  1  'x, y, z'
loop_
 _atom_site_type_symbol
 _atom_site_label
 _atom_site_symmetry_multiplicity
 _atom_site_fract_x
 _atom_site_fract_y
 _atom_site_fract_z
 _atom_site_occupancy
  Mg  Mg0  1  0.16365173  0.83182536  0.12500000  1
  Mg  Mg1  1  0.16741499  0.83370699  0.62500000  1
  Mg  Mg2  1  0.66817464  0.33634827  0.12500000  1
  Mg  Mg3  1  0.66629301  0.33258501  0.62500000  1
  Mg  Mg4  1  0.66817464  0.83182536  0.12500000  1
  Mg  Mg5  1  0.66629301  0.83370699  0.62500000  1
  Mg  Mg6  1  0.32792259  0.17207741  0.36842238  1
  Mg  Mg7  1  0.32792259  0.17207741  0.88157762  1
  Mg  Mg8  1  0.32792259  0.65584618  0.36842238  1
  Mg  Mg9  1  0.32792259  0.65584618  0.88157762  1
  Mg  Mg10  1  0.84415382  0.17207741  0.36842238  1
  Mg  Mg11  1  0.84415382  0.17207741  0.88157762  1
  Mg  Mg12  1  0.83333300  0.66666700  0.37526771  1
  Mg  Mg13  1  0.83333300  0.66666700  0.87473229  1
  Ga  Ga0  1  0.16666700  0.33333300  0.62500000  1
  Ni  Ni0  1  0.16666700  0.33333300  0.12500000  1
loop_
_geom_bond_atom_site_label_1
_geom_bond_atom_site_label_2
_geom_bond_distance
_geom_bond_site_symmetry_2
Mg0 Mg8 3.054859 1_555
Mg0 Mg9 3.054859 1_554
Mg0 Mg6 3.054866 1_565
Mg0 Mg7 3.054866 1_564
Mg0 Mg2 3.078078 1_455
Mg0 Mg4 3.078078 1_455
Mg0 Mg12 3.078820 1_455
Mg0 Mg13 3.078820 1_454
Mg0 Ni0 3.106218 1_555
Mg0 Ni0 3.106218 1_565
Mg0 Mg2 3.134274 1_565
Mg0 Mg4 3.134274 1_555
Mg1 Mg13 3.086177 1_455
Mg1 Mg12 3.086177 1_455
Mg1 Mg3 3.099206 1_565
Mg1 Mg5 3.099206 1_555
Mg1 Mg3 3.113146 1_455
Mg1 Mg5 3.113146 1_455
Mg1 Mg9 3.156041 1_555
Mg1 Mg8 3.156041 1_555
Mg1 Mg7 3.156047 1_565
Mg1 Mg6 3.156047 1_565
Mg2 Mg6 3.054866 1_555
Mg2 Mg7 3.054866 1_554
Mg2 Mg4 3.078078 1_555
Mg2 Ni0 3.106218 1_655
Mg2 Ni0 3.106218 1_555
Mg2 Mg4 3.134274 1_545
Mg3 Mg5 3.099206 1_545
Mg3 Mg5 3.113146 1_555
Mg3 Mg7 3.156047 1_555
Mg3 Mg6 3.156047 1_555
Mg4 Mg8 3.054866 1_555
Mg4 Mg9 3.054866 1_554
Mg4 Ni0 3.106218 1_665
Mg4 Ni0 3.106218 1_555
Mg5 Mg9 3.156047 1_555
Mg5 Mg8 3.156047 1_555
Mg6 Ni0 2.998424 1_555
Mg6 Mg8 3.005342 1_555
Mg6 Mg8 3.207010 1_545
Mg7 Ni0 2.998424 1_556
Mg7 Mg9 3.005342 1_555
Mg7 Mg9 3.207010 1_545
Mg8 Ni0 2.998430 1_555
Mg9 Ni0 2.998430 1_556
Mg10 Ni0 2.998430 1_655
Mg10 Mg8 3.005342 1_655
Mg10 Mg6 3.005342 1_655
Mg10 Mg2 3.054859 1_555
Mg10 Mg4 3.054866 1_545
Mg10 Mg12 3.107482 1_545
Mg10 Mg12 3.107482 1_555
Mg10 Mg3 3.156041 1_555
Mg10 Mg5 3.156047 1_545
Mg10 Mg8 3.207010 1_545
Mg10 Mg6 3.207010 1_555
Mg11 Ni0 2.998430 1_656
Mg11 Mg9 3.005342 1_655
Mg11 Mg7 3.005342 1_655
Mg11 Mg2 3.054859 1_556
Mg11 Mg4 3.054866 1_546
Mg11 Mg13 3.107482 1_545
Mg11 Mg13 3.107482 1_555
Mg11 Mg3 3.156041 1_555
Mg11 Mg5 3.156047 1_545
Mg11 Mg9 3.207010 1_545
Mg11 Mg7 3.207010 1_555
Mg12 Mg4 3.078814 1_555
Mg12 Mg2 3.078820 1_555
Mg12 Mg5 3.086170 1_555
Mg12 Mg3 3.086177 1_555
Mg12 Mg6 3.107482 1_665
Mg12 Mg6 3.107482 1_555
Mg12 Mg8 3.107483 1_655
Mg12 Mg8 3.107483 1_555
Mg13 Mg4 3.078814 1_556
Mg13 Mg2 3.078820 1_556
Mg13 Mg5 3.086170 1_555
Mg13 Mg3 3.086177 1_555
Mg13 Mg7 3.107482 1_665
Mg13 Mg7 3.107482 1_555
Mg13 Mg9 3.107483 1_655
Mg13 Mg9 3.107483 1_555
Ga0 Mg1 3.106178 1_555
Ga0 Mg5 3.106178 1_555
Ga0 Mg5 3.106178 1_445
Ga0 Mg1 3.106178 1_545
Ga0 Mg3 3.106179 1_455
Ga0 Mg3 3.106179 1_555
Ga0 Mg7 3.107145 1_555
Ga0 Mg6 3.107145 1_555
Ga0 Mg9 3.107151 1_555
Ga0 Mg8 3.107151 1_555
Ga0 Mg11 3.107151 1_455
Ga0 Mg10 3.107151 1_455
