# generated using pymatgen
data_LaN3O13
_symmetry_space_group_name_H-M   'P 1'
_cell_length_a   11.04492400
_cell_length_b   6.61558500
_cell_length_c   6.69261613
_cell_angle_alpha   82.91353791
_cell_angle_beta   90.00000000
_cell_angle_gamma   90.00000000
_symmetry_Int_Tables_number   1
_chemical_formula_structural   LaN3O13
_chemical_formula_sum   'La2 N6 O26'
_cell_volume   485.28474511
_cell_formula_units_Z   2
loop_
 _symmetry_equiv_pos_site_id
 _symmetry_equiv_pos_as_xyz
  1  'x, y, z'
loop_
 _atom_site_type_symbol
 _atom_site_label
 _atom_site_symmetry_multiplicity
 _atom_site_fract_x
 _atom_site_fract_y
 _atom_site_fract_z
 _atom_site_occupancy
  La  La0  1  0.25000000  0.80756000  0.37134400  1
  La  La1  1  0.75000000  0.19244000  0.62865600  1
  N  N0  1  0.25000000  0.24171900  0.48117000  1
  N  N1  1  0.75000000  0.75828100  0.51883000  1
  N  N2  1  0.49879200  0.72782200  0.18410300  1
  N  N3  1  0.99879200  0.27217800  0.81589700  1
  N  N4  1  0.50120800  0.27217800  0.81589700  1
  N  N5  1  0.00120800  0.72782200  0.18410300  1
  O  O0  1  0.34864400  0.14524000  0.46726000  1
  O  O1  1  0.84864400  0.85476000  0.53274000  1
  O  O2  1  0.65135600  0.85476000  0.53274000  1
  O  O3  1  0.15135600  0.14524000  0.46726000  1
  O  O4  1  0.25000000  0.42502400  0.50979900  1
  O  O5  1  0.75000000  0.57497600  0.49020100  1
  O  O6  1  0.45999800  0.90665900  0.20207000  1
  O  O7  1  0.95999800  0.09334100  0.79793000  1
  O  O8  1  0.54000200  0.09334100  0.79793000  1
  O  O9  1  0.04000200  0.90665900  0.20207000  1
  O  O10  1  0.59744700  0.69874700  0.10431900  1
  O  O11  1  0.09744700  0.30125300  0.89568100  1
  O  O12  1  0.40255300  0.30125300  0.89568100  1
  O  O13  1  0.90255300  0.69874700  0.10431900  1
  O  O14  1  0.43133600  0.57857900  0.25326800  1
  O  O15  1  0.93133600  0.42142100  0.74673200  1
  O  O16  1  0.56866400  0.42142100  0.74673200  1
  O  O17  1  0.06866400  0.57857900  0.25326800  1
  O  O18  1  0.25000000  0.02327400  0.05146400  1
  O  O19  1  0.75000000  0.97672600  0.94853600  1
  O  O20  1  0.25000000  0.73598900  0.86514800  1
  O  O21  1  0.75000000  0.26401100  0.13485200  1
  O  O22  1  0.34989600  0.74684000  0.76087300  1
  O  O23  1  0.84989600  0.25316000  0.23912700  1
  O  O24  1  0.65010400  0.25316000  0.23912700  1
  O  O25  1  0.15010400  0.74684000  0.76087300  1
loop_
_geom_bond_atom_site_label_1
_geom_bond_atom_site_label_2
_geom_bond_distance
_geom_bond_site_symmetry_2
La0 O18 2.421963 1_565
La0 O4 2.585436 1_555
La0 O6 2.628623 1_555
La0 O9 2.628623 1_555
La0 O0 2.635048 1_565
La0 O3 2.635048 1_565
La0 O14 2.688115 1_555
La0 O17 2.688115 1_555
La0 O22 2.813650 1_555
La0 O25 2.813650 1_555
La1 O19 2.421963 1_545
La1 O5 2.585436 1_555
La1 O7 2.628623 1_555
La1 O8 2.628623 1_555
La1 O1 2.635048 1_545
La1 O2 2.635048 1_545
La1 O15 2.688115 1_555
La1 O16 2.688115 1_555
La1 O23 2.813650 1_555
La1 O24 2.813650 1_555
N0 O4 1.250843 1_555
N0 O3 1.271909 1_555
N0 O0 1.271909 1_555
N1 O5 1.250843 1_555
N1 O1 1.271909 1_555
N1 O2 1.271909 1_555
N2 O10 1.238856 1_555
N2 O14 1.277271 1_555
N2 O6 1.277852 1_555
N3 O11 1.238856 1_655
N3 O15 1.277271 1_555
N3 O7 1.277852 1_555
N4 O12 1.238856 1_555
N4 O16 1.277271 1_555
N4 O8 1.277852 1_555
N5 O13 1.238856 1_455
N5 O17 1.277271 1_555
N5 O9 1.277852 1_555
O20 O25 1.302761 1_555
O20 O22 1.302761 1_555
O21 O24 1.302761 1_555
O21 O23 1.302761 1_555
