# generated using pymatgen
data_BaSrV4O12
_symmetry_space_group_name_H-M   'P 1'
_cell_length_a   5.40160112
_cell_length_b   5.40160112
_cell_length_c   7.62920826
_cell_angle_alpha   90.00000000
_cell_angle_beta   90.00000000
_cell_angle_gamma   90.00000000
_symmetry_Int_Tables_number   1
_chemical_formula_structural   BaSrV4O12
_chemical_formula_sum   'Ba1 Sr1 V4 O12'
_cell_volume   222.59965742
_cell_formula_units_Z   1
loop_
 _symmetry_equiv_pos_site_id
 _symmetry_equiv_pos_as_xyz
  1  'x, y, z'
loop_
 _atom_site_type_symbol
 _atom_site_label
 _atom_site_symmetry_multiplicity
 _atom_site_fract_x
 _atom_site_fract_y
 _atom_site_fract_z
 _atom_site_occupancy
  Ba  Ba0  1  0.50000000  0.50000000  0.00000000  1
  Sr  Sr0  1  -0.00000000  -0.00000000  0.50000000  1
  V  V0  1  -0.00000000  0.50000000  0.74754158  1
  V  V1  1  0.00000000  0.50000000  0.25245842  1
  V  V2  1  0.50000000  -0.00000000  0.74754158  1
  V  V3  1  0.50000000  -0.00000000  0.25245842  1
  O  O0  1  0.24758607  0.24758607  0.25482543  1
  O  O1  1  0.24758607  0.24758607  0.74517457  1
  O  O2  1  0.75241393  0.75241393  0.74517457  1
  O  O3  1  0.75241393  0.75241393  0.25482543  1
  O  O4  1  0.75241393  0.24758607  0.74517457  1
  O  O5  1  0.75241393  0.24758607  0.25482543  1
  O  O6  1  0.24758607  0.75241393  0.74517457  1
  O  O7  1  0.24758607  0.75241393  0.25482543  1
  O  O8  1  0.00000000  0.50000000  0.50000000  1
  O  O9  1  -0.00000000  0.50000000  -0.00000000  1
  O  O10  1  0.50000000  0.00000000  0.50000000  1
  O  O11  1  0.50000000  -0.00000000  -0.00000000  1
loop_
_geom_bond_atom_site_label_1
_geom_bond_atom_site_label_2
_geom_bond_distance
_geom_bond_site_symmetry_2
Ba0 O9 2.700801 1_655
Ba0 O11 2.700801 1_555
Ba0 O11 2.700801 1_565
Ba0 O9 2.700801 1_555
Ba0 O4 2.738160 1_554
Ba0 O6 2.738160 1_554
Ba0 O3 2.738160 1_555
Ba0 O7 2.738160 1_555
Ba0 O0 2.738160 1_555
Ba0 O1 2.738160 1_554
Ba0 O2 2.738160 1_554
Ba0 O5 2.738160 1_555
O0 V3 1.909929 1_555
O0 V1 1.909929 1_555
O0 Sr0 2.660037 1_555
O1 V2 1.909929 1_555
O1 V0 1.909929 1_555
O1 Sr0 2.660037 1_555
O2 V0 1.909929 1_655
O2 V2 1.909929 1_565
O2 Sr0 2.660037 1_665
O3 V3 1.909929 1_565
O3 V1 1.909929 1_655
O3 Sr0 2.660037 1_665
O4 V2 1.909929 1_555
O4 V0 1.909929 1_655
O4 Sr0 2.660037 1_655
O5 V3 1.909929 1_555
O5 V1 1.909929 1_655
O5 Sr0 2.660037 1_655
O6 V2 1.909929 1_565
O6 V0 1.909929 1_555
O6 Sr0 2.660037 1_565
O7 V3 1.909929 1_565
O7 V1 1.909929 1_555
O7 Sr0 2.660037 1_565
O8 V1 1.888546 1_555
O8 V0 1.888546 1_555
O8 Sr0 2.700801 1_565
O8 Sr0 2.700801 1_555
O9 V0 1.926058 1_554
O9 V1 1.926058 1_555
O10 V3 1.888546 1_555
O10 V2 1.888546 1_555
O10 Sr0 2.700801 1_655
O10 Sr0 2.700801 1_555
O11 V2 1.926058 1_554
O11 V3 1.926058 1_555
