# generated using pymatgen
data_Hf2Ni7
_symmetry_space_group_name_H-M   'P 1'
_cell_length_a   4.66169120
_cell_length_b   4.66169120
_cell_length_c   6.19979236
_cell_angle_alpha   82.12331306
_cell_angle_beta   82.12331306
_cell_angle_gamma   120.73144140
_symmetry_Int_Tables_number   1
_chemical_formula_structural   Hf2Ni7
_chemical_formula_sum   'Hf2 Ni7'
_cell_volume   111.27332954
_cell_formula_units_Z   1
loop_
 _symmetry_equiv_pos_site_id
 _symmetry_equiv_pos_as_xyz
  1  'x, y, z'
loop_
 _atom_site_type_symbol
 _atom_site_label
 _atom_site_symmetry_multiplicity
 _atom_site_fract_x
 _atom_site_fract_y
 _atom_site_fract_z
 _atom_site_occupancy
  Hf  Hf0  1  0.10657097  0.10657097  0.22834212  1
  Hf  Hf1  1  0.89342903  0.89342903  0.77165788  1
  Ni  Ni0  1  -0.00000000  0.50000000  0.50000000  1
  Ni  Ni1  1  0.50000000  -0.00000000  0.50000000  1
  Ni  Ni2  1  0.46359439  0.79290924  0.15512543  1
  Ni  Ni3  1  0.53640561  0.20709076  0.84487457  1
  Ni  Ni4  1  0.20709076  0.53640561  0.84487457  1
  Ni  Ni5  1  0.79290924  0.46359439  0.15512543  1
  Ni  Ni6  1  0.50000000  0.50000000  0.50000000  1
loop_
_geom_bond_atom_site_label_1
_geom_bond_atom_site_label_2
_geom_bond_distance
_geom_bond_site_symmetry_2
Hf0 Ni2 2.676821 1_555
Hf0 Ni5 2.676821 1_555
Hf0 Ni3 2.704830 1_554
Hf0 Ni4 2.704830 1_554
Hf0 Ni5 2.720989 1_445
Hf0 Ni2 2.720989 1_445
Hf0 Ni2 2.752473 1_545
Hf0 Ni5 2.752473 1_455
Hf0 Ni6 2.796333 1_555
Hf0 Ni0 2.827659 1_555
Hf0 Ni1 2.827659 1_555
Hf0 Ni6 2.836455 1_445
Hf0 Ni1 2.847570 1_455
Hf0 Ni0 2.847570 1_545
Hf1 Ni4 2.676821 1_555
Hf1 Ni3 2.676821 1_555
Hf1 Ni5 2.704830 1_556
Hf1 Ni2 2.704830 1_556
Hf1 Ni3 2.720989 1_665
Hf1 Ni4 2.720989 1_665
Hf1 Ni4 2.752473 1_655
Hf1 Ni3 2.752473 1_565
Hf1 Ni6 2.796333 1_555
Hf1 Ni0 2.827659 1_655
Hf1 Ni1 2.827659 1_565
Hf1 Ni6 2.836455 1_665
Hf1 Ni0 2.847570 1_665
Hf1 Ni1 2.847570 1_665
Ni0 Ni1 2.305029 1_565
Ni0 Ni1 2.305029 1_455
Ni0 Ni6 2.330846 1_455
Ni0 Ni6 2.330846 1_555
Ni0 Ni3 2.454389 1_455
Ni0 Ni2 2.454389 1_555
Ni0 Ni4 2.455653 1_555
Ni0 Ni5 2.455653 1_455
Ni1 Ni6 2.330846 1_545
Ni1 Ni6 2.330846 1_555
Ni1 Ni4 2.454389 1_545
Ni1 Ni5 2.454389 1_555
Ni1 Ni2 2.455653 1_545
Ni1 Ni3 2.455653 1_555
Ni2 Ni3 2.382504 1_564
Ni2 Ni6 2.449704 1_555
Ni2 Ni4 2.521685 1_554
Ni2 Ni5 2.668727 1_555
Ni2 Ni5 2.688203 1_565
Ni2 Ni5 2.688203 1_455
Ni3 Ni6 2.449704 1_555
Ni3 Ni5 2.521685 1_556
Ni3 Ni4 2.668727 1_555
Ni3 Ni4 2.688203 1_545
Ni3 Ni4 2.688203 1_655
Ni4 Ni5 2.382504 1_456
Ni4 Ni6 2.449704 1_555
Ni5 Ni6 2.449704 1_555
