# generated using pymatgen
data_K2HS2NO7
_symmetry_space_group_name_H-M   'P 1'
_cell_length_a   10.23952200
_cell_length_b   7.59997200
_cell_length_c   11.13851662
_cell_angle_alpha   70.74186907
_cell_angle_beta   90.00000000
_cell_angle_gamma   90.00000000
_symmetry_Int_Tables_number   1
_chemical_formula_structural   K2HS2NO7
_chemical_formula_sum   'K8 H4 S8 N4 O28'
_cell_volume   818.29604501
_cell_formula_units_Z   4
loop_
 _symmetry_equiv_pos_site_id
 _symmetry_equiv_pos_as_xyz
  1  'x, y, z'
loop_
 _atom_site_type_symbol
 _atom_site_label
 _atom_site_symmetry_multiplicity
 _atom_site_fract_x
 _atom_site_fract_y
 _atom_site_fract_z
 _atom_site_occupancy
  K  K0  1  0.40628400  0.34669800  0.18833500  1
  K  K1  1  0.90628400  0.65330200  0.31166500  1
  K  K2  1  0.59371600  0.65330200  0.81166500  1
  K  K3  1  0.09371600  0.34669800  0.68833500  1
  K  K4  1  0.24731100  0.95477300  0.01556600  1
  K  K5  1  0.74731100  0.04522700  0.48443400  1
  K  K6  1  0.75268900  0.04522700  0.98443400  1
  K  K7  1  0.25268900  0.95477300  0.51556600  1
  H  H0  1  0.55185500  0.64011800  0.41981200  1
  H  H1  1  0.05185500  0.35988200  0.08018800  1
  H  H2  1  0.44814500  0.35988200  0.58018800  1
  H  H3  1  0.94814500  0.64011800  0.91981200  1
  S  S0  1  0.25355900  0.55562500  0.37523900  1
  S  S1  1  0.75355900  0.44437500  0.12476100  1
  S  S2  1  0.74644100  0.44437500  0.62476100  1
  S  S3  1  0.24644100  0.55562500  0.87523900  1
  S  S4  1  0.54265800  0.91219500  0.26506900  1
  S  S5  1  0.04265800  0.08780500  0.23493100  1
  S  S6  1  0.45734200  0.08780500  0.73493100  1
  S  S7  1  0.95734200  0.91219500  0.76506900  1
  N  N0  1  0.48884200  0.68640800  0.34310600  1
  N  N1  1  0.98884200  0.31359200  0.15689400  1
  N  N2  1  0.51115800  0.31359200  0.65689400  1
  N  N3  1  0.01115800  0.68640800  0.84310600  1
  O  O0  1  0.36390600  0.70032000  0.40262600  1
  O  O1  1  0.86390600  0.29968000  0.09737400  1
  O  O2  1  0.63609400  0.29968000  0.59737400  1
  O  O3  1  0.13609400  0.70032000  0.90262600  1
  O  O4  1  0.30736900  0.36766500  0.43324300  1
  O  O5  1  0.80736900  0.63233500  0.06675700  1
  O  O6  1  0.69263100  0.63233500  0.56675700  1
  O  O7  1  0.19263100  0.36766500  0.93324300  1
  O  O8  1  0.23720000  0.60999700  0.23813100  1
  O  O9  1  0.73720000  0.39000300  0.26186900  1
  O  O10  1  0.76280000  0.39000300  0.76186900  1
  O  O11  1  0.26280000  0.60999700  0.73813100  1
  O  O12  1  0.14386900  0.59917800  0.44476600  1
  O  O13  1  0.64386900  0.40082200  0.05523400  1
  O  O14  1  0.85613100  0.40082200  0.55523400  1
  O  O15  1  0.35613100  0.59917800  0.94476600  1
  O  O16  1  0.51829500  0.01989600  0.35087100  1
  O  O17  1  0.01829500  0.98010400  0.14912900  1
  O  O18  1  0.48170500  0.98010400  0.64912900  1
  O  O19  1  0.98170500  0.01989600  0.85087100  1
  O  O20  1  0.46951800  0.98061600  0.14640300  1
  O  O21  1  0.96951800  0.01938400  0.35359700  1
  O  O22  1  0.53048200  0.01938400  0.85359700  1
  O  O23  1  0.03048200  0.98061600  0.64640300  1
  O  O24  1  0.68115600  0.87736100  0.24890700  1
  O  O25  1  0.18115600  0.12263900  0.25109300  1
  O  O26  1  0.31884400  0.12263900  0.75109300  1
  O  O27  1  0.81884400  0.87736100  0.74890700  1
loop_
_geom_bond_atom_site_label_1
_geom_bond_atom_site_label_2
_geom_bond_distance
_geom_bond_site_symmetry_2
K0 O16 2.792068 1_555
K0 O15 2.805712 1_554
K0 O13 2.807700 1_555
K0 O25 2.813729 1_555
K0 O8 2.835768 1_555
K0 O4 2.963020 1_555
K0 O20 3.038960 1_545
K1 O17 2.792068 1_655
K1 O14 2.805712 1_555
K1 O12 2.807700 1_655
K1 O24 2.813729 1_555
K1 O9 2.835768 1_555
K1 O5 2.963020 1_555
K1 O21 3.038960 1_565
K2 O18 2.792068 1_555
K2 O13 2.805712 1_556
K2 O15 2.807700 1_555
K2 O27 2.813729 1_555
K2 O10 2.835768 1_555
K2 O6 2.963020 1_555
K2 O22 3.038960 1_565
K3 O19 2.792068 1_455
K3 O12 2.805712 1_555
K3 O14 2.807700 1_455
K3 O26 2.813729 1_555
K3 O11 2.835768 1_555
K3 O7 2.963020 1_555
K3 O23 3.038960 1_545
K4 O20 2.743749 1_555
K4 O17 2.817501 1_555
K4 O3 2.867731 1_554
K4 O26 2.891877 1_564
K4 O8 2.955898 1_555
K4 O7 3.017130 1_564
K4 O19 3.226132 1_464
K4 O15 3.251602 1_554
K4 O25 3.343141 1_565
K4 O22 3.364344 1_564
K5 O21 2.743749 1_555
K5 O16 2.817501 1_555
K5 O2 2.867731 1_555
K5 O27 2.891877 1_545
K5 O9 2.955898 1_555
K5 O6 3.017130 1_545
K5 O18 3.226132 1_545
K5 O14 3.251602 1_555
K5 O24 3.343141 1_545
K5 O23 3.364344 1_645
K6 O22 2.743749 1_555
K6 O19 2.817501 1_555
K6 O1 2.867731 1_556
K6 O24 2.891877 1_546
K6 O10 2.955898 1_555
K6 O5 3.017130 1_546
K6 O17 3.226132 1_646
K6 O13 3.251602 1_556
K6 O27 3.343141 1_545
K6 O20 3.364344 1_546
K7 O23 2.743749 1_555
K7 O18 2.817501 1_555
K7 O0 2.867731 1_555
K7 O25 2.891877 1_565
K7 O11 2.955898 1_555
K7 O4 3.017130 1_565
K7 O16 3.226132 1_565
K7 O12 3.251602 1_555
K7 O26 3.343141 1_565
K7 O21 3.364344 1_465
H0 N0 1.035271 1_555
H1 N1 1.035271 1_455
H2 N2 1.035271 1_555
H3 N3 1.035271 1_655
N0 O0 1.460654 1_555
N0 S4 1.737775 1_555
N1 O1 1.460654 1_555
N1 S5 1.737775 1_655
N2 O2 1.460654 1_555
N2 S6 1.737775 1_555
N3 O3 1.460654 1_555
N3 S7 1.737775 1_455
O0 S0 1.673412 1_555
O1 S1 1.673412 1_555
O2 S2 1.673412 1_555
O3 S3 1.673412 1_555
O4 S0 1.467239 1_555
O5 S1 1.467239 1_555
O6 S2 1.467239 1_555
O7 S3 1.467239 1_555
O8 S0 1.454238 1_555
O9 S1 1.454238 1_555
O10 S2 1.454238 1_555
O11 S3 1.454238 1_555
O12 S0 1.462843 1_555
O13 S1 1.462843 1_555
O14 S2 1.462843 1_555
O15 S3 1.462843 1_555
O16 S4 1.470243 1_545
O17 S5 1.470243 1_565
O18 S6 1.470243 1_565
O19 S7 1.470243 1_545
O20 S4 1.457720 1_555
O21 S5 1.457720 1_655
O22 S6 1.457720 1_555
O23 S7 1.457720 1_455
O24 S4 1.464613 1_555
O25 S5 1.464613 1_555
O26 S6 1.464613 1_555
O27 S7 1.464613 1_555
