# generated using pymatgen
data_Sm5(In2Pt)2
_symmetry_space_group_name_H-M   'P 1'
_cell_length_a   7.44816248
_cell_length_b   16.37041148
_cell_length_c   36.95474060
_cell_angle_alpha   90.00000000
_cell_angle_beta   90.00000000
_cell_angle_gamma   90.00000000
_symmetry_Int_Tables_number   1
_chemical_formula_structural   Sm5(In2Pt)2
_chemical_formula_sum   'Sm80 In64 Pt32'
_cell_volume   4505.87247368
_cell_formula_units_Z   16
loop_
 _symmetry_equiv_pos_site_id
 _symmetry_equiv_pos_as_xyz
  1  'x, y, z'
loop_
 _atom_site_type_symbol
 _atom_site_label
 _atom_site_symmetry_multiplicity
 _atom_site_fract_x
 _atom_site_fract_y
 _atom_site_fract_z
 _atom_site_occupancy
  Sm  Sm0_0  1  0.00000000  0.05815055  0.20789981  1
  Sm  Sm0_1  1  0.00000000  0.05815055  0.70789981  1
  Sm  Sm0_2  1  0.00000000  0.55815055  0.20789981  1
  Sm  Sm0_3  1  0.00000000  0.55815055  0.70789981  1
  Sm  Sm0_4  1  0.50000000  0.05815055  0.20789981  1
  Sm  Sm0_5  1  0.50000000  0.05815055  0.70789981  1
  Sm  Sm0_6  1  0.50000000  0.55815055  0.20789981  1
  Sm  Sm0_7  1  0.50000000  0.55815055  0.70789981  1
  Sm  Sm1_0  1  0.00000000  0.44184945  0.29210019  1
  Sm  Sm1_1  1  0.00000000  0.44184945  0.79210019  1
  Sm  Sm1_2  1  0.00000000  0.94184945  0.29210019  1
  Sm  Sm1_3  1  0.00000000  0.94184945  0.79210019  1
  Sm  Sm1_4  1  0.50000000  0.44184945  0.29210019  1
  Sm  Sm1_5  1  0.50000000  0.44184945  0.79210019  1
  Sm  Sm1_6  1  0.50000000  0.94184945  0.29210019  1
  Sm  Sm1_7  1  0.50000000  0.94184945  0.79210019  1
  Sm  Sm2_0  1  0.00000000  0.19184945  0.45789981  1
  Sm  Sm2_1  1  0.00000000  0.19184945  0.95789981  1
  Sm  Sm2_2  1  0.00000000  0.69184945  0.45789981  1
  Sm  Sm2_3  1  0.00000000  0.69184945  0.95789981  1
  Sm  Sm2_4  1  0.50000000  0.19184945  0.45789981  1
  Sm  Sm2_5  1  0.50000000  0.19184945  0.95789981  1
  Sm  Sm2_6  1  0.50000000  0.69184945  0.45789981  1
  Sm  Sm2_7  1  0.50000000  0.69184945  0.95789981  1
  Sm  Sm3_0  1  0.00000000  0.30815055  0.04210019  1
  Sm  Sm3_1  1  0.00000000  0.30815055  0.54210019  1
  Sm  Sm3_2  1  0.00000000  0.80815055  0.04210019  1
  Sm  Sm3_3  1  0.00000000  0.80815055  0.54210019  1
  Sm  Sm3_4  1  0.50000000  0.30815055  0.04210019  1
  Sm  Sm3_5  1  0.50000000  0.30815055  0.54210019  1
  Sm  Sm3_6  1  0.50000000  0.80815055  0.04210019  1
  Sm  Sm3_7  1  0.50000000  0.80815055  0.54210019  1
  Sm  Sm4_0  1  0.00000000  0.12110880  0.11052811  1
  Sm  Sm4_1  1  0.00000000  0.12110880  0.61052811  1
  Sm  Sm4_2  1  0.00000000  0.62110880  0.11052811  1
  Sm  Sm4_3  1  0.00000000  0.62110880  0.61052811  1
  Sm  Sm4_4  1  0.50000000  0.12110880  0.11052811  1
  Sm  Sm4_5  1  0.50000000  0.12110880  0.61052811  1
  Sm  Sm4_6  1  0.50000000  0.62110880  0.11052811  1
  Sm  Sm4_7  1  0.50000000  0.62110880  0.61052811  1
  Sm  Sm5_0  1  0.00000000  0.37889120  0.38947190  1
  Sm  Sm5_1  1  0.00000000  0.37889120  0.88947190  1
  Sm  Sm5_2  1  0.00000000  0.87889120  0.38947190  1
  Sm  Sm5_3  1  0.00000000  0.87889120  0.88947190  1
  Sm  Sm5_4  1  0.50000000  0.37889120  0.38947190  1
  Sm  Sm5_5  1  0.50000000  0.37889120  0.88947190  1
  Sm  Sm5_6  1  0.50000000  0.87889120  0.38947190  1
  Sm  Sm5_7  1  0.50000000  0.87889120  0.88947190  1
  Sm  Sm6_0  1  0.00000000  0.12889120  0.36052810  1
  Sm  Sm6_1  1  0.00000000  0.12889120  0.86052810  1
  Sm  Sm6_2  1  0.00000000  0.62889120  0.36052810  1
  Sm  Sm6_3  1  0.00000000  0.62889120  0.86052810  1
  Sm  Sm6_4  1  0.50000000  0.12889120  0.36052810  1
  Sm  Sm6_5  1  0.50000000  0.12889120  0.86052810  1
  Sm  Sm6_6  1  0.50000000  0.62889120  0.36052810  1
  Sm  Sm6_7  1  0.50000000  0.62889120  0.86052810  1
  Sm  Sm7_0  1  0.00000000  0.37110880  0.13947190  1
  Sm  Sm7_1  1  0.00000000  0.37110880  0.63947190  1
  Sm  Sm7_2  1  0.00000000  0.87110880  0.13947190  1
  Sm  Sm7_3  1  0.00000000  0.87110880  0.63947190  1
  Sm  Sm7_4  1  0.50000000  0.37110880  0.13947190  1
  Sm  Sm7_5  1  0.50000000  0.37110880  0.63947190  1
  Sm  Sm7_6  1  0.50000000  0.87110880  0.13947190  1
  Sm  Sm7_7  1  0.50000000  0.87110880  0.63947190  1
  Sm  Sm8_0  1  0.00000000  0.00000000  0.00000000  1
  Sm  Sm8_1  1  0.00000000  0.00000000  0.50000000  1
  Sm  Sm8_2  1  0.00000000  0.50000000  0.00000000  1
  Sm  Sm8_3  1  0.00000000  0.50000000  0.50000000  1
  Sm  Sm8_4  1  0.50000000  0.00000000  0.00000000  1
  Sm  Sm8_5  1  0.50000000  0.00000000  0.50000000  1
  Sm  Sm8_6  1  0.50000000  0.50000000  0.00000000  1
  Sm  Sm8_7  1  0.50000000  0.50000000  0.50000000  1
  Sm  Sm9_0  1  0.00000000  0.25000000  0.25000000  1
  Sm  Sm9_1  1  0.00000000  0.25000000  0.75000000  1
  Sm  Sm9_2  1  0.00000000  0.75000000  0.25000000  1
  Sm  Sm9_3  1  0.00000000  0.75000000  0.75000000  1
  Sm  Sm9_4  1  0.50000000  0.25000000  0.25000000  1
  Sm  Sm9_5  1  0.50000000  0.25000000  0.75000000  1
  Sm  Sm9_6  1  0.50000000  0.75000000  0.25000000  1
  Sm  Sm9_7  1  0.50000000  0.75000000  0.75000000  1
  In  In0_0  1  0.25000000  0.21365280  0.17538002  1
  In  In0_1  1  0.25000000  0.21365280  0.67538003  1
  In  In0_2  1  0.25000000  0.71365280  0.17538002  1
  In  In0_3  1  0.25000000  0.71365280  0.67538003  1
  In  In0_4  1  0.75000000  0.21365280  0.17538002  1
  In  In0_5  1  0.75000000  0.21365280  0.67538003  1
  In  In0_6  1  0.75000000  0.71365280  0.17538002  1
  In  In0_7  1  0.75000000  0.71365280  0.67538003  1
  In  In1_0  1  0.25000000  0.28634720  0.32461998  1
  In  In1_1  1  0.25000000  0.28634720  0.82461998  1
  In  In1_2  1  0.25000000  0.78634720  0.32461998  1
  In  In1_3  1  0.25000000  0.78634720  0.82461998  1
  In  In1_4  1  0.75000000  0.28634720  0.32461998  1
  In  In1_5  1  0.75000000  0.28634720  0.82461998  1
  In  In1_6  1  0.75000000  0.78634720  0.32461998  1
  In  In1_7  1  0.75000000  0.78634720  0.82461998  1
  In  In2_0  1  0.25000000  0.03634720  0.42538003  1
  In  In2_1  1  0.25000000  0.03634720  0.92538003  1
  In  In2_2  1  0.25000000  0.53634720  0.42538003  1
  In  In2_3  1  0.25000000  0.53634720  0.92538003  1
  In  In2_4  1  0.75000000  0.03634720  0.42538003  1
  In  In2_5  1  0.75000000  0.03634720  0.92538003  1
  In  In2_6  1  0.75000000  0.53634720  0.42538003  1
  In  In2_7  1  0.75000000  0.53634720  0.92538003  1
  In  In3_0  1  0.25000000  0.46365280  0.07461998  1
  In  In3_1  1  0.25000000  0.46365280  0.57461998  1
  In  In3_2  1  0.25000000  0.96365280  0.07461998  1
  In  In3_3  1  0.25000000  0.96365280  0.57461998  1
  In  In3_4  1  0.75000000  0.46365280  0.07461998  1
  In  In3_5  1  0.75000000  0.46365280  0.57461998  1
  In  In3_6  1  0.75000000  0.96365280  0.07461998  1
  In  In3_7  1  0.75000000  0.96365280  0.57461998  1
  In  In4_0  1  0.25000000  0.14469338  0.03477888  1
  In  In4_1  1  0.25000000  0.14469338  0.53477887  1
  In  In4_2  1  0.25000000  0.64469338  0.03477888  1
  In  In4_3  1  0.25000000  0.64469338  0.53477887  1
  In  In4_4  1  0.75000000  0.14469338  0.03477888  1
  In  In4_5  1  0.75000000  0.14469338  0.53477887  1
  In  In4_6  1  0.75000000  0.64469338  0.03477888  1
  In  In4_7  1  0.75000000  0.64469338  0.53477887  1
  In  In5_0  1  0.25000000  0.35530662  0.46522113  1
  In  In5_1  1  0.25000000  0.35530662  0.96522113  1
  In  In5_2  1  0.25000000  0.85530662  0.46522113  1
  In  In5_3  1  0.25000000  0.85530662  0.96522113  1
  In  In5_4  1  0.75000000  0.35530662  0.46522113  1
  In  In5_5  1  0.75000000  0.35530662  0.96522113  1
  In  In5_6  1  0.75000000  0.85530662  0.46522113  1
  In  In5_7  1  0.75000000  0.85530662  0.96522113  1
  In  In6_0  1  0.25000000  0.10530662  0.28477888  1
  In  In6_1  1  0.25000000  0.10530662  0.78477887  1
  In  In6_2  1  0.25000000  0.60530662  0.28477888  1
  In  In6_3  1  0.25000000  0.60530662  0.78477887  1
  In  In6_4  1  0.75000000  0.10530662  0.28477888  1
  In  In6_5  1  0.75000000  0.10530662  0.78477887  1
  In  In6_6  1  0.75000000  0.60530662  0.28477888  1
  In  In6_7  1  0.75000000  0.60530662  0.78477887  1
  In  In7_0  1  0.25000000  0.39469338  0.21522113  1
  In  In7_1  1  0.25000000  0.39469338  0.71522113  1
  In  In7_2  1  0.25000000  0.89469338  0.21522113  1
  In  In7_3  1  0.25000000  0.89469338  0.71522113  1
  In  In7_4  1  0.75000000  0.39469338  0.21522113  1
  In  In7_5  1  0.75000000  0.39469338  0.71522113  1
  In  In7_6  1  0.75000000  0.89469338  0.21522113  1
  In  In7_7  1  0.75000000  0.89469338  0.71522113  1
  Pt  Pt0_0  1  0.25000000  0.01146164  0.15195544  1
  Pt  Pt0_1  1  0.25000000  0.01146164  0.65195544  1
  Pt  Pt0_2  1  0.25000000  0.51146163  0.15195544  1
  Pt  Pt0_3  1  0.25000000  0.51146163  0.65195544  1
  Pt  Pt0_4  1  0.75000000  0.01146164  0.15195544  1
  Pt  Pt0_5  1  0.75000000  0.01146164  0.65195544  1
  Pt  Pt0_6  1  0.75000000  0.51146163  0.15195544  1
  Pt  Pt0_7  1  0.75000000  0.51146163  0.65195544  1
  Pt  Pt1_0  1  0.25000000  0.48853837  0.34804457  1
  Pt  Pt1_1  1  0.25000000  0.48853837  0.84804457  1
  Pt  Pt1_2  1  0.25000000  0.98853837  0.34804457  1
  Pt  Pt1_3  1  0.25000000  0.98853837  0.84804457  1
  Pt  Pt1_4  1  0.75000000  0.48853837  0.34804457  1
  Pt  Pt1_5  1  0.75000000  0.48853837  0.84804457  1
  Pt  Pt1_6  1  0.75000000  0.98853837  0.34804457  1
  Pt  Pt1_7  1  0.75000000  0.98853837  0.84804457  1
  Pt  Pt2_0  1  0.25000000  0.23853837  0.40195544  1
  Pt  Pt2_1  1  0.25000000  0.23853837  0.90195544  1
  Pt  Pt2_2  1  0.25000000  0.73853837  0.40195544  1
  Pt  Pt2_3  1  0.25000000  0.73853837  0.90195544  1
  Pt  Pt2_4  1  0.75000000  0.23853837  0.40195544  1
  Pt  Pt2_5  1  0.75000000  0.23853837  0.90195544  1
  Pt  Pt2_6  1  0.75000000  0.73853837  0.40195544  1
  Pt  Pt2_7  1  0.75000000  0.73853837  0.90195544  1
  Pt  Pt3_0  1  0.25000000  0.26146164  0.09804457  1
  Pt  Pt3_1  1  0.25000000  0.26146164  0.59804457  1
  Pt  Pt3_2  1  0.25000000  0.76146164  0.09804457  1
  Pt  Pt3_3  1  0.25000000  0.76146164  0.59804457  1
  Pt  Pt3_4  1  0.75000000  0.26146164  0.09804457  1
  Pt  Pt3_5  1  0.75000000  0.26146164  0.59804457  1
  Pt  Pt3_6  1  0.75000000  0.76146164  0.09804457  1
  Pt  Pt3_7  1  0.75000000  0.76146164  0.59804457  1
loop_
_geom_bond_atom_site_label_1
_geom_bond_atom_site_label_2
_geom_bond_distance
_geom_bond_site_symmetry_2
Sm0_0 Sm9_0 3.504886 1_555
Sm0_1 Sm9_1 3.504886 1_555
Sm0_2 Sm9_2 3.504886 1_555
Sm0_3 Sm9_3 3.504886 1_555
Sm0_4 Sm9_4 3.504886 1_555
Sm0_5 Sm9_5 3.504886 1_555
Sm0_6 Sm9_6 3.504886 1_555
Sm0_7 Sm9_7 3.504886 1_555
Sm1_0 Sm9_0 3.504886 1_555
Sm1_1 Sm9_1 3.504886 1_555
Sm1_2 Sm9_2 3.504886 1_555
Sm1_3 Sm9_3 3.504886 1_555
Sm1_4 Sm9_4 3.504886 1_555
Sm1_5 Sm9_5 3.504886 1_555
Sm1_6 Sm9_6 3.504886 1_555
Sm1_7 Sm9_7 3.504886 1_555
Sm2_0 Sm8_1 3.504886 1_555
Sm2_1 Sm8_0 3.504886 1_556
Sm2_2 Sm8_3 3.504886 1_555
Sm2_3 Sm8_2 3.504886 1_556
Sm2_4 Sm8_5 3.504886 1_555
Sm2_5 Sm8_4 3.504886 1_556
Sm2_6 Sm8_7 3.504886 1_555
Sm2_7 Sm8_6 3.504886 1_556
Sm3_0 Sm8_2 3.504886 1_555
Sm3_1 Sm8_3 3.504886 1_555
Sm3_2 Sm8_0 3.504886 1_565
Sm3_3 Sm8_1 3.504886 1_565
Sm3_4 Sm8_6 3.504886 1_555
Sm3_5 Sm8_7 3.504886 1_555
Sm3_6 Sm8_4 3.504886 1_565
Sm3_7 Sm8_5 3.504886 1_565
Sm8_0 Sm8_4 3.724081 1_455
Sm8_0 Sm8_4 3.724081 1_555
Sm8_1 Sm8_5 3.724081 1_455
Sm8_1 Sm8_5 3.724081 1_555
Sm8_2 Sm8_6 3.724081 1_455
Sm8_2 Sm8_6 3.724081 1_555
Sm8_3 Sm8_7 3.724081 1_455
Sm8_3 Sm8_7 3.724081 1_555
Sm9_0 Sm9_4 3.724081 1_555
Sm9_0 Sm9_4 3.724081 1_455
Sm9_1 Sm9_5 3.724081 1_455
Sm9_1 Sm9_5 3.724081 1_555
Sm9_2 Sm9_6 3.724081 1_455
Sm9_2 Sm9_6 3.724081 1_555
Sm9_3 Sm9_7 3.724081 1_555
Sm9_3 Sm9_7 3.724081 1_455
In0_0 Pt3_0 2.963141 1_555
In0_0 In7_0 3.309273 1_555
In0_0 Sm0_0 3.375157 1_555
In0_0 Sm0_4 3.375157 1_555
In0_0 Sm9_0 3.380146 1_555
In0_0 Sm9_4 3.380146 1_555
In0_0 Sm4_4 3.392049 1_555
In0_0 Sm4_0 3.392049 1_555
In0_0 Pt0_0 3.421277 1_555
In0_0 Sm7_4 3.445603 1_555
In0_0 Sm7_0 3.445603 1_555
In0_1 Pt3_1 2.963141 1_555
In0_1 In7_1 3.309273 1_555
In0_1 Sm0_1 3.375157 1_555
In0_1 Sm0_5 3.375157 1_555
In0_1 Sm9_1 3.380146 1_555
In0_1 Sm9_5 3.380146 1_555
In0_1 Sm4_5 3.392049 1_555
In0_1 Sm4_1 3.392049 1_555
In0_1 Pt0_1 3.421277 1_555
In0_1 Sm7_1 3.445603 1_555
In0_1 Sm7_5 3.445603 1_555
In0_2 Pt3_2 2.963141 1_555
In0_2 In7_2 3.309273 1_555
In0_2 Sm0_2 3.375157 1_555
In0_2 Sm0_6 3.375157 1_555
In0_2 Sm9_6 3.380146 1_555
In0_2 Sm9_2 3.380146 1_555
In0_2 Sm4_2 3.392049 1_555
In0_2 Sm4_6 3.392049 1_555
In0_2 Pt0_2 3.421277 1_555
In0_2 Sm7_2 3.445603 1_555
In0_2 Sm7_6 3.445603 1_555
In0_3 Pt3_3 2.963141 1_555
In0_3 In7_3 3.309273 1_555
In0_3 Sm0_3 3.375157 1_555
In0_3 Sm0_7 3.375157 1_555
In0_3 Sm9_3 3.380146 1_555
In0_3 Sm9_7 3.380146 1_555
In0_3 Sm4_3 3.392049 1_555
In0_3 Sm4_7 3.392049 1_555
In0_3 Pt0_3 3.421277 1_555
In0_3 Sm7_3 3.445603 1_555
In0_3 Sm7_7 3.445603 1_555
In0_4 Pt3_4 2.963141 1_555
In0_4 In7_4 3.309273 1_555
In0_4 Sm0_4 3.375157 1_555
In0_4 Sm0_0 3.375157 1_655
In0_4 Sm9_0 3.380146 1_655
In0_4 Sm9_4 3.380146 1_555
In0_4 Sm4_0 3.392049 1_655
In0_4 Sm4_4 3.392049 1_555
In0_4 Pt0_4 3.421277 1_555
In0_4 Sm7_0 3.445603 1_655
In0_4 Sm7_4 3.445603 1_555
In0_5 Pt3_5 2.963141 1_555
In0_5 In7_5 3.309273 1_555
In0_5 Sm0_1 3.375157 1_655
In0_5 Sm0_5 3.375157 1_555
In0_5 Sm9_1 3.380146 1_655
In0_5 Sm9_5 3.380146 1_555
In0_5 Sm4_5 3.392049 1_555
In0_5 Sm4_1 3.392049 1_655
In0_5 Pt0_5 3.421277 1_555
In0_5 Sm7_1 3.445603 1_655
In0_5 Sm7_5 3.445603 1_555
In0_6 Pt3_6 2.963141 1_555
In0_6 In7_6 3.309273 1_555
In0_6 Sm0_2 3.375157 1_655
In0_6 Sm0_6 3.375157 1_555
In0_6 Sm9_6 3.380146 1_555
In0_6 Sm9_2 3.380146 1_655
In0_6 Sm4_6 3.392049 1_555
In0_6 Sm4_2 3.392049 1_655
In0_6 Pt0_6 3.421277 1_555
In0_6 Sm7_2 3.445603 1_655
In0_6 Sm7_6 3.445603 1_555
In0_7 Pt3_7 2.963141 1_555
In0_7 In7_7 3.309273 1_555
In0_7 Sm0_3 3.375157 1_655
In0_7 Sm0_7 3.375157 1_555
In0_7 Sm9_3 3.380146 1_655
In0_7 Sm9_7 3.380146 1_555
In0_7 Sm4_3 3.392049 1_655
In0_7 Sm4_7 3.392049 1_555
In0_7 Pt0_7 3.421277 1_555
In0_7 Sm7_3 3.445603 1_655
In0_7 Sm7_7 3.445603 1_555
In1_0 Pt2_0 2.963141 1_555
In1_0 In6_0 3.309273 1_555
In1_0 Sm1_0 3.375157 1_555
In1_0 Sm1_4 3.375157 1_555
In1_0 Sm9_0 3.380146 1_555
In1_0 Sm9_4 3.380146 1_555
In1_0 Sm5_4 3.392049 1_555
In1_0 Sm5_0 3.392049 1_555
In1_0 Pt1_0 3.421277 1_555
In1_0 Sm6_0 3.445603 1_555
In1_0 Sm6_4 3.445603 1_555
In1_1 Pt2_1 2.963141 1_555
In1_1 In6_1 3.309273 1_555
In1_1 Sm1_1 3.375157 1_555
In1_1 Sm1_5 3.375157 1_555
In1_1 Sm9_1 3.380146 1_555
In1_1 Sm9_5 3.380146 1_555
In1_1 Sm5_1 3.392049 1_555
In1_1 Sm5_5 3.392049 1_555
In1_1 Pt1_1 3.421277 1_555
In1_1 Sm6_1 3.445603 1_555
In1_1 Sm6_5 3.445603 1_555
In1_2 Pt2_2 2.963141 1_555
In1_2 In6_2 3.309273 1_555
In1_2 Sm1_2 3.375157 1_555
In1_2 Sm1_6 3.375157 1_555
In1_2 Sm9_2 3.380146 1_555
In1_2 Sm9_6 3.380146 1_555
In1_2 Sm5_2 3.392049 1_555
In1_2 Sm5_6 3.392049 1_555
In1_2 Pt1_2 3.421277 1_555
In1_2 Sm6_2 3.445603 1_555
In1_2 Sm6_6 3.445603 1_555
In1_3 Pt2_3 2.963141 1_555
In1_3 In6_3 3.309273 1_555
In1_3 Sm1_3 3.375157 1_555
In1_3 Sm1_7 3.375157 1_555
In1_3 Sm9_7 3.380146 1_555
In1_3 Sm9_3 3.380146 1_555
In1_3 Sm5_3 3.392049 1_555
In1_3 Sm5_7 3.392049 1_555
In1_3 Pt1_3 3.421277 1_555
In1_3 Sm6_7 3.445603 1_555
In1_3 Sm6_3 3.445603 1_555
In1_4 Pt2_4 2.963141 1_555
In1_4 In6_4 3.309273 1_555
In1_4 Sm1_4 3.375157 1_555
In1_4 Sm1_0 3.375157 1_655
In1_4 Sm9_4 3.380146 1_555
In1_4 Sm9_0 3.380146 1_655
In1_4 Sm5_0 3.392049 1_655
In1_4 Sm5_4 3.392049 1_555
In1_4 Pt1_4 3.421277 1_555
In1_4 Sm6_0 3.445603 1_655
In1_4 Sm6_4 3.445603 1_555
In1_5 Pt2_5 2.963141 1_555
In1_5 In6_5 3.309273 1_555
In1_5 Sm1_1 3.375157 1_655
In1_5 Sm1_5 3.375157 1_555
In1_5 Sm9_1 3.380146 1_655
In1_5 Sm9_5 3.380146 1_555
In1_5 Sm5_1 3.392049 1_655
In1_5 Sm5_5 3.392049 1_555
In1_5 Pt1_5 3.421277 1_555
In1_5 Sm6_1 3.445603 1_655
In1_5 Sm6_5 3.445603 1_555
In1_6 Pt2_6 2.963141 1_555
In1_6 In6_6 3.309273 1_555
In1_6 Sm1_2 3.375157 1_655
In1_6 Sm1_6 3.375157 1_555
In1_6 Sm9_2 3.380146 1_655
In1_6 Sm9_6 3.380146 1_555
In1_6 Sm5_2 3.392049 1_655
In1_6 Sm5_6 3.392049 1_555
In1_6 Pt1_6 3.421277 1_555
In1_6 Sm6_6 3.445603 1_555
In1_6 Sm6_2 3.445603 1_655
In1_7 Pt2_7 2.963141 1_555
In1_7 In6_7 3.309273 1_555
In1_7 Sm1_3 3.375157 1_655
In1_7 Sm1_7 3.375157 1_555
In1_7 Sm9_3 3.380146 1_655
In1_7 Sm9_7 3.380146 1_555
In1_7 Sm5_7 3.392049 1_555
In1_7 Sm5_3 3.392049 1_655
In1_7 Pt1_7 3.421277 1_555
In1_7 Sm6_3 3.445603 1_655
In1_7 Sm6_7 3.445603 1_555
In2_0 Pt1_2 2.963141 1_545
In2_0 In5_2 3.309273 1_545
In2_0 Sm2_4 3.375157 1_555
In2_0 Sm2_0 3.375157 1_555
In2_0 Sm8_1 3.380146 1_555
In2_0 Sm8_5 3.380146 1_555
In2_0 Sm6_0 3.392049 1_555
In2_0 Sm6_4 3.392049 1_555
In2_0 Pt2_0 3.421277 1_555
In2_0 Sm5_2 3.445603 1_545
In2_0 Sm5_6 3.445603 1_545
In2_1 Pt1_3 2.963141 1_545
In2_1 In5_3 3.309273 1_545
In2_1 Sm2_5 3.375157 1_555
In2_1 Sm2_1 3.375157 1_555
In2_1 Sm8_0 3.380146 1_556
In2_1 Sm8_4 3.380146 1_556
In2_1 Sm6_5 3.392049 1_555
In2_1 Sm6_1 3.392049 1_555
In2_1 Pt2_1 3.421277 1_555
In2_1 Sm5_3 3.445603 1_545
In2_1 Sm5_7 3.445603 1_545
In2_2 Pt1_0 2.963141 1_555
In2_2 In5_0 3.309273 1_555
In2_2 Sm2_2 3.375157 1_555
In2_2 Sm2_6 3.375157 1_555
In2_2 Sm8_3 3.380146 1_555
In2_2 Sm8_7 3.380146 1_555
In2_2 Sm6_2 3.392049 1_555
In2_2 Sm6_6 3.392049 1_555
In2_2 Pt2_2 3.421277 1_555
In2_2 Sm5_0 3.445603 1_555
In2_2 Sm5_4 3.445603 1_555
In2_3 Pt1_1 2.963141 1_555
In2_3 In5_1 3.309273 1_555
In2_3 Sm2_3 3.375157 1_555
In2_3 Sm2_7 3.375157 1_555
In2_3 Sm8_6 3.380146 1_556
In2_3 Sm8_2 3.380146 1_556
In2_3 Sm6_3 3.392049 1_555
In2_3 Sm6_7 3.392049 1_555
In2_3 Pt2_3 3.421277 1_555
In2_3 Sm5_1 3.445603 1_555
In2_3 Sm5_5 3.445603 1_555
In2_4 Pt1_6 2.963141 1_545
In2_4 In5_6 3.309273 1_545
In2_4 Sm2_4 3.375157 1_555
In2_4 Sm2_0 3.375157 1_655
In2_4 Sm8_1 3.380146 1_655
In2_4 Sm8_5 3.380146 1_555
In2_4 Sm6_0 3.392049 1_655
In2_4 Sm6_4 3.392049 1_555
In2_4 Pt2_4 3.421277 1_555
In2_4 Sm5_2 3.445603 1_645
In2_4 Sm5_6 3.445603 1_545
In2_5 Pt1_7 2.963141 1_545
In2_5 In5_7 3.309273 1_545
In2_5 Sm2_5 3.375157 1_555
In2_5 Sm2_1 3.375157 1_655
In2_5 Sm8_0 3.380146 1_656
In2_5 Sm8_4 3.380146 1_556
In2_5 Sm6_1 3.392049 1_655
In2_5 Sm6_5 3.392049 1_555
In2_5 Pt2_5 3.421277 1_555
In2_5 Sm5_3 3.445603 1_645
In2_5 Sm5_7 3.445603 1_545
In2_6 Pt1_4 2.963141 1_555
In2_6 In5_4 3.309273 1_555
In2_6 Sm2_2 3.375157 1_655
In2_6 Sm2_6 3.375157 1_555
In2_6 Sm8_3 3.380146 1_655
In2_6 Sm8_7 3.380146 1_555
In2_6 Sm6_2 3.392049 1_655
In2_6 Sm6_6 3.392049 1_555
In2_6 Pt2_6 3.421277 1_555
In2_6 Sm5_0 3.445603 1_655
In2_6 Sm5_4 3.445603 1_555
In2_7 Pt1_5 2.963141 1_555
In2_7 In5_5 3.309273 1_555
In2_7 Sm2_3 3.375157 1_655
In2_7 Sm2_7 3.375157 1_555
In2_7 Sm8_2 3.380146 1_656
In2_7 Sm8_6 3.380146 1_556
In2_7 Sm6_3 3.392049 1_655
In2_7 Sm6_7 3.392049 1_555
In2_7 Pt2_7 3.421277 1_555
In2_7 Sm5_1 3.445603 1_655
In2_7 Sm5_5 3.445603 1_555
In3_0 Pt0_2 2.963141 1_555
In3_0 In4_2 3.309273 1_555
In3_0 Sm3_0 3.375157 1_555
In3_0 Sm3_4 3.375157 1_555
In3_0 Sm8_2 3.380146 1_555
In3_0 Sm8_6 3.380146 1_555
In3_0 Sm7_4 3.392049 1_555
In3_0 Sm7_0 3.392049 1_555
In3_0 Pt3_0 3.421277 1_555
In3_0 Sm4_2 3.445603 1_555
In3_0 Sm4_6 3.445603 1_555
In3_1 Pt0_3 2.963141 1_555
In3_1 In4_3 3.309273 1_555
In3_1 Sm3_1 3.375157 1_555
In3_1 Sm3_5 3.375157 1_555
In3_1 Sm8_3 3.380146 1_555
In3_1 Sm8_7 3.380146 1_555
In3_1 Sm7_1 3.392049 1_555
In3_1 Sm7_5 3.392049 1_555
In3_1 Pt3_1 3.421277 1_555
In3_1 Sm4_3 3.445603 1_555
In3_1 Sm4_7 3.445603 1_555
In3_2 Pt0_0 2.963141 1_565
In3_2 In4_0 3.309273 1_565
In3_2 Sm3_2 3.375157 1_555
In3_2 Sm3_6 3.375157 1_555
In3_2 Sm8_0 3.380146 1_565
In3_2 Sm8_4 3.380146 1_565
In3_2 Sm7_2 3.392049 1_555
In3_2 Sm7_6 3.392049 1_555
In3_2 Pt3_2 3.421277 1_555
In3_2 Sm4_4 3.445603 1_565
In3_2 Sm4_0 3.445603 1_565
In3_3 Pt0_1 2.963141 1_565
In3_3 In4_1 3.309273 1_565
In3_3 Sm3_3 3.375157 1_555
In3_3 Sm3_7 3.375157 1_555
In3_3 Sm8_1 3.380146 1_565
In3_3 Sm8_5 3.380146 1_565
In3_3 Sm7_3 3.392049 1_555
In3_3 Sm7_7 3.392049 1_555
In3_3 Pt3_3 3.421277 1_555
In3_3 Sm4_1 3.445603 1_565
In3_3 Sm4_5 3.445603 1_565
In3_4 Pt0_6 2.963141 1_555
In3_4 In4_6 3.309273 1_555
In3_4 Sm3_0 3.375157 1_655
In3_4 Sm3_4 3.375157 1_555
In3_4 Sm8_6 3.380146 1_555
In3_4 Sm8_2 3.380146 1_655
In3_4 Sm7_0 3.392049 1_655
In3_4 Sm7_4 3.392049 1_555
In3_4 Pt3_4 3.421277 1_555
In3_4 Sm4_6 3.445603 1_555
In3_4 Sm4_2 3.445603 1_655
In3_5 Pt0_7 2.963141 1_555
In3_5 In4_7 3.309273 1_555
In3_5 Sm3_1 3.375157 1_655
In3_5 Sm3_5 3.375157 1_555
In3_5 Sm8_3 3.380146 1_655
In3_5 Sm8_7 3.380146 1_555
In3_5 Sm7_1 3.392049 1_655
In3_5 Sm7_5 3.392049 1_555
In3_5 Pt3_5 3.421277 1_555
In3_5 Sm4_3 3.445603 1_655
In3_5 Sm4_7 3.445603 1_555
In3_6 Pt0_4 2.963141 1_565
In3_6 In4_4 3.309273 1_565
In3_6 Sm3_2 3.375157 1_655
In3_6 Sm3_6 3.375157 1_555
In3_6 Sm8_4 3.380146 1_565
In3_6 Sm8_0 3.380146 1_665
In3_6 Sm7_2 3.392049 1_655
In3_6 Sm7_6 3.392049 1_555
In3_6 Pt3_6 3.421277 1_555
In3_6 Sm4_0 3.445603 1_665
In3_6 Sm4_4 3.445603 1_565
In3_7 Pt0_5 2.963141 1_565
In3_7 In4_5 3.309273 1_565
In3_7 Sm3_3 3.375157 1_655
In3_7 Sm3_7 3.375157 1_555
In3_7 Sm8_1 3.380146 1_665
In3_7 Sm8_5 3.380146 1_565
In3_7 Sm7_3 3.392049 1_655
In3_7 Sm7_7 3.392049 1_555
In3_7 Pt3_7 3.421277 1_555
In3_7 Sm4_1 3.445603 1_665
In3_7 Sm4_5 3.445603 1_565
In4_0 Pt3_0 3.019949 1_555
In4_0 Sm3_4 3.271182 1_555
In4_0 Sm3_0 3.271182 1_555
In4_0 Sm8_4 3.275628 1_555
In4_0 Sm8_0 3.275628 1_555
In4_0 Sm4_0 3.384125 1_555
In4_0 Sm4_4 3.384125 1_555
In4_0 Sm2_1 3.483485 1_554
In4_0 Sm2_5 3.483485 1_554
In4_1 Pt3_1 3.019949 1_555
In4_1 Sm3_1 3.271182 1_555
In4_1 Sm3_5 3.271182 1_555
In4_1 Sm8_5 3.275628 1_555
In4_1 Sm8_1 3.275628 1_555
In4_1 Sm4_1 3.384125 1_555
In4_1 Sm4_5 3.384125 1_555
In4_1 Sm2_0 3.483485 1_555
In4_1 Sm2_4 3.483485 1_555
In4_2 Pt3_2 3.019949 1_555
In4_2 Sm3_2 3.271182 1_555
In4_2 Sm3_6 3.271182 1_555
In4_2 Sm8_6 3.275628 1_555
In4_2 Sm8_2 3.275628 1_555
In4_2 Sm4_2 3.384125 1_555
In4_2 Sm4_6 3.384125 1_555
In4_2 Sm2_7 3.483485 1_554
In4_2 Sm2_3 3.483485 1_554
In4_3 Pt3_3 3.019949 1_555
In4_3 Sm3_3 3.271182 1_555
In4_3 Sm3_7 3.271182 1_555
In4_3 Sm8_3 3.275628 1_555
In4_3 Sm8_7 3.275628 1_555
In4_3 Sm4_3 3.384125 1_555
In4_3 Sm4_7 3.384125 1_555
In4_3 Sm2_2 3.483485 1_555
In4_3 Sm2_6 3.483485 1_555
In4_4 Pt3_4 3.019949 1_555
In4_4 Sm3_4 3.271182 1_555
In4_4 Sm3_0 3.271182 1_655
In4_4 Sm8_4 3.275628 1_555
In4_4 Sm8_0 3.275628 1_655
In4_4 Sm4_0 3.384125 1_655
In4_4 Sm4_4 3.384125 1_555
In4_4 Sm2_1 3.483485 1_654
In4_4 Sm2_5 3.483485 1_554
In4_5 Pt3_5 3.019949 1_555
In4_5 Sm3_1 3.271182 1_655
In4_5 Sm3_5 3.271182 1_555
In4_5 Sm8_1 3.275628 1_655
In4_5 Sm8_5 3.275628 1_555
In4_5 Sm4_1 3.384125 1_655
In4_5 Sm4_5 3.384125 1_555
In4_5 Sm2_0 3.483485 1_655
In4_5 Sm2_4 3.483485 1_555
In4_6 Pt3_6 3.019949 1_555
In4_6 Sm3_6 3.271182 1_555
In4_6 Sm3_2 3.271182 1_655
In4_6 Sm8_2 3.275628 1_655
In4_6 Sm8_6 3.275628 1_555
In4_6 Sm4_2 3.384125 1_655
In4_6 Sm4_6 3.384125 1_555
In4_6 Sm2_7 3.483485 1_554
In4_6 Sm2_3 3.483485 1_654
In4_7 Pt3_7 3.019949 1_555
In4_7 Sm3_3 3.271182 1_655
In4_7 Sm3_7 3.271182 1_555
In4_7 Sm8_7 3.275628 1_555
In4_7 Sm8_3 3.275628 1_655
In4_7 Sm4_3 3.384125 1_655
In4_7 Sm4_7 3.384125 1_555
In4_7 Sm2_2 3.483485 1_655
In4_7 Sm2_6 3.483485 1_555
In5_0 Pt2_0 3.019949 1_555
In5_0 Sm2_0 3.271182 1_555
In5_0 Sm2_4 3.271182 1_555
In5_0 Sm8_7 3.275628 1_555
In5_0 Sm8_3 3.275628 1_555
In5_0 Sm5_4 3.384125 1_555
In5_0 Sm5_0 3.384125 1_555
In5_0 Sm3_1 3.483485 1_555
In5_0 Sm3_5 3.483485 1_555
In5_1 Pt2_1 3.019949 1_555
In5_1 Sm2_1 3.271182 1_555
In5_1 Sm2_5 3.271182 1_555
In5_1 Sm8_6 3.275628 1_556
In5_1 Sm8_2 3.275628 1_556
In5_1 Sm5_1 3.384125 1_555
In5_1 Sm5_5 3.384125 1_555
In5_1 Sm3_4 3.483485 1_556
In5_1 Sm3_0 3.483485 1_556
In5_2 Pt2_2 3.019949 1_555
In5_2 Sm2_2 3.271182 1_555
In5_2 Sm2_6 3.271182 1_555
In5_2 Sm8_1 3.275628 1_565
In5_2 Sm8_5 3.275628 1_565
In5_2 Sm5_2 3.384125 1_555
In5_2 Sm5_6 3.384125 1_555
In5_2 Sm3_3 3.483485 1_555
In5_2 Sm3_7 3.483485 1_555
In5_3 Pt2_3 3.019949 1_555
In5_3 Sm2_3 3.271182 1_555
In5_3 Sm2_7 3.271182 1_555
In5_3 Sm8_0 3.275628 1_566
In5_3 Sm8_4 3.275628 1_566
In5_3 Sm5_3 3.384125 1_555
In5_3 Sm5_7 3.384125 1_555
In5_3 Sm3_2 3.483485 1_556
In5_3 Sm3_6 3.483485 1_556
In5_4 Pt2_4 3.019949 1_555
In5_4 Sm2_0 3.271182 1_655
In5_4 Sm2_4 3.271182 1_555
In5_4 Sm8_7 3.275628 1_555
In5_4 Sm8_3 3.275628 1_655
In5_4 Sm5_0 3.384125 1_655
In5_4 Sm5_4 3.384125 1_555
In5_4 Sm3_1 3.483485 1_655
In5_4 Sm3_5 3.483485 1_555
In5_5 Pt2_5 3.019949 1_555
In5_5 Sm2_5 3.271182 1_555
In5_5 Sm2_1 3.271182 1_655
In5_5 Sm8_6 3.275628 1_556
In5_5 Sm8_2 3.275628 1_656
In5_5 Sm5_5 3.384125 1_555
In5_5 Sm5_1 3.384125 1_655
In5_5 Sm3_4 3.483485 1_556
In5_5 Sm3_0 3.483485 1_656
In5_6 Pt2_6 3.019949 1_555
In5_6 Sm2_2 3.271182 1_655
In5_6 Sm2_6 3.271182 1_555
In5_6 Sm8_1 3.275628 1_665
In5_6 Sm8_5 3.275628 1_565
In5_6 Sm5_2 3.384125 1_655
In5_6 Sm5_6 3.384125 1_555
In5_6 Sm3_3 3.483485 1_655
In5_6 Sm3_7 3.483485 1_555
In5_7 Pt2_7 3.019949 1_555
In5_7 Sm2_3 3.271182 1_655
In5_7 Sm2_7 3.271182 1_555
In5_7 Sm8_4 3.275628 1_566
In5_7 Sm8_0 3.275628 1_666
In5_7 Sm5_7 3.384125 1_555
In5_7 Sm5_3 3.384125 1_655
In5_7 Sm3_2 3.483485 1_656
In5_7 Sm3_6 3.483485 1_556
In6_0 Pt1_2 3.019949 1_545
In6_0 Sm1_2 3.271182 1_545
In6_0 Sm1_6 3.271182 1_545
In6_0 Sm9_0 3.275628 1_555
In6_0 Sm9_4 3.275628 1_555
In6_0 Sm6_0 3.384125 1_555
In6_0 Sm6_4 3.384125 1_555
In6_0 Sm0_0 3.483485 1_555
In6_0 Sm0_4 3.483485 1_555
In6_1 Pt1_3 3.019949 1_545
In6_1 Sm1_3 3.271182 1_545
In6_1 Sm1_7 3.271182 1_545
In6_1 Sm9_5 3.275628 1_555
In6_1 Sm9_1 3.275628 1_555
In6_1 Sm6_1 3.384125 1_555
In6_1 Sm6_5 3.384125 1_555
In6_1 Sm0_5 3.483485 1_555
In6_1 Sm0_1 3.483485 1_555
In6_2 Pt1_0 3.019949 1_555
In6_2 Sm1_0 3.271182 1_555
In6_2 Sm1_4 3.271182 1_555
In6_2 Sm9_2 3.275628 1_555
In6_2 Sm9_6 3.275628 1_555
In6_2 Sm6_6 3.384125 1_555
In6_2 Sm6_2 3.384125 1_555
In6_2 Sm0_2 3.483485 1_555
In6_2 Sm0_6 3.483485 1_555
In6_3 Pt1_1 3.019949 1_555
In6_3 Sm1_1 3.271182 1_555
In6_3 Sm1_5 3.271182 1_555
In6_3 Sm9_3 3.275628 1_555
In6_3 Sm9_7 3.275628 1_555
In6_3 Sm6_3 3.384125 1_555
In6_3 Sm6_7 3.384125 1_555
In6_3 Sm0_3 3.483485 1_555
In6_3 Sm0_7 3.483485 1_555
In6_4 Pt1_6 3.019949 1_545
In6_4 Sm1_2 3.271182 1_645
In6_4 Sm1_6 3.271182 1_545
In6_4 Sm9_0 3.275628 1_655
In6_4 Sm9_4 3.275628 1_555
In6_4 Sm6_4 3.384125 1_555
In6_4 Sm6_0 3.384125 1_655
In6_4 Sm0_4 3.483485 1_555
In6_4 Sm0_0 3.483485 1_655
In6_5 Pt1_7 3.019949 1_545
In6_5 Sm1_3 3.271182 1_645
In6_5 Sm1_7 3.271182 1_545
In6_5 Sm9_1 3.275628 1_655
In6_5 Sm9_5 3.275628 1_555
In6_5 Sm6_1 3.384125 1_655
In6_5 Sm6_5 3.384125 1_555
In6_5 Sm0_1 3.483485 1_655
In6_5 Sm0_5 3.483485 1_555
In6_6 Pt1_4 3.019949 1_555
In6_6 Sm1_4 3.271182 1_555
In6_6 Sm1_0 3.271182 1_655
In6_6 Sm9_6 3.275628 1_555
In6_6 Sm9_2 3.275628 1_655
In6_6 Sm6_6 3.384125 1_555
In6_6 Sm6_2 3.384125 1_655
In6_6 Sm0_2 3.483485 1_655
In6_6 Sm0_6 3.483485 1_555
In6_7 Pt1_5 3.019949 1_555
In6_7 Sm1_1 3.271182 1_655
In6_7 Sm1_5 3.271182 1_555
In6_7 Sm9_7 3.275628 1_555
In6_7 Sm9_3 3.275628 1_655
In6_7 Sm6_3 3.384125 1_655
In6_7 Sm6_7 3.384125 1_555
In6_7 Sm0_3 3.483485 1_655
In6_7 Sm0_7 3.483485 1_555
In7_0 Pt0_2 3.019949 1_555
In7_0 Sm0_6 3.271182 1_555
In7_0 Sm0_2 3.271182 1_555
In7_0 Sm9_0 3.275628 1_555
In7_0 Sm9_4 3.275628 1_555
In7_0 Sm7_0 3.384125 1_555
In7_0 Sm7_4 3.384125 1_555
In7_0 Sm1_4 3.483485 1_555
In7_0 Sm1_0 3.483485 1_555
In7_1 Pt0_3 3.019949 1_555
In7_1 Sm0_3 3.271182 1_555
In7_1 Sm0_7 3.271182 1_555
In7_1 Sm9_5 3.275628 1_555
In7_1 Sm9_1 3.275628 1_555
In7_1 Sm7_1 3.384125 1_555
In7_1 Sm7_5 3.384125 1_555
In7_1 Sm1_1 3.483485 1_555
In7_1 Sm1_5 3.483485 1_555
In7_2 Pt0_0 3.019949 1_565
In7_2 Sm0_0 3.271182 1_565
In7_2 Sm0_4 3.271182 1_565
In7_2 Sm9_2 3.275628 1_555
In7_2 Sm9_6 3.275628 1_555
In7_2 Sm7_2 3.384125 1_555
In7_2 Sm7_6 3.384125 1_555
In7_2 Sm1_2 3.483485 1_555
In7_2 Sm1_6 3.483485 1_555
In7_3 Pt0_1 3.019949 1_565
In7_3 Sm0_1 3.271182 1_565
In7_3 Sm0_5 3.271182 1_565
In7_3 Sm9_7 3.275628 1_555
In7_3 Sm9_3 3.275628 1_555
In7_3 Sm7_7 3.384125 1_555
In7_3 Sm7_3 3.384125 1_555
In7_3 Sm1_7 3.483485 1_555
In7_3 Sm1_3 3.483485 1_555
In7_4 Pt0_6 3.019949 1_555
In7_4 Sm0_6 3.271182 1_555
In7_4 Sm0_2 3.271182 1_655
In7_4 Sm9_4 3.275628 1_555
In7_4 Sm9_0 3.275628 1_655
In7_4 Sm7_0 3.384125 1_655
In7_4 Sm7_4 3.384125 1_555
In7_4 Sm1_4 3.483485 1_555
In7_4 Sm1_0 3.483485 1_655
In7_5 Pt0_7 3.019949 1_555
In7_5 Sm0_3 3.271182 1_655
In7_5 Sm0_7 3.271182 1_555
In7_5 Sm9_1 3.275628 1_655
In7_5 Sm9_5 3.275628 1_555
In7_5 Sm7_1 3.384125 1_655
In7_5 Sm7_5 3.384125 1_555
In7_5 Sm1_1 3.483485 1_655
In7_5 Sm1_5 3.483485 1_555
In7_6 Pt0_4 3.019949 1_565
In7_6 Sm0_0 3.271182 1_665
In7_6 Sm0_4 3.271182 1_565
In7_6 Sm9_6 3.275628 1_555
In7_6 Sm9_2 3.275628 1_655
In7_6 Sm7_2 3.384125 1_655
In7_6 Sm7_6 3.384125 1_555
In7_6 Sm1_2 3.483485 1_655
In7_6 Sm1_6 3.483485 1_555
In7_7 Pt0_5 3.019949 1_565
In7_7 Sm0_1 3.271182 1_665
In7_7 Sm0_5 3.271182 1_565
In7_7 Sm9_3 3.275628 1_655
In7_7 Sm9_7 3.275628 1_555
In7_7 Sm7_7 3.384125 1_555
In7_7 Sm7_3 3.384125 1_655
In7_7 Sm1_7 3.483485 1_555
In7_7 Sm1_3 3.483485 1_655
Pt0_0 Sm0_4 2.885404 1_555
Pt0_0 Sm0_0 2.885404 1_555
Pt0_0 Sm7_2 2.993182 1_545
Pt0_0 Sm7_6 2.993182 1_545
Pt0_0 Sm4_0 3.005474 1_555
Pt0_0 Sm4_4 3.005474 1_555
Pt0_1 Sm0_5 2.885404 1_555
Pt0_1 Sm0_1 2.885404 1_555
Pt0_1 Sm7_3 2.993182 1_545
Pt0_1 Sm7_7 2.993182 1_545
Pt0_1 Sm4_1 3.005474 1_555
Pt0_1 Sm4_5 3.005474 1_555
Pt0_2 Sm0_6 2.885404 1_555
Pt0_2 Sm0_2 2.885404 1_555
Pt0_2 Sm7_4 2.993182 1_555
Pt0_2 Sm7_0 2.993182 1_555
Pt0_2 Sm4_2 3.005474 1_555
Pt0_2 Sm4_6 3.005474 1_555
Pt0_3 Sm0_3 2.885404 1_555
Pt0_3 Sm0_7 2.885404 1_555
Pt0_3 Sm7_1 2.993182 1_555
Pt0_3 Sm7_5 2.993182 1_555
Pt0_3 Sm4_7 3.005474 1_555
Pt0_3 Sm4_3 3.005474 1_555
Pt0_4 Sm0_4 2.885404 1_555
Pt0_4 Sm0_0 2.885404 1_655
Pt0_4 Sm7_6 2.993182 1_545
Pt0_4 Sm7_2 2.993182 1_645
Pt0_4 Sm4_0 3.005474 1_655
Pt0_4 Sm4_4 3.005474 1_555
Pt0_5 Sm0_1 2.885404 1_655
Pt0_5 Sm0_5 2.885404 1_555
Pt0_5 Sm7_3 2.993182 1_645
Pt0_5 Sm7_7 2.993182 1_545
Pt0_5 Sm4_1 3.005474 1_655
Pt0_5 Sm4_5 3.005474 1_555
Pt0_6 Sm0_2 2.885404 1_655
Pt0_6 Sm0_6 2.885404 1_555
Pt0_6 Sm7_4 2.993182 1_555
Pt0_6 Sm7_0 2.993182 1_655
Pt0_6 Sm4_2 3.005474 1_655
Pt0_6 Sm4_6 3.005474 1_555
Pt0_7 Sm0_3 2.885404 1_655
Pt0_7 Sm0_7 2.885404 1_555
Pt0_7 Sm7_1 2.993182 1_655
Pt0_7 Sm7_5 2.993182 1_555
Pt0_7 Sm4_7 3.005474 1_555
Pt0_7 Sm4_3 3.005474 1_655
Pt1_0 Sm1_0 2.885404 1_555
Pt1_0 Sm1_4 2.885404 1_555
Pt1_0 Sm6_6 2.993182 1_555
Pt1_0 Sm6_2 2.993182 1_555
Pt1_0 Sm5_0 3.005474 1_555
Pt1_0 Sm5_4 3.005474 1_555
Pt1_1 Sm1_1 2.885404 1_555
Pt1_1 Sm1_5 2.885404 1_555
Pt1_1 Sm6_7 2.993182 1_555
Pt1_1 Sm6_3 2.993182 1_555
Pt1_1 Sm5_1 3.005474 1_555
Pt1_1 Sm5_5 3.005474 1_555
Pt1_2 Sm1_2 2.885404 1_555
Pt1_2 Sm1_6 2.885404 1_555
Pt1_2 Sm6_4 2.993182 1_565
Pt1_2 Sm6_0 2.993182 1_565
Pt1_2 Sm5_2 3.005474 1_555
Pt1_2 Sm5_6 3.005474 1_555
Pt1_3 Sm1_3 2.885404 1_555
Pt1_3 Sm1_7 2.885404 1_555
Pt1_3 Sm6_5 2.993182 1_565
Pt1_3 Sm6_1 2.993182 1_565
Pt1_3 Sm5_3 3.005474 1_555
Pt1_3 Sm5_7 3.005474 1_555
Pt1_4 Sm1_0 2.885404 1_655
Pt1_4 Sm1_4 2.885404 1_555
Pt1_4 Sm6_2 2.993182 1_655
Pt1_4 Sm6_6 2.993182 1_555
Pt1_4 Sm5_0 3.005474 1_655
Pt1_4 Sm5_4 3.005474 1_555
Pt1_5 Sm1_5 2.885404 1_555
Pt1_5 Sm1_1 2.885404 1_655
Pt1_5 Sm6_7 2.993182 1_555
Pt1_5 Sm6_3 2.993182 1_655
Pt1_5 Sm5_5 3.005474 1_555
Pt1_5 Sm5_1 3.005474 1_655
Pt1_6 Sm1_2 2.885404 1_655
Pt1_6 Sm1_6 2.885404 1_555
Pt1_6 Sm6_4 2.993182 1_565
Pt1_6 Sm6_0 2.993182 1_665
Pt1_6 Sm5_2 3.005474 1_655
Pt1_6 Sm5_6 3.005474 1_555
Pt1_7 Sm1_7 2.885404 1_555
Pt1_7 Sm1_3 2.885404 1_655
Pt1_7 Sm6_5 2.993182 1_565
Pt1_7 Sm6_1 2.993182 1_665
Pt1_7 Sm5_3 3.005474 1_655
Pt1_7 Sm5_7 3.005474 1_555
Pt2_0 Sm2_0 2.885404 1_555
Pt2_0 Sm2_4 2.885404 1_555
Pt2_0 Sm5_4 2.993182 1_555
Pt2_0 Sm5_0 2.993182 1_555
Pt2_0 Sm6_0 3.005474 1_555
Pt2_0 Sm6_4 3.005474 1_555
Pt2_1 Sm2_1 2.885404 1_555
Pt2_1 Sm2_5 2.885404 1_555
Pt2_1 Sm5_1 2.993182 1_555
Pt2_1 Sm5_5 2.993182 1_555
Pt2_1 Sm6_5 3.005474 1_555
Pt2_1 Sm6_1 3.005474 1_555
Pt2_2 Sm2_2 2.885404 1_555
Pt2_2 Sm2_6 2.885404 1_555
Pt2_2 Sm5_2 2.993182 1_555
Pt2_2 Sm5_6 2.993182 1_555
Pt2_2 Sm6_2 3.005474 1_555
Pt2_2 Sm6_6 3.005474 1_555
Pt2_3 Sm2_7 2.885404 1_555
Pt2_3 Sm2_3 2.885404 1_555
Pt2_3 Sm5_7 2.993182 1_555
Pt2_3 Sm5_3 2.993182 1_555
Pt2_3 Sm6_3 3.005474 1_555
Pt2_3 Sm6_7 3.005474 1_555
Pt2_4 Sm2_0 2.885404 1_655
Pt2_4 Sm2_4 2.885404 1_555
Pt2_4 Sm5_0 2.993182 1_655
Pt2_4 Sm5_4 2.993182 1_555
Pt2_4 Sm6_0 3.005474 1_655
Pt2_4 Sm6_4 3.005474 1_555
Pt2_5 Sm2_5 2.885404 1_555
Pt2_5 Sm2_1 2.885404 1_655
Pt2_5 Sm5_5 2.993182 1_555
Pt2_5 Sm5_1 2.993182 1_655
Pt2_5 Sm6_5 3.005474 1_555
Pt2_5 Sm6_1 3.005474 1_655
Pt2_6 Sm2_2 2.885404 1_655
Pt2_6 Sm2_6 2.885404 1_555
Pt2_6 Sm5_2 2.993182 1_655
Pt2_6 Sm5_6 2.993182 1_555
Pt2_6 Sm6_2 3.005474 1_655
Pt2_6 Sm6_6 3.005474 1_555
Pt2_7 Sm2_7 2.885404 1_555
Pt2_7 Sm2_3 2.885404 1_655
Pt2_7 Sm5_7 2.993182 1_555
Pt2_7 Sm5_3 2.993182 1_655
Pt2_7 Sm6_3 3.005474 1_655
Pt2_7 Sm6_7 3.005474 1_555
Pt3_0 Sm3_0 2.885404 1_555
Pt3_0 Sm3_4 2.885404 1_555
Pt3_0 Sm4_4 2.993182 1_555
Pt3_0 Sm4_0 2.993182 1_555
Pt3_0 Sm7_0 3.005474 1_555
Pt3_0 Sm7_4 3.005474 1_555
Pt3_1 Sm3_1 2.885404 1_555
Pt3_1 Sm3_5 2.885404 1_555
Pt3_1 Sm4_1 2.993182 1_555
Pt3_1 Sm4_5 2.993182 1_555
Pt3_1 Sm7_1 3.005474 1_555
Pt3_1 Sm7_5 3.005474 1_555
Pt3_2 Sm3_6 2.885404 1_555
Pt3_2 Sm3_2 2.885404 1_555
Pt3_2 Sm4_6 2.993182 1_555
Pt3_2 Sm4_2 2.993182 1_555
Pt3_2 Sm7_6 3.005474 1_555
Pt3_2 Sm7_2 3.005474 1_555
Pt3_3 Sm3_7 2.885404 1_555
Pt3_3 Sm3_3 2.885404 1_555
Pt3_3 Sm4_3 2.993182 1_555
Pt3_3 Sm4_7 2.993182 1_555
Pt3_3 Sm7_3 3.005474 1_555
Pt3_3 Sm7_7 3.005474 1_555
Pt3_4 Sm3_0 2.885404 1_655
Pt3_4 Sm3_4 2.885404 1_555
Pt3_4 Sm4_0 2.993182 1_655
Pt3_4 Sm4_4 2.993182 1_555
Pt3_4 Sm7_0 3.005474 1_655
Pt3_4 Sm7_4 3.005474 1_555
Pt3_5 Sm3_1 2.885404 1_655
Pt3_5 Sm3_5 2.885404 1_555
Pt3_5 Sm4_1 2.993182 1_655
Pt3_5 Sm4_5 2.993182 1_555
Pt3_5 Sm7_1 3.005474 1_655
Pt3_5 Sm7_5 3.005474 1_555
Pt3_6 Sm3_6 2.885404 1_555
Pt3_6 Sm3_2 2.885404 1_655
Pt3_6 Sm4_6 2.993182 1_555
Pt3_6 Sm4_2 2.993182 1_655
Pt3_6 Sm7_6 3.005474 1_555
Pt3_6 Sm7_2 3.005474 1_655
Pt3_7 Sm3_3 2.885404 1_655
Pt3_7 Sm3_7 2.885404 1_555
Pt3_7 Sm4_3 2.993182 1_655
Pt3_7 Sm4_7 2.993182 1_555
Pt3_7 Sm7_3 3.005474 1_655
Pt3_7 Sm7_7 3.005474 1_555
