# generated using pymatgen
data_NaCeMg30O32
_symmetry_space_group_name_H-M   'P 1'
_cell_length_a   8.61600900
_cell_length_b   8.61600900
_cell_length_c   8.64887600
_cell_angle_alpha   90.00000000
_cell_angle_beta   90.00000000
_cell_angle_gamma   90.00000000
_symmetry_Int_Tables_number   1
_chemical_formula_structural   NaCeMg30O32
_chemical_formula_sum   'Na1 Ce1 Mg30 O32'
_cell_volume   642.05459509
_cell_formula_units_Z   1
loop_
 _symmetry_equiv_pos_site_id
 _symmetry_equiv_pos_as_xyz
  1  'x, y, z'
loop_
 _atom_site_type_symbol
 _atom_site_label
 _atom_site_symmetry_multiplicity
 _atom_site_fract_x
 _atom_site_fract_y
 _atom_site_fract_z
 _atom_site_occupancy
  Na  Na0  1  0.00000000  0.00000000  0.50000000  1
  Ce  Ce0  1  0.00000000  0.00000000  0.00000000  1
  Mg  Mg0  1  0.00000000  0.50000000  0.00000000  1
  Mg  Mg1  1  0.00000000  0.50000000  0.50000000  1
  Mg  Mg2  1  0.50000000  0.00000000  0.00000000  1
  Mg  Mg3  1  0.50000000  0.00000000  0.50000000  1
  Mg  Mg4  1  0.50000000  0.50000000  0.00000000  1
  Mg  Mg5  1  0.50000000  0.50000000  0.50000000  1
  Mg  Mg6  1  0.00000000  0.25644900  0.25990200  1
  Mg  Mg7  1  0.00000000  0.25644900  0.74009800  1
  Mg  Mg8  1  0.00000000  0.74355100  0.25990200  1
  Mg  Mg9  1  0.00000000  0.74355100  0.74009800  1
  Mg  Mg10  1  0.50000000  0.25027300  0.25158400  1
  Mg  Mg11  1  0.50000000  0.25027300  0.74841600  1
  Mg  Mg12  1  0.50000000  0.74972700  0.25158400  1
  Mg  Mg13  1  0.50000000  0.74972700  0.74841600  1
  Mg  Mg14  1  0.25644900  0.00000000  0.25990200  1
  Mg  Mg15  1  0.25644900  0.00000000  0.74009800  1
  Mg  Mg16  1  0.25027300  0.50000000  0.25158400  1
  Mg  Mg17  1  0.25027300  0.50000000  0.74841600  1
  Mg  Mg18  1  0.74355100  0.00000000  0.25990200  1
  Mg  Mg19  1  0.74355100  0.00000000  0.74009800  1
  Mg  Mg20  1  0.74972700  0.50000000  0.25158400  1
  Mg  Mg21  1  0.74972700  0.50000000  0.74841600  1
  Mg  Mg22  1  0.25741900  0.25741900  0.00000000  1
  Mg  Mg23  1  0.24934700  0.24934700  0.50000000  1
  Mg  Mg24  1  0.25741900  0.74258100  0.00000000  1
  Mg  Mg25  1  0.24934700  0.75065300  0.50000000  1
  Mg  Mg26  1  0.74258100  0.25741900  0.00000000  1
  Mg  Mg27  1  0.75065300  0.24934700  0.50000000  1
  Mg  Mg28  1  0.74258100  0.74258100  0.00000000  1
  Mg  Mg29  1  0.75065300  0.75065300  0.50000000  1
  O  O0  1  0.26582700  0.00000000  0.00000000  1
  O  O1  1  0.26493900  0.00000000  0.50000000  1
  O  O2  1  0.25267800  0.50000000  0.00000000  1
  O  O3  1  0.25223200  0.50000000  0.50000000  1
  O  O4  1  0.73417300  0.00000000  0.00000000  1
  O  O5  1  0.73506100  0.00000000  0.50000000  1
  O  O6  1  0.74732200  0.50000000  0.00000000  1
  O  O7  1  0.74776800  0.50000000  0.50000000  1
  O  O8  1  0.24915100  0.24915100  0.24872000  1
  O  O9  1  0.24915100  0.24915100  0.75128000  1
  O  O10  1  0.24915100  0.75084900  0.24872000  1
  O  O11  1  0.24915100  0.75084900  0.75128000  1
  O  O12  1  0.75084900  0.24915100  0.24872000  1
  O  O13  1  0.75084900  0.24915100  0.75128000  1
  O  O14  1  0.75084900  0.75084900  0.24872000  1
  O  O15  1  0.75084900  0.75084900  0.75128000  1
  O  O16  1  0.00000000  0.00000000  0.25479500  1
  O  O17  1  0.00000000  0.00000000  0.74520500  1
  O  O18  1  0.00000000  0.50000000  0.24948300  1
  O  O19  1  0.00000000  0.50000000  0.75051700  1
  O  O20  1  0.50000000  0.00000000  0.24948300  1
  O  O21  1  0.50000000  0.00000000  0.75051700  1
  O  O22  1  0.50000000  0.50000000  0.24900400  1
  O  O23  1  0.50000000  0.50000000  0.75099600  1
  O  O24  1  0.00000000  0.26582700  0.00000000  1
  O  O25  1  0.00000000  0.26493900  0.50000000  1
  O  O26  1  0.00000000  0.73417300  0.00000000  1
  O  O27  1  0.00000000  0.73506100  0.50000000  1
  O  O28  1  0.50000000  0.25267800  0.00000000  1
  O  O29  1  0.50000000  0.25223200  0.50000000  1
  O  O30  1  0.50000000  0.74732200  0.00000000  1
  O  O31  1  0.50000000  0.74776800  0.50000000  1
loop_
_geom_bond_atom_site_label_1
_geom_bond_atom_site_label_2
_geom_bond_distance
_geom_bond_site_symmetry_2
Na0 O16 2.120748 1_555
Na0 O17 2.120748 1_555
Na0 O25 2.282717 1_555
Na0 O1 2.282717 1_555
Na0 O5 2.282717 1_455
Na0 O27 2.282717 1_545
Ce0 O16 2.203690 1_555
Ce0 O17 2.203690 1_554
Ce0 O0 2.290368 1_555
Ce0 O24 2.290368 1_555
Ce0 O26 2.290368 1_545
Ce0 O4 2.290368 1_455
Mg0 O26 2.017637 1_555
Mg0 O24 2.017637 1_555
Mg0 O18 2.157748 1_555
Mg0 O19 2.157748 1_554
Mg0 O2 2.177076 1_555
Mg0 O6 2.177076 1_455
Mg1 O27 2.025288 1_555
Mg1 O25 2.025288 1_555
Mg1 O19 2.166690 1_555
Mg1 O18 2.166690 1_555
Mg1 O3 2.173233 1_555
Mg1 O7 2.173233 1_455
Mg2 O4 2.017637 1_555
Mg2 O0 2.017637 1_555
Mg2 O20 2.157748 1_555
Mg2 O21 2.157748 1_554
Mg2 O28 2.177076 1_555
Mg2 O30 2.177076 1_545
Mg3 O5 2.025288 1_555
Mg3 O1 2.025288 1_555
Mg3 O21 2.166690 1_555
Mg3 O20 2.166690 1_555
Mg3 O31 2.173233 1_545
Mg3 O29 2.173233 1_555
Mg4 O6 2.130929 1_555
Mg4 O30 2.130929 1_555
Mg4 O2 2.130929 1_555
Mg4 O28 2.130929 1_555
Mg4 O22 2.153605 1_555
Mg4 O23 2.153605 1_554
Mg5 O7 2.134771 1_555
Mg5 O31 2.134771 1_555
Mg5 O3 2.134771 1_555
Mg5 O29 2.134771 1_555
Mg5 O23 2.170833 1_555
Mg5 O22 2.170833 1_555
Mg6 O25 2.077866 1_555
Mg6 O18 2.100372 1_555
Mg6 O8 2.149784 1_555
Mg6 O12 2.149784 1_455
Mg6 O16 2.210008 1_555
Mg6 O24 2.249312 1_555
Mg7 O25 2.077866 1_555
Mg7 O19 2.100372 1_555
Mg7 O9 2.149784 1_555
Mg7 O13 2.149784 1_455
Mg7 O17 2.210008 1_555
Mg7 O24 2.249312 1_556
Mg8 O27 2.077866 1_555
Mg8 O18 2.100372 1_555
Mg8 O10 2.149784 1_555
Mg8 O14 2.149784 1_455
Mg8 O16 2.210008 1_565
Mg8 O26 2.249312 1_555
Mg9 O27 2.077866 1_555
Mg9 O19 2.100372 1_555
Mg9 O11 2.149784 1_555
Mg9 O15 2.149784 1_455
Mg9 O17 2.210008 1_565
Mg9 O26 2.249312 1_556
Mg10 O29 2.148585 1_555
Mg10 O22 2.151766 1_555
Mg10 O20 2.156431 1_555
Mg10 O12 2.161481 1_555
Mg10 O8 2.161481 1_555
Mg10 O28 2.176017 1_555
Mg11 O29 2.148585 1_555
Mg11 O23 2.151766 1_555
Mg11 O21 2.156431 1_555
Mg11 O13 2.161481 1_555
Mg11 O9 2.161481 1_555
Mg11 O28 2.176017 1_556
Mg12 O31 2.148585 1_555
Mg12 O22 2.151766 1_555
Mg12 O20 2.156431 1_565
Mg12 O14 2.161481 1_555
Mg12 O10 2.161481 1_555
Mg12 O30 2.176017 1_555
Mg13 O31 2.148585 1_555
Mg13 O23 2.151766 1_555
Mg13 O21 2.156431 1_565
Mg13 O15 2.161481 1_555
Mg13 O11 2.161481 1_555
Mg13 O30 2.176017 1_556
Mg14 O1 2.077866 1_555
Mg14 O20 2.100372 1_555
Mg14 O8 2.149784 1_555
Mg14 O10 2.149784 1_545
Mg14 O16 2.210008 1_555
Mg14 O0 2.249312 1_555
Mg15 O1 2.077866 1_555
Mg15 O21 2.100372 1_555
Mg15 O9 2.149784 1_555
Mg15 O11 2.149784 1_545
Mg15 O17 2.210008 1_555
Mg15 O0 2.249312 1_556
Mg16 O3 2.148585 1_555
Mg16 O22 2.151766 1_555
Mg16 O18 2.156431 1_555
Mg16 O10 2.161481 1_555
Mg16 O8 2.161481 1_555
Mg16 O2 2.176017 1_555
Mg17 O3 2.148585 1_555
Mg17 O23 2.151766 1_555
Mg17 O19 2.156431 1_555
Mg17 O11 2.161481 1_555
Mg17 O9 2.161481 1_555
Mg17 O2 2.176017 1_556
Mg18 O5 2.077866 1_555
Mg18 O20 2.100372 1_555
Mg18 O12 2.149784 1_555
Mg18 O14 2.149784 1_545
Mg18 O16 2.210008 1_655
Mg18 O4 2.249312 1_555
Mg19 O5 2.077866 1_555
Mg19 O21 2.100372 1_555
Mg19 O13 2.149784 1_555
Mg19 O15 2.149784 1_545
Mg19 O17 2.210008 1_655
Mg19 O4 2.249312 1_556
Mg20 O7 2.148585 1_555
Mg20 O22 2.151766 1_555
Mg20 O18 2.156431 1_655
Mg20 O14 2.161481 1_555
Mg20 O12 2.161481 1_555
Mg20 O6 2.176017 1_555
Mg21 O7 2.148585 1_555
Mg21 O23 2.151766 1_555
Mg21 O19 2.156431 1_655
Mg21 O15 2.161481 1_555
Mg21 O13 2.161481 1_555
Mg21 O6 2.176017 1_556
Mg22 O2 2.090479 1_555
Mg22 O28 2.090479 1_555
Mg22 O9 2.153506 1_554
Mg22 O8 2.153506 1_555
Mg22 O24 2.219107 1_555
Mg22 O0 2.219107 1_555
Mg23 O25 2.152572 1_555
Mg23 O1 2.152572 1_555
Mg23 O29 2.159772 1_555
Mg23 O3 2.159772 1_555
Mg23 O8 2.173291 1_555
Mg23 O9 2.173291 1_555
Mg24 O2 2.090479 1_555
Mg24 O30 2.090479 1_555
Mg24 O11 2.153506 1_554
Mg24 O10 2.153506 1_555
Mg24 O26 2.219107 1_555
Mg24 O0 2.219107 1_565
Mg25 O27 2.152572 1_555
Mg25 O1 2.152572 1_565
Mg25 O3 2.159772 1_555
Mg25 O31 2.159772 1_555
Mg25 O10 2.173291 1_555
Mg25 O11 2.173291 1_555
Mg26 O28 2.090479 1_555
Mg26 O6 2.090479 1_555
Mg26 O13 2.153506 1_554
Mg26 O12 2.153506 1_555
Mg26 O4 2.219107 1_555
Mg26 O24 2.219107 1_655
Mg27 O5 2.152572 1_555
Mg27 O25 2.152572 1_655
Mg27 O29 2.159772 1_555
Mg27 O7 2.159772 1_555
Mg27 O12 2.173291 1_555
Mg27 O13 2.173291 1_555
Mg28 O6 2.090479 1_555
Mg28 O30 2.090479 1_555
Mg28 O15 2.153506 1_554
Mg28 O14 2.153506 1_555
Mg28 O4 2.219107 1_565
Mg28 O26 2.219107 1_655
Mg29 O27 2.152572 1_655
Mg29 O5 2.152572 1_565
Mg29 O31 2.159772 1_555
Mg29 O7 2.159772 1_555
Mg29 O14 2.173291 1_555
Mg29 O15 2.173291 1_555
