# generated using pymatgen
data_Li9Mn2Co5O16
_symmetry_space_group_name_H-M   'P 1'
_cell_length_a   5.88247300
_cell_length_b   6.45460233
_cell_length_c   8.59574445
_cell_angle_alpha   82.93952154
_cell_angle_beta   109.31160230
_cell_angle_gamma   114.55354751
_symmetry_Int_Tables_number   1
_chemical_formula_structural   Li9Mn2Co5O16
_chemical_formula_sum   'Li9 Mn2 Co5 O16'
_cell_volume   280.11619750
_cell_formula_units_Z   1
loop_
 _symmetry_equiv_pos_site_id
 _symmetry_equiv_pos_as_xyz
  1  'x, y, z'
loop_
 _atom_site_type_symbol
 _atom_site_label
 _atom_site_symmetry_multiplicity
 _atom_site_fract_x
 _atom_site_fract_y
 _atom_site_fract_z
 _atom_site_occupancy
  Li  Li0  1  0.75249000  0.00087800  0.50008400  1
  Li  Li1  1  0.24627900  0.25431800  0.74324700  1
  Li  Li2  1  0.24751000  0.99912200  0.49991600  1
  Li  Li3  1  0.74974300  0.25468600  0.74274500  1
  Li  Li4  1  0.75110500  0.50266100  0.00085400  1
  Li  Li5  1  0.24889500  0.49733900  0.99914600  1
  Li  Li6  1  0.25025700  0.74531400  0.25725500  1
  Li  Li7  1  0.75372100  0.74568200  0.25675300  1
  Li  Li8  1  0.50000000  0.50000000  0.50000000  1
  Mn  Mn0  1  0.01125900  0.25551400  0.25332300  1
  Mn  Mn1  1  0.98874100  0.74448600  0.74667700  1
  Co  Co0  1  0.50000000  0.00000000  0.00000000  1
  Co  Co1  1  0.50810300  0.25454400  0.25362300  1
  Co  Co2  1  0.00000000  0.50000000  0.50000000  1
  Co  Co3  1  0.49189700  0.74545600  0.74637700  1
  Co  Co4  1  0.00000000  0.00000000  0.00000000  1
  O  O0  1  0.11156800  0.25856200  0.48644500  1
  O  O1  1  0.64826300  0.53129500  0.75205200  1
  O  O2  1  0.64501800  0.26896500  0.48284200  1
  O  O3  1  0.10200400  0.50534000  0.73995300  1
  O  O4  1  0.11345500  0.76335000  0.99069800  1
  O  O5  1  0.60899800  0.76327200  0.98620200  1
  O  O6  1  0.64537500  0.02796800  0.23996800  1
  O  O7  1  0.10947200  0.00758500  0.23926800  1
  O  O8  1  0.35498200  0.73103500  0.51715800  1
  O  O9  1  0.89052800  0.99241500  0.76073200  1
  O  O10  1  0.88843200  0.74143800  0.51355500  1
  O  O11  1  0.35462500  0.97203200  0.76003200  1
  O  O12  1  0.39100200  0.23672800  0.01379800  1
  O  O13  1  0.88654500  0.23665000  0.00930200  1
  O  O14  1  0.89799600  0.49466000  0.26004700  1
  O  O15  1  0.35173700  0.46870500  0.24794800  1
loop_
_geom_bond_atom_site_label_1
_geom_bond_atom_site_label_2
_geom_bond_distance
_geom_bond_site_symmetry_2
Li0 O2 2.049406 1_555
Li0 O0 2.106625 1_655
Li0 O10 2.112138 1_545
Li0 O9 2.117901 1_545
Li0 O6 2.119067 1_555
Li0 O8 2.302671 1_545
Li1 O0 2.085080 1_555
Li1 O3 2.112329 1_555
Li1 O9 2.113091 1_445
Li1 O11 2.141619 1_545
Li1 O12 2.202712 1_556
Li1 O1 2.279249 1_555
Li2 O8 2.049406 1_555
Li2 O10 2.106625 1_455
Li2 O0 2.112138 1_565
Li2 O7 2.117901 1_565
Li2 O11 2.119067 1_555
Li2 O2 2.302671 1_565
Li3 O3 2.036930 1_655
Li3 O2 2.113128 1_555
Li3 O1 2.122000 1_555
Li3 O9 2.142811 1_545
Li3 O13 2.168812 1_556
Li3 O11 2.321730 1_545
Li4 O1 2.028284 1_554
Li4 O14 2.109168 1_555
Li4 O4 2.118600 1_654
Li4 O12 2.129079 1_555
Li4 O5 2.142706 1_554
Li4 O13 2.157799 1_555
Li5 O15 2.028284 1_556
Li5 O3 2.109168 1_555
Li5 O13 2.118600 1_456
Li5 O5 2.129079 1_555
Li5 O12 2.142706 1_556
Li5 O4 2.157799 1_555
Li6 O14 2.036930 1_455
Li6 O8 2.113128 1_555
Li6 O15 2.122000 1_555
Li6 O7 2.142811 1_565
Li6 O4 2.168812 1_554
Li6 O6 2.321730 1_565
Li7 O10 2.085080 1_555
Li7 O14 2.112329 1_555
Li7 O7 2.113091 1_665
Li7 O6 2.141619 1_565
Li7 O5 2.202712 1_554
Li7 O15 2.279249 1_555
Li8 O2 2.041517 1_555
Li8 O8 2.041517 1_555
Li8 O1 2.051068 1_555
Li8 O15 2.051068 1_555
Li8 O10 2.138293 1_555
Li8 O0 2.138293 1_555
Mn0 O0 1.892616 1_555
Mn0 O15 1.913677 1_555
Mn0 O14 1.931853 1_455
Mn0 O7 1.941996 1_555
Mn0 O13 1.980777 1_455
Mn0 O6 2.013350 1_455
Mn1 O10 1.892616 1_555
Mn1 O1 1.913677 1_555
Mn1 O3 1.931853 1_655
Mn1 O9 1.941996 1_555
Mn1 O4 1.980777 1_655
Mn1 O11 2.013350 1_655
Co0 O5 1.915460 1_544
Co0 O12 1.915460 1_555
Co0 O6 1.953250 1_555
Co0 O11 1.953250 1_544
Co0 O13 2.129118 1_555
Co0 O4 2.129118 1_544
Co1 O2 1.863503 1_555
Co1 O15 1.941579 1_555
Co1 O12 1.946953 1_555
Co1 O6 1.972552 1_555
Co1 O14 2.156027 1_555
Co1 O7 2.192106 1_555
Co2 O3 1.948630 1_555
Co2 O14 1.948630 1_455
Co2 O10 1.953993 1_455
Co2 O0 1.953993 1_555
Co2 O8 1.966826 1_555
Co2 O2 1.966826 1_455
Co3 O8 1.863503 1_555
Co3 O1 1.941579 1_555
Co3 O5 1.946953 1_555
Co3 O11 1.972552 1_555
Co3 O3 2.156027 1_555
Co3 O9 2.192106 1_555
Co4 O4 1.922907 1_544
Co4 O13 1.922907 1_455
Co4 O7 1.941547 1_555
Co4 O9 1.941547 1_444
Co4 O12 2.140649 1_555
Co4 O5 2.140649 1_444
