# generated using pymatgen
data_RbBa2Fe2F9
_symmetry_space_group_name_H-M   'P 1'
_cell_length_a   7.85690776
_cell_length_b   7.85690776
_cell_length_c   7.85690744
_cell_angle_alpha   44.83252087
_cell_angle_beta   44.83252087
_cell_angle_gamma   44.83251759
_symmetry_Int_Tables_number   1
_chemical_formula_structural   RbBa2Fe2F9
_chemical_formula_sum   'Rb1 Ba2 Fe2 F9'
_cell_volume   219.35721600
_cell_formula_units_Z   1
loop_
 _symmetry_equiv_pos_site_id
 _symmetry_equiv_pos_as_xyz
  1  'x, y, z'
loop_
 _atom_site_type_symbol
 _atom_site_label
 _atom_site_symmetry_multiplicity
 _atom_site_fract_x
 _atom_site_fract_y
 _atom_site_fract_z
 _atom_site_occupancy
  Rb  Rb0  1  0.21339200  0.21339200  0.21339200  1
  Ba  Ba0  1  0.99916500  0.99916500  0.99916500  1
  Ba  Ba1  1  0.79312200  0.79312200  0.79312200  1
  Fe  Fe0  1  0.39156000  0.39156000  0.39156000  1
  Fe  Fe1  1  0.60434300  0.60434300  0.60434300  1
  F  F0  1  0.26554200  0.78217000  0.26554200  1
  F  F1  1  0.78217000  0.26554200  0.26554200  1
  F  F2  1  0.26554200  0.26554200  0.78217000  1
  F  F3  1  0.73494700  0.21025600  0.73494700  1
  F  F4  1  0.21025600  0.73494700  0.73494700  1
  F  F5  1  0.73494700  0.73494700  0.21025600  1
  F  F6  1  0.99265900  0.50617800  0.50617800  1
  F  F7  1  0.50617800  0.50617800  0.99265900  1
  F  F8  1  0.50617800  0.99265900  0.50617800  1
loop_
_geom_bond_atom_site_label_1
_geom_bond_atom_site_label_2
_geom_bond_distance
_geom_bond_site_symmetry_2
Ba0 F4 2.777664 1_655
Ba0 F3 2.777664 1_565
Ba0 F5 2.777664 1_556
Ba0 F0 2.785313 1_656
Ba0 F1 2.785313 1_566
Ba0 F2 2.785313 1_665
Ba0 F7 2.996931 1_655
Ba0 F7 2.996931 1_565
Ba0 F6 2.996931 1_556
Ba0 F8 2.996931 1_556
Ba0 F6 2.996931 1_565
Ba0 F8 2.996931 1_655
Ba1 F5 2.684401 1_556
Ba1 F3 2.684401 1_565
Ba1 F4 2.684401 1_655
Ba1 F2 3.032722 1_655
Ba1 F2 3.032722 1_565
Ba1 F0 3.032722 1_655
Ba1 F1 3.032722 1_565
Ba1 F0 3.032722 1_556
Ba1 F1 3.032722 1_556
Ba1 F6 3.131483 1_555
Ba1 F8 3.131483 1_555
Ba1 F7 3.131484 1_555
F0 Fe0 2.037178 1_555
F0 Rb0 2.848679 1_565
F1 Fe0 2.037178 1_555
F1 Rb0 2.848679 1_655
F2 Fe0 2.037178 1_555
F2 Rb0 2.848679 1_556
F3 Fe1 2.042953 1_555
F3 Rb0 3.010549 1_655
F3 Rb0 3.010549 1_556
F4 Fe1 2.042953 1_555
F4 Rb0 3.010549 1_565
F4 Rb0 3.010549 1_556
F5 Fe1 2.042953 1_555
F5 Rb0 3.010549 1_565
F5 Rb0 3.010549 1_655
F6 Fe0 2.142115 1_655
F6 Fe1 2.160265 1_555
F6 Rb0 3.127285 1_655
F7 Fe0 2.142115 1_556
F7 Fe1 2.160265 1_555
F7 Rb0 3.127286 1_556
F8 Fe0 2.142115 1_565
F8 Fe1 2.160265 1_555
F8 Rb0 3.127285 1_565
