# generated using pymatgen
data_CeUZn17
_symmetry_space_group_name_H-M   'P 1'
_cell_length_a   6.82651005
_cell_length_b   6.82651005
_cell_length_c   6.82651001
_cell_angle_alpha   82.30302717
_cell_angle_beta   82.30302717
_cell_angle_gamma   82.30302787
_symmetry_Int_Tables_number   1
_chemical_formula_structural   CeUZn17
_chemical_formula_sum   'Ce1 U1 Zn17'
_cell_volume   310.23031693
_cell_formula_units_Z   1
loop_
 _symmetry_equiv_pos_site_id
 _symmetry_equiv_pos_as_xyz
  1  'x, y, z'
loop_
 _atom_site_type_symbol
 _atom_site_label
 _atom_site_symmetry_multiplicity
 _atom_site_fract_x
 _atom_site_fract_y
 _atom_site_fract_z
 _atom_site_occupancy
  Ce  Ce0  1  0.66438200  0.66438200  0.66438200  1
  U  U0  1  0.33491200  0.33491200  0.33491200  1
  Zn  Zn0  1  0.29680500  0.70223800  0.00097900  1
  Zn  Zn1  1  0.70223800  0.00097900  0.29680500  1
  Zn  Zn2  1  0.00097900  0.29680500  0.70223800  1
  Zn  Zn3  1  0.29680500  0.00097900  0.70223800  1
  Zn  Zn4  1  0.00097900  0.70223800  0.29680500  1
  Zn  Zn5  1  0.70223800  0.29680500  0.00097900  1
  Zn  Zn6  1  0.84072100  0.35116600  0.35116600  1
  Zn  Zn7  1  0.35116600  0.35116600  0.84072100  1
  Zn  Zn8  1  0.35116600  0.84072100  0.35116600  1
  Zn  Zn9  1  0.16128800  0.64670600  0.64670600  1
  Zn  Zn10  1  0.64670600  0.64670600  0.16128800  1
  Zn  Zn11  1  0.64670600  0.16128800  0.64670600  1
  Zn  Zn12  1  0.00091400  0.00091400  0.49921100  1
  Zn  Zn13  1  0.00091400  0.49921100  0.00091400  1
  Zn  Zn14  1  0.49921100  0.00091400  0.00091400  1
  Zn  Zn15  1  0.89956700  0.89956700  0.89956700  1
  Zn  Zn16  1  0.10230300  0.10230300  0.10230300  1
loop_
_geom_bond_atom_site_label_1
_geom_bond_atom_site_label_2
_geom_bond_distance
_geom_bond_site_symmetry_2
Ce0 Zn15 3.131165 1_555
Ce0 Zn4 3.175518 1_655
Ce0 Zn1 3.175518 1_565
Ce0 Zn5 3.175518 1_556
Ce0 Zn0 3.175518 1_556
Ce0 Zn2 3.175518 1_655
Ce0 Zn3 3.175518 1_565
Ce0 Zn7 3.230844 1_555
Ce0 Zn6 3.230844 1_555
Ce0 Zn8 3.230844 1_555
Ce0 Zn10 3.364567 1_556
Ce0 Zn9 3.364567 1_655
Ce0 Zn11 3.364567 1_565
Ce0 Zn12 3.442802 1_665
Ce0 Zn14 3.442802 1_566
Ce0 Zn13 3.442802 1_656
Ce0 Zn10 3.471307 1_555
Ce0 Zn11 3.471307 1_555
Ce0 Zn9 3.471307 1_555
U0 Zn16 3.096869 1_555
U0 Zn2 3.163067 1_555
U0 Zn3 3.163067 1_555
U0 Zn0 3.163067 1_555
U0 Zn5 3.163067 1_555
U0 Zn4 3.163067 1_555
U0 Zn1 3.163067 1_555
U0 Zn10 3.213649 1_555
U0 Zn11 3.213649 1_555
U0 Zn9 3.213649 1_555
U0 Zn7 3.347918 1_554
U0 Zn6 3.347918 1_455
U0 Zn8 3.347918 1_545
U0 Zn12 3.417257 1_555
U0 Zn14 3.417257 1_555
U0 Zn13 3.417257 1_555
U0 Zn7 3.486512 1_555
U0 Zn6 3.486512 1_555
U0 Zn8 3.486512 1_555
Zn0 Zn13 2.598310 1_555
Zn0 Zn14 2.611624 1_565
Zn0 Zn4 2.657820 1_555
Zn0 Zn3 2.684010 1_564
Zn0 Zn10 2.719054 1_555
Zn0 Zn7 2.726457 1_554
Zn0 Zn8 2.771846 1_555
Zn0 Zn9 2.790566 1_554
Zn0 Zn15 2.986974 1_454
Zn0 Zn16 2.998114 1_565
Zn1 Zn14 2.598310 1_555
Zn1 Zn12 2.611624 1_655
Zn1 Zn5 2.657820 1_555
Zn1 Zn4 2.684010 1_645
Zn1 Zn11 2.719054 1_555
Zn1 Zn8 2.726457 1_545
Zn1 Zn6 2.771846 1_555
Zn1 Zn10 2.790566 1_545
Zn1 Zn15 2.986974 1_544
Zn1 Zn16 2.998114 1_655
Zn2 Zn3 2.657820 1_555
Zn2 Zn5 2.684010 1_456
Zn2 Zn9 2.719054 1_555
Zn2 Zn6 2.726457 1_455
Zn2 Zn7 2.771846 1_555
Zn3 Zn8 2.726457 1_545
Zn3 Zn7 2.771846 1_555
Zn3 Zn9 2.790566 1_545
Zn4 Zn9 2.719054 1_555
Zn4 Zn6 2.726457 1_455
Zn4 Zn8 2.771846 1_555
Zn5 Zn7 2.726457 1_554
Zn5 Zn6 2.771846 1_555
Zn7 Zn9 2.558951 1_555
Zn8 Zn9 2.558951 1_555
Zn10 Zn6 2.558951 1_555
Zn10 Zn8 2.558951 1_555
Zn10 Zn14 2.644453 1_565
Zn10 Zn13 2.644453 1_655
Zn10 Zn5 2.719054 1_555
Zn10 Zn4 2.790566 1_655
Zn10 Zn15 2.880495 1_554
Zn11 Zn6 2.558951 1_555
Zn11 Zn7 2.558951 1_555
Zn11 Zn14 2.644453 1_556
Zn11 Zn12 2.644453 1_655
Zn11 Zn3 2.719054 1_555
Zn11 Zn5 2.790566 1_556
Zn11 Zn2 2.790566 1_655
Zn11 Zn15 2.880495 1_545
Zn12 Zn2 2.598310 1_555
Zn12 Zn3 2.598310 1_555
Zn12 Zn4 2.611624 1_545
Zn12 Zn6 2.623450 1_455
Zn12 Zn8 2.623450 1_545
Zn12 Zn9 2.644453 1_545
Zn12 Zn16 2.724538 1_555
Zn12 Zn15 2.746271 1_445
Zn13 Zn4 2.598310 1_555
Zn13 Zn5 2.611624 1_455
Zn13 Zn2 2.611624 1_554
Zn13 Zn6 2.623450 1_455
Zn13 Zn7 2.623450 1_554
Zn13 Zn9 2.644453 1_554
Zn13 Zn16 2.724538 1_555
Zn13 Zn15 2.746271 1_454
Zn14 Zn5 2.598310 1_555
Zn14 Zn3 2.611624 1_554
Zn14 Zn8 2.623450 1_545
Zn14 Zn7 2.623450 1_554
Zn14 Zn16 2.724538 1_555
Zn14 Zn15 2.746271 1_544
Zn15 Zn16 2.699151 1_666
Zn15 Zn9 2.880495 1_655
Zn15 Zn3 2.986974 1_665
Zn15 Zn2 2.986974 1_665
Zn15 Zn4 2.986974 1_656
Zn15 Zn5 2.986974 1_566
Zn16 Zn7 2.847605 1_554
Zn16 Zn6 2.847605 1_455
Zn16 Zn8 2.847605 1_545
Zn16 Zn3 2.998114 1_554
Zn16 Zn2 2.998114 1_554
Zn16 Zn4 2.998114 1_545
Zn16 Zn5 2.998114 1_455
