# generated using pymatgen
data_CaMg6SnO8
_symmetry_space_group_name_H-M   'P 1'
_cell_length_a   9.03793984
_cell_length_b   4.52363620
_cell_length_c   4.52363620
_cell_angle_alpha   90.00000000
_cell_angle_beta   90.00000000
_cell_angle_gamma   90.00000000
_symmetry_Int_Tables_number   1
_chemical_formula_structural   CaMg6SnO8
_chemical_formula_sum   'Ca1 Mg6 Sn1 O8'
_cell_volume   184.94593397
_cell_formula_units_Z   1
loop_
 _symmetry_equiv_pos_site_id
 _symmetry_equiv_pos_as_xyz
  1  'x, y, z'
loop_
 _atom_site_type_symbol
 _atom_site_label
 _atom_site_symmetry_multiplicity
 _atom_site_fract_x
 _atom_site_fract_y
 _atom_site_fract_z
 _atom_site_occupancy
  Ca  Ca0  1  0.00000000  0.00000000  -0.00000000  1
  Mg  Mg0  1  0.00000000  0.50000000  0.50000000  1
  Mg  Mg1  1  0.50000000  0.50000000  0.50000000  1
  Mg  Mg2  1  0.24627767  0.00000000  0.50000000  1
  Mg  Mg3  1  0.75372233  -0.00000000  0.50000000  1
  Mg  Mg4  1  0.24627767  0.50000000  0.00000000  1
  Mg  Mg5  1  0.75372233  0.50000000  -0.00000000  1
  Sn  Sn0  1  0.50000000  0.00000000  -0.00000000  1
  O  O0  1  0.24429214  -0.00000000  0.00000000  1
  O  O1  1  0.75570786  0.00000000  -0.00000000  1
  O  O2  1  0.25115911  0.50000000  0.50000000  1
  O  O3  1  0.74884089  0.50000000  0.50000000  1
  O  O4  1  0.00000000  0.00000000  0.50000000  1
  O  O5  1  0.50000000  0.00000000  0.50000000  1
  O  O6  1  0.00000000  0.50000000  -0.00000000  1
  O  O7  1  0.50000000  0.50000000  -0.00000000  1
loop_
_geom_bond_atom_site_label_1
_geom_bond_atom_site_label_2
_geom_bond_distance
_geom_bond_site_symmetry_2
Ca0 O1 2.207898 1_455
Ca0 O0 2.207898 1_555
Ca0 O6 2.261818 1_555
Ca0 O4 2.261818 1_555
Ca0 O4 2.261818 1_554
Ca0 O6 2.261818 1_545
Mg0 O6 2.261818 1_556
Mg0 O6 2.261818 1_555
Mg0 O4 2.261818 1_555
Mg0 O4 2.261818 1_565
Mg0 O2 2.269961 1_555
Mg0 O3 2.269961 1_455
Mg1 O2 2.249009 1_555
Mg1 O3 2.249009 1_555
Mg1 O5 2.261818 1_555
Mg1 O5 2.261818 1_565
Mg1 O7 2.261818 1_555
Mg1 O7 2.261818 1_556
Mg2 O4 2.225843 1_555
Mg2 O0 2.261889 1_555
Mg2 O0 2.261889 1_556
Mg2 O2 2.262248 1_545
Mg2 O2 2.262248 1_555
Mg2 O5 2.293127 1_555
Mg3 O4 2.225843 1_655
Mg3 O1 2.261889 1_555
Mg3 O1 2.261889 1_556
Mg3 O3 2.262248 1_555
Mg3 O3 2.262248 1_545
Mg3 O5 2.293127 1_555
Mg4 O6 2.225843 1_555
Mg4 O0 2.261889 1_565
Mg4 O0 2.261889 1_555
Mg4 O2 2.262248 1_554
Mg4 O2 2.262248 1_555
Mg4 O7 2.293127 1_555
Mg5 O6 2.225843 1_655
Mg5 O1 2.261889 1_565
Mg5 O1 2.261889 1_555
Mg5 O3 2.262248 1_555
Mg5 O3 2.262248 1_554
Mg5 O7 2.293127 1_555
O0 Sn0 2.311072 1_555
O1 Sn0 2.311072 1_555
O5 Sn0 2.261818 1_556
O5 Sn0 2.261818 1_555
O7 Sn0 2.261818 1_565
O7 Sn0 2.261818 1_555
