# generated using pymatgen
data_TaTiNi6
_symmetry_space_group_name_H-M   'P 1'
_cell_length_a   5.07880479
_cell_length_b   5.07880479
_cell_length_c   4.19654118
_cell_angle_alpha   90.00000000
_cell_angle_beta   90.00000000
_cell_angle_gamma   119.99999678
_symmetry_Int_Tables_number   1
_chemical_formula_structural   TaTiNi6
_chemical_formula_sum   'Ta1 Ti1 Ni6'
_cell_volume   93.74436604
_cell_formula_units_Z   1
loop_
 _symmetry_equiv_pos_site_id
 _symmetry_equiv_pos_as_xyz
  1  'x, y, z'
loop_
 _atom_site_type_symbol
 _atom_site_label
 _atom_site_symmetry_multiplicity
 _atom_site_fract_x
 _atom_site_fract_y
 _atom_site_fract_z
 _atom_site_occupancy
  Ta  Ta0  1  0.66666700  0.33333300  0.50000000  1
  Ti  Ti0  1  0.33333300  0.66666700  0.00000000  1
  Ni  Ni0  1  0.67389903  0.83694951  0.50000000  1
  Ni  Ni1  1  0.16305049  0.83694951  0.50000000  1
  Ni  Ni2  1  0.16305049  0.32610097  0.50000000  1
  Ni  Ni3  1  0.32272191  0.16136096  -0.00000000  1
  Ni  Ni4  1  0.83863904  0.16136096  -0.00000000  1
  Ni  Ni5  1  0.83863904  0.67727809  -0.00000000  1
loop_
_geom_bond_atom_site_label_1
_geom_bond_atom_site_label_2
_geom_bond_distance
_geom_bond_site_symmetry_2
Ni0 Ni1 2.484305 1_655
Ni0 Ni2 2.484305 1_665
Ni0 Ni5 2.537499 1_556
Ni0 Ni5 2.537499 1_555
Ni0 Ni4 2.537499 1_566
Ni0 Ni4 2.537499 1_565
Ni0 Ta0 2.539599 1_565
Ni0 Ta0 2.539604 1_555
Ni0 Ti0 2.578091 1_556
Ni0 Ti0 2.578091 1_555
Ni0 Ni1 2.594500 1_555
Ni0 Ni2 2.594500 1_555
Ni1 Ni2 2.484305 1_565
Ni1 Ni5 2.537499 1_456
Ni1 Ni5 2.537499 1_455
Ni1 Ni3 2.537499 1_566
Ni1 Ni3 2.537499 1_565
Ni1 Ta0 2.539602 1_455
Ni1 Ta0 2.539602 1_565
Ni1 Ti0 2.578089 1_555
Ni1 Ti0 2.578089 1_556
Ni1 Ni2 2.594500 1_555
Ni2 Ni3 2.537499 1_556
Ni2 Ni3 2.537499 1_555
Ni2 Ni4 2.537499 1_456
Ni2 Ni4 2.537499 1_455
Ni2 Ta0 2.539599 1_455
Ni2 Ta0 2.539604 1_555
Ni2 Ti0 2.578091 1_555
Ni2 Ti0 2.578091 1_556
Ni3 Ni4 2.458562 1_455
Ni3 Ni5 2.458563 1_445
Ni3 Ti0 2.539829 1_545
Ni3 Ti0 2.539834 1_555
Ni3 Ta0 2.586755 1_555
Ni3 Ta0 2.586755 1_554
Ni3 Ni4 2.620242 1_555
Ni3 Ni5 2.620243 1_555
Ni4 Ni5 2.458562 1_545
Ni4 Ti0 2.539831 1_545
Ni4 Ti0 2.539831 1_655
Ni4 Ta0 2.586752 1_555
Ni4 Ta0 2.586752 1_554
Ni4 Ni5 2.620242 1_555
Ni5 Ti0 2.539829 1_655
Ni5 Ti0 2.539834 1_555
Ni5 Ta0 2.586755 1_555
Ni5 Ta0 2.586755 1_554
