# generated using pymatgen
data_Na2DyPWO8
_symmetry_space_group_name_H-M   'P 1'
_cell_length_a   11.53624259
_cell_length_b   11.53624259
_cell_length_c   11.53624259
_cell_angle_alpha   144.86441060
_cell_angle_beta   115.78185839
_cell_angle_gamma   75.36038388
_symmetry_Int_Tables_number   1
_chemical_formula_structural   Na2DyPWO8
_chemical_formula_sum   'Na8 Dy4 P4 W4 O32'
_cell_volume   779.77006268
_cell_formula_units_Z   4
loop_
 _symmetry_equiv_pos_site_id
 _symmetry_equiv_pos_as_xyz
  1  'x, y, z'
loop_
 _atom_site_type_symbol
 _atom_site_label
 _atom_site_symmetry_multiplicity
 _atom_site_fract_x
 _atom_site_fract_y
 _atom_site_fract_z
 _atom_site_occupancy
  Na  Na0  1  0.90562000  0.85761100  0.06931800  1
  Na  Na1  1  0.28829300  0.83630200  0.43068200  1
  Na  Na2  1  0.21170700  0.64238900  0.54800900  1
  Na  Na3  1  0.59438000  0.66369800  0.95199100  1
  Na  Na4  1  0.09438000  0.14238900  0.93068200  1
  Na  Na5  1  0.71170700  0.16369800  0.56931800  1
  Na  Na6  1  0.78829300  0.35761100  0.45199100  1
  Na  Na7  1  0.40562000  0.33630200  0.04800900  1
  Dy  Dy0  1  0.17711900  0.75000000  0.92711900  1
  Dy  Dy1  1  0.32288100  0.25000000  0.57288100  1
  Dy  Dy2  1  0.82288100  0.25000000  0.07288100  1
  Dy  Dy3  1  0.67711900  0.75000000  0.42711900  1
  P  P0  1  0.56963500  0.25000000  0.81963500  1
  P  P1  1  0.93036500  0.75000000  0.68036500  1
  P  P2  1  0.43036500  0.75000000  0.18036500  1
  P  P3  1  0.06963500  0.25000000  0.31963500  1
  W  W0  1  0.92805900  0.67805900  0.25000000  1
  W  W1  1  0.57194100  0.82194100  0.75000000  1
  W  W2  1  0.07194100  0.32194100  0.75000000  1
  W  W3  1  0.42805900  0.17805900  0.25000000  1
  O  O0  1  0.42658600  0.16746200  0.72938600  1
  O  O1  1  0.93807600  0.69720000  0.77061400  1
  O  O2  1  0.56192400  0.33253800  0.75912400  1
  O  O3  1  0.07341400  0.80280000  0.74087600  1
  O  O4  1  0.57341400  0.83253800  0.27061400  1
  O  O5  1  0.06192400  0.30280000  0.22938600  1
  O  O6  1  0.43807600  0.66746200  0.24087600  1
  O  O7  1  0.92658600  0.19720000  0.25912400  1
  O  O8  1  0.64037000  0.41551500  0.07265300  1
  O  O9  1  0.84286200  0.56771800  0.42734700  1
  O  O10  1  0.65713800  0.08448500  0.72485500  1
  O  O11  1  0.85963000  0.93228200  0.77514500  1
  O  O12  1  0.35963000  0.58448500  0.92734700  1
  O  O13  1  0.15713800  0.43228200  0.57265300  1
  O  O14  1  0.34286200  0.91551500  0.27514500  1
  O  O15  1  0.14037000  0.06771800  0.22485500  1
  O  O16  1  0.89638600  0.41017600  0.06583200  1
  O  O17  1  0.84434400  0.83055400  0.43416800  1
  O  O18  1  0.65565600  0.08982400  0.98621000  1
  O  O19  1  0.60361400  0.66944600  0.51379000  1
  O  O20  1  0.10361400  0.58982400  0.93416800  1
  O  O21  1  0.15565600  0.16944600  0.56583200  1
  O  O22  1  0.34434400  0.91017600  0.01379000  1
  O  O23  1  0.39638600  0.33055400  0.48621000  1
  O  O24  1  0.10289900  0.77682400  0.41331100  1
  O  O25  1  0.86351200  0.68958800  0.08668900  1
  O  O26  1  0.63648800  0.72317600  0.82607600  1
  O  O27  1  0.39710100  0.81041200  0.67392400  1
  O  O28  1  0.89710100  0.22317600  0.58668900  1
  O  O29  1  0.13648800  0.31041200  0.91331100  1
  O  O30  1  0.36351200  0.27682400  0.17392400  1
  O  O31  1  0.60289900  0.18958800  0.32607600  1
loop_
_geom_bond_atom_site_label_1
_geom_bond_atom_site_label_2
_geom_bond_distance
_geom_bond_site_symmetry_2
Na0 O25 2.286767 1_555
Na0 O1 2.404446 1_554
Na0 O7 2.487672 1_565
Na0 O26 2.766996 1_554
Na0 O15 2.899340 1_665
Na0 O20 2.974019 1_654
Na1 O24 2.286762 1_555
Na1 O0 2.404446 1_565
Na1 O6 2.487672 1_555
Na1 O27 2.766996 1_555
Na1 O14 2.899334 1_555
Na1 O21 2.974019 1_565
Na2 O27 2.286767 1_555
Na2 O3 2.404446 1_555
Na2 O5 2.487672 1_555
Na2 O24 2.767007 1_555
Na2 O13 2.899345 1_555
Na2 O22 2.974019 1_556
Na3 O26 2.286757 1_555
Na3 O2 2.404446 1_555
Na3 O4 2.487672 1_556
Na3 O25 2.766996 1_556
Na3 O12 2.899334 1_555
Na3 O23 2.974019 1_555
Na4 O29 2.286767 1_555
Na4 O5 2.404446 1_556
Na4 O3 2.487672 1_545
Na4 O30 2.766996 1_556
Na4 O11 2.899340 1_445
Na4 O16 2.974019 1_456
Na5 O28 2.286762 1_555
Na5 O4 2.404446 1_545
Na5 O2 2.487672 1_555
Na5 O31 2.766996 1_555
Na5 O10 2.899334 1_555
Na5 O17 2.974019 1_545
Na6 O31 2.286767 1_555
Na6 O7 2.404446 1_555
Na6 O1 2.487672 1_555
Na6 O28 2.767007 1_555
Na6 O9 2.899345 1_555
Na6 O18 2.974019 1_554
Na7 O30 2.286757 1_555
Na7 O6 2.404446 1_555
Na7 O0 2.487672 1_554
Na7 O29 2.766996 1_554
Na7 O8 2.899334 1_555
Na7 O19 2.974019 1_555
Dy0 O20 2.288652 1_555
Dy0 O22 2.288652 1_556
Dy0 O13 2.302572 1_555
Dy0 O15 2.302574 1_566
Dy0 O1 2.440224 1_455
Dy0 O3 2.440224 1_555
Dy0 O14 2.459722 1_556
Dy0 O12 2.459722 1_555
Dy1 O21 2.288652 1_555
Dy1 O23 2.288652 1_555
Dy1 O12 2.302570 1_555
Dy1 O14 2.302570 1_545
Dy1 O0 2.440224 1_555
Dy1 O2 2.440224 1_555
Dy1 O13 2.459715 1_555
Dy1 O15 2.459725 1_555
Dy2 O18 2.288652 1_554
Dy2 O16 2.288652 1_555
Dy2 O9 2.302572 1_555
Dy2 O11 2.302574 1_544
Dy2 O7 2.440224 1_555
Dy2 O5 2.440224 1_655
Dy2 O10 2.459722 1_554
Dy2 O8 2.459722 1_555
Dy3 O19 2.288652 1_555
Dy3 O17 2.288652 1_555
Dy3 O10 2.302570 1_565
Dy3 O8 2.302570 1_555
Dy3 O4 2.440224 1_555
Dy3 O6 2.440224 1_555
Dy3 O9 2.459715 1_555
Dy3 O11 2.459725 1_555
O0 P0 1.546666 1_555
O1 P1 1.546666 1_555
O2 P0 1.546666 1_555
O3 P1 1.546666 1_455
O4 P2 1.546666 1_555
O5 P3 1.546666 1_555
O6 P2 1.546666 1_555
O7 P3 1.546666 1_655
O8 P0 1.559340 1_554
O9 P1 1.559341 1_555
O10 P0 1.559340 1_555
O11 P1 1.559333 1_555
O12 P2 1.559340 1_556
O13 P3 1.559341 1_555
O14 P2 1.559340 1_555
O15 P3 1.559333 1_555
O16 W0 1.831488 1_555
O17 W0 1.831488 1_555
O18 W1 1.831488 1_545
O19 W1 1.831488 1_555
O20 W2 1.831488 1_555
O21 W2 1.831488 1_555
O22 W3 1.831488 1_565
O23 W3 1.831488 1_555
O24 W0 1.805831 1_455
O25 W0 1.805830 1_555
O26 W1 1.805841 1_555
O27 W1 1.805830 1_555
O28 W2 1.805831 1_655
O29 W2 1.805830 1_555
O30 W3 1.805841 1_555
O31 W3 1.805830 1_555
