# generated using pymatgen
data_SrP2WO8
_symmetry_space_group_name_H-M   'P 1'
_cell_length_a   5.75618849
_cell_length_b   7.14811800
_cell_length_c   9.33491209
_cell_angle_alpha   110.90244749
_cell_angle_beta   100.40801428
_cell_angle_gamma   98.35008040
_symmetry_Int_Tables_number   1
_chemical_formula_structural   SrP2WO8
_chemical_formula_sum   'Sr2 P4 W2 O16'
_cell_volume   343.60018910
_cell_formula_units_Z   2
loop_
 _symmetry_equiv_pos_site_id
 _symmetry_equiv_pos_as_xyz
  1  'x, y, z'
loop_
 _atom_site_type_symbol
 _atom_site_label
 _atom_site_symmetry_multiplicity
 _atom_site_fract_x
 _atom_site_fract_y
 _atom_site_fract_z
 _atom_site_occupancy
  Sr  Sr0  1  0.24667600  0.75163300  0.02121500  1
  Sr  Sr1  1  0.75332400  0.24836700  0.97878500  1
  P  P0  1  0.38749700  0.44655100  0.23182800  1
  P  P1  1  0.61250300  0.55344900  0.76817200  1
  P  P2  1  0.84465100  0.03802300  0.30374900  1
  P  P3  1  0.15534900  0.96197700  0.69625100  1
  W  W0  1  0.66433000  0.84436800  0.56382600  1
  W  W1  1  0.33567000  0.15563200  0.43617400  1
  O  O0  1  0.83555900  0.55433000  0.88465800  1
  O  O1  1  0.61977100  0.48610000  0.18287600  1
  O  O2  1  0.64471500  0.76696400  0.74768200  1
  O  O3  1  0.95541600  0.09591200  0.70577600  1
  O  O4  1  0.38022900  0.51390000  0.81712400  1
  O  O5  1  0.99341300  0.74933900  0.57571400  1
  O  O6  1  0.00658700  0.25066100  0.42428600  1
  O  O7  1  0.28561300  0.98428900  0.85878600  1
  O  O8  1  0.35528500  0.23303600  0.25231800  1
  O  O9  1  0.71438700  0.01571100  0.14121400  1
  O  O10  1  0.16444100  0.44567000  0.11534200  1
  O  O11  1  0.40272300  0.61412000  0.40127100  1
  O  O12  1  0.59727700  0.38588000  0.59872900  1
  O  O13  1  0.64096600  0.97612100  0.38795900  1
  O  O14  1  0.04458400  0.90408800  0.29422400  1
  O  O15  1  0.35903400  0.02387900  0.61204100  1
loop_
_geom_bond_atom_site_label_1
_geom_bond_atom_site_label_2
_geom_bond_distance
_geom_bond_site_symmetry_2
O0 P1 1.522925 1_555
O0 Sr0 2.423231 1_656
O0 Sr1 2.645787 1_555
O1 P0 1.509797 1_555
O1 Sr1 2.388908 1_554
O2 P1 1.593509 1_555
O2 W0 1.998491 1_555
O3 P3 1.595365 1_645
O3 W0 2.102144 1_545
O3 Sr1 2.914335 1_555
O4 P1 1.509797 1_555
O4 Sr0 2.388908 1_556
O5 P3 1.560259 1_655
O5 W0 2.100840 1_555
O6 P2 1.560259 1_455
O6 W1 2.100840 1_555
O7 P3 1.507071 1_555
O7 Sr0 2.632275 1_556
O7 Sr1 2.826956 1_565
O8 P0 1.593509 1_555
O8 W1 1.998491 1_555
O9 P2 1.507071 1_555
O9 Sr1 2.632275 1_554
O9 Sr0 2.826956 1_545
O10 P0 1.522925 1_555
O10 Sr1 2.423231 1_454
O10 Sr0 2.645787 1_555
O11 P0 1.584870 1_555
O11 W0 1.987835 1_555
O12 P1 1.584870 1_555
O12 W1 1.987835 1_555
O13 P2 1.618300 1_565
O13 W0 2.158819 1_555
O13 W1 2.337938 1_565
O14 P2 1.595365 1_465
O14 W1 2.102144 1_565
O14 Sr0 2.914335 1_555
O15 P3 1.618300 1_545
O15 W1 2.158819 1_555
O15 W0 2.337938 1_545
