# generated using pymatgen
data_Rb2Ti(WO4)3
_symmetry_space_group_name_H-M   'P 1'
_cell_length_a   7.32216065
_cell_length_b   7.32216065
_cell_length_c   7.32355425
_cell_angle_alpha   60.57940289
_cell_angle_beta   60.57940289
_cell_angle_gamma   60.61150472
_symmetry_Int_Tables_number   1
_chemical_formula_structural   Rb2Ti(WO4)3
_chemical_formula_sum   'Rb2 Ti1 W3 O12'
_cell_volume   281.34262658
_cell_formula_units_Z   1
loop_
 _symmetry_equiv_pos_site_id
 _symmetry_equiv_pos_as_xyz
  1  'x, y, z'
loop_
 _atom_site_type_symbol
 _atom_site_label
 _atom_site_symmetry_multiplicity
 _atom_site_fract_x
 _atom_site_fract_y
 _atom_site_fract_z
 _atom_site_occupancy
  Rb  Rb0  1  0.82222800  0.89356700  0.39051900  1
  Rb  Rb1  1  0.10643300  0.17777200  0.60948100  1
  Ti  Ti0  1  0.49860900  0.50139100  0.00000000  1
  W  W0  1  0.99844200  0.50206800  0.00008400  1
  W  W1  1  0.49793200  0.00155800  0.99991600  1
  W  W2  1  0.49811200  0.50188800  0.50000000  1
  O  O0  1  0.18688100  0.18772000  0.06092200  1
  O  O1  1  0.56225100  0.55972100  0.68556000  1
  O  O2  1  0.18601200  0.55929200  0.06218400  1
  O  O3  1  0.56073700  0.18772300  0.68708100  1
  O  O4  1  0.56032300  0.18614600  0.06075300  1
  O  O5  1  0.18685500  0.56021300  0.68702300  1
  O  O6  1  0.81228000  0.81311900  0.93907800  1
  O  O7  1  0.44027900  0.43774900  0.31444000  1
  O  O8  1  0.81385400  0.43967700  0.93924700  1
  O  O9  1  0.43978700  0.81314500  0.31297700  1
  O  O10  1  0.44070800  0.81398800  0.93781600  1
  O  O11  1  0.81227700  0.43926300  0.31291900  1
loop_
_geom_bond_atom_site_label_1
_geom_bond_atom_site_label_2
_geom_bond_distance
_geom_bond_site_symmetry_2
O0 W1 1.948485 1_554
O0 W0 1.969683 1_455
O0 Rb0 3.435033 1_445
O1 W2 1.906357 1_555
O1 Ti0 1.969102 1_556
O1 Rb0 3.099179 1_555
O2 W0 1.906393 1_455
O2 Ti0 1.959426 1_555
O2 Rb0 3.458153 1_455
O3 W1 1.957185 1_555
O3 W2 1.965886 1_555
O3 Rb0 3.079783 1_545
O4 W1 1.905666 1_554
O4 Ti0 1.973604 1_555
O4 Rb0 3.087810 1_545
O5 W2 1.950696 1_555
O5 W0 1.962431 1_456
O5 Rb0 3.448739 1_455
O6 W0 1.948485 1_556
O6 W1 1.969683 1_565
O6 Rb1 3.435033 1_665
O7 W2 1.906357 1_555
O7 Ti0 1.969102 1_555
O7 Rb1 3.099179 1_555
O8 W0 1.905666 1_556
O8 Ti0 1.973604 1_556
O8 Rb1 3.087810 1_655
O9 W2 1.950696 1_555
O9 W1 1.962431 1_564
O9 Rb1 3.448739 1_565
O10 W1 1.906393 1_565
O10 Ti0 1.959426 1_556
O10 Rb1 3.458153 1_565
O11 W0 1.957185 1_555
O11 W2 1.965886 1_555
O11 Rb1 3.079783 1_655
