# generated using pymatgen
data_K6MgO4
_symmetry_space_group_name_H-M   'P 1'
_cell_length_a   8.44923324
_cell_length_b   8.44926331
_cell_length_c   6.58430833
_cell_angle_alpha   90.00000477
_cell_angle_beta   90.00001390
_cell_angle_gamma   120.00103973
_symmetry_Int_Tables_number   1
_chemical_formula_structural   K6MgO4
_chemical_formula_sum   'K12 Mg2 O8'
_cell_volume   407.07308147
_cell_formula_units_Z   2
loop_
 _symmetry_equiv_pos_site_id
 _symmetry_equiv_pos_as_xyz
  1  'x, y, z'
loop_
 _atom_site_type_symbol
 _atom_site_label
 _atom_site_symmetry_multiplicity
 _atom_site_fract_x
 _atom_site_fract_y
 _atom_site_fract_z
 _atom_site_occupancy
  K  K0  1  0.07073286  0.53536668  0.32099873  1
  K  K1  1  0.53536877  0.46463071  0.82100008  1
  K  K2  1  0.46463014  0.92926431  0.32099557  1
  K  K3  1  0.53536857  0.07073442  0.82099718  1
  K  K4  1  0.92926571  0.46463221  0.82099837  1
  K  K5  1  0.46463087  0.53537040  0.32099875  1
  K  K6  1  0.85585202  0.14414811  0.49937757  1
  K  K7  1  0.71170816  0.85585644  0.99938088  1
  K  K8  1  0.14414530  0.28829513  0.99938156  1
  K  K9  1  0.85585476  0.71170508  0.49938099  1
  K  K10  1  0.28829523  0.14414416  0.49937967  1
  K  K11  1  0.14414830  0.85585167  0.99937707  1
  Mg  Mg0  1  0.33333518  0.66666736  0.71509627  1
  Mg  Mg1  1  0.66666522  0.33333293  0.21509623  1
  O  O0  1  0.33333351  0.66666667  0.02038564  1
  O  O1  1  0.66666674  0.33333361  0.52038598  1
  O  O2  1  0.79857586  0.20142447  0.11638716  1
  O  O3  1  0.59715411  0.79858117  0.61639908  1
  O  O4  1  0.20142449  0.40285156  0.61639743  1
  O  O5  1  0.79857570  0.59714863  0.11639785  1
  O  O6  1  0.40284637  0.20141906  0.11639918  1
  O  O7  1  0.20142413  0.79857522  0.61638677  1
loop_
_geom_bond_atom_site_label_1
_geom_bond_atom_site_label_2
_geom_bond_distance
_geom_bond_site_symmetry_2
K0 O7 2.737166 1_555
K0 O4 2.737225 1_555
K0 O0 2.758603 1_555
K0 O5 2.928400 1_455
K0 O2 2.928410 1_455
K1 O5 2.737198 1_556
K1 O6 2.737234 1_556
K1 O1 2.758602 1_555
K1 O4 2.928435 1_555
K1 O3 2.928469 1_555
K2 O7 2.737164 1_555
K2 O3 2.737250 1_555
K2 O0 2.758576 1_555
K2 O6 2.928384 1_565
K2 O2 2.928423 1_565
K3 O2 2.737164 1_556
K3 O6 2.737242 1_556
K3 O1 2.758591 1_555
K3 O3 2.928386 1_545
K3 O7 2.928420 1_545
K4 O2 2.737166 1_556
K4 O5 2.737228 1_556
K4 O1 2.758590 1_555
K4 O4 2.928406 1_655
K4 O7 2.928418 1_655
K5 O4 2.737200 1_555
K5 O3 2.737235 1_555
K5 O0 2.758590 1_555
K5 O5 2.928436 1_555
K5 O6 2.928473 1_555
K6 O2 2.657388 1_555
K6 O3 2.741219 1_545
K6 O4 2.741254 1_655
K6 O1 2.772107 1_555
K7 O3 2.657333 1_555
K7 O2 2.741229 1_566
K7 O5 2.741326 1_556
K7 O0 2.772085 1_556
K8 O4 2.657354 1_555
K8 O2 2.741222 1_456
K8 O6 2.741317 1_556
K8 O0 2.772072 1_556
K9 O5 2.657348 1_555
K9 O7 2.741223 1_655
K9 O3 2.741315 1_555
K9 O1 2.772072 1_555
K10 O6 2.657319 1_555
K10 O7 2.741230 1_545
K10 O4 2.741342 1_555
K10 O1 2.772063 1_555
K11 O7 2.657387 1_555
K11 O6 2.741223 1_566
K11 O5 2.741256 1_456
K11 O0 2.772102 1_556
Mg0 O0 2.010119 1_556
Mg0 O4 2.036845 1_555
Mg0 O3 2.036857 1_555
Mg0 O7 2.036915 1_555
Mg1 O1 2.010122 1_555
Mg1 O5 2.036844 1_555
Mg1 O6 2.036856 1_555
Mg1 O2 2.036915 1_555
