# generated using pymatgen
data_PuHf3
_symmetry_space_group_name_H-M   'P 1'
_cell_length_a   6.36608943
_cell_length_b   6.36608943
_cell_length_c   5.14676800
_cell_angle_alpha   90.00000000
_cell_angle_beta   90.00000000
_cell_angle_gamma   119.99999403
_symmetry_Int_Tables_number   1
_chemical_formula_structural   PuHf3
_chemical_formula_sum   'Pu2 Hf6'
_cell_volume   180.63866702
_cell_formula_units_Z   2
loop_
 _symmetry_equiv_pos_site_id
 _symmetry_equiv_pos_as_xyz
  1  'x, y, z'
loop_
 _atom_site_type_symbol
 _atom_site_label
 _atom_site_symmetry_multiplicity
 _atom_site_fract_x
 _atom_site_fract_y
 _atom_site_fract_z
 _atom_site_occupancy
  Pu  Pu0  1  0.33333300  0.66666700  0.75000000  1
  Pu  Pu1  1  0.66666700  0.33333300  0.25000000  1
  Hf  Hf0  1  0.16457100  0.32914300  0.25000000  1
  Hf  Hf1  1  0.67085700  0.83542900  0.25000000  1
  Hf  Hf2  1  0.16457100  0.83542900  0.25000000  1
  Hf  Hf3  1  0.83542900  0.67085700  0.75000000  1
  Hf  Hf4  1  0.32914300  0.16457100  0.75000000  1
  Hf  Hf5  1  0.83542900  0.16457100  0.75000000  1
loop_
_geom_bond_atom_site_label_1
_geom_bond_atom_site_label_2
_geom_bond_distance
_geom_bond_site_symmetry_2
Hf0 Hf2 3.143027 1_545
Hf0 Hf1 3.143028 1_445
Hf0 Hf5 3.148836 1_455
Hf0 Hf5 3.148836 1_454
Hf0 Hf4 3.148842 1_554
Hf0 Hf4 3.148842 1_555
Hf0 Pu0 3.175691 1_554
Hf0 Pu0 3.175691 1_555
Hf0 Pu1 3.183122 1_455
Hf0 Pu1 3.183135 1_555
Hf0 Hf2 3.223062 1_555
Hf0 Hf1 3.223062 1_555
Hf1 Hf2 3.143027 1_655
Hf1 Hf5 3.148836 1_565
Hf1 Hf5 3.148836 1_564
Hf1 Hf3 3.148842 1_554
Hf1 Hf3 3.148842 1_555
Hf1 Pu0 3.175691 1_555
Hf1 Pu0 3.175691 1_554
Hf1 Pu1 3.183122 1_565
Hf1 Pu1 3.183135 1_555
Hf1 Hf2 3.223062 1_555
Hf2 Hf3 3.148836 1_454
Hf2 Hf4 3.148836 1_565
Hf2 Hf4 3.148836 1_564
Hf2 Hf3 3.148836 1_455
Hf2 Pu0 3.175691 1_555
Hf2 Pu0 3.175691 1_554
Hf2 Pu1 3.183129 1_455
Hf2 Pu1 3.183129 1_565
Hf3 Hf5 3.143027 1_565
Hf3 Hf4 3.143028 1_665
Hf3 Pu1 3.175691 1_556
Hf3 Pu1 3.175691 1_555
Hf3 Pu0 3.183122 1_655
Hf3 Pu0 3.183135 1_555
Hf3 Hf5 3.223062 1_555
Hf3 Hf4 3.223062 1_555
Hf4 Hf5 3.143027 1_455
Hf4 Pu1 3.175691 1_555
Hf4 Pu1 3.175691 1_556
Hf4 Pu0 3.183122 1_545
Hf4 Pu0 3.183135 1_555
Hf4 Hf5 3.223062 1_555
Hf5 Pu1 3.175691 1_556
Hf5 Pu1 3.175691 1_555
Hf5 Pu0 3.183129 1_545
Hf5 Pu0 3.183129 1_655
