# generated using pymatgen
data_Pr2MgS4
_symmetry_space_group_name_H-M   'P 1'
_cell_length_a   7.13550400
_cell_length_b   8.31972700
_cell_length_c   11.85868600
_cell_angle_alpha   90.00000000
_cell_angle_beta   90.00000000
_cell_angle_gamma   90.00000000
_symmetry_Int_Tables_number   1
_chemical_formula_structural   Pr2MgS4
_chemical_formula_sum   'Pr8 Mg4 S16'
_cell_volume   703.99617491
_cell_formula_units_Z   4
loop_
 _symmetry_equiv_pos_site_id
 _symmetry_equiv_pos_as_xyz
  1  'x, y, z'
loop_
 _atom_site_type_symbol
 _atom_site_label
 _atom_site_symmetry_multiplicity
 _atom_site_fract_x
 _atom_site_fract_y
 _atom_site_fract_z
 _atom_site_occupancy
  Pr  Pr0  1  0.75000000  0.02972200  0.31633100  1
  Pr  Pr1  1  0.25000000  0.97027800  0.68366900  1
  Pr  Pr2  1  0.25000000  0.47027800  0.81633100  1
  Pr  Pr3  1  0.75000000  0.52972200  0.18366900  1
  Pr  Pr4  1  0.25000000  0.09217200  0.03985800  1
  Pr  Pr5  1  0.75000000  0.90782800  0.96014200  1
  Pr  Pr6  1  0.75000000  0.40782800  0.53985800  1
  Pr  Pr7  1  0.25000000  0.59217200  0.46014200  1
  Mg  Mg0  1  0.25000000  0.19583300  0.41873900  1
  Mg  Mg1  1  0.75000000  0.80416700  0.58126100  1
  Mg  Mg2  1  0.75000000  0.30416700  0.91873900  1
  Mg  Mg3  1  0.25000000  0.69583300  0.08126100  1
  S  S0  1  0.49194800  0.14556000  0.84754000  1
  S  S1  1  0.50805200  0.85444000  0.15246000  1
  S  S2  1  0.50805200  0.35444000  0.34754000  1
  S  S3  1  0.49194800  0.64556000  0.65246000  1
  S  S4  1  0.00805200  0.64556000  0.65246000  1
  S  S5  1  0.99194800  0.35444000  0.34754000  1
  S  S6  1  0.99194800  0.85444000  0.15246000  1
  S  S7  1  0.00805200  0.14556000  0.84754000  1
  S  S8  1  0.25000000  0.91759500  0.44096400  1
  S  S9  1  0.75000000  0.08240500  0.55903600  1
  S  S10  1  0.75000000  0.58240500  0.94096400  1
  S  S11  1  0.25000000  0.41759500  0.05903600  1
  S  S12  1  0.75000000  0.20203300  0.10897900  1
  S  S13  1  0.25000000  0.79796700  0.89102100  1
  S  S14  1  0.25000000  0.29796700  0.60897900  1
  S  S15  1  0.75000000  0.70203300  0.39102100  1
loop_
_geom_bond_atom_site_label_1
_geom_bond_atom_site_label_2
_geom_bond_distance
_geom_bond_site_symmetry_2
Pr0 S12 2.846305 1_555
Pr0 S15 2.866553 1_545
Pr0 S9 2.911346 1_555
Pr0 S6 2.980530 1_545
Pr0 S1 2.980530 1_545
Pr0 S5 3.227376 1_555
Pr0 S2 3.227376 1_555
Pr1 S13 2.846305 1_555
Pr1 S14 2.866553 1_565
Pr1 S8 2.911346 1_555
Pr1 S7 2.980530 1_565
Pr1 S0 2.980530 1_565
Pr1 S3 3.227376 1_555
Pr1 S4 3.227376 1_555
Pr2 S14 2.846305 1_555
Pr2 S13 2.866553 1_555
Pr2 S11 2.911346 1_556
Pr2 S4 2.980530 1_555
Pr2 S3 2.980530 1_555
Pr2 S0 3.227376 1_555
Pr2 S7 3.227376 1_555
Pr3 S15 2.846305 1_555
Pr3 S12 2.866553 1_555
Pr3 S10 2.911346 1_554
Pr3 S5 2.980530 1_555
Pr3 S2 2.980530 1_555
Pr3 S1 3.227376 1_555
Pr3 S6 3.227376 1_555
Pr4 S11 2.716966 1_555
Pr4 S0 2.894673 1_554
Pr4 S7 2.894673 1_554
Pr4 S1 3.014218 1_545
Pr4 S6 3.014218 1_445
Pr4 S13 3.017702 1_544
Pr5 S10 2.716966 1_555
Pr5 S6 2.894673 1_556
Pr5 S1 2.894673 1_556
Pr5 S7 3.014218 1_665
Pr5 S0 3.014218 1_565
Pr5 S12 3.017702 1_566
Pr6 S9 2.716966 1_555
Pr6 S5 2.894673 1_555
Pr6 S2 2.894673 1_555
Pr6 S4 3.014218 1_655
Pr6 S3 3.014218 1_555
Pr6 S15 3.017702 1_555
Pr7 S8 2.716966 1_555
Pr7 S3 2.894673 1_555
Pr7 S4 2.894673 1_555
Pr7 S2 3.014218 1_555
Pr7 S5 3.014218 1_455
Pr7 S14 3.017702 1_555
Mg0 S8 2.329820 1_545
Mg0 S14 2.410717 1_555
Mg0 S5 2.417570 1_455
Mg0 S2 2.417570 1_555
Mg1 S9 2.329820 1_565
Mg1 S15 2.410717 1_555
Mg1 S4 2.417570 1_655
Mg1 S3 2.417570 1_555
Mg2 S10 2.329820 1_555
Mg2 S12 2.410717 1_556
Mg2 S7 2.417570 1_655
Mg2 S0 2.417570 1_555
Mg3 S11 2.329820 1_555
Mg3 S13 2.410717 1_554
Mg3 S1 2.417570 1_555
Mg3 S6 2.417570 1_455
