# generated using pymatgen
data_Mg6NbC
_symmetry_space_group_name_H-M   'P 1'
_cell_length_a   6.57054797
_cell_length_b   6.57054797
_cell_length_c   4.55968900
_cell_angle_alpha   90.00000000
_cell_angle_beta   90.00000000
_cell_angle_gamma   130.06504390
_symmetry_Int_Tables_number   1
_chemical_formula_structural   Mg6NbC
_chemical_formula_sum   'Mg6 Nb1 C1'
_cell_volume   150.65314249
_cell_formula_units_Z   1
loop_
 _symmetry_equiv_pos_site_id
 _symmetry_equiv_pos_as_xyz
  1  'x, y, z'
loop_
 _atom_site_type_symbol
 _atom_site_label
 _atom_site_symmetry_multiplicity
 _atom_site_fract_x
 _atom_site_fract_y
 _atom_site_fract_z
 _atom_site_occupancy
  Mg  Mg0  1  0.30816700  0.20097500  0.50000000  1
  Mg  Mg1  1  0.79902500  0.69183300  0.50000000  1
  Mg  Mg2  1  0.16593100  0.33892600  0.00000000  1
  Mg  Mg3  1  0.66107400  0.83406900  0.00000000  1
  Mg  Mg4  1  0.66338600  0.33661400  0.00000000  1
  Mg  Mg5  1  0.19837700  0.80162300  0.00000000  1
  Nb  Nb0  1  0.81130900  0.18869100  0.50000000  1
  C  C0  1  0.39273500  0.60726500  0.50000000  1
loop_
_geom_bond_atom_site_label_1
_geom_bond_atom_site_label_2
_geom_bond_distance
_geom_bond_site_symmetry_2
Mg0 Mg5 3.188500 1_545
Mg0 Mg5 3.188500 1_546
Mg0 Nb0 3.213272 1_455
Mg0 Nb0 3.358438 1_555
Mg1 Mg5 3.188500 1_656
Mg1 Mg5 3.188500 1_655
Mg1 Nb0 3.213272 1_565
Mg1 Nb0 3.358438 1_555
Mg2 Mg5 2.907534 1_555
Mg2 Nb0 2.939454 1_455
Mg2 Nb0 2.939454 1_454
Mg3 Mg5 2.907534 1_555
Mg3 Nb0 2.939454 1_564
Mg3 Nb0 2.939454 1_565
Mg4 Mg5 2.804604 1_545
Mg4 Mg5 2.804604 1_655
Mg4 Nb0 2.881506 1_555
Mg4 Nb0 2.881506 1_554
C0 Mg0 2.350680 1_555
C0 Mg1 2.350680 1_555
C0 Mg2 2.672963 1_555
C0 Mg2 2.672963 1_556
C0 Mg3 2.672963 1_556
C0 Mg3 2.672963 1_555
C0 Nb0 2.938197 1_455
C0 Nb0 2.938197 1_565
