# generated using pymatgen
data_Ca(DyTe2)2
_symmetry_space_group_name_H-M   'P 1'
_cell_length_a   4.40630083
_cell_length_b   7.53398750
_cell_length_c   7.71809716
_cell_angle_alpha   72.06286773
_cell_angle_beta   90.00000000
_cell_angle_gamma   90.00000000
_symmetry_Int_Tables_number   1
_chemical_formula_structural   Ca(DyTe2)2
_chemical_formula_sum   'Ca1 Dy2 Te4'
_cell_volume   243.76432743
_cell_formula_units_Z   1
loop_
 _symmetry_equiv_pos_site_id
 _symmetry_equiv_pos_as_xyz
  1  'x, y, z'
loop_
 _atom_site_type_symbol
 _atom_site_label
 _atom_site_symmetry_multiplicity
 _atom_site_fract_x
 _atom_site_fract_y
 _atom_site_fract_z
 _atom_site_occupancy
  Ca  Ca0  1  0.00000000  0.50000000  0.50000000  1
  Dy  Dy0  1  -0.00000000  -0.00000000  0.00000000  1
  Dy  Dy1  1  0.50000000  0.50000000  0.00000000  1
  Te  Te0  1  0.50000000  0.75969141  0.24461706  1
  Te  Te1  1  -0.00000000  0.25501491  0.23709715  1
  Te  Te2  1  0.50000000  0.24030859  0.75538294  1
  Te  Te3  1  0.00000000  0.74498509  0.76290285  1
loop_
_geom_bond_atom_site_label_1
_geom_bond_atom_site_label_2
_geom_bond_distance
_geom_bond_site_symmetry_2
Ca0 Te3 3.135405 1_555
Ca0 Te1 3.135405 1_555
Ca0 Te2 3.192425 1_455
Ca0 Te0 3.192425 1_555
Ca0 Te2 3.192425 1_555
Ca0 Te0 3.192425 1_455
Dy0 Te3 3.034065 1_544
Dy0 Te1 3.034065 1_555
Dy0 Te0 3.096899 1_445
Dy0 Te0 3.096899 1_545
Dy0 Te2 3.096899 1_454
Dy0 Te2 3.096899 1_554
Dy1 Te3 3.086879 1_554
Dy1 Te3 3.086879 1_654
Dy1 Te1 3.086879 1_555
Dy1 Te1 3.086879 1_655
Dy1 Te0 3.109279 1_555
Dy1 Te2 3.109279 1_554
