# generated using pymatgen
data_YBO3
_symmetry_space_group_name_H-M   'P 1'
_cell_length_a   3.95142725
_cell_length_b   3.98674911
_cell_length_c   8.41153500
_cell_angle_alpha   90.00000000
_cell_angle_beta   90.00000000
_cell_angle_gamma   111.71590228
_symmetry_Int_Tables_number   1
_chemical_formula_structural   YBO3
_chemical_formula_sum   'Y2 B2 O6'
_cell_volume   123.10561187
_cell_formula_units_Z   2
loop_
 _symmetry_equiv_pos_site_id
 _symmetry_equiv_pos_as_xyz
  1  'x, y, z'
loop_
 _atom_site_type_symbol
 _atom_site_label
 _atom_site_symmetry_multiplicity
 _atom_site_fract_x
 _atom_site_fract_y
 _atom_site_fract_z
 _atom_site_occupancy
  Y  Y0  1  0.07996300  0.07718800  0.00017200  1
  Y  Y1  1  0.07996300  0.07718800  0.49982800  1
  B  B0  1  0.49699000  0.76832600  0.75000000  1
  B  B1  1  0.76759900  0.49054500  0.25000000  1
  O  O0  1  0.99555700  0.84900600  0.25000000  1
  O  O1  1  0.33171300  0.67095800  0.60185200  1
  O  O2  1  0.33171300  0.67095800  0.89814800  1
  O  O3  1  0.67070000  0.32385000  0.39763900  1
  O  O4  1  0.67070000  0.32385000  0.10236100  1
  O  O5  1  0.85810100  0.00013100  0.75000000  1
loop_
_geom_bond_atom_site_label_1
_geom_bond_atom_site_label_2
_geom_bond_distance
_geom_bond_site_symmetry_2
B0 O5 1.383574 1_565
B0 O2 1.393733 1_555
B0 O1 1.393733 1_555
B1 O0 1.378799 1_555
B1 O3 1.393629 1_555
B1 O4 1.393629 1_555
O0 Y1 2.265019 1_665
O0 Y0 2.265019 1_665
O1 Y1 2.353964 1_565
O1 Y1 2.363712 1_555
O2 Y0 2.353964 1_566
O2 Y0 2.363712 1_556
O3 Y1 2.335802 1_555
O3 Y1 2.344775 1_655
O4 Y0 2.335802 1_555
O4 Y0 2.344775 1_655
O5 Y0 2.256510 1_656
O5 Y1 2.256510 1_655
