# generated using pymatgen
data_Mg6CdB
_symmetry_space_group_name_H-M   'P 1'
_cell_length_a   4.80622200
_cell_length_b   6.14238000
_cell_length_c   11.05610500
_cell_angle_alpha   90.00000000
_cell_angle_beta   90.00000000
_cell_angle_gamma   90.00000000
_symmetry_Int_Tables_number   1
_chemical_formula_structural   Mg6CdB
_chemical_formula_sum   'Mg12 Cd2 B2'
_cell_volume   326.39437249
_cell_formula_units_Z   2
loop_
 _symmetry_equiv_pos_site_id
 _symmetry_equiv_pos_as_xyz
  1  'x, y, z'
loop_
 _atom_site_type_symbol
 _atom_site_label
 _atom_site_symmetry_multiplicity
 _atom_site_fract_x
 _atom_site_fract_y
 _atom_site_fract_z
 _atom_site_occupancy
  Mg  Mg0  1  0.00000000  0.27270300  0.10198000  1
  Mg  Mg1  1  0.00000000  0.72729700  0.10198000  1
  Mg  Mg2  1  0.00000000  0.00000000  0.33743600  1
  Mg  Mg3  1  0.50000000  0.75083100  0.42208300  1
  Mg  Mg4  1  0.50000000  0.24916900  0.42208300  1
  Mg  Mg5  1  0.50000000  0.00000000  0.16720200  1
  Mg  Mg6  1  0.00000000  0.77270300  0.60198000  1
  Mg  Mg7  1  0.00000000  0.22729700  0.60198000  1
  Mg  Mg8  1  0.00000000  0.50000000  0.83743600  1
  Mg  Mg9  1  0.50000000  0.25083100  0.92208300  1
  Mg  Mg10  1  0.50000000  0.74916900  0.92208300  1
  Mg  Mg11  1  0.50000000  0.50000000  0.66720200  1
  Cd  Cd0  1  0.00000000  0.50000000  0.35170000  1
  Cd  Cd1  1  0.00000000  0.00000000  0.85170000  1
  B  B0  1  0.50000000  0.50000000  0.09553600  1
  B  B1  1  0.50000000  0.00000000  0.59553600  1
loop_
_geom_bond_atom_site_label_1
_geom_bond_atom_site_label_2
_geom_bond_distance
_geom_bond_site_symmetry_2
Mg0 Mg5 3.016738 1_455
Mg0 Mg5 3.016738 1_555
Mg0 Mg2 3.095572 1_555
Mg0 Mg8 3.240961 1_554
Mg1 Mg5 3.016738 1_465
Mg1 Mg5 3.016738 1_565
Mg1 Mg2 3.095572 1_565
Mg1 Mg8 3.240961 1_554
Mg2 Mg3 2.998865 1_445
Mg2 Mg3 2.998865 1_545
Mg2 Mg4 2.998865 1_455
Mg2 Mg4 2.998865 1_555
Mg2 Mg5 3.052431 1_455
Mg2 Mg5 3.052431 1_555
Mg2 Mg6 3.240961 1_545
Mg2 Mg7 3.240961 1_555
Mg3 Mg5 3.206786 1_565
Mg4 Mg5 3.206786 1_555
Mg5 Mg9 3.117401 1_554
Mg6 Mg8 3.095572 1_555
Mg7 Mg8 3.095572 1_555
Mg8 Mg9 2.998865 1_455
Mg8 Mg9 2.998865 1_555
Mg10 Mg8 2.998865 1_555
Mg10 Mg8 2.998865 1_655
Mg10 Mg5 3.117401 1_566
Mg10 Mg11 3.206786 1_555
Mg11 Mg7 3.016738 1_555
Mg11 Mg6 3.016738 1_655
Mg11 Mg7 3.016738 1_655
Mg11 Mg6 3.016738 1_555
Mg11 Mg8 3.052431 1_655
Mg11 Mg8 3.052431 1_555
Mg11 Mg3 3.117401 1_555
Mg11 Mg4 3.117401 1_555
Mg11 Mg9 3.206786 1_555
Cd0 Mg3 2.958755 1_555
Cd0 Mg4 2.958755 1_555
Cd0 Mg3 2.958755 1_455
Cd0 Mg4 2.958755 1_455
Cd0 Mg2 3.075236 1_565
Cd0 Mg2 3.075236 1_555
Cd0 Mg0 3.093858 1_555
Cd0 Mg1 3.093858 1_555
Cd0 Mg7 3.234616 1_555
Cd0 Mg6 3.234616 1_555
Cd1 Mg10 2.958755 1_445
Cd1 Mg10 2.958755 1_545
Cd1 Mg9 2.958755 1_455
Cd1 Mg9 2.958755 1_555
Cd1 Mg8 3.075236 1_555
Cd1 Mg8 3.075236 1_545
Cd1 Mg6 3.093858 1_545
Cd1 Mg7 3.093858 1_555
Cd1 Mg0 3.234616 1_556
Cd1 Mg1 3.234616 1_546
B0 Mg10 2.453575 1_554
B0 Mg9 2.453575 1_554
B0 Mg0 2.780151 1_655
B0 Mg1 2.780151 1_655
B0 Mg1 2.780151 1_555
B0 Mg0 2.780151 1_555
B1 Mg3 2.453575 1_545
B1 Mg4 2.453575 1_555
B1 Mg7 2.780151 1_555
B1 Mg7 2.780151 1_655
B1 Mg6 2.780151 1_645
B1 Mg6 2.780151 1_545
