# generated using pymatgen
data_MgMn6Nb4O18
_symmetry_space_group_name_H-M   'P 1'
_cell_length_a   5.38884715
_cell_length_b   5.56942453
_cell_length_c   15.20875422
_cell_angle_alpha   100.85308388
_cell_angle_beta   88.95786009
_cell_angle_gamma   120.82654149
_symmetry_Int_Tables_number   1
_chemical_formula_structural   MgMn6Nb4O18
_chemical_formula_sum   'Mg1 Mn6 Nb4 O18'
_cell_volume   383.29609881
_cell_formula_units_Z   1
loop_
 _symmetry_equiv_pos_site_id
 _symmetry_equiv_pos_as_xyz
  1  'x, y, z'
loop_
 _atom_site_type_symbol
 _atom_site_label
 _atom_site_symmetry_multiplicity
 _atom_site_fract_x
 _atom_site_fract_y
 _atom_site_fract_z
 _atom_site_occupancy
  Mg  Mg0  1  0.18754900  0.23467100  0.54025900  1
  Mn  Mn0  1  0.57326900  0.13976100  0.69560600  1
  Mn  Mn1  1  0.68491900  0.33497400  0.97662600  1
  Mn  Mn2  1  0.73416300  0.51763100  0.43445200  1
  Mn  Mn3  1  0.45611600  0.89216200  0.48399800  1
  Mn  Mn4  1  0.36322500  0.68756200  0.00164400  1
  Mn  Mn5  1  0.71930800  0.38394700  0.18141000  1
  Nb  Nb0  1  0.98925100  0.93132600  0.86750600  1
  Nb  Nb1  1  0.06215300  0.05891000  0.14233900  1
  Nb  Nb2  1  0.88748000  0.80075600  0.66683100  1
  Nb  Nb3  1  0.03000700  0.12094300  0.33829700  1
  O  O0  1  0.40433600  0.33507200  0.09456000  1
  O  O1  1  0.68740900  0.65993800  0.92561000  1
  O  O2  1  0.98313300  0.34001100  0.24785600  1
  O  O3  1  0.35106900  0.18975000  0.25273800  1
  O  O4  1  0.02374700  0.70528700  0.08347200  1
  O  O5  1  0.61943700  0.48062000  0.57338200  1
  O  O6  1  0.70157800  0.92863400  0.75997100  1
  O  O7  1  0.02327000  0.27467700  0.93169500  1
  O  O8  1  0.07459600  0.91088500  0.42516000  1
  O  O9  1  0.23946200  0.91979900  0.59579700  1
  O  O10  1  0.25455700  0.10176800  0.76086600  1
  O  O11  1  0.81901100  0.08074400  0.60249100  1
  O  O12  1  0.81480700  0.77916700  0.24267100  1
  O  O13  1  0.30665400  0.94533000  0.92418500  1
  O  O14  1  0.72799000  0.06617100  0.09282400  1
  O  O15  1  0.72624700  0.14481400  0.40189000  1
  O  O16  1  0.32424500  0.47074300  0.43256200  1
  O  O17  1  0.86434500  0.55561200  0.74680600  1
loop_
_geom_bond_atom_site_label_1
_geom_bond_atom_site_label_2
_geom_bond_distance
_geom_bond_site_symmetry_2
Mg0 O5 2.015499 1_555
Mg0 O11 2.016725 1_455
Mg0 O8 2.100413 1_545
Mg0 O16 2.174537 1_555
Mg0 O9 2.221762 1_545
Mn0 O10 1.903751 1_555
Mn0 O11 2.017382 1_555
Mn0 O17 2.018129 1_555
Mn0 O6 2.027398 1_545
Mn0 O9 2.044831 1_545
Mn1 O13 2.091478 1_545
Mn1 O1 2.093164 1_555
Mn1 O7 2.097627 1_655
Mn1 O4 2.283522 1_656
Mn1 O0 2.324894 1_556
Mn1 O14 2.604911 1_556
Mn2 O15 2.020190 1_555
Mn2 O8 2.042456 1_655
Mn2 O16 2.087322 1_555
Mn2 O5 2.207979 1_555
Mn3 O15 2.038317 1_565
Mn3 O16 2.060352 1_555
Mn3 O9 2.071544 1_555
Mn3 O8 2.315245 1_555
Mn3 O11 2.342109 1_565
Mn4 O1 2.132557 1_554
Mn4 O7 2.146593 1_554
Mn4 O13 2.154123 1_554
Mn4 O4 2.227380 1_555
Mn4 O14 2.232306 1_565
Mn4 O0 2.720646 1_555
Mn5 O2 1.898501 1_555
Mn5 O12 2.015477 1_555
Mn5 O14 2.033293 1_555
Mn5 O0 2.042646 1_555
Mn5 O3 2.109092 1_555
Mn5 O4 2.453349 1_655
Nb0 O13 1.888475 1_655
Nb0 O7 1.894101 1_665
Nb0 O1 1.908462 1_555
Nb0 O10 2.163346 1_665
Nb0 O6 2.266576 1_555
Nb0 O17 2.314378 1_555
Nb1 O4 1.910025 1_545
Nb1 O0 1.938901 1_555
Nb1 O14 1.986675 1_455
Nb1 O3 2.060519 1_555
Nb1 O2 2.218092 1_455
Nb1 O12 2.285920 1_445
Nb2 O5 1.940685 1_555
Nb2 O17 1.950502 1_555
Nb2 O6 1.953747 1_555
Nb2 O9 2.027512 1_655
Nb2 O10 2.137777 1_665
Nb2 O11 2.168579 1_565
Nb3 O15 1.936393 1_455
Nb3 O12 1.959531 1_445
Nb3 O8 2.013287 1_545
Nb3 O16 2.056672 1_555
Nb3 O3 2.063953 1_555
Nb3 O2 2.098780 1_455
