# generated using pymatgen
data_Ba3(RuN2)2
_symmetry_space_group_name_H-M   'P 1'
_cell_length_a   7.77890818
_cell_length_b   9.47977693
_cell_length_c   5.74277562
_cell_angle_alpha   89.99999824
_cell_angle_beta   94.15905937
_cell_angle_gamma   127.54077141
_symmetry_Int_Tables_number   1
_chemical_formula_structural   Ba3(RuN2)2
_chemical_formula_sum   'Ba6 Ru4 N8'
_cell_volume   334.38257431
_cell_formula_units_Z   2
loop_
 _symmetry_equiv_pos_site_id
 _symmetry_equiv_pos_as_xyz
  1  'x, y, z'
loop_
 _atom_site_type_symbol
 _atom_site_label
 _atom_site_symmetry_multiplicity
 _atom_site_fract_x
 _atom_site_fract_y
 _atom_site_fract_z
 _atom_site_occupancy
  Ba  Ba0  1  0.25485200  0.99333600  0.04506500  1
  Ba  Ba1  1  0.74514800  0.73848400  0.45493500  1
  Ba  Ba2  1  0.74514800  0.00666400  0.95493500  1
  Ba  Ba3  1  0.25485200  0.26151600  0.54506500  1
  Ba  Ba4  1  0.00000000  0.59443200  0.75000000  1
  Ba  Ba5  1  0.00000000  0.40556800  0.25000000  1
  Ru  Ru0  1  0.57793900  0.16011700  0.57304100  1
  Ru  Ru1  1  0.42206100  0.58217800  0.92695900  1
  Ru  Ru2  1  0.42206100  0.83988300  0.42695900  1
  Ru  Ru3  1  0.57793900  0.41782200  0.07304100  1
  N  N0  1  0.26396500  0.93597800  0.54219900  1
  N  N1  1  0.73603500  0.67201300  0.95780100  1
  N  N2  1  0.73603500  0.06402200  0.45780100  1
  N  N3  1  0.26396500  0.32798700  0.04219900  1
  N  N4  1  0.64154000  0.27246800  0.89236100  1
  N  N5  1  0.35846000  0.63092600  0.60763900  1
  N  N6  1  0.35846000  0.72753200  0.10763900  1
  N  N7  1  0.64154000  0.36907400  0.39236100  1
loop_
_geom_bond_atom_site_label_1
_geom_bond_atom_site_label_2
_geom_bond_distance
_geom_bond_site_symmetry_2
Ba0 N4 2.738940 1_564
Ba0 N0 2.910140 1_555
Ba0 N0 2.952458 1_554
Ba0 N6 3.092047 1_555
Ba0 N3 3.129797 1_565
Ba0 N1 3.246974 1_454
Ba1 N5 2.738934 1_555
Ba1 N1 2.910140 1_554
Ba1 N1 2.952457 1_555
Ba1 N7 3.092028 1_555
Ba1 N2 3.129797 1_565
Ba1 N0 3.246974 1_655
Ba2 N6 2.738940 1_546
Ba2 N2 2.910140 1_555
Ba2 N2 2.952458 1_556
Ba2 N4 3.092047 1_555
Ba2 N1 3.129797 1_545
Ba2 N3 3.246974 1_656
Ba3 N7 2.738934 1_555
Ba3 N3 2.910140 1_556
Ba3 N3 2.952457 1_555
Ba3 N5 3.092028 1_555
Ba3 N0 3.129797 1_545
Ba3 N2 3.246974 1_455
Ba4 N4 2.778203 1_455
Ba4 N5 2.778213 1_555
Ba4 N0 2.894311 1_555
Ba4 N1 2.894311 1_455
Ba4 N7 2.909861 1_455
Ba4 N6 2.909864 1_556
Ba5 N6 2.778203 1_555
Ba5 N7 2.778213 1_455
Ba5 N2 2.894311 1_455
Ba5 N3 2.894311 1_555
Ba5 N5 2.909861 1_555
Ba5 N4 2.909864 1_454
N0 Ru0 2.030841 1_565
N0 Ru2 2.064846 1_555
N1 Ru1 2.030841 1_555
N1 Ru3 2.064846 1_556
N2 Ru2 2.030841 1_545
N2 Ru0 2.064846 1_555
N3 Ru3 2.030841 1_555
N3 Ru1 2.064846 1_554
N4 Ru0 1.992020 1_555
N4 Ru3 2.031087 1_556
N5 Ru1 1.992013 1_555
N5 Ru2 2.031103 1_555
N6 Ru2 1.992020 1_555
N6 Ru1 2.031087 1_554
N7 Ru3 1.992013 1_555
N7 Ru0 2.031103 1_555
