# generated using pymatgen
data_CeLu3
_symmetry_space_group_name_H-M   'P 1'
_cell_length_a   7.06068501
_cell_length_b   7.05799345
_cell_length_c   5.63543035
_cell_angle_alpha   90.00000000
_cell_angle_beta   90.00000000
_cell_angle_gamma   120.01101018
_symmetry_Int_Tables_number   1
_chemical_formula_structural   CeLu3
_chemical_formula_sum   'Ce2 Lu6'
_cell_volume   243.18546427
_cell_formula_units_Z   2
loop_
 _symmetry_equiv_pos_site_id
 _symmetry_equiv_pos_as_xyz
  1  'x, y, z'
loop_
 _atom_site_type_symbol
 _atom_site_label
 _atom_site_symmetry_multiplicity
 _atom_site_fract_x
 _atom_site_fract_y
 _atom_site_fract_z
 _atom_site_occupancy
  Ce  Ce0  1  0.33327938  0.66651477  0.74999900  1
  Ce  Ce1  1  0.66661605  0.33337282  0.25000000  1
  Lu  Lu0  1  0.16585404  0.33172783  0.25000000  1
  Lu  Lu1  1  0.66776465  0.83398838  0.25000000  1
  Lu  Lu2  1  0.16606456  0.83364235  0.25000000  1
  Lu  Lu3  1  0.83415039  0.66824874  0.74999900  1
  Lu  Lu4  1  0.33227204  0.16607243  0.74999900  1
  Lu  Lu5  1  0.83399789  0.16643466  0.74999900  1
loop_
_geom_bond_atom_site_label_1
_geom_bond_atom_site_label_2
_geom_bond_distance
_geom_bond_site_symmetry_2
Ce0 Lu2 3.481090 1_555
Ce0 Lu2 3.481099 1_556
Ce0 Lu1 3.481632 1_555
Ce0 Lu1 3.481641 1_556
Ce0 Lu0 3.482257 1_555
Ce0 Lu0 3.482266 1_556
Ce0 Lu5 3.526831 1_455
Ce0 Lu4 3.528567 1_555
Ce0 Lu4 3.529438 1_565
Ce0 Lu3 3.530330 1_455
Ce0 Lu3 3.530387 1_555
Ce0 Lu5 3.531341 1_565
Ce1 Lu5 3.481010 1_555
Ce1 Lu5 3.481019 1_554
Ce1 Lu4 3.481125 1_555
Ce1 Lu4 3.481134 1_554
Ce1 Lu3 3.482577 1_555
Ce1 Lu3 3.482586 1_554
Ce1 Lu2 3.528089 1_655
Ce1 Lu1 3.528715 1_545
Ce1 Lu1 3.529292 1_555
Ce1 Lu0 3.529930 1_555
Ce1 Lu2 3.530083 1_545
Ce1 Lu0 3.530784 1_655
Lu0 Lu5 3.472219 1_455
Lu0 Lu5 3.472228 1_454
Lu0 Lu4 3.472964 1_555
Lu0 Lu4 3.472973 1_554
Lu0 Lu1 3.514364 1_445
Lu0 Lu2 3.516228 1_545
Lu0 Lu2 3.541766 1_555
Lu0 Lu1 3.543802 1_555
Lu1 Lu3 3.473149 1_555
Lu1 Lu3 3.473158 1_554
Lu1 Lu5 3.473871 1_565
Lu1 Lu5 3.473880 1_564
Lu1 Lu2 3.519561 1_655
Lu1 Lu2 3.541125 1_555
Lu2 Lu3 3.472425 1_455
Lu2 Lu3 3.472434 1_454
Lu2 Lu4 3.473813 1_565
Lu2 Lu4 3.473822 1_564
Lu3 Lu4 3.514774 1_665
Lu3 Lu5 3.516732 1_565
Lu3 Lu5 3.541262 1_555
Lu3 Lu4 3.543391 1_555
Lu4 Lu5 3.519436 1_455
Lu4 Lu5 3.541250 1_555
