# generated using pymatgen
data_CsMg14Fe
_symmetry_space_group_name_H-M   'P 1'
_cell_length_a   6.59765733
_cell_length_b   6.34291361
_cell_length_c   10.62455829
_cell_angle_alpha   90.00000000
_cell_angle_beta   90.00000000
_cell_angle_gamma   118.73076858
_symmetry_Int_Tables_number   1
_chemical_formula_structural   CsMg14Fe
_chemical_formula_sum   'Cs1 Mg14 Fe1'
_cell_volume   389.88240535
_cell_formula_units_Z   1
loop_
 _symmetry_equiv_pos_site_id
 _symmetry_equiv_pos_as_xyz
  1  'x, y, z'
loop_
 _atom_site_type_symbol
 _atom_site_label
 _atom_site_symmetry_multiplicity
 _atom_site_fract_x
 _atom_site_fract_y
 _atom_site_fract_z
 _atom_site_occupancy
  Cs  Cs0  1  0.08981933  0.79490916  0.12500000  1
  Mg  Mg0  1  0.16836685  0.33418293  0.62500000  1
  Mg  Mg1  1  0.17918498  0.83959199  0.62500000  1
  Mg  Mg2  1  0.60211164  0.30178935  0.12500000  1
  Mg  Mg3  1  0.66377681  0.32390844  0.62500000  1
  Mg  Mg4  1  0.60211164  0.80032129  0.12500000  1
  Mg  Mg5  1  0.66377681  0.83986737  0.62500000  1
  Mg  Mg6  1  0.34902582  0.18627615  0.37787564  1
  Mg  Mg7  1  0.34902582  0.18627615  0.87212436  1
  Mg  Mg8  1  0.34902582  0.66275067  0.37787564  1
  Mg  Mg9  1  0.34902582  0.66275067  0.87212436  1
  Mg  Mg10  1  0.86976470  0.18488285  0.34470618  1
  Mg  Mg11  1  0.86976470  0.18488285  0.90529382  1
  Mg  Mg12  1  0.82941133  0.66470616  0.40667828  1
  Mg  Mg13  1  0.82941133  0.66470616  0.84332172  1
  Fe  Fe0  1  0.23639661  0.36819781  0.12500000  1
loop_
_geom_bond_atom_site_label_1
_geom_bond_atom_site_label_2
_geom_bond_distance
_geom_bond_site_symmetry_2
Cs0 Mg2 3.234370 1_455
Cs0 Mg4 3.234370 1_455
Cs0 Fe0 3.282873 1_565
Cs0 Fe0 3.282873 1_555
Cs0 Mg13 3.350528 1_454
Cs0 Mg12 3.350528 1_455
Cs0 Mg2 3.363562 1_565
Cs0 Mg4 3.363562 1_555
Cs0 Mg9 3.496264 1_554
Cs0 Mg8 3.496264 1_555
Cs0 Mg7 3.496270 1_564
Cs0 Mg6 3.496270 1_565
Mg0 Mg1 3.172074 1_555
Mg0 Mg1 3.172074 1_545
Mg0 Mg6 3.204619 1_555
Mg0 Mg7 3.204619 1_555
Mg0 Mg8 3.204625 1_555
Mg0 Mg9 3.204625 1_555
Mg0 Mg5 3.298280 1_445
Mg0 Mg3 3.298280 1_455
Mg0 Mg5 3.300367 1_555
Mg0 Mg3 3.300367 1_555
Mg0 Mg10 3.442797 1_455
Mg0 Mg11 3.442797 1_455
Mg1 Mg12 3.078198 1_455
Mg1 Mg13 3.078198 1_455
Mg1 Mg3 3.196331 1_565
Mg1 Mg5 3.196332 1_555
Mg1 Mg8 3.258207 1_555
Mg1 Mg9 3.258207 1_555
Mg1 Mg6 3.258213 1_565
Mg1 Mg7 3.258213 1_565
Mg1 Mg3 3.401326 1_455
Mg1 Mg5 3.401326 1_455
Mg2 Mg7 3.060572 1_554
Mg2 Mg6 3.060572 1_555
Mg2 Mg4 3.162145 1_555
Mg2 Mg4 3.180769 1_545
Mg3 Mg5 3.070231 1_545
Mg3 Mg6 3.197702 1_555
Mg3 Mg7 3.197702 1_555
Mg3 Mg5 3.272683 1_555
Mg4 Mg9 3.060572 1_554
Mg4 Mg8 3.060572 1_555
Mg5 Mg8 3.197701 1_555
Mg5 Mg9 3.197701 1_555
Mg6 Mg8 3.022237 1_555
Mg6 Mg8 3.320677 1_545
Mg7 Mg9 3.022237 1_555
Mg7 Mg9 3.320677 1_545
Mg10 Mg8 3.177366 1_655
Mg10 Mg6 3.177366 1_655
Mg10 Mg2 3.221175 1_555
Mg10 Mg4 3.221181 1_545
Mg10 Mg12 3.247486 1_555
Mg10 Mg12 3.247486 1_545
Mg10 Mg8 3.457918 1_545
Mg10 Mg6 3.457918 1_555
Mg10 Mg3 3.556014 1_555
Mg10 Mg5 3.556020 1_545
Mg11 Mg9 3.177366 1_655
Mg11 Mg7 3.177366 1_655
Mg11 Mg2 3.221175 1_556
Mg11 Mg4 3.221181 1_546
Mg11 Mg13 3.247486 1_555
Mg11 Mg13 3.247486 1_545
Mg11 Mg9 3.457918 1_545
Mg11 Mg7 3.457918 1_555
Mg11 Mg3 3.556014 1_555
Mg11 Mg5 3.556020 1_545
Mg12 Mg5 2.996043 1_555
Mg12 Mg3 2.996050 1_555
Mg12 Mg6 3.178242 1_555
Mg12 Mg8 3.178242 1_555
Mg12 Mg6 3.447825 1_665
Mg12 Mg8 3.447825 1_655
Mg13 Mg5 2.996043 1_555
Mg13 Mg3 2.996050 1_555
Mg13 Mg7 3.178242 1_555
Mg13 Mg9 3.178242 1_555
Mg13 Mg7 3.447825 1_665
Mg13 Mg9 3.447825 1_655
Fe0 Mg4 2.641296 1_555
Fe0 Mg2 2.641296 1_555
Fe0 Mg7 3.150613 1_554
Fe0 Mg6 3.150613 1_555
Fe0 Mg9 3.150619 1_554
Fe0 Mg8 3.150619 1_555
Fe0 Mg11 3.154045 1_454
Fe0 Mg10 3.154045 1_455
