# generated using pymatgen
data_Ba5Ga6
_symmetry_space_group_name_H-M   'P 1'
_cell_length_a   7.84506234
_cell_length_b   7.84508510
_cell_length_c   14.62542000
_cell_angle_alpha   90.00000000
_cell_angle_beta   90.00000000
_cell_angle_gamma   120.00003982
_symmetry_Int_Tables_number   1
_chemical_formula_structural   Ba5Ga6
_chemical_formula_sum   'Ba10 Ga12'
_cell_volume   779.53005143
_cell_formula_units_Z   2
loop_
 _symmetry_equiv_pos_site_id
 _symmetry_equiv_pos_as_xyz
  1  'x, y, z'
loop_
 _atom_site_type_symbol
 _atom_site_label
 _atom_site_symmetry_multiplicity
 _atom_site_fract_x
 _atom_site_fract_y
 _atom_site_fract_z
 _atom_site_occupancy
  Ba  Ba0  1  0.68126100  0.66315300  0.25000000  1
  Ba  Ba1  1  0.98189600  0.31874000  0.25000000  1
  Ba  Ba2  1  0.33685200  0.01810900  0.25000000  1
  Ba  Ba3  1  0.97864000  0.66816300  0.75000000  1
  Ba  Ba4  1  0.33182700  0.31047300  0.75000000  1
  Ba  Ba5  1  0.68952400  0.02135600  0.75000000  1
  Ba  Ba6  1  0.00001200  0.99999300  0.99794100  1
  Ba  Ba7  1  0.00001200  0.99999300  0.50205900  1
  Ba  Ba8  1  0.66666200  0.33333600  0.99841300  1
  Ba  Ba9  1  0.66666200  0.33333600  0.50158700  1
  Ga  Ga0  1  0.53375300  0.86942200  0.07740700  1
  Ga  Ga1  1  0.33568200  0.46624100  0.07741000  1
  Ga  Ga2  1  0.13057100  0.66431500  0.07740800  1
  Ga  Ga3  1  0.53375300  0.86942200  0.42259300  1
  Ga  Ga4  1  0.33568200  0.46624100  0.42259000  1
  Ga  Ga5  1  0.13057100  0.66431500  0.42259200  1
  Ga  Ga6  1  0.32867800  0.86533100  0.57813800  1
  Ga  Ga7  1  0.13467300  0.46333600  0.57813500  1
  Ga  Ga8  1  0.53666900  0.67132900  0.57813900  1
  Ga  Ga9  1  0.32867800  0.86533100  0.92186200  1
  Ga  Ga10  1  0.13467300  0.46333600  0.92186500  1
  Ga  Ga11  1  0.53666900  0.67132900  0.92186100  1
loop_
_geom_bond_atom_site_label_1
_geom_bond_atom_site_label_2
_geom_bond_distance
_geom_bond_site_symmetry_2
Ba0 Ga1 3.452521 1_555
Ba0 Ga4 3.452521 1_555
Ba0 Ga0 3.493152 1_555
Ba0 Ga3 3.493152 1_555
Ba1 Ga2 3.452525 1_655
Ba1 Ga5 3.452525 1_655
Ba1 Ga4 3.493164 1_655
Ba1 Ga1 3.493164 1_655
Ba2 Ga3 3.452591 1_545
Ba2 Ga0 3.452591 1_545
Ba2 Ga2 3.493223 1_545
Ba2 Ga5 3.493223 1_545
Ba3 Ga9 3.464653 1_655
Ba3 Ga6 3.464653 1_655
Ba3 Ga10 3.516478 1_655
Ba3 Ga7 3.516478 1_655
Ba4 Ga7 3.464588 1_555
Ba4 Ga10 3.464588 1_555
Ba4 Ga11 3.516425 1_555
Ba4 Ga8 3.516425 1_555
Ba5 Ga11 3.464599 1_545
Ba5 Ga8 3.464599 1_545
Ba5 Ga9 3.516377 1_545
Ba5 Ga6 3.516377 1_545
Ba6 Ga9 3.424357 1_555
Ba6 Ga11 3.424436 1_455
Ba6 Ga10 3.424458 1_565
Ba6 Ga2 3.468725 1_556
Ba6 Ga1 3.468777 1_566
Ba6 Ga0 3.468846 1_456
Ba7 Ga6 3.424357 1_555
Ba7 Ga8 3.424436 1_455
Ba7 Ga7 3.424458 1_565
Ba7 Ga5 3.468725 1_555
Ba7 Ga4 3.468777 1_565
Ba7 Ga3 3.468846 1_455
Ba8 Ga1 3.445492 1_556
Ba8 Ga2 3.445606 1_656
Ba8 Ga0 3.445682 1_546
Ba8 Ga11 3.468214 1_555
Ba8 Ga9 3.468291 1_545
Ba8 Ga10 3.468352 1_655
Ba9 Ga4 3.445492 1_555
Ba9 Ga5 3.445606 1_655
Ba9 Ga3 3.445682 1_545
Ba9 Ga8 3.468214 1_555
Ba9 Ga6 3.468291 1_545
Ba9 Ga7 3.468352 1_655
Ga0 Ga2 2.739366 1_555
Ga0 Ga1 2.739367 1_555
Ga0 Ga11 2.761603 1_554
Ga0 Ga9 2.777218 1_554
Ga1 Ga2 2.739392 1_555
Ga1 Ga10 2.761612 1_554
Ga1 Ga11 2.777303 1_554
Ga2 Ga9 2.761648 1_554
Ga3 Ga5 2.739366 1_555
Ga3 Ga4 2.739367 1_555
Ga3 Ga8 2.761603 1_555
Ga3 Ga6 2.777218 1_555
Ga4 Ga5 2.739392 1_555
Ga4 Ga7 2.761612 1_555
Ga4 Ga8 2.777303 1_555
Ga5 Ga6 2.761648 1_555
Ga5 Ga7 2.777199 1_555
Ga6 Ga8 2.731705 1_555
Ga6 Ga7 2.731721 1_555
Ga7 Ga8 2.731720 1_555
Ga10 Ga11 2.731720 1_555
Ga10 Ga9 2.731721 1_555
Ga10 Ga2 2.777199 1_556
Ga11 Ga9 2.731705 1_555
