# generated using pymatgen
data_Ho4ReGe8
_symmetry_space_group_name_H-M   'P 1'
_cell_length_a   4.05227200
_cell_length_b   4.24084200
_cell_length_c   15.89244600
_cell_angle_alpha   90.00000000
_cell_angle_beta   90.00000000
_cell_angle_gamma   90.00000000
_symmetry_Int_Tables_number   1
_chemical_formula_structural   Ho4ReGe8
_chemical_formula_sum   'Ho4 Re1 Ge8'
_cell_volume   273.11240433
_cell_formula_units_Z   1
loop_
 _symmetry_equiv_pos_site_id
 _symmetry_equiv_pos_as_xyz
  1  'x, y, z'
loop_
 _atom_site_type_symbol
 _atom_site_label
 _atom_site_symmetry_multiplicity
 _atom_site_fract_x
 _atom_site_fract_y
 _atom_site_fract_z
 _atom_site_occupancy
  Ho  Ho0  1  0.25000000  0.00000000  0.09391800  1
  Ho  Ho1  1  0.25000000  0.50000000  0.60944400  1
  Ho  Ho2  1  0.75000000  0.50000000  0.40188800  1
  Ho  Ho3  1  0.75000000  0.00000000  0.89544900  1
  Re  Re0  1  0.25000000  0.00000000  0.30917500  1
  Ge  Ge0  1  0.25000000  0.00000000  0.46423700  1
  Ge  Ge1  1  0.25000000  0.50000000  0.94329000  1
  Ge  Ge2  1  0.75000000  0.50000000  0.05525100  1
  Ge  Ge3  1  0.75000000  0.00000000  0.56751200  1
  Ge  Ge4  1  0.25000000  0.50000000  0.23038300  1
  Ge  Ge5  1  0.25000000  0.00000000  0.74846100  1
  Ge  Ge6  1  0.75000000  0.00000000  0.22672100  1
  Ge  Ge7  1  0.75000000  0.50000000  0.75427000  1
loop_
_geom_bond_atom_site_label_1
_geom_bond_atom_site_label_2
_geom_bond_distance
_geom_bond_site_symmetry_2
Ho2 Re0 3.282138 1_655
Ho2 Re0 3.282138 1_565
Ho2 Re0 3.282138 1_665
Ho2 Re0 3.282138 1_555
Ge0 Re0 2.464314 1_555
Ge0 Ge3 2.607502 1_555
Ge0 Ge3 2.607502 1_455
Ge0 Ho2 3.095683 1_445
Ge0 Ho2 3.095683 1_545
Ge0 Ho2 3.095683 1_455
Ge0 Ho2 3.095683 1_555
Ge0 Ho1 3.133949 1_545
Ge0 Ho1 3.133949 1_555
Ge1 Ge2 2.696527 1_456
Ge1 Ge2 2.696527 1_556
Ge1 Ho3 3.029766 1_555
Ge1 Ho3 3.029766 1_465
Ge1 Ho3 3.029766 1_455
Ge1 Ho3 3.029766 1_565
Ge1 Ho0 3.197920 1_566
Ge1 Ho0 3.197920 1_556
Ge2 Ho0 2.996504 1_565
Ge2 Ho0 2.996504 1_655
Ge2 Ho0 2.996504 1_665
Ge2 Ho0 2.996504 1_555
Ge2 Ho3 3.308471 1_564
Ge2 Ho3 3.308471 1_554
Ge3 Ho1 3.007574 1_655
Ge3 Ho1 3.007574 1_555
Ge3 Ho1 3.007574 1_545
Ge3 Ho1 3.007574 1_645
Ge3 Ho2 3.380016 1_545
Ge3 Ho2 3.380016 1_555
Ge4 Re0 2.462556 1_555
Ge4 Re0 2.462556 1_565
Ge4 Ge6 2.933394 1_455
Ge4 Ge6 2.933394 1_555
Ge4 Ge6 2.933394 1_565
Ge4 Ge6 2.933394 1_465
Ge4 Ho0 3.033103 1_565
Ge4 Ho0 3.033103 1_555
Ge4 Ho2 3.396220 1_555
Ge4 Ho2 3.396220 1_455
Ge5 Ge7 2.934269 1_555
Ge5 Ge7 2.934269 1_445
Ge5 Ge7 2.934269 1_545
Ge5 Ge7 2.934269 1_455
Ge5 Ho1 3.062235 1_555
Ge5 Ho1 3.062235 1_545
Ge5 Ho3 3.092267 1_455
Ge5 Ho3 3.092267 1_555
Ge6 Re0 2.412958 1_555
Ge6 Re0 2.412958 1_655
Ge6 Ho0 2.925698 1_655
Ge6 Ho0 2.925698 1_555
Ge6 Ho2 3.499415 1_555
Ge6 Ho2 3.499415 1_545
Ge7 Ho1 3.066394 1_655
Ge7 Ho1 3.066394 1_555
Ge7 Ho3 3.087116 1_555
Ge7 Ho3 3.087116 1_565
