# generated using pymatgen
data_Ca2Ni10H
_symmetry_space_group_name_H-M   'P 1'
_cell_length_a   4.92988559
_cell_length_b   4.94867853
_cell_length_c   7.87086805
_cell_angle_alpha   90.00318039
_cell_angle_beta   89.98768243
_cell_angle_gamma   120.06248269
_symmetry_Int_Tables_number   1
_chemical_formula_structural   Ca2Ni10H
_chemical_formula_sum   'Ca2 Ni10 H1'
_cell_volume   166.19025447
_cell_formula_units_Z   1
loop_
 _symmetry_equiv_pos_site_id
 _symmetry_equiv_pos_as_xyz
  1  'x, y, z'
loop_
 _atom_site_type_symbol
 _atom_site_label
 _atom_site_symmetry_multiplicity
 _atom_site_fract_x
 _atom_site_fract_y
 _atom_site_fract_z
 _atom_site_occupancy
  Ca  Ca0  1  0.00154500  0.00079300  0.00859000  1
  Ca  Ca1  1  0.00144400  0.00075800  0.49087200  1
  Ni  Ni0  1  0.32897600  0.66442200  0.00072000  1
  Ni  Ni1  1  0.66903800  0.33463500  0.00089300  1
  Ni  Ni2  1  0.00410500  0.50216300  0.74949600  1
  Ni  Ni3  1  0.50050200  0.00470900  0.74949400  1
  Ni  Ni4  1  0.50017800  0.49544900  0.74950600  1
  Ni  Ni5  1  0.32886900  0.66438200  0.49817900  1
  Ni  Ni6  1  0.66901400  0.33458900  0.49801000  1
  Ni  Ni7  1  0.00079300  0.50042100  0.24941900  1
  Ni  Ni8  1  0.50105100  0.00023800  0.24942000  1
  Ni  Ni9  1  0.50105500  0.50084600  0.24943000  1
  H  H0  1  0.72143000  0.86049500  0.74997000  1
loop_
_geom_bond_atom_site_label_1
_geom_bond_atom_site_label_2
_geom_bond_distance
_geom_bond_site_symmetry_2
Ca0 H0 2.360723 1_444
Ca0 Ni0 2.841186 1_545
Ca0 Ni0 2.843150 1_555
Ca0 Ni1 2.848636 1_555
Ca0 Ni1 2.851905 1_455
Ca0 Ni1 2.853814 1_445
Ca0 Ni0 2.870345 1_445
Ca0 Ni8 3.108989 1_555
Ca0 Ni8 3.110022 1_455
Ca0 Ni9 3.110832 1_555
Ca0 Ni9 3.112047 1_445
Ca0 Ni7 3.116884 1_555
Ca0 Ni7 3.117026 1_545
Ca0 Ni2 3.205989 1_544
Ca0 Ni2 3.206869 1_554
Ca1 H0 2.363305 1_445
Ca1 Ni5 2.841107 1_545
Ca1 Ni5 2.843042 1_555
Ca1 Ni6 2.848899 1_555
Ca1 Ni6 2.851421 1_455
Ca1 Ni6 2.853766 1_445
Ca1 Ni5 2.870252 1_445
Ca1 Ni8 3.111655 1_555
Ca1 Ni8 3.113329 1_455
Ca1 Ni9 3.113508 1_555
Ca1 Ni9 3.115149 1_445
Ca1 Ni7 3.119909 1_545
Ca1 Ni7 3.119981 1_555
Ca1 Ni2 3.203875 1_545
Ca1 Ni2 3.204289 1_555
Ni0 Ni7 2.406506 1_555
Ni0 Ni2 2.415050 1_554
Ni0 Ni9 2.428144 1_555
Ni0 Ni8 2.429205 1_565
Ni0 Ni4 2.455067 1_554
Ni0 Ni3 2.456374 1_564
Ni0 Ni1 2.815769 1_455
Ni0 Ni1 2.866213 1_555
Ni0 Ni1 2.870549 1_565
Ni1 Ni7 2.414796 1_655
Ni1 Ni9 2.422944 1_555
Ni1 Ni8 2.424319 1_555
Ni1 Ni4 2.430211 1_554
Ni1 Ni3 2.431592 1_554
Ni1 Ni2 2.440889 1_654
Ni2 Ni5 2.414896 1_555
Ni2 Ni6 2.442018 1_455
Ni2 Ni4 2.462395 1_555
Ni2 Ni3 2.464970 1_565
Ni2 Ni4 2.467826 1_455
Ni2 Ni3 2.469954 1_455
Ni3 Ni6 2.431879 1_555
Ni3 Ni5 2.457182 1_545
Ni4 Ni6 2.430600 1_555
Ni4 Ni5 2.456320 1_555
Ni5 Ni7 2.407123 1_555
Ni5 Ni9 2.428196 1_555
Ni5 Ni8 2.429538 1_565
Ni5 Ni6 2.815415 1_455
Ni5 Ni6 2.866594 1_555
Ni5 Ni6 2.870525 1_565
Ni6 Ni7 2.414774 1_655
Ni6 Ni9 2.423634 1_555
Ni6 Ni8 2.424742 1_555
Ni7 Ni9 2.464705 1_455
Ni7 Ni9 2.465182 1_555
Ni7 Ni8 2.467146 1_455
Ni7 Ni8 2.467499 1_565
Ni8 Ni9 2.471340 1_545
Ni8 Ni9 2.477338 1_555
H0 Ni3 1.573005 1_565
H0 Ni4 1.574490 1_555
