# generated using pymatgen
data_Ni21(B3Sb)2
_symmetry_space_group_name_H-M   'P 1'
_cell_length_a   7.41739028
_cell_length_b   7.41730405
_cell_length_c   7.41730490
_cell_angle_alpha   59.99998234
_cell_angle_beta   60.00036288
_cell_angle_gamma   60.00033771
_symmetry_Int_Tables_number   1
_chemical_formula_structural   Ni21(B3Sb)2
_chemical_formula_sum   'Ni21 B6 Sb2'
_cell_volume   288.55631801
_cell_formula_units_Z   1
loop_
 _symmetry_equiv_pos_site_id
 _symmetry_equiv_pos_as_xyz
  1  'x, y, z'
loop_
 _atom_site_type_symbol
 _atom_site_label
 _atom_site_symmetry_multiplicity
 _atom_site_fract_x
 _atom_site_fract_y
 _atom_site_fract_z
 _atom_site_occupancy
  Ni  Ni0  1  0.00000023  0.99999919  0.66392453  1
  Ni  Ni1  1  0.61569812  0.61568067  0.15293718  1
  Ni  Ni2  1  0.38430135  0.84706129  0.38431834  1
  Ni  Ni3  1  0.66393455  0.33607334  0.99999657  1
  Ni  Ni4  1  0.99999870  0.33607499  0.66392602  1
  Ni  Ni5  1  0.66393699  0.99999714  0.99999559  1
  Ni  Ni6  1  0.99999977  0.00000081  0.33607547  1
  Ni  Ni7  1  0.99999846  0.33607641  0.00000099  1
  Ni  Ni8  1  0.33606350  0.00000213  0.66392971  1
  Ni  Ni9  1  0.66393650  0.99999787  0.33607029  1
  Ni  Ni10  1  0.33606301  0.00000286  0.00000441  1
  Ni  Ni11  1  0.00000154  0.66392359  0.99999901  1
  Ni  Ni12  1  0.38430188  0.38431933  0.84706282  1
  Ni  Ni13  1  0.00000130  0.66392501  0.33607398  1
  Ni  Ni14  1  0.33606545  0.66392666  0.00000343  1
  Ni  Ni15  1  -0.00000000  -0.00000000  0.00000000  1
  Ni  Ni16  1  0.61569865  0.15293871  0.61568166  1
  Ni  Ni17  1  0.15292629  0.61569187  0.61569229  1
  Ni  Ni18  1  0.38430349  0.38431893  0.38431485  1
  Ni  Ni19  1  0.84707371  0.38430813  0.38430771  1
  Ni  Ni20  1  0.61569651  0.61568107  0.61568515  1
  B  B0  1  0.72815306  0.72815144  0.27184764  1
  B  B1  1  0.72815288  0.27184781  0.72815182  1
  B  B2  1  0.27184712  0.72815219  0.27184818  1
  B  B3  1  0.72815314  0.27184779  0.27184723  1
  B  B4  1  0.27184686  0.72815221  0.72815277  1
  B  B5  1  0.27184694  0.27184856  0.72815236  1
  Sb  Sb0  1  0.24999982  0.25000035  0.24999969  1
  Sb  Sb1  1  0.75000018  0.74999965  0.75000031  1
loop_
_geom_bond_atom_site_label_1
_geom_bond_atom_site_label_2
_geom_bond_distance
_geom_bond_site_symmetry_2
Ni0 Ni15 2.492776 1_566
Ni1 Sb1 2.440272 1_554
Ni2 Sb0 2.440285 1_565
Ni10 Ni15 2.492737 1_555
Ni11 Ni15 2.492779 1_566
Ni12 Sb0 2.440272 1_556
Ni13 Ni15 2.492766 1_565
Ni14 Ni15 2.492756 1_565
Ni15 Ni5 2.492737 1_444
Ni15 Ni8 2.492739 1_554
Ni15 Ni9 2.492739 1_445
Ni15 Ni3 2.492756 1_454
Ni15 Ni4 2.492766 1_454
Ni15 Ni6 2.492776 1_455
Ni15 Ni7 2.492779 1_455
Ni16 Sb1 2.440285 1_545
Ni17 Sb1 2.440244 1_455
Ni18 Sb0 2.440276 1_555
Ni19 Sb0 2.440244 1_655
Ni20 Sb1 2.440276 1_555
B0 Ni5 2.071885 1_554
B0 Ni9 2.071890 1_555
B0 Ni13 2.071914 1_655
B0 Ni11 2.071919 1_654
B0 Ni1 2.082529 1_555
B0 Ni20 2.082537 1_555
B0 Ni19 2.082572 1_555
B0 Ni2 2.082654 1_555
B1 Ni5 2.071874 1_545
B1 Ni3 2.071887 1_555
B1 Ni4 2.071903 1_555
B1 Ni0 2.071914 1_645
B1 Ni20 2.082510 1_555
B1 Ni16 2.082513 1_555
B1 Ni19 2.082578 1_555
B1 Ni12 2.082650 1_555
B2 Ni10 2.071874 1_565
B2 Ni14 2.071887 1_555
B2 Ni13 2.071903 1_555
B2 Ni6 2.071914 1_465
B2 Ni18 2.082510 1_555
B2 Ni2 2.082513 1_555
B2 Ni17 2.082578 1_555
B2 Ni1 2.082650 1_555
B3 Ni9 2.071871 1_545
B3 Ni3 2.071879 1_554
B3 Ni7 2.071900 1_555
B3 Ni6 2.071906 1_555
B3 Ni1 2.082508 1_555
B3 Ni16 2.082518 1_555
B3 Ni19 2.082562 1_555
B3 Ni18 2.082641 1_555
B4 Ni8 2.071871 1_565
B4 Ni14 2.071879 1_556
B4 Ni11 2.071900 1_555
B4 Ni0 2.071906 1_555
B4 Ni12 2.082508 1_555
B4 Ni2 2.082518 1_555
B4 Ni17 2.082562 1_555
B4 Ni20 2.082641 1_555
B5 Ni10 2.071885 1_556
B5 Ni8 2.071890 1_555
B5 Ni4 2.071914 1_455
B5 Ni7 2.071919 1_456
B5 Ni12 2.082529 1_555
B5 Ni18 2.082537 1_555
B5 Ni17 2.082572 1_555
B5 Ni16 2.082654 1_555
