# generated using pymatgen
data_Zn2P3C(NO4)3
_symmetry_space_group_name_H-M   'P 1'
_cell_length_a   7.84203700
_cell_length_b   5.31838700
_cell_length_c   16.93264411
_cell_angle_alpha   89.55656571
_cell_angle_beta   90.00000000
_cell_angle_gamma   90.00000000
_symmetry_Int_Tables_number   1
_chemical_formula_structural   Zn2P3C(NO4)3
_chemical_formula_sum   'Zn4 P6 C2 N6 O24'
_cell_volume   706.18842848
_cell_formula_units_Z   2
loop_
 _symmetry_equiv_pos_site_id
 _symmetry_equiv_pos_as_xyz
  1  'x, y, z'
loop_
 _atom_site_type_symbol
 _atom_site_label
 _atom_site_symmetry_multiplicity
 _atom_site_fract_x
 _atom_site_fract_y
 _atom_site_fract_z
 _atom_site_occupancy
  Zn  Zn0  1  0.34914200  0.20358200  0.41482000  1
  Zn  Zn1  1  0.84914200  0.79641800  0.58518000  1
  Zn  Zn2  1  0.14021100  0.19572400  0.08011300  1
  Zn  Zn3  1  0.64021100  0.80427600  0.91988700  1
  P  P0  1  0.23863400  0.70287100  0.50244300  1
  P  P1  1  0.73863400  0.29712900  0.49755700  1
  P  P2  1  0.74117200  0.30847900  0.01415400  1
  P  P3  1  0.24117200  0.69152100  0.98584600  1
  P  P4  1  0.25085700  0.45655700  0.24645500  1
  P  P5  1  0.75085700  0.54344300  0.75354500  1
  C  C0  1  0.74342900  0.88024600  0.25865000  1
  C  C1  1  0.24342900  0.11975400  0.74135000  1
  N  N0  1  0.74325900  0.77893900  0.18537800  1
  N  N1  1  0.24325900  0.22106100  0.81462200  1
  N  N2  1  0.82240200  0.10266800  0.27155500  1
  N  N3  1  0.32240200  0.89733200  0.72844500  1
  N  N4  1  0.66375700  0.76061500  0.31920100  1
  N  N5  1  0.16375700  0.23938500  0.68079900  1
  O  O0  1  0.27385500  0.85236000  0.42540400  1
  O  O1  1  0.77385500  0.14764000  0.57459600  1
  O  O2  1  0.36138100  0.30835600  0.30529300  1
  O  O3  1  0.86138100  0.69164400  0.69470700  1
  O  O4  1  0.58611600  0.19486200  0.45166200  1
  O  O5  1  0.08611600  0.80513800  0.54833800  1
  O  O6  1  0.21940500  0.42078600  0.48442900  1
  O  O7  1  0.71940500  0.57921400  0.51557100  1
  O  O8  1  0.89474700  0.20666300  0.05950700  1
  O  O9  1  0.39474700  0.79333700  0.94049300  1
  O  O10  1  0.19898300  0.84227900  0.06138700  1
  O  O11  1  0.69898300  0.15772100  0.93861300  1
  O  O12  1  0.26447600  0.41122100  0.00721200  1
  O  O13  1  0.76447600  0.58877900  0.99278800  1
  O  O14  1  0.16250100  0.27128900  0.19092600  1
  O  O15  1  0.66250100  0.72871100  0.80907400  1
  O  O16  1  0.39475600  0.75108600  0.55680700  1
  O  O17  1  0.89475600  0.24891400  0.44319300  1
  O  O18  1  0.58331700  0.27041900  0.06820000  1
  O  O19  1  0.08331700  0.72958100  0.93180000  1
  O  O20  1  0.11979500  0.63245300  0.28685200  1
  O  O21  1  0.61979500  0.36754700  0.71314800  1
  O  O22  1  0.35610400  0.66119600  0.20258600  1
  O  O23  1  0.85610400  0.33880400  0.79741400  1
loop_
_geom_bond_atom_site_label_1
_geom_bond_atom_site_label_2
_geom_bond_distance
_geom_bond_site_symmetry_2
C0 N2 1.354477 1_565
C0 N4 1.355097 1_555
C0 N0 1.356448 1_555
C1 N3 1.354477 1_545
C1 N5 1.355097 1_555
C1 N1 1.356448 1_555
O0 P0 1.547248 1_555
O0 Zn0 1.965882 1_565
O1 P1 1.547248 1_555
O1 Zn1 1.965882 1_545
O2 P4 1.533915 1_555
O2 Zn0 1.934733 1_555
O3 P5 1.533915 1_555
O3 Zn1 1.934733 1_555
O4 P1 1.528668 1_555
O4 Zn0 1.960706 1_555
O5 P0 1.528668 1_555
O5 Zn1 1.960706 1_455
O6 P0 1.540641 1_555
O6 Zn0 1.944187 1_555
O7 P1 1.540641 1_555
O7 Zn1 1.944187 1_555
O8 P2 1.525438 1_555
O8 Zn2 1.957089 1_655
O9 P3 1.525438 1_555
O9 Zn3 1.957089 1_555
O10 P3 1.550587 1_554
O10 Zn2 1.963587 1_565
O11 P2 1.550587 1_556
O11 Zn3 1.963587 1_545
O12 P3 1.542159 1_554
O12 Zn2 1.940369 1_555
O13 P2 1.542159 1_556
O13 Zn3 1.940369 1_555
O14 P4 1.532770 1_555
O14 Zn2 1.929884 1_555
O15 P5 1.532770 1_555
O15 Zn3 1.929884 1_555
O16 P0 1.554259 1_555
O17 P1 1.554259 1_555
O18 P2 1.551773 1_555
O19 P3 1.551773 1_555
O20 P4 1.552188 1_555
O21 P5 1.552188 1_555
O22 P4 1.550798 1_555
O23 P5 1.550798 1_555
