# generated using pymatgen
data_Ba3As2S8O7
_symmetry_space_group_name_H-M   'P 1'
_cell_length_a   12.57634300
_cell_length_b   11.80737800
_cell_length_c   16.29683215
_cell_angle_alpha   55.83839078
_cell_angle_beta   90.00000000
_cell_angle_gamma   90.00000000
_symmetry_Int_Tables_number   1
_chemical_formula_structural   Ba3As2S8O7
_chemical_formula_sum   'Ba12 As8 S32 O28'
_cell_volume   2002.42598532
_cell_formula_units_Z   4
loop_
 _symmetry_equiv_pos_site_id
 _symmetry_equiv_pos_as_xyz
  1  'x, y, z'
loop_
 _atom_site_type_symbol
 _atom_site_label
 _atom_site_symmetry_multiplicity
 _atom_site_fract_x
 _atom_site_fract_y
 _atom_site_fract_z
 _atom_site_occupancy
  Ba  Ba0  1  0.49780500  0.72504300  0.69150200  1
  Ba  Ba1  1  0.99780500  0.27495700  0.80849800  1
  Ba  Ba2  1  0.50219500  0.27495700  0.30849800  1
  Ba  Ba3  1  0.00219500  0.72504300  0.19150200  1
  Ba  Ba4  1  0.11053200  0.67992700  0.75354000  1
  Ba  Ba5  1  0.61053200  0.32007300  0.74646000  1
  Ba  Ba6  1  0.88946800  0.32007300  0.24646000  1
  Ba  Ba7  1  0.38946800  0.67992700  0.25354000  1
  Ba  Ba8  1  0.68635700  0.91702200  0.19566900  1
  Ba  Ba9  1  0.18635700  0.08297800  0.30433100  1
  Ba  Ba10  1  0.31364300  0.08297800  0.80433100  1
  Ba  Ba11  1  0.81364300  0.91702200  0.69566900  1
  As  As0  1  0.26105900  0.46149700  0.14921500  1
  As  As1  1  0.76105900  0.53850300  0.35078500  1
  As  As2  1  0.73894100  0.53850300  0.85078500  1
  As  As3  1  0.23894100  0.46149700  0.64921500  1
  As  As4  1  0.74738800  0.91727700  0.44519700  1
  As  As5  1  0.24738800  0.08272300  0.05480300  1
  As  As6  1  0.25261200  0.08272300  0.55480300  1
  As  As7  1  0.75261200  0.91727700  0.94519700  1
  S  S0  1  0.79035400  0.08843100  0.79281900  1
  S  S1  1  0.29035400  0.91156900  0.70718100  1
  S  S2  1  0.20964600  0.91156900  0.20718100  1
  S  S3  1  0.70964600  0.08843100  0.29281900  1
  S  S4  1  0.54454100  0.41096100  0.02918100  1
  S  S5  1  0.04454100  0.58903900  0.47081900  1
  S  S6  1  0.45545900  0.58903900  0.97081900  1
  S  S7  1  0.95545900  0.41096100  0.52918100  1
  S  S8  1  0.07376800  0.06839200  0.54943900  1
  S  S9  1  0.57376800  0.93160800  0.95056100  1
  S  S10  1  0.92623200  0.93160800  0.45056100  1
  S  S11  1  0.42623200  0.06839200  0.04943900  1
  S  S12  1  0.63897500  0.06150400  0.50058400  1
  S  S13  1  0.13897500  0.93849600  0.99941600  1
  S  S14  1  0.36102500  0.93849600  0.49941600  1
  S  S15  1  0.86102500  0.06150400  0.00058400  1
  S  S16  1  0.10778600  0.42637400  0.06829500  1
  S  S17  1  0.60778600  0.57362600  0.43170500  1
  S  S18  1  0.89221400  0.57362600  0.93170500  1
  S  S19  1  0.39221400  0.42637400  0.56829500  1
  S  S20  1  0.26484600  0.77533500  0.53905900  1
  S  S21  1  0.76484600  0.22466500  0.96094100  1
  S  S22  1  0.73515400  0.22466500  0.46094100  1
  S  S23  1  0.23515400  0.77533500  0.03905900  1
  S  S24  1  0.19589000  0.39755900  0.97301800  1
  S  S25  1  0.69589000  0.60244100  0.52698200  1
  S  S26  1  0.80411000  0.60244100  0.02698200  1
  S  S27  1  0.30411000  0.39755900  0.47301800  1
  S  S28  1  0.84541800  0.60746000  0.71232600  1
  S  S29  1  0.34541800  0.39254000  0.78767400  1
  S  S30  1  0.15458200  0.39254000  0.28767400  1
  S  S31  1  0.65458200  0.60746000  0.21232600  1
  O  O0  1  0.11334300  0.39975200  0.89916500  1
  O  O1  1  0.61334300  0.60024800  0.60083500  1
  O  O2  1  0.88665700  0.60024800  0.10083500  1
  O  O3  1  0.38665700  0.39975200  0.39916500  1
  O  O4  1  0.61152300  0.97832300  0.61342300  1
  O  O5  1  0.11152300  0.02167700  0.88657700  1
  O  O6  1  0.38847700  0.02167700  0.38657700  1
  O  O7  1  0.88847700  0.97832300  0.11342300  1
  O  O8  1  0.94314700  0.71006300  0.84538700  1
  O  O9  1  0.44314700  0.28993700  0.65461300  1
  O  O10  1  0.05685300  0.28993700  0.15461300  1
  O  O11  1  0.55685300  0.71006300  0.34538700  1
  O  O12  1  0.95978400  0.53617900  0.73464900  1
  O  O13  1  0.45978400  0.46382100  0.76535100  1
  O  O14  1  0.04021600  0.46382100  0.26535100  1
  O  O15  1  0.54021600  0.53617900  0.23464900  1
  O  O16  1  0.67830900  0.70014500  0.78073900  1
  O  O17  1  0.17830900  0.29985500  0.71926100  1
  O  O18  1  0.32169100  0.29985500  0.21926100  1
  O  O19  1  0.82169100  0.70014500  0.28073900  1
  O  O20  1  0.40819100  0.62361800  0.87362800  1
  O  O21  1  0.90819100  0.37638200  0.62637200  1
  O  O22  1  0.59180900  0.37638200  0.12637200  1
  O  O23  1  0.09180900  0.62361800  0.37362800  1
  O  O24  1  0.02345300  0.93834300  0.64560700  1
  O  O25  1  0.52345300  0.06165700  0.85439300  1
  O  O26  1  0.97654700  0.06165700  0.35439300  1
  O  O27  1  0.47654700  0.93834300  0.14560700  1
loop_
_geom_bond_atom_site_label_1
_geom_bond_atom_site_label_2
_geom_bond_distance
_geom_bond_site_symmetry_2
Ba0 O16 2.621923 1_555
Ba0 O13 2.649800 1_555
Ba0 O20 2.742615 1_555
Ba0 O4 2.886932 1_555
Ba0 O1 2.985122 1_555
Ba0 S14 3.201557 1_555
Ba0 S1 3.514901 1_555
Ba0 S20 3.667606 1_555
Ba1 O17 2.621923 1_655
Ba1 O12 2.649800 1_555
Ba1 O21 2.742615 1_555
Ba1 O5 2.886932 1_655
Ba1 O0 2.985122 1_655
Ba1 S15 3.201557 1_556
Ba1 S0 3.514901 1_555
Ba1 S21 3.667606 1_555
Ba2 O18 2.621923 1_555
Ba2 O15 2.649800 1_555
Ba2 O22 2.742615 1_555
Ba2 O6 2.886932 1_555
Ba2 O3 2.985122 1_555
Ba2 S12 3.201557 1_555
Ba2 S3 3.514901 1_555
Ba2 S22 3.667606 1_555
Ba3 O19 2.621923 1_455
Ba3 O14 2.649800 1_555
Ba3 O23 2.742615 1_555
Ba3 O7 2.886932 1_455
Ba3 O2 2.985122 1_455
Ba3 S13 3.201557 1_554
Ba3 S2 3.514901 1_555
Ba3 S23 3.667606 1_555
Ba4 O12 2.675197 1_455
Ba4 O8 2.719674 1_455
Ba4 O24 2.752410 1_555
Ba4 O0 2.785700 1_555
Ba4 S1 3.293208 1_555
Ba4 S20 3.582009 1_555
Ba5 O13 2.675197 1_555
Ba5 O9 2.719674 1_555
Ba5 O25 2.752410 1_555
Ba5 O1 2.785700 1_555
Ba5 S0 3.293208 1_555
Ba5 S21 3.582009 1_555
Ba6 O14 2.675197 1_655
Ba6 O10 2.719674 1_655
Ba6 O26 2.752410 1_555
Ba6 O2 2.785700 1_555
Ba6 S3 3.293208 1_555
Ba6 S22 3.582009 1_555
Ba7 O15 2.675197 1_555
Ba7 O11 2.719674 1_555
Ba7 O27 2.752410 1_555
Ba7 O3 2.785700 1_555
Ba7 S2 3.293208 1_555
Ba7 S23 3.582009 1_555
Ba8 O19 2.718320 1_555
Ba8 O27 2.731440 1_555
Ba8 O7 2.773500 1_555
Ba8 O11 2.807354 1_555
Ba8 S3 3.207362 1_565
Ba8 S21 3.632762 1_564
Ba9 O18 2.718320 1_555
Ba9 O26 2.731440 1_455
Ba9 O6 2.773500 1_555
Ba9 O10 2.807354 1_555
Ba9 S2 3.207362 1_545
Ba9 S20 3.632762 1_545
Ba10 O17 2.718320 1_555
Ba10 O25 2.731440 1_555
Ba10 O5 2.773500 1_555
Ba10 O9 2.807354 1_555
Ba10 S1 3.207362 1_545
Ba10 S23 3.632762 1_546
Ba11 O16 2.718320 1_555
Ba11 O24 2.731440 1_655
Ba11 O4 2.773500 1_555
Ba11 O8 2.807354 1_555
Ba11 S0 3.207362 1_565
Ba11 S22 3.632762 1_565
As0 O18 1.755101 1_555
As1 O19 1.755101 1_555
As2 O16 1.755101 1_555
As3 O17 1.755101 1_555
As4 S3 2.199992 1_565
As4 S10 2.260930 1_555
As4 S12 2.701854 1_565
As5 S2 2.199992 1_545
As5 S11 2.260930 1_555
As5 S13 2.701854 1_544
As6 S1 2.199992 1_545
As6 S8 2.260930 1_555
As6 S14 2.701854 1_545
As7 S0 2.199992 1_565
As7 S9 2.260930 1_555
As7 S15 2.701854 1_566
S12 S22 2.047950 1_555
S13 S23 2.047950 1_556
S14 S20 2.047950 1_555
S15 S21 2.047950 1_554
O0 S24 1.578602 1_555
O1 S25 1.578602 1_555
O2 S26 1.578602 1_555
O3 S27 1.578602 1_555
O4 S12 1.561117 1_565
O5 S13 1.561117 1_545
O6 S14 1.561117 1_545
O7 S15 1.561117 1_565
O8 S18 1.561830 1_555
O9 S19 1.561830 1_555
O10 S16 1.561830 1_555
O11 S17 1.561830 1_555
O12 S28 1.601739 1_555
O13 S29 1.601739 1_555
O14 S30 1.601739 1_555
O15 S31 1.601739 1_555
O20 S6 1.517421 1_555
O21 S7 1.517421 1_555
O22 S4 1.517421 1_555
O23 S5 1.517421 1_555
O24 S8 1.584871 1_565
O25 S9 1.584871 1_545
O26 S10 1.584871 1_545
O27 S11 1.584871 1_565
