# generated using pymatgen
data_Mg2SnS4
_symmetry_space_group_name_H-M   'P 1'
_cell_length_a   6.24206909
_cell_length_b   7.54144427
_cell_length_c   12.99954770
_cell_angle_alpha   90.00000000
_cell_angle_beta   90.00000000
_cell_angle_gamma   90.00000000
_symmetry_Int_Tables_number   1
_chemical_formula_structural   Mg2SnS4
_chemical_formula_sum   'Mg8 Sn4 S16'
_cell_volume   611.94351856
_cell_formula_units_Z   4
loop_
 _symmetry_equiv_pos_site_id
 _symmetry_equiv_pos_as_xyz
  1  'x, y, z'
loop_
 _atom_site_type_symbol
 _atom_site_label
 _atom_site_symmetry_multiplicity
 _atom_site_fract_x
 _atom_site_fract_y
 _atom_site_fract_z
 _atom_site_occupancy
  Mg  Mg0  1  0.50000000  0.00000000  0.50000000  1
  Mg  Mg1  1  0.00000000  0.50000000  -0.00000000  1
  Mg  Mg2  1  0.50000000  0.50000000  0.50000000  1
  Mg  Mg3  1  0.00000000  0.00000000  -0.00000000  1
  Mg  Mg4  1  0.00531450  0.75000000  0.27015792  1
  Mg  Mg5  1  0.49468550  0.75000000  0.77015792  1
  Mg  Mg6  1  0.99468550  0.25000000  0.72984208  1
  Mg  Mg7  1  0.50531450  0.25000000  0.22984208  1
  Sn  Sn0  1  0.57689937  0.75000000  0.09055008  1
  Sn  Sn1  1  0.92310063  0.75000000  0.59055008  1
  Sn  Sn2  1  0.42310063  0.25000000  0.90944992  1
  Sn  Sn3  1  0.07689937  0.25000000  0.40944992  1
  S  S0  1  0.19838088  0.75000000  0.09203055  1
  S  S1  1  0.30161912  0.75000000  0.59203055  1
  S  S2  1  0.80161912  0.25000000  0.90796945  1
  S  S3  1  0.69838088  0.25000000  0.40796945  1
  S  S4  1  0.75058933  0.75000000  0.92498158  1
  S  S5  1  0.74941067  0.75000000  0.42498158  1
  S  S6  1  0.24941067  0.25000000  0.07501842  1
  S  S7  1  0.25058933  0.25000000  0.57501842  1
  S  S8  1  0.75963598  0.99566972  0.16867891  1
  S  S9  1  0.74036402  0.50433028  0.66867891  1
  S  S10  1  0.24036402  0.49566972  0.83132109  1
  S  S11  1  0.25963598  0.00433028  0.33132109  1
  S  S12  1  0.24036402  0.00433028  0.83132109  1
  S  S13  1  0.25963598  0.49566972  0.33132109  1
  S  S14  1  0.75963598  0.50433028  0.16867891  1
  S  S15  1  0.74036402  0.99566972  0.66867891  1
loop_
_geom_bond_atom_site_label_1
_geom_bond_atom_site_label_2
_geom_bond_distance
_geom_bond_site_symmetry_2
Mg0 S3 2.553284 1_555
Mg0 S1 2.553284 1_545
Mg0 S5 2.632368 1_545
Mg0 S7 2.632368 1_555
Mg0 S11 2.657127 1_555
Mg0 S15 2.657127 1_545
Mg1 S0 2.553284 1_555
Mg1 S2 2.553284 1_454
Mg1 S6 2.632368 1_555
Mg1 S4 2.632368 1_454
Mg1 S14 2.657127 1_455
Mg1 S10 2.657127 1_554
Mg2 S3 2.553284 1_555
Mg2 S1 2.553284 1_555
Mg2 S5 2.632368 1_555
Mg2 S7 2.632368 1_555
Mg2 S13 2.657127 1_555
Mg2 S9 2.657127 1_555
Mg3 S2 2.553284 1_454
Mg3 S0 2.553284 1_545
Mg3 S6 2.632368 1_555
Mg3 S4 2.632368 1_444
Mg3 S8 2.657127 1_445
Mg3 S12 2.657127 1_554
Mg4 S5 2.569494 1_455
Mg4 S0 2.610409 1_555
Mg4 S13 2.613637 1_555
Mg4 S11 2.613637 1_565
Mg4 S14 2.743083 1_455
Mg4 S8 2.743083 1_455
Mg5 S4 2.569494 1_555
Mg5 S1 2.610409 1_555
Mg5 S12 2.613637 1_565
Mg5 S10 2.613637 1_555
Mg5 S9 2.743083 1_555
Mg5 S15 2.743083 1_555
Mg6 S7 2.569494 1_655
Mg6 S2 2.610409 1_555
Mg6 S9 2.613637 1_555
Mg6 S15 2.613637 1_545
Mg6 S12 2.743083 1_655
Mg6 S10 2.743083 1_655
Mg7 S6 2.569494 1_555
Mg7 S3 2.610409 1_555
Mg7 S14 2.613637 1_555
Mg7 S8 2.613637 1_545
Mg7 S13 2.743083 1_555
Mg7 S11 2.743083 1_555
S0 Sn0 2.362817 1_555
S1 Sn1 2.362817 1_455
S2 Sn2 2.362817 1_555
S3 Sn3 2.362817 1_655
S4 Sn0 2.409962 1_556
S5 Sn1 2.409962 1_555
S6 Sn2 2.409962 1_554
S7 Sn3 2.409962 1_555
S8 Sn0 2.401069 1_555
S9 Sn1 2.401069 1_555
S10 Sn2 2.401069 1_555
S11 Sn3 2.401069 1_555
S12 Sn2 2.401069 1_555
S13 Sn3 2.401069 1_555
S14 Sn0 2.401069 1_555
S15 Sn1 2.401069 1_555
