# generated using pymatgen
data_VRhO4
_symmetry_space_group_name_H-M   'P 1'
_cell_length_a   4.58035563
_cell_length_b   4.58035563
_cell_length_c   3.02693900
_cell_angle_alpha   90.00000000
_cell_angle_beta   90.00000000
_cell_angle_gamma   90.11116669
_symmetry_Int_Tables_number   1
_chemical_formula_structural   VRhO4
_chemical_formula_sum   'V1 Rh1 O4'
_cell_volume   63.50402448
_cell_formula_units_Z   1
loop_
 _symmetry_equiv_pos_site_id
 _symmetry_equiv_pos_as_xyz
  1  'x, y, z'
loop_
 _atom_site_type_symbol
 _atom_site_label
 _atom_site_symmetry_multiplicity
 _atom_site_fract_x
 _atom_site_fract_y
 _atom_site_fract_z
 _atom_site_occupancy
  V  V0  1  0.00000000  0.00000000  0.00000000  1
  Rh  Rh0  1  0.50000000  0.50000000  0.50000000  1
  O  O0  1  0.70100700  0.29899300  0.00000000  1
  O  O1  1  0.19073200  0.19073200  0.50000000  1
  O  O2  1  0.80926800  0.80926800  0.50000000  1
  O  O3  1  0.29899300  0.70100700  0.00000000  1
loop_
_geom_bond_atom_site_label_1
_geom_bond_atom_site_label_2
_geom_bond_distance
_geom_bond_site_symmetry_2
O0 V0 1.938635 1_655
O0 Rh0 1.997297 1_554
O0 Rh0 1.997297 1_555
O1 V0 1.952960 1_556
O1 V0 1.952960 1_555
O1 Rh0 2.001370 1_555
O2 V0 1.952960 1_665
O2 V0 1.952960 1_666
O2 Rh0 2.001370 1_555
O3 V0 1.938635 1_565
O3 Rh0 1.997297 1_554
O3 Rh0 1.997297 1_555
