# generated using pymatgen
data_CaMg6VO8
_symmetry_space_group_name_H-M   'P 1'
_cell_length_a   8.68351976
_cell_length_b   4.38776831
_cell_length_c   4.38776831
_cell_angle_alpha   90.00000000
_cell_angle_beta   90.00000000
_cell_angle_gamma   90.00000000
_symmetry_Int_Tables_number   1
_chemical_formula_structural   CaMg6VO8
_chemical_formula_sum   'Ca1 Mg6 V1 O8'
_cell_volume   167.17955746
_cell_formula_units_Z   1
loop_
 _symmetry_equiv_pos_site_id
 _symmetry_equiv_pos_as_xyz
  1  'x, y, z'
loop_
 _atom_site_type_symbol
 _atom_site_label
 _atom_site_symmetry_multiplicity
 _atom_site_fract_x
 _atom_site_fract_y
 _atom_site_fract_z
 _atom_site_occupancy
  Ca  Ca0  1  0.00000000  0.00000000  -0.00000000  1
  Mg  Mg0  1  0.50000000  0.00000000  -0.00000000  1
  Mg  Mg1  1  0.50000000  0.50000000  0.50000000  1
  Mg  Mg2  1  0.25734512  0.00000000  0.50000000  1
  Mg  Mg3  1  0.74265488  -0.00000000  0.50000000  1
  Mg  Mg4  1  0.25734512  0.50000000  0.00000000  1
  Mg  Mg5  1  0.74265488  0.50000000  -0.00000000  1
  V  V0  1  0.00000000  0.50000000  0.50000000  1
  O  O0  1  0.26472661  -0.00000000  -0.00000000  1
  O  O1  1  0.73527339  0.00000000  0.00000000  1
  O  O2  1  0.25540405  0.50000000  0.50000000  1
  O  O3  1  0.74459595  0.50000000  0.50000000  1
  O  O4  1  0.00000000  0.00000000  0.50000000  1
  O  O5  1  0.50000000  0.00000000  0.50000000  1
  O  O6  1  0.00000000  0.50000000  -0.00000000  1
  O  O7  1  0.50000000  0.50000000  -0.00000000  1
loop_
_geom_bond_atom_site_label_1
_geom_bond_atom_site_label_2
_geom_bond_distance
_geom_bond_site_symmetry_2
Ca0 O6 2.193884 1_545
Ca0 O6 2.193884 1_555
Ca0 O4 2.193884 1_555
Ca0 O4 2.193884 1_554
Ca0 O1 2.298759 1_455
Ca0 O0 2.298759 1_555
Mg0 O0 2.043001 1_555
Mg0 O1 2.043001 1_555
Mg0 O5 2.193884 1_554
Mg0 O5 2.193884 1_555
Mg0 O7 2.193884 1_545
Mg0 O7 2.193884 1_555
Mg1 O3 2.123954 1_555
Mg1 O2 2.123954 1_555
Mg1 O5 2.193884 1_555
Mg1 O5 2.193884 1_565
Mg1 O7 2.193884 1_555
Mg1 O7 2.193884 1_556
Mg2 O5 2.107098 1_555
Mg2 O2 2.193949 1_545
Mg2 O2 2.193949 1_555
Mg2 O0 2.194820 1_555
Mg2 O0 2.194820 1_556
Mg2 O4 2.234661 1_555
Mg3 O5 2.107098 1_555
Mg3 O3 2.193949 1_545
Mg3 O3 2.193949 1_555
Mg3 O1 2.194820 1_555
Mg3 O1 2.194820 1_556
Mg3 O4 2.234661 1_655
Mg4 O7 2.107098 1_555
Mg4 O2 2.193949 1_554
Mg4 O2 2.193949 1_555
Mg4 O0 2.194820 1_565
Mg4 O0 2.194820 1_555
Mg4 O6 2.234661 1_555
Mg5 O7 2.107098 1_555
Mg5 O3 2.193949 1_555
Mg5 O3 2.193949 1_554
Mg5 O1 2.194820 1_565
Mg5 O1 2.194820 1_555
Mg5 O6 2.234661 1_655
O2 V0 2.217806 1_555
O3 V0 2.217806 1_655
O4 V0 2.193884 1_545
O4 V0 2.193884 1_555
O6 V0 2.193884 1_554
O6 V0 2.193884 1_555
