# generated using pymatgen
data_Sr2CaMnO6
_symmetry_space_group_name_H-M   'P 1'
_cell_length_a   5.73906740
_cell_length_b   5.73906702
_cell_length_c   5.73906425
_cell_angle_alpha   60.00002034
_cell_angle_beta   60.00001374
_cell_angle_gamma   59.99996593
_symmetry_Int_Tables_number   1
_chemical_formula_structural   Sr2CaMnO6
_chemical_formula_sum   'Sr2 Ca1 Mn1 O6'
_cell_volume   133.66223237
_cell_formula_units_Z   1
loop_
 _symmetry_equiv_pos_site_id
 _symmetry_equiv_pos_as_xyz
  1  'x, y, z'
loop_
 _atom_site_type_symbol
 _atom_site_label
 _atom_site_symmetry_multiplicity
 _atom_site_fract_x
 _atom_site_fract_y
 _atom_site_fract_z
 _atom_site_occupancy
  Sr  Sr0  1  0.25000000  0.25000000  0.25000000  1
  Sr  Sr1  1  0.75000000  0.75000000  0.75000000  1
  Ca  Ca0  1  -0.00000000  0.00000000  0.00000000  1
  Mn  Mn0  1  0.50000000  0.50000000  0.50000000  1
  O  O0  1  0.72742403  0.27257597  0.27257597  1
  O  O1  1  0.27257597  0.72742403  0.72742403  1
  O  O2  1  0.72742433  0.27257567  0.72742433  1
  O  O3  1  0.27257567  0.72742433  0.27257567  1
  O  O4  1  0.72742476  0.72742476  0.27257524  1
  O  O5  1  0.27257524  0.27257524  0.72742476  1
loop_
_geom_bond_atom_site_label_1
_geom_bond_atom_site_label_2
_geom_bond_distance
_geom_bond_site_symmetry_2
Ca0 O4 2.212294 1_445
Ca0 O5 2.212294 1_554
Ca0 O2 2.212296 1_454
Ca0 O3 2.212296 1_545
Ca0 O1 2.212298 1_544
Ca0 O0 2.212298 1_455
Mn0 O0 1.845833 1_555
Mn0 O1 1.845833 1_555
Mn0 O3 1.845836 1_555
Mn0 O2 1.845836 1_555
Mn0 O4 1.845841 1_555
Mn0 O5 1.845841 1_555
O0 Sr0 2.875378 1_555
O0 Sr1 2.875378 1_554
O0 Sr0 2.875378 1_655
O0 Sr1 2.875378 1_545
O1 Sr0 2.875378 1_556
O1 Sr1 2.875378 1_455
O1 Sr1 2.875378 1_555
O1 Sr0 2.875378 1_565
O2 Sr1 2.875378 1_555
O2 Sr1 2.875378 1_545
O2 Sr0 2.875378 1_556
O2 Sr0 2.875378 1_655
O3 Sr1 2.875378 1_554
O3 Sr1 2.875378 1_455
O3 Sr0 2.875378 1_565
O3 Sr0 2.875378 1_555
O4 Sr1 2.875376 1_554
O4 Sr1 2.875376 1_555
O4 Sr0 2.875376 1_565
O4 Sr0 2.875376 1_655
O5 Sr0 2.875376 1_556
O5 Sr1 2.875376 1_455
O5 Sr1 2.875376 1_545
O5 Sr0 2.875376 1_555
