# generated using pymatgen
data_PrAlCu
_symmetry_space_group_name_H-M   'P 1'
_cell_length_a   7.22038043
_cell_length_b   7.22038043
_cell_length_c   4.85024900
_cell_angle_alpha   90.00000000
_cell_angle_beta   90.00000000
_cell_angle_gamma   120.00000393
_symmetry_Int_Tables_number   1
_chemical_formula_structural   PrAlCu
_chemical_formula_sum   'Pr3 Al3 Cu3'
_cell_volume   218.98522307
_cell_formula_units_Z   3
loop_
 _symmetry_equiv_pos_site_id
 _symmetry_equiv_pos_as_xyz
  1  'x, y, z'
loop_
 _atom_site_type_symbol
 _atom_site_label
 _atom_site_symmetry_multiplicity
 _atom_site_fract_x
 _atom_site_fract_y
 _atom_site_fract_z
 _atom_site_occupancy
  Pr  Pr0  1  0.33333300  0.66666700  0.50000000  1
  Pr  Pr1  1  0.66666700  0.33333300  0.50000000  1
  Pr  Pr2  1  0.00000000  0.00000000  0.00000000  1
  Al  Al0  1  0.21775300  0.00000000  0.50000000  1
  Al  Al1  1  0.00000000  0.21775300  0.50000000  1
  Al  Al2  1  0.78224700  0.78224700  0.50000000  1
  Cu  Cu0  1  0.56675800  0.00000000  0.00000000  1
  Cu  Cu1  1  0.00000000  0.56675800  0.00000000  1
  Cu  Cu2  1  0.43324200  0.43324200  0.00000000  1
loop_
_geom_bond_atom_site_label_1
_geom_bond_atom_site_label_2
_geom_bond_distance
_geom_bond_site_symmetry_2
Al0 Al2 2.723233 1_445
Al0 Al1 2.723233 1_555
Al0 Pr2 2.890195 1_556
Al0 Pr2 2.890195 1_555
Al0 Pr0 2.915069 1_545
Al0 Pr1 2.915074 1_555
Al1 Al2 2.723233 1_445
Al1 Pr2 2.890195 1_556
Al1 Pr2 2.890195 1_555
Al1 Pr1 2.915069 1_455
Al1 Pr0 2.915074 1_555
Al2 Pr2 2.890195 1_665
Al2 Pr2 2.890195 1_666
Al2 Pr1 2.915076 1_555
Al2 Pr0 2.915076 1_555
Cu0 Pr2 3.128172 1_655
Cu0 Pr1 3.233891 1_554
Cu0 Pr1 3.233891 1_555
Cu0 Pr0 3.233892 1_544
Cu0 Pr0 3.233892 1_545
Cu1 Pr2 3.128172 1_565
Cu1 Pr0 3.233891 1_554
Cu1 Pr0 3.233891 1_555
Cu1 Pr1 3.233892 1_455
Cu1 Pr1 3.233892 1_454
Cu2 Pr2 3.128172 1_555
Cu2 Pr1 3.233895 1_555
Cu2 Pr0 3.233895 1_554
Cu2 Pr1 3.233895 1_554
Cu2 Pr0 3.233895 1_555
