# generated using pymatgen
data_Fe7SiO10
_symmetry_space_group_name_H-M   'P 1'
_cell_length_a   10.98846859
_cell_length_b   10.98846859
_cell_length_c   6.08488448
_cell_angle_alpha   82.09203534
_cell_angle_beta   82.09203534
_cell_angle_gamma   15.94359619
_symmetry_Int_Tables_number   1
_chemical_formula_structural   Fe7SiO10
_chemical_formula_sum   'Fe7 Si1 O10'
_cell_volume   199.86606488
_cell_formula_units_Z   1
loop_
 _symmetry_equiv_pos_site_id
 _symmetry_equiv_pos_as_xyz
  1  'x, y, z'
loop_
 _atom_site_type_symbol
 _atom_site_label
 _atom_site_symmetry_multiplicity
 _atom_site_fract_x
 _atom_site_fract_y
 _atom_site_fract_z
 _atom_site_occupancy
  Fe  Fe0  1  0.09019400  0.09019400  0.70006600  1
  Fe  Fe1  1  0.90942100  0.90942100  0.29461300  1
  Fe  Fe2  1  0.30187400  0.30187400  0.09525200  1
  Fe  Fe3  1  0.69476700  0.69476700  0.91417500  1
  Fe  Fe4  1  0.30199600  0.30199600  0.60347400  1
  Fe  Fe5  1  0.69648900  0.69648900  0.39609100  1
  Fe  Fe6  1  0.44495000  0.44495000  0.77667100  1
  Si  Si0  1  0.55846800  0.55846800  0.21930300  1
  O  O0  1  0.01835200  0.01835200  0.23702700  1
  O  O1  1  0.99664400  0.99664400  0.75665900  1
  O  O2  1  0.20922200  0.20922200  0.15560200  1
  O  O3  1  0.79409300  0.79409300  0.86589500  1
  O  O4  1  0.19307800  0.19307800  0.64916900  1
  O  O5  1  0.80207700  0.80207700  0.33418300  1
  O  O6  1  0.39601800  0.39601800  0.06178200  1
  O  O7  1  0.59831400  0.59831400  0.97019400  1
  O  O8  1  0.39802900  0.39802900  0.53653300  1
  O  O9  1  0.59601400  0.59601400  0.43330900  1
loop_
_geom_bond_atom_site_label_1
_geom_bond_atom_site_label_2
_geom_bond_distance
_geom_bond_site_symmetry_2
Fe0 O1 2.017269 1_445
Fe0 O9 2.217217 1_545
Fe0 O9 2.217217 1_455
Fe0 O4 2.217512 1_555
Fe0 O7 2.266294 1_455
Fe0 O7 2.266294 1_545
Fe1 O8 2.109363 1_565
Fe1 O8 2.109363 1_655
Fe1 O6 2.128264 1_655
Fe1 O6 2.128264 1_565
Fe1 O5 2.315157 1_555
Fe1 O0 2.347940 1_665
Fe2 O2 1.998873 1_555
Fe2 O6 2.030750 1_555
Fe2 O3 2.089134 1_544
Fe2 O3 2.089134 1_454
Fe2 O5 2.106641 1_455
Fe2 O5 2.106641 1_545
Fe3 O7 2.079484 1_555
Fe3 O3 2.140834 1_555
Fe3 O2 2.169774 1_656
Fe3 O2 2.169774 1_566
Fe3 O4 2.222719 1_655
Fe3 O4 2.222719 1_565
Fe4 O8 2.073150 1_555
Fe4 O3 2.196691 1_545
Fe4 O3 2.196691 1_455
Fe4 O5 2.237550 1_545
Fe4 O5 2.237550 1_455
Fe4 O4 2.348125 1_555
Fe5 O2 2.104260 1_565
Fe5 O2 2.104260 1_655
Fe5 O4 2.160462 1_655
Fe5 O4 2.160462 1_565
Fe5 O9 2.166969 1_555
Fe5 O5 2.276517 1_555
Fe6 O1 1.888123 1_545
Fe6 O1 1.888123 1_455
Fe6 O8 1.895424 1_555
Fe6 O6 1.905413 1_556
O0 Si0 1.752195 1_545
O0 Si0 1.752195 1_455
O7 Si0 1.638442 1_556
O9 Si0 1.630695 1_555
