# generated using pymatgen
data_Mg14ZnNiO16
_symmetry_space_group_name_H-M   'P 1'
_cell_length_a   8.51833903
_cell_length_b   8.52392296
_cell_length_c   4.26124172
_cell_angle_alpha   90.00000000
_cell_angle_beta   90.00000000
_cell_angle_gamma   90.00000000
_symmetry_Int_Tables_number   1
_chemical_formula_structural   Mg14ZnNiO16
_chemical_formula_sum   'Mg14 Zn1 Ni1 O16'
_cell_volume   309.40733650
_cell_formula_units_Z   1
loop_
 _symmetry_equiv_pos_site_id
 _symmetry_equiv_pos_as_xyz
  1  'x, y, z'
loop_
 _atom_site_type_symbol
 _atom_site_label
 _atom_site_symmetry_multiplicity
 _atom_site_fract_x
 _atom_site_fract_y
 _atom_site_fract_z
 _atom_site_occupancy
  Mg  Mg0  1  0.50000000  0.00000000  0.00000000  1
  Mg  Mg1  1  0.50000000  0.50000000  0.00000000  1
  Mg  Mg2  1  0.00000000  0.25101165  0.50000000  1
  Mg  Mg3  1  0.00000000  0.74898835  0.50000000  1
  Mg  Mg4  1  0.50000000  0.25010738  0.50000000  1
  Mg  Mg5  1  0.50000000  0.74989262  0.50000000  1
  Mg  Mg6  1  0.24964392  0.00000000  0.50000000  1
  Mg  Mg7  1  0.24874517  0.50000000  0.50000000  1
  Mg  Mg8  1  0.75035608  0.00000000  0.50000000  1
  Mg  Mg9  1  0.75125483  0.50000000  0.50000000  1
  Mg  Mg10  1  0.24917239  0.25050625  0.00000000  1
  Mg  Mg11  1  0.24917239  0.74949375  0.00000000  1
  Mg  Mg12  1  0.75082761  0.25050625  0.00000000  1
  Mg  Mg13  1  0.75082761  0.74949375  0.00000000  1
  Zn  Zn0  1  0.00000000  0.00000000  0.00000000  1
  Ni  Ni0  1  0.00000000  0.50000000  0.00000000  1
  O  O0  1  0.25310897  0.00000000  0.00000000  1
  O  O1  1  0.25087723  0.50000000  0.00000000  1
  O  O2  1  0.74689103  0.00000000  0.00000000  1
  O  O3  1  0.74912277  0.50000000  0.00000000  1
  O  O4  1  0.24923785  0.25001011  0.50000000  1
  O  O5  1  0.24923785  0.74998989  0.50000000  1
  O  O6  1  0.75076215  0.25001011  0.50000000  1
  O  O7  1  0.75076215  0.74998989  0.50000000  1
  O  O8  1  0.00000000  0.00000000  0.50000000  1
  O  O9  1  0.00000000  0.50000000  0.50000000  1
  O  O10  1  0.50000000  0.00000000  0.50000000  1
  O  O11  1  0.50000000  0.50000000  0.50000000  1
  O  O12  1  0.00000000  0.25265161  0.00000000  1
  O  O13  1  0.00000000  0.74734839  0.00000000  1
  O  O14  1  0.50000000  0.25033493  0.00000000  1
  O  O15  1  0.50000000  0.74966507  0.00000000  1
loop_
_geom_bond_atom_site_label_1
_geom_bond_atom_site_label_2
_geom_bond_distance
_geom_bond_site_symmetry_2
Mg0 O0 2.103101 1_555
Mg0 O2 2.103101 1_555
Mg0 O10 2.130621 1_555
Mg0 O10 2.130621 1_554
Mg0 O15 2.133836 1_545
Mg0 O14 2.133836 1_555
Mg1 O1 2.122112 1_555
Mg1 O3 2.122112 1_555
Mg1 O14 2.128126 1_555
Mg1 O15 2.128126 1_555
Mg1 O11 2.130621 1_554
Mg1 O11 2.130621 1_555
Mg2 O9 2.122358 1_555
Mg2 O6 2.123110 1_455
Mg2 O4 2.123110 1_555
Mg2 O12 2.130667 1_556
Mg2 O12 2.130667 1_555
Mg2 O8 2.139604 1_555
Mg3 O9 2.122358 1_555
Mg3 O7 2.123110 1_455
Mg3 O5 2.123110 1_555
Mg3 O13 2.130667 1_555
Mg3 O13 2.130667 1_556
Mg3 O8 2.139604 1_565
Mg4 O11 2.130065 1_555
Mg4 O14 2.130622 1_556
Mg4 O14 2.130622 1_555
Mg4 O10 2.131896 1_555
Mg4 O6 2.136077 1_555
Mg4 O4 2.136077 1_555
Mg5 O11 2.130065 1_555
Mg5 O15 2.130622 1_556
Mg5 O15 2.130622 1_555
Mg5 O10 2.131896 1_565
Mg5 O5 2.136077 1_555
Mg5 O7 2.136077 1_555
Mg6 O8 2.126552 1_555
Mg6 O0 2.130825 1_555
Mg6 O0 2.130825 1_556
Mg6 O5 2.131070 1_545
Mg6 O4 2.131070 1_555
Mg6 O10 2.132618 1_555
Mg7 O9 2.118896 1_555
Mg7 O1 2.130698 1_555
Mg7 O1 2.130698 1_556
Mg7 O4 2.130899 1_555
Mg7 O5 2.130899 1_555
Mg7 O11 2.140274 1_555
Mg8 O8 2.126552 1_655
Mg8 O2 2.130825 1_555
Mg8 O2 2.130825 1_556
Mg8 O7 2.131070 1_545
Mg8 O6 2.131070 1_555
Mg8 O10 2.132618 1_555
Mg9 O9 2.118896 1_655
Mg9 O3 2.130698 1_556
Mg9 O3 2.130698 1_555
Mg9 O6 2.130899 1_555
Mg9 O7 2.130899 1_555
Mg9 O11 2.140274 1_555
Mg10 O12 2.122614 1_555
Mg10 O1 2.126715 1_555
Mg10 O4 2.130625 1_554
Mg10 O4 2.130625 1_555
Mg10 O0 2.135559 1_555
Mg10 O14 2.136635 1_555
Mg11 O13 2.122614 1_555
Mg11 O1 2.126715 1_555
Mg11 O5 2.130625 1_554
Mg11 O5 2.130625 1_555
Mg11 O0 2.135559 1_565
Mg11 O15 2.136635 1_555
Mg12 O12 2.122614 1_655
Mg12 O3 2.126715 1_555
Mg12 O6 2.130625 1_555
Mg12 O6 2.130625 1_554
Mg12 O2 2.135559 1_555
Mg12 O14 2.136635 1_555
Mg13 O13 2.122614 1_655
Mg13 O3 2.126715 1_555
Mg13 O7 2.130625 1_555
Mg13 O7 2.130625 1_554
Mg13 O2 2.135559 1_565
Mg13 O15 2.136635 1_555
Ni0 O13 2.108379 1_555
Ni0 O12 2.108379 1_555
Ni0 O9 2.130621 1_554
Ni0 O9 2.130621 1_555
Ni0 O3 2.137057 1_455
Ni0 O1 2.137057 1_555
O0 Zn0 2.156068 1_555
O2 Zn0 2.156068 1_655
O8 Zn0 2.130621 1_556
O8 Zn0 2.130621 1_555
O12 Zn0 2.153583 1_555
O13 Zn0 2.153583 1_565
