# generated using pymatgen
data_Ba2Ca3Ti4Tl2O12
_symmetry_space_group_name_H-M   'P 1'
_cell_length_a   23.14558207
_cell_length_b   23.14558207
_cell_length_c   23.14558207
_cell_angle_alpha   170.25983318
_cell_angle_beta   170.25983318
_cell_angle_gamma   13.79136523
_symmetry_Int_Tables_number   1
_chemical_formula_structural   Ba2Ca3Ti4Tl2O12
_chemical_formula_sum   'Ba2 Ca3 Ti4 Tl2 O12'
_cell_volume   354.88918095
_cell_formula_units_Z   1
loop_
 _symmetry_equiv_pos_site_id
 _symmetry_equiv_pos_as_xyz
  1  'x, y, z'
loop_
 _atom_site_type_symbol
 _atom_site_label
 _atom_site_symmetry_multiplicity
 _atom_site_fract_x
 _atom_site_fract_y
 _atom_site_fract_z
 _atom_site_occupancy
  Ba  Ba0  1  0.17257700  0.17257700  0.00000000  1
  Ba  Ba1  1  0.82742300  0.82742300  0.00000000  1
  Ca  Ca0  1  0.07474400  0.07474400  0.00000000  1
  Ca  Ca1  1  0.92525600  0.92525600  0.00000000  1
  Ca  Ca2  1  0.00000000  0.00000000  0.00000000  1
  Ti  Ti0  1  0.53129300  0.53129300  0.00000000  1
  Ti  Ti1  1  0.38552100  0.38552100  0.00000000  1
  Ti  Ti2  1  0.61447900  0.61447900  0.00000000  1
  Ti  Ti3  1  0.46870700  0.46870700  0.00000000  1
  Tl  Tl0  1  0.72468800  0.72468800  0.00000000  1
  Tl  Tl1  1  0.27531200  0.27531200  0.00000000  1
  O  O0  1  0.89511400  0.39511400  0.50000000  1
  O  O1  1  0.03529800  0.53529800  0.50000000  1
  O  O2  1  0.22510900  0.22510900  0.00000000  1
  O  O3  1  0.46470200  0.96470200  0.50000000  1
  O  O4  1  0.77489100  0.77489100  0.00000000  1
  O  O5  1  0.60488600  0.10488600  0.50000000  1
  O  O6  1  0.10488600  0.60488600  0.50000000  1
  O  O7  1  0.34689000  0.34689000  0.00000000  1
  O  O8  1  0.39511400  0.89511400  0.50000000  1
  O  O9  1  0.53529800  0.03529800  0.50000000  1
  O  O10  1  0.96470200  0.46470200  0.50000000  1
  O  O11  1  0.65311000  0.65311000  0.00000000  1
loop_
_geom_bond_atom_site_label_1
_geom_bond_atom_site_label_2
_geom_bond_distance
_geom_bond_site_symmetry_2
Ba0 O2 2.414177 1_555
Ba0 O11 2.919363 1_444
Ba0 O11 2.919363 1_545
Ba0 O11 2.919363 1_455
Ba0 O11 2.919363 1_556
Ba1 O4 2.414177 1_555
Ba1 O7 2.919363 1_554
Ba1 O7 2.919363 1_655
Ba1 O7 2.919363 1_565
Ba1 O7 2.919363 1_666
Ca0 O5 2.404159 1_555
Ca0 O5 2.404159 1_454
Ca0 O6 2.404159 1_555
Ca0 O6 2.404159 1_544
Ca0 O1 2.673458 1_544
Ca0 O1 2.673458 1_555
Ca0 O9 2.673458 1_454
Ca0 O9 2.673458 1_555
Ca1 O0 2.404159 1_554
Ca1 O8 2.404159 1_554
Ca1 O8 2.404159 1_655
Ca1 O0 2.404159 1_565
Ca1 O10 2.673458 1_565
Ca1 O3 2.673458 1_554
Ca1 O3 2.673458 1_655
Ca1 O10 2.673458 1_554
Ca2 O1 2.548054 1_544
Ca2 O10 2.548054 1_455
Ca2 O1 2.548054 1_555
Ca2 O10 2.548054 1_444
Ca2 O9 2.548054 1_454
Ca2 O9 2.548054 1_555
Ca2 O3 2.548054 1_545
Ca2 O3 2.548054 1_444
O0 Ti1 2.013831 1_555
O0 Ti1 2.013831 1_656
O1 Ti0 1.973584 1_455
O1 Ti0 1.973584 1_556
O2 Tl1 2.307145 1_555
O2 Tl0 2.778973 1_444
O2 Tl0 2.778973 1_545
O2 Tl0 2.778973 1_455
O2 Tl0 2.778973 1_556
O3 Ti3 1.973584 1_555
O3 Ti3 1.973584 1_566
O4 Tl0 2.307145 1_555
O4 Tl1 2.778973 1_554
O4 Tl1 2.778973 1_655
O4 Tl1 2.778973 1_565
O4 Tl1 2.778973 1_666
O5 Ti2 2.013831 1_556
O5 Ti2 2.013831 1_545
O6 Ti2 2.013831 1_556
O6 Ti2 2.013831 1_455
O7 Ti1 1.775338 1_555
O8 Ti1 2.013831 1_555
O8 Ti1 2.013831 1_566
O9 Ti0 1.973584 1_556
O9 Ti0 1.973584 1_545
O10 Ti3 1.973584 1_555
O10 Ti3 1.973584 1_656
O11 Ti2 1.775338 1_555
