# generated using pymatgen
data_KSrTbBiO6
_symmetry_space_group_name_H-M   'P 1'
_cell_length_a   8.63988945
_cell_length_b   8.61108289
_cell_length_c   8.69546792
_cell_angle_alpha   90.00000000
_cell_angle_beta   90.00000000
_cell_angle_gamma   90.00000000
_symmetry_Int_Tables_number   1
_chemical_formula_structural   KSrTbBiO6
_chemical_formula_sum   'K4 Sr4 Tb4 Bi4 O24'
_cell_volume   646.93241533
_cell_formula_units_Z   4
loop_
 _symmetry_equiv_pos_site_id
 _symmetry_equiv_pos_as_xyz
  1  'x, y, z'
loop_
 _atom_site_type_symbol
 _atom_site_label
 _atom_site_symmetry_multiplicity
 _atom_site_fract_x
 _atom_site_fract_y
 _atom_site_fract_z
 _atom_site_occupancy
  K  K0  1  0.50000000  -0.00000000  0.50000000  1
  K  K1  1  0.50000000  0.50000000  0.00000000  1
  K  K2  1  0.00000000  0.50000000  0.00000000  1
  K  K3  1  0.00000000  -0.00000000  0.50000000  1
  Sr  Sr0  1  0.00000000  0.50000000  0.50000000  1
  Sr  Sr1  1  0.50000000  -0.00000000  -0.00000000  1
  Sr  Sr2  1  0.00000000  0.00000000  -0.00000000  1
  Sr  Sr3  1  0.50000000  0.50000000  0.50000000  1
  Tb  Tb0  1  0.25000000  0.25000000  0.25000000  1
  Tb  Tb1  1  0.75000000  0.75000000  0.25000000  1
  Tb  Tb2  1  0.75000000  0.25000000  0.75000000  1
  Tb  Tb3  1  0.25000000  0.75000000  0.75000000  1
  Bi  Bi0  1  0.75000000  0.75000000  0.75000000  1
  Bi  Bi1  1  0.25000000  0.25000000  0.75000000  1
  Bi  Bi2  1  0.25000000  0.75000000  0.25000000  1
  Bi  Bi3  1  0.75000000  0.25000000  0.25000000  1
  O  O0  1  0.99296589  0.22413634  0.27133818  1
  O  O1  1  0.00703411  0.77586366  0.27133818  1
  O  O2  1  0.00703411  0.22413634  0.72866182  1
  O  O3  1  0.99296589  0.77586366  0.72866182  1
  O  O4  1  0.27462353  0.99271515  0.20678402  1
  O  O5  1  0.27462353  0.00728485  0.79321598  1
  O  O6  1  0.72537647  0.00728485  0.20678402  1
  O  O7  1  0.72537647  0.99271515  0.79321598  1
  O  O8  1  0.22074287  0.26186764  0.99302581  1
  O  O9  1  0.77925713  0.26186764  0.00697419  1
  O  O10  1  0.22074287  0.73813236  0.00697419  1
  O  O11  1  0.77925713  0.73813236  0.99302581  1
  O  O12  1  0.50703411  0.27586366  0.22866182  1
  O  O13  1  0.49296589  0.72413634  0.22866182  1
  O  O14  1  0.49296589  0.27586366  0.77133818  1
  O  O15  1  0.50703411  0.72413634  0.77133818  1
  O  O16  1  0.22537647  0.50728485  0.29321598  1
  O  O17  1  0.22537647  0.49271515  0.70678402  1
  O  O18  1  0.77462353  0.49271515  0.29321598  1
  O  O19  1  0.77462353  0.50728485  0.70678402  1
  O  O20  1  0.27925713  0.23813236  0.50697419  1
  O  O21  1  0.72074287  0.23813236  0.49302581  1
  O  O22  1  0.27925713  0.76186764  0.49302581  1
  O  O23  1  0.72074287  0.76186764  0.50697419  1
loop_
_geom_bond_atom_site_label_1
_geom_bond_atom_site_label_2
_geom_bond_distance
_geom_bond_site_symmetry_2
K0 O20 2.801060 1_555
K0 O22 2.801060 1_545
K0 O21 2.801060 1_555
K0 O23 2.801060 1_545
K0 O4 3.208792 1_545
K0 O5 3.208792 1_555
K0 O6 3.208792 1_555
K0 O7 3.208792 1_545
K0 O13 3.348649 1_545
K0 O12 3.348649 1_555
K0 O15 3.348649 1_545
K0 O14 3.348649 1_555
K1 O12 2.771684 1_555
K1 O14 2.771684 1_554
K1 O15 2.771684 1_554
K1 O13 2.771684 1_555
K1 O9 3.167004 1_555
K1 O10 3.167004 1_555
K1 O11 3.167004 1_554
K1 O8 3.167004 1_554
K2 O8 2.801060 1_554
K2 O9 2.801060 1_455
K2 O10 2.801060 1_555
K2 O11 2.801060 1_454
K2 O16 3.208792 1_555
K2 O17 3.208792 1_554
K2 O18 3.208792 1_455
K2 O19 3.208792 1_454
K2 O2 3.348649 1_554
K2 O0 3.348649 1_455
K2 O3 3.348649 1_454
K2 O1 3.348649 1_555
K3 O0 2.771684 1_455
K3 O2 2.771684 1_555
K3 O3 2.771684 1_445
K3 O1 2.771684 1_545
K3 O20 3.167004 1_555
K3 O23 3.167004 1_445
K3 O21 3.167004 1_455
K3 O22 3.167004 1_545
Bi0 O3 2.119118 1_555
Bi0 O15 2.119118 1_555
Bi0 O23 2.130740 1_555
Bi0 O11 2.130740 1_555
Bi0 O7 2.134184 1_555
Bi0 O19 2.134184 1_555
Bi1 O14 2.119118 1_555
Bi1 O2 2.119118 1_555
Bi1 O20 2.130740 1_555
Bi1 O8 2.130740 1_555
Bi1 O5 2.134184 1_555
Bi1 O17 2.134184 1_555
Bi2 O1 2.119118 1_555
Bi2 O13 2.119118 1_555
Bi2 O10 2.130740 1_555
Bi2 O22 2.130740 1_555
Bi2 O4 2.134184 1_555
Bi2 O16 2.134184 1_555
Bi3 O12 2.119118 1_555
Bi3 O0 2.119118 1_555
Bi3 O21 2.130740 1_555
Bi3 O9 2.130740 1_555
Bi3 O18 2.134184 1_555
Bi3 O6 2.134184 1_555
O0 Tb0 2.239585 1_655
O0 Sr2 3.048875 1_655
O0 Sr0 3.098394 1_655
O1 Tb1 2.239585 1_455
O1 Sr2 3.048875 1_565
O1 Sr0 3.098394 1_555
O2 Tb2 2.239585 1_455
O2 Sr2 3.048875 1_556
O2 Sr0 3.098394 1_555
O3 Tb3 2.239585 1_655
O3 Sr2 3.048875 1_666
O3 Sr0 3.098394 1_655
O4 Tb0 2.257193 1_565
O4 Sr1 2.651176 1_565
O4 Sr2 2.977722 1_565
O5 Tb3 2.257193 1_545
O5 Sr1 2.651176 1_556
O5 Sr2 2.977722 1_556
O6 Tb1 2.257193 1_545
O6 Sr1 2.651176 1_555
O6 Sr2 2.977722 1_655
O7 Tb2 2.257193 1_565
O7 Sr1 2.651176 1_566
O7 Sr2 2.977722 1_666
O8 Tb0 2.251084 1_556
O8 Sr2 2.953968 1_556
O9 Tb2 2.251084 1_554
O9 Sr2 2.953968 1_655
O10 Tb3 2.251084 1_554
O10 Sr2 2.953968 1_565
O11 Tb1 2.251084 1_556
O11 Sr2 2.953968 1_666
O12 Tb0 2.239585 1_555
O12 Sr3 3.048875 1_555
O12 Sr1 3.098394 1_555
O13 Tb1 2.239585 1_555
O13 Sr3 3.048875 1_555
O13 Sr1 3.098394 1_565
O14 Tb2 2.239585 1_555
O14 Sr3 3.048875 1_555
O14 Sr1 3.098394 1_556
O15 Tb3 2.239585 1_555
O15 Sr3 3.048875 1_555
O15 Sr1 3.098394 1_566
O16 Tb0 2.257193 1_555
O16 Sr0 2.651176 1_555
O16 Sr3 2.977722 1_555
O17 Tb3 2.257193 1_555
O17 Sr0 2.651176 1_555
O17 Sr3 2.977722 1_555
O18 Tb1 2.257193 1_555
O18 Sr0 2.651176 1_655
O18 Sr3 2.977722 1_555
O19 Tb2 2.257193 1_555
O19 Sr0 2.651176 1_655
O19 Sr3 2.977722 1_555
O20 Tb0 2.251084 1_555
O20 Sr3 2.953968 1_555
O21 Tb2 2.251084 1_555
O21 Sr3 2.953968 1_555
O22 Tb3 2.251084 1_555
O22 Sr3 2.953968 1_555
O23 Tb1 2.251084 1_555
O23 Sr3 2.953968 1_555
