# generated using pymatgen
data_K2FeP2H3(O4F)2
_symmetry_space_group_name_H-M   'P 1'
_cell_length_a   4.85778784
_cell_length_b   8.45455100
_cell_length_c   11.03672084
_cell_angle_alpha   90.00000000
_cell_angle_beta   93.69727684
_cell_angle_gamma   90.00000000
_symmetry_Int_Tables_number   1
_chemical_formula_structural   K2FeP2H3(O4F)2
_chemical_formula_sum   'K4 Fe2 P4 H6 O16 F4'
_cell_volume   452.33928077
_cell_formula_units_Z   2
loop_
 _symmetry_equiv_pos_site_id
 _symmetry_equiv_pos_as_xyz
  1  'x, y, z'
loop_
 _atom_site_type_symbol
 _atom_site_label
 _atom_site_symmetry_multiplicity
 _atom_site_fract_x
 _atom_site_fract_y
 _atom_site_fract_z
 _atom_site_occupancy
  K  K0  1  0.50995700  0.39747400  0.82983200  1
  K  K1  1  0.49004300  0.89747400  0.67016800  1
  K  K2  1  0.49709300  0.60531500  0.16720600  1
  K  K3  1  0.50290700  0.10531500  0.33279400  1
  Fe  Fe0  1  0.49918000  0.49815200  0.50034000  1
  Fe  Fe1  1  0.50082000  0.99815200  0.99966000  1
  P  P0  1  0.98289600  0.73730500  0.41463600  1
  P  P1  1  0.01710400  0.23730500  0.08536400  1
  P  P2  1  0.01611600  0.25663700  0.58279000  1
  P  P3  1  0.98388400  0.75663700  0.91721000  1
  H  H0  1  0.94705100  0.84342300  0.22999600  1
  H  H1  1  0.05294900  0.34342300  0.27000400  1
  H  H2  1  0.04937900  0.15739200  0.76921400  1
  H  H3  1  0.95062100  0.65739200  0.73078600  1
  H  H4  1  0.98107800  0.98664500  0.49694700  1
  H  H5  1  0.01892200  0.48664500  0.00305300  1
  O  O0  1  0.76256700  0.61008200  0.39202300  1
  O  O1  1  0.23743300  0.11008200  0.10797700  1
  O  O2  1  0.23676100  0.38571600  0.60458200  1
  O  O3  1  0.76323900  0.88571600  0.89541800  1
  O  O4  1  0.09154000  0.79142700  0.28678200  1
  O  O5  1  0.90846000  0.29142700  0.21321800  1
  O  O6  1  0.90672800  0.21060200  0.71307800  1
  O  O7  1  0.09327200  0.71060200  0.78692200  1
  O  O8  1  0.24196200  0.68986200  0.49138000  1
  O  O9  1  0.75803800  0.18986200  0.00862000  1
  O  O10  1  0.75522500  0.30961500  0.50799300  1
  O  O11  1  0.24477500  0.80961500  0.99200700  1
  O  O12  1  0.84221200  0.88555600  0.47064000  1
  O  O13  1  0.15778800  0.38555600  0.02936000  1
  O  O14  1  0.14316800  0.10697700  0.52836900  1
  O  O15  1  0.85683200  0.60697700  0.97163100  1
  F  F0  1  0.31816400  0.40881800  0.34826100  1
  F  F1  1  0.68183600  0.90881800  0.15173900  1
  F  F2  1  0.67770800  0.59290200  0.64961600  1
  F  F3  1  0.32229200  0.09290200  0.85038400  1
loop_
_geom_bond_atom_site_label_1
_geom_bond_atom_site_label_2
_geom_bond_distance
_geom_bond_site_symmetry_2
K0 O2 2.743346 1_555
K0 O15 2.843558 1_555
K0 O9 2.849605 1_556
K0 O6 2.862147 1_555
K0 O13 2.876131 1_556
K1 O3 2.743346 1_555
K1 O14 2.843558 1_565
K1 O8 2.849605 1_555
K1 O7 2.862147 1_555
K1 O12 2.876131 1_555
K2 O0 2.721877 1_555
K2 O11 2.814078 1_554
K2 O13 2.856568 1_555
K2 O15 2.863514 1_554
K2 O4 2.904158 1_555
K3 O1 2.721877 1_555
K3 O10 2.814078 1_555
K3 O12 2.856568 1_545
K3 O14 2.863514 1_555
K3 O5 2.904158 1_555
Fe0 O2 2.010339 1_555
Fe0 O10 2.020266 1_555
Fe0 O0 2.039359 1_555
Fe0 O8 2.045039 1_555
Fe1 O3 2.010339 1_555
Fe1 O11 2.020266 1_555
Fe1 O1 2.039359 1_566
Fe1 O9 2.045039 1_566
H0 O4 1.010924 1_655
H1 O5 1.010924 1_455
H2 O6 1.005517 1_455
H3 O7 1.005517 1_655
H4 O12 1.115593 1_555
H4 O14 1.319111 1_665
H5 O13 1.115593 1_555
H5 O15 1.319111 1_454
O0 P0 1.526547 1_555
O1 P1 1.526547 1_555
O2 P2 1.537661 1_555
O3 P3 1.537661 1_555
O4 P0 1.604723 1_455
O5 P1 1.604723 1_655
O6 P2 1.612483 1_655
O7 P3 1.612483 1_455
O8 P0 1.524670 1_455
O9 P1 1.524670 1_655
O10 P2 1.534062 1_655
O11 P3 1.534062 1_455
O12 P0 1.573080 1_555
O13 P1 1.573080 1_555
O14 P2 1.546123 1_555
O15 P3 1.546123 1_555
F0 H1 1.602503 1_555
F0 Fe0 1.992620 1_555
F0 K3 2.727373 1_555
F0 K2 2.780724 1_555
F1 H0 1.602503 1_555
F1 Fe1 1.992620 1_554
F1 K2 2.727373 1_555
F1 K3 2.780724 1_565
F2 H3 1.644468 1_555
F2 Fe0 1.980878 1_555
F2 K1 2.745893 1_555
F2 K0 2.749390 1_555
F3 H2 1.644468 1_555
F3 Fe1 1.980878 1_545
F3 K0 2.745893 1_555
F3 K1 2.749390 1_545
