# generated using pymatgen
data_MgBiPO6
_symmetry_space_group_name_H-M   'P 1'
_cell_length_a   5.32498400
_cell_length_b   6.56298800
_cell_length_c   7.84901141
_cell_angle_alpha   68.88248853
_cell_angle_beta   90.00000000
_cell_angle_gamma   90.00000000
_symmetry_Int_Tables_number   1
_chemical_formula_structural   MgBiPO6
_chemical_formula_sum   'Mg2 Bi2 P2 O12'
_cell_volume   255.88430648
_cell_formula_units_Z   2
loop_
 _symmetry_equiv_pos_site_id
 _symmetry_equiv_pos_as_xyz
  1  'x, y, z'
loop_
 _atom_site_type_symbol
 _atom_site_label
 _atom_site_symmetry_multiplicity
 _atom_site_fract_x
 _atom_site_fract_y
 _atom_site_fract_z
 _atom_site_occupancy
  Mg  Mg0  1  0.25000000  0.85253600  0.91637100  1
  Mg  Mg1  1  0.75000000  0.14746400  0.08362900  1
  Bi  Bi0  1  0.75000000  0.80298100  0.54237100  1
  Bi  Bi1  1  0.25000000  0.19701900  0.45762900  1
  P  P0  1  0.25000000  0.37266300  0.82383700  1
  P  P1  1  0.75000000  0.62733700  0.17616300  1
  O  O0  1  0.98021000  0.03035600  0.32178800  1
  O  O1  1  0.51927800  0.77869600  0.11006000  1
  O  O2  1  0.25000000  0.55705800  0.89767900  1
  O  O3  1  0.75000000  0.44294200  0.10232100  1
  O  O4  1  0.51979000  0.03035600  0.32178800  1
  O  O5  1  0.25000000  0.47420100  0.61053400  1
  O  O6  1  0.01979000  0.96964400  0.67821200  1
  O  O7  1  0.48021000  0.96964400  0.67821200  1
  O  O8  1  0.01927800  0.22130400  0.88994000  1
  O  O9  1  0.75000000  0.52579900  0.38946600  1
  O  O10  1  0.98072200  0.77869600  0.11006000  1
  O  O11  1  0.48072200  0.22130400  0.88994000  1
loop_
_geom_bond_atom_site_label_1
_geom_bond_atom_site_label_2
_geom_bond_distance
_geom_bond_site_symmetry_2
Mg0 O2 1.996773 1_555
Mg0 O10 2.017738 1_456
Mg0 O1 2.017738 1_556
Mg0 O7 2.133669 1_555
Mg0 O6 2.133669 1_555
Mg1 O3 1.996773 1_555
Mg1 O8 2.017738 1_654
Mg1 O11 2.017738 1_554
Mg1 O4 2.133669 1_555
Mg1 O0 2.133669 1_555
Bi0 O4 2.205790 1_565
Bi0 O0 2.205790 1_565
Bi0 O6 2.288554 1_655
Bi0 O7 2.288554 1_555
Bi0 O9 2.514521 1_555
Bi1 O6 2.205790 1_545
Bi1 O7 2.205790 1_545
Bi1 O0 2.288554 1_455
Bi1 O4 2.288554 1_555
Bi1 O5 2.514521 1_555
O1 P1 1.547266 1_555
O2 P0 1.518509 1_555
O3 P1 1.518509 1_555
O5 P0 1.563061 1_555
O8 P0 1.547266 1_555
O9 P1 1.563061 1_555
O10 P1 1.547266 1_555
O11 P0 1.547266 1_555
