# generated using pymatgen
data_KMg6Bi
_symmetry_space_group_name_H-M   'P 1'
_cell_length_a   5.33780000
_cell_length_b   6.65503400
_cell_length_c   12.15186500
_cell_angle_alpha   90.00000000
_cell_angle_beta   90.00000000
_cell_angle_gamma   90.00000000
_symmetry_Int_Tables_number   1
_chemical_formula_structural   KMg6Bi
_chemical_formula_sum   'K2 Mg12 Bi2'
_cell_volume   431.67362274
_cell_formula_units_Z   2
loop_
 _symmetry_equiv_pos_site_id
 _symmetry_equiv_pos_as_xyz
  1  'x, y, z'
loop_
 _atom_site_type_symbol
 _atom_site_label
 _atom_site_symmetry_multiplicity
 _atom_site_fract_x
 _atom_site_fract_y
 _atom_site_fract_z
 _atom_site_occupancy
  K  K0  1  0.50000000  0.50000000  0.66828300  1
  K  K1  1  0.50000000  0.00000000  0.16828300  1
  Mg  Mg0  1  0.50000000  0.74657300  0.91677200  1
  Mg  Mg1  1  0.50000000  0.25342700  0.91677200  1
  Mg  Mg2  1  0.00000000  0.24512400  0.57680100  1
  Mg  Mg3  1  0.00000000  0.75487600  0.57680100  1
  Mg  Mg4  1  0.00000000  0.50000000  0.84178300  1
  Mg  Mg5  1  0.00000000  0.00000000  0.83911200  1
  Mg  Mg6  1  0.50000000  0.24657300  0.41677200  1
  Mg  Mg7  1  0.50000000  0.75342700  0.41677200  1
  Mg  Mg8  1  0.00000000  0.74512400  0.07680100  1
  Mg  Mg9  1  0.00000000  0.25487600  0.07680100  1
  Mg  Mg10  1  0.00000000  0.00000000  0.34178300  1
  Mg  Mg11  1  0.00000000  0.50000000  0.33911200  1
  Bi  Bi0  1  0.50000000  0.00000000  0.66367100  1
  Bi  Bi1  1  0.50000000  0.50000000  0.16367100  1
loop_
_geom_bond_atom_site_label_1
_geom_bond_atom_site_label_2
_geom_bond_distance
_geom_bond_site_symmetry_2
K0 Mg3 3.352011 1_555
K0 Mg3 3.352011 1_655
K0 Mg2 3.352011 1_555
K0 Mg2 3.352011 1_655
K0 Mg4 3.401200 1_655
K0 Mg4 3.401200 1_555
K0 Mg0 3.436675 1_555
K0 Mg1 3.436675 1_555
K0 Mg7 3.490794 1_555
K0 Mg6 3.490794 1_555
K1 Mg9 3.352011 1_655
K1 Mg8 3.352011 1_545
K1 Mg8 3.352011 1_645
K1 Mg9 3.352011 1_555
K1 Mg10 3.401200 1_655
K1 Mg10 3.401200 1_555
K1 Mg7 3.436675 1_545
K1 Mg6 3.436675 1_555
K1 Mg1 3.490794 1_554
K1 Mg0 3.490794 1_544
Mg0 Mg4 3.262842 1_655
Mg0 Mg4 3.262842 1_555
Mg0 Mg1 3.281903 1_555
Mg0 Mg5 3.295167 1_665
Mg0 Mg5 3.295167 1_565
Mg0 Mg8 3.302240 1_656
Mg0 Mg8 3.302240 1_556
Mg0 Mg1 3.373131 1_565
Mg1 Mg4 3.262842 1_555
Mg1 Mg4 3.262842 1_655
Mg1 Mg5 3.295167 1_655
Mg1 Mg5 3.295167 1_555
Mg1 Mg9 3.302240 1_556
Mg1 Mg9 3.302240 1_656
Mg2 Mg3 3.262617 1_545
Mg2 Mg6 3.302240 1_555
Mg2 Mg6 3.302240 1_455
Mg2 Mg3 3.392417 1_555
Mg3 Mg7 3.302240 1_455
Mg3 Mg7 3.302240 1_555
Mg4 Mg8 3.288977 1_556
Mg4 Mg9 3.288977 1_556
Mg4 Mg5 3.327675 1_555
Mg4 Mg5 3.327675 1_565
Mg5 Mg8 3.349593 1_546
Mg5 Mg9 3.349593 1_556
Mg6 Mg7 3.281903 1_545
Mg6 Mg7 3.373131 1_555
Mg8 Mg9 3.262617 1_555
Mg8 Mg9 3.392417 1_565
Mg10 Mg6 3.262842 1_455
Mg10 Mg6 3.262842 1_555
Mg10 Mg7 3.262842 1_545
Mg10 Mg7 3.262842 1_445
Mg10 Mg2 3.288977 1_555
Mg10 Mg3 3.288977 1_545
Mg10 Mg11 3.327675 1_555
Mg10 Mg11 3.327675 1_545
Mg11 Mg7 3.295167 1_555
Mg11 Mg6 3.295167 1_455
Mg11 Mg6 3.295167 1_555
Mg11 Mg7 3.295167 1_455
Mg11 Mg3 3.349593 1_555
Mg11 Mg2 3.349593 1_555
Bi0 Mg2 3.301296 1_655
Bi0 Mg2 3.301296 1_555
Bi0 Mg3 3.301296 1_645
Bi0 Mg3 3.301296 1_545
Bi0 K0 3.327989 1_555
Bi0 K0 3.327989 1_545
Bi0 Mg5 3.415871 1_655
Bi0 Mg5 3.415871 1_555
Bi0 Mg7 3.419711 1_545
Bi0 Mg6 3.419711 1_555
Bi0 Mg1 3.507723 1_555
Bi0 Mg0 3.507723 1_545
Bi1 Mg8 3.301296 1_655
Bi1 Mg9 3.301296 1_555
Bi1 Mg9 3.301296 1_655
Bi1 Mg8 3.301296 1_555
Bi1 K1 3.327989 1_555
Bi1 K1 3.327989 1_565
Bi1 Mg11 3.415871 1_655
Bi1 Mg11 3.415871 1_555
Bi1 Mg0 3.419711 1_554
Bi1 Mg1 3.419711 1_554
Bi1 Mg7 3.507723 1_555
Bi1 Mg6 3.507723 1_555
