# generated using pymatgen
data_MgP4H24(NO)8
_symmetry_space_group_name_H-M   'P 1'
_cell_length_a   8.07311963
_cell_length_b   8.54417014
_cell_length_c   7.21194554
_cell_angle_alpha   92.68271438
_cell_angle_beta   115.44055173
_cell_angle_gamma   90.10952378
_symmetry_Int_Tables_number   1
_chemical_formula_structural   MgP4H24(NO)8
_chemical_formula_sum   'Mg1 P4 H24 N8 O8'
_cell_volume   448.60174977
_cell_formula_units_Z   1
loop_
 _symmetry_equiv_pos_site_id
 _symmetry_equiv_pos_as_xyz
  1  'x, y, z'
loop_
 _atom_site_type_symbol
 _atom_site_label
 _atom_site_symmetry_multiplicity
 _atom_site_fract_x
 _atom_site_fract_y
 _atom_site_fract_z
 _atom_site_occupancy
  Mg  Mg0  1  0.61596950  0.18715174  0.06711405  1
  P  P0  1  0.87303174  0.48594539  0.83699589  1
  P  P1  1  0.14179480  0.95892010  0.65777940  1
  P  P2  1  0.12613694  0.53476903  0.12864219  1
  P  P3  1  0.88016924  0.00316671  0.39087696  1
  H  H0  1  0.95871179  0.22267379  0.83048619  1
  H  H1  1  0.08104357  0.69662295  0.67404675  1
  H  H2  1  0.05994520  0.79503692  0.17863283  1
  H  H3  1  0.95513485  0.26755214  0.37187978  1
  H  H4  1  0.75547578  0.24261857  0.84458300  1
  H  H5  1  0.19882831  0.72606669  0.53462917  1
  H  H6  1  0.18890992  0.77866298  0.04976485  1
  H  H7  1  0.83257318  0.24752888  0.51120769  1
  H  H8  1  0.28852594  0.44354279  0.82341905  1
  H  H9  1  0.69920801  0.89232364  0.64559236  1
  H  H10  1  0.69572702  0.58134094  0.14449648  1
  H  H11  1  0.27237932  0.08637332  0.37061437  1
  H  H12  1  0.23674778  0.44898684  0.56139897  1
  H  H13  1  0.75266225  0.91450695  0.90471028  1
  H  H14  1  0.74544954  0.56914826  0.40095400  1
  H  H15  1  0.23006969  0.06676184  0.10750801  1
  H  H16  1  0.46078894  0.45618277  0.75144158  1
  H  H17  1  0.53288467  0.91259529  0.72783768  1
  H  H18  1  0.52088655  0.56147305  0.21268682  1
  H  H19  1  0.44436096  0.07781467  0.29761696  1
  H  H20  1  0.33521145  0.28983729  0.70336246  1
  H  H21  1  0.65979561  0.74367945  0.77806526  1
  H  H22  1  0.65318843  0.73165915  0.28124371  1
  H  H23  1  0.31289192  0.23740262  0.24039373  1
  N  N0  1  0.84431995  0.29024536  0.79033698  1
  N  N1  1  0.17918525  0.76695716  0.65917727  1
  N  N2  1  0.15963275  0.72985792  0.15955715  1
  N  N3  1  0.85679187  0.20163809  0.38986278  1
  N  N4  1  0.32781965  0.41139268  0.70711579  1
  N  N5  1  0.66056005  0.86539286  0.76233130  1
  N  N6  1  0.65291011  0.61007377  0.25837692  1
  N  N7  1  0.31264962  0.11737194  0.25543570  1
  O  O0  1  0.90611982  0.55487792  0.66404676  1
  O  O1  1  0.11706803  0.01082165  0.84872175  1
  O  O2  1  0.09221689  0.47633736  0.30604169  1
  O  O3  1  0.89405624  0.95488165  0.19170541  1
  O  O4  1  0.70373389  0.54622181  0.86251745  1
  O  O5  1  0.28580883  0.04075698  0.60833802  1
  O  O6  1  0.28721478  0.46428308  0.09609074  1
  O  O7  1  0.71140938  0.93917002  0.41236383  1
loop_
_geom_bond_atom_site_label_1
_geom_bond_atom_site_label_2
_geom_bond_distance
_geom_bond_site_symmetry_2
Mg0 N3 2.301577 1_555
H0 N0 1.028574 1_555
H1 N1 1.038076 1_555
H2 N2 1.032674 1_555
H3 N3 1.028551 1_555
H4 N0 1.043052 1_555
H4 Mg0 2.385530 1_556
H5 N1 1.023352 1_555
H6 N2 1.023743 1_555
H7 N3 1.035859 1_555
H8 N4 1.042590 1_555
H9 N5 1.050078 1_555
H10 N6 1.039060 1_555
H11 N7 1.057415 1_555
H12 N4 1.056794 1_555
H13 N5 1.042044 1_555
H14 N6 1.054696 1_555
H15 N7 1.055584 1_555
H16 N4 1.045537 1_555
H17 N5 1.038097 1_555
H18 N6 1.049186 1_555
H19 N7 1.034658 1_555
H20 N4 1.040171 1_555
H21 N5 1.051672 1_555
H22 N6 1.044049 1_555
H23 N7 1.036407 1_555
N0 P0 1.685733 1_555
N1 P1 1.667988 1_555
N2 P2 1.677196 1_555
N3 P3 1.706610 1_555
O0 P0 1.525916 1_555
O1 P1 1.520579 1_545
O2 P2 1.523603 1_555
O3 P3 1.526144 1_565
O4 P0 1.541786 1_555
O5 P1 1.531078 1_545
O6 P2 1.536520 1_555
O7 P3 1.538069 1_565
