# generated using pymatgen
data_V2P2O9
_symmetry_space_group_name_H-M   'P 1'
_cell_length_a   6.37296500
_cell_length_b   7.70297200
_cell_length_c   13.81525200
_cell_angle_alpha   90.00000000
_cell_angle_beta   90.00000000
_cell_angle_gamma   90.00000000
_symmetry_Int_Tables_number   1
_chemical_formula_structural   V2P2O9
_chemical_formula_sum   'V8 P8 O36'
_cell_volume   678.20137158
_cell_formula_units_Z   4
loop_
 _symmetry_equiv_pos_site_id
 _symmetry_equiv_pos_as_xyz
  1  'x, y, z'
loop_
 _atom_site_type_symbol
 _atom_site_label
 _atom_site_symmetry_multiplicity
 _atom_site_fract_x
 _atom_site_fract_y
 _atom_site_fract_z
 _atom_site_occupancy
  V  V0  1  0.25000000  0.84979200  0.37824900  1
  V  V1  1  0.75000000  0.15020800  0.62175100  1
  V  V2  1  0.75000000  0.34979200  0.12175100  1
  V  V3  1  0.25000000  0.65020800  0.87824900  1
  V  V4  1  0.00000000  0.50000000  0.50000000  1
  V  V5  1  0.00000000  0.00000000  0.00000000  1
  V  V6  1  0.50000000  0.00000000  0.00000000  1
  V  V7  1  0.50000000  0.50000000  0.50000000  1
  P  P0  1  0.75000000  0.85356000  0.43627700  1
  P  P1  1  0.25000000  0.14644000  0.56372300  1
  P  P2  1  0.25000000  0.35356000  0.06372300  1
  P  P3  1  0.75000000  0.64644000  0.93627700  1
  P  P4  1  0.25000000  0.89442300  0.19142100  1
  P  P5  1  0.25000000  0.60557700  0.69142100  1
  P  P6  1  0.75000000  0.39442300  0.30857900  1
  P  P7  1  0.75000000  0.10557700  0.80857900  1
  O  O0  1  0.55472800  0.09403800  0.87731800  1
  O  O1  1  0.05472800  0.90596200  0.12268200  1
  O  O2  1  0.44527200  0.59403800  0.62268200  1
  O  O3  1  0.94527200  0.40596200  0.37731800  1
  O  O4  1  0.44527200  0.90596200  0.12268200  1
  O  O5  1  0.94527200  0.09403800  0.87731800  1
  O  O6  1  0.55472800  0.40596200  0.37731800  1
  O  O7  1  0.05472800  0.59403800  0.62268200  1
  O  O8  1  0.75000000  0.83597300  0.98420600  1
  O  O9  1  0.25000000  0.16402700  0.01579400  1
  O  O10  1  0.25000000  0.33597300  0.51579400  1
  O  O11  1  0.75000000  0.66402700  0.48420600  1
  O  O12  1  0.25000000  0.63631200  0.45000300  1
  O  O13  1  0.75000000  0.36368800  0.54999700  1
  O  O14  1  0.75000000  0.13631200  0.04999700  1
  O  O15  1  0.25000000  0.86368800  0.95000300  1
  O  O16  1  0.25000000  0.72480900  0.25234300  1
  O  O17  1  0.75000000  0.27519100  0.74765700  1
  O  O18  1  0.75000000  0.22480900  0.24765700  1
  O  O19  1  0.25000000  0.77519100  0.75234300  1
  O  O20  1  0.94571500  0.63458800  0.87414500  1
  O  O21  1  0.44571500  0.36541200  0.12585500  1
  O  O22  1  0.05428500  0.13458800  0.62585500  1
  O  O23  1  0.55428500  0.86541200  0.37414500  1
  O  O24  1  0.05428500  0.36541200  0.12585500  1
  O  O25  1  0.55428500  0.63458800  0.87414500  1
  O  O26  1  0.94571500  0.86541200  0.37414500  1
  O  O27  1  0.44571500  0.13458800  0.62585500  1
  O  O28  1  0.25000000  0.01227100  0.48164900  1
  O  O29  1  0.75000000  0.53483400  0.23042300  1
  O  O30  1  0.75000000  0.96516600  0.73042300  1
  O  O31  1  0.25000000  0.03483400  0.26957700  1
  O  O32  1  0.25000000  0.48772900  0.98164900  1
  O  O33  1  0.75000000  0.51227100  0.01835100  1
  O  O34  1  0.75000000  0.98772900  0.51835100  1
  O  O35  1  0.25000000  0.46516600  0.76957700  1
loop_
_geom_bond_atom_site_label_1
_geom_bond_atom_site_label_2
_geom_bond_distance
_geom_bond_site_symmetry_2
O0 P7 1.567933 1_555
O0 V6 1.875897 1_556
O1 P4 1.567933 1_555
O1 V5 1.875897 1_565
O2 P5 1.567933 1_555
O2 V7 1.875897 1_555
O3 P6 1.567933 1_555
O3 V4 1.875897 1_655
O4 P4 1.567933 1_555
O4 V6 1.875897 1_565
O5 P7 1.567933 1_555
O5 V5 1.875897 1_656
O6 P6 1.567933 1_555
O6 V7 1.875897 1_555
O7 P5 1.567933 1_555
O7 V4 1.875897 1_555
O8 P3 1.603106 1_555
O8 V5 2.045104 1_666
O8 V6 2.045104 1_566
O9 P2 1.603106 1_555
O9 V6 2.045104 1_555
O9 V5 2.045104 1_555
O10 P1 1.603106 1_555
O10 V7 2.045104 1_555
O10 V4 2.045104 1_555
O11 P0 1.603106 1_555
O11 V7 2.045104 1_555
O11 V4 2.045104 1_655
O12 V0 1.920111 1_555
O12 V7 2.029293 1_555
O12 V4 2.029293 1_555
O13 V1 1.920111 1_555
O13 V7 2.029293 1_555
O13 V4 2.029293 1_655
O14 V2 1.920111 1_555
O14 V5 2.029293 1_655
O14 V6 2.029293 1_555
O15 V3 1.920111 1_555
O15 V5 2.029293 1_566
O15 V6 2.029293 1_566
O16 P4 1.554157 1_555
O16 V0 1.988080 1_555
O17 P7 1.554157 1_555
O17 V1 1.988080 1_555
O18 P6 1.554157 1_555
O18 V2 1.988080 1_555
O19 P5 1.554157 1_555
O19 V3 1.988080 1_555
O20 P3 1.516856 1_555
O20 V3 1.943754 1_655
O21 P2 1.516856 1_555
O21 V2 1.943754 1_555
O22 P1 1.516856 1_555
O22 V1 1.943754 1_455
O23 P0 1.516856 1_555
O23 V0 1.943754 1_555
O24 P2 1.516856 1_555
O24 V2 1.943754 1_455
O25 P3 1.516856 1_555
O25 V3 1.943754 1_555
O26 P0 1.516856 1_555
O26 V0 1.943754 1_655
O27 P1 1.516856 1_555
O27 V1 1.943754 1_555
O28 P1 1.534207 1_555
O28 V0 1.899219 1_545
O29 P6 1.528289 1_555
O29 V2 2.070189 1_555
O30 P7 1.528289 1_565
O30 V1 2.070189 1_565
O31 P4 1.528289 1_545
O31 V0 2.070189 1_545
O32 P2 1.534207 1_556
O32 V3 1.899219 1_555
O33 P3 1.534207 1_554
O33 V2 1.899219 1_555
O34 P0 1.534207 1_555
O34 V1 1.899219 1_565
O35 P5 1.528289 1_555
O35 V3 2.070189 1_555
