# generated using pymatgen
data_Zn3P6N12Cl
_symmetry_space_group_name_H-M   'P 1'
_cell_length_a   7.17266012
_cell_length_b   7.17266012
_cell_length_c   7.17266013
_cell_angle_alpha   109.36779358
_cell_angle_beta   109.36779358
_cell_angle_gamma   109.36778238
_symmetry_Int_Tables_number   1
_chemical_formula_structural   Zn3P6N12Cl
_chemical_formula_sum   'Zn3 P6 N12 Cl1'
_cell_volume   285.14836525
_cell_formula_units_Z   1
loop_
 _symmetry_equiv_pos_site_id
 _symmetry_equiv_pos_as_xyz
  1  'x, y, z'
loop_
 _atom_site_type_symbol
 _atom_site_label
 _atom_site_symmetry_multiplicity
 _atom_site_fract_x
 _atom_site_fract_y
 _atom_site_fract_z
 _atom_site_occupancy
  Zn  Zn0  1  0.00100500  0.35735200  0.00100500  1
  Zn  Zn1  1  0.00100500  0.00100500  0.35735200  1
  Zn  Zn2  1  0.35735200  0.00100500  0.00100500  1
  P  P0  1  0.49813500  0.25263200  0.74763800  1
  P  P1  1  0.25263200  0.74763800  0.49813500  1
  P  P2  1  0.74763800  0.49813500  0.25263200  1
  P  P3  1  0.74763800  0.25263200  0.49813500  1
  P  P4  1  0.49813500  0.74763800  0.25263200  1
  P  P5  1  0.25263200  0.49813500  0.74763800  1
  N  N0  1  0.44114500  0.71736000  0.44114500  1
  N  N1  1  0.71736000  0.44114500  0.44114500  1
  N  N2  1  0.44114500  0.44114500  0.71736000  1
  N  N3  1  0.72541200  0.27549300  0.72541200  1
  N  N4  1  0.99886400  0.55348500  0.27372600  1
  N  N5  1  0.27372600  0.55348500  0.99886400  1
  N  N6  1  0.27372600  0.99886400  0.55348500  1
  N  N7  1  0.99886400  0.27372600  0.55348500  1
  N  N8  1  0.72541200  0.72541200  0.27549300  1
  N  N9  1  0.55348500  0.99886400  0.27372600  1
  N  N10  1  0.27549300  0.72541200  0.72541200  1
  N  N11  1  0.55348500  0.27372600  0.99886400  1
  Cl  Cl0  1  0.02570800  0.02570800  0.02570800  1
loop_
_geom_bond_atom_site_label_1
_geom_bond_atom_site_label_2
_geom_bond_distance
_geom_bond_site_symmetry_2
N0 P1 1.595312 1_555
N0 P4 1.595312 1_555
N1 P3 1.595312 1_555
N1 P2 1.595312 1_555
N2 P5 1.595311 1_555
N2 P0 1.595311 1_555
N3 P3 1.649910 1_555
N3 P0 1.649911 1_555
N3 Zn0 2.007091 1_656
N4 P1 1.652902 1_655
N4 P2 1.652998 1_555
N4 Zn0 2.003699 1_655
N5 P4 1.652902 1_556
N5 P5 1.652998 1_555
N5 Zn0 2.003699 1_556
N6 P0 1.652902 1_565
N6 P1 1.652998 1_555
N6 Zn1 2.003699 1_565
N7 P5 1.652902 1_655
N7 P3 1.652998 1_555
N7 Zn1 2.003699 1_655
N8 P4 1.649910 1_555
N8 P2 1.649910 1_555
N8 Zn1 2.007091 1_665
N9 P3 1.652902 1_565
N9 P4 1.652998 1_555
N9 Zn2 2.003699 1_565
N10 P1 1.649910 1_555
N10 P5 1.649911 1_555
N10 Zn2 2.007091 1_566
N11 P2 1.652902 1_556
N11 P0 1.652998 1_555
N11 Zn2 2.003699 1_556
Cl0 Zn0 2.501924 1_555
Cl0 Zn2 2.501924 1_555
Cl0 Zn1 2.501924 1_555
