# generated using pymatgen
data_TiCrCuS4
_symmetry_space_group_name_H-M   'P 1'
_cell_length_a   6.28099739
_cell_length_b   7.30378298
_cell_length_c   12.38707073
_cell_angle_alpha   81.56525449
_cell_angle_beta   85.16688242
_cell_angle_gamma   89.89335911
_symmetry_Int_Tables_number   1
_chemical_formula_structural   TiCrCuS4
_chemical_formula_sum   'Ti4 Cr4 Cu4 S16'
_cell_volume   560.08041911
_cell_formula_units_Z   4
loop_
 _symmetry_equiv_pos_site_id
 _symmetry_equiv_pos_as_xyz
  1  'x, y, z'
loop_
 _atom_site_type_symbol
 _atom_site_label
 _atom_site_symmetry_multiplicity
 _atom_site_fract_x
 _atom_site_fract_y
 _atom_site_fract_z
 _atom_site_occupancy
  Ti  Ti0  1  0.85656900  0.29926700  0.29579400  1
  Ti  Ti1  1  0.23678800  0.88554800  0.00024800  1
  Ti  Ti2  1  0.76368400  0.10900200  0.99834600  1
  Ti  Ti3  1  0.62974000  0.44414700  0.70623700  1
  Cr  Cr0  1  0.14805800  0.70186600  0.70937000  1
  Cr  Cr1  1  0.36558400  0.55726400  0.28962200  1
  Cr  Cr2  1  0.36690600  0.04391200  0.29520100  1
  Cr  Cr3  1  0.62280900  0.94996700  0.70466400  1
  Cu  Cu0  1  0.13297300  0.19972200  0.70193500  1
  Cu  Cu1  1  0.87569000  0.80255800  0.29866600  1
  Cu  Cu2  1  0.25079500  0.37723100  0.99728900  1
  Cu  Cu3  1  0.75025100  0.63148600  0.00293300  1
  S  S0  1  0.10467200  0.65333200  0.89241900  1
  S  S1  1  0.89369800  0.34592600  0.10940000  1
  S  S2  1  0.09844600  0.14724700  0.89205400  1
  S  S3  1  0.90266000  0.85348100  0.10917700  1
  S  S4  1  0.19965100  0.77848300  0.36449100  1
  S  S5  1  0.80667600  0.21576300  0.63019200  1
  S  S6  1  0.19469600  0.28765700  0.36043500  1
  S  S7  1  0.81941800  0.71797300  0.63901000  1
  S  S8  1  0.30869400  0.96328700  0.63350400  1
  S  S9  1  0.68512200  0.02957200  0.36900600  1
  S  S10  1  0.30684700  0.46799600  0.63324000  1
  S  S11  1  0.68216700  0.54165400  0.36166500  1
  S  S12  1  0.40490100  0.09344700  0.10923000  1
  S  S13  1  0.59177500  0.90376000  0.89256500  1
  S  S14  1  0.39683700  0.60337800  0.10899300  1
  S  S15  1  0.60389100  0.39507400  0.89431400  1
loop_
_geom_bond_atom_site_label_1
_geom_bond_atom_site_label_2
_geom_bond_distance
_geom_bond_site_symmetry_2
Cr0 S8 2.206308 1_555
Cr0 S0 2.236436 1_555
Cr0 S10 2.260414 1_555
Cr0 S7 2.303581 1_455
Cr1 S4 2.197127 1_555
Cr1 S14 2.205306 1_555
Cr1 S11 2.243137 1_555
Cr1 S6 2.267497 1_555
Cr2 S4 2.228475 1_545
Cr2 S9 2.262892 1_555
Cr2 S12 2.271071 1_555
Cr2 S6 2.293431 1_555
Cr3 S8 2.224000 1_555
Cr3 S5 2.292786 1_565
Cr3 S13 2.294057 1_555
Cr3 S7 2.298852 1_555
Cu0 S10 2.262368 1_555
Cu0 S8 2.276719 1_545
Cu0 S5 2.297670 1_455
Cu0 S2 2.321527 1_555
Cu1 S4 2.252188 1_655
Cu1 S11 2.265006 1_555
Cu1 S9 2.276344 1_565
Cu1 S3 2.313777 1_555
Cu2 S0 2.453966 1_555
Cu2 S15 2.457287 1_555
Cu2 S2 2.508990 1_555
Cu2 S14 2.524720 1_556
Cu2 S1 2.528921 1_456
Cu2 S12 2.555630 1_556
Cu3 S3 2.474145 1_555
Cu3 S14 2.475233 1_555
Cu3 S13 2.497772 1_554
Cu3 S0 2.505752 1_654
Cu3 S1 2.507462 1_555
Cu3 S15 2.555928 1_554
S0 Ti1 2.491156 1_556
S1 Ti0 2.275997 1_555
S1 Ti2 2.539008 1_554
S2 Ti1 2.375533 1_546
S2 Ti2 2.379173 1_455
S3 Ti2 2.360918 1_564
S3 Ti1 2.389939 1_655
S5 Ti3 2.276507 1_555
S6 Ti0 2.329102 1_455
S7 Ti3 2.337902 1_555
S9 Ti0 2.276273 1_555
S10 Ti3 2.285300 1_555
S11 Ti0 2.294725 1_555
S12 Ti1 2.467912 1_545
S12 Ti2 2.532077 1_554
S13 Ti2 2.439387 1_565
S13 Ti1 2.493241 1_556
S14 Ti1 2.545281 1_555
S15 Ti3 2.296508 1_555
S15 Ti2 2.540438 1_555
