# generated using pymatgen
data_Cu3Sn
_symmetry_space_group_name_H-M   'P 1'
_cell_length_a   24.06793480
_cell_length_b   24.06793480
_cell_length_c   4.33293300
_cell_angle_alpha   90.00000000
_cell_angle_beta   90.00000000
_cell_angle_gamma   166.54471838
_symmetry_Int_Tables_number   1
_chemical_formula_structural   Cu3Sn
_chemical_formula_sum   'Cu30 Sn10'
_cell_volume   584.02384530
_cell_formula_units_Z   10
loop_
 _symmetry_equiv_pos_site_id
 _symmetry_equiv_pos_as_xyz
  1  'x, y, z'
loop_
 _atom_site_type_symbol
 _atom_site_label
 _atom_site_symmetry_multiplicity
 _atom_site_fract_x
 _atom_site_fract_y
 _atom_site_fract_z
 _atom_site_occupancy
  Cu  Cu0  1  0.93039600  0.06960400  0.25000000  1
  Cu  Cu1  1  0.06960400  0.93039600  0.75000000  1
  Cu  Cu2  1  0.82970100  0.17029900  0.25000000  1
  Cu  Cu3  1  0.17029900  0.82970100  0.75000000  1
  Cu  Cu4  1  0.72947800  0.27052200  0.25000000  1
  Cu  Cu5  1  0.27052200  0.72947800  0.75000000  1
  Cu  Cu6  1  0.62919800  0.37080200  0.25000000  1
  Cu  Cu7  1  0.37080200  0.62919800  0.75000000  1
  Cu  Cu8  1  0.53018200  0.46981800  0.25000000  1
  Cu  Cu9  1  0.46981800  0.53018200  0.75000000  1
  Cu  Cu10  1  0.72218900  0.75336400  0.25000000  1
  Cu  Cu11  1  0.75336400  0.72218900  0.75000000  1
  Cu  Cu12  1  0.27781100  0.24663600  0.75000000  1
  Cu  Cu13  1  0.24663600  0.27781100  0.25000000  1
  Cu  Cu14  1  0.63343800  0.86423800  0.25000000  1
  Cu  Cu15  1  0.86423800  0.63343800  0.75000000  1
  Cu  Cu16  1  0.36656200  0.13576200  0.75000000  1
  Cu  Cu17  1  0.13576200  0.36656200  0.25000000  1
  Cu  Cu18  1  0.53126100  0.96207400  0.25000000  1
  Cu  Cu19  1  0.96207400  0.53126100  0.75000000  1
  Cu  Cu20  1  0.46873900  0.03792600  0.75000000  1
  Cu  Cu21  1  0.03792600  0.46873900  0.25000000  1
  Cu  Cu22  1  0.43060600  0.06158000  0.25000000  1
  Cu  Cu23  1  0.06158000  0.43060600  0.75000000  1
  Cu  Cu24  1  0.56939400  0.93842000  0.75000000  1
  Cu  Cu25  1  0.93842000  0.56939400  0.25000000  1
  Cu  Cu26  1  0.32807700  0.15937400  0.25000000  1
  Cu  Cu27  1  0.15937400  0.32807700  0.75000000  1
  Cu  Cu28  1  0.67192300  0.84062600  0.75000000  1
  Cu  Cu29  1  0.84062600  0.67192300  0.25000000  1
  Sn  Sn0  1  0.03413400  0.96586600  0.25000000  1
  Sn  Sn1  1  0.96586600  0.03413400  0.75000000  1
  Sn  Sn2  1  0.13453900  0.86546100  0.25000000  1
  Sn  Sn3  1  0.86546100  0.13453900  0.75000000  1
  Sn  Sn4  1  0.23452200  0.76547800  0.25000000  1
  Sn  Sn5  1  0.76547800  0.23452200  0.75000000  1
  Sn  Sn6  1  0.33453000  0.66547000  0.25000000  1
  Sn  Sn7  1  0.66547000  0.33453000  0.75000000  1
  Sn  Sn8  1  0.43380800  0.56619200  0.25000000  1
  Sn  Sn9  1  0.56619200  0.43380800  0.75000000  1
loop_
_geom_bond_atom_site_label_1
_geom_bond_atom_site_label_2
_geom_bond_distance
_geom_bond_site_symmetry_2
Cu0 Cu14 2.607453 1_545
Cu0 Cu17 2.607453 1_655
Cu0 Cu27 2.660744 1_655
Cu0 Cu27 2.660744 1_654
Cu0 Cu28 2.660744 1_544
Cu0 Cu28 2.660744 1_545
Cu0 Sn1 2.751129 1_554
Cu0 Sn1 2.751129 1_555
Cu0 Sn8 2.824269 1_655
Cu0 Sn8 2.824269 1_545
Cu0 Cu13 2.975647 1_655
Cu0 Cu10 2.975647 1_545
Cu1 Cu15 2.607453 1_455
Cu1 Cu16 2.607453 1_565
Cu1 Cu26 2.660744 1_565
Cu1 Cu26 2.660744 1_566
Cu1 Cu29 2.660744 1_456
Cu1 Cu29 2.660744 1_455
Cu1 Sn0 2.751129 1_556
Cu1 Sn0 2.751129 1_555
Cu1 Sn9 2.824269 1_565
Cu1 Sn9 2.824269 1_455
Cu1 Cu12 2.975647 1_565
Cu1 Cu11 2.975647 1_455
Cu2 Cu21 2.586620 1_655
Cu2 Cu24 2.661038 1_544
Cu2 Cu24 2.661038 1_545
Cu2 Cu23 2.661038 1_655
Cu2 Cu23 2.661038 1_654
Cu2 Sn3 2.759696 1_555
Cu2 Sn3 2.759696 1_554
Cu2 Sn6 2.828989 1_545
Cu2 Sn6 2.828989 1_655
Cu3 Sn2 2.759696 1_556
Cu3 Sn2 2.759696 1_555
Cu3 Sn7 2.828989 1_455
Cu3 Sn7 2.828989 1_565
Cu4 Sn5 2.766817 1_555
Cu4 Sn5 2.766817 1_554
Cu4 Sn4 2.829847 1_655
Cu4 Sn4 2.829847 1_545
Cu5 Sn4 2.766817 1_556
Cu5 Sn4 2.766817 1_555
Cu5 Sn5 2.829847 1_565
Cu5 Sn5 2.829847 1_455
Cu6 Sn7 2.774924 1_555
Cu6 Sn7 2.774924 1_554
Cu6 Sn2 2.831092 1_545
Cu6 Sn2 2.831092 1_655
Cu7 Sn6 2.774924 1_555
Cu7 Sn6 2.774924 1_556
Cu7 Sn3 2.831092 1_455
Cu7 Sn3 2.831092 1_565
Cu8 Sn9 2.767115 1_554
Cu8 Sn9 2.767115 1_555
Cu8 Sn0 2.825877 1_545
Cu8 Sn0 2.825877 1_655
Cu9 Sn8 2.767115 1_555
Cu9 Sn8 2.767115 1_556
Cu9 Sn1 2.825877 1_455
Cu9 Sn1 2.825877 1_565
Cu10 Cu8 2.566154 1_555
Cu10 Cu11 2.629559 1_554
Cu10 Cu11 2.629559 1_555
Cu10 Cu9 2.641630 1_555
Cu10 Cu9 2.641630 1_554
Cu10 Cu13 2.681696 1_555
Cu10 Sn8 2.765865 1_555
Cu10 Sn1 2.768794 1_565
Cu10 Sn1 2.768794 1_564
Cu10 Sn0 2.799333 1_655
Cu10 Cu13 2.957414 1_665
Cu11 Cu9 2.566154 1_555
Cu11 Cu8 2.641630 1_556
Cu11 Cu8 2.641630 1_555
Cu11 Cu12 2.681696 1_555
Cu11 Sn9 2.765865 1_555
Cu11 Sn0 2.768794 1_655
Cu11 Sn0 2.768794 1_656
Cu11 Sn1 2.799333 1_565
Cu11 Cu12 2.957414 1_665
Cu12 Cu9 2.566154 1_555
Cu12 Cu13 2.629559 1_555
Cu12 Cu13 2.629559 1_556
Cu12 Cu8 2.641630 1_556
Cu12 Cu8 2.641630 1_555
Cu12 Sn9 2.765865 1_555
Cu12 Sn0 2.768794 1_546
Cu12 Sn0 2.768794 1_545
Cu12 Sn1 2.799333 1_455
Cu13 Cu8 2.566154 1_555
Cu13 Cu9 2.641630 1_555
Cu13 Cu9 2.641630 1_554
Cu13 Sn8 2.765865 1_555
Cu13 Sn1 2.768794 1_454
Cu13 Sn1 2.768794 1_455
Cu13 Sn0 2.799333 1_545
Cu14 Cu28 2.626471 1_555
Cu14 Cu28 2.626471 1_554
Cu14 Cu7 2.664150 1_555
Cu14 Cu7 2.664150 1_554
Cu14 Sn8 2.739094 1_555
Cu14 Sn3 2.745298 1_565
Cu14 Sn3 2.745298 1_564
Cu14 Sn6 2.774564 1_555
Cu14 Cu17 2.806450 1_555
Cu14 Cu17 2.832660 1_665
Cu14 Cu2 2.982205 1_565
Cu15 Cu29 2.626471 1_556
Cu15 Cu29 2.626471 1_555
Cu15 Cu6 2.664150 1_556
Cu15 Cu6 2.664150 1_555
Cu15 Sn9 2.739094 1_555
Cu15 Sn2 2.745298 1_656
Cu15 Sn2 2.745298 1_655
Cu15 Sn7 2.774564 1_555
Cu15 Cu16 2.806450 1_555
Cu15 Cu16 2.832660 1_665
Cu15 Cu3 2.982205 1_655
Cu16 Cu26 2.626471 1_555
Cu16 Cu26 2.626471 1_556
Cu16 Cu6 2.664150 1_556
Cu16 Cu6 2.664150 1_555
Cu16 Sn9 2.739094 1_555
Cu16 Sn2 2.745298 1_545
Cu16 Sn2 2.745298 1_546
Cu16 Sn7 2.774564 1_555
Cu16 Cu3 2.982205 1_545
Cu17 Cu27 2.626471 1_554
Cu17 Cu27 2.626471 1_555
Cu17 Cu7 2.664150 1_555
Cu17 Cu7 2.664150 1_554
Cu17 Sn8 2.739094 1_555
Cu17 Sn3 2.745298 1_454
Cu17 Sn3 2.745298 1_455
Cu17 Sn6 2.774564 1_555
Cu17 Cu2 2.982205 1_455
Cu18 Cu2 2.586620 1_565
Cu18 Cu24 2.622273 1_555
Cu18 Cu24 2.622273 1_554
Cu18 Cu5 2.660999 1_555
Cu18 Cu5 2.660999 1_554
Cu18 Sn5 2.751260 1_564
Cu18 Sn5 2.751260 1_565
Cu18 Sn6 2.762878 1_555
Cu18 Sn4 2.768456 1_555
Cu18 Cu21 2.781970 1_555
Cu18 Cu21 2.857140 1_665
Cu18 Cu4 2.997131 1_565
Cu19 Cu3 2.586620 1_655
Cu19 Cu25 2.622273 1_555
Cu19 Cu25 2.622273 1_556
Cu19 Cu4 2.660999 1_556
Cu19 Cu4 2.660999 1_555
Cu19 Sn4 2.751260 1_655
Cu19 Sn4 2.751260 1_656
Cu19 Sn7 2.762878 1_555
Cu19 Sn5 2.768456 1_555
Cu19 Cu20 2.781970 1_555
Cu19 Cu20 2.857140 1_665
Cu19 Cu5 2.997131 1_655
Cu20 Cu3 2.586620 1_545
Cu20 Cu22 2.622273 1_555
Cu20 Cu22 2.622273 1_556
Cu20 Cu4 2.660999 1_555
Cu20 Cu4 2.660999 1_556
Cu20 Sn4 2.751260 1_546
Cu20 Sn4 2.751260 1_545
Cu20 Sn7 2.762878 1_555
Cu20 Sn5 2.768456 1_555
Cu20 Cu5 2.997131 1_545
Cu21 Cu23 2.622273 1_555
Cu21 Cu23 2.622273 1_554
Cu21 Cu5 2.660999 1_554
Cu21 Cu5 2.660999 1_555
Cu21 Sn5 2.751260 1_455
Cu21 Sn5 2.751260 1_454
Cu21 Sn6 2.762878 1_555
Cu21 Sn4 2.768456 1_555
Cu21 Cu4 2.997131 1_455
Cu22 Cu4 2.582739 1_555
Cu22 Cu3 2.661038 1_544
Cu22 Cu3 2.661038 1_545
Cu22 Sn7 2.751795 1_555
Cu22 Sn7 2.751795 1_554
Cu22 Sn2 2.762798 1_545
Cu22 Sn4 2.764245 1_545
Cu22 Cu25 2.775491 1_445
Cu22 Cu25 2.863619 1_555
Cu22 Cu6 3.007060 1_555
Cu23 Cu5 2.582739 1_555
Cu23 Sn6 2.751795 1_555
Cu23 Sn6 2.751795 1_556
Cu23 Sn3 2.762798 1_455
Cu23 Sn5 2.764245 1_455
Cu23 Cu24 2.775491 1_445
Cu23 Cu24 2.863619 1_555
Cu23 Cu7 3.007060 1_555
Cu24 Cu5 2.582739 1_555
Cu24 Sn6 2.751795 1_555
Cu24 Sn6 2.751795 1_556
Cu24 Sn3 2.762798 1_565
Cu24 Sn5 2.764245 1_565
Cu24 Cu7 3.007060 1_555
Cu25 Cu4 2.582739 1_555
Cu25 Cu3 2.661038 1_655
Cu25 Cu3 2.661038 1_654
Cu25 Sn7 2.751795 1_554
Cu25 Sn7 2.751795 1_555
Cu25 Sn2 2.762798 1_655
Cu25 Sn4 2.764245 1_655
Cu25 Cu6 3.007060 1_555
Cu26 Cu6 2.585465 1_555
Cu26 Sn9 2.745117 1_555
Cu26 Sn9 2.745117 1_554
Cu26 Cu29 2.748790 1_445
Cu26 Sn2 2.764968 1_545
Cu26 Sn0 2.766212 1_545
Cu26 Cu29 2.890320 1_555
Cu26 Cu8 2.965504 1_555
Cu27 Cu7 2.585465 1_555
Cu27 Sn8 2.745117 1_555
Cu27 Sn8 2.745117 1_556
Cu27 Cu28 2.748790 1_445
Cu27 Sn3 2.764968 1_455
Cu27 Sn1 2.766212 1_455
Cu27 Cu28 2.890320 1_555
Cu27 Cu9 2.965504 1_555
Cu28 Cu7 2.585465 1_555
Cu28 Sn8 2.745117 1_555
Cu28 Sn8 2.745117 1_556
Cu28 Sn3 2.764968 1_565
Cu28 Sn1 2.766212 1_565
Cu28 Cu9 2.965504 1_555
Cu29 Cu6 2.585465 1_555
Cu29 Sn9 2.745117 1_555
Cu29 Sn9 2.745117 1_554
Cu29 Sn2 2.764968 1_655
Cu29 Sn0 2.766212 1_655
Cu29 Cu8 2.965504 1_555
