# generated using pymatgen
data_LiYb(WO4)2
_symmetry_space_group_name_H-M   'P 1'
_cell_length_a   6.02652000
_cell_length_b   5.07280200
_cell_length_c   11.14558416
_cell_angle_alpha   65.34428377
_cell_angle_beta   90.00000000
_cell_angle_gamma   90.00000000
_symmetry_Int_Tables_number   1
_chemical_formula_structural   LiYb(WO4)2
_chemical_formula_sum   'Li2 Yb2 W4 O16'
_cell_volume   309.67091798
_cell_formula_units_Z   2
loop_
 _symmetry_equiv_pos_site_id
 _symmetry_equiv_pos_as_xyz
  1  'x, y, z'
loop_
 _atom_site_type_symbol
 _atom_site_label
 _atom_site_symmetry_multiplicity
 _atom_site_fract_x
 _atom_site_fract_y
 _atom_site_fract_z
 _atom_site_occupancy
  Li  Li0  1  0.27267200  0.50000000  0.75000000  1
  Li  Li1  1  0.72732800  0.50000000  0.25000000  1
  Yb  Yb0  1  0.66047300  0.00000000  0.75000000  1
  Yb  Yb1  1  0.33952700  0.00000000  0.25000000  1
  W  W0  1  0.17106600  0.24360300  0.51126600  1
  W  W1  1  0.82893400  0.75639700  0.48873400  1
  W  W2  1  0.17106600  0.75639700  0.98873400  1
  W  W3  1  0.82893400  0.24360300  0.01126600  1
  O  O0  1  0.63161300  0.77989300  0.60794200  1
  O  O1  1  0.36838700  0.22010700  0.39205800  1
  O  O2  1  0.63161300  0.22010700  0.89205800  1
  O  O3  1  0.36838700  0.77989300  0.10794200  1
  O  O4  1  0.35160500  0.27168100  0.63567800  1
  O  O5  1  0.64839500  0.72831900  0.36432200  1
  O  O6  1  0.35160500  0.72831900  0.86432200  1
  O  O7  1  0.64839500  0.27168100  0.13567800  1
  O  O8  1  0.09048600  0.83593200  0.60691100  1
  O  O9  1  0.90951400  0.16406800  0.39308900  1
  O  O10  1  0.09048600  0.16406800  0.89308900  1
  O  O11  1  0.90951400  0.83593200  0.10691100  1
  O  O12  1  0.88553100  0.33950700  0.59459300  1
  O  O13  1  0.11446900  0.66049300  0.40540700  1
  O  O14  1  0.88553100  0.66049300  0.90540700  1
  O  O15  1  0.11446900  0.33950700  0.09459300  1
loop_
_geom_bond_atom_site_label_1
_geom_bond_atom_site_label_2
_geom_bond_distance
_geom_bond_site_symmetry_2
Li0 O10 2.094142 1_555
Li0 O8 2.094142 1_555
Li0 O6 2.102995 1_555
Li0 O4 2.102995 1_555
Li1 O11 2.094142 1_555
Li1 O9 2.094142 1_555
Li1 O7 2.102995 1_555
Li1 O5 2.102995 1_555
O0 W1 1.823656 1_555
O0 Yb0 2.293216 1_565
O1 W0 1.823656 1_555
O1 Yb1 2.293216 1_555
O2 W3 1.823656 1_556
O2 Yb0 2.293216 1_555
O3 W2 1.823656 1_554
O3 Yb1 2.293216 1_565
O4 W0 1.814290 1_555
O4 Yb0 2.350024 1_555
O5 W1 1.814290 1_555
O5 Yb1 2.350024 1_565
O6 W2 1.814290 1_555
O6 Yb0 2.350024 1_565
O7 W3 1.814290 1_555
O7 Yb1 2.350024 1_555
O8 W0 1.951833 1_565
O8 W1 2.196728 1_455
O9 W1 1.951833 1_545
O9 W0 2.196728 1_655
O10 W2 1.951833 1_545
O10 W3 2.196728 1_456
O11 W3 1.951833 1_565
O11 W2 2.196728 1_654
O12 W1 1.974587 1_555
O12 W0 2.106487 1_655
O12 Yb0 2.305867 1_555
O13 W0 1.974587 1_555
O13 W1 2.106487 1_455
O13 Yb1 2.305867 1_565
O14 W3 1.974587 1_556
O14 W2 2.106487 1_655
O14 Yb0 2.305867 1_565
O15 W2 1.974587 1_554
O15 W3 2.106487 1_455
O15 Yb1 2.305867 1_555
