# generated using pymatgen
data_Li6Zr6HCl18
_symmetry_space_group_name_H-M   'P 1'
_cell_length_a   9.84162192
_cell_length_b   9.84162192
_cell_length_c   9.84162206
_cell_angle_alpha   111.24703050
_cell_angle_beta   111.24703050
_cell_angle_gamma   111.24702194
_symmetry_Int_Tables_number   1
_chemical_formula_structural   Li6Zr6HCl18
_chemical_formula_sum   'Li6 Zr6 H1 Cl18'
_cell_volume   681.30546582
_cell_formula_units_Z   1
loop_
 _symmetry_equiv_pos_site_id
 _symmetry_equiv_pos_as_xyz
  1  'x, y, z'
loop_
 _atom_site_type_symbol
 _atom_site_label
 _atom_site_symmetry_multiplicity
 _atom_site_fract_x
 _atom_site_fract_y
 _atom_site_fract_z
 _atom_site_occupancy
  Li  Li0  1  0.33399200  0.40607000  0.78264500  1
  Li  Li1  1  0.78264500  0.33399200  0.40607000  1
  Li  Li2  1  0.40607000  0.78264500  0.33399200  1
  Li  Li3  1  0.66600800  0.59393000  0.21735500  1
  Li  Li4  1  0.21735500  0.66600800  0.59393000  1
  Li  Li5  1  0.59393000  0.21735500  0.66600800  1
  Zr  Zr0  1  0.97772400  0.84032400  0.75106000  1
  Zr  Zr1  1  0.75106000  0.97772400  0.84032400  1
  Zr  Zr2  1  0.84032400  0.75106000  0.97772400  1
  Zr  Zr3  1  0.02227600  0.15967600  0.24894000  1
  Zr  Zr4  1  0.24894000  0.02227600  0.15967600  1
  Zr  Zr5  1  0.15967600  0.24894000  0.02227600  1
  H  H0  1  0.00000000  0.00000000  0.00000000  1
  Cl  Cl0  1  0.30914100  0.20812000  0.46648900  1
  Cl  Cl1  1  0.46648900  0.30914100  0.20812000  1
  Cl  Cl2  1  0.20812000  0.46648900  0.30914100  1
  Cl  Cl3  1  0.69085900  0.79188000  0.53351100  1
  Cl  Cl4  1  0.53351100  0.69085900  0.79188000  1
  Cl  Cl5  1  0.79188000  0.53351100  0.69085900  1
  Cl  Cl6  1  0.25523300  0.84289400  0.89742200  1
  Cl  Cl7  1  0.89742200  0.25523300  0.84289400  1
  Cl  Cl8  1  0.84289400  0.89742200  0.25523300  1
  Cl  Cl9  1  0.74476700  0.15710600  0.10257800  1
  Cl  Cl10  1  0.10257800  0.74476700  0.15710600  1
  Cl  Cl11  1  0.15710600  0.10257800  0.74476700  1
  Cl  Cl12  1  0.06666900  0.36921200  0.55688200  1
  Cl  Cl13  1  0.55688200  0.06666900  0.36921200  1
  Cl  Cl14  1  0.36921200  0.55688200  0.06666900  1
  Cl  Cl15  1  0.93333100  0.63078800  0.44311800  1
  Cl  Cl16  1  0.44311800  0.93333100  0.63078800  1
  Cl  Cl17  1  0.63078800  0.44311800  0.93333100  1
loop_
_geom_bond_atom_site_label_1
_geom_bond_atom_site_label_2
_geom_bond_distance
_geom_bond_site_symmetry_2
H0 Zr4 2.256218 1_555
H0 Zr1 2.256218 1_444
H0 Zr3 2.256218 1_555
H0 Zr0 2.256218 1_444
H0 Zr5 2.256218 1_555
H0 Zr2 2.256218 1_444
Cl0 Zr3 2.585630 1_555
Cl0 Zr4 2.594049 1_555
Cl0 Li5 2.723369 1_555
Cl0 Li0 2.871623 1_555
Cl1 Zr4 2.585630 1_555
Cl1 Zr5 2.594049 1_555
Cl1 Li3 2.723369 1_555
Cl1 Li1 2.871623 1_555
Cl2 Zr5 2.585630 1_555
Cl2 Zr3 2.594049 1_555
Cl2 Li4 2.723369 1_555
Cl2 Li2 2.871624 1_555
Cl3 Zr0 2.585630 1_555
Cl3 Zr1 2.594049 1_555
Cl3 Li2 2.723369 1_555
Cl3 Li3 2.871623 1_555
Cl4 Zr1 2.585630 1_555
Cl4 Zr2 2.594049 1_555
Cl4 Li0 2.723369 1_555
Cl4 Li4 2.871623 1_555
Cl5 Zr2 2.585630 1_555
Cl5 Zr0 2.594049 1_555
Cl5 Li1 2.723369 1_555
Cl5 Li5 2.871624 1_555
Cl6 Zr0 2.570377 1_455
Cl6 Zr4 2.583547 1_566
Cl6 Li4 2.654214 1_555
Cl7 Zr1 2.570378 1_545
Cl7 Zr5 2.583547 1_656
Cl7 Li5 2.654214 1_555
Cl8 Zr2 2.570377 1_554
Cl8 Zr3 2.583547 1_665
Cl8 Li3 2.654215 1_555
Cl9 Zr3 2.570377 1_655
Cl9 Zr1 2.583547 1_544
Cl9 Li1 2.654214 1_555
Cl10 Zr4 2.570378 1_565
Cl10 Zr2 2.583547 1_454
Cl10 Li2 2.654214 1_555
Cl11 Zr5 2.570377 1_556
Cl11 Zr0 2.583547 1_445
Cl11 Li0 2.654215 1_555
Cl12 Li1 2.460583 1_455
Cl12 Li0 2.545066 1_555
Cl12 Li4 2.561409 1_555
Cl12 Zr3 2.736043 1_555
Cl13 Li2 2.460583 1_545
Cl13 Li1 2.545066 1_555
Cl13 Li5 2.561409 1_555
Cl13 Zr4 2.736043 1_555
Cl14 Li0 2.460583 1_554
Cl14 Li2 2.545066 1_555
Cl14 Li3 2.561409 1_555
Cl14 Zr5 2.736043 1_555
Cl15 Li4 2.460583 1_655
Cl15 Li3 2.545066 1_555
Cl15 Li1 2.561409 1_555
Cl15 Zr0 2.736043 1_555
Cl16 Li5 2.460583 1_565
Cl16 Li4 2.545066 1_555
Cl16 Li2 2.561409 1_555
Cl16 Zr1 2.736043 1_555
Cl17 Li3 2.460583 1_556
Cl17 Li5 2.545066 1_555
Cl17 Li0 2.561409 1_555
Cl17 Zr2 2.736043 1_555
