# generated using pymatgen
data_Na2LiBiF6
_symmetry_space_group_name_H-M   'P 1'
_cell_length_a   6.04216946
_cell_length_b   6.04216946
_cell_length_c   6.04216946
_cell_angle_alpha   60.00000000
_cell_angle_beta   60.00000000
_cell_angle_gamma   60.00000000
_symmetry_Int_Tables_number   1
_chemical_formula_structural   Na2LiBiF6
_chemical_formula_sum   'Na2 Li1 Bi1 F6'
_cell_volume   155.97812915
_cell_formula_units_Z   1
loop_
 _symmetry_equiv_pos_site_id
 _symmetry_equiv_pos_as_xyz
  1  'x, y, z'
loop_
 _atom_site_type_symbol
 _atom_site_label
 _atom_site_symmetry_multiplicity
 _atom_site_fract_x
 _atom_site_fract_y
 _atom_site_fract_z
 _atom_site_occupancy
  Na  Na0  1  0.75000000  0.75000000  0.75000000  1
  Na  Na1  1  0.25000000  0.25000000  0.25000000  1
  Li  Li0  1  0.50000000  0.50000000  0.50000000  1
  Bi  Bi0  1  0.00000000  0.00000000  0.00000000  1
  F  F0  1  0.73708800  0.26291200  0.26291200  1
  F  F1  1  0.26291200  0.26291200  0.73708800  1
  F  F2  1  0.26291200  0.73708800  0.73708800  1
  F  F3  1  0.26291200  0.73708800  0.26291200  1
  F  F4  1  0.73708800  0.26291200  0.73708800  1
  F  F5  1  0.73708800  0.73708800  0.26291200  1
loop_
_geom_bond_atom_site_label_1
_geom_bond_atom_site_label_2
_geom_bond_distance
_geom_bond_site_symmetry_2
Bi0 F1 2.246561 1_554
Bi0 F0 2.246561 1_455
Bi0 F3 2.246561 1_545
Bi0 F5 2.246561 1_445
Bi0 F4 2.246561 1_454
Bi0 F2 2.246561 1_544
F0 Li0 2.025898 1_555
F1 Li0 2.025898 1_555
F2 Li0 2.025898 1_555
F3 Li0 2.025898 1_555
F4 Li0 2.025898 1_555
F5 Li0 2.025898 1_555
