# generated using pymatgen
data_MgSi2
_symmetry_space_group_name_H-M   'P 1'
_cell_length_a   3.76251600
_cell_length_b   6.28449738
_cell_length_c   10.37395824
_cell_angle_alpha   102.50241763
_cell_angle_beta   93.76522478
_cell_angle_gamma   90.04989736
_symmetry_Int_Tables_number   1
_chemical_formula_structural   MgSi2
_chemical_formula_sum   'Mg4 Si8'
_cell_volume   238.93530775
_cell_formula_units_Z   4
loop_
 _symmetry_equiv_pos_site_id
 _symmetry_equiv_pos_as_xyz
  1  'x, y, z'
loop_
 _atom_site_type_symbol
 _atom_site_label
 _atom_site_symmetry_multiplicity
 _atom_site_fract_x
 _atom_site_fract_y
 _atom_site_fract_z
 _atom_site_occupancy
  Mg  Mg0  1  0.56619600  0.68684100  0.01095400  1
  Mg  Mg1  1  0.61619200  0.53202000  0.49554800  1
  Mg  Mg2  1  0.04521200  0.21930700  0.00044000  1
  Mg  Mg3  1  0.10881500  0.99724400  0.48882100  1
  Si  Si0  1  0.14983000  0.85955400  0.81114700  1
  Si  Si1  1  0.57216400  0.39355700  0.20065400  1
  Si  Si2  1  0.08628600  0.89705500  0.20238400  1
  Si  Si3  1  0.03991000  0.48087200  0.81386700  1
  Si  Si4  1  0.51432400  0.31498300  0.69025200  1
  Si  Si5  1  0.60321400  0.09450700  0.30121300  1
  Si  Si6  1  0.08882400  0.59204200  0.30016600  1
  Si  Si7  1  0.62478100  0.93201400  0.68455300  1
loop_
_geom_bond_atom_site_label_1
_geom_bond_atom_site_label_2
_geom_bond_distance
_geom_bond_site_symmetry_2
Mg0 Si2 2.804906 1_655
Mg0 Si3 2.845132 1_554
Mg0 Si2 2.879007 1_555
Mg0 Si3 2.892985 1_654
Mg0 Si0 2.911931 1_554
Mg0 Si1 2.972401 1_555
Mg1 Si4 2.716743 1_555
Mg1 Si6 2.826984 1_555
Mg1 Si7 2.832323 1_555
Mg1 Si6 2.866372 1_655
Mg1 Si1 2.987320 1_555
Mg1 Si5 3.035394 1_555
Mg2 Si0 2.702498 1_544
Mg2 Si3 2.796631 1_554
Mg2 Si1 2.813314 1_555
Mg2 Si1 2.860976 1_455
Mg2 Si2 3.210776 1_545
Mg3 Si5 2.794846 1_465
Mg3 Si7 2.811382 1_555
Mg3 Si6 2.853608 1_555
Mg3 Si2 2.896572 1_555
Mg3 Si4 2.907085 1_565
Mg3 Si7 2.907323 1_455
Mg3 Si5 2.934335 1_565
Si0 Si7 2.385627 1_555
Si0 Si7 2.398843 1_455
Si0 Si3 2.421633 1_555
Si1 Si5 2.338203 1_555
Si1 Si6 2.361198 1_655
Si1 Si6 2.371048 1_555
Si2 Si6 2.354575 1_555
Si2 Si5 2.357296 1_565
Si2 Si5 2.364810 1_465
Si3 Si4 2.375413 1_555
Si3 Si4 2.393007 1_455
Si4 Si7 2.431483 1_545
