# generated using pymatgen
data_Ag3O4
_symmetry_space_group_name_H-M   'P 1'
_cell_length_a   3.60103047
_cell_length_b   5.67629920
_cell_length_c   9.23171217
_cell_angle_alpha   90.00241489
_cell_angle_beta   90.00050231
_cell_angle_gamma   104.60375179
_symmetry_Int_Tables_number   1
_chemical_formula_structural   Ag3O4
_chemical_formula_sum   'Ag6 O8'
_cell_volume   182.60462719
_cell_formula_units_Z   2
loop_
 _symmetry_equiv_pos_site_id
 _symmetry_equiv_pos_as_xyz
  1  'x, y, z'
loop_
 _atom_site_type_symbol
 _atom_site_label
 _atom_site_symmetry_multiplicity
 _atom_site_fract_x
 _atom_site_fract_y
 _atom_site_fract_z
 _atom_site_occupancy
  Ag  Ag0  1  0.28674917  0.54917146  0.85838553  1
  Ag  Ag1  1  0.71315361  0.95082209  0.35840712  1
  Ag  Ag2  1  0.71325083  0.45082854  0.14161447  1
  Ag  Ag3  1  0.28684639  0.04917791  0.64159288  1
  Ag  Ag4  1  -0.00000000  0.50000000  0.50000000  1
  Ag  Ag5  1  -0.00000000  0.00000000  0.00000000  1
  O  O0  1  0.04619338  0.33092084  0.69103058  1
  O  O1  1  0.95382977  0.16912768  0.19099949  1
  O  O2  1  0.95380662  0.66907916  0.30896942  1
  O  O3  1  0.04617023  0.83087232  0.80900051  1
  O  O4  1  0.47514379  0.27347577  0.95530196  1
  O  O5  1  0.52487950  0.22650186  0.45531989  1
  O  O6  1  0.47512050  0.77349814  0.54468011  1
  O  O7  1  0.52485621  0.72652423  0.04469804  1
loop_
_geom_bond_atom_site_label_1
_geom_bond_atom_site_label_2
_geom_bond_distance
_geom_bond_site_symmetry_2
Ag0 O0 2.032425 1_555
Ag0 O3 2.052766 1_555
Ag0 O4 2.060394 1_555
Ag0 O7 2.066772 1_556
Ag1 O1 2.033160 1_565
Ag1 O2 2.053224 1_555
Ag1 O5 2.060025 1_565
Ag1 O6 2.066411 1_555
Ag2 O2 2.032425 1_555
Ag2 O1 2.052766 1_555
Ag2 O7 2.060394 1_555
Ag2 O4 2.066772 1_554
Ag3 O3 2.033160 1_545
Ag3 O0 2.053224 1_555
Ag3 O6 2.060025 1_545
Ag3 O5 2.066411 1_555
Ag4 O0 2.034574 1_555
Ag4 O2 2.034574 1_455
Ag4 O5 2.041581 1_455
Ag4 O6 2.041581 1_555
Ag5 O1 2.034377 1_455
Ag5 O3 2.034377 1_544
Ag5 O4 2.041632 1_554
Ag5 O7 2.041632 1_445
