# generated using pymatgen
data_SrCd2Pd
_symmetry_space_group_name_H-M   'P 1'
_cell_length_a   5.80414829
_cell_length_b   5.80414829
_cell_length_c   8.16481685
_cell_angle_alpha   90.00000000
_cell_angle_beta   90.00000000
_cell_angle_gamma   135.20148759
_symmetry_Int_Tables_number   1
_chemical_formula_structural   SrCd2Pd
_chemical_formula_sum   'Sr2 Cd4 Pd2'
_cell_volume   193.80983668
_cell_formula_units_Z   2
loop_
 _symmetry_equiv_pos_site_id
 _symmetry_equiv_pos_as_xyz
  1  'x, y, z'
loop_
 _atom_site_type_symbol
 _atom_site_label
 _atom_site_symmetry_multiplicity
 _atom_site_fract_x
 _atom_site_fract_y
 _atom_site_fract_z
 _atom_site_occupancy
  Sr  Sr0  1  0.93768042  0.06231958  0.25000000  1
  Sr  Sr1  1  0.06231958  0.93768042  0.75000000  1
  Cd  Cd0  1  0.64959219  0.35040781  0.44450779  1
  Cd  Cd1  1  0.35040781  0.64959219  0.55549221  1
  Cd  Cd2  1  0.64959219  0.35040781  0.05549221  1
  Cd  Cd3  1  0.35040781  0.64959219  0.94450779  1
  Pd  Pd0  1  0.22211497  0.77788503  0.25000000  1
  Pd  Pd1  1  0.77788503  0.22211497  0.75000000  1
loop_
_geom_bond_atom_site_label_1
_geom_bond_atom_site_label_2
_geom_bond_distance
_geom_bond_site_symmetry_2
Cd0 Pd0 2.831899 1_545
Cd0 Pd0 2.831899 1_655
Cd0 Pd1 2.849091 1_555
Cd0 Cd2 3.176241 1_555
Cd0 Cd1 3.218373 1_545
Cd0 Cd1 3.218373 1_655
Cd0 Cd1 3.336400 1_555
Cd0 Sr1 3.462728 1_545
Cd0 Sr1 3.462728 1_655
Cd0 Sr0 3.475910 1_555
Cd0 Sr0 3.547736 1_455
Cd0 Sr0 3.547736 1_565
Cd1 Pd1 2.831899 1_455
Cd1 Pd1 2.831899 1_565
Cd1 Pd0 2.849091 1_555
Cd1 Cd3 3.176241 1_555
Cd1 Sr0 3.462728 1_455
Cd1 Sr0 3.462728 1_565
Cd1 Sr1 3.475910 1_555
Cd1 Sr1 3.547736 1_545
Cd1 Sr1 3.547736 1_655
Cd2 Pd0 2.831899 1_655
Cd2 Pd0 2.831899 1_545
Cd2 Pd1 2.849091 1_554
Cd2 Cd3 3.218373 1_544
Cd2 Cd3 3.218373 1_654
Cd2 Cd3 3.336400 1_554
Cd2 Sr1 3.462728 1_544
Cd2 Sr1 3.462728 1_654
Cd2 Sr0 3.475910 1_555
Cd2 Sr0 3.547736 1_455
Cd2 Sr0 3.547736 1_565
Cd3 Pd1 2.831899 1_565
Cd3 Pd1 2.831899 1_455
Cd3 Pd0 2.849091 1_556
Cd3 Sr0 3.462728 1_456
Cd3 Sr0 3.462728 1_566
Cd3 Sr1 3.475910 1_555
Cd3 Sr1 3.547736 1_545
Cd3 Sr1 3.547736 1_655
Pd0 Sr0 3.052683 1_465
Pd0 Sr0 3.200657 1_455
Pd0 Sr0 3.200657 1_565
Pd1 Sr1 3.052683 1_645
Pd1 Sr1 3.200657 1_545
Pd1 Sr1 3.200657 1_655
