# generated using pymatgen
data_Tb5Si3B
_symmetry_space_group_name_H-M   'P 1'
_cell_length_a   8.59632043
_cell_length_b   8.59632043
_cell_length_c   6.37720400
_cell_angle_alpha   90.00000000
_cell_angle_beta   90.00000000
_cell_angle_gamma   120.00000334
_symmetry_Int_Tables_number   1
_chemical_formula_structural   Tb5Si3B
_chemical_formula_sum   'Tb10 Si6 B2'
_cell_volume   408.11834648
_cell_formula_units_Z   2
loop_
 _symmetry_equiv_pos_site_id
 _symmetry_equiv_pos_as_xyz
  1  'x, y, z'
loop_
 _atom_site_type_symbol
 _atom_site_label
 _atom_site_symmetry_multiplicity
 _atom_site_fract_x
 _atom_site_fract_y
 _atom_site_fract_z
 _atom_site_occupancy
  Tb  Tb0  1  0.66666700  0.33333300  0.00000000  1
  Tb  Tb1  1  0.33333300  0.66666700  0.00000000  1
  Tb  Tb2  1  0.33333300  0.66666700  0.50000000  1
  Tb  Tb3  1  0.66666700  0.33333300  0.50000000  1
  Tb  Tb4  1  0.75919100  0.75919100  0.75000000  1
  Tb  Tb5  1  0.24080900  0.00000000  0.75000000  1
  Tb  Tb6  1  0.00000000  0.24080900  0.75000000  1
  Tb  Tb7  1  0.24080900  0.24080900  0.25000000  1
  Tb  Tb8  1  0.75919100  0.00000000  0.25000000  1
  Tb  Tb9  1  0.00000000  0.75919100  0.25000000  1
  Si  Si0  1  0.39972100  0.39972100  0.75000000  1
  Si  Si1  1  0.60027900  0.00000000  0.75000000  1
  Si  Si2  1  0.00000000  0.60027900  0.75000000  1
  Si  Si3  1  0.60027900  0.60027900  0.25000000  1
  Si  Si4  1  0.39972100  0.00000000  0.25000000  1
  Si  Si5  1  0.00000000  0.39972100  0.25000000  1
  B  B0  1  0.00000000  0.00000000  0.00000000  1
  B  B1  1  0.00000000  0.00000000  0.50000000  1
loop_
_geom_bond_atom_site_label_1
_geom_bond_atom_site_label_2
_geom_bond_distance
_geom_bond_site_symmetry_2
Si0 Tb6 2.996523 1_555
Si0 Tb5 2.996523 1_555
Si0 Tb1 3.072943 1_556
Si0 Tb2 3.072943 1_555
Si0 Tb3 3.072943 1_555
Si0 Tb0 3.072943 1_556
Si0 Tb4 3.090119 1_555
Si0 Tb7 3.468904 1_556
Si0 Tb7 3.468904 1_555
Si1 Tb6 2.996523 1_655
Si1 Tb4 2.996523 1_545
Si1 Tb0 3.072936 1_556
Si1 Tb3 3.072936 1_555
Si1 Tb1 3.072938 1_546
Si1 Tb2 3.072938 1_545
Si1 Tb5 3.090119 1_555
Si1 Tb8 3.468905 1_556
Si1 Tb8 3.468905 1_555
Si2 Tb5 2.996523 1_565
Si2 Tb4 2.996523 1_455
Si2 Tb1 3.072936 1_556
Si2 Tb2 3.072936 1_555
Si2 Tb3 3.072938 1_455
Si2 Tb0 3.072938 1_456
Si2 Tb6 3.090119 1_555
Si2 Tb9 3.468905 1_555
Si2 Tb9 3.468905 1_556
Si3 Tb9 2.996523 1_655
Si3 Tb8 2.996523 1_565
Si3 Tb3 3.072943 1_555
Si3 Tb0 3.072943 1_555
Si3 Tb2 3.072943 1_555
Si3 Tb1 3.072943 1_555
Si3 Tb7 3.090119 1_555
Si3 Tb4 3.468904 1_555
Si3 Tb4 3.468904 1_554
Si4 Tb9 2.996523 1_545
Si4 Tb7 2.996523 1_555
Si4 Tb2 3.072936 1_545
Si4 Tb1 3.072936 1_545
Si4 Tb0 3.072938 1_555
Si4 Tb3 3.072938 1_555
Si4 Tb8 3.090119 1_555
Si4 Tb5 3.468905 1_554
Si4 Tb5 3.468905 1_555
Si5 Tb8 2.996523 1_455
Si5 Tb7 2.996523 1_555
Si5 Tb0 3.072936 1_455
Si5 Tb3 3.072936 1_455
Si5 Tb1 3.072938 1_555
Si5 Tb2 3.072938 1_555
Si5 Tb9 3.090119 1_555
Si5 Tb6 3.468905 1_554
Si5 Tb6 3.468905 1_555
B0 Tb7 2.612851 1_555
B0 Tb4 2.612851 1_444
B0 Tb5 2.612851 1_554
B0 Tb8 2.612851 1_455
B0 Tb6 2.612851 1_554
B0 Tb9 2.612851 1_545
B1 Tb7 2.612851 1_555
B1 Tb4 2.612851 1_445
B1 Tb8 2.612851 1_455
B1 Tb5 2.612851 1_555
B1 Tb6 2.612851 1_555
B1 Tb9 2.612851 1_545
