# generated using pymatgen
data_Ba2YNbO6
_symmetry_space_group_name_H-M   'P 1'
_cell_length_a   8.54912336
_cell_length_b   8.54912336
_cell_length_c   8.54912336
_cell_angle_alpha   90.00000000
_cell_angle_beta   90.00000000
_cell_angle_gamma   90.00000000
_symmetry_Int_Tables_number   1
_chemical_formula_structural   Ba2YNbO6
_chemical_formula_sum   'Ba8 Y4 Nb4 O24'
_cell_volume   624.83414098
_cell_formula_units_Z   4
loop_
 _symmetry_equiv_pos_site_id
 _symmetry_equiv_pos_as_xyz
  1  'x, y, z'
loop_
 _atom_site_type_symbol
 _atom_site_label
 _atom_site_symmetry_multiplicity
 _atom_site_fract_x
 _atom_site_fract_y
 _atom_site_fract_z
 _atom_site_occupancy
  Ba  Ba0  1  0.50000000  0.50000000  0.50000000  1
  Ba  Ba1  1  0.00000000  0.00000000  0.00000000  1
  Ba  Ba2  1  0.00000000  0.00000000  0.50000000  1
  Ba  Ba3  1  0.00000000  0.50000000  0.00000000  1
  Ba  Ba4  1  0.50000000  0.00000000  0.00000000  1
  Ba  Ba5  1  0.50000000  0.50000000  0.00000000  1
  Ba  Ba6  1  0.50000000  0.00000000  0.50000000  1
  Ba  Ba7  1  0.00000000  0.50000000  0.50000000  1
  Y  Y0  1  0.25000000  0.25000000  0.25000000  1
  Y  Y1  1  0.25000000  0.75000000  0.75000000  1
  Y  Y2  1  0.75000000  0.25000000  0.75000000  1
  Y  Y3  1  0.75000000  0.75000000  0.25000000  1
  Nb  Nb0  1  0.75000000  0.75000000  0.75000000  1
  Nb  Nb1  1  0.75000000  0.25000000  0.25000000  1
  Nb  Nb2  1  0.25000000  0.75000000  0.25000000  1
  Nb  Nb3  1  0.25000000  0.25000000  0.75000000  1
  O  O0  1  0.23290822  0.26878258  0.51404579  1
  O  O1  1  0.23290822  0.73121742  0.48595421  1
  O  O2  1  0.76709178  0.26878258  0.48595421  1
  O  O3  1  0.76709178  0.73121742  0.51404579  1
  O  O4  1  0.26878258  0.51404579  0.23290822  1
  O  O5  1  0.73121742  0.48595421  0.23290822  1
  O  O6  1  0.26878258  0.48595421  0.76709178  1
  O  O7  1  0.73121742  0.51404579  0.76709178  1
  O  O8  1  0.51404579  0.23290822  0.26878258  1
  O  O9  1  0.48595421  0.23290822  0.73121742  1
  O  O10  1  0.48595421  0.76709178  0.26878258  1
  O  O11  1  0.51404579  0.76709178  0.73121742  1
  O  O12  1  0.26709178  0.23121742  0.98595421  1
  O  O13  1  0.26709178  0.76878258  0.01404579  1
  O  O14  1  0.73290822  0.23121742  0.01404579  1
  O  O15  1  0.73290822  0.76878258  0.98595421  1
  O  O16  1  0.23121742  0.98595421  0.26709178  1
  O  O17  1  0.76878258  0.01404579  0.26709178  1
  O  O18  1  0.23121742  0.01404579  0.73290822  1
  O  O19  1  0.76878258  0.98595421  0.73290822  1
  O  O20  1  0.98595421  0.26709178  0.23121742  1
  O  O21  1  0.01404579  0.26709178  0.76878258  1
  O  O22  1  0.01404579  0.73290822  0.23121742  1
  O  O23  1  0.98595421  0.73290822  0.76878258  1
loop_
_geom_bond_atom_site_label_1
_geom_bond_atom_site_label_2
_geom_bond_distance
_geom_bond_site_symmetry_2
Ba0 O11 3.022533 1_555
Ba0 O6 3.022533 1_555
Ba0 O8 3.022533 1_555
Ba0 O7 3.022533 1_555
Ba0 O5 3.022533 1_555
Ba0 O9 3.022533 1_555
Ba0 O10 3.022533 1_555
Ba0 O0 3.022533 1_555
Ba0 O2 3.022533 1_555
Ba0 O3 3.022533 1_555
Ba0 O4 3.022533 1_555
Ba0 O1 3.022533 1_555
Ba1 O22 3.022533 1_545
Ba1 O21 3.022533 1_554
Ba1 O23 3.022533 1_444
Ba1 O18 3.022533 1_554
Ba1 O12 3.022533 1_554
Ba1 O13 3.022533 1_545
Ba1 O15 3.022533 1_444
Ba1 O19 3.022533 1_444
Ba1 O20 3.022533 1_455
Ba1 O17 3.022533 1_455
Ba1 O14 3.022533 1_455
Ba1 O16 3.022533 1_545
Ba2 O17 2.808293 1_455
Ba2 O19 2.808293 1_445
Ba2 O16 2.808293 1_545
Ba2 O18 2.808293 1_555
Ba2 O1 3.042907 1_545
Ba2 O0 3.042907 1_555
Ba2 O2 3.042907 1_455
Ba2 O3 3.042907 1_445
Ba2 O23 3.241678 1_445
Ba2 O22 3.241678 1_545
Ba2 O21 3.241678 1_555
Ba2 O20 3.241678 1_455
Ba3 O23 2.808293 1_454
Ba3 O22 2.808293 1_555
Ba3 O20 2.808293 1_455
Ba3 O21 2.808293 1_554
Ba3 O5 3.042907 1_455
Ba3 O6 3.042907 1_554
Ba3 O7 3.042907 1_454
Ba3 O4 3.042907 1_555
Ba3 O15 3.241678 1_454
Ba3 O12 3.241678 1_554
Ba3 O13 3.241678 1_555
Ba3 O14 3.241678 1_455
Ba4 O12 2.808293 1_554
Ba4 O13 2.808293 1_545
Ba4 O15 2.808293 1_544
Ba4 O14 2.808293 1_555
Ba4 O9 3.042907 1_554
Ba4 O11 3.042907 1_544
Ba4 O8 3.042907 1_555
Ba4 O10 3.042907 1_545
Ba4 O17 3.241678 1_555
Ba4 O19 3.241678 1_544
Ba4 O16 3.241678 1_545
Ba4 O18 3.241678 1_554
Ba5 O5 2.808293 1_555
Ba5 O6 2.808293 1_554
Ba5 O7 2.808293 1_554
Ba5 O4 2.808293 1_555
Ba5 O14 3.042907 1_555
Ba5 O15 3.042907 1_554
Ba5 O12 3.042907 1_554
Ba5 O13 3.042907 1_555
Ba5 O11 3.241678 1_554
Ba5 O8 3.241678 1_555
Ba5 O9 3.241678 1_554
Ba5 O10 3.241678 1_555
Ba6 O10 2.808293 1_545
Ba6 O9 2.808293 1_555
Ba6 O11 2.808293 1_545
Ba6 O8 2.808293 1_555
Ba6 O18 3.042907 1_555
Ba6 O19 3.042907 1_545
Ba6 O16 3.042907 1_545
Ba6 O17 3.042907 1_555
Ba6 O3 3.241678 1_545
Ba6 O2 3.241678 1_555
Ba6 O1 3.241678 1_545
Ba6 O0 3.241678 1_555
Ba7 O3 2.808293 1_455
Ba7 O0 2.808293 1_555
Ba7 O2 2.808293 1_455
Ba7 O1 2.808293 1_555
Ba7 O21 3.042907 1_555
Ba7 O23 3.042907 1_455
Ba7 O22 3.042907 1_555
Ba7 O20 3.042907 1_455
Ba7 O4 3.241678 1_555
Ba7 O5 3.241678 1_455
Ba7 O6 3.241678 1_555
Ba7 O7 3.241678 1_455
Nb0 O23 2.028851 1_555
Nb0 O11 2.028851 1_555
Nb0 O15 2.028851 1_555
Nb0 O7 2.028851 1_555
Nb0 O19 2.028851 1_555
Nb0 O3 2.028851 1_555
Nb1 O5 2.028851 1_555
Nb1 O2 2.028851 1_555
Nb1 O17 2.028851 1_555
Nb1 O14 2.028851 1_555
Nb1 O8 2.028851 1_555
Nb1 O20 2.028851 1_555
Nb2 O13 2.028851 1_555
Nb2 O22 2.028851 1_555
Nb2 O10 2.028851 1_555
Nb2 O1 2.028851 1_555
Nb2 O4 2.028851 1_555
Nb2 O16 2.028851 1_555
Nb3 O9 2.028851 1_555
Nb3 O6 2.028851 1_555
Nb3 O21 2.028851 1_555
Nb3 O18 2.028851 1_555
Nb3 O12 2.028851 1_555
Nb3 O0 2.028851 1_555
O0 Y0 2.267776 1_555
O1 Y1 2.267776 1_555
O2 Y2 2.267776 1_555
O3 Y3 2.267776 1_555
O4 Y0 2.267776 1_555
O5 Y3 2.267776 1_555
O6 Y1 2.267776 1_555
O7 Y2 2.267776 1_555
O8 Y0 2.267776 1_555
O9 Y2 2.267776 1_555
O10 Y3 2.267776 1_555
O11 Y1 2.267776 1_555
O12 Y0 2.267776 1_556
O13 Y1 2.267776 1_554
O14 Y2 2.267776 1_554
O15 Y3 2.267776 1_556
O16 Y0 2.267776 1_565
O17 Y3 2.267776 1_545
O18 Y1 2.267776 1_545
O19 Y2 2.267776 1_565
O20 Y0 2.267776 1_655
O21 Y2 2.267776 1_455
O22 Y3 2.267776 1_455
O23 Y1 2.267776 1_655
