# generated using pymatgen
data_Mg6CdSb
_symmetry_space_group_name_H-M   'P 1'
_cell_length_a   5.31113100
_cell_length_b   6.47727200
_cell_length_c   10.77490400
_cell_angle_alpha   90.00000000
_cell_angle_beta   90.00000000
_cell_angle_gamma   90.00000000
_symmetry_Int_Tables_number   1
_chemical_formula_structural   Mg6CdSb
_chemical_formula_sum   'Mg12 Cd2 Sb2'
_cell_volume   370.67436968
_cell_formula_units_Z   2
loop_
 _symmetry_equiv_pos_site_id
 _symmetry_equiv_pos_as_xyz
  1  'x, y, z'
loop_
 _atom_site_type_symbol
 _atom_site_label
 _atom_site_symmetry_multiplicity
 _atom_site_fract_x
 _atom_site_fract_y
 _atom_site_fract_z
 _atom_site_occupancy
  Mg  Mg0  1  0.00000000  0.24946000  0.58371200  1
  Mg  Mg1  1  0.00000000  0.75054000  0.58371200  1
  Mg  Mg2  1  0.50000000  0.25147300  0.41675900  1
  Mg  Mg3  1  0.50000000  0.74852700  0.41675900  1
  Mg  Mg4  1  0.50000000  0.00000000  0.66690100  1
  Mg  Mg5  1  0.50000000  0.00000000  0.16611800  1
  Mg  Mg6  1  0.00000000  0.74946000  0.08371200  1
  Mg  Mg7  1  0.00000000  0.25054000  0.08371200  1
  Mg  Mg8  1  0.50000000  0.75147300  0.91675900  1
  Mg  Mg9  1  0.50000000  0.24852700  0.91675900  1
  Mg  Mg10  1  0.50000000  0.50000000  0.16690100  1
  Mg  Mg11  1  0.50000000  0.50000000  0.66611800  1
  Cd  Cd0  1  0.00000000  0.00000000  0.83272400  1
  Cd  Cd1  1  0.00000000  0.50000000  0.33272400  1
  Sb  Sb0  1  0.00000000  0.00000000  0.33331800  1
  Sb  Sb1  1  0.00000000  0.50000000  0.83331800  1
loop_
_geom_bond_atom_site_label_1
_geom_bond_atom_site_label_2
_geom_bond_distance
_geom_bond_site_symmetry_2
Mg0 Sb1 3.141152 1_555
Mg0 Sb0 3.144825 1_555
Mg0 Mg2 3.207530 1_455
Mg0 Mg2 3.207530 1_555
Mg0 Mg4 3.235174 1_555
Mg0 Mg4 3.235174 1_455
Mg0 Mg11 3.236349 1_455
Mg0 Mg11 3.236349 1_555
Mg1 Sb1 3.141152 1_555
Mg1 Sb0 3.144825 1_565
Mg1 Mg3 3.207530 1_555
Mg1 Mg3 3.207530 1_455
Mg1 Mg4 3.235174 1_465
Mg1 Mg4 3.235174 1_565
Mg1 Mg11 3.236349 1_455
Mg1 Mg11 3.236349 1_555
Mg2 Mg4 3.149220 1_555
Mg2 Mg5 3.153823 1_555
Mg2 Mg3 3.219554 1_555
Mg2 Sb0 3.242458 1_555
Mg2 Sb0 3.242458 1_655
Mg2 Mg3 3.257718 1_545
Mg3 Mg4 3.149220 1_565
Mg3 Mg5 3.153823 1_565
Mg3 Sb0 3.242458 1_565
Mg3 Sb0 3.242458 1_665
Mg4 Mg9 3.136766 1_555
Mg4 Mg8 3.136766 1_545
Mg5 Mg9 3.132153 1_554
Mg5 Mg8 3.132153 1_544
Mg5 Sb0 3.208997 1_555
Mg5 Sb0 3.208997 1_655
Mg5 Mg6 3.236349 1_545
Mg5 Mg7 3.236349 1_555
Mg5 Mg7 3.236349 1_655
Mg5 Mg6 3.236349 1_645
Mg6 Sb0 3.141152 1_565
Mg6 Sb1 3.144825 1_554
Mg6 Mg8 3.207530 1_554
Mg6 Mg8 3.207530 1_454
Mg7 Sb0 3.141152 1_555
Mg7 Sb1 3.144825 1_554
Mg7 Mg9 3.207530 1_554
Mg7 Mg9 3.207530 1_454
Mg8 Mg9 3.219554 1_565
Mg8 Sb1 3.242458 1_655
Mg8 Sb1 3.242458 1_555
Mg8 Mg9 3.257718 1_555
Mg9 Sb1 3.242458 1_655
Mg9 Sb1 3.242458 1_555
Mg10 Mg2 3.136766 1_555
Mg10 Mg3 3.136766 1_555
Mg10 Mg8 3.149220 1_554
Mg10 Mg9 3.149220 1_554
Mg10 Mg6 3.235174 1_555
Mg10 Mg7 3.235174 1_555
Mg10 Mg6 3.235174 1_655
Mg10 Mg7 3.235174 1_655
Mg10 Mg5 3.238647 1_555
Mg10 Mg5 3.238647 1_565
Mg11 Mg2 3.132153 1_555
Mg11 Mg3 3.132153 1_555
Mg11 Mg9 3.153823 1_555
Mg11 Mg8 3.153823 1_555
Mg11 Sb1 3.208997 1_655
Mg11 Sb1 3.208997 1_555
Mg11 Mg4 3.238647 1_565
Mg11 Mg4 3.238647 1_555
Cd0 Mg0 3.132059 1_555
Cd0 Mg1 3.132059 1_545
Cd0 Mg7 3.153911 1_556
Cd0 Mg6 3.153911 1_546
Cd0 Mg4 3.200691 1_555
Cd0 Mg4 3.200691 1_455
Cd0 Mg8 3.234700 1_545
Cd0 Mg9 3.234700 1_555
Cd0 Mg8 3.234700 1_445
Cd0 Mg9 3.234700 1_455
Cd0 Sb1 3.238642 1_555
Cd0 Sb1 3.238642 1_545
Cd1 Mg6 3.132059 1_555
Cd1 Mg7 3.132059 1_555
Cd1 Mg0 3.153911 1_555
Cd1 Mg1 3.153911 1_555
Cd1 Mg10 3.200691 1_455
Cd1 Mg10 3.200691 1_555
Cd1 Mg3 3.234700 1_555
Cd1 Mg2 3.234700 1_455
Cd1 Mg2 3.234700 1_555
Cd1 Mg3 3.234700 1_455
Cd1 Sb0 3.238642 1_565
Cd1 Sb0 3.238642 1_555
