# generated using pymatgen
data_BeCl2
_symmetry_space_group_name_H-M   'P 1'
_cell_length_a   24.72814241
_cell_length_b   24.72814241
_cell_length_c   24.72814241
_cell_angle_alpha   90.00000000
_cell_angle_beta   90.00000000
_cell_angle_gamma   90.00000000
_symmetry_Int_Tables_number   1
_chemical_formula_structural   BeCl2
_chemical_formula_sum   'Be12 Cl24'
_cell_volume   15120.78991789
_cell_formula_units_Z   12
loop_
 _symmetry_equiv_pos_site_id
 _symmetry_equiv_pos_as_xyz
  1  'x, y, z'
loop_
 _atom_site_type_symbol
 _atom_site_label
 _atom_site_symmetry_multiplicity
 _atom_site_fract_x
 _atom_site_fract_y
 _atom_site_fract_z
 _atom_site_occupancy
  Be  Be0  1  -0.00000000  0.75000000  0.50000000  1
  Be  Be1  1  -0.00000000  0.50000000  0.25000000  1
  Be  Be2  1  0.25000000  0.50000000  0.00000000  1
  Be  Be3  1  0.50000000  0.00000000  0.75000000  1
  Be  Be4  1  0.50000000  0.00000000  0.25000000  1
  Be  Be5  1  0.50000000  0.25000000  0.00000000  1
  Be  Be6  1  -0.00000000  0.25000000  0.50000000  1
  Be  Be7  1  0.50000000  0.75000000  0.00000000  1
  Be  Be8  1  0.00000000  0.50000000  0.75000000  1
  Be  Be9  1  0.75000000  0.00000000  0.50000000  1
  Be  Be10  1  0.75000000  0.50000000  0.00000000  1
  Be  Be11  1  0.25000000  0.00000000  0.50000000  1
  Cl  Cl0  1  0.13847469  0.06443993  0.13847469  1
  Cl  Cl1  1  0.36152531  0.63847469  0.43556007  1
  Cl  Cl2  1  0.43556007  0.36152531  0.63847469  1
  Cl  Cl3  1  0.86152531  0.06443993  0.86152531  1
  Cl  Cl4  1  0.56443993  0.63847469  0.63847469  1
  Cl  Cl5  1  0.93556007  0.86152531  0.13847469  1
  Cl  Cl6  1  0.13847469  0.13847469  0.06443993  1
  Cl  Cl7  1  0.43556007  0.63847469  0.36152531  1
  Cl  Cl8  1  0.93556007  0.13847469  0.86152531  1
  Cl  Cl9  1  0.63847469  0.36152531  0.43556007  1
  Cl  Cl10  1  0.36152531  0.56443993  0.36152531  1
  Cl  Cl11  1  0.63847469  0.43556007  0.36152531  1
  Cl  Cl12  1  0.13847469  0.93556007  0.86152531  1
  Cl  Cl13  1  0.86152531  0.86152531  0.06443993  1
  Cl  Cl14  1  0.86152531  0.93556007  0.13847469  1
  Cl  Cl15  1  0.86152531  0.13847469  0.93556007  1
  Cl  Cl16  1  0.06443993  0.13847469  0.13847469  1
  Cl  Cl17  1  0.36152531  0.36152531  0.56443993  1
  Cl  Cl18  1  0.36152531  0.43556007  0.63847469  1
  Cl  Cl19  1  0.63847469  0.63847469  0.56443993  1
  Cl  Cl20  1  0.13847469  0.86152531  0.93556007  1
  Cl  Cl21  1  0.63847469  0.56443993  0.63847469  1
  Cl  Cl22  1  0.56443993  0.36152531  0.36152531  1
  Cl  Cl23  1  0.06443993  0.86152531  0.86152531  1
loop_
_geom_bond_atom_site_label_1
_geom_bond_atom_site_label_2
_geom_bond_distance
_geom_bond_site_symmetry_2
Cl0 Cl6 2.589060 1_555
Cl0 Cl16 2.589060 1_555
Cl1 Cl10 2.589060 1_555
Cl1 Cl7 2.589060 1_555
Cl3 Cl8 2.589060 1_555
Cl10 Cl7 2.589060 1_555
Cl11 Cl22 2.589060 1_555
Cl11 Cl9 2.589060 1_555
Cl12 Cl20 2.589060 1_555
Cl12 Cl23 2.589060 1_555
Cl13 Cl14 2.589060 1_555
Cl13 Cl5 2.589060 1_555
Cl14 Cl5 2.589060 1_555
Cl15 Cl8 2.589060 1_555
Cl15 Cl3 2.589060 1_555
Cl16 Cl6 2.589060 1_555
Cl17 Cl2 2.589060 1_555
Cl17 Cl18 2.589060 1_555
Cl18 Cl2 2.589060 1_555
Cl19 Cl4 2.589060 1_555
Cl19 Cl21 2.589060 1_555
Cl20 Cl23 2.589060 1_555
Cl21 Cl4 2.589060 1_555
Cl22 Cl9 2.589060 1_555
