# generated using pymatgen
data_Li9Mn2Co5O16
_symmetry_space_group_name_H-M   'P 1'
_cell_length_a   9.80518013
_cell_length_b   9.80518013
_cell_length_c   10.12783133
_cell_angle_alpha   84.90000816
_cell_angle_beta   84.90000816
_cell_angle_gamma   17.08995468
_symmetry_Int_Tables_number   1
_chemical_formula_structural   Li9Mn2Co5O16
_chemical_formula_sum   'Li9 Mn2 Co5 O16'
_cell_volume   284.98704896
_cell_formula_units_Z   1
loop_
 _symmetry_equiv_pos_site_id
 _symmetry_equiv_pos_as_xyz
  1  'x, y, z'
loop_
 _atom_site_type_symbol
 _atom_site_label
 _atom_site_symmetry_multiplicity
 _atom_site_fract_x
 _atom_site_fract_y
 _atom_site_fract_z
 _atom_site_occupancy
  Li  Li0  1  0.37763400  0.37763400  0.68213200  1
  Li  Li1  1  0.12148900  0.12148900  0.55497400  1
  Li  Li2  1  0.87851100  0.87851100  0.44502600  1
  Li  Li3  1  0.62236600  0.62236600  0.31786800  1
  Li  Li4  1  0.37516800  0.37516800  0.18774300  1
  Li  Li5  1  0.12559500  0.12559500  0.06030400  1
  Li  Li6  1  0.87440500  0.87440500  0.93969600  1
  Li  Li7  1  0.62483200  0.62483200  0.81225700  1
  Li  Li8  1  0.50000000  0.50000000  0.50000000  1
  Mn  Mn0  1  0.99895500  0.99895500  0.74609800  1
  Mn  Mn1  1  0.00104500  0.00104500  0.25390200  1
  Co  Co0  1  0.74975200  0.74975200  0.62518600  1
  Co  Co1  1  0.25024800  0.25024800  0.37481400  1
  Co  Co2  1  0.75011700  0.75011700  0.12503000  1
  Co  Co3  1  0.50000000  0.50000000  0.00000000  1
  Co  Co4  1  0.24988300  0.24988300  0.87497000  1
  O  O0  1  0.44691600  0.44691600  0.84582600  1
  O  O1  1  0.19185000  0.19185000  0.71416100  1
  O  O2  1  0.94166000  0.94166000  0.61187000  1
  O  O3  1  0.69192800  0.69192800  0.46479800  1
  O  O4  1  0.44433900  0.44433900  0.32975800  1
  O  O5  1  0.19317000  0.19317000  0.21271800  1
  O  O6  1  0.94712200  0.94712200  0.08933600  1
  O  O7  1  0.69117800  0.69117800  0.96523800  1
  O  O8  1  0.30807200  0.30807200  0.53520200  1
  O  O9  1  0.05834000  0.05834000  0.38813000  1
  O  O10  1  0.80815000  0.80815000  0.28583900  1
  O  O11  1  0.55308400  0.55308400  0.15417400  1
  O  O12  1  0.30882200  0.30882200  0.03476200  1
  O  O13  1  0.05287800  0.05287800  0.91066400  1
  O  O14  1  0.80683000  0.80683000  0.78728200  1
  O  O15  1  0.55566100  0.55566100  0.67024200  1
loop_
_geom_bond_atom_site_label_1
_geom_bond_atom_site_label_2
_geom_bond_distance
_geom_bond_site_symmetry_2
Li0 O2 2.002941 1_455
Li0 O2 2.002941 1_545
Li0 O8 2.096443 1_555
Li0 O14 2.208878 1_545
Li0 O14 2.208878 1_455
Li0 O0 2.225790 1_555
Li1 O3 2.144376 1_455
Li1 O3 2.144376 1_545
Li1 O9 2.174181 1_555
Li1 O15 2.201629 1_455
Li1 O15 2.201629 1_545
Li1 O1 2.203764 1_555
Li2 O8 2.144376 1_655
Li2 O8 2.144376 1_565
Li2 O2 2.174181 1_555
Li2 O4 2.201629 1_565
Li2 O4 2.201629 1_655
Li2 O10 2.203764 1_555
Li3 O9 2.002941 1_565
Li3 O9 2.002941 1_655
Li3 O3 2.096443 1_555
Li3 O5 2.208878 1_565
Li3 O5 2.208878 1_655
Li3 O11 2.225790 1_555
Li4 O4 2.053039 1_555
Li4 O12 2.101031 1_555
Li4 O10 2.136961 1_455
Li4 O10 2.136961 1_545
Li4 O6 2.193845 1_545
Li4 O6 2.193845 1_455
Li5 O7 2.108790 1_544
Li5 O7 2.108790 1_454
Li5 O5 2.112760 1_555
Li5 O13 2.160938 1_554
Li5 O11 2.182526 1_455
Li5 O11 2.182526 1_545
Li6 O12 2.108790 1_566
Li6 O12 2.108790 1_656
Li6 O14 2.112760 1_555
Li6 O6 2.160938 1_556
Li6 O0 2.182526 1_565
Li6 O0 2.182526 1_655
Li7 O15 2.053039 1_555
Li7 O7 2.101031 1_555
Li7 O1 2.136961 1_565
Li7 O1 2.136961 1_655
Li7 O13 2.193845 1_655
Li7 O13 2.193845 1_565
Li8 O2 2.110881 1_545
Li8 O2 2.110881 1_455
Li8 O9 2.110881 1_565
Li8 O9 2.110881 1_655
Li8 O15 2.114838 1_555
Li8 O4 2.114838 1_555
Mn0 O2 1.831443 1_555
Mn0 O15 1.941704 1_655
Mn0 O15 1.941704 1_565
Mn0 O0 1.994474 1_565
Mn0 O0 1.994474 1_655
Mn0 O13 2.045662 1_665
Mn1 O9 1.831443 1_555
Mn1 O4 1.941704 1_455
Mn1 O4 1.941704 1_545
Mn1 O11 1.994474 1_455
Mn1 O11 1.994474 1_545
Mn1 O6 2.045662 1_445
Co0 O1 2.003383 1_655
Co0 O1 2.003383 1_565
Co0 O8 2.011702 1_655
Co0 O8 2.011702 1_565
Co0 O3 2.055128 1_555
Co0 O14 2.060833 1_555
Co1 O10 2.003383 1_545
Co1 O10 2.003383 1_455
Co1 O3 2.011702 1_545
Co1 O3 2.011702 1_455
Co1 O8 2.055128 1_555
Co1 O5 2.060833 1_555
Co2 O5 1.988608 1_565
Co2 O5 1.988608 1_655
Co2 O12 2.016762 1_655
Co2 O12 2.016762 1_565
Co2 O10 2.061207 1_555
Co2 O7 2.063496 1_554
Co3 O11 1.945985 1_555
Co3 O0 1.945985 1_554
Co3 O13 1.956003 1_564
Co3 O13 1.956003 1_654
Co3 O6 1.956003 1_545
Co3 O6 1.956003 1_455
Co4 O14 1.988608 1_545
Co4 O14 1.988608 1_455
Co4 O7 2.016762 1_545
Co4 O7 2.016762 1_455
Co4 O1 2.061207 1_555
Co4 O12 2.063496 1_556
