# generated using pymatgen
data_NdN2Cl5
_symmetry_space_group_name_H-M   'P 1'
_cell_length_a   10.24205900
_cell_length_b   8.33317000
_cell_length_c   9.80786000
_cell_angle_alpha   90.00000000
_cell_angle_beta   90.00000000
_cell_angle_gamma   90.00000000
_symmetry_Int_Tables_number   1
_chemical_formula_structural   NdN2Cl5
_chemical_formula_sum   'Nd4 N8 Cl20'
_cell_volume   837.08926593
_cell_formula_units_Z   4
loop_
 _symmetry_equiv_pos_site_id
 _symmetry_equiv_pos_as_xyz
  1  'x, y, z'
loop_
 _atom_site_type_symbol
 _atom_site_label
 _atom_site_symmetry_multiplicity
 _atom_site_fract_x
 _atom_site_fract_y
 _atom_site_fract_z
 _atom_site_occupancy
  Nd  Nd0  1  0.55002200  0.75000000  0.96868400  1
  Nd  Nd1  1  0.44997800  0.25000000  0.03131600  1
  Nd  Nd2  1  0.05002200  0.25000000  0.53131600  1
  Nd  Nd3  1  0.94997800  0.75000000  0.46868400  1
  N  N0  1  0.45184500  0.41247700  0.59465900  1
  N  N1  1  0.54815500  0.58752300  0.40534100  1
  N  N2  1  0.95184500  0.58752300  0.90534100  1
  N  N3  1  0.54815500  0.91247700  0.40534100  1
  N  N4  1  0.04815500  0.41247700  0.09465900  1
  N  N5  1  0.45184500  0.08752300  0.59465900  1
  N  N6  1  0.04815500  0.08752300  0.09465900  1
  N  N7  1  0.95184500  0.91247700  0.90534100  1
  Cl  Cl0  1  0.41692700  0.75000000  0.74110900  1
  Cl  Cl1  1  0.58307300  0.25000000  0.25889100  1
  Cl  Cl2  1  0.91692700  0.25000000  0.75889100  1
  Cl  Cl3  1  0.08307300  0.75000000  0.24110900  1
  Cl  Cl4  1  0.64627300  0.44794900  0.92912600  1
  Cl  Cl5  1  0.35372700  0.55205100  0.07087400  1
  Cl  Cl6  1  0.14627300  0.55205100  0.57087400  1
  Cl  Cl7  1  0.35372700  0.94794900  0.07087400  1
  Cl  Cl8  1  0.85372700  0.44794900  0.42912600  1
  Cl  Cl9  1  0.64627300  0.05205100  0.92912600  1
  Cl  Cl10  1  0.85372700  0.05205100  0.42912600  1
  Cl  Cl11  1  0.14627300  0.94794900  0.57087400  1
  Cl  Cl12  1  0.00064600  0.75000000  0.95802800  1
  Cl  Cl13  1  0.99935400  0.25000000  0.04197200  1
  Cl  Cl14  1  0.50064600  0.25000000  0.54197200  1
  Cl  Cl15  1  0.49935400  0.75000000  0.45802800  1
  Cl  Cl16  1  0.78876300  0.75000000  0.73581300  1
  Cl  Cl17  1  0.21123700  0.25000000  0.26418700  1
  Cl  Cl18  1  0.28876300  0.25000000  0.76418700  1
  Cl  Cl19  1  0.71123700  0.75000000  0.23581300  1
loop_
_geom_bond_atom_site_label_1
_geom_bond_atom_site_label_2
_geom_bond_distance
_geom_bond_site_symmetry_2
Cl0 Nd0 2.615369 1_555
Cl1 Nd1 2.615369 1_555
Cl2 Nd2 2.615369 1_655
Cl3 Nd3 2.615369 1_455
Cl4 Nd0 2.730906 1_555
Cl4 Nd1 2.787023 1_556
Cl5 Nd1 2.730906 1_555
Cl5 Nd0 2.787023 1_554
Cl6 Nd2 2.730906 1_555
Cl6 Nd3 2.787023 1_455
Cl7 Nd1 2.730906 1_565
Cl7 Nd0 2.787023 1_554
Cl8 Nd3 2.730906 1_555
Cl8 Nd2 2.787023 1_655
Cl9 Nd0 2.730906 1_545
Cl9 Nd1 2.787023 1_556
Cl10 Nd3 2.730906 1_545
Cl10 Nd2 2.787023 1_655
Cl11 Nd2 2.730906 1_565
Cl11 Nd3 2.787023 1_455
Cl12 N7 1.532980 1_455
Cl12 N2 1.532980 1_455
Cl13 N4 1.532980 1_655
Cl13 N6 1.532980 1_655
Cl14 N5 1.532980 1_555
Cl14 N0 1.532980 1_555
Cl15 N3 1.532980 1_555
Cl15 N1 1.532980 1_555
Cl16 Nd3 3.096867 1_555
Cl16 Nd0 3.345968 1_555
Cl17 Nd2 3.096867 1_555
Cl17 Nd1 3.345968 1_555
Cl18 Nd1 3.096867 1_556
Cl18 Nd2 3.345968 1_555
Cl19 Nd0 3.096867 1_554
Cl19 Nd3 3.345968 1_555
