# generated using pymatgen
data_Ca5CdCu2
_symmetry_space_group_name_H-M   'P 1'
_cell_length_a   7.90543596
_cell_length_b   7.90543596
_cell_length_c   9.23616315
_cell_angle_alpha   115.29548928
_cell_angle_beta   115.29548928
_cell_angle_gamma   89.97886270
_symmetry_Int_Tables_number   1
_chemical_formula_structural   Ca5CdCu2
_chemical_formula_sum   'Ca10 Cd2 Cu4'
_cell_volume   459.96583745
_cell_formula_units_Z   2
loop_
 _symmetry_equiv_pos_site_id
 _symmetry_equiv_pos_as_xyz
  1  'x, y, z'
loop_
 _atom_site_type_symbol
 _atom_site_label
 _atom_site_symmetry_multiplicity
 _atom_site_fract_x
 _atom_site_fract_y
 _atom_site_fract_z
 _atom_site_occupancy
  Ca  Ca0  1  0.02941634  0.52941634  0.72074652  1
  Ca  Ca1  1  0.69131813  0.19131813  0.72072042  1
  Ca  Ca2  1  0.19139457  0.02946629  0.72077776  1
  Ca  Ca3  1  0.52946629  0.69139457  0.72077776  1
  Ca  Ca4  1  0.97058366  0.47058366  0.27925348  1
  Ca  Ca5  1  0.30868187  0.80868187  0.27927958  1
  Ca  Ca6  1  0.80860543  0.97053371  0.27922224  1
  Ca  Ca7  1  0.47053371  0.30860543  0.27922224  1
  Ca  Ca8  1  0.50000000  0.50000000  0.00000000  1
  Ca  Ca9  1  -0.00000000  0.00000000  0.00000000  1
  Cd  Cd0  1  0.25009297  0.24990703  0.50000000  1
  Cd  Cd1  1  0.74990703  0.75009297  0.50000000  1
  Cu  Cu0  1  0.88893207  0.61106793  0.00000000  1
  Cu  Cu1  1  0.11106793  0.38893207  0.00000000  1
  Cu  Cu2  1  0.61105864  0.11105864  -0.00017653  1
  Cu  Cu3  1  0.38894136  0.88894136  0.00017653  1
loop_
_geom_bond_atom_site_label_1
_geom_bond_atom_site_label_2
_geom_bond_distance
_geom_bond_site_symmetry_2
Ca0 Cu0 3.054032 1_456
Ca0 Cu1 3.054032 1_556
Ca0 Cu3 3.207160 1_556
Ca0 Cd1 3.357032 1_455
Ca0 Cd0 3.357032 1_555
Ca0 Ca9 3.585850 1_566
Ca0 Ca8 3.585850 1_556
Ca1 Cu1 3.057909 1_656
Ca1 Cu0 3.057909 1_556
Ca1 Cu2 3.200968 1_556
Ca1 Cd0 3.356506 1_555
Ca1 Cd1 3.356506 1_545
Ca1 Ca8 3.584430 1_556
Ca1 Ca9 3.584430 1_656
Ca2 Cu3 3.055647 1_546
Ca2 Cu2 3.055990 1_556
Ca2 Cu1 3.203894 1_556
Ca2 Cd0 3.355050 1_555
Ca2 Cd1 3.360380 1_445
Ca2 Ca9 3.583687 1_556
Ca2 Ca8 3.587695 1_556
Ca3 Cu3 3.055647 1_556
Ca3 Cu2 3.055990 1_566
Ca3 Cu0 3.203894 1_556
Ca3 Cd1 3.355050 1_555
Ca3 Cd0 3.360380 1_555
Ca3 Ca8 3.583687 1_556
Ca3 Ca9 3.587695 1_666
Ca4 Cu1 3.054032 1_655
Ca4 Cu0 3.054032 1_555
Ca4 Cu2 3.207160 1_555
Ca4 Cd0 3.357032 1_655
Ca4 Cd1 3.357032 1_555
Ca4 Ca9 3.585850 1_655
Ca4 Ca8 3.585850 1_555
Ca5 Cu0 3.057909 1_455
Ca5 Cu1 3.057909 1_555
Ca5 Cu3 3.200968 1_555
Ca5 Cd0 3.356506 1_565
Ca5 Cd1 3.356506 1_555
Ca5 Ca9 3.584430 1_565
Ca5 Ca8 3.584430 1_555
Ca6 Cu2 3.055647 1_565
Ca6 Cu3 3.055990 1_555
Ca6 Cu0 3.203894 1_555
Ca6 Cd1 3.355050 1_555
Ca6 Cd0 3.360380 1_665
Ca6 Ca9 3.583687 1_665
Ca6 Ca8 3.587695 1_555
Ca7 Cu2 3.055647 1_555
Ca7 Cu3 3.055990 1_545
Ca7 Cu1 3.203894 1_555
Ca7 Cd0 3.355050 1_555
Ca7 Cd1 3.360380 1_555
Ca7 Ca8 3.583687 1_555
Ca7 Ca9 3.587695 1_555
Ca8 Cu3 3.196853 1_555
Ca8 Cu2 3.196853 1_555
Ca8 Cu1 3.197904 1_555
Ca8 Cu0 3.197904 1_555
Ca8 Cd1 3.679971 1_555
Ca8 Cd0 3.679971 1_554
Ca9 Cu2 3.196853 1_455
Ca9 Cu3 3.196853 1_545
Ca9 Cu0 3.197904 1_445
Ca9 Cu1 3.197904 1_555
Ca9 Cd1 3.679971 1_444
Ca9 Cd0 3.679971 1_555
Cu0 Cu1 2.483015 1_655
Cu2 Cu3 2.485695 1_545
