# generated using pymatgen
data_PuFeC2
_symmetry_space_group_name_H-M   'P 1'
_cell_length_a   3.41040200
_cell_length_b   3.41040200
_cell_length_c   7.34177000
_cell_angle_alpha   90.00000000
_cell_angle_beta   90.00000000
_cell_angle_gamma   90.00000000
_symmetry_Int_Tables_number   1
_chemical_formula_structural   PuFeC2
_chemical_formula_sum   'Pu2 Fe2 C4'
_cell_volume   85.39096541
_cell_formula_units_Z   2
loop_
 _symmetry_equiv_pos_site_id
 _symmetry_equiv_pos_as_xyz
  1  'x, y, z'
loop_
 _atom_site_type_symbol
 _atom_site_label
 _atom_site_symmetry_multiplicity
 _atom_site_fract_x
 _atom_site_fract_y
 _atom_site_fract_z
 _atom_site_occupancy
  Pu  Pu0  1  0.00000000  0.50000000  0.67539000  1
  Pu  Pu1  1  0.50000000  0.00000000  0.32461000  1
  Fe  Fe0  1  0.00000000  0.00000000  0.00000000  1
  Fe  Fe1  1  0.50000000  0.50000000  0.00000000  1
  C  C0  1  0.00000000  0.50000000  0.16501500  1
  C  C1  1  0.50000000  0.00000000  0.83498500  1
  C  C2  1  0.00000000  0.50000000  0.36383300  1
  C  C3  1  0.50000000  0.00000000  0.63616700  1
loop_
_geom_bond_atom_site_label_1
_geom_bond_atom_site_label_2
_geom_bond_distance
_geom_bond_site_symmetry_2
C0 C2 1.459676 1_555
C0 Fe0 2.091757 1_565
C0 Fe1 2.091757 1_555
C0 Fe1 2.091757 1_455
C0 Fe0 2.091757 1_555
C1 C3 1.459676 1_555
C1 Fe1 2.091757 1_556
C1 Fe0 2.091757 1_556
C1 Fe0 2.091757 1_656
C1 Fe1 2.091757 1_546
C2 Pu0 2.287380 1_555
C2 Pu1 2.428651 1_465
C2 Pu1 2.428651 1_455
C2 Pu1 2.428651 1_555
C2 Pu1 2.428651 1_565
C3 Pu1 2.287380 1_555
C3 Pu0 2.428651 1_645
C3 Pu0 2.428651 1_545
C3 Pu0 2.428651 1_555
C3 Pu0 2.428651 1_655
