# generated using pymatgen
data_Gd3VGeO9
_symmetry_space_group_name_H-M   'P 1'
_cell_length_a   6.97825711
_cell_length_b   9.29533068
_cell_length_c   12.36757400
_cell_angle_alpha   90.00000000
_cell_angle_beta   90.00000000
_cell_angle_gamma   107.74704655
_symmetry_Int_Tables_number   1
_chemical_formula_structural   Gd3VGeO9
_chemical_formula_sum   'Gd12 V4 Ge4 O36'
_cell_volume   764.04856660
_cell_formula_units_Z   4
loop_
 _symmetry_equiv_pos_site_id
 _symmetry_equiv_pos_as_xyz
  1  'x, y, z'
loop_
 _atom_site_type_symbol
 _atom_site_label
 _atom_site_symmetry_multiplicity
 _atom_site_fract_x
 _atom_site_fract_y
 _atom_site_fract_z
 _atom_site_occupancy
  Gd  Gd0  1  0.67307700  0.62280900  0.36922600  1
  Gd  Gd1  1  0.32692300  0.37719100  0.63077400  1
  Gd  Gd2  1  0.82692300  0.87719100  0.86922600  1
  Gd  Gd3  1  0.17307700  0.12280900  0.13077400  1
  Gd  Gd4  1  0.23992100  0.84486300  0.36499800  1
  Gd  Gd5  1  0.76007900  0.15513700  0.63500200  1
  Gd  Gd6  1  0.26007900  0.65513700  0.86499800  1
  Gd  Gd7  1  0.73992100  0.34486300  0.13500200  1
  Gd  Gd8  1  0.50375300  0.87565600  0.10610500  1
  Gd  Gd9  1  0.49624700  0.12434400  0.89389500  1
  Gd  Gd10  1  0.99624700  0.62434400  0.60610500  1
  Gd  Gd11  1  0.00375300  0.37565600  0.39389500  1
  V  V0  1  0.19666900  0.97960000  0.66290900  1
  V  V1  1  0.80333100  0.02040000  0.33709100  1
  V  V2  1  0.30333100  0.52040000  0.16290900  1
  V  V3  1  0.69666900  0.47960000  0.83709100  1
  Ge  Ge0  1  0.94996100  0.75889600  0.10138900  1
  Ge  Ge1  1  0.05003900  0.24110400  0.89861100  1
  Ge  Ge2  1  0.55003900  0.74110400  0.60138900  1
  Ge  Ge3  1  0.44996100  0.25889600  0.39861100  1
  O  O0  1  0.89914800  0.86717900  0.34185400  1
  O  O1  1  0.10085200  0.13282100  0.65814600  1
  O  O2  1  0.60085200  0.63282100  0.84185400  1
  O  O3  1  0.39914800  0.36717900  0.15814600  1
  O  O4  1  0.65945000  0.59006500  0.57535000  1
  O  O5  1  0.34055000  0.40993500  0.42465000  1
  O  O6  1  0.84055000  0.90993500  0.07535000  1
  O  O7  1  0.15945000  0.09006500  0.92465000  1
  O  O8  1  0.16832500  0.87776800  0.54316200  1
  O  O9  1  0.83167500  0.12223200  0.45683800  1
  O  O10  1  0.33167500  0.62223200  0.04316200  1
  O  O11  1  0.66832500  0.37776800  0.95683800  1
  O  O12  1  0.78591300  0.61017200  0.17377400  1
  O  O13  1  0.21408700  0.38982800  0.82622600  1
  O  O14  1  0.71408700  0.88982800  0.67377400  1
  O  O15  1  0.28591300  0.11017200  0.32622600  1
  O  O16  1  0.07565000  0.83547600  0.75358000  1
  O  O17  1  0.92435000  0.16452400  0.24642000  1
  O  O18  1  0.42435000  0.66452400  0.25358000  1
  O  O19  1  0.57565000  0.33547600  0.74642000  1
  O  O20  1  0.99823400  0.61602700  0.42056400  1
  O  O21  1  0.00176600  0.38397300  0.57943600  1
  O  O22  1  0.50176600  0.88397300  0.92056400  1
  O  O23  1  0.49823400  0.11602700  0.07943600  1
  O  O24  1  0.17741700  0.86380800  0.17069400  1
  O  O25  1  0.82258300  0.13619200  0.82930600  1
  O  O26  1  0.32258300  0.63619200  0.67069400  1
  O  O27  1  0.67741700  0.36380800  0.32930600  1
  O  O28  1  0.56138300  0.96070500  0.28740200  1
  O  O29  1  0.43861700  0.03929500  0.71259800  1
  O  O30  1  0.93861700  0.53929500  0.78740200  1
  O  O31  1  0.06138300  0.46070500  0.21259800  1
  O  O32  1  0.49520300  0.77582400  0.46598600  1
  O  O33  1  0.50479700  0.22417600  0.53401400  1
  O  O34  1  0.00479700  0.72417600  0.96598600  1
  O  O35  1  0.99520300  0.27582400  0.03401400  1
loop_
_geom_bond_atom_site_label_1
_geom_bond_atom_site_label_2
_geom_bond_distance
_geom_bond_site_symmetry_2
Gd0 O0 2.361880 1_555
Gd0 O18 2.370418 1_555
Gd0 O20 2.375458 1_555
Gd0 O32 2.464153 1_555
Gd0 O27 2.466815 1_555
Gd0 O12 2.556044 1_555
Gd0 O4 2.565684 1_555
Gd0 O5 2.640192 1_555
Gd1 O1 2.361880 1_555
Gd1 O19 2.370418 1_555
Gd1 O21 2.375458 1_555
Gd1 O33 2.464153 1_555
Gd1 O26 2.466815 1_555
Gd1 O13 2.556044 1_555
Gd1 O5 2.565684 1_555
Gd1 O4 2.640192 1_555
Gd2 O2 2.361880 1_555
Gd2 O16 2.370418 1_655
Gd2 O22 2.375458 1_555
Gd2 O34 2.464153 1_655
Gd2 O25 2.466815 1_565
Gd2 O14 2.556044 1_555
Gd2 O6 2.565684 1_556
Gd2 O7 2.640192 1_665
Gd3 O3 2.361880 1_555
Gd3 O17 2.370418 1_455
Gd3 O23 2.375458 1_555
Gd3 O35 2.464153 1_455
Gd3 O24 2.466815 1_545
Gd3 O15 2.556044 1_555
Gd3 O7 2.565684 1_554
Gd3 O6 2.640192 1_445
Gd4 O8 2.300336 1_555
Gd4 O28 2.374875 1_555
Gd4 O20 2.377872 1_455
Gd4 O32 2.417060 1_555
Gd4 O15 2.435620 1_565
Gd4 O24 2.458215 1_555
Gd4 O0 2.465881 1_455
Gd4 O18 2.771351 1_555
Gd5 O9 2.300336 1_555
Gd5 O29 2.374875 1_555
Gd5 O21 2.377872 1_655
Gd5 O33 2.417060 1_555
Gd5 O14 2.435620 1_545
Gd5 O25 2.458215 1_555
Gd5 O1 2.465881 1_655
Gd5 O19 2.771351 1_555
Gd6 O10 2.300336 1_556
Gd6 O30 2.374875 1_455
Gd6 O22 2.377872 1_555
Gd6 O34 2.417060 1_555
Gd6 O13 2.435620 1_555
Gd6 O26 2.458215 1_555
Gd6 O2 2.465881 1_555
Gd6 O16 2.771351 1_555
Gd7 O11 2.300336 1_554
Gd7 O31 2.374875 1_655
Gd7 O23 2.377872 1_555
Gd7 O35 2.417060 1_555
Gd7 O12 2.435620 1_555
Gd7 O27 2.458215 1_555
Gd7 O3 2.465881 1_555
Gd7 O17 2.771351 1_555
Gd8 O23 2.270452 1_565
Gd8 O22 2.296178 1_554
Gd8 O6 2.305076 1_555
Gd8 O28 2.370733 1_555
Gd8 O24 2.383952 1_555
Gd8 O10 2.423345 1_555
Gd8 O18 2.611953 1_555
Gd9 O22 2.270452 1_545
Gd9 O23 2.296178 1_556
Gd9 O7 2.305076 1_555
Gd9 O29 2.370733 1_555
Gd9 O25 2.383952 1_555
Gd9 O11 2.423345 1_555
Gd9 O19 2.611953 1_555
Gd10 O21 2.270452 1_655
Gd10 O20 2.296178 1_555
Gd10 O4 2.305076 1_555
Gd10 O30 2.370733 1_555
Gd10 O26 2.383952 1_655
Gd10 O8 2.423345 1_655
Gd10 O16 2.611953 1_655
Gd11 O20 2.270452 1_455
Gd11 O21 2.296178 1_555
Gd11 O5 2.305076 1_555
Gd11 O31 2.370733 1_555
Gd11 O27 2.383952 1_455
Gd11 O9 2.423345 1_455
Gd11 O17 2.611953 1_455
Ge0 O12 1.748794 1_555
Ge0 O34 1.769232 1_654
Ge0 O24 1.805935 1_655
Ge0 O6 1.819673 1_555
Ge1 O13 1.748794 1_555
Ge1 O35 1.769232 1_456
Ge1 O25 1.805935 1_455
Ge1 O7 1.819673 1_555
Ge2 O14 1.748794 1_555
Ge2 O32 1.769232 1_555
Ge2 O26 1.805935 1_555
Ge2 O4 1.819673 1_555
Ge3 O15 1.748794 1_555
Ge3 O33 1.769232 1_555
Ge3 O27 1.805935 1_555
Ge3 O5 1.819673 1_555
O0 V1 1.749158 1_565
O1 V0 1.749158 1_545
O2 V3 1.749158 1_555
O3 V2 1.749158 1_555
O8 V0 1.736164 1_555
O9 V1 1.736164 1_555
O10 V2 1.736164 1_555
O11 V3 1.736164 1_555
O16 V0 1.753769 1_555
O17 V1 1.753769 1_555
O18 V2 1.753769 1_555
O19 V3 1.753769 1_555
O28 V1 1.721924 1_565
O29 V0 1.721924 1_545
O30 V3 1.721924 1_555
O31 V2 1.721924 1_555
