# generated using pymatgen
data_Yb4Al23Ni6
_symmetry_space_group_name_H-M   'P 1'
_cell_length_a   8.24756656
_cell_length_b   8.24756656
_cell_length_c   18.28048977
_cell_angle_alpha   68.11051489
_cell_angle_beta   68.11051489
_cell_angle_gamma   28.62905311
_symmetry_Int_Tables_number   1
_chemical_formula_structural   Yb4Al23Ni6
_chemical_formula_sum   'Yb4 Al23 Ni6'
_cell_volume   549.93086985
_cell_formula_units_Z   1
loop_
 _symmetry_equiv_pos_site_id
 _symmetry_equiv_pos_as_xyz
  1  'x, y, z'
loop_
 _atom_site_type_symbol
 _atom_site_label
 _atom_site_symmetry_multiplicity
 _atom_site_fract_x
 _atom_site_fract_y
 _atom_site_fract_z
 _atom_site_occupancy
  Yb  Yb0  1  0.73840400  0.73840400  0.21553400  1
  Yb  Yb1  1  0.57880200  0.57880200  0.59324500  1
  Yb  Yb2  1  0.42119800  0.42119800  0.40675500  1
  Yb  Yb3  1  0.26159600  0.26159600  0.78446600  1
  Al  Al0  1  0.00000000  0.00000000  0.50000000  1
  Al  Al1  1  0.85543500  0.85543500  0.85749800  1
  Al  Al2  1  0.91931500  0.91931500  0.68725500  1
  Al  Al3  1  0.08068500  0.08068500  0.31274500  1
  Al  Al4  1  0.91005200  0.91005200  0.04919500  1
  Al  Al5  1  0.08994800  0.08994800  0.95080500  1
  Al  Al6  1  0.90818900  0.90818900  0.27819000  1
  Al  Al7  1  0.09181100  0.09181100  0.72181000  1
  Al  Al8  1  0.79776500  0.79776500  0.52148900  1
  Al  Al9  1  0.20223500  0.20223500  0.47851100  1
  Al  Al10  1  0.14456500  0.14456500  0.14250200  1
  Al  Al11  1  0.60887900  0.60887900  0.83803100  1
  Al  Al12  1  0.74485200  0.74485200  0.04637000  1
  Al  Al13  1  0.25514800  0.25514800  0.95363000  1
  Al  Al14  1  0.39112100  0.39112100  0.16196900  1
  Al  Al15  1  0.46748300  0.46748300  0.78116100  1
  Al  Al16  1  0.72824400  0.72824400  0.67653200  1
  Al  Al17  1  0.27175600  0.27175600  0.32346800  1
  Al  Al18  1  0.62153700  0.62153700  0.40430900  1
  Al  Al19  1  0.37846300  0.37846300  0.59569100  1
  Al  Al20  1  0.56848500  0.56848500  0.06084700  1
  Al  Al21  1  0.43151500  0.43151500  0.93915300  1
  Al  Al22  1  0.53251700  0.53251700  0.21883900  1
  Ni  Ni0  1  0.99325300  0.99325300  0.13417400  1
  Ni  Ni1  1  0.00674700  0.00674700  0.86582600  1
  Ni  Ni2  1  0.77280500  0.77280500  0.39750000  1
  Ni  Ni3  1  0.68937200  0.68937200  0.93290200  1
  Ni  Ni4  1  0.22719500  0.22719500  0.60250000  1
  Ni  Ni5  1  0.31062800  0.31062800  0.06709800  1
loop_
_geom_bond_atom_site_label_1
_geom_bond_atom_site_label_2
_geom_bond_distance
_geom_bond_site_symmetry_2
Al0 Al19 2.894257 1_545
Al0 Al18 2.894257 1_545
Al0 Al19 2.894257 1_455
Al0 Al18 2.894257 1_455
Al0 Al2 3.159705 1_445
Al0 Al3 3.159705 1_555
Al0 Yb2 3.209696 1_545
Al0 Yb2 3.209696 1_455
Al0 Yb1 3.209696 1_455
Al0 Yb1 3.209696 1_545
Al1 Ni3 2.475757 1_555
Al1 Ni1 2.480980 1_665
Al1 Al15 2.718386 1_565
Al1 Al15 2.718386 1_655
Al1 Al13 2.765516 1_655
Al1 Al13 2.765516 1_565
Al1 Al2 2.877953 1_555
Al1 Yb3 3.119447 1_565
Al1 Yb3 3.119447 1_655
Al2 Al7 3.056186 1_665
Al2 Yb3 3.197420 1_655
Al2 Yb3 3.197420 1_565
Al2 Yb1 3.199742 1_565
Al2 Yb1 3.199742 1_655
Al3 Al6 3.056186 1_445
Al3 Yb0 3.197420 1_455
Al3 Yb0 3.197420 1_545
Al3 Yb2 3.199742 1_545
Al3 Yb2 3.199742 1_455
Al4 Ni0 2.402350 1_555
Al4 Ni5 2.527909 1_565
Al4 Ni5 2.527909 1_655
Al4 Yb0 3.217641 1_555
Al5 Ni1 2.402350 1_555
Al5 Ni3 2.527909 1_455
Al5 Ni3 2.527909 1_545
Al5 Yb3 3.217641 1_555
Al6 Ni2 2.409864 1_555
Al6 Ni0 2.454603 1_555
Al6 Yb2 3.178217 1_565
Al6 Yb2 3.178217 1_655
Al6 Yb0 3.326826 1_555
Al7 Ni4 2.409864 1_555
Al7 Ni1 2.454603 1_555
Al7 Yb1 3.178217 1_455
Al7 Yb1 3.178217 1_545
Al7 Yb3 3.326826 1_555
Al8 Ni2 2.447929 1_555
Al8 Ni4 2.517568 1_655
Al8 Ni4 2.517568 1_565
Al8 Yb2 3.043875 1_655
Al8 Yb2 3.043875 1_565
Al8 Yb1 3.230453 1_555
Al9 Ni4 2.447929 1_555
Al9 Ni2 2.517568 1_455
Al9 Ni2 2.517568 1_545
Al9 Yb1 3.043875 1_455
Al9 Yb1 3.043875 1_545
Al9 Yb2 3.230453 1_555
Al10 Ni5 2.475757 1_555
Al10 Ni0 2.480980 1_445
Al10 Al22 2.718386 1_455
Al10 Al22 2.718386 1_545
Al10 Al12 2.765516 1_455
Al10 Al12 2.765516 1_545
Al10 Al3 2.877953 1_555
Al10 Yb0 3.119447 1_455
Al10 Yb0 3.119447 1_545
Al11 Ni3 2.525838 1_555
Al11 Ni1 2.538261 1_565
Al11 Ni1 2.538261 1_655
Al11 Al15 2.827730 1_555
Al11 Yb3 3.039024 1_655
Al11 Yb3 3.039024 1_565
Al12 Ni5 2.390304 1_565
Al12 Ni5 2.390304 1_655
Al12 Ni3 2.550337 1_554
Al12 Al13 2.616247 1_654
Al12 Al13 2.616247 1_564
Al12 Al4 2.660690 1_555
Al12 Al20 2.728008 1_555
Al12 Yb0 3.054229 1_555
Al13 Ni3 2.390304 1_545
Al13 Ni3 2.390304 1_455
Al13 Ni5 2.550337 1_556
Al13 Al5 2.660690 1_555
Al13 Al21 2.728008 1_555
Al13 Yb3 3.054229 1_555
Al14 Ni5 2.525838 1_555
Al14 Ni0 2.538261 1_545
Al14 Ni0 2.538261 1_455
Al14 Al22 2.827730 1_555
Al14 Yb0 3.039024 1_455
Al14 Yb0 3.039024 1_545
Al15 Al21 2.719253 1_555
Al15 Al7 2.761337 1_565
Al15 Al7 2.761337 1_655
Al15 Ni1 2.773966 1_565
Al15 Ni1 2.773966 1_655
Al15 Al2 2.952081 1_455
Al15 Al2 2.952081 1_545
Al15 Yb1 3.203571 1_555
Al15 Yb3 3.267924 1_555
Al16 Ni4 2.451015 1_565
Al16 Ni4 2.451015 1_655
Al16 Yb3 3.024038 1_565
Al16 Yb3 3.024038 1_655
Al16 Al2 3.134538 1_555
Al16 Yb1 3.289627 1_555
Al17 Ni2 2.451015 1_455
Al17 Ni2 2.451015 1_545
Al17 Yb0 3.024038 1_455
Al17 Yb0 3.024038 1_545
Al17 Al3 3.134538 1_555
Al17 Yb2 3.289627 1_555
Al18 Ni2 2.372609 1_555
Al18 Al3 2.868323 1_565
Al18 Al3 2.868323 1_655
Al18 Yb2 3.185083 1_555
Al18 Yb0 3.230700 1_555
Al18 Yb1 3.252719 1_555
Al19 Ni4 2.372609 1_555
Al19 Al2 2.868323 1_455
Al19 Al2 2.868323 1_545
Al19 Yb1 3.185083 1_555
Al19 Yb3 3.230700 1_555
Al19 Yb2 3.252719 1_555
Al20 Ni3 2.392917 1_554
Al20 Ni0 2.482043 1_545
Al20 Ni0 2.482043 1_455
Al20 Al22 2.719253 1_555
Al21 Ni5 2.392917 1_556
Al21 Ni1 2.482043 1_655
Al21 Ni1 2.482043 1_565
Al22 Al6 2.761337 1_545
Al22 Al6 2.761337 1_455
Al22 Ni0 2.773966 1_455
Al22 Ni0 2.773966 1_545
Al22 Al3 2.952081 1_565
Al22 Al3 2.952081 1_655
Al22 Yb2 3.203571 1_555
Al22 Yb0 3.267924 1_555
Ni2 Yb2 3.181335 1_565
Ni2 Yb2 3.181335 1_655
Ni3 Yb3 3.231613 1_565
Ni3 Yb3 3.231613 1_655
Ni4 Yb1 3.181335 1_545
Ni4 Yb1 3.181335 1_455
Ni5 Yb0 3.231613 1_455
Ni5 Yb0 3.231613 1_545
