# generated using pymatgen
data_Na5CoCO5
_symmetry_space_group_name_H-M   'P 1'
_cell_length_a   4.95631700
_cell_length_b   4.52410400
_cell_length_c   8.33986100
_cell_angle_alpha   90.00000000
_cell_angle_beta   90.00000000
_cell_angle_gamma   90.00000000
_symmetry_Int_Tables_number   1
_chemical_formula_structural   Na5CoCO5
_chemical_formula_sum   'Na5 Co1 C1 O5'
_cell_volume   187.00381555
_cell_formula_units_Z   1
loop_
 _symmetry_equiv_pos_site_id
 _symmetry_equiv_pos_as_xyz
  1  'x, y, z'
loop_
 _atom_site_type_symbol
 _atom_site_label
 _atom_site_symmetry_multiplicity
 _atom_site_fract_x
 _atom_site_fract_y
 _atom_site_fract_z
 _atom_site_occupancy
  Na  Na0  1  0.50451300  0.00000000  0.77638900  1
  Na  Na1  1  0.99292500  0.50000000  0.76222700  1
  Na  Na2  1  0.50451300  0.00000000  0.22361100  1
  Na  Na3  1  0.99292500  0.50000000  0.23777300  1
  Na  Na4  1  0.98632800  0.00000000  0.50000000  1
  Co  Co0  1  0.00437200  0.00000000  0.00000000  1
  C  C0  1  0.42613600  0.50000000  0.50000000  1
  O  O0  1  0.00539200  0.00000000  0.78767700  1
  O  O1  1  0.00539200  0.00000000  0.21232300  1
  O  O2  1  0.16311300  0.50000000  0.50000000  1
  O  O3  1  0.55469600  0.50000000  0.63684400  1
  O  O4  1  0.55469600  0.50000000  0.36315600  1
loop_
_geom_bond_atom_site_label_1
_geom_bond_atom_site_label_2
_geom_bond_distance
_geom_bond_site_symmetry_2
Na0 O0 2.475593 1_555
Na0 O0 2.484299 1_655
Na0 O3 2.556001 1_545
Na0 O3 2.556001 1_555
Na1 O0 2.272828 1_655
Na1 O0 2.272828 1_665
Na1 O2 2.343970 1_655
Na1 O3 2.410608 1_555
Na2 O1 2.475593 1_555
Na2 O1 2.484299 1_655
Na2 O4 2.556001 1_555
Na2 O4 2.556001 1_545
Na3 O1 2.272828 1_655
Na3 O1 2.272828 1_665
Na3 O2 2.343970 1_655
Na3 O4 2.410608 1_555
Na4 O0 2.401046 1_655
Na4 O1 2.401046 1_655
Na4 O2 2.425822 1_645
Na4 O2 2.425822 1_655
Co0 O0 1.770752 1_554
Co0 O1 1.770752 1_555
C0 O2 1.303625 1_555
C0 O3 1.307088 1_555
C0 O4 1.307088 1_555
