# generated using pymatgen
data_BaSr7MnFe7O24
_symmetry_space_group_name_H-M   'P 1'
_cell_length_a   7.85490346
_cell_length_b   7.85490346
_cell_length_c   7.85490406
_cell_angle_alpha   90.00485847
_cell_angle_beta   90.00485847
_cell_angle_gamma   90.00485867
_symmetry_Int_Tables_number   1
_chemical_formula_structural   BaSr7MnFe7O24
_chemical_formula_sum   'Ba1 Sr7 Mn1 Fe7 O24'
_cell_volume   484.64371382
_cell_formula_units_Z   1
loop_
 _symmetry_equiv_pos_site_id
 _symmetry_equiv_pos_as_xyz
  1  'x, y, z'
loop_
 _atom_site_type_symbol
 _atom_site_label
 _atom_site_symmetry_multiplicity
 _atom_site_fract_x
 _atom_site_fract_y
 _atom_site_fract_z
 _atom_site_occupancy
  Ba  Ba0  1  0.74967300  0.74967300  0.74967300  1
  Sr  Sr0  1  0.74971500  0.25026500  0.74971500  1
  Sr  Sr1  1  0.74973500  0.25029800  0.25029800  1
  Sr  Sr2  1  0.74971500  0.74971500  0.25026500  1
  Sr  Sr3  1  0.25029800  0.25029800  0.74973500  1
  Sr  Sr4  1  0.25021800  0.25021800  0.25021800  1
  Sr  Sr5  1  0.25026500  0.74971500  0.74971500  1
  Sr  Sr6  1  0.25029800  0.74973500  0.25029800  1
  Mn  Mn0  1  0.49907700  0.49907700  0.49907700  1
  Fe  Fe0  1  0.49900700  0.00098400  0.00098400  1
  Fe  Fe1  1  0.49916700  0.00095700  0.49916700  1
  Fe  Fe2  1  0.49916700  0.49916700  0.00095700  1
  Fe  Fe3  1  0.00085000  0.00085000  0.00085000  1
  Fe  Fe4  1  0.00098400  0.00098400  0.49900700  1
  Fe  Fe5  1  0.00098400  0.49900700  0.00098400  1
  Fe  Fe6  1  0.00095700  0.49916700  0.49916700  1
  O  O0  1  0.74952100  0.00379300  0.00379300  1
  O  O1  1  0.75171300  0.00375400  0.49615400  1
  O  O2  1  0.75171300  0.49615400  0.00375400  1
  O  O3  1  0.74518800  0.49604900  0.49604900  1
  O  O4  1  0.25036500  0.00091900  0.00091900  1
  O  O5  1  0.24845100  0.00091000  0.49913300  1
  O  O6  1  0.24845100  0.49913300  0.00091000  1
  O  O7  1  0.25448300  0.49928900  0.49928900  1
  O  O8  1  0.49913300  0.24845100  0.00091000  1
  O  O9  1  0.49928900  0.25448300  0.49928900  1
  O  O10  1  0.49615400  0.75171300  0.00375400  1
  O  O11  1  0.49604900  0.74518800  0.49604900  1
  O  O12  1  0.00091900  0.25036500  0.00091900  1
  O  O13  1  0.00091000  0.24845100  0.49913300  1
  O  O14  1  0.00379300  0.74952100  0.00379300  1
  O  O15  1  0.00375400  0.75171300  0.49615400  1
  O  O16  1  0.49615400  0.00375400  0.75171300  1
  O  O17  1  0.49913300  0.00091000  0.24845100  1
  O  O18  1  0.49604900  0.49604900  0.74518800  1
  O  O19  1  0.49928900  0.49928900  0.25448300  1
  O  O20  1  0.00379300  0.00379300  0.74952100  1
  O  O21  1  0.00091900  0.00091900  0.25036500  1
  O  O22  1  0.00375400  0.49615400  0.75171300  1
  O  O23  1  0.00091000  0.49913300  0.24845100  1
loop_
_geom_bond_atom_site_label_1
_geom_bond_atom_site_label_2
_geom_bond_distance
_geom_bond_site_symmetry_2
Ba0 O18 2.817482 1_555
Ba0 O3 2.817482 1_555
Ba0 O11 2.817482 1_555
Ba0 O22 2.819507 1_655
Ba0 O16 2.819507 1_565
Ba0 O1 2.819507 1_565
Ba0 O15 2.819507 1_655
Ba0 O10 2.819507 1_556
Ba0 O2 2.819507 1_556
Ba0 O20 2.822776 1_665
Ba0 O0 2.822776 1_566
Ba0 O14 2.822776 1_656
Mn0 O7 1.921264 1_555
Mn0 O9 1.921264 1_555
Mn0 O19 1.921264 1_555
Mn0 O3 1.933475 1_555
Mn0 O11 1.933475 1_555
Mn0 O18 1.933475 1_555
Fe0 O8 1.943830 1_555
Fe0 O17 1.943830 1_555
Fe0 O4 1.953059 1_555
Fe0 O10 1.958249 1_545
Fe0 O16 1.958249 1_554
Fe0 O0 1.968007 1_555
Fe1 O5 1.969350 1_555
Fe1 O17 1.969350 1_555
Fe1 O1 1.983987 1_555
Fe1 O16 1.983988 1_555
Fe1 O9 1.991423 1_555
Fe1 O11 2.009335 1_545
Fe2 O8 1.969350 1_555
Fe2 O6 1.969350 1_555
Fe2 O10 1.983987 1_555
Fe2 O2 1.983987 1_555
Fe2 O19 1.991423 1_555
Fe2 O18 2.009335 1_554
Fe3 O4 1.959916 1_555
Fe3 O12 1.959916 1_555
Fe3 O21 1.959916 1_555
Fe3 O0 1.974440 1_455
Fe3 O14 1.974440 1_545
Fe3 O20 1.974440 1_554
Fe4 O5 1.943830 1_555
Fe4 O13 1.943830 1_555
Fe4 O21 1.953059 1_555
Fe4 O1 1.958249 1_455
Fe4 O15 1.958249 1_545
Fe4 O20 1.968007 1_555
Fe5 O6 1.943830 1_555
Fe5 O23 1.943830 1_555
Fe5 O12 1.953059 1_555
Fe5 O2 1.958249 1_455
Fe5 O22 1.958249 1_554
Fe5 O14 1.968007 1_555
Fe6 O13 1.969350 1_555
Fe6 O23 1.969350 1_555
Fe6 O15 1.983987 1_555
Fe6 O22 1.983988 1_555
Fe6 O7 1.991423 1_555
Fe6 O3 2.009335 1_455
O0 Sr1 2.738188 1_555
O0 Sr2 2.780622 1_545
O0 Sr0 2.780622 1_554
O1 Sr1 2.735078 1_555
O1 Sr2 2.777022 1_545
O1 Sr0 2.777732 1_555
O2 Sr1 2.735078 1_555
O2 Sr0 2.777022 1_554
O2 Sr2 2.777732 1_555
O3 Sr1 2.730050 1_555
O3 Sr2 2.774764 1_555
O3 Sr0 2.774764 1_555
O4 Sr4 2.769224 1_555
O4 Sr6 2.780391 1_545
O4 Sr3 2.780391 1_554
O4 Sr5 2.790384 1_544
O5 Sr4 2.767411 1_555
O5 Sr3 2.776999 1_555
O5 Sr6 2.777136 1_545
O5 Sr5 2.787154 1_545
O6 Sr4 2.767411 1_555
O6 Sr6 2.776999 1_555
O6 Sr3 2.777136 1_554
O6 Sr5 2.787154 1_554
O7 Sr4 2.766890 1_555
O7 Sr6 2.774325 1_555
O7 Sr3 2.774325 1_555
O7 Sr5 2.781943 1_555
O8 Sr4 2.767411 1_555
O8 Sr1 2.776999 1_555
O8 Sr3 2.777136 1_554
O8 Sr0 2.787154 1_554
O9 Sr4 2.766890 1_555
O9 Sr1 2.774325 1_555
O9 Sr3 2.774325 1_555
O9 Sr0 2.781943 1_555
O10 Sr6 2.735078 1_555
O10 Sr5 2.777022 1_554
O10 Sr2 2.777732 1_555
O11 Sr6 2.730050 1_555
O11 Sr2 2.774764 1_555
O11 Sr5 2.774764 1_555
O12 Sr4 2.769224 1_555
O12 Sr1 2.780391 1_455
O12 Sr3 2.780391 1_554
O12 Sr0 2.790384 1_454
O13 Sr4 2.767411 1_555
O13 Sr3 2.776999 1_555
O13 Sr1 2.777136 1_455
O13 Sr0 2.787154 1_455
O14 Sr6 2.738188 1_555
O14 Sr2 2.780622 1_455
O14 Sr5 2.780622 1_554
O15 Sr6 2.735078 1_555
O15 Sr2 2.777022 1_455
O15 Sr5 2.777732 1_555
O16 Sr3 2.735078 1_555
O16 Sr5 2.777022 1_545
O16 Sr0 2.777732 1_555
O17 Sr4 2.767411 1_555
O17 Sr1 2.776999 1_555
O17 Sr6 2.777136 1_545
O17 Sr2 2.787154 1_545
O18 Sr3 2.730050 1_555
O18 Sr5 2.774764 1_555
O18 Sr0 2.774764 1_555
O19 Sr4 2.766889 1_555
O19 Sr6 2.774325 1_555
O19 Sr1 2.774325 1_555
O19 Sr2 2.781943 1_555
O20 Sr3 2.738188 1_555
O20 Sr0 2.780622 1_455
O20 Sr5 2.780622 1_545
O21 Sr4 2.769224 1_555
O21 Sr6 2.780391 1_545
O21 Sr1 2.780391 1_455
O21 Sr2 2.790384 1_445
O22 Sr3 2.735078 1_555
O22 Sr0 2.777022 1_455
O22 Sr5 2.777732 1_555
O23 Sr4 2.767411 1_555
O23 Sr6 2.776999 1_555
O23 Sr1 2.777136 1_455
O23 Sr2 2.787154 1_455
