# generated using pymatgen
data_Rb2NaMn3F12
_symmetry_space_group_name_H-M   'P 1'
_cell_length_a   7.08028621
_cell_length_b   7.48112431
_cell_length_c   10.09999556
_cell_angle_alpha   90.01597583
_cell_angle_beta   85.84284942
_cell_angle_gamma   89.43755137
_symmetry_Int_Tables_number   1
_chemical_formula_structural   Rb2NaMn3F12
_chemical_formula_sum   'Rb4 Na2 Mn6 F24'
_cell_volume   533.54810343
_cell_formula_units_Z   2
loop_
 _symmetry_equiv_pos_site_id
 _symmetry_equiv_pos_as_xyz
  1  'x, y, z'
loop_
 _atom_site_type_symbol
 _atom_site_label
 _atom_site_symmetry_multiplicity
 _atom_site_fract_x
 _atom_site_fract_y
 _atom_site_fract_z
 _atom_site_occupancy
  Rb  Rb0  1  0.51253533  0.74776691  0.60779581  1
  Rb  Rb1  1  0.48746467  0.25223309  0.39220419  1
  Rb  Rb2  1  0.02569947  0.26223158  0.14051219  1
  Rb  Rb3  1  0.97430053  0.73776842  0.85948781  1
  Na  Na0  1  0.70711147  0.23609625  0.74580862  1
  Na  Na1  1  0.29288853  0.76390375  0.25419138  1
  Mn  Mn0  1  0.81419464  0.74750264  0.21469800  1
  Mn  Mn1  1  0.18580536  0.25249736  0.78530200  1
  Mn  Mn2  1  0.00000000  0.50000000  0.50000000  1
  Mn  Mn3  1  0.00000000  -0.00000000  0.50000000  1
  Mn  Mn4  1  0.50000000  -0.00000000  -0.00000000  1
  Mn  Mn5  1  0.50000000  0.50000000  -0.00000000  1
  F  F0  1  0.04665322  0.72499089  0.12517478  1
  F  F1  1  0.95334678  0.27500911  0.87482522  1
  F  F2  1  0.59007906  0.77133218  0.31438190  1
  F  F3  1  0.40992094  0.22866782  0.68561810  1
  F  F4  1  0.76555776  0.43007971  0.56813942  1
  F  F5  1  0.23444224  0.56992029  0.43186058  1
  F  F6  1  0.75003079  0.05186298  0.54643235  1
  F  F7  1  0.24996921  0.94813702  0.45356765  1
  F  F8  1  0.63207498  0.95201224  0.83932435  1
  F  F9  1  0.36792502  0.04798776  0.16067565  1
  F  F10  1  0.62020152  0.53358000  0.83504294  1
  F  F11  1  0.37979848  0.46642000  0.16495706  1
  F  F12  1  0.58458207  0.23471093  0.98604155  1
  F  F13  1  0.41541793  0.76528907  0.01395845  1
  F  F14  1  0.27443268  0.44487226  0.92094702  1
  F  F15  1  0.72556732  0.55512774  0.07905298  1
  F  F16  1  0.25096009  0.06759463  0.90130686  1
  F  F17  1  0.74903991  0.93240537  0.09869314  1
  F  F18  1  0.05658456  0.05455217  0.67395548  1
  F  F19  1  0.94341544  0.94544783  0.32604452  1
  F  F20  1  0.94420172  0.73387463  0.56426434  1
  F  F21  1  0.05579828  0.26612537  0.43573566  1
  F  F22  1  0.12086507  0.44759936  0.67873873  1
  F  F23  1  0.87913493  0.55240064  0.32126127  1
loop_
_geom_bond_atom_site_label_1
_geom_bond_atom_site_label_2
_geom_bond_distance
_geom_bond_site_symmetry_2
F0 Mn0 1.825793 1_455
F0 Na1 2.271862 1_555
F0 Rb3 2.769637 1_454
F1 Mn1 1.825793 1_655
F1 Na0 2.271862 1_555
F1 Rb2 2.769637 1_656
F2 Mn0 1.823760 1_555
F2 Na1 2.233390 1_555
F2 Rb0 2.980104 1_555
F3 Mn1 1.823760 1_555
F3 Na0 2.233390 1_555
F3 Rb1 2.980104 1_555
F4 Mn2 1.831446 1_655
F4 Na0 2.324420 1_555
F4 Rb0 2.971555 1_555
F4 Rb1 3.059739 1_555
F5 Mn2 1.831446 1_555
F5 Na1 2.324420 1_555
F5 Rb1 2.971555 1_555
F5 Rb0 3.059739 1_555
F6 Mn3 1.835464 1_655
F6 Na0 2.438949 1_555
F6 Rb0 2.883055 1_545
F6 Rb1 2.914774 1_555
F7 Mn3 1.835464 1_565
F7 Na1 2.438949 1_555
F7 Rb1 2.883055 1_565
F7 Rb0 2.914774 1_555
F8 Mn4 1.846610 1_566
F8 Na0 2.375216 1_565
F8 Rb3 2.911540 1_555
F8 Rb0 2.971486 1_555
F9 Mn4 1.846610 1_555
F9 Na1 2.375216 1_545
F9 Rb2 2.911540 1_555
F9 Rb1 2.971486 1_555
F10 Mn5 1.833587 1_556
F10 Na0 2.456711 1_555
F10 Rb0 2.940804 1_555
F10 Rb3 2.974017 1_555
F11 Mn5 1.833587 1_555
F11 Na1 2.456711 1_555
F11 Rb1 2.940804 1_555
F11 Rb2 2.974017 1_555
F12 Mn4 1.862860 1_556
F12 Mn5 2.069217 1_556
F12 Na0 2.516927 1_555
F13 Mn4 1.862860 1_565
F13 Mn5 2.069217 1_555
F13 Na1 2.516927 1_555
F14 Mn5 1.885705 1_556
F14 Mn1 2.117361 1_555
F14 Rb2 3.060866 1_556
F14 Rb3 3.130965 1_455
F15 Mn5 1.885705 1_555
F15 Mn0 2.117361 1_555
F15 Rb3 3.060866 1_554
F15 Rb2 3.130965 1_655
F16 Mn1 1.888326 1_555
F16 Mn4 2.143844 1_556
F16 Rb2 3.145581 1_556
F16 Rb3 3.212178 1_445
F17 Mn0 1.888326 1_555
F17 Mn4 2.143844 1_565
F17 Rb3 3.145581 1_554
F17 Rb2 3.212178 1_665
F18 Mn3 1.875846 1_555
F18 Mn1 2.114137 1_555
F18 Na0 2.857775 1_455
F18 Rb3 3.055904 1_445
F19 Mn3 1.875846 1_665
F19 Mn0 2.114137 1_555
F19 Na1 2.857775 1_655
F19 Rb2 3.055904 1_665
F20 Mn2 1.894003 1_655
F20 Mn3 2.126054 1_665
F20 Rb3 3.004885 1_555
F20 Rb0 3.056816 1_555
F21 Mn2 1.894003 1_555
F21 Mn3 2.126054 1_555
F21 Rb2 3.004885 1_555
F21 Rb1 3.056816 1_555
F22 Mn1 1.886701 1_555
F22 Mn2 2.088721 1_555
F22 Rb3 2.966611 1_455
F23 Mn0 1.886701 1_555
F23 Mn2 2.088721 1_655
F23 Rb2 2.966611 1_655
