# generated using pymatgen
data_SrCa3
_symmetry_space_group_name_H-M   'P 1'
_cell_length_a   8.08780829
_cell_length_b   8.08780977
_cell_length_c   6.58807031
_cell_angle_alpha   90.00000000
_cell_angle_beta   90.00000000
_cell_angle_gamma   120.00000897
_symmetry_Int_Tables_number   1
_chemical_formula_structural   SrCa3
_chemical_formula_sum   'Sr2 Ca6'
_cell_volume   373.20769851
_cell_formula_units_Z   2
loop_
 _symmetry_equiv_pos_site_id
 _symmetry_equiv_pos_as_xyz
  1  'x, y, z'
loop_
 _atom_site_type_symbol
 _atom_site_label
 _atom_site_symmetry_multiplicity
 _atom_site_fract_x
 _atom_site_fract_y
 _atom_site_fract_z
 _atom_site_occupancy
  Sr  Sr0  1  0.33333300  0.66666700  0.75000000  1
  Sr  Sr1  1  0.66666700  0.33333300  0.25000000  1
  Ca  Ca0  1  0.16436224  0.32872347  0.25000000  1
  Ca  Ca1  1  0.67127653  0.83563776  0.25000000  1
  Ca  Ca2  1  0.16436224  0.83563776  0.25000000  1
  Ca  Ca3  1  0.83563776  0.67127653  0.75000000  1
  Ca  Ca4  1  0.32872347  0.16436224  0.75000000  1
  Ca  Ca5  1  0.83563776  0.16436224  0.75000000  1
loop_
_geom_bond_atom_site_label_1
_geom_bond_atom_site_label_2
_geom_bond_distance
_geom_bond_site_symmetry_2
Ca0 Ca1 3.987983 1_445
Ca0 Ca2 3.987983 1_545
Ca0 Ca4 4.018950 1_555
Ca0 Ca4 4.018950 1_554
Ca0 Ca5 4.018958 1_455
Ca0 Ca5 4.018958 1_454
Ca0 Sr1 4.044033 1_555
Ca0 Sr1 4.044033 1_455
Ca0 Sr0 4.056297 1_555
Ca0 Sr0 4.056297 1_554
Ca0 Ca1 4.099825 1_555
Ca0 Ca2 4.099826 1_555
Ca1 Ca2 3.987983 1_655
Ca1 Ca3 4.018950 1_555
Ca1 Ca3 4.018950 1_554
Ca1 Ca5 4.018958 1_565
Ca1 Ca5 4.018958 1_564
Ca1 Sr1 4.044034 1_555
Ca1 Sr1 4.044034 1_565
Ca1 Sr0 4.056297 1_555
Ca1 Sr0 4.056297 1_554
Ca1 Ca2 4.099826 1_555
Ca2 Ca3 4.018958 1_455
Ca2 Ca3 4.018958 1_454
Ca2 Ca4 4.018958 1_564
Ca2 Ca4 4.018958 1_565
Ca2 Sr1 4.044033 1_565
Ca2 Sr1 4.044033 1_455
Ca2 Sr0 4.056289 1_554
Ca2 Sr0 4.056289 1_555
Ca3 Ca4 3.987983 1_665
Ca3 Ca5 3.987983 1_565
Ca3 Sr0 4.044033 1_555
Ca3 Sr0 4.044033 1_655
Ca3 Sr1 4.056297 1_555
Ca3 Sr1 4.056297 1_556
Ca3 Ca4 4.099825 1_555
Ca3 Ca5 4.099826 1_555
Ca4 Ca5 3.987983 1_455
Ca4 Sr0 4.044034 1_555
Ca4 Sr0 4.044034 1_545
Ca4 Sr1 4.056297 1_555
Ca4 Sr1 4.056297 1_556
Ca4 Ca5 4.099826 1_555
Ca5 Sr0 4.044033 1_545
Ca5 Sr0 4.044033 1_655
Ca5 Sr1 4.056289 1_555
Ca5 Sr1 4.056289 1_556
