# generated using pymatgen
data_ErH3
_symmetry_space_group_name_H-M   'P 1'
_cell_length_a   6.21503904
_cell_length_b   6.21502456
_cell_length_c   6.49392542
_cell_angle_alpha   90.00003186
_cell_angle_beta   89.99995945
_cell_angle_gamma   120.00012015
_symmetry_Int_Tables_number   1
_chemical_formula_structural   ErH3
_chemical_formula_sum   'Er6 H18'
_cell_volume   217.23215589
_cell_formula_units_Z   6
loop_
 _symmetry_equiv_pos_site_id
 _symmetry_equiv_pos_as_xyz
  1  'x, y, z'
loop_
 _atom_site_type_symbol
 _atom_site_label
 _atom_site_symmetry_multiplicity
 _atom_site_fract_x
 _atom_site_fract_y
 _atom_site_fract_z
 _atom_site_occupancy
  Er  Er0  1  0.33739536  0.33739263  0.75000007  1
  Er  Er1  1  0.66261136  0.00000079  0.75000046  1
  Er  Er2  1  0.00000164  0.66260983  0.75000009  1
  Er  Er3  1  0.33738864  -0.00000079  0.24999954  1
  Er  Er4  1  0.99999836  0.33739017  0.24999991  1
  Er  Er5  1  0.66260464  0.66260737  0.24999993  1
  H  H0  1  0.67964387  0.64736551  0.59016962  1
  H  H1  1  0.35263637  0.03227837  0.59016987  1
  H  H2  1  0.96772197  0.32035858  0.59016881  1
  H  H3  1  0.67964088  0.03227383  0.09016952  1
  H  H4  1  0.96772458  0.64736891  0.09017036  1
  H  H5  1  0.35262912  0.32035624  0.09016951  1
  H  H6  1  0.32035613  0.35263449  0.40983038  1
  H  H7  1  0.64736363  0.96772163  0.40983013  1
  H  H8  1  0.03227803  0.67964142  0.40983119  1
  H  H9  1  0.32035912  0.96772617  0.90983048  1
  H  H10  1  0.03227542  0.35263109  0.90982964  1
  H  H11  1  0.64737088  0.67964376  0.90983049  1
  H  H12  1  0.33333628  0.66666766  0.68828527  1
  H  H13  1  0.33333063  0.66666506  0.18827931  1
  H  H14  1  0.66666372  0.33333234  0.31171473  1
  H  H15  1  0.66666937  0.33333494  0.81172069  1
  H  H16  1  0.00000233  0.00000088  0.74999733  1
  H  H17  1  0.99999767  0.99999912  0.25000267  1
loop_
_geom_bond_atom_site_label_1
_geom_bond_atom_site_label_2
_geom_bond_distance
_geom_bond_site_symmetry_2
Er0 H16 2.096901 1_555
Er0 H12 2.097820 1_555
Er0 H15 2.097821 1_555
Er0 H1 2.204951 1_555
Er0 H10 2.204976 1_555
Er0 H5 2.215860 1_556
Er0 H6 2.215866 1_555
Er0 H0 2.283709 1_555
Er0 H11 2.283723 1_555
Er0 H9 2.474608 1_545
Er0 H2 2.474661 1_455
Er1 H16 2.096898 1_655
Er1 H12 2.097816 1_545
Er1 H15 2.097830 1_555
Er1 H2 2.204952 1_555
Er1 H11 2.204962 1_545
Er1 H3 2.215858 1_556
Er1 H7 2.215869 1_545
Er1 H1 2.283733 1_555
Er1 H9 2.283735 1_545
Er1 H10 2.474597 1_655
Er1 H0 2.474626 1_545
Er2 H16 2.096892 1_565
Er2 H15 2.097820 1_455
Er2 H12 2.097831 1_555
Er2 H0 2.204962 1_455
Er2 H9 2.204963 1_555
Er2 H8 2.215859 1_555
Er2 H4 2.215868 1_456
Er2 H2 2.283717 1_455
Er2 H10 2.283735 1_555
Er2 H11 2.474608 1_455
Er2 H1 2.474624 1_565
Er3 H17 2.096898 1_445
Er3 H14 2.097816 1_555
Er3 H13 2.097830 1_545
Er3 H8 2.204952 1_545
Er3 H5 2.204962 1_555
Er3 H9 2.215858 1_544
Er3 H1 2.215869 1_555
Er3 H7 2.283733 1_545
Er3 H3 2.283735 1_555
Er3 H4 2.474597 1_445
Er3 H6 2.474626 1_555
Er4 H17 2.096892 1_545
Er4 H13 2.097820 1_655
Er4 H14 2.097831 1_555
Er4 H6 2.204962 1_655
Er4 H3 2.204963 1_555
Er4 H2 2.215859 1_555
Er4 H10 2.215868 1_654
Er4 H8 2.283717 1_655
Er4 H4 2.283735 1_555
Er4 H5 2.474608 1_655
Er4 H7 2.474624 1_545
Er5 H17 2.096901 1_555
Er5 H14 2.097820 1_555
Er5 H13 2.097821 1_555
Er5 H7 2.204951 1_555
Er5 H4 2.204976 1_555
Er5 H11 2.215860 1_554
Er5 H0 2.215866 1_555
Er5 H6 2.283709 1_555
Er5 H5 2.283723 1_555
Er5 H3 2.474608 1_565
Er5 H8 2.474661 1_655
