# generated using pymatgen
data_Sr3Al2
_symmetry_space_group_name_H-M   'P 1'
_cell_length_a   13.01385200
_cell_length_b   13.01385200
_cell_length_c   13.01385200
_cell_angle_alpha   90.00000000
_cell_angle_beta   90.00000000
_cell_angle_gamma   90.00000000
_symmetry_Int_Tables_number   1
_chemical_formula_structural   Sr3Al2
_chemical_formula_sum   'Sr36 Al24'
_cell_volume   2204.03044990
_cell_formula_units_Z   12
loop_
 _symmetry_equiv_pos_site_id
 _symmetry_equiv_pos_as_xyz
  1  'x, y, z'
loop_
 _atom_site_type_symbol
 _atom_site_label
 _atom_site_symmetry_multiplicity
 _atom_site_fract_x
 _atom_site_fract_y
 _atom_site_fract_z
 _atom_site_occupancy
  Sr  Sr0  1  0.06017500  0.56017500  0.93982500  1
  Sr  Sr1  1  0.56017500  0.93982500  0.06017500  1
  Sr  Sr2  1  0.93982500  0.06017500  0.56017500  1
  Sr  Sr3  1  0.43982500  0.43982500  0.43982500  1
  Sr  Sr4  1  0.67976300  0.17976300  0.32023700  1
  Sr  Sr5  1  0.17976300  0.32023700  0.67976300  1
  Sr  Sr6  1  0.32023700  0.67976300  0.17976300  1
  Sr  Sr7  1  0.82023700  0.82023700  0.82023700  1
  Sr  Sr8  1  0.32531600  0.82531600  0.67468400  1
  Sr  Sr9  1  0.82531600  0.67468400  0.32531600  1
  Sr  Sr10  1  0.67468400  0.32531600  0.82531600  1
  Sr  Sr11  1  0.17468400  0.17468400  0.17468400  1
  Sr  Sr12  1  0.48213000  0.22512600  0.06042300  1
  Sr  Sr13  1  0.93957700  0.98213000  0.27487400  1
  Sr  Sr14  1  0.72512600  0.43957700  0.51787000  1
  Sr  Sr15  1  0.98213000  0.27487400  0.93957700  1
  Sr  Sr16  1  0.43957700  0.51787000  0.72512600  1
  Sr  Sr17  1  0.22512600  0.06042300  0.48213000  1
  Sr  Sr18  1  0.51787000  0.72512600  0.43957700  1
  Sr  Sr19  1  0.06042300  0.48213000  0.22512600  1
  Sr  Sr20  1  0.27487400  0.93957700  0.98213000  1
  Sr  Sr21  1  0.01787000  0.77487400  0.56042300  1
  Sr  Sr22  1  0.56042300  0.01787000  0.77487400  1
  Sr  Sr23  1  0.77487400  0.56042300  0.01787000  1
  Sr  Sr24  1  0.56651600  0.47445100  0.19772800  1
  Sr  Sr25  1  0.80227200  0.06651600  0.02554900  1
  Sr  Sr26  1  0.97445100  0.30227200  0.43348400  1
  Sr  Sr27  1  0.06651600  0.02554900  0.80227200  1
  Sr  Sr28  1  0.30227200  0.43348400  0.97445100  1
  Sr  Sr29  1  0.47445100  0.19772800  0.56651600  1
  Sr  Sr30  1  0.43348400  0.97445100  0.30227200  1
  Sr  Sr31  1  0.19772800  0.56651600  0.47445100  1
  Sr  Sr32  1  0.02554900  0.80227200  0.06651600  1
  Sr  Sr33  1  0.93348400  0.52554900  0.69772800  1
  Sr  Sr34  1  0.69772800  0.93348400  0.52554900  1
  Sr  Sr35  1  0.52554900  0.69772800  0.93348400  1
  Al  Al0  1  0.90762100  0.26585100  0.69154100  1
  Al  Al1  1  0.30845900  0.40762100  0.23414900  1
  Al  Al2  1  0.76585100  0.80845900  0.09237900  1
  Al  Al3  1  0.40762100  0.23414900  0.30845900  1
  Al  Al4  1  0.80845900  0.09237900  0.76585100  1
  Al  Al5  1  0.26585100  0.69154100  0.90762100  1
  Al  Al6  1  0.09237900  0.76585100  0.80845900  1
  Al  Al7  1  0.69154100  0.90762100  0.26585100  1
  Al  Al8  1  0.23414900  0.30845900  0.40762100  1
  Al  Al9  1  0.59237900  0.73414900  0.19154100  1
  Al  Al10  1  0.19154100  0.59237900  0.73414900  1
  Al  Al11  1  0.73414900  0.19154100  0.59237900  1
  Al  Al12  1  0.91266000  0.24500900  0.19009300  1
  Al  Al13  1  0.80990700  0.41266000  0.25499100  1
  Al  Al14  1  0.74500900  0.30990700  0.08734000  1
  Al  Al15  1  0.41266000  0.25499100  0.80990700  1
  Al  Al16  1  0.30990700  0.08734000  0.74500900  1
  Al  Al17  1  0.24500900  0.19009300  0.91266000  1
  Al  Al18  1  0.08734000  0.74500900  0.30990700  1
  Al  Al19  1  0.19009300  0.91266000  0.24500900  1
  Al  Al20  1  0.25499100  0.80990700  0.41266000  1
  Al  Al21  1  0.58734000  0.75499100  0.69009300  1
  Al  Al22  1  0.69009300  0.58734000  0.75499100  1
  Al  Al23  1  0.75499100  0.69009300  0.58734000  1
loop_
_geom_bond_atom_site_label_1
_geom_bond_atom_site_label_2
_geom_bond_distance
_geom_bond_site_symmetry_2
Al0 Al11 2.774351 1_555
Al0 Al4 2.774351 1_555
Al0 Sr2 3.203543 1_555
Al0 Sr15 3.372443 1_555
Al0 Sr33 3.397344 1_555
Al0 Sr26 3.501335 1_555
Al0 Sr10 3.580382 1_555
Al0 Sr5 3.614896 1_655
Al1 Al3 2.774351 1_555
Al1 Al8 2.774351 1_555
Al1 Sr3 3.203543 1_555
Al1 Sr19 3.372443 1_555
Al1 Sr28 3.397344 1_554
Al1 Sr24 3.501335 1_555
Al1 Sr11 3.580382 1_555
Al1 Sr6 3.614896 1_555
Al2 Al9 2.774351 1_555
Al2 Al7 2.774351 1_555
Al2 Sr1 3.203543 1_555
Al2 Sr23 3.372443 1_555
Al2 Sr32 3.397344 1_655
Al2 Sr25 3.501335 1_565
Al2 Sr9 3.580382 1_555
Al2 Sr7 3.614896 1_554
Al3 Al8 2.774351 1_555
Al3 Sr3 3.203543 1_555
Al3 Sr12 3.372443 1_555
Al3 Sr30 3.397344 1_545
Al3 Sr29 3.501335 1_555
Al3 Sr11 3.580382 1_555
Al3 Sr4 3.614896 1_555
Al4 Sr2 3.203543 1_555
Al4 Sr22 3.372443 1_555
Al4 Sr25 3.397344 1_556
Al4 Sr27 3.501335 1_655
Al4 Sr10 3.580382 1_555
Al4 Sr7 3.614896 1_545
Al5 Al6 2.774351 1_555
Al5 Sr0 3.203543 1_555
Al5 Sr20 3.372443 1_555
Al5 Sr35 3.397344 1_555
Al5 Sr28 3.501335 1_555
Al5 Sr8 3.580382 1_555
Al5 Sr6 3.614896 1_556
Al6 Sr0 3.203543 1_555
Al6 Sr21 3.372443 1_555
Al6 Sr27 3.397344 1_565
Al6 Sr32 3.501335 1_556
Al6 Sr8 3.580382 1_555
Al6 Sr7 3.614896 1_455
Al7 Al9 2.774351 1_555
Al7 Sr1 3.203543 1_555
Al7 Sr13 3.372443 1_555
Al7 Sr34 3.397344 1_555
Al7 Sr30 3.501335 1_555
Al7 Sr9 3.580382 1_555
Al7 Sr4 3.614896 1_565
Al8 Sr3 3.203543 1_555
Al8 Sr17 3.372443 1_555
Al8 Sr26 3.397344 1_455
Al8 Sr31 3.501335 1_555
Al8 Sr11 3.580382 1_555
Al8 Sr5 3.614896 1_555
Al9 Sr1 3.203543 1_555
Al9 Sr18 3.372443 1_555
Al9 Sr24 3.397344 1_555
Al9 Sr35 3.501335 1_554
Al9 Sr9 3.580382 1_555
Al9 Sr6 3.614896 1_555
Al10 Al6 2.774351 1_555
Al10 Al5 2.774351 1_555
Al10 Sr0 3.203543 1_555
Al10 Sr16 3.372443 1_555
Al10 Sr31 3.397344 1_555
Al10 Sr33 3.501335 1_455
Al10 Sr8 3.580382 1_555
Al10 Sr5 3.614896 1_555
Al11 Al4 2.774351 1_555
Al11 Sr2 3.203543 1_555
Al11 Sr14 3.372443 1_555
Al11 Sr29 3.397344 1_555
Al11 Sr34 3.501335 1_545
Al11 Sr10 3.580382 1_555
Al11 Sr4 3.614896 1_555
Al12 Al14 2.694741 1_555
Al12 Al13 2.694741 1_555
Al12 Sr26 3.351828 1_555
Al12 Sr15 3.405461 1_554
Al12 Sr25 3.470577 1_555
Al12 Sr11 3.536312 1_655
Al12 Sr4 3.574323 1_555
Al12 Sr13 3.611613 1_545
Al12 Sr19 3.664447 1_655
Al13 Al14 2.694741 1_555
Al13 Sr24 3.351828 1_555
Al13 Sr19 3.405461 1_655
Al13 Sr26 3.470577 1_555
Al13 Sr9 3.536312 1_555
Al13 Sr4 3.574323 1_555
Al13 Sr14 3.611613 1_555
Al13 Sr23 3.664447 1_555
Al14 Sr25 3.351828 1_555
Al14 Sr23 3.405461 1_555
Al14 Sr24 3.470577 1_555
Al14 Sr10 3.536312 1_554
Al14 Sr4 3.574323 1_555
Al14 Sr12 3.611613 1_555
Al14 Sr15 3.664447 1_554
Al15 Al17 2.694741 1_555
Al15 Al16 2.694741 1_555
Al15 Sr29 3.351828 1_555
Al15 Sr12 3.405461 1_556
Al15 Sr28 3.470577 1_555
Al15 Sr10 3.536312 1_555
Al15 Sr5 3.574323 1_555
Al15 Sr16 3.611613 1_555
Al15 Sr22 3.664447 1_555
Al16 Al17 2.694741 1_555
Al16 Sr27 3.351828 1_555
Al16 Sr22 3.405461 1_555
Al16 Sr29 3.470577 1_555
Al16 Sr8 3.536312 1_545
Al16 Sr5 3.574323 1_555
Al16 Sr17 3.611613 1_555
Al16 Sr20 3.664447 1_545
Al17 Sr28 3.351828 1_555
Al17 Sr20 3.405461 1_545
Al17 Sr27 3.470577 1_555
Al17 Sr11 3.536312 1_556
Al17 Sr5 3.574323 1_555
Al17 Sr15 3.611613 1_455
Al17 Sr12 3.664447 1_556
Al18 Al19 2.694741 1_555
Al18 Al20 2.694741 1_555
Al18 Sr32 3.351828 1_555
Al18 Sr21 3.405461 1_555
Al18 Sr31 3.470577 1_555
Al18 Sr9 3.536312 1_455
Al18 Sr6 3.574323 1_555
Al18 Sr19 3.611613 1_555
Al18 Sr13 3.664447 1_455
Al19 Al20 2.694741 1_555
Al19 Sr30 3.351828 1_555
Al19 Sr13 3.405461 1_455
Al19 Sr32 3.470577 1_555
Al19 Sr11 3.536312 1_565
Al19 Sr6 3.574323 1_555
Al19 Sr20 3.611613 1_554
Al19 Sr17 3.664447 1_565
Al20 Sr31 3.351828 1_555
Al20 Sr17 3.405461 1_565
Al20 Sr30 3.470577 1_555
Al20 Sr8 3.536312 1_555
Al20 Sr6 3.574323 1_555
Al20 Sr18 3.611613 1_555
Al20 Sr21 3.664447 1_555
Al21 Al23 2.694741 1_555
Al21 Al22 2.694741 1_555
Al21 Sr35 3.351828 1_555
Al21 Sr18 3.405461 1_555
Al21 Sr34 3.470577 1_555
Al21 Sr8 3.536312 1_555
Al21 Sr7 3.574323 1_555
Al21 Sr22 3.611613 1_565
Al21 Sr16 3.664447 1_555
Al22 Al23 2.694741 1_555
Al22 Sr33 3.351828 1_555
Al22 Sr16 3.405461 1_555
Al22 Sr35 3.470577 1_555
Al22 Sr10 3.536312 1_555
Al22 Sr7 3.574323 1_555
Al22 Sr23 3.611613 1_556
Al22 Sr14 3.664447 1_555
Al23 Sr34 3.351828 1_555
Al23 Sr14 3.405461 1_555
Al23 Sr33 3.470577 1_555
Al23 Sr9 3.536312 1_555
Al23 Sr7 3.574323 1_555
Al23 Sr21 3.611613 1_655
Al23 Sr18 3.664447 1_555
