# generated using pymatgen
data_SiBH3CNCl3
_symmetry_space_group_name_H-M   'P 1'
_cell_length_a   11.24634288
_cell_length_b   11.24634288
_cell_length_c   11.24634345
_cell_angle_alpha   105.58111639
_cell_angle_beta   105.58111639
_cell_angle_gamma   105.58111717
_symmetry_Int_Tables_number   1
_chemical_formula_structural   SiBH3CNCl3
_chemical_formula_sum   'Si6 B6 H18 C6 N6 Cl18'
_cell_volume   1227.59172520
_cell_formula_units_Z   6
loop_
 _symmetry_equiv_pos_site_id
 _symmetry_equiv_pos_as_xyz
  1  'x, y, z'
loop_
 _atom_site_type_symbol
 _atom_site_label
 _atom_site_symmetry_multiplicity
 _atom_site_fract_x
 _atom_site_fract_y
 _atom_site_fract_z
 _atom_site_occupancy
  Si  Si0  1  0.54051200  0.12129600  0.35562900  1
  Si  Si1  1  0.35562900  0.54051200  0.12129600  1
  Si  Si2  1  0.12129600  0.35562900  0.54051200  1
  Si  Si3  1  0.85562900  0.62129600  0.04051200  1
  Si  Si4  1  0.04051200  0.85562900  0.62129600  1
  Si  Si5  1  0.62129600  0.04051200  0.85562900  1
  B  B0  1  0.28365300  0.12052300  0.20689300  1
  B  B1  1  0.20689300  0.28365300  0.12052300  1
  B  B2  1  0.12052300  0.20689300  0.28365300  1
  B  B3  1  0.70689300  0.62052300  0.78365300  1
  B  B4  1  0.78365300  0.70689300  0.62052300  1
  B  B5  1  0.62052300  0.78365300  0.70689300  1
  H  H0  1  0.19608200  0.06891000  0.33971400  1
  H  H1  1  0.33971400  0.19608200  0.06891000  1
  H  H2  1  0.06891000  0.33971400  0.19608200  1
  H  H3  1  0.83971400  0.56891000  0.69608200  1
  H  H4  1  0.69608200  0.83971400  0.56891000  1
  H  H5  1  0.56891000  0.69608200  0.83971400  1
  H  H6  1  0.39966600  0.00838400  0.12603400  1
  H  H7  1  0.12603400  0.39966600  0.00838400  1
  H  H8  1  0.00838400  0.12603400  0.39966600  1
  H  H9  1  0.62603400  0.50838400  0.89966600  1
  H  H10  1  0.89966600  0.62603400  0.50838400  1
  H  H11  1  0.50838400  0.89966600  0.62603400  1
  H  H12  1  0.32960900  0.94444700  0.23016900  1
  H  H13  1  0.23016900  0.32960900  0.94444700  1
  H  H14  1  0.94444700  0.23016900  0.32960900  1
  H  H15  1  0.73016900  0.44444700  0.82960900  1
  H  H16  1  0.82960900  0.73016900  0.44444700  1
  H  H17  1  0.44444700  0.82960900  0.73016900  1
  C  C0  1  0.37741200  0.03683200  0.21694900  1
  C  C1  1  0.21694900  0.37741200  0.03683200  1
  C  C2  1  0.03683200  0.21694900  0.37741200  1
  C  C3  1  0.71694900  0.53683200  0.87741200  1
  C  C4  1  0.87741200  0.71694900  0.53683200  1
  C  C5  1  0.53683200  0.87741200  0.71694900  1
  N  N0  1  0.19854400  0.12460000  0.28181900  1
  N  N1  1  0.28181900  0.19854400  0.12460000  1
  N  N2  1  0.12460000  0.28181900  0.19854400  1
  N  N3  1  0.78181900  0.62460000  0.69854400  1
  N  N4  1  0.69854400  0.78181900  0.62460000  1
  N  N5  1  0.62460000  0.69854400  0.78181900  1
  Cl  Cl0  1  0.64906500  0.00016800  0.36434800  1
  Cl  Cl1  1  0.36434800  0.64906500  0.00016800  1
  Cl  Cl2  1  0.00016800  0.36434800  0.64906500  1
  Cl  Cl3  1  0.86434800  0.50016800  0.14906500  1
  Cl  Cl4  1  0.14906500  0.86434800  0.50016800  1
  Cl  Cl5  1  0.50016800  0.14906500  0.86434800  1
  Cl  Cl6  1  0.65552900  0.28680900  0.33811900  1
  Cl  Cl7  1  0.33811900  0.65552900  0.28680900  1
  Cl  Cl8  1  0.28680900  0.33811900  0.65552900  1
  Cl  Cl9  1  0.83811900  0.78680900  0.15552900  1
  Cl  Cl10  1  0.15552900  0.83811900  0.78680900  1
  Cl  Cl11  1  0.78680900  0.15552900  0.83811900  1
  Cl  Cl12  1  0.51845100  0.17690500  0.53552000  1
  Cl  Cl13  1  0.53552000  0.51845100  0.17690500  1
  Cl  Cl14  1  0.17690500  0.53552000  0.51845100  1
  Cl  Cl15  1  0.03552000  0.67690500  0.01845100  1
  Cl  Cl16  1  0.01845100  0.03552000  0.67690500  1
  Cl  Cl17  1  0.67690500  0.01845100  0.03552000  1
loop_
_geom_bond_atom_site_label_1
_geom_bond_atom_site_label_2
_geom_bond_distance
_geom_bond_site_symmetry_2
B0 N1 1.436178 1_555
B0 N0 1.436808 1_555
B0 C0 1.592738 1_555
B1 N2 1.436178 1_555
B1 N1 1.436808 1_555
B1 C1 1.592738 1_555
B2 N0 1.436178 1_555
B2 N2 1.436808 1_555
B2 C2 1.592738 1_555
B3 N5 1.436178 1_555
B3 N3 1.436808 1_555
B3 C3 1.592738 1_555
B4 N3 1.436178 1_555
B4 N4 1.436808 1_555
B4 C4 1.592738 1_555
B5 N4 1.436178 1_555
B5 N5 1.436808 1_555
B5 C5 1.592738 1_555
H0 N0 1.018041 1_555
H1 N1 1.018041 1_555
H2 N2 1.018041 1_555
H3 N3 1.018041 1_555
H4 N4 1.018041 1_555
H5 N5 1.018041 1_555
C0 H6 1.102351 1_555
C0 H12 1.102946 1_545
C0 Si0 1.852199 1_555
C1 H7 1.102351 1_555
C1 H13 1.102946 1_554
C1 Si1 1.852199 1_555
C2 H8 1.102351 1_555
C2 H14 1.102946 1_455
C2 Si2 1.852199 1_555
C3 H9 1.102351 1_555
C3 H15 1.102946 1_555
C3 Si3 1.852199 1_556
C4 H10 1.102351 1_555
C4 H16 1.102946 1_555
C4 Si4 1.852199 1_655
C5 H11 1.102351 1_555
C5 H17 1.102946 1_555
C5 Si5 1.852199 1_565
Cl0 Si0 2.063153 1_555
Cl1 Si1 2.063153 1_555
Cl2 Si2 2.063153 1_555
Cl3 Si3 2.063153 1_555
Cl4 Si4 2.063153 1_555
Cl5 Si5 2.063153 1_555
Cl6 Si0 2.053565 1_555
Cl7 Si1 2.053565 1_555
Cl8 Si2 2.053565 1_555
Cl9 Si3 2.053565 1_555
Cl10 Si4 2.053565 1_555
Cl11 Si5 2.053565 1_555
Cl12 Si0 2.054016 1_555
Cl13 Si1 2.054016 1_555
Cl14 Si2 2.054016 1_555
Cl15 Si3 2.054016 1_455
Cl16 Si4 2.054016 1_545
Cl17 Si5 2.054016 1_554
