# generated using pymatgen
data_SrCu
_symmetry_space_group_name_H-M   'P 1'
_cell_length_a   4.27919280
_cell_length_b   4.27919280
_cell_length_c   15.75811740
_cell_angle_alpha   90.00000000
_cell_angle_beta   90.00000000
_cell_angle_gamma   119.99998426
_symmetry_Int_Tables_number   1
_chemical_formula_structural   SrCu
_chemical_formula_sum   'Sr4 Cu4'
_cell_volume   249.89567569
_cell_formula_units_Z   4
loop_
 _symmetry_equiv_pos_site_id
 _symmetry_equiv_pos_as_xyz
  1  'x, y, z'
loop_
 _atom_site_type_symbol
 _atom_site_label
 _atom_site_symmetry_multiplicity
 _atom_site_fract_x
 _atom_site_fract_y
 _atom_site_fract_z
 _atom_site_occupancy
  Sr  Sr0  1  0.66666700  0.33333300  0.37844362  1
  Sr  Sr1  1  0.33333300  0.66666700  0.62155638  1
  Sr  Sr2  1  0.33333300  0.66666700  0.87844362  1
  Sr  Sr3  1  0.66666700  0.33333300  0.12155638  1
  Cu  Cu0  1  0.66666700  0.33333300  0.75000000  1
  Cu  Cu1  1  0.33333300  0.66666700  0.25000000  1
  Cu  Cu2  1  0.00000000  0.00000000  0.75000000  1
  Cu  Cu3  1  -0.00000000  0.00000000  0.25000000  1
loop_
_geom_bond_atom_site_label_1
_geom_bond_atom_site_label_2
_geom_bond_distance
_geom_bond_site_symmetry_2
Cu0 Cu2 2.470590 1_655
Cu0 Cu2 2.470595 1_665
Cu0 Cu2 2.470595 1_555
Cu0 Sr1 3.193825 1_655
Cu0 Sr2 3.193825 1_545
Cu0 Sr1 3.193825 1_545
Cu0 Sr2 3.193825 1_655
Cu0 Sr2 3.193830 1_555
Cu0 Sr1 3.193830 1_555
Cu1 Cu3 2.470590 1_565
Cu1 Cu3 2.470595 1_555
Cu1 Cu3 2.470595 1_665
Cu1 Sr0 3.193825 1_565
Cu1 Sr0 3.193825 1_455
Cu1 Sr3 3.193825 1_455
Cu1 Sr3 3.193825 1_565
Cu1 Sr3 3.193830 1_555
Cu1 Sr0 3.193830 1_555
Cu2 Sr2 3.193824 1_545
Cu2 Sr1 3.193824 1_545
Cu2 Sr1 3.193828 1_555
Cu2 Sr1 3.193828 1_445
Cu2 Sr2 3.193828 1_445
Cu2 Sr2 3.193828 1_555
Cu3 Sr3 3.193824 1_455
Cu3 Sr0 3.193824 1_455
Cu3 Sr0 3.193828 1_445
Cu3 Sr3 3.193828 1_445
Cu3 Sr3 3.193828 1_555
Cu3 Sr0 3.193828 1_555
