# generated using pymatgen
data_CdHgSeO6
_symmetry_space_group_name_H-M   'P 1'
_cell_length_a   6.17583316
_cell_length_b   6.93431190
_cell_length_c   6.93431190
_cell_angle_alpha   83.25195458
_cell_angle_beta   84.25441059
_cell_angle_gamma   84.25441059
_symmetry_Int_Tables_number   1
_chemical_formula_structural   CdHgSeO6
_chemical_formula_sum   'Cd2 Hg2 Se2 O12'
_cell_volume   292.24892633
_cell_formula_units_Z   2
loop_
 _symmetry_equiv_pos_site_id
 _symmetry_equiv_pos_as_xyz
  1  'x, y, z'
loop_
 _atom_site_type_symbol
 _atom_site_label
 _atom_site_symmetry_multiplicity
 _atom_site_fract_x
 _atom_site_fract_y
 _atom_site_fract_z
 _atom_site_occupancy
  Cd  Cd0  1  0.50000000  0.69786200  0.30213800  1
  Cd  Cd1  1  0.50000000  0.30213800  0.69786200  1
  Hg  Hg0  1  0.00000000  0.50000000  0.00000000  1
  Hg  Hg1  1  0.00000000  0.00000000  0.50000000  1
  Se  Se0  1  0.48825400  0.19970700  0.19970700  1
  Se  Se1  1  0.51174600  0.80029300  0.80029300  1
  O  O0  1  0.87002800  0.57689900  0.26729100  1
  O  O1  1  0.87002800  0.26729100  0.57689900  1
  O  O2  1  0.12997200  0.42310100  0.73270900  1
  O  O3  1  0.12997200  0.73270900  0.42310100  1
  O  O4  1  0.24059200  0.15577400  0.15577400  1
  O  O5  1  0.75940800  0.84422600  0.84422600  1
  O  O6  1  0.47178000  0.36428200  0.36428200  1
  O  O7  1  0.52822000  0.63571800  0.63571800  1
  O  O8  1  0.62880100  0.29559100  0.99607000  1
  O  O9  1  0.62880100  0.99607000  0.29559100  1
  O  O10  1  0.37119900  0.70440900  0.00393000  1
  O  O11  1  0.37119900  0.00393000  0.70440900  1
loop_
_geom_bond_atom_site_label_1
_geom_bond_atom_site_label_2
_geom_bond_distance
_geom_bond_site_symmetry_2
Cd0 O10 2.282747 1_555
Cd0 O9 2.282747 1_555
Cd0 O6 2.323392 1_555
Cd0 O7 2.323392 1_555
Cd0 O0 2.353194 1_555
Cd0 O3 2.353194 1_555
Cd1 O11 2.282747 1_555
Cd1 O8 2.282747 1_555
Cd1 O6 2.323392 1_555
Cd1 O7 2.323392 1_555
Cd1 O1 2.353194 1_555
Cd1 O2 2.353194 1_555
Hg0 O0 2.052491 1_455
Hg0 O2 2.052491 1_554
Hg1 O1 2.052491 1_455
Hg1 O3 2.052491 1_545
O4 Se0 1.653315 1_555
O5 Se1 1.653315 1_555
O6 Se0 1.695483 1_555
O7 Se1 1.695483 1_555
O8 Se0 1.684924 1_556
O9 Se0 1.684924 1_565
O10 Se1 1.684924 1_554
O11 Se1 1.684924 1_545
