# generated using pymatgen
data_GaFeGe
_symmetry_space_group_name_H-M   'P 1'
_cell_length_a   9.09241026
_cell_length_b   8.37987475
_cell_length_c   5.03489844
_cell_angle_alpha   81.20613032
_cell_angle_beta   65.61613953
_cell_angle_gamma   33.17773015
_symmetry_Int_Tables_number   1
_chemical_formula_structural   GaFeGe
_chemical_formula_sum   'Ga4 Fe4 Ge4'
_cell_volume   176.34557031
_cell_formula_units_Z   4
loop_
 _symmetry_equiv_pos_site_id
 _symmetry_equiv_pos_as_xyz
  1  'x, y, z'
loop_
 _atom_site_type_symbol
 _atom_site_label
 _atom_site_symmetry_multiplicity
 _atom_site_fract_x
 _atom_site_fract_y
 _atom_site_fract_z
 _atom_site_occupancy
  Ga  Ga0  1  0.08532600  0.08532600  0.91467400  1
  Ga  Ga1  1  0.91467400  0.91467400  0.08532600  1
  Ga  Ga2  1  0.16467400  0.16467400  0.33532600  1
  Ga  Ga3  1  0.33532600  0.33532600  0.16467400  1
  Fe  Fe0  1  0.37176400  0.37176400  0.62823600  1
  Fe  Fe1  1  0.62823600  0.62823600  0.37176400  1
  Fe  Fe2  1  0.87823600  0.87823600  0.62176400  1
  Fe  Fe3  1  0.62176400  0.62176400  0.87823600  1
  Ge  Ge0  1  0.33770500  0.66229500  0.33770500  1
  Ge  Ge1  1  0.66229500  0.33770500  0.66229500  1
  Ge  Ge2  1  0.91229500  0.58770500  0.91229500  1
  Ge  Ge3  1  0.58770500  0.91229500  0.58770500  1
loop_
_geom_bond_atom_site_label_1
_geom_bond_atom_site_label_2
_geom_bond_distance
_geom_bond_site_symmetry_2
Ga0 Ga1 2.725564 1_446
Ga0 Ga2 2.818441 1_556
Ga0 Ga2 2.818441 1_555
Ga0 Ge2 3.018519 1_455
Ga0 Ge3 3.018519 1_545
Ga1 Ga3 2.818441 1_655
Ga1 Ga3 2.818441 1_565
Ga1 Ge3 3.018519 1_555
Ga1 Ge2 3.018519 1_554
Ga2 Ga3 2.725564 1_555
Ga2 Ge0 3.018519 1_545
Ga2 Ge1 3.018519 1_455
Ga3 Ge1 3.018519 1_554
Ga3 Ge0 3.018519 1_555
Fe0 Ge3 2.444617 1_545
Fe0 Ge2 2.444617 1_455
Fe0 Ge1 2.487179 1_555
Fe0 Ge0 2.487179 1_555
Fe0 Fe2 2.519570 1_545
Fe0 Fe2 2.519570 1_455
Fe0 Ga3 2.583842 1_556
Fe0 Ga3 2.583842 1_555
Fe0 Ga1 2.630585 1_456
Fe0 Ga1 2.630585 1_545
Fe1 Ge3 2.444617 1_555
Fe1 Ge2 2.444617 1_554
Fe1 Ge0 2.487179 1_555
Fe1 Ge1 2.487179 1_555
Fe1 Fe3 2.519570 1_555
Fe1 Fe3 2.519570 1_554
Fe1 Ga2 2.583842 1_655
Fe1 Ga2 2.583842 1_565
Fe1 Ga0 2.630585 1_654
Fe1 Ga0 2.630585 1_565
Fe2 Ge1 2.444617 1_565
Fe2 Ge0 2.444617 1_655
Fe2 Ge2 2.487179 1_555
Fe2 Ge3 2.487179 1_555
Fe2 Ga1 2.583842 1_555
Fe2 Ga1 2.583842 1_556
Fe2 Ga3 2.630585 1_566
Fe2 Ga3 2.630585 1_655
Fe3 Ge1 2.444617 1_555
Fe3 Ge0 2.444617 1_556
Fe3 Ge2 2.487179 1_555
Fe3 Ge3 2.487179 1_555
Fe3 Ga0 2.583842 1_565
Fe3 Ga0 2.583842 1_655
Fe3 Ga2 2.630585 1_566
Fe3 Ga2 2.630585 1_655
