# generated using pymatgen
data_Na3Zn3P3O16
_symmetry_space_group_name_H-M   'P 1'
_cell_length_a   9.05012945
_cell_length_b   9.05012945
_cell_length_c   9.05012957
_cell_angle_alpha   90.35901401
_cell_angle_beta   90.35901401
_cell_angle_gamma   90.35901872
_symmetry_Int_Tables_number   1
_chemical_formula_structural   Na3Zn3P3O16
_chemical_formula_sum   'Na6 Zn6 P6 O32'
_cell_volume   741.20560474
_cell_formula_units_Z   2
loop_
 _symmetry_equiv_pos_site_id
 _symmetry_equiv_pos_as_xyz
  1  'x, y, z'
loop_
 _atom_site_type_symbol
 _atom_site_label
 _atom_site_symmetry_multiplicity
 _atom_site_fract_x
 _atom_site_fract_y
 _atom_site_fract_z
 _atom_site_occupancy
  Na  Na0  1  0.32909400  0.66578400  0.33676000  1
  Na  Na1  1  0.66578400  0.33676000  0.32909400  1
  Na  Na2  1  0.33676000  0.32909400  0.66578400  1
  Na  Na3  1  0.16578400  0.82909400  0.83676000  1
  Na  Na4  1  0.83676000  0.16578400  0.82909400  1
  Na  Na5  1  0.82909400  0.83676000  0.16578400  1
  Zn  Zn0  1  0.98963900  0.75325800  0.50329900  1
  Zn  Zn1  1  0.50329900  0.98963900  0.75325800  1
  Zn  Zn2  1  0.75325800  0.50329900  0.98963900  1
  Zn  Zn3  1  0.48963900  0.00329900  0.25325800  1
  Zn  Zn4  1  0.25325800  0.48963900  0.00329900  1
  Zn  Zn5  1  0.00329900  0.25325800  0.48963900  1
  P  P0  1  0.49801200  0.74837500  0.00421500  1
  P  P1  1  0.00421500  0.49801200  0.74837500  1
  P  P2  1  0.74837500  0.00421500  0.49801200  1
  P  P3  1  0.99801200  0.50421500  0.24837500  1
  P  P4  1  0.24837500  0.99801200  0.50421500  1
  P  P5  1  0.50421500  0.24837500  0.99801200  1
  O  O0  1  0.93786400  0.93786400  0.93786400  1
  O  O1  1  0.07875600  0.91988700  0.08174600  1
  O  O2  1  0.91988700  0.08174600  0.07875600  1
  O  O3  1  0.08174600  0.07875600  0.91988700  1
  O  O4  1  0.41988700  0.57875600  0.58174600  1
  O  O5  1  0.58174600  0.41988700  0.57875600  1
  O  O6  1  0.43786400  0.43786400  0.43786400  1
  O  O7  1  0.57875600  0.58174600  0.41988700  1
  O  O8  1  0.62063100  0.65862800  0.92983900  1
  O  O9  1  0.92983900  0.62063100  0.65862800  1
  O  O10  1  0.65862800  0.92983900  0.62063100  1
  O  O11  1  0.37928700  0.65192000  0.08205900  1
  O  O12  1  0.07262000  0.62411300  0.34922800  1
  O  O13  1  0.34140900  0.91819900  0.38418000  1
  O  O14  1  0.62411300  0.34922800  0.07262000  1
  O  O15  1  0.91819900  0.38418000  0.34140900  1
  O  O16  1  0.65192000  0.08205900  0.37928700  1
  O  O17  1  0.38418000  0.34140900  0.91819900  1
  O  O18  1  0.08205900  0.37928700  0.65192000  1
  O  O19  1  0.34922800  0.07262000  0.62411300  1
  O  O20  1  0.12411300  0.57262000  0.84922800  1
  O  O21  1  0.41819900  0.84140900  0.88418000  1
  O  O22  1  0.15192000  0.87928700  0.58205900  1
  O  O23  1  0.88418000  0.41819900  0.84140900  1
  O  O24  1  0.58205900  0.15192000  0.87928700  1
  O  O25  1  0.84922800  0.12411300  0.57262000  1
  O  O26  1  0.12063100  0.42983900  0.15862800  1
  O  O27  1  0.42983900  0.15862800  0.12063100  1
  O  O28  1  0.15862800  0.12063100  0.42983900  1
  O  O29  1  0.87928700  0.58205900  0.15192000  1
  O  O30  1  0.57262000  0.84922800  0.12411300  1
  O  O31  1  0.84140900  0.88418000  0.41819900  1
loop_
_geom_bond_atom_site_label_1
_geom_bond_atom_site_label_2
_geom_bond_distance
_geom_bond_site_symmetry_2
Na0 O13 2.323565 1_555
Na0 O12 2.352746 1_555
Na0 O11 2.354927 1_555
Na0 O6 2.469576 1_555
Na0 O4 2.493682 1_555
Na0 O7 2.501407 1_555
Na1 O15 2.323565 1_555
Na1 O14 2.352746 1_555
Na1 O16 2.354927 1_555
Na1 O6 2.469576 1_555
Na1 O7 2.493682 1_555
Na1 O5 2.501407 1_555
Na2 O17 2.323565 1_555
Na2 O19 2.352746 1_555
Na2 O18 2.354927 1_555
Na2 O6 2.469576 1_555
Na2 O5 2.493682 1_555
Na2 O4 2.501407 1_555
Na3 O21 2.323565 1_555
Na3 O20 2.352746 1_555
Na3 O22 2.354927 1_555
Na3 O0 2.469576 1_455
Na3 O1 2.493682 1_556
Na3 O3 2.501407 1_565
Na4 O23 2.323565 1_555
Na4 O25 2.352746 1_555
Na4 O24 2.354927 1_555
Na4 O0 2.469576 1_545
Na4 O3 2.493682 1_655
Na4 O2 2.501407 1_556
Na5 O31 2.323565 1_555
Na5 O30 2.352746 1_555
Na5 O29 2.354927 1_555
Na5 O0 2.469576 1_554
Na5 O2 2.493682 1_565
Na5 O1 2.501407 1_655
O0 O3 1.825478 1_665
O0 O2 1.825478 1_566
O0 O1 1.825478 1_656
O4 O6 1.825478 1_555
O5 O6 1.825478 1_555
O6 O7 1.825478 1_555
O8 P0 1.535599 1_556
O8 Zn2 1.931906 1_555
O9 P1 1.535599 1_655
O9 Zn0 1.931906 1_555
O10 P2 1.535599 1_565
O10 Zn1 1.931906 1_555
O11 P0 1.555077 1_555
O11 Zn4 1.980318 1_555
O12 P3 1.561122 1_455
O12 Zn0 1.969257 1_455
O13 P4 1.555643 1_555
O13 Zn3 1.953224 1_565
O14 P5 1.561122 1_554
O14 Zn2 1.969257 1_554
O15 P3 1.555643 1_555
O15 Zn5 1.953224 1_655
O16 P2 1.555077 1_555
O16 Zn3 1.980318 1_555
O17 P5 1.555643 1_555
O17 Zn4 1.953224 1_556
O18 P1 1.555077 1_555
O18 Zn5 1.980318 1_555
O19 P4 1.561122 1_545
O19 Zn1 1.969257 1_545
O20 P1 1.561122 1_555
O20 Zn4 1.969257 1_556
O21 P0 1.555643 1_556
O21 Zn1 1.953224 1_555
O22 P4 1.555077 1_555
O22 Zn0 1.980318 1_455
O23 P1 1.555643 1_655
O23 Zn2 1.953224 1_555
O24 P5 1.555077 1_555
O24 Zn1 1.980318 1_545
O25 P2 1.561122 1_555
O25 Zn5 1.969257 1_655
O26 P3 1.535599 1_455
O26 Zn4 1.931906 1_555
O27 P5 1.535599 1_554
O27 Zn3 1.931906 1_555
O28 P4 1.535599 1_545
O28 Zn5 1.931906 1_555
O29 P3 1.555077 1_555
O29 Zn2 1.980318 1_554
O30 P0 1.561122 1_555
O30 Zn3 1.969257 1_565
O31 P2 1.555643 1_565
O31 Zn0 1.953224 1_555
