# generated using pymatgen
data_ZnBiSbO5
_symmetry_space_group_name_H-M   'P 1'
_cell_length_a   5.26863700
_cell_length_b   10.60573200
_cell_length_c   16.32214200
_cell_angle_alpha   90.00000000
_cell_angle_beta   90.00000000
_cell_angle_gamma   90.00000000
_symmetry_Int_Tables_number   1
_chemical_formula_structural   ZnBiSbO5
_chemical_formula_sum   'Zn8 Bi8 Sb8 O40'
_cell_volume   912.04460323
_cell_formula_units_Z   8
loop_
 _symmetry_equiv_pos_site_id
 _symmetry_equiv_pos_as_xyz
  1  'x, y, z'
loop_
 _atom_site_type_symbol
 _atom_site_label
 _atom_site_symmetry_multiplicity
 _atom_site_fract_x
 _atom_site_fract_y
 _atom_site_fract_z
 _atom_site_occupancy
  Zn  Zn0  1  0.54831000  0.40275500  0.56573500  1
  Zn  Zn1  1  0.04831000  0.09724500  0.56573500  1
  Zn  Zn2  1  0.04831000  0.59724500  0.93426500  1
  Zn  Zn3  1  0.95169000  0.40275500  0.06573500  1
  Zn  Zn4  1  0.45169000  0.09724500  0.06573500  1
  Zn  Zn5  1  0.95169000  0.90275500  0.43426500  1
  Zn  Zn6  1  0.45169000  0.59724500  0.43426500  1
  Zn  Zn7  1  0.54831000  0.90275500  0.93426500  1
  Bi  Bi0  1  0.04990100  0.85666200  0.78063900  1
  Bi  Bi1  1  0.95009900  0.14333800  0.21936100  1
  Bi  Bi2  1  0.45009900  0.35666300  0.21936100  1
  Bi  Bi3  1  0.95009900  0.64333800  0.28063900  1
  Bi  Bi4  1  0.54990100  0.14333800  0.71936100  1
  Bi  Bi5  1  0.54990100  0.64333800  0.78063900  1
  Bi  Bi6  1  0.45009900  0.85666200  0.28063900  1
  Bi  Bi7  1  0.04990100  0.35666300  0.71936100  1
  Sb  Sb0  1  0.97889900  0.36295500  0.40981200  1
  Sb  Sb1  1  0.52110100  0.86295500  0.59018800  1
  Sb  Sb2  1  0.02110100  0.63704500  0.59018800  1
  Sb  Sb3  1  0.47889900  0.13704500  0.40981200  1
  Sb  Sb4  1  0.02110100  0.13704500  0.90981200  1
  Sb  Sb5  1  0.97889900  0.86295500  0.09018800  1
  Sb  Sb6  1  0.52110100  0.36295500  0.90981200  1
  Sb  Sb7  1  0.47889900  0.63704500  0.09018800  1
  O  O0  1  0.83740000  0.32175300  0.30240100  1
  O  O1  1  0.26123600  0.02983400  0.96651100  1
  O  O2  1  0.23876400  0.52983400  0.03348900  1
  O  O3  1  0.37642900  0.79030600  0.85533400  1
  O  O4  1  0.12357100  0.29030600  0.14466600  1
  O  O5  1  0.83740000  0.82175300  0.19759900  1
  O  O6  1  0.12357100  0.79030600  0.35533400  1
  O  O7  1  0.66260000  0.82175300  0.69759900  1
  O  O8  1  0.26123600  0.52983400  0.53348900  1
  O  O9  1  0.16260000  0.67824700  0.69759900  1
  O  O10  1  0.66260000  0.32175300  0.80240100  1
  O  O11  1  0.78833300  0.21081100  0.45886000  1
  O  O12  1  0.76123600  0.97016600  0.53348900  1
  O  O13  1  0.62357100  0.70969400  0.35533400  1
  O  O14  1  0.18350400  0.00251100  0.13825900  1
  O  O15  1  0.76123600  0.47016600  0.96651100  1
  O  O16  1  0.16260000  0.17824700  0.80240100  1
  O  O17  1  0.87642900  0.20969400  0.64466600  1
  O  O18  1  0.28833300  0.78918900  0.04114000  1
  O  O19  1  0.23876400  0.02983400  0.46651100  1
  O  O20  1  0.21166700  0.78918900  0.54114000  1
  O  O21  1  0.81649600  0.99748900  0.86174100  1
  O  O22  1  0.62357100  0.20969400  0.14466600  1
  O  O23  1  0.68350400  0.99748900  0.36174100  1
  O  O24  1  0.21166700  0.28918900  0.95886000  1
  O  O25  1  0.28833300  0.28918900  0.45886000  1
  O  O26  1  0.73876400  0.47016600  0.46651100  1
  O  O27  1  0.73876400  0.97016600  0.03348900  1
  O  O28  1  0.68350400  0.49748900  0.13825900  1
  O  O29  1  0.71166700  0.71081100  0.54114000  1
  O  O30  1  0.71166700  0.21081100  0.95886000  1
  O  O31  1  0.78833300  0.71081100  0.04114000  1
  O  O32  1  0.81649600  0.49748900  0.63825900  1
  O  O33  1  0.87642900  0.70969400  0.85533400  1
  O  O34  1  0.37642900  0.29030600  0.64466600  1
  O  O35  1  0.18350400  0.50251100  0.36174100  1
  O  O36  1  0.31649600  0.50251100  0.86174100  1
  O  O37  1  0.33740000  0.17824700  0.30240100  1
  O  O38  1  0.31649600  0.00251100  0.63825900  1
  O  O39  1  0.33740000  0.67824700  0.19759900  1
loop_
_geom_bond_atom_site_label_1
_geom_bond_atom_site_label_2
_geom_bond_distance
_geom_bond_site_symmetry_2
Bi0 O33 2.179745 1_455
Bi0 O3 2.222905 1_555
Bi0 O21 2.344211 1_455
Bi0 O9 2.402114 1_555
Bi0 O7 2.477498 1_455
Bi1 O4 2.179745 1_655
Bi1 O22 2.222905 1_555
Bi1 O14 2.344211 1_655
Bi1 O0 2.402114 1_555
Bi1 O37 2.477498 1_655
Bi2 O22 2.179752 1_555
Bi2 O4 2.222908 1_555
Bi2 O28 2.344204 1_555
Bi2 O37 2.402122 1_555
Bi2 O0 2.477499 1_555
Bi3 O6 2.179745 1_655
Bi3 O13 2.222905 1_555
Bi3 O35 2.344211 1_655
Bi3 O5 2.402114 1_555
Bi3 O39 2.477498 1_655
Bi4 O34 2.179745 1_555
Bi4 O17 2.222905 1_555
Bi4 O38 2.344211 1_555
Bi4 O10 2.402114 1_555
Bi4 O16 2.477498 1_555
Bi5 O3 2.179745 1_555
Bi5 O33 2.222905 1_555
Bi5 O36 2.344211 1_555
Bi5 O7 2.402114 1_555
Bi5 O9 2.477498 1_555
Bi6 O13 2.179745 1_555
Bi6 O6 2.222905 1_555
Bi6 O23 2.344211 1_555
Bi6 O39 2.402114 1_555
Bi6 O5 2.477498 1_555
Bi7 O17 2.179752 1_455
Bi7 O34 2.222908 1_555
Bi7 O32 2.344204 1_455
Bi7 O16 2.402122 1_555
Bi7 O10 2.477499 1_455
O0 Sb0 1.954574 1_555
O1 Sb4 1.936500 1_555
O1 Zn4 2.034934 1_556
O1 Zn7 2.093110 1_545
O2 Sb7 1.936500 1_555
O2 Zn2 2.034934 1_554
O2 Zn3 2.093110 1_455
O3 Zn7 1.975387 1_555
O4 Zn3 1.975387 1_455
O5 Sb5 1.954574 1_555
O6 Zn5 1.975387 1_455
O7 Sb1 1.954574 1_555
O8 Sb2 1.936500 1_555
O8 Zn6 2.034934 1_555
O8 Zn0 2.093110 1_555
O9 Sb2 1.954574 1_555
O10 Sb6 1.954574 1_555
O11 Sb3 1.977583 1_555
O11 Sb0 2.062201 1_555
O11 Zn1 2.523862 1_655
O12 Sb1 1.936500 1_555
O12 Zn5 2.034934 1_555
O12 Zn1 2.093110 1_665
O13 Zn6 1.975387 1_555
O14 Sb5 1.992077 1_445
O14 Zn4 2.099339 1_555
O15 Sb6 1.936500 1_555
O15 Zn3 2.034934 1_556
O15 Zn2 2.093110 1_655
O16 Sb4 1.954574 1_555
O17 Zn1 1.975387 1_655
O18 Sb5 1.977583 1_455
O18 Sb7 2.062201 1_555
O18 Zn7 2.523862 1_554
O19 Sb3 1.936500 1_555
O19 Zn1 2.034934 1_555
O19 Zn5 2.093110 1_445
O20 Sb1 1.977583 1_555
O20 Sb2 2.062201 1_555
O20 Zn5 2.523862 1_455
O21 Sb4 1.992077 1_665
O21 Zn7 2.099339 1_555
O22 Zn4 1.975387 1_555
O23 Sb3 1.992077 1_565
O23 Zn5 2.099339 1_555
O24 Sb6 1.977583 1_555
O24 Sb4 2.062201 1_555
O24 Zn3 2.523862 1_456
O25 Sb0 1.977583 1_455
O25 Sb3 2.062201 1_555
O25 Zn0 2.523862 1_555
O26 Sb0 1.936500 1_555
O26 Zn0 2.034934 1_555
O26 Zn6 2.093110 1_555
O27 Sb5 1.936500 1_555
O27 Zn7 2.034934 1_554
O27 Zn4 2.093110 1_565
O28 Sb7 1.992077 1_555
O28 Zn3 2.099339 1_555
O29 Sb2 1.977583 1_655
O29 Sb1 2.062201 1_555
O29 Zn6 2.523862 1_555
O30 Sb4 1.977583 1_655
O30 Sb6 2.062201 1_555
O30 Zn4 2.523862 1_556
O31 Sb7 1.977583 1_555
O31 Sb5 2.062201 1_555
O31 Zn2 2.523862 1_654
O32 Sb2 1.992077 1_655
O32 Zn0 2.099339 1_555
O33 Zn2 1.975387 1_655
O34 Zn0 1.975387 1_555
O35 Sb0 1.992077 1_455
O35 Zn6 2.099339 1_555
O36 Sb6 1.992077 1_555
O36 Zn2 2.099339 1_555
O37 Sb3 1.954574 1_555
O38 Sb1 1.992077 1_545
O38 Zn1 2.099339 1_555
O39 Sb7 1.954574 1_555
