# generated using pymatgen
data_TcC5IO5
_symmetry_space_group_name_H-M   'P 1'
_cell_length_a   6.86936561
_cell_length_b   6.86936561
_cell_length_c   11.02651900
_cell_angle_alpha   90.00000000
_cell_angle_beta   90.00000000
_cell_angle_gamma   111.40760176
_symmetry_Int_Tables_number   1
_chemical_formula_structural   TcC5IO5
_chemical_formula_sum   'Tc2 C10 I2 O10'
_cell_volume   484.42307809
_cell_formula_units_Z   2
loop_
 _symmetry_equiv_pos_site_id
 _symmetry_equiv_pos_as_xyz
  1  'x, y, z'
loop_
 _atom_site_type_symbol
 _atom_site_label
 _atom_site_symmetry_multiplicity
 _atom_site_fract_x
 _atom_site_fract_y
 _atom_site_fract_z
 _atom_site_occupancy
  Tc  Tc0  1  0.35775400  0.64224600  0.25000000  1
  Tc  Tc1  1  0.64224600  0.35775400  0.75000000  1
  C  C0  1  0.18687500  0.81312500  0.25000000  1
  C  C1  1  0.81312500  0.18687500  0.75000000  1
  C  C2  1  0.18086600  0.44739300  0.37692000  1
  C  C3  1  0.44739300  0.18086600  0.62308000  1
  C  C4  1  0.18086600  0.44739300  0.12308000  1
  C  C5  1  0.44739300  0.18086600  0.87692000  1
  C  C6  1  0.81913400  0.55260700  0.62308000  1
  C  C7  1  0.55260700  0.81913400  0.37692000  1
  C  C8  1  0.81913400  0.55260700  0.87692000  1
  C  C9  1  0.55260700  0.81913400  0.12308000  1
  I  I0  1  0.60949300  0.39050700  0.25000000  1
  I  I1  1  0.39050700  0.60949300  0.75000000  1
  O  O0  1  0.08466500  0.91533500  0.25000000  1
  O  O1  1  0.91533500  0.08466500  0.75000000  1
  O  O2  1  0.07999800  0.33117200  0.44805400  1
  O  O3  1  0.33117200  0.07999800  0.55194600  1
  O  O4  1  0.07999800  0.33117200  0.05194600  1
  O  O5  1  0.33117200  0.07999800  0.94805400  1
  O  O6  1  0.92000200  0.66882800  0.55194600  1
  O  O7  1  0.66882800  0.92000200  0.44805400  1
  O  O8  1  0.92000200  0.66882800  0.94805400  1
  O  O9  1  0.66882800  0.92000200  0.05194600  1
loop_
_geom_bond_atom_site_label_1
_geom_bond_atom_site_label_2
_geom_bond_distance
_geom_bond_site_symmetry_2
C0 O0 1.160089 1_555
C0 Tc0 1.939486 1_555
C1 O1 1.160089 1_555
C1 Tc1 1.939486 1_555
C2 O2 1.152775 1_555
C2 Tc0 2.009819 1_555
C3 O3 1.152775 1_555
C3 Tc1 2.009819 1_555
C4 O4 1.152775 1_555
C4 Tc0 2.009819 1_555
C5 O5 1.152775 1_555
C5 Tc1 2.009819 1_555
C6 O6 1.152775 1_555
C6 Tc1 2.009819 1_555
C7 O7 1.152775 1_555
C7 Tc0 2.009819 1_555
C8 O8 1.152775 1_555
C8 Tc1 2.009819 1_555
C9 O9 1.152775 1_555
C9 Tc0 2.009819 1_555
I0 Tc0 2.857252 1_555
I1 Tc1 2.857252 1_555
