# generated using pymatgen
data_KCd(BO2)3
_symmetry_space_group_name_H-M   'P 1'
_cell_length_a   7.56052219
_cell_length_b   7.56052219
_cell_length_c   12.41404401
_cell_angle_alpha   82.29743996
_cell_angle_beta   82.29743996
_cell_angle_gamma   123.18665558
_symmetry_Int_Tables_number   1
_chemical_formula_structural   KCd(BO2)3
_chemical_formula_sum   'K4 Cd4 B12 O24'
_cell_volume   569.80625252
_cell_formula_units_Z   4
loop_
 _symmetry_equiv_pos_site_id
 _symmetry_equiv_pos_as_xyz
  1  'x, y, z'
loop_
 _atom_site_type_symbol
 _atom_site_label
 _atom_site_symmetry_multiplicity
 _atom_site_fract_x
 _atom_site_fract_y
 _atom_site_fract_z
 _atom_site_occupancy
  K  K0  1  0.16538433  0.68051023  0.13192295  1
  K  K1  1  0.31948977  0.83461567  0.36807705  1
  K  K2  1  0.83461567  0.31948977  0.86807705  1
  K  K3  1  0.68051023  0.16538433  0.63192295  1
  Cd  Cd0  1  0.52102494  0.37264077  0.12230371  1
  Cd  Cd1  1  0.62735923  0.47897506  0.37769629  1
  Cd  Cd2  1  0.47897506  0.62735923  0.87769629  1
  Cd  Cd3  1  0.37264077  0.52102494  0.62230371  1
  B  B0  1  0.68247738  0.06849930  0.12630083  1
  B  B1  1  0.93150070  0.31752262  0.37369917  1
  B  B2  1  0.31752262  0.93150070  0.87369917  1
  B  B3  1  0.06849930  0.68247838  0.62630083  1
  B  B4  1  0.81719311  0.83987817  0.15689563  1
  B  B5  1  0.16012183  0.18280689  0.34310437  1
  B  B6  1  0.18280689  0.16012183  0.84310437  1
  B  B7  1  0.83987817  0.81719311  0.65689563  1
  B  B8  1  0.07673166  0.23579771  0.08777251  1
  B  B9  1  0.76420229  0.92326834  0.41222749  1
  B  B10  1  0.92326834  0.76420229  0.91222749  1
  B  B11  1  0.23579771  0.07673166  0.58777251  1
  O  O0  1  0.28066872  0.41541174  0.06073691  1
  O  O1  1  0.58458826  0.71933128  0.43926309  1
  O  O2  1  0.71933128  0.58458826  0.93926309  1
  O  O3  1  0.41541174  0.28066872  0.56073691  1
  O  O4  1  0.64747319  0.86638994  0.16436156  1
  O  O5  1  0.13361006  0.35252681  0.33563844  1
  O  O6  1  0.35252681  0.13361006  0.83563844  1
  O  O7  1  0.86638994  0.64747319  0.66436156  1
  O  O8  1  0.90091503  0.25205656  0.08769864  1
  O  O9  1  0.74794344  0.09908497  0.41230136  1
  O  O10  1  0.09908497  0.74794344  0.91230136  1
  O  O11  1  0.25205656  0.90091503  0.58769864  1
  O  O12  1  0.77938151  0.64323998  0.18404639  1
  O  O13  1  0.35676002  0.22061849  0.31595361  1
  O  O14  1  0.22061849  0.35676002  0.81595361  1
  O  O15  1  0.64323998  0.77938151  0.68404639  1
  O  O16  1  0.03099604  0.02853231  0.12022067  1
  O  O17  1  0.97146769  0.96900396  0.37977933  1
  O  O18  1  0.96900396  0.97146769  0.87977933  1
  O  O19  1  0.02853231  0.03099604  0.62022067  1
  O  O20  1  0.51514457  0.08129261  0.12730212  1
  O  O21  1  0.91870739  0.48485543  0.37269788  1
  O  O22  1  0.48485543  0.91870739  0.87269788  1
  O  O23  1  0.08129261  0.51514457  0.62730212  1
loop_
_geom_bond_atom_site_label_1
_geom_bond_atom_site_label_2
_geom_bond_distance
_geom_bond_site_symmetry_2
K0 O20 2.705274 1_565
K0 O12 2.749494 1_455
K0 O0 2.781827 1_555
K0 O10 2.866688 1_554
K0 O8 2.910845 1_455
K0 O21 2.983421 1_455
K1 O21 2.705274 1_455
K1 O13 2.749494 1_565
K1 O1 2.781827 1_555
K1 O11 2.866688 1_555
K1 O9 2.910845 1_565
K1 O20 2.983421 1_565
K2 O22 2.705274 1_545
K2 O14 2.749494 1_655
K2 O2 2.781827 1_555
K2 O8 2.866688 1_556
K2 O10 2.910845 1_655
K2 O23 2.983421 1_655
K3 O23 2.705274 1_655
K3 O15 2.749494 1_545
K3 O3 2.781827 1_555
K3 O9 2.866688 1_555
K3 O11 2.910845 1_545
K3 O22 2.983421 1_545
Cd0 O20 2.171019 1_555
Cd0 O0 2.222691 1_555
Cd0 O12 2.243963 1_555
Cd0 O2 2.336557 1_554
Cd0 O13 2.353487 1_555
Cd1 O21 2.171019 1_555
Cd1 O1 2.222691 1_555
Cd1 O13 2.243963 1_555
Cd1 O3 2.336557 1_555
Cd1 O12 2.353487 1_555
Cd2 O22 2.171019 1_555
Cd2 O2 2.222691 1_555
Cd2 O14 2.243963 1_555
Cd2 O0 2.336557 1_556
Cd2 O15 2.353487 1_555
Cd3 O23 2.171019 1_555
Cd3 O3 2.222691 1_555
Cd3 O15 2.243963 1_555
Cd3 O1 2.336557 1_555
Cd3 O14 2.353487 1_555
B0 O20 1.319134 1_555
B0 O4 1.399451 1_545
B0 O8 1.408394 1_555
B1 O21 1.319134 1_555
B1 O5 1.399451 1_655
B1 O9 1.408394 1_555
B2 O22 1.319134 1_555
B2 O6 1.399451 1_565
B2 O10 1.408394 1_555
B3 O23 1.319142 1_555
B3 O7 1.399447 1_455
B3 O11 1.408390 1_555
B4 O12 1.334221 1_555
B4 O4 1.396411 1_555
B4 O16 1.399734 1_665
B5 O13 1.334221 1_555
B5 O5 1.396411 1_555
B5 O17 1.399734 1_445
B6 O14 1.334221 1_555
B6 O6 1.396411 1_555
B6 O18 1.399734 1_445
B7 O15 1.334221 1_555
B7 O7 1.396411 1_555
B7 O19 1.399734 1_665
B8 O0 1.334552 1_555
B8 O16 1.392009 1_555
B8 O8 1.400441 1_455
B9 O1 1.334552 1_555
B9 O17 1.392009 1_555
B9 O9 1.400441 1_565
B10 O2 1.334552 1_555
B10 O18 1.392009 1_555
B10 O10 1.400441 1_655
B11 O3 1.334552 1_555
B11 O19 1.392009 1_555
B11 O11 1.400441 1_545
