# generated using pymatgen
data_Ba2MgFe2CuF14
_symmetry_space_group_name_H-M   'P 1'
_cell_length_a   7.56690383
_cell_length_b   7.56690383
_cell_length_c   14.78073014
_cell_angle_alpha   88.19231424
_cell_angle_beta   88.19231424
_cell_angle_gamma   40.83090757
_symmetry_Int_Tables_number   1
_chemical_formula_structural   Ba2MgFe2CuF14
_chemical_formula_sum   'Ba4 Mg2 Fe4 Cu2 F28'
_cell_volume   553.03198740
_cell_formula_units_Z   2
loop_
 _symmetry_equiv_pos_site_id
 _symmetry_equiv_pos_as_xyz
  1  'x, y, z'
loop_
 _atom_site_type_symbol
 _atom_site_label
 _atom_site_symmetry_multiplicity
 _atom_site_fract_x
 _atom_site_fract_y
 _atom_site_fract_z
 _atom_site_occupancy
  Ba  Ba0  1  0.73432100  0.89077000  0.12404800  1
  Ba  Ba1  1  0.89077000  0.73432100  0.62404800  1
  Ba  Ba2  1  0.26567900  0.10923000  0.87595200  1
  Ba  Ba3  1  0.10923000  0.26567900  0.37595200  1
  Mg  Mg0  1  0.43578100  0.56421900  0.25000000  1
  Mg  Mg1  1  0.56421900  0.43578100  0.75000000  1
  Fe  Fe0  1  0.85856900  0.90269500  0.37275800  1
  Fe  Fe1  1  0.14143100  0.09730500  0.62724200  1
  Fe  Fe2  1  0.90269500  0.85856900  0.87275800  1
  Fe  Fe3  1  0.09730500  0.14143100  0.12724200  1
  Cu  Cu0  1  0.50000000  0.50000000  0.50000000  1
  Cu  Cu1  1  0.50000000  0.50000000  0.00000000  1
  F  F0  1  0.89823000  0.11088200  0.83779300  1
  F  F1  1  0.59096900  0.12613000  0.95477300  1
  F  F2  1  0.40903100  0.87387000  0.04522700  1
  F  F3  1  0.14346200  0.35018900  0.09954900  1
  F  F4  1  0.51967300  0.38465300  0.12162600  1
  F  F5  1  0.61534700  0.48032700  0.37837400  1
  F  F6  1  0.12613000  0.59096900  0.45477300  1
  F  F7  1  0.88911800  0.10177000  0.66220600  1
  F  F8  1  0.02952000  0.63655900  0.27581500  1
  F  F9  1  0.85653800  0.64981100  0.90045100  1
  F  F10  1  0.58188900  0.20174800  0.28810500  1
  F  F11  1  0.64981100  0.85653800  0.40045100  1
  F  F12  1  0.20174800  0.58188900  0.78810500  1
  F  F13  1  0.41811100  0.79825200  0.71189500  1
  F  F14  1  0.38465300  0.51967300  0.62162600  1
  F  F15  1  0.97048000  0.36344100  0.72418500  1
  F  F16  1  0.27716400  0.87914600  0.51525300  1
  F  F17  1  0.10177000  0.88911800  0.16220600  1
  F  F18  1  0.72283600  0.12085400  0.48474700  1
  F  F19  1  0.87914600  0.27716400  0.01525300  1
  F  F20  1  0.87387000  0.40903100  0.54522700  1
  F  F21  1  0.79825200  0.41811100  0.21189500  1
  F  F22  1  0.63655900  0.02952000  0.77581500  1
  F  F23  1  0.12085400  0.72283600  0.98474700  1
  F  F24  1  0.48032700  0.61534700  0.87837400  1
  F  F25  1  0.11088200  0.89823000  0.33779400  1
  F  F26  1  0.36344100  0.97048000  0.22418500  1
  F  F27  1  0.35018900  0.14346200  0.59954800  1
loop_
_geom_bond_atom_site_label_1
_geom_bond_atom_site_label_2
_geom_bond_distance
_geom_bond_site_symmetry_2
Ba0 F8 2.695084 1_655
Ba0 F3 2.703112 1_655
Ba0 F4 2.723122 1_565
Ba0 F1 2.752294 1_564
Ba0 F26 2.768240 1_555
Ba0 F17 2.845182 1_655
Ba0 F2 2.845872 1_555
Ba0 F23 2.927386 1_654
Ba0 F3 2.950929 1_565
Ba0 F10 2.970508 1_565
Ba1 F22 2.695084 1_565
Ba1 F27 2.703114 1_565
Ba1 F14 2.723122 1_655
Ba1 F6 2.752294 1_655
Ba1 F15 2.768240 1_555
Ba1 F7 2.845182 1_565
Ba1 F20 2.845872 1_555
Ba1 F18 2.927386 1_565
Ba1 F27 2.950931 1_655
Ba1 F12 2.970508 1_655
Ba2 F15 2.695084 1_455
Ba2 F9 2.703112 1_455
Ba2 F24 2.723122 1_545
Ba2 F2 2.752294 1_546
Ba2 F22 2.768240 1_555
Ba2 F0 2.845185 1_455
Ba2 F1 2.845872 1_555
Ba2 F19 2.927386 1_456
Ba2 F9 2.950929 1_545
Ba2 F13 2.970508 1_545
Ba3 F26 2.695084 1_545
Ba3 F11 2.703112 1_545
Ba3 F5 2.723122 1_455
Ba3 F20 2.752294 1_455
Ba3 F8 2.768240 1_555
Ba3 F25 2.845182 1_545
Ba3 F6 2.845872 1_555
Ba3 F16 2.927386 1_545
Ba3 F11 2.950929 1_455
Ba3 F21 2.970508 1_455
Cu0 F5 1.933143 1_555
Cu0 F14 1.933143 1_555
Cu0 F16 1.954776 1_555
Cu0 F18 1.954776 1_555
Cu0 F6 2.463231 1_555
Cu0 F20 2.463231 1_555
Cu1 F24 1.933143 1_554
Cu1 F4 1.933143 1_555
Cu1 F19 1.954776 1_555
Cu1 F23 1.954776 1_554
Cu1 F2 2.463231 1_555
Cu1 F1 2.463231 1_554
F0 Fe2 1.937684 1_545
F0 Mg1 2.172222 1_555
F1 Fe2 1.969780 1_545
F2 Fe3 1.969780 1_565
F3 Fe3 1.889425 1_555
F4 Mg0 2.151964 1_555
F5 Mg0 2.151964 1_555
F6 Fe0 1.969780 1_455
F7 Fe1 1.937681 1_655
F7 Mg1 2.172231 1_555
F8 Fe0 1.976095 1_455
F9 Fe2 1.889425 1_555
F10 Fe0 1.971488 1_545
F10 Mg0 2.101277 1_555
F11 Fe0 1.889425 1_555
F12 Fe2 1.971488 1_455
F12 Mg1 2.101277 1_555
F13 Fe1 1.971488 1_565
F13 Mg1 2.101277 1_555
F14 Mg1 2.151964 1_555
F15 Fe1 1.976095 1_655
F16 Fe1 2.004824 1_565
F17 Fe3 1.937681 1_565
F17 Mg0 2.172231 1_555
F18 Fe0 2.004824 1_545
F19 Fe3 2.004824 1_655
F20 Fe1 1.969780 1_655
F21 Fe3 1.971488 1_655
F21 Mg0 2.101277 1_555
F22 Fe2 1.976095 1_545
F23 Fe2 2.004824 1_455
F24 Mg1 2.151964 1_555
F25 Fe0 1.937681 1_455
F25 Mg0 2.172231 1_555
F26 Fe3 1.976095 1_565
F27 Fe1 1.889427 1_555
