# generated using pymatgen
data_Tb2Ge3
_symmetry_space_group_name_H-M   'P 1'
_cell_length_a   4.42944038
_cell_length_b   4.42944038
_cell_length_c   7.10270400
_cell_angle_alpha   90.00000000
_cell_angle_beta   90.00000000
_cell_angle_gamma   120.00000563
_symmetry_Int_Tables_number   1
_chemical_formula_structural   Tb2Ge3
_chemical_formula_sum   'Tb2 Ge3'
_cell_volume   120.68465231
_cell_formula_units_Z   1
loop_
 _symmetry_equiv_pos_site_id
 _symmetry_equiv_pos_as_xyz
  1  'x, y, z'
loop_
 _atom_site_type_symbol
 _atom_site_label
 _atom_site_symmetry_multiplicity
 _atom_site_fract_x
 _atom_site_fract_y
 _atom_site_fract_z
 _atom_site_occupancy
  Tb  Tb0  1  0.66666700  0.33333300  0.23060600  1
  Tb  Tb1  1  0.66666700  0.33333300  0.76939400  1
  Ge  Ge0  1  0.00000000  0.00000000  0.50000000  1
  Ge  Ge1  1  0.33333300  0.66666700  0.00000000  1
  Ge  Ge2  1  0.33333300  0.66666700  0.50000000  1
loop_
_geom_bond_atom_site_label_1
_geom_bond_atom_site_label_2
_geom_bond_distance
_geom_bond_site_symmetry_2
Ge0 Ge2 2.557336 1_545
Ge0 Ge2 2.557340 1_445
Ge0 Ge2 2.557340 1_555
Ge0 Tb1 3.193926 1_455
Ge0 Tb0 3.193926 1_455
Ge0 Tb1 3.193929 1_555
Ge0 Tb0 3.193929 1_555
Ge0 Tb1 3.193929 1_445
Ge0 Tb0 3.193929 1_445
Ge1 Tb0 3.036901 1_455
Ge1 Tb1 3.036901 1_454
Ge1 Tb0 3.036901 1_565
Ge1 Tb1 3.036901 1_564
Ge1 Tb1 3.036908 1_554
Ge1 Tb0 3.036908 1_555
Ge2 Tb0 3.193926 1_565
Ge2 Tb0 3.193926 1_455
Ge2 Tb1 3.193926 1_455
Ge2 Tb1 3.193926 1_565
Ge2 Tb1 3.193933 1_555
Ge2 Tb0 3.193933 1_555
