# generated using pymatgen
data_Sm11Sn10
_symmetry_space_group_name_H-M   'P 1'
_cell_length_a   11.82936292
_cell_length_b   11.82922317
_cell_length_c   12.11344585
_cell_angle_alpha   119.23292010
_cell_angle_beta   119.23310542
_cell_angle_gamma   89.99907048
_symmetry_Int_Tables_number   1
_chemical_formula_structural   Sm11Sn10
_chemical_formula_sum   'Sm22 Sn20'
_cell_volume   1225.86042936
_cell_formula_units_Z   2
loop_
 _symmetry_equiv_pos_site_id
 _symmetry_equiv_pos_as_xyz
  1  'x, y, z'
loop_
 _atom_site_type_symbol
 _atom_site_label
 _atom_site_symmetry_multiplicity
 _atom_site_fract_x
 _atom_site_fract_y
 _atom_site_fract_z
 _atom_site_occupancy
  Sm  Sm0  1  0.93817157  0.18980988  0.37976394  1
  Sm  Sm1  1  0.44155086  0.18997692  0.37984067  1
  Sm  Sm2  1  0.18998257  0.44154127  0.37985208  1
  Sm  Sm3  1  0.18981726  0.93819264  0.37977821  1
  Sm  Sm4  1  0.06182843  0.81019012  0.62023606  1
  Sm  Sm5  1  0.55844914  0.81002308  0.62015933  1
  Sm  Sm6  1  0.81001743  0.55845873  0.62014792  1
  Sm  Sm7  1  0.81018274  0.06180736  0.62022179  1
  Sm  Sm8  1  0.82544513  0.17454718  0.99999948  1
  Sm  Sm9  1  0.17455487  0.82545282  0.00000052  1
  Sm  Sm10  1  0.17466645  0.17465750  0.00019788  1
  Sm  Sm11  1  0.82533355  0.82534250  0.99980212  1
  Sm  Sm12  1  0.33693181  0.33693157  0.67387202  1
  Sm  Sm13  1  0.66306819  0.66306843  0.32612798  1
  Sm  Sm14  1  0.06989630  0.39855512  0.79691110  1
  Sm  Sm15  1  0.72698823  0.39857160  0.79716907  1
  Sm  Sm16  1  0.39858279  0.72701288  0.79719342  1
  Sm  Sm17  1  0.39856562  0.06989437  0.79693445  1
  Sm  Sm18  1  0.93010370  0.60144488  0.20308890  1
  Sm  Sm19  1  0.27301177  0.60142840  0.20283093  1
  Sm  Sm20  1  0.60141721  0.27298712  0.20280658  1
  Sm  Sm21  1  0.60143438  0.93010563  0.20306555  1
  Sn  Sn0  1  0.99992420  0.35624110  0.99985175  1
  Sn  Sn1  1  0.00007580  0.64375890  0.00014825  1
  Sn  Sn2  1  0.35624652  0.99992740  0.99985966  1
  Sn  Sn3  1  0.64375348  0.00007260  0.00014034  1
  Sn  Sn4  1  0.11285263  0.11285206  0.22573245  1
  Sn  Sn5  1  0.88714737  0.88714794  0.77426755  1
  Sn  Sn6  1  0.62604630  0.37394881  -0.00000241  1
  Sn  Sn7  1  0.37395370  0.62605119  0.00000241  1
  Sn  Sn8  1  0.37365444  0.37365112  0.99957581  1
  Sn  Sn9  1  0.62634556  0.62634888  0.00042419  1
  Sn  Sn10  1  0.74995979  0.25003536  0.49999451  1
  Sn  Sn11  1  0.25004021  0.74996464  0.50000549  1
  Sn  Sn12  1  0.11522175  0.52940423  0.64462751  1
  Sn  Sn13  1  0.52940839  0.11522255  0.64462614  1
  Sn  Sn14  1  0.52949628  0.52948783  0.64470307  1
  Sn  Sn15  1  0.11534473  0.11534626  0.64468427  1
  Sn  Sn16  1  0.88477825  0.47059577  0.35537249  1
  Sn  Sn17  1  0.47059161  0.88477745  0.35537386  1
  Sn  Sn18  1  0.47050372  0.47051217  0.35529693  1
  Sn  Sn19  1  0.88465527  0.88465374  0.35531573  1
loop_
_geom_bond_atom_site_label_1
_geom_bond_atom_site_label_2
_geom_bond_distance
_geom_bond_site_symmetry_2
Sm0 Sn10 3.120782 1_555
Sm0 Sn4 3.269054 1_655
Sm0 Sn15 3.414437 1_655
Sm0 Sn12 3.415574 1_655
Sm0 Sn19 3.505944 1_545
Sm0 Sn16 3.506372 1_555
Sm0 Sn3 3.548274 1_555
Sm1 Sn10 3.120385 1_555
Sm1 Sn4 3.268485 1_555
Sm1 Sn14 3.414691 1_555
Sm1 Sn13 3.415298 1_555
Sm1 Sn18 3.504480 1_555
Sm1 Sn17 3.506313 1_545
Sm1 Sn2 3.551800 1_544
Sm2 Sn11 3.120510 1_555
Sm2 Sn4 3.268331 1_555
Sm2 Sn14 3.414710 1_555
Sm2 Sn12 3.415246 1_555
Sm2 Sn18 3.504466 1_555
Sm2 Sn16 3.506376 1_455
Sm2 Sn0 3.552016 1_454
Sm3 Sn11 3.120906 1_555
Sm3 Sn4 3.268922 1_565
Sm3 Sn15 3.414356 1_565
Sm3 Sn13 3.415522 1_565
Sm3 Sn19 3.506003 1_455
Sm3 Sn17 3.506383 1_555
Sm3 Sn1 3.548367 1_555
Sm4 Sn11 3.120782 1_555
Sm4 Sn5 3.269054 1_455
Sm4 Sn19 3.414437 1_455
Sm4 Sn16 3.415574 1_455
Sm4 Sn15 3.505944 1_565
Sm4 Sn12 3.506372 1_555
Sm4 Sn2 3.548274 1_555
Sm5 Sn11 3.120385 1_555
Sm5 Sn5 3.268485 1_555
Sm5 Sn18 3.414691 1_555
Sm5 Sn17 3.415298 1_555
Sm5 Sn14 3.504480 1_555
Sm5 Sn13 3.506313 1_565
Sm5 Sn3 3.551800 1_566
Sm6 Sn10 3.120510 1_555
Sm6 Sn5 3.268331 1_555
Sm6 Sn18 3.414710 1_555
Sm6 Sn16 3.415246 1_555
Sm6 Sn14 3.504466 1_555
Sm6 Sn12 3.506376 1_655
Sm6 Sn1 3.552016 1_656
Sm7 Sn10 3.120906 1_555
Sm7 Sn5 3.268922 1_545
Sm7 Sn19 3.414356 1_545
Sm7 Sn17 3.415522 1_545
Sm7 Sn15 3.506003 1_655
Sm7 Sn13 3.506383 1_555
Sm7 Sn0 3.548367 1_555
Sm8 Sn3 2.980993 1_556
Sm8 Sn0 2.981106 1_555
Sm8 Sn6 3.335769 1_556
Sm8 Sn5 3.526646 1_545
Sm8 Sn4 3.526668 1_656
Sm8 Sn13 3.689502 1_555
Sm8 Sn16 3.689505 1_556
Sm9 Sn2 2.980993 1_554
Sm9 Sn1 2.981106 1_555
Sm9 Sn7 3.335769 1_555
Sm9 Sn4 3.526646 1_565
Sm9 Sn5 3.526668 1_454
Sm9 Sn17 3.689502 1_555
Sm9 Sn12 3.689505 1_554
Sm10 Sn2 2.980967 1_544
Sm10 Sn0 2.981097 1_454
Sm10 Sn8 3.334182 1_554
Sm10 Sn4 3.526350 1_555
Sm10 Sn5 3.527375 1_444
Sm10 Sn18 3.686679 1_555
Sm10 Sn15 3.691581 1_554
Sm11 Sn3 2.980967 1_566
Sm11 Sn1 2.981097 1_656
Sm11 Sn9 3.334182 1_556
Sm11 Sn5 3.526350 1_555
Sm11 Sn4 3.527375 1_666
Sm11 Sn14 3.686679 1_555
Sm11 Sn19 3.691581 1_556
Sm12 Sn15 3.472219 1_555
Sm12 Sn12 3.473894 1_555
Sm12 Sn13 3.473918 1_555
Sm12 Sn14 3.474835 1_555
Sm12 Sn8 3.549038 1_555
Sm12 Sn6 3.550901 1_556
Sm12 Sn7 3.550927 1_556
Sm12 Sn9 3.554548 1_556
Sm12 Sn4 3.925877 1_555
Sm13 Sn19 3.472219 1_555
Sm13 Sn16 3.473894 1_555
Sm13 Sn17 3.473918 1_555
Sm13 Sn18 3.474835 1_555
Sm13 Sn9 3.549038 1_555
Sm13 Sn7 3.550901 1_555
Sm13 Sn6 3.550927 1_555
Sm13 Sn8 3.554548 1_554
Sm13 Sn5 3.925877 1_555
Sm14 Sn12 3.137040 1_555
Sm14 Sn15 3.138026 1_555
Sm14 Sn1 3.188684 1_556
Sm14 Sn0 3.188773 1_455
Sm14 Sn10 3.298375 1_455
Sm14 Sn8 3.333992 1_555
Sm14 Sn7 3.335049 1_556
Sm15 Sn13 3.137564 1_555
Sm15 Sn14 3.137880 1_555
Sm15 Sn0 3.187658 1_555
Sm15 Sn1 3.189106 1_656
Sm15 Sn10 3.301106 1_555
Sm15 Sn6 3.333434 1_556
Sm15 Sn9 3.335072 1_556
Sm16 Sn12 3.137765 1_555
Sm16 Sn14 3.138180 1_555
Sm16 Sn2 3.187450 1_555
Sm16 Sn3 3.188852 1_566
Sm16 Sn11 3.301095 1_555
Sm16 Sn7 3.333399 1_556
Sm16 Sn9 3.335020 1_556
Sm17 Sn13 3.137283 1_555
Sm17 Sn15 3.138220 1_555
Sm17 Sn3 3.188425 1_556
Sm17 Sn2 3.188580 1_545
Sm17 Sn11 3.298345 1_545
Sm17 Sn8 3.333926 1_555
Sm17 Sn6 3.334990 1_556
Sm18 Sn16 3.137040 1_555
Sm18 Sn19 3.138026 1_555
Sm18 Sn0 3.188684 1_554
Sm18 Sn1 3.188773 1_655
Sm18 Sn11 3.298375 1_655
Sm18 Sn9 3.333992 1_555
Sm18 Sn6 3.335049 1_555
Sm19 Sn17 3.137564 1_555
Sm19 Sn18 3.137880 1_555
Sm19 Sn1 3.187658 1_555
Sm19 Sn0 3.189106 1_454
Sm19 Sn11 3.301106 1_555
Sm19 Sn7 3.333434 1_555
Sm19 Sn8 3.335072 1_554
Sm20 Sn16 3.137765 1_555
Sm20 Sn18 3.138180 1_555
Sm20 Sn3 3.187450 1_555
Sm20 Sn2 3.188852 1_544
Sm20 Sn10 3.301095 1_555
Sm20 Sn6 3.333399 1_555
Sm20 Sn8 3.335020 1_554
Sm21 Sn17 3.137283 1_555
Sm21 Sn19 3.138220 1_555
Sm21 Sn2 3.188425 1_554
Sm21 Sn3 3.188580 1_565
Sm21 Sn10 3.298345 1_565
Sm21 Sn9 3.333926 1_555
Sm21 Sn7 3.334990 1_555
Sn6 Sn8 2.983142 1_554
Sn6 Sn9 2.983176 1_555
Sn7 Sn9 2.983142 1_555
Sn7 Sn8 2.983176 1_554
Sn12 Sn16 2.912418 1_455
Sn12 Sn7 3.395625 1_556
Sn13 Sn17 2.912362 1_545
Sn13 Sn6 3.395601 1_556
Sn14 Sn18 2.912969 1_555
Sn14 Sn9 3.398366 1_556
Sn15 Sn19 2.914648 1_445
Sn15 Sn8 3.390337 1_555
Sn16 Sn6 3.395625 1_555
Sn17 Sn7 3.395601 1_555
Sn18 Sn8 3.398366 1_554
Sn19 Sn9 3.390337 1_555
