# generated using pymatgen
data_U2Ni2O11F12
_symmetry_space_group_name_H-M   'P 1'
_cell_length_a   10.51916487
_cell_length_b   10.51916487
_cell_length_c   7.96952054
_cell_angle_alpha   89.07628073
_cell_angle_beta   89.07628073
_cell_angle_gamma   88.84425479
_symmetry_Int_Tables_number   1
_chemical_formula_structural   U2Ni2O11F12
_chemical_formula_sum   'U4 Ni4 O22 F24'
_cell_volume   881.44595633
_cell_formula_units_Z   2
loop_
 _symmetry_equiv_pos_site_id
 _symmetry_equiv_pos_as_xyz
  1  'x, y, z'
loop_
 _atom_site_type_symbol
 _atom_site_label
 _atom_site_symmetry_multiplicity
 _atom_site_fract_x
 _atom_site_fract_y
 _atom_site_fract_z
 _atom_site_occupancy
  U  U0  1  0.62621700  0.35663500  0.50055400  1
  U  U1  1  0.37378300  0.64336500  0.49944600  1
  U  U2  1  0.64336500  0.37378300  0.99944600  1
  U  U3  1  0.35663500  0.62621700  0.00055400  1
  Ni  Ni0  1  0.44948300  0.09666400  0.23877200  1
  Ni  Ni1  1  0.09666400  0.44948300  0.73877200  1
  Ni  Ni2  1  0.55051700  0.90333600  0.76122800  1
  Ni  Ni3  1  0.90333600  0.55051700  0.26122800  1
  O  O0  1  0.28066400  0.17865300  0.18516200  1
  O  O1  1  0.17865300  0.28066400  0.68516200  1
  O  O2  1  0.71933600  0.82134700  0.81483800  1
  O  O3  1  0.82134700  0.71933600  0.31483800  1
  O  O4  1  0.93085000  0.06915000  0.25000000  1
  O  O5  1  0.06915000  0.93085000  0.75000000  1
  O  O6  1  0.25479600  0.02186800  0.53120800  1
  O  O7  1  0.06421300  0.29601500  0.63012800  1
  O  O8  1  0.29601500  0.06421300  0.13012800  1
  O  O9  1  0.02186800  0.25479600  0.03120800  1
  O  O10  1  0.74520400  0.97813200  0.46879200  1
  O  O11  1  0.93578700  0.70398500  0.36987200  1
  O  O12  1  0.70398500  0.93578700  0.86987200  1
  O  O13  1  0.97813200  0.74520400  0.96879200  1
  O  O14  1  0.53315600  0.95723200  0.26131000  1
  O  O15  1  0.95723200  0.53315600  0.76131000  1
  O  O16  1  0.46684400  0.04276800  0.73869000  1
  O  O17  1  0.04276800  0.46684400  0.23869000  1
  O  O18  1  0.13872500  0.02939300  0.54715100  1
  O  O19  1  0.02939300  0.13872500  0.04715100  1
  O  O20  1  0.86127500  0.97060700  0.45284900  1
  O  O21  1  0.97060700  0.86127500  0.95284900  1
  F  F0  1  0.55966800  0.44033200  0.25000000  1
  F  F1  1  0.44033200  0.55966800  0.75000000  1
  F  F2  1  0.57791400  0.58492200  0.49997800  1
  F  F3  1  0.58492200  0.57791400  0.99997800  1
  F  F4  1  0.42208600  0.41507800  0.50002200  1
  F  F5  1  0.41507800  0.42208600  0.00002200  1
  F  F6  1  0.54728800  0.29352000  0.74353200  1
  F  F7  1  0.29352000  0.54728800  0.24353200  1
  F  F8  1  0.45271200  0.70648000  0.25646800  1
  F  F9  1  0.70648000  0.45271200  0.75646800  1
  F  F10  1  0.76495100  0.23136600  0.56989800  1
  F  F11  1  0.23504900  0.76863400  0.43010200  1
  F  F12  1  0.76863400  0.23504900  0.93010200  1
  F  F13  1  0.23136600  0.76495100  0.06989800  1
  F  F14  1  0.52145600  0.19020100  0.41921000  1
  F  F15  1  0.20655300  0.52651200  0.56053000  1
  F  F16  1  0.52651200  0.20655300  0.06053000  1
  F  F17  1  0.19020100  0.52145600  0.91921000  1
  F  F18  1  0.47854400  0.80979900  0.58079000  1
  F  F19  1  0.79344700  0.47348800  0.43947000  1
  F  F20  1  0.47348800  0.79344700  0.93947000  1
  F  F21  1  0.80979900  0.47854400  0.08079000  1
  F  F22  1  0.71861400  0.28138600  0.25000000  1
  F  F23  1  0.28138600  0.71861400  0.75000000  1
loop_
_geom_bond_atom_site_label_1
_geom_bond_atom_site_label_2
_geom_bond_distance
_geom_bond_site_symmetry_2
Ni0 O14 1.703737 1_545
Ni0 O8 1.883926 1_555
Ni0 O0 2.007674 1_555
Ni1 O15 1.703737 1_455
Ni1 O7 1.883926 1_555
Ni1 O1 2.007674 1_555
Ni2 O16 1.703737 1_565
Ni2 O12 1.883926 1_555
Ni2 O2 2.007674 1_555
Ni3 O17 1.703737 1_655
Ni3 O11 1.883926 1_555
Ni3 O3 2.007674 1_555
O0 O8 1.294027 1_555
O1 O7 1.294027 1_555
O10 O20 1.226622 1_555
O11 O3 1.294027 1_555
O12 O2 1.294027 1_555
O13 O21 1.226622 1_555
O18 O6 1.226622 1_555
O18 O5 2.040099 1_545
O19 O9 1.226622 1_555
O19 O4 2.040099 1_455
O20 O4 2.040099 1_565
O21 O5 2.040099 1_655
F0 U2 2.283838 1_554
F0 U0 2.283838 1_555
F1 U1 2.283838 1_555
F1 U3 2.283838 1_556
F2 U1 2.221658 1_555
F2 U0 2.444455 1_555
F3 U2 2.221658 1_555
F3 U3 2.444455 1_556
F4 U0 2.221658 1_555
F4 U1 2.444455 1_555
F5 U3 2.221658 1_555
F5 U2 2.444455 1_554
F6 U0 2.192896 1_555
F6 U2 2.459729 1_555
F7 U3 2.192896 1_555
F7 U1 2.459729 1_555
F8 U1 2.192896 1_555
F8 U3 2.459729 1_555
F9 U2 2.192896 1_555
F9 U0 2.459729 1_555
F10 U0 2.023983 1_555
F11 U1 2.023983 1_555
F12 U2 2.023983 1_555
F13 U3 2.023983 1_555
F14 Ni0 1.928716 1_555
F14 U0 2.199370 1_555
F15 Ni1 1.989551 1_555
F15 U1 2.209691 1_555
F16 Ni0 1.989551 1_555
F16 U2 2.209691 1_554
F17 Ni1 1.928716 1_555
F17 U3 2.199370 1_556
F18 Ni2 1.928716 1_555
F18 U1 2.199370 1_555
F19 Ni3 1.989551 1_555
F19 U0 2.209691 1_555
F20 Ni2 1.989551 1_555
F20 U3 2.209691 1_556
F21 Ni3 1.928716 1_555
F21 U2 2.199370 1_554
F22 U0 2.348568 1_555
F22 U2 2.348568 1_554
F23 U3 2.348568 1_556
F23 U1 2.348568 1_555
