# generated using pymatgen
data_Y4(Cu2O5)3
_symmetry_space_group_name_H-M   'P 1'
_cell_length_a   6.28249900
_cell_length_b   11.56132600
_cell_length_c   21.75256800
_cell_angle_alpha   90.00000000
_cell_angle_beta   90.00000000
_cell_angle_gamma   90.00000000
_symmetry_Int_Tables_number   1
_chemical_formula_structural   Y4(Cu2O5)3
_chemical_formula_sum   'Y16 Cu24 O60'
_cell_volume   1579.97643814
_cell_formula_units_Z   4
loop_
 _symmetry_equiv_pos_site_id
 _symmetry_equiv_pos_as_xyz
  1  'x, y, z'
loop_
 _atom_site_type_symbol
 _atom_site_label
 _atom_site_symmetry_multiplicity
 _atom_site_fract_x
 _atom_site_fract_y
 _atom_site_fract_z
 _atom_site_occupancy
  Y  Y0  1  0.75113100  0.01577200  0.45602700  1
  Y  Y1  1  0.75684400  0.00838200  0.12216100  1
  Y  Y2  1  0.25113100  0.48422800  0.54397300  1
  Y  Y3  1  0.25684400  0.49161800  0.87783900  1
  Y  Y4  1  0.74315600  0.99161800  0.62216100  1
  Y  Y5  1  0.74886900  0.98422800  0.95602700  1
  Y  Y6  1  0.24315600  0.50838200  0.37783900  1
  Y  Y7  1  0.24886900  0.51577200  0.04397300  1
  Y  Y8  1  0.24548200  0.98741000  0.71119500  1
  Y  Y9  1  0.25023300  0.99069800  0.37739900  1
  Y  Y10  1  0.75023300  0.50930200  0.62260100  1
  Y  Y11  1  0.74548200  0.51259000  0.28880500  1
  Y  Y12  1  0.25451800  0.01259000  0.21119500  1
  Y  Y13  1  0.24976700  0.00930200  0.87739900  1
  Y  Y14  1  0.74976700  0.49069800  0.12260100  1
  Y  Y15  1  0.75451800  0.48741000  0.78880500  1
  Cu  Cu0  1  0.06893100  0.24827500  0.46848800  1
  Cu  Cu1  1  0.06203400  0.25466700  0.13894300  1
  Cu  Cu2  1  0.06114500  0.24686400  0.80585700  1
  Cu  Cu3  1  0.56893100  0.25172500  0.53151200  1
  Cu  Cu4  1  0.56114500  0.25313600  0.19414300  1
  Cu  Cu5  1  0.56203400  0.24533300  0.86105700  1
  Cu  Cu6  1  0.43796600  0.74533300  0.63894300  1
  Cu  Cu7  1  0.43885500  0.75313600  0.30585700  1
  Cu  Cu8  1  0.43106900  0.75172500  0.96848800  1
  Cu  Cu9  1  0.93885500  0.74686400  0.69414300  1
  Cu  Cu10  1  0.93796600  0.75466700  0.36105700  1
  Cu  Cu11  1  0.93106900  0.74827500  0.03151200  1
  Cu  Cu12  1  0.62459500  0.24304100  0.71504200  1
  Cu  Cu13  1  0.59877800  0.25930100  0.38808600  1
  Cu  Cu14  1  0.60224500  0.24963600  0.04835700  1
  Cu  Cu15  1  0.09877800  0.24069900  0.61191400  1
  Cu  Cu16  1  0.12459500  0.25695900  0.28495800  1
  Cu  Cu17  1  0.10224500  0.25036400  0.95164300  1
  Cu  Cu18  1  0.89775500  0.75036400  0.54835700  1
  Cu  Cu19  1  0.87540500  0.75695900  0.21504200  1
  Cu  Cu20  1  0.90122200  0.74069900  0.88808600  1
  Cu  Cu21  1  0.39775500  0.74963600  0.45164300  1
  Cu  Cu22  1  0.40122200  0.75930100  0.11191400  1
  Cu  Cu23  1  0.37540500  0.74304100  0.78495800  1
  O  O0  1  0.76070700  0.23863600  0.45874600  1
  O  O1  1  0.75828400  0.25471400  0.12328000  1
  O  O2  1  0.76099600  0.25896600  0.79074400  1
  O  O3  1  0.26070700  0.26136400  0.54125400  1
  O  O4  1  0.26099600  0.24103400  0.20925600  1
  O  O5  1  0.25828400  0.24528600  0.87672000  1
  O  O6  1  0.74171600  0.74528600  0.62328000  1
  O  O7  1  0.73900400  0.74103400  0.29074400  1
  O  O8  1  0.73929300  0.76136400  0.95874600  1
  O  O9  1  0.23900400  0.75896600  0.70925600  1
  O  O10  1  0.24171600  0.75471400  0.37672000  1
  O  O11  1  0.23929300  0.73863600  0.04125400  1
  O  O12  1  0.08274700  0.09517300  0.45113200  1
  O  O13  1  0.07299100  0.09883400  0.13303100  1
  O  O14  1  0.12855900  0.09839400  0.79008600  1
  O  O15  1  0.58274700  0.40482700  0.54886800  1
  O  O16  1  0.62855900  0.40160600  0.20991400  1
  O  O17  1  0.57299100  0.40116600  0.86696900  1
  O  O18  1  0.42700900  0.90116600  0.63303100  1
  O  O19  1  0.37144100  0.90160600  0.29008600  1
  O  O20  1  0.41725300  0.90482700  0.95113200  1
  O  O21  1  0.87144100  0.59839400  0.70991400  1
  O  O22  1  0.92700900  0.59883400  0.36696900  1
  O  O23  1  0.91725300  0.59517300  0.04886800  1
  O  O24  1  0.92381600  0.90256400  0.69872400  1
  O  O25  1  0.92072300  0.90525400  0.38273100  1
  O  O26  1  0.87595800  0.89985900  0.04398600  1
  O  O27  1  0.42072300  0.59474600  0.61726900  1
  O  O28  1  0.42381600  0.59743600  0.30127600  1
  O  O29  1  0.37595800  0.60014100  0.95601400  1
  O  O30  1  0.62404200  0.10014100  0.54398600  1
  O  O31  1  0.57618400  0.09743600  0.19872400  1
  O  O32  1  0.57927700  0.09474600  0.88273100  1
  O  O33  1  0.12404200  0.39985900  0.45601400  1
  O  O34  1  0.07927700  0.40525400  0.11726900  1
  O  O35  1  0.07618400  0.40256400  0.80127600  1
  O  O36  1  0.53957900  0.10596200  0.68865300  1
  O  O37  1  0.54236300  0.10762300  0.38371200  1
  O  O38  1  0.62744500  0.09936800  0.03425400  1
  O  O39  1  0.04236300  0.39237700  0.61628800  1
  O  O40  1  0.03957900  0.39403800  0.31134700  1
  O  O41  1  0.12744500  0.40063200  0.96574600  1
  O  O42  1  0.87255500  0.90063200  0.53425400  1
  O  O43  1  0.96042100  0.89403800  0.18865300  1
  O  O44  1  0.95763700  0.89237700  0.88371200  1
  O  O45  1  0.37255500  0.59936800  0.46574600  1
  O  O46  1  0.45763700  0.60762300  0.11628800  1
  O  O47  1  0.46042100  0.60596200  0.81134700  1
  O  O48  1  0.46133400  0.89893600  0.44948700  1
  O  O49  1  0.45754100  0.89453800  0.14565600  1
  O  O50  1  0.37489500  0.89632400  0.79850400  1
  O  O51  1  0.96133400  0.60106400  0.55051300  1
  O  O52  1  0.87489500  0.60367600  0.20149600  1
  O  O53  1  0.95754100  0.60546200  0.85434400  1
  O  O54  1  0.04245900  0.10546200  0.64565600  1
  O  O55  1  0.12510500  0.10367600  0.29850400  1
  O  O56  1  0.03866600  0.10106400  0.94948700  1
  O  O57  1  0.62510500  0.39632400  0.70149600  1
  O  O58  1  0.54245900  0.39453800  0.35434400  1
  O  O59  1  0.53866600  0.39893600  0.05051300  1
loop_
_geom_bond_atom_site_label_1
_geom_bond_atom_site_label_2
_geom_bond_distance
_geom_bond_site_symmetry_2
Cu0 O33 1.806877 1_555
Cu0 O12 1.811957 1_555
Cu0 O0 1.951163 1_455
Cu0 O3 1.994975 1_555
Cu1 O34 1.806943 1_555
Cu1 O13 1.807531 1_555
Cu1 O1 1.938486 1_455
Cu1 O4 1.981571 1_555
Cu2 O14 1.800964 1_555
Cu2 O35 1.805329 1_555
Cu2 O2 1.919235 1_455
Cu2 O5 1.977461 1_555
Cu3 O30 1.806877 1_555
Cu3 O15 1.811957 1_555
Cu3 O3 1.951163 1_555
Cu3 O0 1.994975 1_555
Cu4 O16 1.800964 1_555
Cu4 O31 1.805329 1_555
Cu4 O4 1.919235 1_555
Cu4 O1 1.977461 1_555
Cu5 O32 1.806943 1_555
Cu5 O17 1.807531 1_555
Cu5 O5 1.938486 1_555
Cu5 O2 1.981571 1_555
Cu6 O27 1.806943 1_555
Cu6 O18 1.807531 1_555
Cu6 O6 1.938486 1_555
Cu6 O9 1.981571 1_555
Cu7 O19 1.800964 1_555
Cu7 O28 1.805329 1_555
Cu7 O7 1.919235 1_555
Cu7 O10 1.977461 1_555
Cu8 O29 1.806877 1_555
Cu8 O20 1.811957 1_555
Cu8 O8 1.951163 1_555
Cu8 O11 1.994975 1_556
Cu9 O21 1.800964 1_555
Cu9 O24 1.805329 1_555
Cu9 O9 1.919235 1_655
Cu9 O6 1.977461 1_555
Cu10 O25 1.806943 1_555
Cu10 O22 1.807531 1_555
Cu10 O10 1.938486 1_655
Cu10 O7 1.981571 1_555
Cu11 O26 1.806877 1_555
Cu11 O23 1.811957 1_555
Cu11 O11 1.951163 1_655
Cu11 O8 1.994975 1_554
Cu12 O36 1.768170 1_555
Cu12 O57 1.796488 1_555
Cu12 O2 1.865451 1_555
Cu13 O58 1.763095 1_555
Cu13 O37 1.791586 1_555
Cu13 O0 1.858628 1_555
Cu14 O38 1.771265 1_555
Cu14 O59 1.772340 1_555
Cu14 O1 1.902789 1_555
Cu15 O54 1.763095 1_555
Cu15 O39 1.791586 1_555
Cu15 O3 1.858628 1_555
Cu16 O40 1.768170 1_555
Cu16 O55 1.796488 1_555
Cu16 O4 1.865451 1_555
Cu17 O41 1.771265 1_555
Cu17 O56 1.772340 1_555
Cu17 O5 1.902789 1_555
Cu18 O42 1.771265 1_555
Cu18 O51 1.772340 1_555
Cu18 O6 1.902789 1_555
Cu19 O43 1.768170 1_555
Cu19 O52 1.796488 1_555
Cu19 O7 1.865451 1_555
Cu20 O53 1.763095 1_555
Cu20 O44 1.791586 1_555
Cu20 O8 1.858628 1_555
Cu21 O45 1.771265 1_555
Cu21 O48 1.772340 1_555
Cu21 O10 1.902789 1_555
Cu22 O49 1.763095 1_555
Cu22 O46 1.791586 1_555
Cu22 O11 1.858628 1_555
Cu23 O47 1.768170 1_555
Cu23 O50 1.796488 1_555
Cu23 O9 1.865451 1_555
O0 Y0 2.577984 1_555
O1 Y14 2.728853 1_555
O2 Y15 2.641766 1_555
O3 Y2 2.577984 1_555
O4 Y12 2.641766 1_555
O5 Y13 2.728853 1_555
O6 Y10 2.728853 1_555
O7 Y11 2.641766 1_555
O8 Y5 2.577984 1_555
O9 Y8 2.641766 1_555
O10 Y9 2.728853 1_555
O11 Y7 2.577984 1_555
O12 Y9 2.266843 1_545
O12 Y0 2.279142 1_455
O13 Y1 2.257090 1_455
O13 Y12 2.277217 1_555
O14 Y8 2.265156 1_545
O14 Y13 2.290869 1_555
O15 Y10 2.266843 1_555
O15 Y2 2.279142 1_555
O16 Y11 2.265156 1_555
O16 Y14 2.290869 1_555
O17 Y3 2.257090 1_555
O17 Y15 2.277217 1_555
O18 Y4 2.257090 1_555
O18 Y8 2.277217 1_555
O19 Y12 2.265156 1_565
O19 Y9 2.290869 1_555
O20 Y13 2.266843 1_565
O20 Y5 2.279142 1_555
O21 Y15 2.265156 1_555
O21 Y10 2.290869 1_555
O22 Y6 2.257090 1_655
O22 Y11 2.277217 1_555
O23 Y14 2.266843 1_555
O23 Y7 2.279142 1_655
O24 Y8 2.262680 1_655
O24 Y4 2.263173 1_555
O25 Y9 2.296693 1_655
O25 Y0 2.304311 1_565
O26 Y1 2.241857 1_565
O26 Y5 2.291242 1_554
O27 Y10 2.296693 1_555
O27 Y2 2.304311 1_555
O28 Y11 2.262680 1_555
O28 Y6 2.263173 1_555
O29 Y3 2.241857 1_555
O29 Y7 2.291242 1_556
O30 Y4 2.241857 1_545
O30 Y0 2.291242 1_555
O31 Y12 2.262680 1_555
O31 Y1 2.263173 1_555
O32 Y13 2.296693 1_555
O32 Y5 2.304311 1_545
O33 Y6 2.241857 1_555
O33 Y2 2.291242 1_555
O34 Y14 2.296693 1_455
O34 Y7 2.304311 1_555
O35 Y15 2.262680 1_455
O35 Y3 2.263173 1_555
O36 Y4 2.339949 1_545
O36 Y8 2.352211 1_545
O37 Y9 2.283548 1_545
O37 Y0 2.307027 1_555
O38 Y5 2.291184 1_544
O38 Y1 2.328935 1_555
O39 Y10 2.283548 1_455
O39 Y2 2.307027 1_555
O40 Y6 2.339949 1_555
O40 Y11 2.352211 1_455
O41 Y7 2.291184 1_556
O41 Y3 2.328935 1_555
O42 Y0 2.291184 1_565
O42 Y4 2.328935 1_555
O43 Y1 2.339949 1_565
O43 Y12 2.352211 1_665
O44 Y13 2.283548 1_665
O44 Y5 2.307027 1_555
O45 Y2 2.291184 1_555
O45 Y6 2.328935 1_555
O46 Y14 2.283548 1_555
O46 Y7 2.307027 1_555
O47 Y3 2.339949 1_555
O47 Y15 2.352211 1_555
O48 Y0 2.271477 1_565
O48 Y9 2.311567 1_555
O49 Y12 2.349918 1_565
O49 Y1 2.351456 1_565
O50 Y13 2.295498 1_565
O50 Y8 2.318822 1_555
O51 Y2 2.271477 1_655
O51 Y10 2.311567 1_555
O52 Y14 2.295498 1_555
O52 Y11 2.318822 1_555
O53 Y15 2.349918 1_555
O53 Y3 2.351456 1_655
O54 Y8 2.349918 1_545
O54 Y4 2.351456 1_445
O55 Y9 2.295498 1_545
O55 Y12 2.318822 1_555
O56 Y5 2.271477 1_445
O56 Y13 2.311567 1_555
O57 Y10 2.295498 1_555
O57 Y15 2.318822 1_555
O58 Y11 2.349918 1_555
O58 Y6 2.351456 1_555
O59 Y7 2.271477 1_555
O59 Y14 2.311567 1_555
