# generated using pymatgen
data_Ca2H6Os
_symmetry_space_group_name_H-M   'P 1'
_cell_length_a   5.11212931
_cell_length_b   5.11212931
_cell_length_c   5.11212931
_cell_angle_alpha   60.00000000
_cell_angle_beta   60.00000000
_cell_angle_gamma   60.00000000
_symmetry_Int_Tables_number   1
_chemical_formula_structural   Ca2H6Os
_chemical_formula_sum   'Ca2 H6 Os1'
_cell_volume   94.46925569
_cell_formula_units_Z   1
loop_
 _symmetry_equiv_pos_site_id
 _symmetry_equiv_pos_as_xyz
  1  'x, y, z'
loop_
 _atom_site_type_symbol
 _atom_site_label
 _atom_site_symmetry_multiplicity
 _atom_site_fract_x
 _atom_site_fract_y
 _atom_site_fract_z
 _atom_site_occupancy
  Ca  Ca0  1  0.25000000  0.25000000  0.25000000  1
  Ca  Ca1  1  0.75000000  0.75000000  0.75000000  1
  H  H0  1  0.76281976  0.23718024  0.23718024  1
  H  H1  1  0.23718024  0.76281976  0.76281976  1
  H  H2  1  0.23718024  0.76281976  0.23718024  1
  H  H3  1  0.76281976  0.23718024  0.76281976  1
  H  H4  1  0.23718024  0.23718024  0.76281976  1
  H  H5  1  0.76281976  0.76281976  0.23718024  1
  Os  Os0  1  0.00000000  0.00000000  -0.00000000  1
loop_
_geom_bond_atom_site_label_1
_geom_bond_atom_site_label_2
_geom_bond_distance
_geom_bond_site_symmetry_2
Ca0 H1 2.557744 1_545
Ca0 H4 2.557744 1_555
Ca0 H3 2.557744 1_455
Ca0 H5 2.557744 1_545
Ca0 H2 2.557744 1_555
Ca0 H0 2.557744 1_555
Ca0 H1 2.557744 1_554
Ca0 H3 2.557744 1_554
Ca0 H5 2.557744 1_455
Ca0 H2 2.557744 1_545
Ca0 H4 2.557744 1_554
Ca0 H0 2.557744 1_455
Ca1 H1 2.557744 1_555
Ca1 H2 2.557744 1_556
Ca1 H3 2.557744 1_565
Ca1 H5 2.557744 1_555
Ca1 H4 2.557744 1_655
Ca1 H0 2.557744 1_565
Ca1 H1 2.557744 1_655
Ca1 H5 2.557744 1_556
Ca1 H2 2.557744 1_655
Ca1 H4 2.557744 1_565
Ca1 H3 2.557744 1_555
Ca1 H0 2.557744 1_556
H0 Os0 1.714728 1_655
H1 Os0 1.714728 1_566
H2 Os0 1.714728 1_565
H3 Os0 1.714728 1_656
H4 Os0 1.714728 1_556
H5 Os0 1.714728 1_665
