# generated using pymatgen
data_Li4MnCo2O7
_symmetry_space_group_name_H-M   'P 1'
_cell_length_a   5.07686900
_cell_length_b   5.91712671
_cell_length_c   8.75904247
_cell_angle_alpha   90.83656444
_cell_angle_beta   95.02088219
_cell_angle_gamma   106.20660752
_symmetry_Int_Tables_number   1
_chemical_formula_structural   Li4MnCo2O7
_chemical_formula_sum   'Li8 Mn2 Co4 O14'
_cell_volume   251.49049726
_cell_formula_units_Z   2
loop_
 _symmetry_equiv_pos_site_id
 _symmetry_equiv_pos_as_xyz
  1  'x, y, z'
loop_
 _atom_site_type_symbol
 _atom_site_label
 _atom_site_symmetry_multiplicity
 _atom_site_fract_x
 _atom_site_fract_y
 _atom_site_fract_z
 _atom_site_occupancy
  Li  Li0  1  0.57816700  0.64824800  0.14631300  1
  Li  Li1  1  0.14892600  0.78796500  0.28082400  1
  Li  Li2  1  0.99350000  0.49222000  0.00441700  1
  Li  Li3  1  0.43075200  0.35251500  0.86344700  1
  Li  Li4  1  0.70343600  0.93024100  0.41743100  1
  Li  Li5  1  0.28417100  0.07397500  0.57071800  1
  Li  Li6  1  0.86385900  0.21901200  0.71643400  1
  Li  Li7  1  0.57218200  0.14391600  0.14193300  1
  Mn  Mn0  1  0.00002800  0.00580500  0.00210500  1
  Mn  Mn1  1  0.28471700  0.57096500  0.57208500  1
  Co  Co0  1  0.14778000  0.27340300  0.28311200  1
  Co  Co1  1  0.71553800  0.42291200  0.41691000  1
  Co  Co2  1  0.85689100  0.71545100  0.71366800  1
  Co  Co3  1  0.42922600  0.86254500  0.86698700  1
  O  O0  1  0.87384800  0.97078200  0.20230700  1
  O  O1  1  0.42018800  0.12476400  0.35804700  1
  O  O2  1  0.27322500  0.82878100  0.05458800  1
  O  O3  1  0.73364900  0.69930400  0.92410700  1
  O  O4  1  0.01130500  0.27301700  0.50382500  1
  O  O5  1  0.56349300  0.41459700  0.63448800  1
  O  O6  1  0.15241800  0.54992100  0.77169400  1
  O  O7  1  0.25817200  0.29984700  0.06909600  1
  O  O8  1  0.86228400  0.45718100  0.23063300  1
  O  O9  1  0.72687900  0.15740700  0.92682300  1
  O  O10  1  0.13379300  0.02424600  0.79642700  1
  O  O11  1  0.42029700  0.59890100  0.36921200  1
  O  O12  1  0.00857500  0.73443000  0.51461400  1
  O  O13  1  0.55270000  0.86764900  0.64775300  1
loop_
_geom_bond_atom_site_label_1
_geom_bond_atom_site_label_2
_geom_bond_distance
_geom_bond_site_symmetry_2
Li0 O0 2.093045 1_555
Li0 O8 2.156955 1_555
Li0 O3 2.157652 1_554
Li0 O11 2.167797 1_555
Li0 O2 2.216729 1_555
Li0 O7 2.289994 1_555
Li1 O0 2.071319 1_455
Li1 O8 2.101174 1_455
Li1 O11 2.109013 1_555
Li1 O2 2.128642 1_555
Li1 O1 2.142722 1_565
Li1 O12 2.224815 1_555
Li2 O7 2.039997 1_655
Li2 O2 2.112433 1_655
Li2 O3 2.121728 1_554
Li2 O9 2.126447 1_554
Li2 O8 2.139811 1_555
Li2 O6 2.253250 1_654
Li3 O7 2.061468 1_556
Li3 O10 2.137199 1_555
Li3 O5 2.175054 1_555
Li3 O9 2.177763 1_555
Li3 O6 2.181060 1_555
Li3 O3 2.218436 1_555
Li4 O11 2.094025 1_555
Li4 O1 2.115126 1_565
Li4 O0 2.130553 1_555
Li4 O13 2.219582 1_555
Li4 O4 2.260085 1_665
Li4 O12 2.294953 1_655
Li5 O1 2.040301 1_555
Li5 O4 2.106726 1_555
Li5 O12 2.125420 1_545
Li5 O13 2.143930 1_545
Li5 O5 2.149013 1_555
Li5 O10 2.175713 1_555
Li6 O9 2.028513 1_555
Li6 O4 2.063565 1_655
Li6 O10 2.105762 1_655
Li6 O6 2.112188 1_655
Li6 O5 2.235553 1_555
Li6 O13 2.267972 1_545
Li7 O9 2.098011 1_554
Li7 O1 2.098735 1_555
Li7 O0 2.103467 1_545
Li7 O8 2.107715 1_555
Li7 O7 2.111869 1_555
Li7 O2 2.131031 1_545
Mn0 O7 1.910976 1_555
Mn0 O0 1.913500 1_445
Mn0 O9 1.927216 1_454
Mn0 O10 1.974126 1_554
Mn0 O2 1.986375 1_545
Mn0 O3 2.004452 1_444
Mn1 O6 1.920601 1_555
Mn1 O5 1.941206 1_555
Mn1 O12 1.949874 1_555
Mn1 O11 1.953946 1_555
Mn1 O13 1.961399 1_555
Mn1 O4 1.962223 1_555
Co0 O1 1.911526 1_555
Co0 O7 1.999031 1_555
Co0 O0 2.010490 1_445
Co0 O8 2.066989 1_455
Co0 O4 2.109779 1_555
Co0 O11 2.116587 1_555
Co1 O8 1.842934 1_555
Co1 O1 1.997002 1_555
Co1 O4 2.045484 1_655
Co1 O11 2.068825 1_555
Co1 O5 2.114068 1_555
Co1 O12 2.131600 1_655
Co2 O12 1.959072 1_655
Co2 O3 1.992937 1_555
Co2 O13 2.040787 1_555
Co2 O6 2.042078 1_655
Co2 O5 2.042491 1_555
Co2 O10 2.046811 1_665
Co3 O2 1.875194 1_556
Co3 O9 1.991303 1_565
Co3 O10 2.050160 1_565
Co3 O13 2.069582 1_555
Co3 O3 2.069784 1_555
Co3 O6 2.095705 1_555
