# generated using pymatgen
data_ZrCrSi
_symmetry_space_group_name_H-M   'P 1'
_cell_length_a   3.51987000
_cell_length_b   6.74065800
_cell_length_c   7.88829000
_cell_angle_alpha   90.00000000
_cell_angle_beta   90.00000000
_cell_angle_gamma   90.00000000
_symmetry_Int_Tables_number   1
_chemical_formula_structural   ZrCrSi
_chemical_formula_sum   'Zr4 Cr4 Si4'
_cell_volume   187.15946074
_cell_formula_units_Z   4
loop_
 _symmetry_equiv_pos_site_id
 _symmetry_equiv_pos_as_xyz
  1  'x, y, z'
loop_
 _atom_site_type_symbol
 _atom_site_label
 _atom_site_symmetry_multiplicity
 _atom_site_fract_x
 _atom_site_fract_y
 _atom_site_fract_z
 _atom_site_occupancy
  Zr  Zr0  1  0.75000000  0.45945100  0.17067500  1
  Zr  Zr1  1  0.75000000  0.95945100  0.32932500  1
  Zr  Zr2  1  0.25000000  0.54054900  0.82932500  1
  Zr  Zr3  1  0.25000000  0.04054900  0.67067500  1
  Cr  Cr0  1  0.75000000  0.37762500  0.55824500  1
  Cr  Cr1  1  0.75000000  0.87762500  0.94175500  1
  Cr  Cr2  1  0.25000000  0.62237500  0.44175500  1
  Cr  Cr3  1  0.25000000  0.12237500  0.05824500  1
  Si  Si0  1  0.75000000  0.23891700  0.86743600  1
  Si  Si1  1  0.75000000  0.73891700  0.63256400  1
  Si  Si2  1  0.25000000  0.76108300  0.13256400  1
  Si  Si3  1  0.25000000  0.26108300  0.36743600  1
loop_
_geom_bond_atom_site_label_1
_geom_bond_atom_site_label_2
_geom_bond_distance
_geom_bond_site_symmetry_2
Cr0 Si3 2.445401 1_655
Cr0 Si3 2.445401 1_555
Cr0 Si1 2.504915 1_555
Cr0 Si0 2.612060 1_555
Cr1 Si2 2.445401 1_556
Cr1 Si2 2.445401 1_656
Cr1 Si0 2.504915 1_565
Cr1 Si1 2.612060 1_555
Cr2 Si1 2.445401 1_555
Cr2 Si1 2.445401 1_455
Cr2 Si3 2.504915 1_555
Cr2 Si2 2.612060 1_555
Cr3 Si0 2.445401 1_554
Cr3 Si0 2.445401 1_454
Cr3 Si2 2.504915 1_545
Cr3 Si3 2.612060 1_555
Si0 Zr3 2.700802 1_655
Si0 Zr3 2.700802 1_555
Si0 Zr2 2.705854 1_555
Si0 Zr2 2.705854 1_655
Si0 Zr0 2.816320 1_556
Si1 Zr2 2.700802 1_555
Si1 Zr2 2.700802 1_655
Si1 Zr3 2.705854 1_665
Si1 Zr3 2.705854 1_565
Si1 Zr1 2.816320 1_555
Si2 Zr1 2.700802 1_555
Si2 Zr1 2.700802 1_455
Si2 Zr0 2.705854 1_455
Si2 Zr0 2.705854 1_555
Si2 Zr2 2.816320 1_554
Si3 Zr0 2.700802 1_455
Si3 Zr0 2.700802 1_555
Si3 Zr1 2.705854 1_445
Si3 Zr1 2.705854 1_545
Si3 Zr3 2.816320 1_555
