# generated using pymatgen
data_TiNb(PO4)3
_symmetry_space_group_name_H-M   'P 1'
_cell_length_a   8.94924640
_cell_length_b   8.94924640
_cell_length_c   8.94924567
_cell_angle_alpha   58.41166844
_cell_angle_beta   58.41166844
_cell_angle_gamma   58.41167223
_symmetry_Int_Tables_number   1
_chemical_formula_structural   TiNb(PO4)3
_chemical_formula_sum   'Ti2 Nb2 P6 O24'
_cell_volume   488.38534133
_cell_formula_units_Z   2
loop_
 _symmetry_equiv_pos_site_id
 _symmetry_equiv_pos_as_xyz
  1  'x, y, z'
loop_
 _atom_site_type_symbol
 _atom_site_label
 _atom_site_symmetry_multiplicity
 _atom_site_fract_x
 _atom_site_fract_y
 _atom_site_fract_z
 _atom_site_occupancy
  Ti  Ti0  1  0.35863700  0.35863700  0.35863700  1
  Ti  Ti1  1  0.85863700  0.85863700  0.85863700  1
  Nb  Nb0  1  0.63997500  0.63997500  0.63997500  1
  Nb  Nb1  1  0.13997500  0.13997500  0.13997500  1
  P  P0  1  0.97194500  0.53634700  0.24392800  1
  P  P1  1  0.24392800  0.97194500  0.53634700  1
  P  P2  1  0.53634700  0.24392800  0.97194500  1
  P  P3  1  0.74392800  0.03634700  0.47194500  1
  P  P4  1  0.47194500  0.74392800  0.03634700  1
  P  P5  1  0.03634700  0.47194500  0.74392800  1
  O  O0  1  0.13906000  0.50341300  0.27719000  1
  O  O1  1  0.27719000  0.13906000  0.50341300  1
  O  O2  1  0.50341300  0.27719000  0.13906000  1
  O  O3  1  0.77719000  0.00341300  0.63906000  1
  O  O4  1  0.63906000  0.77719000  0.00341300  1
  O  O5  1  0.00341300  0.63906000  0.77719000  1
  O  O6  1  0.86363100  0.49719800  0.72072100  1
  O  O7  1  0.72072100  0.86363100  0.49719800  1
  O  O8  1  0.49719800  0.72072100  0.86363100  1
  O  O9  1  0.22072100  0.99719800  0.36363100  1
  O  O10  1  0.36363100  0.22072100  0.99719800  1
  O  O11  1  0.99719800  0.36363100  0.22072100  1
  O  O12  1  0.21119400  0.43795800  0.57437900  1
  O  O13  1  0.57437900  0.21119400  0.43795800  1
  O  O14  1  0.43795800  0.57437900  0.21119400  1
  O  O15  1  0.07437900  0.93795800  0.71119400  1
  O  O16  1  0.71119400  0.07437900  0.93795800  1
  O  O17  1  0.93795800  0.71119400  0.07437900  1
  O  O18  1  0.79246400  0.56300200  0.41896000  1
  O  O19  1  0.41896000  0.79246400  0.56300200  1
  O  O20  1  0.56300200  0.41896000  0.79246400  1
  O  O21  1  0.91896000  0.06300200  0.29246400  1
  O  O22  1  0.29246400  0.91896000  0.06300200  1
  O  O23  1  0.06300200  0.29246400  0.91896000  1
loop_
_geom_bond_atom_site_label_1
_geom_bond_atom_site_label_2
_geom_bond_distance
_geom_bond_site_symmetry_2
Nb0 O18 1.965655 1_555
Nb0 O20 1.965655 1_555
Nb0 O19 1.965655 1_555
Nb0 O8 2.007409 1_555
Nb0 O7 2.007409 1_555
Nb0 O6 2.007409 1_555
Nb1 O23 1.965655 1_554
Nb1 O21 1.965655 1_455
Nb1 O22 1.965655 1_545
Nb1 O9 2.007409 1_545
Nb1 O10 2.007409 1_554
Nb1 O11 2.007409 1_455
O0 P0 1.524743 1_455
O0 Ti0 1.978710 1_555
O1 P1 1.524743 1_545
O1 Ti0 1.978710 1_555
O2 P2 1.524743 1_554
O2 Ti0 1.978710 1_555
O3 P3 1.524743 1_555
O3 Ti1 1.978710 1_545
O4 P4 1.524743 1_555
O4 Ti1 1.978710 1_554
O5 P5 1.524743 1_555
O5 Ti1 1.978710 1_455
O6 P5 1.550647 1_655
O7 P3 1.550647 1_565
O8 P4 1.550647 1_556
O9 P1 1.550647 1_555
O10 P2 1.550647 1_555
O11 P0 1.550647 1_555
O12 P5 1.529977 1_555
O12 Ti0 1.938640 1_555
O13 P3 1.529977 1_555
O13 Ti0 1.938640 1_555
O14 P4 1.529977 1_555
O14 Ti0 1.938640 1_555
O15 P1 1.529977 1_555
O15 Ti1 1.938640 1_455
O16 P2 1.529977 1_555
O16 Ti1 1.938640 1_545
O17 P0 1.529977 1_555
O17 Ti1 1.938640 1_554
O18 P0 1.563555 1_555
O19 P1 1.563555 1_555
O20 P2 1.563555 1_555
O21 P3 1.563555 1_555
O22 P4 1.563555 1_555
O23 P5 1.563555 1_555
