# generated using pymatgen
data_Ba3Sr(CoO3)4
_symmetry_space_group_name_H-M   'P 1'
_cell_length_a   4.83048451
_cell_length_b   5.67418750
_cell_length_c   9.82093458
_cell_angle_alpha   90.01854061
_cell_angle_beta   89.94997641
_cell_angle_gamma   89.53080348
_symmetry_Int_Tables_number   1
_chemical_formula_structural   Ba3Sr(CoO3)4
_chemical_formula_sum   'Ba3 Sr1 Co4 O12'
_cell_volume   269.17358785
_cell_formula_units_Z   1
loop_
 _symmetry_equiv_pos_site_id
 _symmetry_equiv_pos_as_xyz
  1  'x, y, z'
loop_
 _atom_site_type_symbol
 _atom_site_label
 _atom_site_symmetry_multiplicity
 _atom_site_fract_x
 _atom_site_fract_y
 _atom_site_fract_z
 _atom_site_occupancy
  Ba  Ba0  1  0.25039900  0.99949300  0.66688400  1
  Ba  Ba1  1  0.74890300  0.00060800  0.33149800  1
  Ba  Ba2  1  0.75040200  0.49986500  0.83509900  1
  Sr  Sr0  1  0.24638700  0.50033500  0.16814100  1
  Co  Co0  1  0.00040400  0.99993800  0.00372600  1
  Co  Co1  1  0.99982000  0.50011800  0.49603300  1
  Co  Co2  1  0.50059800  0.00010300  0.00385400  1
  Co  Co3  1  0.50016400  0.49996400  0.49596000  1
  O  O0  1  0.75041900  0.50033800  0.34552000  1
  O  O1  1  0.74559600  0.99996700  0.85409400  1
  O  O2  1  0.25463000  0.99935300  0.15242200  1
  O  O3  1  0.24984800  0.49975600  0.64661500  1
  O  O4  1  0.76532200  0.77818500  0.07635900  1
  O  O5  1  0.74024300  0.22511600  0.07644400  1
  O  O6  1  0.74803500  0.27994800  0.57075000  1
  O  O7  1  0.75167900  0.72003600  0.57087400  1
  O  O8  1  0.25177600  0.71853900  0.42034800  1
  O  O9  1  0.24833900  0.28164000  0.42011500  1
  O  O10  1  0.23791100  0.22337000  0.93256300  1
  O  O11  1  0.25912400  0.77332300  0.93270100  1
loop_
_geom_bond_atom_site_label_1
_geom_bond_atom_site_label_2
_geom_bond_distance
_geom_bond_site_symmetry_2
Ba0 O3 2.842539 1_555
Ba0 O3 2.845601 1_565
Ba0 O8 2.898456 1_555
Ba0 O10 2.902014 1_565
Ba0 O9 2.904963 1_565
Ba0 O11 2.909514 1_555
Ba0 O1 3.018280 1_555
Ba0 O7 3.032978 1_555
Ba0 O6 3.042071 1_465
Ba0 O6 3.043322 1_565
Ba0 O7 3.045098 1_455
Ba0 O1 3.052612 1_455
Ba1 O4 2.805998 1_545
Ba1 O5 2.810750 1_555
Ba1 O6 2.833863 1_555
Ba1 O0 2.838929 1_555
Ba1 O7 2.839638 1_545
Ba1 O0 2.841958 1_545
Ba1 O2 2.966679 1_545
Ba1 O2 3.008829 1_645
Ba1 O9 3.013155 1_555
Ba1 O8 3.024863 1_545
Ba1 O8 3.027311 1_645
Ba1 O9 3.030888 1_655
Ba2 O5 2.838004 1_556
Ba2 O1 2.842986 1_545
Ba2 O1 2.843641 1_555
Ba2 O4 2.848330 1_556
Ba2 O6 2.880185 1_555
Ba2 O7 2.880392 1_555
Ba2 O10 2.977848 1_655
Ba2 O11 2.982087 1_555
Ba2 O3 3.039602 1_655
Ba2 O3 3.046424 1_555
Ba2 O11 3.070947 1_655
Ba2 O10 3.092983 1_555
Co0 O4 1.845030 1_455
Co0 O10 1.853370 1_564
Co0 O2 1.908854 1_555
Co0 O11 1.916615 1_554
Co0 O1 1.917719 1_454
Co0 O5 1.921821 1_465
Co1 O9 1.872780 1_655
Co1 O7 1.872831 1_555
Co1 O8 1.895650 1_655
Co1 O6 1.897981 1_555
Co1 O0 1.907739 1_555
Co1 O3 1.910177 1_655
Co2 O5 1.871753 1_555
Co2 O11 1.878866 1_544
Co2 O2 1.880869 1_545
Co2 O1 1.886988 1_544
Co2 O10 1.918607 1_554
Co2 O4 1.924480 1_545
Co3 O8 1.872697 1_555
Co3 O6 1.873312 1_555
Co3 O9 1.896013 1_555
Co3 O7 1.898028 1_555
Co3 O0 1.908179 1_555
Co3 O3 1.909994 1_555
O0 Sr0 2.960923 1_655
O0 Sr0 2.994983 1_555
O2 Sr0 2.836380 1_555
O2 Sr0 2.846756 1_565
O4 Sr0 2.939829 1_655
O4 Sr0 3.105376 1_555
O5 Sr0 2.979087 1_555
O5 Sr0 3.048414 1_655
O8 Sr0 2.769003 1_555
O9 Sr0 2.768672 1_555
O10 Sr0 2.796970 1_556
O11 Sr0 2.784462 1_556
