# generated using pymatgen
data_CaAl2(SiO3)4
_symmetry_space_group_name_H-M   'P 1'
_cell_length_a   5.11792157
_cell_length_b   5.10033807
_cell_length_c   18.69499301
_cell_angle_alpha   87.42036100
_cell_angle_beta   84.85327707
_cell_angle_gamma   59.88589726
_symmetry_Int_Tables_number   1
_chemical_formula_structural   CaAl2(SiO3)4
_chemical_formula_sum   'Ca2 Al4 Si8 O24'
_cell_volume   420.42983745
_cell_formula_units_Z   2
loop_
 _symmetry_equiv_pos_site_id
 _symmetry_equiv_pos_as_xyz
  1  'x, y, z'
loop_
 _atom_site_type_symbol
 _atom_site_label
 _atom_site_symmetry_multiplicity
 _atom_site_fract_x
 _atom_site_fract_y
 _atom_site_fract_z
 _atom_site_occupancy
  Ca  Ca0  1  0.10012400  0.79975200  0.75000000  1
  Ca  Ca1  1  0.89987600  0.20024800  0.25000000  1
  Al  Al0  1  0.29486600  0.85331200  0.99946600  1
  Al  Al1  1  0.70513400  0.14668800  0.00053400  1
  Al  Al2  1  0.85182200  0.85331200  0.50053400  1
  Al  Al3  1  0.14817800  0.14668800  0.49946600  1
  Si  Si0  1  0.72018100  0.46914300  0.86312000  1
  Si  Si1  1  0.27981900  0.53085700  0.13688000  1
  Si  Si2  1  0.81067500  0.46914300  0.63688000  1
  Si  Si3  1  0.18932500  0.53085700  0.36312000  1
  Si  Si4  1  0.47436000  0.13848900  0.63794100  1
  Si  Si5  1  0.52564000  0.86151100  0.36205900  1
  Si  Si6  1  0.38715100  0.13848900  0.86205900  1
  Si  Si7  1  0.61284900  0.86151100  0.13794100  1
  O  O0  1  0.04246300  0.93715900  0.56819100  1
  O  O1  1  0.95753700  0.06284100  0.43180900  1
  O  O2  1  0.02037800  0.93715900  0.93180900  1
  O  O3  1  0.97962200  0.06284100  0.06819100  1
  O  O4  1  0.54886000  0.38776500  0.67256900  1
  O  O5  1  0.45114000  0.61223500  0.32743100  1
  O  O6  1  0.06337500  0.38776500  0.82743100  1
  O  O7  1  0.93662500  0.61223500  0.17256900  1
  O  O8  1  0.62312400  0.25132900  0.82085000  1
  O  O9  1  0.37687500  0.74867100  0.17915000  1
  O  O10  1  0.12554600  0.25132900  0.67915000  1
  O  O11  1  0.87445400  0.74867100  0.32085000  1
  O  O12  1  0.63901200  0.51960300  0.94692100  1
  O  O13  1  0.36098800  0.48039700  0.05307900  1
  O  O14  1  0.84138500  0.51960300  0.55307900  1
  O  O15  1  0.15861500  0.48039700  0.44692100  1
  O  O16  1  0.46062900  0.14030300  0.55369200  1
  O  O17  1  0.53937100  0.85969700  0.44630800  1
  O  O18  1  0.39906800  0.14030300  0.94630800  1
  O  O19  1  0.60093200  0.85969700  0.05369200  1
  O  O20  1  0.50580000  0.80744600  0.82229800  1
  O  O21  1  0.49420000  0.19255400  0.17770200  1
  O  O22  1  0.68675400  0.80744600  0.67770200  1
  O  O23  1  0.31324600  0.19255400  0.32229800  1
loop_
_geom_bond_atom_site_label_1
_geom_bond_atom_site_label_2
_geom_bond_distance
_geom_bond_site_symmetry_2
Ca0 O6 2.572956 1_555
Ca0 O4 2.572956 1_555
Ca0 O20 2.594047 1_555
Ca0 O22 2.594047 1_455
Ca0 O10 2.659175 1_565
Ca0 O8 2.659178 1_465
Ca1 O7 2.572956 1_555
Ca1 O5 2.572956 1_555
Ca1 O21 2.594047 1_555
Ca1 O23 2.594047 1_655
Ca1 O11 2.659175 1_545
Ca1 O9 2.659176 1_645
Al0 O3 1.848621 1_466
Al0 O2 1.850264 1_555
Al0 O12 1.948342 1_555
Al0 O19 1.954865 1_556
Al0 O18 1.992954 1_565
Al0 O13 1.995012 1_556
Al1 O2 1.848621 1_644
Al1 O3 1.850264 1_555
Al1 O13 1.948342 1_555
Al1 O18 1.954865 1_554
Al1 O19 1.992954 1_545
Al1 O12 1.995012 1_554
Al2 O1 1.848621 1_565
Al2 O0 1.850264 1_655
Al2 O14 1.948342 1_555
Al2 O17 1.954865 1_555
Al2 O16 1.992955 1_565
Al2 O15 1.995013 1_655
Al3 O0 1.848621 1_545
Al3 O1 1.850264 1_455
Al3 O15 1.948342 1_555
Al3 O16 1.954865 1_555
Al3 O17 1.992955 1_545
Al3 O14 1.995013 1_455
O4 Si2 1.669024 1_555
O4 Si4 1.669045 1_555
O5 Si3 1.669024 1_555
O5 Si5 1.669045 1_555
O6 Si0 1.669028 1_455
O6 Si6 1.669045 1_555
O7 Si1 1.669028 1_655
O7 Si7 1.669045 1_555
O8 Si0 1.675874 1_555
O8 Si6 1.695250 1_555
O9 Si1 1.675870 1_555
O9 Si7 1.695255 1_555
O10 Si2 1.675874 1_455
O10 Si4 1.695255 1_555
O11 Si3 1.675874 1_655
O11 Si5 1.695255 1_555
O12 Si0 1.582869 1_555
O13 Si1 1.582869 1_555
O14 Si2 1.582870 1_555
O15 Si3 1.582870 1_555
O16 Si4 1.582293 1_555
O17 Si5 1.582293 1_555
O18 Si6 1.582293 1_555
O19 Si7 1.582293 1_555
O20 Si6 1.665911 1_565
O20 Si0 1.701608 1_555
O21 Si7 1.665911 1_545
O21 Si1 1.701608 1_555
O22 Si4 1.665911 1_565
O22 Si2 1.701609 1_555
O23 Si5 1.665911 1_545
O23 Si3 1.701609 1_555
