# generated using pymatgen
data_MgMn2O4
_symmetry_space_group_name_H-M   'P 1'
_cell_length_a   6.06456495
_cell_length_b   6.06456495
_cell_length_c   6.06456495
_cell_angle_alpha   120.42899875
_cell_angle_beta   120.42568945
_cell_angle_gamma   89.26139842
_symmetry_Int_Tables_number   1
_chemical_formula_structural   MgMn2O4
_chemical_formula_sum   'Mg2 Mn4 O8'
_cell_volume   156.68610971
_cell_formula_units_Z   2
loop_
 _symmetry_equiv_pos_site_id
 _symmetry_equiv_pos_as_xyz
  1  'x, y, z'
loop_
 _atom_site_type_symbol
 _atom_site_label
 _atom_site_symmetry_multiplicity
 _atom_site_fract_x
 _atom_site_fract_y
 _atom_site_fract_z
 _atom_site_occupancy
  Mg  Mg0  1  0.00000000  0.00000000  0.50000000  1
  Mg  Mg1  1  0.00000000  0.50000000  0.00000000  1
  Mn  Mn0  1  0.61263800  0.86263800  0.75000000  1
  Mn  Mn1  1  0.38736200  0.13736200  0.25000000  1
  Mn  Mn2  1  0.50000000  0.50000000  0.00000000  1
  Mn  Mn3  1  0.00000000  0.50000000  0.50000000  1
  O  O0  1  0.25499200  0.27491100  0.98008100  1
  O  O1  1  0.24744500  0.27800700  0.53056200  1
  O  O2  1  0.79483000  0.27491100  0.51991900  1
  O  O3  1  0.24744500  0.71688300  0.96943800  1
  O  O4  1  0.75255500  0.28311700  0.03056200  1
  O  O5  1  0.75255500  0.72199300  0.46943800  1
  O  O6  1  0.20517000  0.72508900  0.48008100  1
  O  O7  1  0.74500800  0.72508900  0.01991900  1
loop_
_geom_bond_atom_site_label_1
_geom_bond_atom_site_label_2
_geom_bond_distance
_geom_bond_site_symmetry_2
Mg0 O2 2.058434 1_455
Mg0 O0 2.058434 1_555
Mg0 O7 2.058434 1_445
Mg0 O6 2.058434 1_545
Mg0 O5 2.143792 1_445
Mg0 O1 2.143792 1_555
Mg1 O2 2.058434 1_454
Mg1 O6 2.058434 1_555
Mg1 O7 2.058434 1_455
Mg1 O0 2.058434 1_554
Mg1 O3 2.143792 1_554
Mg1 O4 2.143792 1_455
Mn0 O6 2.013654 1_555
Mn0 O7 2.013654 1_556
Mn0 O4 2.077542 1_566
Mn0 O5 2.077542 1_555
Mn1 O0 2.013654 1_554
Mn1 O2 2.013654 1_555
Mn1 O3 2.077542 1_544
Mn1 O1 2.077542 1_555
Mn2 O7 1.946603 1_555
Mn2 O0 1.946603 1_554
Mn2 O5 2.004434 1_555
Mn2 O3 2.004434 1_554
Mn2 O4 2.004434 1_555
Mn2 O1 2.004434 1_554
Mn3 O6 1.946603 1_555
Mn3 O2 1.946603 1_455
Mn3 O3 2.004434 1_555
Mn3 O1 2.004434 1_555
Mn3 O4 2.004434 1_455
Mn3 O5 2.004434 1_455
