# generated using pymatgen
data_Li(FeO2)2
_symmetry_space_group_name_H-M   'P 1'
_cell_length_a   8.42399187
_cell_length_b   8.42399187
_cell_length_c   8.42399181
_cell_angle_alpha   90.05855320
_cell_angle_beta   90.05855320
_cell_angle_gamma   90.05855909
_symmetry_Int_Tables_number   1
_chemical_formula_structural   Li(FeO2)2
_chemical_formula_sum   'Li8 Fe16 O32'
_cell_volume   597.79617692
_cell_formula_units_Z   8
loop_
 _symmetry_equiv_pos_site_id
 _symmetry_equiv_pos_as_xyz
  1  'x, y, z'
loop_
 _atom_site_type_symbol
 _atom_site_label
 _atom_site_symmetry_multiplicity
 _atom_site_fract_x
 _atom_site_fract_y
 _atom_site_fract_z
 _atom_site_occupancy
  Li  Li0  1  0.87944600  0.87944600  0.87944600  1
  Li  Li1  1  0.75218700  0.74863000  0.25335800  1
  Li  Li2  1  0.74863000  0.25335800  0.75218700  1
  Li  Li3  1  0.62282100  0.12525200  0.37845000  1
  Li  Li4  1  0.37845000  0.62282100  0.12525200  1
  Li  Li5  1  0.25335800  0.75218700  0.74863000  1
  Li  Li6  1  0.25158500  0.25158500  0.25158500  1
  Li  Li7  1  0.12525200  0.37845000  0.62282100  1
  Fe  Fe0  1  0.00074200  0.49530500  0.00757200  1
  Fe  Fe1  1  0.88712200  0.62236300  0.63118400  1
  Fe  Fe2  1  0.88021000  0.37495800  0.38781800  1
  Fe  Fe3  1  0.87843100  0.11641800  0.12523400  1
  Fe  Fe4  1  0.63118400  0.88712200  0.62236300  1
  Fe  Fe5  1  0.62236300  0.63118400  0.88712200  1
  Fe  Fe6  1  0.61718000  0.37807700  0.12876300  1
  Fe  Fe7  1  0.50438100  0.50438100  0.50438100  1
  Fe  Fe8  1  0.49530500  0.00757200  0.00074200  1
  Fe  Fe9  1  0.38781800  0.88021000  0.37495800  1
  Fe  Fe10  1  0.37807700  0.12876300  0.61718000  1
  Fe  Fe11  1  0.37495800  0.38781800  0.88021000  1
  Fe  Fe12  1  0.12876300  0.61718000  0.37807700  1
  Fe  Fe13  1  0.12523400  0.87843100  0.11641800  1
  Fe  Fe14  1  0.11641800  0.12523400  0.87843100  1
  Fe  Fe15  1  0.00757200  0.00074200  0.49530500  1
  O  O0  1  0.89523200  0.12750500  0.89079900  1
  O  O1  1  0.89079900  0.89523200  0.12750500  1
  O  O2  1  0.88882500  0.61299300  0.39015200  1
  O  O3  1  0.87735800  0.38718200  0.61036000  1
  O  O4  1  0.88163100  0.13772000  0.36927300  1
  O  O5  1  0.86365800  0.36300900  0.14146300  1
  O  O6  1  0.87242700  0.62107300  0.86877400  1
  O  O7  1  0.86877400  0.87242700  0.62107300  1
  O  O8  1  0.63673100  0.14042300  0.12627300  1
  O  O9  1  0.63697700  0.38016700  0.36451600  1
  O  O10  1  0.63801000  0.63801000  0.63801000  1
  O  O11  1  0.62107300  0.86877400  0.87242700  1
  O  O12  1  0.62563000  0.60278100  0.11625100  1
  O  O13  1  0.61299300  0.39015200  0.88882500  1
  O  O14  1  0.60278100  0.11625100  0.62563000  1
  O  O15  1  0.61036000  0.87735800  0.38718200  1
  O  O16  1  0.39597200  0.37317300  0.11632500  1
  O  O17  1  0.38718200  0.61036000  0.87735800  1
  O  O18  1  0.39015200  0.88882500  0.61299300  1
  O  O19  1  0.37317300  0.11632500  0.39597200  1
  O  O20  1  0.38016700  0.36451600  0.63697700  1
  O  O21  1  0.36300900  0.14146300  0.86365800  1
  O  O22  1  0.36927300  0.88163100  0.13772000  1
  O  O23  1  0.36451600  0.63697700  0.38016700  1
  O  O24  1  0.13772000  0.36927300  0.88163100  1
  O  O25  1  0.14042300  0.12627300  0.63673100  1
  O  O26  1  0.14146300  0.86365800  0.36300900  1
  O  O27  1  0.12627300  0.63673100  0.14042300  1
  O  O28  1  0.12750500  0.89079900  0.89523200  1
  O  O29  1  0.11663300  0.11663300  0.11663300  1
  O  O30  1  0.11632500  0.39597200  0.37317300  1
  O  O31  1  0.11625100  0.62563000  0.60278100  1
loop_
_geom_bond_atom_site_label_1
_geom_bond_atom_site_label_2
_geom_bond_distance
_geom_bond_site_symmetry_2
Li0 O1 2.095818 1_556
Li0 O0 2.095818 1_565
Li0 O28 2.095818 1_655
Li0 O7 2.179036 1_555
Li0 O11 2.179036 1_555
Li0 O6 2.179036 1_555
Li1 O15 1.969045 1_555
Li1 O2 1.990230 1_555
Li1 O12 1.992997 1_555
Li1 O1 2.003710 1_555
Li2 O3 1.969045 1_555
Li2 O13 1.990230 1_555
Li2 O14 1.992997 1_555
Li2 O0 2.003711 1_555
Li3 O14 2.090693 1_555
Li3 O15 2.092159 1_545
Li3 O19 2.109626 1_555
Li3 O8 2.131644 1_555
Li3 O9 2.153916 1_555
Li3 O4 2.184086 1_555
Li4 O12 2.090693 1_555
Li4 O17 2.092159 1_554
Li4 O16 2.109626 1_555
Li4 O27 2.131644 1_555
Li4 O23 2.153916 1_555
Li4 O22 2.184086 1_555
Li5 O17 1.969045 1_555
Li5 O18 1.990230 1_555
Li5 O31 1.992997 1_555
Li5 O28 2.003711 1_555
Li6 O16 1.956909 1_555
Li6 O19 1.956909 1_555
Li6 O30 1.956909 1_555
Li6 O29 1.967042 1_555
Li7 O31 2.090693 1_555
Li7 O3 2.092159 1_455
Li7 O30 2.109626 1_555
Li7 O25 2.131644 1_555
Li7 O20 2.153916 1_555
Li7 O24 2.184086 1_555
Fe0 O24 1.893924 1_554
Fe0 O6 1.913183 1_454
Fe0 O27 1.944829 1_555
Fe0 O5 1.962224 1_455
Fe1 O31 1.945367 1_655
Fe1 O3 1.990344 1_555
Fe1 O6 2.005447 1_555
Fe1 O2 2.031971 1_555
Fe1 O10 2.103628 1_555
Fe1 O7 2.114154 1_555
Fe2 O3 1.877593 1_555
Fe2 O30 2.000657 1_655
Fe2 O4 2.004477 1_555
Fe2 O2 2.006519 1_555
Fe2 O9 2.058691 1_555
Fe2 O5 2.082154 1_555
Fe3 O1 1.866403 1_545
Fe3 O0 1.982377 1_554
Fe3 O29 2.007992 1_655
Fe3 O8 2.046328 1_555
Fe3 O4 2.063563 1_555
Fe3 O5 2.085487 1_555
Fe4 O14 1.945367 1_565
Fe4 O15 1.990344 1_555
Fe4 O7 2.005447 1_555
Fe4 O18 2.031971 1_555
Fe4 O10 2.103628 1_555
Fe4 O11 2.114154 1_555
Fe5 O12 1.945367 1_556
Fe5 O17 1.990344 1_555
Fe5 O11 2.005447 1_555
Fe5 O13 2.031971 1_555
Fe5 O10 2.103628 1_555
Fe5 O6 2.114154 1_555
Fe6 O16 1.866704 1_555
Fe6 O12 1.897212 1_555
Fe6 O9 1.992860 1_555
Fe6 O8 2.009016 1_555
Fe6 O13 2.024171 1_554
Fe6 O5 2.082981 1_555
Fe7 O20 1.932183 1_555
Fe7 O9 1.932183 1_555
Fe7 O23 1.932183 1_555
Fe7 O10 1.947758 1_555
Fe8 O22 1.893924 1_545
Fe8 O11 1.913183 1_544
Fe8 O8 1.944829 1_555
Fe8 O21 1.962224 1_554
Fe9 O15 1.877593 1_555
Fe9 O19 2.000657 1_565
Fe9 O22 2.004477 1_555
Fe9 O18 2.006519 1_555
Fe9 O23 2.058691 1_555
Fe9 O26 2.082154 1_555
Fe10 O19 1.866703 1_555
Fe10 O14 1.897212 1_555
Fe10 O20 1.992860 1_555
Fe10 O25 2.009016 1_555
Fe10 O18 2.024171 1_545
Fe10 O21 2.082981 1_555
Fe11 O17 1.877593 1_555
Fe11 O16 2.000657 1_556
Fe11 O24 2.004477 1_555
Fe11 O13 2.006519 1_555
Fe11 O20 2.058691 1_555
Fe11 O21 2.082154 1_555
Fe12 O30 1.866703 1_555
Fe12 O31 1.897212 1_555
Fe12 O23 1.992860 1_555
Fe12 O27 2.009016 1_555
Fe12 O2 2.024171 1_455
Fe12 O26 2.082981 1_555
Fe13 O28 1.866402 1_554
Fe13 O1 1.982378 1_455
Fe13 O29 2.007992 1_565
Fe13 O27 2.046328 1_555
Fe13 O22 2.063563 1_555
Fe13 O26 2.085487 1_555
Fe14 O0 1.866403 1_455
Fe14 O28 1.982378 1_545
Fe14 O29 2.007992 1_556
Fe14 O25 2.046328 1_555
Fe14 O24 2.063563 1_555
Fe14 O21 2.085487 1_555
Fe15 O4 1.893924 1_455
Fe15 O7 1.913182 1_445
Fe15 O25 1.944829 1_555
Fe15 O26 1.962224 1_545
