# generated using pymatgen
data_LaAgPb
_symmetry_space_group_name_H-M   'P 1'
_cell_length_a   4.90671628
_cell_length_b   4.90671724
_cell_length_c   7.94220908
_cell_angle_alpha   90.00000000
_cell_angle_beta   90.00000000
_cell_angle_gamma   120.00000041
_symmetry_Int_Tables_number   1
_chemical_formula_structural   LaAgPb
_chemical_formula_sum   'La2 Ag2 Pb2'
_cell_volume   165.59755629
_cell_formula_units_Z   2
loop_
 _symmetry_equiv_pos_site_id
 _symmetry_equiv_pos_as_xyz
  1  'x, y, z'
loop_
 _atom_site_type_symbol
 _atom_site_label
 _atom_site_symmetry_multiplicity
 _atom_site_fract_x
 _atom_site_fract_y
 _atom_site_fract_z
 _atom_site_occupancy
  La  La0  1  -0.00000000  -0.00000000  0.01223122  1
  La  La1  1  -0.00000000  -0.00000000  0.51223122  1
  Ag  Ag0  1  0.66666700  0.33333300  0.31559698  1
  Ag  Ag1  1  0.33333300  0.66666700  0.81559698  1
  Pb  Pb0  1  0.33333300  0.66666700  0.22917279  1
  Pb  Pb1  1  0.66666700  0.33333300  0.72917279  1
loop_
_geom_bond_atom_site_label_1
_geom_bond_atom_site_label_2
_geom_bond_distance
_geom_bond_site_symmetry_2
La0 Pb0 3.315718 1_545
La0 Pb0 3.315721 1_445
La0 Pb0 3.315722 1_555
La0 Pb1 3.616527 1_454
La0 Pb1 3.616530 1_554
La0 Pb1 3.616531 1_444
La0 La1 3.971105 1_555
La0 La1 3.971105 1_554
La1 Pb1 3.315718 1_455
La1 Pb1 3.315721 1_555
La1 Pb1 3.315722 1_445
La1 Pb0 3.616527 1_545
La1 Pb0 3.616530 1_445
La1 Pb0 3.616531 1_555
Ag0 Pb0 2.914861 1_655
Ag0 Pb0 2.914862 1_545
Ag0 Pb0 2.914870 1_555
Ag0 La1 3.234844 1_655
Ag0 La1 3.234847 1_555
Ag0 La1 3.234847 1_665
Ag0 Pb1 3.284706 1_555
Ag0 La0 3.718932 1_655
Ag0 La0 3.718935 1_555
Ag0 La0 3.718935 1_665
Ag1 Pb1 2.914861 1_455
Ag1 Pb1 2.914862 1_565
Ag1 Pb1 2.914870 1_555
Ag1 La0 3.234844 1_566
Ag1 La0 3.234847 1_666
Ag1 La0 3.234847 1_556
Ag1 Pb0 3.284706 1_556
Ag1 La1 3.718932 1_565
Ag1 La1 3.718935 1_665
Ag1 La1 3.718935 1_555
