# generated using pymatgen
data_SrEuHf4O12
_symmetry_space_group_name_H-M   'P 1'
_cell_length_a   5.73773438
_cell_length_b   5.73773438
_cell_length_c   8.14694123
_cell_angle_alpha   90.00000000
_cell_angle_beta   90.00000000
_cell_angle_gamma   90.69510014
_symmetry_Int_Tables_number   1
_chemical_formula_structural   SrEuHf4O12
_chemical_formula_sum   'Sr1 Eu1 Hf4 O12'
_cell_volume   268.19056870
_cell_formula_units_Z   1
loop_
 _symmetry_equiv_pos_site_id
 _symmetry_equiv_pos_as_xyz
  1  'x, y, z'
loop_
 _atom_site_type_symbol
 _atom_site_label
 _atom_site_symmetry_multiplicity
 _atom_site_fract_x
 _atom_site_fract_y
 _atom_site_fract_z
 _atom_site_occupancy
  Sr  Sr0  1  0.01486280  0.98513720  0.50000000  1
  Eu  Eu0  1  0.48949734  0.51050266  0.00000000  1
  Hf  Hf0  1  0.50609437  0.00710018  0.25114393  1
  Hf  Hf1  1  0.50609437  0.00710018  0.74885607  1
  Hf  Hf2  1  0.99289982  0.49390563  0.74885607  1
  Hf  Hf3  1  0.99289982  0.49390563  0.25114393  1
  O  O0  1  0.29472564  0.29810297  0.22947116  1
  O  O1  1  0.70189703  0.70527436  0.22947116  1
  O  O2  1  0.70189703  0.70527436  0.77052884  1
  O  O3  1  0.29472564  0.29810297  0.77052884  1
  O  O4  1  0.22366152  0.77633848  0.21154916  1
  O  O5  1  0.79637888  0.20362112  0.29188910  1
  O  O6  1  0.79637888  0.20362112  0.70811090  1
  O  O7  1  0.22366152  0.77633848  0.78845084  1
  O  O8  1  0.53633478  0.05363076  0.00000000  1
  O  O9  1  0.45197015  0.97564883  0.50000000  1
  O  O10  1  0.94636924  0.46366522  -0.00000000  1
  O  O11  1  0.02435117  0.54802985  0.50000000  1
loop_
_geom_bond_atom_site_label_1
_geom_bond_atom_site_label_2
_geom_bond_distance
_geom_bond_site_symmetry_2
Eu0 O3 2.489190 1_554
Eu0 O0 2.489190 1_555
Eu0 O1 2.489190 1_555
Eu0 O2 2.489190 1_554
Eu0 O8 2.638390 1_555
Eu0 O10 2.638390 1_555
Eu0 O4 2.771259 1_555
Eu0 O7 2.771259 1_554
Hf0 O5 2.027366 1_555
Hf0 O9 2.058655 1_545
Hf0 O8 2.070411 1_555
Hf0 O0 2.083032 1_555
Hf0 O1 2.083188 1_545
Hf0 O4 2.105042 1_545
Hf1 O6 2.027366 1_555
Hf1 O9 2.058655 1_545
Hf1 O8 2.070411 1_556
Hf1 O3 2.083032 1_555
Hf1 O2 2.083188 1_545
Hf1 O7 2.105042 1_545
Hf2 O6 2.027366 1_555
Hf2 O11 2.058655 1_655
Hf2 O10 2.070411 1_556
Hf2 O2 2.083032 1_555
Hf2 O3 2.083188 1_655
Hf2 O7 2.105042 1_655
Hf3 O5 2.027366 1_555
Hf3 O11 2.058655 1_655
Hf3 O10 2.070411 1_555
Hf3 O1 2.083032 1_555
Hf3 O0 2.083188 1_655
Hf3 O4 2.105042 1_655
O5 Sr0 2.460849 1_645
O6 Sr0 2.460849 1_645
O9 Sr0 2.509257 1_555
O11 Sr0 2.509257 1_555
