# generated using pymatgen
data_BaMg30CdO32
_symmetry_space_group_name_H-M   'P 1'
_cell_length_a   8.69503500
_cell_length_b   8.69503500
_cell_length_c   8.72606500
_cell_angle_alpha   90.00000000
_cell_angle_beta   90.00000000
_cell_angle_gamma   90.00000000
_symmetry_Int_Tables_number   1
_chemical_formula_structural   BaMg30CdO32
_chemical_formula_sum   'Ba1 Mg30 Cd1 O32'
_cell_volume   659.72222148
_cell_formula_units_Z   1
loop_
 _symmetry_equiv_pos_site_id
 _symmetry_equiv_pos_as_xyz
  1  'x, y, z'
loop_
 _atom_site_type_symbol
 _atom_site_label
 _atom_site_symmetry_multiplicity
 _atom_site_fract_x
 _atom_site_fract_y
 _atom_site_fract_z
 _atom_site_occupancy
  Ba  Ba0  1  0.00000000  0.00000000  0.00000000  1
  Mg  Mg0  1  0.00000000  0.50000000  0.00000000  1
  Mg  Mg1  1  0.00000000  0.50000000  0.50000000  1
  Mg  Mg2  1  0.50000000  0.00000000  0.00000000  1
  Mg  Mg3  1  0.50000000  0.00000000  0.50000000  1
  Mg  Mg4  1  0.50000000  0.50000000  0.00000000  1
  Mg  Mg5  1  0.50000000  0.50000000  0.50000000  1
  Mg  Mg6  1  0.00000000  0.26078800  0.25559700  1
  Mg  Mg7  1  0.00000000  0.26078800  0.74440300  1
  Mg  Mg8  1  0.00000000  0.73921200  0.25559700  1
  Mg  Mg9  1  0.00000000  0.73921200  0.74440300  1
  Mg  Mg10  1  0.50000000  0.25127300  0.25074700  1
  Mg  Mg11  1  0.50000000  0.25127300  0.74925300  1
  Mg  Mg12  1  0.50000000  0.74872700  0.25074700  1
  Mg  Mg13  1  0.50000000  0.74872700  0.74925300  1
  Mg  Mg14  1  0.26078800  0.00000000  0.25559700  1
  Mg  Mg15  1  0.26078800  0.00000000  0.74440300  1
  Mg  Mg16  1  0.25127300  0.50000000  0.25074700  1
  Mg  Mg17  1  0.25127300  0.50000000  0.74925300  1
  Mg  Mg18  1  0.73921200  0.00000000  0.25559700  1
  Mg  Mg19  1  0.73921200  0.00000000  0.74440300  1
  Mg  Mg20  1  0.74872700  0.50000000  0.25074700  1
  Mg  Mg21  1  0.74872700  0.50000000  0.74925300  1
  Mg  Mg22  1  0.25760300  0.25760300  0.00000000  1
  Mg  Mg23  1  0.25277300  0.25277300  0.50000000  1
  Mg  Mg24  1  0.25760300  0.74239700  0.00000000  1
  Mg  Mg25  1  0.25277300  0.74722700  0.50000000  1
  Mg  Mg26  1  0.74239700  0.25760300  0.00000000  1
  Mg  Mg27  1  0.74722700  0.25277300  0.50000000  1
  Mg  Mg28  1  0.74239700  0.74239700  0.00000000  1
  Mg  Mg29  1  0.74722700  0.74722700  0.50000000  1
  Cd  Cd0  1  0.00000000  0.00000000  0.50000000  1
  O  O0  1  0.27939800  0.00000000  0.00000000  1
  O  O1  1  0.26954600  0.00000000  0.50000000  1
  O  O2  1  0.25622900  0.50000000  0.00000000  1
  O  O3  1  0.25388100  0.50000000  0.50000000  1
  O  O4  1  0.72060200  0.00000000  0.00000000  1
  O  O5  1  0.73045400  0.00000000  0.50000000  1
  O  O6  1  0.74377100  0.50000000  0.00000000  1
  O  O7  1  0.74611900  0.50000000  0.50000000  1
  O  O8  1  0.24929500  0.24929500  0.24981200  1
  O  O9  1  0.24929500  0.24929500  0.75018800  1
  O  O10  1  0.24929500  0.75070500  0.24981200  1
  O  O11  1  0.24929500  0.75070500  0.75018800  1
  O  O12  1  0.75070500  0.24929500  0.24981200  1
  O  O13  1  0.75070500  0.24929500  0.75018800  1
  O  O14  1  0.75070500  0.75070500  0.24981200  1
  O  O15  1  0.75070500  0.75070500  0.75018800  1
  O  O16  1  0.00000000  0.00000000  0.26666200  1
  O  O17  1  0.00000000  0.00000000  0.73333800  1
  O  O18  1  0.00000000  0.50000000  0.25322100  1
  O  O19  1  0.00000000  0.50000000  0.74677900  1
  O  O20  1  0.50000000  0.00000000  0.25322100  1
  O  O21  1  0.50000000  0.00000000  0.74677900  1
  O  O22  1  0.50000000  0.50000000  0.25082800  1
  O  O23  1  0.50000000  0.50000000  0.74917200  1
  O  O24  1  0.00000000  0.27939800  0.00000000  1
  O  O25  1  0.00000000  0.26954600  0.50000000  1
  O  O26  1  0.00000000  0.72060200  0.00000000  1
  O  O27  1  0.00000000  0.73045400  0.50000000  1
  O  O28  1  0.50000000  0.25622900  0.00000000  1
  O  O29  1  0.50000000  0.25388100  0.50000000  1
  O  O30  1  0.50000000  0.74377100  0.00000000  1
  O  O31  1  0.50000000  0.74611900  0.50000000  1
loop_
_geom_bond_atom_site_label_1
_geom_bond_atom_site_label_2
_geom_bond_distance
_geom_bond_site_symmetry_2
Ba0 O16 2.326910 1_555
Ba0 O17 2.326910 1_554
Ba0 O24 2.429375 1_555
Ba0 O0 2.429375 1_555
Ba0 O26 2.429375 1_545
Ba0 O4 2.429375 1_455
Mg0 O26 1.918142 1_555
Mg0 O24 1.918142 1_555
Mg0 O18 2.209623 1_555
Mg0 O19 2.209623 1_554
Mg0 O2 2.227920 1_555
Mg0 O6 2.227920 1_455
Mg1 O27 2.003806 1_555
Mg1 O25 2.003806 1_555
Mg1 O19 2.153410 1_555
Mg1 O18 2.153410 1_555
Mg1 O3 2.207504 1_555
Mg1 O7 2.207504 1_455
Mg2 O4 1.918142 1_555
Mg2 O0 1.918142 1_555
Mg2 O20 2.209623 1_555
Mg2 O21 2.209623 1_554
Mg2 O28 2.227920 1_555
Mg2 O30 2.227920 1_545
Mg3 O5 2.003806 1_555
Mg3 O1 2.003806 1_555
Mg3 O21 2.153410 1_555
Mg3 O20 2.153410 1_555
Mg3 O29 2.207504 1_555
Mg3 O31 2.207504 1_545
Mg4 O30 2.119597 1_555
Mg4 O6 2.119597 1_555
Mg4 O28 2.119597 1_555
Mg4 O2 2.119597 1_555
Mg4 O22 2.188741 1_555
Mg4 O23 2.188741 1_554
Mg5 O7 2.140013 1_555
Mg5 O31 2.140013 1_555
Mg5 O3 2.140013 1_555
Mg5 O29 2.140013 1_555
Mg5 O23 2.174291 1_555
Mg5 O22 2.174291 1_555
Mg6 O18 2.080060 1_555
Mg6 O25 2.134036 1_555
Mg6 O8 2.170518 1_555
Mg6 O12 2.170518 1_455
Mg6 O24 2.236218 1_555
Mg6 O16 2.269616 1_555
Mg7 O19 2.080060 1_555
Mg7 O25 2.134036 1_555
Mg7 O9 2.170518 1_555
Mg7 O13 2.170518 1_455
Mg7 O24 2.236218 1_556
Mg7 O17 2.269616 1_555
Mg8 O18 2.080060 1_555
Mg8 O27 2.134036 1_555
Mg8 O14 2.170518 1_455
Mg8 O10 2.170518 1_555
Mg8 O26 2.236218 1_555
Mg8 O16 2.269616 1_565
Mg9 O19 2.080060 1_555
Mg9 O27 2.134036 1_555
Mg9 O11 2.170518 1_555
Mg9 O15 2.170518 1_455
Mg9 O26 2.236218 1_556
Mg9 O17 2.269616 1_565
Mg10 O22 2.162690 1_555
Mg10 O29 2.175116 1_555
Mg10 O12 2.179972 1_555
Mg10 O8 2.179972 1_555
Mg10 O20 2.184934 1_555
Mg10 O28 2.188459 1_555
Mg11 O23 2.162690 1_555
Mg11 O29 2.175116 1_555
Mg11 O13 2.179972 1_555
Mg11 O9 2.179972 1_555
Mg11 O21 2.184934 1_555
Mg11 O28 2.188459 1_556
Mg12 O22 2.162690 1_555
Mg12 O31 2.175116 1_555
Mg12 O14 2.179972 1_555
Mg12 O10 2.179972 1_555
Mg12 O20 2.184934 1_565
Mg12 O30 2.188459 1_555
Mg13 O23 2.162690 1_555
Mg13 O31 2.175116 1_555
Mg13 O15 2.179972 1_555
Mg13 O11 2.179972 1_555
Mg13 O21 2.184934 1_565
Mg13 O30 2.188459 1_556
Mg14 O20 2.080060 1_555
Mg14 O1 2.134036 1_555
Mg14 O8 2.170518 1_555
Mg14 O10 2.170518 1_545
Mg14 O0 2.236218 1_555
Mg14 O16 2.269616 1_555
Mg15 O21 2.080060 1_555
Mg15 O1 2.134036 1_555
Mg15 O9 2.170518 1_555
Mg15 O11 2.170518 1_545
Mg15 O0 2.236218 1_556
Mg15 O17 2.269616 1_555
Mg16 O22 2.162690 1_555
Mg16 O3 2.175116 1_555
Mg16 O10 2.179972 1_555
Mg16 O8 2.179972 1_555
Mg16 O18 2.184934 1_555
Mg16 O2 2.188459 1_555
Mg17 O23 2.162690 1_555
Mg17 O3 2.175116 1_555
Mg17 O11 2.179972 1_555
Mg17 O9 2.179972 1_555
Mg17 O19 2.184934 1_555
Mg17 O2 2.188459 1_556
Mg18 O20 2.080060 1_555
Mg18 O5 2.134036 1_555
Mg18 O12 2.170518 1_555
Mg18 O14 2.170518 1_545
Mg18 O4 2.236218 1_555
Mg18 O16 2.269616 1_655
Mg19 O21 2.080060 1_555
Mg19 O5 2.134036 1_555
Mg19 O13 2.170518 1_555
Mg19 O15 2.170518 1_545
Mg19 O4 2.236218 1_556
Mg19 O17 2.269616 1_655
Mg20 O22 2.162690 1_555
Mg20 O7 2.175116 1_555
Mg20 O14 2.179972 1_555
Mg20 O12 2.179972 1_555
Mg20 O18 2.184934 1_655
Mg20 O6 2.188459 1_555
Mg21 O23 2.162690 1_555
Mg21 O7 2.175116 1_555
Mg21 O15 2.179972 1_555
Mg21 O13 2.179972 1_555
Mg21 O19 2.184934 1_655
Mg21 O6 2.188459 1_556
Mg22 O28 2.107684 1_555
Mg22 O2 2.107684 1_555
Mg22 O8 2.182268 1_555
Mg22 O9 2.182268 1_554
Mg22 O24 2.247870 1_555
Mg22 O0 2.247870 1_555
Mg23 O29 2.149669 1_555
Mg23 O3 2.149669 1_555
Mg23 O9 2.183576 1_555
Mg23 O8 2.183576 1_555
Mg23 O1 2.202704 1_555
Mg23 O25 2.202704 1_555
Mg24 O2 2.107684 1_555
Mg24 O30 2.107684 1_555
Mg24 O10 2.182268 1_555
Mg24 O11 2.182268 1_554
Mg24 O26 2.247870 1_555
Mg24 O0 2.247870 1_565
Mg25 O3 2.149669 1_555
Mg25 O31 2.149669 1_555
Mg25 O11 2.183576 1_555
Mg25 O10 2.183576 1_555
Mg25 O27 2.202704 1_555
Mg25 O1 2.202704 1_565
Mg26 O28 2.107684 1_555
Mg26 O6 2.107684 1_555
Mg26 O12 2.182268 1_555
Mg26 O13 2.182268 1_554
Mg26 O4 2.247870 1_555
Mg26 O24 2.247870 1_655
Mg27 O29 2.149669 1_555
Mg27 O7 2.149669 1_555
Mg27 O13 2.183576 1_555
Mg27 O12 2.183576 1_555
Mg27 O5 2.202704 1_555
Mg27 O25 2.202704 1_655
Mg28 O30 2.107684 1_555
Mg28 O6 2.107684 1_555
Mg28 O14 2.182268 1_555
Mg28 O15 2.182268 1_554
Mg28 O4 2.247870 1_565
Mg28 O26 2.247870 1_655
Mg29 O31 2.149669 1_555
Mg29 O7 2.149669 1_555
Mg29 O15 2.183576 1_555
Mg29 O14 2.183576 1_555
Mg29 O27 2.202704 1_655
Mg29 O5 2.202704 1_565
Cd0 O17 2.036123 1_555
Cd0 O16 2.036123 1_555
Cd0 O25 2.343712 1_555
Cd0 O1 2.343712 1_555
Cd0 O5 2.343712 1_455
Cd0 O27 2.343712 1_545
