# generated using pymatgen
data_CaZn2(FeO2)4
_symmetry_space_group_name_H-M   'P 1'
_cell_length_a   6.32725474
_cell_length_b   6.32725544
_cell_length_c   6.48058900
_cell_angle_alpha   59.19505559
_cell_angle_beta   59.19505178
_cell_angle_gamma   58.62158908
_symmetry_Int_Tables_number   1
_chemical_formula_structural   CaZn2(FeO2)4
_chemical_formula_sum   'Ca1 Zn2 Fe4 O8'
_cell_volume   179.27467485
_cell_formula_units_Z   1
loop_
 _symmetry_equiv_pos_site_id
 _symmetry_equiv_pos_as_xyz
  1  'x, y, z'
loop_
 _atom_site_type_symbol
 _atom_site_label
 _atom_site_symmetry_multiplicity
 _atom_site_fract_x
 _atom_site_fract_y
 _atom_site_fract_z
 _atom_site_occupancy
  Ca  Ca0  1  0.19927300  0.19927300  0.80072700  1
  Zn  Zn0  1  0.16394100  0.72405100  0.55600400  1
  Zn  Zn1  1  0.72405100  0.16394100  0.55600400  1
  Fe  Fe0  1  0.87530500  0.87530400  0.12469600  1
  Fe  Fe1  1  0.31719700  0.31719800  0.18280200  1
  Fe  Fe2  1  0.61996000  0.61996000  0.10966800  1
  Fe  Fe3  1  0.61996000  0.61996000  0.65041300  1
  O  O0  1  0.40252600  0.40252600  0.39689100  1
  O  O1  1  0.40252600  0.40252600  0.79805700  1
  O  O2  1  0.43537400  0.89153200  0.33654700  1
  O  O3  1  0.89153100  0.43537700  0.33654600  1
  O  O4  1  0.35421000  0.77726300  0.93426400  1
  O  O5  1  0.77726600  0.35420900  0.93426300  1
  O  O6  1  0.84802400  0.84802400  0.45116700  1
  O  O7  1  0.84802400  0.84802400  0.85278400  1
loop_
_geom_bond_atom_site_label_1
_geom_bond_atom_site_label_2
_geom_bond_distance
_geom_bond_site_symmetry_2
Ca0 O5 2.148466 1_455
Ca0 O4 2.148481 1_545
Ca0 O0 2.232665 1_555
Ca0 O1 2.232665 1_555
Fe0 O6 1.954178 1_555
Fe0 O7 1.954191 1_554
Fe0 O3 2.361374 1_555
Fe0 O2 2.361391 1_555
Fe0 O4 2.467010 1_654
Fe0 O5 2.467012 1_564
Fe1 O1 2.084675 1_554
Fe1 O0 2.084681 1_555
Fe1 O3 2.173253 1_455
Fe1 O2 2.173255 1_545
Fe1 O4 2.577616 1_554
Fe1 O5 2.577633 1_554
Fe2 O0 1.993853 1_555
Fe2 O4 2.041119 1_554
Fe2 O5 2.041125 1_554
Fe2 O7 2.045361 1_554
Fe2 O3 2.284154 1_555
Fe2 O2 2.284160 1_555
Fe3 O1 1.993855 1_555
Fe3 O4 2.041119 1_555
Fe3 O5 2.041125 1_555
Fe3 O6 2.045360 1_555
Fe3 O3 2.284159 1_555
Fe3 O2 2.284165 1_555
O0 Zn1 2.199294 1_555
O0 Zn0 2.199294 1_555
O1 Zn1 2.199294 1_555
O1 Zn0 2.199294 1_555
O2 Zn0 1.986220 1_555
O3 Zn1 1.986231 1_555
O6 Zn0 2.069961 1_655
O6 Zn1 2.069961 1_565
O7 Zn0 2.069957 1_655
O7 Zn1 2.069957 1_565
