# generated using pymatgen
data_SiO2
_symmetry_space_group_name_H-M   'P 1'
_cell_length_a   11.42068144
_cell_length_b   11.60779859
_cell_length_c   12.38003334
_cell_angle_alpha   94.95090489
_cell_angle_beta   91.35904044
_cell_angle_gamma   95.61624679
_symmetry_Int_Tables_number   1
_chemical_formula_structural   SiO2
_chemical_formula_sum   'Si34 O68'
_cell_volume   1626.37960583
_cell_formula_units_Z   34
loop_
 _symmetry_equiv_pos_site_id
 _symmetry_equiv_pos_as_xyz
  1  'x, y, z'
loop_
 _atom_site_type_symbol
 _atom_site_label
 _atom_site_symmetry_multiplicity
 _atom_site_fract_x
 _atom_site_fract_y
 _atom_site_fract_z
 _atom_site_occupancy
  Si  Si0  1  0.71973577  0.25193571  0.44134855  1
  Si  Si1  1  0.54410161  0.35373731  0.03552727  1
  Si  Si2  1  0.92444804  0.83484004  0.71262505  1
  Si  Si3  1  0.15938779  0.71804536  0.66889043  1
  Si  Si4  1  0.32955149  0.29013497  0.07438871  1
  Si  Si5  1  0.97161123  0.70434998  0.33136251  1
  Si  Si6  1  0.07087817  0.20422188  0.01110474  1
  Si  Si7  1  0.33133714  0.41301349  0.68841953  1
  Si  Si8  1  0.70783568  0.40517918  0.24186415  1
  Si  Si9  1  0.97559484  0.11348937  0.19788119  1
  Si  Si10  1  0.71749861  0.64479161  0.71015195  1
  Si  Si11  1  0.20758632  0.82353625  0.32382635  1
  Si  Si12  1  0.66795767  0.42660441  0.81528757  1
  Si  Si13  1  0.92678195  0.15473423  0.50944633  1
  Si  Si14  1  0.69628858  0.97258252  0.99816537  1
  Si  Si15  1  0.58497541  0.86156428  0.17593974  1
  Si  Si16  1  0.14875393  0.32026207  0.49501016  1
  Si  Si17  1  0.42115407  0.99151817  0.32674743  1
  Si  Si18  1  0.47388485  0.83858185  0.95478838  1
  Si  Si19  1  0.71529463  0.67253962  0.29444785  1
  Si  Si20  1  0.54393159  0.07089013  0.53631973  1
  Si  Si21  1  0.43696767  0.46954010  0.48465030  1
  Si  Si22  1  0.33447988  0.25053631  0.32921942  1
  Si  Si23  1  0.01137276  0.94992105  0.37904937  1
  Si  Si24  1  0.47063080  0.22855498  0.73374252  1
  Si  Si25  1  0.34025211  0.70395300  0.50178308  1
  Si  Si26  1  0.77454209  0.02029308  0.65773186  1
  Si  Si27  1  0.28695939  0.63202180  0.86260364  1
  Si  Si28  1  0.03167053  0.52414074  0.50363436  1
  Si  Si29  1  0.59618815  0.68279124  0.50771089  1
  Si  Si30  1  0.49362385  0.09276319  0.94360813  1
  Si  Si31  1  0.81246264  0.43064268  0.63143710  1
  Si  Si32  1  0.92439766  0.29658263  0.16886990  1
  Si  Si33  1  0.90244647  0.03510316  0.86854102  1
  O  O0  1  0.63856347  0.00623196  0.60774197  1
  O  O1  1  0.15161994  0.93751817  0.38206354  1
  O  O2  1  0.38868309  0.12513885  0.31386450  1
  O  O3  1  0.79040452  0.05732860  0.78881352  1
  O  O4  1  0.44171260  0.42231753  0.60446357  1
  O  O5  1  0.03865481  0.24506379  0.54217140  1
  O  O6  1  0.58429140  0.32521733  0.74558413  1
  O  O7  1  0.10120120  0.42743895  0.43482869  1
  O  O8  1  0.84458049  0.13335538  0.61135723  1
  O  O9  1  0.21975855  0.24165564  0.40593812  1
  O  O10  1  0.24835845  0.58330598  0.96988077  1
  O  O11  1  0.63006047  0.09292046  0.98560386  1
  O  O12  1  0.41921312  0.36258640  0.38719903  1
  O  O13  1  0.85190732  0.16198875  0.14979923  1
  O  O14  1  0.75727426  0.55155383  0.61615098  1
  O  O15  1  0.21915485  0.37067279  0.60669148  1
  O  O16  1  0.79911246  0.40837904  0.76268477  1
  O  O17  1  0.48416641  0.81152477  0.08295152  1
  O  O18  1  0.65461944  0.56607693  0.80392625  1
  O  O19  1  0.28295584  0.76409471  0.61060938  1
  O  O20  1  0.46935122  0.15187416  0.61771882  1
  O  O21  1  0.33565658  0.56087633  0.48560511  1
  O  O22  1  0.83429168  0.72956250  0.75637372  1
  O  O23  1  0.30778653  0.27650338  0.20105029  1
  O  O24  1  0.01738757  0.24840331  0.25805115  1
  O  O25  1  0.06549145  0.10040166  0.09563733  1
  O  O26  1  0.11897510  0.60016251  0.59134177  1
  O  O27  1  0.44852452  0.98485664  0.45773968  1
  O  O28  1  0.09307196  0.73878470  0.26449298  1
  O  O29  1  0.93971651  0.45121432  0.57865608  1
  O  O30  1  0.00173790  0.31583205  0.05951482  1
  O  O31  1  0.66956488  0.53497726  0.26455493  1
  O  O32  1  0.84458094  0.40096758  0.20220163  1
  O  O33  1  0.69439120  0.93403654  0.12105264  1
  O  O34  1  0.47946822  0.13571667  0.82469480  1
  O  O35  1  0.73432604  0.32807703  0.55763140  1
  O  O36  1  0.84061380  0.90174606  0.63191152  1
  O  O37  1  0.04436658  0.79433655  0.65883473  1
  O  O38  1  0.97067608  0.92959743  0.81371475  1
  O  O39  1  0.94477571  0.82496028  0.40021643  1
  O  O40  1  0.40421404  0.73842123  0.87516040  1
  O  O41  1  0.83500566  0.99071938  0.97388270  1
  O  O42  1  0.41797925  0.96955254  0.95627711  1
  O  O43  1  0.45214741  0.21270607  0.02356771  1
  O  O44  1  0.63525244  0.75183309  0.22815060  1
  O  O45  1  0.70107031  0.71554340  0.42363617  1
  O  O46  1  0.47918448  0.75134075  0.49091684  1
  O  O47  1  0.21285388  0.24881013  0.99919377  1
  O  O48  1  0.63002869  0.39848675  0.94211075  1
  O  O49  1  0.62927096  0.71341889  0.63826356  1
  O  O50  1  0.00176164  0.14655675  0.89893406  1
  O  O51  1  0.85208583  0.67655008  0.25491005  1
  O  O52  1  0.97777289  0.60203963  0.41353911  1
  O  O53  1  0.32634255  0.53144871  0.76363495  1
  O  O54  1  0.26169937  0.73690913  0.40106630  1
  O  O55  1  0.53850774  0.95868552  0.26374668  1
  O  O56  1  0.41761804  0.40836227  0.05473952  1
  O  O57  1  0.96972893  0.00121415  0.26564686  1
  O  O58  1  0.56221929  0.54411396  0.47100643  1
  O  O59  1  0.35546376  0.29886699  0.75502909  1
  O  O60  1  0.18803624  0.69933812  0.79310848  1
  O  O61  1  0.84217746  0.19450167  0.41358695  1
  O  O62  1  0.62024836  0.34176302  0.14314369  1
  O  O63  1  0.98108698  0.03469813  0.47885704  1
  O  O64  1  0.31979868  0.89225305  0.26839485  1
  O  O65  1  0.61336232  0.87159089  0.91955997  1
  O  O66  1  0.61410064  0.15049683  0.45135773  1
  O  O67  1  0.68889565  0.33113463  0.34518952  1
loop_
_geom_bond_atom_site_label_1
_geom_bond_atom_site_label_2
_geom_bond_distance
_geom_bond_site_symmetry_2
O0 Si26 1.645820 1_555
O0 Si20 1.655646 1_555
O1 Si23 1.621989 1_555
O1 Si11 1.643663 1_555
O2 Si22 1.634708 1_555
O2 Si17 1.649596 1_545
O3 Si26 1.643622 1_555
O3 Si33 1.651304 1_555
O4 Si21 1.626623 1_555
O4 Si7 1.654045 1_555
O5 Si13 1.592446 1_455
O5 Si16 1.609924 1_555
O6 Si12 1.614998 1_555
O6 Si24 1.625723 1_555
O7 Si28 1.630238 1_555
O7 Si16 1.634268 1_555
O8 Si13 1.612246 1_555
O8 Si26 1.624254 1_555
O9 Si22 1.636708 1_555
O9 Si16 1.649153 1_555
O10 Si27 1.544850 1_555
O11 Si30 1.630688 1_555
O11 Si14 1.669193 1_545
O12 Si22 1.644062 1_555
O12 Si21 1.648802 1_555
O13 Si9 1.685320 1_555
O13 Si32 1.689952 1_555
O14 Si31 1.617485 1_555
O14 Si10 1.623542 1_555
O15 Si16 1.617417 1_555
O15 Si7 1.623633 1_555
O16 Si12 1.672423 1_555
O16 Si31 1.675318 1_555
O17 Si15 1.636757 1_555
O17 Si18 1.647521 1_554
O18 Si12 1.658496 1_555
O18 Si10 1.671083 1_555
O19 Si25 1.643042 1_555
O19 Si3 1.662862 1_555
O20 Si24 1.622173 1_555
O20 Si20 1.630525 1_555
O21 Si21 1.643632 1_555
O21 Si25 1.651111 1_555
O22 Si10 1.638470 1_555
O22 Si2 1.655690 1_555
O23 Si4 1.612235 1_555
O23 Si22 1.667070 1_555
O24 Si32 1.681309 1_455
O24 Si9 1.694315 1_455
O25 Si9 1.654793 1_455
O25 Si6 1.660582 1_555
O26 Si28 1.600913 1_555
O26 Si3 1.623500 1_555
O27 Si20 1.643171 1_565
O27 Si17 1.654054 1_555
O28 Si5 1.665048 1_455
O28 Si11 1.672028 1_555
O29 Si31 1.612514 1_555
O29 Si28 1.640136 1_655
O30 Si32 1.653252 1_455
O30 Si6 1.658254 1_555
O31 Si8 1.612969 1_555
O31 Si19 1.638621 1_555
O32 Si32 1.617751 1_555
O32 Si8 1.652166 1_555
O33 Si14 1.622445 1_554
O33 Si15 1.632211 1_555
O34 Si30 1.604102 1_555
O34 Si24 1.632394 1_555
O35 Si31 1.616865 1_555
O35 Si0 1.619109 1_555
O36 Si26 1.644355 1_565
O36 Si2 1.659047 1_555
O37 Si2 1.629548 1_455
O37 Si3 1.662619 1_555
O38 Si33 1.623626 1_565
O38 Si2 1.634688 1_555
O39 Si23 1.615639 1_655
O39 Si5 1.634315 1_555
O40 Si18 1.593911 1_555
O40 Si27 1.725131 1_555
O41 Si14 1.616402 1_555
O41 Si33 1.626463 1_565
O42 Si30 1.618560 1_565
O42 Si18 1.704395 1_555
O43 Si30 1.748186 1_554
O43 Si4 1.831531 1_555
O43 Si1 1.849070 1_555
O44 Si19 1.617394 1_555
O44 Si15 1.624057 1_555
O45 Si29 1.643471 1_555
O45 Si19 1.650426 1_555
O46 Si29 1.638739 1_555
O46 Si25 1.640232 1_555
O47 Si4 1.616141 1_556
O47 Si6 1.667036 1_556
O48 Si1 1.621142 1_556
O48 Si12 1.688888 1_555
O49 Si10 1.636733 1_555
O49 Si29 1.651352 1_555
O50 Si6 1.638201 1_556
O50 Si33 1.646314 1_455
O51 Si5 1.631911 1_555
O51 Si19 1.645706 1_555
O52 Si5 1.634577 1_555
O52 Si28 1.640450 1_655
O53 Si7 1.599137 1_555
O53 Si27 1.717100 1_555
O54 Si11 1.602191 1_555
O54 Si25 1.613172 1_555
O55 Si17 1.627305 1_555
O55 Si15 1.633159 1_555
O56 Si1 1.647674 1_555
O56 Si4 1.659277 1_555
O57 Si9 1.606585 1_555
O57 Si23 1.649163 1_645
O58 Si21 1.618149 1_555
O58 Si29 1.640546 1_555
O59 Si24 1.629413 1_555
O59 Si7 1.661567 1_555
O60 Si3 1.602119 1_555
O60 Si27 1.694073 1_555
O61 Si13 1.637843 1_555
O61 Si0 1.638213 1_555
O62 Si1 1.597273 1_555
O62 Si8 1.636695 1_555
O63 Si23 1.578550 1_645
O63 Si13 1.599595 1_555
O64 Si11 1.638793 1_555
O64 Si17 1.656824 1_555
O65 Si14 1.661408 1_555
O65 Si18 1.678325 1_555
O66 Si0 1.616017 1_555
O66 Si20 1.632559 1_555
O67 Si8 1.608820 1_555
O67 Si0 1.618264 1_555
