# generated using pymatgen
data_U2Cu3NiGe4
_symmetry_space_group_name_H-M   'P 1'
_cell_length_a   4.05362500
_cell_length_b   4.05362500
_cell_length_c   10.26771200
_cell_angle_alpha   90.00000000
_cell_angle_beta   90.00000000
_cell_angle_gamma   90.00000000
_symmetry_Int_Tables_number   1
_chemical_formula_structural   U2Cu3NiGe4
_chemical_formula_sum   'U2 Cu3 Ni1 Ge4'
_cell_volume   168.71776670
_cell_formula_units_Z   1
loop_
 _symmetry_equiv_pos_site_id
 _symmetry_equiv_pos_as_xyz
  1  'x, y, z'
loop_
 _atom_site_type_symbol
 _atom_site_label
 _atom_site_symmetry_multiplicity
 _atom_site_fract_x
 _atom_site_fract_y
 _atom_site_fract_z
 _atom_site_occupancy
  U  U0  1  0.50000000  0.00000000  0.75231800  1
  U  U1  1  0.00000000  0.50000000  0.24768200  1
  Cu  Cu0  1  0.00000000  0.00000000  0.50000000  1
  Cu  Cu1  1  0.00000000  0.00000000  0.00000000  1
  Cu  Cu2  1  0.50000000  0.50000000  0.50000000  1
  Ni  Ni0  1  0.50000000  0.50000000  0.00000000  1
  Ge  Ge0  1  0.00000000  0.50000000  0.87452200  1
  Ge  Ge1  1  0.50000000  0.00000000  0.36740200  1
  Ge  Ge2  1  0.50000000  0.00000000  0.12547800  1
  Ge  Ge3  1  0.00000000  0.50000000  0.63259800  1
loop_
_geom_bond_atom_site_label_1
_geom_bond_atom_site_label_2
_geom_bond_distance
_geom_bond_site_symmetry_2
Cu0 Ge1 2.441637 1_455
Cu0 Ge3 2.441637 1_555
Cu0 Ge1 2.441637 1_555
Cu0 Ge3 2.441637 1_545
Cu0 U0 3.289353 1_555
Cu0 U0 3.289353 1_455
Cu0 U1 3.289353 1_555
Cu0 U1 3.289353 1_545
Cu1 Ge2 2.401639 1_555
Cu1 Ge2 2.401639 1_455
Cu1 Ge0 2.401639 1_554
Cu1 Ge0 2.401639 1_544
Cu1 U1 3.251994 1_545
Cu1 U1 3.251994 1_555
Cu1 U0 3.251994 1_554
Cu1 U0 3.251994 1_454
Cu2 Ge1 2.441637 1_555
Cu2 Ge3 2.441637 1_555
Cu2 Ge3 2.441637 1_655
Cu2 Ge1 2.441637 1_565
Cu2 U0 3.289353 1_565
Cu2 U0 3.289353 1_555
Cu2 U1 3.289353 1_555
Cu2 U1 3.289353 1_655
Ni0 U1 3.251994 1_555
Ni0 U1 3.251994 1_655
Ni0 U0 3.251994 1_564
Ni0 U0 3.251994 1_554
Ge0 Ni0 2.401639 1_456
Ge0 Ni0 2.401639 1_556
Ge0 Ge3 2.484006 1_555
Ge0 U0 3.128953 1_465
Ge0 U0 3.128953 1_555
Ge0 U0 3.128953 1_565
Ge0 U0 3.128953 1_455
Ge1 Ge2 2.484006 1_555
Ge1 U1 3.118813 1_545
Ge1 U1 3.118813 1_555
Ge1 U1 3.118813 1_655
Ge1 U1 3.118813 1_645
Ge2 Ni0 2.401639 1_555
Ge2 Ni0 2.401639 1_545
Ge2 U1 3.128953 1_655
Ge2 U1 3.128953 1_645
Ge2 U1 3.128953 1_545
Ge2 U1 3.128953 1_555
Ge3 U0 3.118813 1_565
Ge3 U0 3.118813 1_455
Ge3 U0 3.118813 1_465
Ge3 U0 3.118813 1_555
