# generated using pymatgen
data_K2PrAgCl6
_symmetry_space_group_name_H-M   'P 1'
_cell_length_a   7.73865581
_cell_length_b   7.73865581
_cell_length_c   7.73865581
_cell_angle_alpha   60.00000000
_cell_angle_beta   60.00000000
_cell_angle_gamma   60.00000000
_symmetry_Int_Tables_number   1
_chemical_formula_structural   K2PrAgCl6
_chemical_formula_sum   'K2 Pr1 Ag1 Cl6'
_cell_volume   327.70388897
_cell_formula_units_Z   1
loop_
 _symmetry_equiv_pos_site_id
 _symmetry_equiv_pos_as_xyz
  1  'x, y, z'
loop_
 _atom_site_type_symbol
 _atom_site_label
 _atom_site_symmetry_multiplicity
 _atom_site_fract_x
 _atom_site_fract_y
 _atom_site_fract_z
 _atom_site_occupancy
  K  K0  1  0.75000000  0.75000000  0.75000000  1
  K  K1  1  0.25000000  0.25000000  0.25000000  1
  Pr  Pr0  1  0.50000000  0.50000000  0.50000000  1
  Ag  Ag0  1  0.00000000  0.00000000  0.00000000  1
  Cl  Cl0  1  0.75035200  0.24964800  0.24964800  1
  Cl  Cl1  1  0.24964800  0.24964800  0.75035200  1
  Cl  Cl2  1  0.24964800  0.75035200  0.75035200  1
  Cl  Cl3  1  0.24964800  0.75035200  0.24964800  1
  Cl  Cl4  1  0.75035200  0.24964800  0.75035200  1
  Cl  Cl5  1  0.75035200  0.75035200  0.24964800  1
loop_
_geom_bond_atom_site_label_1
_geom_bond_atom_site_label_2
_geom_bond_distance
_geom_bond_site_symmetry_2
Ag0 Cl0 2.732176 1_455
Ag0 Cl3 2.732176 1_545
Ag0 Cl1 2.732176 1_554
Ag0 Cl4 2.732176 1_454
Ag0 Cl5 2.732176 1_445
Ag0 Cl2 2.732176 1_544
Cl0 Pr0 2.739880 1_555
Cl1 Pr0 2.739880 1_555
Cl2 Pr0 2.739880 1_555
Cl3 Pr0 2.739880 1_555
Cl4 Pr0 2.739880 1_555
Cl5 Pr0 2.739880 1_555
