# generated using pymatgen
data_Y4S3N2
_symmetry_space_group_name_H-M   'P 1'
_cell_length_a   6.59596600
_cell_length_b   14.70670800
_cell_length_c   3.82746200
_cell_angle_alpha   90.00000000
_cell_angle_beta   90.00000000
_cell_angle_gamma   90.00000000
_symmetry_Int_Tables_number   1
_chemical_formula_structural   Y4S3N2
_chemical_formula_sum   'Y8 S6 N4'
_cell_volume   371.28274440
_cell_formula_units_Z   2
loop_
 _symmetry_equiv_pos_site_id
 _symmetry_equiv_pos_as_xyz
  1  'x, y, z'
loop_
 _atom_site_type_symbol
 _atom_site_label
 _atom_site_symmetry_multiplicity
 _atom_site_fract_x
 _atom_site_fract_y
 _atom_site_fract_z
 _atom_site_occupancy
  Y  Y0  1  0.71343900  0.93649300  0.50000000  1
  Y  Y1  1  0.28656100  0.06350700  0.50000000  1
  Y  Y2  1  0.21343900  0.56350700  0.00000000  1
  Y  Y3  1  0.78656100  0.43649300  0.00000000  1
  Y  Y4  1  0.78526500  0.65547700  0.50000000  1
  Y  Y5  1  0.21473500  0.34452300  0.50000000  1
  Y  Y6  1  0.28526500  0.84452300  0.00000000  1
  Y  Y7  1  0.71473500  0.15547700  0.00000000  1
  S  S0  1  0.50000000  0.50000000  0.50000000  1
  S  S1  1  0.00000000  0.00000000  0.00000000  1
  S  S2  1  0.79782900  0.29759100  0.50000000  1
  S  S3  1  0.20217100  0.70240900  0.50000000  1
  S  S4  1  0.29782900  0.20240900  0.00000000  1
  S  S5  1  0.70217100  0.79759100  0.00000000  1
  N  N0  1  0.62353700  0.08388500  0.50000000  1
  N  N1  1  0.37646300  0.91611500  0.50000000  1
  N  N2  1  0.12353700  0.41611500  0.00000000  1
  N  N3  1  0.87646300  0.58388500  0.00000000  1
loop_
_geom_bond_atom_site_label_1
_geom_bond_atom_site_label_2
_geom_bond_distance
_geom_bond_site_symmetry_2
S0 Y3 2.847339 1_555
S0 Y3 2.847339 1_556
S0 Y2 2.847339 1_556
S0 Y2 2.847339 1_555
S0 Y4 2.961207 1_555
S0 Y5 2.961207 1_555
S1 Y0 2.847339 1_444
S1 Y0 2.847339 1_445
S1 Y1 2.847339 1_555
S1 Y1 2.847339 1_554
S1 Y6 2.961207 1_545
S1 Y7 2.961207 1_455
S2 Y3 2.800158 1_556
S2 Y3 2.800158 1_555
S2 Y5 2.835196 1_655
S2 Y7 2.886345 1_555
S2 Y7 2.886345 1_556
S3 Y2 2.800158 1_556
S3 Y2 2.800158 1_555
S3 Y4 2.835196 1_455
S3 Y6 2.886345 1_555
S3 Y6 2.886345 1_556
S4 Y1 2.800158 1_555
S4 Y1 2.800158 1_554
S4 Y7 2.835196 1_555
S4 Y5 2.886345 1_555
S4 Y5 2.886345 1_554
S5 Y0 2.800158 1_554
S5 Y0 2.800158 1_555
S5 Y6 2.835196 1_555
S5 Y4 2.886345 1_554
S5 Y4 2.886345 1_555
N0 Y1 2.242796 1_555
N0 Y0 2.247298 1_545
N0 Y7 2.265563 1_556
N0 Y7 2.265563 1_555
N1 Y0 2.242796 1_555
N1 Y1 2.247298 1_565
N1 Y6 2.265563 1_556
N1 Y6 2.265563 1_555
N2 Y3 2.242796 1_455
N2 Y2 2.247298 1_555
N2 Y5 2.265563 1_554
N2 Y5 2.265563 1_555
N3 Y2 2.242796 1_655
N3 Y3 2.247298 1_555
N3 Y4 2.265563 1_554
N3 Y4 2.265563 1_555
