# generated using pymatgen
data_Ca12ScCo7O24
_symmetry_space_group_name_H-M   'P 1'
_cell_length_a   6.36659935
_cell_length_b   6.36659935
_cell_length_c   12.67907576
_cell_angle_alpha   87.83416756
_cell_angle_beta   87.83416756
_cell_angle_gamma   91.85064175
_symmetry_Int_Tables_number   1
_chemical_formula_structural   Ca12ScCo7O24
_chemical_formula_sum   'Ca12 Sc1 Co7 O24'
_cell_volume   512.90169575
_cell_formula_units_Z   1
loop_
 _symmetry_equiv_pos_site_id
 _symmetry_equiv_pos_as_xyz
  1  'x, y, z'
loop_
 _atom_site_type_symbol
 _atom_site_label
 _atom_site_symmetry_multiplicity
 _atom_site_fract_x
 _atom_site_fract_y
 _atom_site_fract_z
 _atom_site_occupancy
  Ca  Ca0  1  0.12271000  0.87729000  0.00000000  1
  Ca  Ca1  1  0.11724000  0.88276000  0.50000000  1
  Ca  Ca2  1  0.75540400  0.62073000  0.18845800  1
  Ca  Ca3  1  0.74550700  0.62010400  0.68136900  1
  Ca  Ca4  1  0.37989600  0.25449300  0.31863100  1
  Ca  Ca5  1  0.37927000  0.24459600  0.81154200  1
  Ca  Ca6  1  0.24967600  0.38897600  0.07088900  1
  Ca  Ca7  1  0.24919800  0.38407400  0.56432800  1
  Ca  Ca8  1  0.61102400  0.75032400  0.92911100  1
  Ca  Ca9  1  0.61592600  0.75080200  0.43567200  1
  Ca  Ca10  1  0.88654500  0.11600900  0.25743600  1
  Ca  Ca11  1  0.88399200  0.11345500  0.74256400  1
  Sc  Sc0  1  0.74891800  0.25108200  0.00000000  1
  Co  Co0  1  0.49867400  0.00026500  0.12559600  1
  Co  Co1  1  0.50310400  0.00194000  0.62345300  1
  Co  Co2  1  0.99973500  0.50132600  0.87440400  1
  Co  Co3  1  0.99806000  0.49689600  0.37654700  1
  Co  Co4  1  0.74464300  0.25535700  0.50000000  1
  Co  Co5  1  0.25027900  0.74502900  0.25312500  1
  Co  Co6  1  0.25497100  0.74972100  0.74687500  1
  O  O0  1  0.78726400  0.95734700  0.08075900  1
  O  O1  1  0.79129100  0.96151000  0.57909500  1
  O  O2  1  0.58794900  0.29199900  0.14615100  1
  O  O3  1  0.59499300  0.29077300  0.64070600  1
  O  O4  1  0.45775100  0.08830900  0.98101700  1
  O  O5  1  0.46052500  0.08732000  0.47845000  1
  O  O6  1  0.08041600  0.44854900  0.23052300  1
  O  O7  1  0.08127500  0.45408600  0.73513300  1
  O  O8  1  0.28390700  0.58400100  0.89777000  1
  O  O9  1  0.28816000  0.58413400  0.39605600  1
  O  O10  1  0.95220900  0.78575100  0.33069000  1
  O  O11  1  0.95440200  0.78113800  0.83725700  1
  O  O12  1  0.21886200  0.04559800  0.16274300  1
  O  O13  1  0.21424900  0.04779100  0.66931000  1
  O  O14  1  0.41599900  0.71609300  0.10223000  1
  O  O15  1  0.41586600  0.71184000  0.60394400  1
  O  O16  1  0.54591400  0.91872500  0.26486700  1
  O  O17  1  0.55145100  0.91958400  0.76947700  1
  O  O18  1  0.91169100  0.54224900  0.01898300  1
  O  O19  1  0.91268000  0.53947500  0.52155000  1
  O  O20  1  0.70922700  0.40500700  0.35929400  1
  O  O21  1  0.70800100  0.41205100  0.85384900  1
  O  O22  1  0.04265300  0.21273600  0.91924100  1
  O  O23  1  0.03849000  0.20870900  0.42090500  1
loop_
_geom_bond_atom_site_label_1
_geom_bond_atom_site_label_2
_geom_bond_distance
_geom_bond_site_symmetry_2
Ca0 O22 2.411167 1_564
Ca0 O0 2.411167 1_455
Ca0 O12 2.449680 1_565
Ca0 O11 2.449680 1_454
Ca0 O4 2.482843 1_564
Ca0 O18 2.482843 1_455
Ca0 O8 2.534981 1_554
Ca0 O14 2.534981 1_555
Ca1 O23 2.347635 1_565
Ca1 O1 2.347635 1_455
Ca1 O5 2.508299 1_565
Ca1 O19 2.508299 1_455
Ca1 O10 2.514452 1_455
Ca1 O13 2.514452 1_565
Ca1 O15 2.598140 1_555
Ca1 O9 2.598140 1_555
Ca2 O2 2.405938 1_555
Ca2 O18 2.410115 1_555
Ca2 O6 2.439987 1_655
Ca2 O10 2.480902 1_555
Ca2 O0 2.495695 1_555
Ca2 O20 2.522973 1_555
Ca2 O14 2.538962 1_555
Ca2 O16 2.553731 1_555
Ca3 O19 2.335234 1_555
Ca3 O3 2.359997 1_555
Ca3 O15 2.429169 1_555
Ca3 O1 2.491683 1_555
Ca3 O21 2.513004 1_555
Ca3 O7 2.520566 1_655
Ca3 O17 2.572661 1_555
Ca3 O11 2.643914 1_555
Ca4 O5 2.335234 1_555
Ca4 O20 2.359997 1_555
Ca4 O9 2.429169 1_555
Ca4 O23 2.491683 1_555
Ca4 O2 2.513004 1_555
Ca4 O16 2.520566 1_545
Ca4 O6 2.572661 1_555
Ca4 O12 2.643914 1_555
Ca5 O21 2.405938 1_555
Ca5 O4 2.410115 1_555
Ca5 O17 2.439987 1_545
Ca5 O13 2.480902 1_555
Ca5 O22 2.495695 1_555
Ca5 O3 2.522973 1_555
Ca5 O8 2.538962 1_555
Ca5 O7 2.553731 1_555
Ca6 O6 2.306791 1_555
Ca6 O14 2.359754 1_555
Ca6 O12 2.436530 1_555
Ca6 O2 2.475214 1_555
Ca6 O8 2.479421 1_554
Ca6 O18 2.491945 1_455
Ca6 O4 2.632903 1_554
Ca6 O22 2.636720 1_554
Ca7 O15 2.389412 1_555
Ca7 O7 2.441400 1_555
Ca7 O9 2.443360 1_555
Ca7 O19 2.459152 1_455
Ca7 O13 2.477197 1_555
Ca7 O3 2.517846 1_555
Ca7 O23 2.567892 1_555
Ca7 O5 2.602738 1_555
Ca8 O17 2.306791 1_555
Ca8 O8 2.359754 1_555
Ca8 O11 2.436530 1_555
Ca8 O21 2.475214 1_555
Ca8 O14 2.479421 1_556
Ca8 O4 2.491945 1_565
Ca8 O18 2.632903 1_556
Ca8 O0 2.636720 1_556
Ca9 O9 2.389412 1_555
Ca9 O16 2.441400 1_555
Ca9 O15 2.443360 1_555
Ca9 O5 2.459152 1_565
Ca9 O10 2.477197 1_555
Ca9 O20 2.517846 1_555
Ca9 O1 2.567892 1_555
Ca9 O19 2.602738 1_555
Ca10 O10 2.323135 1_545
Ca10 O23 2.405634 1_655
Ca10 O6 2.422196 1_655
Ca10 O12 2.455340 1_655
Ca10 O16 2.467641 1_545
Ca10 O20 2.555631 1_555
Ca10 O0 2.583558 1_545
Ca10 O2 2.661034 1_555
Ca11 O13 2.323129 1_655
Ca11 O1 2.405636 1_545
Ca11 O17 2.422201 1_545
Ca11 O11 2.455338 1_545
Ca11 O7 2.467638 1_655
Ca11 O3 2.555636 1_555
Ca11 O22 2.583555 1_655
Ca11 O21 2.661037 1_555
Co0 O12 1.859775 1_555
Co0 O16 1.859849 1_545
Co0 O14 1.904955 1_545
Co0 O4 1.926217 1_554
Co0 O0 1.933616 1_545
Co0 O2 1.954568 1_555
Co1 O1 1.926760 1_545
Co1 O5 1.928915 1_555
Co1 O3 1.934474 1_555
Co1 O15 1.938956 1_545
Co1 O13 1.942154 1_555
Co1 O17 1.943618 1_545
Co2 O11 1.859775 1_555
Co2 O7 1.859849 1_655
Co2 O8 1.904955 1_655
Co2 O18 1.926217 1_556
Co2 O22 1.933616 1_655
Co2 O21 1.954568 1_555
Co3 O23 1.926760 1_655
Co3 O19 1.928915 1_555
Co3 O20 1.934474 1_555
Co3 O9 1.938956 1_655
Co3 O10 1.942154 1_555
Co3 O6 1.943618 1_655
Co4 O3 2.014234 1_555
Co4 O20 2.014234 1_555
Co4 O19 2.103720 1_555
Co4 O5 2.103720 1_555
Co4 O1 2.123775 1_545
Co4 O23 2.123775 1_655
Co5 O9 2.073725 1_555
Co5 O10 2.132046 1_455
Co5 O16 2.164925 1_555
Co5 O14 2.166589 1_555
Co5 O6 2.178770 1_555
Co5 O12 2.211652 1_565
Co6 O15 2.073725 1_555
Co6 O13 2.132046 1_565
Co6 O7 2.164925 1_555
Co6 O8 2.166589 1_555
Co6 O17 2.178770 1_555
Co6 O11 2.211652 1_455
O0 Sc0 2.123434 1_565
O2 Sc0 2.112380 1_555
O4 Sc0 2.120550 1_556
O18 Sc0 2.120550 1_555
O21 Sc0 2.112380 1_556
O22 Sc0 2.123434 1_456
