# generated using pymatgen
data_La2Sc2O5
_symmetry_space_group_name_H-M   'P 1'
_cell_length_a   9.04651840
_cell_length_b   9.04651840
_cell_length_c   9.04651840
_cell_angle_alpha   142.93625915
_cell_angle_beta   142.58475885
_cell_angle_gamma   53.68539965
_symmetry_Int_Tables_number   1
_chemical_formula_structural   La2Sc2O5
_chemical_formula_sum   'La4 Sc4 O10'
_cell_volume   269.36442666
_cell_formula_units_Z   2
loop_
 _symmetry_equiv_pos_site_id
 _symmetry_equiv_pos_as_xyz
  1  'x, y, z'
loop_
 _atom_site_type_symbol
 _atom_site_label
 _atom_site_symmetry_multiplicity
 _atom_site_fract_x
 _atom_site_fract_y
 _atom_site_fract_z
 _atom_site_occupancy
  La  La0  1  0.12640300  0.62426700  0.49846100  1
  La  La1  1  0.87359700  0.37205800  0.49786300  1
  La  La2  1  0.62580600  0.12426700  0.49786300  1
  La  La3  1  0.37419400  0.87205800  0.49846100  1
  Sc  Sc0  1  0.00000000  0.00609800  0.00609800  1
  Sc  Sc1  1  0.50000000  0.50609800  0.00609800  1
  Sc  Sc2  1  0.26262400  0.26925900  0.03188300  1
  Sc  Sc3  1  0.73737600  0.76925900  0.00663600  1
  O  O0  1  0.21181000  0.72068500  0.99475700  1
  O  O1  1  0.78819000  0.78294700  0.50887500  1
  O  O2  1  0.22592800  0.22068500  0.50887500  1
  O  O3  1  0.77407200  0.28294700  0.99475700  1
  O  O4  1  0.21843200  0.15923700  0.12580600  1
  O  O5  1  0.78156800  0.90737400  0.94080500  1
  O  O6  1  0.53343200  0.65923700  0.94080500  1
  O  O7  1  0.46656800  0.40737400  0.12580600  1
  O  O8  1  0.03776500  0.56251000  0.10027400  1
  O  O9  1  0.96223500  0.06251000  0.52474500  1
loop_
_geom_bond_atom_site_label_1
_geom_bond_atom_site_label_2
_geom_bond_distance
_geom_bond_site_symmetry_2
La0 O6 2.371675 1_555
La0 O1 2.543787 1_455
La0 O3 2.566718 1_454
La0 O8 2.580976 1_555
La0 O4 2.726207 1_555
La1 O7 2.371673 1_555
La1 O0 2.543785 1_655
La1 O2 2.566713 1_655
La1 O9 2.580973 1_555
La1 O5 2.726203 1_544
La2 O4 2.371670 1_555
La2 O3 2.543795 1_555
La2 O1 2.566723 1_545
La2 O9 2.580961 1_555
La2 O6 2.726206 1_544
La3 O5 2.371673 1_555
La3 O2 2.543787 1_565
La3 O0 2.566718 1_554
La3 O8 2.580963 1_555
La3 O7 2.726203 1_555
O0 Sc0 2.092456 1_566
O0 Sc1 2.115300 1_556
O1 Sc0 2.092456 1_666
O1 Sc1 2.115300 1_555
O2 Sc1 2.092456 1_556
O2 Sc0 2.115300 1_555
O3 Sc1 2.092456 1_556
O3 Sc0 2.115300 1_656
O4 Sc2 2.057425 1_555
O4 Sc0 2.108463 1_555
O5 Sc3 2.057434 1_556
O5 Sc0 2.108463 1_666
O6 Sc3 2.057409 1_556
O6 Sc1 2.108470 1_556
O7 Sc2 2.057417 1_555
O7 Sc1 2.108470 1_555
O8 Sc3 2.110040 1_455
O8 Sc2 2.132258 1_555
O9 Sc2 2.110042 1_656
O9 Sc3 2.132254 1_545
