# generated using pymatgen
data_ThUSb4
_symmetry_space_group_name_H-M   'P 1'
_cell_length_a   4.37055572
_cell_length_b   4.37052839
_cell_length_c   9.07423061
_cell_angle_alpha   90.00000000
_cell_angle_beta   90.00000000
_cell_angle_gamma   90.00000000
_symmetry_Int_Tables_number   1
_chemical_formula_structural   ThUSb4
_chemical_formula_sum   'Th1 U1 Sb4'
_cell_volume   173.33266692
_cell_formula_units_Z   1
loop_
 _symmetry_equiv_pos_site_id
 _symmetry_equiv_pos_as_xyz
  1  'x, y, z'
loop_
 _atom_site_type_symbol
 _atom_site_label
 _atom_site_symmetry_multiplicity
 _atom_site_fract_x
 _atom_site_fract_y
 _atom_site_fract_z
 _atom_site_occupancy
  Th  Th0  1  0.50000000  0.50000000  0.72354527  1
  U  U0  1  -0.00000000  -0.00000000  0.27806756  1
  Sb  Sb0  1  0.50000000  0.00000000  0.00479830  1
  Sb  Sb1  1  -0.00000000  0.50000000  0.00479830  1
  Sb  Sb2  1  0.50000000  0.50000000  0.35738399  1
  Sb  Sb3  1  0.00000000  -0.00000000  0.63140557  1
loop_
_geom_bond_atom_site_label_1
_geom_bond_atom_site_label_2
_geom_bond_distance
_geom_bond_site_symmetry_2
Sb0 Sb1 3.090440 1_655
Sb0 Sb1 3.090440 1_545
Sb0 Sb1 3.090440 1_645
Sb0 Sb1 3.090440 1_555
Sb0 U0 3.305207 1_555
Sb0 U0 3.305207 1_655
Sb0 Th0 3.359892 1_544
Sb0 Th0 3.359892 1_554
Sb1 U0 3.305198 1_565
Sb1 U0 3.305198 1_555
Sb1 Th0 3.359901 1_554
Sb1 Th0 3.359901 1_454
Sb2 U0 3.173143 1_655
Sb2 U0 3.173143 1_565
Sb2 U0 3.173143 1_665
Sb2 U0 3.173143 1_555
Sb2 Th0 3.322632 1_555
Sb3 Th0 3.201543 1_455
Sb3 Th0 3.201543 1_555
Sb3 Th0 3.201543 1_445
Sb3 Th0 3.201543 1_545
Sb3 U0 3.206271 1_555
