# generated using pymatgen
data_SmHg2
_symmetry_space_group_name_H-M   'P 1'
_cell_length_a   6.83772800
_cell_length_b   10.88606849
_cell_length_c   10.88606849
_cell_angle_alpha   120.00000297
_cell_angle_beta   90.00000000
_cell_angle_gamma   90.00000000
_symmetry_Int_Tables_number   1
_chemical_formula_structural   SmHg2
_chemical_formula_sum   'Sm8 Hg16'
_cell_volume   701.75346261
_cell_formula_units_Z   8
loop_
 _symmetry_equiv_pos_site_id
 _symmetry_equiv_pos_as_xyz
  1  'x, y, z'
loop_
 _atom_site_type_symbol
 _atom_site_label
 _atom_site_symmetry_multiplicity
 _atom_site_fract_x
 _atom_site_fract_y
 _atom_site_fract_z
 _atom_site_occupancy
  Sm  Sm0_0  1  0.00000000  0.00000000  0.00000000  1
  Sm  Sm0_1  1  0.00000000  0.00000000  0.50000000  1
  Sm  Sm0_2  1  0.00000000  0.50000000  0.00000000  1
  Sm  Sm0_3  1  0.00000000  0.50000000  0.50000000  1
  Sm  Sm0_4  1  0.50000000  0.00000000  0.00000000  1
  Sm  Sm0_5  1  0.50000000  0.00000000  0.50000000  1
  Sm  Sm0_6  1  0.50000000  0.50000000  0.00000000  1
  Sm  Sm0_7  1  0.50000000  0.50000000  0.50000000  1
  Hg  Hg0_0  1  0.02744800  0.33333350  0.16666650  1
  Hg  Hg0_1  1  0.02744800  0.33333350  0.66666650  1
  Hg  Hg0_2  1  0.02744800  0.83333350  0.16666650  1
  Hg  Hg0_3  1  0.02744800  0.83333350  0.66666650  1
  Hg  Hg0_4  1  0.52744800  0.33333350  0.16666650  1
  Hg  Hg0_5  1  0.52744800  0.33333350  0.66666650  1
  Hg  Hg0_6  1  0.52744800  0.83333350  0.16666650  1
  Hg  Hg0_7  1  0.52744800  0.83333350  0.66666650  1
  Hg  Hg1_0  1  0.47255200  0.16666650  0.33333350  1
  Hg  Hg1_1  1  0.47255200  0.16666650  0.83333350  1
  Hg  Hg1_2  1  0.47255200  0.66666650  0.33333350  1
  Hg  Hg1_3  1  0.47255200  0.66666650  0.83333350  1
  Hg  Hg1_4  1  0.97255200  0.16666650  0.33333350  1
  Hg  Hg1_5  1  0.97255200  0.16666650  0.83333350  1
  Hg  Hg1_6  1  0.97255200  0.66666650  0.33333350  1
  Hg  Hg1_7  1  0.97255200  0.66666650  0.83333350  1
loop_
_geom_bond_atom_site_label_1
_geom_bond_atom_site_label_2
_geom_bond_distance
_geom_bond_site_symmetry_2
Sm0_0 Sm0_4 3.418864 1_555
Sm0_0 Sm0_4 3.418864 1_455
Sm0_1 Sm0_5 3.418864 1_555
Sm0_1 Sm0_5 3.418864 1_455
Sm0_2 Sm0_6 3.418864 1_555
Sm0_2 Sm0_6 3.418864 1_455
Sm0_3 Sm0_7 3.418864 1_555
Sm0_3 Sm0_7 3.418864 1_455
Hg0_0 Sm0_2 3.148134 1_555
Hg0_0 Sm0_3 3.148138 1_555
Hg0_0 Sm0_0 3.148138 1_555
Hg0_0 Hg1_6 3.164873 1_455
Hg0_0 Hg1_5 3.164873 1_454
Hg0_0 Hg1_4 3.164882 1_455
Hg0_1 Sm0_3 3.148134 1_555
Hg0_1 Sm0_1 3.148138 1_555
Hg0_1 Sm0_2 3.148138 1_556
Hg0_1 Hg1_7 3.164873 1_455
Hg0_1 Hg1_4 3.164873 1_455
Hg0_1 Hg1_5 3.164882 1_455
Hg0_2 Sm0_0 3.148134 1_565
Hg0_2 Sm0_2 3.148138 1_555
Hg0_2 Sm0_1 3.148138 1_565
Hg0_2 Hg1_4 3.164873 1_465
Hg0_2 Hg1_7 3.164873 1_454
Hg0_2 Hg1_6 3.164882 1_455
Hg0_3 Sm0_1 3.148134 1_565
Hg0_3 Sm0_3 3.148138 1_555
Hg0_3 Sm0_0 3.148138 1_566
Hg0_3 Hg1_6 3.164873 1_455
Hg0_3 Hg1_5 3.164873 1_465
Hg0_3 Hg1_7 3.164882 1_455
Hg0_4 Sm0_6 3.148134 1_555
Hg0_4 Sm0_7 3.148138 1_555
Hg0_4 Sm0_4 3.148138 1_555
Hg0_4 Hg1_2 3.164873 1_555
Hg0_4 Hg1_1 3.164873 1_554
Hg0_4 Hg1_0 3.164882 1_555
Hg0_5 Sm0_7 3.148134 1_555
Hg0_5 Sm0_5 3.148138 1_555
Hg0_5 Sm0_6 3.148138 1_556
Hg0_5 Hg1_0 3.164873 1_555
Hg0_5 Hg1_3 3.164873 1_555
Hg0_5 Hg1_1 3.164882 1_555
Hg0_6 Sm0_4 3.148134 1_565
Hg0_6 Sm0_6 3.148138 1_555
Hg0_6 Sm0_5 3.148138 1_565
Hg0_6 Hg1_0 3.164873 1_565
Hg0_6 Hg1_3 3.164873 1_554
Hg0_6 Hg1_2 3.164882 1_555
Hg0_7 Sm0_5 3.148134 1_565
Hg0_7 Sm0_7 3.148138 1_555
Hg0_7 Sm0_4 3.148138 1_566
Hg0_7 Hg1_2 3.164873 1_555
Hg0_7 Hg1_1 3.164873 1_565
Hg0_7 Hg1_3 3.164882 1_555
Hg1_0 Sm0_5 3.148134 1_555
Hg1_0 Sm0_7 3.148138 1_555
Hg1_0 Sm0_4 3.148138 1_555
Hg1_1 Sm0_4 3.148134 1_556
Hg1_1 Sm0_5 3.148138 1_555
Hg1_1 Sm0_6 3.148138 1_556
Hg1_2 Sm0_7 3.148134 1_555
Hg1_2 Sm0_6 3.148138 1_555
Hg1_2 Sm0_5 3.148138 1_565
Hg1_3 Sm0_6 3.148134 1_556
Hg1_3 Sm0_7 3.148138 1_555
Hg1_3 Sm0_4 3.148138 1_566
Hg1_4 Sm0_1 3.148134 1_655
Hg1_4 Sm0_0 3.148138 1_655
Hg1_4 Sm0_3 3.148138 1_655
Hg1_5 Sm0_0 3.148134 1_656
Hg1_5 Sm0_1 3.148138 1_655
Hg1_5 Sm0_2 3.148138 1_656
Hg1_6 Sm0_3 3.148134 1_655
Hg1_6 Sm0_2 3.148138 1_655
Hg1_6 Sm0_1 3.148138 1_665
Hg1_7 Sm0_2 3.148134 1_656
Hg1_7 Sm0_3 3.148138 1_655
Hg1_7 Sm0_0 3.148138 1_666
