# generated using pymatgen
data_CoH16C4S4(N4Cl)2
_symmetry_space_group_name_H-M   'P 1'
_cell_length_a   13.57929700
_cell_length_b   13.57929700
_cell_length_c   9.46317200
_cell_angle_alpha   90.00000000
_cell_angle_beta   90.00000000
_cell_angle_gamma   90.00000000
_symmetry_Int_Tables_number   1
_chemical_formula_structural   CoH16C4S4(N4Cl)2
_chemical_formula_sum   'Co4 H64 C16 S16 N32 Cl8'
_cell_volume   1744.98343261
_cell_formula_units_Z   4
loop_
 _symmetry_equiv_pos_site_id
 _symmetry_equiv_pos_as_xyz
  1  'x, y, z'
loop_
 _atom_site_type_symbol
 _atom_site_label
 _atom_site_symmetry_multiplicity
 _atom_site_fract_x
 _atom_site_fract_y
 _atom_site_fract_z
 _atom_site_occupancy
  Co  Co0  1  0.25000000  0.25000000  0.25000000  1
  Co  Co1  1  0.75000000  0.75000000  0.25000000  1
  Co  Co2  1  0.25000000  0.75000000  0.75000000  1
  Co  Co3  1  0.75000000  0.25000000  0.75000000  1
  H  H0  1  0.40071500  0.90327500  0.29830600  1
  H  H1  1  0.59928500  0.09672500  0.29830600  1
  H  H2  1  0.59672500  0.90071500  0.79830600  1
  H  H3  1  0.40327500  0.09928500  0.79830600  1
  H  H4  1  0.09928500  0.59672500  0.20169400  1
  H  H5  1  0.90071500  0.40327500  0.20169400  1
  H  H6  1  0.90327500  0.59928500  0.70169400  1
  H  H7  1  0.09672500  0.40071500  0.70169400  1
  H  H8  1  0.32870200  0.85265800  0.16232400  1
  H  H9  1  0.67129800  0.14734200  0.16232400  1
  H  H10  1  0.64734200  0.82870200  0.66232400  1
  H  H11  1  0.35265800  0.17129800  0.66232400  1
  H  H12  1  0.17129800  0.64734200  0.33767600  1
  H  H13  1  0.82870200  0.35265800  0.33767600  1
  H  H14  1  0.85265800  0.67129800  0.83767600  1
  H  H15  1  0.14734200  0.32870200  0.83767600  1
  H  H16  1  0.25073300  0.95175200  0.00387300  1
  H  H17  1  0.74926700  0.04824800  0.00387300  1
  H  H18  1  0.54824800  0.75073300  0.50387300  1
  H  H19  1  0.45175200  0.24926700  0.50387300  1
  H  H20  1  0.24926700  0.54824800  0.49612700  1
  H  H21  1  0.75073300  0.45175200  0.49612700  1
  H  H22  1  0.95175200  0.74926700  0.99612700  1
  H  H23  1  0.04824800  0.25073300  0.99612700  1
  H  H24  1  0.25066000  0.08050200  0.02625900  1
  H  H25  1  0.74934000  0.91949800  0.02625900  1
  H  H26  1  0.41949800  0.75066000  0.52625900  1
  H  H27  1  0.58050200  0.24934000  0.52625900  1
  H  H28  1  0.24934000  0.41949800  0.47374100  1
  H  H29  1  0.75066000  0.58050200  0.47374100  1
  H  H30  1  0.08050200  0.74934000  0.97374100  1
  H  H31  1  0.91949800  0.25066000  0.97374100  1
  H  H32  1  0.91454300  0.05993300  0.25411200  1
  H  H33  1  0.08545700  0.94006700  0.25411200  1
  H  H34  1  0.44006700  0.41454300  0.75411200  1
  H  H35  1  0.55993300  0.58545700  0.75411200  1
  H  H36  1  0.58545700  0.44006700  0.24588800  1
  H  H37  1  0.41454300  0.55993300  0.24588800  1
  H  H38  1  0.05993300  0.08545700  0.74588800  1
  H  H39  1  0.94006700  0.91454300  0.74588800  1
  H  H40  1  0.85732400  0.13802800  0.37695700  1
  H  H41  1  0.14267600  0.86197200  0.37695700  1
  H  H42  1  0.36197200  0.35732400  0.87695700  1
  H  H43  1  0.63802800  0.64267600  0.87695700  1
  H  H44  1  0.64267600  0.36197200  0.12304300  1
  H  H45  1  0.35732400  0.63802800  0.12304300  1
  H  H46  1  0.13802800  0.14267600  0.62304300  1
  H  H47  1  0.86197200  0.85732400  0.62304300  1
  H  H48  1  0.94601600  0.25395500  0.50255000  1
  H  H49  1  0.05398400  0.74604500  0.50255000  1
  H  H50  1  0.24604500  0.44601600  0.00255000  1
  H  H51  1  0.75395500  0.55398400  0.00255000  1
  H  H52  1  0.55398400  0.24604500  0.99745000  1
  H  H53  1  0.44601600  0.75395500  0.99745000  1
  H  H54  1  0.25395500  0.05398400  0.49745000  1
  H  H55  1  0.74604500  0.94601600  0.49745000  1
  H  H56  1  0.06504100  0.28246800  0.44537000  1
  H  H57  1  0.93495900  0.71753200  0.44537000  1
  H  H58  1  0.21753200  0.56504100  0.94537000  1
  H  H59  1  0.78246800  0.43495900  0.94537000  1
  H  H60  1  0.43495900  0.21753200  0.05463000  1
  H  H61  1  0.56504100  0.78246800  0.05463000  1
  H  H62  1  0.28246800  0.93495900  0.55463000  1
  H  H63  1  0.71753200  0.06504100  0.55463000  1
  C  C0  1  0.32649600  0.00368500  0.17701800  1
  C  C1  1  0.67350400  0.99631500  0.17701800  1
  C  C2  1  0.49631500  0.82649600  0.67701800  1
  C  C3  1  0.50368500  0.17350400  0.67701800  1
  C  C4  1  0.17350400  0.49631500  0.32298200  1
  C  C5  1  0.82649600  0.50368500  0.32298200  1
  C  C6  1  0.00368500  0.67350400  0.82298200  1
  C  C7  1  0.99631500  0.32649600  0.82298200  1
  C  C8  1  0.00261500  0.16862000  0.33899200  1
  C  C9  1  0.99738500  0.83138000  0.33899200  1
  C  C10  1  0.33138000  0.50261500  0.83899200  1
  C  C11  1  0.66862000  0.49738500  0.83899200  1
  C  C12  1  0.49738500  0.33138000  0.16100800  1
  C  C13  1  0.50261500  0.66862000  0.16100800  1
  C  C14  1  0.16862000  0.99738500  0.66100800  1
  C  C15  1  0.83138000  0.00261500  0.66100800  1
  S  S0  1  0.36127100  0.10443000  0.27543400  1
  S  S1  1  0.63872900  0.89557000  0.27543400  1
  S  S2  1  0.39557000  0.86127100  0.77543400  1
  S  S3  1  0.60443000  0.13872900  0.77543400  1
  S  S4  1  0.13872900  0.39557000  0.22456600  1
  S  S5  1  0.86127100  0.60443000  0.22456600  1
  S  S6  1  0.10443000  0.63872900  0.72456600  1
  S  S7  1  0.89557000  0.36127100  0.72456600  1
  S  S8  1  0.10239300  0.14266600  0.23330900  1
  S  S9  1  0.89760700  0.85733400  0.23330900  1
  S  S10  1  0.35733400  0.60239300  0.73330900  1
  S  S11  1  0.64266600  0.39760700  0.73330900  1
  S  S12  1  0.39760700  0.35733400  0.26669100  1
  S  S13  1  0.60239300  0.64266600  0.26669100  1
  S  S14  1  0.14266600  0.89760700  0.76669100  1
  S  S15  1  0.85733400  0.10239300  0.76669100  1
  N  N0  1  0.35325700  0.91286400  0.21707900  1
  N  N1  1  0.64674300  0.08713600  0.21707900  1
  N  N2  1  0.58713600  0.85325700  0.71707900  1
  N  N3  1  0.41286400  0.14674300  0.71707900  1
  N  N4  1  0.14674300  0.58713600  0.28292100  1
  N  N5  1  0.85325700  0.41286400  0.28292100  1
  N  N6  1  0.91286400  0.64674300  0.78292100  1
  N  N7  1  0.08713600  0.35325700  0.78292100  1
  N  N8  1  0.27147100  0.01216700  0.06034000  1
  N  N9  1  0.72852900  0.98783300  0.06034000  1
  N  N10  1  0.48783300  0.77147100  0.56034000  1
  N  N11  1  0.51216700  0.22852900  0.56034000  1
  N  N12  1  0.22852900  0.48783300  0.43966000  1
  N  N13  1  0.77147100  0.51216700  0.43966000  1
  N  N14  1  0.01216700  0.72852900  0.93966000  1
  N  N15  1  0.98783300  0.27147100  0.93966000  1
  N  N16  1  0.91909800  0.11718400  0.32297300  1
  N  N17  1  0.08090200  0.88281600  0.32297300  1
  N  N18  1  0.38281600  0.41909800  0.82297300  1
  N  N19  1  0.61718400  0.58090200  0.82297300  1
  N  N20  1  0.58090200  0.38281600  0.17702700  1
  N  N21  1  0.41909800  0.61718400  0.17702700  1
  N  N22  1  0.11718400  0.08090200  0.67702700  1
  N  N23  1  0.88281600  0.91909800  0.67702700  1
  N  N24  1  0.00436700  0.23915000  0.43762100  1
  N  N25  1  0.99563300  0.76085000  0.43762100  1
  N  N26  1  0.26085000  0.50436700  0.93762100  1
  N  N27  1  0.73915000  0.49563300  0.93762100  1
  N  N28  1  0.49563300  0.26085000  0.06237900  1
  N  N29  1  0.50436700  0.73915000  0.06237900  1
  N  N30  1  0.23915000  0.99563300  0.56237900  1
  N  N31  1  0.76085000  0.00436700  0.56237900  1
  Cl  Cl0  1  0.25111500  0.24109800  0.98143400  1
  Cl  Cl1  1  0.74888500  0.75890200  0.98143400  1
  Cl  Cl2  1  0.25890200  0.75111500  0.48143400  1
  Cl  Cl3  1  0.74109800  0.24888500  0.48143400  1
  Cl  Cl4  1  0.24888500  0.25890200  0.51856600  1
  Cl  Cl5  1  0.75111500  0.74109800  0.51856600  1
  Cl  Cl6  1  0.24109800  0.74888500  0.01856600  1
  Cl  Cl7  1  0.75890200  0.25111500  0.01856600  1
loop_
_geom_bond_atom_site_label_1
_geom_bond_atom_site_label_2
_geom_bond_distance
_geom_bond_site_symmetry_2
Co0 S12 2.483330 1_555
Co0 S8 2.483330 1_555
Co0 S0 2.499698 1_555
Co0 S4 2.499698 1_555
Co1 S9 2.483330 1_555
Co1 S13 2.483330 1_555
Co1 S5 2.499698 1_555
Co1 S1 2.499698 1_555
Co2 S14 2.483330 1_555
Co2 S10 2.483330 1_555
Co2 S2 2.499698 1_555
Co2 S6 2.499698 1_555
Co3 S15 2.483330 1_555
Co3 S11 2.483330 1_555
Co3 S3 2.499698 1_555
Co3 S7 2.499698 1_555
H0 N0 1.011490 1_555
H1 N1 1.011490 1_555
H2 N2 1.011490 1_555
H3 N3 1.011490 1_555
H4 N4 1.011490 1_555
H5 N5 1.011490 1_555
H6 N6 1.011490 1_555
H7 N7 1.011490 1_555
H8 N0 1.023750 1_555
H9 N1 1.023750 1_555
H10 N2 1.023750 1_555
H11 N3 1.023750 1_555
H12 N4 1.023750 1_555
H13 N5 1.023750 1_555
H14 N6 1.023750 1_555
H15 N7 1.023750 1_555
H16 N8 1.018766 1_565
H17 N9 1.018766 1_545
H18 N10 1.018766 1_555
H19 N11 1.018766 1_555
H20 N12 1.018766 1_555
H21 N13 1.018766 1_555
H22 N14 1.018766 1_655
H23 N15 1.018766 1_455
H24 N8 1.022229 1_555
H25 N9 1.022229 1_555
H26 N10 1.022229 1_555
H27 N11 1.022229 1_555
H28 N12 1.022229 1_555
H29 N13 1.022229 1_555
H30 N14 1.022229 1_555
H31 N15 1.022229 1_555
H32 N16 1.016297 1_555
H33 N17 1.016297 1_555
H34 N18 1.016297 1_555
H35 N19 1.016297 1_555
H36 N20 1.016297 1_555
H37 N21 1.016297 1_555
H38 N22 1.016297 1_555
H39 N23 1.016297 1_555
H40 N16 1.022134 1_555
H41 N17 1.022134 1_555
H42 N18 1.022134 1_555
H43 N19 1.022134 1_555
H44 N20 1.022134 1_555
H45 N21 1.022134 1_555
H46 N22 1.022134 1_555
H47 N23 1.022134 1_555
H48 N24 1.022639 1_655
H49 N25 1.022639 1_455
H50 N26 1.022639 1_554
H51 N27 1.022639 1_554
H52 N28 1.022639 1_556
H53 N29 1.022639 1_556
H54 N30 1.022639 1_545
H55 N31 1.022639 1_565
H56 N24 1.014996 1_555
H57 N25 1.014996 1_555
H58 N26 1.014996 1_555
H59 N27 1.014996 1_555
H60 N28 1.014996 1_555
H61 N29 1.014996 1_555
H62 N30 1.014996 1_555
H63 N31 1.014996 1_555
C0 N8 1.338174 1_555
C0 N0 1.340436 1_545
C0 S0 1.721021 1_555
C1 N9 1.338174 1_555
C1 N1 1.340436 1_565
C1 S1 1.721021 1_555
C2 N10 1.338174 1_555
C2 N2 1.340436 1_555
C2 S2 1.721021 1_555
C3 N11 1.338174 1_555
C3 N3 1.340436 1_555
C3 S3 1.721021 1_555
C4 N12 1.338174 1_555
C4 N4 1.340436 1_555
C4 S4 1.721021 1_555
C5 N13 1.338174 1_555
C5 N5 1.340436 1_555
C5 S5 1.721021 1_555
C6 N14 1.338174 1_555
C6 N6 1.340436 1_455
C6 S6 1.721021 1_555
C7 N15 1.338174 1_555
C7 N7 1.340436 1_655
C7 S7 1.721021 1_555
C8 N24 1.337526 1_555
C8 N16 1.340530 1_455
C8 S8 1.720523 1_555
C9 N25 1.337526 1_555
C9 N17 1.340530 1_655
C9 S9 1.720523 1_555
C10 N26 1.337526 1_555
C10 N18 1.340530 1_555
C10 S10 1.720523 1_555
C11 N27 1.337526 1_555
C11 N19 1.340530 1_555
C11 S11 1.720523 1_555
C12 N28 1.337526 1_555
C12 N20 1.340530 1_555
C12 S12 1.720523 1_555
C13 N29 1.337526 1_555
C13 N21 1.340530 1_555
C13 S13 1.720523 1_555
C14 N30 1.337526 1_555
C14 N22 1.340530 1_565
C14 S14 1.720523 1_555
C15 N31 1.337526 1_555
C15 N23 1.340530 1_545
C15 S15 1.720523 1_555
Cl0 Co0 2.544405 1_556
Cl1 Co1 2.544405 1_556
Cl2 Co2 2.544405 1_555
Cl3 Co3 2.544405 1_555
Cl4 Co0 2.544405 1_555
Cl5 Co1 2.544405 1_555
Cl6 Co2 2.544405 1_554
Cl7 Co3 2.544405 1_554
