# generated using pymatgen
data_LuBi3
_symmetry_space_group_name_H-M   'P 1'
_cell_length_a   6.82306421
_cell_length_b   6.82306421
_cell_length_c   5.96034900
_cell_angle_alpha   90.00000000
_cell_angle_beta   90.00000000
_cell_angle_gamma   120.00000205
_symmetry_Int_Tables_number   1
_chemical_formula_structural   LuBi3
_chemical_formula_sum   'Lu2 Bi6'
_cell_volume   240.30412706
_cell_formula_units_Z   2
loop_
 _symmetry_equiv_pos_site_id
 _symmetry_equiv_pos_as_xyz
  1  'x, y, z'
loop_
 _atom_site_type_symbol
 _atom_site_label
 _atom_site_symmetry_multiplicity
 _atom_site_fract_x
 _atom_site_fract_y
 _atom_site_fract_z
 _atom_site_occupancy
  Lu  Lu0  1  0.33333300  0.66666700  0.75000000  1
  Lu  Lu1  1  0.66666700  0.33333300  0.25000000  1
  Bi  Bi0  1  0.17291700  0.34583400  0.25000000  1
  Bi  Bi1  1  0.65416600  0.82708300  0.25000000  1
  Bi  Bi2  1  0.17291700  0.82708300  0.25000000  1
  Bi  Bi3  1  0.82708300  0.65416600  0.75000000  1
  Bi  Bi4  1  0.34583400  0.17291700  0.75000000  1
  Bi  Bi5  1  0.82708300  0.17291700  0.75000000  1
loop_
_geom_bond_atom_site_label_1
_geom_bond_atom_site_label_2
_geom_bond_distance
_geom_bond_site_symmetry_2
Bi0 Bi1 3.283593 1_555
Bi0 Bi2 3.283593 1_555
Bi0 Lu1 3.412328 1_455
Bi0 Lu1 3.412335 1_555
Bi0 Lu0 3.532059 1_555
Bi0 Lu0 3.532059 1_554
Bi0 Bi1 3.539471 1_445
Bi0 Bi2 3.539471 1_545
Bi0 Bi5 3.613501 1_455
Bi0 Bi5 3.613501 1_454
Bi0 Bi4 3.613501 1_555
Bi0 Bi4 3.613501 1_554
Bi1 Bi2 3.283593 1_555
Bi1 Lu1 3.412328 1_565
Bi1 Lu1 3.412335 1_555
Bi1 Lu0 3.532059 1_554
Bi1 Lu0 3.532059 1_555
Bi1 Bi2 3.539471 1_655
Bi1 Bi5 3.613501 1_565
Bi1 Bi5 3.613501 1_564
Bi1 Bi3 3.613501 1_554
Bi1 Bi3 3.613501 1_555
Bi2 Lu1 3.412331 1_455
Bi2 Lu1 3.412331 1_565
Bi2 Lu0 3.532056 1_554
Bi2 Lu0 3.532056 1_555
Bi2 Bi3 3.613501 1_455
Bi2 Bi4 3.613501 1_565
Bi2 Bi4 3.613501 1_564
Bi2 Bi3 3.613501 1_454
Bi3 Bi4 3.283593 1_555
Bi3 Bi5 3.283593 1_555
Bi3 Lu0 3.412328 1_655
Bi3 Lu0 3.412335 1_555
Bi3 Lu1 3.532059 1_556
Bi3 Lu1 3.532059 1_555
Bi3 Bi4 3.539471 1_665
Bi3 Bi5 3.539471 1_565
Bi4 Bi5 3.283593 1_555
Bi4 Lu0 3.412328 1_545
Bi4 Lu0 3.412335 1_555
Bi4 Lu1 3.532059 1_556
Bi4 Lu1 3.532059 1_555
Bi4 Bi5 3.539471 1_455
Bi5 Lu0 3.412331 1_545
Bi5 Lu0 3.412331 1_655
Bi5 Lu1 3.532056 1_555
Bi5 Lu1 3.532056 1_556
