# generated using pymatgen
data_KNdMnWO6
_symmetry_space_group_name_H-M   'P 1'
_cell_length_a   5.66246328
_cell_length_b   5.75818100
_cell_length_c   8.27038383
_cell_angle_alpha   90.00000000
_cell_angle_beta   90.53522937
_cell_angle_gamma   90.00000000
_symmetry_Int_Tables_number   1
_chemical_formula_structural   KNdMnWO6
_chemical_formula_sum   'K2 Nd2 Mn2 W2 O12'
_cell_volume   269.64813882
_cell_formula_units_Z   2
loop_
 _symmetry_equiv_pos_site_id
 _symmetry_equiv_pos_as_xyz
  1  'x, y, z'
loop_
 _atom_site_type_symbol
 _atom_site_label
 _atom_site_symmetry_multiplicity
 _atom_site_fract_x
 _atom_site_fract_y
 _atom_site_fract_z
 _atom_site_occupancy
  K  K0  1  0.24532500  0.75342000  0.00198900  1
  K  K1  1  0.75467500  0.25342000  0.99801100  1
  Nd  Nd0  1  0.25512900  0.82263300  0.50096500  1
  Nd  Nd1  1  0.74487100  0.32263300  0.49903500  1
  Mn  Mn0  1  0.74757200  0.77795200  0.24646900  1
  Mn  Mn1  1  0.25242800  0.27795200  0.75353100  1
  W  W0  1  0.76066100  0.76901800  0.74885100  1
  W  W1  1  0.23933900  0.26901800  0.25114900  1
  O  O0  1  0.55193000  0.03324300  0.68784900  1
  O  O1  1  0.44807000  0.53324300  0.31215100  1
  O  O2  1  0.51643300  0.06597700  0.31337400  1
  O  O3  1  0.48356700  0.56597700  0.68662600  1
  O  O4  1  0.96371700  0.45996400  0.24573900  1
  O  O5  1  0.03628300  0.95996400  0.75426100  1
  O  O6  1  0.94005400  0.48367500  0.75777000  1
  O  O7  1  0.05994600  0.98367500  0.24223000  1
  O  O8  1  0.83624300  0.74046500  0.50469000  1
  O  O9  1  0.16375700  0.24046500  0.49531000  1
  O  O10  1  0.70849600  0.77705300  0.97205600  1
  O  O11  1  0.29150400  0.27705300  0.02794400  1
loop_
_geom_bond_atom_site_label_1
_geom_bond_atom_site_label_2
_geom_bond_distance
_geom_bond_site_symmetry_2
K0 O7 2.616568 1_555
K0 O5 2.639678 1_554
K0 O10 2.640157 1_554
K0 O11 2.763602 1_555
K0 O11 3.033921 1_565
K0 O10 3.050569 1_454
K0 O6 3.068366 1_454
K0 O1 3.074146 1_555
K0 O4 3.085774 1_455
K0 O3 3.138974 1_554
K1 O6 2.616568 1_555
K1 O4 2.639678 1_556
K1 O11 2.640157 1_556
K1 O10 2.763602 1_545
K1 O10 3.033921 1_555
K1 O11 3.050569 1_656
K1 O7 3.068366 1_646
K1 O0 3.074146 1_555
K1 O5 3.085774 1_645
K1 O2 3.138974 1_556
Nd0 O8 2.419134 1_455
Nd0 O9 2.461308 1_565
Nd0 O3 2.485542 1_555
Nd0 O1 2.537856 1_555
Nd0 O5 2.568634 1_555
Nd0 O2 2.569550 1_565
Nd0 O7 2.572183 1_555
Nd0 O0 2.575960 1_565
Nd1 O9 2.419134 1_655
Nd1 O8 2.461308 1_555
Nd1 O2 2.485542 1_555
Nd1 O0 2.537856 1_555
Nd1 O4 2.568634 1_555
Nd1 O3 2.569550 1_555
Nd1 O6 2.572183 1_555
Nd1 O1 2.575960 1_555
Mn0 O7 2.129394 1_655
Mn0 O2 2.187082 1_565
Mn0 O8 2.199862 1_555
Mn0 O4 2.202457 1_555
Mn0 O1 2.274629 1_555
Mn0 O10 2.278209 1_554
Mn1 O6 2.129394 1_455
Mn1 O3 2.187082 1_555
Mn1 O9 2.199862 1_555
Mn1 O5 2.202457 1_545
Mn1 O0 2.274629 1_555
Mn1 O11 2.278209 1_556
O0 W0 1.988763 1_545
O1 W1 1.988763 1_555
O2 W1 2.019536 1_555
O3 W0 2.019536 1_555
O4 W1 1.909289 1_655
O5 W0 1.909289 1_455
O6 W0 1.932754 1_555
O7 W1 1.932754 1_565
O8 W0 2.074594 1_555
O9 W1 2.074594 1_555
O10 W0 1.872768 1_555
O11 W1 1.872768 1_555
