# generated using pymatgen
data_MnCoB
_symmetry_space_group_name_H-M   'P 1'
_cell_length_a   5.04444987
_cell_length_b   4.17056886
_cell_length_c   4.10066874
_cell_angle_alpha   75.15611670
_cell_angle_beta   53.05116887
_cell_angle_gamma   51.79271443
_symmetry_Int_Tables_number   1
_chemical_formula_structural   MnCoB
_chemical_formula_sum   'Mn2 Co2 B2'
_cell_volume   53.24984351
_cell_formula_units_Z   2
loop_
 _symmetry_equiv_pos_site_id
 _symmetry_equiv_pos_as_xyz
  1  'x, y, z'
loop_
 _atom_site_type_symbol
 _atom_site_label
 _atom_site_symmetry_multiplicity
 _atom_site_fract_x
 _atom_site_fract_y
 _atom_site_fract_z
 _atom_site_occupancy
  Mn  Mn0  1  0.33816300  0.66183700  0.33816300  1
  Mn  Mn1  1  0.66183700  0.33816300  0.66183700  1
  Co  Co0  1  0.16665900  0.16665900  0.83334100  1
  Co  Co1  1  0.83334100  0.83334100  0.16665900  1
  B  B0  1  0.75000000  0.75000000  0.75000000  1
  B  B1  1  0.25000000  0.25000000  0.25000000  1
loop_
_geom_bond_atom_site_label_1
_geom_bond_atom_site_label_2
_geom_bond_distance
_geom_bond_site_symmetry_2
Co0 Co1 2.404729 1_446
Co0 Co1 2.414002 1_545
Co0 Co1 2.414002 1_456
Co0 Mn0 2.661988 1_555
Co0 Mn1 2.661988 1_555
Co0 Mn1 2.670144 1_456
Co0 Mn1 2.670144 1_545
Co0 Mn0 2.670144 1_545
Co0 Mn0 2.670144 1_456
Co0 Mn1 2.670819 1_455
Co0 Mn0 2.670819 1_546
Co1 Mn1 2.661988 1_555
Co1 Mn0 2.661988 1_555
Co1 Mn0 2.670144 1_565
Co1 Mn0 2.670144 1_654
Co1 Mn1 2.670144 1_654
Co1 Mn1 2.670144 1_565
Co1 Mn0 2.670819 1_655
Co1 Mn1 2.670819 1_564
B0 B1 2.093162 1_655
B0 B1 2.093162 1_566
B0 Co0 2.136678 1_565
B0 Co1 2.136678 1_555
B0 Co1 2.136678 1_556
B0 Co0 2.136678 1_655
B0 Mn0 2.176005 1_556
B0 Mn0 2.176005 1_655
B0 Mn1 2.176005 1_555
B0 Mn1 2.176005 1_565
B1 Co0 2.136678 1_554
B1 Co1 2.136678 1_455
B1 Co0 2.136678 1_555
B1 Co1 2.136678 1_545
B1 Mn1 2.176005 1_455
B1 Mn0 2.176005 1_545
B1 Mn1 2.176005 1_554
B1 Mn0 2.176005 1_555
