# generated using pymatgen
data_Cr11NiS16
_symmetry_space_group_name_H-M   'P 1'
_cell_length_a   6.51802513
_cell_length_b   6.51802513
_cell_length_c   21.54469326
_cell_angle_alpha   86.21129361
_cell_angle_beta   86.21129361
_cell_angle_gamma   30.76297551
_symmetry_Int_Tables_number   1
_chemical_formula_structural   Cr11NiS16
_chemical_formula_sum   'Cr11 Ni1 S16'
_cell_volume   467.07358580
_cell_formula_units_Z   1
loop_
 _symmetry_equiv_pos_site_id
 _symmetry_equiv_pos_as_xyz
  1  'x, y, z'
loop_
 _atom_site_type_symbol
 _atom_site_label
 _atom_site_symmetry_multiplicity
 _atom_site_fract_x
 _atom_site_fract_y
 _atom_site_fract_z
 _atom_site_occupancy
  Cr  Cr0  1  0.55509100  0.55509100  0.17597700  1
  Cr  Cr1  1  0.30643600  0.30643600  0.42981100  1
  Cr  Cr2  1  0.05534100  0.05534100  0.67969600  1
  Cr  Cr3  1  0.80762000  0.80762000  0.93373000  1
  Cr  Cr4  1  0.19238000  0.19238000  0.06627000  1
  Cr  Cr5  1  0.94465900  0.94465900  0.32030400  1
  Cr  Cr6  1  0.69356400  0.69356400  0.57018900  1
  Cr  Cr7  1  0.44490900  0.44490900  0.82402300  1
  Cr  Cr8  1  0.74926600  0.74926600  0.24888600  1
  Cr  Cr9  1  0.50000000  0.50000000  0.50000000  1
  Cr  Cr10  1  0.25073400  0.25073400  0.75111400  1
  Ni  Ni0  1  0.00000000  0.00000000  0.00000000  1
  S  S0  1  0.01189100  0.01189100  0.11008600  1
  S  S1  1  0.76255000  0.76255000  0.36199500  1
  S  S2  1  0.51142800  0.51142800  0.61184200  1
  S  S3  1  0.26382900  0.26382900  0.86346600  1
  S  S4  1  0.73617100  0.73617100  0.13653400  1
  S  S5  1  0.48857200  0.48857200  0.38815800  1
  S  S6  1  0.23745000  0.23745000  0.63800500  1
  S  S7  1  0.98810900  0.98810900  0.88991400  1
  S  S8  1  0.38929300  0.38929300  0.24434800  1
  S  S9  1  0.13866600  0.13866600  0.49449400  1
  S  S10  1  0.88872200  0.88872200  0.74541000  1
  S  S11  1  0.63841900  0.63841900  0.99421800  1
  S  S12  1  0.36158100  0.36158100  0.00578200  1
  S  S13  1  0.11127800  0.11127800  0.25459000  1
  S  S14  1  0.86133400  0.86133400  0.50550600  1
  S  S15  1  0.61070700  0.61070700  0.75565200  1
loop_
_geom_bond_atom_site_label_1
_geom_bond_atom_site_label_2
_geom_bond_distance
_geom_bond_site_symmetry_2
Cr0 S0 2.324812 1_565
Cr0 S0 2.324812 1_655
Cr0 S4 2.374297 1_555
Cr0 S8 2.468169 1_555
Cr0 S13 2.553485 1_565
Cr0 S13 2.553485 1_655
Cr1 S1 2.353396 1_455
Cr1 S1 2.353396 1_545
Cr1 S5 2.400955 1_555
Cr1 S9 2.446624 1_555
Cr1 S14 2.505784 1_455
Cr1 S14 2.505784 1_545
Cr2 S2 2.354011 1_455
Cr2 S2 2.354011 1_545
Cr2 S6 2.400893 1_555
Cr2 S10 2.446212 1_445
Cr2 S15 2.511439 1_545
Cr2 S15 2.511439 1_455
Cr3 S3 2.387006 1_565
Cr3 S3 2.387006 1_655
Cr3 S7 2.396685 1_555
Cr3 S11 2.416883 1_555
Cr3 S12 2.450116 1_566
Cr3 S12 2.450116 1_656
Cr4 S4 2.387006 1_455
Cr4 S4 2.387006 1_545
Cr4 S0 2.396685 1_555
Cr4 S12 2.416883 1_555
Cr4 S11 2.450116 1_454
Cr4 S11 2.450116 1_544
Cr5 S5 2.354011 1_655
Cr5 S5 2.354011 1_565
Cr5 S1 2.400893 1_555
Cr5 S13 2.446212 1_665
Cr5 S8 2.511439 1_565
Cr5 S8 2.511439 1_655
Cr6 S6 2.353396 1_655
Cr6 S6 2.353396 1_565
Cr6 S2 2.400955 1_555
Cr6 S14 2.446624 1_555
Cr6 S9 2.505784 1_565
Cr6 S9 2.505784 1_655
Cr7 S7 2.324812 1_455
Cr7 S7 2.324812 1_545
Cr7 S3 2.374297 1_555
Cr7 S15 2.468169 1_555
Cr7 S10 2.553485 1_545
Cr7 S10 2.553485 1_455
Cr8 S4 2.437407 1_555
Cr8 S13 2.446013 1_565
Cr8 S13 2.446013 1_655
Cr8 S1 2.454001 1_555
Cr8 S8 2.464269 1_565
Cr8 S8 2.464269 1_655
Cr9 S2 2.423686 1_555
Cr9 S5 2.423686 1_555
Cr9 S9 2.452032 1_655
Cr9 S9 2.452032 1_565
Cr9 S14 2.452032 1_545
Cr9 S14 2.452032 1_455
Cr10 S3 2.437407 1_555
Cr10 S10 2.446013 1_455
Cr10 S10 2.446013 1_545
Cr10 S6 2.454001 1_555
Cr10 S15 2.464269 1_545
Cr10 S15 2.464269 1_455
Ni0 S0 2.386674 1_555
Ni0 S7 2.386674 1_444
Ni0 S11 2.449842 1_544
Ni0 S11 2.449842 1_454
Ni0 S12 2.449842 1_455
Ni0 S12 2.449842 1_545
