# generated using pymatgen
data_Mg15Nb
_symmetry_space_group_name_H-M   'P 1'
_cell_length_a   6.35400993
_cell_length_b   6.35400993
_cell_length_c   10.10757400
_cell_angle_alpha   90.00000000
_cell_angle_beta   90.00000000
_cell_angle_gamma   119.99999932
_symmetry_Int_Tables_number   1
_chemical_formula_structural   Mg15Nb
_chemical_formula_sum   'Mg15 Nb1'
_cell_volume   353.40553189
_cell_formula_units_Z   1
loop_
 _symmetry_equiv_pos_site_id
 _symmetry_equiv_pos_as_xyz
  1  'x, y, z'
loop_
 _atom_site_type_symbol
 _atom_site_label
 _atom_site_symmetry_multiplicity
 _atom_site_fract_x
 _atom_site_fract_y
 _atom_site_fract_z
 _atom_site_occupancy
  Mg  Mg0  1  0.00000000  0.00000000  0.00000000  1
  Mg  Mg1  1  0.00216900  0.50108500  0.50000000  1
  Mg  Mg2  1  0.00038900  0.50019400  0.00000000  1
  Mg  Mg3  1  0.49891500  0.50108500  0.50000000  1
  Mg  Mg4  1  0.49980600  0.50019400  0.00000000  1
  Mg  Mg5  1  0.49891500  0.99783100  0.50000000  1
  Mg  Mg6  1  0.49980600  0.99961100  0.00000000  1
  Mg  Mg7  1  0.16249300  0.32498500  0.25456700  1
  Mg  Mg8  1  0.16249300  0.32498500  0.74543300  1
  Mg  Mg9  1  0.16249300  0.83750700  0.25456700  1
  Mg  Mg10  1  0.16249300  0.83750700  0.74543300  1
  Mg  Mg11  1  0.67501500  0.83750700  0.25456700  1
  Mg  Mg12  1  0.67501500  0.83750700  0.74543300  1
  Mg  Mg13  1  0.66666700  0.33333300  0.25001500  1
  Mg  Mg14  1  0.66666700  0.33333300  0.74998500  1
  Nb  Nb0  1  0.00000000  0.00000000  0.50000000  1
loop_
_geom_bond_atom_site_label_1
_geom_bond_atom_site_label_2
_geom_bond_distance
_geom_bond_site_symmetry_2
Mg0 Mg8 3.133472 1_554
Mg0 Mg7 3.133472 1_555
Mg0 Mg11 3.133472 1_445
Mg0 Mg12 3.133472 1_444
Mg0 Mg10 3.133476 1_544
Mg0 Mg9 3.133476 1_545
Mg0 Mg2 3.177003 1_555
Mg0 Mg6 3.177003 1_445
Mg0 Mg4 3.177006 1_445
Mg0 Mg4 3.177006 1_555
Mg0 Mg6 3.177009 1_545
Mg0 Mg2 3.177009 1_545
Mg1 Mg10 3.095745 1_555
Mg1 Mg9 3.095745 1_555
Mg1 Mg7 3.095752 1_555
Mg1 Mg8 3.095752 1_555
Mg1 Mg14 3.129345 1_455
Mg1 Mg13 3.129345 1_455
Mg1 Mg3 3.156329 1_555
Mg1 Mg5 3.156329 1_555
Mg1 Nb0 3.177024 1_565
Mg1 Nb0 3.177031 1_555
Mg1 Mg3 3.197681 1_455
Mg1 Mg5 3.197681 1_445
Mg2 Mg8 3.172950 1_554
Mg2 Mg7 3.172950 1_555
Mg2 Mg9 3.172950 1_555
Mg2 Mg4 3.173301 1_555
Mg2 Mg6 3.173301 1_555
Mg2 Mg4 3.180709 1_455
Mg2 Mg6 3.180709 1_445
Mg3 Mg7 3.095745 1_555
Mg3 Mg8 3.095745 1_555
Mg3 Mg5 3.156329 1_555
Mg3 Nb0 3.177027 1_555
Mg3 Nb0 3.177027 1_665
Mg3 Mg5 3.197681 1_545
Mg4 Mg7 3.172950 1_555
Mg4 Mg8 3.172950 1_554
Mg4 Mg6 3.173301 1_555
Mg4 Mg6 3.180709 1_545
Mg5 Mg9 3.095745 1_555
Mg5 Nb0 3.177024 1_565
Mg5 Nb0 3.177031 1_665
Mg6 Mg9 3.172950 1_555
Mg7 Nb0 3.058116 1_555
Mg7 Mg9 3.097440 1_545
Mg7 Mg9 3.256570 1_555
Mg8 Nb0 3.058116 1_555
Mg9 Nb0 3.058119 1_565
Mg10 Nb0 3.058119 1_565
Mg10 Mg5 3.095745 1_555
Mg10 Mg12 3.097440 1_455
Mg10 Mg8 3.097440 1_565
Mg10 Mg2 3.172950 1_556
Mg10 Mg6 3.172950 1_556
Mg10 Mg14 3.177670 1_455
Mg10 Mg14 3.177670 1_565
Mg10 Mg8 3.256570 1_555
Mg10 Mg12 3.256570 1_555
Mg11 Nb0 3.058116 1_665
Mg11 Mg3 3.095745 1_555
Mg11 Mg5 3.095752 1_555
Mg11 Mg9 3.097440 1_655
Mg11 Mg7 3.097440 1_665
Mg11 Mg6 3.172950 1_555
Mg11 Mg4 3.172950 1_555
Mg11 Mg13 3.177670 1_565
Mg11 Mg13 3.177670 1_555
Mg11 Mg9 3.256570 1_555
Mg11 Mg7 3.256570 1_555
Mg12 Nb0 3.058116 1_665
Mg12 Mg3 3.095745 1_555
Mg12 Mg5 3.095752 1_555
Mg12 Mg8 3.097440 1_665
Mg12 Mg6 3.172950 1_556
Mg12 Mg4 3.172950 1_556
Mg12 Mg14 3.177670 1_565
Mg12 Mg14 3.177670 1_555
Mg12 Mg8 3.256570 1_555
Mg13 Mg4 3.123822 1_555
Mg13 Mg2 3.123822 1_655
Mg13 Mg6 3.123822 1_545
Mg13 Mg5 3.129345 1_545
Mg13 Mg3 3.129351 1_555
Mg13 Mg7 3.177670 1_655
Mg13 Mg7 3.177670 1_555
Mg13 Mg9 3.177670 1_655
Mg13 Mg9 3.177670 1_545
Mg14 Mg4 3.123822 1_556
Mg14 Mg6 3.123822 1_546
Mg14 Mg2 3.123822 1_656
Mg14 Mg5 3.129345 1_545
Mg14 Mg3 3.129351 1_555
Mg14 Mg8 3.177670 1_655
Mg14 Mg8 3.177670 1_555
