# generated using pymatgen
data_Li4Co3Sb5O16
_symmetry_space_group_name_H-M   'P 1'
_cell_length_a   6.20008012
_cell_length_b   12.13180663
_cell_length_c   10.75756260
_cell_angle_alpha   116.16348269
_cell_angle_beta   90.27618970
_cell_angle_gamma   75.25312078
_symmetry_Int_Tables_number   1
_chemical_formula_structural   Li4Co3Sb5O16
_chemical_formula_sum   'Li8 Co6 Sb10 O32'
_cell_volume   696.93459374
_cell_formula_units_Z   2
loop_
 _symmetry_equiv_pos_site_id
 _symmetry_equiv_pos_as_xyz
  1  'x, y, z'
loop_
 _atom_site_type_symbol
 _atom_site_label
 _atom_site_symmetry_multiplicity
 _atom_site_fract_x
 _atom_site_fract_y
 _atom_site_fract_z
 _atom_site_occupancy
  Li  Li0  1  0.03912000  0.90200300  0.61492500  1
  Li  Li1  1  0.54433400  0.89894500  0.12294800  1
  Li  Li2  1  0.49120000  0.98329500  0.50227000  1
  Li  Li3  1  0.99278600  0.98499900  0.99086700  1
  Li  Li4  1  0.74881100  0.50154300  0.25009200  1
  Li  Li5  1  0.25066300  0.50731400  0.75191400  1
  Li  Li6  1  0.80658000  0.35535100  0.51745200  1
  Li  Li7  1  0.29097500  0.37937100  0.02958700  1
  Co  Co0  1  0.63845900  0.20887700  0.19345200  1
  Co  Co1  1  0.64771400  0.72409600  0.52722800  1
  Co  Co2  1  0.89260400  0.72608900  0.77491200  1
  Co  Co3  1  0.12864800  0.21224700  0.69213200  1
  Co  Co4  1  0.15016700  0.71784100  0.02638200  1
  Co  Co5  1  0.39618500  0.71672300  0.27021800  1
  Sb  Sb0  1  0.26118100  0.52187400  0.42228200  1
  Sb  Sb1  1  0.76085000  0.52202000  0.91907100  1
  Sb  Sb2  1  0.39388200  0.73304300  0.77902000  1
  Sb  Sb3  1  0.90078700  0.72017300  0.27292600  1
  Sb  Sb4  1  0.52470200  0.98398600  0.81821700  1
  Sb  Sb5  1  0.02962800  0.97132900  0.31209600  1
  Sb  Sb6  1  0.14984800  0.20684700  0.18869700  1
  Sb  Sb7  1  0.63644500  0.21300200  0.69490100  1
  Sb  Sb8  1  0.38874700  0.20759900  0.44156600  1
  Sb  Sb9  1  0.89340100  0.20855800  0.93441000  1
  O  O0  1  0.09776700  0.30490500  0.40106600  1
  O  O1  1  0.59581900  0.30785400  0.90596900  1
  O  O2  1  0.43157400  0.09890000  0.22634100  1
  O  O3  1  0.92550700  0.10191100  0.72339200  1
  O  O4  1  0.34473300  0.31686300  0.66140200  1
  O  O5  1  0.85328000  0.30841300  0.14634500  1
  O  O6  1  0.10624300  0.81417100  0.90199300  1
  O  O7  1  0.61220600  0.80970200  0.39951900  1
  O  O8  1  0.65885500  0.09964100  0.48996300  1
  O  O9  1  0.19222000  0.09224300  0.96189100  1
  O  O10  1  0.46988800  0.60508700  0.38099900  1
  O  O11  1  0.96718900  0.60706100  0.87715100  1
  O  O12  1  0.67747300  0.63529400  0.65264800  1
  O  O13  1  0.18493800  0.61498900  0.14399600  1
  O  O14  1  0.79411500  0.85988200  0.68793900  1
  O  O15  1  0.30510100  0.84454300  0.18005500  1
  O  O16  1  0.95186400  0.61105400  0.37772400  1
  O  O17  1  0.45293600  0.61973200  0.87712000  1
  O  O18  1  0.21534900  0.62184600  0.64383000  1
  O  O19  1  0.71876500  0.60834300  0.14227800  1
  O  O20  1  0.33414400  0.30602400  0.16499200  1
  O  O21  1  0.82254200  0.31251700  0.67088500  1
  O  O22  1  0.57156100  0.30378200  0.40734400  1
  O  O23  1  0.06768100  0.31025600  0.90566400  1
  O  O24  1  0.34359800  0.86304600  0.69454600  1
  O  O25  1  0.85042500  0.83774100  0.17998000  1
  O  O26  1  0.55881300  0.86489700  0.91181600  1
  O  O27  1  0.07235200  0.84127300  0.40316900  1
  O  O28  1  0.95890600  0.09885400  0.18576900  1
  O  O29  1  0.45501500  0.09395000  0.71450900  1
  O  O30  1  0.22688100  0.10189700  0.48018000  1
  O  O31  1  0.71640400  0.09189300  0.95950200  1
loop_
_geom_bond_atom_site_label_1
_geom_bond_atom_site_label_2
_geom_bond_distance
_geom_bond_site_symmetry_2
Li0 O14 1.986509 1_455
Li0 O27 2.054662 1_555
Li0 O3 2.093358 1_465
Li0 O24 2.099508 1_555
Li1 O15 1.969211 1_555
Li1 O25 2.049992 1_555
Li1 O2 2.091690 1_565
Li1 O26 2.119686 1_554
Li2 O7 1.835929 1_555
Li2 O30 1.977312 1_565
Li2 O8 2.000851 1_565
Li2 O29 2.052810 1_565
Li3 O6 1.794690 1_655
Li3 O28 1.910665 1_566
Li3 O31 1.995230 1_565
Li3 O9 2.121147 1_665
Li4 O10 1.977186 1_555
Li4 O5 2.020685 1_555
Li4 O19 2.063714 1_555
Li4 O16 2.112200 1_555
Li5 O11 1.967433 1_455
Li5 O4 1.990523 1_555
Li5 O17 2.116959 1_555
Li5 O18 2.144272 1_555
Li6 O22 1.926561 1_555
Li6 O21 1.932056 1_555
Li6 O0 1.996270 1_655
Li7 O23 1.996086 1_554
Li7 O20 2.000807 1_555
Li7 O1 2.065289 1_554
Li7 O13 2.463013 1_555
Co0 O22 2.054721 1_555
Co0 O20 2.055053 1_555
Co0 O28 2.071238 1_555
Co0 O2 2.200588 1_555
Co0 O5 2.203161 1_555
Co0 O31 2.257072 1_554
Co1 O7 2.037997 1_555
Co1 O12 2.047754 1_555
Co1 O10 2.136694 1_555
Co1 O14 2.181998 1_555
Co1 O16 2.188839 1_555
Co1 O24 2.318509 1_555
Co2 O12 2.043472 1_555
Co2 O6 2.044547 1_655
Co2 O11 2.136452 1_555
Co2 O14 2.170719 1_555
Co2 O18 2.181328 1_655
Co2 O26 2.314261 1_555
Co3 O21 2.049299 1_455
Co3 O23 2.050409 1_555
Co3 O30 2.066012 1_555
Co3 O3 2.179571 1_455
Co3 O4 2.180585 1_555
Co3 O29 2.243591 1_555
Co4 O6 2.108086 1_554
Co4 O13 2.111144 1_555
Co4 O15 2.124595 1_555
Co4 O11 2.127546 1_454
Co4 O17 2.173698 1_554
Co4 O25 2.198555 1_455
Co5 O7 2.090106 1_555
Co5 O13 2.100092 1_555
Co5 O15 2.130634 1_555
Co5 O10 2.136896 1_555
Co5 O19 2.171416 1_555
Co5 O27 2.222009 1_555
O0 Sb6 2.038031 1_555
O0 Sb8 2.049368 1_555
O1 Sb7 2.024088 1_555
O1 Sb9 2.033955 1_555
O2 Sb6 2.055813 1_555
O2 Sb8 2.074908 1_555
O3 Sb9 2.037118 1_555
O3 Sb7 2.061947 1_555
O4 Sb7 2.054906 1_555
O4 Sb8 2.117051 1_555
O5 Sb9 2.035629 1_554
O5 Sb6 2.107219 1_655
O6 Sb2 1.969806 1_555
O7 Sb3 1.991317 1_555
O8 Sb7 2.000741 1_555
O8 Sb8 2.065747 1_555
O8 Sb5 2.638723 1_645
O9 Sb9 2.131377 1_455
O9 Sb6 2.187186 1_556
O9 Sb4 2.285925 1_545
O10 Sb0 1.989161 1_555
O11 Sb1 1.998055 1_555
O12 Sb2 1.971246 1_555
O13 Sb3 1.993511 1_455
O14 Sb4 1.975493 1_555
O15 Sb5 2.014907 1_555
O16 Sb3 2.054989 1_555
O16 Sb0 2.114326 1_655
O17 Sb2 2.038831 1_555
O17 Sb1 2.136553 1_555
O18 Sb2 2.043212 1_555
O18 Sb0 2.124591 1_555
O19 Sb3 2.042603 1_555
O19 Sb1 2.140039 1_554
O20 Sb6 1.947222 1_555
O21 Sb7 1.960284 1_555
O22 Sb8 1.959095 1_555
O23 Sb9 1.950339 1_455
O24 Sb4 2.070373 1_555
O24 Sb2 2.102695 1_555
O25 Sb3 2.039491 1_555
O25 Sb5 2.179727 1_655
O26 Sb4 2.066684 1_555
O26 Sb2 2.109203 1_555
O27 Sb3 2.054013 1_455
O27 Sb5 2.160429 1_555
O28 Sb6 1.967708 1_655
O28 Sb5 2.436311 1_645
O29 Sb4 2.055600 1_545
O29 Sb7 2.119900 1_555
O30 Sb8 1.988246 1_555
O30 Sb5 2.390274 1_545
O31 Sb9 2.100209 1_555
O31 Sb4 2.111060 1_545
