# generated using pymatgen
data_SN
_symmetry_space_group_name_H-M   'P 1'
_cell_length_a   5.94628714
_cell_length_b   4.63479430
_cell_length_c   31.31465685
_cell_angle_alpha   89.75671006
_cell_angle_beta   75.93338928
_cell_angle_gamma   90.14601946
_symmetry_Int_Tables_number   1
_chemical_formula_structural   SN
_chemical_formula_sum   'S18 N18'
_cell_volume   837.13412394
_cell_formula_units_Z   18
loop_
 _symmetry_equiv_pos_site_id
 _symmetry_equiv_pos_as_xyz
  1  'x, y, z'
loop_
 _atom_site_type_symbol
 _atom_site_label
 _atom_site_symmetry_multiplicity
 _atom_site_fract_x
 _atom_site_fract_y
 _atom_site_fract_z
 _atom_site_occupancy
  S  S0  1  0.63714300  0.47775900  0.92931800  1
  S  S1  1  0.73672900  0.90195000  0.71816900  1
  S  S2  1  0.89014900  0.47051900  0.77327000  1
  S  S3  1  0.34210200  0.88082600  0.06640200  1
  S  S4  1  0.60201200  0.78794700  0.56409700  1
  S  S5  1  0.89690700  0.28976400  0.53594600  1
  S  S6  1  0.25219700  0.69038400  0.84553900  1
  S  S7  1  0.36052700  0.23951400  0.90415400  1
  S  S8  1  0.61024200  0.97040800  0.32673600  1
  S  S9  1  0.76592100  0.40064000  0.38153700  1
  S  S10  1  0.32807800  0.68183600  0.65348600  1
  S  S11  1  0.12195200  0.04487000  0.64310700  1
  S  S12  1  0.86067400  0.98131200  0.17077800  1
  S  S13  1  0.38199600  0.54306000  0.45656100  1
  S  S14  1  0.17143200  0.18181200  0.44684500  1
  S  S15  1  0.13742500  0.74364600  0.19594700  1
  S  S16  1  0.24978500  0.19075600  0.25432600  1
  S  S17  1  0.15396700  0.37918800  0.03375400  1
  N  N0  1  0.62823800  0.79632800  0.92830500  1
  N  N1  1  0.65121100  0.48231000  0.81122500  1
  N  N2  1  0.91678600  0.67807800  0.73167500  1
  N  N3  1  0.83681100  0.99462900  0.56237400  1
  N  N4  1  0.18043300  0.72114000  0.03934200  1
  N  N5  1  0.66171300  0.49469300  0.53760000  1
  N  N6  1  0.20432600  0.48682000  0.88748800  1
  N  N7  1  0.58548000  0.17472900  0.36838600  1
  N  N8  1  0.49000400  0.66527100  0.80688900  1
  N  N9  1  0.84888900  0.98443500  0.28868700  1
  N  N10  1  0.86886700  0.06497000  0.67438400  1
  N  N11  1  0.87022900  0.30060300  0.17175900  1
  N  N12  1  0.56924800  0.70655900  0.61863400  1
  N  N13  1  0.92974900  0.21297000  0.48130300  1
  N  N14  1  0.63411000  0.56342000  0.42496200  1
  N  N15  1  0.01184900  0.16533900  0.29304100  1
  N  N16  1  0.29484000  0.98962100  0.21245400  1
  N  N17  1  0.31797800  0.21989100  0.06152200  1
loop_
_geom_bond_atom_site_label_1
_geom_bond_atom_site_label_2
_geom_bond_distance
_geom_bond_site_symmetry_2
N0 S0 1.478068 1_555
N1 N8 1.312568 1_555
N1 S2 1.616901 1_555
N2 S2 1.592296 1_555
N2 S1 1.619839 1_555
N3 S5 1.589922 1_565
N3 S4 1.681068 1_555
N4 S17 1.606765 1_555
N4 S3 1.608616 1_555
N5 S4 1.590818 1_555
N5 S5 1.683056 1_555
N6 S6 1.582122 1_555
N6 S7 1.638551 1_555
N7 S8 1.592920 1_545
N7 S9 1.621686 1_555
N8 S6 1.627294 1_555
N9 S8 1.616970 1_555
N10 S11 1.586736 1_655
N10 S1 1.591442 1_545
N11 S12 1.481529 1_545
N12 S10 1.580533 1_555
N12 S4 1.711512 1_555
N13 S14 1.580845 1_655
N13 S5 1.713437 1_555
N14 S13 1.585201 1_555
N14 S9 1.589437 1_555
N15 N9 1.312105 1_445
N15 S16 1.627749 1_555
N16 S16 1.581445 1_565
N16 S15 1.636405 1_555
N17 S3 1.588489 1_545
N17 S17 1.631802 1_555
