# generated using pymatgen
data_Mg6ZrMo
_symmetry_space_group_name_H-M   'P 1'
_cell_length_a   5.05245400
_cell_length_b   5.84010200
_cell_length_c   11.31130300
_cell_angle_alpha   90.00000000
_cell_angle_beta   90.00000000
_cell_angle_gamma   90.00000000
_symmetry_Int_Tables_number   1
_chemical_formula_structural   Mg6ZrMo
_chemical_formula_sum   'Mg12 Zr2 Mo2'
_cell_volume   333.76088371
_cell_formula_units_Z   2
loop_
 _symmetry_equiv_pos_site_id
 _symmetry_equiv_pos_as_xyz
  1  'x, y, z'
loop_
 _atom_site_type_symbol
 _atom_site_label
 _atom_site_symmetry_multiplicity
 _atom_site_fract_x
 _atom_site_fract_y
 _atom_site_fract_z
 _atom_site_occupancy
  Mg  Mg0  1  0.50000000  0.24950800  0.42412900  1
  Mg  Mg1  1  0.50000000  0.75049200  0.42412900  1
  Mg  Mg2  1  0.00000000  0.74213100  0.08462600  1
  Mg  Mg3  1  0.00000000  0.25786900  0.08462600  1
  Mg  Mg4  1  0.00000000  0.00000000  0.32605400  1
  Mg  Mg5  1  0.00000000  0.50000000  0.31161100  1
  Mg  Mg6  1  0.50000000  0.74950800  0.92412900  1
  Mg  Mg7  1  0.50000000  0.25049200  0.92412900  1
  Mg  Mg8  1  0.00000000  0.24213100  0.58462600  1
  Mg  Mg9  1  0.00000000  0.75786900  0.58462600  1
  Mg  Mg10  1  0.00000000  0.50000000  0.82605400  1
  Mg  Mg11  1  0.00000000  0.00000000  0.81161100  1
  Zr  Zr0  1  0.50000000  0.00000000  0.17396500  1
  Zr  Zr1  1  0.50000000  0.50000000  0.67396500  1
  Mo  Mo0  1  0.50000000  0.50000000  0.17085700  1
  Mo  Mo1  1  0.50000000  0.00000000  0.67085700  1
loop_
_geom_bond_atom_site_label_1
_geom_bond_atom_site_label_2
_geom_bond_distance
_geom_bond_site_symmetry_2
Mg0 Mg1 2.914304 1_545
Mg0 Mg1 2.925798 1_555
Mg0 Mg8 3.111184 1_555
Mg0 Mg8 3.111184 1_655
Mg0 Mg4 3.120222 1_655
Mg0 Mg4 3.120222 1_555
Mg0 Mo1 3.148324 1_555
Mg0 Zr1 3.182166 1_555
Mg0 Zr0 3.182827 1_555
Mg0 Mg5 3.184608 1_555
Mg0 Mg5 3.184608 1_655
Mg0 Mo0 3.216731 1_555
Mg1 Mg9 3.111184 1_655
Mg1 Mg9 3.111184 1_555
Mg1 Mg4 3.120222 1_565
Mg1 Mg4 3.120222 1_665
Mg1 Mo1 3.148324 1_565
Mg1 Zr1 3.182166 1_555
Mg1 Zr0 3.182827 1_565
Mg1 Mg5 3.184608 1_655
Mg1 Mg5 3.184608 1_555
Mg1 Mo0 3.216731 1_555
Mg2 Mo0 3.054962 1_555
Mg2 Mo0 3.054962 1_455
Mg2 Mg6 3.111184 1_454
Mg2 Mg6 3.111184 1_554
Mg2 Mg4 3.118590 1_565
Mg3 Mo0 3.054962 1_555
Mg3 Mo0 3.054962 1_455
Mg3 Mg7 3.111184 1_554
Mg3 Mg7 3.111184 1_454
Mg3 Mg4 3.118590 1_555
Mg4 Mg5 2.924617 1_545
Mg4 Mg5 2.924617 1_555
Mg4 Zr0 3.056361 1_555
Mg4 Zr0 3.056361 1_455
Mg4 Mg8 3.248687 1_555
Mg4 Mg9 3.248687 1_545
Mg5 Mo0 2.986074 1_555
Mg5 Mo0 2.986074 1_455
Mg6 Mg7 2.914304 1_555
Mg6 Mg7 2.925798 1_565
Mg6 Mo0 3.148324 1_556
Mg6 Zr0 3.182166 1_566
Mg6 Zr1 3.182827 1_555
Mg6 Mo1 3.216731 1_565
Mg7 Mo0 3.148324 1_556
Mg7 Zr0 3.182166 1_556
Mg7 Zr1 3.182827 1_555
Mg7 Mo1 3.216731 1_555
Mg8 Mo1 3.054962 1_455
Mg8 Mo1 3.054962 1_555
Mg9 Mo1 3.054962 1_465
Mg9 Mo1 3.054962 1_565
Mg10 Mg11 2.924617 1_555
Mg10 Mg11 2.924617 1_565
Mg10 Zr1 3.056361 1_455
Mg10 Zr1 3.056361 1_555
Mg10 Mg9 3.118590 1_555
Mg10 Mg8 3.118590 1_555
Mg10 Mg6 3.120222 1_555
Mg10 Mg7 3.120222 1_455
Mg10 Mg7 3.120222 1_555
Mg10 Mg6 3.120222 1_455
Mg10 Mg3 3.248687 1_556
Mg10 Mg2 3.248687 1_556
Mg11 Mo1 2.986074 1_555
Mg11 Mo1 2.986074 1_455
Mg11 Mg6 3.184608 1_445
Mg11 Mg7 3.184608 1_455
Mg11 Mg6 3.184608 1_545
Mg11 Mg7 3.184608 1_555
Mo0 Zr0 2.920263 1_555
Mo0 Zr0 2.920263 1_565
Mo1 Zr1 2.920263 1_545
Mo1 Zr1 2.920263 1_555
