# generated using pymatgen
data_UCoNiGe2
_symmetry_space_group_name_H-M   'P 1'
_cell_length_a   4.10088800
_cell_length_b   4.10088800
_cell_length_c   9.59532800
_cell_angle_alpha   90.00000000
_cell_angle_beta   90.00000000
_cell_angle_gamma   90.00000000
_symmetry_Int_Tables_number   1
_chemical_formula_structural   UCoNiGe2
_chemical_formula_sum   'U2 Co2 Ni2 Ge4'
_cell_volume   161.36734059
_cell_formula_units_Z   2
loop_
 _symmetry_equiv_pos_site_id
 _symmetry_equiv_pos_as_xyz
  1  'x, y, z'
loop_
 _atom_site_type_symbol
 _atom_site_label
 _atom_site_symmetry_multiplicity
 _atom_site_fract_x
 _atom_site_fract_y
 _atom_site_fract_z
 _atom_site_occupancy
  U  U0  1  0.00000000  0.50000000  0.24718000  1
  U  U1  1  0.50000000  0.00000000  0.75282000  1
  Co  Co0  1  0.00000000  0.50000000  0.62546100  1
  Co  Co1  1  0.50000000  0.00000000  0.37453900  1
  Ni  Ni0  1  0.00000000  0.00000000  0.00000000  1
  Ni  Ni1  1  0.50000000  0.50000000  0.00000000  1
  Ge  Ge0  1  0.00000000  0.00000000  0.50000000  1
  Ge  Ge1  1  0.50000000  0.50000000  0.50000000  1
  Ge  Ge2  1  0.00000000  0.50000000  0.86699100  1
  Ge  Ge3  1  0.50000000  0.00000000  0.13300900  1
loop_
_geom_bond_atom_site_label_1
_geom_bond_atom_site_label_2
_geom_bond_distance
_geom_bond_site_symmetry_2
Co0 Ge2 2.317560 1_555
Co0 Ge0 2.377719 1_565
Co0 Ge1 2.377719 1_455
Co0 Ge1 2.377719 1_555
Co0 Ge0 2.377719 1_555
Co0 U1 3.146752 1_465
Co0 U1 3.146752 1_455
Co0 U1 3.146752 1_555
Co0 U1 3.146752 1_565
Co1 Ge3 2.317560 1_555
Co1 Ge0 2.377719 1_655
Co1 Ge1 2.377719 1_555
Co1 Ge1 2.377719 1_545
Co1 Ge0 2.377719 1_555
Co1 U0 3.146752 1_645
Co1 U0 3.146752 1_545
Co1 U0 3.146752 1_555
Co1 U0 3.146752 1_655
Ni0 U1 3.135224 1_454
Ni0 U1 3.135224 1_554
Ni0 U0 3.135224 1_545
Ni0 U0 3.135224 1_555
Ni1 U1 3.135224 1_564
Ni1 U1 3.135224 1_554
Ni1 U0 3.135224 1_655
Ni1 U0 3.135224 1_555
Ge0 U0 3.176361 1_545
Ge0 U0 3.176361 1_555
Ge0 U1 3.176361 1_555
Ge0 U1 3.176361 1_455
Ge1 U0 3.176361 1_655
Ge1 U0 3.176361 1_555
Ge1 U1 3.176361 1_565
Ge1 U1 3.176361 1_555
Ge2 Ni0 2.415196 1_566
Ge2 Ni1 2.415196 1_556
Ge2 Ni1 2.415196 1_456
Ge2 Ni0 2.415196 1_556
Ge2 U1 3.099803 1_555
Ge2 U1 3.099803 1_455
Ge2 U1 3.099803 1_565
Ge2 U1 3.099803 1_465
Ge3 Ni1 2.415196 1_555
Ge3 Ni0 2.415196 1_655
Ge3 Ni1 2.415196 1_545
Ge3 Ni0 2.415196 1_555
Ge3 U0 3.099803 1_645
Ge3 U0 3.099803 1_655
Ge3 U0 3.099803 1_545
Ge3 U0 3.099803 1_555
