# generated using pymatgen
data_Sr2CoSbO6
_symmetry_space_group_name_H-M   'P 1'
_cell_length_a   5.62983988
_cell_length_b   8.10049600
_cell_length_c   11.23949560
_cell_angle_alpha   90.00004382
_cell_angle_beta   88.90528544
_cell_angle_gamma   89.99953014
_symmetry_Int_Tables_number   1
_chemical_formula_structural   Sr2CoSbO6
_chemical_formula_sum   'Sr8 Co4 Sb4 O24'
_cell_volume   512.47797034
_cell_formula_units_Z   4
loop_
 _symmetry_equiv_pos_site_id
 _symmetry_equiv_pos_as_xyz
  1  'x, y, z'
loop_
 _atom_site_type_symbol
 _atom_site_label
 _atom_site_symmetry_multiplicity
 _atom_site_fract_x
 _atom_site_fract_y
 _atom_site_fract_z
 _atom_site_occupancy
  Sr  Sr0  1  0.49321300  0.75054000  0.49999600  1
  Sr  Sr1  1  0.99839800  0.25069100  0.75032400  1
  Sr  Sr2  1  0.50689300  0.75036500  0.99957000  1
  Sr  Sr3  1  0.00215200  0.24981500  0.25022600  1
  Sr  Sr4  1  0.49320800  0.24946800  0.49999600  1
  Sr  Sr5  1  0.99839600  0.74931400  0.75032400  1
  Sr  Sr6  1  0.50689100  0.24962900  0.99957100  1
  Sr  Sr7  1  0.00214700  0.75018500  0.25022600  1
  Co  Co0  1  0.99588700  0.50000400  0.49959300  1
  Co  Co1  1  0.49901700  0.00000200  0.75014300  1
  Co  Co2  1  0.00434300  0.49999600  0.00021600  1
  Co  Co3  1  0.50108000  0.99999800  0.25017100  1
  Sb  Sb0  1  0.99202000  0.00000100  0.49995700  1
  Sb  Sb1  1  0.49748900  0.50000000  0.74978500  1
  Sb  Sb2  1  0.00781100  0.99999900  0.00022600  1
  Sb  Sb3  1  0.50281600  0.49999900  0.25009300  1
  O  O0  1  0.24721200  0.50002000  0.38052800  1
  O  O1  1  0.73040800  0.00002800  0.62508400  1
  O  O2  1  0.23874800  0.50003000  0.87690600  1
  O  O3  1  0.76436100  0.00003300  0.12838500  1
  O  O4  1  0.75144500  0.49997800  0.62079100  1
  O  O5  1  0.26949800  0.99996500  0.87500700  1
  O  O6  1  0.76212700  0.49997000  0.12174400  1
  O  O7  1  0.23621600  0.99997300  0.37158400  1
  O  O8  1  0.24742800  0.50001400  0.62789300  1
  O  O9  1  0.76523800  0.00000900  0.87387800  1
  O  O10  1  0.25870500  0.49999600  0.12682700  1
  O  O11  1  0.73166000  0.00000000  0.37688700  1
  O  O12  1  0.75268000  0.50000500  0.37077100  1
  O  O13  1  0.23373900  0.99998800  0.62603000  1
  O  O14  1  0.74302300  0.49998400  0.87417300  1
  O  O15  1  0.26808800  0.99999300  0.12337100  1
  O  O16  1  0.98645700  0.75480500  0.49881500  1
  O  O17  1  0.49722400  0.25491500  0.75079400  1
  O  O18  1  0.01324900  0.75502200  0.99924800  1
  O  O19  1  0.50176000  0.25456700  0.25104500  1
  O  O20  1  0.98652100  0.24520200  0.49879800  1
  O  O21  1  0.49731000  0.74509300  0.75078400  1
  O  O22  1  0.01333900  0.24497700  0.99922100  1
  O  O23  1  0.50180100  0.74543000  0.25101700  1
loop_
_geom_bond_atom_site_label_1
_geom_bond_atom_site_label_2
_geom_bond_distance
_geom_bond_site_symmetry_2
Co0 O4 1.917762 1_555
Co0 O0 1.928862 1_655
Co0 O12 2.011692 1_555
Co0 O8 2.040322 1_655
Co0 O16 2.064720 1_555
Co0 O20 2.064720 1_555
Co1 O5 1.889425 1_545
Co1 O1 1.898093 1_555
Co1 O13 2.063008 1_545
Co1 O9 2.063999 1_555
Co1 O21 2.064924 1_545
Co1 O17 2.064959 1_555
Co2 O2 1.895378 1_554
Co2 O6 1.911558 1_455
Co2 O10 2.038037 1_555
Co2 O14 2.061786 1_454
Co2 O22 2.066426 1_554
Co2 O18 2.066469 1_554
Co3 O11 1.945301 1_565
Co3 O15 1.955278 1_555
Co3 O3 1.998282 1_565
Co3 O7 2.001985 1_555
Co3 O23 2.062153 1_555
Co3 O19 2.062162 1_565
O0 Sb3 2.034543 1_555
O0 Sr0 2.812541 1_555
O0 Sr4 2.812699 1_555
O0 Sr7 2.869157 1_555
O0 Sr3 2.869386 1_555
O1 Sb0 2.016917 1_555
O1 Sr4 2.813253 1_555
O1 Sr0 2.813532 1_545
O1 Sr1 2.908924 1_555
O1 Sr5 2.909190 1_545
O2 Sb1 2.020832 1_555
O2 Sr5 2.829543 1_455
O2 Sr1 2.829870 1_455
O2 Sr2 2.893336 1_555
O2 Sr6 2.893694 1_555
O3 Sb2 1.969249 1_645
O3 Sr3 2.798499 1_655
O3 Sr7 2.798857 1_645
O3 Sr6 2.892276 1_554
O3 Sr2 2.892699 1_544
O4 Sb1 2.016662 1_555
O4 Sr4 2.854865 1_555
O4 Sr0 2.855134 1_555
O4 Sr1 2.864895 1_555
O4 Sr5 2.865183 1_555
O5 Sb2 2.017926 1_556
O5 Sr2 2.811719 1_555
O5 Sr6 2.812106 1_565
O5 Sr5 2.915066 1_455
O5 Sr1 2.915467 1_465
O6 Sb3 2.032685 1_555
O6 Sr3 2.844662 1_655
O6 Sr7 2.845009 1_655
O6 Sr6 2.852740 1_554
O6 Sr2 2.853036 1_554
O7 Sb0 1.973841 1_465
O7 Sr7 2.785663 1_555
O7 Sr3 2.785953 1_565
O7 Sr0 2.887689 1_555
O7 Sr4 2.888041 1_565
O8 Sb1 1.983058 1_555
O8 Sr5 2.804212 1_455
O8 Sr1 2.804359 1_455
O8 Sr0 2.832589 1_555
O8 Sr4 2.832673 1_555
O9 Sb2 1.988905 1_646
O9 Sr1 2.775866 1_555
O9 Sr5 2.775921 1_545
O9 Sr6 2.849795 1_555
O9 Sr2 2.849940 1_545
O10 Sb3 1.970009 1_555
O10 Sr6 2.834573 1_554
O10 Sr2 2.834613 1_554
O10 Sr3 2.835549 1_555
O10 Sr7 2.835591 1_555
O11 Sb0 2.034543 1_555
O11 Sr0 2.780138 1_545
O11 Sr4 2.780181 1_555
O11 Sr7 2.890975 1_645
O11 Sr3 2.891009 1_655
O12 Sb3 1.972665 1_555
O12 Sr7 2.800454 1_655
O12 Sr3 2.800508 1_655
O12 Sr0 2.877660 1_555
O12 Sr4 2.877704 1_555
O13 Sb0 1.983291 1_465
O13 Sr5 2.785621 1_455
O13 Sr1 2.785769 1_465
O13 Sr0 2.853854 1_555
O13 Sr4 2.854042 1_565
O14 Sb1 1.984745 1_555
O14 Sr6 2.791942 1_555
O14 Sr2 2.792067 1_555
O14 Sr1 2.829513 1_555
O14 Sr5 2.829740 1_555
O15 Sb2 2.034785 1_555
O15 Sr2 2.785869 1_554
O15 Sr6 2.785923 1_564
O15 Sr7 2.878855 1_555
O15 Sr3 2.878902 1_565
O16 Sb0 1.986502 1_565
O16 Sr0 2.776878 1_555
O16 Sr7 2.793974 1_655
O16 Sr5 2.829266 1_555
O16 Sr0 2.853448 1_655
O17 Sb1 1.985343 1_555
O17 Sr6 2.798025 1_555
O17 Sr1 2.808625 1_455
O17 Sr4 2.819711 1_555
O17 Sr1 2.821641 1_555
O18 Sb2 1.984698 1_556
O18 Sr2 2.779464 1_555
O18 Sr5 2.801008 1_455
O18 Sr7 2.820637 1_556
O18 Sr2 2.850886 1_455
O19 Sb3 1.988158 1_555
O19 Sr4 2.797883 1_555
O19 Sr3 2.813168 1_555
O19 Sr3 2.817229 1_655
O19 Sr6 2.826320 1_554
O20 Sb0 1.986537 1_555
O20 Sr4 2.777263 1_555
O20 Sr3 2.793778 1_655
O20 Sr1 2.829442 1_555
O20 Sr4 2.853065 1_655
O21 Sb1 1.985407 1_555
O21 Sr2 2.798106 1_555
O21 Sr5 2.809117 1_455
O21 Sr0 2.819611 1_555
O21 Sr5 2.821147 1_555
O22 Sb2 1.984716 1_546
O22 Sr6 2.778952 1_555
O22 Sr1 2.800729 1_455
O22 Sr3 2.820941 1_556
O22 Sr6 2.851397 1_455
O23 Sb3 1.988148 1_555
O23 Sr0 2.798198 1_555
O23 Sr7 2.813419 1_555
O23 Sr7 2.816976 1_655
O23 Sr2 2.826018 1_554
