# generated using pymatgen
data_BaMg2Si2O7
_symmetry_space_group_name_H-M   'P 1'
_cell_length_a   7.30646230
_cell_length_b   7.30646230
_cell_length_c   13.79650089
_cell_angle_alpha   89.90779092
_cell_angle_beta   89.90779092
_cell_angle_gamma   120.62646532
_symmetry_Int_Tables_number   1
_chemical_formula_structural   BaMg2Si2O7
_chemical_formula_sum   'Ba4 Mg8 Si8 O28'
_cell_volume   633.77523585
_cell_formula_units_Z   4
loop_
 _symmetry_equiv_pos_site_id
 _symmetry_equiv_pos_as_xyz
  1  'x, y, z'
loop_
 _atom_site_type_symbol
 _atom_site_label
 _atom_site_symmetry_multiplicity
 _atom_site_fract_x
 _atom_site_fract_y
 _atom_site_fract_z
 _atom_site_occupancy
  Ba  Ba0  1  0.81985830  0.78296215  0.12045529  1
  Ba  Ba1  1  0.21703785  0.18014170  0.37954471  1
  Ba  Ba2  1  0.18014170  0.21703785  0.87954471  1
  Ba  Ba3  1  0.78296215  0.81985830  0.62045529  1
  Mg  Mg0  1  0.76917041  0.23082959  0.25000000  1
  Mg  Mg1  1  0.23082959  0.76917041  0.75000000  1
  Mg  Mg2  1  0.22992526  0.77007474  0.25000000  1
  Mg  Mg3  1  0.77007474  0.22992526  0.75000000  1
  Mg  Mg4  1  0.19544157  0.72574975  0.50902694  1
  Mg  Mg5  1  0.27425025  0.80455843  0.99097306  1
  Mg  Mg6  1  0.80455843  0.27425025  0.49097306  1
  Mg  Mg7  1  0.72574975  0.19544157  0.00902694  1
  Si  Si0  1  0.58697038  0.84110283  0.36650593  1
  Si  Si1  1  0.15889717  0.41302962  0.13349407  1
  Si  Si2  1  0.41302962  0.15889717  0.63349407  1
  Si  Si3  1  0.84110283  0.58697038  0.86650593  1
  Si  Si4  1  0.78038361  0.57128003  0.37939523  1
  Si  Si5  1  0.42871997  0.21961639  0.12060477  1
  Si  Si6  1  0.21961639  0.42871997  0.62060477  1
  Si  Si7  1  0.57128003  0.78038361  0.87939523  1
  O  O0  1  0.34985234  0.80157444  0.38611625  1
  O  O1  1  0.19842556  0.65014766  0.11388375  1
  O  O2  1  0.65014766  0.19842556  0.61388375  1
  O  O3  1  0.80157444  0.34985234  0.88611625  1
  O  O4  1  0.94573213  0.71426462  0.29626551  1
  O  O5  1  0.28573538  0.05426787  0.20373449  1
  O  O6  1  0.05426787  0.28573538  0.70373449  1
  O  O7  1  0.71426462  0.94573213  0.79626551  1
  O  O8  1  0.88742678  0.60816009  0.48598742  1
  O  O9  1  0.39183991  0.11257322  0.01401258  1
  O  O10  1  0.11257322  0.39183991  0.51401258  1
  O  O11  1  0.60816009  0.88742678  0.98598742  1
  O  O12  1  0.67435816  0.31462511  0.36539885  1
  O  O13  1  0.68537489  0.32564184  0.13460115  1
  O  O14  1  0.32564184  0.68537489  0.63460115  1
  O  O15  1  0.31462511  0.67435816  0.86539885  1
  O  O16  1  0.57429169  0.60807071  0.37956306  1
  O  O17  1  0.39192929  0.42570831  0.12043694  1
  O  O18  1  0.42570831  0.39192929  0.62043694  1
  O  O19  1  0.60807071  0.57429169  0.87956306  1
  O  O20  1  0.63577548  0.91951178  0.25397032  1
  O  O21  1  0.08048822  0.36422452  0.24602968  1
  O  O22  1  0.36422452  0.08048822  0.74602968  1
  O  O23  1  0.91951178  0.63577548  0.75397032  1
  O  O24  1  0.76928758  0.00133179  0.44093208  1
  O  O25  1  -0.00133179  0.23071242  0.05906792  1
  O  O26  1  0.23071242  -0.00133179  0.55906792  1
  O  O27  1  0.00133179  0.76928758  0.94093208  1
loop_
_geom_bond_atom_site_label_1
_geom_bond_atom_site_label_2
_geom_bond_distance
_geom_bond_site_symmetry_2
Ba0 O4 2.730338 1_555
Ba0 O20 2.750033 1_555
Ba0 O11 2.761220 1_554
Ba0 O27 2.833333 1_654
Ba0 O17 2.876449 1_555
Ba0 O25 2.959634 1_665
Ba0 O13 2.969942 1_555
Ba0 O5 3.159305 1_665
Ba0 O1 3.366729 1_655
Ba1 O5 2.730338 1_555
Ba1 O21 2.750033 1_555
Ba1 O10 2.761220 1_555
Ba1 O26 2.833333 1_555
Ba1 O16 2.876449 1_555
Ba1 O24 2.959634 1_455
Ba1 O12 2.969942 1_555
Ba1 O4 3.159305 1_445
Ba1 O0 3.366729 1_545
Ba2 O6 2.730338 1_555
Ba2 O22 2.750033 1_555
Ba2 O9 2.761220 1_556
Ba2 O25 2.833333 1_556
Ba2 O19 2.876449 1_555
Ba2 O27 2.959634 1_545
Ba2 O15 2.969942 1_555
Ba2 O7 3.159305 1_445
Ba2 O3 3.366729 1_455
Ba3 O7 2.730338 1_555
Ba3 O23 2.750033 1_555
Ba3 O8 2.761220 1_555
Ba3 O24 2.833333 1_565
Ba3 O18 2.876449 1_555
Ba3 O26 2.959634 1_665
Ba3 O14 2.969942 1_555
Ba3 O6 3.159305 1_665
Ba3 O2 3.366729 1_565
Mg0 O12 1.954801 1_555
Mg0 O13 1.954801 1_555
Mg0 O21 1.966596 1_655
Mg0 O20 1.966596 1_545
Mg1 O14 1.954801 1_555
Mg1 O15 1.954801 1_555
Mg1 O22 1.966596 1_565
Mg1 O23 1.966596 1_455
Mg2 O4 2.004378 1_455
Mg2 O5 2.004378 1_565
Mg2 O1 2.036810 1_555
Mg2 O0 2.036810 1_555
Mg2 O21 2.586544 1_555
Mg2 O20 2.586544 1_555
Mg3 O7 2.004378 1_545
Mg3 O6 2.004378 1_655
Mg3 O2 2.036810 1_555
Mg3 O3 2.036810 1_555
Mg3 O22 2.586544 1_555
Mg3 O23 2.586544 1_555
Mg4 O0 1.951734 1_555
Mg4 O8 1.984207 1_455
Mg4 O26 2.000195 1_565
Mg4 O14 2.069564 1_555
Mg4 O10 2.194933 1_555
Mg5 O1 1.951734 1_556
Mg5 O9 1.984207 1_566
Mg5 O27 2.000195 1_555
Mg5 O15 2.069564 1_555
Mg5 O11 2.194933 1_555
Mg6 O2 1.951734 1_555
Mg6 O10 1.984207 1_655
Mg6 O24 2.000195 1_555
Mg6 O12 2.069564 1_555
Mg6 O8 2.194933 1_555
Mg7 O3 1.951734 1_554
Mg7 O11 1.984207 1_544
Mg7 O25 2.000195 1_655
Mg7 O13 2.069564 1_555
Mg7 O9 2.194933 1_555
O0 Si0 1.626830 1_555
O1 Si1 1.626830 1_555
O2 Si2 1.626830 1_555
O3 Si3 1.626830 1_555
O4 Si4 1.603766 1_555
O5 Si5 1.603766 1_555
O6 Si6 1.603766 1_555
O7 Si7 1.603766 1_555
O8 Si4 1.623950 1_555
O9 Si5 1.623950 1_555
O10 Si6 1.623950 1_555
O11 Si7 1.623950 1_555
O12 Si4 1.635682 1_555
O13 Si5 1.635682 1_555
O14 Si6 1.635682 1_555
O15 Si7 1.635682 1_555
O16 Si4 1.658949 1_555
O16 Si0 1.666815 1_555
O17 Si5 1.658949 1_555
O17 Si1 1.666815 1_555
O18 Si6 1.658949 1_555
O18 Si2 1.666815 1_555
O19 Si7 1.658949 1_555
O19 Si3 1.666815 1_555
O20 Si0 1.628844 1_555
O21 Si1 1.628844 1_555
O22 Si2 1.628844 1_555
O23 Si3 1.628844 1_555
O24 Si0 1.618249 1_545
O25 Si1 1.618249 1_555
O26 Si2 1.618249 1_555
O27 Si3 1.618249 1_455
