# generated using pymatgen
data_Li9Mn2Co5O16
_symmetry_space_group_name_H-M   'P 1'
_cell_length_a   5.05149000
_cell_length_b   5.09872860
_cell_length_c   11.69961720
_cell_angle_alpha   90.89262968
_cell_angle_beta   91.64886229
_cell_angle_gamma   108.65090839
_symmetry_Int_Tables_number   1
_chemical_formula_structural   Li9Mn2Co5O16
_chemical_formula_sum   'Li9 Mn2 Co5 O16'
_cell_volume   285.29663398
_cell_formula_units_Z   1
loop_
 _symmetry_equiv_pos_site_id
 _symmetry_equiv_pos_as_xyz
  1  'x, y, z'
loop_
 _atom_site_type_symbol
 _atom_site_label
 _atom_site_symmetry_multiplicity
 _atom_site_fract_x
 _atom_site_fract_y
 _atom_site_fract_z
 _atom_site_occupancy
  Li  Li0  1  0.00000000  0.50000000  0.00000000  1
  Li  Li1  1  0.50352600  0.49735900  0.12199200  1
  Li  Li2  1  0.00395300  0.50324000  0.24758300  1
  Li  Li3  1  0.49858600  0.49885100  0.37568500  1
  Li  Li4  1  0.00000000  0.50000000  0.50000000  1
  Li  Li5  1  0.50141400  0.50114900  0.62431500  1
  Li  Li6  1  0.99604700  0.49676000  0.75241700  1
  Li  Li7  1  0.49647400  0.50264100  0.87800800  1
  Li  Li8  1  0.50000000  0.00000000  0.00000000  1
  Mn  Mn0  1  0.99782600  0.99284600  0.87786200  1
  Mn  Mn1  1  0.00217400  0.00715400  0.12213800  1
  Co  Co0  1  0.50558900  0.00801900  0.24386200  1
  Co  Co1  1  0.00461600  0.00123200  0.37543000  1
  Co  Co2  1  0.50000000  0.00000000  0.50000000  1
  Co  Co3  1  0.99538400  0.99876800  0.62457000  1
  Co  Co4  1  0.49441100  0.99198100  0.75613800  1
  O  O0  1  0.22875300  0.76336700  0.87485200  1
  O  O1  1  0.78129300  0.77417600  0.99869400  1
  O  O2  1  0.25451100  0.78251700  0.13475700  1
  O  O3  1  0.76503600  0.78521400  0.24103900  1
  O  O4  1  0.25394500  0.76966000  0.38176200  1
  O  O5  1  0.75913100  0.76479700  0.49871500  1
  O  O6  1  0.25835300  0.77823400  0.63157000  1
  O  O7  1  0.74951800  0.77100100  0.75472100  1
  O  O8  1  0.77124700  0.23663300  0.12514800  1
  O  O9  1  0.25048200  0.22899900  0.24527900  1
  O  O10  1  0.74164700  0.22176600  0.36843000  1
  O  O11  1  0.24086900  0.23520300  0.50128500  1
  O  O12  1  0.74605500  0.23034000  0.61823800  1
  O  O13  1  0.23496400  0.21478600  0.75896100  1
  O  O14  1  0.74548900  0.21748300  0.86524300  1
  O  O15  1  0.21870700  0.22582400  0.00130600  1
loop_
_geom_bond_atom_site_label_1
_geom_bond_atom_site_label_2
_geom_bond_distance
_geom_bond_site_symmetry_2
Li0 O1 2.040244 1_454
Li0 O15 2.040244 1_555
Li0 O0 2.109142 1_554
Li0 O8 2.109142 1_455
Li0 O2 2.200375 1_555
Li0 O14 2.200375 1_454
Li1 O3 2.104625 1_555
Li1 O15 2.128061 1_555
Li1 O9 2.153049 1_555
Li1 O8 2.178555 1_555
Li1 O2 2.211873 1_555
Li1 O1 2.225994 1_554
Li2 O8 2.025328 1_455
Li2 O2 2.091423 1_555
Li2 O9 2.149721 1_555
Li2 O4 2.150973 1_555
Li2 O3 2.153454 1_455
Li2 O10 2.183840 1_455
Li3 O5 2.081224 1_555
Li3 O9 2.124437 1_555
Li3 O4 2.128900 1_555
Li3 O10 2.149986 1_555
Li3 O11 2.171069 1_555
Li3 O3 2.315555 1_555
Li4 O5 2.086586 1_455
Li4 O11 2.086586 1_555
Li4 O12 2.117286 1_455
Li4 O4 2.117286 1_555
Li4 O6 2.171962 1_555
Li4 O10 2.171962 1_455
Li5 O11 2.081224 1_555
Li5 O7 2.124437 1_555
Li5 O12 2.128900 1_555
Li5 O6 2.149986 1_555
Li5 O5 2.171069 1_555
Li5 O13 2.315555 1_555
Li6 O0 2.025328 1_655
Li6 O14 2.091423 1_555
Li6 O7 2.149721 1_555
Li6 O12 2.150973 1_555
Li6 O13 2.153454 1_655
Li6 O6 2.183840 1_655
Li7 O13 2.104625 1_555
Li7 O1 2.128061 1_555
Li7 O7 2.153049 1_555
Li7 O0 2.178555 1_555
Li7 O14 2.211873 1_555
Li7 O15 2.225994 1_556
Li8 O8 2.061338 1_555
Li8 O0 2.061338 1_544
Li8 O15 2.095768 1_555
Li8 O1 2.095768 1_544
Li8 O2 2.130865 1_545
Li8 O14 2.130865 1_554
Mn0 O0 1.898713 1_655
Mn0 O15 1.935966 1_666
Mn0 O1 1.948361 1_555
Mn0 O7 1.966257 1_555
Mn0 O14 1.971470 1_565
Mn0 O13 1.982066 1_665
Mn1 O8 1.898713 1_455
Mn1 O1 1.935966 1_444
Mn1 O15 1.948361 1_555
Mn1 O9 1.966257 1_555
Mn1 O2 1.971470 1_545
Mn1 O3 1.982066 1_445
Co0 O2 1.867729 1_545
Co0 O10 1.937259 1_555
Co0 O9 1.964629 1_555
Co0 O3 1.990703 1_545
Co0 O8 2.060551 1_555
Co0 O4 2.210633 1_545
Co1 O4 1.983532 1_545
Co1 O11 1.987228 1_555
Co1 O10 1.996914 1_455
Co1 O3 2.033212 1_445
Co1 O5 2.066996 1_445
Co1 O9 2.109805 1_555
Co2 O12 1.937682 1_555
Co2 O4 1.937682 1_545
Co2 O11 2.038746 1_555
Co2 O5 2.038746 1_545
Co2 O6 2.101820 1_545
Co2 O10 2.101820 1_555
Co3 O12 1.983532 1_565
Co3 O5 1.987228 1_555
Co3 O6 1.996914 1_655
Co3 O13 2.033212 1_665
Co3 O11 2.066996 1_665
Co3 O7 2.109805 1_555
Co4 O14 1.867729 1_565
Co4 O6 1.937259 1_555
Co4 O7 1.964629 1_555
Co4 O13 1.990703 1_565
Co4 O0 2.060551 1_555
Co4 O12 2.210633 1_565
