# generated using pymatgen
data_Mg2Bi
_symmetry_space_group_name_H-M   'P 1'
_cell_length_a   6.21332550
_cell_length_b   6.21332550
_cell_length_c   8.31371828
_cell_angle_alpha   68.73886283
_cell_angle_beta   68.73886283
_cell_angle_gamma   31.76017617
_symmetry_Int_Tables_number   1
_chemical_formula_structural   Mg2Bi
_chemical_formula_sum   'Mg4 Bi2'
_cell_volume   156.47325137
_cell_formula_units_Z   2
loop_
 _symmetry_equiv_pos_site_id
 _symmetry_equiv_pos_as_xyz
  1  'x, y, z'
loop_
 _atom_site_type_symbol
 _atom_site_label
 _atom_site_symmetry_multiplicity
 _atom_site_fract_x
 _atom_site_fract_y
 _atom_site_fract_z
 _atom_site_occupancy
  Mg  Mg0  1  0.82918200  0.82918200  0.13485800  1
  Mg  Mg1  1  0.15133300  0.15133300  0.46893100  1
  Mg  Mg2  1  0.84866700  0.84866700  0.53106900  1
  Mg  Mg3  1  0.17081800  0.17081800  0.86514200  1
  Bi  Bi0  1  0.54767600  0.54767600  0.21440900  1
  Bi  Bi1  1  0.45232400  0.45232400  0.78559100  1
loop_
_geom_bond_atom_site_label_1
_geom_bond_atom_site_label_2
_geom_bond_distance
_geom_bond_site_symmetry_2
Bi0 Mg0 3.174987 1_555
Bi0 Mg3 3.204020 1_654
Bi0 Mg3 3.204020 1_564
Bi0 Mg2 3.279839 1_455
Bi0 Mg2 3.279839 1_545
Bi0 Mg1 3.298443 1_655
Bi0 Mg1 3.298443 1_565
Bi0 Mg0 3.383816 1_455
Bi0 Mg0 3.383816 1_545
Bi1 Mg3 3.174987 1_555
Bi1 Mg0 3.204020 1_456
Bi1 Mg0 3.204020 1_546
Bi1 Mg1 3.279839 1_655
Bi1 Mg1 3.279839 1_565
Bi1 Mg2 3.298443 1_545
Bi1 Mg2 3.298443 1_455
Bi1 Mg3 3.383816 1_655
Bi1 Mg3 3.383816 1_565
