# generated using pymatgen
data_Li3Ni2SnO6
_symmetry_space_group_name_H-M   'P 1'
_cell_length_a   6.05633193
_cell_length_b   6.74898720
_cell_length_c   6.71525403
_cell_angle_alpha   95.41087521
_cell_angle_beta   76.98470985
_cell_angle_gamma   63.30973357
_symmetry_Int_Tables_number   1
_chemical_formula_structural   Li3Ni2SnO6
_chemical_formula_sum   'Li6 Ni4 Sn2 O12'
_cell_volume   232.83268360
_cell_formula_units_Z   2
loop_
 _symmetry_equiv_pos_site_id
 _symmetry_equiv_pos_as_xyz
  1  'x, y, z'
loop_
 _atom_site_type_symbol
 _atom_site_label
 _atom_site_symmetry_multiplicity
 _atom_site_fract_x
 _atom_site_fract_y
 _atom_site_fract_z
 _atom_site_occupancy
  Li  Li0  1  0.74959600  0.83351300  0.33363300  1
  Li  Li1  1  0.24960300  0.83348800  0.33357300  1
  Li  Li2  1  0.75583300  0.49889200  0.98058400  1
  Li  Li3  1  0.23857500  0.52787400  0.98401400  1
  Li  Li4  1  0.74388200  0.16811000  0.68636900  1
  Li  Li5  1  0.26125900  0.13899800  0.68274400  1
  Ni  Ni0  1  0.50762800  0.98451100  0.99168600  1
  Ni  Ni1  1  0.99254000  0.68198900  0.67487500  1
  Ni  Ni2  1  0.00778500  0.98879300  0.99474300  1
  Ni  Ni3  1  0.49229900  0.67780300  0.67186600  1
  Sn  Sn0  1  0.50182300  0.33268800  0.33283400  1
  Sn  Sn1  1  0.99851700  0.33376700  0.33375500  1
  O  O0  1  0.65187400  0.22242300  0.00676800  1
  O  O1  1  0.11981500  0.22756500  0.00896100  1
  O  O2  1  0.84821600  0.44414600  0.65983600  1
  O  O3  1  0.38022300  0.43898100  0.65763700  1
  O  O4  1  0.61888500  0.89786900  0.66972900  1
  O  O5  1  0.15001500  0.89829300  0.66763100  1
  O  O6  1  0.88124700  0.76869500  0.99674100  1
  O  O7  1  0.35004500  0.76832100  0.99887600  1
  O  O8  1  0.63193300  0.57313600  0.32420700  1
  O  O9  1  0.13332200  0.56925100  0.32894500  1
  O  O10  1  0.86818500  0.09352500  0.34243200  1
  O  O11  1  0.36690000  0.09736500  0.33756200  1
loop_
_geom_bond_atom_site_label_1
_geom_bond_atom_site_label_2
_geom_bond_distance
_geom_bond_site_symmetry_2
Li0 O4 2.147259 1_555
Li0 O6 2.152374 1_554
Li0 O8 2.173506 1_555
Li0 O10 2.174965 1_565
Li0 O11 2.190783 1_565
Li0 O9 2.194481 1_655
Li1 O5 2.134468 1_555
Li1 O7 2.138334 1_554
Li1 O10 2.167059 1_465
Li1 O8 2.170621 1_555
Li1 O9 2.191986 1_555
Li1 O11 2.193872 1_565
Li2 O2 2.051891 1_555
Li2 O8 2.191582 1_556
Li2 O1 2.208542 1_656
Li2 O0 2.230742 1_556
Li2 O6 2.268626 1_555
Li2 O7 2.273482 1_555
Li3 O6 2.015687 1_455
Li3 O7 2.020662 1_555
Li3 O3 2.083801 1_555
Li3 O9 2.214183 1_556
Li3 O1 2.443880 1_556
Li3 O0 2.476829 1_556
Li4 O0 2.049838 1_556
Li4 O10 2.193545 1_555
Li4 O3 2.207013 1_555
Li4 O2 2.229582 1_555
Li4 O4 2.269803 1_545
Li4 O5 2.274983 1_645
Li5 O4 2.017088 1_545
Li5 O5 2.021430 1_545
Li5 O1 2.082736 1_556
Li5 O11 2.215631 1_555
Li5 O3 2.442642 1_555
Li5 O2 2.475415 1_455
Ni0 O4 2.054688 1_555
Ni0 O7 2.070141 1_555
Ni0 O6 2.079889 1_555
Ni0 O1 2.145013 1_566
Ni0 O0 2.149624 1_566
Ni0 O11 2.211960 1_566
Ni1 O6 2.054115 1_555
Ni1 O5 2.070334 1_655
Ni1 O4 2.080350 1_555
Ni1 O3 2.144413 1_655
Ni1 O2 2.149529 1_555
Ni1 O9 2.212239 1_655
Ni2 O7 1.942789 1_555
Ni2 O6 1.953402 1_455
Ni2 O0 1.995830 1_466
Ni2 O1 2.012131 1_566
Ni2 O5 2.088621 1_555
Ni2 O10 2.220041 1_466
Ni3 O5 1.943154 1_555
Ni3 O4 1.953403 1_555
Ni3 O2 1.995901 1_555
Ni3 O3 2.012651 1_555
Ni3 O7 2.087991 1_555
Ni3 O8 2.219832 1_555
O0 Sn0 2.088771 1_555
O1 Sn1 2.078691 1_455
O2 Sn1 2.088971 1_555
O3 Sn0 2.078732 1_555
O8 Sn0 2.098475 1_555
O8 Sn1 2.098730 1_555
O9 Sn1 2.087298 1_455
O9 Sn0 2.088942 1_555
O10 Sn0 2.097464 1_555
O10 Sn1 2.098131 1_555
O11 Sn0 2.086800 1_555
O11 Sn1 2.087932 1_455
