# generated using pymatgen
data_Ba3B3Pb2BrO9
_symmetry_space_group_name_H-M   'P 1'
_cell_length_a   8.86395447
_cell_length_b   8.86395447
_cell_length_c   8.15082270
_cell_angle_alpha   90.00000000
_cell_angle_beta   90.00000000
_cell_angle_gamma   106.51715449
_symmetry_Int_Tables_number   1
_chemical_formula_structural   Ba3B3Pb2BrO9
_chemical_formula_sum   'Ba6 B6 Pb4 Br2 O18'
_cell_volume   613.98096423
_cell_formula_units_Z   2
loop_
 _symmetry_equiv_pos_site_id
 _symmetry_equiv_pos_as_xyz
  1  'x, y, z'
loop_
 _atom_site_type_symbol
 _atom_site_label
 _atom_site_symmetry_multiplicity
 _atom_site_fract_x
 _atom_site_fract_y
 _atom_site_fract_z
 _atom_site_occupancy
  Ba  Ba0  1  0.76081909  0.76081909  -0.00000000  1
  Ba  Ba1  1  0.23918091  0.23918091  0.50000000  1
  Ba  Ba2  1  0.64850071  0.35149929  0.25000000  1
  Ba  Ba3  1  0.35149929  0.64850071  0.75000000  1
  Ba  Ba4  1  0.65202091  0.34797909  0.75000000  1
  Ba  Ba5  1  0.34797909  0.65202091  0.25000000  1
  B  B0  1  0.37981287  0.37981287  -0.00000000  1
  B  B1  1  0.62018713  0.62018713  0.50000000  1
  B  B2  1  0.43027470  0.99392644  0.45698693  1
  B  B3  1  0.99392644  0.43027470  0.54301307  1
  B  B4  1  0.56972530  0.00607356  0.95698693  1
  B  B5  1  0.00607356  0.56972530  0.04301307  1
  Pb  Pb0  1  0.26988575  0.03293710  0.08390838  1
  Pb  Pb1  1  0.03293710  0.26988575  0.91609162  1
  Pb  Pb2  1  0.73011425  0.96706290  0.58390838  1
  Pb  Pb3  1  0.96706290  0.73011425  0.41609162  1
  Br  Br0  1  0.08521892  0.91478108  0.75000000  1
  Br  Br1  1  0.91478108  0.08521892  0.25000000  1
  O  O0  1  0.53210588  0.13910742  0.01051911  1
  O  O1  1  0.13910742  0.53210588  0.98948089  1
  O  O2  1  0.46789412  0.86089258  0.51051911  1
  O  O3  1  0.86089258  0.46789412  0.48948089  1
  O  O4  1  0.85884425  0.47971563  0.99500543  1
  O  O5  1  0.47971563  0.85884425  0.00499457  1
  O  O6  1  0.14115575  0.52028437  0.49500543  1
  O  O7  1  0.52028437  0.14115575  0.50499457  1
  O  O8  1  0.50972264  0.50972264  -0.00000000  1
  O  O9  1  0.49027736  0.49027736  0.50000000  1
  O  O10  1  0.32280623  0.31001136  0.14973860  1
  O  O11  1  0.31001136  0.32280623  0.85026140  1
  O  O12  1  0.67719377  0.68998864  0.64973860  1
  O  O13  1  0.68998864  0.67719377  0.35026140  1
  O  O14  1  0.30139363  0.97539089  0.35527965  1
  O  O15  1  0.97539089  0.30139363  0.64472035  1
  O  O16  1  0.69860637  0.02460911  0.85527965  1
  O  O17  1  0.02460911  0.69860637  0.14472035  1
loop_
_geom_bond_atom_site_label_1
_geom_bond_atom_site_label_2
_geom_bond_distance
_geom_bond_site_symmetry_2
Ba0 O8 2.662857 1_555
Ba0 O17 2.809979 1_655
Ba0 O16 2.809979 1_564
Ba0 O5 2.862895 1_555
Ba0 O4 2.862895 1_554
Ba0 O12 2.971460 1_554
Ba0 O13 2.971460 1_555
Ba0 Br0 3.471552 1_654
Ba0 Br1 3.471552 1_565
Ba1 O9 2.662857 1_555
Ba1 O15 2.809979 1_455
Ba1 O14 2.809979 1_545
Ba1 O6 2.862895 1_555
Ba1 O7 2.862895 1_555
Ba1 O11 2.971460 1_555
Ba1 O10 2.971460 1_555
Ba1 Br0 3.471552 1_545
Ba1 Br1 3.471552 1_455
Ba2 O0 2.704532 1_555
Ba2 O3 2.704532 1_555
Ba2 O7 2.807643 1_555
Ba2 O4 2.807643 1_554
Ba2 O10 2.921273 1_555
Ba2 O13 2.921273 1_555
Ba2 O9 2.934856 1_555
Ba2 O8 2.934856 1_555
Ba2 Br1 3.782817 1_555
Ba3 O1 2.704532 1_555
Ba3 O2 2.704532 1_555
Ba3 O6 2.807643 1_555
Ba3 O5 2.807643 1_556
Ba3 O12 2.921273 1_555
Ba3 O11 2.921273 1_555
Ba3 O9 2.934856 1_555
Ba3 O8 2.934856 1_556
Ba3 Br0 3.782817 1_555
Ba4 O7 2.737735 1_555
Ba4 O4 2.737735 1_555
Ba4 O0 2.819156 1_556
Ba4 O3 2.819156 1_555
Ba4 O9 2.971007 1_555
Ba4 O8 2.971007 1_556
Ba4 O12 3.085991 1_555
Ba4 O11 3.085991 1_555
Ba4 O15 3.129818 1_555
Ba4 O16 3.129818 1_555
Ba5 O6 2.737735 1_555
Ba5 O5 2.737735 1_555
Ba5 O1 2.819156 1_554
Ba5 O2 2.819156 1_555
Ba5 O9 2.971007 1_555
Ba5 O8 2.971007 1_555
Ba5 O10 3.085991 1_555
Ba5 O13 3.085991 1_555
Ba5 O14 3.129818 1_555
Ba5 O17 3.129818 1_555
B0 O8 1.377682 1_555
B0 O10 1.396416 1_555
B0 O11 1.396416 1_554
B1 O9 1.377682 1_555
B1 O13 1.396416 1_555
B1 O12 1.396416 1_555
B2 O7 1.378675 1_565
B2 O14 1.382959 1_555
B2 O2 1.384084 1_555
B3 O6 1.378675 1_655
B3 O15 1.382959 1_555
B3 O3 1.384084 1_555
B4 O5 1.378675 1_546
B4 O16 1.382959 1_555
B4 O0 1.384084 1_556
B5 O4 1.378675 1_454
B5 O17 1.382959 1_555
B5 O1 1.384084 1_554
Br0 Pb0 3.195112 1_566
Br0 Pb3 3.195112 1_455
Br1 Pb1 3.195112 1_654
Br1 Pb2 3.195112 1_545
O0 Pb0 2.324246 1_555
O1 Pb1 2.324246 1_555
O2 Pb2 2.324246 1_555
O3 Pb3 2.324246 1_555
O10 Pb0 2.425838 1_555
O11 Pb1 2.425838 1_555
O12 Pb2 2.425838 1_555
O13 Pb3 2.425838 1_555
O14 Pb0 2.304710 1_565
O15 Pb1 2.304710 1_655
O16 Pb2 2.304710 1_545
O17 Pb3 2.304710 1_455
