# generated using pymatgen
data_ScMn6(Sn2Ge)2
_symmetry_space_group_name_H-M   'P 1'
_cell_length_a   5.29889553
_cell_length_b   5.29889553
_cell_length_c   8.60609400
_cell_angle_alpha   90.00000000
_cell_angle_beta   90.00000000
_cell_angle_gamma   119.99999407
_symmetry_Int_Tables_number   1
_chemical_formula_structural   ScMn6(Sn2Ge)2
_chemical_formula_sum   'Sc1 Mn6 Sn4 Ge2'
_cell_volume   209.27023250
_cell_formula_units_Z   1
loop_
 _symmetry_equiv_pos_site_id
 _symmetry_equiv_pos_as_xyz
  1  'x, y, z'
loop_
 _atom_site_type_symbol
 _atom_site_label
 _atom_site_symmetry_multiplicity
 _atom_site_fract_x
 _atom_site_fract_y
 _atom_site_fract_z
 _atom_site_occupancy
  Sc  Sc0  1  0.00000000  0.00000000  0.00000000  1
  Mn  Mn0  1  0.50000000  0.50000000  0.76841600  1
  Mn  Mn1  1  0.50000000  0.50000000  0.23158400  1
  Mn  Mn2  1  0.00000000  0.50000000  0.76841600  1
  Mn  Mn3  1  0.00000000  0.50000000  0.23158400  1
  Mn  Mn4  1  0.50000000  0.00000000  0.76841600  1
  Mn  Mn5  1  0.50000000  0.00000000  0.23158400  1
  Sn  Sn0  1  0.66666700  0.33333300  0.50000000  1
  Sn  Sn1  1  0.33333300  0.66666700  0.50000000  1
  Sn  Sn2  1  0.00000000  0.00000000  0.66967900  1
  Sn  Sn3  1  0.00000000  0.00000000  0.33032100  1
  Ge  Ge0  1  0.66666700  0.33333300  0.00000000  1
  Ge  Ge1  1  0.33333300  0.66666700  0.00000000  1
loop_
_geom_bond_atom_site_label_1
_geom_bond_atom_site_label_2
_geom_bond_distance
_geom_bond_site_symmetry_2
Sc0 Sn2 2.842774 1_554
Sc0 Sn3 2.842774 1_555
Mn0 Sn0 2.770565 1_555
Mn0 Sn1 2.770565 1_555
Mn0 Sn2 2.782379 1_665
Mn0 Sn2 2.782379 1_555
Mn1 Sn0 2.770565 1_555
Mn1 Sn1 2.770565 1_555
Mn1 Sn3 2.782379 1_555
Mn1 Sn3 2.782379 1_665
Mn2 Sn1 2.770562 1_555
Mn2 Sn0 2.770562 1_455
Mn2 Sn2 2.782379 1_565
Mn2 Sn2 2.782379 1_555
Mn3 Sn1 2.770562 1_555
Mn3 Sn0 2.770562 1_455
Mn3 Sn3 2.782379 1_555
Mn3 Sn3 2.782379 1_565
Mn4 Sn0 2.770562 1_555
Mn4 Sn1 2.770562 1_545
Mn4 Sn2 2.782379 1_655
Mn4 Sn2 2.782379 1_555
Mn5 Sn0 2.770562 1_555
Mn5 Sn1 2.770562 1_545
Mn5 Sn3 2.782379 1_555
Mn5 Sn3 2.782379 1_655
Sn2 Sn3 2.920547 1_555
Ge0 Mn3 2.512377 1_655
Ge0 Mn5 2.512377 1_555
Ge0 Mn4 2.512377 1_554
Ge0 Mn2 2.512377 1_654
Ge0 Mn1 2.512379 1_555
Ge0 Mn0 2.512379 1_554
Ge0 Sc0 3.059316 1_655
Ge0 Sc0 3.059320 1_555
Ge0 Sc0 3.059320 1_665
Ge1 Mn3 2.512377 1_555
Ge1 Mn5 2.512377 1_565
Ge1 Mn4 2.512377 1_564
Ge1 Mn2 2.512377 1_554
Ge1 Mn1 2.512379 1_555
Ge1 Mn0 2.512379 1_554
Ge1 Sc0 3.059316 1_565
Ge1 Sc0 3.059320 1_555
Ge1 Sc0 3.059320 1_665
