# generated using pymatgen
data_VReMo
_symmetry_space_group_name_H-M   'P 1'
_cell_length_a   13.72734280
_cell_length_b   13.35026855
_cell_length_c   5.41004557
_cell_angle_alpha   82.41851139
_cell_angle_beta   74.58578712
_cell_angle_gamma   22.99570149
_symmetry_Int_Tables_number   1
_chemical_formula_structural   VReMo
_chemical_formula_sum   'V8 Re8 Mo8'
_cell_volume   356.27295538
_cell_formula_units_Z   8
loop_
 _symmetry_equiv_pos_site_id
 _symmetry_equiv_pos_as_xyz
  1  'x, y, z'
loop_
 _atom_site_type_symbol
 _atom_site_label
 _atom_site_symmetry_multiplicity
 _atom_site_fract_x
 _atom_site_fract_y
 _atom_site_fract_z
 _atom_site_occupancy
  V  V0_0  1  0.33415050  0.33415050  0.16584950  1
  V  V0_1  1  0.33415050  0.33415050  0.66584950  1
  V  V0_2  1  0.33415050  0.83415050  0.16584950  1
  V  V0_3  1  0.33415050  0.83415050  0.66584950  1
  V  V0_4  1  0.83415050  0.33415050  0.16584950  1
  V  V0_5  1  0.83415050  0.33415050  0.66584950  1
  V  V0_6  1  0.83415050  0.83415050  0.16584950  1
  V  V0_7  1  0.83415050  0.83415050  0.66584950  1
  Re  Re0_0  1  0.16452150  0.16452150  0.33547850  1
  Re  Re0_1  1  0.16452150  0.16452150  0.83547850  1
  Re  Re0_2  1  0.16452150  0.66452150  0.33547850  1
  Re  Re0_3  1  0.16452150  0.66452150  0.83547850  1
  Re  Re0_4  1  0.66452150  0.16452150  0.33547850  1
  Re  Re0_5  1  0.66452150  0.16452150  0.83547850  1
  Re  Re0_6  1  0.66452150  0.66452150  0.33547850  1
  Re  Re0_7  1  0.66452150  0.66452150  0.83547850  1
  Mo  Mo0_0  1  0.00132850  0.00132850  0.49867150  1
  Mo  Mo0_1  1  0.00132850  0.00132850  0.99867150  1
  Mo  Mo0_2  1  0.00132850  0.50132850  0.49867150  1
  Mo  Mo0_3  1  0.00132850  0.50132850  0.99867150  1
  Mo  Mo0_4  1  0.50132850  0.00132850  0.49867150  1
  Mo  Mo0_5  1  0.50132850  0.00132850  0.99867150  1
  Mo  Mo0_6  1  0.50132850  0.50132850  0.49867150  1
  Mo  Mo0_7  1  0.50132850  0.50132850  0.99867150  1
loop_
_geom_bond_atom_site_label_1
_geom_bond_atom_site_label_2
_geom_bond_distance
_geom_bond_site_symmetry_2
V0_0 V0_6 2.705023 1_455
V0_0 V0_1 2.705023 1_555
V0_0 V0_1 2.705023 1_554
V0_0 V0_6 2.705023 1_545
V0_1 V0_7 2.705023 1_545
V0_1 V0_7 2.705023 1_455
V0_2 V0_3 2.705023 1_554
V0_2 V0_4 2.705023 1_555
V0_2 V0_3 2.705023 1_555
V0_2 V0_4 2.705023 1_465
V0_3 V0_5 2.705023 1_465
V0_3 V0_5 2.705023 1_555
V0_4 V0_5 2.705023 1_555
V0_4 V0_5 2.705023 1_554
V0_6 V0_7 2.705023 1_554
V0_6 V0_7 2.705023 1_555
Re0_0 V0_5 2.596377 1_455
Re0_0 V0_2 2.596377 1_545
Re0_0 Re0_6 2.705023 1_545
Re0_0 Re0_1 2.705023 1_555
Re0_0 Re0_1 2.705023 1_554
Re0_0 Re0_6 2.705023 1_455
Re0_1 V0_4 2.596377 1_456
Re0_1 V0_3 2.596377 1_545
Re0_1 Re0_7 2.705023 1_455
Re0_1 Re0_7 2.705023 1_545
Re0_2 V0_7 2.596377 1_455
Re0_2 V0_0 2.596377 1_555
Re0_2 Re0_3 2.705023 1_555
Re0_2 Re0_4 2.705023 1_555
Re0_2 Re0_4 2.705023 1_465
Re0_2 Re0_3 2.705023 1_554
Re0_3 V0_6 2.596377 1_456
Re0_3 V0_1 2.596377 1_555
Re0_3 Re0_5 2.705023 1_555
Re0_3 Re0_5 2.705023 1_465
Re0_4 V0_6 2.596377 1_545
Re0_4 V0_1 2.596377 1_555
Re0_4 Re0_5 2.705023 1_554
Re0_4 Re0_5 2.705023 1_555
Re0_5 V0_7 2.596377 1_545
Re0_5 V0_0 2.596377 1_556
Re0_6 V0_3 2.596377 1_555
Re0_6 V0_4 2.596377 1_555
Re0_6 Re0_7 2.705023 1_554
Re0_6 Re0_7 2.705023 1_555
Re0_7 V0_2 2.596377 1_556
Re0_7 V0_5 2.596377 1_555
Mo0_0 V0_5 2.647845 1_455
Mo0_0 V0_2 2.647845 1_545
Mo0_0 Mo0_6 2.705023 1_545
Mo0_0 Mo0_1 2.705023 1_554
Mo0_0 Mo0_1 2.705023 1_555
Mo0_0 Mo0_6 2.705023 1_455
Mo0_0 Re0_5 2.732623 1_455
Mo0_0 Re0_2 2.732623 1_545
Mo0_1 V0_4 2.647845 1_456
Mo0_1 V0_3 2.647845 1_545
Mo0_1 Mo0_7 2.705023 1_455
Mo0_1 Mo0_7 2.705023 1_545
Mo0_1 Re0_4 2.732623 1_456
Mo0_1 Re0_3 2.732623 1_545
Mo0_2 V0_7 2.647845 1_455
Mo0_2 V0_0 2.647845 1_555
Mo0_2 Mo0_3 2.705023 1_554
Mo0_2 Mo0_3 2.705023 1_555
Mo0_2 Mo0_4 2.705023 1_555
Mo0_2 Mo0_4 2.705023 1_465
Mo0_2 Re0_7 2.732623 1_455
Mo0_2 Re0_0 2.732623 1_555
Mo0_3 V0_6 2.647845 1_456
Mo0_3 V0_1 2.647845 1_555
Mo0_3 Mo0_5 2.705023 1_465
Mo0_3 Mo0_5 2.705023 1_555
Mo0_3 Re0_6 2.732623 1_456
Mo0_3 Re0_1 2.732623 1_555
Mo0_4 V0_1 2.647845 1_555
Mo0_4 V0_6 2.647845 1_545
Mo0_4 Mo0_5 2.705023 1_554
Mo0_4 Mo0_5 2.705023 1_555
Mo0_4 Re0_1 2.732623 1_555
Mo0_4 Re0_6 2.732623 1_545
Mo0_5 V0_0 2.647845 1_556
Mo0_5 V0_7 2.647845 1_545
Mo0_5 Re0_0 2.732623 1_556
Mo0_5 Re0_7 2.732623 1_545
Mo0_6 V0_3 2.647845 1_555
Mo0_6 V0_4 2.647845 1_555
Mo0_6 Mo0_7 2.705023 1_554
Mo0_6 Mo0_7 2.705023 1_555
Mo0_6 Re0_3 2.732623 1_555
Mo0_6 Re0_4 2.732623 1_555
Mo0_7 V0_2 2.647845 1_556
Mo0_7 V0_5 2.647845 1_555
Mo0_7 Re0_2 2.732623 1_556
Mo0_7 Re0_5 2.732623 1_555
