# generated using pymatgen
data_FeCuS2
_symmetry_space_group_name_H-M   'P 1'
_cell_length_a   3.63671900
_cell_length_b   3.63671900
_cell_length_c   5.32316400
_cell_angle_alpha   90.00000000
_cell_angle_beta   90.00000000
_cell_angle_gamma   90.00000000
_symmetry_Int_Tables_number   1
_chemical_formula_structural   FeCuS2
_chemical_formula_sum   'Fe1 Cu1 S2'
_cell_volume   70.40270365
_cell_formula_units_Z   1
loop_
 _symmetry_equiv_pos_site_id
 _symmetry_equiv_pos_as_xyz
  1  'x, y, z'
loop_
 _atom_site_type_symbol
 _atom_site_label
 _atom_site_symmetry_multiplicity
 _atom_site_fract_x
 _atom_site_fract_y
 _atom_site_fract_z
 _atom_site_occupancy
  Fe  Fe0  1  0.00000000  0.00000000  0.50000000  1
  Cu  Cu0  1  0.00000000  0.00000000  0.00000000  1
  S  S0  1  0.00000000  0.50000000  0.26638000  1
  S  S1  1  0.50000000  0.00000000  0.73362000  1
loop_
_geom_bond_atom_site_label_1
_geom_bond_atom_site_label_2
_geom_bond_distance
_geom_bond_site_symmetry_2
Fe0 S0 2.202945 1_545
Fe0 S0 2.202945 1_555
Fe0 S1 2.202945 1_555
Fe0 S1 2.202945 1_455
Cu0 S1 2.305886 1_554
Cu0 S0 2.305886 1_555
Cu0 S1 2.305886 1_454
Cu0 S0 2.305886 1_545
