# generated using pymatgen
data_Ga3Te9Pd32
_symmetry_space_group_name_H-M   'P 1'
_cell_length_a   15.13881711
_cell_length_b   15.13881711
_cell_length_c   15.13881700
_cell_angle_alpha   29.48603904
_cell_angle_beta   29.48603904
_cell_angle_gamma   29.48604152
_symmetry_Int_Tables_number   1
_chemical_formula_structural   Ga3Te9Pd32
_chemical_formula_sum   'Ga3 Te9 Pd32'
_cell_volume   744.00851759
_cell_formula_units_Z   1
loop_
 _symmetry_equiv_pos_site_id
 _symmetry_equiv_pos_as_xyz
  1  'x, y, z'
loop_
 _atom_site_type_symbol
 _atom_site_label
 _atom_site_symmetry_multiplicity
 _atom_site_fract_x
 _atom_site_fract_y
 _atom_site_fract_z
 _atom_site_occupancy
  Ga  Ga0  1  0.79089200  0.79089200  0.79089200  1
  Ga  Ga1  1  0.94917300  0.94917300  0.94917300  1
  Ga  Ga2  1  0.44898900  0.44898900  0.44898900  1
  Te  Te0  1  0.60600500  0.60600500  0.60600500  1
  Te  Te1  1  0.10646100  0.10646100  0.10646100  1
  Te  Te2  1  0.87878900  0.19534500  0.51960100  1
  Te  Te3  1  0.51960100  0.87878900  0.19534500  1
  Te  Te4  1  0.19534500  0.51960100  0.87878900  1
  Te  Te5  1  0.01740900  0.69843700  0.38240500  1
  Te  Te6  1  0.38240500  0.01740900  0.69843700  1
  Te  Te7  1  0.69843700  0.38240500  0.01740900  1
  Te  Te8  1  0.29043100  0.29043100  0.29043100  1
  Pd  Pd0  1  0.08569200  0.82597800  0.58491100  1
  Pd  Pd1  1  0.58491100  0.08569200  0.82597800  1
  Pd  Pd2  1  0.82597800  0.58491100  0.08569200  1
  Pd  Pd3  1  0.07865000  0.32705300  0.59404300  1
  Pd  Pd4  1  0.59404300  0.07865000  0.32705300  1
  Pd  Pd5  1  0.32705300  0.59404300  0.07865000  1
  Pd  Pd6  1  0.29619100  0.82914300  0.56478000  1
  Pd  Pd7  1  0.56478000  0.29619100  0.82914300  1
  Pd  Pd8  1  0.82914300  0.56478000  0.29619100  1
  Pd  Pd9  1  0.06603500  0.32899000  0.79512700  1
  Pd  Pd10  1  0.79512700  0.06603500  0.32899000  1
  Pd  Pd11  1  0.32899000  0.79512700  0.06603500  1
  Pd  Pd12  1  0.50935300  0.50935300  0.50935300  1
  Pd  Pd13  1  0.00959600  0.00959600  0.00959600  1
  Pd  Pd14  1  0.88797900  0.88797900  0.88797900  1
  Pd  Pd15  1  0.38781000  0.38781000  0.38781000  1
  Pd  Pd16  1  0.23085800  0.23085800  0.23085800  1
  Pd  Pd17  1  0.73247700  0.73247700  0.73247700  1
  Pd  Pd18  1  0.16733600  0.16733600  0.16733600  1
  Pd  Pd19  1  0.66693000  0.66693000  0.66693000  1
  Pd  Pd20  1  0.96066700  0.23016900  0.60317000  1
  Pd  Pd21  1  0.60317000  0.96066700  0.23016900  1
  Pd  Pd22  1  0.23016900  0.60317000  0.96066700  1
  Pd  Pd23  1  0.09781700  0.73234700  0.46626700  1
  Pd  Pd24  1  0.46626700  0.09781700  0.73234700  1
  Pd  Pd25  1  0.73234700  0.46626700  0.09781700  1
  Pd  Pd26  1  0.29909500  0.93381600  0.66286600  1
  Pd  Pd27  1  0.66286600  0.29909500  0.93381600  1
  Pd  Pd28  1  0.93381600  0.66286600  0.29909500  1
  Pd  Pd29  1  0.15670300  0.43721500  0.80100000  1
  Pd  Pd30  1  0.80100100  0.15670300  0.43721500  1
  Pd  Pd31  1  0.43721500  0.80100000  0.15670300  1
loop_
_geom_bond_atom_site_label_1
_geom_bond_atom_site_label_2
_geom_bond_distance
_geom_bond_site_symmetry_2
Ga0 Pd17 2.535874 1_555
Ga0 Pd2 2.634130 1_556
Ga0 Pd0 2.634130 1_655
Ga0 Pd1 2.634130 1_565
Ga0 Pd25 2.680696 1_556
Ga0 Pd23 2.680696 1_655
Ga0 Pd24 2.680696 1_565
Ga0 Pd31 2.790572 1_556
Ga0 Pd29 2.790572 1_655
Ga0 Pd30 2.790574 1_565
Ga1 Pd20 2.544192 1_565
Ga1 Pd21 2.544192 1_556
Ga1 Pd22 2.544192 1_655
Ga1 Pd28 2.557283 1_556
Ga1 Pd26 2.557283 1_655
Ga1 Pd27 2.557283 1_565
Ga1 Pd13 2.623044 1_666
Ga1 Pd14 2.656514 1_555
Ga2 Pd25 2.561758 1_555
Ga2 Pd24 2.561758 1_555
Ga2 Pd23 2.561758 1_555
Ga2 Pd29 2.584016 1_555
Ga2 Pd31 2.584016 1_555
Ga2 Pd30 2.584024 1_555
Ga2 Pd12 2.620482 1_555
Ga2 Pd15 2.655863 1_555
Pd0 Te2 2.707473 1_465
Pd0 Te4 2.755016 1_555
Pd0 Pd29 2.843268 1_555
Pd0 Pd30 2.891753 1_465
Pd0 Pd6 2.966462 1_555
Pd0 Pd18 2.973030 1_565
Pd0 Pd14 3.096553 1_455
Pd0 Pd31 3.345386 1_555
Pd1 Te3 2.707473 1_546
Pd1 Te2 2.755016 1_555
Pd1 Pd30 2.843263 1_555
Pd1 Pd31 2.891763 1_546
Pd1 Pd7 2.966462 1_555
Pd1 Pd18 2.973030 1_556
Pd1 Pd14 3.096553 1_545
Pd1 Pd29 3.345387 1_555
Pd2 Te4 2.707473 1_654
Pd2 Te3 2.755016 1_555
Pd2 Pd31 2.843269 1_555
Pd2 Pd29 2.891763 1_654
Pd2 Pd8 2.966462 1_555
Pd2 Pd30 3.345380 1_555
Pd3 Te8 2.720173 1_555
Pd3 Te5 2.733320 1_555
Pd3 Te6 2.800786 1_555
Pd3 Pd9 2.904799 1_555
Pd4 Te8 2.720173 1_555
Pd4 Te6 2.733320 1_555
Pd4 Te7 2.800786 1_555
Pd5 Te8 2.720173 1_555
Pd5 Te7 2.733321 1_555
Pd5 Te5 2.800786 1_555
Pd6 Te3 2.731187 1_555
Pd6 Te0 2.764292 1_555
Pd6 Te4 2.815367 1_555
Pd6 Te2 3.326621 1_465
Pd7 Te4 2.731187 1_555
Pd7 Te0 2.764291 1_555
Pd7 Te2 2.815367 1_555
Pd7 Te3 3.326621 1_546
Pd8 Te2 2.731187 1_555
Pd8 Te0 2.764291 1_555
Pd8 Te3 2.815367 1_555
Pd8 Te4 3.326621 1_654
Pd9 Te7 2.692136 1_456
Pd9 Te1 2.779850 1_556
Pd9 Te6 2.795621 1_555
Pd9 Te5 3.295959 1_555
Pd10 Te5 2.692136 1_645
Pd10 Te1 2.779850 1_655
Pd10 Te7 2.795621 1_555
Pd10 Pd15 2.871174 1_555
Pd10 Pd17 2.874474 1_545
Pd10 Pd4 2.904799 1_555
Pd10 Pd25 2.951587 1_555
Pd10 Pd23 2.972861 1_645
Pd10 Pd30 2.992931 1_555
Pd10 Pd13 3.111723 1_655
Pd10 Pd24 3.213004 1_555
Pd10 Te6 3.295959 1_555
Pd11 Te6 2.692136 1_564
Pd11 Te1 2.779850 1_565
Pd11 Te5 2.795621 1_555
Pd11 Pd15 2.871174 1_555
Pd11 Pd17 2.874474 1_554
Pd11 Pd5 2.904799 1_555
Pd11 Pd23 2.951586 1_555
Pd11 Pd24 2.972861 1_564
Pd11 Pd31 2.992917 1_555
Pd11 Pd13 3.111723 1_565
Pd11 Pd25 3.213004 1_555
Pd11 Te7 3.295959 1_555
Pd12 Te4 2.800368 1_555
Pd12 Te3 2.800368 1_555
Pd12 Te2 2.800369 1_555
Pd12 Pd8 3.116884 1_555
Pd12 Pd7 3.116884 1_555
Pd12 Pd6 3.116884 1_555
Pd12 Pd30 3.147614 1_555
Pd12 Pd29 3.147619 1_555
Pd12 Pd31 3.147619 1_555
Pd13 Te5 2.822110 1_545
Pd13 Te6 2.822110 1_554
Pd13 Te7 2.822110 1_455
Pd13 Pd9 3.111723 1_554
Pd14 Te2 2.796150 1_565
Pd14 Te3 2.796150 1_556
Pd14 Te4 2.796150 1_655
Pd14 Pd8 2.878693 1_556
Pd14 Pd6 2.878693 1_655
Pd14 Pd7 2.878693 1_565
Pd14 Pd20 3.068517 1_565
Pd14 Pd21 3.068517 1_556
Pd14 Pd22 3.068517 1_655
Pd14 Pd2 3.096553 1_556
Pd15 Te7 2.790222 1_555
Pd15 Te6 2.790222 1_555
Pd15 Te5 2.790223 1_555
Pd15 Pd9 2.871174 1_555
Pd16 Te8 2.586144 1_555
Pd16 Pd18 2.757575 1_555
Pd16 Te2 2.853207 1_455
Pd16 Te4 2.853207 1_554
Pd16 Te3 2.853208 1_545
Pd16 Pd7 2.868500 1_554
Pd16 Pd6 2.868500 1_545
Pd16 Pd8 2.868500 1_455
Pd16 Pd20 2.886944 1_455
Pd16 Pd22 2.886944 1_554
Pd16 Pd21 2.886944 1_545
Pd17 Pd25 2.832160 1_556
Pd17 Pd23 2.832160 1_655
Pd17 Pd24 2.832160 1_565
Pd17 Te7 2.836318 1_556
Pd17 Te5 2.836318 1_655
Pd17 Te6 2.836318 1_565
Pd17 Pd19 2.845483 1_555
Pd17 Pd9 2.874474 1_655
Pd18 Te1 2.642666 1_555
Pd18 Te2 2.803034 1_455
Pd18 Te4 2.803034 1_554
Pd18 Te3 2.803034 1_545
Pd18 Pd30 2.904662 1_455
Pd18 Pd29 2.904673 1_554
Pd18 Pd31 2.904673 1_545
Pd18 Pd2 2.973030 1_455
Pd19 Te0 2.644836 1_555
Pd19 Te5 2.823813 1_655
Pd19 Te7 2.823813 1_556
Pd19 Te6 2.823813 1_565
Pd19 Pd28 2.886408 1_555
Pd19 Pd27 2.886408 1_555
Pd19 Pd26 2.886408 1_555
Pd19 Pd5 2.935812 1_556
Pd19 Pd4 2.935812 1_565
Pd19 Pd3 2.935812 1_655
Pd20 Te8 2.725963 1_655
Pd20 Te0 2.835881 1_555
Pd20 Te2 2.905842 1_555
Pd20 Pd7 2.907047 1_555
Pd20 Pd8 2.964430 1_555
Pd20 Pd6 3.211362 1_645
Pd21 Te8 2.725963 1_565
Pd21 Te0 2.835881 1_555
Pd21 Te3 2.905842 1_555
Pd21 Pd8 2.907048 1_555
Pd21 Pd6 2.964430 1_555
Pd21 Pd7 3.211362 1_564
Pd22 Te8 2.725963 1_556
Pd22 Te0 2.835881 1_555
Pd22 Te4 2.905842 1_555
Pd22 Pd6 2.907047 1_555
Pd22 Pd7 2.964431 1_555
Pd22 Pd8 3.211362 1_456
Pd23 Pd29 2.819526 1_555
Pd23 Te1 2.846939 1_565
Pd23 Te5 2.875797 1_555
Pd23 Pd31 2.887753 1_555
Pd23 Pd30 3.149761 1_465
Pd23 Pd9 3.213004 1_555
Pd24 Pd30 2.819537 1_555
Pd24 Te1 2.846939 1_556
Pd24 Te6 2.875797 1_555
Pd24 Pd29 2.887753 1_555
Pd24 Pd9 2.951587 1_555
Pd24 Pd31 3.149758 1_546
Pd25 Pd31 2.819526 1_555
Pd25 Te1 2.846939 1_655
Pd25 Te7 2.875797 1_555
Pd25 Pd30 2.887761 1_555
Pd25 Pd9 2.972861 1_654
Pd25 Pd29 3.149758 1_654
Pd26 Te0 2.699704 1_555
Pd26 Te8 2.830989 1_565
Pd26 Te6 2.937622 1_565
Pd26 Pd6 3.008213 1_555
Pd27 Te0 2.699704 1_555
Pd27 Te8 2.830989 1_556
Pd27 Te7 2.937622 1_556
Pd27 Pd7 3.008213 1_555
Pd28 Te0 2.699704 1_555
Pd28 Te8 2.830989 1_655
Pd28 Te5 2.937622 1_655
Pd28 Pd8 3.008213 1_555
Pd29 Te1 2.688948 1_556
Pd29 Te4 2.882927 1_555
Pd29 Pd9 2.992917 1_555
Pd30 Te1 2.688951 1_655
Pd30 Te2 2.882913 1_555
Pd31 Te1 2.688948 1_565
Pd31 Te3 2.882927 1_555
