# generated using pymatgen
data_Ca3Ge3(WO6)2
_symmetry_space_group_name_H-M   'P 1'
_cell_length_a   11.05748164
_cell_length_b   11.05748164
_cell_length_c   11.05748164
_cell_angle_alpha   109.47122063
_cell_angle_beta   109.47122063
_cell_angle_gamma   109.47122063
_symmetry_Int_Tables_number   1
_chemical_formula_structural   Ca3Ge3(WO6)2
_chemical_formula_sum   'Ca12 Ge12 W8 O48'
_cell_volume   1040.75088716
_cell_formula_units_Z   4
loop_
 _symmetry_equiv_pos_site_id
 _symmetry_equiv_pos_as_xyz
  1  'x, y, z'
loop_
 _atom_site_type_symbol
 _atom_site_label
 _atom_site_symmetry_multiplicity
 _atom_site_fract_x
 _atom_site_fract_y
 _atom_site_fract_z
 _atom_site_occupancy
  Ca  Ca0  1  0.25000000  0.87500000  0.62500000  1
  Ca  Ca1  1  0.75000000  0.62500000  0.87500000  1
  Ca  Ca2  1  0.62500000  0.87500000  0.75000000  1
  Ca  Ca3  1  0.87500000  0.62500000  0.25000000  1
  Ca  Ca4  1  0.62500000  0.25000000  0.87500000  1
  Ca  Ca5  1  0.87500000  0.75000000  0.62500000  1
  Ca  Ca6  1  0.75000000  0.12500000  0.37500000  1
  Ca  Ca7  1  0.25000000  0.37500000  0.12500000  1
  Ca  Ca8  1  0.37500000  0.12500000  0.25000000  1
  Ca  Ca9  1  0.12500000  0.37500000  0.75000000  1
  Ca  Ca10  1  0.37500000  0.75000000  0.12500000  1
  Ca  Ca11  1  0.12500000  0.25000000  0.37500000  1
  Ge  Ge0  1  0.12500000  0.75000000  0.87500000  1
  Ge  Ge1  1  0.87500000  0.25000000  0.12500000  1
  Ge  Ge2  1  0.62500000  0.37500000  0.25000000  1
  Ge  Ge3  1  0.75000000  0.87500000  0.12500000  1
  Ge  Ge4  1  0.87500000  0.12500000  0.75000000  1
  Ge  Ge5  1  0.25000000  0.62500000  0.37500000  1
  Ge  Ge6  1  0.75000000  0.37500000  0.62500000  1
  Ge  Ge7  1  0.25000000  0.12500000  0.87500000  1
  Ge  Ge8  1  0.12500000  0.87500000  0.25000000  1
  Ge  Ge9  1  0.37500000  0.62500000  0.75000000  1
  Ge  Ge10  1  0.62500000  0.75000000  0.37500000  1
  Ge  Ge11  1  0.37500000  0.25000000  0.62500000  1
  W  W0  1  0.50000000  0.50000000  0.50000000  1
  W  W1  1  0.50000000  0.00000000  0.50000000  1
  W  W2  1  0.00000000  0.50000000  0.50000000  1
  W  W3  1  0.50000000  0.50000000  0.00000000  1
  W  W4  1  0.00000000  0.00000000  0.50000000  1
  W  W5  1  0.00000000  0.50000000  0.00000000  1
  W  W6  1  0.50000000  0.00000000  0.00000000  1
  W  W7  1  0.00000000  0.00000000  0.00000000  1
  O  O0  1  0.41199300  0.80815300  0.78861500  1
  O  O1  1  0.87662200  0.39616100  0.08800700  1
  O  O2  1  0.10383900  0.98046100  0.69184700  1
  O  O3  1  0.51953900  0.62337800  0.71138500  1
  O  O4  1  0.69184700  0.08800700  0.71138500  1
  O  O5  1  0.62337800  0.71138500  0.51953900  1
  O  O6  1  0.62337800  0.41199300  0.10383900  1
  O  O7  1  0.71138500  0.51953900  0.62337800  1
  O  O8  1  0.80815300  0.51953900  0.39616100  1
  O  O9  1  0.98046100  0.78861500  0.87662200  1
  O  O10  1  0.78861500  0.87662200  0.98046100  1
  O  O11  1  0.71138500  0.69184700  0.08800700  1
  O  O12  1  0.41199300  0.10383900  0.62337800  1
  O  O13  1  0.39616100  0.80815300  0.51953900  1
  O  O14  1  0.08800700  0.71138500  0.69184700  1
  O  O15  1  0.10383900  0.62337800  0.41199300  1
  O  O16  1  0.51953900  0.39616100  0.80815300  1
  O  O17  1  0.08800700  0.87662200  0.39616100  1
  O  O18  1  0.98046100  0.69184700  0.10383900  1
  O  O19  1  0.19184700  0.48046100  0.60383900  1
  O  O20  1  0.69184700  0.10383900  0.98046100  1
  O  O21  1  0.78861500  0.41199300  0.80815300  1
  O  O22  1  0.39616100  0.08800700  0.87662200  1
  O  O23  1  0.87662200  0.98046100  0.78861500  1
  O  O24  1  0.58800700  0.19184700  0.21138500  1
  O  O25  1  0.12337800  0.60383900  0.91199300  1
  O  O26  1  0.89616100  0.01953900  0.30815300  1
  O  O27  1  0.48046100  0.37662200  0.28861500  1
  O  O28  1  0.30815300  0.91199300  0.28861500  1
  O  O29  1  0.37662200  0.28861500  0.48046100  1
  O  O30  1  0.37662200  0.58800700  0.89616100  1
  O  O31  1  0.28861500  0.48046100  0.37662200  1
  O  O32  1  0.12337800  0.01953900  0.21138500  1
  O  O33  1  0.60383900  0.91199300  0.12337800  1
  O  O34  1  0.21138500  0.58800700  0.19184700  1
  O  O35  1  0.19184700  0.21138500  0.58800700  1
  O  O36  1  0.30815300  0.89616100  0.01953900  1
  O  O37  1  0.01953900  0.30815300  0.89616100  1
  O  O38  1  0.91199300  0.12337800  0.60383900  1
  O  O39  1  0.48046100  0.60383900  0.19184700  1
  O  O40  1  0.89616100  0.37662200  0.58800700  1
  O  O41  1  0.91199300  0.28861500  0.30815300  1
  O  O42  1  0.60383900  0.19184700  0.48046100  1
  O  O43  1  0.58800700  0.89616100  0.37662200  1
  O  O44  1  0.28861500  0.30815300  0.91199300  1
  O  O45  1  0.21138500  0.12337800  0.01953900  1
  O  O46  1  0.01953900  0.21138500  0.12337800  1
  O  O47  1  0.80815300  0.78861500  0.41199300  1
loop_
_geom_bond_atom_site_label_1
_geom_bond_atom_site_label_2
_geom_bond_distance
_geom_bond_site_symmetry_2
Ca0 O22 2.448761 1_565
Ca0 O15 2.448761 1_555
Ca0 O13 2.448765 1_555
Ca0 O2 2.448765 1_555
Ca0 O12 2.577146 1_565
Ca0 O17 2.577146 1_555
Ca0 O14 2.577154 1_555
Ca0 O0 2.577154 1_555
Ca1 O10 2.448761 1_555
Ca1 O7 2.448761 1_555
Ca1 O11 2.448762 1_556
Ca1 O21 2.448762 1_555
Ca1 O16 2.577142 1_555
Ca1 O18 2.577142 1_556
Ca1 O9 2.577146 1_555
Ca1 O3 2.577146 1_555
Ca2 O3 2.448761 1_555
Ca2 O23 2.448761 1_555
Ca2 O4 2.448762 1_565
Ca2 O0 2.448762 1_555
Ca2 O13 2.577142 1_555
Ca2 O20 2.577142 1_565
Ca2 O5 2.577146 1_555
Ca2 O10 2.577146 1_555
Ca3 O17 2.448761 1_655
Ca3 O6 2.448761 1_555
Ca3 O18 2.448765 1_555
Ca3 O8 2.448765 1_555
Ca3 O15 2.577146 1_655
Ca3 O1 2.577146 1_555
Ca3 O11 2.577154 1_555
Ca3 O47 2.577154 1_555
Ca4 O12 2.448761 1_555
Ca4 O1 2.448761 1_556
Ca4 O16 2.448765 1_555
Ca4 O20 2.448765 1_555
Ca4 O6 2.577146 1_556
Ca4 O22 2.577146 1_555
Ca4 O4 2.577154 1_555
Ca4 O21 2.577154 1_555
Ca5 O9 2.448761 1_555
Ca5 O5 2.448761 1_555
Ca5 O14 2.448762 1_655
Ca5 O47 2.448762 1_555
Ca5 O2 2.577142 1_655
Ca5 O8 2.577142 1_555
Ca5 O7 2.577146 1_555
Ca5 O23 2.577146 1_555
Ca6 O40 2.448761 1_555
Ca6 O33 2.448761 1_545
Ca6 O26 2.448765 1_555
Ca6 O42 2.448765 1_555
Ca6 O38 2.577146 1_555
Ca6 O43 2.577146 1_545
Ca6 O41 2.577154 1_555
Ca6 O24 2.577154 1_555
Ca7 O31 2.448761 1_555
Ca7 O45 2.448761 1_555
Ca7 O44 2.448762 1_554
Ca7 O34 2.448762 1_555
Ca7 O37 2.577142 1_554
Ca7 O39 2.577142 1_555
Ca7 O27 2.577146 1_555
Ca7 O46 2.577146 1_555
Ca8 O32 2.448761 1_555
Ca8 O27 2.448761 1_555
Ca8 O24 2.448762 1_555
Ca8 O28 2.448762 1_545
Ca8 O36 2.577142 1_545
Ca8 O42 2.577142 1_555
Ca8 O29 2.577146 1_555
Ca8 O45 2.577146 1_555
Ca9 O30 2.448761 1_555
Ca9 O38 2.448761 1_455
Ca9 O37 2.448765 1_555
Ca9 O19 2.448765 1_555
Ca9 O40 2.577146 1_455
Ca9 O25 2.577146 1_555
Ca9 O44 2.577154 1_555
Ca9 O35 2.577154 1_555
Ca10 O43 2.448761 1_555
Ca10 O25 2.448761 1_554
Ca10 O39 2.448765 1_555
Ca10 O36 2.448765 1_555
Ca10 O33 2.577146 1_555
Ca10 O30 2.577146 1_554
Ca10 O34 2.577154 1_555
Ca10 O28 2.577154 1_555
Ca11 O29 2.448761 1_555
Ca11 O46 2.448761 1_555
Ca11 O35 2.448762 1_555
Ca11 O41 2.448762 1_455
Ca11 O26 2.577142 1_455
Ca11 O19 2.577142 1_555
Ca11 O32 2.577146 1_555
Ca11 O31 2.577146 1_555
Ge0 O14 1.790507 1_555
Ge0 O36 1.790512 1_556
Ge0 O9 1.790518 1_455
Ge0 O25 1.790518 1_555
Ge1 O41 1.790507 1_555
Ge1 O20 1.790512 1_554
Ge1 O1 1.790518 1_555
Ge1 O46 1.790518 1_655
Ge2 O24 1.790507 1_555
Ge2 O8 1.790512 1_555
Ge2 O27 1.790518 1_555
Ge2 O6 1.790518 1_555
Ge3 O11 1.790507 1_555
Ge3 O26 1.790512 1_565
Ge3 O10 1.790518 1_554
Ge3 O33 1.790518 1_555
Ge4 O4 1.790507 1_555
Ge4 O37 1.790512 1_655
Ge4 O23 1.790518 1_545
Ge4 O38 1.790518 1_555
Ge5 O34 1.790507 1_555
Ge5 O13 1.790512 1_555
Ge5 O31 1.790518 1_555
Ge5 O15 1.790518 1_555
Ge6 O21 1.790507 1_555
Ge6 O42 1.790512 1_555
Ge6 O7 1.790518 1_555
Ge6 O40 1.790518 1_555
Ge7 O44 1.790507 1_555
Ge7 O2 1.790512 1_545
Ge7 O22 1.790518 1_555
Ge7 O45 1.790518 1_556
Ge8 O28 1.790507 1_555
Ge8 O18 1.790512 1_455
Ge8 O17 1.790518 1_555
Ge8 O32 1.790518 1_565
Ge9 O0 1.790507 1_555
Ge9 O19 1.790512 1_555
Ge9 O3 1.790518 1_555
Ge9 O30 1.790518 1_555
Ge10 O47 1.790507 1_555
Ge10 O39 1.790512 1_555
Ge10 O5 1.790518 1_555
Ge10 O43 1.790518 1_555
Ge11 O35 1.790507 1_555
Ge11 O16 1.790512 1_555
Ge11 O29 1.790518 1_555
Ge11 O12 1.790518 1_555
O0 W6 2.170768 1_566
O1 W5 2.170763 1_655
O2 W4 2.170772 1_565
O3 W0 2.170763 1_555
O4 W1 2.170768 1_555
O5 W0 2.170763 1_555
O6 W3 2.170763 1_555
O7 W0 2.170763 1_555
O8 W2 2.170772 1_655
O9 W7 2.170763 1_666
O10 W7 2.170763 1_666
O11 W3 2.170768 1_555
O12 W1 2.170763 1_555
O13 W1 2.170772 1_565
O14 W2 2.170768 1_555
O15 W2 2.170763 1_555
O16 W3 2.170772 1_556
O17 W4 2.170763 1_565
O18 W5 2.170772 1_655
O19 W2 2.170772 1_555
O20 W6 2.170772 1_556
O21 W5 2.170768 1_656
O22 W6 2.170763 1_556
O23 W7 2.170763 1_666
O24 W6 2.170768 1_555
O25 W5 2.170763 1_556
O26 W4 2.170772 1_655
O27 W0 2.170763 1_555
O28 W1 2.170768 1_565
O29 W0 2.170763 1_555
O30 W3 2.170763 1_556
O31 W0 2.170763 1_555
O32 W7 2.170763 1_555
O33 W6 2.170763 1_565
O34 W5 2.170768 1_555
O35 W4 2.170768 1_555
O36 W6 2.170772 1_565
O37 W5 2.170772 1_556
O38 W4 2.170763 1_655
O39 W3 2.170772 1_555
O40 W2 2.170763 1_655
O41 W2 2.170768 1_655
O42 W1 2.170772 1_555
O43 W1 2.170763 1_565
O44 W3 2.170768 1_556
O45 W7 2.170763 1_555
O46 W7 2.170763 1_555
O47 W4 2.170768 1_665
