# generated using pymatgen
data_Na3Mn2(GeO4)3
_symmetry_space_group_name_H-M   'P 1'
_cell_length_a   10.62692797
_cell_length_b   10.62243543
_cell_length_c   10.62496609
_cell_angle_alpha   109.46131482
_cell_angle_beta   109.47824686
_cell_angle_gamma   109.46794854
_symmetry_Int_Tables_number   1
_chemical_formula_structural   Na3Mn2(GeO4)3
_chemical_formula_sum   'Na12 Mn8 Ge12 O48'
_cell_volume   923.35872841
_cell_formula_units_Z   4
loop_
 _symmetry_equiv_pos_site_id
 _symmetry_equiv_pos_as_xyz
  1  'x, y, z'
loop_
 _atom_site_type_symbol
 _atom_site_label
 _atom_site_symmetry_multiplicity
 _atom_site_fract_x
 _atom_site_fract_y
 _atom_site_fract_z
 _atom_site_occupancy
  Na  Na0  1  0.62502900  0.25003600  0.87490100  1
  Na  Na1  1  0.87521700  0.75043200  0.62504100  1
  Na  Na2  1  0.74996700  0.62500700  0.87507300  1
  Na  Na3  1  0.24976400  0.87519100  0.62476200  1
  Na  Na4  1  0.87499600  0.62537200  0.25013400  1
  Na  Na5  1  0.62514900  0.87508400  0.75012500  1
  Na  Na6  1  0.37497100  0.74996400  0.12509800  1
  Na  Na7  1  0.12478300  0.24956800  0.37495800  1
  Na  Na8  1  0.25003300  0.37499300  0.12492700  1
  Na  Na9  1  0.75023600  0.12481000  0.37523800  1
  Na  Na10  1  0.12500400  0.37462800  0.74986600  1
  Na  Na11  1  0.37485000  0.12491600  0.24987400  1
  Mn  Mn0  1  0.50000100  0.50000000  0.49999900  1
  Mn  Mn1  1  0.50000200  0.50000200  0.00000000  1
  Mn  Mn2  1  0.49999900  0.00000000  0.50000100  1
  Mn  Mn3  1  0.00000000  0.49999900  0.49999800  1
  Mn  Mn4  1  0.50000100  0.00000100  0.00000100  1
  Mn  Mn5  1  0.00000000  0.00000100  0.50000100  1
  Mn  Mn6  1  0.00000000  0.50000100  0.00000000  1
  Mn  Mn7  1  0.00000100  0.99999900  0.99999900  1
  Ge  Ge0  1  0.87493300  0.12483800  0.74977000  1
  Ge  Ge1  1  0.12506400  0.87515700  0.25022900  1
  Ge  Ge2  1  0.25007400  0.62499000  0.37500300  1
  Ge  Ge3  1  0.12499300  0.74998100  0.87504800  1
  Ge  Ge4  1  0.75019400  0.87508000  0.12515800  1
  Ge  Ge5  1  0.37482500  0.24987700  0.62501300  1
  Ge  Ge6  1  0.62517800  0.75012400  0.37499000  1
  Ge  Ge7  1  0.87500400  0.25002000  0.12495400  1
  Ge  Ge8  1  0.24980700  0.12491800  0.87484200  1
  Ge  Ge9  1  0.74992500  0.37501100  0.62499700  1
  Ge  Ge10  1  0.37494600  0.62499700  0.75003000  1
  Ge  Ge11  1  0.62505200  0.37500100  0.24997200  1
  O  O0  1  0.80538400  0.41790100  0.81869000  1
  O  O1  1  0.08108400  0.88666000  0.40025200  1
  O  O2  1  0.68131200  0.09918700  0.98669300  1
  O  O3  1  0.69474100  0.51354300  0.61257900  1
  O  O4  1  0.69446200  0.68113600  0.08152800  1
  O  O5  1  0.51326600  0.61246400  0.69462000  1
  O  O6  1  0.09933600  0.61265200  0.41804300  1
  O  O7  1  0.61204800  0.69461700  0.51322800  1
  O  O8  1  0.40083200  0.81874000  0.51353600  1
  O  O9  1  0.88704200  0.98663300  0.80549000  1
  O  O10  1  0.98647100  0.80521400  0.88724600  1
  O  O11  1  0.08198700  0.69460900  0.68127100  1
  O  O12  1  0.61275200  0.41795200  0.09919200  1
  O  O13  1  0.51321800  0.40088800  0.81871700  1
  O  O14  1  0.68129300  0.08215500  0.69449300  1
  O  O15  1  0.41846600  0.09958700  0.61295800  1
  O  O16  1  0.81875100  0.51335200  0.40068200  1
  O  O17  1  0.40114600  0.08255600  0.88795300  1
  O  O18  1  0.09979000  0.98643400  0.68088300  1
  O  O19  1  0.59916800  0.18125800  0.48646200  1
  O  O20  1  0.98685100  0.68140300  0.09891100  1
  O  O21  1  0.81911200  0.80556900  0.41892400  1
  O  O22  1  0.88742200  0.40097300  0.08219800  1
  O  O23  1  0.80552100  0.88765300  0.98676900  1
  O  O24  1  0.19461600  0.58209800  0.18130800  1
  O  O25  1  0.91891400  0.11333900  0.59974900  1
  O  O26  1  0.31869000  0.90081400  0.01330900  1
  O  O27  1  0.30525900  0.48645700  0.38742100  1
  O  O28  1  0.30554100  0.31886700  0.91847500  1
  O  O29  1  0.48673300  0.38753600  0.30538000  1
  O  O30  1  0.90066400  0.38734600  0.58195400  1
  O  O31  1  0.38795200  0.30538600  0.48677300  1
  O  O32  1  0.19447800  0.11234800  0.01323000  1
  O  O33  1  0.11257700  0.59903000  0.91780200  1
  O  O34  1  0.18088900  0.19443200  0.58107700  1
  O  O35  1  0.58222700  0.18122600  0.19481000  1
  O  O36  1  0.01315000  0.31859700  0.90109000  1
  O  O37  1  0.90021200  0.01356900  0.31911800  1
  O  O38  1  0.59885500  0.91744500  0.11204700  1
  O  O39  1  0.18124700  0.48664700  0.59931700  1
  O  O40  1  0.58153300  0.90041400  0.38704200  1
  O  O41  1  0.31870700  0.91784400  0.30550700  1
  O  O42  1  0.48678200  0.59911200  0.18128400  1
  O  O43  1  0.38724700  0.58204700  0.90080800  1
  O  O44  1  0.91801200  0.30539000  0.31872600  1
  O  O45  1  0.01353100  0.19478600  0.11275400  1
  O  O46  1  0.11295700  0.01336500  0.19450800  1
  O  O47  1  0.41777300  0.81877400  0.80519000  1
loop_
_geom_bond_atom_site_label_1
_geom_bond_atom_site_label_2
_geom_bond_distance
_geom_bond_site_symmetry_2
Na0 O15 2.396254 1_555
Na0 O22 2.401705 1_556
Na0 O13 2.401962 1_555
Na0 O2 2.401979 1_555
Na0 O0 2.530747 1_555
Na0 O12 2.531343 1_556
Na0 O17 2.531377 1_555
Na0 O14 2.531644 1_555
Na1 O21 2.389815 1_555
Na1 O10 2.400486 1_555
Na1 O11 2.401228 1_655
Na1 O7 2.407064 1_555
Na1 O18 2.531565 1_655
Na1 O9 2.531931 1_555
Na1 O3 2.533693 1_555
Na1 O16 2.534423 1_555
Na2 O4 2.396039 1_556
Na2 O0 2.401301 1_555
Na2 O23 2.401942 1_555
Na2 O3 2.402006 1_555
Na2 O20 2.530782 1_556
Na2 O13 2.531615 1_555
Na2 O10 2.531628 1_555
Na2 O5 2.532024 1_555
Na3 O18 2.389891 1_555
Na3 O6 2.400481 1_555
Na3 O8 2.401698 1_555
Na3 O17 2.406913 1_565
Na3 O1 2.530977 1_555
Na3 O15 2.532237 1_565
Na3 O47 2.533385 1_555
Na3 O11 2.533896 1_555
Na4 O1 2.390140 1_655
Na4 O16 2.400753 1_555
Na4 O12 2.401051 1_555
Na4 O20 2.405859 1_555
Na4 O4 2.532462 1_555
Na4 O21 2.532473 1_555
Na4 O22 2.532968 1_555
Na4 O6 2.534476 1_655
Na5 O9 2.396117 1_555
Na5 O5 2.401863 1_555
Na5 O14 2.402159 1_565
Na5 O47 2.402309 1_555
Na5 O7 2.530394 1_555
Na5 O23 2.530900 1_555
Na5 O2 2.531078 1_565
Na5 O8 2.531780 1_555
Na6 O40 2.396257 1_555
Na6 O33 2.401709 1_554
Na6 O26 2.401962 1_555
Na6 O42 2.401969 1_555
Na6 O24 2.530745 1_555
Na6 O43 2.531333 1_554
Na6 O38 2.531382 1_555
Na6 O41 2.531645 1_555
Na7 O34 2.389828 1_555
Na7 O45 2.400476 1_555
Na7 O44 2.401231 1_455
Na7 O31 2.407055 1_555
Na7 O37 2.531543 1_455
Na7 O46 2.531945 1_555
Na7 O27 2.533687 1_555
Na7 O39 2.534426 1_555
Na8 O28 2.396029 1_554
Na8 O24 2.401290 1_555
Na8 O32 2.401929 1_555
Na8 O27 2.402006 1_555
Na8 O36 2.530770 1_554
Na8 O42 2.531610 1_555
Na8 O45 2.531613 1_555
Na8 O29 2.532016 1_555
Na9 O37 2.389894 1_555
Na9 O30 2.400452 1_555
Na9 O19 2.401674 1_555
Na9 O38 2.406914 1_545
Na9 O25 2.530988 1_555
Na9 O40 2.532241 1_545
Na9 O35 2.533377 1_555
Na9 O44 2.533901 1_555
Na10 O25 2.390154 1_455
Na10 O39 2.400750 1_555
Na10 O43 2.401041 1_555
Na10 O36 2.405862 1_555
Na10 O34 2.532468 1_555
Na10 O28 2.532475 1_555
Na10 O33 2.532997 1_555
Na10 O30 2.534476 1_455
Na11 O46 2.396114 1_555
Na11 O29 2.401859 1_555
Na11 O41 2.402175 1_545
Na11 O35 2.402312 1_555
Na11 O31 2.530416 1_555
Na11 O32 2.530906 1_555
Na11 O26 2.531067 1_545
Na11 O19 2.531788 1_555
Mn0 O31 1.940431 1_555
Mn0 O7 1.940437 1_555
Mn0 O29 1.941687 1_555
Mn0 O5 1.941720 1_555
Mn0 O3 1.941726 1_555
Mn0 O27 1.941739 1_555
Mn1 O13 1.940578 1_554
Mn1 O42 1.940602 1_555
Mn1 O4 1.941186 1_555
Mn1 O28 1.941205 1_554
Mn1 O43 1.942159 1_554
Mn1 O12 1.942172 1_555
Mn2 O41 1.940672 1_545
Mn2 O14 1.940672 1_555
Mn2 O15 1.941298 1_555
Mn2 O40 1.941314 1_545
Mn2 O8 1.942056 1_545
Mn2 O19 1.942068 1_555
Mn3 O44 1.941479 1_455
Mn3 O11 1.941493 1_555
Mn3 O39 1.941616 1_555
Mn3 O6 1.941627 1_555
Mn3 O16 1.941633 1_455
Mn3 O30 1.941636 1_455
Mn4 O38 1.940502 1_545
Mn4 O17 1.940511 1_554
Mn4 O2 1.941738 1_554
Mn4 O26 1.941741 1_545
Mn4 O35 1.941936 1_555
Mn4 O47 1.941953 1_544
Mn5 O25 1.940489 1_455
Mn5 O1 1.940495 1_545
Mn5 O18 1.940659 1_545
Mn5 O37 1.940669 1_455
Mn5 O21 1.940790 1_445
Mn5 O34 1.940791 1_555
Mn6 O20 1.940377 1_455
Mn6 O36 1.940398 1_554
Mn6 O24 1.941703 1_555
Mn6 O0 1.941706 1_454
Mn6 O33 1.941820 1_554
Mn6 O22 1.941821 1_455
Mn7 O32 1.940532 1_566
Mn7 O23 1.940556 1_455
Mn7 O46 1.941282 1_566
Mn7 O9 1.941290 1_455
Mn7 O10 1.942198 1_455
Mn7 O45 1.942220 1_566
Ge0 O9 1.782287 1_545
Ge0 O25 1.783046 1_555
Ge0 O14 1.783173 1_555
Ge0 O36 1.784249 1_655
Ge1 O46 1.782318 1_565
Ge1 O1 1.783054 1_555
Ge1 O41 1.783192 1_555
Ge1 O20 1.784208 1_455
Ge2 O24 1.782594 1_555
Ge2 O27 1.783205 1_555
Ge2 O8 1.783244 1_555
Ge2 O6 1.783494 1_555
Ge3 O26 1.782940 1_556
Ge3 O33 1.783024 1_555
Ge3 O11 1.783300 1_555
Ge3 O10 1.783325 1_455
Ge4 O4 1.782455 1_555
Ge4 O37 1.782764 1_565
Ge4 O23 1.783424 1_554
Ge4 O38 1.784163 1_555
Ge5 O15 1.782414 1_555
Ge5 O34 1.782804 1_555
Ge5 O13 1.783508 1_555
Ge5 O31 1.784210 1_555
Ge6 O40 1.782443 1_555
Ge6 O21 1.782788 1_555
Ge6 O42 1.783527 1_555
Ge6 O7 1.784185 1_555
Ge7 O2 1.782909 1_554
Ge7 O22 1.783054 1_555
Ge7 O44 1.783246 1_555
Ge7 O45 1.783388 1_655
Ge8 O28 1.782496 1_555
Ge8 O18 1.782748 1_545
Ge8 O32 1.783418 1_556
Ge8 O17 1.784144 1_555
Ge9 O0 1.782577 1_555
Ge9 O3 1.783188 1_555
Ge9 O19 1.783263 1_555
Ge9 O30 1.783527 1_555
Ge10 O39 1.782796 1_555
Ge10 O43 1.782917 1_555
Ge10 O5 1.783344 1_555
Ge10 O47 1.783644 1_555
Ge11 O16 1.782790 1_555
Ge11 O12 1.782945 1_555
Ge11 O29 1.783327 1_555
Ge11 O35 1.783626 1_555
