# generated using pymatgen
data_K3RuF6
_symmetry_space_group_name_H-M   'P 1'
_cell_length_a   6.75267998
_cell_length_b   8.13862578
_cell_length_c   6.68218769
_cell_angle_alpha   127.27198704
_cell_angle_beta   78.16554360
_cell_angle_gamma   109.70302347
_symmetry_Int_Tables_number   1
_chemical_formula_structural   K3RuF6
_chemical_formula_sum   'K3 Ru1 F6'
_cell_volume   275.12592021
_cell_formula_units_Z   1
loop_
 _symmetry_equiv_pos_site_id
 _symmetry_equiv_pos_as_xyz
  1  'x, y, z'
loop_
 _atom_site_type_symbol
 _atom_site_label
 _atom_site_symmetry_multiplicity
 _atom_site_fract_x
 _atom_site_fract_y
 _atom_site_fract_z
 _atom_site_occupancy
  K  K0  1  0.50000000  0.00000000  0.00000000  1
  K  K1  1  0.00000000  0.50000000  0.50000000  1
  K  K2  1  0.00000000  0.00000000  0.50000000  1
  Ru  Ru0  1  0.00000000  0.00000000  0.00000000  1
  F  F0  1  0.78310200  0.06907200  0.28405400  1
  F  F1  1  0.21689800  0.93092800  0.71594600  1
  F  F2  1  0.78139600  0.78284100  0.72061900  1
  F  F3  1  0.21860400  0.21715900  0.27938100  1
  F  F4  1  0.06237900  0.77276000  0.00296000  1
  F  F5  1  0.93762100  0.22724000  0.99704000  1
loop_
_geom_bond_atom_site_label_1
_geom_bond_atom_site_label_2
_geom_bond_distance
_geom_bond_site_symmetry_2
F0 Ru0 2.046094 1_655
F0 K2 2.635901 1_655
F0 K0 2.654190 1_555
F0 K1 2.793058 1_655
F1 Ru0 2.046094 1_566
F1 K2 2.635901 1_565
F1 K0 2.654190 1_566
F1 K1 2.793058 1_555
F2 Ru0 2.040283 1_666
F2 K1 2.634326 1_655
F2 K0 2.651915 1_566
F2 K2 2.824886 1_665
F3 Ru0 2.040283 1_555
F3 K1 2.634326 1_555
F3 K0 2.651915 1_555
F3 K2 2.824886 1_555
F4 Ru0 2.042350 1_565
F4 K2 2.672185 1_565
F4 K1 2.704533 1_554
F4 K0 2.913524 1_565
F5 Ru0 2.042350 1_656
F5 K2 2.672185 1_655
F5 K1 2.704533 1_656
F5 K0 2.913524 1_556
