# generated using pymatgen
data_Li9Mn7O16
_symmetry_space_group_name_H-M   'P 1'
_cell_length_a   6.00496079
_cell_length_b   6.00496079
_cell_length_c   9.84058323
_cell_angle_alpha   84.43351131
_cell_angle_beta   84.43351131
_cell_angle_gamma   57.22097873
_symmetry_Int_Tables_number   1
_chemical_formula_structural   Li9Mn7O16
_chemical_formula_sum   'Li9 Mn7 O16'
_cell_volume   296.51617179
_cell_formula_units_Z   1
loop_
 _symmetry_equiv_pos_site_id
 _symmetry_equiv_pos_as_xyz
  1  'x, y, z'
loop_
 _atom_site_type_symbol
 _atom_site_label
 _atom_site_symmetry_multiplicity
 _atom_site_fract_x
 _atom_site_fract_y
 _atom_site_fract_z
 _atom_site_occupancy
  Li  Li0  1  0.50000000  0.00000000  0.00000000  1
  Li  Li1  1  0.00000000  0.50000000  0.00000000  1
  Li  Li2  1  0.12569600  0.12569600  0.24516400  1
  Li  Li3  1  0.62357800  0.62357800  0.24067600  1
  Li  Li4  1  0.75003800  0.24996200  0.50000000  1
  Li  Li5  1  0.24996200  0.75003800  0.50000000  1
  Li  Li6  1  0.37642200  0.37642200  0.75932400  1
  Li  Li7  1  0.87430400  0.87430400  0.75483600  1
  Li  Li8  1  0.50000000  0.50000000  0.00000000  1
  Mn  Mn0  1  0.00000000  0.00000000  0.00000000  1
  Mn  Mn1  1  0.62903400  0.13243100  0.24391400  1
  Mn  Mn2  1  0.13243100  0.62903400  0.24391400  1
  Mn  Mn3  1  0.25001500  0.25001500  0.50024000  1
  Mn  Mn4  1  0.74998500  0.74998500  0.49976000  1
  Mn  Mn5  1  0.86756900  0.37096600  0.75608600  1
  Mn  Mn6  1  0.37096600  0.86756900  0.75608600  1
  O  O0  1  0.71111500  0.18846500  0.87526600  1
  O  O1  1  0.18846500  0.71111500  0.87526600  1
  O  O2  1  0.31567900  0.31567900  0.13946800  1
  O  O3  1  0.81218600  0.81218600  0.13569200  1
  O  O4  1  0.94708500  0.44677000  0.38348600  1
  O  O5  1  0.44677000  0.94708500  0.38348600  1
  O  O6  1  0.56374100  0.56374100  0.63713900  1
  O  O7  1  0.06723500  0.06723500  0.63752600  1
  O  O8  1  0.28888500  0.81153500  0.12473400  1
  O  O9  1  0.81153500  0.28888500  0.12473400  1
  O  O10  1  0.93276500  0.93276500  0.36247400  1
  O  O11  1  0.43625900  0.43625900  0.36286100  1
  O  O12  1  0.55323000  0.05291500  0.61651400  1
  O  O13  1  0.05291500  0.55323000  0.61651400  1
  O  O14  1  0.18781400  0.18781400  0.86430800  1
  O  O15  1  0.68432100  0.68432100  0.86053200  1
loop_
_geom_bond_atom_site_label_1
_geom_bond_atom_site_label_2
_geom_bond_distance
_geom_bond_site_symmetry_2
Li0 O3 2.115056 1_545
Li0 O14 2.115056 1_554
Li0 O2 2.154130 1_555
Li0 O15 2.154130 1_544
Li0 O0 2.318783 1_554
Li0 O8 2.318783 1_545
Li1 O3 2.115056 1_455
Li1 O14 2.115056 1_554
Li1 O2 2.154130 1_555
Li1 O15 2.154130 1_454
Li1 O1 2.318783 1_554
Li1 O9 2.318783 1_455
Li2 O8 2.032339 1_545
Li2 O9 2.032339 1_455
Li2 O2 2.152613 1_555
Li2 O4 2.169617 1_455
Li2 O5 2.169617 1_545
Li2 O10 2.225200 1_445
Li3 O8 2.086574 1_555
Li3 O9 2.086574 1_555
Li3 O3 2.137232 1_555
Li3 O11 2.195795 1_555
Li3 O4 2.209736 1_555
Li3 O5 2.209736 1_555
Li4 O6 2.130972 1_555
Li4 O11 2.130972 1_555
Li4 O7 2.147680 1_655
Li4 O10 2.147680 1_545
Li4 O12 2.258216 1_555
Li4 O4 2.258216 1_555
Li5 O6 2.130972 1_555
Li5 O11 2.130972 1_555
Li5 O7 2.147680 1_565
Li5 O10 2.147680 1_455
Li5 O5 2.258216 1_555
Li5 O13 2.258216 1_555
Li6 O0 2.086574 1_555
Li6 O1 2.086574 1_555
Li6 O14 2.137232 1_555
Li6 O6 2.195795 1_555
Li6 O12 2.209736 1_555
Li6 O13 2.209736 1_555
Li7 O0 2.032339 1_565
Li7 O1 2.032339 1_655
Li7 O15 2.152613 1_555
Li7 O12 2.169617 1_565
Li7 O13 2.169617 1_655
Li7 O7 2.225200 1_665
Li8 O0 2.046736 1_554
Li8 O1 2.046736 1_554
Li8 O9 2.046736 1_555
Li8 O8 2.046736 1_555
Li8 O2 2.251872 1_555
Li8 O15 2.251872 1_554
Mn0 O8 1.953091 1_545
Mn0 O9 1.953091 1_455
Mn0 O1 1.953091 1_544
Mn0 O0 1.953091 1_454
Mn0 O14 2.262720 1_554
Mn0 O3 2.262720 1_445
Mn1 O2 1.929182 1_555
Mn1 O10 1.974561 1_545
Mn1 O11 1.975698 1_555
Mn1 O3 1.980368 1_545
Mn1 O9 2.027535 1_555
Mn1 O5 2.248091 1_545
Mn2 O2 1.929182 1_555
Mn2 O10 1.974561 1_455
Mn2 O11 1.975698 1_555
Mn2 O3 1.980368 1_455
Mn2 O8 2.027535 1_555
Mn2 O4 2.248091 1_455
Mn3 O13 1.957883 1_555
Mn3 O12 1.957883 1_555
Mn3 O5 1.959578 1_545
Mn3 O4 1.959578 1_455
Mn3 O7 2.227922 1_555
Mn3 O11 2.257634 1_555
Mn4 O4 1.957883 1_555
Mn4 O5 1.957883 1_555
Mn4 O12 1.959578 1_565
Mn4 O13 1.959578 1_655
Mn4 O10 2.227922 1_555
Mn4 O6 2.257634 1_555
Mn5 O15 1.929182 1_555
Mn5 O7 1.974561 1_655
Mn5 O6 1.975698 1_555
Mn5 O14 1.980368 1_655
Mn5 O0 2.027535 1_555
Mn5 O13 2.248091 1_655
Mn6 O15 1.929182 1_555
Mn6 O7 1.974561 1_565
Mn6 O6 1.975698 1_555
Mn6 O14 1.980368 1_565
Mn6 O1 2.027535 1_555
Mn6 O12 2.248091 1_565
