# generated using pymatgen
data_La2Ni4Ge3P
_symmetry_space_group_name_H-M   'P 1'
_cell_length_a   4.15982600
_cell_length_b   4.15982600
_cell_length_c   9.81708600
_cell_angle_alpha   90.00000000
_cell_angle_beta   90.00000000
_cell_angle_gamma   90.00000000
_symmetry_Int_Tables_number   1
_chemical_formula_structural   La2Ni4Ge3P
_chemical_formula_sum   'La2 Ni4 Ge3 P1'
_cell_volume   169.87635178
_cell_formula_units_Z   1
loop_
 _symmetry_equiv_pos_site_id
 _symmetry_equiv_pos_as_xyz
  1  'x, y, z'
loop_
 _atom_site_type_symbol
 _atom_site_label
 _atom_site_symmetry_multiplicity
 _atom_site_fract_x
 _atom_site_fract_y
 _atom_site_fract_z
 _atom_site_occupancy
  La  La0  1  0.00000000  0.00000000  0.00554800  1
  La  La1  1  0.50000000  0.50000000  0.49739800  1
  Ni  Ni0  1  0.00000000  0.50000000  0.24186900  1
  Ni  Ni1  1  0.50000000  0.00000000  0.75240200  1
  Ni  Ni2  1  0.50000000  0.00000000  0.24186900  1
  Ni  Ni3  1  0.00000000  0.50000000  0.75240200  1
  Ge  Ge0  1  0.00000000  0.00000000  0.63311900  1
  Ge  Ge1  1  0.00000000  0.00000000  0.36746600  1
  Ge  Ge2  1  0.50000000  0.50000000  0.86814000  1
  P  P0  1  0.50000000  0.50000000  0.13978600  1
loop_
_geom_bond_atom_site_label_1
_geom_bond_atom_site_label_2
_geom_bond_distance
_geom_bond_site_symmetry_2
La0 Ni2 3.115824 1_455
La0 Ni0 3.115824 1_545
La0 Ni2 3.115824 1_555
La0 Ni0 3.115824 1_555
La0 P0 3.223157 1_445
La0 P0 3.223157 1_555
La0 P0 3.223157 1_455
La0 P0 3.223157 1_545
La0 Ni3 3.240685 1_554
La0 Ni1 3.240685 1_554
La0 Ni3 3.240685 1_544
La0 Ni1 3.240685 1_454
La1 Ni3 3.254694 1_655
La1 Ni1 3.254694 1_565
La1 Ni3 3.254694 1_555
La1 Ni1 3.254694 1_555
La1 Ni0 3.258660 1_655
La1 Ni2 3.258660 1_555
La1 Ni2 3.258660 1_565
La1 Ni0 3.258660 1_555
Ni0 P0 2.308757 1_555
Ni0 P0 2.308757 1_455
Ni2 P0 2.308757 1_555
Ni2 P0 2.308757 1_545
Ge0 Ni1 2.386903 1_555
Ge0 Ni3 2.386903 1_555
Ge0 Ni1 2.386903 1_455
Ge0 Ni3 2.386903 1_545
Ge0 Ge1 2.607938 1_555
Ge0 La1 3.229137 1_455
Ge0 La1 3.229137 1_445
Ge0 La1 3.229137 1_555
Ge0 La1 3.229137 1_545
Ge1 Ni2 2.417916 1_455
Ge1 Ni2 2.417916 1_555
Ge1 Ni0 2.417916 1_555
Ge1 Ni0 2.417916 1_545
Ge1 La1 3.206106 1_455
Ge1 La1 3.206106 1_555
Ge1 La1 3.206106 1_545
Ge1 La1 3.206106 1_445
Ge2 Ni1 2.370023 1_555
Ge2 Ni3 2.370023 1_655
Ge2 Ni1 2.370023 1_565
Ge2 Ni3 2.370023 1_555
Ge2 P0 2.666772 1_556
Ge2 La0 3.236006 1_556
Ge2 La0 3.236006 1_666
Ge2 La0 3.236006 1_566
Ge2 La0 3.236006 1_656
