# generated using pymatgen
data_MgP4O11
_symmetry_space_group_name_H-M   'P 1'
_cell_length_a   22.24429948
_cell_length_b   5.34089966
_cell_length_c   7.43459059
_cell_angle_alpha   69.18055516
_cell_angle_beta   90.00000000
_cell_angle_gamma   90.00000000
_symmetry_Int_Tables_number   1
_chemical_formula_structural   MgP4O11
_chemical_formula_sum   'Mg4 P16 O44'
_cell_volume   825.59076470
_cell_formula_units_Z   4
loop_
 _symmetry_equiv_pos_site_id
 _symmetry_equiv_pos_as_xyz
  1  'x, y, z'
loop_
 _atom_site_type_symbol
 _atom_site_label
 _atom_site_symmetry_multiplicity
 _atom_site_fract_x
 _atom_site_fract_y
 _atom_site_fract_z
 _atom_site_occupancy
  Mg  Mg0  1  0.61435941  0.00207900  0.63371915  1
  Mg  Mg1  1  0.11435941  0.99792100  0.86628085  1
  Mg  Mg2  1  0.38564059  0.99792100  0.36628085  1
  Mg  Mg3  1  0.88564059  0.00207900  0.13371915  1
  P  P0  1  0.07149407  0.69501240  0.30709033  1
  P  P1  1  0.57149407  0.30498760  0.19290967  1
  P  P2  1  0.92850593  0.30498760  0.69290967  1
  P  P3  1  0.42850593  0.69501240  0.80709033  1
  P  P4  1  0.19525243  0.39936798  0.02901787  1
  P  P5  1  0.69525243  0.60063202  0.47098213  1
  P  P6  1  0.80474757  0.60063202  0.97098213  1
  P  P7  1  0.30474757  0.39936798  0.52901787  1
  P  P8  1  0.96395430  0.39848275  0.29695447  1
  P  P9  1  0.46395430  0.60151725  0.20304553  1
  P  P10  1  0.03604570  0.60151725  0.70304553  1
  P  P11  1  0.53604570  0.39848275  0.79695447  1
  P  P12  1  0.32151492  0.32520242  0.94366649  1
  P  P13  1  0.82151492  0.67479758  0.55633351  1
  P  P14  1  0.67848508  0.67479758  0.05633351  1
  P  P15  1  0.17848508  0.32520242  0.44366649  1
  O  O0  1  0.33696024  0.65409087  0.47730651  1
  O  O1  1  0.83696024  0.34590913  0.02269349  1
  O  O2  1  0.66303976  0.34590913  0.52269349  1
  O  O3  1  0.16303976  0.65409087  0.97730651  1
  O  O4  1  0.54652748  0.21408543  0.69477038  1
  O  O5  1  0.04652748  0.78591457  0.80522962  1
  O  O6  1  0.45347252  0.78591457  0.30522962  1
  O  O7  1  0.95347252  0.21408543  0.19477038  1
  O  O8  1  0.56654117  0.65731158  0.75318024  1
  O  O9  1  0.06654117  0.34268842  0.74681976  1
  O  O10  1  0.43345883  0.34268842  0.24681976  1
  O  O11  1  0.93345883  0.65731158  0.25318024  1
  O  O12  1  0.31827657  0.19336771  0.44702074  1
  O  O13  1  0.81827657  0.80663229  0.05297926  1
  O  O14  1  0.68172343  0.80663229  0.55297926  1
  O  O15  1  0.18172343  0.19336771  0.94702074  1
  O  O16  1  0.30602321  0.25717994  0.76216689  1
  O  O17  1  0.95468661  0.22808681  0.52555516  1
  O  O18  1  0.54531339  0.22808681  0.02555516  1
  O  O19  1  0.04531339  0.77191319  0.47444484  1
  O  O20  1  0.46380462  0.44605053  0.79784518  1
  O  O21  1  0.96380462  0.55394947  0.70215482  1
  O  O22  1  0.53619538  0.55394947  0.20215482  1
  O  O23  1  0.03619538  0.44605053  0.29784518  1
  O  O24  1  0.19397679  0.25717994  0.26216689  1
  O  O25  1  0.69397679  0.74282006  0.23783311  1
  O  O26  1  0.80602321  0.74282006  0.73783311  1
  O  O27  1  0.26621089  0.46672413  0.99550581  1
  O  O28  1  0.42496236  0.92727296  0.63084973  1
  O  O29  1  0.92496236  0.07272704  0.86915027  1
  O  O30  1  0.57503764  0.07272704  0.36915027  1
  O  O31  1  0.07503764  0.92727296  0.13084973  1
  O  O32  1  0.36461756  0.57409585  0.87808675  1
  O  O33  1  0.86461756  0.42590415  0.62191325  1
  O  O34  1  0.63538244  0.42590415  0.12191325  1
  O  O35  1  0.13538244  0.57409585  0.37808675  1
  O  O36  1  0.34443542  0.08937333  0.09694758  1
  O  O37  1  0.84443542  0.91062667  0.40305242  1
  O  O38  1  0.65556458  0.91062667  0.90305242  1
  O  O39  1  0.15556458  0.08937333  0.59694758  1
  O  O40  1  0.23378911  0.46672413  0.49550581  1
  O  O41  1  0.73378911  0.53327587  0.00449419  1
  O  O42  1  0.76621089  0.53327587  0.50449419  1
  O  O43  1  0.45468661  0.77191319  0.97444484  1
loop_
_geom_bond_atom_site_label_1
_geom_bond_atom_site_label_2
_geom_bond_distance
_geom_bond_site_symmetry_2
Mg0 O4 2.032281 1_555
Mg0 O14 2.034891 1_545
Mg0 O8 2.036747 1_545
Mg0 O2 2.036824 1_555
Mg0 O30 2.061263 1_555
Mg0 O38 2.095946 1_545
Mg1 O5 2.032281 1_555
Mg1 O15 2.034891 1_565
Mg1 O9 2.036747 1_565
Mg1 O3 2.036824 1_555
Mg1 O31 2.061263 1_556
Mg1 O39 2.095946 1_565
Mg2 O6 2.032281 1_555
Mg2 O12 2.034891 1_565
Mg2 O10 2.036747 1_565
Mg2 O0 2.036824 1_555
Mg2 O28 2.061263 1_555
Mg2 O36 2.095946 1_565
Mg3 O7 2.032281 1_555
Mg3 O13 2.034891 1_545
Mg3 O11 2.036747 1_545
Mg3 O1 2.036824 1_555
Mg3 O29 2.061263 1_554
Mg3 O37 2.095946 1_545
O0 P7 1.462968 1_555
O1 P6 1.462968 1_554
O2 P5 1.462968 1_555
O3 P4 1.462968 1_556
O4 P11 1.460573 1_555
O5 P10 1.460573 1_555
O6 P9 1.460573 1_555
O7 P8 1.460573 1_555
O8 P11 1.468756 1_555
O9 P10 1.468756 1_555
O10 P9 1.468756 1_555
O11 P8 1.468756 1_555
O12 P7 1.466108 1_555
O13 P6 1.466108 1_554
O14 P5 1.466108 1_555
O15 P4 1.466108 1_556
O16 P12 1.555645 1_555
O16 P7 1.626763 1_555
O17 P2 1.555368 1_555
O17 P8 1.630867 1_555
O18 P1 1.555368 1_555
O18 P11 1.630867 1_554
O19 P0 1.555368 1_555
O19 P10 1.630867 1_555
O20 P3 1.566612 1_555
O20 P11 1.627292 1_555
O21 P2 1.566612 1_555
O21 P10 1.627292 1_655
O22 P1 1.566612 1_555
O22 P9 1.627292 1_555
O23 P0 1.566612 1_555
O23 P8 1.627292 1_455
O24 P15 1.555645 1_555
O24 P4 1.626763 1_555
O25 P14 1.555645 1_555
O25 P5 1.626763 1_555
O26 P13 1.555645 1_555
O26 P6 1.626763 1_555
O27 P12 1.562152 1_555
O27 P4 1.618391 1_556
O28 P3 1.451357 1_555
O29 P2 1.451357 1_555
O30 P1 1.451357 1_555
O31 P0 1.451357 1_555
O32 P12 1.569507 1_555
O32 P3 1.572587 1_555
O33 P13 1.569507 1_555
O33 P2 1.572587 1_555
O34 P14 1.569507 1_555
O34 P1 1.572587 1_555
O35 P15 1.569507 1_555
O35 P0 1.572587 1_555
O36 P12 1.457642 1_554
O37 P13 1.457642 1_555
O38 P14 1.457642 1_556
O39 P15 1.457642 1_555
O40 P15 1.562152 1_555
O40 P7 1.618391 1_555
O41 P14 1.562152 1_555
O41 P6 1.618391 1_554
O42 P13 1.562152 1_555
O42 P5 1.618391 1_555
O43 P3 1.555368 1_555
O43 P9 1.630867 1_556
