# generated using pymatgen
data_DyIn2Ni9
_symmetry_space_group_name_H-M   'P 1'
_cell_length_a   8.23417600
_cell_length_b   8.23417600
_cell_length_c   4.81278600
_cell_angle_alpha   90.00000000
_cell_angle_beta   90.00000000
_cell_angle_gamma   90.00000000
_symmetry_Int_Tables_number   1
_chemical_formula_structural   DyIn2Ni9
_chemical_formula_sum   'Dy2 In4 Ni18'
_cell_volume   326.31485307
_cell_formula_units_Z   2
loop_
 _symmetry_equiv_pos_site_id
 _symmetry_equiv_pos_as_xyz
  1  'x, y, z'
loop_
 _atom_site_type_symbol
 _atom_site_label
 _atom_site_symmetry_multiplicity
 _atom_site_fract_x
 _atom_site_fract_y
 _atom_site_fract_z
 _atom_site_occupancy
  Dy  Dy0  1  0.50000000  0.50000000  0.00000000  1
  Dy  Dy1  1  0.00000000  0.00000000  0.00000000  1
  In  In0  1  0.62587600  0.12587600  0.00000000  1
  In  In1  1  0.37412400  0.87412400  0.00000000  1
  In  In2  1  0.87412400  0.62587600  0.00000000  1
  In  In3  1  0.12587600  0.37412400  0.00000000  1
  Ni  Ni0  1  0.17662300  0.67662300  0.75211900  1
  Ni  Ni1  1  0.82337700  0.32337700  0.75211900  1
  Ni  Ni2  1  0.32337700  0.17662300  0.75211900  1
  Ni  Ni3  1  0.67662300  0.82337700  0.75211900  1
  Ni  Ni4  1  0.82337700  0.32337700  0.24788100  1
  Ni  Ni5  1  0.17662300  0.67662300  0.24788100  1
  Ni  Ni6  1  0.67662300  0.82337700  0.24788100  1
  Ni  Ni7  1  0.32337700  0.17662300  0.24788100  1
  Ni  Ni8  1  0.70537900  0.56439100  0.50000000  1
  Ni  Ni9  1  0.29462100  0.43560900  0.50000000  1
  Ni  Ni10  1  0.79462100  0.06439100  0.50000000  1
  Ni  Ni11  1  0.20537900  0.93560900  0.50000000  1
  Ni  Ni12  1  0.56439100  0.29462100  0.50000000  1
  Ni  Ni13  1  0.43560900  0.70537900  0.50000000  1
  Ni  Ni14  1  0.06439100  0.20537900  0.50000000  1
  Ni  Ni15  1  0.93560900  0.79462100  0.50000000  1
  Ni  Ni16  1  0.00000000  0.50000000  0.50000000  1
  Ni  Ni17  1  0.50000000  0.00000000  0.50000000  1
loop_
_geom_bond_atom_site_label_1
_geom_bond_atom_site_label_2
_geom_bond_distance
_geom_bond_site_symmetry_2
Dy0 Ni8 2.988604 1_554
Dy0 Ni8 2.988604 1_555
Dy0 Ni13 2.988604 1_554
Dy0 Ni13 2.988604 1_555
Dy0 Ni12 2.988604 1_554
Dy0 Ni12 2.988604 1_555
Dy0 Ni9 2.988604 1_554
Dy0 Ni9 2.988604 1_555
Dy0 In0 3.250295 1_555
Dy0 In2 3.250295 1_555
Dy0 In3 3.250295 1_555
Dy0 In1 3.250295 1_555
Dy0 Ni3 3.260148 1_554
Dy0 Ni6 3.260148 1_555
Dy0 Ni4 3.260148 1_555
Dy0 Ni1 3.260148 1_554
Dy0 Ni0 3.260148 1_554
Dy0 Ni5 3.260148 1_555
Dy0 Ni7 3.260148 1_555
Dy0 Ni2 3.260148 1_554
Dy1 Ni14 2.988604 1_555
Dy1 Ni14 2.988604 1_554
Dy1 Ni11 2.988604 1_544
Dy1 Ni11 2.988604 1_545
Dy1 Ni10 2.988604 1_455
Dy1 Ni10 2.988604 1_454
Dy1 Ni15 2.988604 1_445
Dy1 Ni15 2.988604 1_444
Dy1 In3 3.250295 1_555
Dy1 In1 3.250295 1_545
Dy1 In2 3.250295 1_445
Dy1 In0 3.250295 1_455
Dy1 Ni7 3.260148 1_555
Dy1 Ni2 3.260148 1_554
Dy1 Ni1 3.260148 1_454
Dy1 Ni4 3.260148 1_455
Dy1 Ni0 3.260148 1_544
Dy1 Ni5 3.260148 1_545
Dy1 Ni6 3.260148 1_445
Dy1 Ni3 3.260148 1_444
In0 Ni4 2.590883 1_555
In0 Ni1 2.590883 1_554
In0 Ni6 2.793221 1_545
In0 Ni3 2.793221 1_544
In0 Ni2 2.793221 1_554
In0 Ni7 2.793221 1_555
In0 Ni17 2.817682 1_555
In0 Ni17 2.817682 1_554
In0 Ni12 2.824480 1_554
In0 Ni10 2.824480 1_554
In0 Ni10 2.824480 1_555
In0 Ni12 2.824480 1_555
In0 In1 2.931623 1_545
In1 Ni5 2.590883 1_555
In1 Ni0 2.590883 1_554
In1 Ni2 2.793221 1_564
In1 Ni7 2.793221 1_565
In1 Ni3 2.793221 1_554
In1 Ni6 2.793221 1_555
In1 Ni17 2.817682 1_565
In1 Ni17 2.817682 1_564
In1 Ni11 2.824480 1_555
In1 Ni11 2.824480 1_554
In1 Ni13 2.824480 1_554
In1 Ni13 2.824480 1_555
In2 Ni6 2.590883 1_555
In2 Ni3 2.590883 1_554
In2 Ni5 2.793221 1_655
In2 Ni0 2.793221 1_654
In2 Ni1 2.793221 1_554
In2 Ni4 2.793221 1_555
In2 Ni16 2.817682 1_654
In2 Ni16 2.817682 1_655
In2 Ni15 2.824480 1_555
In2 Ni15 2.824480 1_554
In2 Ni8 2.824480 1_555
In2 Ni8 2.824480 1_554
In2 In3 2.931623 1_655
In3 Ni2 2.590883 1_554
In3 Ni7 2.590883 1_555
In3 Ni5 2.793221 1_555
In3 Ni0 2.793221 1_554
In3 Ni4 2.793221 1_455
In3 Ni1 2.793221 1_454
In3 Ni16 2.817682 1_555
In3 Ni16 2.817682 1_554
In3 Ni9 2.824480 1_554
In3 Ni9 2.824480 1_555
In3 Ni14 2.824480 1_555
In3 Ni14 2.824480 1_554
Ni0 Ni5 2.385996 1_556
Ni0 Ni16 2.388004 1_555
Ni0 Ni5 2.426790 1_555
Ni0 Ni11 2.464975 1_555
Ni0 Ni13 2.464975 1_555
Ni0 Ni15 2.520875 1_455
Ni0 Ni9 2.520875 1_555
Ni1 Ni4 2.385996 1_556
Ni1 Ni16 2.388004 1_655
Ni1 Ni4 2.426790 1_555
Ni1 Ni12 2.464975 1_555
Ni1 Ni10 2.464975 1_555
Ni1 Ni8 2.520875 1_555
Ni1 Ni14 2.520875 1_655
Ni2 Ni7 2.385996 1_556
Ni2 Ni7 2.426790 1_555
Ni2 Ni9 2.464975 1_555
Ni3 Ni6 2.385996 1_556
Ni3 Ni6 2.426790 1_555
Ni3 Ni8 2.464975 1_555
Ni4 Ni8 2.520875 1_555
Ni5 Ni9 2.520875 1_555
Ni6 Ni8 2.464975 1_555
Ni7 Ni9 2.464975 1_555
Ni10 Ni4 2.464975 1_555
Ni10 Ni17 2.483225 1_555
Ni10 Ni14 2.506403 1_655
Ni10 Ni15 2.506403 1_545
Ni10 Ni3 2.520875 1_545
Ni10 Ni6 2.520875 1_545
Ni10 Ni12 2.681001 1_555
Ni11 Ni5 2.464975 1_555
Ni11 Ni17 2.483225 1_565
Ni11 Ni14 2.506403 1_565
Ni11 Ni15 2.506403 1_455
Ni11 Ni2 2.520875 1_565
Ni11 Ni7 2.520875 1_565
Ni11 Ni13 2.681001 1_555
Ni12 Ni4 2.464975 1_555
Ni12 Ni17 2.483225 1_555
Ni12 Ni8 2.506403 1_555
Ni12 Ni9 2.506403 1_555
Ni12 Ni2 2.520875 1_555
Ni12 Ni7 2.520875 1_555
Ni13 Ni5 2.464975 1_555
Ni13 Ni17 2.483225 1_565
Ni13 Ni8 2.506403 1_555
Ni13 Ni9 2.506403 1_555
Ni13 Ni6 2.520875 1_555
Ni13 Ni3 2.520875 1_555
Ni14 Ni7 2.464975 1_555
Ni14 Ni2 2.464975 1_555
Ni14 Ni16 2.483225 1_555
Ni14 Ni4 2.520875 1_455
Ni14 Ni9 2.681001 1_555
Ni15 Ni6 2.464975 1_555
Ni15 Ni3 2.464975 1_555
Ni15 Ni16 2.483225 1_655
Ni15 Ni5 2.520875 1_655
Ni15 Ni8 2.681001 1_555
Ni16 Ni5 2.388004 1_555
Ni16 Ni4 2.388004 1_455
Ni16 Ni9 2.483225 1_555
Ni16 Ni8 2.483225 1_455
Ni17 Ni2 2.388004 1_555
Ni17 Ni6 2.388004 1_545
Ni17 Ni3 2.388004 1_545
Ni17 Ni7 2.388004 1_555
