# generated using pymatgen
data_Ca3(TiN2)2
_symmetry_space_group_name_H-M   'P 1'
_cell_length_a   6.96644877
_cell_length_b   8.47518929
_cell_length_c   5.58144290
_cell_angle_alpha   89.99999988
_cell_angle_beta   91.64037570
_cell_angle_gamma   127.46567779
_symmetry_Int_Tables_number   1
_chemical_formula_structural   Ca3(TiN2)2
_chemical_formula_sum   'Ca6 Ti4 N8'
_cell_volume   261.39113939
_cell_formula_units_Z   2
loop_
 _symmetry_equiv_pos_site_id
 _symmetry_equiv_pos_as_xyz
  1  'x, y, z'
loop_
 _atom_site_type_symbol
 _atom_site_label
 _atom_site_symmetry_multiplicity
 _atom_site_fract_x
 _atom_site_fract_y
 _atom_site_fract_z
 _atom_site_occupancy
  Ca  Ca0  1  0.22137700  0.97922600  0.03516200  1
  Ca  Ca1  1  0.77862300  0.75785000  0.46483800  1
  Ca  Ca2  1  0.77862300  0.02077400  0.96483800  1
  Ca  Ca3  1  0.22137700  0.24215000  0.53516200  1
  Ca  Ca4  1  0.00000000  0.60732900  0.75000000  1
  Ca  Ca5  1  0.00000000  0.39267100  0.25000000  1
  Ti  Ti0  1  0.59816800  0.18125000  0.59118600  1
  Ti  Ti1  1  0.40183200  0.58308100  0.90881400  1
  Ti  Ti2  1  0.40183200  0.81875000  0.40881400  1
  Ti  Ti3  1  0.59816800  0.41691900  0.09118600  1
  N  N0  1  0.24636400  0.95152800  0.53480300  1
  N  N1  1  0.75363600  0.70516400  0.96519700  1
  N  N2  1  0.75363600  0.04847200  0.46519700  1
  N  N3  1  0.24636400  0.29483600  0.03480300  1
  N  N4  1  0.68284900  0.26375900  0.92835800  1
  N  N5  1  0.31715100  0.58091100  0.57164200  1
  N  N6  1  0.31715100  0.73624100  0.07164200  1
  N  N7  1  0.68284900  0.41908900  0.42835800  1
loop_
_geom_bond_atom_site_label_1
_geom_bond_atom_site_label_2
_geom_bond_distance
_geom_bond_site_symmetry_2
Ca0 N6 2.528105 1_555
Ca0 N3 2.572687 1_565
Ca0 N1 2.623880 1_454
Ca0 N4 2.680286 1_564
Ca0 N0 2.807895 1_555
Ca0 N0 2.821748 1_554
Ca1 N7 2.528121 1_555
Ca1 N2 2.572679 1_565
Ca1 N0 2.623881 1_655
Ca1 N5 2.680286 1_555
Ca1 N1 2.807896 1_554
Ca1 N1 2.821749 1_555
Ca2 N4 2.528105 1_555
Ca2 N1 2.572687 1_545
Ca2 N3 2.623880 1_656
Ca2 N6 2.680286 1_546
Ca2 N2 2.807895 1_555
Ca2 N2 2.821748 1_556
Ca3 N5 2.528121 1_555
Ca3 N0 2.572679 1_545
Ca3 N2 2.623881 1_455
Ca3 N7 2.680286 1_555
Ca3 N3 2.807896 1_556
Ca3 N3 2.821749 1_555
Ca4 N6 2.476743 1_556
Ca4 N7 2.476744 1_455
Ca4 N5 2.578837 1_555
Ca4 N4 2.578843 1_455
Ca4 N1 2.631563 1_455
Ca4 N0 2.631564 1_555
Ca5 N4 2.476743 1_454
Ca5 N5 2.476744 1_555
Ca5 N7 2.578837 1_455
Ca5 N6 2.578843 1_555
Ca5 N3 2.631563 1_555
Ca5 N2 2.631564 1_455
N0 Ti0 2.011712 1_565
N0 Ti2 2.111918 1_555
N1 Ti1 2.011710 1_555
N1 Ti3 2.111911 1_556
N2 Ti2 2.011712 1_545
N2 Ti0 2.111918 1_555
N3 Ti3 2.011710 1_555
N3 Ti1 2.111911 1_554
N4 Ti0 1.952729 1_555
N4 Ti3 1.954792 1_556
N5 Ti1 1.952732 1_555
N5 Ti2 1.954778 1_555
N6 Ti2 1.952729 1_555
N6 Ti1 1.954792 1_554
N7 Ti3 1.952732 1_555
N7 Ti0 1.954778 1_555
