# generated using pymatgen
data_HfZr3
_symmetry_space_group_name_H-M   'P 1'
_cell_length_a   6.45884062
_cell_length_b   6.45884062
_cell_length_c   5.13083207
_cell_angle_alpha   90.00000000
_cell_angle_beta   90.00000000
_cell_angle_gamma   119.99999176
_symmetry_Int_Tables_number   1
_chemical_formula_structural   HfZr3
_chemical_formula_sum   'Hf2 Zr6'
_cell_volume   185.36494370
_cell_formula_units_Z   2
loop_
 _symmetry_equiv_pos_site_id
 _symmetry_equiv_pos_as_xyz
  1  'x, y, z'
loop_
 _atom_site_type_symbol
 _atom_site_label
 _atom_site_symmetry_multiplicity
 _atom_site_fract_x
 _atom_site_fract_y
 _atom_site_fract_z
 _atom_site_occupancy
  Hf  Hf0  1  0.33333300  0.66666700  0.75000000  1
  Hf  Hf1  1  0.66666700  0.33333300  0.25000000  1
  Zr  Zr0  1  0.16727700  0.33455400  0.25000000  1
  Zr  Zr1  1  0.66544600  0.83272300  0.25000000  1
  Zr  Zr2  1  0.16727700  0.83272300  0.25000000  1
  Zr  Zr3  1  0.83272300  0.66544600  0.75000000  1
  Zr  Zr4  1  0.33455400  0.16727700  0.75000000  1
  Zr  Zr5  1  0.83272300  0.16727700  0.75000000  1
loop_
_geom_bond_atom_site_label_1
_geom_bond_atom_site_label_2
_geom_bond_distance
_geom_bond_site_symmetry_2
Hf0 Zr2 3.167383 1_555
Hf0 Zr2 3.167383 1_556
Hf0 Zr1 3.167387 1_555
Hf0 Zr1 3.167387 1_556
Hf0 Zr0 3.167387 1_556
Hf0 Zr0 3.167387 1_555
Hf0 Zr4 3.229424 1_565
Hf0 Zr3 3.229424 1_455
Hf0 Zr5 3.229428 1_565
Hf0 Zr5 3.229428 1_455
Hf0 Zr3 3.229431 1_555
Hf0 Zr4 3.229431 1_555
Hf1 Zr5 3.167383 1_555
Hf1 Zr5 3.167383 1_554
Hf1 Zr3 3.167387 1_555
Hf1 Zr3 3.167387 1_554
Hf1 Zr4 3.167387 1_554
Hf1 Zr4 3.167387 1_555
Hf1 Zr0 3.229424 1_655
Hf1 Zr1 3.229424 1_545
Hf1 Zr2 3.229428 1_655
Hf1 Zr2 3.229428 1_545
Hf1 Zr1 3.229431 1_555
Hf1 Zr0 3.229431 1_555
Zr0 Zr4 3.175414 1_554
Zr0 Zr4 3.175414 1_555
Zr0 Zr5 3.175414 1_455
Zr0 Zr5 3.175414 1_454
Zr0 Zr2 3.217594 1_555
Zr0 Zr1 3.217595 1_555
Zr0 Zr2 3.241246 1_545
Zr0 Zr1 3.241247 1_445
Zr1 Zr3 3.175414 1_555
Zr1 Zr3 3.175414 1_554
Zr1 Zr5 3.175414 1_565
Zr1 Zr5 3.175414 1_564
Zr1 Zr2 3.217594 1_555
Zr1 Zr2 3.241246 1_655
Zr2 Zr4 3.175414 1_564
Zr2 Zr3 3.175414 1_455
Zr2 Zr3 3.175414 1_454
Zr2 Zr4 3.175414 1_565
Zr3 Zr5 3.217594 1_555
Zr3 Zr4 3.217595 1_555
Zr3 Zr5 3.241246 1_565
Zr3 Zr4 3.241247 1_665
Zr4 Zr5 3.217594 1_555
Zr4 Zr5 3.241246 1_455
