# generated using pymatgen
data_LuMn2
_symmetry_space_group_name_H-M   'P 1'
_cell_length_a   4.98578590
_cell_length_b   4.98578590
_cell_length_c   8.44160000
_cell_angle_alpha   90.00000000
_cell_angle_beta   90.00000000
_cell_angle_gamma   119.88204978
_symmetry_Int_Tables_number   1
_chemical_formula_structural   LuMn2
_chemical_formula_sum   'Lu4 Mn8'
_cell_volume   181.94394351
_cell_formula_units_Z   4
loop_
 _symmetry_equiv_pos_site_id
 _symmetry_equiv_pos_as_xyz
  1  'x, y, z'
loop_
 _atom_site_type_symbol
 _atom_site_label
 _atom_site_symmetry_multiplicity
 _atom_site_fract_x
 _atom_site_fract_y
 _atom_site_fract_z
 _atom_site_occupancy
  Lu  Lu0  1  0.66662700  0.33337300  0.06409400  1
  Lu  Lu1  1  0.33337300  0.66662700  0.93590600  1
  Lu  Lu2  1  0.33337300  0.66662700  0.56409400  1
  Lu  Lu3  1  0.66662700  0.33337300  0.43590600  1
  Mn  Mn0  1  0.00000000  0.00000000  0.00000000  1
  Mn  Mn1  1  0.00000000  0.00000000  0.50000000  1
  Mn  Mn2  1  0.16919600  0.34203000  0.25000000  1
  Mn  Mn3  1  0.17071000  0.82929000  0.25000000  1
  Mn  Mn4  1  0.65797000  0.83080400  0.25000000  1
  Mn  Mn5  1  0.83080400  0.65797000  0.75000000  1
  Mn  Mn6  1  0.82929000  0.17071000  0.75000000  1
  Mn  Mn7  1  0.34203000  0.16919600  0.75000000  1
loop_
_geom_bond_atom_site_label_1
_geom_bond_atom_site_label_2
_geom_bond_distance
_geom_bond_site_symmetry_2
Lu0 Mn0 2.927606 1_655
Lu0 Mn0 2.932147 1_555
Lu0 Mn0 2.932147 1_665
Lu0 Mn2 2.938618 1_655
Lu0 Mn4 2.938618 1_545
Lu0 Mn3 2.949707 1_545
Lu0 Mn3 2.949707 1_655
Lu0 Mn4 2.953335 1_555
Lu0 Mn2 2.953335 1_555
Lu0 Mn7 2.999896 1_554
Lu0 Mn5 2.999896 1_554
Lu0 Mn6 3.000175 1_554
Lu0 Lu1 3.072978 1_554
Lu0 Lu1 3.078744 1_654
Lu0 Lu1 3.078744 1_544
Lu0 Lu3 3.138688 1_555
Lu1 Mn0 2.927606 1_566
Lu1 Mn0 2.932147 1_556
Lu1 Mn0 2.932147 1_666
Lu1 Mn7 2.938618 1_565
Lu1 Mn5 2.938618 1_455
Lu1 Mn6 2.949707 1_565
Lu1 Mn6 2.949707 1_455
Lu1 Mn7 2.953335 1_555
Lu1 Mn5 2.953335 1_555
Lu1 Mn2 2.999896 1_556
Lu1 Mn4 2.999896 1_556
Lu1 Mn3 3.000175 1_556
Lu1 Lu2 3.138688 1_555
Lu2 Mn1 2.927606 1_565
Lu2 Mn1 2.932147 1_555
Lu2 Mn1 2.932147 1_665
Lu2 Mn7 2.938618 1_565
Lu2 Mn5 2.938618 1_455
Lu2 Mn6 2.949707 1_455
Lu2 Mn6 2.949707 1_565
Lu2 Mn7 2.953335 1_555
Lu2 Mn5 2.953335 1_555
Lu2 Mn4 2.999896 1_555
Lu2 Mn2 2.999896 1_555
Lu2 Mn3 3.000175 1_555
Lu2 Lu3 3.072978 1_555
Lu2 Lu3 3.078744 1_455
Lu2 Lu3 3.078744 1_565
Lu3 Mn1 2.927606 1_655
Lu3 Mn1 2.932147 1_555
Lu3 Mn1 2.932147 1_665
Lu3 Mn2 2.938618 1_655
Lu3 Mn4 2.938618 1_545
Lu3 Mn3 2.949707 1_545
Lu3 Mn3 2.949707 1_655
Lu3 Mn4 2.953335 1_555
Lu3 Mn2 2.953335 1_555
Lu3 Mn7 2.999896 1_555
Lu3 Mn5 2.999896 1_555
Lu3 Mn6 3.000175 1_555
Mn0 Mn3 2.573798 1_545
Mn0 Mn6 2.573798 1_454
Mn0 Mn4 2.576821 1_445
Mn0 Mn5 2.576821 1_444
Mn0 Mn2 2.576821 1_555
Mn0 Mn7 2.576821 1_554
Mn1 Mn3 2.573798 1_545
Mn1 Mn6 2.573798 1_455
Mn1 Mn7 2.576821 1_555
Mn1 Mn4 2.576821 1_445
Mn1 Mn2 2.576821 1_555
Mn1 Mn5 2.576821 1_445
Mn2 Mn3 2.425622 1_555
Mn2 Mn4 2.441266 1_555
Mn2 Mn4 2.553406 1_445
Mn2 Mn3 2.560181 1_545
Mn3 Mn4 2.425622 1_555
Mn3 Mn4 2.560181 1_455
Mn5 Mn6 2.425622 1_555
Mn5 Mn7 2.441266 1_555
Mn5 Mn7 2.553406 1_665
Mn5 Mn6 2.560181 1_565
Mn6 Mn7 2.425622 1_555
Mn6 Mn7 2.560181 1_655
