# generated using pymatgen
data_Sm2Al2Fe15C
_symmetry_space_group_name_H-M   'P 1'
_cell_length_a   6.49038348
_cell_length_b   6.49038348
_cell_length_c   6.47047660
_cell_angle_alpha   82.97494275
_cell_angle_beta   82.97494275
_cell_angle_gamma   82.82856169
_symmetry_Int_Tables_number   1
_chemical_formula_structural   Sm2Al2Fe15C
_chemical_formula_sum   'Sm2 Al2 Fe15 C1'
_cell_volume   266.81652433
_cell_formula_units_Z   1
loop_
 _symmetry_equiv_pos_site_id
 _symmetry_equiv_pos_as_xyz
  1  'x, y, z'
loop_
 _atom_site_type_symbol
 _atom_site_label
 _atom_site_symmetry_multiplicity
 _atom_site_fract_x
 _atom_site_fract_y
 _atom_site_fract_z
 _atom_site_occupancy
  Sm  Sm0  1  0.65445967  0.65445967  0.64032454  1
  Sm  Sm1  1  0.34554033  0.34554033  0.35967546  1
  Al  Al0  1  0.89593636  0.89593636  0.89743339  1
  Al  Al1  1  0.10406364  0.10406364  0.10256661  1
  Fe  Fe0  1  0.34438095  0.34438095  0.85195112  1
  Fe  Fe1  1  0.34175271  0.85019457  0.34424031  1
  Fe  Fe2  1  0.85019457  0.34175271  0.34424031  1
  Fe  Fe3  1  0.65561905  0.65561905  0.14804888  1
  Fe  Fe4  1  0.65824729  0.14980543  0.65575969  1
  Fe  Fe5  1  0.14980543  0.65824729  0.65575969  1
  Fe  Fe6  1  0.00000000  0.00000000  0.50000000  1
  Fe  Fe7  1  0.00000000  0.50000000  -0.00000000  1
  Fe  Fe8  1  0.50000000  0.00000000  -0.00000000  1
  Fe  Fe9  1  0.28489509  0.71510491  -0.00000000  1
  Fe  Fe10  1  0.71599870  0.00118986  0.28425454  1
  Fe  Fe11  1  0.99881014  0.28400130  0.71574546  1
  Fe  Fe12  1  0.28400130  0.99881014  0.71574546  1
  Fe  Fe13  1  0.00118986  0.71599870  0.28425454  1
  Fe  Fe14  1  0.71510491  0.28489509  0.00000000  1
  C  C0  1  0.50000000  0.50000000  -0.00000000  1
loop_
_geom_bond_atom_site_label_1
_geom_bond_atom_site_label_2
_geom_bond_distance
_geom_bond_site_symmetry_2
Al0 Al1 2.596911 1_666
Al0 Fe7 2.599905 1_656
Al0 Fe8 2.599905 1_566
Al0 Fe6 2.605686 1_665
Al0 Fe3 2.620171 1_556
Al0 Fe4 2.620174 1_565
Al0 Fe5 2.620174 1_655
Al0 Fe10 2.756667 1_566
Al0 Fe13 2.756667 1_656
Al0 Fe9 2.769567 1_656
Al0 Fe14 2.769567 1_566
Al0 Fe11 2.770427 1_565
Al0 Fe12 2.770427 1_655
Al0 Sm0 3.093409 1_555
Al1 Fe7 2.599905 1_555
Al1 Fe8 2.599905 1_555
Al1 Fe6 2.605686 1_555
Al1 Fe0 2.620171 1_554
Al1 Fe2 2.620174 1_455
Al1 Fe1 2.620174 1_545
Al1 Fe12 2.756667 1_544
Al1 Fe11 2.756667 1_454
Al1 Fe14 2.769567 1_455
Al1 Fe9 2.769567 1_545
Al1 Fe10 2.770427 1_455
Al1 Fe13 2.770427 1_545
Al1 Sm1 3.093409 1_555
Fe0 Fe8 2.466381 1_556
Fe0 Fe7 2.466381 1_556
Fe0 Fe5 2.544296 1_555
Fe0 Fe4 2.544296 1_555
Fe0 Fe11 2.597746 1_455
Fe0 Fe12 2.597746 1_545
Fe1 Fe6 2.456726 1_565
Fe1 Fe8 2.474180 1_565
Fe1 Fe5 2.515169 1_555
Fe1 Fe3 2.544296 1_555
Fe1 Fe13 2.562866 1_555
Fe1 Fe9 2.574060 1_555
Fe1 Fe12 2.665655 1_555
Fe1 Fe10 2.698484 1_565
Fe1 Sm0 3.019181 1_555
Fe1 Sm1 3.231961 1_565
Fe1 Sm1 3.261794 1_555
Fe2 Fe6 2.456726 1_655
Fe2 Fe7 2.474180 1_655
Fe2 Fe4 2.515169 1_555
Fe2 Fe3 2.544296 1_555
Fe2 Sm0 3.019181 1_555
Fe2 Sm1 3.231961 1_655
Fe2 Sm1 3.261794 1_555
Fe3 Fe8 2.466381 1_565
Fe3 Fe7 2.466381 1_655
Fe4 Fe6 2.456726 1_655
Fe4 Fe8 2.474180 1_556
Fe4 Sm1 3.019181 1_555
Fe4 Sm0 3.231961 1_545
Fe4 Sm0 3.261794 1_555
Fe5 Fe6 2.456726 1_565
Fe5 Fe7 2.474180 1_556
Fe5 Fe9 2.574060 1_556
Fe5 Sm1 3.019181 1_555
Fe5 Sm0 3.231961 1_455
Fe5 Sm0 3.261794 1_555
Fe6 Sm0 3.338162 1_445
Fe6 Sm1 3.338162 1_555
Fe7 Fe9 2.452095 1_555
Fe8 Fe9 2.452095 1_545
Fe10 Fe14 2.438244 1_555
Fe10 Fe6 2.443298 1_655
Fe10 Fe8 2.446467 1_555
Fe10 Fe13 2.448869 1_645
Fe10 Fe2 2.562866 1_555
Fe10 Fe3 2.597746 1_545
Fe10 Fe4 2.665655 1_555
Fe10 Sm0 3.043538 1_545
Fe10 Sm1 3.106849 1_555
Fe11 Fe14 2.438244 1_556
Fe11 Fe6 2.443298 1_655
Fe11 Fe7 2.446467 1_656
Fe11 Fe12 2.448869 1_645
Fe11 Fe4 2.562866 1_555
Fe11 Fe2 2.665655 1_555
Fe11 Fe5 2.698484 1_655
Fe11 Sm1 3.043538 1_655
Fe11 Sm0 3.106849 1_555
Fe12 Fe9 2.438244 1_556
Fe12 Fe6 2.443298 1_565
Fe12 Fe8 2.446467 1_566
Fe12 Fe5 2.562866 1_555
Fe12 Fe4 2.698484 1_565
Fe12 Sm1 3.043538 1_565
Fe12 Sm0 3.106849 1_555
Fe13 Fe9 2.438244 1_555
Fe13 Fe6 2.443298 1_565
Fe13 Fe7 2.446467 1_555
Fe13 Fe3 2.597746 1_455
Fe13 Fe5 2.665655 1_555
Fe13 Fe2 2.698484 1_455
Fe13 Sm0 3.043538 1_455
Fe13 Sm1 3.106849 1_555
Fe14 Fe8 2.452095 1_555
Fe14 Fe7 2.452095 1_655
Fe14 Fe4 2.574060 1_554
Fe14 Fe2 2.574060 1_555
C0 Fe9 1.847055 1_555
C0 Fe14 1.847055 1_555
C0 Fe0 1.919902 1_554
C0 Fe3 1.919902 1_555
C0 Sm0 2.556514 1_554
C0 Sm1 2.556514 1_555
