# generated using pymatgen
data_Sr4TlFe2O9
_symmetry_space_group_name_H-M   'P 1'
_cell_length_a   15.53832552
_cell_length_b   15.53408552
_cell_length_c   3.85134810
_cell_angle_alpha   82.94261554
_cell_angle_beta   82.81743279
_cell_angle_gamma   14.23995167
_symmetry_Int_Tables_number   1
_chemical_formula_structural   Sr4TlFe2O9
_chemical_formula_sum   'Sr4 Tl1 Fe2 O9'
_cell_volume   226.86978770
_cell_formula_units_Z   1
loop_
 _symmetry_equiv_pos_site_id
 _symmetry_equiv_pos_as_xyz
  1  'x, y, z'
loop_
 _atom_site_type_symbol
 _atom_site_label
 _atom_site_symmetry_multiplicity
 _atom_site_fract_x
 _atom_site_fract_y
 _atom_site_fract_z
 _atom_site_occupancy
  Sr  Sr0  1  0.58248500  0.58201200  0.41798800  1
  Sr  Sr1  1  0.41798800  0.41751500  0.58248500  1
  Sr  Sr2  1  0.70524700  0.70531300  0.29468700  1
  Sr  Sr3  1  0.29468700  0.29475300  0.70524700  1
  Tl  Tl0  1  0.02683700  0.97316300  0.02683700  1
  Fe  Fe0  1  0.14849200  0.14874300  0.85125700  1
  Fe  Fe1  1  0.85125700  0.85150800  0.14849200  1
  O  O0  1  0.06260100  0.07487300  0.92512700  1
  O  O1  1  0.92512700  0.93739900  0.06260100  1
  O  O2  1  0.64280900  0.64322100  0.85740600  1
  O  O3  1  0.14343600  0.14259400  0.35677900  1
  O  O4  1  0.35677900  0.35719100  0.14343600  1
  O  O5  1  0.85740600  0.85656400  0.64280900  1
  O  O6  1  0.21288000  0.21313900  0.78686100  1
  O  O7  1  0.78686100  0.78712000  0.21288000  1
  O  O8  1  0.45550700  0.54449300  0.45550700  1
loop_
_geom_bond_atom_site_label_1
_geom_bond_atom_site_label_2
_geom_bond_distance
_geom_bond_site_symmetry_2
Fe0 O3 1.932997 1_556
Fe0 O2 1.932997 1_545
Fe0 O2 1.933577 1_455
Fe0 O3 1.933577 1_555
Fe0 O6 1.969836 1_555
Fe0 O0 2.443871 1_555
Fe1 O4 1.932997 1_655
Fe1 O5 1.932997 1_555
Fe1 O5 1.933577 1_554
Fe1 O4 1.933577 1_565
Fe1 O7 1.969836 1_555
Fe1 O1 2.443871 1_555
O0 Tl0 2.110479 1_546
O0 Sr0 2.731968 1_455
O0 Sr0 2.742741 1_456
O0 Sr0 2.742741 1_545
O0 Sr0 2.800911 1_546
O1 Tl0 2.110479 1_655
O1 Sr1 2.731968 1_564
O1 Sr1 2.742741 1_565
O1 Sr1 2.742741 1_654
O1 Sr1 2.800911 1_655
O2 Sr0 2.676034 1_556
O2 Sr0 2.677035 1_555
O2 Sr2 2.707334 1_556
O2 Sr2 2.709812 1_555
O3 Sr0 2.676034 1_545
O3 Sr0 2.677035 1_455
O3 Sr2 2.707334 1_545
O3 Sr2 2.709812 1_455
O4 Sr1 2.676034 1_555
O4 Sr1 2.677035 1_554
O4 Sr3 2.707334 1_555
O4 Sr3 2.709812 1_554
O5 Sr1 2.676034 1_655
O5 Sr1 2.677035 1_565
O5 Sr3 2.707334 1_655
O5 Sr3 2.709812 1_565
O6 Sr3 2.499632 1_555
O6 Sr2 2.721485 1_545
O6 Sr2 2.721485 1_456
O6 Sr2 2.745057 1_455
O6 Sr2 2.746109 1_546
O7 Sr2 2.499632 1_555
O7 Sr3 2.721485 1_654
O7 Sr3 2.721485 1_565
O7 Sr3 2.745057 1_564
O7 Sr3 2.746109 1_655
O8 Tl0 2.345152 1_555
O8 Sr0 2.527962 1_555
O8 Sr1 2.527962 1_555
O8 Tl0 2.739132 1_645
O8 Tl0 2.739132 1_556
