# generated using pymatgen
data_Sm8MgTi4O20
_symmetry_space_group_name_H-M   'P 1'
_cell_length_a   7.87465248
_cell_length_b   3.64610800
_cell_length_c   16.17245175
_cell_angle_alpha   90.00000000
_cell_angle_beta   87.37293604
_cell_angle_gamma   90.00000000
_symmetry_Int_Tables_number   1
_chemical_formula_structural   Sm8MgTi4O20
_chemical_formula_sum   'Sm8 Mg1 Ti4 O20'
_cell_volume   463.85273249
_cell_formula_units_Z   1
loop_
 _symmetry_equiv_pos_site_id
 _symmetry_equiv_pos_as_xyz
  1  'x, y, z'
loop_
 _atom_site_type_symbol
 _atom_site_label
 _atom_site_symmetry_multiplicity
 _atom_site_fract_x
 _atom_site_fract_y
 _atom_site_fract_z
 _atom_site_occupancy
  Sm  Sm0  1  0.13869100  0.25000000  0.06318900  1
  Sm  Sm1  1  0.12235700  0.25000000  0.74198900  1
  Sm  Sm2  1  0.35385200  0.75000000  0.22172800  1
  Sm  Sm3  1  0.37644600  0.75000000  0.58638400  1
  Sm  Sm4  1  0.68148500  0.25000000  0.43941700  1
  Sm  Sm5  1  0.63156900  0.25000000  0.76372300  1
  Sm  Sm6  1  0.85104300  0.75000000  0.25481500  1
  Sm  Sm7  1  0.84015000  0.75000000  0.92946600  1
  Mg  Mg0  1  0.37073500  0.75000000  0.39994300  1
  Ti  Ti0  1  0.09975400  0.25000000  0.42341700  1
  Ti  Ti1  1  0.34711800  0.75000000  0.91090100  1
  Ti  Ti2  1  0.63604000  0.25000000  0.08274000  1
  Ti  Ti3  1  0.87934200  0.75000000  0.58546500  1
  O  O0  1  0.09542000  0.75000000  0.16742400  1
  O  O1  1  0.13692700  0.75000000  0.45428700  1
  O  O2  1  0.10124800  0.75000000  0.64925800  1
  O  O3  1  0.12874100  0.75000000  0.97878800  1
  O  O4  1  0.27935100  0.25000000  0.32295400  1
  O  O5  1  0.24018700  0.75000000  0.81358800  1
  O  O6  1  0.38831200  0.25000000  0.48101600  1
  O  O7  1  0.39329300  0.25000000  0.13771500  1
  O  O8  1  0.37383500  0.25000000  0.94933900  1
  O  O9  1  0.40539900  0.25000000  0.67310100  1
  O  O10  1  0.59878600  0.75000000  0.34388600  1
  O  O11  1  0.60644700  0.75000000  0.04558800  1
  O  O12  1  0.58322300  0.75000000  0.85310400  1
  O  O13  1  0.66038300  0.75000000  0.52392500  1
  O  O14  1  0.73137800  0.25000000  0.18550600  1
  O  O15  1  0.75342200  0.75000000  0.68454500  1
  O  O16  1  0.85372300  0.25000000  0.01812600  1
  O  O17  1  0.91562100  0.25000000  0.34423500  1
  O  O18  1  0.92008200  0.25000000  0.53734000  1
  O  O19  1  0.88897200  0.25000000  0.83309800  1
loop_
_geom_bond_atom_site_label_1
_geom_bond_atom_site_label_2
_geom_bond_distance
_geom_bond_site_symmetry_2
Mg0 O10 1.974239 1_555
Mg0 O1 2.003483 1_555
Mg0 O6 2.253538 1_565
Mg0 O6 2.253538 1_555
Mg0 O4 2.339613 1_565
Mg0 O4 2.339613 1_555
O0 Sm2 2.253131 1_555
O0 Sm6 2.334829 1_455
O0 Sm0 2.495733 1_565
O0 Sm0 2.495733 1_555
O1 Ti0 1.916208 1_555
O1 Ti0 1.916208 1_565
O2 Ti3 2.069581 1_455
O2 Sm3 2.351215 1_555
O2 Sm1 2.371302 1_565
O2 Sm1 2.371302 1_555
O3 Ti1 1.997369 1_555
O3 Sm0 2.280924 1_566
O3 Sm0 2.280924 1_556
O3 Sm7 2.442730 1_455
O4 Ti0 2.104581 1_555
O4 Sm2 2.501934 1_545
O4 Sm2 2.501934 1_555
O5 Ti1 1.818608 1_555
O5 Sm1 2.371448 1_565
O5 Sm1 2.371448 1_555
O6 Sm4 2.374873 1_555
O6 Sm3 2.494289 1_545
O6 Sm3 2.494289 1_555
O6 Ti0 2.495011 1_555
O7 Ti2 2.070914 1_555
O7 Sm2 2.286342 1_555
O7 Sm2 2.286342 1_545
O7 Sm0 2.386172 1_555
O8 Ti1 1.940673 1_545
O8 Ti1 1.940673 1_555
O8 Sm0 2.550748 1_556
O9 Sm3 2.317675 1_545
O9 Sm3 2.317675 1_555
O9 Sm5 2.357795 1_555
O9 Sm1 2.445684 1_555
O10 Sm6 2.399719 1_555
O10 Sm4 2.495353 1_565
O10 Sm4 2.495353 1_555
O10 Sm2 2.823549 1_555
O11 Ti2 1.936924 1_565
O11 Ti2 1.936924 1_555
O11 Sm7 2.568422 1_554
O12 Ti1 2.042347 1_555
O12 Sm5 2.346810 1_565
O12 Sm5 2.346810 1_555
O12 Sm7 2.418172 1_555
O13 Ti3 2.029973 1_555
O13 Sm4 2.279955 1_565
O13 Sm4 2.279955 1_555
O13 Sm3 2.410927 1_555
O14 Ti2 1.854773 1_555
O14 Sm6 2.358968 1_555
O14 Sm6 2.358968 1_545
O15 Ti3 1.845305 1_555
O15 Sm5 2.402356 1_555
O15 Sm5 2.402356 1_565
O16 Ti2 1.966255 1_555
O16 Sm7 2.324849 1_544
O16 Sm7 2.324849 1_554
O16 Sm0 2.390958 1_655
O17 Ti0 1.978008 1_655
O17 Sm4 2.347069 1_555
O17 Sm6 2.396010 1_545
O17 Sm6 2.396010 1_555
O18 Ti3 2.002326 1_545
O18 Ti3 2.002326 1_555
O18 Ti0 2.270979 1_655
O18 Sm4 2.512145 1_555
O19 Sm1 2.302268 1_655
O19 Sm5 2.361322 1_555
O19 Sm7 2.417716 1_545
O19 Sm7 2.417716 1_555
