# generated using pymatgen
data_Li3Mn(PO4)2
_symmetry_space_group_name_H-M   'P 1'
_cell_length_a   4.79045738
_cell_length_b   11.78910254
_cell_length_c   10.23099860
_cell_angle_alpha   91.61472438
_cell_angle_beta   88.08838263
_cell_angle_gamma   90.63673858
_symmetry_Int_Tables_number   1
_chemical_formula_structural   Li3Mn(PO4)2
_chemical_formula_sum   'Li12 Mn4 P8 O32'
_cell_volume   577.21682414
_cell_formula_units_Z   4
loop_
 _symmetry_equiv_pos_site_id
 _symmetry_equiv_pos_as_xyz
  1  'x, y, z'
loop_
 _atom_site_type_symbol
 _atom_site_label
 _atom_site_symmetry_multiplicity
 _atom_site_fract_x
 _atom_site_fract_y
 _atom_site_fract_z
 _atom_site_occupancy
  Li  Li0  1  0.09973100  0.37126400  0.93573400  1
  Li  Li1  1  0.09974500  0.87113200  0.93578400  1
  Li  Li2  1  0.90044300  0.12883600  0.06425300  1
  Li  Li3  1  0.90032000  0.62882200  0.06415400  1
  Li  Li4  1  0.51238400  0.37385300  0.77252400  1
  Li  Li5  1  0.51233000  0.87376900  0.77260100  1
  Li  Li6  1  0.48769600  0.12619000  0.22748100  1
  Li  Li7  1  0.48767000  0.62623900  0.22743800  1
  Li  Li8  1  0.50002700  0.00001200  0.49998000  1
  Li  Li9  1  0.50001300  0.49995900  0.50003400  1
  Li  Li10  1  0.50000800  0.25000100  0.49999300  1
  Li  Li11  1  0.49998800  0.75001800  0.49999400  1
  Mn  Mn0  1  0.97458000  0.62053500  0.72398800  1
  Mn  Mn1  1  0.02491600  0.87962600  0.27607800  1
  Mn  Mn2  1  0.97471900  0.12038000  0.72392600  1
  Mn  Mn3  1  0.02508400  0.37946700  0.27600800  1
  P  P0  1  0.39271000  0.11855300  0.90183700  1
  P  P1  1  0.39246400  0.61857600  0.90173300  1
  P  P2  1  0.60746700  0.38148500  0.09817400  1
  P  P3  1  0.60739400  0.88143300  0.09819000  1
  P  P4  1  0.92874800  0.37666600  0.58625700  1
  P  P5  1  0.92871800  0.87671500  0.58626700  1
  P  P6  1  0.07124900  0.12328200  0.41373700  1
  P  P7  1  0.07124200  0.62328900  0.41376100  1
  O  O0  1  0.68695200  0.36949400  0.95309100  1
  O  O1  1  0.68698500  0.86947100  0.95311500  1
  O  O2  1  0.31320100  0.13051400  0.04693900  1
  O  O3  1  0.31316200  0.63054800  0.04684400  1
  O  O4  1  0.71741600  0.12423700  0.88276100  1
  O  O5  1  0.71717600  0.62430200  0.88258300  1
  O  O6  1  0.28273800  0.37574900  0.11728800  1
  O  O7  1  0.28270600  0.87571400  0.11729200  1
  O  O8  1  0.24493600  0.37784500  0.58455100  1
  O  O9  1  0.24490700  0.87785900  0.58454900  1
  O  O10  1  0.75508700  0.12211900  0.41545100  1
  O  O11  1  0.75506800  0.62213000  0.41549900  1
  O  O12  1  0.19897600  0.12495100  0.55513400  1
  O  O13  1  0.19877600  0.62495800  0.55520900  1
  O  O14  1  0.80115200  0.37499000  0.44483200  1
  O  O15  1  0.80100400  0.87503900  0.44487500  1
  O  O16  1  0.26349300  0.00960700  0.83702600  1
  O  O17  1  0.26328300  0.50960100  0.83697500  1
  O  O18  1  0.24991800  0.21763400  0.82422800  1
  O  O19  1  0.24965100  0.71771800  0.82423000  1
  O  O20  1  0.75029600  0.28237900  0.17575800  1
  O  O21  1  0.75023200  0.78233900  0.17577900  1
  O  O22  1  0.73667600  0.49043200  0.16299400  1
  O  O23  1  0.73664300  0.99035500  0.16304700  1
  O  O24  1  0.78463500  0.27647700  0.65720900  1
  O  O25  1  0.78444800  0.77657600  0.65723800  1
  O  O26  1  0.78816500  0.48503500  0.65613400  1
  O  O27  1  0.78829600  0.98513200  0.65616000  1
  O  O28  1  0.21171500  0.01486600  0.34383900  1
  O  O29  1  0.21179800  0.51490000  0.34388700  1
  O  O30  1  0.21543500  0.22344300  0.34274800  1
  O  O31  1  0.21542600  0.72347800  0.34282100  1
loop_
_geom_bond_atom_site_label_1
_geom_bond_atom_site_label_2
_geom_bond_distance
_geom_bond_site_symmetry_2
Li0 O0 1.979380 1_455
Li0 O17 2.075128 1_555
Li0 O6 2.079346 1_556
Li0 O18 2.226466 1_555
Li1 O1 1.979272 1_455
Li1 O16 2.076748 1_565
Li1 O7 2.078815 1_556
Li1 O19 2.224234 1_555
Li2 O2 1.979253 1_655
Li2 O23 2.077075 1_545
Li2 O4 2.078809 1_554
Li2 O20 2.225578 1_555
Li3 O3 1.979653 1_655
Li3 O22 2.076192 1_555
Li3 O5 2.079798 1_554
Li3 O21 2.225831 1_555
Li4 O0 2.055277 1_555
Li4 O24 2.065187 1_555
Li4 O17 2.085756 1_555
Li4 O26 2.196786 1_555
Li4 O18 2.282885 1_555
Li4 O8 2.347982 1_555
Li5 O1 2.054924 1_555
Li5 O25 2.063876 1_555
Li5 O16 2.085774 1_565
Li5 O27 2.198870 1_555
Li5 O19 2.281651 1_555
Li5 O9 2.348648 1_555
Li6 O2 2.054868 1_555
Li6 O30 2.064161 1_555
Li6 O23 2.086072 1_545
Li6 O28 2.198176 1_555
Li6 O20 2.282988 1_555
Li6 O10 2.347846 1_555
Li7 O3 2.055371 1_555
Li7 O31 2.064655 1_555
Li7 O22 2.086009 1_555
Li7 O29 2.198484 1_555
Li7 O21 2.281890 1_555
Li7 O11 2.348667 1_555
Li8 O10 2.067282 1_555
Li8 O9 2.067998 1_545
Li8 O15 2.124506 1_545
Li8 O12 2.124580 1_555
Li8 O28 2.158357 1_555
Li8 O27 2.158559 1_545
Li9 O8 2.067335 1_555
Li9 O11 2.067824 1_555
Li9 O14 2.125221 1_555
Li9 O13 2.125722 1_555
Li9 O26 2.157617 1_555
Li9 O29 2.158207 1_555
Li10 O8 2.099991 1_555
Li10 O10 2.100269 1_555
Li10 O14 2.125128 1_555
Li10 O12 2.125218 1_555
Li10 O24 2.156919 1_555
Li10 O30 2.157089 1_555
Li11 O9 2.099979 1_555
Li11 O11 2.100143 1_555
Li11 O15 2.124871 1_555
Li11 O13 2.126069 1_555
Li11 O31 2.156468 1_555
Li11 O25 2.156726 1_555
Mn0 O26 1.943791 1_555
Mn0 O13 2.004510 1_655
Mn0 O5 2.004725 1_555
Mn0 O19 2.022671 1_655
Mn0 O25 2.197630 1_555
Mn0 O17 2.278474 1_655
Mn1 O28 1.941839 1_565
Mn1 O15 2.004063 1_455
Mn1 O7 2.007364 1_555
Mn1 O21 2.022412 1_455
Mn1 O31 2.199464 1_555
Mn1 O23 2.275983 1_455
Mn2 O27 1.941099 1_545
Mn2 O12 2.004849 1_655
Mn2 O4 2.006383 1_555
Mn2 O18 2.023848 1_655
Mn2 O24 2.197974 1_555
Mn2 O16 2.278189 1_655
Mn3 O29 1.943906 1_555
Mn3 O14 2.004287 1_455
Mn3 O6 2.006434 1_555
Mn3 O20 2.021205 1_455
Mn3 O30 2.197879 1_555
Mn3 O22 2.277951 1_455
O0 P2 1.523125 1_556
O1 P3 1.523134 1_556
O2 P0 1.523313 1_554
O3 P1 1.523194 1_554
O4 P0 1.562145 1_555
O5 P1 1.562262 1_555
O6 P2 1.562312 1_555
O7 P3 1.562099 1_555
O8 P4 1.514117 1_455
O9 P5 1.514120 1_455
O10 P6 1.513991 1_655
O11 P7 1.514043 1_655
O12 P6 1.588931 1_555
O13 P7 1.589028 1_555
O14 P4 1.588933 1_555
O15 P5 1.588856 1_555
O16 P0 1.560188 1_555
O17 P1 1.560169 1_555
O18 P0 1.602822 1_555
O19 P1 1.602831 1_555
O20 P2 1.602987 1_555
O21 P3 1.602928 1_555
O22 P2 1.560220 1_555
O23 P3 1.560217 1_555
O24 P4 1.547709 1_555
O25 P5 1.547664 1_555
O26 P4 1.591340 1_555
O27 P5 1.591536 1_555
O28 P6 1.591636 1_555
O29 P7 1.591461 1_555
O30 P6 1.547782 1_555
O31 P7 1.547794 1_555
