# generated using pymatgen
data_K4ZnP2
_symmetry_space_group_name_H-M   'P 1'
_cell_length_a   9.28523987
_cell_length_b   9.28523905
_cell_length_c   9.28523879
_cell_angle_alpha   35.33604320
_cell_angle_beta   35.33605016
_cell_angle_gamma   35.33604435
_symmetry_Int_Tables_number   1
_chemical_formula_structural   K4ZnP2
_chemical_formula_sum   'K4 Zn1 P2'
_cell_volume   239.24127712
_cell_formula_units_Z   1
loop_
 _symmetry_equiv_pos_site_id
 _symmetry_equiv_pos_as_xyz
  1  'x, y, z'
loop_
 _atom_site_type_symbol
 _atom_site_label
 _atom_site_symmetry_multiplicity
 _atom_site_fract_x
 _atom_site_fract_y
 _atom_site_fract_z
 _atom_site_occupancy
  K  K0  1  0.20857183  0.20857183  0.20857183  1
  K  K1  1  0.79142817  0.79142817  0.79142817  1
  K  K2  1  0.38530445  0.38530445  0.38530445  1
  K  K3  1  0.61469555  0.61469555  0.61469555  1
  Zn  Zn0  1  0.00000000  -0.00000000  0.00000000  1
  P  P0  1  0.08421057  0.08421057  0.08421057  1
  P  P1  1  0.91578943  0.91578943  0.91578943  1
loop_
_geom_bond_atom_site_label_1
_geom_bond_atom_site_label_2
_geom_bond_distance
_geom_bond_site_symmetry_2
K0 P0 3.244475 1_555
K0 P1 3.421698 1_454
K0 P1 3.421698 1_445
K0 P1 3.421699 1_544
K1 P1 3.244475 1_555
K1 P0 3.421698 1_656
K1 P0 3.421698 1_665
K1 P0 3.421699 1_566
K2 P0 3.360986 1_565
K2 P0 3.360987 1_556
K2 P0 3.360987 1_655
K2 Zn0 3.525223 1_565
K2 Zn0 3.525223 1_655
K2 Zn0 3.525223 1_556
K3 P1 3.360986 1_545
K3 P1 3.360987 1_554
K3 P1 3.360987 1_455
K3 Zn0 3.525223 1_656
K3 Zn0 3.525223 1_566
K3 Zn0 3.525223 1_665
P0 Zn0 2.196979 1_555
P1 Zn0 2.196979 1_666
