# generated using pymatgen
data_MoWSe3S
_symmetry_space_group_name_H-M   'P 1'
_cell_length_a   3.28670163
_cell_length_b   3.28670163
_cell_length_c   37.35901400
_cell_angle_alpha   90.00000000
_cell_angle_beta   90.00000000
_cell_angle_gamma   119.99999256
_symmetry_Int_Tables_number   1
_chemical_formula_structural   MoWSe3S
_chemical_formula_sum   'Mo2 W2 Se6 S2'
_cell_volume   349.49955758
_cell_formula_units_Z   2
loop_
 _symmetry_equiv_pos_site_id
 _symmetry_equiv_pos_as_xyz
  1  'x, y, z'
loop_
 _atom_site_type_symbol
 _atom_site_label
 _atom_site_symmetry_multiplicity
 _atom_site_fract_x
 _atom_site_fract_y
 _atom_site_fract_z
 _atom_site_occupancy
  Mo  Mo0  1  0.00000000  0.00000000  0.09391800  1
  Mo  Mo1  1  0.00000000  0.00000000  0.46964100  1
  W  W0  1  0.33333300  0.66666700  0.28178700  1
  W  W1  1  0.33333300  0.66666700  0.65755200  1
  Se  Se0  1  0.00000000  0.00000000  0.70296000  1
  Se  Se1  1  0.33333300  0.66666700  0.04879200  1
  Se  Se2  1  0.33333300  0.66666700  0.42452700  1
  Se  Se3  1  0.33333300  0.66666700  0.13906100  1
  Se  Se4  1  0.33333300  0.66666700  0.51478400  1
  Se  Se5  1  0.00000000  0.00000000  0.61212200  1
  S  S0  1  0.00000000  0.00000000  0.32306000  1
  S  S1  1  0.00000000  0.00000000  0.24054500  1
loop_
_geom_bond_atom_site_label_1
_geom_bond_atom_site_label_2
_geom_bond_distance
_geom_bond_site_symmetry_2
Mo0 Se1 2.538292 1_545
Mo0 Se1 2.538295 1_445
Mo0 Se1 2.538295 1_555
Mo0 Se3 2.538714 1_545
Mo0 Se3 2.538717 1_445
Mo0 Se3 2.538717 1_555
Mo1 Se2 2.537995 1_545
Mo1 Se2 2.537997 1_555
Mo1 Se2 2.537997 1_445
Mo1 Se4 2.538714 1_545
Mo1 Se4 2.538717 1_445
Mo1 Se4 2.538717 1_555
Se0 W1 2.545302 1_545
Se0 W1 2.545304 1_555
Se0 W1 2.545304 1_445
Se5 W1 2.545850 1_545
Se5 W1 2.545852 1_445
Se5 W1 2.545852 1_555
S0 W0 2.445058 1_545
S0 W0 2.445060 1_445
S0 W0 2.445060 1_555
S1 W0 2.444328 1_545
S1 W0 2.444330 1_445
S1 W0 2.444330 1_555
