# generated using pymatgen
data_NaHfMg6O7
_symmetry_space_group_name_H-M   'P 1'
_cell_length_a   8.81400488
_cell_length_b   4.35238391
_cell_length_c   4.35238391
_cell_angle_alpha   90.00000000
_cell_angle_beta   90.00000000
_cell_angle_gamma   90.00000000
_symmetry_Int_Tables_number   1
_chemical_formula_structural   NaHfMg6O7
_chemical_formula_sum   'Na1 Hf1 Mg6 O7'
_cell_volume   166.96586004
_cell_formula_units_Z   1
loop_
 _symmetry_equiv_pos_site_id
 _symmetry_equiv_pos_as_xyz
  1  'x, y, z'
loop_
 _atom_site_type_symbol
 _atom_site_label
 _atom_site_symmetry_multiplicity
 _atom_site_fract_x
 _atom_site_fract_y
 _atom_site_fract_z
 _atom_site_occupancy
  Na  Na0  1  0.00139668  0.00000000  0.00000000  1
  Hf  Hf0  1  0.00080884  0.50000000  0.50000000  1
  Mg  Mg0  1  0.50226895  0.00000000  0.00000000  1
  Mg  Mg1  1  0.50074551  0.50000000  0.50000000  1
  Mg  Mg2  1  0.25982702  -0.00000000  0.50000000  1
  Mg  Mg3  1  0.74348631  0.00000000  0.50000000  1
  Mg  Mg4  1  0.25982702  0.50000000  -0.00000000  1
  Mg  Mg5  1  0.74348631  0.50000000  0.00000000  1
  O  O0  1  0.73480146  0.00000000  0.00000000  1
  O  O1  1  0.25606117  0.50000000  0.50000000  1
  O  O2  1  0.74716545  0.50000000  0.50000000  1
  O  O3  1  0.99789027  0.00000000  0.50000000  1
  O  O4  1  0.50217236  -0.00000000  0.50000000  1
  O  O5  1  0.99789027  0.50000000  0.00000000  1
  O  O6  1  0.50217236  0.50000000  0.00000000  1
loop_
_geom_bond_atom_site_label_1
_geom_bond_atom_site_label_2
_geom_bond_distance
_geom_bond_site_symmetry_2
Na0 O3 2.176411 1_455
Na0 O5 2.176411 1_445
Na0 O3 2.176411 1_454
Na0 O5 2.176411 1_455
Na0 O0 2.349772 1_455
Hf0 O3 2.176344 1_455
Hf0 O5 2.176344 1_456
Hf0 O5 2.176344 1_455
Hf0 O3 2.176344 1_465
Hf0 O2 2.235614 1_455
Hf0 O1 2.249795 1_555
Mg0 O0 2.049543 1_555
Mg0 O4 2.176192 1_555
Mg0 O4 2.176192 1_554
Mg0 O6 2.176192 1_545
Mg0 O6 2.176192 1_555
Mg1 O1 2.156649 1_555
Mg1 O2 2.171947 1_555
Mg1 O4 2.176228 1_555
Mg1 O4 2.176228 1_565
Mg1 O6 2.176228 1_556
Mg1 O6 2.176228 1_555
Mg2 O4 2.136033 1_555
Mg2 O1 2.176445 1_555
Mg2 O1 2.176445 1_545
Mg2 O3 2.308712 1_455
Mg3 O4 2.126942 1_555
Mg3 O2 2.176434 1_545
Mg3 O2 2.176434 1_555
Mg3 O0 2.177538 1_555
Mg3 O0 2.177538 1_556
Mg3 O3 2.242318 1_555
Mg4 O6 2.136033 1_555
Mg4 O1 2.176445 1_554
Mg4 O1 2.176445 1_555
Mg4 O5 2.308712 1_455
Mg5 O6 2.126942 1_555
Mg5 O2 2.176434 1_554
Mg5 O2 2.176434 1_555
Mg5 O0 2.177538 1_565
Mg5 O0 2.177538 1_555
Mg5 O5 2.242318 1_555
