# generated using pymatgen
data_Sr3BiN3
_symmetry_space_group_name_H-M   'P 1'
_cell_length_a   8.21056410
_cell_length_b   8.20968567
_cell_length_c   5.34388700
_cell_angle_alpha   90.00000000
_cell_angle_beta   90.00000000
_cell_angle_gamma   119.98537027
_symmetry_Int_Tables_number   1
_chemical_formula_structural   Sr3BiN3
_chemical_formula_sum   'Sr6 Bi2 N6'
_cell_volume   311.99772516
_cell_formula_units_Z   2
loop_
 _symmetry_equiv_pos_site_id
 _symmetry_equiv_pos_as_xyz
  1  'x, y, z'
loop_
 _atom_site_type_symbol
 _atom_site_label
 _atom_site_symmetry_multiplicity
 _atom_site_fract_x
 _atom_site_fract_y
 _atom_site_fract_z
 _atom_site_occupancy
  Sr  Sr0  1  0.90516100  0.64996700  0.25000000  1
  Sr  Sr1  1  0.74495800  0.09484400  0.25000000  1
  Sr  Sr2  1  0.34991900  0.25512400  0.25000000  1
  Sr  Sr3  1  0.09483900  0.35003300  0.75000000  1
  Sr  Sr4  1  0.25504200  0.90515600  0.75000000  1
  Sr  Sr5  1  0.65008100  0.74487600  0.75000000  1
  Bi  Bi0  1  0.66662400  0.33328800  0.75000000  1
  Bi  Bi1  1  0.33337600  0.66671200  0.25000000  1
  N  N0  1  0.90416400  0.63691000  0.75000000  1
  N  N1  1  0.73293100  0.09589700  0.75000000  1
  N  N2  1  0.36293600  0.26706900  0.75000000  1
  N  N3  1  0.09583600  0.36309000  0.25000000  1
  N  N4  1  0.26706900  0.90410300  0.25000000  1
  N  N5  1  0.63706400  0.73293100  0.25000000  1
loop_
_geom_bond_atom_site_label_1
_geom_bond_atom_site_label_2
_geom_bond_distance
_geom_bond_site_symmetry_2
Bi0 N1 2.270501 1_555
Bi0 N0 2.271065 1_555
Bi0 N2 2.271101 1_555
Bi1 N4 2.270501 1_555
Bi1 N3 2.271065 1_555
Bi1 N5 2.271101 1_555
N0 Sr4 2.609177 1_655
N0 Sr5 2.643108 1_555
N0 Sr0 2.673941 1_555
N0 Sr0 2.673941 1_556
N1 Sr5 2.609195 1_545
N1 Sr3 2.643054 1_655
N1 Sr1 2.673941 1_555
N1 Sr1 2.673941 1_556
N2 Sr3 2.609200 1_555
N2 Sr4 2.642314 1_545
N2 Sr2 2.673919 1_556
N2 Sr2 2.673919 1_555
N3 Sr1 2.609177 1_455
N3 Sr2 2.643108 1_555
N3 Sr3 2.673941 1_554
N3 Sr3 2.673941 1_555
N4 Sr2 2.609195 1_565
N4 Sr0 2.643054 1_455
N4 Sr4 2.673941 1_555
N4 Sr4 2.673941 1_554
N5 Sr0 2.609200 1_555
N5 Sr1 2.642314 1_565
N5 Sr5 2.673919 1_555
N5 Sr5 2.673919 1_554
