# generated using pymatgen
data_KCuAg2(CN)4
_symmetry_space_group_name_H-M   'P 1'
_cell_length_a   7.92983300
_cell_length_b   7.57407200
_cell_length_c   7.65042040
_cell_angle_alpha   90.00000000
_cell_angle_beta   102.22462361
_cell_angle_gamma   90.00000000
_symmetry_Int_Tables_number   1
_chemical_formula_structural   KCuAg2(CN)4
_chemical_formula_sum   'K2 Cu2 Ag4 C8 N8'
_cell_volume   449.07385654
_cell_formula_units_Z   2
loop_
 _symmetry_equiv_pos_site_id
 _symmetry_equiv_pos_as_xyz
  1  'x, y, z'
loop_
 _atom_site_type_symbol
 _atom_site_label
 _atom_site_symmetry_multiplicity
 _atom_site_fract_x
 _atom_site_fract_y
 _atom_site_fract_z
 _atom_site_occupancy
  K  K0  1  0.50000000  0.75212900  0.75000000  1
  K  K1  1  0.50000000  0.24787100  0.25000000  1
  Cu  Cu0  1  0.50000000  0.74436600  0.25000000  1
  Cu  Cu1  1  0.50000000  0.25563400  0.75000000  1
  Ag  Ag0  1  0.00000000  0.00000000  0.50000000  1
  Ag  Ag1  1  0.00000000  0.00000000  0.00000000  1
  Ag  Ag2  1  0.00000000  0.56748700  0.75000000  1
  Ag  Ag3  1  0.00000000  0.43251300  0.25000000  1
  C  C0  1  0.21806200  0.92514700  0.41553400  1
  C  C1  1  0.78193800  0.92514700  0.08446600  1
  C  C2  1  0.78193800  0.07485300  0.58446600  1
  C  C3  1  0.21806200  0.07485300  0.91553400  1
  C  C4  1  0.21619700  0.58278300  0.95089700  1
  C  C5  1  0.78380300  0.58278300  0.54910300  1
  C  C6  1  0.78380300  0.41721700  0.04910300  1
  C  C7  1  0.21619700  0.41721700  0.45089700  1
  N  N0  1  0.34049900  0.87731600  0.36495400  1
  N  N1  1  0.65950100  0.87731600  0.13504600  1
  N  N2  1  0.65950100  0.12268400  0.63504600  1
  N  N3  1  0.34049900  0.12268400  0.86495400  1
  N  N4  1  0.33900500  0.61007300  0.06416900  1
  N  N5  1  0.66099500  0.61007300  0.43583100  1
  N  N6  1  0.66099500  0.38992700  0.93583100  1
  N  N7  1  0.33900500  0.38992700  0.56416900  1
loop_
_geom_bond_atom_site_label_1
_geom_bond_atom_site_label_2
_geom_bond_distance
_geom_bond_site_symmetry_2
K0 N1 3.098138 1_556
K0 N0 3.098138 1_555
K0 N4 3.140689 1_556
K0 N5 3.140689 1_555
K0 N7 3.226198 1_555
K0 N6 3.226198 1_555
K0 N3 3.274341 1_565
K0 N2 3.274341 1_565
K1 N3 3.098138 1_554
K1 N2 3.098138 1_555
K1 N7 3.140689 1_555
K1 N6 3.140689 1_554
K1 N4 3.226198 1_555
K1 N5 3.226198 1_555
K1 N0 3.274341 1_545
K1 N1 3.274341 1_545
Cu0 N1 1.964241 1_555
Cu0 N0 1.964241 1_555
Cu0 N4 1.979142 1_555
Cu0 N5 1.979142 1_555
Cu1 N2 1.964241 1_555
Cu1 N3 1.964241 1_555
Cu1 N6 1.979142 1_555
Cu1 N7 1.979142 1_555
Ag0 C2 2.049957 1_455
Ag0 C0 2.049957 1_545
Ag1 C1 2.049957 1_445
Ag1 C3 2.049957 1_554
Ag2 C5 2.049132 1_455
Ag2 C4 2.049132 1_555
Ag3 C6 2.049132 1_455
Ag3 C7 2.049132 1_555
C0 N0 1.175900 1_555
C0 K0 3.292496 1_555
C1 N1 1.175900 1_555
C1 K0 3.292496 1_554
C2 N2 1.175900 1_555
C2 K1 3.292496 1_555
C3 N3 1.175900 1_555
C3 K1 3.292496 1_556
C4 N4 1.176720 1_556
C4 K0 3.246071 1_555
C5 N5 1.176720 1_555
C5 K0 3.246071 1_555
C6 N6 1.176720 1_554
C6 K1 3.246071 1_555
C7 N7 1.176720 1_555
C7 K1 3.246071 1_555
