# generated using pymatgen
data_Ca2CoSi4NiO12
_symmetry_space_group_name_H-M   'P 1'
_cell_length_a   5.31174791
_cell_length_b   6.70451631
_cell_length_c   6.70450072
_cell_angle_alpha   84.56434578
_cell_angle_beta   78.03578626
_cell_angle_gamma   78.03566133
_symmetry_Int_Tables_number   1
_chemical_formula_structural   Ca2CoSi4NiO12
_chemical_formula_sum   'Ca2 Co1 Si4 Ni1 O12'
_cell_volume   228.17030213
_cell_formula_units_Z   1
loop_
 _symmetry_equiv_pos_site_id
 _symmetry_equiv_pos_as_xyz
  1  'x, y, z'
loop_
 _atom_site_type_symbol
 _atom_site_label
 _atom_site_symmetry_multiplicity
 _atom_site_fract_x
 _atom_site_fract_y
 _atom_site_fract_z
 _atom_site_occupancy
  Ca  Ca0  1  0.74999900  0.70334800  0.29665300  1
  Ca  Ca1  1  0.24999600  0.29723400  0.70276400  1
  Co  Co0  1  0.74999800  0.09244700  0.90755200  1
  Si  Si0  1  0.72927300  0.62063300  0.80572600  1
  Si  Si1  1  0.77072300  0.19427600  0.37937000  1
  Si  Si2  1  0.26974000  0.38029900  0.19456400  1
  Si  Si3  1  0.23025800  0.80543500  0.61970300  1
  Ni  Ni0  1  0.25002400  0.90771400  0.09227800  1
  O  O0  1  0.82262300  0.38997500  0.88813700  1
  O  O1  1  0.67737700  0.11186300  0.61002600  1
  O  O2  1  0.17818100  0.61156300  0.11279200  1
  O  O3  1  0.32181600  0.88720900  0.38843600  1
  O  O4  1  0.64079900  0.79499600  0.97219300  1
  O  O5  1  0.85919800  0.02780800  0.20500400  1
  O  O6  1  0.35492800  0.20420700  0.02926100  1
  O  O7  1  0.14507000  0.97074000  0.79579200  1
  O  O8  1  0.49638000  0.63113100  0.66689800  1
  O  O9  1  0.00361900  0.33310100  0.36887100  1
  O  O10  1  0.50420100  0.36798300  0.33196300  1
  O  O11  1  0.99579600  0.66803900  0.63201700  1
loop_
_geom_bond_atom_site_label_1
_geom_bond_atom_site_label_2
_geom_bond_distance
_geom_bond_site_symmetry_2
Ca0 O2 2.339260 1_655
Ca0 O3 2.339262 1_555
Ca0 O4 2.359715 1_554
Ca0 O5 2.359720 1_565
Ca0 O8 2.620572 1_555
Ca0 O9 2.620588 1_655
Ca0 O11 2.793617 1_555
Ca0 O10 2.793633 1_555
Ca1 O0 2.340095 1_455
Ca1 O1 2.340121 1_555
Ca1 O7 2.365234 1_545
Ca1 O6 2.365258 1_556
Ca1 O10 2.622785 1_555
Ca1 O11 2.622796 1_455
Ca1 O9 2.786383 1_555
Ca1 O8 2.786438 1_555
Co0 O6 2.094040 1_556
Co0 O7 2.094046 1_645
Co0 O1 2.096147 1_555
Co0 O0 2.096174 1_555
Co0 O4 2.170942 1_545
Co0 O5 2.170944 1_556
Ni0 O4 2.073613 1_554
Ni0 O5 2.073866 1_465
Ni0 O3 2.085036 1_555
Ni0 O2 2.085090 1_555
Ni0 O6 2.154772 1_565
Ni0 O7 2.154833 1_554
O0 Si0 1.605131 1_555
O1 Si1 1.605118 1_555
O2 Si2 1.605627 1_555
O3 Si3 1.605646 1_555
O4 Si0 1.623281 1_555
O5 Si1 1.623300 1_555
O6 Si2 1.626453 1_555
O7 Si3 1.626447 1_555
O8 Si0 1.682410 1_555
O8 Si3 1.701316 1_555
O9 Si1 1.682411 1_455
O9 Si2 1.701330 1_555
O10 Si2 1.680783 1_555
O10 Si1 1.701297 1_555
O11 Si3 1.680779 1_655
O11 Si0 1.701307 1_555
