# generated using pymatgen
data_FeSeO5
_symmetry_space_group_name_H-M   'P 1'
_cell_length_a   5.48604149
_cell_length_b   5.48604149
_cell_length_c   7.61329982
_cell_angle_alpha   110.39399795
_cell_angle_beta   110.39399795
_cell_angle_gamma   100.17079984
_symmetry_Int_Tables_number   1
_chemical_formula_structural   FeSeO5
_chemical_formula_sum   'Fe2 Se2 O10'
_cell_volume   189.37462478
_cell_formula_units_Z   2
loop_
 _symmetry_equiv_pos_site_id
 _symmetry_equiv_pos_as_xyz
  1  'x, y, z'
loop_
 _atom_site_type_symbol
 _atom_site_label
 _atom_site_symmetry_multiplicity
 _atom_site_fract_x
 _atom_site_fract_y
 _atom_site_fract_z
 _atom_site_occupancy
  Fe  Fe0  1  0.00000000  0.00000000  0.50000000  1
  Fe  Fe1  1  0.50000000  0.50000000  0.00000000  1
  Se  Se0  1  0.08145700  0.41854300  0.25000000  1
  Se  Se1  1  0.91854300  0.58145700  0.75000000  1
  O  O0  1  0.21278300  0.32143900  0.08006400  1
  O  O1  1  0.17856100  0.28721700  0.41993600  1
  O  O2  1  0.78721700  0.67856100  0.91993600  1
  O  O3  1  0.82143900  0.71278300  0.58006400  1
  O  O4  1  0.19994800  0.76744800  0.38129100  1
  O  O5  1  0.73255200  0.30005200  0.11870900  1
  O  O6  1  0.80005200  0.23255200  0.61870900  1
  O  O7  1  0.26744800  0.69994800  0.88129100  1
  O  O8  1  0.68064800  0.81935200  0.25000000  1
  O  O9  1  0.31935200  0.18064800  0.75000000  1
loop_
_geom_bond_atom_site_label_1
_geom_bond_atom_site_label_2
_geom_bond_distance
_geom_bond_site_symmetry_2
Fe0 O8 1.849966 1_445
Fe0 O9 1.849966 1_555
Fe0 O6 2.007298 1_455
Fe0 O4 2.007298 1_545
Fe0 O3 2.086710 1_445
Fe0 O1 2.086710 1_555
Fe1 O9 1.849966 1_554
Fe1 O8 1.849966 1_555
Fe1 O5 2.007298 1_555
Fe1 O7 2.007298 1_554
Fe1 O2 2.086710 1_554
Fe1 O0 2.086710 1_555
O0 Se0 1.667793 1_555
O1 Se0 1.667793 1_555
O2 Se1 1.667793 1_555
O3 Se1 1.667793 1_555
O4 Se0 1.691083 1_555
O5 Se0 1.691083 1_655
O6 Se1 1.691083 1_555
O7 Se1 1.691083 1_455
