# generated using pymatgen
data_Cs3Bi2Cl9
_symmetry_space_group_name_H-M   'P 1'
_cell_length_a   7.68893844
_cell_length_b   7.68883293
_cell_length_c   9.49968770
_cell_angle_alpha   89.99943565
_cell_angle_beta   89.99993994
_cell_angle_gamma   119.99896789
_symmetry_Int_Tables_number   1
_chemical_formula_structural   Cs3Bi2Cl9
_chemical_formula_sum   'Cs3 Bi2 Cl9'
_cell_volume   486.37504521
_cell_formula_units_Z   1
loop_
 _symmetry_equiv_pos_site_id
 _symmetry_equiv_pos_as_xyz
  1  'x, y, z'
loop_
 _atom_site_type_symbol
 _atom_site_label
 _atom_site_symmetry_multiplicity
 _atom_site_fract_x
 _atom_site_fract_y
 _atom_site_fract_z
 _atom_site_occupancy
  Cs  Cs0  1  0.99999747  0.99999205  -0.00000043  1
  Cs  Cs1  1  0.33330696  0.66665274  0.34049537  1
  Cs  Cs2  1  0.66669040  0.33333970  0.65950325  1
  Bi  Bi0  1  0.33333177  0.66666875  0.81343241  1
  Bi  Bi1  1  0.66666589  0.33333182  0.18656788  1
  Cl  Cl0  1  0.51763047  0.51763113  0.00000071  1
  Cl  Cl1  1  0.48239621  0.00001220  0.99998360  1
  Cl  Cl2  1  0.00000149  0.48239391  0.00001230  1
  Cl  Cl3  1  0.83770762  0.65916526  0.33493252  1
  Cl  Cl4  1  0.34082628  0.17853919  0.33493375  1
  Cl  Cl5  1  0.82144827  0.16227814  0.33493467  1
  Cl  Cl6  1  0.16228259  0.82145221  0.66506500  1
  Cl  Cl7  1  0.17854638  0.34083125  0.66506967  1
  Cl  Cl8  1  0.65916819  0.83771066  0.66506628  1
loop_
_geom_bond_atom_site_label_1
_geom_bond_atom_site_label_2
_geom_bond_distance
_geom_bond_site_symmetry_2
Bi0 Cl6 2.587997 1_555
Bi0 Cl7 2.588033 1_555
Bi0 Cl8 2.588047 1_555
Bi0 Cl1 2.843578 1_565
Bi0 Cl0 2.843617 1_556
Bi0 Cl2 2.843681 1_556
Bi1 Cl5 2.588011 1_555
Bi1 Cl3 2.588022 1_555
Bi1 Cl4 2.588064 1_555
Bi1 Cl2 2.843563 1_655
Bi1 Cl0 2.843598 1_555
Bi1 Cl1 2.843657 1_554
Cl0 Cs0 3.708899 1_555
Cl0 Cs1 3.925298 1_555
Cl0 Cs2 3.925334 1_554
Cl0 Cs0 3.980106 1_445
Cl1 Cs0 3.709057 1_446
Cl1 Cs2 3.925095 1_555
Cl1 Cs1 3.925447 1_546
Cl1 Cs0 3.979882 1_546
Cl2 Cs0 3.709092 1_445
Cl2 Cs1 3.925079 1_555
Cl2 Cs2 3.925298 1_454
Cl2 Cs0 3.979741 1_455
Cl3 Cs2 3.770647 1_555
Cl3 Cs1 3.782547 1_655
Cl3 Cs1 3.907765 1_555
Cl3 Cs0 3.908698 1_555
Cl4 Cs2 3.770838 1_555
Cl4 Cs1 3.782631 1_555
Cl4 Cs1 3.907580 1_545
Cl4 Cs0 3.908771 1_445
Cl5 Cs2 3.770632 1_555
Cl5 Cs1 3.782790 1_545
Cl5 Cs1 3.907588 1_655
Cl5 Cs0 3.908769 1_545
Cl6 Cs1 3.770652 1_555
Cl6 Cs2 3.782554 1_455
Cl6 Cs2 3.907823 1_565
Cl6 Cs0 3.908724 1_456
Cl7 Cs1 3.770664 1_555
Cl7 Cs2 3.782808 1_555
Cl7 Cs2 3.907506 1_455
Cl7 Cs0 3.908725 1_446
Cl8 Cs1 3.770839 1_555
Cl8 Cs2 3.782591 1_565
Cl8 Cs2 3.907621 1_555
Cl8 Cs0 3.908764 1_556
