# generated using pymatgen
data_Ca(CrS2)4
_symmetry_space_group_name_H-M   'P 1'
_cell_length_a   7.07666636
_cell_length_b   7.19540926
_cell_length_c   7.19541029
_cell_angle_alpha   59.99999980
_cell_angle_beta   59.44336580
_cell_angle_gamma   59.44335969
_symmetry_Int_Tables_number   1
_chemical_formula_structural   Ca(CrS2)4
_chemical_formula_sum   'Ca1 Cr4 S8'
_cell_volume   256.87338854
_cell_formula_units_Z   1
loop_
 _symmetry_equiv_pos_site_id
 _symmetry_equiv_pos_as_xyz
  1  'x, y, z'
loop_
 _atom_site_type_symbol
 _atom_site_label
 _atom_site_symmetry_multiplicity
 _atom_site_fract_x
 _atom_site_fract_y
 _atom_site_fract_z
 _atom_site_occupancy
  Ca  Ca0  1  0.50000000  0.00000000  0.00000000  1
  Cr  Cr0  1  0.00000000  0.50000000  0.50000000  1
  Cr  Cr1  1  0.50000000  0.50000000  0.00000000  1
  Cr  Cr2  1  0.50000000  0.50000000  0.50000000  1
  Cr  Cr3  1  0.50000000  0.00000000  0.50000000  1
  S  S0  1  0.25552500  0.26600100  0.26600100  1
  S  S1  1  0.25552500  0.26600100  0.71247300  1
  S  S2  1  0.25552500  0.71247300  0.26600100  1
  S  S3  1  0.71303100  0.26232300  0.26232300  1
  S  S4  1  0.28696900  0.73767700  0.73767700  1
  S  S5  1  0.74447500  0.73399900  0.28752700  1
  S  S6  1  0.74447500  0.28752700  0.73399900  1
  S  S7  1  0.74447500  0.73399900  0.73399900  1
loop_
_geom_bond_atom_site_label_1
_geom_bond_atom_site_label_2
_geom_bond_distance
_geom_bond_site_symmetry_2
Ca0 S0 2.692468 1_555
Ca0 S7 2.692468 1_544
Ca0 S5 2.692469 1_545
Ca0 S1 2.692469 1_554
Ca0 S6 2.692469 1_554
Ca0 S2 2.692469 1_545
Cr0 S7 2.362870 1_455
Cr0 S0 2.362870 1_555
Cr0 S1 2.362870 1_555
Cr0 S5 2.362870 1_455
Cr0 S6 2.362870 1_455
Cr0 S2 2.362870 1_555
Cr1 S3 2.409148 1_555
Cr1 S4 2.409148 1_554
Cr1 S2 2.421510 1_555
Cr1 S6 2.421510 1_554
Cr1 S7 2.421510 1_554
Cr1 S0 2.421510 1_555
Cr2 S3 2.409148 1_555
Cr2 S4 2.409148 1_555
Cr2 S6 2.421510 1_555
Cr2 S2 2.421510 1_555
Cr2 S5 2.421510 1_555
Cr2 S1 2.421510 1_555
Cr3 S3 2.409148 1_555
Cr3 S4 2.409148 1_545
Cr3 S5 2.421510 1_545
Cr3 S1 2.421510 1_555
Cr3 S7 2.421510 1_545
Cr3 S0 2.421510 1_555
