# generated using pymatgen
data_LiMnV(P2O7)2
_symmetry_space_group_name_H-M   'P 1'
_cell_length_a   8.18705100
_cell_length_b   9.73771384
_cell_length_c   14.00122671
_cell_angle_alpha   108.18940117
_cell_angle_beta   89.97486572
_cell_angle_gamma   92.00620948
_symmetry_Int_Tables_number   1
_chemical_formula_structural   LiMnV(P2O7)2
_chemical_formula_sum   'Li4 Mn4 V4 P16 O56'
_cell_volume   1059.72952091
_cell_formula_units_Z   4
loop_
 _symmetry_equiv_pos_site_id
 _symmetry_equiv_pos_as_xyz
  1  'x, y, z'
loop_
 _atom_site_type_symbol
 _atom_site_label
 _atom_site_symmetry_multiplicity
 _atom_site_fract_x
 _atom_site_fract_y
 _atom_site_fract_z
 _atom_site_occupancy
  Li  Li0  1  0.35736900  0.29096200  0.03907800  1
  Li  Li1  1  0.86285000  0.96066700  0.70916300  1
  Li  Li2  1  0.86277000  0.21150000  0.45950300  1
  Li  Li3  1  0.86386400  0.71110700  0.96077400  1
  Mn  Mn0  1  0.99265800  0.26149100  0.01814400  1
  Mn  Mn1  1  0.00610800  0.75321000  0.51167600  1
  Mn  Mn2  1  0.00788600  0.00413000  0.26297300  1
  Mn  Mn3  1  0.00703400  0.50356100  0.76243200  1
  V  V0  1  0.50524600  0.49141900  0.23615100  1
  V  V1  1  0.49522600  0.98761200  0.72946600  1
  V  V2  1  0.49361100  0.23833600  0.48078000  1
  V  V3  1  0.49549300  0.73777500  0.98169800  1
  P  P0  1  0.28875000  0.73720800  0.17535000  1
  P  P1  1  0.68183600  0.46253700  0.02036800  1
  P  P2  1  0.78209500  0.76383400  0.32748700  1
  P  P3  1  0.67977600  0.96288800  0.52145500  1
  P  P4  1  0.17551500  0.28890100  0.22970700  1
  P  P5  1  0.78018000  0.01377800  0.07861400  1
  P  P6  1  0.28661800  0.48869300  0.42401000  1
  P  P7  1  0.67809000  0.21309700  0.27232600  1
  P  P8  1  0.17618300  0.78968600  0.73127300  1
  P  P9  1  0.78101200  0.51431600  0.57803700  1
  P  P10  1  0.28940400  0.98614700  0.92303200  1
  P  P11  1  0.67912100  0.71268200  0.77194500  1
  P  P12  1  0.17664900  0.03951200  0.48153100  1
  P  P13  1  0.28776200  0.23893200  0.67451100  1
  P  P14  1  0.17774700  0.54080500  0.98214500  1
  P  P15  1  0.78128400  0.26405000  0.82819600  1
  O  O0  1  0.68567500  0.88070700  0.00895700  1
  O  O1  1  0.93202100  0.96532700  0.12131600  1
  O  O2  1  0.43854300  0.77878800  0.12075600  1
  O  O3  1  0.15116000  0.66080100  0.08905600  1
  O  O4  1  0.20347500  0.85944800  0.24731400  1
  O  O5  1  0.82823000  0.87229700  0.27178200  1
  O  O6  1  0.84808900  0.44582100  0.05912200  1
  O  O7  1  0.53785500  0.43506000  0.08344800  1
  O  O8  1  0.34222300  0.61996800  0.22081000  1
  O  O9  1  0.68014900  0.63800900  0.25755300  1
  O  O10  1  0.65407300  0.83802100  0.41568000  1
  O  O11  1  0.82118800  0.11924200  0.02037200  1
  O  O12  1  0.93181800  0.71744800  0.37292000  1
  O  O13  1  0.17179500  0.89180500  0.49695800  1
  O  O14  1  0.03875500  0.30801400  0.16167600  1
  O  O15  1  0.34452000  0.32332400  0.19071000  1
  O  O16  1  0.84402000  0.94494000  0.56554900  1
  O  O17  1  0.53629000  0.94169400  0.58682500  1
  O  O18  1  0.66166200  0.35681600  0.24861900  1
  O  O19  1  0.43956100  0.53287000  0.37418000  1
  O  O20  1  0.15281300  0.41094300  0.33663900  1
  O  O21  1  0.65246900  0.08727600  0.16559300  1
  O  O22  1  0.19936100  0.60878500  0.49704700  1
  O  O23  1  0.17386300  0.14233000  0.24794200  1
  O  O24  1  0.82556400  0.62286600  0.52282200  1
  O  O25  1  0.03897900  0.81712600  0.66592200  1
  O  O26  1  0.84360500  0.19535200  0.31457700  1
  O  O27  1  0.34700200  0.82207300  0.69598200  1
  O  O28  1  0.53577800  0.18976400  0.33730900  1
  O  O29  1  0.67094600  0.85750000  0.74794100  1
  O  O30  1  0.33677600  0.37203000  0.47174600  1
  O  O31  1  0.68676500  0.38165300  0.50819200  1
  O  O32  1  0.14980900  0.91244100  0.83923800  1
  O  O33  1  0.65306200  0.58662500  0.66578600  1
  O  O34  1  0.93179800  0.46507000  0.62186700  1
  O  O35  1  0.17160800  0.64239200  0.74736900  1
  O  O36  1  0.03896200  0.06744500  0.41627700  1
  O  O37  1  0.34711100  0.07180500  0.44565200  1
  O  O38  1  0.84416000  0.69447900  0.81514300  1
  O  O39  1  0.53649600  0.69260700  0.83764700  1
  O  O40  1  0.67123300  0.10825300  0.49840000  1
  O  O41  1  0.43895300  0.27942100  0.62171600  1
  O  O42  1  0.33437600  0.87068500  0.97154900  1
  O  O43  1  0.15052600  0.16101000  0.58921000  1
  O  O44  1  0.20191200  0.35999900  0.74756000  1
  O  O45  1  0.82803700  0.37124600  0.77212600  1
  O  O46  1  0.03951400  0.56490400  0.91619500  1
  O  O47  1  0.34805300  0.57108500  0.94527900  1
  O  O48  1  0.67001100  0.60812000  0.99793100  1
  O  O49  1  0.33828200  0.12243800  0.72240400  1
  O  O50  1  0.68959900  0.13032400  0.75766500  1
  O  O51  1  0.64940500  0.33642500  0.91299500  1
  O  O52  1  0.93064500  0.21775000  0.87546900  1
  O  O53  1  0.17597100  0.39171400  0.99782700  1
  O  O54  1  0.44083800  0.02916500  0.87120900  1
  O  O55  1  0.21299900  0.11560300  0.99564800  1
loop_
_geom_bond_atom_site_label_1
_geom_bond_atom_site_label_2
_geom_bond_distance
_geom_bond_site_symmetry_2
Li0 O7 1.962069 1_555
Li0 O55 1.973255 1_554
Li0 O53 1.989529 1_554
Li0 O15 2.049898 1_555
Li1 O16 1.974029 1_555
Li1 O29 2.000435 1_555
Li1 O25 2.002899 1_655
Li1 O50 2.159908 1_565
Li2 O26 1.991510 1_555
Li2 O40 1.999280 1_555
Li2 O36 2.006416 1_655
Li2 O31 2.178885 1_555
Li3 O38 2.000538 1_555
Li3 O48 2.002193 1_555
Li3 O46 2.017979 1_655
Li3 O0 2.187026 1_556
Mn0 O11 1.944540 1_555
Mn0 O14 1.951040 1_655
Mn0 O52 1.970845 1_554
Mn0 O53 2.008206 1_654
Mn0 O6 2.111192 1_555
Mn0 O55 2.295897 1_654
Mn1 O13 1.936271 1_555
Mn1 O24 1.952513 1_455
Mn1 O12 1.956865 1_455
Mn1 O25 2.067226 1_555
Mn1 O22 2.121029 1_555
Mn1 O16 2.260322 1_455
Mn2 O23 1.936588 1_555
Mn2 O5 1.947595 1_445
Mn2 O1 1.994765 1_445
Mn2 O36 2.053136 1_555
Mn2 O4 2.135871 1_545
Mn2 O26 2.265576 1_455
Mn3 O35 1.933325 1_555
Mn3 O45 1.950099 1_455
Mn3 O34 1.979294 1_455
Mn3 O46 2.061283 1_555
Mn3 O44 2.125405 1_555
Mn3 O38 2.257246 1_455
O0 P5 1.539609 1_565
O0 V3 2.006077 1_554
O1 P5 1.530770 1_565
O2 P0 1.552360 1_555
O2 V3 1.922087 1_554
O3 P14 1.605908 1_554
O3 P0 1.632043 1_555
O4 P0 1.492758 1_555
O5 P2 1.533814 1_555
O6 P1 1.498289 1_555
O7 P1 1.538079 1_555
O7 V0 2.054467 1_555
O8 P0 1.545655 1_555
O8 V0 1.918209 1_555
O9 P2 1.528634 1_555
O9 V0 1.941154 1_555
O10 P3 1.604418 1_555
O10 P2 1.624856 1_555
O11 P5 1.526708 1_555
O12 P2 1.526457 1_555
O13 P12 1.518872 1_565
O14 P4 1.523737 1_555
O15 P4 1.551162 1_555
O15 V0 2.003839 1_555
O16 P3 1.518020 1_555
O17 P3 1.536323 1_555
O17 V1 1.937519 1_555
O18 P7 1.545989 1_555
O18 V0 1.910220 1_555
O19 P6 1.545509 1_555
O19 V0 1.927237 1_555
O20 P4 1.610218 1_555
O20 P6 1.623148 1_555
O21 P5 1.611103 1_555
O21 P7 1.617880 1_555
O22 P6 1.494945 1_555
O23 P4 1.525976 1_555
O24 P9 1.526739 1_555
O25 P8 1.531327 1_555
O26 P7 1.515574 1_555
O27 P8 1.537930 1_555
O27 V1 1.919009 1_555
O28 P7 1.531838 1_555
O28 V2 1.948256 1_555
O29 P11 1.551969 1_555
O29 V1 2.018513 1_555
O30 P6 1.553332 1_555
O30 V2 1.891973 1_555
O31 P9 1.537106 1_555
O31 V2 2.026639 1_555
O32 P10 1.617333 1_555
O32 P8 1.627953 1_555
O33 P11 1.613819 1_555
O33 P9 1.616473 1_555
O34 P9 1.535047 1_555
O35 P8 1.519034 1_555
O36 P12 1.535231 1_555
O37 P12 1.538235 1_555
O37 V2 1.917434 1_555
O38 P11 1.518995 1_555
O39 P11 1.530772 1_555
O39 V3 1.957014 1_555
O40 P3 1.550811 1_545
O40 V2 2.025957 1_555
O41 P13 1.543052 1_555
O41 V2 1.942425 1_555
O42 P10 1.538561 1_555
O42 V3 1.915650 1_555
O43 P12 1.619352 1_555
O43 P13 1.624882 1_555
O44 P13 1.494833 1_555
O45 P15 1.528331 1_555
O46 P14 1.530780 1_555
O47 P14 1.537224 1_555
O47 V3 1.923130 1_555
O48 P1 1.550952 1_556
O48 V3 1.998210 1_555
O49 P13 1.554205 1_555
O49 V1 1.893076 1_545
O50 P15 1.537436 1_555
O50 V1 2.030431 1_545
O51 P15 1.613026 1_555
O51 P1 1.632046 1_556
O52 P15 1.536970 1_555
O53 P14 1.534175 1_555
O54 P10 1.546498 1_545
O54 V1 1.952188 1_545
O55 P10 1.506188 1_545
