# generated using pymatgen
data_Dy3Si3O10F
_symmetry_space_group_name_H-M   'P 1'
_cell_length_a   11.26885600
_cell_length_b   7.39099200
_cell_length_c   12.03352781
_cell_angle_alpha   59.71618529
_cell_angle_beta   90.00000000
_cell_angle_gamma   90.00000000
_symmetry_Int_Tables_number   1
_chemical_formula_structural   Dy3Si3O10F
_chemical_formula_sum   'Dy12 Si12 O40 F4'
_cell_volume   865.47992785
_cell_formula_units_Z   4
loop_
 _symmetry_equiv_pos_site_id
 _symmetry_equiv_pos_as_xyz
  1  'x, y, z'
loop_
 _atom_site_type_symbol
 _atom_site_label
 _atom_site_symmetry_multiplicity
 _atom_site_fract_x
 _atom_site_fract_y
 _atom_site_fract_z
 _atom_site_occupancy
  Dy  Dy0  1  0.46913800  0.74367500  0.01851300  1
  Dy  Dy1  1  0.96913800  0.25632500  0.48148700  1
  Dy  Dy2  1  0.53086200  0.25632500  0.98148700  1
  Dy  Dy3  1  0.03086200  0.74367500  0.51851300  1
  Dy  Dy4  1  0.22975600  0.59528800  0.31108300  1
  Dy  Dy5  1  0.72975600  0.40471200  0.18891700  1
  Dy  Dy6  1  0.77024400  0.40471200  0.68891700  1
  Dy  Dy7  1  0.27024400  0.59528800  0.81108300  1
  Dy  Dy8  1  0.09821600  0.80530100  0.99659400  1
  Dy  Dy9  1  0.59821600  0.19469900  0.50340600  1
  Dy  Dy10  1  0.90178400  0.19469900  0.00340600  1
  Dy  Dy11  1  0.40178400  0.80530100  0.49659400  1
  Si  Si0  1  0.46244200  0.28587300  0.70867500  1
  Si  Si1  1  0.75513200  0.87646900  0.88942500  1
  Si  Si2  1  0.74486800  0.87646900  0.38942500  1
  Si  Si3  1  0.24486800  0.12353100  0.11057500  1
  Si  Si4  1  0.41404200  0.28452800  0.24050100  1
  Si  Si5  1  0.91404200  0.71547200  0.25949900  1
  Si  Si6  1  0.58595800  0.71547200  0.75949900  1
  Si  Si7  1  0.08595800  0.28452800  0.74050100  1
  Si  Si8  1  0.03755800  0.28587300  0.20867500  1
  Si  Si9  1  0.53755800  0.71412700  0.29132500  1
  Si  Si10  1  0.25513200  0.12353100  0.61057500  1
  Si  Si11  1  0.96244200  0.71412700  0.79132500  1
  O  O0  1  0.08916400  0.65777900  0.86955500  1
  O  O1  1  0.58916400  0.34222100  0.63044500  1
  O  O2  1  0.91083600  0.34222100  0.13044500  1
  O  O3  1  0.41083600  0.65777900  0.36955500  1
  O  O4  1  0.47749200  0.10419900  0.86173500  1
  O  O5  1  0.97749200  0.89580100  0.63826500  1
  O  O6  1  0.52250800  0.89580100  0.13826500  1
  O  O7  1  0.02250800  0.10419900  0.36173500  1
  O  O8  1  0.10416700  0.49504000  0.19190700  1
  O  O9  1  0.60416700  0.50496000  0.30809300  1
  O  O10  1  0.89583300  0.50496000  0.80809300  1
  O  O11  1  0.39583300  0.49504000  0.69190700  1
  O  O12  1  0.39088200  0.19887600  0.62234800  1
  O  O13  1  0.89088200  0.80112400  0.87765200  1
  O  O14  1  0.60911800  0.80112400  0.37765200  1
  O  O15  1  0.10911800  0.19887600  0.12234800  1
  O  O16  1  0.35660800  0.51258800  0.19737400  1
  O  O17  1  0.27383800  0.89705000  0.62068000  1
  O  O18  1  0.72616200  0.10295000  0.37932000  1
  O  O19  1  0.22616200  0.89705000  0.12068000  1
  O  O20  1  0.18095400  0.28692000  0.48247400  1
  O  O21  1  0.68095400  0.71308000  0.01752600  1
  O  O22  1  0.81904600  0.71308000  0.51752600  1
  O  O23  1  0.31904600  0.28692000  0.98247400  1
  O  O24  1  0.17752100  0.11479000  0.73089600  1
  O  O25  1  0.67752100  0.88521000  0.76910400  1
  O  O26  1  0.82247900  0.88521000  0.26910400  1
  O  O27  1  0.32247900  0.11479000  0.23089600  1
  O  O28  1  0.02441700  0.64913600  0.36314600  1
  O  O29  1  0.52441700  0.35086400  0.13685400  1
  O  O30  1  0.97558300  0.35086400  0.63685400  1
  O  O31  1  0.47558300  0.64913600  0.86314600  1
  O  O32  1  0.04955900  0.14875700  0.89164400  1
  O  O33  1  0.54955900  0.85124300  0.60835600  1
  O  O34  1  0.95044100  0.85124300  0.10835600  1
  O  O35  1  0.45044100  0.14875700  0.39164400  1
  O  O36  1  0.14339200  0.51258800  0.69737400  1
  O  O37  1  0.64339200  0.48741200  0.80262600  1
  O  O38  1  0.85660800  0.48741200  0.30262600  1
  O  O39  1  0.77383800  0.10295000  0.87932000  1
  F  F0  1  0.71482800  0.24470800  0.05933200  1
  F  F1  1  0.21482800  0.75529200  0.44066800  1
  F  F2  1  0.78517200  0.24470800  0.55933200  1
  F  F3  1  0.28517200  0.75529200  0.94066800  1
loop_
_geom_bond_atom_site_label_1
_geom_bond_atom_site_label_2
_geom_bond_distance
_geom_bond_site_symmetry_2
Dy0 F3 2.258637 1_554
Dy0 O31 2.303589 1_554
Dy0 O6 2.310112 1_555
Dy0 O16 2.334545 1_555
Dy0 O4 2.366053 1_564
Dy0 O21 2.398205 1_555
Dy0 O29 2.583618 1_555
Dy1 F2 2.258637 1_555
Dy1 O30 2.303589 1_555
Dy1 O7 2.310112 1_655
Dy1 O38 2.334545 1_555
Dy1 O5 2.366053 1_545
Dy1 O20 2.398205 1_655
Dy1 O28 2.583618 1_655
Dy2 F0 2.258637 1_556
Dy2 O29 2.303589 1_556
Dy2 O4 2.310112 1_555
Dy2 O37 2.334545 1_555
Dy2 O6 2.366053 1_546
Dy2 O23 2.398205 1_555
Dy2 O31 2.583618 1_555
Dy3 F1 2.258637 1_555
Dy3 O28 2.303589 1_555
Dy3 O5 2.310112 1_455
Dy3 O36 2.334545 1_555
Dy3 O7 2.366053 1_565
Dy3 O22 2.398205 1_455
Dy3 O30 2.583618 1_455
Dy4 O20 2.238241 1_555
Dy4 O19 2.252049 1_555
Dy4 O16 2.265578 1_555
Dy4 O3 2.280369 1_555
Dy4 O8 2.383326 1_555
Dy4 F1 2.391300 1_555
Dy4 O28 2.481265 1_555
Dy5 O21 2.238241 1_555
Dy5 O18 2.252049 1_555
Dy5 O38 2.265578 1_555
Dy5 O2 2.280369 1_555
Dy5 O9 2.383326 1_555
Dy5 F0 2.391300 1_555
Dy5 O29 2.481265 1_555
Dy6 O22 2.238241 1_555
Dy6 O39 2.252049 1_555
Dy6 O37 2.265578 1_555
Dy6 O1 2.280369 1_555
Dy6 O10 2.383326 1_555
Dy6 F2 2.391300 1_555
Dy6 O30 2.481265 1_555
Dy7 O23 2.238241 1_555
Dy7 O17 2.252049 1_555
Dy7 O36 2.265578 1_555
Dy7 O0 2.280369 1_555
Dy7 O11 2.383326 1_555
Dy7 F3 2.391300 1_555
Dy7 O31 2.481265 1_555
Dy8 O32 2.259674 1_565
Dy8 O34 2.271054 1_456
Dy8 O0 2.284151 1_555
Dy8 F3 2.297592 1_555
Dy8 O8 2.313257 1_556
Dy8 O19 2.406138 1_556
Dy9 O33 2.259674 1_545
Dy9 O35 2.271054 1_555
Dy9 O1 2.284151 1_555
Dy9 F2 2.297592 1_555
Dy9 O9 2.313257 1_555
Dy9 O18 2.406138 1_555
Dy10 O34 2.259674 1_545
Dy10 O32 2.271054 1_654
Dy10 O2 2.284151 1_555
Dy10 F0 2.297592 1_555
Dy10 O10 2.313257 1_554
Dy10 O39 2.406138 1_554
Dy11 O35 2.259674 1_565
Dy11 O33 2.271054 1_555
Dy11 O3 2.284151 1_555
Dy11 F1 2.297592 1_555
Dy11 O11 2.313257 1_555
Dy11 O17 2.406138 1_555
O0 Si11 1.644217 1_455
O1 Si0 1.644217 1_555
O2 Si8 1.644217 1_655
O3 Si9 1.644217 1_555
O4 Si0 1.652218 1_555
O5 Si11 1.652218 1_555
O6 Si9 1.652218 1_555
O7 Si8 1.652218 1_555
O8 Si8 1.636912 1_555
O9 Si9 1.636912 1_555
O10 Si11 1.636912 1_555
O11 Si0 1.636912 1_555
O12 Si10 1.658275 1_555
O12 Si0 1.678256 1_555
O13 Si1 1.658275 1_555
O13 Si11 1.678256 1_555
O14 Si2 1.658275 1_555
O14 Si9 1.678256 1_555
O15 Si3 1.658275 1_555
O15 Si8 1.678256 1_555
O16 Si4 1.627011 1_555
O17 Si10 1.629704 1_565
O18 Si2 1.629704 1_545
O19 Si3 1.629704 1_565
O20 Si10 1.629664 1_555
O21 Si1 1.629664 1_554
O22 Si2 1.629664 1_555
O23 Si3 1.629664 1_556
O24 Si10 1.664665 1_555
O24 Si7 1.672748 1_555
O25 Si1 1.664665 1_555
O25 Si6 1.672748 1_555
O26 Si2 1.664665 1_555
O26 Si5 1.672748 1_555
O27 Si3 1.664665 1_555
O27 Si4 1.672748 1_555
O28 Si5 1.651145 1_455
O29 Si4 1.651145 1_555
O30 Si7 1.651145 1_655
O31 Si6 1.651145 1_555
O32 Si7 1.625558 1_555
O33 Si6 1.625558 1_555
O34 Si5 1.625558 1_555
O35 Si4 1.625558 1_555
O36 Si7 1.627011 1_555
O37 Si6 1.627011 1_555
O38 Si5 1.627011 1_555
O39 Si1 1.629704 1_545
