# generated using pymatgen
data_Mo(SI)2
_symmetry_space_group_name_H-M   'P 1'
_cell_length_a   6.88703897
_cell_length_b   6.88703897
_cell_length_c   8.03917334
_cell_angle_alpha   76.78074965
_cell_angle_beta   76.78074965
_cell_angle_gamma   113.92076854
_symmetry_Int_Tables_number   1
_chemical_formula_structural   Mo(SI)2
_chemical_formula_sum   'Mo2 S4 I4'
_cell_volume   316.41647631
_cell_formula_units_Z   2
loop_
 _symmetry_equiv_pos_site_id
 _symmetry_equiv_pos_as_xyz
  1  'x, y, z'
loop_
 _atom_site_type_symbol
 _atom_site_label
 _atom_site_symmetry_multiplicity
 _atom_site_fract_x
 _atom_site_fract_y
 _atom_site_fract_z
 _atom_site_occupancy
  Mo  Mo0  1  0.87866300  0.12133700  0.00000000  1
  Mo  Mo1  1  0.12133700  0.87866300  0.00000000  1
  S  S0  1  0.87990500  0.87990500  0.27352500  1
  S  S1  1  0.12009500  0.12009500  0.72647500  1
  S  S2  1  0.71031300  0.71031300  0.13037700  1
  S  S3  1  0.28968700  0.28968700  0.86962300  1
  I  I0  1  0.44660700  0.04326300  0.22231900  1
  I  I1  1  0.55339300  0.95673700  0.77768100  1
  I  I2  1  0.95673700  0.55339300  0.77768100  1
  I  I3  1  0.04326300  0.44660700  0.22231900  1
loop_
_geom_bond_atom_site_label_1
_geom_bond_atom_site_label_2
_geom_bond_distance
_geom_bond_site_symmetry_2
Mo0 S2 2.425203 1_545
Mo0 S3 2.425203 1_654
Mo0 S0 2.438846 1_545
Mo0 S1 2.438846 1_654
Mo1 S3 2.425203 1_564
Mo1 S2 2.425203 1_455
Mo1 S0 2.438846 1_455
Mo1 S1 2.438846 1_564
S0 S2 2.043500 1_555
S1 S3 2.043500 1_555
I0 Mo0 2.858013 1_555
I0 Mo1 3.193122 1_545
I1 Mo1 2.858013 1_556
I1 Mo0 3.193122 1_566
I2 Mo0 2.858013 1_556
I2 Mo1 3.193122 1_656
I3 Mo1 2.858013 1_555
I3 Mo0 3.193122 1_455
