# generated using pymatgen
data_Ti(CrSi3)2
_symmetry_space_group_name_H-M   'P 1'
_cell_length_a   4.54096145
_cell_length_b   4.54096145
_cell_length_c   6.34965100
_cell_angle_alpha   90.00000000
_cell_angle_beta   90.00000000
_cell_angle_gamma   119.37245063
_symmetry_Int_Tables_number   1
_chemical_formula_structural   Ti(CrSi3)2
_chemical_formula_sum   'Ti1 Cr2 Si6'
_cell_volume   114.10057557
_cell_formula_units_Z   1
loop_
 _symmetry_equiv_pos_site_id
 _symmetry_equiv_pos_as_xyz
  1  'x, y, z'
loop_
 _atom_site_type_symbol
 _atom_site_label
 _atom_site_symmetry_multiplicity
 _atom_site_fract_x
 _atom_site_fract_y
 _atom_site_fract_z
 _atom_site_occupancy
  Ti  Ti0  1  0.50000000  0.50000000  0.50000000  1
  Cr  Cr0  1  0.50000000  0.00000000  0.16677800  1
  Cr  Cr1  1  0.00000000  0.50000000  0.83322200  1
  Si  Si0  1  0.16126400  0.83873600  0.50000000  1
  Si  Si1  1  0.15788000  0.32769100  0.16313500  1
  Si  Si2  1  0.67230900  0.84212000  0.83686500  1
  Si  Si3  1  0.83873600  0.16126400  0.50000000  1
  Si  Si4  1  0.84212000  0.67230900  0.16313500  1
  Si  Si5  1  0.32769100  0.15788000  0.83686500  1
loop_
_geom_bond_atom_site_label_1
_geom_bond_atom_site_label_2
_geom_bond_distance
_geom_bond_site_symmetry_2
Cr0 Si5 2.462685 1_554
Cr0 Si2 2.462685 1_544
Cr0 Si3 2.504815 1_555
Cr0 Si0 2.504815 1_545
Cr0 Si4 2.603578 1_445
Cr0 Si1 2.603578 1_655
Cr0 Si4 2.626033 1_545
Cr0 Si1 2.626033 1_555
Cr0 Si4 2.661167 1_555
Cr0 Si1 2.661167 1_545
Cr1 Si1 2.462685 1_556
Cr1 Si4 2.462685 1_456
Cr1 Si0 2.504815 1_555
Cr1 Si3 2.504815 1_455
Cr1 Si5 2.603578 1_565
Cr1 Si2 2.603578 1_445
Cr1 Si5 2.626033 1_555
Cr1 Si2 2.626033 1_455
Cr1 Si5 2.661167 1_455
Cr1 Si2 2.661167 1_555
Si0 Si4 2.484393 1_455
Si0 Si5 2.484393 1_565
Si0 Si3 2.528681 1_465
Si0 Ti0 2.617583 1_565
Si0 Ti0 2.617583 1_455
Si0 Ti0 2.655755 1_555
Si0 Si3 2.681272 1_565
Si0 Si3 2.681272 1_455
Si1 Si5 2.462608 1_554
Si1 Si3 2.484393 1_455
Si1 Ti0 2.531507 1_555
Si1 Si4 2.589589 1_455
Si1 Si4 2.593620 1_445
Si1 Si4 2.707997 1_555
Si2 Si4 2.462608 1_556
Si2 Si3 2.484393 1_565
Si2 Ti0 2.531507 1_555
Si2 Si5 2.589589 1_565
Si2 Si5 2.593620 1_665
Si2 Si5 2.707997 1_555
Si3 Ti0 2.617583 1_545
Si3 Ti0 2.617583 1_655
Si3 Ti0 2.655755 1_555
Si4 Ti0 2.531507 1_555
Si5 Ti0 2.531507 1_555
