# generated using pymatgen
data_Mg14TiGa
_symmetry_space_group_name_H-M   'P 1'
_cell_length_a   6.29283264
_cell_length_b   6.29283214
_cell_length_c   10.19157708
_cell_angle_alpha   90.00000000
_cell_angle_beta   90.00000000
_cell_angle_gamma   120.00000263
_symmetry_Int_Tables_number   1
_chemical_formula_structural   Mg14TiGa
_chemical_formula_sum   'Mg14 Ti1 Ga1'
_cell_volume   349.51381176
_cell_formula_units_Z   1
loop_
 _symmetry_equiv_pos_site_id
 _symmetry_equiv_pos_as_xyz
  1  'x, y, z'
loop_
 _atom_site_type_symbol
 _atom_site_label
 _atom_site_symmetry_multiplicity
 _atom_site_fract_x
 _atom_site_fract_y
 _atom_site_fract_z
 _atom_site_occupancy
  Mg  Mg0  1  0.16912311  0.83456105  0.12500000  1
  Mg  Mg1  1  0.16591032  0.83295466  0.62500000  1
  Mg  Mg2  1  0.66543895  0.33087689  0.12500000  1
  Mg  Mg3  1  0.66704534  0.33408968  0.62500000  1
  Mg  Mg4  1  0.66543895  0.83456105  0.12500000  1
  Mg  Mg5  1  0.66704534  0.83295466  0.62500000  1
  Mg  Mg6  1  0.32963650  0.17036350  0.37500835  1
  Mg  Mg7  1  0.32963650  0.17036350  0.87499165  1
  Mg  Mg8  1  0.32963650  0.65927400  0.37500835  1
  Mg  Mg9  1  0.32963650  0.65927400  0.87499165  1
  Mg  Mg10  1  0.84072600  0.17036350  0.37500835  1
  Mg  Mg11  1  0.84072600  0.17036350  0.87499165  1
  Mg  Mg12  1  0.83333300  0.66666700  0.37345698  1
  Mg  Mg13  1  0.83333300  0.66666700  0.87654302  1
  Ti  Ti0  1  0.16666700  0.33333300  0.12500000  1
  Ga  Ga0  1  0.16666700  0.33333300  0.62500000  1
loop_
_geom_bond_atom_site_label_1
_geom_bond_atom_site_label_2
_geom_bond_distance
_geom_bond_site_symmetry_2
Mg0 Mg2 3.123232 1_565
Mg0 Mg4 3.123233 1_555
Mg0 Mg12 3.124208 1_455
Mg0 Mg13 3.124208 1_454
Mg0 Mg8 3.137414 1_555
Mg0 Mg9 3.137414 1_554
Mg0 Mg6 3.137420 1_565
Mg0 Mg7 3.137420 1_564
Mg0 Ti0 3.146445 1_555
Mg0 Ti0 3.146445 1_565
Mg0 Mg2 3.169600 1_455
Mg0 Mg4 3.169600 1_455
Mg1 Mg3 3.139274 1_455
Mg1 Mg5 3.139274 1_455
Mg1 Mg12 3.139614 1_455
Mg1 Mg13 3.139614 1_455
Mg1 Mg9 3.142203 1_555
Mg1 Mg8 3.142203 1_555
Mg1 Mg6 3.142209 1_565
Mg1 Mg7 3.142209 1_565
Mg1 Mg3 3.153559 1_565
Mg1 Mg5 3.153559 1_555
Mg2 Mg4 3.123232 1_545
Mg2 Mg7 3.137421 1_554
Mg2 Mg6 3.137421 1_555
Mg2 Ti0 3.146445 1_655
Mg2 Ti0 3.146445 1_555
Mg2 Mg4 3.169600 1_555
Mg3 Mg5 3.139274 1_555
Mg3 Mg6 3.142209 1_555
Mg3 Mg7 3.142209 1_555
Mg3 Mg5 3.153559 1_545
Mg4 Mg8 3.137420 1_555
Mg4 Mg9 3.137420 1_554
Mg4 Ti0 3.146445 1_555
Mg4 Ti0 3.146445 1_665
Mg5 Mg8 3.142209 1_555
Mg5 Mg9 3.142209 1_555
Mg6 Mg8 3.076632 1_555
Mg6 Ti0 3.106025 1_555
Mg6 Mg8 3.216200 1_545
Mg7 Mg9 3.076632 1_555
Mg7 Ti0 3.106025 1_556
Mg7 Mg9 3.216200 1_545
Mg8 Ti0 3.106032 1_555
Mg9 Ti0 3.106032 1_556
Mg10 Mg8 3.076632 1_655
Mg10 Mg6 3.076632 1_655
Mg10 Ti0 3.106032 1_655
Mg10 Mg2 3.137414 1_555
Mg10 Mg4 3.137420 1_545
Mg10 Mg3 3.142203 1_555
Mg10 Mg5 3.142209 1_545
Mg10 Mg12 3.146714 1_545
Mg10 Mg12 3.146714 1_555
Mg10 Mg8 3.216200 1_545
Mg10 Mg6 3.216201 1_555
Mg11 Mg9 3.076632 1_655
Mg11 Mg7 3.076632 1_655
Mg11 Ti0 3.106032 1_656
Mg11 Mg2 3.137414 1_556
Mg11 Mg4 3.137420 1_546
Mg11 Mg3 3.142203 1_555
Mg11 Mg5 3.142209 1_545
Mg11 Mg13 3.146714 1_545
Mg11 Mg13 3.146714 1_555
Mg11 Mg9 3.216200 1_545
Mg11 Mg7 3.216201 1_555
Mg12 Mg4 3.124202 1_555
Mg12 Mg2 3.124208 1_555
Mg12 Mg5 3.139607 1_555
Mg12 Mg3 3.139614 1_555
Mg12 Mg6 3.146714 1_665
Mg12 Mg6 3.146714 1_555
Mg12 Mg8 3.146714 1_555
Mg12 Mg8 3.146714 1_655
Mg13 Mg4 3.124202 1_556
Mg13 Mg2 3.124208 1_556
Mg13 Mg5 3.139607 1_555
Mg13 Mg3 3.139614 1_555
Mg13 Mg7 3.146714 1_665
Mg13 Mg7 3.146714 1_555
Mg13 Mg9 3.146714 1_555
Mg13 Mg9 3.146714 1_655
Ga0 Mg6 3.105886 1_555
Ga0 Mg7 3.105886 1_555
Ga0 Mg9 3.105892 1_555
Ga0 Mg8 3.105892 1_555
Ga0 Mg10 3.105892 1_455
Ga0 Mg11 3.105892 1_455
Ga0 Mg5 3.146419 1_445
Ga0 Mg1 3.146419 1_545
Ga0 Mg1 3.146419 1_555
Ga0 Mg5 3.146419 1_555
Ga0 Mg3 3.146419 1_455
Ga0 Mg3 3.146419 1_555
