# generated using pymatgen
data_Sc(CuS)3
_symmetry_space_group_name_H-M   'P 1'
_cell_length_a   7.21427901
_cell_length_b   7.21427902
_cell_length_c   7.21427947
_cell_angle_alpha   53.87530319
_cell_angle_beta   53.87530322
_cell_angle_gamma   53.87530012
_symmetry_Int_Tables_number   1
_chemical_formula_structural   Sc(CuS)3
_chemical_formula_sum   'Sc2 Cu6 S6'
_cell_volume   227.50047889
_cell_formula_units_Z   2
loop_
 _symmetry_equiv_pos_site_id
 _symmetry_equiv_pos_as_xyz
  1  'x, y, z'
loop_
 _atom_site_type_symbol
 _atom_site_label
 _atom_site_symmetry_multiplicity
 _atom_site_fract_x
 _atom_site_fract_y
 _atom_site_fract_z
 _atom_site_occupancy
  Sc  Sc0  1  0.66645541  0.66645541  0.66645541  1
  Sc  Sc1  1  0.33354459  0.33354459  0.33354459  1
  Cu  Cu0  1  0.87643202  0.54026064  0.21299079  1
  Cu  Cu1  1  0.54026064  0.21299079  0.87643202  1
  Cu  Cu2  1  0.21299079  0.87643202  0.54026064  1
  Cu  Cu3  1  0.78700921  0.12356798  0.45973936  1
  Cu  Cu4  1  0.45973936  0.78700921  0.12356798  1
  Cu  Cu5  1  0.12356798  0.45973936  0.78700921  1
  S  S0  1  0.07846647  0.74324011  0.41779769  1
  S  S1  1  0.41779769  0.07846647  0.74324011  1
  S  S2  1  0.74324011  0.41779769  0.07846647  1
  S  S3  1  0.25675989  0.58220231  0.92153353  1
  S  S4  1  0.58220231  0.92153353  0.25675989  1
  S  S5  1  0.92153353  0.25675989  0.58220231  1
loop_
_geom_bond_atom_site_label_1
_geom_bond_atom_site_label_2
_geom_bond_distance
_geom_bond_site_symmetry_2
Cu0 S5 2.279811 1_555
Cu0 S3 2.338244 1_654
Cu0 S4 2.349637 1_555
Cu0 S2 2.399410 1_555
Cu1 S3 2.279811 1_555
Cu1 S4 2.338244 1_546
Cu1 S5 2.349637 1_555
Cu1 S1 2.399410 1_555
Cu2 S4 2.279811 1_555
Cu2 S5 2.338243 1_465
Cu2 S3 2.349637 1_555
Cu2 S0 2.399410 1_555
Cu3 S1 2.279811 1_555
Cu3 S0 2.338243 1_645
Cu3 S2 2.349637 1_555
Cu3 S5 2.399410 1_555
Cu4 S2 2.279811 1_555
Cu4 S1 2.338244 1_564
Cu4 S0 2.349637 1_555
Cu4 S4 2.399410 1_555
Cu5 S0 2.279811 1_555
Cu5 S2 2.338244 1_456
Cu5 S1 2.349637 1_555
Cu5 S3 2.399410 1_555
S0 Sc0 2.615827 1_455
S0 Sc1 2.622605 1_555
S1 Sc0 2.615827 1_545
S1 Sc1 2.622605 1_555
S2 Sc0 2.615827 1_554
S2 Sc1 2.622605 1_555
S3 Sc1 2.615827 1_556
S3 Sc0 2.622605 1_555
S4 Sc1 2.615827 1_565
S4 Sc0 2.622605 1_555
S5 Sc1 2.615827 1_655
S5 Sc0 2.622605 1_555
