# generated using pymatgen
data_FeO
_symmetry_space_group_name_H-M   'P 1'
_cell_length_a   3.10229376
_cell_length_b   5.37569584
_cell_length_c   5.44381721
_cell_angle_alpha   110.55665729
_cell_angle_beta   91.09699170
_cell_angle_gamma   89.94660036
_symmetry_Int_Tables_number   1
_chemical_formula_structural   FeO
_chemical_formula_sum   'Fe4 O4'
_cell_volume   84.98847684
_cell_formula_units_Z   4
loop_
 _symmetry_equiv_pos_site_id
 _symmetry_equiv_pos_as_xyz
  1  'x, y, z'
loop_
 _atom_site_type_symbol
 _atom_site_label
 _atom_site_symmetry_multiplicity
 _atom_site_fract_x
 _atom_site_fract_y
 _atom_site_fract_z
 _atom_site_occupancy
  Fe  Fe0  1  0.50000000  0.00000000  0.50000000  1
  Fe  Fe1  1  0.00000000  0.50000000  0.50000000  1
  Fe  Fe2  1  0.00000000  0.00000000  0.00000000  1
  Fe  Fe3  1  0.50000100  0.50000000  0.00000000  1
  O  O0  1  0.96829100  0.25167600  0.74206600  1
  O  O1  1  0.46831300  0.25167300  0.24206800  1
  O  O2  1  0.03170900  0.74832400  0.25793400  1
  O  O3  1  0.53168600  0.74832700  0.75793200  1
loop_
_geom_bond_atom_site_label_1
_geom_bond_atom_site_label_2
_geom_bond_distance
_geom_bond_site_symmetry_2
Fe0 O0 2.087059 1_555
Fe0 O2 2.087059 1_545
Fe0 O2 2.261609 1_645
Fe0 O0 2.261609 1_455
Fe0 O3 2.267199 1_545
Fe0 O1 2.267199 1_555
Fe1 O1 2.150010 1_555
Fe1 O3 2.150012 1_455
Fe1 O0 2.183744 1_455
Fe1 O2 2.183744 1_555
Fe1 O3 2.252418 1_555
Fe1 O1 2.252420 1_455
Fe2 O1 2.087103 1_555
Fe2 O3 2.087105 1_444
Fe2 O3 2.261554 1_544
Fe2 O1 2.261556 1_455
Fe2 O2 2.267223 1_545
Fe2 O0 2.267223 1_454
Fe3 O0 2.149959 1_554
Fe3 O2 2.149963 1_555
Fe3 O3 2.183762 1_554
Fe3 O1 2.183763 1_555
Fe3 O2 2.252465 1_655
Fe3 O0 2.252470 1_454
