# generated using pymatgen
data_NdCoRu
_symmetry_space_group_name_H-M   'P 1'
_cell_length_a   5.35070993
_cell_length_b   5.35070993
_cell_length_c   5.30513368
_cell_angle_alpha   60.28136865
_cell_angle_beta   119.71863135
_cell_angle_gamma   121.93441944
_symmetry_Int_Tables_number   1
_chemical_formula_structural   NdCoRu
_chemical_formula_sum   'Nd2 Co2 Ru2'
_cell_volume   106.17757758
_cell_formula_units_Z   2
loop_
 _symmetry_equiv_pos_site_id
 _symmetry_equiv_pos_as_xyz
  1  'x, y, z'
loop_
 _atom_site_type_symbol
 _atom_site_label
 _atom_site_symmetry_multiplicity
 _atom_site_fract_x
 _atom_site_fract_y
 _atom_site_fract_z
 _atom_site_occupancy
  Nd  Nd0  1  0.24753300  0.75246700  0.74753300  1
  Nd  Nd1  1  0.00246700  0.99753300  0.00246700  1
  Co  Co0  1  0.62500000  0.37500000  0.87500000  1
  Co  Co1  1  0.62500000  0.37500000  0.37500000  1
  Ru  Ru0  1  0.62500000  0.87500000  0.37500000  1
  Ru  Ru1  1  0.12500000  0.37500000  0.37500000  1
loop_
_geom_bond_atom_site_label_1
_geom_bond_atom_site_label_2
_geom_bond_distance
_geom_bond_site_symmetry_2
Nd0 Ru1 3.112406 1_556
Nd0 Ru0 3.112406 1_556
Nd0 Ru1 3.112406 1_555
Nd0 Ru0 3.112406 1_555
Nd0 Ru1 3.151165 1_565
Nd0 Ru0 3.151165 1_455
Nd1 Ru1 3.112406 1_565
Nd1 Ru0 3.112406 1_455
Nd1 Ru1 3.112406 1_564
Nd1 Ru0 3.112406 1_454
Nd1 Ru0 3.151165 1_555
Nd1 Ru1 3.151165 1_555
Co0 Co1 2.652567 1_556
Co0 Co1 2.652567 1_555
Co0 Ru1 2.675355 1_555
Co0 Ru0 2.675355 1_555
Co0 Ru0 2.675355 1_546
Co0 Ru1 2.675355 1_656
Co0 Nd1 3.064973 1_546
Co0 Nd0 3.064973 1_545
Co0 Nd1 3.064973 1_656
Co0 Nd0 3.064973 1_655
Co0 Nd0 3.197328 1_555
Co0 Nd1 3.197328 1_646
Co1 Ru1 2.675355 1_555
Co1 Ru0 2.675355 1_545
Co1 Ru0 2.675355 1_555
Co1 Ru1 2.675355 1_655
Co1 Nd1 3.064973 1_655
Co1 Nd0 3.064973 1_545
Co1 Nd1 3.064973 1_545
Co1 Nd0 3.064973 1_655
Co1 Nd1 3.197328 1_646
Co1 Nd0 3.197328 1_554
Ru0 Ru1 2.596753 1_555
Ru0 Ru1 2.596753 1_665
