# generated using pymatgen
data_RbMg14Ni
_symmetry_space_group_name_H-M   'P 1'
_cell_length_a   6.54263016
_cell_length_b   6.31817238
_cell_length_c   10.53997806
_cell_angle_alpha   90.00000000
_cell_angle_beta   90.00000000
_cell_angle_gamma   118.87148379
_symmetry_Int_Tables_number   1
_chemical_formula_structural   RbMg14Ni
_chemical_formula_sum   'Rb1 Mg14 Ni1'
_cell_volume   381.54112246
_cell_formula_units_Z   1
loop_
 _symmetry_equiv_pos_site_id
 _symmetry_equiv_pos_as_xyz
  1  'x, y, z'
loop_
 _atom_site_type_symbol
 _atom_site_label
 _atom_site_symmetry_multiplicity
 _atom_site_fract_x
 _atom_site_fract_y
 _atom_site_fract_z
 _atom_site_occupancy
  Rb  Rb0  1  0.09775092  0.79887496  0.12500000  1
  Mg  Mg0  1  0.16147242  0.33073571  0.62500000  1
  Mg  Mg1  1  0.17795621  0.83897760  0.62500000  1
  Mg  Mg2  1  0.59610126  0.30373573  0.12500000  1
  Mg  Mg3  1  0.66952660  0.32778982  0.62500000  1
  Mg  Mg4  1  0.59610126  0.79236453  0.12500000  1
  Mg  Mg5  1  0.66952660  0.84173578  0.62500000  1
  Mg  Mg6  1  0.34949351  0.18139281  0.38280268  1
  Mg  Mg7  1  0.34949351  0.18139281  0.86719732  1
  Mg  Mg8  1  0.34949351  0.66810170  0.38280268  1
  Mg  Mg9  1  0.34949351  0.66810170  0.86719732  1
  Mg  Mg10  1  0.87455541  0.18727821  0.33129304  1
  Mg  Mg11  1  0.87455541  0.18727821  0.91870696  1
  Mg  Mg12  1  0.83234739  0.66617419  0.40191667  1
  Mg  Mg13  1  0.83234739  0.66617419  0.84808333  1
  Ni  Ni0  1  0.21978511  0.35989206  0.12500000  1
loop_
_geom_bond_atom_site_label_1
_geom_bond_atom_site_label_2
_geom_bond_distance
_geom_bond_site_symmetry_2
Mg0 Mg1 3.160498 1_555
Mg0 Mg1 3.160498 1_545
Mg0 Mg6 3.168767 1_555
Mg0 Mg7 3.168767 1_555
Mg0 Mg8 3.168773 1_555
Mg0 Mg9 3.168773 1_555
Mg0 Mg5 3.209674 1_445
Mg0 Mg3 3.209674 1_455
Mg0 Mg5 3.333037 1_555
Mg0 Mg3 3.333038 1_555
Mg0 Mg10 3.505059 1_455
Mg0 Mg11 3.505059 1_455
Mg1 Mg12 3.074007 1_455
Mg1 Mg13 3.074007 1_455
Mg1 Mg8 3.179907 1_555
Mg1 Mg9 3.179907 1_555
Mg1 Mg6 3.179913 1_565
Mg1 Mg7 3.179913 1_565
Mg1 Mg3 3.207785 1_565
Mg1 Mg5 3.207785 1_555
Mg1 Mg3 3.334916 1_455
Mg1 Mg5 3.334916 1_455
Mg2 Ni0 2.651680 1_555
Mg2 Mg6 3.062636 1_555
Mg2 Mg7 3.062636 1_554
Mg2 Rb0 3.262445 1_655
Mg2 Rb0 3.280581 1_545
Mg3 Mg5 3.070973 1_545
Mg3 Mg6 3.144210 1_555
Mg3 Mg7 3.144210 1_555
Mg3 Mg5 3.247199 1_555
Mg4 Ni0 2.651680 1_555
Mg4 Mg9 3.062636 1_554
Mg4 Mg8 3.062636 1_555
Mg4 Rb0 3.262446 1_655
Mg4 Rb0 3.280581 1_555
Mg5 Mg9 3.144210 1_555
Mg5 Mg8 3.144210 1_555
Mg6 Mg8 3.075111 1_555
Mg6 Ni0 3.209314 1_555
Mg6 Mg8 3.243062 1_545
Mg6 Rb0 3.477511 1_545
Mg7 Mg9 3.075111 1_555
Mg7 Ni0 3.209314 1_556
Mg7 Mg9 3.243062 1_545
Mg7 Rb0 3.477511 1_546
Mg8 Ni0 3.209320 1_555
Mg8 Rb0 3.477505 1_555
Mg9 Ni0 3.209320 1_556
Mg9 Rb0 3.477505 1_556
Mg10 Ni0 2.939392 1_655
Mg10 Mg8 3.172271 1_655
Mg10 Mg6 3.172271 1_655
Mg10 Mg8 3.460341 1_545
Mg10 Mg6 3.460342 1_555
Mg11 Ni0 2.939392 1_656
Mg11 Mg9 3.172271 1_655
Mg11 Mg7 3.172271 1_655
Mg11 Mg9 3.460341 1_545
Mg11 Mg7 3.460342 1_555
Mg12 Mg5 3.005807 1_555
Mg12 Mg3 3.005814 1_555
Mg12 Mg6 3.171438 1_555
Mg12 Mg8 3.171438 1_555
Mg12 Rb0 3.291053 1_655
Mg12 Mg6 3.383635 1_665
Mg12 Mg8 3.383635 1_655
Mg13 Mg5 3.005807 1_555
Mg13 Mg3 3.005814 1_555
Mg13 Mg7 3.171438 1_555
Mg13 Mg9 3.171438 1_555
Mg13 Rb0 3.291053 1_656
Mg13 Mg7 3.383635 1_665
Mg13 Mg9 3.383635 1_655
Ni0 Rb0 3.235535 1_545
Ni0 Rb0 3.235535 1_555
