# generated using pymatgen
data_MgMn2P2(H2O5)2
_symmetry_space_group_name_H-M   'P 1'
_cell_length_a   5.56251212
_cell_length_b   5.21883558
_cell_length_c   8.02219753
_cell_angle_alpha   101.00211964
_cell_angle_beta   109.38352148
_cell_angle_gamma   103.51434694
_symmetry_Int_Tables_number   1
_chemical_formula_structural   MgMn2P2(H2O5)2
_chemical_formula_sum   'Mg1 Mn2 P2 H4 O10'
_cell_volume   204.24964015
_cell_formula_units_Z   1
loop_
 _symmetry_equiv_pos_site_id
 _symmetry_equiv_pos_as_xyz
  1  'x, y, z'
loop_
 _atom_site_type_symbol
 _atom_site_label
 _atom_site_symmetry_multiplicity
 _atom_site_fract_x
 _atom_site_fract_y
 _atom_site_fract_z
 _atom_site_occupancy
  Mg  Mg0  1  0.01965300  0.78488700  0.09137700  1
  Mn  Mn0  1  0.01479800  0.55806700  0.51780000  1
  Mn  Mn1  1  0.52753500  0.01972500  0.98679400  1
  P  P0  1  0.36264300  0.50822800  0.20942100  1
  P  P1  1  0.62654900  0.47428100  0.75281600  1
  H  H0  1  0.77430200  0.86096200  0.30505100  1
  H  H1  1  0.03094100  0.14967900  0.33498400  1
  H  H2  1  0.19535400  0.12976000  0.69444200  1
  H  H3  1  0.98904100  0.94053500  0.76617900  1
  O  O0  1  0.31710000  0.65086900  0.05172100  1
  O  O1  1  0.16876800  0.58381300  0.30015200  1
  O  O2  1  0.69745600  0.38263400  0.93326700  1
  O  O3  1  0.76880800  0.37175800  0.63471700  1
  O  O4  1  0.66348200  0.64086500  0.34630900  1
  O  O5  1  0.29878600  0.19247500  0.13836800  1
  O  O6  1  0.31592900  0.37983200  0.64143700  1
  O  O7  1  0.74160000  0.80069200  0.83946800  1
  O  O8  1  0.14715400  0.95028800  0.73017500  1
  O  O9  1  0.86509700  0.00815100  0.24337700  1
loop_
_geom_bond_atom_site_label_1
_geom_bond_atom_site_label_2
_geom_bond_distance
_geom_bond_site_symmetry_2
Mg0 O0 2.033041 1_555
Mg0 O9 2.050699 1_465
Mg0 O7 2.128713 1_454
Mg0 O1 2.179395 1_555
Mg0 O5 2.199864 1_565
Mg0 O2 2.223551 1_454
Mn0 O3 2.067747 1_455
Mn0 O6 2.152284 1_555
Mn0 O4 2.176071 1_455
Mn0 O8 2.183250 1_555
Mn0 O1 2.197389 1_555
Mn1 O2 2.099526 1_555
Mn1 O5 2.248362 1_556
Mn1 O0 2.254185 1_546
Mn1 O7 2.275084 1_545
Mn1 O9 2.302434 1_556
Mn1 O8 2.304745 1_545
H0 O9 1.104323 1_565
H0 O4 1.326101 1_555
H1 O9 0.980300 1_455
H1 Mn0 2.384369 1_555
H2 O8 1.033184 1_545
H2 O6 1.525094 1_555
H3 O8 1.006405 1_655
H3 O7 1.733266 1_555
O0 P0 1.566425 1_555
O1 P0 1.568015 1_555
O2 P1 1.566321 1_555
O3 P1 1.520557 1_555
O4 P0 1.560154 1_555
O5 P0 1.549208 1_555
O6 P1 1.560701 1_555
O7 P1 1.593060 1_555
