# generated using pymatgen
data_KLiMg14O15
_symmetry_space_group_name_H-M   'P 1'
_cell_length_a   8.66032367
_cell_length_b   8.48243444
_cell_length_c   4.31621264
_cell_angle_alpha   90.00000000
_cell_angle_beta   90.00000000
_cell_angle_gamma   90.00000000
_symmetry_Int_Tables_number   1
_chemical_formula_structural   KLiMg14O15
_chemical_formula_sum   'K1 Li1 Mg14 O15'
_cell_volume   317.07169008
_cell_formula_units_Z   1
loop_
 _symmetry_equiv_pos_site_id
 _symmetry_equiv_pos_as_xyz
  1  'x, y, z'
loop_
 _atom_site_type_symbol
 _atom_site_label
 _atom_site_symmetry_multiplicity
 _atom_site_fract_x
 _atom_site_fract_y
 _atom_site_fract_z
 _atom_site_occupancy
  K  K0  1  0.98137878  0.00000000  0.00000000  1
  Li  Li0  1  0.52430150  0.50000000  0.00000000  1
  Mg  Mg0  1  0.97459770  0.50000000  0.00000000  1
  Mg  Mg1  1  0.49422669  0.00000000  0.00000000  1
  Mg  Mg2  1  0.01004248  0.25206368  0.50000000  1
  Mg  Mg3  1  0.01004248  0.74793632  0.50000000  1
  Mg  Mg4  1  0.49510647  0.25727426  0.50000000  1
  Mg  Mg5  1  0.49510647  0.74272574  0.50000000  1
  Mg  Mg6  1  0.25359113  0.00000000  0.50000000  1
  Mg  Mg7  1  0.25307832  0.50000000  0.50000000  1
  Mg  Mg8  1  0.73597534  0.00000000  0.50000000  1
  Mg  Mg9  1  0.74191109  0.50000000  0.50000000  1
  Mg  Mg10  1  0.25589853  0.22880870  -0.00000000  1
  Mg  Mg11  1  0.25589853  0.77119130  0.00000000  1
  Mg  Mg12  1  0.72939429  0.25089839  0.00000000  1
  Mg  Mg13  1  0.72939429  0.74910161  -0.00000000  1
  O  O0  1  0.27029460  0.00000000  0.00000000  1
  O  O1  1  0.71516437  0.00000000  0.00000000  1
  O  O2  1  0.74744588  0.50000000  0.00000000  1
  O  O3  1  0.25589477  0.26147814  0.50000000  1
  O  O4  1  0.25589477  0.73852186  0.50000000  1
  O  O5  1  0.75087562  0.24972593  0.50000000  1
  O  O6  1  0.75087562  0.75027407  0.50000000  1
  O  O7  1  0.02499704  0.00000000  0.50000000  1
  O  O8  1  0.00660503  0.50000000  0.50000000  1
  O  O9  1  0.49440681  0.00000000  0.50000000  1
  O  O10  1  0.49129929  0.50000000  0.50000000  1
  O  O11  1  0.03187086  0.28323459  0.00000000  1
  O  O12  1  0.03187086  0.71676541  0.00000000  1
  O  O13  1  0.49128020  0.25559389  0.00000000  1
  O  O14  1  0.49128020  0.74440611  0.00000000  1
loop_
_geom_bond_atom_site_label_1
_geom_bond_atom_site_label_2
_geom_bond_distance
_geom_bond_site_symmetry_2
K0 O7 2.190917 1_655
K0 O7 2.190917 1_654
K0 O1 2.305503 1_555
K0 O12 2.441989 1_645
K0 O11 2.441989 1_655
K0 O0 2.502105 1_655
Li0 O2 1.932503 1_555
Li0 O14 2.092790 1_555
Li0 O13 2.092790 1_555
Li0 O10 2.176950 1_555
Li0 O10 2.176950 1_554
Mg0 O11 1.904424 1_655
Mg0 O12 1.904424 1_655
Mg0 O2 1.967208 1_555
Mg0 O8 2.175835 1_655
Mg0 O8 2.175835 1_654
Mg1 O1 1.913392 1_555
Mg1 O0 1.939324 1_555
Mg1 O9 2.158107 1_555
Mg1 O9 2.158107 1_554
Mg1 O14 2.168209 1_545
Mg1 O13 2.168209 1_555
Mg2 O8 2.103314 1_555
Mg2 O3 2.130657 1_555
Mg2 O7 2.142032 1_555
Mg2 O11 2.182446 1_556
Mg2 O11 2.182446 1_555
Mg2 O5 2.244556 1_455
Mg3 O8 2.103314 1_555
Mg3 O4 2.130657 1_555
Mg3 O7 2.142032 1_565
Mg3 O12 2.182446 1_556
Mg3 O12 2.182446 1_555
Mg3 O6 2.244556 1_455
Mg4 O10 2.059169 1_555
Mg4 O3 2.071958 1_555
Mg4 O13 2.158408 1_555
Mg4 O13 2.158408 1_556
Mg4 O9 2.182320 1_555
Mg4 O5 2.215969 1_555
Mg5 O10 2.059169 1_555
Mg5 O4 2.071958 1_555
Mg5 O14 2.158408 1_555
Mg5 O14 2.158408 1_556
Mg5 O9 2.182320 1_565
Mg5 O6 2.215969 1_555
Mg6 O7 1.979699 1_555
Mg6 O9 2.085542 1_555
Mg6 O0 2.162949 1_556
Mg6 O0 2.162949 1_555
Mg6 O3 2.218061 1_555
Mg6 O4 2.218061 1_545
Mg7 O4 2.023393 1_555
Mg7 O3 2.023393 1_555
Mg7 O10 2.063071 1_555
Mg7 O8 2.134538 1_555
Mg8 O9 2.092062 1_555
Mg8 O6 2.122211 1_545
Mg8 O5 2.122211 1_555
Mg8 O1 2.165619 1_556
Mg8 O1 2.165619 1_555
Mg8 O7 2.503021 1_655
Mg9 O6 2.124352 1_555
Mg9 O5 2.124352 1_555
Mg9 O2 2.158639 1_555
Mg9 O2 2.158639 1_556
Mg9 O10 2.170379 1_555
Mg9 O8 2.292335 1_655
Mg10 O0 1.944855 1_555
Mg10 O11 1.994323 1_555
Mg10 O13 2.051104 1_555
Mg10 O3 2.175825 1_554
Mg10 O3 2.175825 1_555
Mg11 O0 1.944855 1_565
Mg11 O12 1.994323 1_555
Mg11 O14 2.051104 1_555
Mg11 O4 2.175825 1_554
Mg11 O4 2.175825 1_555
Mg12 O13 2.062530 1_555
Mg12 O2 2.118763 1_555
Mg12 O1 2.131794 1_555
Mg12 O5 2.166133 1_555
Mg12 O5 2.166133 1_554
Mg12 O11 2.633866 1_655
Mg13 O14 2.062530 1_555
Mg13 O2 2.118763 1_555
Mg13 O1 2.131794 1_565
Mg13 O6 2.166133 1_555
Mg13 O6 2.166133 1_554
Mg13 O12 2.633866 1_655
