# generated using pymatgen
data_Li9Mn2Co5O16
_symmetry_space_group_name_H-M   'P 1'
_cell_length_a   5.00031200
_cell_length_b   7.77547748
_cell_length_c   7.79953881
_cell_angle_alpha   97.93736387
_cell_angle_beta   101.87182212
_cell_angle_gamma   102.41667677
_symmetry_Int_Tables_number   1
_chemical_formula_structural   Li9Mn2Co5O16
_chemical_formula_sum   'Li9 Mn2 Co5 O16'
_cell_volume   284.49435465
_cell_formula_units_Z   1
loop_
 _symmetry_equiv_pos_site_id
 _symmetry_equiv_pos_as_xyz
  1  'x, y, z'
loop_
 _atom_site_type_symbol
 _atom_site_label
 _atom_site_symmetry_multiplicity
 _atom_site_fract_x
 _atom_site_fract_y
 _atom_site_fract_z
 _atom_site_occupancy
  Li  Li0  1  0.48799700  0.74422200  0.73932500  1
  Li  Li1  1  0.01484200  0.38230100  0.13211100  1
  Li  Li2  1  0.50185800  0.99571700  0.49606400  1
  Li  Li3  1  0.97737500  0.86868200  0.61311600  1
  Li  Li4  1  0.49682800  0.50342700  0.00550100  1
  Li  Li5  1  0.99373500  0.12680700  0.37734900  1
  Li  Li6  1  0.00773100  0.62127900  0.87507000  1
  Li  Li7  1  0.50770400  0.26152700  0.25781500  1
  Li  Li8  1  0.49733600  0.62623600  0.37085600  1
  Mn  Mn0  1  0.00083900  0.99533400  0.00375200  1
  Mn  Mn1  1  0.99956500  0.74585400  0.25394800  1
  Co  Co0  1  0.00177000  0.25511700  0.74464200  1
  Co  Co1  1  0.50090200  0.87239700  0.12846500  1
  Co  Co2  1  0.00739400  0.50084200  0.49203800  1
  Co  Co3  1  0.50317900  0.12636900  0.87559500  1
  Co  Co4  1  0.50893700  0.38807100  0.61867300  1
  O  O0  1  0.76024200  0.76629800  0.01890000  1
  O  O1  1  0.23882200  0.37700700  0.38603700  1
  O  O2  1  0.75889200  0.00181600  0.77134800  1
  O  O3  1  0.25536300  0.88585900  0.89727000  1
  O  O4  1  0.77376500  0.51754500  0.25002800  1
  O  O5  1  0.25300300  0.13929000  0.63896700  1
  O  O6  1  0.24917300  0.64888900  0.13213400  1
  O  O7  1  0.75098200  0.25429600  0.50583200  1
  O  O8  1  0.22128200  0.75067700  0.48360400  1
  O  O9  1  0.75361100  0.35845700  0.86776500  1
  O  O10  1  0.24133200  0.98119400  0.23301000  1
  O  O11  1  0.75111800  0.86905400  0.35134500  1
  O  O12  1  0.24345500  0.49584300  0.74368400  1
  O  O13  1  0.74886200  0.10245900  0.11500400  1
  O  O14  1  0.74747700  0.60973800  0.62316200  1
  O  O15  1  0.24462700  0.22739100  0.99759000  1
loop_
_geom_bond_atom_site_label_1
_geom_bond_atom_site_label_2
_geom_bond_distance
_geom_bond_site_symmetry_2
Li0 O12 2.060543 1_555
Li0 O14 2.098389 1_555
Li0 O2 2.113007 1_565
Li0 O8 2.172834 1_555
Li0 O3 2.202131 1_555
Li0 O0 2.283036 1_556
Li1 O4 2.034453 1_455
Li1 O1 2.075606 1_555
Li1 O15 2.148017 1_554
Li1 O6 2.150575 1_555
Li1 O9 2.161884 1_454
Li1 O13 2.263521 1_455
Li2 O8 2.085948 1_555
Li2 O7 2.107502 1_565
Li2 O11 2.144102 1_555
Li2 O10 2.166179 1_555
Li2 O5 2.204839 1_565
Li2 O2 2.252636 1_565
Li3 O8 2.020361 1_655
Li3 O14 2.113469 1_555
Li3 O2 2.115764 1_565
Li3 O11 2.121587 1_555
Li3 O5 2.211071 1_665
Li3 O3 2.330825 1_655
Li4 O4 2.087393 1_555
Li4 O6 2.141333 1_555
Li4 O12 2.156093 1_554
Li4 O0 2.156422 1_555
Li4 O9 2.220096 1_554
Li4 O15 2.228952 1_554
Li5 O1 2.048242 1_655
Li5 O7 2.050333 1_555
Li5 O11 2.066505 1_545
Li5 O13 2.117639 1_555
Li5 O5 2.157902 1_655
Li5 O10 2.215022 1_645
Li6 O12 2.026328 1_555
Li6 O6 2.072993 1_556
Li6 O14 2.100227 1_455
Li6 O3 2.124472 1_555
Li6 O9 2.148349 1_455
Li6 O0 2.209820 1_456
Li7 O7 2.077542 1_555
Li7 O1 2.106760 1_555
Li7 O15 2.126702 1_554
Li7 O4 2.159652 1_555
Li7 O13 2.244567 1_555
Li7 O10 2.256476 1_545
Li8 O6 2.066769 1_555
Li8 O11 2.080051 1_555
Li8 O4 2.081170 1_555
Li8 O8 2.110387 1_555
Li8 O1 2.118826 1_555
Li8 O14 2.139958 1_555
Mn0 O13 1.932815 1_465
Mn0 O3 1.933809 1_554
Mn0 O0 1.956535 1_455
Mn0 O15 1.961166 1_564
Mn0 O10 1.970266 1_555
Mn0 O2 1.975103 1_464
Mn1 O4 1.880418 1_555
Mn1 O8 1.893532 1_655
Mn1 O6 1.929678 1_655
Mn1 O11 1.933170 1_555
Mn1 O10 2.012223 1_655
Mn1 O0 2.019366 1_555
Co0 O5 1.943226 1_555
Co0 O9 1.952829 1_455
Co0 O12 1.999708 1_555
Co0 O7 2.018453 1_455
Co0 O2 2.141529 1_455
Co0 O15 2.158172 1_555
Co1 O6 1.921790 1_555
Co1 O11 1.928615 1_555
Co1 O10 1.944802 1_555
Co1 O0 1.952893 1_555
Co1 O13 1.974816 1_565
Co1 O3 1.991593 1_554
Co2 O1 1.898094 1_555
Co2 O8 2.023017 1_555
Co2 O4 2.042103 1_455
Co2 O14 2.057415 1_455
Co2 O12 2.081986 1_555
Co2 O7 2.094547 1_455
Co3 O9 1.979520 1_555
Co3 O15 1.982481 1_555
Co3 O2 1.994178 1_555
Co3 O5 2.033843 1_555
Co3 O3 2.058702 1_545
Co3 O13 2.068997 1_556
Co4 O14 1.864587 1_555
Co4 O1 2.005620 1_555
Co4 O7 2.012009 1_555
Co4 O12 2.049489 1_555
Co4 O5 2.123208 1_555
Co4 O9 2.142674 1_555
