# generated using pymatgen
data_Li9Mn2Co5O16
_symmetry_space_group_name_H-M   'P 1'
_cell_length_a   10.54209595
_cell_length_b   10.54209595
_cell_length_c   9.90066063
_cell_angle_alpha   72.88560103
_cell_angle_beta   72.88560103
_cell_angle_gamma   16.05177686
_symmetry_Int_Tables_number   1
_chemical_formula_structural   Li9Mn2Co5O16
_chemical_formula_sum   'Li9 Mn2 Co5 O16'
_cell_volume   290.49795440
_cell_formula_units_Z   1
loop_
 _symmetry_equiv_pos_site_id
 _symmetry_equiv_pos_as_xyz
  1  'x, y, z'
loop_
 _atom_site_type_symbol
 _atom_site_label
 _atom_site_symmetry_multiplicity
 _atom_site_fract_x
 _atom_site_fract_y
 _atom_site_fract_z
 _atom_site_occupancy
  Li  Li0  1  0.42943800  0.42943800  0.80920100  1
  Li  Li1  1  0.31409200  0.31409200  0.45361000  1
  Li  Li2  1  0.18962500  0.18962500  0.05836200  1
  Li  Li3  1  0.81104200  0.81104200  0.92896400  1
  Li  Li4  1  0.69055100  0.69055100  0.56965400  1
  Li  Li5  1  0.56425800  0.56425800  0.17996700  1
  Li  Li6  1  0.06565100  0.06565100  0.67814500  1
  Li  Li7  1  0.93185000  0.93185000  0.33104800  1
  Li  Li8  1  0.87396900  0.87396900  0.62297300  1
  Mn  Mn0  1  0.00046700  0.00046700  0.99677500  1
  Mn  Mn1  1  0.49583800  0.49583800  0.49983900  1
  Co  Co0  1  0.75094200  0.75094200  0.25783100  1
  Co  Co1  1  0.63251800  0.63251800  0.86948800  1
  Co  Co2  1  0.37184500  0.37184500  0.12352500  1
  Co  Co3  1  0.26021700  0.26021700  0.74128200  1
  Co  Co4  1  0.12542700  0.12542700  0.37498600  1
  O  O0  1  0.52904500  0.52904500  0.86261200  1
  O  O1  1  0.41387400  0.41387400  0.46894700  1
  O  O2  1  0.28427600  0.28427600  0.10474100  1
  O  O3  1  0.91082300  0.91082300  0.97528800  1
  O  O4  1  0.77942500  0.77942500  0.60173700  1
  O  O5  1  0.65740100  0.65740100  0.23068200  1
  O  O6  1  0.15367700  0.15367700  0.72797100  1
  O  O7  1  0.02880000  0.02880000  0.35921100  1
  O  O8  1  0.33798200  0.33798200  0.78645200  1
  O  O9  1  0.21816500  0.21816500  0.39852700  1
  O  O10  1  0.08700700  0.08700700  0.02465400  1
  O  O11  1  0.71324300  0.71324300  0.90660400  1
  O  O12  1  0.59120800  0.59120800  0.51569200  1
  O  O13  1  0.46925500  0.46925500  0.13420500  1
  O  O14  1  0.97410700  0.97410700  0.63548500  1
  O  O15  1  0.84398200  0.84398200  0.27154300  1
loop_
_geom_bond_atom_site_label_1
_geom_bond_atom_site_label_2
_geom_bond_distance
_geom_bond_site_symmetry_2
Li0 O8 1.987991 1_555
Li0 O3 2.154441 1_545
Li0 O3 2.154441 1_455
Li0 O14 2.245192 1_545
Li0 O14 2.245192 1_455
Li0 O0 2.292999 1_555
Li1 O4 2.051874 1_455
Li1 O4 2.051874 1_545
Li1 O1 2.133276 1_555
Li1 O9 2.226554 1_555
Li1 O15 2.266404 1_545
Li1 O15 2.266404 1_455
Li2 O11 2.055910 1_454
Li2 O11 2.055910 1_544
Li2 O2 2.157574 1_555
Li2 O5 2.201719 1_455
Li2 O5 2.201719 1_545
Li2 O10 2.264143 1_555
Li3 O8 2.000483 1_655
Li3 O8 2.000483 1_565
Li3 O11 2.118181 1_555
Li3 O2 2.220219 1_566
Li3 O2 2.220219 1_656
Li3 O3 2.262287 1_555
Li4 O4 1.973330 1_555
Li4 O6 2.121031 1_565
Li4 O6 2.121031 1_655
Li4 O9 2.188336 1_565
Li4 O9 2.188336 1_655
Li4 O12 2.290359 1_555
Li5 O10 2.079056 1_655
Li5 O10 2.079056 1_565
Li5 O5 2.148019 1_555
Li5 O13 2.161818 1_555
Li5 O7 2.254541 1_655
Li5 O7 2.254541 1_565
Li6 O6 2.039522 1_555
Li6 O14 2.076289 1_445
Li6 O12 2.127909 1_545
Li6 O12 2.127909 1_455
Li6 O0 2.292695 1_455
Li6 O0 2.292695 1_545
Li7 O1 1.966413 1_655
Li7 O1 1.966413 1_565
Li7 O15 2.086813 1_555
Li7 O7 2.123711 1_665
Li7 O13 2.381139 1_655
Li7 O13 2.381139 1_565
Li8 O4 2.046215 1_555
Li8 O1 2.104973 1_655
Li8 O1 2.104973 1_565
Li8 O14 2.130749 1_555
Li8 O8 2.151246 1_655
Li8 O8 2.151246 1_565
Mn0 O10 1.907083 1_556
Mn0 O3 1.945415 1_445
Mn0 O0 1.953401 1_455
Mn0 O0 1.953401 1_545
Mn0 O13 1.978750 1_456
Mn0 O13 1.978750 1_546
Mn1 O1 1.825623 1_555
Mn1 O14 1.952884 1_545
Mn1 O14 1.952884 1_455
Mn1 O7 2.002266 1_655
Mn1 O7 2.002266 1_565
Mn1 O12 2.043253 1_555
Co0 O15 1.987037 1_555
Co0 O9 2.002140 1_655
Co0 O9 2.002140 1_565
Co0 O5 2.048939 1_555
Co0 O2 2.078737 1_655
Co0 O2 2.078737 1_565
Co1 O11 1.828539 1_555
Co1 O6 1.989180 1_655
Co1 O6 1.989180 1_565
Co1 O10 2.135818 1_566
Co1 O10 2.135818 1_656
Co1 O0 2.181476 1_555
Co2 O2 1.891859 1_555
Co2 O15 2.036118 1_455
Co2 O15 2.036118 1_545
Co2 O3 2.067071 1_544
Co2 O3 2.067071 1_454
Co2 O13 2.067585 1_555
Co3 O8 1.807619 1_555
Co3 O4 1.976552 1_455
Co3 O4 1.976552 1_545
Co3 O11 2.203008 1_545
Co3 O11 2.203008 1_455
Co3 O6 2.266969 1_555
Co4 O12 2.006485 1_545
Co4 O12 2.006485 1_455
Co4 O9 2.017730 1_555
Co4 O5 2.021486 1_455
Co4 O5 2.021486 1_545
Co4 O7 2.069144 1_555
