# generated using pymatgen
data_Cs2B6NO2
_symmetry_space_group_name_H-M   'P 1'
_cell_length_a   9.72634600
_cell_length_b   9.48826600
_cell_length_c   11.22173010
_cell_angle_alpha   77.75120990
_cell_angle_beta   90.00000000
_cell_angle_gamma   90.00000000
_symmetry_Int_Tables_number   1
_chemical_formula_structural   Cs2B6NO2
_chemical_formula_sum   'Cs8 B24 N4 O8'
_cell_volume   1012.03529565
_cell_formula_units_Z   4
loop_
 _symmetry_equiv_pos_site_id
 _symmetry_equiv_pos_as_xyz
  1  'x, y, z'
loop_
 _atom_site_type_symbol
 _atom_site_label
 _atom_site_symmetry_multiplicity
 _atom_site_fract_x
 _atom_site_fract_y
 _atom_site_fract_z
 _atom_site_occupancy
  Cs  Cs0  1  0.40613800  0.26518900  0.58594400  1
  Cs  Cs1  1  0.90613800  0.23481100  0.41405600  1
  Cs  Cs2  1  0.59386200  0.73481100  0.41405600  1
  Cs  Cs3  1  0.09386200  0.76518900  0.58594400  1
  Cs  Cs4  1  0.25364200  0.49742900  0.02206200  1
  Cs  Cs5  1  0.75364200  0.00257100  0.97793800  1
  Cs  Cs6  1  0.74635800  0.50257100  0.97793800  1
  Cs  Cs7  1  0.24635800  0.99742900  0.02206200  1
  B  B0  1  0.40996300  0.17538500  0.26127800  1
  B  B1  1  0.90996300  0.32461500  0.73872200  1
  B  B2  1  0.59003700  0.82461500  0.73872200  1
  B  B3  1  0.09003700  0.67538500  0.26127800  1
  B  B4  1  0.52725700  0.06127500  0.21440500  1
  B  B5  1  0.02725700  0.43872500  0.78559500  1
  B  B6  1  0.47274300  0.93872500  0.78559500  1
  B  B7  1  0.97274300  0.56127500  0.21440500  1
  B  B8  1  0.56722200  0.13734400  0.33424200  1
  B  B9  1  0.06722200  0.36265600  0.66575800  1
  B  B10  1  0.43277800  0.86265600  0.66575800  1
  B  B11  1  0.93277800  0.63734400  0.33424200  1
  B  B12  1  0.53504400  0.30442800  0.24950000  1
  B  B13  1  0.03504400  0.19557200  0.75050000  1
  B  B14  1  0.46495600  0.69557200  0.75050000  1
  B  B15  1  0.96495600  0.80442800  0.24950000  1
  B  B16  1  0.50154400  0.22741300  0.12591200  1
  B  B17  1  0.00154400  0.27258700  0.87408800  1
  B  B18  1  0.49845600  0.77258700  0.87408800  1
  B  B19  1  0.99845600  0.72741300  0.12591200  1
  B  B20  1  0.65551900  0.19698800  0.19914700  1
  B  B21  1  0.15551900  0.30301200  0.80085300  1
  B  B22  1  0.34448100  0.80301200  0.80085300  1
  B  B23  1  0.84448100  0.69698800  0.19914700  1
  N  N0  1  0.25940100  0.16491900  0.29698100  1
  N  N1  1  0.75940100  0.33508100  0.70301900  1
  N  N2  1  0.74059900  0.83508100  0.70301900  1
  N  N3  1  0.24059900  0.66491900  0.29698100  1
  O  O0  1  0.16818700  0.19442400  0.21548100  1
  O  O1  1  0.66818700  0.30557600  0.78451900  1
  O  O2  1  0.83181300  0.80557600  0.78451900  1
  O  O3  1  0.33181300  0.69442400  0.21548100  1
  O  O4  1  0.22517600  0.12708600  0.40779900  1
  O  O5  1  0.72517600  0.37291400  0.59220100  1
  O  O6  1  0.77482400  0.87291400  0.59220100  1
  O  O7  1  0.27482400  0.62708600  0.40779900  1
loop_
_geom_bond_atom_site_label_1
_geom_bond_atom_site_label_2
_geom_bond_distance
_geom_bond_site_symmetry_2
Cs0 O4 3.150059 1_555
Cs0 O5 3.272489 1_555
Cs1 O5 3.150059 1_555
Cs1 O4 3.272489 1_655
Cs2 O6 3.150059 1_555
Cs2 O7 3.272489 1_555
Cs3 O7 3.150059 1_555
Cs3 O6 3.272489 1_455
Cs4 O3 3.241026 1_555
Cs4 O0 3.319590 1_555
Cs5 O2 3.241026 1_545
Cs5 O1 3.319590 1_555
Cs6 O1 3.241026 1_555
Cs6 O2 3.319590 1_555
Cs7 O0 3.241026 1_565
Cs7 O3 3.319590 1_555
B0 N0 1.515922 1_555
B0 B12 1.711144 1_555
B0 B4 1.729766 1_555
B0 B8 1.736325 1_555
B0 B16 1.739663 1_555
B1 N1 1.515922 1_555
B1 B13 1.711144 1_655
B1 B5 1.729766 1_655
B1 B9 1.736325 1_655
B1 B17 1.739663 1_655
B2 N2 1.515922 1_555
B2 B6 1.729766 1_555
B3 N3 1.515922 1_555
B3 B7 1.729766 1_455
B4 B8 1.700680 1_555
B4 Cs2 3.476994 1_545
B4 Cs5 3.581506 1_554
B4 Cs7 3.611794 1_545
B5 B9 1.700680 1_555
B5 Cs3 3.476994 1_555
B5 Cs4 3.581506 1_556
B5 Cs6 3.611794 1_455
B6 Cs0 3.476994 1_565
B6 Cs7 3.581506 1_556
B6 Cs5 3.611794 1_565
B7 Cs1 3.476994 1_555
B7 Cs6 3.581506 1_554
B7 Cs4 3.611794 1_655
B8 Cs1 3.588208 1_555
B8 Cs0 3.654853 1_555
B8 Cs2 3.742352 1_545
B9 Cs0 3.588208 1_555
B9 Cs1 3.654853 1_455
B9 Cs3 3.742352 1_555
B10 B14 1.695839 1_555
B10 B6 1.700680 1_555
B10 B22 1.729750 1_555
B10 B2 1.736325 1_555
B10 Cs3 3.588208 1_555
B10 Cs2 3.654853 1_555
B10 Cs0 3.742352 1_565
B11 B15 1.695839 1_555
B11 B7 1.700680 1_555
B11 B23 1.729750 1_555
B11 B3 1.736325 1_655
B11 Cs2 3.588208 1_555
B11 Cs3 3.654853 1_655
B11 Cs1 3.742352 1_555
B12 B8 1.695839 1_555
B12 B20 1.725103 1_555
B12 B16 1.730195 1_555
B13 B9 1.695839 1_555
B13 B21 1.725103 1_555
B13 B17 1.730195 1_555
B14 B2 1.711144 1_555
B14 B22 1.725103 1_555
B14 B18 1.730195 1_555
B15 B3 1.711144 1_655
B15 B23 1.725103 1_555
B15 B19 1.730195 1_555
B16 B4 1.693924 1_555
B16 B20 1.703206 1_555
B16 Cs4 3.531117 1_555
B16 Cs7 3.655049 1_545
B16 Cs6 3.661123 1_554
B17 B5 1.693924 1_555
B17 B21 1.703206 1_555
B17 Cs5 3.531117 1_455
B17 Cs6 3.655049 1_455
B17 Cs7 3.661123 1_546
B18 B6 1.693924 1_555
B18 B22 1.703206 1_555
B18 B2 1.739663 1_555
B18 Cs6 3.531117 1_555
B18 Cs5 3.655049 1_565
B18 Cs4 3.661123 1_556
B19 B7 1.693924 1_555
B19 B23 1.703206 1_555
B19 B3 1.739663 1_655
B19 Cs7 3.531117 1_655
B19 Cs4 3.655049 1_655
B19 Cs5 3.661123 1_564
B20 B8 1.729750 1_555
B20 B4 1.774879 1_555
B20 Cs1 3.500573 1_555
B20 Cs6 3.506498 1_554
B20 Cs5 3.524021 1_554
B21 B9 1.729750 1_555
B21 B5 1.774879 1_555
B21 Cs0 3.500573 1_555
B21 Cs7 3.506498 1_546
B21 Cs4 3.524021 1_556
B22 B6 1.774879 1_555
B22 Cs3 3.500573 1_555
B22 Cs4 3.506498 1_556
B22 Cs7 3.524021 1_556
B23 B7 1.774879 1_555
B23 Cs2 3.500573 1_555
B23 Cs5 3.506498 1_564
B23 Cs6 3.524021 1_554
N0 O0 1.262244 1_555
N0 O4 1.263614 1_555
N1 O1 1.262244 1_555
N1 O5 1.263614 1_555
N2 O2 1.262244 1_555
N2 O6 1.263614 1_555
N3 O3 1.262244 1_555
N3 O7 1.263614 1_555
