# generated using pymatgen
data_Mg14ZnCO16
_symmetry_space_group_name_H-M   'P 1'
_cell_length_a   8.52295998
_cell_length_b   8.51533738
_cell_length_c   4.24057807
_cell_angle_alpha   90.00000000
_cell_angle_beta   90.00000000
_cell_angle_gamma   90.00000000
_symmetry_Int_Tables_number   1
_chemical_formula_structural   Mg14ZnCO16
_chemical_formula_sum   'Mg14 Zn1 C1 O16'
_cell_volume   307.76368389
_cell_formula_units_Z   1
loop_
 _symmetry_equiv_pos_site_id
 _symmetry_equiv_pos_as_xyz
  1  'x, y, z'
loop_
 _atom_site_type_symbol
 _atom_site_label
 _atom_site_symmetry_multiplicity
 _atom_site_fract_x
 _atom_site_fract_y
 _atom_site_fract_z
 _atom_site_occupancy
  Mg  Mg0  1  0.50000000  0.00000000  0.00000000  1
  Mg  Mg1  1  0.50000000  0.50000000  0.00000000  1
  Mg  Mg2  1  0.00000000  0.25366310  0.50000000  1
  Mg  Mg3  1  0.00000000  0.74633690  0.50000000  1
  Mg  Mg4  1  0.50000000  0.25025732  0.50000000  1
  Mg  Mg5  1  0.50000000  0.74974268  0.50000000  1
  Mg  Mg6  1  0.24991338  0.00000000  0.50000000  1
  Mg  Mg7  1  0.24642916  0.50000000  0.50000000  1
  Mg  Mg8  1  0.75008662  -0.00000000  0.50000000  1
  Mg  Mg9  1  0.75357084  0.50000000  0.50000000  1
  Mg  Mg10  1  0.24777942  0.25226158  0.00000000  1
  Mg  Mg11  1  0.24777942  0.74773842  -0.00000000  1
  Mg  Mg12  1  0.75222058  0.25226158  0.00000000  1
  Mg  Mg13  1  0.75222058  0.74773842  -0.00000000  1
  Zn  Zn0  1  0.00000000  -0.00000000  0.00000000  1
  C  C0  1  0.00000000  0.50000000  0.00000000  1
  O  O0  1  0.25290874  -0.00000000  0.00000000  1
  O  O1  1  0.25149499  0.50000000  -0.00000000  1
  O  O2  1  0.74709126  -0.00000000  0.00000000  1
  O  O3  1  0.74850501  0.50000000  0.00000000  1
  O  O4  1  0.24847221  0.25042759  0.50000000  1
  O  O5  1  0.24847221  0.74957241  0.50000000  1
  O  O6  1  0.75152779  0.25042759  0.50000000  1
  O  O7  1  0.75152779  0.74957241  0.50000000  1
  O  O8  1  0.00000000  0.00000000  0.50000000  1
  O  O9  1  0.00000000  0.50000000  0.50000000  1
  O  O10  1  0.50000000  0.00000000  0.50000000  1
  O  O11  1  0.50000000  0.50000000  0.50000000  1
  O  O12  1  0.00000000  0.25238781  0.00000000  1
  O  O13  1  0.00000000  0.74761219  -0.00000000  1
  O  O14  1  0.50000000  0.25068185  0.00000000  1
  O  O15  1  0.50000000  0.74931815  -0.00000000  1
loop_
_geom_bond_atom_site_label_1
_geom_bond_atom_site_label_2
_geom_bond_distance
_geom_bond_site_symmetry_2
Mg0 O0 2.105949 1_555
Mg0 O2 2.105949 1_555
Mg0 O10 2.120289 1_555
Mg0 O10 2.120289 1_554
Mg0 O14 2.134641 1_555
Mg0 O15 2.134641 1_545
Mg1 O3 2.117998 1_555
Mg1 O1 2.117998 1_555
Mg1 O11 2.120289 1_554
Mg1 O11 2.120289 1_555
Mg1 O15 2.123028 1_555
Mg1 O14 2.123028 1_555
Mg2 O9 2.097642 1_555
Mg2 O4 2.117898 1_555
Mg2 O6 2.117898 1_455
Mg2 O12 2.120317 1_556
Mg2 O12 2.120317 1_555
Mg2 O8 2.160027 1_555
Mg3 O9 2.097642 1_555
Mg3 O7 2.117898 1_455
Mg3 O5 2.117898 1_555
Mg3 O13 2.120317 1_555
Mg3 O13 2.120317 1_556
Mg3 O8 2.160027 1_565
Mg4 O14 2.120292 1_555
Mg4 O14 2.120292 1_556
Mg4 O11 2.126643 1_555
Mg4 O10 2.131026 1_555
Mg4 O4 2.143762 1_555
Mg4 O6 2.143762 1_555
Mg5 O15 2.120292 1_556
Mg5 O15 2.120292 1_555
Mg5 O11 2.126643 1_555
Mg5 O10 2.131026 1_565
Mg5 O7 2.143762 1_555
Mg5 O5 2.143762 1_555
Mg6 O0 2.120443 1_555
Mg6 O0 2.120443 1_556
Mg6 O8 2.130002 1_555
Mg6 O10 2.131478 1_555
Mg6 O4 2.132511 1_555
Mg6 O5 2.132511 1_545
Mg7 O9 2.100306 1_555
Mg7 O1 2.120729 1_555
Mg7 O1 2.120729 1_556
Mg7 O5 2.125265 1_555
Mg7 O4 2.125265 1_555
Mg7 O11 2.161174 1_555
Mg8 O2 2.120443 1_556
Mg8 O2 2.120443 1_555
Mg8 O8 2.130002 1_655
Mg8 O10 2.131478 1_555
Mg8 O6 2.132511 1_555
Mg8 O7 2.132511 1_545
Mg9 O9 2.100306 1_655
Mg9 O3 2.120729 1_555
Mg9 O3 2.120729 1_556
Mg9 O7 2.125265 1_555
Mg9 O6 2.125265 1_555
Mg9 O11 2.161174 1_555
Mg10 O1 2.109814 1_555
Mg10 O12 2.111814 1_555
Mg10 O4 2.120355 1_554
Mg10 O4 2.120355 1_555
Mg10 O0 2.148537 1_555
Mg10 O14 2.149708 1_555
Mg11 O1 2.109814 1_555
Mg11 O13 2.111814 1_555
Mg11 O5 2.120355 1_555
Mg11 O5 2.120355 1_554
Mg11 O0 2.148537 1_565
Mg11 O15 2.149708 1_555
Mg12 O3 2.109814 1_555
Mg12 O12 2.111814 1_655
Mg12 O6 2.120355 1_555
Mg12 O6 2.120355 1_554
Mg12 O2 2.148537 1_555
Mg12 O14 2.149708 1_555
Mg13 O3 2.109814 1_555
Mg13 O13 2.111814 1_655
Mg13 O7 2.120355 1_555
Mg13 O7 2.120355 1_554
Mg13 O2 2.148537 1_565
Mg13 O15 2.149708 1_555
C0 O12 2.108501 1_555
C0 O13 2.108501 1_555
C0 O9 2.120289 1_554
C0 O9 2.120289 1_555
C0 O1 2.143482 1_555
C0 O3 2.143482 1_455
O0 Zn0 2.155531 1_555
O2 Zn0 2.155531 1_655
O8 Zn0 2.120289 1_555
O8 Zn0 2.120289 1_556
O12 Zn0 2.149167 1_555
O13 Zn0 2.149167 1_565
