# generated using pymatgen
data_U2CuSi3
_symmetry_space_group_name_H-M   'P 1'
_cell_length_a   3.89633200
_cell_length_b   4.01954900
_cell_length_c   6.93997700
_cell_angle_alpha   90.00000000
_cell_angle_beta   90.00000000
_cell_angle_gamma   90.00000000
_symmetry_Int_Tables_number   1
_chemical_formula_structural   U2CuSi3
_chemical_formula_sum   'U2 Cu1 Si3'
_cell_volume   108.69043170
_cell_formula_units_Z   1
loop_
 _symmetry_equiv_pos_site_id
 _symmetry_equiv_pos_as_xyz
  1  'x, y, z'
loop_
 _atom_site_type_symbol
 _atom_site_label
 _atom_site_symmetry_multiplicity
 _atom_site_fract_x
 _atom_site_fract_y
 _atom_site_fract_z
 _atom_site_occupancy
  U  U0  1  0.00000000  0.50000000  0.99064500  1
  U  U1  1  0.00000000  0.00000000  0.51058500  1
  Cu  Cu0  1  0.50000000  0.50000000  0.33013500  1
  Si  Si0  1  0.50000000  0.00000000  0.83635300  1
  Si  Si1  1  0.50000000  0.00000000  0.16907200  1
  Si  Si2  1  0.50000000  0.50000000  0.66321100  1
loop_
_geom_bond_atom_site_label_1
_geom_bond_atom_site_label_2
_geom_bond_distance
_geom_bond_site_symmetry_2
Cu0 Si1 2.299698 1_555
Cu0 Si1 2.299698 1_565
Cu0 Si2 2.311540 1_555
Cu0 U0 3.057178 1_554
Cu0 U0 3.057178 1_654
Cu0 U1 3.066406 1_555
Cu0 U1 3.066406 1_565
Cu0 U1 3.066406 1_655
Cu0 U1 3.066406 1_665
Si0 Si1 2.309062 1_556
Si0 Si2 2.341589 1_545
Si0 Si2 2.341589 1_555
Si0 U1 2.984404 1_655
Si0 U1 2.984404 1_555
Si0 U0 2.996852 1_545
Si0 U0 2.996852 1_655
Si0 U0 2.996852 1_555
Si0 U0 2.996852 1_645
Si1 U0 3.060699 1_654
Si1 U0 3.060699 1_554
Si1 U0 3.060699 1_544
Si1 U0 3.060699 1_644
Si1 U1 3.068011 1_655
Si1 U1 3.068011 1_555
Si2 U1 2.992740 1_665
Si2 U1 2.992740 1_555
Si2 U1 2.992740 1_565
Si2 U1 2.992740 1_655
Si2 U0 2.993173 1_555
Si2 U0 2.993173 1_655
