# generated using pymatgen
data_Nd3AlSi5N10O
_symmetry_space_group_name_H-M   'P 1'
_cell_length_a   4.93033111
_cell_length_b   10.20013192
_cell_length_c   10.21005500
_cell_angle_alpha   90.00000000
_cell_angle_beta   90.00000000
_cell_angle_gamma   89.74637774
_symmetry_Int_Tables_number   1
_chemical_formula_structural   Nd3AlSi5N10O
_chemical_formula_sum   'Nd6 Al2 Si10 N20 O2'
_cell_volume   513.45891823
_cell_formula_units_Z   2
loop_
 _symmetry_equiv_pos_site_id
 _symmetry_equiv_pos_as_xyz
  1  'x, y, z'
loop_
 _atom_site_type_symbol
 _atom_site_label
 _atom_site_symmetry_multiplicity
 _atom_site_fract_x
 _atom_site_fract_y
 _atom_site_fract_z
 _atom_site_occupancy
  Nd  Nd0  1  0.03239600  0.68648300  0.80789000  1
  Nd  Nd1  1  0.01841800  0.30746900  0.18280000  1
  Nd  Nd2  1  0.01841800  0.80746900  0.31720000  1
  Nd  Nd3  1  0.03239600  0.18648300  0.69211000  1
  Nd  Nd4  1  0.03740300  0.50245600  0.49908200  1
  Nd  Nd5  1  0.03740300  0.00245600  0.00091800  1
  Al  Al0  1  0.48511100  0.71541600  0.56997600  1
  Al  Al1  1  0.48511100  0.21541600  0.93002400  1
  Si  Si0  1  0.97437000  0.88379500  0.61890400  1
  Si  Si1  1  0.97011500  0.11833800  0.38517700  1
  Si  Si2  1  0.97011500  0.61833800  0.11482300  1
  Si  Si3  1  0.97437000  0.38379500  0.88109600  1
  Si  Si4  1  0.48005800  0.28873700  0.42520700  1
  Si  Si5  1  0.48005800  0.78873700  0.07479300  1
  Si  Si6  1  0.48006100  0.57092800  0.28279700  1
  Si  Si7  1  0.47680300  0.42744800  0.71119900  1
  Si  Si8  1  0.48006100  0.07092800  0.21720300  1
  Si  Si9  1  0.47680300  0.92744800  0.78880100  1
  N  N0  1  0.85925400  0.73715200  0.56130000  1
  N  N1  1  0.83070800  0.26603300  0.42941400  1
  N  N2  1  0.83070800  0.76603300  0.07058600  1
  N  N3  1  0.85925400  0.23715200  0.93870000  1
  N  N4  1  0.83191800  0.56670500  0.26012300  1
  N  N5  1  0.82748300  0.42900000  0.73471600  1
  N  N6  1  0.83191800  0.06670500  0.23987700  1
  N  N7  1  0.82748300  0.92900000  0.76528400  1
  N  N8  1  0.36736800  0.67314700  0.40477400  1
  N  N9  1  0.36919200  0.32418900  0.58188000  1
  N  N10  1  0.36919200  0.82418900  0.91812000  1
  N  N11  1  0.36736800  0.17314700  0.09522600  1
  N  N12  1  0.37045700  0.41323400  0.31855500  1
  N  N13  1  0.36111700  0.58117800  0.67680400  1
  N  N14  1  0.37045700  0.91323400  0.18144500  1
  N  N15  1  0.36111700  0.08117800  0.82319600  1
  N  N16  1  0.31340400  0.86028500  0.65186000  1
  N  N17  1  0.31571900  0.14548500  0.35855500  1
  N  N18  1  0.31571900  0.64548500  0.14144500  1
  N  N19  1  0.31340400  0.36028500  0.84814000  1
  O  O0  1  0.94205700  0.00252100  0.50218800  1
  O  O1  1  0.94205700  0.50252100  0.99781200  1
loop_
_geom_bond_atom_site_label_1
_geom_bond_atom_site_label_2
_geom_bond_distance
_geom_bond_site_symmetry_2
Nd0 O1 2.736231 1_455
Nd1 O1 2.767810 1_454
Nd2 O0 2.767810 1_465
Nd3 O0 2.736231 1_455
Al0 N8 1.835791 1_555
Al0 N13 1.856243 1_555
Al0 N0 1.861008 1_555
Al0 N16 1.894233 1_555
Al1 N11 1.835791 1_556
Al1 N15 1.856243 1_555
Al1 N3 1.861008 1_555
Al1 N19 1.894233 1_555
N0 Si0 1.706722 1_555
N0 Nd4 2.624366 1_655
N0 Nd0 2.707531 1_655
N0 Nd2 2.710471 1_655
N1 Si1 1.713713 1_555
N1 Si4 1.743775 1_555
N1 Nd1 2.716364 1_655
N1 Nd4 2.716945 1_655
N1 Nd3 2.972196 1_655
N2 Si2 1.713713 1_555
N2 Si5 1.743775 1_555
N2 Nd2 2.716364 1_655
N2 Nd5 2.716945 1_665
N2 Nd0 2.972196 1_654
N3 Si3 1.706722 1_555
N3 Nd5 2.624366 1_656
N3 Nd3 2.707531 1_655
N3 Nd1 2.710471 1_656
N4 Si2 1.716285 1_555
N4 Si6 1.750491 1_555
N4 Nd2 2.690012 1_655
N4 Nd4 2.720761 1_655
N4 Nd1 2.905038 1_655
N5 Si3 1.722729 1_555
N5 Si7 1.745703 1_555
N5 Nd3 2.703148 1_655
N5 Nd4 2.725340 1_655
N5 Nd0 2.915496 1_655
N6 Si1 1.716285 1_555
N6 Si8 1.750491 1_555
N6 Nd1 2.690012 1_655
N6 Nd5 2.720761 1_655
N6 Nd2 2.905038 1_645
N7 Si0 1.722729 1_555
N7 Si9 1.745703 1_555
N7 Nd0 2.703148 1_655
N7 Nd5 2.725340 1_666
N7 Nd3 2.915496 1_665
N8 Si6 1.715136 1_555
N8 Nd2 2.369747 1_555
N8 Nd4 2.574909 1_555
N9 Si4 1.728190 1_555
N9 Si7 1.771756 1_555
N9 Nd3 2.453072 1_555
N9 Nd4 2.582759 1_555
N10 Si5 1.728190 1_556
N10 Si9 1.771756 1_555
N10 Nd0 2.453072 1_555
N10 Nd5 2.582759 1_566
N11 Si8 1.715136 1_555
N11 Nd1 2.369747 1_555
N11 Nd5 2.574909 1_555
N12 Si6 1.737893 1_555
N12 Si4 1.756214 1_555
N12 Nd1 2.472680 1_555
N12 Nd4 2.628449 1_555
N13 Si7 1.702809 1_555
N13 Nd0 2.357183 1_555
N13 Nd4 2.548722 1_555
N14 Si8 1.737893 1_565
N14 Si5 1.756214 1_555
N14 Nd2 2.472680 1_555
N14 Nd5 2.628449 1_565
N15 Si9 1.702809 1_545
N15 Nd3 2.357183 1_555
N15 Nd5 2.548722 1_556
N16 Si0 1.720830 1_455
N16 Si9 1.754455 1_555
N16 Nd0 2.760792 1_555
N17 Si1 1.748758 1_455
N17 Si4 1.806976 1_555
N17 Si8 1.819965 1_555
N17 Nd1 2.842038 1_555
N18 Si2 1.748758 1_455
N18 Si5 1.806976 1_555
N18 Si6 1.819965 1_555
N18 Nd2 2.842038 1_555
N19 Si3 1.720830 1_455
N19 Si7 1.754455 1_555
N19 Nd3 2.760792 1_555
O0 Si1 1.686253 1_555
O0 Si0 1.705971 1_545
O1 Si2 1.686253 1_556
O1 Si3 1.705971 1_555
