# generated using pymatgen
data_HoIO9
_symmetry_space_group_name_H-M   'P 1'
_cell_length_a   10.79199700
_cell_length_b   6.64995600
_cell_length_c   10.26807125
_cell_angle_alpha   58.55028321
_cell_angle_beta   90.00000000
_cell_angle_gamma   90.00000000
_symmetry_Int_Tables_number   1
_chemical_formula_structural   HoIO9
_chemical_formula_sum   'Ho4 I4 O36'
_cell_volume   628.64950952
_cell_formula_units_Z   4
loop_
 _symmetry_equiv_pos_site_id
 _symmetry_equiv_pos_as_xyz
  1  'x, y, z'
loop_
 _atom_site_type_symbol
 _atom_site_label
 _atom_site_symmetry_multiplicity
 _atom_site_fract_x
 _atom_site_fract_y
 _atom_site_fract_z
 _atom_site_occupancy
  Ho  Ho0  1  0.08383400  0.22694500  0.30895300  1
  Ho  Ho1  1  0.58383400  0.77305500  0.19104700  1
  Ho  Ho2  1  0.91616600  0.77305500  0.69104700  1
  Ho  Ho3  1  0.41616600  0.22694500  0.80895300  1
  I  I0  1  0.32787600  0.99238000  0.25332000  1
  I  I1  1  0.82787600  0.00762000  0.24668000  1
  I  I2  1  0.67212400  0.00762000  0.74668000  1
  I  I3  1  0.17212400  0.99238000  0.75332000  1
  O  O0  1  0.42693300  0.05488600  0.07629600  1
  O  O1  1  0.92693300  0.94511400  0.42370400  1
  O  O2  1  0.57306700  0.94511400  0.92370400  1
  O  O3  1  0.07306700  0.05488600  0.57629600  1
  O  O4  1  0.45817700  0.18621000  0.33343200  1
  O  O5  1  0.95817700  0.81379000  0.16656800  1
  O  O6  1  0.54182300  0.81379000  0.66656800  1
  O  O7  1  0.04182300  0.18621000  0.83343200  1
  O  O8  1  0.22503000  0.25283600  0.13349900  1
  O  O9  1  0.72503000  0.74716400  0.36650100  1
  O  O10  1  0.77497000  0.74716400  0.86650100  1
  O  O11  1  0.27497000  0.25283600  0.63349900  1
  O  O12  1  0.20856500  0.54202900  0.30150200  1
  O  O13  1  0.70856500  0.45797100  0.19849800  1
  O  O14  1  0.79143500  0.45797100  0.69849800  1
  O  O15  1  0.29143500  0.54202900  0.80150200  1
  O  O16  1  0.05231100  0.54400300  0.48779600  1
  O  O17  1  0.55231100  0.45599700  0.01220400  1
  O  O18  1  0.94768900  0.45599700  0.51220400  1
  O  O19  1  0.44768900  0.54400300  0.98779600  1
  O  O20  1  0.94184000  0.25088100  0.13611300  1
  O  O21  1  0.44184000  0.74911900  0.36388700  1
  O  O22  1  0.05816000  0.74911900  0.86388700  1
  O  O23  1  0.55816000  0.25088100  0.63611300  1
  O  O24  1  0.72324700  0.07564200  0.08348900  1
  O  O25  1  0.22324700  0.92435800  0.41651100  1
  O  O26  1  0.27675300  0.92435800  0.91651100  1
  O  O27  1  0.77675300  0.07564200  0.58348900  1
  O  O28  1  0.70170900  0.23371500  0.29714200  1
  O  O29  1  0.20170900  0.76628500  0.20285800  1
  O  O30  1  0.29829100  0.76628500  0.70285800  1
  O  O31  1  0.79829100  0.23371500  0.79714200  1
  O  O32  1  0.44318900  0.40741300  0.27922600  1
  O  O33  1  0.94318900  0.59258700  0.22077400  1
  O  O34  1  0.55681100  0.59258700  0.72077400  1
  O  O35  1  0.05681100  0.40741300  0.77922600  1
loop_
_geom_bond_atom_site_label_1
_geom_bond_atom_site_label_2
_geom_bond_distance
_geom_bond_site_symmetry_2
Ho0 O25 2.283273 1_545
Ho0 O20 2.286588 1_455
Ho0 O8 2.296424 1_555
Ho0 O1 2.337447 1_445
Ho0 O3 2.362348 1_555
Ho0 O12 2.457806 1_555
Ho0 O33 2.595868 1_455
Ho1 O24 2.283273 1_565
Ho1 O21 2.286588 1_555
Ho1 O9 2.296424 1_555
Ho1 O0 2.337447 1_565
Ho1 O2 2.362348 1_554
Ho1 O13 2.457806 1_555
Ho1 O32 2.595868 1_555
Ho2 O27 2.283273 1_565
Ho2 O22 2.286588 1_655
Ho2 O10 2.296424 1_555
Ho2 O3 2.337447 1_665
Ho2 O1 2.362348 1_555
Ho2 O14 2.457806 1_555
Ho2 O35 2.595868 1_655
Ho3 O26 2.283273 1_545
Ho3 O23 2.286588 1_555
Ho3 O11 2.296424 1_555
Ho3 O2 2.337447 1_545
Ho3 O0 2.362348 1_556
Ho3 O15 2.457806 1_555
Ho3 O34 2.595868 1_555
I0 O25 1.869890 1_555
I0 O21 1.871363 1_555
I0 O8 1.876663 1_565
I0 O0 1.957342 1_565
I0 O29 2.279458 1_555
I0 O4 2.328502 1_565
I1 O24 1.869890 1_555
I1 O20 1.871363 1_555
I1 O9 1.876663 1_545
I1 O1 1.957342 1_545
I1 O28 2.279458 1_555
I1 O5 2.328502 1_545
I2 O27 1.869890 1_555
I2 O23 1.871363 1_555
I2 O10 1.876663 1_545
I2 O2 1.957342 1_545
I2 O31 2.279458 1_555
I2 O6 2.328502 1_545
I3 O26 1.869890 1_555
I3 O22 1.871363 1_555
I3 O11 1.876663 1_565
I3 O3 1.957342 1_565
I3 O30 2.279458 1_555
I3 O7 2.328502 1_565
O12 O29 1.295819 1_555
O13 O28 1.295819 1_555
O14 O31 1.295819 1_555
O15 O30 1.295819 1_555
O16 O18 1.235751 1_455
O17 O19 1.235751 1_554
O32 O4 1.282737 1_555
O33 O5 1.282737 1_555
O34 O6 1.282737 1_555
O35 O7 1.282737 1_555
