# generated using pymatgen
data_SnH14C4(NCl2)2
_symmetry_space_group_name_H-M   'P 1'
_cell_length_a   6.68994100
_cell_length_b   8.58439900
_cell_length_c   13.03388880
_cell_angle_alpha   90.00000000
_cell_angle_beta   111.71157241
_cell_angle_gamma   90.00000000
_symmetry_Int_Tables_number   1
_chemical_formula_structural   SnH14C4(NCl2)2
_chemical_formula_sum   'Sn2 H28 C8 N4 Cl8'
_cell_volume   695.42285906
_cell_formula_units_Z   2
loop_
 _symmetry_equiv_pos_site_id
 _symmetry_equiv_pos_as_xyz
  1  'x, y, z'
loop_
 _atom_site_type_symbol
 _atom_site_label
 _atom_site_symmetry_multiplicity
 _atom_site_fract_x
 _atom_site_fract_y
 _atom_site_fract_z
 _atom_site_occupancy
  Sn  Sn0  1  0.50000000  0.00000000  0.50000000  1
  Sn  Sn1  1  0.50000000  0.50000000  0.00000000  1
  H  H0  1  0.87122800  0.13447000  0.52297800  1
  H  H1  1  0.87122800  0.36553000  0.02297800  1
  H  H2  1  0.12877200  0.86553000  0.47702200  1
  H  H3  1  0.12877200  0.63447000  0.97702200  1
  H  H4  1  0.06617400  0.22279500  0.70549200  1
  H  H5  1  0.06617400  0.27720500  0.20549200  1
  H  H6  1  0.93382600  0.77720500  0.29450800  1
  H  H7  1  0.93382600  0.72279500  0.79450800  1
  H  H8  1  0.95986200  0.03114400  0.70390700  1
  H  H9  1  0.95986200  0.46885600  0.20390700  1
  H  H10  1  0.04013800  0.96885600  0.29609300  1
  H  H11  1  0.04013800  0.53114400  0.79609300  1
  H  H12  1  0.82824100  0.19462500  0.73648500  1
  H  H13  1  0.82824100  0.30537500  0.23648500  1
  H  H14  1  0.17175900  0.80537500  0.26351500  1
  H  H15  1  0.17175900  0.69462500  0.76351500  1
  H  H16  1  0.63155100  0.38166600  0.58565300  1
  H  H17  1  0.63155100  0.11833400  0.08565300  1
  H  H18  1  0.36844900  0.61833400  0.41434700  1
  H  H19  1  0.36844900  0.88166600  0.91434700  1
  H  H20  1  0.64464600  0.35335300  0.45214100  1
  H  H21  1  0.64464600  0.14664700  0.95214100  1
  H  H22  1  0.35535400  0.64664700  0.54785900  1
  H  H23  1  0.35535400  0.85335300  0.04785900  1
  H  H24  1  0.88240700  0.40568300  0.56716500  1
  H  H25  1  0.88240700  0.09431700  0.06716500  1
  H  H26  1  0.11759300  0.59431700  0.43283500  1
  H  H27  1  0.11759300  0.90568300  0.93283500  1
  C  C0  1  0.91799600  0.15381400  0.68647000  1
  C  C1  1  0.91799600  0.34618600  0.18647000  1
  C  C2  1  0.08200400  0.84618600  0.31353000  1
  C  C3  1  0.08200400  0.65381400  0.81353000  1
  C  C4  1  0.73156900  0.33907500  0.54119200  1
  C  C5  1  0.73156900  0.16092500  0.04119200  1
  C  C6  1  0.26843100  0.66092500  0.45880800  1
  C  C7  1  0.26843100  0.83907500  0.95880800  1
  N  N0  1  0.78281200  0.17290500  0.56799200  1
  N  N1  1  0.78281200  0.32709500  0.06799200  1
  N  N2  1  0.21718800  0.82709500  0.43200800  1
  N  N3  1  0.21718800  0.67290500  0.93200800  1
  Cl  Cl0  1  0.49782300  0.93797200  0.68224400  1
  Cl  Cl1  1  0.49782300  0.56202800  0.18224400  1
  Cl  Cl2  1  0.50217700  0.06202800  0.31775600  1
  Cl  Cl3  1  0.50217700  0.43797200  0.81775600  1
  Cl  Cl4  1  0.77717900  0.79835800  0.52319200  1
  Cl  Cl5  1  0.77717900  0.70164200  0.02319200  1
  Cl  Cl6  1  0.22282100  0.20164200  0.47680800  1
  Cl  Cl7  1  0.22282100  0.29835800  0.97680800  1
loop_
_geom_bond_atom_site_label_1
_geom_bond_atom_site_label_2
_geom_bond_distance
_geom_bond_site_symmetry_2
H0 N0 1.029426 1_555
H1 N1 1.029426 1_555
H2 N2 1.029426 1_555
H3 N3 1.029426 1_555
C0 H8 1.091747 1_555
C0 H12 1.094464 1_555
C0 H4 1.101346 1_655
C0 N0 1.481932 1_555
C1 H9 1.091747 1_555
C1 H13 1.094464 1_555
C1 H5 1.101346 1_655
C1 N1 1.481932 1_555
C2 H10 1.091747 1_555
C2 H14 1.094464 1_555
C2 H6 1.101346 1_455
C2 N2 1.481932 1_555
C3 H11 1.091747 1_555
C3 H15 1.094464 1_555
C3 H7 1.101346 1_455
C3 N3 1.481932 1_555
C4 H20 1.095894 1_555
C4 H16 1.097313 1_555
C4 H24 1.098671 1_555
C4 N0 1.478430 1_555
C5 H21 1.095894 1_554
C5 H17 1.097313 1_555
C5 H25 1.098671 1_555
C5 N1 1.478430 1_555
C6 H22 1.095894 1_555
C6 H18 1.097313 1_555
C6 H26 1.098671 1_555
C6 N2 1.478430 1_555
C7 H23 1.095894 1_556
C7 H19 1.097313 1_555
C7 H27 1.098671 1_555
C7 N3 1.478430 1_555
N0 Sn0 2.308154 1_555
N1 Sn1 2.308154 1_555
N2 Sn0 2.308154 1_565
N3 Sn1 2.308154 1_556
Cl0 Sn0 2.439593 1_565
Cl1 Sn1 2.439593 1_555
Cl2 Sn0 2.439593 1_555
Cl3 Sn1 2.439593 1_556
Cl4 Sn0 2.472126 1_565
Cl5 Sn1 2.472126 1_555
Cl6 Sn0 2.472126 1_555
Cl7 Sn1 2.472126 1_556
