# generated using pymatgen
data_CeO2
_symmetry_space_group_name_H-M   'P 1'
_cell_length_a   5.13465700
_cell_length_b   5.13465700
_cell_length_c   3.63642000
_cell_angle_alpha   90.00000000
_cell_angle_beta   90.00000000
_cell_angle_gamma   90.00000000
_symmetry_Int_Tables_number   1
_chemical_formula_structural   CeO2
_chemical_formula_sum   'Ce2 O4'
_cell_volume   95.87313149
_cell_formula_units_Z   2
loop_
 _symmetry_equiv_pos_site_id
 _symmetry_equiv_pos_as_xyz
  1  'x, y, z'
loop_
 _atom_site_type_symbol
 _atom_site_label
 _atom_site_symmetry_multiplicity
 _atom_site_fract_x
 _atom_site_fract_y
 _atom_site_fract_z
 _atom_site_occupancy
  Ce  Ce0  1  0.50000000  0.50000000  0.50000000  1
  Ce  Ce1  1  0.00000000  0.00000000  0.00000000  1
  O  O0  1  0.81266000  0.18734000  0.50000000  1
  O  O1  1  0.18734000  0.81266000  0.50000000  1
  O  O2  1  0.31266000  0.31266000  0.00000000  1
  O  O3  1  0.68734000  0.68734000  0.00000000  1
loop_
_geom_bond_atom_site_label_1
_geom_bond_atom_site_label_2
_geom_bond_distance
_geom_bond_site_symmetry_2
Ce0 O1 2.270381 1_555
Ce0 O0 2.270381 1_555
Ce0 O3 2.270791 1_555
Ce0 O3 2.270791 1_556
Ce0 O2 2.270791 1_555
Ce0 O2 2.270791 1_556
Ce1 O2 2.270381 1_555
Ce1 O3 2.270381 1_445
Ce1 O0 2.270791 1_454
Ce1 O1 2.270791 1_544
Ce1 O0 2.270791 1_455
Ce1 O1 2.270791 1_545
