# generated using pymatgen
data_HoInRh
_symmetry_space_group_name_H-M   'P 1'
_cell_length_a   7.43665979
_cell_length_b   7.43666028
_cell_length_c   3.91584511
_cell_angle_alpha   90.00000000
_cell_angle_beta   90.00000000
_cell_angle_gamma   119.99999787
_symmetry_Int_Tables_number   1
_chemical_formula_structural   HoInRh
_chemical_formula_sum   'Ho3 In3 Rh3'
_cell_volume   187.54781234
_cell_formula_units_Z   3
loop_
 _symmetry_equiv_pos_site_id
 _symmetry_equiv_pos_as_xyz
  1  'x, y, z'
loop_
 _atom_site_type_symbol
 _atom_site_label
 _atom_site_symmetry_multiplicity
 _atom_site_fract_x
 _atom_site_fract_y
 _atom_site_fract_z
 _atom_site_occupancy
  Ho  Ho0  1  -0.00000000  0.40612635  0.50000000  1
  Ho  Ho1  1  0.59387365  0.59387365  0.50000000  1
  Ho  Ho2  1  0.40612635  0.00000000  0.50000000  1
  In  In0  1  0.25667197  0.25667197  0.00000000  1
  In  In1  1  0.00000000  0.74332803  0.00000000  1
  In  In2  1  0.74332803  0.00000000  -0.00000000  1
  Rh  Rh0  1  0.33333300  0.66666700  -0.00000000  1
  Rh  Rh1  1  -0.00000000  0.00000000  0.50000000  1
  Rh  Rh2  1  0.66666700  0.33333300  0.00000000  1
loop_
_geom_bond_atom_site_label_1
_geom_bond_atom_site_label_2
_geom_bond_distance
_geom_bond_site_symmetry_2
Ho0 Rh2 2.988220 1_456
Ho0 Rh2 2.988220 1_455
Ho0 Rh0 2.988222 1_555
Ho0 Rh0 2.988222 1_556
Ho0 Rh1 3.020224 1_555
Ho0 In1 3.181476 1_555
Ho0 In1 3.181476 1_556
Ho0 In0 3.291460 1_555
Ho0 In0 3.291460 1_556
Ho0 In2 3.291461 1_455
Ho0 In2 3.291461 1_456
Ho1 Rh0 2.988225 1_556
Ho1 Rh0 2.988225 1_555
Ho1 Rh2 2.988225 1_556
Ho1 Rh2 2.988225 1_555
Ho1 Rh1 3.020224 1_665
Ho1 In0 3.181476 1_556
Ho1 In0 3.181476 1_555
Ho1 In1 3.291460 1_656
Ho1 In1 3.291460 1_655
Ho1 In2 3.291461 1_566
Ho1 In2 3.291461 1_565
Ho2 Rh0 2.988220 1_545
Ho2 Rh0 2.988220 1_546
Ho2 Rh2 2.988222 1_556
Ho2 Rh2 2.988222 1_555
Ho2 Rh1 3.020223 1_555
Ho2 In2 3.181476 1_556
Ho2 In2 3.181476 1_555
Ho2 In1 3.291460 1_546
Ho2 In1 3.291460 1_545
Ho2 In0 3.291460 1_555
Ho2 In0 3.291460 1_556
In0 Rh1 2.734394 1_555
In0 Rh1 2.734394 1_554
In0 Rh2 2.807693 1_555
In0 Rh0 2.807693 1_555
In1 Rh1 2.734394 1_565
In1 Rh1 2.734394 1_564
In1 Rh0 2.807686 1_555
In1 Rh2 2.807691 1_455
In2 Rh1 2.734394 1_654
In2 Rh1 2.734394 1_655
In2 Rh2 2.807686 1_555
In2 Rh0 2.807691 1_545
