# generated using pymatgen
data_Na4FeO5
_symmetry_space_group_name_H-M   'P 1'
_cell_length_a   7.31393414
_cell_length_b   8.84426439
_cell_length_c   8.75133258
_cell_angle_alpha   95.54771215
_cell_angle_beta   89.55802548
_cell_angle_gamma   114.32600601
_symmetry_Int_Tables_number   1
_chemical_formula_structural   Na4FeO5
_chemical_formula_sum   'Na16 Fe4 O20'
_cell_volume   513.09423690
_cell_formula_units_Z   4
loop_
 _symmetry_equiv_pos_site_id
 _symmetry_equiv_pos_as_xyz
  1  'x, y, z'
loop_
 _atom_site_type_symbol
 _atom_site_label
 _atom_site_symmetry_multiplicity
 _atom_site_fract_x
 _atom_site_fract_y
 _atom_site_fract_z
 _atom_site_occupancy
  Na  Na0  1  0.19293900  0.79890800  0.20453500  1
  Na  Na1  1  0.94999600  0.30452600  0.45654800  1
  Na  Na2  1  0.43680600  0.29905000  0.95291000  1
  Na  Na3  1  0.68937300  0.80168000  0.69684600  1
  Na  Na4  1  0.09539900  0.39171800  0.09328300  1
  Na  Na5  1  0.84959100  0.89570000  0.34753100  1
  Na  Na6  1  0.34878700  0.89463800  0.83709700  1
  Na  Na7  1  0.59831900  0.39969100  0.59924100  1
  Na  Na8  1  0.65304900  0.10041500  0.15108200  1
  Na  Na9  1  0.40591200  0.61047200  0.39905600  1
  Na  Na10  1  0.89347500  0.59982300  0.91246700  1
  Na  Na11  1  0.15119700  0.09639000  0.65657000  1
  Na  Na12  1  0.56172300  0.70494500  0.06834700  1
  Na  Na13  1  0.30260100  0.19697400  0.29643900  1
  Na  Na14  1  0.80083700  0.19171400  0.80151500  1
  Na  Na15  1  0.05893400  0.70760300  0.54192900  1
  Fe  Fe0  1  0.24792700  0.49785200  0.75557500  1
  Fe  Fe1  1  0.51788400  0.03626600  0.48082500  1
  Fe  Fe2  1  0.98505400  0.96960700  0.00877200  1
  Fe  Fe3  1  0.73255000  0.46385200  0.26800400  1
  O  O0  1  0.89735800  0.78857700  0.10793900  1
  O  O1  1  0.62675300  0.25037500  0.37531500  1
  O  O2  1  0.14382900  0.30023900  0.83656100  1
  O  O3  1  0.33143400  0.68068500  0.64404200  1
  O  O4  1  0.25555300  0.03578600  0.04326100  1
  O  O5  1  0.00722200  0.53063800  0.30400800  1
  O  O6  1  0.50905700  0.54710900  0.81929600  1
  O  O7  1  0.75893700  0.03736800  0.55143500  1
  O  O8  1  0.25661700  0.62403700  0.94006900  1
  O  O9  1  0.99300600  0.12111100  0.16997500  1
  O  O10  1  0.49221400  0.12406300  0.67936500  1
  O  O11  1  0.73728500  0.61627100  0.43434600  1
  O  O12  1  0.51425300  0.88313700  0.31643500  1
  O  O13  1  0.27028900  0.38178600  0.57208300  1
  O  O14  1  0.75673700  0.37454600  0.06978800  1
  O  O15  1  0.01000200  0.87661800  0.81628200  1
  O  O16  1  0.48816900  0.45875200  0.20011000  1
  O  O17  1  0.24287100  0.96952200  0.44459800  1
  O  O18  1  0.74408700  0.96368700  0.94285000  1
  O  O19  1  0.99197400  0.47386500  0.70366700  1
loop_
_geom_bond_atom_site_label_1
_geom_bond_atom_site_label_2
_geom_bond_distance
_geom_bond_site_symmetry_2
Na0 O0 2.290659 1_455
Na0 O12 2.342840 1_555
Na0 O17 2.401847 1_555
Na0 O5 2.440960 1_555
Na0 O4 2.522309 1_565
Na0 O8 2.801819 1_554
Na1 O1 2.313300 1_555
Na1 O13 2.358217 1_655
Na1 O5 2.402990 1_655
Na1 O7 2.422069 1_555
Na1 O19 2.453448 1_555
Na1 O9 2.939656 1_555
Na2 O14 2.363281 1_556
Na2 O4 2.366593 1_556
Na2 O2 2.383864 1_555
Na2 O16 2.408469 1_556
Na2 O6 2.447661 1_555
Na2 O10 2.841738 1_555
Na3 O15 2.377912 1_655
Na3 O18 2.406751 1_555
Na3 O3 2.413986 1_555
Na3 O7 2.419183 1_565
Na3 O6 2.440336 1_555
Na3 O11 2.796721 1_555
Na4 O5 2.350034 1_555
Na4 O9 2.359123 1_455
Na4 O2 2.387448 1_554
Na4 O14 2.427453 1_455
Na4 O8 2.433559 1_554
Na4 O16 2.830017 1_555
Na5 O0 2.300723 1_555
Na5 O7 2.329715 1_565
Na5 O12 2.425239 1_555
Na5 O11 2.457735 1_555
Na5 O9 2.517962 1_565
Na5 O17 2.793730 1_655
Na6 O4 2.350618 1_566
Na6 O3 2.374539 1_555
Na6 O15 2.423703 1_555
Na6 O10 2.426656 1_565
Na6 O8 2.464279 1_555
Na6 O18 2.840047 1_555
Na7 O1 2.312368 1_555
Na7 O13 2.350785 1_555
Na7 O11 2.385878 1_555
Na7 O10 2.408312 1_555
Na7 O6 2.455836 1_555
Na7 O19 2.814908 1_555
Na8 O1 2.312554 1_555
Na8 O18 2.333457 1_544
Na8 O12 2.392726 1_545
Na8 O14 2.402037 1_555
Na8 O9 2.422536 1_555
Na8 O4 2.870225 1_555
Na9 O3 2.298289 1_555
Na9 O16 2.321846 1_555
Na9 O12 2.391677 1_555
Na9 O11 2.424483 1_555
Na9 O13 2.506722 1_555
Na9 O5 2.814438 1_555
Na10 O0 2.263515 1_556
Na10 O19 2.312195 1_555
Na10 O14 2.394346 1_556
Na10 O15 2.469070 1_655
Na10 O8 2.586469 1_655
Na10 O6 2.769344 1_555
Na11 O2 2.294366 1_555
Na11 O17 2.312556 1_545
Na11 O15 2.376418 1_545
Na11 O10 2.411624 1_555
Na11 O13 2.493216 1_555
Na11 O7 2.839721 1_455
Na12 O0 2.271766 1_555
Na12 O8 2.306463 1_554
Na12 O6 2.414346 1_554
Na12 O16 2.423004 1_555
Na12 O18 2.484075 1_554
Na12 O12 2.663741 1_555
Na13 O1 2.315183 1_555
Na13 O9 2.333616 1_455
Na13 O16 2.384105 1_555
Na13 O17 2.385428 1_545
Na13 O4 2.461036 1_555
Na13 O13 2.844922 1_555
Na14 O2 2.297770 1_655
Na14 O10 2.323093 1_555
Na14 O18 2.356709 1_545
Na14 O7 2.415594 1_555
Na14 O19 2.536794 1_555
Na14 O14 2.813303 1_556
Na15 O3 2.299347 1_555
Na15 O11 2.322674 1_455
Na15 O17 2.387013 1_555
Na15 O5 2.412942 1_555
Na15 O19 2.497543 1_455
Na15 O15 2.803692 1_555
Fe0 O2 1.808723 1_555
Fe0 O3 1.850083 1_555
Fe0 O19 1.850170 1_455
Fe0 O6 1.852677 1_555
Fe0 O8 1.857716 1_555
Fe0 O13 1.864037 1_555
Fe1 O17 1.868222 1_545
Fe1 O7 1.868623 1_555
Fe1 O12 1.870501 1_545
Fe1 O10 1.873843 1_555
Fe1 O1 2.038864 1_555
Fe2 O0 1.772574 1_555
Fe2 O9 1.833191 1_565
Fe2 O4 1.835441 1_665
Fe2 O18 1.837253 1_554
Fe2 O15 1.843470 1_654
Fe3 O5 1.865518 1_655
Fe3 O16 1.869384 1_555
Fe3 O14 1.873405 1_555
Fe3 O11 1.876272 1_555
Fe3 O1 2.042892 1_555
