# generated using pymatgen
data_Li3MnCoO5
_symmetry_space_group_name_H-M   'P 1'
_cell_length_a   2.98681981
_cell_length_b   9.85965912
_cell_length_c   6.44291537
_cell_angle_alpha   100.39304641
_cell_angle_beta   76.81688101
_cell_angle_gamma   92.57222955
_symmetry_Int_Tables_number   1
_chemical_formula_structural   Li3MnCoO5
_chemical_formula_sum   'Li6 Mn2 Co2 O10'
_cell_volume   181.70496095
_cell_formula_units_Z   2
loop_
 _symmetry_equiv_pos_site_id
 _symmetry_equiv_pos_as_xyz
  1  'x, y, z'
loop_
 _atom_site_type_symbol
 _atom_site_label
 _atom_site_symmetry_multiplicity
 _atom_site_fract_x
 _atom_site_fract_y
 _atom_site_fract_z
 _atom_site_occupancy
  Li  Li0  1  0.89045549  0.30197851  0.21659345  1
  Li  Li1  1  0.11115554  0.69915053  0.79234886  1
  Li  Li2  1  0.49474010  0.50220698  0.99707886  1
  Li  Li3  1  0.71478112  0.89316673  0.59183351  1
  Li  Li4  1  0.28302025  0.11093399  0.40612107  1
  Li  Li5  1  0.21948086  0.39298497  0.58798207  1
  Mn  Mn0  1  0.99032096  0.00205124  0.00717595  1
  Mn  Mn1  1  0.59480601  0.20766638  0.79462349  1
  Co  Co0  1  0.40241220  0.79619351  0.20216398  1
  Co  Co1  1  0.80394925  0.59051236  0.40538444  1
  O  O0  1  0.41566984  0.14705023  0.08566981  1
  O  O1  1  0.66507410  0.55946524  0.67080880  1
  O  O2  1  0.06743903  0.33180559  0.88723319  1
  O  O3  1  0.23152063  0.74525338  0.48206176  1
  O  O4  1  0.86501352  0.94132361  0.28713803  1
  O  O5  1  0.38039776  0.46351663  0.30433171  1
  O  O6  1  0.57592843  0.85240123  0.91561328  1
  O  O7  1  0.93703162  0.65016506  0.12288989  1
  O  O8  1  0.11419701  0.06699165  0.72392558  1
  O  O9  1  0.74260628  0.24518219  0.51902227  1
loop_
_geom_bond_atom_site_label_1
_geom_bond_atom_site_label_2
_geom_bond_distance
_geom_bond_site_symmetry_2
Li0 O9 2.069868 1_555
Li0 O2 2.137411 1_654
Li0 O0 2.156945 1_655
Li0 O5 2.162710 1_555
Li0 O5 2.200229 1_655
Li0 O0 2.223110 1_555
Li1 O1 2.051167 1_455
Li1 O3 2.077946 1_555
Li1 O1 2.114640 1_555
Li1 O6 2.161990 1_455
Li1 O6 2.173146 1_555
Li1 O7 2.209641 1_456
Li2 O5 2.033073 1_556
Li2 O7 2.102182 1_556
Li2 O7 2.176140 1_456
Li2 O2 2.177844 1_555
Li2 O1 2.216096 1_555
Li2 O2 2.350818 1_655
Li3 O4 2.048425 1_555
Li3 O3 2.083545 1_655
Li3 O6 2.139682 1_555
Li3 O3 2.148268 1_555
Li3 O8 2.199576 1_665
Li3 O8 2.435731 1_565
Li4 O9 2.027422 1_555
Li4 O9 2.048258 1_455
Li4 O0 2.103806 1_555
Li4 O8 2.112844 1_555
Li4 O4 2.174778 1_445
Li4 O4 2.365700 1_545
Li5 O5 2.020492 1_555
Li5 O9 2.053914 1_455
Li5 O2 2.069569 1_555
Li5 O9 2.101559 1_555
Li5 O1 2.135941 1_555
Li5 O1 2.290416 1_455
Mn0 O0 1.944950 1_655
Mn0 O4 1.952896 1_545
Mn0 O6 1.977910 1_544
Mn0 O8 1.992406 1_654
Mn0 O0 2.192954 1_555
Mn0 O6 2.243081 1_644
Mn1 O9 1.830163 1_555
Mn1 O2 1.952576 1_655
Mn1 O2 1.953479 1_555
Mn1 O0 2.019357 1_556
Mn1 O8 2.020765 1_555
Mn1 O8 2.044688 1_655
Co0 O3 1.910187 1_555
Co0 O6 1.972611 1_554
Co0 O4 2.035029 1_555
Co0 O7 2.035894 1_455
Co0 O4 2.108641 1_455
Co0 O7 2.110143 1_555
Co1 O1 1.744750 1_555
Co1 O5 1.879235 1_555
Co1 O7 1.962627 1_555
Co1 O3 2.010889 1_655
Co1 O5 2.084277 1_655
Co1 O3 2.252096 1_555
