# generated using pymatgen
data_YBiRu2O7
_symmetry_space_group_name_H-M   'P 1'
_cell_length_a   7.30083451
_cell_length_b   7.30083451
_cell_length_c   7.30083451
_cell_angle_alpha   120.29176509
_cell_angle_beta   119.75345815
_cell_angle_gamma   89.96147261
_symmetry_Int_Tables_number   1
_chemical_formula_structural   YBiRu2O7
_chemical_formula_sum   'Y2 Bi2 Ru4 O14'
_cell_volume   275.06919920
_cell_formula_units_Z   2
loop_
 _symmetry_equiv_pos_site_id
 _symmetry_equiv_pos_as_xyz
  1  'x, y, z'
loop_
 _atom_site_type_symbol
 _atom_site_label
 _atom_site_symmetry_multiplicity
 _atom_site_fract_x
 _atom_site_fract_y
 _atom_site_fract_z
 _atom_site_occupancy
  Y  Y0  1  0.50000000  0.50000000  0.00000000  1
  Y  Y1  1  0.00000000  0.50000000  0.50000000  1
  Bi  Bi0  1  0.50000000  0.50000000  0.50000000  1
  Bi  Bi1  1  0.50000000  0.00000000  0.00000000  1
  Ru  Ru0  1  0.00000000  0.00000000  0.50000000  1
  Ru  Ru1  1  0.00000000  0.50000000  0.00000000  1
  Ru  Ru2  1  0.00000000  0.00000000  0.00000000  1
  Ru  Ru3  1  0.50000000  0.00000000  0.50000000  1
  O  O0  1  0.33092900  0.07931600  0.66131600  1
  O  O1  1  0.91800000  0.07931600  0.24838700  1
  O  O2  1  0.91818200  0.66818200  0.25000000  1
  O  O3  1  0.91800000  0.66961200  0.83868400  1
  O  O4  1  0.33092900  0.66961200  0.25161300  1
  O  O5  1  0.33012200  0.08012200  0.25000000  1
  O  O6  1  0.66907100  0.92068400  0.33868400  1
  O  O7  1  0.08200000  0.92068400  0.75161300  1
  O  O8  1  0.08181800  0.33181800  0.75000000  1
  O  O9  1  0.08200000  0.33038800  0.16131600  1
  O  O10  1  0.66907100  0.33038800  0.74838700  1
  O  O11  1  0.66987800  0.91987800  0.75000000  1
  O  O12  1  0.63406600  0.38406600  0.25000000  1
  O  O13  1  0.36593400  0.61593400  0.75000000  1
loop_
_geom_bond_atom_site_label_1
_geom_bond_atom_site_label_2
_geom_bond_distance
_geom_bond_site_symmetry_2
Bi0 O12 2.284603 1_555
Bi0 O13 2.284603 1_555
Bi0 O11 2.525977 1_555
Bi0 O5 2.525977 1_555
Bi0 O4 2.527287 1_555
Bi0 O10 2.527287 1_555
Bi0 O3 2.527293 1_555
Bi0 O9 2.527293 1_555
Bi1 O12 2.284603 1_555
Bi1 O13 2.284603 1_544
Bi1 O11 2.525977 1_544
Bi1 O5 2.525977 1_555
Bi1 O7 2.527293 1_544
Bi1 O0 2.527293 1_554
Bi1 O1 2.527293 1_555
Bi1 O6 2.527293 1_545
O0 Ru3 1.999996 1_555
O0 Ru0 2.012301 1_555
O0 Y0 2.526916 1_556
O1 Ru2 1.999996 1_655
O1 Ru0 2.012301 1_655
O1 Y1 2.526916 1_655
O2 Ru0 2.004035 1_665
O2 Ru1 2.004035 1_655
O2 Y1 2.524599 1_655
O2 Y0 2.524599 1_555
O3 Ru2 2.000003 1_666
O3 Ru1 2.012294 1_656
O3 Y1 2.526916 1_655
O4 Ru3 2.000002 1_565
O4 Ru1 2.012300 1_555
O4 Y0 2.526915 1_555
O5 Ru2 2.010238 1_555
O5 Ru3 2.010238 1_555
O6 Ru3 1.999996 1_565
O6 Ru0 2.012301 1_665
O6 Y0 2.526916 1_555
O7 Ru2 1.999996 1_566
O7 Ru0 2.012301 1_565
O7 Y1 2.526916 1_555
O8 Ru0 2.004035 1_555
O8 Ru1 2.004035 1_556
O8 Y0 2.524599 1_556
O8 Y1 2.524599 1_555
O9 Ru2 2.000003 1_555
O9 Ru1 2.012294 1_555
O9 Y1 2.526916 1_555
O10 Ru3 2.000002 1_555
O10 Ru1 2.012300 1_656
O10 Y0 2.526915 1_556
O11 Ru2 2.010238 1_666
O11 Ru3 2.010238 1_565
O12 Y1 2.188617 1_655
O12 Y0 2.188617 1_555
O13 Y0 2.188617 1_556
O13 Y1 2.188617 1_555
