# generated using pymatgen
data_Cu3F
_symmetry_space_group_name_H-M   'P 1'
_cell_length_a   5.19915362
_cell_length_b   5.19915362
_cell_length_c   4.10472500
_cell_angle_alpha   90.00000000
_cell_angle_beta   90.00000000
_cell_angle_gamma   119.99999513
_symmetry_Int_Tables_number   1
_chemical_formula_structural   Cu3F
_chemical_formula_sum   'Cu6 F2'
_cell_volume   96.09040382
_cell_formula_units_Z   2
loop_
 _symmetry_equiv_pos_site_id
 _symmetry_equiv_pos_as_xyz
  1  'x, y, z'
loop_
 _atom_site_type_symbol
 _atom_site_label
 _atom_site_symmetry_multiplicity
 _atom_site_fract_x
 _atom_site_fract_y
 _atom_site_fract_z
 _atom_site_occupancy
  Cu  Cu0  1  0.16332300  0.32664700  0.25000000  1
  Cu  Cu1  1  0.67335300  0.83667700  0.25000000  1
  Cu  Cu2  1  0.16332300  0.83667700  0.25000000  1
  Cu  Cu3  1  0.83667700  0.67335300  0.75000000  1
  Cu  Cu4  1  0.32664700  0.16332300  0.75000000  1
  Cu  Cu5  1  0.83667700  0.16332300  0.75000000  1
  F  F0  1  0.33333300  0.66666700  0.75000000  1
  F  F1  1  0.66666700  0.33333300  0.25000000  1
loop_
_geom_bond_atom_site_label_1
_geom_bond_atom_site_label_2
_geom_bond_distance
_geom_bond_site_symmetry_2
Cu0 Cu5 2.524939 1_454
Cu0 Cu5 2.524939 1_455
Cu0 Cu4 2.524944 1_555
Cu0 Cu4 2.524944 1_554
Cu0 Cu2 2.547429 1_545
Cu0 Cu1 2.547429 1_445
Cu0 F0 2.560483 1_554
Cu0 F0 2.560483 1_555
Cu0 F1 2.599746 1_455
Cu0 F1 2.599756 1_555
Cu0 Cu2 2.651724 1_555
Cu0 Cu1 2.651725 1_555
Cu1 Cu5 2.524939 1_564
Cu1 Cu5 2.524939 1_565
Cu1 Cu3 2.524944 1_554
Cu1 Cu3 2.524944 1_555
Cu1 Cu2 2.547429 1_655
Cu1 F0 2.560483 1_554
Cu1 F0 2.560483 1_555
Cu1 F1 2.599746 1_565
Cu1 F1 2.599756 1_555
Cu1 Cu2 2.651724 1_555
Cu2 Cu3 2.524939 1_454
Cu2 Cu3 2.524939 1_455
Cu2 Cu4 2.524939 1_564
Cu2 Cu4 2.524939 1_565
Cu2 F0 2.560483 1_554
Cu2 F0 2.560483 1_555
Cu2 F1 2.599751 1_455
Cu2 F1 2.599751 1_565
Cu3 Cu5 2.547429 1_565
Cu3 Cu4 2.547429 1_665
Cu3 F1 2.560483 1_555
Cu3 F1 2.560483 1_556
Cu3 F0 2.599746 1_655
Cu3 F0 2.599756 1_555
Cu3 Cu5 2.651724 1_555
Cu3 Cu4 2.651725 1_555
Cu4 Cu5 2.547429 1_455
Cu4 F1 2.560483 1_555
Cu4 F1 2.560483 1_556
Cu4 F0 2.599746 1_545
Cu4 F0 2.599756 1_555
Cu4 Cu5 2.651724 1_555
Cu5 F1 2.560483 1_555
Cu5 F1 2.560483 1_556
Cu5 F0 2.599751 1_545
Cu5 F0 2.599751 1_655
