# generated using pymatgen
data_Al2O
_symmetry_space_group_name_H-M   'P 1'
_cell_length_a   5.70494258
_cell_length_b   5.65584615
_cell_length_c   49.78173509
_cell_angle_alpha   89.46321228
_cell_angle_beta   91.11383672
_cell_angle_gamma   59.40045224
_symmetry_Int_Tables_number   1
_chemical_formula_structural   Al2O
_chemical_formula_sum   'Al36 O18'
_cell_volume   1381.98404530
_cell_formula_units_Z   18
loop_
 _symmetry_equiv_pos_site_id
 _symmetry_equiv_pos_as_xyz
  1  'x, y, z'
loop_
 _atom_site_type_symbol
 _atom_site_label
 _atom_site_symmetry_multiplicity
 _atom_site_fract_x
 _atom_site_fract_y
 _atom_site_fract_z
 _atom_site_occupancy
  Al  Al0  1  0.45635576  0.51288159  0.99982085  1
  Al  Al1  1  0.95668882  0.51305508  0.99972670  1
  Al  Al2  1  0.45769545  0.01340148  0.99906929  1
  Al  Al3  1  0.13905063  0.16540878  0.04672185  1
  Al  Al4  1  0.13380621  0.66558319  0.04718797  1
  Al  Al5  1  0.63522656  0.66924681  0.04662880  1
  Al  Al6  1  0.63571707  0.16587485  0.04687212  1
  Al  Al7  1  0.31457639  0.32121803  0.09309339  1
  Al  Al8  1  0.31468640  0.82117712  0.09298876  1
  Al  Al9  1  0.81244179  0.82146688  0.09342124  1
  Al  Al10  1  0.81455198  0.32179210  0.09219167  1
  Al  Al11  1  0.98938375  0.47798942  0.13974564  1
  Al  Al12  1  0.49366632  0.47381391  0.13961148  1
  Al  Al13  1  0.48868366  0.97575154  0.14014447  1
  Al  Al14  1  0.98945440  0.98049428  0.13967460  1
  Al  Al15  1  0.16927026  0.13395454  0.18674993  1
  Al  Al16  1  0.66588806  0.13086663  0.18643693  1
  Al  Al17  1  0.66867188  0.63469837  0.18673351  1
  Al  Al18  1  0.16903452  0.63430019  0.18449378  1
  Al  Al19  1  0.84677304  0.28680869  0.23170133  1
  Al  Al20  1  0.34058736  0.78363731  0.23155419  1
  Al  Al21  1  0.34993136  0.29773368  0.23268774  1
  Al  Al22  1  0.85287703  0.78763737  0.23184293  1
  Al  Al23  1  0.94600434  0.37892909  0.28007202  1
  Al  Al24  1  0.47430040  0.98356858  0.29235933  1
  Al  Al25  1  0.43911433  0.46353526  0.31043788  1
  Al  Al26  1  0.99196963  0.97513680  0.32846763  1
  Al  Al27  1  0.27928605  0.72656617  0.37408346  1
  Al  Al28  1  0.81073462  0.29891785  0.38683442  1
  Al  Al29  1  0.67584668  0.84056283  0.39274400  1
  Al  Al30  1  0.25015079  0.39302262  0.41966152  1
  Al  Al31  1  0.21883281  0.95532710  0.43781533  1
  Al  Al32  1  0.16394620  0.67491108  0.48039944  1
  Al  Al33  1  0.53808746  0.12278059  0.47904255  1
  Al  Al34  1  0.89635305  0.39423285  0.48598569  1
  Al  Al35  1  0.95700322  0.01309693  0.00013863  1
  O  O0  1  0.24204931  0.40631601  0.28689320  1
  O  O1  1  0.52821025  0.95861838  0.25617303  1
  O  O2  1  0.64508208  0.60298124  0.29983860  1
  O  O3  1  0.13731686  0.05424907  0.30178024  1
  O  O4  1  0.65762928  0.09084535  0.31641561  1
  O  O5  1  0.23653106  0.62980403  0.33843939  1
  O  O6  1  0.02274064  0.07424388  0.36203202  1
  O  O7  1  0.64235151  0.61840411  0.36770249  1
  O  O8  1  0.04246359  0.66587329  0.39325006  1
  O  O9  1  0.55152308  0.20925885  0.39432045  1
  O  O10  1  0.41669667  0.79605750  0.40780508  1
  O  O11  1  0.99199255  0.27537446  0.41737776  1
  O  O12  1  0.18324274  0.65294646  0.44386179  1
  O  O13  1  0.43542469  0.10729541  0.44521510  1
  O  O14  1  0.07762104  0.03245317  0.47386595  1
  O  O15  1  0.79671291  0.77343412  0.48696635  1
  O  O16  1  0.57223785  0.43037908  0.48448371  1
  O  O17  1  0.21997159  0.34441501  0.49606910  1
loop_
_geom_bond_atom_site_label_1
_geom_bond_atom_site_label_2
_geom_bond_distance
_geom_bond_site_symmetry_2
Al0 Al5 2.849231 1_556
Al0 Al6 2.856816 1_556
Al0 Al4 2.877692 1_556
Al1 Al5 2.855003 1_556
Al1 Al3 2.856277 1_656
Al1 Al4 2.860138 1_656
Al2 Al5 2.869404 1_546
Al2 Al6 2.876503 1_556
Al2 Al3 2.878532 1_556
Al3 Al5 2.793075 1_545
Al3 Al4 2.814117 1_555
Al3 Al8 2.817737 1_545
Al3 Al7 2.820443 1_555
Al3 Al6 2.834661 1_555
Al3 Al5 2.835934 1_455
Al3 Al35 2.837798 1_455
Al3 Al4 2.842166 1_545
Al3 Al6 2.870303 1_455
Al4 Al7 2.803469 1_555
Al4 Al6 2.809442 1_465
Al4 Al8 2.812204 1_555
Al4 Al6 2.819690 1_555
Al4 Al9 2.827056 1_455
Al4 Al5 2.833468 1_455
Al4 Al5 2.871849 1_555
Al5 Al6 2.810417 1_565
Al5 Al8 2.830227 1_555
Al5 Al9 2.832248 1_555
Al5 Al6 2.845483 1_555
Al6 Al7 2.825949 1_555
Al6 Al9 2.829475 1_545
Al7 Al9 2.807287 1_545
Al7 Al9 2.821840 1_455
Al7 Al8 2.827889 1_545
Al7 Al8 2.827967 1_555
Al8 Al9 2.840164 1_555
Al8 Al9 2.864942 1_455
Al10 Al6 2.787868 1_555
Al10 Al5 2.798690 1_555
Al10 Al3 2.804746 1_655
Al10 Al8 2.813852 1_555
Al10 Al8 2.815712 1_645
Al10 Al9 2.821219 1_555
Al10 Al9 2.836003 1_545
Al10 Al7 2.850439 1_655
Al10 Al7 2.855211 1_555
Al10 Al14 2.858525 1_545
Al10 Al11 2.867736 1_555
Al10 Al12 2.875190 1_555
Al11 Al18 2.768567 1_655
Al11 Al13 2.811004 1_555
Al11 Al14 2.813586 1_545
Al11 Al9 2.817826 1_555
Al11 Al13 2.818213 1_645
Al11 Al12 2.840013 1_555
Al11 Al14 2.842264 1_555
Al11 Al15 2.846596 1_655
Al11 Al7 2.855357 1_655
Al11 Al17 2.856397 1_555
Al11 Al12 2.865093 1_655
Al12 Al18 2.780910 1_555
Al12 Al14 2.783904 1_545
Al12 Al13 2.824898 1_555
Al12 Al7 2.827476 1_555
Al12 Al13 2.831422 1_545
Al12 Al16 2.836807 1_555
Al12 Al8 2.840664 1_555
Al12 Al14 2.845154 1_455
Al12 Al17 2.863821 1_555
Al13 Al16 2.820056 1_565
Al13 Al17 2.821592 1_555
Al13 Al14 2.834151 1_455
Al13 Al15 2.836784 1_565
Al13 Al8 2.844598 1_555
Al13 Al7 2.852823 1_565
Al13 Al9 2.854338 1_555
Al13 Al14 2.871161 1_555
Al14 Al18 2.765616 1_655
Al14 Al9 2.829085 1_555
Al14 Al15 2.854600 1_665
Al14 Al16 2.855836 1_565
Al14 Al8 2.856712 1_655
Al15 Al20 2.777904 1_545
Al15 Al19 2.777936 1_455
Al15 Al17 2.810754 1_545
Al15 Al17 2.818248 1_455
Al15 Al16 2.824674 1_555
Al15 Al18 2.829933 1_545
Al15 Al18 2.830369 1_555
Al15 Al21 2.840788 1_555
Al15 Al16 2.880437 1_455
Al16 Al22 2.780569 1_545
Al16 Al19 2.791733 1_555
Al16 Al17 2.798099 1_545
Al16 Al21 2.812683 1_555
Al16 Al18 2.814022 1_555
Al16 Al18 2.818687 1_645
Al16 Al17 2.857886 1_555
Al17 Al19 2.776472 1_555
Al17 Al22 2.786663 1_555
Al17 Al20 2.789940 1_555
Al17 Al18 2.851564 1_555
Al17 Al18 2.857739 1_655
Al18 Al20 2.819438 1_555
Al18 Al22 2.858748 1_455
Al18 Al21 2.874516 1_555
Al19 Al23 2.580908 1_555
Al19 Al21 2.804909 1_555
Al19 Al22 2.805611 1_545
Al19 Al20 2.806155 1_645
Al19 Al20 2.823621 1_555
Al19 Al22 2.850566 1_555
Al19 Al21 2.901911 1_655
Al20 O1 2.162718 1_555
Al21 O1 2.001440 1_545
Al22 O1 2.029400 1_555
Al23 O0 1.799103 1_655
Al23 O2 1.842707 1_555
Al23 O3 1.899402 1_655
Al24 O3 1.825325 1_565
Al24 O1 1.828038 1_555
Al24 O4 1.872732 1_565
Al24 O2 1.886026 1_555
Al24 O0 2.072438 1_565
Al25 O0 1.751784 1_555
Al25 O5 1.773103 1_555
Al25 O2 1.800258 1_555
Al25 O4 1.839669 1_555
Al26 O3 1.749921 1_665
Al26 O4 1.761741 1_565
Al26 O5 1.785620 1_655
Al26 O6 1.800895 1_665
Al27 O8 1.835682 1_555
Al27 O6 1.839163 1_565
Al27 O7 1.872037 1_555
Al27 O5 1.909149 1_555
Al27 O10 1.965192 1_555
Al28 O6 1.767725 1_655
Al28 O11 1.787132 1_555
Al28 O7 1.805556 1_555
Al28 O9 1.834166 1_555
Al29 O10 1.797140 1_555
Al29 O8 1.801384 1_655
Al29 O9 1.832247 1_565
Al29 O7 1.853068 1_555
Al30 O12 1.799450 1_555
Al30 O13 1.875428 1_555
Al30 O8 1.885198 1_555
Al30 O11 1.901936 1_455
Al30 O9 1.979230 1_555
Al31 O10 1.836611 1_555
Al31 O12 1.844701 1_555
Al31 O13 1.862994 1_565
Al31 O11 1.875079 1_465
Al31 O14 1.942474 1_565
Al32 O12 1.825944 1_555
Al32 O14 1.845315 1_565
Al32 O17 1.886647 1_555
Al32 O15 1.910003 1_455
Al32 O16 2.018986 1_555
Al33 O13 1.789737 1_555
Al33 O15 1.797597 1_545
Al33 O17 1.829497 1_555
Al33 O16 1.868110 1_555
Al34 O16 1.753823 1_555
Al34 O17 1.780908 1_655
Al34 O14 1.874408 1_655
Al34 O15 1.920192 1_555
Al35 Al6 2.847763 1_555
Al35 Al4 2.858318 1_645
