# generated using pymatgen
data_TiP2(HO4)2
_symmetry_space_group_name_H-M   'P 1'
_cell_length_a   6.40387600
_cell_length_b   5.25237800
_cell_length_c   18.73303863
_cell_angle_alpha   89.83612005
_cell_angle_beta   90.00000000
_cell_angle_gamma   90.00000000
_symmetry_Int_Tables_number   1
_chemical_formula_structural   TiP2(HO4)2
_chemical_formula_sum   'Ti4 P8 H8 O32'
_cell_volume   630.09399360
_cell_formula_units_Z   4
loop_
 _symmetry_equiv_pos_site_id
 _symmetry_equiv_pos_as_xyz
  1  'x, y, z'
loop_
 _atom_site_type_symbol
 _atom_site_label
 _atom_site_symmetry_multiplicity
 _atom_site_fract_x
 _atom_site_fract_y
 _atom_site_fract_z
 _atom_site_occupancy
  Ti  Ti0  1  0.74794100  0.76186000  0.66884900  1
  Ti  Ti1  1  0.75205900  0.76186000  0.16884900  1
  Ti  Ti2  1  0.25205900  0.23814000  0.33115100  1
  Ti  Ti3  1  0.24794100  0.23814000  0.83115100  1
  P  P0  1  0.83525900  0.24765600  0.56135700  1
  P  P1  1  0.66474100  0.24765600  0.06135700  1
  P  P2  1  0.16474100  0.75234400  0.43864300  1
  P  P3  1  0.33525900  0.75234400  0.93864300  1
  P  P4  1  0.25253500  0.73332600  0.71450900  1
  P  P5  1  0.24746500  0.73332600  0.21450900  1
  P  P6  1  0.74746500  0.26667400  0.28549100  1
  P  P7  1  0.75253500  0.26667400  0.78549100  1
  H  H0  1  0.84467700  0.60992600  0.44405200  1
  H  H1  1  0.65532300  0.60992600  0.94405200  1
  H  H2  1  0.15532300  0.39007400  0.55594800  1
  H  H3  1  0.34467700  0.39007400  0.05594800  1
  H  H4  1  0.82155200  0.17706000  0.44411700  1
  H  H5  1  0.67844800  0.17706000  0.94411700  1
  H  H6  1  0.17844800  0.82294000  0.55588300  1
  H  H7  1  0.32155200  0.82294000  0.05588300  1
  O  O0  1  0.44636900  0.76157700  0.66644200  1
  O  O1  1  0.05363100  0.76157700  0.16644200  1
  O  O2  1  0.55363100  0.23842300  0.33355800  1
  O  O3  1  0.94636900  0.23842300  0.83355800  1
  O  O4  1  0.24527000  0.47030000  0.25181900  1
  O  O5  1  0.25473000  0.47030000  0.75181900  1
  O  O6  1  0.75473000  0.52970000  0.74818100  1
  O  O7  1  0.74527000  0.52970000  0.24818100  1
  O  O8  1  0.44084900  0.75558000  0.16609800  1
  O  O9  1  0.05915100  0.75558000  0.66609800  1
  O  O10  1  0.55915100  0.24442000  0.83390200  1
  O  O11  1  0.94084900  0.24442000  0.33390200  1
  O  O12  1  0.25451200  0.94505400  0.77168700  1
  O  O13  1  0.24548800  0.94505400  0.27168700  1
  O  O14  1  0.74548800  0.05494600  0.22831300  1
  O  O15  1  0.75451200  0.05494600  0.72831300  1
  O  O16  1  0.24737100  0.01320200  0.41866700  1
  O  O17  1  0.25262900  0.01320200  0.91866700  1
  O  O18  1  0.75262900  0.98679800  0.58133300  1
  O  O19  1  0.74737100  0.98679800  0.08133300  1
  O  O20  1  0.24448400  0.52665200  0.89930600  1
  O  O21  1  0.25551600  0.52665200  0.39930600  1
  O  O22  1  0.75551600  0.47334800  0.10069400  1
  O  O23  1  0.74448400  0.47334800  0.60069400  1
  O  O24  1  0.41890800  0.23026400  0.06948100  1
  O  O25  1  0.08109200  0.23026400  0.56948100  1
  O  O26  1  0.58109200  0.76973600  0.93051900  1
  O  O27  1  0.91890800  0.76973600  0.43051900  1
  O  O28  1  0.28349800  0.69168900  0.02068500  1
  O  O29  1  0.21650200  0.69168900  0.52068500  1
  O  O30  1  0.71650200  0.30831100  0.97931500  1
  O  O31  1  0.78349800  0.30831100  0.47931500  1
loop_
_geom_bond_atom_site_label_1
_geom_bond_atom_site_label_2
_geom_bond_distance
_geom_bond_site_symmetry_2
H0 O27 0.996789 1_555
H1 O26 0.996789 1_555
H2 O25 0.996789 1_555
H3 O24 0.996789 1_555
H4 O31 0.985898 1_555
H5 O30 0.985898 1_555
H6 O29 0.985898 1_555
H7 O28 0.985898 1_555
O0 P4 1.540404 1_555
O0 Ti0 1.931757 1_555
O1 P5 1.540404 1_555
O1 Ti1 1.931757 1_455
O2 P6 1.540404 1_555
O2 Ti2 1.931757 1_555
O3 P7 1.540404 1_555
O3 Ti3 1.931757 1_655
O4 P5 1.546529 1_555
O4 Ti2 1.920162 1_555
O5 P4 1.546529 1_555
O5 Ti3 1.920162 1_555
O6 P7 1.546529 1_555
O6 Ti0 1.920162 1_555
O7 P6 1.546529 1_555
O7 Ti1 1.920162 1_555
O8 P5 1.539204 1_555
O8 Ti1 1.993892 1_555
O9 P4 1.539204 1_555
O9 Ti0 1.993892 1_455
O10 P7 1.539204 1_555
O10 Ti3 1.993892 1_555
O11 P6 1.539204 1_555
O11 Ti2 1.993892 1_655
O12 P4 1.546279 1_555
O12 Ti3 1.903206 1_565
O13 P5 1.546279 1_555
O13 Ti2 1.903206 1_565
O14 P6 1.546279 1_555
O14 Ti1 1.903206 1_545
O15 P7 1.546279 1_555
O15 Ti0 1.903206 1_545
O16 P2 1.514710 1_545
O16 Ti2 2.018275 1_555
O17 P3 1.514710 1_545
O17 Ti3 2.018275 1_555
O18 P0 1.514710 1_565
O18 Ti0 2.018275 1_555
O19 P1 1.514710 1_565
O19 Ti1 2.018275 1_555
O20 P3 1.513659 1_555
O20 Ti3 1.984441 1_555
O21 P2 1.513659 1_555
O21 Ti2 1.984441 1_555
O22 P1 1.513659 1_555
O22 Ti1 1.984441 1_555
O23 P0 1.513659 1_555
O23 Ti0 1.984441 1_555
O24 P1 1.584234 1_555
O25 P0 1.584234 1_455
O26 P3 1.584234 1_555
O27 P2 1.584234 1_655
O28 P3 1.603314 1_554
O29 P2 1.603314 1_555
O30 P1 1.603314 1_556
O31 P0 1.603314 1_555
