# generated using pymatgen
data_Na4FeO5
_symmetry_space_group_name_H-M   'P 1'
_cell_length_a   8.78320758
_cell_length_b   8.73686005
_cell_length_c   8.73466276
_cell_angle_alpha   65.14070366
_cell_angle_beta   106.60772311
_cell_angle_gamma   73.06869554
_symmetry_Int_Tables_number   1
_chemical_formula_structural   Na4FeO5
_chemical_formula_sum   'Na16 Fe4 O20'
_cell_volume   513.44446248
_cell_formula_units_Z   4
loop_
 _symmetry_equiv_pos_site_id
 _symmetry_equiv_pos_as_xyz
  1  'x, y, z'
loop_
 _atom_site_type_symbol
 _atom_site_label
 _atom_site_symmetry_multiplicity
 _atom_site_fract_x
 _atom_site_fract_y
 _atom_site_fract_z
 _atom_site_occupancy
  Na  Na0  1  0.29046500  0.65642900  0.44747300  1
  Na  Na1  1  0.79268000  0.90339700  0.69818800  1
  Na  Na2  1  0.29253900  0.15594200  0.94692200  1
  Na  Na3  1  0.79108500  0.40684600  0.19647100  1
  Na  Na4  1  0.39421500  0.19674200  0.59400800  1
  Na  Na5  1  0.89362400  0.45014400  0.84140400  1
  Na  Na6  1  0.39595400  0.69893100  0.09203000  1
  Na  Na7  1  0.89597400  0.94606000  0.34459100  1
  Na  Na8  1  0.60585100  0.80038100  0.40858400  1
  Na  Na9  1  0.10603200  0.05279700  0.65598400  1
  Na  Na10  1  0.60410400  0.30399300  0.90502000  1
  Na  Na11  1  0.10386600  0.55136100  0.15791300  1
  Na  Na12  1  0.70748800  0.34573600  0.55136100  1
  Na  Na13  1  0.20876800  0.59482600  0.80235700  1
  Na  Na14  1  0.70952600  0.84297000  0.05329600  1
  Na  Na15  1  0.20734600  0.09456000  0.30363500  1
  Fe  Fe0  1  0.00003700  0.49805000  0.50213800  1
  Fe  Fe1  1  0.50007400  0.75122000  0.74856900  1
  Fe  Fe2  1  0.00005300  0.00592600  0.99400400  1
  Fe  Fe3  1  0.50008300  0.24585700  0.25402600  1
  O  O0  1  0.00004000  0.69853000  0.30146300  1
  O  O1  1  0.49996500  0.95424500  0.54556100  1
  O  O2  1  0.99994900  0.29493300  0.70519100  1
  O  O3  1  0.50002900  0.55025800  0.94968400  1
  O  O4  1  0.23723100  0.91630300  0.15131500  1
  O  O5  1  0.73730600  0.16429000  0.40314300  1
  O  O6  1  0.24342800  0.41157800  0.65761200  1
  O  O7  1  0.74297100  0.66438500  0.90542400  1
  O  O8  1  0.43195800  0.40346400  0.33568800  1
  O  O9  1  0.93097000  0.65671900  0.58933200  1
  O  O10  1  0.43103000  0.90789200  0.83810100  1
  O  O11  1  0.93205600  0.15396300  0.08519700  1
  O  O12  1  0.56886600  0.59286100  0.66076900  1
  O  O13  1  0.06795200  0.84679000  0.91386300  1
  O  O14  1  0.56811300  0.09621900  0.16445700  1
  O  O15  1  0.06926400  0.34172600  0.41255600  1
  O  O16  1  0.76284600  0.08589300  0.84645300  1
  O  O17  1  0.26279800  0.33407100  0.09847200  1
  O  O18  1  0.75641800  0.58585900  0.34493300  1
  O  O19  1  0.25704900  0.83785200  0.59281100  1
loop_
_geom_bond_atom_site_label_1
_geom_bond_atom_site_label_2
_geom_bond_distance
_geom_bond_site_symmetry_2
Na0 O0 2.338402 1_555
Na0 O12 2.343840 1_555
Na0 O6 2.400602 1_555
Na0 O4 2.411947 1_555
Na0 O19 2.417438 1_555
Na0 O8 2.879356 1_555
Na1 O1 2.337109 1_555
Na1 O13 2.357043 1_655
Na1 O7 2.373298 1_555
Na1 O5 2.402607 1_565
Na1 O16 2.444339 1_565
Na1 O9 2.807602 1_555
Na2 O2 2.337064 1_455
Na2 O14 2.354337 1_556
Na2 O6 2.372895 1_555
Na2 O4 2.398386 1_546
Na2 O17 2.436297 1_556
Na2 O10 2.817307 1_545
Na3 O3 2.337775 1_554
Na3 O15 2.346733 1_655
Na3 O7 2.393086 1_554
Na3 O5 2.413879 1_555
Na3 O18 2.423637 1_555
Na3 O11 2.873896 1_555
Na4 O1 2.315776 1_545
Na4 O6 2.331355 1_555
Na4 O10 2.371869 1_545
Na4 O8 2.411001 1_555
Na4 O15 2.425477 1_555
Na4 O16 2.929198 1_555
Na5 O2 2.319619 1_555
Na5 O7 2.329725 1_555
Na5 O9 2.372615 1_555
Na5 O11 2.406652 1_556
Na5 O12 2.425307 1_555
Na5 O17 2.931298 1_656
Na6 O3 2.320503 1_554
Na6 O4 2.348588 1_555
Na6 O10 2.379295 1_554
Na6 O8 2.411215 1_555
Na6 O13 2.443257 1_554
Na6 O18 2.867924 1_555
Na7 O0 2.320520 1_655
Na7 O5 2.349184 1_565
Na7 O9 2.383903 1_555
Na7 O11 2.412220 1_565
Na7 O14 2.441980 1_565
Na7 O19 2.872634 1_655
Na8 O1 2.315968 1_555
Na8 O18 2.328852 1_555
Na8 O12 2.374675 1_555
Na8 O14 2.408420 1_565
Na8 O9 2.427238 1_555
Na8 O4 2.928403 1_555
Na9 O2 2.318102 1_455
Na9 O19 2.330090 1_545
Na9 O15 2.370103 1_555
Na9 O13 2.407834 1_545
Na9 O10 2.426462 1_545
Na9 O5 2.929163 1_455
Na10 O3 2.319730 1_555
Na10 O16 2.348722 1_555
Na10 O12 2.378536 1_555
Na10 O14 2.411527 1_556
Na10 O11 2.442768 1_556
Na10 O6 2.869413 1_555
Na11 O0 2.320179 1_555
Na11 O17 2.349835 1_555
Na11 O15 2.383185 1_555
Na11 O13 2.412693 1_554
Na11 O8 2.443633 1_555
Na11 O7 2.869901 1_454
Na12 O2 2.337166 1_555
Na12 O8 2.354560 1_555
Na12 O18 2.371649 1_555
Na12 O16 2.398903 1_555
Na12 O5 2.436251 1_555
Na12 O12 2.815342 1_555
Na13 O3 2.338523 1_555
Na13 O9 2.344847 1_455
Na13 O19 2.395584 1_555
Na13 O17 2.412367 1_556
Na13 O6 2.427422 1_555
Na13 O13 2.868769 1_555
Na14 O0 2.337717 1_655
Na14 O10 2.346355 1_554
Na14 O18 2.398943 1_555
Na14 O16 2.413839 1_564
Na14 O7 2.415229 1_554
Na14 O14 2.876813 1_565
Na15 O1 2.335809 1_545
Na15 O11 2.357008 1_455
Na15 O19 2.374257 1_545
Na15 O17 2.401479 1_555
Na15 O4 2.442998 1_545
Na15 O15 2.810835 1_555
Fe0 O6 1.876736 1_555
Fe0 O18 1.879151 1_455
Fe0 O9 1.879303 1_455
Fe0 O15 1.879927 1_555
Fe0 O0 1.886552 1_555
Fe0 O2 1.910536 1_455
Fe1 O19 1.874362 1_555
Fe1 O7 1.875267 1_555
Fe1 O12 1.880836 1_555
Fe1 O10 1.881658 1_555
Fe1 O3 1.891085 1_555
Fe1 O1 1.908965 1_555
Fe2 O4 1.830263 1_546
Fe2 O16 1.830313 1_455
Fe2 O11 1.830905 1_456
Fe2 O13 1.831043 1_545
Fe3 O17 1.830011 1_555
Fe3 O5 1.830039 1_555
Fe3 O14 1.830442 1_555
Fe3 O8 1.831066 1_555
