# generated using pymatgen
data_La3Yb
_symmetry_space_group_name_H-M   'P 1'
_cell_length_a   7.59885348
_cell_length_b   7.59885348
_cell_length_c   6.04212500
_cell_angle_alpha   90.00000000
_cell_angle_beta   90.00000000
_cell_angle_gamma   119.99999545
_symmetry_Int_Tables_number   1
_chemical_formula_structural   La3Yb
_chemical_formula_sum   'La6 Yb2'
_cell_volume   302.14575585
_cell_formula_units_Z   2
loop_
 _symmetry_equiv_pos_site_id
 _symmetry_equiv_pos_as_xyz
  1  'x, y, z'
loop_
 _atom_site_type_symbol
 _atom_site_label
 _atom_site_symmetry_multiplicity
 _atom_site_fract_x
 _atom_site_fract_y
 _atom_site_fract_z
 _atom_site_occupancy
  La  La0  1  0.16520900  0.33041700  0.25000000  1
  La  La1  1  0.66958300  0.83479100  0.25000000  1
  La  La2  1  0.16520900  0.83479100  0.25000000  1
  La  La3  1  0.83479100  0.66958300  0.75000000  1
  La  La4  1  0.33041700  0.16520900  0.75000000  1
  La  La5  1  0.83479100  0.16520900  0.75000000  1
  Yb  Yb0  1  0.33333300  0.66666700  0.75000000  1
  Yb  Yb1  1  0.66666700  0.33333300  0.25000000  1
loop_
_geom_bond_atom_site_label_1
_geom_bond_atom_site_label_2
_geom_bond_distance
_geom_bond_site_symmetry_2
La0 La4 3.722209 1_554
La0 La4 3.722209 1_555
La0 La5 3.722217 1_455
La0 La5 3.722217 1_454
La0 Yb0 3.744767 1_554
La0 Yb0 3.744767 1_555
La0 La2 3.766189 1_545
La0 La1 3.766190 1_445
La0 Yb1 3.799475 1_455
La0 Yb1 3.799475 1_555
La0 La2 3.832664 1_555
La0 La1 3.832664 1_555
La1 La3 3.722209 1_554
La1 La3 3.722209 1_555
La1 La5 3.722217 1_565
La1 La5 3.722217 1_564
La1 Yb0 3.744767 1_555
La1 Yb0 3.744767 1_554
La1 La2 3.766189 1_655
La1 Yb1 3.799475 1_565
La1 Yb1 3.799475 1_555
La1 La2 3.832664 1_555
La2 La3 3.722217 1_455
La2 La3 3.722217 1_454
La2 La4 3.722217 1_565
La2 La4 3.722217 1_564
La2 Yb0 3.744759 1_554
La2 Yb0 3.744759 1_555
La2 Yb1 3.799475 1_455
La2 Yb1 3.799475 1_565
La3 Yb1 3.744767 1_555
La3 Yb1 3.744767 1_556
La3 La5 3.766189 1_565
La3 La4 3.766190 1_665
La3 Yb0 3.799475 1_655
La3 Yb0 3.799475 1_555
La3 La5 3.832664 1_555
La3 La4 3.832664 1_555
La4 Yb1 3.744767 1_555
La4 Yb1 3.744767 1_556
La4 La5 3.766189 1_455
La4 Yb0 3.799475 1_545
La4 Yb0 3.799475 1_555
La4 La5 3.832664 1_555
La5 Yb1 3.744759 1_555
La5 Yb1 3.744759 1_556
La5 Yb0 3.799475 1_545
La5 Yb0 3.799475 1_655
