# generated using pymatgen
data_Cs4Mn(AsS4)2
_symmetry_space_group_name_H-M   'P 1'
_cell_length_a   9.60230200
_cell_length_b   9.76252866
_cell_length_c   11.58446718
_cell_angle_alpha   105.22175569
_cell_angle_beta   104.62019834
_cell_angle_gamma   90.74922786
_symmetry_Int_Tables_number   1
_chemical_formula_structural   Cs4Mn(AsS4)2
_chemical_formula_sum   'Cs8 Mn2 As4 S16'
_cell_volume   1010.26330643
_cell_formula_units_Z   2
loop_
 _symmetry_equiv_pos_site_id
 _symmetry_equiv_pos_as_xyz
  1  'x, y, z'
loop_
 _atom_site_type_symbol
 _atom_site_label
 _atom_site_symmetry_multiplicity
 _atom_site_fract_x
 _atom_site_fract_y
 _atom_site_fract_z
 _atom_site_occupancy
  Cs  Cs0  1  0.93205700  0.52181800  0.24988000  1
  Cs  Cs1  1  0.06794300  0.47818200  0.75012000  1
  Cs  Cs2  1  0.76098600  0.98242900  0.45615500  1
  Cs  Cs3  1  0.23901400  0.01757100  0.54384500  1
  Cs  Cs4  1  0.59893400  0.74290400  0.01517700  1
  Cs  Cs5  1  0.40106600  0.25709600  0.98482300  1
  Cs  Cs6  1  0.61841300  0.68301700  0.62405500  1
  Cs  Cs7  1  0.38158700  0.31698300  0.37594500  1
  Mn  Mn0  1  0.85082400  0.13924700  0.92738600  1
  Mn  Mn1  1  0.14917600  0.86075300  0.07261400  1
  As  As0  1  0.95450200  0.10982200  0.22024000  1
  As  As1  1  0.04549800  0.89017800  0.77976000  1
  As  As2  1  0.36284500  0.69346700  0.25367700  1
  As  As3  1  0.63715500  0.30653300  0.74632300  1
  S  S0  1  0.98296600  0.88748000  0.22148200  1
  S  S1  1  0.01703400  0.11252000  0.77851800  1
  S  S2  1  0.61036400  0.08271200  0.75311300  1
  S  S3  1  0.38963600  0.91728800  0.24688700  1
  S  S4  1  0.28470900  0.67224200  0.40965200  1
  S  S5  1  0.71529100  0.32775800  0.59034800  1
  S  S6  1  0.80301500  0.39728800  0.92228700  1
  S  S7  1  0.19698500  0.60271200  0.07771300  1
  S  S8  1  0.00691800  0.25006200  0.40746400  1
  S  S9  1  0.99308200  0.74993800  0.59253600  1
  S  S10  1  0.09270200  0.16060400  0.10885800  1
  S  S11  1  0.90729800  0.83939600  0.89114200  1
  S  S12  1  0.73941400  0.13213900  0.10776200  1
  S  S13  1  0.26058600  0.86786100  0.89223800  1
  S  S14  1  0.56493800  0.59134500  0.26149100  1
  S  S15  1  0.43506200  0.40865500  0.73850900  1
loop_
_geom_bond_atom_site_label_1
_geom_bond_atom_site_label_2
_geom_bond_distance
_geom_bond_site_symmetry_2
Cs0 S4 3.511095 1_655
Cs0 S6 3.546741 1_554
Cs0 S8 3.580285 1_655
Cs0 S14 3.627638 1_555
Cs0 S0 3.707126 1_555
Cs0 S7 3.795915 1_655
Cs0 S9 3.899926 1_555
Cs0 S12 3.948968 1_555
Cs0 S10 3.984081 1_655
Cs1 S5 3.511095 1_455
Cs1 S7 3.546741 1_556
Cs1 S9 3.580285 1_455
Cs1 S15 3.627638 1_555
Cs1 S1 3.707126 1_555
Cs1 S6 3.795915 1_455
Cs1 S8 3.899926 1_555
Cs1 S13 3.948968 1_555
Cs1 S11 3.984081 1_455
Cs2 S5 3.406717 1_565
Cs2 S9 3.585013 1_555
Cs2 S3 3.709949 1_555
Cs2 S8 3.742521 1_665
Cs2 S1 3.794269 1_665
Cs2 S0 3.800902 1_555
Cs2 S2 3.957881 1_565
Cs2 S14 4.044004 1_555
Cs3 S4 3.406717 1_545
Cs3 S8 3.585013 1_555
Cs3 S2 3.709949 1_555
Cs3 S9 3.742521 1_445
Cs3 S0 3.794269 1_445
Cs3 S1 3.800902 1_555
Cs3 S3 3.957881 1_545
Cs3 S15 4.044004 1_555
Cs4 S13 3.571000 1_554
Cs4 S14 3.621095 1_555
Cs4 S12 3.795364 1_565
Cs4 S11 3.808566 1_554
Cs4 S3 3.815186 1_555
Cs4 S0 3.865976 1_555
Cs4 S15 3.901824 1_554
Cs4 S6 3.964027 1_554
Cs5 S12 3.571000 1_556
Cs5 S15 3.621095 1_555
Cs5 S13 3.795364 1_545
Cs5 S10 3.808566 1_556
Cs5 S2 3.815186 1_555
Cs5 S1 3.865976 1_555
Cs5 S14 3.901824 1_556
Cs5 S7 3.964027 1_556
Cs6 S4 3.504856 1_555
Cs6 S5 3.550076 1_555
Cs6 S11 3.560171 1_555
Cs6 S9 3.772323 1_555
Cs6 S2 3.803931 1_565
Cs6 S15 3.866756 1_555
Cs6 S14 3.953598 1_555
Cs7 S5 3.504856 1_555
Cs7 S4 3.550076 1_555
Cs7 S10 3.560171 1_555
Cs7 S8 3.772323 1_555
Cs7 S3 3.803931 1_545
Cs7 S14 3.866756 1_555
Cs7 S15 3.953598 1_555
Mn0 S6 2.579721 1_555
Mn0 S12 2.591950 1_556
Mn0 S2 2.596171 1_555
Mn0 S1 2.598741 1_655
Mn0 S10 2.673884 1_656
Mn0 S11 2.924127 1_545
Mn1 S7 2.579721 1_555
Mn1 S13 2.591950 1_554
Mn1 S3 2.596171 1_555
Mn1 S0 2.598741 1_455
Mn1 S11 2.673884 1_454
Mn1 S10 2.924127 1_565
As0 S8 2.168746 1_655
As0 S12 2.193900 1_555
As0 S0 2.194637 1_545
As0 S10 2.203356 1_655
As1 S9 2.168746 1_455
As1 S13 2.193900 1_555
As1 S1 2.194637 1_565
As1 S11 2.203356 1_455
As2 S4 2.178903 1_555
As2 S14 2.185684 1_555
As2 S7 2.202855 1_555
As2 S3 2.220950 1_555
As3 S5 2.178903 1_555
As3 S15 2.185684 1_555
As3 S6 2.202855 1_555
As3 S2 2.220950 1_555
