# generated using pymatgen
data_Te2MoW3(SeS2)2
_symmetry_space_group_name_H-M   'P 1'
_cell_length_a   3.30629435
_cell_length_b   3.30629435
_cell_length_c   42.73530400
_cell_angle_alpha   90.00000000
_cell_angle_beta   90.00000000
_cell_angle_gamma   120.00000699
_symmetry_Int_Tables_number   1
_chemical_formula_structural   Te2MoW3(SeS2)2
_chemical_formula_sum   'Te2 Mo1 W3 Se2 S4'
_cell_volume   404.57629094
_cell_formula_units_Z   1
loop_
 _symmetry_equiv_pos_site_id
 _symmetry_equiv_pos_as_xyz
  1  'x, y, z'
loop_
 _atom_site_type_symbol
 _atom_site_label
 _atom_site_symmetry_multiplicity
 _atom_site_fract_x
 _atom_site_fract_y
 _atom_site_fract_z
 _atom_site_occupancy
  Te  Te0  1  0.33333300  0.66666700  0.32470400  1
  Te  Te1  1  0.33333300  0.66666700  0.23514100  1
  Mo  Mo0  1  0.66666700  0.33333300  0.27992400  1
  W  W0  1  0.33333300  0.66666700  0.09241000  1
  W  W1  1  0.33333300  0.66666700  0.47243700  1
  W  W2  1  0.66666700  0.33333300  0.65814800  1
  Se  Se0  1  0.66666700  0.33333300  0.43289800  1
  Se  Se1  1  0.66666700  0.33333300  0.51196700  1
  S  S0  1  0.33333300  0.66666700  0.69405400  1
  S  S1  1  0.66666700  0.33333300  0.05650300  1
  S  S2  1  0.66666700  0.33333300  0.12831800  1
  S  S3  1  0.33333300  0.66666700  0.62224500  1
loop_
_geom_bond_atom_site_label_1
_geom_bond_atom_site_label_2
_geom_bond_distance
_geom_bond_site_symmetry_2
Mo0 Te0 2.702971 1_545
Mo0 Te0 2.702971 1_655
Mo0 Te0 2.702975 1_555
Mo0 Te1 2.703061 1_655
Mo0 Te1 2.703061 1_545
Mo0 Te1 2.703066 1_555
Se0 W1 2.549309 1_545
Se0 W1 2.549309 1_655
Se0 W1 2.549314 1_555
Se1 W1 2.549054 1_545
Se1 W1 2.549054 1_655
Se1 W1 2.549059 1_555
S0 W2 2.449163 1_455
S0 W2 2.449163 1_565
S0 W2 2.449168 1_555
S1 W0 2.449190 1_655
S1 W0 2.449190 1_545
S1 W0 2.449195 1_555
S2 W0 2.449217 1_655
S2 W0 2.449217 1_545
S2 W0 2.449222 1_555
S3 W2 2.449083 1_455
S3 W2 2.449083 1_565
S3 W2 2.449088 1_555
