# generated using pymatgen
data_SrMg30SiO32
_symmetry_space_group_name_H-M   'P 1'
_cell_length_a   8.63037300
_cell_length_b   8.63037300
_cell_length_c   8.63550300
_cell_angle_alpha   90.00000000
_cell_angle_beta   90.00000000
_cell_angle_gamma   90.00000000
_symmetry_Int_Tables_number   1
_chemical_formula_structural   SrMg30SiO32
_chemical_formula_sum   'Sr1 Mg30 Si1 O32'
_cell_volume   643.20108978
_cell_formula_units_Z   1
loop_
 _symmetry_equiv_pos_site_id
 _symmetry_equiv_pos_as_xyz
  1  'x, y, z'
loop_
 _atom_site_type_symbol
 _atom_site_label
 _atom_site_symmetry_multiplicity
 _atom_site_fract_x
 _atom_site_fract_y
 _atom_site_fract_z
 _atom_site_occupancy
  Sr  Sr0  1  0.50000000  0.50000000  0.00000000  1
  Mg  Mg0  1  0.00000000  0.50000000  0.00000000  1
  Mg  Mg1  1  0.50000000  0.00000000  0.00000000  1
  Mg  Mg2  1  0.00000000  0.00000000  0.50000000  1
  Mg  Mg3  1  0.00000000  0.50000000  0.50000000  1
  Mg  Mg4  1  0.50000000  0.00000000  0.50000000  1
  Mg  Mg5  1  0.50000000  0.50000000  0.50000000  1
  Mg  Mg6  1  0.24628900  0.24628900  0.00000000  1
  Mg  Mg7  1  0.24628900  0.75371100  0.00000000  1
  Mg  Mg8  1  0.75371100  0.24628900  0.00000000  1
  Mg  Mg9  1  0.75371100  0.75371100  0.00000000  1
  Mg  Mg10  1  0.24959500  0.24959500  0.50000000  1
  Mg  Mg11  1  0.24959500  0.75040500  0.50000000  1
  Mg  Mg12  1  0.75040500  0.24959500  0.50000000  1
  Mg  Mg13  1  0.75040500  0.75040500  0.50000000  1
  Mg  Mg14  1  0.00000000  0.25092000  0.25202200  1
  Mg  Mg15  1  0.00000000  0.74908000  0.25202200  1
  Mg  Mg16  1  0.50000000  0.24484800  0.25516400  1
  Mg  Mg17  1  0.50000000  0.75515200  0.25516400  1
  Mg  Mg18  1  0.00000000  0.25092000  0.74797800  1
  Mg  Mg19  1  0.00000000  0.74908000  0.74797800  1
  Mg  Mg20  1  0.50000000  0.24484800  0.74483600  1
  Mg  Mg21  1  0.50000000  0.75515200  0.74483600  1
  Mg  Mg22  1  0.25092000  0.00000000  0.25202200  1
  Mg  Mg23  1  0.24484800  0.50000000  0.25516400  1
  Mg  Mg24  1  0.74908000  0.00000000  0.25202200  1
  Mg  Mg25  1  0.75515200  0.50000000  0.25516400  1
  Mg  Mg26  1  0.25092000  0.00000000  0.74797800  1
  Mg  Mg27  1  0.24484800  0.50000000  0.74483600  1
  Mg  Mg28  1  0.74908000  0.00000000  0.74797800  1
  Mg  Mg29  1  0.75515200  0.50000000  0.74483600  1
  Si  Si0  1  0.00000000  0.00000000  0.00000000  1
  O  O0  1  0.00000000  0.00000000  0.26091600  1
  O  O1  1  0.00000000  0.50000000  0.25527700  1
  O  O2  1  0.50000000  0.00000000  0.25527700  1
  O  O3  1  0.50000000  0.50000000  0.27019900  1
  O  O4  1  0.00000000  0.00000000  0.73908400  1
  O  O5  1  0.00000000  0.50000000  0.74472300  1
  O  O6  1  0.50000000  0.00000000  0.74472300  1
  O  O7  1  0.50000000  0.50000000  0.72980100  1
  O  O8  1  0.24969000  0.24969000  0.24947400  1
  O  O9  1  0.24969000  0.75031000  0.24947400  1
  O  O10  1  0.75031000  0.24969000  0.24947400  1
  O  O11  1  0.75031000  0.75031000  0.24947400  1
  O  O12  1  0.24969000  0.24969000  0.75052600  1
  O  O13  1  0.24969000  0.75031000  0.75052600  1
  O  O14  1  0.75031000  0.24969000  0.75052600  1
  O  O15  1  0.75031000  0.75031000  0.75052600  1
  O  O16  1  0.00000000  0.25611400  0.00000000  1
  O  O17  1  0.00000000  0.74388600  0.00000000  1
  O  O18  1  0.50000000  0.23065100  0.00000000  1
  O  O19  1  0.50000000  0.76934900  0.00000000  1
  O  O20  1  0.00000000  0.25054600  0.50000000  1
  O  O21  1  0.00000000  0.74945400  0.50000000  1
  O  O22  1  0.50000000  0.24646500  0.50000000  1
  O  O23  1  0.50000000  0.75353500  0.50000000  1
  O  O24  1  0.25611400  0.00000000  0.00000000  1
  O  O25  1  0.23065100  0.50000000  0.00000000  1
  O  O26  1  0.74388600  0.00000000  0.00000000  1
  O  O27  1  0.76934900  0.50000000  0.00000000  1
  O  O28  1  0.25054600  0.00000000  0.50000000  1
  O  O29  1  0.24646500  0.50000000  0.50000000  1
  O  O30  1  0.74945400  0.00000000  0.50000000  1
  O  O31  1  0.75353500  0.50000000  0.50000000  1
loop_
_geom_bond_atom_site_label_1
_geom_bond_atom_site_label_2
_geom_bond_distance
_geom_bond_site_symmetry_2
Mg0 O25 1.990604 1_555
Mg0 O27 1.990604 1_455
Mg0 O16 2.104827 1_555
Mg0 O17 2.104827 1_555
Mg0 O5 2.204445 1_554
Mg0 O1 2.204445 1_555
Mg1 O18 1.990604 1_555
Mg1 O19 1.990604 1_545
Mg1 O24 2.104827 1_555
Mg1 O26 2.104827 1_555
Mg1 O2 2.204445 1_555
Mg1 O6 2.204445 1_554
Mg2 O4 2.064611 1_555
Mg2 O0 2.064611 1_555
Mg2 O20 2.162305 1_555
Mg2 O28 2.162305 1_555
Mg2 O30 2.162305 1_455
Mg2 O21 2.162305 1_545
Mg3 O1 2.113306 1_555
Mg3 O5 2.113306 1_555
Mg3 O29 2.127085 1_555
Mg3 O31 2.127085 1_455
Mg3 O21 2.152881 1_555
Mg3 O20 2.152881 1_555
Mg4 O2 2.113306 1_555
Mg4 O6 2.113306 1_555
Mg4 O22 2.127085 1_555
Mg4 O23 2.127085 1_545
Mg4 O30 2.152881 1_555
Mg4 O28 2.152881 1_555
Mg5 O3 1.984447 1_555
Mg5 O7 1.984447 1_555
Mg5 O31 2.188102 1_555
Mg5 O23 2.188102 1_555
Mg5 O29 2.188102 1_555
Mg5 O22 2.188102 1_555
Mg6 O24 2.127257 1_555
Mg6 O16 2.127257 1_555
Mg6 O12 2.154733 1_554
Mg6 O8 2.154733 1_555
Mg6 O18 2.193776 1_555
Mg6 O25 2.193776 1_555
Mg7 O24 2.127257 1_565
Mg7 O17 2.127257 1_555
Mg7 O9 2.154733 1_555
Mg7 O13 2.154733 1_554
Mg7 O19 2.193776 1_555
Mg7 O25 2.193776 1_555
Mg8 O16 2.127257 1_655
Mg8 O26 2.127257 1_555
Mg8 O10 2.154733 1_555
Mg8 O14 2.154733 1_554
Mg8 O27 2.193776 1_555
Mg8 O18 2.193776 1_555
Mg9 O26 2.127257 1_565
Mg9 O17 2.127257 1_655
Mg9 O15 2.154733 1_554
Mg9 O11 2.154733 1_555
Mg9 O27 2.193776 1_555
Mg9 O19 2.193776 1_555
Mg10 O20 2.154114 1_555
Mg10 O28 2.154114 1_555
Mg10 O29 2.161257 1_555
Mg10 O22 2.161257 1_555
Mg10 O8 2.163418 1_555
Mg10 O12 2.163418 1_555
Mg11 O28 2.154114 1_565
Mg11 O21 2.154114 1_555
Mg11 O29 2.161257 1_555
Mg11 O23 2.161257 1_555
Mg11 O9 2.163418 1_555
Mg11 O13 2.163418 1_555
Mg12 O20 2.154114 1_655
Mg12 O30 2.154114 1_555
Mg12 O31 2.161257 1_555
Mg12 O22 2.161257 1_555
Mg12 O14 2.163418 1_555
Mg12 O10 2.163418 1_555
Mg13 O30 2.154114 1_565
Mg13 O21 2.154114 1_655
Mg13 O31 2.161257 1_555
Mg13 O23 2.161257 1_555
Mg13 O11 2.163418 1_555
Mg13 O15 2.163418 1_555
Mg14 O20 2.141417 1_555
Mg14 O1 2.149837 1_555
Mg14 O8 2.155056 1_555
Mg14 O10 2.155056 1_455
Mg14 O0 2.166895 1_555
Mg14 O16 2.176798 1_555
Mg15 O21 2.141417 1_555
Mg15 O1 2.149837 1_555
Mg15 O11 2.155056 1_455
Mg15 O9 2.155056 1_555
Mg15 O0 2.166895 1_565
Mg15 O17 2.176798 1_555
Mg16 O2 2.113130 1_555
Mg16 O22 2.114328 1_555
Mg16 O10 2.161231 1_555
Mg16 O8 2.161231 1_555
Mg16 O3 2.205881 1_555
Mg16 O18 2.206873 1_555
Mg17 O2 2.113130 1_565
Mg17 O23 2.114328 1_555
Mg17 O9 2.161231 1_555
Mg17 O11 2.161231 1_555
Mg17 O3 2.205881 1_555
Mg17 O19 2.206873 1_555
Mg18 O20 2.141417 1_555
Mg18 O5 2.149837 1_555
Mg18 O12 2.155056 1_555
Mg18 O14 2.155056 1_455
Mg18 O4 2.166895 1_555
Mg18 O16 2.176798 1_556
Mg19 O21 2.141417 1_555
Mg19 O5 2.149837 1_555
Mg19 O13 2.155056 1_555
Mg19 O15 2.155056 1_455
Mg19 O4 2.166895 1_565
Mg19 O17 2.176798 1_556
Mg20 O6 2.113130 1_555
Mg20 O22 2.114328 1_555
Mg20 O14 2.161231 1_555
Mg20 O12 2.161231 1_555
Mg20 O7 2.205881 1_555
Mg20 O18 2.206873 1_556
Mg21 O6 2.113130 1_565
Mg21 O23 2.114328 1_555
Mg21 O15 2.161231 1_555
Mg21 O13 2.161231 1_555
Mg21 O7 2.205881 1_555
Mg21 O19 2.206873 1_556
Mg22 O28 2.141417 1_555
Mg22 O2 2.149837 1_555
Mg22 O9 2.155056 1_545
Mg22 O8 2.155056 1_555
Mg22 O0 2.166895 1_555
Mg22 O24 2.176798 1_555
Mg23 O1 2.113130 1_555
Mg23 O29 2.114328 1_555
Mg23 O9 2.161231 1_555
Mg23 O8 2.161231 1_555
Mg23 O3 2.205881 1_555
Mg23 O25 2.206873 1_555
Mg24 O30 2.141417 1_555
Mg24 O2 2.149837 1_555
Mg24 O10 2.155056 1_555
Mg24 O11 2.155056 1_545
Mg24 O0 2.166895 1_655
Mg24 O26 2.176798 1_555
Mg25 O1 2.113130 1_655
Mg25 O31 2.114328 1_555
Mg25 O10 2.161231 1_555
Mg25 O11 2.161231 1_555
Mg25 O3 2.205881 1_555
Mg25 O27 2.206873 1_555
Mg26 O28 2.141417 1_555
Mg26 O6 2.149837 1_555
Mg26 O12 2.155056 1_555
Mg26 O13 2.155056 1_545
Mg26 O4 2.166895 1_555
Mg26 O24 2.176798 1_556
Mg27 O5 2.113130 1_555
Mg27 O29 2.114328 1_555
Mg27 O13 2.161231 1_555
Mg27 O12 2.161231 1_555
Mg27 O7 2.205881 1_555
Mg27 O25 2.206873 1_556
Mg28 O30 2.141417 1_555
Mg28 O6 2.149837 1_555
Mg28 O14 2.155056 1_555
Mg28 O15 2.155056 1_545
Mg28 O4 2.166895 1_655
Mg28 O26 2.176798 1_556
Mg29 O5 2.113130 1_655
Mg29 O31 2.114328 1_555
Mg29 O14 2.161231 1_555
Mg29 O15 2.161231 1_555
Mg29 O7 2.205881 1_555
Mg29 O27 2.206873 1_556
O0 Si0 2.253141 1_555
O3 Sr0 2.333304 1_555
O4 Si0 2.253141 1_556
O7 Sr0 2.333304 1_556
O16 Si0 2.210359 1_555
O17 Si0 2.210359 1_565
O18 Sr0 2.324582 1_555
O19 Sr0 2.324582 1_555
O24 Si0 2.210359 1_555
O25 Sr0 2.324582 1_555
O26 Si0 2.210359 1_655
O27 Sr0 2.324582 1_555
