# generated using pymatgen
data_TbMg149
_symmetry_space_group_name_H-M   'P 1'
_cell_length_a   15.99246199
_cell_length_b   15.99246813
_cell_length_c   15.62167087
_cell_angle_alpha   90.00000000
_cell_angle_beta   90.00000000
_cell_angle_gamma   120.00001272
_symmetry_Int_Tables_number   1
_chemical_formula_structural   TbMg149
_chemical_formula_sum   'Tb1 Mg149'
_cell_volume   3460.10183443
_cell_formula_units_Z   1
loop_
 _symmetry_equiv_pos_site_id
 _symmetry_equiv_pos_as_xyz
  1  'x, y, z'
loop_
 _atom_site_type_symbol
 _atom_site_label
 _atom_site_symmetry_multiplicity
 _atom_site_fract_x
 _atom_site_fract_y
 _atom_site_fract_z
 _atom_site_occupancy
  Tb  Tb0  1  0.00000000  0.00000000  -0.00000000  1
  Mg  Mg0  1  0.60005226  0.20010352  -0.00000000  1
  Mg  Mg1  1  0.79940940  0.20059060  -0.00000000  1
  Mg  Mg2  1  0.40118120  0.20059060  -0.00000000  1
  Mg  Mg3  1  0.20205998  0.20497178  -0.00000000  1
  Mg  Mg4  1  0.00291180  0.20497178  -0.00000000  1
  Mg  Mg5  1  0.00015827  0.40017291  -0.00000000  1
  Mg  Mg6  1  0.40001464  0.40017291  -0.00000000  1
  Mg  Mg7  1  0.79989648  0.39994874  -0.00000000  1
  Mg  Mg8  1  0.60005226  0.39994874  -0.00000000  1
  Mg  Mg9  1  0.20158012  0.40315925  -0.00000000  1
  Mg  Mg10  1  0.79940940  0.59881880  -0.00000000  1
  Mg  Mg11  1  0.00015827  0.59998536  -0.00000000  1
  Mg  Mg12  1  0.59982809  0.59998636  -0.00000000  1
  Mg  Mg13  1  0.39974509  0.60025491  -0.00000000  1
  Mg  Mg14  1  0.20050983  0.60025491  -0.00000000  1
  Mg  Mg15  1  0.59684075  0.79841988  -0.00000000  1
  Mg  Mg16  1  0.20158012  0.79842088  -0.00000000  1
  Mg  Mg17  1  0.79502822  0.79794002  -0.00000000  1
  Mg  Mg18  1  0.00291180  0.79794002  -0.00000000  1
  Mg  Mg19  1  0.39974509  0.79949017  -0.00000000  1
  Mg  Mg20  1  0.20205998  0.99708820  -0.00000000  1
  Mg  Mg21  1  0.79502822  0.99708820  -0.00000000  1
  Mg  Mg22  1  0.40001464  0.99984173  -0.00000000  1
  Mg  Mg23  1  0.59982809  0.99984173  -0.00000000  1
  Mg  Mg24  1  0.26383275  0.13191637  0.16463697  1
  Mg  Mg25  1  0.86808363  0.13191637  0.16463697  1
  Mg  Mg26  1  0.86808363  0.73616725  0.16463697  1
  Mg  Mg27  1  0.66666700  0.33333300  0.16610712  1
  Mg  Mg28  1  0.46559821  0.13296561  0.16651697  1
  Mg  Mg29  1  0.66736740  0.13296561  0.16651697  1
  Mg  Mg30  1  0.46559821  0.33263260  0.16651697  1
  Mg  Mg31  1  0.86703439  0.33263360  0.16651697  1
  Mg  Mg32  1  0.66736740  0.53440079  0.16651697  1
  Mg  Mg33  1  0.86703439  0.53440079  0.16651697  1
  Mg  Mg34  1  0.06671089  0.53335544  0.16726756  1
  Mg  Mg35  1  0.46664456  0.53335544  0.16726756  1
  Mg  Mg36  1  0.46664456  0.93328911  0.16726756  1
  Mg  Mg37  1  0.26714607  0.53429315  0.16734837  1
  Mg  Mg38  1  0.46570685  0.73285293  0.16734837  1
  Mg  Mg39  1  0.26714607  0.73285393  0.16734837  1
  Mg  Mg40  1  0.26759427  0.33561455  0.16767513  1
  Mg  Mg41  1  0.06802028  0.33561455  0.16767513  1
  Mg  Mg42  1  0.66438545  0.73240573  0.16767513  1
  Mg  Mg43  1  0.06802028  0.73240573  0.16767513  1
  Mg  Mg44  1  0.66438545  0.93197972  0.16767513  1
  Mg  Mg45  1  0.26759427  0.93197972  0.16767513  1
  Mg  Mg46  1  0.06795233  0.13590467  0.16965930  1
  Mg  Mg47  1  0.86409533  0.93204767  0.16965930  1
  Mg  Mg48  1  0.06795233  0.93204767  0.16965930  1
  Mg  Mg49  1  0.39970765  0.19985333  0.33280663  1
  Mg  Mg50  1  0.80014667  0.19985433  0.33280663  1
  Mg  Mg51  1  0.80014667  0.60029235  0.33280663  1
  Mg  Mg52  1  0.59999020  0.19998040  0.33276850  1
  Mg  Mg53  1  0.80001960  0.40000980  0.33276850  1
  Mg  Mg54  1  0.59999020  0.40000980  0.33276850  1
  Mg  Mg55  1  0.79944097  0.00000845  0.33346208  1
  Mg  Mg56  1  0.20056848  0.00000945  0.33346208  1
  Mg  Mg57  1  0.20056848  0.20056003  0.33346208  1
  Mg  Mg58  1  0.99999055  0.20056003  0.33346208  1
  Mg  Mg59  1  0.99999055  0.79943052  0.33346208  1
  Mg  Mg60  1  0.79944097  0.79943152  0.33346208  1
  Mg  Mg61  1  0.40046125  0.00018586  0.33375749  1
  Mg  Mg62  1  0.59972561  0.00018686  0.33375749  1
  Mg  Mg63  1  0.40046125  0.40027439  0.33375749  1
  Mg  Mg64  1  0.99981414  0.40027539  0.33375749  1
  Mg  Mg65  1  0.99981414  0.59953875  0.33375749  1
  Mg  Mg66  1  0.59972561  0.59953875  0.33375749  1
  Mg  Mg67  1  0.40007402  0.59992598  0.33369220  1
  Mg  Mg68  1  0.19985297  0.59992598  0.33369220  1
  Mg  Mg69  1  0.40007402  0.80014703  0.33369220  1
  Mg  Mg70  1  0.20021826  0.40043852  0.33413763  1
  Mg  Mg71  1  0.59956148  0.79978074  0.33413763  1
  Mg  Mg72  1  0.20021826  0.79978074  0.33413763  1
  Mg  Mg73  1  0.00000000  0.00000000  0.33465575  1
  Mg  Mg74  1  0.86642916  0.13357084  0.50000000  1
  Mg  Mg75  1  0.26714168  0.13357084  0.50000000  1
  Mg  Mg76  1  0.06679907  0.13359915  0.50000000  1
  Mg  Mg77  1  0.66712364  0.13415065  0.50000000  1
  Mg  Mg78  1  0.46702801  0.13415065  0.50000000  1
  Mg  Mg79  1  0.86584835  0.33287636  0.50000000  1
  Mg  Mg80  1  0.46702801  0.33287636  0.50000000  1
  Mg  Mg81  1  0.66666700  0.33333300  0.50000000  1
  Mg  Mg82  1  0.26677017  0.33359824  0.50000000  1
  Mg  Mg83  1  0.06682807  0.33359824  0.50000000  1
  Mg  Mg84  1  0.86584835  0.53297199  0.50000000  1
  Mg  Mg85  1  0.66712364  0.53297299  0.50000000  1
  Mg  Mg86  1  0.06607591  0.53303796  0.50000000  1
  Mg  Mg87  1  0.46696204  0.53303796  0.50000000  1
  Mg  Mg88  1  0.26676962  0.53353925  0.50000000  1
  Mg  Mg89  1  0.86642916  0.73285832  0.50000000  1
  Mg  Mg90  1  0.06682807  0.73322883  0.50000000  1
  Mg  Mg91  1  0.66640176  0.73322883  0.50000000  1
  Mg  Mg92  1  0.46646075  0.73323038  0.50000000  1
  Mg  Mg93  1  0.26676962  0.73323038  0.50000000  1
  Mg  Mg94  1  0.86640085  0.93319993  0.50000000  1
  Mg  Mg95  1  0.06679907  0.93319993  0.50000000  1
  Mg  Mg96  1  0.26677017  0.93317193  0.50000000  1
  Mg  Mg97  1  0.66640176  0.93317193  0.50000000  1
  Mg  Mg98  1  0.46696204  0.93392309  0.50000000  1
  Mg  Mg99  1  0.00000000  0.00000000  0.66534425  1
  Mg  Mg100  1  0.20021826  0.40043852  0.66586237  1
  Mg  Mg101  1  0.59956148  0.79978074  0.66586237  1
  Mg  Mg102  1  0.20021826  0.79978074  0.66586237  1
  Mg  Mg103  1  0.40007402  0.59992598  0.66630780  1
  Mg  Mg104  1  0.19985297  0.59992598  0.66630780  1
  Mg  Mg105  1  0.40007402  0.80014703  0.66630780  1
  Mg  Mg106  1  0.40046125  0.00018586  0.66624251  1
  Mg  Mg107  1  0.59972561  0.00018686  0.66624251  1
  Mg  Mg108  1  0.40046125  0.40027439  0.66624251  1
  Mg  Mg109  1  0.99981414  0.40027539  0.66624251  1
  Mg  Mg110  1  0.99981414  0.59953875  0.66624251  1
  Mg  Mg111  1  0.59972561  0.59953875  0.66624251  1
  Mg  Mg112  1  0.79944097  0.00000845  0.66653792  1
  Mg  Mg113  1  0.20056848  0.00000945  0.66653792  1
  Mg  Mg114  1  0.20056848  0.20056003  0.66653792  1
  Mg  Mg115  1  0.99999055  0.20056003  0.66653792  1
  Mg  Mg116  1  0.99999055  0.79943052  0.66653792  1
  Mg  Mg117  1  0.79944097  0.79943152  0.66653792  1
  Mg  Mg118  1  0.59999020  0.19998040  0.66723150  1
  Mg  Mg119  1  0.80001960  0.40000980  0.66723150  1
  Mg  Mg120  1  0.59999020  0.40000980  0.66723150  1
  Mg  Mg121  1  0.39970765  0.19985333  0.66719337  1
  Mg  Mg122  1  0.80014667  0.19985433  0.66719337  1
  Mg  Mg123  1  0.80014667  0.60029235  0.66719337  1
  Mg  Mg124  1  0.06795233  0.13590467  0.83034070  1
  Mg  Mg125  1  0.86409533  0.93204767  0.83034070  1
  Mg  Mg126  1  0.06795233  0.93204767  0.83034070  1
  Mg  Mg127  1  0.26759427  0.33561455  0.83232487  1
  Mg  Mg128  1  0.06802028  0.33561455  0.83232487  1
  Mg  Mg129  1  0.66438545  0.73240573  0.83232487  1
  Mg  Mg130  1  0.06802028  0.73240573  0.83232487  1
  Mg  Mg131  1  0.66438545  0.93197972  0.83232487  1
  Mg  Mg132  1  0.26759427  0.93197972  0.83232487  1
  Mg  Mg133  1  0.26714607  0.53429315  0.83265163  1
  Mg  Mg134  1  0.46570685  0.73285293  0.83265163  1
  Mg  Mg135  1  0.26714607  0.73285393  0.83265163  1
  Mg  Mg136  1  0.06671089  0.53335544  0.83273244  1
  Mg  Mg137  1  0.46664456  0.53335544  0.83273244  1
  Mg  Mg138  1  0.46664456  0.93328911  0.83273244  1
  Mg  Mg139  1  0.46559821  0.13296561  0.83348303  1
  Mg  Mg140  1  0.66736740  0.13296561  0.83348303  1
  Mg  Mg141  1  0.46559821  0.33263260  0.83348303  1
  Mg  Mg142  1  0.86703439  0.33263360  0.83348303  1
  Mg  Mg143  1  0.66736740  0.53440079  0.83348303  1
  Mg  Mg144  1  0.86703439  0.53440079  0.83348303  1
  Mg  Mg145  1  0.66666700  0.33333300  0.83389288  1
  Mg  Mg146  1  0.26383275  0.13191637  0.83536303  1
  Mg  Mg147  1  0.86808363  0.13191637  0.83536303  1
  Mg  Mg148  1  0.86808363  0.73616725  0.83536303  1
loop_
_geom_bond_atom_site_label_1
_geom_bond_atom_site_label_2
_geom_bond_distance
_geom_bond_site_symmetry_2
Mg0 Mg145 3.184048 1_554
Mg0 Mg27 3.184048 1_555
Mg0 Mg1 3.184324 1_555
Mg0 Mg2 3.184340 1_555
Mg0 Mg7 3.196009 1_555
Mg0 Mg8 3.196018 1_555
Mg0 Mg140 3.199103 1_554
Mg0 Mg29 3.199103 1_555
Mg0 Mg139 3.199111 1_554
Mg0 Mg28 3.199111 1_555
Mg0 Mg22 3.200888 1_545
Mg0 Mg23 3.200889 1_545
Mg1 Mg140 3.179884 1_554
Mg1 Mg29 3.179884 1_555
Mg1 Mg142 3.179893 1_554
Mg1 Mg31 3.179893 1_555
Mg1 Mg7 3.184341 1_555
Mg1 Mg147 3.198951 1_554
Mg1 Mg25 3.198951 1_555
Mg1 Mg23 3.201173 1_545
Mg1 Mg5 3.201181 1_655
Mg1 Mg4 3.220043 1_655
Mg1 Mg21 3.220044 1_545
Mg2 Mg30 3.179885 1_555
Mg2 Mg28 3.179885 1_555
Mg2 Mg8 3.184340 1_555
Mg2 Mg24 3.198950 1_555
Mg2 Mg22 3.201183 1_545
Mg2 Mg6 3.201183 1_555
Mg2 Mg20 3.220043 1_545
Mg2 Mg3 3.220043 1_555
Mg3 Mg6 3.143996 1_555
Mg3 Mg9 3.173351 1_555
Mg3 Mg40 3.183547 1_555
Mg3 Mg4 3.184870 1_555
Mg3 Mg46 3.236556 1_555
Mg3 Tb0 3.254970 1_555
Mg4 Mg5 3.143997 1_555
Mg4 Mg9 3.173358 1_555
Mg4 Mg41 3.183547 1_555
Mg4 Mg46 3.236556 1_555
Mg4 Tb0 3.254971 1_555
Mg5 Mg9 3.197619 1_555
Mg5 Mg7 3.200888 1_455
Mg6 Mg9 3.197604 1_555
Mg6 Mg8 3.200888 1_555
Mg7 Mg8 3.196001 1_555
Mg10 Mg143 3.179884 1_554
Mg10 Mg32 3.179884 1_555
Mg10 Mg144 3.179893 1_554
Mg10 Mg33 3.179893 1_555
Mg10 Mg8 3.184324 1_555
Mg10 Mg7 3.184325 1_555
Mg10 Mg148 3.198951 1_554
Mg10 Mg26 3.198951 1_555
Mg10 Mg12 3.201173 1_555
Mg10 Mg11 3.201181 1_655
Mg10 Mg18 3.220043 1_655
Mg10 Mg17 3.220044 1_555
Mg11 Mg18 3.143997 1_555
Mg11 Mg144 3.188460 1_454
Mg11 Mg33 3.188460 1_455
Mg11 Mg5 3.195494 1_555
Mg11 Mg16 3.197619 1_555
Mg11 Mg130 3.197711 1_554
Mg11 Mg43 3.197711 1_555
Mg11 Mg136 3.198464 1_554
Mg11 Mg34 3.198464 1_555
Mg11 Mg7 3.200880 1_455
Mg11 Mg14 3.201961 1_555
Mg12 Mg17 3.143980 1_555
Mg12 Mg143 3.188469 1_554
Mg12 Mg32 3.188469 1_555
Mg12 Mg6 3.195509 1_555
Mg12 Mg15 3.197597 1_555
Mg12 Mg42 3.197703 1_555
Mg12 Mg129 3.197703 1_554
Mg12 Mg137 3.198472 1_554
Mg12 Mg35 3.198472 1_555
Mg12 Mg8 3.200889 1_555
Mg12 Mg13 3.201969 1_555
Mg13 Mg9 3.160630 1_555
Mg13 Mg15 3.160630 1_555
Mg13 Mg14 3.186262 1_555
Mg13 Mg19 3.186264 1_555
Mg13 Mg38 3.194840 1_555
Mg13 Mg134 3.194840 1_554
Mg13 Mg37 3.194847 1_555
Mg13 Mg133 3.194847 1_554
Mg13 Mg6 3.201963 1_555
Mg13 Mg137 3.203395 1_554
Mg13 Mg35 3.203395 1_555
Mg14 Mg9 3.160639 1_555
Mg14 Mg16 3.160639 1_555
Mg14 Mg19 3.186262 1_555
Mg14 Mg37 3.194840 1_555
Mg14 Mg39 3.194848 1_555
Mg14 Mg5 3.201961 1_555
Mg14 Mg34 3.203395 1_555
Mg15 Mg19 3.160638 1_555
Mg15 Mg17 3.173350 1_555
Mg15 Mg21 3.173358 1_555
Mg15 Mg38 3.183222 1_555
Mg15 Mg23 3.197613 1_555
Mg15 Mg42 3.206695 1_555
Mg15 Mg44 3.206703 1_555
Mg16 Mg19 3.160630 1_555
Mg16 Mg20 3.173351 1_555
Mg16 Mg18 3.173357 1_555
Mg16 Mg39 3.183214 1_555
Mg16 Mg22 3.197603 1_555
Mg16 Mg45 3.206695 1_555
Mg16 Mg43 3.206702 1_555
Mg17 Mg26 3.179598 1_555
Mg17 Mg42 3.183546 1_555
Mg17 Mg21 3.184871 1_555
Mg17 Mg47 3.236556 1_555
Mg17 Tb0 3.254970 1_665
Mg17 Mg18 3.324570 1_655
Mg18 Mg26 3.179598 1_455
Mg18 Mg43 3.183547 1_555
Mg18 Mg20 3.184870 1_555
Mg18 Mg48 3.236556 1_555
Mg18 Tb0 3.254971 1_565
Mg19 Mg39 3.194847 1_555
Mg19 Mg38 3.194848 1_555
Mg19 Mg22 3.201963 1_555
Mg19 Mg23 3.201969 1_555
Mg19 Mg36 3.203395 1_555
Mg20 Mg22 3.143996 1_555
Mg20 Mg24 3.179598 1_565
Mg20 Mg45 3.183547 1_555
Mg20 Mg48 3.236556 1_555
Mg20 Tb0 3.254970 1_565
Mg20 Mg3 3.324572 1_565
Mg21 Mg23 3.143980 1_555
Mg21 Mg25 3.179598 1_565
Mg21 Mg44 3.183546 1_555
Mg21 Mg47 3.236556 1_555
Mg21 Tb0 3.254970 1_665
Mg21 Mg4 3.324570 1_665
Mg22 Mg28 3.188461 1_565
Mg22 Mg23 3.195509 1_555
Mg22 Mg45 3.197710 1_555
Mg22 Mg36 3.198464 1_555
Mg23 Mg29 3.188461 1_565
Mg23 Mg44 3.197703 1_555
Mg23 Mg36 3.198472 1_555
Mg24 Mg48 3.165956 1_545
Mg24 Mg46 3.165956 1_555
Mg24 Mg3 3.179598 1_555
Mg24 Mg56 3.208568 1_555
Mg24 Mg57 3.208576 1_555
Mg24 Mg28 3.218503 1_555
Mg24 Mg30 3.218503 1_555
Mg24 Mg45 3.228328 1_545
Mg24 Mg40 3.228328 1_555
Mg24 Mg49 3.231558 1_555
Mg25 Mg46 3.165956 1_655
Mg25 Mg47 3.165957 1_545
Mg25 Mg4 3.179598 1_655
Mg25 Mg58 3.208568 1_555
Mg25 Mg55 3.208576 1_555
Mg25 Mg29 3.218503 1_555
Mg25 Mg31 3.218521 1_555
Mg25 Mg44 3.228327 1_545
Mg25 Mg41 3.228327 1_655
Mg25 Mg50 3.231559 1_555
Mg26 Mg48 3.165956 1_655
Mg26 Mg47 3.165957 1_555
Mg26 Mg59 3.208568 1_555
Mg26 Mg60 3.208568 1_555
Mg26 Mg32 3.218511 1_555
Mg26 Mg33 3.218521 1_555
Mg26 Mg43 3.228327 1_655
Mg26 Mg42 3.228327 1_555
Mg26 Mg51 3.231559 1_555
Mg27 Mg7 3.184048 1_555
Mg27 Mg8 3.184056 1_555
Mg27 Mg53 3.192094 1_555
Mg27 Mg52 3.192095 1_555
Mg27 Mg54 3.192103 1_555
Mg27 Mg31 3.209981 1_555
Mg27 Mg33 3.209989 1_555
Mg27 Mg32 3.209991 1_555
Mg27 Mg29 3.209991 1_555
Mg27 Mg28 3.209998 1_555
Mg27 Mg30 3.210005 1_555
Mg28 Mg49 3.182768 1_555
Mg28 Mg45 3.190733 1_545
Mg28 Mg30 3.193168 1_555
Mg28 Mg61 3.194968 1_555
Mg28 Mg52 3.195240 1_555
Mg28 Mg36 3.201741 1_545
Mg28 Mg29 3.226786 1_555
Mg29 Mg50 3.182775 1_555
Mg29 Mg44 3.190735 1_545
Mg29 Mg31 3.193175 1_555
Mg29 Mg62 3.194960 1_555
Mg29 Mg52 3.195241 1_555
Mg29 Mg36 3.201740 1_545
Mg30 Mg49 3.182776 1_555
Mg30 Mg6 3.188461 1_555
Mg30 Mg40 3.190733 1_555
Mg30 Mg63 3.194960 1_555
Mg30 Mg54 3.195240 1_555
Mg30 Mg8 3.199111 1_555
Mg30 Mg35 3.201741 1_555
Mg30 Mg32 3.226778 1_555
Mg31 Mg50 3.182776 1_555
Mg31 Mg5 3.188460 1_655
Mg31 Mg41 3.190741 1_655
Mg31 Mg64 3.194967 1_555
Mg31 Mg53 3.195232 1_555
Mg31 Mg7 3.199103 1_555
Mg31 Mg34 3.201732 1_655
Mg31 Mg33 3.226755 1_555
Mg32 Mg51 3.182775 1_555
Mg32 Mg42 3.190751 1_555
Mg32 Mg33 3.193167 1_555
Mg32 Mg66 3.194968 1_555
Mg32 Mg54 3.195232 1_555
Mg32 Mg8 3.199095 1_555
Mg32 Mg35 3.201748 1_555
Mg33 Mg51 3.182776 1_555
Mg33 Mg43 3.190741 1_655
Mg33 Mg65 3.194967 1_555
Mg33 Mg53 3.195232 1_555
Mg33 Mg7 3.199095 1_555
Mg33 Mg34 3.201732 1_655
Mg34 Mg41 3.172893 1_555
Mg34 Mg43 3.172893 1_555
Mg34 Mg68 3.187391 1_555
Mg34 Mg64 3.187732 1_455
Mg34 Mg65 3.187732 1_455
Mg34 Mg37 3.197980 1_555
Mg34 Mg39 3.197989 1_555
Mg34 Mg5 3.198464 1_555
Mg35 Mg40 3.172892 1_555
Mg35 Mg42 3.172892 1_555
Mg35 Mg67 3.187384 1_555
Mg35 Mg66 3.187739 1_555
Mg35 Mg63 3.187740 1_555
Mg35 Mg38 3.197982 1_555
Mg35 Mg37 3.197997 1_555
Mg35 Mg6 3.198464 1_555
Mg36 Mg44 3.172892 1_555
Mg36 Mg45 3.172892 1_555
Mg36 Mg69 3.187392 1_555
Mg36 Mg61 3.187732 1_565
Mg36 Mg62 3.187739 1_565
Mg36 Mg39 3.197989 1_555
Mg36 Mg38 3.197998 1_555
Mg37 Mg38 3.175468 1_555
Mg37 Mg39 3.175477 1_555
Mg37 Mg41 3.180946 1_555
Mg37 Mg40 3.180955 1_555
Mg37 Mg9 3.183222 1_555
Mg37 Mg68 3.184658 1_555
Mg37 Mg67 3.184674 1_555
Mg37 Mg70 3.197750 1_555
Mg38 Mg39 3.175484 1_555
Mg38 Mg42 3.180946 1_555
Mg38 Mg44 3.180954 1_555
Mg38 Mg69 3.184666 1_555
Mg38 Mg67 3.184666 1_555
Mg38 Mg71 3.197750 1_555
Mg39 Mg43 3.180938 1_555
Mg39 Mg45 3.180939 1_555
Mg39 Mg69 3.184674 1_555
Mg39 Mg68 3.184674 1_555
Mg39 Mg72 3.197750 1_555
Mg40 Mg70 3.180410 1_555
Mg40 Mg63 3.180952 1_555
Mg40 Mg41 3.191679 1_555
Mg40 Mg46 3.193460 1_555
Mg40 Mg57 3.194717 1_555
Mg40 Mg6 3.197710 1_555
Mg40 Mg9 3.206695 1_555
Mg41 Mg70 3.180393 1_555
Mg41 Mg64 3.180952 1_455
Mg41 Mg46 3.193461 1_555
Mg41 Mg58 3.194717 1_455
Mg41 Mg5 3.197711 1_555
Mg41 Mg9 3.206702 1_555
Mg42 Mg71 3.180402 1_555
Mg42 Mg66 3.180952 1_555
Mg42 Mg44 3.191681 1_555
Mg42 Mg47 3.193460 1_555
Mg42 Mg60 3.194725 1_555
Mg43 Mg72 3.180393 1_555
Mg43 Mg65 3.180952 1_455
Mg43 Mg45 3.191679 1_555
Mg43 Mg48 3.193461 1_555
Mg43 Mg59 3.194717 1_455
Mg44 Mg71 3.180402 1_555
Mg44 Mg62 3.180952 1_565
Mg44 Mg47 3.193460 1_555
Mg44 Mg55 3.194725 1_565
Mg45 Mg72 3.180402 1_555
Mg45 Mg61 3.180952 1_565
Mg45 Mg48 3.193460 1_555
Mg45 Mg56 3.194725 1_565
Mg46 Mg57 3.149930 1_555
Mg46 Mg58 3.149939 1_455
Mg46 Mg73 3.191634 1_555
Mg46 Tb0 3.250744 1_555
Mg46 Mg47 3.260175 1_445
Mg46 Mg48 3.260177 1_545
Mg47 Mg55 3.149923 1_565
Mg47 Mg60 3.149931 1_555
Mg47 Mg73 3.191633 1_665
Mg47 Tb0 3.250743 1_665
Mg47 Mg48 3.260175 1_655
Mg48 Mg56 3.149930 1_565
Mg48 Mg59 3.149939 1_455
Mg48 Mg73 3.191634 1_565
Mg48 Tb0 3.250743 1_565
Mg49 Mg56 3.190392 1_555
Mg49 Mg57 3.190408 1_555
Mg49 Mg75 3.192598 1_555
Mg49 Mg80 3.196270 1_555
Mg49 Mg78 3.196270 1_555
Mg49 Mg63 3.199253 1_555
Mg49 Mg61 3.199253 1_555
Mg49 Mg52 3.201996 1_555
Mg49 Mg54 3.202003 1_555
Mg50 Mg58 3.190384 1_555
Mg50 Mg55 3.190417 1_555
Mg50 Mg74 3.192599 1_555
Mg50 Mg79 3.196262 1_555
Mg50 Mg77 3.196269 1_555
Mg50 Mg62 3.199252 1_555
Mg50 Mg64 3.199252 1_555
Mg50 Mg53 3.201997 1_555
Mg50 Mg52 3.202003 1_555
Mg51 Mg59 3.190384 1_555
Mg51 Mg60 3.190401 1_555
Mg51 Mg89 3.192599 1_555
Mg51 Mg84 3.196262 1_555
Mg51 Mg85 3.196269 1_555
Mg51 Mg66 3.199252 1_555
Mg51 Mg65 3.199252 1_555
Mg51 Mg53 3.201997 1_555
Mg51 Mg54 3.202003 1_555
Mg52 Mg62 3.193116 1_555
Mg52 Mg61 3.193122 1_555
Mg52 Mg78 3.196261 1_555
Mg52 Mg77 3.196270 1_555
Mg52 Mg53 3.198963 1_555
Mg52 Mg54 3.198964 1_555
Mg52 Mg81 3.199363 1_555
Mg53 Mg65 3.193122 1_555
Mg53 Mg64 3.193122 1_555
Mg53 Mg84 3.196262 1_555
Mg53 Mg79 3.196262 1_555
Mg53 Mg54 3.198963 1_555
Mg53 Mg81 3.199363 1_555
Mg54 Mg63 3.193114 1_555
Mg54 Mg66 3.193116 1_555
Mg54 Mg80 3.196261 1_555
Mg54 Mg85 3.196270 1_555
Mg54 Mg81 3.199371 1_555
Mg55 Mg97 3.188015 1_545
Mg55 Mg74 3.192207 1_555
Mg55 Mg94 3.193859 1_545
Mg55 Mg62 3.195371 1_555
Mg55 Mg71 3.199371 1_545
Mg55 Mg58 3.207298 1_555
Mg55 Mg73 3.207554 1_655
Mg55 Mg60 3.207720 1_545
Mg56 Mg96 3.188015 1_545
Mg56 Mg75 3.192199 1_555
Mg56 Mg95 3.193867 1_545
Mg56 Mg61 3.195371 1_555
Mg56 Mg72 3.199372 1_545
Mg56 Mg57 3.207299 1_555
Mg56 Mg73 3.207562 1_555
Mg56 Mg59 3.207743 1_445
Mg57 Mg82 3.188007 1_555
Mg57 Mg75 3.192207 1_555
Mg57 Mg76 3.193867 1_555
Mg57 Mg63 3.195355 1_555
Mg57 Mg70 3.199372 1_555
Mg57 Mg73 3.207570 1_555
Mg57 Mg58 3.207735 1_455
Mg58 Mg83 3.188007 1_655
Mg58 Mg74 3.192198 1_555
Mg58 Mg76 3.193867 1_655
Mg58 Mg64 3.195356 1_555
Mg58 Mg70 3.199363 1_655
Mg58 Mg73 3.207580 1_655
Mg59 Mg90 3.188015 1_655
Mg59 Mg89 3.192198 1_555
Mg59 Mg95 3.193867 1_655
Mg59 Mg65 3.195356 1_555
Mg59 Mg72 3.199355 1_655
Mg59 Mg60 3.207290 1_555
Mg59 Mg73 3.207580 1_665
Mg60 Mg91 3.188015 1_555
Mg60 Mg89 3.192199 1_555
Mg60 Mg94 3.193859 1_555
Mg60 Mg66 3.195363 1_555
Mg60 Mg71 3.199379 1_555
Mg60 Mg73 3.207562 1_665
Mg61 Mg98 3.182040 1_545
Mg61 Mg62 3.186720 1_555
Mg61 Mg96 3.189480 1_545
Mg61 Mg78 3.191689 1_555
Mg61 Mg69 3.196023 1_545
Mg61 Mg72 3.203681 1_545
Mg62 Mg98 3.182039 1_545
Mg62 Mg97 3.189481 1_545
Mg62 Mg77 3.191680 1_555
Mg62 Mg69 3.196030 1_545
Mg62 Mg71 3.203682 1_545
Mg63 Mg87 3.182040 1_555
Mg63 Mg66 3.186728 1_555
Mg63 Mg82 3.189480 1_555
Mg63 Mg80 3.191689 1_555
Mg63 Mg67 3.196023 1_555
Mg63 Mg70 3.203697 1_555
Mg64 Mg86 3.182032 1_655
Mg64 Mg65 3.186713 1_555
Mg64 Mg83 3.189481 1_655
Mg64 Mg79 3.191696 1_555
Mg64 Mg68 3.196014 1_655
Mg64 Mg70 3.203657 1_655
Mg65 Mg86 3.182032 1_655
Mg65 Mg90 3.189472 1_655
Mg65 Mg84 3.191696 1_555
Mg65 Mg68 3.196022 1_655
Mg65 Mg72 3.203665 1_655
Mg66 Mg87 3.182039 1_555
Mg66 Mg91 3.189472 1_555
Mg66 Mg85 3.191680 1_555
Mg66 Mg67 3.196022 1_555
Mg66 Mg71 3.203682 1_555
Mg67 Mg88 3.187207 1_555
Mg67 Mg92 3.187207 1_555
Mg67 Mg87 3.190993 1_555
Mg67 Mg71 3.193244 1_555
Mg67 Mg70 3.193252 1_555
Mg67 Mg68 3.202028 1_555
Mg67 Mg69 3.202029 1_555
Mg68 Mg88 3.187199 1_555
Mg68 Mg93 3.187207 1_555
Mg68 Mg86 3.191001 1_555
Mg68 Mg70 3.193229 1_555
Mg68 Mg72 3.193262 1_555
Mg68 Mg69 3.202028 1_555
Mg69 Mg92 3.187199 1_555
Mg69 Mg93 3.187207 1_555
Mg69 Mg98 3.190993 1_555
Mg69 Mg71 3.193236 1_555
Mg69 Mg72 3.193268 1_555
Mg70 Mg88 3.179899 1_555
Mg70 Mg83 3.182225 1_555
Mg70 Mg82 3.182242 1_555
Mg71 Mg92 3.179899 1_555
Mg71 Mg97 3.182234 1_555
Mg71 Mg91 3.182242 1_555
Mg72 Mg93 3.179907 1_555
Mg72 Mg90 3.182225 1_555
Mg72 Mg96 3.182234 1_555
Mg73 Mg94 3.177322 1_445
Mg73 Mg95 3.177322 1_545
Mg73 Mg76 3.177323 1_555
Mg74 Mg77 3.192032 1_555
Mg74 Mg79 3.192042 1_555
Mg74 Mg83 3.201905 1_655
Mg74 Mg97 3.201905 1_545
Mg74 Mg76 3.204182 1_655
Mg74 Mg94 3.204199 1_545
Mg75 Mg80 3.192040 1_555
Mg75 Mg78 3.192048 1_555
Mg75 Mg96 3.201907 1_545
Mg75 Mg82 3.201907 1_555
Mg75 Mg95 3.204198 1_545
Mg75 Mg76 3.204198 1_555
Mg76 Mg99 3.177323 1_555
Mg76 Mg83 3.198247 1_555
Mg76 Mg82 3.198254 1_555
Mg76 Mg94 3.204869 1_445
Mg76 Mg95 3.204878 1_545
Mg77 Mg79 3.178105 1_555
Mg77 Mg81 3.189075 1_555
Mg77 Mg78 3.200022 1_555
Mg77 Mg98 3.201604 1_545
Mg77 Mg97 3.208389 1_545
Mg78 Mg80 3.178115 1_555
Mg78 Mg81 3.189074 1_555
Mg78 Mg98 3.201605 1_545
Mg78 Mg96 3.208396 1_545
Mg79 Mg81 3.189058 1_555
Mg79 Mg84 3.200023 1_555
Mg79 Mg86 3.201604 1_655
Mg79 Mg83 3.208404 1_655
Mg80 Mg81 3.189074 1_555
Mg80 Mg85 3.200030 1_555
Mg80 Mg87 3.201606 1_555
Mg80 Mg82 3.208404 1_555
Mg81 Mg84 3.189066 1_555
Mg81 Mg85 3.189091 1_555
Mg82 Mg87 3.195563 1_555
Mg82 Mg88 3.197555 1_555
Mg82 Mg83 3.197566 1_555
Mg83 Mg86 3.195565 1_555
Mg83 Mg88 3.197553 1_555
Mg84 Mg85 3.178105 1_555
Mg84 Mg89 3.192042 1_555
Mg84 Mg86 3.201604 1_655
Mg84 Mg90 3.208396 1_655
Mg85 Mg89 3.192032 1_555
Mg85 Mg87 3.201596 1_555
Mg85 Mg91 3.208373 1_555
Mg86 Mg90 3.195549 1_555
Mg86 Mg93 3.205586 1_555
Mg86 Mg88 3.205586 1_555
Mg87 Mg91 3.195555 1_555
Mg87 Mg88 3.205586 1_555
Mg87 Mg92 3.205587 1_555
Mg88 Mg92 3.193553 1_555
Mg88 Mg93 3.193554 1_555
Mg89 Mg91 3.201897 1_555
Mg89 Mg90 3.201913 1_655
Mg89 Mg95 3.204182 1_655
Mg89 Mg94 3.204183 1_555
Mg90 Mg93 3.197545 1_555
Mg90 Mg96 3.197574 1_555
Mg90 Mg95 3.198263 1_555
Mg91 Mg92 3.197561 1_555
Mg91 Mg97 3.197584 1_555
Mg91 Mg94 3.198254 1_555
Mg92 Mg93 3.193553 1_555
Mg92 Mg97 3.197553 1_555
Mg92 Mg98 3.205571 1_555
Mg93 Mg96 3.197554 1_555
Mg93 Mg98 3.205578 1_555
Mg94 Mg99 3.177322 1_665
Mg94 Mg97 3.198254 1_555
Mg94 Mg95 3.204861 1_655
Mg95 Mg99 3.177322 1_565
Mg95 Mg96 3.198254 1_555
Mg96 Mg98 3.195571 1_555
Mg97 Mg98 3.195556 1_555
Mg100 Mg88 3.179899 1_555
Mg100 Mg128 3.180393 1_555
Mg100 Mg127 3.180410 1_555
Mg100 Mg83 3.182225 1_555
Mg100 Mg82 3.182242 1_555
Mg100 Mg104 3.193229 1_555
Mg100 Mg103 3.193252 1_555
Mg100 Mg133 3.197750 1_555
Mg100 Mg115 3.199363 1_455
Mg100 Mg114 3.199372 1_555
Mg100 Mg109 3.203657 1_455
Mg100 Mg108 3.203697 1_555
Mg101 Mg92 3.179899 1_555
Mg101 Mg131 3.180402 1_555
Mg101 Mg129 3.180402 1_555
Mg101 Mg97 3.182234 1_555
Mg101 Mg91 3.182242 1_555
Mg101 Mg105 3.193236 1_555
Mg101 Mg103 3.193244 1_555
Mg101 Mg134 3.197750 1_555
Mg101 Mg112 3.199371 1_565
Mg101 Mg117 3.199379 1_555
Mg101 Mg107 3.203682 1_565
Mg101 Mg111 3.203682 1_555
Mg102 Mg93 3.179907 1_555
Mg102 Mg130 3.180393 1_555
Mg102 Mg132 3.180402 1_555
Mg102 Mg90 3.182225 1_555
Mg102 Mg96 3.182234 1_555
Mg102 Mg104 3.193262 1_555
Mg102 Mg105 3.193268 1_555
Mg102 Mg135 3.197750 1_555
Mg102 Mg116 3.199355 1_455
Mg102 Mg113 3.199372 1_565
Mg102 Mg110 3.203665 1_455
Mg102 Mg106 3.203681 1_565
Mg103 Mg134 3.184666 1_555
Mg103 Mg133 3.184674 1_555
Mg103 Mg88 3.187207 1_555
Mg103 Mg92 3.187207 1_555
Mg103 Mg137 3.187384 1_555
Mg103 Mg87 3.190993 1_555
Mg103 Mg111 3.196022 1_555
Mg103 Mg108 3.196023 1_555
Mg103 Mg104 3.202028 1_555
Mg103 Mg105 3.202029 1_555
Mg104 Mg133 3.184658 1_555
Mg104 Mg135 3.184674 1_555
Mg104 Mg88 3.187199 1_555
Mg104 Mg93 3.187207 1_555
Mg104 Mg136 3.187391 1_555
Mg104 Mg86 3.191001 1_555
Mg104 Mg109 3.196014 1_455
Mg104 Mg110 3.196022 1_455
Mg104 Mg105 3.202028 1_555
Mg105 Mg134 3.184666 1_555
Mg105 Mg135 3.184674 1_555
Mg105 Mg92 3.187199 1_555
Mg105 Mg93 3.187207 1_555
Mg105 Mg138 3.187392 1_555
Mg105 Mg98 3.190993 1_555
Mg105 Mg106 3.196023 1_565
Mg105 Mg107 3.196030 1_565
Mg106 Mg132 3.180952 1_545
Mg106 Mg98 3.182040 1_545
Mg106 Mg107 3.186720 1_555
Mg106 Mg138 3.187732 1_545
Mg106 Mg96 3.189480 1_545
Mg106 Mg78 3.191689 1_555
Mg106 Mg118 3.193122 1_555
Mg106 Mg139 3.194968 1_555
Mg106 Mg113 3.195371 1_555
Mg106 Mg121 3.199253 1_555
Mg107 Mg131 3.180952 1_545
Mg107 Mg98 3.182039 1_545
Mg107 Mg138 3.187739 1_545
Mg107 Mg97 3.189481 1_545
Mg107 Mg77 3.191680 1_555
Mg107 Mg118 3.193116 1_555
Mg107 Mg140 3.194960 1_555
Mg107 Mg112 3.195371 1_555
Mg107 Mg122 3.199252 1_555
Mg108 Mg127 3.180952 1_555
Mg108 Mg87 3.182040 1_555
Mg108 Mg111 3.186728 1_555
Mg108 Mg137 3.187740 1_555
Mg108 Mg82 3.189480 1_555
Mg108 Mg80 3.191689 1_555
Mg108 Mg120 3.193114 1_555
Mg108 Mg141 3.194960 1_555
Mg108 Mg114 3.195355 1_555
Mg108 Mg121 3.199253 1_555
Mg109 Mg128 3.180952 1_655
Mg109 Mg86 3.182032 1_655
Mg109 Mg110 3.186713 1_555
Mg109 Mg136 3.187732 1_655
Mg109 Mg83 3.189481 1_655
Mg109 Mg79 3.191696 1_555
Mg109 Mg119 3.193122 1_555
Mg109 Mg142 3.194967 1_555
Mg109 Mg115 3.195356 1_555
Mg109 Mg122 3.199252 1_555
Mg110 Mg130 3.180952 1_655
Mg110 Mg86 3.182032 1_655
Mg110 Mg136 3.187732 1_655
Mg110 Mg90 3.189472 1_655
Mg110 Mg84 3.191696 1_555
Mg110 Mg119 3.193122 1_555
Mg110 Mg144 3.194967 1_555
Mg110 Mg116 3.195356 1_555
Mg110 Mg123 3.199252 1_555
Mg111 Mg129 3.180952 1_555
Mg111 Mg87 3.182039 1_555
Mg111 Mg137 3.187739 1_555
Mg111 Mg91 3.189472 1_555
Mg111 Mg85 3.191680 1_555
Mg111 Mg120 3.193116 1_555
Mg111 Mg143 3.194968 1_555
Mg111 Mg117 3.195363 1_555
Mg111 Mg123 3.199252 1_555
Mg112 Mg125 3.149923 1_545
Mg112 Mg97 3.188015 1_545
Mg112 Mg122 3.190417 1_555
Mg112 Mg74 3.192207 1_555
Mg112 Mg94 3.193859 1_545
Mg112 Mg131 3.194725 1_545
Mg112 Mg115 3.207298 1_555
Mg112 Mg99 3.207554 1_655
Mg112 Mg117 3.207720 1_545
Mg112 Mg147 3.208576 1_555
Mg113 Mg126 3.149930 1_545
Mg113 Mg96 3.188015 1_545
Mg113 Mg121 3.190392 1_555
Mg113 Mg75 3.192199 1_555
Mg113 Mg95 3.193867 1_545
Mg113 Mg132 3.194725 1_545
Mg113 Mg114 3.207299 1_555
Mg113 Mg99 3.207562 1_555
Mg113 Mg116 3.207743 1_445
Mg113 Mg146 3.208568 1_555
Mg114 Mg124 3.149930 1_555
Mg114 Mg82 3.188007 1_555
Mg114 Mg121 3.190408 1_555
Mg114 Mg75 3.192207 1_555
Mg114 Mg76 3.193867 1_555
Mg114 Mg127 3.194717 1_555
Mg114 Mg99 3.207570 1_555
Mg114 Mg115 3.207735 1_455
Mg114 Mg146 3.208576 1_555
Mg115 Mg124 3.149939 1_655
Mg115 Mg83 3.188007 1_655
Mg115 Mg122 3.190384 1_555
Mg115 Mg74 3.192198 1_555
Mg115 Mg76 3.193867 1_655
Mg115 Mg128 3.194717 1_655
Mg115 Mg99 3.207580 1_655
Mg115 Mg147 3.208568 1_555
Mg116 Mg126 3.149939 1_655
Mg116 Mg90 3.188015 1_655
Mg116 Mg123 3.190384 1_555
Mg116 Mg89 3.192198 1_555
Mg116 Mg95 3.193867 1_655
Mg116 Mg130 3.194717 1_655
Mg116 Mg117 3.207290 1_555
Mg116 Mg99 3.207580 1_665
Mg116 Mg148 3.208568 1_555
Mg117 Mg125 3.149931 1_555
Mg117 Mg91 3.188015 1_555
Mg117 Mg123 3.190401 1_555
Mg117 Mg89 3.192199 1_555
Mg117 Mg94 3.193859 1_555
Mg117 Mg129 3.194725 1_555
Mg117 Mg99 3.207562 1_665
Mg117 Mg148 3.208568 1_555
Mg118 Mg145 3.192095 1_555
Mg118 Mg139 3.195240 1_555
Mg118 Mg140 3.195241 1_555
Mg118 Mg78 3.196261 1_555
Mg118 Mg77 3.196270 1_555
Mg118 Mg119 3.198963 1_555
Mg118 Mg120 3.198964 1_555
Mg118 Mg81 3.199363 1_555
Mg118 Mg121 3.201996 1_555
Mg118 Mg122 3.202003 1_555
Mg119 Mg145 3.192094 1_555
Mg119 Mg144 3.195232 1_555
Mg119 Mg142 3.195232 1_555
Mg119 Mg84 3.196262 1_555
Mg119 Mg79 3.196262 1_555
Mg119 Mg120 3.198963 1_555
Mg119 Mg81 3.199363 1_555
Mg119 Mg122 3.201997 1_555
Mg119 Mg123 3.201997 1_555
Mg120 Mg145 3.192103 1_555
Mg120 Mg143 3.195232 1_555
Mg120 Mg141 3.195240 1_555
Mg120 Mg80 3.196261 1_555
Mg120 Mg85 3.196270 1_555
Mg120 Mg81 3.199371 1_555
Mg120 Mg121 3.202003 1_555
Mg120 Mg123 3.202003 1_555
Mg121 Mg139 3.182768 1_555
Mg121 Mg141 3.182776 1_555
Mg121 Mg75 3.192598 1_555
Mg121 Mg80 3.196270 1_555
Mg121 Mg78 3.196270 1_555
Mg121 Mg146 3.231558 1_555
Mg122 Mg140 3.182775 1_555
Mg122 Mg142 3.182776 1_555
Mg122 Mg74 3.192599 1_555
Mg122 Mg79 3.196262 1_555
Mg122 Mg77 3.196269 1_555
Mg122 Mg147 3.231559 1_555
Mg123 Mg143 3.182775 1_555
Mg123 Mg144 3.182776 1_555
Mg123 Mg89 3.192599 1_555
Mg123 Mg84 3.196262 1_555
Mg123 Mg85 3.196269 1_555
Mg123 Mg148 3.231559 1_555
Mg124 Mg147 3.165956 1_455
Mg124 Mg146 3.165956 1_555
Mg124 Mg99 3.191634 1_555
Mg124 Mg127 3.193460 1_555
Mg124 Mg128 3.193461 1_555
Mg124 Mg3 3.236556 1_556
Mg124 Mg4 3.236556 1_556
Mg124 Tb0 3.250744 1_556
Mg124 Mg125 3.260175 1_445
Mg124 Mg126 3.260177 1_545
Mg125 Mg147 3.165957 1_565
Mg125 Mg148 3.165957 1_555
Mg125 Mg99 3.191633 1_665
Mg125 Mg131 3.193460 1_555
Mg125 Mg129 3.193460 1_555
Mg125 Mg21 3.236556 1_556
Mg125 Mg17 3.236556 1_556
Mg125 Tb0 3.250743 1_666
Mg125 Mg126 3.260175 1_655
Mg126 Mg148 3.165956 1_455
Mg126 Mg146 3.165956 1_565
Mg126 Mg99 3.191634 1_565
Mg126 Mg132 3.193460 1_555
Mg126 Mg130 3.193461 1_555
Mg126 Mg20 3.236556 1_556
Mg126 Mg18 3.236556 1_556
Mg126 Tb0 3.250743 1_566
Mg127 Mg137 3.172892 1_555
Mg127 Mg133 3.180955 1_555
Mg127 Mg3 3.183547 1_556
Mg127 Mg141 3.190733 1_555
Mg127 Mg128 3.191679 1_555
Mg127 Mg6 3.197710 1_556
Mg127 Mg9 3.206695 1_556
Mg127 Mg146 3.228328 1_555
Mg128 Mg136 3.172893 1_555
Mg128 Mg133 3.180946 1_555
Mg128 Mg4 3.183547 1_556
Mg128 Mg142 3.190741 1_455
Mg128 Mg5 3.197711 1_556
Mg128 Mg9 3.206702 1_556
Mg128 Mg147 3.228327 1_455
Mg129 Mg137 3.172892 1_555
Mg129 Mg134 3.180946 1_555
Mg129 Mg17 3.183546 1_556
Mg129 Mg143 3.190751 1_555
Mg129 Mg131 3.191681 1_555
Mg129 Mg15 3.206695 1_556
Mg129 Mg148 3.228327 1_555
Mg130 Mg136 3.172893 1_555
Mg130 Mg135 3.180938 1_555
Mg130 Mg18 3.183547 1_556
Mg130 Mg144 3.190741 1_455
Mg130 Mg132 3.191679 1_555
Mg130 Mg16 3.206702 1_556
Mg130 Mg148 3.228327 1_455
Mg131 Mg138 3.172892 1_555
Mg131 Mg134 3.180954 1_555
Mg131 Mg21 3.183546 1_556
Mg131 Mg140 3.190735 1_565
Mg131 Mg23 3.197703 1_556
Mg131 Mg15 3.206703 1_556
Mg131 Mg147 3.228327 1_565
Mg132 Mg138 3.172892 1_555
Mg132 Mg135 3.180939 1_555
Mg132 Mg20 3.183547 1_556
Mg132 Mg139 3.190733 1_565
Mg132 Mg22 3.197710 1_556
Mg132 Mg16 3.206695 1_556
Mg132 Mg146 3.228328 1_565
Mg133 Mg134 3.175468 1_555
Mg133 Mg135 3.175477 1_555
Mg133 Mg9 3.183222 1_556
Mg133 Mg14 3.194840 1_556
Mg133 Mg136 3.197980 1_555
Mg133 Mg137 3.197997 1_555
Mg134 Mg135 3.175484 1_555
Mg134 Mg15 3.183222 1_556
Mg134 Mg19 3.194848 1_556
Mg134 Mg137 3.197982 1_555
Mg134 Mg138 3.197998 1_555
Mg135 Mg16 3.183214 1_556
Mg135 Mg19 3.194847 1_556
Mg135 Mg14 3.194848 1_556
Mg135 Mg136 3.197989 1_555
Mg135 Mg138 3.197989 1_555
Mg136 Mg5 3.198464 1_556
Mg136 Mg142 3.201732 1_455
Mg136 Mg144 3.201732 1_455
Mg136 Mg14 3.203395 1_556
Mg137 Mg6 3.198464 1_556
Mg137 Mg141 3.201741 1_555
Mg137 Mg143 3.201748 1_555
Mg138 Mg22 3.198464 1_556
Mg138 Mg23 3.198472 1_556
Mg138 Mg140 3.201740 1_565
Mg138 Mg139 3.201741 1_565
Mg138 Mg19 3.203395 1_556
Mg139 Mg2 3.179885 1_556
Mg139 Mg22 3.188461 1_546
Mg139 Mg141 3.193168 1_555
Mg139 Mg145 3.209998 1_555
Mg139 Mg146 3.218503 1_555
Mg139 Mg140 3.226786 1_555
Mg140 Mg23 3.188461 1_546
Mg140 Mg142 3.193175 1_555
Mg140 Mg145 3.209991 1_555
Mg140 Mg147 3.218503 1_555
Mg141 Mg2 3.179885 1_556
Mg141 Mg6 3.188461 1_556
Mg141 Mg8 3.199111 1_556
Mg141 Mg145 3.210005 1_555
Mg141 Mg146 3.218503 1_555
Mg141 Mg143 3.226778 1_555
Mg142 Mg5 3.188460 1_656
Mg142 Mg7 3.199103 1_556
Mg142 Mg145 3.209981 1_555
Mg142 Mg147 3.218521 1_555
Mg142 Mg144 3.226755 1_555
Mg143 Mg144 3.193167 1_555
Mg143 Mg8 3.199095 1_556
Mg143 Mg145 3.209991 1_555
Mg143 Mg148 3.218511 1_555
Mg144 Mg7 3.199095 1_556
Mg144 Mg145 3.209989 1_555
Mg144 Mg148 3.218521 1_555
Mg145 Mg7 3.184048 1_556
Mg145 Mg8 3.184056 1_556
Mg146 Mg20 3.179598 1_546
Mg146 Mg3 3.179598 1_556
Mg146 Mg2 3.198950 1_556
Mg147 Mg4 3.179598 1_656
Mg147 Mg21 3.179598 1_546
Mg148 Mg18 3.179598 1_656
Mg148 Mg17 3.179598 1_556
