# generated using pymatgen
data_Mg6GaMo
_symmetry_space_group_name_H-M   'P 1'
_cell_length_a   4.83572200
_cell_length_b   6.18589500
_cell_length_c   10.57776700
_cell_angle_alpha   90.00000000
_cell_angle_beta   90.00000000
_cell_angle_gamma   90.00000000
_symmetry_Int_Tables_number   1
_chemical_formula_structural   Mg6GaMo
_chemical_formula_sum   'Mg12 Ga2 Mo2'
_cell_volume   316.41558484
_cell_formula_units_Z   2
loop_
 _symmetry_equiv_pos_site_id
 _symmetry_equiv_pos_as_xyz
  1  'x, y, z'
loop_
 _atom_site_type_symbol
 _atom_site_label
 _atom_site_symmetry_multiplicity
 _atom_site_fract_x
 _atom_site_fract_y
 _atom_site_fract_z
 _atom_site_occupancy
  Mg  Mg0  1  0.00000000  0.25403600  0.08283000  1
  Mg  Mg1  1  0.00000000  0.74596400  0.08283000  1
  Mg  Mg2  1  0.00000000  0.50000000  0.83372600  1
  Mg  Mg3  1  0.50000000  0.23803900  0.91125400  1
  Mg  Mg4  1  0.50000000  0.76196100  0.91125400  1
  Mg  Mg5  1  0.50000000  0.50000000  0.66619700  1
  Mg  Mg6  1  0.00000000  0.75403600  0.58283000  1
  Mg  Mg7  1  0.00000000  0.24596400  0.58283000  1
  Mg  Mg8  1  0.00000000  0.00000000  0.33372600  1
  Mg  Mg9  1  0.50000000  0.73803900  0.41125400  1
  Mg  Mg10  1  0.50000000  0.26196100  0.41125400  1
  Mg  Mg11  1  0.50000000  0.00000000  0.16619700  1
  Ga  Ga0  1  0.50000000  0.50000000  0.18413700  1
  Ga  Ga1  1  0.50000000  0.00000000  0.68413700  1
  Mo  Mo0  1  0.00000000  0.50000000  0.32777200  1
  Mo  Mo1  1  0.00000000  0.00000000  0.82777200  1
loop_
_geom_bond_atom_site_label_1
_geom_bond_atom_site_label_2
_geom_bond_distance
_geom_bond_site_symmetry_2
Mg0 Mo0 3.004655 1_555
Mg0 Mg11 3.015479 1_455
Mg0 Mg11 3.015479 1_555
Mg0 Mg3 3.024843 1_454
Mg0 Mg3 3.024843 1_554
Mg0 Mg2 3.042700 1_554
Mg0 Mg1 3.043015 1_555
Mg0 Mg8 3.084268 1_555
Mg0 Mo1 3.122231 1_554
Mg0 Mg1 3.142880 1_545
Mg1 Mo0 3.004655 1_555
Mg1 Mg11 3.015479 1_465
Mg1 Mg11 3.015479 1_565
Mg1 Mg4 3.024843 1_454
Mg1 Mg4 3.024843 1_554
Mg1 Mg2 3.042700 1_554
Mg1 Mg8 3.084268 1_565
Mg1 Mo1 3.122231 1_564
Mg2 Mg5 2.997721 1_555
Mg2 Mg5 2.997721 1_455
Mg2 Mg4 3.023983 1_455
Mg2 Mg4 3.023983 1_555
Mg2 Mg3 3.023983 1_555
Mg2 Mg3 3.023983 1_455
Mg2 Mg6 3.084268 1_555
Mg2 Mg7 3.084268 1_555
Mg2 Mo1 3.093589 1_555
Mg2 Mo1 3.093589 1_565
Mg3 Mo1 2.965475 1_655
Mg3 Mo1 2.965475 1_555
Mg3 Mg5 3.056988 1_555
Mg4 Mo1 2.965475 1_565
Mg4 Mo1 2.965475 1_665
Mg4 Mg5 3.056988 1_555
Mg5 Mg6 3.015479 1_655
Mg5 Mg7 3.015479 1_555
Mg5 Mg7 3.015479 1_655
Mg5 Mg6 3.015479 1_555
Mg5 Mg9 3.072548 1_555
Mg6 Mo1 3.004655 1_565
Mg6 Mg9 3.024843 1_455
Mg6 Mg9 3.024843 1_555
Mg6 Mg8 3.042700 1_565
Mg6 Mg7 3.043015 1_565
Mg6 Mo0 3.122231 1_555
Mg6 Mg7 3.142880 1_555
Mg7 Mo1 3.004655 1_555
Mg7 Mg8 3.042700 1_555
Mg7 Mo0 3.122231 1_555
Mg8 Mg9 3.023983 1_545
Mg8 Mg9 3.023983 1_445
Mg8 Mo0 3.093589 1_545
Mg8 Mo0 3.093589 1_555
Mg9 Mo0 2.965475 1_555
Mg9 Mo0 2.965475 1_655
Mg10 Mo0 2.965475 1_555
Mg10 Mo0 2.965475 1_655
Mg10 Mg8 3.023983 1_555
Mg10 Mg8 3.023983 1_655
Mg10 Mg7 3.024843 1_555
Mg10 Mg7 3.024843 1_655
Mg10 Mg11 3.056988 1_555
Mg10 Mg5 3.072548 1_555
Mg11 Mg8 2.997721 1_555
Mg11 Mg8 2.997721 1_655
Mg11 Mg9 3.056988 1_545
Mg11 Mg4 3.072548 1_544
Mg11 Mg3 3.072548 1_554
Ga0 Mg9 2.817746 1_555
Ga0 Mg10 2.817746 1_555
Ga0 Mo0 2.855598 1_655
Ga0 Mo0 2.855598 1_555
Ga0 Mg0 3.051126 1_655
Ga0 Mg1 3.051126 1_555
Ga0 Mg1 3.051126 1_655
Ga0 Mg0 3.051126 1_555
Ga0 Mg11 3.098763 1_555
Ga0 Mg11 3.098763 1_565
Ga0 Mg3 3.310248 1_554
Ga0 Mg4 3.310248 1_554
Ga1 Mg4 2.817746 1_545
Ga1 Mg3 2.817746 1_555
Ga1 Mo1 2.855598 1_655
Ga1 Mo1 2.855598 1_555
Ga1 Mg7 3.051126 1_655
Ga1 Mg6 3.051126 1_645
Ga1 Mg6 3.051126 1_545
Ga1 Mg7 3.051126 1_555
Ga1 Mg5 3.098763 1_545
Ga1 Mg5 3.098763 1_555
Ga1 Mg9 3.310248 1_545
Ga1 Mg10 3.310248 1_555
