# generated using pymatgen
data_Sb5S3O5
_symmetry_space_group_name_H-M   'P 1'
_cell_length_a   13.59184450
_cell_length_b   13.59184450
_cell_length_c   17.06334066
_cell_angle_alpha   65.15287307
_cell_angle_beta   65.15287307
_cell_angle_gamma   24.78156891
_symmetry_Int_Tables_number   1
_chemical_formula_structural   Sb5S3O5
_chemical_formula_sum   'Sb20 S12 O20'
_cell_volume   1192.76751461
_cell_formula_units_Z   4
loop_
 _symmetry_equiv_pos_site_id
 _symmetry_equiv_pos_as_xyz
  1  'x, y, z'
loop_
 _atom_site_type_symbol
 _atom_site_label
 _atom_site_symmetry_multiplicity
 _atom_site_fract_x
 _atom_site_fract_y
 _atom_site_fract_z
 _atom_site_occupancy
  Sb  Sb0  1  0.03138900  0.06010100  0.08597300  1
  Sb  Sb1  1  0.93989900  0.96861100  0.41402700  1
  Sb  Sb2  1  0.96861100  0.93989900  0.91402700  1
  Sb  Sb3  1  0.06010100  0.03138900  0.58597300  1
  Sb  Sb4  1  0.52154600  0.36679000  0.08534700  1
  Sb  Sb5  1  0.63321000  0.47845400  0.41465300  1
  Sb  Sb6  1  0.47845400  0.63321000  0.91465300  1
  Sb  Sb7  1  0.36679000  0.52154600  0.58534700  1
  Sb  Sb8  1  0.20648600  0.96952100  0.25861000  1
  Sb  Sb9  1  0.03047900  0.79351400  0.24139000  1
  Sb  Sb10  1  0.79351400  0.03047900  0.74139000  1
  Sb  Sb11  1  0.96952100  0.20648500  0.75861000  1
  Sb  Sb12  1  0.46960300  0.19835900  0.45577100  1
  Sb  Sb13  1  0.80164100  0.53039700  0.04422900  1
  Sb  Sb14  1  0.53039700  0.80164100  0.54422900  1
  Sb  Sb15  1  0.19835900  0.46960300  0.95577100  1
  Sb  Sb16  1  0.68984600  0.84412700  0.13288400  1
  Sb  Sb17  1  0.15587300  0.31015400  0.36711600  1
  Sb  Sb18  1  0.31015400  0.15587300  0.86711600  1
  Sb  Sb19  1  0.84412700  0.68984600  0.63288400  1
  S  S0  1  0.23293600  0.17944000  0.02452000  1
  S  S1  1  0.82056000  0.76706400  0.47548000  1
  S  S2  1  0.76706400  0.82056000  0.97548000  1
  S  S3  1  0.17944000  0.23293600  0.52452000  1
  S  S4  1  0.41255500  0.23828400  0.31466800  1
  S  S5  1  0.76171600  0.58744500  0.18533200  1
  S  S6  1  0.59053100  0.75104900  0.68587700  1
  S  S7  1  0.23828400  0.41255500  0.81466800  1
  S  S8  1  0.42832600  0.92205800  0.36569800  1
  S  S9  1  0.07794200  0.57167400  0.13430200  1
  S  S10  1  0.56603100  0.07424200  0.63551500  1
  S  S11  1  0.92205800  0.42832600  0.86569800  1
  O  O0  1  0.64147500  0.30531500  0.48274100  1
  O  O1  1  0.69468500  0.35852500  0.01725900  1
  O  O2  1  0.35852500  0.69468500  0.51725900  1
  O  O3  1  0.30531500  0.64147500  0.98274100  1
  O  O4  1  0.64777200  0.17311700  0.38534900  1
  O  O5  1  0.82688300  0.35222800  0.11465100  1
  O  O6  1  0.35222800  0.82688300  0.61465100  1
  O  O7  1  0.17311700  0.64777200  0.88534900  1
  O  O8  1  0.39618600  0.68517300  0.33894600  1
  O  O9  1  0.31482700  0.60381400  0.16105400  1
  O  O10  1  0.60381400  0.31482700  0.66105400  1
  O  O11  1  0.68517300  0.39618600  0.83894600  1
  O  O12  1  0.24349000  0.87871500  0.17129400  1
  O  O13  1  0.12128500  0.75651000  0.32870600  1
  O  O14  1  0.75651000  0.12128500  0.82870600  1
  O  O15  1  0.87871500  0.24349000  0.67129400  1
  O  O16  1  0.84691500  0.08646800  0.16660300  1
  O  O17  1  0.91353200  0.15308500  0.33339700  1
  O  O18  1  0.15308500  0.91353200  0.83339700  1
  O  O19  1  0.08646800  0.84691500  0.66660300  1
loop_
_geom_bond_atom_site_label_1
_geom_bond_atom_site_label_2
_geom_bond_distance
_geom_bond_site_symmetry_2
S0 Sb13 2.479301 1_455
S0 Sb18 2.482224 1_554
S1 Sb12 2.479301 1_565
S1 Sb19 2.482224 1_555
S2 Sb15 2.479301 1_655
S2 Sb16 2.482224 1_556
S3 Sb14 2.479301 1_545
S3 Sb17 2.482224 1_555
S4 Sb17 2.418506 1_555
S4 Sb12 2.529731 1_555
S5 Sb16 2.418506 1_555
S5 Sb13 2.529731 1_555
S6 Sb19 2.489309 1_555
S6 Sb14 2.495115 1_555
S7 Sb18 2.418506 1_555
S7 Sb15 2.529731 1_555
S8 Sb17 2.469971 1_565
S8 Sb14 3.020289 1_555
S9 Sb16 2.469971 1_455
S9 Sb15 3.020289 1_554
S10 Sb19 2.404405 1_545
S10 Sb12 2.997583 1_555
S11 Sb18 2.469971 1_655
S11 Sb13 3.020289 1_556
O0 Sb5 2.057254 1_555
O0 Sb7 2.132701 1_555
O0 Sb1 2.361544 1_545
O1 Sb4 2.057254 1_555
O1 Sb6 2.132701 1_554
O1 Sb0 2.361544 1_655
O2 Sb7 2.057254 1_555
O2 Sb5 2.132701 1_555
O2 Sb3 2.361544 1_565
O3 Sb6 2.057254 1_555
O3 Sb4 2.132701 1_556
O3 Sb2 2.361544 1_455
O4 Sb12 1.954053 1_555
O4 Sb1 2.044553 1_545
O5 Sb13 1.954053 1_555
O5 Sb0 2.044553 1_655
O6 Sb14 1.954053 1_555
O6 Sb3 2.044553 1_565
O7 Sb15 1.954053 1_555
O7 Sb2 2.044553 1_455
O8 Sb8 1.971628 1_555
O8 Sb5 1.988144 1_555
O9 Sb9 1.971628 1_555
O9 Sb4 1.988144 1_555
O10 Sb10 1.971628 1_555
O10 Sb7 1.988144 1_555
O11 Sb11 1.971625 1_555
O11 Sb6 1.988144 1_555
O12 Sb8 1.945384 1_555
O12 Sb0 2.028196 1_565
O13 Sb9 1.945384 1_555
O13 Sb1 2.028196 1_455
O14 Sb10 1.945384 1_555
O14 Sb2 2.028196 1_545
O15 Sb11 1.945375 1_555
O15 Sb3 2.028196 1_655
O16 Sb9 2.018474 1_645
O16 Sb0 2.047368 1_655
O16 Sb4 2.472643 1_555
O17 Sb8 2.018474 1_645
O17 Sb1 2.047368 1_545
O17 Sb5 2.472643 1_555
O18 Sb11 2.018466 1_465
O18 Sb2 2.047368 1_455
O18 Sb6 2.472643 1_555
O19 Sb10 2.018474 1_465
O19 Sb3 2.047368 1_565
O19 Sb7 2.472643 1_555
