# generated using pymatgen
data_NaNi2BiO6
_symmetry_space_group_name_H-M   'P 1'
_cell_length_a   5.31888813
_cell_length_b   5.31888813
_cell_length_c   5.31888802
_cell_angle_alpha   60.13702683
_cell_angle_beta   60.13702683
_cell_angle_gamma   60.13701943
_symmetry_Int_Tables_number   1
_chemical_formula_structural   NaNi2BiO6
_chemical_formula_sum   'Na1 Ni2 Bi1 O6'
_cell_volume   106.73172296
_cell_formula_units_Z   1
loop_
 _symmetry_equiv_pos_site_id
 _symmetry_equiv_pos_as_xyz
  1  'x, y, z'
loop_
 _atom_site_type_symbol
 _atom_site_label
 _atom_site_symmetry_multiplicity
 _atom_site_fract_x
 _atom_site_fract_y
 _atom_site_fract_z
 _atom_site_occupancy
  Na  Na0  1  0.26998900  0.26998900  0.26998900  1
  Ni  Ni0  1  0.00702200  0.00702200  0.00702200  1
  Ni  Ni1  1  0.50705600  0.50705600  0.50705600  1
  Bi  Bi0  1  0.78324900  0.78324900  0.78324900  1
  O  O0  1  0.74843000  0.34361600  0.16488700  1
  O  O1  1  0.16488700  0.74843000  0.34361600  1
  O  O2  1  0.34361600  0.16488700  0.74843000  1
  O  O3  1  0.67449900  0.83709200  0.22995900  1
  O  O4  1  0.83709200  0.22995900  0.67449900  1
  O  O5  1  0.22995900  0.67449900  0.83709200  1
loop_
_geom_bond_atom_site_label_1
_geom_bond_atom_site_label_2
_geom_bond_distance
_geom_bond_site_symmetry_2
Na0 O3 2.252704 1_545
Na0 O5 2.252704 1_554
Na0 O4 2.252704 1_455
Na0 O1 2.509875 1_555
Na0 O2 2.509875 1_555
Na0 O0 2.509875 1_555
Na0 O2 2.899320 1_554
Na0 O0 2.899321 1_455
Na0 O1 2.899321 1_545
Ni0 O0 1.922686 1_455
Ni0 O1 1.922686 1_545
Ni0 O2 1.922686 1_554
Ni0 O5 1.946081 1_544
Ni0 O4 1.946081 1_454
Ni0 O3 1.946081 1_445
Ni1 O4 1.928772 1_555
Ni1 O5 1.928772 1_555
Ni1 O3 1.928772 1_555
Ni1 O1 1.963030 1_555
Ni1 O0 1.963030 1_555
Ni1 O2 1.963030 1_555
Bi0 O2 2.225450 1_565
Bi0 O1 2.225450 1_655
Bi0 O0 2.225450 1_556
Bi0 O5 2.281663 1_655
Bi0 O3 2.281663 1_556
Bi0 O4 2.281663 1_565
