# generated using pymatgen
data_CsNaMg14
_symmetry_space_group_name_H-M   'P 1'
_cell_length_a   6.69252242
_cell_length_b   6.69252182
_cell_length_c   10.83483417
_cell_angle_alpha   90.00000000
_cell_angle_beta   90.00000000
_cell_angle_gamma   120.00000296
_symmetry_Int_Tables_number   1
_chemical_formula_structural   CsNaMg14
_chemical_formula_sum   'Cs1 Na1 Mg14'
_cell_volume   420.27399483
_cell_formula_units_Z   1
loop_
 _symmetry_equiv_pos_site_id
 _symmetry_equiv_pos_as_xyz
  1  'x, y, z'
loop_
 _atom_site_type_symbol
 _atom_site_label
 _atom_site_symmetry_multiplicity
 _atom_site_fract_x
 _atom_site_fract_y
 _atom_site_fract_z
 _atom_site_occupancy
  Cs  Cs0  1  0.16666700  0.33333300  0.62500000  1
  Na  Na0  1  0.16666700  0.33333300  0.12500000  1
  Mg  Mg0  1  0.16992332  0.83496116  0.12500000  1
  Mg  Mg1  1  0.17022347  0.83511123  0.62500000  1
  Mg  Mg2  1  0.66503884  0.33007668  0.12500000  1
  Mg  Mg3  1  0.66488877  0.32977653  0.62500000  1
  Mg  Mg4  1  0.66503884  0.83496116  0.12500000  1
  Mg  Mg5  1  0.66488877  0.83511123  0.62500000  1
  Mg  Mg6  1  0.34233184  0.15766816  0.36025475  1
  Mg  Mg7  1  0.34233184  0.15766816  0.88974525  1
  Mg  Mg8  1  0.34233184  0.68466468  0.36025475  1
  Mg  Mg9  1  0.34233184  0.68466468  0.88974525  1
  Mg  Mg10  1  0.81533532  0.15766816  0.36025475  1
  Mg  Mg11  1  0.81533532  0.15766816  0.88974525  1
  Mg  Mg12  1  0.83333300  0.66666700  0.37864488  1
  Mg  Mg13  1  0.83333300  0.66666700  0.87135512  1
loop_
_geom_bond_atom_site_label_1
_geom_bond_atom_site_label_2
_geom_bond_distance
_geom_bond_site_symmetry_2
Cs0 Mg1 3.346324 1_555
Cs0 Mg5 3.346324 1_555
Cs0 Mg5 3.346324 1_445
Cs0 Mg1 3.346324 1_545
Cs0 Mg3 3.346325 1_455
Cs0 Mg3 3.346325 1_555
Cs0 Mg6 3.517744 1_555
Cs0 Mg7 3.517744 1_555
Cs0 Mg8 3.517750 1_555
Cs0 Mg9 3.517750 1_555
Cs0 Mg10 3.517750 1_455
Cs0 Mg11 3.517750 1_455
Mg0 Mg9 3.162414 1_554
Mg0 Mg8 3.162414 1_555
Mg0 Mg7 3.162421 1_564
Mg0 Mg6 3.162421 1_565
Mg0 Mg2 3.313571 1_565
Mg0 Mg4 3.313572 1_555
Mg0 Na0 3.346314 1_555
Mg0 Na0 3.346314 1_565
Mg0 Mg13 3.370221 1_454
Mg0 Mg12 3.370221 1_455
Mg0 Mg2 3.378950 1_455
Mg0 Mg4 3.378951 1_455
Mg1 Mg12 3.307158 1_455
Mg1 Mg13 3.307158 1_455
Mg1 Mg3 3.310558 1_565
Mg1 Mg5 3.310559 1_555
Mg1 Mg3 3.381964 1_455
Mg1 Mg5 3.381964 1_455
Mg1 Mg8 3.424673 1_555
Mg1 Mg9 3.424673 1_555
Mg1 Mg6 3.424680 1_565
Mg1 Mg7 3.424680 1_565
Mg2 Mg7 3.162421 1_554
Mg2 Mg6 3.162421 1_555
Mg2 Mg4 3.313571 1_545
Mg2 Na0 3.346314 1_655
Mg2 Na0 3.346314 1_555
Mg2 Mg4 3.378950 1_555
Mg3 Mg5 3.310558 1_545
Mg3 Mg5 3.381964 1_555
Mg3 Mg6 3.424680 1_555
Mg3 Mg7 3.424680 1_555
Mg4 Mg9 3.162421 1_554
Mg4 Mg8 3.162421 1_555
Mg4 Na0 3.346314 1_555
Mg4 Na0 3.346314 1_665
Mg5 Mg8 3.424680 1_555
Mg5 Mg9 3.424680 1_555
Mg6 Mg8 3.165586 1_545
Mg6 Na0 3.262441 1_555
Mg6 Mg8 3.526936 1_555
Mg7 Mg9 3.165586 1_545
Mg7 Na0 3.262441 1_556
Mg7 Mg9 3.526936 1_555
Mg8 Na0 3.262448 1_555
Mg9 Na0 3.262448 1_556
Mg10 Mg2 3.162414 1_555
Mg10 Mg4 3.162421 1_545
Mg10 Mg8 3.165586 1_545
Mg10 Mg6 3.165586 1_555
Mg10 Na0 3.262448 1_655
Mg10 Mg12 3.353811 1_555
Mg10 Mg12 3.353811 1_545
Mg10 Mg3 3.424673 1_555
Mg10 Mg5 3.424680 1_545
Mg10 Mg8 3.526936 1_655
Mg10 Mg6 3.526936 1_655
Mg11 Mg2 3.162414 1_556
Mg11 Mg4 3.162421 1_546
Mg11 Mg9 3.165586 1_545
Mg11 Mg7 3.165586 1_555
Mg11 Na0 3.262448 1_656
Mg11 Mg13 3.353811 1_555
Mg11 Mg13 3.353811 1_545
Mg11 Mg3 3.424673 1_555
Mg11 Mg5 3.424680 1_545
Mg11 Mg9 3.526936 1_655
Mg11 Mg7 3.526936 1_655
Mg12 Mg5 3.307151 1_555
Mg12 Mg3 3.307158 1_555
Mg12 Mg6 3.353811 1_555
Mg12 Mg6 3.353811 1_665
Mg12 Mg8 3.353811 1_655
Mg12 Mg8 3.353811 1_555
Mg12 Mg4 3.370214 1_555
Mg12 Mg2 3.370221 1_555
Mg13 Mg5 3.307151 1_555
Mg13 Mg3 3.307158 1_555
Mg13 Mg7 3.353811 1_555
Mg13 Mg7 3.353811 1_665
Mg13 Mg9 3.353811 1_655
Mg13 Mg9 3.353811 1_555
Mg13 Mg4 3.370214 1_556
Mg13 Mg2 3.370221 1_556
