# generated using pymatgen
data_Cd3As2
_symmetry_space_group_name_H-M   'P 1'
_cell_length_a   9.05899625
_cell_length_b   9.05899625
_cell_length_c   12.73161565
_cell_angle_alpha   90.00000000
_cell_angle_beta   90.00000000
_cell_angle_gamma   90.00000000
_symmetry_Int_Tables_number   1
_chemical_formula_structural   Cd3As2
_chemical_formula_sum   'Cd24 As16'
_cell_volume   1044.82529721
_cell_formula_units_Z   8
loop_
 _symmetry_equiv_pos_site_id
 _symmetry_equiv_pos_as_xyz
  1  'x, y, z'
loop_
 _atom_site_type_symbol
 _atom_site_label
 _atom_site_symmetry_multiplicity
 _atom_site_fract_x
 _atom_site_fract_y
 _atom_site_fract_z
 _atom_site_occupancy
  Cd  Cd0  1  0.25000000  0.99295897  0.39700272  1
  Cd  Cd1  1  0.50704103  0.25000000  0.89700272  1
  Cd  Cd2  1  0.99295897  0.25000000  0.89700272  1
  Cd  Cd3  1  0.75000000  0.00704103  0.60299728  1
  Cd  Cd4  1  0.75000000  0.49295897  0.60299728  1
  Cd  Cd5  1  0.25000000  0.50704103  0.39700272  1
  Cd  Cd6  1  0.49295897  0.75000000  0.10299728  1
  Cd  Cd7  1  0.00704103  0.75000000  0.10299728  1
  Cd  Cd8  1  0.96423666  0.75000000  0.36900538  1
  Cd  Cd9  1  0.53576334  0.75000000  0.36900538  1
  Cd  Cd10  1  0.25000000  0.46423666  0.13099462  1
  Cd  Cd11  1  0.75000000  0.53576334  0.86900538  1
  Cd  Cd12  1  0.75000000  0.96423666  0.86900538  1
  Cd  Cd13  1  0.03576334  0.25000000  0.63099462  1
  Cd  Cd14  1  0.46423666  0.25000000  0.63099462  1
  Cd  Cd15  1  0.25000000  0.03576334  0.13099462  1
  Cd  Cd16  1  0.03181527  0.75000000  0.64711173  1
  Cd  Cd17  1  0.46818473  0.75000000  0.64711173  1
  Cd  Cd18  1  0.25000000  0.53181527  0.85288827  1
  Cd  Cd19  1  0.75000000  0.46818473  0.14711173  1
  Cd  Cd20  1  0.75000000  0.03181527  0.14711173  1
  Cd  Cd21  1  0.96818473  0.25000000  0.35288827  1
  Cd  Cd22  1  0.53181527  0.25000000  0.35288827  1
  Cd  Cd23  1  0.25000000  0.96818473  0.85288827  1
  As  As0  1  0.00666498  0.50666498  0.25000000  1
  As  As1  1  0.99333502  0.00666498  0.75000000  1
  As  As2  1  0.50666498  0.49333502  0.75000000  1
  As  As3  1  0.49333502  0.99333502  0.25000000  1
  As  As4  1  0.99333502  0.49333502  0.75000000  1
  As  As5  1  0.00666498  0.99333502  0.25000000  1
  As  As6  1  0.49333502  0.50666498  0.25000000  1
  As  As7  1  0.50666498  0.00666498  0.75000000  1
  As  As8  1  0.75000000  0.75000000  0.50974809  1
  As  As9  1  0.75000000  0.75000000  0.00974809  1
  As  As10  1  0.25000000  0.25000000  0.49025191  1
  As  As11  1  0.25000000  0.25000000  0.99025191  1
  As  As12  1  0.25000000  0.75000000  0.50703179  1
  As  As13  1  0.75000000  0.25000000  0.00703179  1
  As  As14  1  0.75000000  0.25000000  0.49296821  1
  As  As15  1  0.25000000  0.75000000  0.99296821  1
loop_
_geom_bond_atom_site_label_1
_geom_bond_atom_site_label_2
_geom_bond_distance
_geom_bond_site_symmetry_2
As0 Cd21 2.691405 1_455
As0 Cd19 2.691405 1_455
As0 Cd8 2.702333 1_455
As0 Cd10 2.702333 1_555
As0 Cd5 2.891727 1_555
As0 Cd7 2.891727 1_555
As1 Cd23 2.691405 1_645
As1 Cd16 2.691405 1_645
As1 Cd12 2.702333 1_545
As1 Cd13 2.702333 1_655
As1 Cd3 2.891727 1_555
As1 Cd2 2.891727 1_555
As2 Cd17 2.691405 1_555
As2 Cd18 2.691405 1_555
As2 Cd11 2.702333 1_555
As2 Cd14 2.702333 1_555
As2 Cd4 2.891727 1_555
As2 Cd1 2.891727 1_555
As3 Cd22 2.691405 1_565
As3 Cd20 2.691405 1_565
As3 Cd9 2.702333 1_555
As3 Cd15 2.702333 1_565
As3 Cd6 2.891727 1_555
As3 Cd0 2.891727 1_555
As4 Cd18 2.691405 1_655
As4 Cd16 2.691405 1_655
As4 Cd11 2.702333 1_555
As4 Cd13 2.702333 1_655
As4 Cd4 2.891727 1_555
As4 Cd2 2.891727 1_555
As5 Cd21 2.691405 1_465
As5 Cd20 2.691405 1_465
As5 Cd8 2.702333 1_455
As5 Cd15 2.702333 1_565
As5 Cd0 2.891727 1_555
As5 Cd7 2.891727 1_555
As6 Cd19 2.691405 1_555
As6 Cd22 2.691405 1_555
As6 Cd9 2.702333 1_555
As6 Cd10 2.702333 1_555
As6 Cd5 2.891727 1_555
As6 Cd6 2.891727 1_555
As7 Cd17 2.691405 1_545
As7 Cd23 2.691405 1_545
As7 Cd12 2.702333 1_545
As7 Cd14 2.702333 1_555
As7 Cd3 2.891727 1_555
As7 Cd1 2.891727 1_555
As8 Cd3 2.613722 1_565
As8 Cd4 2.613722 1_555
As8 Cd8 2.641482 1_555
As8 Cd9 2.641482 1_555
As8 Cd17 3.094533 1_555
As8 Cd16 3.094533 1_655
As9 Cd7 2.613722 1_655
As9 Cd6 2.613722 1_555
As9 Cd11 2.641482 1_554
As9 Cd12 2.641482 1_554
As9 Cd19 3.094533 1_555
As9 Cd20 3.094533 1_565
As10 Cd0 2.613722 1_545
As10 Cd5 2.613722 1_555
As10 Cd13 2.641482 1_555
As10 Cd14 2.641482 1_555
As10 Cd21 3.094533 1_455
As10 Cd22 3.094533 1_555
As11 Cd2 2.613722 1_455
As11 Cd1 2.613722 1_555
As11 Cd15 2.641482 1_556
As11 Cd10 2.641482 1_556
As11 Cd18 3.094533 1_555
As11 Cd23 3.094533 1_545
As12 Cd5 2.608950 1_555
As12 Cd0 2.608950 1_555
As12 Cd17 2.662210 1_555
As12 Cd16 2.662210 1_555
As12 Cd8 3.128837 1_455
As12 Cd9 3.128837 1_555
As13 Cd1 2.608950 1_554
As13 Cd2 2.608950 1_554
As13 Cd19 2.662210 1_555
As13 Cd20 2.662210 1_555
As13 Cd12 3.128837 1_544
As13 Cd11 3.128837 1_554
As14 Cd3 2.608950 1_555
As14 Cd4 2.608950 1_555
As14 Cd21 2.662210 1_555
As14 Cd22 2.662210 1_555
As14 Cd13 3.128837 1_655
As14 Cd14 3.128837 1_555
As15 Cd6 2.608950 1_556
As15 Cd7 2.608950 1_556
As15 Cd18 2.662210 1_555
As15 Cd23 2.662210 1_555
As15 Cd15 3.128837 1_566
As15 Cd10 3.128837 1_556
