# generated using pymatgen
data_Na2TiZn2SiO7
_symmetry_space_group_name_H-M   'P 1'
_cell_length_a   5.17906165
_cell_length_b   11.69168695
_cell_length_c   20.03764549
_cell_angle_alpha   90.00000000
_cell_angle_beta   90.00000000
_cell_angle_gamma   90.00000000
_symmetry_Int_Tables_number   1
_chemical_formula_structural   Na2TiZn2SiO7
_chemical_formula_sum   'Na16 Ti8 Zn16 Si8 O56'
_cell_volume   1213.31885862
_cell_formula_units_Z   8
loop_
 _symmetry_equiv_pos_site_id
 _symmetry_equiv_pos_as_xyz
  1  'x, y, z'
loop_
 _atom_site_type_symbol
 _atom_site_label
 _atom_site_symmetry_multiplicity
 _atom_site_fract_x
 _atom_site_fract_y
 _atom_site_fract_z
 _atom_site_occupancy
  Na  Na0  1  0.75253209  0.66387618  0.17315131  1
  Na  Na1  1  0.73227327  0.17753967  0.50379230  1
  Na  Na2  1  0.23227327  0.82246033  0.99620770  1
  Na  Na3  1  0.76772673  0.67753967  0.49620770  1
  Na  Na4  1  0.26772673  0.32246033  0.00379230  1
  Na  Na5  1  0.26772673  0.82246033  0.49620770  1
  Na  Na6  1  0.76772673  0.17753967  0.00379230  1
  Na  Na7  1  0.23227327  0.32246033  0.50379230  1
  Na  Na8  1  0.25253209  0.33612382  0.32684869  1
  Na  Na9  1  0.74746791  0.16387618  0.82684869  1
  Na  Na10  1  0.24746791  0.83612382  0.67315131  1
  Na  Na11  1  0.73227327  0.67753967  0.99620770  1
  Na  Na12  1  0.74746791  0.66387618  0.67315131  1
  Na  Na13  1  0.25253209  0.83612382  0.17315131  1
  Na  Na14  1  0.75253209  0.16387618  0.32684869  1
  Na  Na15  1  0.24746791  0.33612382  0.82684869  1
  Ti  Ti0  1  0.78584093  0.18302648  0.16400035  1
  Ti  Ti1  1  0.28584093  0.81697352  0.33599965  1
  Ti  Ti2  1  0.71415907  0.68302648  0.83599965  1
  Ti  Ti3  1  0.21415907  0.31697352  0.66400035  1
  Ti  Ti4  1  0.21415907  0.81697352  0.83599965  1
  Ti  Ti5  1  0.71415907  0.18302648  0.66400035  1
  Ti  Ti6  1  0.28584093  0.31697352  0.16400035  1
  Ti  Ti7  1  0.78584093  0.68302648  0.33599965  1
  Zn  Zn0  1  0.75284639  0.91848792  0.73994254  1
  Zn  Zn1  1  0.75284639  0.41848792  0.76005746  1
  Zn  Zn2  1  0.25284639  0.58151208  0.73994254  1
  Zn  Zn3  1  0.25284639  0.08151208  0.76005746  1
  Zn  Zn4  1  0.24715361  0.08151208  0.26005746  1
  Zn  Zn5  1  0.24715361  0.58151208  0.23994254  1
  Zn  Zn6  1  0.74715361  0.41848792  0.26005746  1
  Zn  Zn7  1  0.78592691  0.92439723  0.42990311  1
  Zn  Zn8  1  0.28592691  0.07560277  0.07009689  1
  Zn  Zn9  1  0.71407309  0.42439723  0.57009689  1
  Zn  Zn10  1  0.21407309  0.57560277  0.92990311  1
  Zn  Zn11  1  0.21407309  0.07560277  0.57009689  1
  Zn  Zn12  1  0.71407309  0.92439723  0.92990311  1
  Zn  Zn13  1  0.28592691  0.57560277  0.42990311  1
  Zn  Zn14  1  0.78592691  0.42439723  0.07009689  1
  Zn  Zn15  1  0.74715361  0.91848792  0.23994254  1
  Si  Si0  1  0.77798604  0.92718814  0.08821152  1
  Si  Si1  1  0.27798604  0.07281186  0.41178848  1
  Si  Si2  1  0.72201396  0.42718814  0.91178848  1
  Si  Si3  1  0.22201396  0.57281186  0.58821152  1
  Si  Si4  1  0.22201396  0.07281186  0.91178848  1
  Si  Si5  1  0.72201396  0.92718814  0.58821152  1
  Si  Si6  1  0.27798604  0.57281186  0.08821152  1
  Si  Si7  1  0.77798604  0.42718814  0.41178848  1
  O  O0  1  0.69841696  0.34986198  0.34783864  1
  O  O1  1  0.19841696  0.65013802  0.15216136  1
  O  O2  1  0.80158304  0.84986198  0.65216136  1
  O  O3  1  0.30158304  0.15013802  0.84783864  1
  O  O4  1  0.30158304  0.65013802  0.65216136  1
  O  O5  1  0.80158304  0.34986198  0.84783864  1
  O  O6  1  0.19841696  0.15013802  0.34783864  1
  O  O7  1  0.69841696  0.84986198  0.15216136  1
  O  O8  1  0.65350397  0.05801665  0.09818187  1
  O  O9  1  0.15350397  0.94198335  0.40181813  1
  O  O10  1  0.84649603  0.55801665  0.90181813  1
  O  O11  1  0.34649603  0.44198335  0.59818187  1
  O  O12  1  0.34649603  0.94198335  0.90181813  1
  O  O13  1  0.84649603  0.05801665  0.59818187  1
  O  O14  1  0.15350397  0.44198335  0.09818187  1
  O  O15  1  0.65350397  0.55801665  0.40181813  1
  O  O16  1  0.66297752  0.36859818  0.47906313  1
  O  O17  1  0.16297752  0.63140182  0.02093687  1
  O  O18  1  0.83702248  0.86859818  0.52093687  1
  O  O19  1  0.33702248  0.13140182  0.97906313  1
  O  O20  1  0.33702248  0.63140182  0.52093687  1
  O  O21  1  0.83702248  0.36859818  0.97906313  1
  O  O22  1  0.16297752  0.13140182  0.47906313  1
  O  O23  1  0.66297752  0.86859818  0.02093687  1
  O  O24  1  0.95385576  0.30413997  0.21372914  1
  O  O25  1  0.58510406  0.29633845  0.10751067  1
  O  O26  1  0.45385576  0.69586003  0.28627086  1
  O  O27  1  0.04614424  0.19586003  0.71372914  1
  O  O28  1  0.04614424  0.69586003  0.78627086  1
  O  O29  1  0.54614424  0.30413997  0.71372914  1
  O  O30  1  0.45385576  0.19586003  0.21372914  1
  O  O31  1  0.95385576  0.80413997  0.28627086  1
  O  O32  1  0.59151382  0.06226491  0.41705565  1
  O  O33  1  0.09151382  0.93773509  0.08294435  1
  O  O34  1  0.90848618  0.56226491  0.58294435  1
  O  O35  1  0.40848618  0.43773509  0.91705565  1
  O  O36  1  0.40848618  0.93773509  0.58294435  1
  O  O37  1  0.90848618  0.06226491  0.91705565  1
  O  O38  1  0.09151382  0.43773509  0.41705565  1
  O  O39  1  0.59151382  0.56226491  0.08294435  1
  O  O40  1  0.89871204  0.06807177  0.22436821  1
  O  O41  1  0.39871204  0.93192823  0.27563179  1
  O  O42  1  0.60128796  0.56807177  0.77563179  1
  O  O43  1  0.10128796  0.43192823  0.72436821  1
  O  O44  1  0.10128796  0.93192823  0.77563179  1
  O  O45  1  0.60128796  0.06807177  0.72436821  1
  O  O46  1  0.39871204  0.43192823  0.22436821  1
  O  O47  1  0.89871204  0.56807177  0.27563179  1
  O  O48  1  0.58510406  0.79633845  0.39248933  1
  O  O49  1  0.08510406  0.20366155  0.10751067  1
  O  O50  1  0.91489594  0.29633845  0.60751067  1
  O  O51  1  0.41489594  0.70366155  0.89248933  1
  O  O52  1  0.41489594  0.20366155  0.60751067  1
  O  O53  1  0.91489594  0.79633845  0.89248933  1
  O  O54  1  0.08510406  0.70366155  0.39248933  1
  O  O55  1  0.54614424  0.80413997  0.78627086  1
loop_
_geom_bond_atom_site_label_1
_geom_bond_atom_site_label_2
_geom_bond_distance
_geom_bond_site_symmetry_2
Na0 O7 2.232452 1_555
Na0 O39 2.318183 1_555
Na0 O1 2.352743 1_655
Na0 O47 2.458567 1_555
Na1 O16 2.316070 1_555
Na1 O32 2.317009 1_555
Na1 O22 2.347827 1_655
Na1 O13 2.424858 1_555
Na1 O52 2.667263 1_555
Na1 O50 2.672636 1_555
Na2 O17 2.316070 1_556
Na2 O33 2.317009 1_556
Na2 O23 2.347827 1_556
Na2 O12 2.424858 1_555
Na2 O53 2.667263 1_455
Na2 O51 2.672636 1_555
Na3 O18 2.316070 1_555
Na3 O34 2.317009 1_555
Na3 O20 2.347827 1_555
Na3 O15 2.424858 1_555
Na3 O54 2.667263 1_655
Na3 O48 2.672636 1_555
Na4 O19 2.316070 1_554
Na4 O35 2.317009 1_554
Na4 O21 2.347827 1_454
Na4 O14 2.424858 1_555
Na4 O25 2.667263 1_555
Na4 O49 2.672636 1_555
Na5 O20 2.316070 1_555
Na5 O36 2.317009 1_555
Na5 O18 2.347827 1_455
Na5 O9 2.424858 1_555
Na5 O48 2.667263 1_555
Na5 O54 2.672636 1_555
Na6 O21 2.316070 1_554
Na6 O37 2.317009 1_554
Na6 O19 2.347827 1_554
Na6 O8 2.424858 1_555
Na6 O49 2.667263 1_655
Na6 O25 2.672636 1_555
Na7 O22 2.316070 1_555
Na7 O38 2.317009 1_555
Na7 O16 2.347827 1_555
Na7 O11 2.424858 1_555
Na7 O50 2.667263 1_455
Na7 O52 2.672636 1_555
Na8 O6 2.232452 1_555
Na8 O38 2.318183 1_555
Na8 O0 2.352743 1_555
Na8 O46 2.458567 1_555
Na9 O5 2.232452 1_555
Na9 O37 2.318183 1_555
Na9 O3 2.352743 1_555
Na9 O45 2.458567 1_555
Na10 O4 2.232452 1_555
Na10 O36 2.318183 1_555
Na10 O2 2.352743 1_455
Na10 O44 2.458567 1_555
Na11 O23 2.316070 1_556
Na11 O39 2.317009 1_556
Na11 O17 2.347827 1_656
Na11 O10 2.424858 1_555
Na11 O51 2.667263 1_555
Na11 O53 2.672636 1_555
Na12 O2 2.232452 1_555
Na12 O34 2.318183 1_555
Na12 O4 2.352743 1_555
Na12 O42 2.458567 1_555
Na13 O1 2.232452 1_555
Na13 O33 2.318183 1_555
Na13 O7 2.352743 1_555
Na13 O41 2.458567 1_555
Na14 O0 2.232452 1_555
Na14 O32 2.318183 1_555
Na14 O6 2.352743 1_655
Na14 O40 2.458567 1_555
Na15 O3 2.232452 1_555
Na15 O35 2.318183 1_555
Na15 O5 2.352743 1_455
Na15 O43 2.458567 1_555
O0 Si7 1.621470 1_555
O0 Zn6 1.949695 1_555
O1 Si6 1.621470 1_555
O1 Zn5 1.949695 1_555
O2 Si5 1.621470 1_555
O2 Zn0 1.949695 1_555
O3 Si4 1.621470 1_555
O3 Zn3 1.949695 1_555
O4 Si3 1.621470 1_555
O4 Zn2 1.949695 1_555
O5 Si2 1.621470 1_555
O5 Zn1 1.949695 1_555
O6 Si1 1.621470 1_555
O6 Zn4 1.949695 1_555
O7 Si0 1.621470 1_555
O7 Zn15 1.949695 1_555
O8 Si0 1.671899 1_545
O8 Zn8 1.995761 1_555
O8 Ti0 2.084541 1_555
O9 Si1 1.671899 1_565
O9 Zn7 1.995761 1_455
O9 Ti1 2.084541 1_555
O10 Si2 1.671899 1_555
O10 Zn10 1.995761 1_655
O10 Ti2 2.084541 1_555
O11 Si3 1.671899 1_555
O11 Zn9 1.995761 1_555
O11 Ti3 2.084541 1_555
O12 Si4 1.671899 1_565
O12 Zn12 1.995761 1_555
O12 Ti4 2.084541 1_555
O13 Si5 1.671899 1_545
O13 Zn11 1.995761 1_655
O13 Ti5 2.084541 1_555
O14 Si6 1.671899 1_555
O14 Zn14 1.995761 1_455
O14 Ti6 2.084541 1_555
O15 Si7 1.671899 1_555
O15 Zn13 1.995761 1_555
O15 Ti7 2.084541 1_555
O16 Si7 1.625177 1_555
O16 Zn9 1.955245 1_555
O17 Si6 1.625177 1_555
O17 Zn10 1.955245 1_554
O18 Si5 1.625177 1_555
O18 Zn7 1.955245 1_555
O19 Si4 1.625177 1_555
O19 Zn8 1.955245 1_556
O20 Si3 1.625177 1_555
O20 Zn13 1.955245 1_555
O21 Si2 1.625177 1_555
O21 Zn14 1.955245 1_556
O22 Si1 1.625177 1_555
O22 Zn11 1.955245 1_555
O23 Si0 1.625177 1_555
O23 Zn12 1.955245 1_554
O24 Ti0 1.937834 1_555
O24 Zn6 1.948111 1_555
O24 Ti6 1.992903 1_655
O25 Ti6 1.934333 1_555
O25 Zn14 1.971156 1_555
O25 Ti0 2.029085 1_555
O26 Ti1 1.937834 1_555
O26 Zn5 1.948111 1_555
O26 Ti7 1.992903 1_555
O27 Ti3 1.937834 1_555
O27 Zn3 1.948111 1_555
O27 Ti5 1.992903 1_455
O28 Ti4 1.937834 1_555
O28 Zn2 1.948111 1_555
O28 Ti2 1.992903 1_455
O29 Ti5 1.937834 1_555
O29 Zn1 1.948111 1_555
O29 Ti3 1.992903 1_555
O30 Ti6 1.937834 1_555
O30 Zn4 1.948111 1_555
O30 Ti0 1.992903 1_555
O31 Ti7 1.937834 1_555
O31 Zn15 1.948111 1_555
O31 Ti1 1.992903 1_655
O32 Si1 1.631872 1_555
O32 Zn7 1.917893 1_545
O33 Si0 1.631872 1_455
O33 Zn8 1.917893 1_565
O34 Si3 1.631872 1_655
O34 Zn9 1.917893 1_555
O35 Si2 1.631872 1_555
O35 Zn10 1.917893 1_555
O36 Si5 1.631872 1_555
O36 Zn11 1.917893 1_565
O37 Si4 1.631872 1_655
O37 Zn12 1.917893 1_545
O38 Si7 1.631872 1_455
O38 Zn13 1.917893 1_555
O39 Si6 1.631872 1_555
O39 Zn14 1.917893 1_555
O40 Ti0 1.900341 1_555
O40 Zn15 1.942193 1_545
O40 Zn4 1.947482 1_655
O41 Ti1 1.900341 1_555
O41 Zn4 1.942193 1_565
O41 Zn15 1.947482 1_555
O42 Ti2 1.900341 1_555
O42 Zn1 1.942193 1_555
O42 Zn2 1.947482 1_555
O43 Ti3 1.900341 1_555
O43 Zn2 1.942193 1_555
O43 Zn1 1.947482 1_455
O44 Ti4 1.900341 1_555
O44 Zn3 1.942193 1_565
O44 Zn0 1.947482 1_455
O45 Ti5 1.900341 1_555
O45 Zn0 1.942193 1_545
O45 Zn3 1.947482 1_555
O46 Ti6 1.900341 1_555
O46 Zn5 1.942193 1_555
O46 Zn6 1.947482 1_555
O47 Ti7 1.900341 1_555
O47 Zn6 1.942193 1_555
O47 Zn5 1.947482 1_655
O48 Ti1 1.934333 1_555
O48 Zn7 1.971156 1_555
O48 Ti7 2.029085 1_555
O49 Ti0 1.934333 1_455
O49 Zn8 1.971156 1_555
O49 Ti6 2.029085 1_555
O50 Ti3 1.934333 1_655
O50 Zn9 1.971156 1_555
O50 Ti5 2.029085 1_555
O51 Ti2 1.934333 1_555
O51 Zn10 1.971156 1_555
O51 Ti4 2.029085 1_555
O52 Ti5 1.934333 1_555
O52 Zn11 1.971156 1_555
O52 Ti3 2.029085 1_555
O53 Ti4 1.934333 1_655
O53 Zn12 1.971156 1_555
O53 Ti2 2.029085 1_555
O54 Ti7 1.934333 1_455
O54 Zn13 1.971156 1_555
O54 Ti1 2.029085 1_555
O55 Ti2 1.937834 1_555
O55 Zn0 1.948111 1_555
O55 Ti4 1.992903 1_555
