# generated using pymatgen
data_BaCu2(HgO2)2
_symmetry_space_group_name_H-M   'P 1'
_cell_length_a   6.96227200
_cell_length_b   6.96227200
_cell_length_c   6.63717600
_cell_angle_alpha   90.00000000
_cell_angle_beta   90.00000000
_cell_angle_gamma   90.00000000
_symmetry_Int_Tables_number   1
_chemical_formula_structural   BaCu2(HgO2)2
_chemical_formula_sum   'Ba2 Cu4 Hg4 O8'
_cell_volume   321.72536810
_cell_formula_units_Z   2
loop_
 _symmetry_equiv_pos_site_id
 _symmetry_equiv_pos_as_xyz
  1  'x, y, z'
loop_
 _atom_site_type_symbol
 _atom_site_label
 _atom_site_symmetry_multiplicity
 _atom_site_fract_x
 _atom_site_fract_y
 _atom_site_fract_z
 _atom_site_occupancy
  Ba  Ba0  1  0.00000000  0.00000000  0.00000000  1
  Ba  Ba1  1  0.50000000  0.50000000  0.00000000  1
  Cu  Cu0  1  0.75000000  0.25000000  0.50000000  1
  Cu  Cu1  1  0.25000000  0.75000000  0.50000000  1
  Cu  Cu2  1  0.75000000  0.75000000  0.50000000  1
  Cu  Cu3  1  0.25000000  0.25000000  0.50000000  1
  Hg  Hg0  1  0.50000000  0.00000000  0.75944300  1
  Hg  Hg1  1  0.50000000  0.00000000  0.24055700  1
  Hg  Hg2  1  0.00000000  0.50000000  0.24055700  1
  Hg  Hg3  1  0.00000000  0.50000000  0.75944300  1
  O  O0  1  0.78912000  0.28912000  0.77157800  1
  O  O1  1  0.71088000  0.21088000  0.22842200  1
  O  O2  1  0.21088000  0.71088000  0.77157800  1
  O  O3  1  0.28912000  0.78912000  0.22842200  1
  O  O4  1  0.28912000  0.21088000  0.77157800  1
  O  O5  1  0.78912000  0.71088000  0.22842200  1
  O  O6  1  0.21088000  0.28912000  0.22842200  1
  O  O7  1  0.71088000  0.78912000  0.77157800  1
loop_
_geom_bond_atom_site_label_1
_geom_bond_atom_site_label_2
_geom_bond_distance
_geom_bond_site_symmetry_2
Ba0 O5 2.916506 1_445
Ba0 O2 2.916506 1_544
Ba0 O1 2.916506 1_455
Ba0 O3 2.916506 1_545
Ba0 O7 2.916506 1_444
Ba0 O4 2.916506 1_554
Ba0 O6 2.916506 1_555
Ba0 O0 2.916506 1_454
Ba1 O6 2.916506 1_555
Ba1 O3 2.916506 1_555
Ba1 O1 2.916506 1_555
Ba1 O4 2.916506 1_554
Ba1 O5 2.916506 1_555
Ba1 O0 2.916506 1_554
Ba1 O2 2.916506 1_554
Ba1 O7 2.916506 1_554
Cu0 O1 1.843207 1_555
Cu0 O0 1.843207 1_555
Cu1 O2 1.843207 1_555
Cu1 O3 1.843207 1_555
Cu2 O5 1.843207 1_555
Cu2 O7 1.843207 1_555
Cu3 O4 1.843207 1_555
Cu3 O6 1.843207 1_555
Hg0 O4 2.077915 1_555
Hg0 O7 2.077915 1_545
Hg1 O3 2.077915 1_545
Hg1 O1 2.077915 1_555
Hg2 O6 2.077915 1_555
Hg2 O5 2.077915 1_455
Hg3 O0 2.077915 1_455
Hg3 O2 2.077915 1_555
