# generated using pymatgen
data_Mn2FeO4
_symmetry_space_group_name_H-M   'P 1'
_cell_length_a   5.97984459
_cell_length_b   5.89020500
_cell_length_c   6.19259945
_cell_angle_alpha   61.60286320
_cell_angle_beta   61.83717923
_cell_angle_gamma   89.99960529
_symmetry_Int_Tables_number   1
_chemical_formula_structural   Mn2FeO4
_chemical_formula_sum   'Mn4 Fe2 O8'
_cell_volume   161.91748248
_cell_formula_units_Z   2
loop_
 _symmetry_equiv_pos_site_id
 _symmetry_equiv_pos_as_xyz
  1  'x, y, z'
loop_
 _atom_site_type_symbol
 _atom_site_label
 _atom_site_symmetry_multiplicity
 _atom_site_fract_x
 _atom_site_fract_y
 _atom_site_fract_z
 _atom_site_occupancy
  Mn  Mn0  1  0.87245700  0.62293000  0.75413600  1
  Mn  Mn1  1  0.37544300  0.62759300  0.74479000  1
  Mn  Mn2  1  0.37931200  0.62761800  0.23980700  1
  Mn  Mn3  1  0.37936100  0.13261400  0.23974700  1
  Fe  Fe0  1  0.98901600  0.00161000  0.99679200  1
  Fe  Fe1  1  0.75937400  0.24707400  0.50587300  1
  O  O0  1  0.63786800  0.84833900  0.76012600  1
  O  O1  1  0.59134200  0.37153000  0.25686500  1
  O  O2  1  0.15487400  0.88153700  0.23690100  1
  O  O3  1  0.16370900  0.38320200  0.23362900  1
  O  O4  1  0.10593200  0.85780100  0.75689400  1
  O  O5  1  0.63787400  0.39154500  0.76012500  1
  O  O6  1  0.10598200  0.38531800  0.75689900  1
  O  O7  1  0.59745700  0.87128900  0.25741400  1
loop_
_geom_bond_atom_site_label_1
_geom_bond_atom_site_label_2
_geom_bond_distance
_geom_bond_site_symmetry_2
Mn0 O5 1.931188 1_555
Mn0 O0 1.931254 1_555
Mn0 O4 1.976973 1_655
Mn0 O6 1.977101 1_655
Mn0 O1 2.320713 1_556
Mn0 O2 2.384307 1_655
Mn1 O5 2.102356 1_555
Mn1 O0 2.102470 1_555
Mn1 O6 2.103018 1_555
Mn1 O4 2.103391 1_555
Mn1 O7 2.242555 1_555
Mn1 O3 2.253064 1_556
Mn2 O3 1.958388 1_555
Mn2 O1 1.966950 1_555
Mn2 O2 2.008896 1_555
Mn2 O7 2.014120 1_555
Mn2 O0 2.212660 1_554
Mn2 O6 2.382175 1_555
Mn3 O3 1.958555 1_555
Mn3 O1 1.966528 1_555
Mn3 O2 2.009135 1_545
Mn3 O7 2.014113 1_545
Mn3 O5 2.212387 1_554
Mn3 O4 2.382450 1_545
Fe0 O4 1.905202 1_645
Fe0 O6 1.905223 1_655
Fe0 O7 1.982656 1_546
Fe0 O2 2.021523 1_646
Fe1 O5 1.981301 1_555
Fe1 O0 1.981377 1_545
Fe1 O3 2.048818 1_655
Fe1 O1 2.076582 1_555
