# generated using pymatgen
data_NdLu3
_symmetry_space_group_name_H-M   'P 1'
_cell_length_a   7.13914932
_cell_length_b   7.13914932
_cell_length_c   5.67618983
_cell_angle_alpha   90.00000000
_cell_angle_beta   90.00000000
_cell_angle_gamma   120.00000336
_symmetry_Int_Tables_number   1
_chemical_formula_structural   NdLu3
_chemical_formula_sum   'Nd2 Lu6'
_cell_volume   250.54195376
_cell_formula_units_Z   2
loop_
 _symmetry_equiv_pos_site_id
 _symmetry_equiv_pos_as_xyz
  1  'x, y, z'
loop_
 _atom_site_type_symbol
 _atom_site_label
 _atom_site_symmetry_multiplicity
 _atom_site_fract_x
 _atom_site_fract_y
 _atom_site_fract_z
 _atom_site_occupancy
  Nd  Nd0  1  0.66666700  0.33333300  0.25000000  1
  Nd  Nd1  1  0.33333300  0.66666700  0.75000000  1
  Lu  Lu0  1  0.16428386  0.83571614  0.25000000  1
  Lu  Lu1  1  0.83571614  0.67143429  0.75000000  1
  Lu  Lu2  1  0.32856571  0.16428386  0.75000000  1
  Lu  Lu3  1  0.67143429  0.83571614  0.25000000  1
  Lu  Lu4  1  0.16428386  0.32856571  0.25000000  1
  Lu  Lu5  1  0.83571614  0.16428386  0.75000000  1
loop_
_geom_bond_atom_site_label_1
_geom_bond_atom_site_label_2
_geom_bond_distance
_geom_bond_site_symmetry_2
Lu0 Lu1 3.490200 1_454
Lu0 Lu2 3.490200 1_565
Lu0 Lu2 3.490200 1_564
Lu0 Lu1 3.490200 1_455
Lu0 Lu4 3.518527 1_565
Lu0 Lu3 3.518527 1_455
Lu0 Nd1 3.524822 1_554
Lu0 Nd1 3.524822 1_555
Lu0 Nd0 3.569696 1_455
Lu0 Nd0 3.569696 1_565
Lu0 Lu4 3.620623 1_555
Lu0 Lu3 3.620623 1_555
Lu1 Lu3 3.490185 1_556
Lu1 Lu3 3.490185 1_555
Lu1 Lu2 3.518526 1_665
Lu1 Lu5 3.518527 1_565
Lu1 Nd0 3.524833 1_555
Lu1 Nd0 3.524833 1_556
Lu1 Nd1 3.569693 1_555
Lu1 Nd1 3.569700 1_655
Lu1 Lu2 3.620622 1_555
Lu1 Lu5 3.620623 1_555
Lu2 Lu4 3.490185 1_555
Lu2 Lu4 3.490185 1_556
Lu2 Lu5 3.518527 1_455
Lu2 Nd0 3.524833 1_555
Lu2 Nd0 3.524833 1_556
Lu2 Nd1 3.569693 1_555
Lu2 Nd1 3.569700 1_545
Lu2 Lu5 3.620623 1_555
Lu3 Lu5 3.490200 1_565
Lu3 Lu5 3.490200 1_564
Lu3 Lu4 3.518526 1_665
Lu3 Nd1 3.524833 1_555
Lu3 Nd1 3.524833 1_554
Lu3 Nd0 3.569693 1_555
Lu3 Nd0 3.569700 1_565
Lu3 Lu4 3.620622 1_555
Lu4 Lu5 3.490200 1_455
Lu4 Lu5 3.490200 1_454
Lu4 Nd1 3.524833 1_555
Lu4 Nd1 3.524833 1_554
Lu4 Nd0 3.569693 1_555
Lu4 Nd0 3.569700 1_455
Lu5 Nd0 3.524822 1_556
Lu5 Nd0 3.524822 1_555
Lu5 Nd1 3.569696 1_655
Lu5 Nd1 3.569696 1_545
