# generated using pymatgen
data_Fe5(O4F)2
_symmetry_space_group_name_H-M   'P 1'
_cell_length_a   4.65982900
_cell_length_b   7.62048100
_cell_length_c   10.14587355
_cell_angle_alpha   64.96992206
_cell_angle_beta   90.00000000
_cell_angle_gamma   90.00000000
_symmetry_Int_Tables_number   1
_chemical_formula_structural   Fe5(O4F)2
_chemical_formula_sum   'Fe10 O16 F4'
_cell_volume   326.44583825
_cell_formula_units_Z   2
loop_
 _symmetry_equiv_pos_site_id
 _symmetry_equiv_pos_as_xyz
  1  'x, y, z'
loop_
 _atom_site_type_symbol
 _atom_site_label
 _atom_site_symmetry_multiplicity
 _atom_site_fract_x
 _atom_site_fract_y
 _atom_site_fract_z
 _atom_site_occupancy
  Fe  Fe0  1  0.48106200  0.80842000  0.78701500  1
  Fe  Fe1  1  0.53242500  0.41265000  0.39472700  1
  Fe  Fe2  1  0.50000000  0.00000000  0.00000000  1
  Fe  Fe3  1  0.46757500  0.58735000  0.60527300  1
  Fe  Fe4  1  0.51893800  0.19158000  0.21298500  1
  Fe  Fe5  1  0.96757500  0.41265000  0.89472700  1
  Fe  Fe6  1  0.03242500  0.58735000  0.10527300  1
  Fe  Fe7  1  0.01893800  0.80842000  0.28701500  1
  Fe  Fe8  1  0.00000000  0.00000000  0.50000000  1
  Fe  Fe9  1  0.98106200  0.19158000  0.71298500  1
  O  O0  1  0.17096000  0.41007200  0.73142600  1
  O  O1  1  0.21008700  0.81547700  0.11340200  1
  O  O2  1  0.19184200  0.01633100  0.32365200  1
  O  O3  1  0.18743500  0.61485100  0.92201200  1
  O  O4  1  0.30815800  0.01633100  0.82365200  1
  O  O5  1  0.28991300  0.81547700  0.61340200  1
  O  O6  1  0.31256500  0.61485100  0.42201200  1
  O  O7  1  0.32904000  0.41007200  0.23142600  1
  O  O8  1  0.69184200  0.98366900  0.17634800  1
  O  O9  1  0.71008700  0.18452300  0.38659800  1
  O  O10  1  0.68743500  0.38514900  0.57798800  1
  O  O11  1  0.67096000  0.58992800  0.76857400  1
  O  O12  1  0.81256500  0.38514900  0.07798800  1
  O  O13  1  0.82904000  0.58992800  0.26857400  1
  O  O14  1  0.78991300  0.18452300  0.88659800  1
  O  O15  1  0.80815800  0.98366900  0.67634800  1
  F  F0  1  0.20200100  0.21950500  0.52648800  1
  F  F1  1  0.29799900  0.21950500  0.02648800  1
  F  F2  1  0.70200100  0.78049500  0.97351200  1
  F  F3  1  0.79799900  0.78049500  0.47351200  1
loop_
_geom_bond_atom_site_label_1
_geom_bond_atom_site_label_2
_geom_bond_distance
_geom_bond_site_symmetry_2
Fe0 O4 1.948319 1_565
Fe0 O5 1.954187 1_555
Fe0 O11 1.963141 1_555
Fe0 O15 2.024496 1_555
Fe0 O3 2.052890 1_555
Fe1 O7 1.916045 1_555
Fe1 O10 1.921742 1_555
Fe1 O9 1.958486 1_555
Fe1 O6 1.965065 1_555
Fe1 O13 1.977505 1_555
Fe2 O1 1.938323 1_545
Fe2 O14 1.938323 1_554
Fe2 O8 1.956392 1_545
Fe2 O4 1.956392 1_554
Fe3 O11 1.916045 1_555
Fe3 O6 1.921742 1_555
Fe3 O5 1.958486 1_555
Fe3 O10 1.965065 1_555
Fe3 O0 1.977505 1_555
Fe4 O8 1.948319 1_545
Fe4 O9 1.954187 1_555
Fe4 O7 1.963141 1_555
Fe4 O2 2.024496 1_555
Fe4 O12 2.052890 1_555
Fe5 O0 1.916045 1_655
Fe5 O12 1.921742 1_556
Fe5 O14 1.958486 1_555
Fe5 O3 1.965065 1_655
Fe5 O11 1.977505 1_555
Fe6 O13 1.916045 1_455
Fe6 O3 1.921742 1_554
Fe6 O1 1.958486 1_555
Fe6 O12 1.965065 1_455
Fe6 O7 1.977505 1_555
Fe7 O2 1.948319 1_565
Fe7 O1 1.954187 1_555
Fe7 O13 1.963141 1_455
Fe7 O8 2.024496 1_455
Fe7 O6 2.052890 1_555
Fe8 O5 1.938323 1_545
Fe8 O9 1.938323 1_455
Fe8 O2 1.956392 1_555
Fe8 O15 1.956392 1_445
Fe9 O15 1.948319 1_545
Fe9 O14 1.954187 1_555
Fe9 O0 1.963141 1_655
Fe9 O4 2.024496 1_655
Fe9 O10 2.052890 1_555
F0 Fe8 2.033883 1_555
F0 Fe9 2.084427 1_455
F0 Fe1 2.158527 1_555
F1 Fe2 2.033883 1_555
F1 Fe4 2.084427 1_555
F1 Fe5 2.158527 1_454
F2 Fe2 2.033883 1_566
F2 Fe0 2.084427 1_555
F2 Fe6 2.158527 1_656
F3 Fe8 2.033883 1_665
F3 Fe7 2.084427 1_655
F3 Fe3 2.158527 1_555
