# generated using pymatgen
data_Li4Co3NiO8
_symmetry_space_group_name_H-M   'P 1'
_cell_length_a   5.88520943
_cell_length_b   5.85992767
_cell_length_c   10.04159363
_cell_angle_alpha   106.16817728
_cell_angle_beta   90.11286010
_cell_angle_gamma   59.86941520
_symmetry_Int_Tables_number   1
_chemical_formula_structural   Li4Co3NiO8
_chemical_formula_sum   'Li8 Co6 Ni2 O16'
_cell_volume   283.67975409
_cell_formula_units_Z   2
loop_
 _symmetry_equiv_pos_site_id
 _symmetry_equiv_pos_as_xyz
  1  'x, y, z'
loop_
 _atom_site_type_symbol
 _atom_site_label
 _atom_site_symmetry_multiplicity
 _atom_site_fract_x
 _atom_site_fract_y
 _atom_site_fract_z
 _atom_site_occupancy
  Li  Li0  1  0.74987700  0.49736200  0.75059700  1
  Li  Li1  1  0.25191200  0.50184900  0.24943600  1
  Li  Li2  1  0.99120300  0.50460600  0.50863900  1
  Li  Li3  1  0.50725100  0.49601500  0.99133400  1
  Li  Li4  1  0.24999100  0.49537800  0.74793000  1
  Li  Li5  1  0.74607300  0.50376500  0.25170400  1
  Li  Li6  1  0.00445300  0.50341600  0.00856900  1
  Li  Li7  1  0.49901900  0.49729400  0.48910900  1
  Co  Co0  1  0.74829100  0.99740300  0.75064100  1
  Co  Co1  1  0.50529200  0.00071000  0.00032200  1
  Co  Co2  1  0.74949300  0.00561900  0.24958400  1
  Co  Co3  1  0.24722800  0.00501500  0.25040000  1
  Co  Co4  1  0.99806700  0.00170700  0.50141300  1
  Co  Co5  1  0.25152400  0.98851300  0.75182000  1
  Ni  Ni0  1  0.49969300  0.00039800  0.49983600  1
  Ni  Ni1  1  0.00051700  0.00013700  0.00012900  1
  O  O0  1  0.87240300  0.23351600  0.36750800  1
  O  O1  1  0.40072600  0.22075200  0.87381300  1
  O  O2  1  0.62543800  0.78165900  0.12645900  1
  O  O3  1  0.09679000  0.76830300  0.63207500  1
  O  O4  1  0.85203100  0.77852800  0.87314200  1
  O  O5  1  0.36318200  0.77048700  0.37129900  1
  O  O6  1  0.12580600  0.22419900  0.62374500  1
  O  O7  1  0.63585400  0.22489700  0.12912700  1
  O  O8  1  0.87109100  0.22079500  0.86235000  1
  O  O9  1  0.40685500  0.22536500  0.36237000  1
  O  O10  1  0.62633000  0.77492500  0.63778600  1
  O  O11  1  0.09372500  0.77901200  0.13761400  1
  O  O12  1  0.37055500  0.76992000  0.87439100  1
  O  O13  1  0.86952100  0.78192300  0.37149500  1
  O  O14  1  0.63947700  0.22284800  0.63283900  1
  O  O15  1  0.15034700  0.22368600  0.12252200  1
loop_
_geom_bond_atom_site_label_1
_geom_bond_atom_site_label_2
_geom_bond_distance
_geom_bond_site_symmetry_2
Li0 O8 2.060031 1_555
Li0 O10 2.071954 1_555
Li0 O14 2.096429 1_555
Li0 O6 2.097567 1_655
Li0 O12 2.098912 1_555
Li0 O4 2.110147 1_555
Li1 O11 2.063724 1_555
Li1 O9 2.068446 1_555
Li1 O5 2.088857 1_555
Li1 O7 2.106257 1_555
Li1 O13 2.107823 1_455
Li1 O15 2.111075 1_555
Li2 O3 2.050504 1_655
Li2 O10 2.062554 1_555
Li2 O6 2.100195 1_655
Li2 O0 2.208652 1_555
Li2 O13 2.263691 1_555
Li2 O9 2.340053 1_655
Li3 O8 2.060154 1_555
Li3 O1 2.083198 1_555
Li3 O12 2.086147 1_555
Li3 O7 2.241508 1_556
Li3 O2 2.242085 1_556
Li3 O11 2.331573 1_556
Li4 O3 2.075709 1_555
Li4 O14 2.108964 1_555
Li4 O1 2.160989 1_555
Li4 O6 2.161757 1_555
Li4 O12 2.170013 1_555
Li4 O4 2.183492 1_455
Li5 O0 2.062291 1_555
Li5 O5 2.095787 1_555
Li5 O7 2.132390 1_555
Li5 O2 2.171159 1_555
Li5 O13 2.173737 1_555
Li5 O15 2.223360 1_655
Li6 O11 2.060823 1_555
Li6 O2 2.078353 1_455
Li6 O15 2.088367 1_555
Li6 O1 2.213503 1_554
Li6 O4 2.239931 1_454
Li6 O8 2.336841 1_454
Li7 O9 2.046622 1_555
Li7 O0 2.063593 1_555
Li7 O5 2.089874 1_555
Li7 O3 2.270721 1_555
Li7 O10 2.302990 1_555
Li7 O14 2.303497 1_555
Co0 O14 1.890149 1_565
Co0 O10 1.900664 1_555
Co0 O4 1.902760 1_555
Co0 O8 1.903431 1_565
Co0 O3 1.944613 1_655
Co0 O1 1.961509 1_565
Co1 O2 1.934606 1_545
Co1 O1 1.941046 1_554
Co1 O4 1.976665 1_544
Co1 O15 1.988360 1_555
Co1 O7 2.013055 1_555
Co1 O12 2.043803 1_544
Co2 O7 1.887092 1_555
Co2 O9 1.896580 1_555
Co2 O11 1.899574 1_645
Co2 O13 1.917439 1_545
Co2 O0 1.947983 1_555
Co2 O2 1.959272 1_545
Co3 O15 1.948325 1_555
Co3 O5 1.952599 1_545
Co3 O0 2.051779 1_455
Co3 O11 2.052931 1_545
Co3 O9 2.054054 1_555
Co3 O2 2.096510 1_545
Co4 O6 1.965309 1_655
Co4 O13 1.992877 1_545
Co4 O3 2.031834 1_645
Co4 O14 2.046369 1_555
Co4 O0 2.050581 1_555
Co4 O5 2.064556 1_645
Co5 O12 1.902680 1_555
Co5 O6 2.017034 1_565
Co5 O10 2.045342 1_555
Co5 O8 2.050926 1_465
Co5 O3 2.061935 1_555
Co5 O1 2.095412 1_565
Ni0 O9 2.056503 1_555
Ni0 O5 2.059281 1_545
Ni0 O10 2.060748 1_545
Ni0 O14 2.064562 1_555
Ni0 O6 2.077196 1_555
Ni0 O13 2.081307 1_545
Ni1 O11 2.040980 1_545
Ni1 O8 2.041964 1_454
Ni1 O7 2.059489 1_455
Ni1 O15 2.064668 1_555
Ni1 O12 2.066267 1_544
Ni1 O4 2.070931 1_444
