# generated using pymatgen
data_MgCr2O4
_symmetry_space_group_name_H-M   'P 1'
_cell_length_a   6.00010935
_cell_length_b   6.00010935
_cell_length_c   20.08527908
_cell_angle_alpha   79.76046865
_cell_angle_beta   79.76046865
_cell_angle_gamma   59.77993230
_symmetry_Int_Tables_number   1
_chemical_formula_structural   MgCr2O4
_chemical_formula_sum   'Mg8 Cr16 O32'
_cell_volume   611.55164864
_cell_formula_units_Z   8
loop_
 _symmetry_equiv_pos_site_id
 _symmetry_equiv_pos_as_xyz
  1  'x, y, z'
loop_
 _atom_site_type_symbol
 _atom_site_label
 _atom_site_symmetry_multiplicity
 _atom_site_fract_x
 _atom_site_fract_y
 _atom_site_fract_z
 _atom_site_occupancy
  Mg  Mg0  1  0.65319600  0.65319600  0.02993100  1
  Mg  Mg1  1  0.12197400  0.12197400  0.12462200  1
  Mg  Mg2  1  0.90163900  0.90163900  0.28157000  1
  Mg  Mg3  1  0.37305000  0.37305000  0.37446000  1
  Mg  Mg4  1  0.62530200  0.62530200  0.62464200  1
  Mg  Mg5  1  0.49978100  0.49978100  0.49937400  1
  Mg  Mg6  1  0.87521300  0.87521300  0.87473600  1
  Mg  Mg7  1  0.75020200  0.75020200  0.75001600  1
  Cr  Cr0  1  0.62928600  0.12352300  0.12502400  1
  Cr  Cr1  1  0.25034000  0.25034000  0.25155400  1
  Cr  Cr2  1  0.12352300  0.62928600  0.12502400  1
  Cr  Cr3  1  0.15301100  0.15301100  0.53207400  1
  Cr  Cr4  1  0.87614500  0.37332600  0.37439700  1
  Cr  Cr5  1  0.59894600  0.59894600  0.21980100  1
  Cr  Cr6  1  0.40550600  0.40550600  0.78076600  1
  Cr  Cr7  1  0.37332600  0.87614500  0.37439700  1
  Cr  Cr8  1  0.12479300  0.62494300  0.62461900  1
  Cr  Cr9  1  0.84605800  0.84605800  0.46705900  1
  Cr  Cr10  1  0.62494300  0.12479300  0.62461900  1
  Cr  Cr11  1  0.87593100  0.37834100  0.87557700  1
  Cr  Cr12  1  0.37834100  0.87593100  0.87557700  1
  Cr  Cr13  1  0.09572800  0.09572800  0.71810000  1
  Cr  Cr14  1  0.00031200  0.00031200  0.00199100  1
  Cr  Cr15  1  0.34934300  0.34934300  0.97051800  1
  O  O0  1  0.28208600  0.82217400  0.06368400  1
  O  O1  1  0.93356500  0.93356500  0.18006800  1
  O  O2  1  0.82217400  0.28208600  0.06368400  1
  O  O3  1  0.82380700  0.82380700  0.06608500  1
  O  O4  1  0.42614200  0.42614200  0.18334200  1
  O  O5  1  0.52833600  0.07488200  0.31385200  1
  O  O6  1  0.43002600  0.96065200  0.18728400  1
  O  O7  1  0.17735100  0.17735100  0.43271000  1
  O  O8  1  0.07488200  0.52833600  0.31385200  1
  O  O9  1  0.31606800  0.31606800  0.06871500  1
  O  O10  1  0.07420700  0.07420700  0.31552500  1
  O  O11  1  0.96065200  0.43002600  0.18728400  1
  O  O12  1  0.79254900  0.31963600  0.56403800  1
  O  O13  1  0.68309300  0.68309300  0.42975900  1
  O  O14  1  0.67913600  0.20554400  0.43444300  1
  O  O15  1  0.43029900  0.43029900  0.68118000  1
  O  O16  1  0.31963600  0.79254900  0.56403800  1
  O  O17  1  0.56882100  0.56882100  0.31794200  1
  O  O18  1  0.31899100  0.31899100  0.56877600  1
  O  O19  1  0.20554400  0.67913600  0.43444300  1
  O  O20  1  0.93226500  0.93226500  0.68078100  1
  O  O21  1  0.04705600  0.56824500  0.81450500  1
  O  O22  1  0.92971700  0.45645200  0.68581400  1
  O  O23  1  0.68725500  0.68725500  0.92883600  1
  O  O24  1  0.56824500  0.04705600  0.81450500  1
  O  O25  1  0.81967400  0.81967400  0.56829800  1
  O  O26  1  0.56763700  0.56763700  0.82009500  1
  O  O27  1  0.45645200  0.92971700  0.68581400  1
  O  O28  1  0.17535700  0.17535700  0.93485900  1
  O  O29  1  0.18162700  0.71206400  0.93804300  1
  O  O30  1  0.06934400  0.06934400  0.81925300  1
  O  O31  1  0.71206400  0.18162700  0.93804300  1
loop_
_geom_bond_atom_site_label_1
_geom_bond_atom_site_label_2
_geom_bond_distance
_geom_bond_site_symmetry_2
Mg0 O2 1.969979 1_555
Mg0 O0 1.969979 1_555
Mg0 O23 1.988348 1_554
Mg0 O3 2.051009 1_555
Mg1 O1 2.046324 1_445
Mg1 O0 2.069277 1_545
Mg1 O2 2.069277 1_455
Mg1 O9 2.099726 1_555
Mg1 O6 2.128448 1_545
Mg1 O11 2.128448 1_455
Mg2 O8 1.974190 1_655
Mg2 O5 1.974190 1_565
Mg2 O1 1.997228 1_555
Mg2 O10 2.047116 1_665
Mg3 O8 2.060032 1_555
Mg3 O5 2.060032 1_555
Mg3 O14 2.081487 1_555
Mg3 O19 2.081487 1_555
Mg3 O17 2.118737 1_555
Mg3 O7 2.130138 1_555
Mg4 O16 2.087849 1_555
Mg4 O12 2.087849 1_555
Mg4 O27 2.089192 1_555
Mg4 O22 2.089192 1_555
Mg4 O25 2.105164 1_555
Mg4 O15 2.112074 1_555
Mg5 O12 2.083664 1_555
Mg5 O16 2.083664 1_555
Mg5 O19 2.093523 1_555
Mg5 O14 2.093523 1_555
Mg5 O18 2.099014 1_555
Mg5 O13 2.121050 1_555
Mg6 O23 2.033078 1_555
Mg6 O24 2.087108 1_565
Mg6 O21 2.087108 1_655
Mg6 O30 2.097195 1_665
Mg6 O31 2.128877 1_565
Mg6 O29 2.128877 1_655
Mg7 O27 2.081518 1_555
Mg7 O22 2.081518 1_555
Mg7 O24 2.098133 1_565
Mg7 O21 2.098133 1_655
Mg7 O20 2.107499 1_555
Mg7 O26 2.119579 1_555
Cr0 O2 1.986769 1_555
Cr0 O1 2.007356 1_545
Cr0 O3 2.037254 1_545
Cr0 O6 2.039195 1_545
Cr0 O4 2.043356 1_555
Cr0 O9 2.061860 1_555
Cr1 O5 1.990541 1_555
Cr1 O8 1.990541 1_555
Cr1 O10 2.010818 1_555
Cr1 O4 2.048135 1_555
Cr1 O11 2.065536 1_455
Cr1 O6 2.065536 1_545
Cr2 O0 1.986769 1_555
Cr2 O1 2.007356 1_455
Cr2 O3 2.037254 1_455
Cr2 O11 2.039195 1_455
Cr2 O4 2.043356 1_555
Cr2 O9 2.061860 1_555
Cr3 O16 1.909795 1_545
Cr3 O12 1.909795 1_455
Cr3 O7 1.959569 1_555
Cr3 O18 2.011832 1_555
Cr4 O8 1.991118 1_655
Cr4 O14 2.030938 1_555
Cr4 O10 2.034571 1_655
Cr4 O13 2.035276 1_555
Cr4 O7 2.035770 1_655
Cr4 O17 2.038402 1_555
Cr5 O11 1.918605 1_555
Cr5 O6 1.918605 1_555
Cr5 O17 1.931443 1_555
Cr5 O4 2.075669 1_555
Cr6 O21 1.908243 1_555
Cr6 O24 1.908243 1_555
Cr6 O15 1.963622 1_555
Cr6 O26 2.003930 1_555
Cr7 O5 1.991118 1_565
Cr7 O19 2.030938 1_555
Cr7 O10 2.034571 1_565
Cr7 O13 2.035276 1_555
Cr7 O7 2.035770 1_565
Cr7 O17 2.038402 1_555
Cr8 O18 2.024810 1_555
Cr8 O16 2.025183 1_555
Cr8 O25 2.027211 1_455
Cr8 O15 2.031826 1_555
Cr8 O20 2.034470 1_455
Cr8 O22 2.034875 1_455
Cr9 O19 1.908130 1_655
Cr9 O14 1.908130 1_565
Cr9 O13 1.989180 1_555
Cr9 O25 1.995302 1_555
Cr10 O18 2.024810 1_555
Cr10 O12 2.025183 1_555
Cr10 O25 2.027211 1_545
Cr10 O15 2.031826 1_555
Cr10 O20 2.034470 1_545
Cr10 O27 2.034875 1_545
Cr11 O23 2.005876 1_555
Cr11 O21 2.022443 1_655
Cr11 O26 2.030156 1_555
Cr11 O31 2.033993 1_555
Cr11 O28 2.042337 1_655
Cr11 O30 2.043768 1_655
Cr12 O23 2.005876 1_555
Cr12 O24 2.022443 1_565
Cr12 O26 2.030156 1_555
Cr12 O29 2.033993 1_555
Cr12 O28 2.042337 1_565
Cr12 O30 2.043768 1_565
Cr13 O27 1.912504 1_545
Cr13 O22 1.912504 1_455
Cr13 O30 1.993590 1_555
Cr13 O20 1.994207 1_445
Cr14 O0 1.997773 1_545
Cr14 O2 1.997773 1_455
Cr14 O3 2.014955 1_445
Cr14 O28 2.031690 1_554
Cr14 O31 2.055098 1_454
Cr14 O29 2.055098 1_544
Cr15 O29 1.923199 1_555
Cr15 O31 1.923199 1_555
Cr15 O9 1.931288 1_556
Cr15 O28 2.078765 1_555
