# generated using pymatgen
data_Ba2FeCoClF7
_symmetry_space_group_name_H-M   'P 1'
_cell_length_a   5.95809100
_cell_length_b   7.82624300
_cell_length_c   9.07469897
_cell_angle_alpha   73.24632326
_cell_angle_beta   90.00000000
_cell_angle_gamma   90.00000000
_symmetry_Int_Tables_number   1
_chemical_formula_structural   Ba2FeCoClF7
_chemical_formula_sum   'Ba4 Fe2 Co2 Cl2 F14'
_cell_volume   405.18694855
_cell_formula_units_Z   2
loop_
 _symmetry_equiv_pos_site_id
 _symmetry_equiv_pos_as_xyz
  1  'x, y, z'
loop_
 _atom_site_type_symbol
 _atom_site_label
 _atom_site_symmetry_multiplicity
 _atom_site_fract_x
 _atom_site_fract_y
 _atom_site_fract_z
 _atom_site_occupancy
  Ba  Ba0  1  0.25000000  0.66494500  0.58958300  1
  Ba  Ba1  1  0.75000000  0.33505500  0.41041700  1
  Ba  Ba2  1  0.25000000  0.69495600  0.07172100  1
  Ba  Ba3  1  0.75000000  0.30504400  0.92827900  1
  Fe  Fe0  1  0.25000000  0.17044100  0.73237800  1
  Fe  Fe1  1  0.75000000  0.82955900  0.26762200  1
  Co  Co0  1  0.25000000  0.18671100  0.17281900  1
  Co  Co1  1  0.75000000  0.81328900  0.82718100  1
  Cl  Cl0  1  0.25000000  0.11770300  0.46406200  1
  Cl  Cl1  1  0.75000000  0.88229700  0.53593800  1
  F  F0  1  0.25000000  0.25600100  0.93479400  1
  F  F1  1  0.75000000  0.74399900  0.06520600  1
  F  F2  1  0.00132900  0.98889700  0.82920500  1
  F  F3  1  0.50132900  0.01110300  0.17079500  1
  F  F4  1  0.99867100  0.01110300  0.17079500  1
  F  F5  1  0.49867100  0.98889700  0.82920500  1
  F  F6  1  0.00746700  0.37404000  0.15947600  1
  F  F7  1  0.50746700  0.62596000  0.84052400  1
  F  F8  1  0.99253300  0.62596000  0.84052400  1
  F  F9  1  0.49253300  0.37404000  0.15947600  1
  F  F10  1  0.99837800  0.35811000  0.65472900  1
  F  F11  1  0.49837800  0.64189000  0.34527100  1
  F  F12  1  0.00162200  0.64189000  0.34527100  1
  F  F13  1  0.50162200  0.35811000  0.65472900  1
loop_
_geom_bond_atom_site_label_1
_geom_bond_atom_site_label_2
_geom_bond_distance
_geom_bond_site_symmetry_2
Ba0 F7 2.689131 1_555
Ba0 F8 2.689131 1_455
Ba0 F11 2.714500 1_555
Ba0 F12 2.714500 1_555
Ba0 F13 2.746847 1_555
Ba0 F10 2.746847 1_455
Ba0 Cl0 3.395026 1_565
Ba0 Cl1 3.395270 1_555
Ba0 Cl1 3.395270 1_455
Ba1 F9 2.689131 1_555
Ba1 F6 2.689131 1_655
Ba1 F10 2.714500 1_555
Ba1 F13 2.714500 1_555
Ba1 F12 2.746847 1_655
Ba1 F11 2.746847 1_555
Ba1 Cl1 3.395026 1_545
Ba1 Cl0 3.395270 1_555
Ba1 Cl0 3.395270 1_655
Ba2 F7 2.774831 1_554
Ba2 F8 2.774831 1_454
Ba2 F9 2.806632 1_555
Ba2 F6 2.806632 1_555
Ba2 F12 2.816085 1_555
Ba2 F11 2.816085 1_555
Ba2 F1 3.002073 1_555
Ba2 F1 3.002073 1_455
Ba2 F5 3.067871 1_554
Ba2 F2 3.067871 1_554
Ba2 F3 3.233418 1_565
Ba2 F4 3.233418 1_465
Ba3 F6 2.774831 1_656
Ba3 F9 2.774831 1_556
Ba3 F7 2.806632 1_555
Ba3 F8 2.806632 1_555
Ba3 F10 2.816085 1_555
Ba3 F13 2.816085 1_555
Ba3 F0 3.002073 1_655
Ba3 F0 3.002073 1_555
Ba3 F3 3.067871 1_556
Ba3 F4 3.067871 1_556
Ba3 F2 3.233418 1_645
Ba3 F5 3.233418 1_545
Co0 F3 2.036188 1_555
Co0 F4 2.036188 1_455
Co0 F9 2.037115 1_555
Co0 F6 2.037115 1_555
Co0 F0 2.069880 1_554
Co1 F2 2.036188 1_655
Co1 F5 2.036188 1_555
Co1 F7 2.037115 1_555
Co1 F8 2.037115 1_555
Co1 F1 2.069880 1_556
Cl0 Co0 2.540456 1_555
Cl0 Fe0 2.584263 1_555
Cl1 Co1 2.540456 1_555
Cl1 Fe1 2.584263 1_555
F0 Fe0 2.128746 1_555
F1 Fe1 2.128746 1_555
F2 Fe0 2.065473 1_565
F3 Fe1 2.065473 1_545
F4 Fe1 2.065473 1_545
F5 Fe0 2.065473 1_565
F10 Fe0 2.074760 1_655
F11 Fe1 2.074760 1_555
F12 Fe1 2.074760 1_455
F13 Fe0 2.074760 1_555
