# generated using pymatgen
data_Li7Mn4CoO12
_symmetry_space_group_name_H-M   'P 1'
_cell_length_a   5.10017800
_cell_length_b   5.94765733
_cell_length_c   7.66743298
_cell_angle_alpha   79.81442436
_cell_angle_beta   77.58669998
_cell_angle_gamma   73.81050785
_symmetry_Int_Tables_number   1
_chemical_formula_structural   Li7Mn4CoO12
_chemical_formula_sum   'Li7 Mn4 Co1 O12'
_cell_volume   216.43877885
_cell_formula_units_Z   1
loop_
 _symmetry_equiv_pos_site_id
 _symmetry_equiv_pos_as_xyz
  1  'x, y, z'
loop_
 _atom_site_type_symbol
 _atom_site_label
 _atom_site_symmetry_multiplicity
 _atom_site_fract_x
 _atom_site_fract_y
 _atom_site_fract_z
 _atom_site_occupancy
  Li  Li0  1  0.50100300  0.83204100  0.17492200  1
  Li  Li1  1  0.49435400  0.32697200  0.17395900  1
  Li  Li2  1  0.49996700  0.49600400  0.49592700  1
  Li  Li3  1  0.50403100  0.01158800  0.49387100  1
  Li  Li4  1  0.49758700  0.17108200  0.82919000  1
  Li  Li5  1  0.50359200  0.66257800  0.83079500  1
  Li  Li6  1  0.99867000  0.16702300  0.33624500  1
  Mn  Mn0  1  0.99980800  0.00304700  0.00064800  1
  Mn  Mn1  1  0.00441200  0.66096700  0.33398200  1
  Mn  Mn2  1  0.99992000  0.49452300  0.00309400  1
  Mn  Mn3  1  0.99751500  0.83929700  0.66316800  1
  Co  Co0  1  0.99736600  0.33191200  0.65961100  1
  O  O0  1  0.22669700  0.18461200  0.06644200  1
  O  O1  1  0.23087100  0.64727400  0.09628300  1
  O  O2  1  0.22374400  0.82300700  0.42746100  1
  O  O3  1  0.23279800  0.35866900  0.41508100  1
  O  O4  1  0.21735700  0.52169400  0.75908900  1
  O  O5  1  0.22733100  0.98324700  0.75717500  1
  O  O6  1  0.77912800  0.50950400  0.24161500  1
  O  O7  1  0.78127000  0.97454300  0.23964400  1
  O  O8  1  0.76594700  0.14138000  0.59735500  1
  O  O9  1  0.77057700  0.68593900  0.57000600  1
  O  O10  1  0.78405900  0.81857300  0.91250100  1
  O  O11  1  0.76199400  0.35452500  0.92193600  1
loop_
_geom_bond_atom_site_label_1
_geom_bond_atom_site_label_2
_geom_bond_distance
_geom_bond_site_symmetry_2
Li0 O7 2.033991 1_555
Li0 O6 2.097890 1_555
Li0 O2 2.140149 1_555
Li0 O10 2.209691 1_554
Li0 O1 2.214741 1_555
Li0 O0 2.300835 1_565
Li1 O3 2.038577 1_555
Li1 O1 2.074850 1_555
Li1 O11 2.122001 1_554
Li1 O0 2.152958 1_555
Li1 O6 2.226999 1_555
Li1 O7 2.240929 1_545
Li2 O3 2.017676 1_555
Li2 O2 2.114682 1_555
Li2 O6 2.156516 1_555
Li2 O4 2.215436 1_555
Li2 O9 2.221932 1_555
Li2 O8 2.274117 1_555
Li3 O8 2.063309 1_555
Li3 O9 2.100777 1_545
Li3 O7 2.154232 1_545
Li3 O3 2.205860 1_555
Li3 O5 2.209793 1_545
Li3 O2 2.229310 1_545
Li4 O8 1.998635 1_555
Li4 O0 2.033150 1_556
Li4 O5 2.203836 1_545
Li4 O4 2.225317 1_555
Li4 O11 2.240927 1_555
Li4 O10 2.271099 1_545
Li5 O11 2.044203 1_555
Li5 O4 2.079830 1_555
Li5 O5 2.098587 1_555
Li5 O10 2.151821 1_555
Li5 O9 2.169893 1_555
Li5 O1 2.207818 1_556
Li6 O3 2.098445 1_655
Li6 O8 2.100374 1_555
Li6 O7 2.109352 1_545
Li6 O6 2.117574 1_555
Li6 O2 2.126656 1_645
Li6 O0 2.144747 1_655
Mn0 O7 1.935570 1_545
Mn0 O0 1.974884 1_655
Mn0 O5 1.978794 1_644
Mn0 O10 2.031409 1_544
Mn0 O11 2.158710 1_554
Mn0 O1 2.199137 1_645
Mn1 O3 1.929836 1_555
Mn1 O1 1.938382 1_555
Mn1 O6 1.945751 1_455
Mn1 O9 1.946219 1_455
Mn1 O2 1.970806 1_555
Mn1 O7 1.997494 1_455
Mn2 O11 1.903777 1_554
Mn2 O0 1.925427 1_655
Mn2 O6 1.933119 1_555
Mn2 O4 1.963970 1_654
Mn2 O1 1.977755 1_655
Mn2 O10 2.020209 1_554
Mn3 O8 1.905223 1_565
Mn3 O2 1.926129 1_655
Mn3 O5 1.940992 1_655
Mn3 O9 1.963775 1_555
Mn3 O10 1.987928 1_555
Mn3 O4 2.012085 1_655
Co0 O3 2.003889 1_655
Co0 O8 2.021007 1_555
Co0 O11 2.114780 1_555
Co0 O4 2.119758 1_655
Co0 O5 2.169766 1_645
Co0 O9 2.171514 1_555
