# generated using pymatgen
data_Li4MnCo3O8
_symmetry_space_group_name_H-M   'P 1'
_cell_length_a   5.92628800
_cell_length_b   5.02865800
_cell_length_c   5.14277908
_cell_angle_alpha   71.18044221
_cell_angle_beta   90.00000000
_cell_angle_gamma   90.00000000
_symmetry_Int_Tables_number   1
_chemical_formula_structural   Li4MnCo3O8
_chemical_formula_sum   'Li4 Mn1 Co3 O8'
_cell_volume   145.06790083
_cell_formula_units_Z   1
loop_
 _symmetry_equiv_pos_site_id
 _symmetry_equiv_pos_as_xyz
  1  'x, y, z'
loop_
 _atom_site_type_symbol
 _atom_site_label
 _atom_site_symmetry_multiplicity
 _atom_site_fract_x
 _atom_site_fract_y
 _atom_site_fract_z
 _atom_site_occupancy
  Li  Li0  1  0.24772200  0.50000000  0.50000000  1
  Li  Li1  1  0.00000000  0.00000000  0.50000000  1
  Li  Li2  1  0.75227800  0.50000000  0.50000000  1
  Li  Li3  1  0.50000000  0.00000000  0.50000000  1
  Mn  Mn0  1  0.50000000  0.50000000  0.00000000  1
  Co  Co0  1  0.24772700  0.00000000  0.00000000  1
  Co  Co1  1  0.00000000  0.50000000  0.00000000  1
  Co  Co2  1  0.75227300  0.00000000  0.00000000  1
  O  O0  1  0.26378600  0.73502500  0.77008300  1
  O  O1  1  0.00000000  0.24748300  0.76877200  1
  O  O2  1  0.73621400  0.73502500  0.77008300  1
  O  O3  1  0.50000000  0.25607000  0.77614500  1
  O  O4  1  0.26378600  0.26497500  0.22991700  1
  O  O5  1  0.00000000  0.75251700  0.23122800  1
  O  O6  1  0.73621400  0.26497500  0.22991700  1
  O  O7  1  0.50000000  0.74393000  0.22385500  1
loop_
_geom_bond_atom_site_label_1
_geom_bond_atom_site_label_2
_geom_bond_distance
_geom_bond_site_symmetry_2
Li0 O0 2.096240 1_555
Li0 O4 2.096240 1_555
Li0 O5 2.132099 1_555
Li0 O1 2.132099 1_555
Li0 O7 2.152397 1_555
Li0 O3 2.152397 1_555
Li1 O1 2.137571 1_555
Li1 O5 2.137571 1_545
Li1 O4 2.225865 1_555
Li1 O0 2.225865 1_545
Li1 O6 2.225865 1_455
Li1 O2 2.225865 1_445
Li2 O2 2.096240 1_555
Li2 O6 2.096240 1_555
Li2 O5 2.132099 1_655
Li2 O1 2.132099 1_655
Li2 O7 2.152397 1_555
Li2 O3 2.152397 1_555
Li3 O6 2.114308 1_555
Li3 O2 2.114308 1_545
Li3 O4 2.114308 1_555
Li3 O0 2.114308 1_545
Li3 O7 2.203366 1_545
Li3 O3 2.203366 1_555
Mn0 O3 1.934188 1_554
Mn0 O7 1.934188 1_555
Mn0 O2 1.962889 1_554
Mn0 O6 1.962889 1_555
Mn0 O0 1.962889 1_554
Mn0 O4 1.962889 1_555
Co0 O1 2.040442 1_554
Co0 O5 2.040442 1_545
Co0 O4 2.049176 1_555
Co0 O0 2.049176 1_544
Co0 O7 2.064511 1_545
Co0 O3 2.064511 1_554
Co1 O5 2.000191 1_555
Co1 O1 2.000191 1_554
Co1 O0 2.082573 1_554
Co1 O4 2.082573 1_555
Co1 O2 2.082573 1_454
Co1 O6 2.082573 1_455
Co2 O1 2.040442 1_654
Co2 O5 2.040442 1_645
Co2 O6 2.049176 1_555
Co2 O2 2.049176 1_544
Co2 O7 2.064511 1_545
Co2 O3 2.064511 1_554
