# generated using pymatgen
data_NbCr3(AgS4)2
_symmetry_space_group_name_H-M   'P 1'
_cell_length_a   11.22960000
_cell_length_b   3.45520300
_cell_length_c   12.95159600
_cell_angle_alpha   90.00000000
_cell_angle_beta   90.00000000
_cell_angle_gamma   90.00000000
_symmetry_Int_Tables_number   1
_chemical_formula_structural   NbCr3(AgS4)2
_chemical_formula_sum   'Nb2 Cr6 Ag4 S16'
_cell_volume   502.52901721
_cell_formula_units_Z   2
loop_
 _symmetry_equiv_pos_site_id
 _symmetry_equiv_pos_as_xyz
  1  'x, y, z'
loop_
 _atom_site_type_symbol
 _atom_site_label
 _atom_site_symmetry_multiplicity
 _atom_site_fract_x
 _atom_site_fract_y
 _atom_site_fract_z
 _atom_site_occupancy
  Nb  Nb0  1  0.90631600  0.75000000  0.40125400  1
  Nb  Nb1  1  0.59368400  0.25000000  0.90125400  1
  Cr  Cr0  1  0.06549300  0.25000000  0.10736800  1
  Cr  Cr1  1  0.95427200  0.75000000  0.88726200  1
  Cr  Cr2  1  0.43450700  0.75000000  0.60736800  1
  Cr  Cr3  1  0.54572800  0.25000000  0.38726200  1
  Cr  Cr4  1  0.08577200  0.25000000  0.59808800  1
  Cr  Cr5  1  0.41422800  0.75000000  0.09808800  1
  Ag  Ag0  1  0.24857600  0.25000000  0.32346000  1
  Ag  Ag1  1  0.74150800  0.75000000  0.67076700  1
  Ag  Ag2  1  0.25142400  0.75000000  0.82346000  1
  Ag  Ag3  1  0.75849200  0.25000000  0.17076700  1
  S  S0  1  0.03779300  0.75000000  0.71464600  1
  S  S1  1  0.97767600  0.25000000  0.28235000  1
  S  S2  1  0.46220700  0.25000000  0.21464600  1
  S  S3  1  0.52232400  0.75000000  0.78235000  1
  S  S4  1  0.09001100  0.25000000  0.92844200  1
  S  S5  1  0.92236300  0.75000000  0.06807000  1
  S  S6  1  0.40998900  0.75000000  0.42844200  1
  S  S7  1  0.57763700  0.25000000  0.56807000  1
  S  S8  1  0.11657400  0.75000000  0.47291700  1
  S  S9  1  0.87993000  0.25000000  0.54008400  1
  S  S10  1  0.38342600  0.25000000  0.97291700  1
  S  S11  1  0.62007000  0.75000000  0.04008400  1
  S  S12  1  0.20392200  0.75000000  0.15103600  1
  S  S13  1  0.80373100  0.25000000  0.85425500  1
  S  S14  1  0.29607800  0.25000000  0.65103600  1
  S  S15  1  0.69626900  0.75000000  0.35425500  1
loop_
_geom_bond_atom_site_label_1
_geom_bond_atom_site_label_2
_geom_bond_distance
_geom_bond_site_symmetry_2
Nb0 S15 2.436022 1_555
Nb0 S1 2.449153 1_555
Nb0 S1 2.449153 1_565
Nb0 S9 2.511067 1_555
Nb0 S9 2.511067 1_565
Nb0 S8 2.536990 1_655
Nb1 S13 2.436022 1_555
Nb1 S3 2.449153 1_545
Nb1 S3 2.449153 1_555
Nb1 S11 2.511067 1_556
Nb1 S11 2.511067 1_546
Nb1 S10 2.536990 1_555
Cr0 S4 2.333676 1_554
Cr0 S12 2.391852 1_545
Cr0 S12 2.391852 1_555
Cr0 S5 2.413928 1_455
Cr0 S5 2.413928 1_445
Cr0 S1 2.471556 1_455
Cr1 S4 2.364855 1_665
Cr1 S4 2.364855 1_655
Cr1 S5 2.369008 1_556
Cr1 S0 2.424420 1_655
Cr1 S13 2.454628 1_565
Cr1 S13 2.454628 1_555
Cr2 S6 2.333676 1_555
Cr2 S14 2.391852 1_565
Cr2 S14 2.391852 1_555
Cr2 S7 2.413928 1_565
Cr2 S7 2.413928 1_555
Cr2 S3 2.471556 1_555
Cr3 S6 2.364855 1_555
Cr3 S6 2.364855 1_545
Cr3 S7 2.369008 1_555
Cr3 S2 2.424420 1_555
Cr3 S15 2.454628 1_545
Cr3 S15 2.454628 1_555
Cr4 S0 2.356655 1_555
Cr4 S0 2.356655 1_545
Cr4 S8 2.394248 1_555
Cr4 S8 2.394248 1_545
Cr4 S9 2.430537 1_455
Cr4 S14 2.459201 1_555
Cr5 S2 2.356655 1_565
Cr5 S2 2.356655 1_555
Cr5 S10 2.394248 1_554
Cr5 S10 2.394248 1_564
Cr5 S11 2.430537 1_555
Cr5 S12 2.459201 1_555
Ag0 S2 2.782324 1_555
Ag0 S6 2.849365 1_545
Ag0 S6 2.849365 1_555
Ag0 S12 2.867592 1_545
Ag0 S12 2.867592 1_555
Ag0 S8 2.988121 1_555
Ag0 S8 2.988121 1_545
Ag0 S1 3.088342 1_455
Ag1 S7 2.853087 1_565
Ag1 S7 2.853087 1_555
Ag1 S3 2.854256 1_555
Ag1 S9 2.874992 1_555
Ag1 S9 2.874992 1_565
Ag1 S13 3.020003 1_565
Ag1 S13 3.020003 1_555
Ag2 S0 2.782324 1_555
Ag2 S4 2.849365 1_555
Ag2 S4 2.849365 1_565
Ag2 S14 2.867592 1_565
Ag2 S14 2.867592 1_555
Ag2 S10 2.988121 1_555
Ag2 S10 2.988121 1_565
Ag2 S3 3.088342 1_555
Ag3 S5 2.853087 1_555
Ag3 S5 2.853087 1_545
Ag3 S1 2.854256 1_555
Ag3 S11 2.874992 1_555
Ag3 S11 2.874992 1_545
Ag3 S15 3.020003 1_555
Ag3 S15 3.020003 1_545
