# generated using pymatgen
data_Y5Pt4
_symmetry_space_group_name_H-M   'P 1'
_cell_length_a   7.50707276
_cell_length_b   7.57967538
_cell_length_c   14.60915422
_cell_angle_alpha   90.00000000
_cell_angle_beta   90.00000000
_cell_angle_gamma   90.00000000
_symmetry_Int_Tables_number   1
_chemical_formula_structural   Y5Pt4
_chemical_formula_sum   'Y20 Pt16'
_cell_volume   831.27803466
_cell_formula_units_Z   4
loop_
 _symmetry_equiv_pos_site_id
 _symmetry_equiv_pos_as_xyz
  1  'x, y, z'
loop_
 _atom_site_type_symbol
 _atom_site_label
 _atom_site_symmetry_multiplicity
 _atom_site_fract_x
 _atom_site_fract_y
 _atom_site_fract_z
 _atom_site_occupancy
  Y  Y0  1  0.68185475  0.98818941  0.75000000  1
  Y  Y1  1  0.18185475  0.51181059  0.75000000  1
  Y  Y2  1  0.81814525  0.48818941  0.25000000  1
  Y  Y3  1  0.31814525  0.01181059  0.25000000  1
  Y  Y4  1  0.65622760  0.83208068  0.37820397  1
  Y  Y5  1  0.15622760  0.66791932  0.12179603  1
  Y  Y6  1  0.84377240  0.33208068  0.62179603  1
  Y  Y7  1  0.34377240  0.16791932  0.87820397  1
  Y  Y8  1  0.34377240  0.16791932  0.62179603  1
  Y  Y9  1  0.84377240  0.33208068  0.87820397  1
  Y  Y10  1  0.15622760  0.66791932  0.37820397  1
  Y  Y11  1  0.65622760  0.83208068  0.12179603  1
  Y  Y12  1  0.99826846  0.81954365  0.59353724  1
  Y  Y13  1  0.49826846  0.68045635  0.90646276  1
  Y  Y14  1  0.50173154  0.31954365  0.40646276  1
  Y  Y15  1  0.00173154  0.18045635  0.09353724  1
  Y  Y16  1  0.00173154  0.18045635  0.40646276  1
  Y  Y17  1  0.50173154  0.31954365  0.09353724  1
  Y  Y18  1  0.49826846  0.68045635  0.59353724  1
  Y  Y19  1  0.99826846  0.81954365  0.90646276  1
  Pt  Pt0  1  0.81350661  0.64015112  0.75000000  1
  Pt  Pt1  1  0.31350661  0.85984888  0.75000000  1
  Pt  Pt2  1  0.68649339  0.14015112  0.25000000  1
  Pt  Pt3  1  0.18649339  0.35984888  0.25000000  1
  Pt  Pt4  1  0.54816326  0.38799394  0.75000000  1
  Pt  Pt5  1  0.04816326  0.11200606  0.75000000  1
  Pt  Pt6  1  0.95183674  0.88799394  0.25000000  1
  Pt  Pt7  1  0.45183674  0.61200606  0.25000000  1
  Pt  Pt8  1  0.81721298  0.53182278  0.45836200  1
  Pt  Pt9  1  0.31721298  0.96817722  0.04163700  1
  Pt  Pt10  1  0.68278702  0.03182278  0.54163800  1
  Pt  Pt11  1  0.18278702  0.46817722  0.95836200  1
  Pt  Pt12  1  0.18278702  0.46817722  0.54163800  1
  Pt  Pt13  1  0.68278702  0.03182278  0.95836200  1
  Pt  Pt14  1  0.31721298  0.96817722  0.45836200  1
  Pt  Pt15  1  0.81721298  0.53182278  0.04163700  1
loop_
_geom_bond_atom_site_label_1
_geom_bond_atom_site_label_2
_geom_bond_distance
_geom_bond_site_symmetry_2
Pt0 Pt4 2.760584 1_555
Pt0 Y0 2.817075 1_555
Pt0 Y1 2.931334 1_655
Pt0 Y12 2.999590 1_555
Pt0 Y19 2.999590 1_555
Pt0 Y6 3.002023 1_555
Pt0 Y9 3.002023 1_555
Pt0 Y18 3.304324 1_555
Pt0 Y13 3.304324 1_555
Pt1 Pt5 2.760584 1_565
Pt1 Y1 2.817075 1_555
Pt1 Y0 2.931334 1_555
Pt1 Y13 2.999590 1_555
Pt1 Y18 2.999590 1_555
Pt1 Y8 3.002023 1_565
Pt1 Y7 3.002023 1_565
Pt1 Y12 3.304324 1_455
Pt1 Y19 3.304324 1_455
Pt2 Pt6 2.760584 1_545
Pt2 Y2 2.817075 1_555
Pt2 Y3 2.931334 1_555
Pt2 Y14 2.999590 1_555
Pt2 Y17 2.999590 1_555
Pt2 Y11 3.002023 1_545
Pt2 Y4 3.002023 1_545
Pt2 Y15 3.304324 1_655
Pt2 Y16 3.304324 1_655
Pt3 Pt7 2.760584 1_555
Pt3 Y3 2.817075 1_555
Pt3 Y2 2.931334 1_455
Pt3 Y15 2.999590 1_555
Pt3 Y16 2.999590 1_555
Pt3 Y5 3.002023 1_555
Pt3 Y10 3.002023 1_555
Pt3 Y17 3.304324 1_555
Pt3 Y14 3.304324 1_555
Pt4 Y1 2.905639 1_555
Pt4 Y6 2.934659 1_555
Pt4 Y9 2.934659 1_555
Pt4 Y8 2.940204 1_555
Pt4 Y7 2.940204 1_555
Pt4 Y0 3.192261 1_545
Pt4 Y13 3.206119 1_555
Pt4 Y18 3.206119 1_555
Pt5 Y0 2.905639 1_445
Pt5 Y8 2.934659 1_555
Pt5 Y7 2.934659 1_555
Pt5 Y6 2.940204 1_455
Pt5 Y9 2.940204 1_455
Pt5 Y1 3.192261 1_555
Pt5 Y19 3.206119 1_445
Pt5 Y12 3.206119 1_445
Pt6 Y3 2.905639 1_665
Pt6 Y4 2.934659 1_555
Pt6 Y11 2.934659 1_555
Pt6 Y10 2.940204 1_655
Pt6 Y5 2.940204 1_655
Pt6 Y2 3.192261 1_555
Pt6 Y15 3.206119 1_665
Pt6 Y16 3.206119 1_665
Pt7 Y2 2.905639 1_555
Pt7 Y5 2.934659 1_555
Pt7 Y10 2.934659 1_555
Pt7 Y4 2.940204 1_555
Pt7 Y11 2.940204 1_555
Pt7 Y3 3.192261 1_565
Pt7 Y17 3.206119 1_555
Pt7 Y14 3.206119 1_555
Pt8 Y4 2.830443 1_555
Pt8 Y6 2.834199 1_555
Pt8 Y14 2.961895 1_555
Pt8 Y10 2.985386 1_655
Pt8 Y2 3.061914 1_555
Pt8 Y16 3.096208 1_655
Pt8 Y12 3.240873 1_555
Pt8 Y18 3.301802 1_555
Pt9 Y5 2.830449 1_555
Pt9 Y7 2.834186 1_564
Pt9 Y15 2.961899 1_565
Pt9 Y11 2.985392 1_555
Pt9 Y3 3.061929 1_565
Pt9 Y17 3.096211 1_565
Pt9 Y13 3.240864 1_554
Pt9 Y19 3.301793 1_454
Pt10 Y6 2.830443 1_555
Pt10 Y4 2.834199 1_545
Pt10 Y12 2.961895 1_545
Pt10 Y8 2.985386 1_555
Pt10 Y0 3.061914 1_545
Pt10 Y18 3.096208 1_545
Pt10 Y14 3.240873 1_555
Pt10 Y16 3.301802 1_655
Pt11 Y7 2.830443 1_555
Pt11 Y5 2.834199 1_556
Pt11 Y13 2.961895 1_555
Pt11 Y9 2.985386 1_455
Pt11 Y1 3.061914 1_555
Pt11 Y19 3.096208 1_455
Pt11 Y15 3.240873 1_556
Pt11 Y17 3.301802 1_556
Pt12 Y8 2.830443 1_555
Pt12 Y10 2.834199 1_555
Pt12 Y18 2.961895 1_555
Pt12 Y6 2.985386 1_455
Pt12 Y1 3.061914 1_555
Pt12 Y12 3.096208 1_455
Pt12 Y16 3.240873 1_555
Pt12 Y14 3.301802 1_555
Pt13 Y9 2.830443 1_555
Pt13 Y11 2.834199 1_546
Pt13 Y19 2.961895 1_545
Pt13 Y7 2.985386 1_555
Pt13 Y0 3.061914 1_545
Pt13 Y13 3.096208 1_545
Pt13 Y17 3.240873 1_556
Pt13 Y15 3.301802 1_656
Pt14 Y10 2.830443 1_555
Pt14 Y8 2.834199 1_565
Pt14 Y16 2.961895 1_565
Pt14 Y4 2.985386 1_555
Pt14 Y3 3.061914 1_565
Pt14 Y14 3.096208 1_565
Pt14 Y18 3.240873 1_555
Pt14 Y12 3.301802 1_455
Pt15 Y11 2.830449 1_555
Pt15 Y9 2.834186 1_554
Pt15 Y17 2.961899 1_555
Pt15 Y5 2.985392 1_655
Pt15 Y2 3.061929 1_555
Pt15 Y15 3.096211 1_655
Pt15 Y19 3.240864 1_554
Pt15 Y13 3.301793 1_554
