# generated using pymatgen
data_Fe2CuO4
_symmetry_space_group_name_H-M   'P 1'
_cell_length_a   6.02046483
_cell_length_b   6.02001023
_cell_length_c   6.02039288
_cell_angle_alpha   90.26600252
_cell_angle_beta   60.15591166
_cell_angle_gamma   120.45373961
_symmetry_Int_Tables_number   1
_chemical_formula_structural   Fe2CuO4
_chemical_formula_sum   'Fe4 Cu2 O8'
_cell_volume   153.94746329
_cell_formula_units_Z   2
loop_
 _symmetry_equiv_pos_site_id
 _symmetry_equiv_pos_as_xyz
  1  'x, y, z'
loop_
 _atom_site_type_symbol
 _atom_site_label
 _atom_site_symmetry_multiplicity
 _atom_site_fract_x
 _atom_site_fract_y
 _atom_site_fract_z
 _atom_site_occupancy
  Fe  Fe0  1  0.74998600  0.37501100  0.87499600  1
  Fe  Fe1  1  0.25001000  0.37501100  0.37499800  1
  Fe  Fe2  1  0.75002100  0.37501600  0.37499300  1
  Fe  Fe3  1  0.24999200  0.87499100  0.37498000  1
  Cu  Cu0  1  0.99994900  0.00345000  0.99656600  1
  Cu  Cu1  1  0.50002800  0.74669500  0.75324100  1
  O  O0  1  0.77137000  0.61056600  0.61810700  1
  O  O1  1  0.23150000  0.61588600  0.61576100  1
  O  O2  1  0.76859000  0.15294700  0.61556500  1
  O  O3  1  0.26871000  0.13425400  0.13432100  1
  O  O4  1  0.72850200  0.13939100  0.13203500  1
  O  O5  1  0.22852100  0.61044900  0.16077400  1
  O  O6  1  0.27162600  0.13955000  0.58912800  1
  O  O7  1  0.73119500  0.59678300  0.13453500  1
loop_
_geom_bond_atom_site_label_1
_geom_bond_atom_site_label_2
_geom_bond_distance
_geom_bond_site_symmetry_2
Fe0 O0 2.014061 1_555
Fe0 O4 2.014587 1_556
Fe0 O7 2.048047 1_556
Fe0 O3 2.048243 1_556
Fe0 O2 2.048754 1_555
Fe0 O1 2.049175 1_655
Fe1 O5 2.014414 1_555
Fe1 O6 2.014700 1_555
Fe1 O7 2.047887 1_555
Fe1 O3 2.048507 1_555
Fe1 O2 2.048819 1_455
Fe1 O1 2.049307 1_555
Fe2 O6 2.037045 1_555
Fe2 O5 2.037487 1_655
Fe2 O4 2.037494 1_555
Fe2 O0 2.037828 1_555
Fe2 O7 2.055604 1_555
Fe2 O2 2.056209 1_555
Fe3 O4 2.037589 1_565
Fe3 O6 2.038003 1_565
Fe3 O0 2.038065 1_455
Fe3 O5 2.038175 1_555
Fe3 O3 2.056232 1_565
Fe3 O1 2.056960 1_555
Cu0 O3 1.990972 1_656
Cu0 O7 1.991788 1_546
Cu0 O4 2.007130 1_556
Cu0 O6 2.007614 1_655
Cu1 O1 1.988466 1_555
Cu1 O2 1.989730 1_565
Cu1 O0 2.007541 1_555
Cu1 O5 2.008084 1_556
