# generated using pymatgen
data_La(IO3)3
_symmetry_space_group_name_H-M   'P 1'
_cell_length_a   7.14023200
_cell_length_b   8.20679100
_cell_length_c   6.69585900
_cell_angle_alpha   90.00000000
_cell_angle_beta   90.00000000
_cell_angle_gamma   90.00000000
_symmetry_Int_Tables_number   1
_chemical_formula_structural   La(IO3)3
_chemical_formula_sum   'La2 I6 O18'
_cell_volume   392.36656855
_cell_formula_units_Z   2
loop_
 _symmetry_equiv_pos_site_id
 _symmetry_equiv_pos_as_xyz
  1  'x, y, z'
loop_
 _atom_site_type_symbol
 _atom_site_label
 _atom_site_symmetry_multiplicity
 _atom_site_fract_x
 _atom_site_fract_y
 _atom_site_fract_z
 _atom_site_occupancy
  La  La0  1  0.50000000  0.00000000  0.60765800  1
  La  La1  1  0.00000000  0.50000000  0.39234200  1
  I  I0  1  0.00000000  0.79398000  0.85475100  1
  I  I1  1  0.00000000  0.20602000  0.85475100  1
  I  I2  1  0.50000000  0.70602000  0.14524900  1
  I  I3  1  0.50000000  0.29398000  0.14524900  1
  I  I4  1  0.50000000  0.50000000  0.61084600  1
  I  I5  1  0.00000000  0.00000000  0.38915400  1
  O  O0  1  0.82589100  0.85503600  0.52193400  1
  O  O1  1  0.82589100  0.14496400  0.52193400  1
  O  O2  1  0.17410900  0.85503600  0.52193400  1
  O  O3  1  0.17410900  0.14496400  0.52193400  1
  O  O4  1  0.67410900  0.64496400  0.47806600  1
  O  O5  1  0.67410900  0.35503600  0.47806600  1
  O  O6  1  0.32589100  0.64496400  0.47806600  1
  O  O7  1  0.32589100  0.35503600  0.47806600  1
  O  O8  1  0.50000000  0.00000000  0.26351200  1
  O  O9  1  0.00000000  0.50000000  0.73648800  1
  O  O10  1  0.17374300  0.00000000  0.89789500  1
  O  O11  1  0.82625700  0.00000000  0.89789500  1
  O  O12  1  0.32625700  0.50000000  0.10210500  1
  O  O13  1  0.67374300  0.50000000  0.10210500  1
  O  O14  1  0.50000000  0.76519900  0.87608300  1
  O  O15  1  0.50000000  0.23480100  0.87608300  1
  O  O16  1  0.00000000  0.73480100  0.12391700  1
  O  O17  1  0.00000000  0.26519900  0.12391700  1
loop_
_geom_bond_atom_site_label_1
_geom_bond_atom_site_label_2
_geom_bond_distance
_geom_bond_site_symmetry_2
La0 O8 2.304353 1_555
La0 O15 2.635072 1_555
La0 O14 2.635072 1_545
La0 O1 2.675718 1_555
La0 O0 2.675718 1_545
La0 O3 2.675718 1_555
La0 O2 2.675718 1_545
La1 O9 2.304353 1_555
La1 O16 2.635072 1_555
La1 O17 2.635072 1_555
La1 O6 2.675718 1_555
La1 O4 2.675718 1_455
La1 O7 2.675718 1_555
La1 O5 2.675718 1_455
I0 O16 1.866588 1_556
I0 O10 2.116870 1_565
I0 O11 2.116870 1_465
I0 O9 2.539263 1_555
I0 O2 2.600531 1_555
I0 O0 2.600531 1_455
I1 O17 1.866588 1_556
I1 O10 2.116870 1_555
I1 O11 2.116870 1_455
I1 O9 2.539263 1_555
I1 O3 2.600531 1_555
I1 O1 2.600531 1_455
I2 O14 1.866588 1_554
I2 O13 2.116870 1_555
I2 O12 2.116870 1_555
I2 O8 2.539263 1_565
I2 O6 2.600531 1_555
I2 O4 2.600531 1_555
I3 O15 1.866588 1_554
I3 O13 2.116870 1_555
I3 O12 2.116870 1_555
I3 O8 2.539263 1_555
I3 O5 2.600531 1_555
I3 O7 2.600531 1_555
I4 O4 1.936830 1_555
I4 O6 1.936830 1_555
I4 O5 1.936830 1_555
I4 O7 1.936830 1_555
I5 O3 1.936830 1_555
I5 O1 1.936830 1_455
I5 O2 1.936830 1_545
I5 O0 1.936830 1_445
