# generated using pymatgen
data_BaCaTi4O12
_symmetry_space_group_name_H-M   'P 1'
_cell_length_a   5.54720716
_cell_length_b   5.54720716
_cell_length_c   7.82986399
_cell_angle_alpha   90.00000000
_cell_angle_beta   90.00000000
_cell_angle_gamma   90.00000000
_symmetry_Int_Tables_number   1
_chemical_formula_structural   BaCaTi4O12
_chemical_formula_sum   'Ba1 Ca1 Ti4 O12'
_cell_volume   240.93671674
_cell_formula_units_Z   1
loop_
 _symmetry_equiv_pos_site_id
 _symmetry_equiv_pos_as_xyz
  1  'x, y, z'
loop_
 _atom_site_type_symbol
 _atom_site_label
 _atom_site_symmetry_multiplicity
 _atom_site_fract_x
 _atom_site_fract_y
 _atom_site_fract_z
 _atom_site_occupancy
  Ba  Ba0  1  0.50000000  0.50000000  -0.00000000  1
  Ca  Ca0  1  0.00000000  0.00000000  0.50000000  1
  Ti  Ti0  1  0.00000000  0.50000000  0.74695854  1
  Ti  Ti1  1  0.00000000  0.50000000  0.25304146  1
  Ti  Ti2  1  0.50000000  -0.00000000  0.74695854  1
  Ti  Ti3  1  0.50000000  -0.00000000  0.25304146  1
  O  O0  1  0.24537318  0.24537318  0.74214853  1
  O  O1  1  0.24537318  0.24537318  0.25785147  1
  O  O2  1  0.75462682  0.75462682  0.74214853  1
  O  O3  1  0.75462682  0.75462682  0.25785147  1
  O  O4  1  0.75462682  0.24537318  0.74214853  1
  O  O5  1  0.75462682  0.24537318  0.25785147  1
  O  O6  1  0.24537318  0.75462682  0.74214853  1
  O  O7  1  0.24537318  0.75462682  0.25785147  1
  O  O8  1  0.00000000  0.50000000  0.50000000  1
  O  O9  1  0.00000000  0.50000000  -0.00000000  1
  O  O10  1  0.50000000  0.00000000  0.50000000  1
  O  O11  1  0.50000000  -0.00000000  -0.00000000  1
loop_
_geom_bond_atom_site_label_1
_geom_bond_atom_site_label_2
_geom_bond_distance
_geom_bond_site_symmetry_2
Ba0 O11 2.773604 1_555
Ba0 O11 2.773604 1_565
Ba0 O9 2.773604 1_555
Ba0 O9 2.773604 1_655
Ba0 O0 2.840116 1_554
Ba0 O4 2.840116 1_554
Ba0 O6 2.840116 1_554
Ba0 O2 2.840116 1_554
Ba0 O7 2.840116 1_555
Ba0 O5 2.840116 1_555
Ba0 O3 2.840116 1_555
Ba0 O1 2.840116 1_555
Ca0 O3 2.701881 1_445
Ca0 O5 2.701881 1_455
Ca0 O6 2.701881 1_545
Ca0 O7 2.701881 1_545
Ca0 O2 2.701881 1_445
Ca0 O4 2.701881 1_455
Ca0 O1 2.701881 1_555
Ca0 O0 2.701881 1_555
Ca0 O8 2.773604 1_555
Ca0 O8 2.773604 1_545
Ca0 O10 2.773604 1_455
Ca0 O10 2.773604 1_555
O0 Ti2 1.961931 1_555
O0 Ti0 1.961931 1_555
O1 Ti3 1.961931 1_555
O1 Ti1 1.961931 1_555
O2 Ti0 1.961931 1_655
O2 Ti2 1.961931 1_565
O3 Ti3 1.961931 1_565
O3 Ti1 1.961931 1_655
O4 Ti0 1.961931 1_655
O4 Ti2 1.961931 1_555
O5 Ti3 1.961931 1_555
O5 Ti1 1.961931 1_655
O6 Ti2 1.961931 1_565
O6 Ti0 1.961931 1_555
O7 Ti3 1.961931 1_565
O7 Ti1 1.961931 1_555
O8 Ti0 1.933652 1_555
O8 Ti1 1.933652 1_555
O9 Ti1 1.981280 1_555
O9 Ti0 1.981280 1_554
O10 Ti2 1.933652 1_555
O10 Ti3 1.933652 1_555
O11 Ti3 1.981280 1_555
O11 Ti2 1.981280 1_554
