# generated using pymatgen
data_Ba4Tl4Cu2O11
_symmetry_space_group_name_H-M   'P 1'
_cell_length_a   5.56377100
_cell_length_b   5.62846798
_cell_length_c   12.18740049
_cell_angle_alpha   90.40885893
_cell_angle_beta   76.80540099
_cell_angle_gamma   90.00000000
_symmetry_Int_Tables_number   1
_chemical_formula_structural   Ba4Tl4Cu2O11
_chemical_formula_sum   'Ba4 Tl4 Cu2 O11'
_cell_volume   371.56912366
_cell_formula_units_Z   1
loop_
 _symmetry_equiv_pos_site_id
 _symmetry_equiv_pos_as_xyz
  1  'x, y, z'
loop_
 _atom_site_type_symbol
 _atom_site_label
 _atom_site_symmetry_multiplicity
 _atom_site_fract_x
 _atom_site_fract_y
 _atom_site_fract_z
 _atom_site_occupancy
  Ba  Ba0  1  0.91621000  0.50045300  0.16758000  1
  Ba  Ba1  1  0.07760400  0.49835400  0.84479100  1
  Ba  Ba2  1  0.58079000  0.99878300  0.83842000  1
  Ba  Ba3  1  0.41691100  0.00043100  0.16617800  1
  Tl  Tl0  1  0.29289400  0.50497500  0.41421100  1
  Tl  Tl1  1  0.70453000  0.51248200  0.59093900  1
  Tl  Tl2  1  0.20475200  0.98235200  0.59049500  1
  Tl  Tl3  1  0.79870700  0.01575100  0.40258500  1
  Cu  Cu0  1  0.49790200  0.50022200  0.00419700  1
  Cu  Cu1  1  0.99965300  0.99978100  0.00069400  1
  O  O0  1  0.38376800  0.50471300  0.23246300  1
  O  O1  1  0.61926200  0.49697100  0.76147600  1
  O  O2  1  0.11916800  0.99678100  0.76166400  1
  O  O3  1  0.88410200  0.99479100  0.23179500  1
  O  O4  1  0.25034100  0.25022700  0.99852000  1
  O  O5  1  0.25054100  0.74997800  0.99844900  1
  O  O6  1  0.75101000  0.74997800  0.99844900  1
  O  O7  1  0.75113800  0.25022700  0.99852000  1
  O  O8  1  0.79002800  0.43658800  0.41994500  1
  O  O9  1  0.29011600  0.05293600  0.41976700  1
  O  O10  1  0.71177000  0.94222500  0.57646000  1
loop_
_geom_bond_atom_site_label_1
_geom_bond_atom_site_label_2
_geom_bond_distance
_geom_bond_site_symmetry_2
Ba0 O4 2.809763 1_654
Ba0 O7 2.809765 1_554
Ba0 O6 2.823530 1_554
Ba0 O5 2.823530 1_654
Ba0 O3 2.879419 1_555
Ba0 O0 2.886501 1_655
Ba0 O0 2.886507 1_555
Ba0 O3 2.951722 1_545
Ba0 O8 3.018590 1_555
Ba1 O6 2.687615 1_455
Ba1 O5 2.687618 1_555
Ba1 O4 2.691403 1_555
Ba1 O7 2.691403 1_455
Ba1 O1 2.952308 1_455
Ba1 O1 2.952314 1_555
Ba1 O2 2.980540 1_555
Ba1 O2 2.983606 1_545
Ba2 O7 2.741026 1_565
Ba2 O4 2.741029 1_565
Ba2 O6 2.746645 1_555
Ba2 O5 2.746645 1_555
Ba2 O2 2.927174 1_555
Ba2 O2 2.927174 1_655
Ba2 O1 2.955282 1_565
Ba2 O1 2.961954 1_555
Ba2 O10 3.122264 1_555
Ba3 O5 2.800954 1_544
Ba3 O6 2.800954 1_544
Ba3 O7 2.813581 1_554
Ba3 O4 2.813584 1_554
Ba3 O3 2.889021 1_545
Ba3 O3 2.889026 1_445
Ba3 O0 2.904413 1_545
Ba3 O0 2.939733 1_555
Ba3 O9 3.021321 1_555
Cu0 O6 1.980030 1_554
Cu0 O5 1.980034 1_554
Cu0 O7 1.980890 1_554
Cu0 O4 1.980898 1_554
Cu0 O0 2.708459 1_555
Cu1 O6 1.976895 1_554
Cu1 O5 1.976895 1_654
Cu1 O4 1.979090 1_664
Cu1 O7 1.979094 1_564
O0 Tl0 2.156549 1_555
O1 Tl1 2.026055 1_555
O2 Tl2 2.032061 1_555
O3 Tl3 2.029103 1_565
O8 Tl1 2.070370 1_555
O8 Tl3 2.376103 1_555
O8 Tl0 2.809275 1_655
O8 Tl0 2.809286 1_555
O9 Tl2 2.067243 1_545
O9 Tl0 2.545624 1_555
O9 Tl3 2.797075 1_455
O9 Tl3 2.797075 1_555
O10 Tl3 2.107209 1_565
O10 Tl1 2.426144 1_555
O10 Tl2 2.795901 1_655
O10 Tl2 2.795907 1_555
