# generated using pymatgen
data_LiV2O4
_symmetry_space_group_name_H-M   'P 1'
_cell_length_a   5.98231651
_cell_length_b   5.97096481
_cell_length_c   6.00541449
_cell_angle_alpha   59.70294538
_cell_angle_beta   59.65178406
_cell_angle_gamma   60.82966069
_symmetry_Int_Tables_number   1
_chemical_formula_structural   LiV2O4
_chemical_formula_sum   'Li2 V4 O8'
_cell_volume   151.85477295
_cell_formula_units_Z   2
loop_
 _symmetry_equiv_pos_site_id
 _symmetry_equiv_pos_as_xyz
  1  'x, y, z'
loop_
 _atom_site_type_symbol
 _atom_site_label
 _atom_site_symmetry_multiplicity
 _atom_site_fract_x
 _atom_site_fract_y
 _atom_site_fract_z
 _atom_site_occupancy
  Li  Li0  1  0.87466400  0.87430800  0.87500200  1
  Li  Li1  1  0.12533500  0.12569400  0.12499700  1
  V  V0  1  0.50000100  0.99999900  0.50000000  1
  V  V1  1  0.00000000  0.50000100  0.49999900  1
  V  V2  1  0.50000100  0.49999900  0.00000000  1
  V  V3  1  0.49999800  0.50000000  0.49999900  1
  O  O0  1  0.27122000  0.27138400  0.24785400  1
  O  O1  1  0.27138400  0.26954500  0.70875800  1
  O  O2  1  0.72878200  0.72861400  0.75214400  1
  O  O3  1  0.72861400  0.73045600  0.29124100  1
  O  O4  1  0.28605800  0.72563100  0.74382000  1
  O  O5  1  0.27243800  0.71358600  0.25799400  1
  O  O6  1  0.71394100  0.27437000  0.25618000  1
  O  O7  1  0.72756000  0.28641500  0.74200600  1
loop_
_geom_bond_atom_site_label_1
_geom_bond_atom_site_label_2
_geom_bond_distance
_geom_bond_site_symmetry_2
Li0 O4 2.020470 1_655
Li0 O7 2.020809 1_565
Li0 O2 2.025125 1_555
Li0 O3 2.026787 1_556
Li1 O6 2.020470 1_455
Li1 O5 2.020814 1_545
Li1 O0 2.025115 1_555
Li1 O1 2.026787 1_554
O0 V2 1.914329 1_555
O0 V1 2.057349 1_555
O0 V0 2.061182 1_545
O1 V3 1.922755 1_555
O1 V0 2.046946 1_545
O1 V1 2.058979 1_555
O2 V2 1.914330 1_556
O2 V1 2.057332 1_655
O2 V0 2.061174 1_555
O3 V3 1.922769 1_555
O3 V0 2.046937 1_555
O3 V1 2.058985 1_655
O4 V3 2.003223 1_555
O4 V2 2.009381 1_556
O4 V0 2.048372 1_555
O5 V3 2.007148 1_555
O5 V2 2.012477 1_555
O5 V1 2.038975 1_555
O6 V3 2.003209 1_555
O6 V2 2.009368 1_555
O6 V0 2.048374 1_545
O7 V3 2.007166 1_555
O7 V2 2.012465 1_556
O7 V1 2.038988 1_655
