# generated using pymatgen
data_ZnCuSb2O7
_symmetry_space_group_name_H-M   'P 1'
_cell_length_a   8.53145600
_cell_length_b   10.35983100
_cell_length_c   10.83989529
_cell_angle_alpha   83.12854087
_cell_angle_beta   90.00000000
_cell_angle_gamma   90.00000000
_symmetry_Int_Tables_number   1
_chemical_formula_structural   ZnCuSb2O7
_chemical_formula_sum   'Zn6 Cu6 Sb12 O42'
_cell_volume   951.19628519
_cell_formula_units_Z   6
loop_
 _symmetry_equiv_pos_site_id
 _symmetry_equiv_pos_as_xyz
  1  'x, y, z'
loop_
 _atom_site_type_symbol
 _atom_site_label
 _atom_site_symmetry_multiplicity
 _atom_site_fract_x
 _atom_site_fract_y
 _atom_site_fract_z
 _atom_site_occupancy
  Zn  Zn0  1  0.44292000  0.86402600  0.57934600  1
  Zn  Zn1  1  0.93594900  0.50000000  0.75000000  1
  Zn  Zn2  1  0.44292000  0.13597400  0.92065400  1
  Zn  Zn3  1  0.06405100  0.50000000  0.25000000  1
  Zn  Zn4  1  0.55708000  0.13597400  0.42065400  1
  Zn  Zn5  1  0.55708000  0.86402600  0.07934600  1
  Cu  Cu0  1  0.92436500  0.19786200  0.41444600  1
  Cu  Cu1  1  0.07563500  0.80213800  0.58555400  1
  Cu  Cu2  1  0.43047800  0.50000000  0.25000000  1
  Cu  Cu3  1  0.92436500  0.80213800  0.08555400  1
  Cu  Cu4  1  0.56952200  0.50000000  0.75000000  1
  Cu  Cu5  1  0.07563500  0.19786200  0.91444600  1
  Sb  Sb0  1  0.22209500  0.82108500  0.29440900  1
  Sb  Sb1  1  0.75106700  0.83667200  0.37362200  1
  Sb  Sb2  1  0.24893300  0.83667200  0.87362200  1
  Sb  Sb3  1  0.77790500  0.82108500  0.79440900  1
  Sb  Sb4  1  0.27420100  0.49640900  0.96361600  1
  Sb  Sb5  1  0.75106700  0.16332800  0.12637800  1
  Sb  Sb6  1  0.72579900  0.49640900  0.46361600  1
  Sb  Sb7  1  0.24893300  0.16332800  0.62637800  1
  Sb  Sb8  1  0.27420100  0.50359100  0.53638400  1
  Sb  Sb9  1  0.72579900  0.50359100  0.03638400  1
  Sb  Sb10  1  0.77790500  0.17891500  0.70559100  1
  Sb  Sb11  1  0.22209500  0.17891500  0.20559100  1
  O  O0  1  0.74269900  0.78871300  0.97376300  1
  O  O1  1  0.76090800  0.14406500  0.30443800  1
  O  O2  1  0.84959600  0.00000000  0.75000000  1
  O  O3  1  0.92177300  0.49419700  0.11179900  1
  O  O4  1  0.40969400  0.06275400  0.56311000  1
  O  O5  1  0.93113000  0.72734800  0.70981300  1
  O  O6  1  0.34640000  0.67652400  0.94155200  1
  O  O7  1  0.07822700  0.49419700  0.61179900  1
  O  O8  1  0.74123300  0.54442700  0.85797700  1
  O  O9  1  0.40969400  0.93724600  0.93689000  1
  O  O10  1  0.74123300  0.45557300  0.64202300  1
  O  O11  1  0.43977300  0.42035400  0.88043100  1
  O  O12  1  0.95669300  0.14487900  0.06236700  1
  O  O13  1  0.06887000  0.72734800  0.20981300  1
  O  O14  1  0.65360000  0.32347600  0.05844800  1
  O  O15  1  0.34640000  0.32347600  0.55844800  1
  O  O16  1  0.93113000  0.27265200  0.79018700  1
  O  O17  1  0.59030600  0.93724600  0.43689000  1
  O  O18  1  0.25730100  0.78871300  0.47376300  1
  O  O19  1  0.56022700  0.57964600  0.11956900  1
  O  O20  1  0.41894200  0.19538200  0.28029900  1
  O  O21  1  0.25876700  0.45557300  0.14202300  1
  O  O22  1  0.04330700  0.14487900  0.56236700  1
  O  O23  1  0.25876700  0.54442700  0.35797700  1
  O  O24  1  0.92177300  0.50580300  0.38820100  1
  O  O25  1  0.56022700  0.42035400  0.38043100  1
  O  O26  1  0.07822700  0.50580300  0.88820100  1
  O  O27  1  0.58105800  0.19538200  0.78029900  1
  O  O28  1  0.58105800  0.80461800  0.71970100  1
  O  O29  1  0.04330700  0.85512100  0.93763300  1
  O  O30  1  0.06887000  0.27265200  0.29018700  1
  O  O31  1  0.74269900  0.21128700  0.52623700  1
  O  O32  1  0.15040400  0.00000000  0.25000000  1
  O  O33  1  0.23909200  0.14406500  0.80443800  1
  O  O34  1  0.59030600  0.06275400  0.06311000  1
  O  O35  1  0.95669300  0.85512100  0.43763300  1
  O  O36  1  0.25730100  0.21128700  0.02623700  1
  O  O37  1  0.76090800  0.85593500  0.19556200  1
  O  O38  1  0.43977300  0.57964600  0.61956900  1
  O  O39  1  0.65360000  0.67652400  0.44155200  1
  O  O40  1  0.23909200  0.85593500  0.69556200  1
  O  O41  1  0.41894200  0.80461800  0.21970100  1
loop_
_geom_bond_atom_site_label_1
_geom_bond_atom_site_label_2
_geom_bond_distance
_geom_bond_site_symmetry_2
Cu0 O30 1.919579 1_655
Cu0 O22 1.921314 1_655
Cu0 O1 1.958659 1_555
Cu0 O31 1.982486 1_555
Cu1 O5 1.919579 1_455
Cu1 O35 1.921314 1_455
Cu1 O40 1.958659 1_555
Cu1 O18 1.982486 1_555
Cu2 O25 1.904206 1_555
Cu2 O19 1.904206 1_555
Cu2 O23 1.963869 1_555
Cu2 O21 1.963869 1_555
Cu3 O13 1.919579 1_655
Cu3 O29 1.921314 1_654
Cu3 O37 1.958659 1_555
Cu3 O0 1.982486 1_554
Cu4 O11 1.904206 1_555
Cu4 O38 1.904206 1_555
Cu4 O10 1.963869 1_555
Cu4 O8 1.963869 1_555
Cu5 O16 1.919579 1_455
Cu5 O12 1.921314 1_456
Cu5 O33 1.958659 1_555
Cu5 O36 1.982486 1_556
O0 Sb3 1.956144 1_555
O0 Zn5 2.154095 1_556
O1 Sb5 1.918382 1_555
O1 Zn4 2.143064 1_555
O2 Sb3 1.956499 1_545
O2 Sb10 1.956499 1_555
O3 Sb9 1.858526 1_555
O3 Zn3 1.934638 1_655
O4 Sb7 1.899482 1_555
O4 Zn4 2.064166 1_555
O4 Zn0 2.064760 1_545
O5 Sb3 1.925068 1_555
O5 Zn1 2.343784 1_555
O6 Sb2 1.921970 1_555
O6 Sb4 1.952341 1_555
O7 Sb8 1.858526 1_555
O7 Zn1 1.934638 1_455
O8 Sb9 1.934053 1_556
O8 Zn1 2.114317 1_555
O9 Sb2 1.899482 1_555
O9 Zn5 2.064166 1_556
O9 Zn2 2.064760 1_565
O10 Sb6 1.934053 1_555
O10 Zn1 2.114317 1_555
O11 Sb4 1.897173 1_555
O12 Sb5 1.904535 1_555
O13 Sb0 1.925068 1_555
O13 Zn3 2.343784 1_555
O14 Sb5 1.921970 1_555
O14 Sb9 1.952341 1_555
O15 Sb7 1.921970 1_555
O15 Sb8 1.952341 1_555
O16 Sb10 1.925068 1_555
O16 Zn1 2.343784 1_555
O17 Sb1 1.899482 1_555
O17 Zn0 2.064166 1_555
O17 Zn4 2.064760 1_565
O18 Sb0 1.956144 1_555
O18 Zn0 2.154095 1_555
O19 Sb9 1.897173 1_555
O20 Sb11 1.881047 1_555
O20 Zn4 1.964279 1_555
O21 Sb4 1.934053 1_554
O21 Zn3 2.114317 1_555
O22 Sb7 1.904535 1_555
O23 Sb8 1.934053 1_555
O23 Zn3 2.114317 1_555
O24 Sb6 1.858526 1_555
O24 Zn3 1.934638 1_655
O25 Sb6 1.897173 1_555
O26 Sb4 1.858526 1_555
O26 Zn1 1.934638 1_455
O27 Sb10 1.881047 1_555
O27 Zn2 1.964279 1_555
O28 Sb3 1.881047 1_555
O28 Zn0 1.964279 1_555
O29 Sb2 1.904535 1_555
O30 Sb11 1.925068 1_555
O30 Zn3 2.343784 1_555
O31 Sb10 1.956144 1_555
O31 Zn4 2.154095 1_555
O32 Sb11 1.956499 1_555
O32 Sb0 1.956499 1_545
O33 Sb7 1.918382 1_555
O33 Zn2 2.143064 1_555
O34 Sb5 1.899482 1_555
O34 Zn2 2.064166 1_554
O34 Zn5 2.064760 1_545
O35 Sb1 1.904535 1_555
O36 Sb11 1.956144 1_555
O36 Zn2 2.154095 1_554
O37 Sb1 1.918382 1_555
O37 Zn5 2.143064 1_555
O38 Sb8 1.897173 1_555
O39 Sb1 1.921970 1_555
O39 Sb6 1.952341 1_555
O40 Sb2 1.918382 1_555
O40 Zn0 2.143064 1_555
O41 Sb0 1.881047 1_555
O41 Zn5 1.964279 1_555
