# generated using pymatgen
data_V5Si2B
_symmetry_space_group_name_H-M   'P 1'
_cell_length_a   6.88814706
_cell_length_b   6.88814706
_cell_length_c   6.88814706
_cell_angle_alpha   127.79439975
_cell_angle_beta   127.79439975
_cell_angle_gamma   76.95832975
_symmetry_Int_Tables_number   1
_chemical_formula_structural   V5Si2B
_chemical_formula_sum   'V10 Si4 B2'
_cell_volume   198.11122022
_cell_formula_units_Z   2
loop_
 _symmetry_equiv_pos_site_id
 _symmetry_equiv_pos_as_xyz
  1  'x, y, z'
loop_
 _atom_site_type_symbol
 _atom_site_label
 _atom_site_symmetry_multiplicity
 _atom_site_fract_x
 _atom_site_fract_y
 _atom_site_fract_z
 _atom_site_occupancy
  V  V0  1  0.00000000  0.00000000  0.00000000  1
  V  V1  1  0.50000000  0.50000000  0.00000000  1
  V  V2  1  0.00914500  0.50914500  0.83568100  1
  V  V3  1  0.67346400  0.17346400  0.16431900  1
  V  V4  1  0.50914500  0.67346400  0.50000000  1
  V  V5  1  0.17346400  0.00914500  0.50000000  1
  V  V6  1  0.99085500  0.49085500  0.16431900  1
  V  V7  1  0.32653600  0.82653600  0.83568100  1
  V  V8  1  0.49085500  0.32653600  0.50000000  1
  V  V9  1  0.82653600  0.99085500  0.50000000  1
  Si  Si0  1  0.63332600  0.13332600  0.76665200  1
  Si  Si1  1  0.36667400  0.86667400  0.23334800  1
  Si  Si2  1  0.13332600  0.36667400  0.50000000  1
  Si  Si3  1  0.86667400  0.63332600  0.50000000  1
  B  B0  1  0.75000000  0.75000000  0.00000000  1
  B  B1  1  0.25000000  0.25000000  0.00000000  1
loop_
_geom_bond_atom_site_label_1
_geom_bond_atom_site_label_2
_geom_bond_distance
_geom_bond_site_symmetry_2
Si0 Si1 2.285747 1_545
Si0 V1 2.364897 1_556
Si0 V0 2.364897 1_656
Si0 V6 2.415387 1_556
Si0 V3 2.415387 1_556
Si0 V9 2.511018 1_545
Si0 V8 2.511018 1_555
Si0 V4 2.511018 1_545
Si0 V5 2.511018 1_555
Si1 V1 2.364897 1_555
Si1 V0 2.364897 1_565
Si1 V2 2.415387 1_554
Si1 V7 2.415387 1_554
Si1 V9 2.511018 1_555
Si1 V4 2.511018 1_555
Si1 V8 2.511018 1_565
Si1 V5 2.511018 1_565
Si2 Si3 2.285747 1_455
Si2 V1 2.364897 1_556
Si2 V0 2.364897 1_555
Si2 V8 2.415387 1_555
Si2 V5 2.415387 1_555
Si2 V7 2.511018 1_555
Si2 V6 2.511018 1_455
Si2 V2 2.511018 1_555
Si2 V3 2.511018 1_455
Si3 V0 2.364897 1_666
Si3 V1 2.364897 1_555
Si3 V4 2.415387 1_555
Si3 V9 2.415387 1_555
Si3 V2 2.511018 1_655
Si3 V6 2.511018 1_555
Si3 V7 2.511018 1_655
Si3 V3 2.511018 1_555
B0 V3 2.461314 1_565
B0 V5 2.461314 1_665
B0 V7 2.461314 1_554
B0 V6 2.461314 1_555
B0 V2 2.461314 1_654
B0 V4 2.461314 1_554
B0 V8 2.461314 1_554
B0 V9 2.461314 1_555
B0 V1 2.696140 1_555
B0 V0 2.696140 1_665
B1 V5 2.461314 1_554
B1 V2 2.461314 1_554
B1 V8 2.461314 1_555
B1 V4 2.461314 1_555
B1 V3 2.461314 1_555
B1 V9 2.461314 1_444
B1 V6 2.461314 1_455
B1 V7 2.461314 1_544
B1 V1 2.696140 1_555
B1 V0 2.696140 1_555
