# generated using pymatgen
data_B10H14C10S(OF2)3
_symmetry_space_group_name_H-M   'P 1'
_cell_length_a   20.75626500
_cell_length_b   8.93301600
_cell_length_c   11.87218509
_cell_angle_alpha   90.00000000
_cell_angle_beta   102.32240536
_cell_angle_gamma   90.00000000
_symmetry_Int_Tables_number   1
_chemical_formula_structural   B10H14C10S(OF2)3
_chemical_formula_sum   'B40 H56 C40 S4 O12 F24'
_cell_volume   2150.58065836
_cell_formula_units_Z   4
loop_
 _symmetry_equiv_pos_site_id
 _symmetry_equiv_pos_as_xyz
  1  'x, y, z'
loop_
 _atom_site_type_symbol
 _atom_site_label
 _atom_site_symmetry_multiplicity
 _atom_site_fract_x
 _atom_site_fract_y
 _atom_site_fract_z
 _atom_site_occupancy
  B  B0  1  0.34879700  0.99617400  0.80997100  1
  B  B1  1  0.65120300  0.49617400  0.69002900  1
  B  B2  1  0.65120300  0.00382600  0.19002900  1
  B  B3  1  0.34879700  0.50382600  0.30997100  1
  B  B4  1  0.32229000  0.84680300  0.71102800  1
  B  B5  1  0.67771000  0.34680300  0.78897200  1
  B  B6  1  0.67771000  0.15319700  0.28897200  1
  B  B7  1  0.32229000  0.65319700  0.21102800  1
  B  B8  1  0.30895000  0.92222000  0.56915500  1
  B  B9  1  0.69105000  0.42222000  0.93084500  1
  B  B10  1  0.69105000  0.07778000  0.43084500  1
  B  B11  1  0.30895000  0.57778000  0.06915500  1
  B  B12  1  0.32824300  0.11559900  0.58020500  1
  B  B13  1  0.67175700  0.61559900  0.91979500  1
  B  B14  1  0.67175700  0.88440100  0.41979500  1
  B  B15  1  0.32824300  0.38440100  0.08020500  1
  B  B16  1  0.42540700  0.06129800  0.78721100  1
  B  B17  1  0.57459300  0.56129800  0.71278900  1
  B  B18  1  0.57459300  0.93870200  0.21278900  1
  B  B19  1  0.42540700  0.43870200  0.28721100  1
  B  B20  1  0.40702000  0.86729500  0.77794200  1
  B  B21  1  0.59298000  0.36729500  0.72205800  1
  B  B22  1  0.59298000  0.13270500  0.22205800  1
  B  B23  1  0.40702000  0.63270500  0.27794200  1
  B  B24  1  0.38279600  0.82001000  0.62795600  1
  B  B25  1  0.61720400  0.32001000  0.87204400  1
  B  B26  1  0.61720400  0.17999000  0.37204400  1
  B  B27  1  0.38279600  0.67999000  0.12795600  1
  B  B28  1  0.38592600  0.98688800  0.54725400  1
  B  B29  1  0.61407400  0.48688800  0.95274600  1
  B  B30  1  0.61407400  0.01311200  0.45274600  1
  B  B31  1  0.38592600  0.51311200  0.04725400  1
  B  B32  1  0.41282700  0.13490200  0.64573700  1
  B  B33  1  0.58717300  0.63490200  0.85426300  1
  B  B34  1  0.58717300  0.86509800  0.35426300  1
  B  B35  1  0.41282700  0.36509800  0.14573700  1
  B  B36  1  0.44718200  0.95269800  0.67541100  1
  B  B37  1  0.55281800  0.45269800  0.82458900  1
  B  B38  1  0.55281800  0.04730200  0.32458900  1
  B  B39  1  0.44718200  0.54730200  0.17541100  1
  H  H0  1  0.33841500  0.25342800  0.75609300  1
  H  H1  1  0.66158500  0.75342800  0.74390700  1
  H  H2  1  0.66158500  0.74657200  0.24390700  1
  H  H3  1  0.33841500  0.24657200  0.25609300  1
  H  H4  1  0.33160800  0.01350300  0.89794500  1
  H  H5  1  0.66839200  0.51350300  0.60205500  1
  H  H6  1  0.66839200  0.98649700  0.10205500  1
  H  H7  1  0.33160800  0.48649700  0.39794500  1
  H  H8  1  0.26290400  0.88082000  0.49840200  1
  H  H9  1  0.73709600  0.38082000  0.00159800  1
  H  H10  1  0.73709600  0.11918000  0.50159800  1
  H  H11  1  0.26290400  0.61918000  0.99840200  1
  H  H12  1  0.29755200  0.21062400  0.52288300  1
  H  H13  1  0.70244800  0.71062400  0.97711700  1
  H  H14  1  0.70244800  0.78937600  0.47711700  1
  H  H15  1  0.29755200  0.28937600  0.02288300  1
  H  H16  1  0.46026900  0.12308300  0.86558700  1
  H  H17  1  0.53973100  0.62308300  0.63441300  1
  H  H18  1  0.53973100  0.87691700  0.13441300  1
  H  H19  1  0.46026900  0.37691700  0.36558700  1
  H  H20  1  0.43246700  0.78173900  0.85095700  1
  H  H21  1  0.56753300  0.28173900  0.64904300  1
  H  H22  1  0.56753300  0.21826100  0.14904300  1
  H  H23  1  0.43246700  0.71826100  0.35095700  1
  H  H24  1  0.39146000  0.69827400  0.59246400  1
  H  H25  1  0.60854000  0.19827400  0.90753600  1
  H  H26  1  0.60854000  0.30172600  0.40753600  1
  H  H27  1  0.39146000  0.80172600  0.09246400  1
  H  H28  1  0.39702200  0.98758500  0.45325900  1
  H  H29  1  0.60297800  0.48758500  0.04674100  1
  H  H30  1  0.60297800  0.01241500  0.54674100  1
  H  H31  1  0.39702200  0.51241500  0.95325900  1
  H  H32  1  0.43891100  0.24754700  0.62643700  1
  H  H33  1  0.56108900  0.74754700  0.87356300  1
  H  H34  1  0.56108900  0.75245300  0.37356300  1
  H  H35  1  0.43891100  0.25245300  0.12643700  1
  H  H36  1  0.50364500  0.92815500  0.67373500  1
  H  H37  1  0.49635500  0.42815500  0.82626500  1
  H  H38  1  0.49635500  0.07184500  0.32626500  1
  H  H39  1  0.50364500  0.57184500  0.17373500  1
  H  H40  1  0.23144000  0.03113500  0.86656900  1
  H  H41  1  0.76856000  0.53113500  0.63343100  1
  H  H42  1  0.76856000  0.96886500  0.13343100  1
  H  H43  1  0.23144000  0.46886500  0.36656900  1
  H  H44  1  0.11511400  0.09381800  0.86469400  1
  H  H45  1  0.88488600  0.59381800  0.63530600  1
  H  H46  1  0.88488600  0.90618200  0.13530600  1
  H  H47  1  0.11511400  0.40618200  0.36469400  1
  H  H48  1  0.08070900  0.18492100  0.50108200  1
  H  H49  1  0.91929100  0.68492100  0.99891800  1
  H  H50  1  0.91929100  0.81507900  0.49891800  1
  H  H51  1  0.08070900  0.31507900  0.00108200  1
  H  H52  1  0.19726000  0.12086700  0.50176900  1
  H  H53  1  0.80274000  0.62086700  0.99823100  1
  H  H54  1  0.80274000  0.87913300  0.49823100  1
  H  H55  1  0.19726000  0.37913300  0.00176900  1
  C  C0  1  0.29226100  0.02724800  0.68079800  1
  C  C1  1  0.70773900  0.52724800  0.81920200  1
  C  C2  1  0.70773900  0.97275200  0.31920200  1
  C  C3  1  0.29226100  0.47275200  0.18079800  1
  C  C4  1  0.35363600  0.14711400  0.72481600  1
  C  C5  1  0.64636400  0.64711400  0.77518400  1
  C  C6  1  0.64636400  0.85288600  0.27518400  1
  C  C7  1  0.35363600  0.35288600  0.22481600  1
  C  C8  1  0.22258000  0.07207100  0.68414600  1
  C  C9  1  0.77742000  0.57207100  0.81585400  1
  C  C10  1  0.77742000  0.92792900  0.31585400  1
  C  C11  1  0.22258000  0.42792900  0.18414600  1
  C  C12  1  0.19917800  0.06548000  0.78619500  1
  C  C13  1  0.80082200  0.56548000  0.71380500  1
  C  C14  1  0.80082200  0.93452000  0.21380500  1
  C  C15  1  0.19917800  0.43452000  0.28619500  1
  C  C16  1  0.13365500  0.10131200  0.78557600  1
  C  C17  1  0.86634500  0.60131200  0.71442400  1
  C  C18  1  0.86634500  0.89868800  0.21442400  1
  C  C19  1  0.13365500  0.39868800  0.28557600  1
  C  C20  1  0.09136400  0.14459200  0.68329300  1
  C  C21  1  0.90863600  0.64459200  0.81670700  1
  C  C22  1  0.90863600  0.85540800  0.31670700  1
  C  C23  1  0.09136400  0.35540800  0.18329300  1
  C  C24  1  0.11428200  0.15207800  0.58108700  1
  C  C25  1  0.88571800  0.65207800  0.91891300  1
  C  C26  1  0.88571800  0.84792200  0.41891300  1
  C  C27  1  0.11428200  0.34792200  0.08108700  1
  C  C28  1  0.17955900  0.11595500  0.58151200  1
  C  C29  1  0.82044100  0.61595500  0.91848800  1
  C  C30  1  0.82044100  0.88404500  0.41848800  1
  C  C31  1  0.17955900  0.38404500  0.08151200  1
  C  C32  1  0.02029300  0.17967400  0.68102600  1
  C  C33  1  0.97970700  0.67967400  0.81897400  1
  C  C34  1  0.97970700  0.82032600  0.31897400  1
  C  C35  1  0.02029300  0.32032600  0.18102600  1
  C  C36  1  0.15811900  0.64640600  0.66999600  1
  C  C37  1  0.84188100  0.14640600  0.83000400  1
  C  C38  1  0.84188100  0.35359400  0.33000400  1
  C  C39  1  0.15811900  0.85359400  0.16999600  1
  S  S0  1  0.24708300  0.59079700  0.69083700  1
  S  S1  1  0.75291700  0.09079700  0.80916300  1
  S  S2  1  0.75291700  0.40920300  0.30916300  1
  S  S3  1  0.24708300  0.90920300  0.19083700  1
  O  O0  1  0.27912600  0.73882600  0.74848600  1
  O  O1  1  0.72087400  0.23882600  0.75151400  1
  O  O2  1  0.72087400  0.26117400  0.25151400  1
  O  O3  1  0.27912600  0.76117400  0.24848600  1
  O  O4  1  0.25732800  0.47536900  0.77648300  1
  O  O5  1  0.74267200  0.97536900  0.72351700  1
  O  O6  1  0.74267200  0.52463100  0.22351700  1
  O  O7  1  0.25732800  0.02463100  0.27648300  1
  O  O8  1  0.26010500  0.56500700  0.57838800  1
  O  O9  1  0.73989500  0.06500700  0.92161200  1
  O  O10  1  0.73989500  0.43499300  0.42161200  1
  O  O11  1  0.26010500  0.93499300  0.07838800  1
  F  F0  1  0.99975600  0.30607300  0.61856200  1
  F  F1  1  0.00024400  0.80607300  0.88143800  1
  F  F2  1  0.00024400  0.69392700  0.38143800  1
  F  F3  1  0.99975600  0.19392700  0.11856200  1
  F  F4  1  0.00850400  0.20100800  0.78887900  1
  F  F5  1  0.99149600  0.70100800  0.71112100  1
  F  F6  1  0.99149600  0.79899200  0.21112100  1
  F  F7  1  0.00850400  0.29899200  0.28887900  1
  F  F8  1  0.97930300  0.06642600  0.63120100  1
  F  F9  1  0.02069700  0.56642600  0.86879900  1
  F  F10  1  0.02069700  0.93357400  0.36879900  1
  F  F11  1  0.97930300  0.43357400  0.13120100  1
  F  F12  1  0.12160000  0.52650500  0.62623400  1
  F  F13  1  0.87840000  0.02650500  0.87376600  1
  F  F14  1  0.87840000  0.47349500  0.37376600  1
  F  F15  1  0.12160000  0.97349500  0.12623400  1
  F  F16  1  0.14402500  0.76144100  0.59537300  1
  F  F17  1  0.85597500  0.26144100  0.90462700  1
  F  F18  1  0.85597500  0.23855900  0.40462700  1
  F  F19  1  0.14402500  0.73855900  0.09537300  1
  F  F20  1  0.14370800  0.68550800  0.77133900  1
  F  F21  1  0.85629200  0.18550900  0.72866100  1
  F  F22  1  0.85629200  0.31449200  0.22866100  1
  F  F23  1  0.14370800  0.81449200  0.27133900  1
loop_
_geom_bond_atom_site_label_1
_geom_bond_atom_site_label_2
_geom_bond_distance
_geom_bond_site_symmetry_2
B0 H4 1.183709 1_565
B0 C4 1.701043 1_565
B0 C0 1.742931 1_565
B1 H5 1.183709 1_555
B1 C5 1.701043 1_555
B1 C1 1.742931 1_555
B2 H6 1.183709 1_545
B2 C6 1.701043 1_545
B2 C2 1.742931 1_545
B3 H7 1.183709 1_555
B3 C7 1.701043 1_555
B3 C3 1.742931 1_555
B4 O0 1.449441 1_555
B4 C0 1.737843 1_565
B5 O1 1.449441 1_555
B5 C1 1.737843 1_555
B6 O2 1.449441 1_555
B6 C2 1.737843 1_545
B7 O3 1.449441 1_555
B7 C3 1.737843 1_555
B8 H8 1.188756 1_555
B8 C0 1.718436 1_565
B9 H9 1.188756 1_556
B9 C1 1.718436 1_555
B10 H10 1.188756 1_555
B10 C2 1.718436 1_545
B11 H11 1.188756 1_554
B11 C3 1.718436 1_555
B12 H12 1.185101 1_555
B12 C4 1.708330 1_555
B12 C0 1.728480 1_555
B13 H13 1.185101 1_555
B13 C5 1.708330 1_555
B13 C1 1.728480 1_555
B14 H14 1.185101 1_555
B14 C6 1.708330 1_555
B14 C2 1.728480 1_555
B15 H15 1.185101 1_555
B15 C7 1.708330 1_555
B15 C3 1.728480 1_555
B16 H16 1.186027 1_555
B16 C4 1.698409 1_555
B17 H17 1.186027 1_555
B17 C5 1.698409 1_555
B18 H18 1.186027 1_555
B18 C6 1.698409 1_555
B19 H19 1.186027 1_555
B19 C7 1.698409 1_555
B20 H20 1.191257 1_555
B21 H21 1.191257 1_555
B22 H22 1.191257 1_555
B23 H23 1.191257 1_555
B24 H24 1.193660 1_555
B25 H25 1.193660 1_555
B26 H26 1.193660 1_555
B27 H27 1.193660 1_555
B28 H28 1.186622 1_555
B29 H29 1.186622 1_556
B30 H30 1.186622 1_555
B31 H31 1.186622 1_554
B32 H32 1.187910 1_555
B32 C4 1.701488 1_555
B33 H33 1.187910 1_555
B33 C5 1.701488 1_555
B34 H34 1.187910 1_555
B34 C6 1.701488 1_555
B35 H35 1.187910 1_555
B35 C7 1.701488 1_555
B36 H36 1.196624 1_555
B37 H37 1.196624 1_555
B38 H38 1.196624 1_555
B39 H39 1.196624 1_555
C0 C8 1.509396 1_555
C0 C4 1.660827 1_555
C1 C9 1.509396 1_555
C1 C5 1.660827 1_555
C2 C6 1.660827 1_555
C3 C7 1.660827 1_555
C4 H0 1.090737 1_555
C5 H1 1.090737 1_555
C6 H2 1.090737 1_555
C7 H3 1.090737 1_555
C10 C14 1.399440 1_555
C10 C30 1.404049 1_555
C10 C2 1.509396 1_555
C11 C15 1.399440 1_555
C11 C31 1.404049 1_555
C11 C3 1.509396 1_555
C12 H40 1.086434 1_555
C12 C8 1.399440 1_555
C13 H41 1.086434 1_555
C13 C9 1.399440 1_555
C14 H42 1.086434 1_555
C15 H43 1.086434 1_555
C16 H44 1.090489 1_555
C16 C20 1.392704 1_555
C17 H45 1.090489 1_555
C17 C21 1.392704 1_555
C18 H46 1.090489 1_555
C18 C22 1.392704 1_555
C19 H47 1.090489 1_555
C19 C23 1.392704 1_555
C20 C24 1.396239 1_555
C20 C32 1.502702 1_555
C21 C25 1.396239 1_555
C21 C33 1.502702 1_555
C22 C26 1.396239 1_555
C22 C34 1.502702 1_555
C23 C27 1.396239 1_555
C23 C35 1.502702 1_555
C24 H48 1.091489 1_555
C25 H49 1.091489 1_555
C26 H50 1.091489 1_555
C27 H51 1.091489 1_555
C28 H52 1.087043 1_555
C28 C8 1.404049 1_555
C29 H53 1.087043 1_555
C29 C9 1.404049 1_555
C30 H54 1.087043 1_555
C31 H55 1.087043 1_555
C32 F4 1.367290 1_555
C32 F0 1.368083 1_455
C32 F8 1.372001 1_455
C33 F5 1.367290 1_555
C33 F1 1.368083 1_655
C33 F9 1.372001 1_655
C34 F6 1.367290 1_555
C34 F2 1.368083 1_655
C34 F10 1.372001 1_655
C35 F7 1.367290 1_555
C35 F3 1.368083 1_455
C35 F11 1.372001 1_455
C36 F20 1.346362 1_555
C36 F16 1.347526 1_555
C36 F12 1.350411 1_555
C37 F21 1.346365 1_555
C37 F17 1.347526 1_555
C37 F13 1.350411 1_555
C38 F22 1.346362 1_555
C38 F18 1.347526 1_555
C38 F14 1.350411 1_555
C39 F23 1.346362 1_555
C39 F19 1.347526 1_555
C39 F15 1.350411 1_555
O0 S0 1.570059 1_555
O1 S1 1.570059 1_555
O2 S2 1.570059 1_555
O3 S3 1.570059 1_555
O4 S0 1.431793 1_555
O5 S1 1.431793 1_565
O6 S2 1.431793 1_555
O7 S3 1.431793 1_545
O8 S0 1.436110 1_555
O9 S1 1.436110 1_555
O10 S2 1.436110 1_555
O11 S3 1.436110 1_555
