# generated using pymatgen
data_Mn5Cr4O12
_symmetry_space_group_name_H-M   'P 1'
_cell_length_a   6.07349900
_cell_length_b   6.08871312
_cell_length_c   13.68787424
_cell_angle_alpha   102.51156749
_cell_angle_beta   102.60257671
_cell_angle_gamma   90.61268853
_symmetry_Int_Tables_number   1
_chemical_formula_structural   Mn5Cr4O12
_chemical_formula_sum   'Mn10 Cr8 O24'
_cell_volume   481.35534295
_cell_formula_units_Z   2
loop_
 _symmetry_equiv_pos_site_id
 _symmetry_equiv_pos_as_xyz
  1  'x, y, z'
loop_
 _atom_site_type_symbol
 _atom_site_label
 _atom_site_symmetry_multiplicity
 _atom_site_fract_x
 _atom_site_fract_y
 _atom_site_fract_z
 _atom_site_occupancy
  Mn  Mn0  1  0.78988000  0.54450400  0.08379100  1
  Mn  Mn1  1  0.46174400  0.20880100  0.41686600  1
  Mn  Mn2  1  0.12232100  0.87501000  0.74896300  1
  Mn  Mn3  1  0.53825600  0.79119900  0.58313400  1
  Mn  Mn4  1  0.21012000  0.45549600  0.91620900  1
  Mn  Mn5  1  0.87767900  0.12499000  0.25103700  1
  Mn  Mn6  1  0.66549600  0.66746900  0.83111400  1
  Mn  Mn7  1  0.33450400  0.33253100  0.16888600  1
  Mn  Mn8  1  0.00000000  0.00000000  0.50000000  1
  Mn  Mn9  1  0.00000000  0.00000000  0.00000000  1
  Cr  Cr0  1  0.66496400  0.66441600  0.33455100  1
  Cr  Cr1  1  0.33503600  0.33558400  0.66544900  1
  Cr  Cr2  1  0.50000000  0.00000000  0.00000000  1
  Cr  Cr3  1  0.16422100  0.66900900  0.33330700  1
  Cr  Cr4  1  0.83577900  0.33099100  0.66669300  1
  Cr  Cr5  1  0.66463600  0.16640900  0.83203300  1
  Cr  Cr6  1  0.33536400  0.83359100  0.16796700  1
  Cr  Cr7  1  0.00000000  0.50000000  0.50000000  1
  O  O0  1  0.58523500  0.11523900  0.67570500  1
  O  O1  1  0.25735000  0.77627400  0.01126300  1
  O  O2  1  0.92014500  0.44827200  0.34331900  1
  O  O3  1  0.89460400  0.39861800  0.82121300  1
  O  O4  1  0.56240400  0.06656800  0.15497000  1
  O  O5  1  0.21176300  0.75408800  0.49132400  1
  O  O6  1  0.44573000  0.42000700  0.82470600  1
  O  O7  1  0.12168500  0.08786200  0.16594000  1
  O  O8  1  0.75910900  0.72750600  0.48843600  1
  O  O9  1  0.59163200  0.55705000  0.67310300  1
  O  O10  1  0.24732500  0.21814800  0.00630100  1
  O  O11  1  0.91813200  0.89242300  0.34201700  1
  O  O12  1  0.74265000  0.22372600  0.98873700  1
  O  O13  1  0.41476500  0.88476100  0.32429500  1
  O  O14  1  0.07985500  0.55172800  0.65668100  1
  O  O15  1  0.43759600  0.93343200  0.84503000  1
  O  O16  1  0.10539600  0.60138200  0.17878700  1
  O  O17  1  0.78823700  0.24591200  0.50867600  1
  O  O18  1  0.87831500  0.91213800  0.83406000  1
  O  O19  1  0.55427000  0.57999300  0.17529400  1
  O  O20  1  0.24089100  0.27249400  0.51156400  1
  O  O21  1  0.75267500  0.78185200  0.99369900  1
  O  O22  1  0.40836800  0.44295000  0.32689700  1
  O  O23  1  0.08186800  0.10757700  0.65798300  1
loop_
_geom_bond_atom_site_label_1
_geom_bond_atom_site_label_2
_geom_bond_distance
_geom_bond_site_symmetry_2
Mn0 O16 2.046025 1_655
Mn0 O12 2.077002 1_554
Mn0 O21 2.077915 1_554
Mn0 O19 2.081958 1_555
Mn1 O20 2.044952 1_555
Mn1 O22 2.061683 1_555
Mn1 O13 2.080061 1_545
Mn1 O17 2.083839 1_555
Mn2 O15 2.050903 1_555
Mn2 O18 2.061658 1_455
Mn2 O23 2.062598 1_565
Mn2 O14 2.075152 1_555
Mn3 O8 2.044952 1_555
Mn3 O9 2.061683 1_555
Mn3 O0 2.080061 1_565
Mn3 O5 2.083839 1_555
Mn4 O3 2.046025 1_455
Mn4 O1 2.077002 1_556
Mn4 O10 2.077915 1_556
Mn4 O6 2.081958 1_555
Mn5 O4 2.050903 1_555
Mn5 O7 2.061658 1_655
Mn5 O11 2.062598 1_545
Mn5 O2 2.075152 1_555
Mn6 O18 1.949779 1_555
Mn6 O6 1.976894 1_555
Mn6 O9 2.066696 1_555
Mn6 O21 2.127057 1_555
Mn6 O15 2.145662 1_555
Mn6 O3 2.160814 1_555
Mn7 O7 1.949779 1_555
Mn7 O19 1.976894 1_555
Mn7 O22 2.066696 1_555
Mn7 O10 2.127057 1_555
Mn7 O4 2.145662 1_555
Mn7 O16 2.160814 1_555
Mn8 O17 1.985177 1_455
Mn8 O5 1.985177 1_545
Mn8 O23 2.064606 1_555
Mn8 O11 2.064606 1_445
Mn8 O20 2.156747 1_555
Mn8 O8 2.156747 1_445
Mn9 O10 1.969571 1_555
Mn9 O21 1.969571 1_444
Mn9 O12 2.086565 1_454
Mn9 O1 2.086565 1_545
Mn9 O18 2.173486 1_444
Mn9 O7 2.173486 1_555
Cr0 O8 2.007589 1_555
Cr0 O22 2.020048 1_555
Cr0 O11 2.031331 1_555
Cr0 O13 2.039827 1_555
Cr0 O2 2.044323 1_555
Cr0 O19 2.082240 1_555
Cr1 O20 2.007589 1_555
Cr1 O9 2.020048 1_555
Cr1 O23 2.031331 1_555
Cr1 O0 2.039827 1_555
Cr1 O14 2.044323 1_555
Cr1 O6 2.082240 1_555
Cr2 O4 2.020108 1_555
Cr2 O15 2.020108 1_544
Cr2 O21 2.044123 1_544
Cr2 O10 2.044123 1_555
Cr2 O12 2.049014 1_554
Cr2 O1 2.049014 1_545
Cr3 O16 2.015044 1_555
Cr3 O2 2.036779 1_455
Cr3 O22 2.036927 1_555
Cr3 O11 2.037033 1_455
Cr3 O13 2.041023 1_555
Cr3 O5 2.066094 1_555
Cr4 O3 2.015044 1_555
Cr4 O14 2.036779 1_655
Cr4 O9 2.036927 1_555
Cr4 O23 2.037033 1_655
Cr4 O0 2.041023 1_555
Cr4 O17 2.066094 1_555
Cr5 O3 2.027431 1_555
Cr5 O15 2.029747 1_545
Cr5 O18 2.031684 1_545
Cr5 O0 2.041079 1_555
Cr5 O12 2.043459 1_555
Cr5 O6 2.052976 1_555
Cr6 O16 2.027431 1_555
Cr6 O4 2.029747 1_565
Cr6 O7 2.031684 1_565
Cr6 O13 2.041079 1_555
Cr6 O1 2.043459 1_555
Cr6 O19 2.052976 1_555
Cr7 O20 2.030195 1_555
Cr7 O8 2.030195 1_455
Cr7 O5 2.040928 1_555
Cr7 O17 2.040928 1_455
Cr7 O14 2.045492 1_555
Cr7 O2 2.045492 1_455
