# generated using pymatgen
data_Ba11Cu4Bi9O29
_symmetry_space_group_name_H-M   'P 1'
_cell_length_a   5.29533700
_cell_length_b   12.71029285
_cell_length_c   14.51495267
_cell_angle_alpha   90.96772948
_cell_angle_beta   79.48984705
_cell_angle_gamma   90.00000000
_symmetry_Int_Tables_number   1
_chemical_formula_structural   Ba11Cu4Bi9O29
_chemical_formula_sum   'Ba11 Cu4 Bi9 O29'
_cell_volume   960.40089398
_cell_formula_units_Z   1
loop_
 _symmetry_equiv_pos_site_id
 _symmetry_equiv_pos_as_xyz
  1  'x, y, z'
loop_
 _atom_site_type_symbol
 _atom_site_label
 _atom_site_symmetry_multiplicity
 _atom_site_fract_x
 _atom_site_fract_y
 _atom_site_fract_z
 _atom_site_occupancy
  Ba  Ba0  1  0.47388300  0.73634500  0.05223300  1
  Ba  Ba1  1  0.52765900  0.26753700  0.94468200  1
  Ba  Ba2  1  0.29216800  0.56019800  0.41566400  1
  Ba  Ba3  1  0.69533400  0.44864500  0.60933200  1
  Ba  Ba4  1  0.93669300  0.95049100  0.12661500  1
  Ba  Ba5  1  0.06350700  0.04956900  0.87298500  1
  Ba  Ba6  1  0.13878100  0.65402300  0.72243900  1
  Ba  Ba7  1  0.85385900  0.33951000  0.29228200  1
  Ba  Ba8  1  0.39854900  0.14819700  0.20290300  1
  Ba  Ba9  1  0.60151000  0.84523500  0.79698000  1
  Ba  Ba10  1  0.01124600  0.51499600  0.97750800  1
  Cu  Cu0  1  0.50023600  0.00178000  0.99952800  1
  Cu  Cu1  1  0.96545500  0.21332900  0.06908900  1
  Cu  Cu2  1  0.03448700  0.79051100  0.93102500  1
  Cu  Cu3  1  0.57314600  0.58148900  0.85370800  1
  Bi  Bi0  1  0.79690000  0.06969800  0.40620000  1
  Bi  Bi1  1  0.20289400  0.92898400  0.59421100  1
  Bi  Bi2  1  0.87837200  0.67196900  0.24325600  1
  Bi  Bi3  1  0.12266700  0.31491500  0.75466700  1
  Bi  Bi4  1  0.24996600  0.23655600  0.50006900  1
  Bi  Bi5  1  0.75223200  0.76972000  0.49553600  1
  Bi  Bi6  1  0.33674900  0.86725800  0.32650200  1
  Bi  Bi7  1  0.66484400  0.12862800  0.67031300  1
  Bi  Bi8  1  0.42230900  0.43917100  0.15538200  1
  O  O0  1  0.94623900  0.73086600  0.10752200  1
  O  O1  1  0.05252100  0.26696600  0.89495700  1
  O  O2  1  0.77355400  0.59799800  0.45289200  1
  O  O3  1  0.22333800  0.40164700  0.55332500  1
  O  O4  1  0.76238600  0.23661400  0.47522800  1
  O  O5  1  0.23984200  0.76350900  0.52031600  1
  O  O6  1  0.63945000  0.61070500  0.72110000  1
  O  O7  1  0.34836900  0.38557300  0.30326100  1
  O  O8  1  0.40409200  0.92763900  0.19181500  1
  O  O9  1  0.59767400  0.06745100  0.80465300  1
  O  O10  1  0.72905600  0.10669700  0.03721600  1
  O  O11  1  0.76719300  0.89728700  0.96351600  1
  O  O12  1  0.26929100  0.89728700  0.96351600  1
  O  O13  1  0.23372800  0.10669700  0.03721600  1
  O  O14  1  0.81925900  0.86605600  0.36148100  1
  O  O15  1  0.18503000  0.13308900  0.62993900  1
  O  O16  1  0.10499300  0.47137700  0.79001400  1
  O  O17  1  0.90270800  0.51580400  0.19458500  1
  O  O18  1  0.69092500  0.31144800  0.11720500  1
  O  O19  1  0.82092700  0.68776800  0.88963000  1
  O  O20  1  0.28944300  0.68776800  0.88963000  1
  O  O21  1  0.19187000  0.31144800  0.11720500  1
  O  O22  1  0.30071400  0.06913500  0.39857300  1
  O  O23  1  0.70034900  0.92266300  0.59930300  1
  O  O24  1  0.86557100  0.12357700  0.26885700  1
  O  O25  1  0.13395800  0.87790700  0.73208300  1
  O  O26  1  0.36615900  0.70110600  0.26768200  1
  O  O27  1  0.63402800  0.28891200  0.73194500  1
  O  O28  1  0.51388600  0.50625300  0.97222800  1
loop_
_geom_bond_atom_site_label_1
_geom_bond_atom_site_label_2
_geom_bond_distance
_geom_bond_site_symmetry_2
Ba0 O12 2.759429 1_554
Ba0 O11 2.759432 1_554
Ba0 O0 2.763960 1_455
Ba0 O0 2.763965 1_555
Ba0 O20 2.774393 1_554
Ba0 O19 2.774396 1_554
Ba0 O26 3.114820 1_555
Ba0 O8 3.116653 1_555
Ba0 O28 3.121197 1_554
Ba1 O1 2.741096 1_655
Ba1 O1 2.741101 1_555
Ba1 O13 2.781350 1_556
Ba1 O10 2.781350 1_556
Ba1 O21 2.841195 1_556
Ba1 O18 2.841195 1_556
Ba1 O28 3.052808 1_555
Ba1 O27 3.052837 1_555
Ba1 O9 3.207285 1_555
Ba2 O7 2.716122 1_555
Ba2 O2 2.741256 1_455
Ba2 O2 2.741256 1_555
Ba2 O26 2.792444 1_555
Ba2 O3 2.838467 1_555
Ba2 O5 2.962405 1_555
Ba3 O6 2.583473 1_555
Ba3 O27 2.702961 1_555
Ba3 O3 2.826561 1_555
Ba3 O3 2.826566 1_655
Ba3 O2 2.955305 1_555
Ba3 O4 3.278497 1_555
Ba4 O13 2.728033 1_665
Ba4 O10 2.728036 1_565
Ba4 O12 2.754718 1_654
Ba4 O11 2.754721 1_554
Ba4 O0 2.800103 1_555
Ba4 O8 2.823047 1_655
Ba4 O8 2.823057 1_555
Ba4 O24 2.967717 1_565
Ba5 O11 2.696073 1_445
Ba5 O12 2.696076 1_545
Ba5 O1 2.775558 1_555
Ba5 O10 2.783462 1_456
Ba5 O13 2.783464 1_556
Ba5 O9 2.832031 1_455
Ba5 O9 2.832041 1_555
Ba5 O25 2.941675 1_545
Ba6 O16 2.529082 1_555
Ba6 O6 2.704308 1_555
Ba6 O6 2.704313 1_455
Ba6 O20 2.716769 1_555
Ba6 O19 2.716771 1_455
Ba6 O25 2.846595 1_555
Ba6 O5 3.224171 1_555
Ba7 O17 2.659378 1_555
Ba7 O7 2.715569 1_655
Ba7 O7 2.715574 1_555
Ba7 O24 2.759151 1_555
Ba7 O21 2.845833 1_655
Ba7 O18 2.845833 1_555
Ba7 O4 2.940162 1_555
Ba8 O10 2.747108 1_555
Ba8 O13 2.747110 1_555
Ba8 O18 2.763041 1_555
Ba8 O21 2.763044 1_555
Ba8 O8 2.805104 1_545
Ba8 O24 2.829157 1_555
Ba8 O24 2.829167 1_455
Ba8 O22 2.983997 1_555
Ba8 O7 3.317513 1_555
Ba9 O12 2.787523 1_555
Ba9 O11 2.787523 1_555
Ba9 O20 2.797366 1_555
Ba9 O19 2.797367 1_555
Ba9 O9 2.824672 1_565
Ba9 O25 2.837885 1_655
Ba9 O25 2.837890 1_555
Ba9 O23 3.003780 1_555
Ba9 O6 3.154019 1_555
Ba10 O28 2.651016 1_555
Ba10 O28 2.651016 1_455
Ba10 O16 2.723298 1_555
Ba10 O20 2.833481 1_555
Ba10 O19 2.833481 1_455
Ba10 O17 3.097840 1_456
Ba10 O0 3.285758 1_456
Ba10 O1 3.346467 1_555
Cu0 O11 1.934553 1_545
Cu0 O12 1.934553 1_545
Cu0 O13 1.939815 1_556
Cu0 O10 1.939815 1_556
Cu1 O18 1.938192 1_555
Cu1 O21 1.938195 1_655
Cu1 O10 1.951427 1_555
Cu1 O13 1.951431 1_655
Cu1 O1 2.588196 1_654
Cu2 O19 1.888552 1_455
Cu2 O20 1.888556 1_555
Cu2 O11 1.950007 1_455
Cu2 O12 1.950011 1_555
Cu2 O0 2.642916 1_456
Cu3 O6 1.934843 1_555
Cu3 O28 1.957301 1_555
Cu3 O20 2.010965 1_555
Cu3 O19 2.010965 1_555
Bi0 O24 2.087345 1_555
Bi0 O4 2.323716 1_555
Bi0 O22 2.649907 1_555
Bi0 O22 2.649912 1_655
Bi0 O14 2.655204 1_545
Bi1 O25 2.082527 1_555
Bi1 O5 2.336569 1_555
Bi1 O15 2.635260 1_565
Bi1 O23 2.649916 1_455
Bi1 O23 2.649927 1_555
Bi2 O0 2.088695 1_555
Bi2 O17 2.091638 1_555
Bi2 O26 2.695252 1_555
Bi2 O26 2.695252 1_655
Bi3 O16 2.043244 1_555
Bi3 O1 2.102832 1_555
Bi3 O27 2.687165 1_555
Bi3 O27 2.687165 1_455
Bi4 O3 2.219451 1_555
Bi4 O15 2.290943 1_555
Bi4 O22 2.553526 1_555
Bi4 O4 2.671297 1_555
Bi4 O4 2.671302 1_455
Bi5 O2 2.255804 1_555
Bi5 O14 2.289093 1_555
Bi5 O23 2.423451 1_555
Bi5 O5 2.672528 1_555
Bi5 O5 2.672528 1_655
Bi6 O8 2.081931 1_555
Bi6 O26 2.259123 1_555
Bi6 O14 2.694407 1_555
Bi6 O14 2.694413 1_455
Bi6 O22 2.747942 1_565
Bi7 O9 2.081247 1_555
Bi7 O27 2.205110 1_555
Bi7 O15 2.710435 1_655
Bi7 O15 2.710445 1_555
Bi7 O23 2.790903 1_545
Bi8 O18 2.155876 1_555
Bi8 O21 2.155876 1_555
Bi8 O7 2.228781 1_555
Bi8 O28 2.763306 1_554
Bi8 O17 2.872832 1_455
Bi8 O17 2.872837 1_555
