# generated using pymatgen
data_Zn3Sb2H18(Se2N3)3
_symmetry_space_group_name_H-M   'P 1'
_cell_length_a   7.59574600
_cell_length_b   12.23038300
_cell_length_c   13.25507078
_cell_angle_alpha   90.00000000
_cell_angle_beta   93.64249439
_cell_angle_gamma   90.00000000
_symmetry_Int_Tables_number   1
_chemical_formula_structural   Zn3Sb2H18(Se2N3)3
_chemical_formula_sum   'Zn6 Sb4 H36 Se12 N18'
_cell_volume   1228.89373330
_cell_formula_units_Z   2
loop_
 _symmetry_equiv_pos_site_id
 _symmetry_equiv_pos_as_xyz
  1  'x, y, z'
loop_
 _atom_site_type_symbol
 _atom_site_label
 _atom_site_symmetry_multiplicity
 _atom_site_fract_x
 _atom_site_fract_y
 _atom_site_fract_z
 _atom_site_occupancy
  Zn  Zn0  1  0.34158100  0.76392100  0.80853400  1
  Zn  Zn1  1  0.65841900  0.26392100  0.19146600  1
  Zn  Zn2  1  0.85931200  0.02838600  0.63302400  1
  Zn  Zn3  1  0.14068800  0.52838600  0.36697600  1
  Zn  Zn4  1  0.14090100  0.40191700  0.84888000  1
  Zn  Zn5  1  0.85909900  0.90191700  0.15112000  1
  Sb  Sb0  1  0.08278600  0.76176100  0.54100600  1
  Sb  Sb1  1  0.91721400  0.26176100  0.45899400  1
  Sb  Sb2  1  0.82893400  0.76545600  0.78851500  1
  Sb  Sb3  1  0.17106600  0.26545600  0.21148500  1
  H  H0  1  0.59530500  0.03016100  0.49562600  1
  H  H1  1  0.40469500  0.53016100  0.50437400  1
  H  H2  1  0.52771500  0.95662700  0.58975600  1
  H  H3  1  0.47228500  0.45662700  0.41024400  1
  H  H4  1  0.65204300  0.89993700  0.50842800  1
  H  H5  1  0.34795700  0.39993700  0.49157200  1
  H  H6  1  0.46194100  0.96807300  0.80221300  1
  H  H7  1  0.53805900  0.46807300  0.19778700  1
  H  H8  1  0.26488900  0.96981500  0.85207000  1
  H  H9  1  0.73511100  0.46981500  0.14793000  1
  H  H10  1  0.27493900  0.95870000  0.72833200  1
  H  H11  1  0.72506100  0.45870000  0.27166800  1
  H  H12  1  0.40944400  0.52325200  0.91871500  1
  H  H13  1  0.59055600  0.02325200  0.08128500  1
  H  H14  1  0.43051700  0.39450300  0.96100100  1
  H  H15  1  0.56948300  0.89450300  0.03899900  1
  H  H16  1  0.29475900  0.47846500  0.01281900  1
  H  H17  1  0.70524100  0.97846500  0.98718100  1
  H  H18  1  0.13973400  0.20421600  0.91855800  1
  H  H19  1  0.86026600  0.70421600  0.08144200  1
  H  H20  1  0.27387400  0.20731300  0.82569600  1
  H  H21  1  0.72612600  0.70731300  0.17430400  1
  H  H22  1  0.05711800  0.20170000  0.79829300  1
  H  H23  1  0.94288200  0.70170000  0.20170700  1
  H  H24  1  0.04386100  0.46322300  0.66366800  1
  H  H25  1  0.95613900  0.96322300  0.33633200  1
  H  H26  1  0.22836600  0.39451800  0.66742500  1
  H  H27  1  0.77163400  0.89451800  0.33257500  1
  H  H28  1  0.23159300  0.52590000  0.69787800  1
  H  H29  1  0.76840700  0.02590000  0.30212200  1
  H  H30  1  0.91156700  0.51799100  0.93178600  1
  H  H31  1  0.08843300  0.01799100  0.06821400  1
  H  H32  1  0.89130400  0.38732400  0.96996600  1
  H  H33  1  0.10869600  0.88732400  0.03003400  1
  H  H34  1  0.80244600  0.42877100  0.85767700  1
  H  H35  1  0.19755400  0.92877100  0.14232300  1
  Se  Se0  1  0.12276000  0.97263900  0.54550300  1
  Se  Se1  1  0.87724000  0.47263900  0.45449700  1
  Se  Se2  1  0.37877200  0.69888500  0.63520700  1
  Se  Se3  1  0.62122800  0.19888500  0.36479300  1
  Se  Se4  1  0.09525200  0.71493000  0.91143100  1
  Se  Se5  1  0.90474800  0.21493000  0.08856900  1
  Se  Se6  1  0.60189300  0.70447000  0.91572500  1
  Se  Se7  1  0.39810700  0.20447000  0.08427500  1
  Se  Se8  1  0.82387900  0.97690900  0.81165100  1
  Se  Se9  1  0.17612100  0.47690900  0.18834900  1
  Se  Se10  1  0.81717800  0.22978000  0.64031600  1
  Se  Se11  1  0.18282200  0.72978000  0.35968400  1
  N  N0  1  0.63376300  0.97095000  0.54763600  1
  N  N1  1  0.36623700  0.47095000  0.45236400  1
  N  N2  1  0.33602300  0.93608300  0.79680800  1
  N  N3  1  0.66397700  0.43608300  0.20319200  1
  N  N4  1  0.34235700  0.45657100  0.94441800  1
  N  N5  1  0.65764300  0.95657100  0.05558200  1
  N  N6  1  0.15426600  0.23419600  0.84713000  1
  N  N7  1  0.84573400  0.73419600  0.15287000  1
  N  N8  1  0.16223900  0.45363800  0.70500200  1
  N  N9  1  0.83776100  0.95363800  0.29499800  1
  N  N10  1  0.90863700  0.43773000  0.90880900  1
  N  N11  1  0.09136300  0.93773000  0.09119100  1
  N  N12  1  0.58322200  0.20911500  0.84029700  1
  N  N13  1  0.41677800  0.70911500  0.15970300  1
  N  N14  1  0.35838400  0.25120900  0.59686900  1
  N  N15  1  0.64161600  0.75120900  0.40313100  1
  N  N16  1  0.64278900  0.47315500  0.71686700  1
  N  N17  1  0.35721100  0.97315500  0.28313300  1
loop_
_geom_bond_atom_site_label_1
_geom_bond_atom_site_label_2
_geom_bond_distance
_geom_bond_site_symmetry_2
Sb0 Se11 2.595941 1_555
Sb0 Se0 2.597171 1_555
Sb0 Se2 2.616931 1_555
Sb1 Se10 2.595941 1_555
Sb1 Se1 2.597171 1_555
Sb1 Se3 2.616931 1_555
Sb2 Se4 2.590298 1_655
Sb2 Se6 2.596743 1_555
Sb2 Se8 2.604841 1_555
Sb3 Se5 2.590298 1_455
Sb3 Se7 2.596743 1_555
Sb3 Se9 2.604841 1_555
H0 N0 1.029290 1_545
H1 N1 1.029290 1_555
H2 N0 1.023906 1_555
H3 N1 1.023906 1_555
H4 N0 1.026091 1_555
H5 N1 1.026091 1_555
H6 N2 1.031641 1_555
H7 N3 1.031641 1_555
H8 N2 1.024202 1_555
H9 N3 1.024202 1_555
H10 N2 1.030591 1_555
H11 N3 1.030591 1_555
H12 N4 1.030968 1_555
H13 N5 1.030968 1_545
H14 N4 1.026786 1_555
H15 N5 1.026786 1_555
H16 N4 1.032520 1_554
H17 N5 1.032520 1_556
H18 N6 1.027767 1_555
H19 N7 1.027767 1_555
H20 N6 1.023236 1_555
H21 N7 1.023236 1_555
H22 N6 1.029962 1_555
H23 N7 1.029962 1_555
H24 N8 1.029481 1_555
H25 N9 1.029481 1_555
H26 N8 1.027124 1_555
H27 N9 1.027124 1_555
H28 N8 1.036262 1_555
H29 N9 1.036262 1_545
H30 N10 1.027607 1_555
H31 N11 1.027607 1_545
H32 N10 1.033482 1_555
H33 N11 1.033482 1_555
H34 N10 1.025916 1_555
H35 N11 1.025916 1_555
Se0 Zn2 2.471840 1_465
Se1 Zn3 2.471840 1_655
Se2 Zn0 2.464403 1_555
Se3 Zn1 2.464403 1_555
Se4 Zn0 2.458526 1_555
Se5 Zn1 2.458526 1_555
Se6 Zn0 2.469826 1_555
Se7 Zn1 2.469826 1_555
Se8 Zn2 2.481098 1_565
Se9 Zn3 2.481098 1_555
Se10 Zn2 2.486501 1_555
Se11 Zn3 2.486501 1_555
N0 Zn2 2.112629 1_565
N1 Zn3 2.112629 1_555
N2 Zn0 2.111561 1_555
N3 Zn1 2.111561 1_555
N4 Zn4 2.036125 1_555
N5 Zn5 2.036125 1_555
N6 Zn4 2.054006 1_555
N7 Zn5 2.054006 1_555
N8 Zn4 2.025529 1_555
N9 Zn5 2.025529 1_555
N10 Zn4 2.028151 1_655
N11 Zn5 2.028151 1_455
