# generated using pymatgen
data_LaSm3(FeO3)4
_symmetry_space_group_name_H-M   'P 1'
_cell_length_a   7.82469300
_cell_length_b   5.47596000
_cell_length_c   5.69631921
_cell_angle_alpha   89.93915681
_cell_angle_beta   90.00000000
_cell_angle_gamma   90.00000000
_symmetry_Int_Tables_number   1
_chemical_formula_structural   LaSm3(FeO3)4
_chemical_formula_sum   'La1 Sm3 Fe4 O12'
_cell_volume   244.07407257
_cell_formula_units_Z   1
loop_
 _symmetry_equiv_pos_site_id
 _symmetry_equiv_pos_as_xyz
  1  'x, y, z'
loop_
 _atom_site_type_symbol
 _atom_site_label
 _atom_site_symmetry_multiplicity
 _atom_site_fract_x
 _atom_site_fract_y
 _atom_site_fract_z
 _atom_site_occupancy
  La  La0  1  0.50000000  0.48817200  0.55106900  1
  Sm  Sm0  1  0.50000000  0.01491900  0.05958800  1
  Sm  Sm1  1  0.00000000  0.51484500  0.43608600  1
  Sm  Sm2  1  0.00000000  0.98631100  0.93953800  1
  Fe  Fe0  1  0.24798200  0.49931200  0.99838000  1
  Fe  Fe1  1  0.75269700  0.00053700  0.50026200  1
  Fe  Fe2  1  0.75201800  0.49931200  0.99838000  1
  Fe  Fe3  1  0.24730300  0.00053700  0.50026200  1
  O  O0  1  0.29910600  0.19396700  0.80536900  1
  O  O1  1  0.70411200  0.29787400  0.29703200  1
  O  O2  1  0.80388400  0.79867300  0.20111000  1
  O  O3  1  0.19544900  0.69848500  0.69891700  1
  O  O4  1  0.19611600  0.79867300  0.20111000  1
  O  O5  1  0.80455100  0.69848500  0.69891700  1
  O  O6  1  0.70089400  0.19396700  0.80536900  1
  O  O7  1  0.29588800  0.29787400  0.29703200  1
  O  O8  1  0.50000000  0.60012800  0.97643100  1
  O  O9  1  0.50000000  0.91587400  0.46783900  1
  O  O10  1  0.00000000  0.39899000  0.03180000  1
  O  O11  1  0.00000000  0.10306400  0.53551100  1
loop_
_geom_bond_atom_site_label_1
_geom_bond_atom_site_label_2
_geom_bond_distance
_geom_bond_site_symmetry_2
La0 O9 2.389090 1_555
La0 O1 2.394557 1_555
La0 O7 2.394557 1_555
La0 O8 2.499985 1_555
La0 O0 2.675796 1_555
La0 O6 2.675796 1_555
La0 O5 2.777850 1_555
La0 O3 2.777850 1_555
Fe0 O10 2.025562 1_556
Fe0 O0 2.041690 1_555
Fe0 O4 2.046848 1_556
Fe0 O8 2.051561 1_555
Fe0 O7 2.060927 1_556
Fe0 O3 2.065052 1_555
Fe1 O11 2.024910 1_655
Fe1 O1 2.032672 1_555
Fe1 O9 2.039326 1_545
Fe1 O5 2.043764 1_545
Fe1 O2 2.071271 1_545
Fe1 O6 2.076234 1_555
Fe2 O10 2.025562 1_656
Fe2 O6 2.041690 1_555
Fe2 O2 2.046848 1_556
Fe2 O8 2.051561 1_555
Fe2 O1 2.060927 1_556
Fe2 O5 2.065052 1_555
Fe3 O11 2.024910 1_555
Fe3 O7 2.032672 1_555
Fe3 O9 2.039326 1_545
Fe3 O3 2.043764 1_545
Fe3 O4 2.071271 1_545
Fe3 O0 2.076234 1_555
O0 Sm0 2.350807 1_556
O0 Sm2 2.711609 1_545
O1 Sm0 2.604886 1_555
O1 Sm1 2.720544 1_655
O2 Sm2 2.372220 1_654
O2 Sm1 2.560787 1_655
O2 Sm0 2.775609 1_565
O3 Sm1 2.365333 1_555
O3 Sm2 2.589651 1_555
O4 Sm2 2.372220 1_554
O4 Sm1 2.560787 1_555
O4 Sm0 2.775609 1_565
O5 Sm1 2.365333 1_655
O5 Sm2 2.589651 1_655
O6 Sm0 2.350807 1_556
O6 Sm2 2.711609 1_645
O7 Sm0 2.604886 1_555
O7 Sm1 2.720544 1_555
O8 Sm0 2.320739 1_566
O9 Sm0 2.387376 1_565
O10 Sm2 2.320665 1_544
O10 Sm1 2.389379 1_555
O11 Sm1 2.324350 1_555
O11 Sm2 2.387964 1_545
