# generated using pymatgen
data_TiZn(OF)6
_symmetry_space_group_name_H-M   'P 1'
_cell_length_a   5.98007038
_cell_length_b   7.63011358
_cell_length_c   9.00511400
_cell_angle_alpha   90.00000000
_cell_angle_beta   90.00000000
_cell_angle_gamma   100.77946918
_symmetry_Int_Tables_number   1
_chemical_formula_structural   TiZn(OF)6
_chemical_formula_sum   'Ti2 Zn2 O12 F12'
_cell_volume   403.64044652
_cell_formula_units_Z   2
loop_
 _symmetry_equiv_pos_site_id
 _symmetry_equiv_pos_as_xyz
  1  'x, y, z'
loop_
 _atom_site_type_symbol
 _atom_site_label
 _atom_site_symmetry_multiplicity
 _atom_site_fract_x
 _atom_site_fract_y
 _atom_site_fract_z
 _atom_site_occupancy
  Ti  Ti0  1  0.50000000  0.00000000  0.50000000  1
  Ti  Ti1  1  0.50000000  0.50000000  0.00000000  1
  Zn  Zn0  1  0.00000000  0.50000000  0.50000000  1
  Zn  Zn1  1  0.00000000  0.00000000  0.00000000  1
  O  O0  1  0.17602200  0.59093100  0.32023100  1
  O  O1  1  0.17602200  0.09093100  0.17976900  1
  O  O2  1  0.82397800  0.40906900  0.67976900  1
  O  O3  1  0.82397800  0.90906900  0.82023100  1
  O  O4  1  0.91332900  0.73524900  0.53875500  1
  O  O5  1  0.91332900  0.23524900  0.96124500  1
  O  O6  1  0.08667100  0.26475100  0.46124500  1
  O  O7  1  0.08667100  0.76475100  0.03875500  1
  O  O8  1  0.25953400  0.52937100  0.64073700  1
  O  O9  1  0.25953400  0.02937100  0.85926300  1
  O  O10  1  0.74046600  0.47062900  0.35926300  1
  O  O11  1  0.74046600  0.97062900  0.14073700  1
  F  F0  1  0.55026200  0.76967300  0.55014400  1
  F  F1  1  0.55026200  0.26967300  0.94985600  1
  F  F2  1  0.44973800  0.23032700  0.44985600  1
  F  F3  1  0.44973800  0.73032700  0.05014400  1
  F  F4  1  0.32437900  0.89733900  0.33662700  1
  F  F5  1  0.32437900  0.39733900  0.16337300  1
  F  F6  1  0.67562100  0.10266100  0.66337300  1
  F  F7  1  0.67562100  0.60266100  0.83662700  1
  F  F8  1  0.23162000  0.95927900  0.61706400  1
  F  F9  1  0.23162000  0.45927800  0.88293600  1
  F  F10  1  0.76838000  0.04072200  0.38293600  1
  F  F11  1  0.76838000  0.54072100  0.11706400  1
loop_
_geom_bond_atom_site_label_1
_geom_bond_atom_site_label_2
_geom_bond_distance
_geom_bond_site_symmetry_2
O0 Zn0 1.984151 1_555
O1 Zn1 1.984151 1_555
O2 Zn0 1.984151 1_655
O3 Zn1 1.984151 1_666
O4 Zn0 1.990068 1_655
O5 Zn1 1.990068 1_656
O6 Zn0 1.990068 1_555
O7 Zn1 1.990068 1_565
O8 Zn0 1.983710 1_555
O9 Zn1 1.983710 1_556
O10 Zn0 1.983710 1_655
O11 Zn1 1.983710 1_665
F0 Ti0 1.892184 1_565
F1 Ti1 1.892184 1_556
F2 Ti0 1.892184 1_555
F3 Ti1 1.892184 1_555
F4 Ti0 1.890302 1_565
F5 Ti1 1.890302 1_555
F6 Ti0 1.890302 1_555
F7 Ti1 1.890302 1_556
F8 Ti0 1.896602 1_565
F9 Ti1 1.896602 1_556
F10 Ti0 1.896602 1_555
F11 Ti1 1.896602 1_555
