# generated using pymatgen
data_CdH4(C2O3)2
_symmetry_space_group_name_H-M   'P 1'
_cell_length_a   12.25960600
_cell_length_b   6.49023700
_cell_length_c   8.32896569
_cell_angle_alpha   77.53074123
_cell_angle_beta   90.00000000
_cell_angle_gamma   90.00000000
_symmetry_Int_Tables_number   1
_chemical_formula_structural   CdH4(C2O3)2
_chemical_formula_sum   'Cd4 H16 C16 O24'
_cell_volume   647.08487354
_cell_formula_units_Z   4
loop_
 _symmetry_equiv_pos_site_id
 _symmetry_equiv_pos_as_xyz
  1  'x, y, z'
loop_
 _atom_site_type_symbol
 _atom_site_label
 _atom_site_symmetry_multiplicity
 _atom_site_fract_x
 _atom_site_fract_y
 _atom_site_fract_z
 _atom_site_occupancy
  Cd  Cd0  1  0.13197200  0.17741600  0.77252100  1
  Cd  Cd1  1  0.63197200  0.32258400  0.22747900  1
  Cd  Cd2  1  0.86802800  0.82258400  0.22747900  1
  Cd  Cd3  1  0.36802800  0.67741600  0.77252100  1
  H  H0  1  0.94438200  0.26108700  0.94892800  1
  H  H1  1  0.44438200  0.23891300  0.05107200  1
  H  H2  1  0.05561800  0.73891300  0.05107200  1
  H  H3  1  0.55561800  0.76108700  0.94892800  1
  H  H4  1  0.90864900  0.32414500  0.75732400  1
  H  H5  1  0.40864900  0.17585500  0.24267600  1
  H  H6  1  0.09135100  0.67585500  0.24267600  1
  H  H7  1  0.59135100  0.82414500  0.75732400  1
  H  H8  1  0.35945700  0.14509000  0.74697000  1
  H  H9  1  0.85945700  0.35491000  0.25303000  1
  H  H10  1  0.64054300  0.85491000  0.25303000  1
  H  H11  1  0.14054300  0.64509000  0.74697000  1
  H  H12  1  0.30908800  0.10573300  0.57565600  1
  H  H13  1  0.80908800  0.39426700  0.42434400  1
  H  H14  1  0.69091200  0.89426700  0.42434400  1
  H  H15  1  0.19091200  0.60573300  0.57565600  1
  C  C0  1  0.09409600  0.19737800  0.38702100  1
  C  C1  1  0.59409600  0.30262200  0.61297900  1
  C  C2  1  0.90590400  0.80262200  0.61297900  1
  C  C3  1  0.40590400  0.69737800  0.38702100  1
  C  C4  1  0.20395300  0.17397100  0.32193300  1
  C  C5  1  0.70395300  0.32602900  0.67806700  1
  C  C6  1  0.79604700  0.82602900  0.67806700  1
  C  C7  1  0.29604700  0.67397100  0.32193300  1
  C  C8  1  0.15686100  0.16568800  0.16054100  1
  C  C9  1  0.65686100  0.33431200  0.83945900  1
  C  C10  1  0.84313900  0.83431200  0.83945900  1
  C  C11  1  0.34313900  0.66568800  0.16054100  1
  C  C12  1  0.04694200  0.18414300  0.22773600  1
  C  C13  1  0.54694200  0.31585700  0.77226400  1
  C  C14  1  0.95305800  0.81585700  0.77226400  1
  C  C15  1  0.45305800  0.68414300  0.22773600  1
  O  O0  1  0.05472900  0.21842800  0.52185400  1
  O  O1  1  0.55472900  0.28157200  0.47814600  1
  O  O2  1  0.94527100  0.78157200  0.47814600  1
  O  O3  1  0.44527100  0.71842800  0.52185400  1
  O  O4  1  0.29902300  0.16108100  0.38141300  1
  O  O5  1  0.79902300  0.33891900  0.61858700  1
  O  O6  1  0.70097700  0.83891900  0.61858700  1
  O  O7  1  0.20097700  0.66108100  0.38141300  1
  O  O8  1  0.19924400  0.14414800  0.02725600  1
  O  O9  1  0.69924400  0.35585200  0.97274400  1
  O  O10  1  0.80075600  0.85585200  0.97274400  1
  O  O11  1  0.30075600  0.64414800  0.02725600  1
  O  O12  1  0.94933000  0.18194300  0.17338900  1
  O  O13  1  0.44933000  0.31805700  0.82661100  1
  O  O14  1  0.05067000  0.81805700  0.82661100  1
  O  O15  1  0.55067000  0.68194300  0.17338900  1
  O  O16  1  0.97075700  0.31598200  0.83546400  1
  O  O17  1  0.47075700  0.18401800  0.16453600  1
  O  O18  1  0.02924300  0.68401800  0.16453600  1
  O  O19  1  0.52924300  0.81598200  0.83546400  1
  O  O20  1  0.30601400  0.05628800  0.70104600  1
  O  O21  1  0.80601400  0.44371200  0.29895400  1
  O  O22  1  0.69398600  0.94371200  0.29895400  1
  O  O23  1  0.19398600  0.55628800  0.70104600  1
loop_
_geom_bond_atom_site_label_1
_geom_bond_atom_site_label_2
_geom_bond_distance
_geom_bond_site_symmetry_2
Cd0 O8 2.242876 1_556
Cd0 O0 2.255331 1_555
Cd0 O16 2.278927 1_455
Cd0 O20 2.393145 1_555
Cd0 O14 2.486449 1_545
Cd0 O23 2.519284 1_555
Cd1 O9 2.242876 1_554
Cd1 O1 2.255331 1_555
Cd1 O17 2.278927 1_555
Cd1 O21 2.393145 1_555
Cd1 O15 2.486449 1_555
Cd1 O22 2.519284 1_545
Cd2 O10 2.242876 1_554
Cd2 O2 2.255331 1_555
Cd2 O18 2.278927 1_655
Cd2 O22 2.393145 1_555
Cd2 O12 2.486449 1_565
Cd2 O21 2.519284 1_555
Cd3 O11 2.242876 1_556
Cd3 O3 2.255331 1_555
Cd3 O19 2.278927 1_555
Cd3 O23 2.393145 1_555
Cd3 O13 2.486449 1_555
Cd3 O20 2.519284 1_565
H0 O16 0.989540 1_555
H1 O17 0.989540 1_555
H2 O18 0.989540 1_555
H3 O19 0.989540 1_555
H4 O16 0.995616 1_555
H5 O17 0.995616 1_555
H6 O18 0.995616 1_555
H7 O19 0.995616 1_555
H8 O20 1.001475 1_555
H9 O21 1.001475 1_555
H10 O22 1.001475 1_555
H11 O23 1.001475 1_555
H12 O20 1.024882 1_555
H12 O4 1.584524 1_555
H13 O21 1.024882 1_555
H13 O5 1.584524 1_555
H14 O22 1.024882 1_555
H14 O6 1.584524 1_555
H15 O23 1.024882 1_555
H15 O7 1.584524 1_555
C0 O0 1.256590 1_555
C1 O1 1.256590 1_555
C2 O2 1.256590 1_555
C3 O3 1.256590 1_555
C4 O4 1.262128 1_555
C5 O5 1.262128 1_555
C6 O6 1.262128 1_555
C7 O7 1.262128 1_555
C8 O8 1.260526 1_555
C9 O9 1.260526 1_555
C10 O10 1.260526 1_555
C11 O11 1.260526 1_555
C12 O12 1.280603 1_455
C13 O13 1.280603 1_555
C14 O14 1.280603 1_655
C15 O15 1.280603 1_555
