# generated using pymatgen
data_Li6V3P8O29
_symmetry_space_group_name_H-M   'P 1'
_cell_length_a   9.80277695
_cell_length_b   9.82211823
_cell_length_c   14.01112124
_cell_angle_alpha   89.60166697
_cell_angle_beta   89.49908873
_cell_angle_gamma   59.90988276
_symmetry_Int_Tables_number   1
_chemical_formula_structural   Li6V3P8O29
_chemical_formula_sum   'Li12 V6 P16 O58'
_cell_volume   1167.19709562
_cell_formula_units_Z   2
loop_
 _symmetry_equiv_pos_site_id
 _symmetry_equiv_pos_as_xyz
  1  'x, y, z'
loop_
 _atom_site_type_symbol
 _atom_site_label
 _atom_site_symmetry_multiplicity
 _atom_site_fract_x
 _atom_site_fract_y
 _atom_site_fract_z
 _atom_site_occupancy
  Li  Li0  1  0.90894112  0.75958621  0.06204109  1
  Li  Li1  1  0.75815290  0.90695753  0.56302427  1
  Li  Li2  1  0.90199504  0.33749453  0.55871600  1
  Li  Li3  1  0.66350182  0.67146099  0.88648934  1
  Li  Li4  1  0.76548615  0.32248246  0.06413248  1
  Li  Li5  1  0.32359595  0.90598726  0.06021663  1
  Li  Li6  1  0.33183493  0.76460890  0.56145934  1
  Li  Li7  1  0.09803520  0.66895514  0.43944977  1
  Li  Li8  1  0.23451684  0.09947565  0.43850335  1
  Li  Li9  1  0.09890071  0.23074003  0.94075744  1
  Li  Li10  1  0.98464992  0.96775432  0.99631840  1
  Li  Li11  1  0.94468490  0.03904000  0.49361532  1
  V  V0  1  0.56008187  0.43629308  0.25145777  1
  V  V1  1  0.43865504  0.55871798  0.75224426  1
  V  V2  1  0.56131257  0.00483119  0.75076538  1
  V  V3  1  0.43916740  0.99825044  0.24769419  1
  V  V4  1  0.00131954  0.56522668  0.24910734  1
  V  V5  1  0.99953867  0.43844039  0.74859375  1
  P  P0  1  0.90698761  0.77806639  0.84296103  1
  P  P1  1  0.77393093  0.91176310  0.34655074  1
  P  P2  1  0.91170009  0.31352736  0.33981074  1
  P  P3  1  0.66737230  0.66346879  0.12794315  1
  P  P4  1  0.66548053  0.67006011  0.63019230  1
  P  P5  1  0.77773323  0.31211058  0.84729196  1
  P  P6  1  0.69920240  0.22159517  0.66098157  1
  P  P7  1  0.31450213  0.90741872  0.84008510  1
  P  P8  1  0.69847453  0.08182989  0.16083738  1
  P  P9  1  0.31355684  0.77361246  0.34301482  1
  P  P10  1  0.22147963  0.69632893  0.15865099  1
  P  P11  1  0.32977330  0.33531822  0.36814561  1
  P  P12  1  0.32985301  0.33219857  0.86926248  1
  P  P13  1  0.08784441  0.68829857  0.65879479  1
  P  P14  1  0.22655824  0.08688471  0.65567756  1
  P  P15  1  0.09133790  0.22658859  0.15717055  1
  O  O0  1  0.99804791  0.77871875  0.57111000  1
  O  O1  1  0.91830286  0.74258479  0.33865016  1
  O  O2  1  0.80440225  0.98622325  0.08046644  1
  O  O3  1  0.74024570  0.91854749  0.83670430  1
  O  O4  1  0.89495106  0.62602804  0.82997508  1
  O  O5  1  0.81192507  0.67353005  0.16505893  1
  O  O6  1  0.91626220  0.46797134  0.32703566  1
  O  O7  1  0.00448978  0.22517247  0.06893854  1
  O  O8  1  0.92311553  0.33443379  0.84069347  1
  O  O9  1  0.67254648  0.81500798  0.67160321  1
  O  O10  1  0.61894146  0.91107375  0.33188909  1
  O  O11  1  0.81270299  0.51592063  0.67205021  1
  O  O12  1  0.66649893  0.66247305  0.02017040  1
  O  O13  1  0.67042969  0.66918869  0.52385823  1
  O  O14  1  0.67511757  0.51054122  0.16828209  1
  O  O15  1  0.47931124  0.89384260  0.82922518  1
  O  O16  1  0.51200242  0.80929518  0.16666721  1
  O  O17  1  0.74425473  0.34394922  0.33727372  1
  O  O18  1  0.79143353  0.20085834  0.76041972  1
  O  O19  1  0.80812069  0.20800873  0.58077443  1
  O  O20  1  0.77977809  0.23261292  0.93896935  1
  O  O21  1  0.62879442  0.47813873  0.83133859  1
  O  O22  1  0.51345161  0.67527988  0.67164164  1
  O  O23  1  0.66408090  0.25229550  0.15907080  1
  O  O24  1  0.47268659  0.62267678  0.32881852  1
  O  O25  1  0.33565911  0.91973192  0.33819552  1
  O  O26  1  0.79210038  0.00893200  0.25979328  1
  O  O27  1  0.78570532  0.98368033  0.43819956  1
  O  O28  1  0.22502662  0.99946428  0.56733785  1
  O  O29  1  0.66544529  0.08473200  0.65879363  1
  O  O30  1  0.54638032  0.38255365  0.66692551  1
  O  O31  1  0.33948107  0.74104962  0.83862031  1
  O  O32  1  0.47797757  0.33349180  0.32045732  1
  O  O33  1  0.38069217  0.54384282  0.16463493  1
  O  O34  1  0.19961033  0.80558521  0.07746269  1
  O  O35  1  0.23000016  0.77427260  0.43451616  1
  O  O36  1  0.19751735  0.79341008  0.25720013  1
  O  O37  1  0.25642112  0.66148905  0.65827121  1
  O  O38  1  0.47397821  0.18451151  0.82221655  1
  O  O39  1  0.54267302  0.07723003  0.16986474  1
  O  O40  1  0.33655113  0.47516285  0.82364384  1
  O  O41  1  0.32472301  0.32579804  0.97450571  1
  O  O42  1  0.32606750  0.33874640  0.47424191  1
  O  O43  1  0.18563310  0.49191423  0.32850189  1
  O  O44  1  0.38177904  0.08706126  0.66627157  1
  O  O45  1  0.32429880  0.18953177  0.32734800  1
  O  O46  1  0.08337274  0.66054754  0.16024421  1
  O  O47  1  0.00426618  0.79089083  0.75292577  1
  O  O48  1  0.98710560  0.77893105  0.93340790  1
  O  O49  1  0.08858439  0.53154064  0.66883733  1
  O  O50  1  0.17936913  0.33407154  0.82658777  1
  O  O51  1  0.09601695  0.37826582  0.17025869  1
  O  O52  1  0.26004308  0.08056538  0.15765426  1
  O  O53  1  0.22847685  0.99818093  0.92870015  1
  O  O54  1  0.20713973  0.99955760  0.74919017  1
  O  O55  1  0.08217559  0.25422751  0.65711882  1
  O  O56  1  0.99786488  0.22492041  0.42947502  1
  O  O57  1  0.00515695  0.20305921  0.24948175  1
loop_
_geom_bond_atom_site_label_1
_geom_bond_atom_site_label_2
_geom_bond_distance
_geom_bond_site_symmetry_2
Li0 O2 1.946300 1_555
Li0 O48 1.997137 1_554
Li0 O46 2.029269 1_655
Li0 O5 2.113617 1_555
Li1 O27 1.969037 1_555
Li1 O29 2.023720 1_565
Li1 O0 2.040124 1_555
Li1 O9 2.133732 1_555
Li2 O19 1.929508 1_555
Li2 O55 2.065894 1_655
Li2 O56 2.083498 1_555
Li2 O11 2.198924 1_555
Li3 O12 1.874281 1_556
Li3 O15 2.172836 1_555
Li3 O4 2.220825 1_555
Li3 O21 2.234105 1_555
Li4 O20 1.940981 1_554
Li4 O23 1.970808 1_555
Li4 O7 2.040513 1_655
Li4 O14 2.167993 1_555
Li5 O34 1.923930 1_555
Li5 O52 2.034383 1_565
Li5 O53 2.060373 1_554
Li5 O16 2.192539 1_555
Li6 O28 2.000893 1_555
Li6 O35 2.025513 1_555
Li6 O37 2.031378 1_555
Li6 O22 2.187604 1_555
Li7 O35 2.021774 1_555
Li7 O1 2.091294 1_455
Li7 O0 2.112443 1_455
Li7 O43 2.166715 1_555
Li8 O56 2.013122 1_455
Li8 O28 2.072704 1_545
Li8 O25 2.080880 1_545
Li8 O45 2.172565 1_555
Li9 O53 1.987943 1_545
Li9 O7 2.026158 1_556
Li9 O8 2.057881 1_455
Li9 O50 2.229197 1_555
Li10 O2 2.046986 1_556
Li10 O48 2.048127 1_555
Li10 O34 2.218375 1_656
Li10 O20 2.491382 1_565
Li11 O19 1.951825 1_555
Li11 O27 2.050364 1_545
Li11 O56 2.309995 1_555
Li11 O0 2.573033 1_545
O0 P13 1.514201 1_655
O1 P1 1.555025 1_555
O1 V4 1.965189 1_655
O2 P8 1.498214 1_565
O3 P0 1.524011 1_555
O3 V2 1.943430 1_565
O4 P0 1.567776 1_555
O4 V5 1.964873 1_555
O5 P3 1.562740 1_555
O5 V4 2.001438 1_655
O6 P2 1.548980 1_555
O6 V4 1.888950 1_655
O7 P15 1.511216 1_555
O8 P5 1.548684 1_555
O8 V5 2.000546 1_555
O9 P4 1.574619 1_555
O9 V2 1.965828 1_565
O10 P1 1.538308 1_555
O10 V3 1.933820 1_555
O11 P4 1.590730 1_555
O11 V5 1.925911 1_555
O12 P3 1.510244 1_555
O13 P4 1.490170 1_555
O14 P3 1.567170 1_555
O14 V0 1.987819 1_555
O15 P7 1.559173 1_555
O15 V2 1.972214 1_565
O16 P3 1.573067 1_555
O16 V3 1.982309 1_555
O17 P2 1.514565 1_555
O17 V0 1.977038 1_555
O18 P5 1.600657 1_555
O18 P6 1.622795 1_555
O19 P6 1.502977 1_555
O20 P5 1.493608 1_555
O21 P5 1.566583 1_555
O21 V1 1.968076 1_555
O22 P4 1.571489 1_555
O22 V1 1.983188 1_555
O23 P8 1.533363 1_555
O23 V0 2.035449 1_555
O24 P9 1.533140 1_555
O24 V0 1.923261 1_555
O25 P9 1.556120 1_555
O25 V3 1.995191 1_555
O26 P1 1.603358 1_545
O26 P8 1.620759 1_555
O27 P1 1.502721 1_555
O28 P14 1.515763 1_565
O29 P6 1.537645 1_555
O29 V2 2.021066 1_555
O30 P6 1.541233 1_555
O30 V1 1.926815 1_555
O31 P7 1.526372 1_555
O31 V1 1.969975 1_555
O32 P11 1.585716 1_555
O32 V0 1.841106 1_555
O33 P10 1.530598 1_555
O33 V0 1.960859 1_555
O34 P10 1.499388 1_555
O35 P9 1.513603 1_555
O36 P9 1.605078 1_555
O36 P10 1.630652 1_555
O37 P13 1.537431 1_555
O37 V1 2.039185 1_555
O38 P12 1.573787 1_555
O38 V2 1.828765 1_555
O39 P8 1.554471 1_555
O39 V3 1.891710 1_545
O40 P12 1.569681 1_555
O40 V1 1.863022 1_555
O41 P12 1.476970 1_555
O42 P11 1.486857 1_555
O43 P11 1.579055 1_555
O43 V4 1.933873 1_555
O44 P14 1.530975 1_555
O44 V2 1.936235 1_555
O45 P11 1.571315 1_555
O45 V3 1.982216 1_545
O46 P10 1.559915 1_555
O46 V4 1.948116 1_555
O47 P13 1.611786 1_555
O47 P0 1.616723 1_455
O48 P0 1.499028 1_555
O49 P13 1.541531 1_555
O49 V5 1.901585 1_455
O50 P12 1.588081 1_555
O50 V5 1.886455 1_455
O51 P15 1.525672 1_555
O51 V4 1.937877 1_555
O52 P15 1.553635 1_555
O52 V3 1.982290 1_545
O53 P7 1.513503 1_555
O54 P7 1.612739 1_555
O54 P14 1.622451 1_565
O55 P14 1.540298 1_555
O55 V5 2.029054 1_455
O56 P2 1.521644 1_555
O57 P15 1.616315 1_555
O57 P2 1.618779 1_455
