# generated using pymatgen
data_KBa2I5
_symmetry_space_group_name_H-M   'P 1'
_cell_length_a   9.32434052
_cell_length_b   10.38258060
_cell_length_c   14.95073694
_cell_angle_alpha   89.71385549
_cell_angle_beta   90.00000000
_cell_angle_gamma   90.00000000
_symmetry_Int_Tables_number   1
_chemical_formula_structural   KBa2I5
_chemical_formula_sum   'K4 Ba8 I20'
_cell_volume   1447.37351180
_cell_formula_units_Z   4
loop_
 _symmetry_equiv_pos_site_id
 _symmetry_equiv_pos_as_xyz
  1  'x, y, z'
loop_
 _atom_site_type_symbol
 _atom_site_label
 _atom_site_symmetry_multiplicity
 _atom_site_fract_x
 _atom_site_fract_y
 _atom_site_fract_z
 _atom_site_occupancy
  K  K0  1  0.02511687  0.49997200  0.32312503  1
  K  K1  1  0.97488313  0.50002800  0.67687497  1
  K  K2  1  0.52511687  0.50002800  0.17687497  1
  K  K3  1  0.47488313  0.49997200  0.82312503  1
  Ba  Ba0  1  0.02689642  0.00033703  0.32205226  1
  Ba  Ba1  1  0.97310358  -0.00033703  0.67794774  1
  Ba  Ba2  1  0.52689642  -0.00033703  0.17794774  1
  Ba  Ba3  1  0.47310358  0.00033703  0.82205226  1
  Ba  Ba4  1  0.07791440  0.25388019  0.00694857  1
  Ba  Ba5  1  0.92208560  0.74611981  0.99305143  1
  Ba  Ba6  1  0.57791440  0.74611981  0.49305143  1
  Ba  Ba7  1  0.42208560  0.25388019  0.50694857  1
  I  I0  1  0.16728315  0.54163366  0.09988402  1
  I  I1  1  0.83271685  0.45836634  0.90011598  1
  I  I2  1  0.66728315  0.45836634  0.40011598  1
  I  I3  1  0.33271685  0.54163366  0.59988402  1
  I  I4  1  0.83041378  0.22546553  0.18401590  1
  I  I5  1  0.16958622  0.77453447  0.81598410  1
  I  I6  1  0.33041378  0.77453447  0.31598410  1
  I  I7  1  0.66958622  0.22546553  0.68401590  1
  I  I8  1  0.30429008  0.23796836  0.28043690  1
  I  I9  1  0.69570992  0.76203164  0.71956310  1
  I  I10  1  0.80429008  0.76203164  0.21956310  1
  I  I11  1  0.19570992  0.23796836  0.78043690  1
  I  I12  1  0.46246295  0.23148354  0.00232830  1
  I  I13  1  0.53753705  0.76851646  0.99767170  1
  I  I14  1  0.96246295  0.76851646  0.49767170  1
  I  I15  1  0.03753705  0.23148354  0.50232830  1
  I  I16  1  0.66471804  0.04302752  0.40203229  1
  I  I17  1  0.33528196  0.95697248  0.59796771  1
  I  I18  1  0.16471804  0.95697248  0.09796771  1
  I  I19  1  0.83528196  0.04302752  0.90203229  1
loop_
_geom_bond_atom_site_label_1
_geom_bond_atom_site_label_2
_geom_bond_distance
_geom_bond_site_symmetry_2
Ba0 I10 3.579933 1_445
Ba0 I14 3.603466 1_445
Ba0 I4 3.609828 1_455
Ba0 I16 3.610572 1_455
Ba0 I18 3.618464 1_545
Ba0 I15 3.619169 1_555
Ba0 I8 3.626159 1_555
Ba0 I6 3.676424 1_545
Ba1 I11 3.579933 1_655
Ba1 I15 3.603466 1_655
Ba1 I5 3.609828 1_645
Ba1 I17 3.610572 1_645
Ba1 I19 3.618464 1_555
Ba1 I14 3.619169 1_545
Ba1 I9 3.626159 1_545
Ba1 I7 3.676424 1_555
Ba2 I8 3.579933 1_555
Ba2 I12 3.603466 1_555
Ba2 I6 3.609828 1_545
Ba2 I18 3.610572 1_545
Ba2 I16 3.618464 1_555
Ba2 I13 3.619169 1_544
Ba2 I10 3.626159 1_545
Ba2 I4 3.676424 1_555
Ba3 I9 3.579933 1_545
Ba3 I13 3.603466 1_545
Ba3 I7 3.609828 1_555
Ba3 I19 3.610572 1_555
Ba3 I17 3.618464 1_545
Ba3 I12 3.619169 1_556
Ba3 I11 3.626159 1_555
Ba3 I5 3.676424 1_545
Ba4 I0 3.404752 1_555
Ba4 I18 3.459456 1_545
Ba4 I1 3.500283 1_454
Ba4 I19 3.522173 1_454
Ba4 I4 3.523239 1_455
Ba4 I11 3.564798 1_554
Ba4 I12 3.593880 1_555
Ba5 I1 3.404752 1_555
Ba5 I19 3.459456 1_565
Ba5 I0 3.500283 1_656
Ba5 I18 3.522173 1_656
Ba5 I5 3.523239 1_655
Ba5 I10 3.564798 1_556
Ba5 I13 3.593880 1_555
Ba6 I2 3.404752 1_555
Ba6 I16 3.459456 1_565
Ba6 I3 3.500283 1_555
Ba6 I17 3.522173 1_555
Ba6 I6 3.523239 1_555
Ba6 I9 3.564798 1_555
Ba6 I14 3.593880 1_555
Ba7 I3 3.404752 1_555
Ba7 I17 3.459456 1_545
Ba7 I2 3.500283 1_555
Ba7 I16 3.522173 1_555
Ba7 I7 3.523239 1_555
Ba7 I8 3.564798 1_555
Ba7 I15 3.593880 1_555
I0 K2 3.555173 1_555
I0 K0 3.615191 1_555
I1 K3 3.555173 1_555
I1 K1 3.615191 1_555
I2 K0 3.555173 1_655
I2 K2 3.615191 1_555
I3 K1 3.555173 1_455
I3 K3 3.615191 1_555
I4 K0 3.975381 1_655
I4 K2 4.029680 1_555
I5 K1 3.975381 1_455
I5 K3 4.029680 1_555
I6 K2 3.975381 1_555
I6 K0 4.029680 1_555
I7 K3 3.975381 1_555
I7 K1 4.029680 1_555
I8 K2 3.741395 1_555
I8 K0 3.821088 1_555
I9 K3 3.741395 1_555
I9 K1 3.821088 1_555
I10 K0 3.741395 1_655
I10 K2 3.821088 1_555
I11 K1 3.741395 1_455
I11 K3 3.821088 1_555
I12 K3 3.858467 1_554
I12 K2 3.872721 1_555
I13 K2 3.858467 1_556
I13 K3 3.872721 1_555
I14 K1 3.858467 1_555
I14 K0 3.872721 1_655
I15 K0 3.858467 1_555
I15 K1 3.872721 1_455
