# generated using pymatgen
data_Sm2Mo2C3
_symmetry_space_group_name_H-M   'P 1'
_cell_length_a   3.45898021
_cell_length_b   5.80690437
_cell_length_c   5.93114948
_cell_angle_alpha   105.44340915
_cell_angle_beta   106.95342914
_cell_angle_gamma   90.00000359
_symmetry_Int_Tables_number   1
_chemical_formula_structural   Sm2Mo2C3
_chemical_formula_sum   'Sm2 Mo2 C3'
_cell_volume   109.45091015
_cell_formula_units_Z   1
loop_
 _symmetry_equiv_pos_site_id
 _symmetry_equiv_pos_as_xyz
  1  'x, y, z'
loop_
 _atom_site_type_symbol
 _atom_site_label
 _atom_site_symmetry_multiplicity
 _atom_site_fract_x
 _atom_site_fract_y
 _atom_site_fract_z
 _atom_site_occupancy
  Sm  Sm0  1  0.38958061  0.17565447  0.77916122  1
  Sm  Sm1  1  0.61041939  0.82434553  0.22083878  1
  Mo  Mo0  1  0.15271749  0.38393259  0.30543198  1
  Mo  Mo1  1  0.84728251  0.61606741  0.69456802  1
  C  C0  1  0.00000000  0.50000000  0.00000000  1
  C  C1  1  0.27620476  0.73238974  0.55240751  1
  C  C2  1  0.72379524  0.26761026  0.44759249  1
loop_
_geom_bond_atom_site_label_1
_geom_bond_atom_site_label_2
_geom_bond_distance
_geom_bond_site_symmetry_2
C0 Mo0 2.026634 1_555
C0 Mo1 2.026634 1_454
C0 Sm0 2.606610 1_554
C0 Sm1 2.606610 1_455
C0 Sm1 2.606610 1_555
C0 Sm0 2.606610 1_454
C1 Mo1 2.097901 1_555
C1 Mo1 2.097915 1_455
C1 Mo0 2.116396 1_555
C1 Sm0 2.537082 1_565
C1 Sm1 2.715535 1_555
C1 Sm1 2.715540 1_455
C2 Mo0 2.097901 1_555
C2 Mo0 2.097915 1_655
C2 Mo1 2.116396 1_555
C2 Sm1 2.537082 1_545
C2 Sm0 2.715535 1_555
C2 Sm0 2.715540 1_655
