# generated using pymatgen
data_Pr4(MoO2)9
_symmetry_space_group_name_H-M   'P 1'
_cell_length_a   11.94623395
_cell_length_b   11.80155811
_cell_length_c   18.50908081
_cell_angle_alpha   89.99999995
_cell_angle_beta   71.05159954
_cell_angle_gamma   119.60018448
_symmetry_Int_Tables_number   1
_chemical_formula_structural   Pr4(MoO2)9
_chemical_formula_sum   'Pr20 Mo45 O90'
_cell_volume   2104.77101877
_cell_formula_units_Z   5
loop_
 _symmetry_equiv_pos_site_id
 _symmetry_equiv_pos_as_xyz
  1  'x, y, z'
loop_
 _atom_site_type_symbol
 _atom_site_label
 _atom_site_symmetry_multiplicity
 _atom_site_fract_x
 _atom_site_fract_y
 _atom_site_fract_z
 _atom_site_occupancy
  Pr  Pr0  1  0.02947522  0.84802234  0.13503732  1
  Pr  Pr1  1  0.68817679  0.84408839  0.13604382  1
  Pr  Pr2  1  0.02947522  0.18145288  0.13503732  1
  Pr  Pr3  1  0.95050101  0.47525051  0.22236145  1
  Pr  Pr4  1  0.30174672  0.82589537  0.22248420  1
  Pr  Pr5  1  0.30174672  0.47585135  0.22248420  1
  Pr  Pr6  1  0.43089105  0.71544553  0.85012763  1
  Pr  Pr7  1  0.29189553  0.14594777  0.22638377  1
  Pr  Pr8  1  0.62382879  0.47938678  0.22895474  1
  Pr  Pr9  1  0.62382879  0.14444201  0.22895474  1
  Pr  Pr10  1  0.89388147  0.44694074  0.66570807  1
  Pr  Pr11  1  0.64829372  0.49030652  0.84734819  1
  Pr  Pr12  1  0.99430471  0.49715235  0.84450957  1
  Pr  Pr13  1  0.64829372  0.15798720  0.84734819  1
  Pr  Pr14  1  0.32774274  0.66387137  0.67609277  1
  Pr  Pr15  1  0.66738145  0.00196731  0.67061353  1
  Pr  Pr16  1  0.66738145  0.66541414  0.67061353  1
  Pr  Pr17  1  0.60148169  0.30074084  0.41839350  1
  Pr  Pr18  1  0.27723691  0.97333912  0.41808395  1
  Pr  Pr19  1  0.27723691  0.30389779  0.41808395  1
  Mo  Mo0  1  0.23983875  0.37055180  0.89119690  1
  Mo  Mo1  1  0.23983875  0.86928696  0.89119690  1
  Mo  Mo2  1  0.74023453  0.87011727  0.89102549  1
  Mo  Mo3  1  0.59274699  0.29637350  0.61952897  1
  Mo  Mo4  1  0.08365730  0.78880134  0.61891585  1
  Mo  Mo5  1  0.08365730  0.29485596  0.61891585  1
  Mo  Mo6  1  0.23743770  0.11871885  0.89353313  1
  Mo  Mo7  1  0.98621819  0.86705084  0.89529496  1
  Mo  Mo8  1  0.98621819  0.11916735  0.89529496  1
  Mo  Mo9  1  0.09252667  0.04626333  0.61447310  1
  Mo  Mo10  1  0.34257589  0.30500751  0.61167026  1
  Mo  Mo11  1  0.34257589  0.03756838  0.61167026  1
  Mo  Mo12  1  0.93161453  0.85453082  0.47590021  1
  Mo  Mo13  1  0.44423802  0.59715499  0.47357267  1
  Mo  Mo14  1  0.67444454  0.08206957  0.47396548  1
  Mo  Mo15  1  0.67444454  0.59237497  0.47396548  1
  Mo  Mo16  1  0.44423802  0.84708303  0.47357267  1
  Mo  Mo17  1  0.93161453  0.07708371  0.47590021  1
  Mo  Mo18  1  0.94106744  0.21297116  0.32994941  1
  Mo  Mo19  1  0.94106744  0.72809628  0.32994941  1
  Mo  Mo20  1  0.45945326  0.72972663  0.32949886  1
  Mo  Mo21  1  0.41156540  0.07941699  0.75376790  1
  Mo  Mo22  1  0.91183521  0.83081737  0.75587242  1
  Mo  Mo23  1  0.16357378  0.33188900  0.75515100  1
  Mo  Mo24  1  0.16357378  0.83168479  0.75515100  1
  Mo  Mo25  1  0.91183521  0.08101784  0.75587242  1
  Mo  Mo26  1  0.41156540  0.33214841  0.75376790  1
  Mo  Mo27  1  0.38286641  0.07955706  0.03700219  1
  Mo  Mo28  1  0.65269593  0.57964067  0.03840950  1
  Mo  Mo29  1  0.88576631  0.30523806  0.03842175  1
  Mo  Mo30  1  0.88576631  0.58052825  0.03842175  1
  Mo  Mo31  1  0.65269593  0.07305526  0.03840950  1
  Mo  Mo32  1  0.38286641  0.30330935  0.03700219  1
  Mo  Mo33  1  0.92908354  0.58631004  0.47994905  1
  Mo  Mo34  1  0.19096840  0.59548420  0.48079831  1
  Mo  Mo35  1  0.92908354  0.34277350  0.47994905  1
  Mo  Mo36  1  0.68139397  0.84069699  0.47922637  1
  Mo  Mo37  1  0.39626183  0.82128187  0.03365431  1
  Mo  Mo38  1  0.39626183  0.57497996  0.03365431  1
  Mo  Mo39  1  0.13718522  0.56859261  0.03269875  1
  Mo  Mo40  1  0.15590809  0.07795405  0.75584303  1
  Mo  Mo41  1  0.94620415  0.97310207  0.33142804  1
  Mo  Mo42  1  0.69354903  0.72146316  0.33318954  1
  Mo  Mo43  1  0.69354903  0.97208587  0.33318954  1
  Mo  Mo44  1  0.63905541  0.31952770  0.03708660  1
  O  O0  1  0.20969275  0.49006989  0.81659214  1
  O  O1  1  0.46095001  0.97331172  0.81746857  1
  O  O2  1  0.69627692  0.71845913  0.81794633  1
  O  O3  1  0.69627692  0.97781780  0.81794633  1
  O  O4  1  0.46095001  0.48763829  0.81746857  1
  O  O5  1  0.20969275  0.71962287  0.81659214  1
  O  O6  1  0.82006902  0.91003451  0.26793192  1
  O  O7  1  0.94888946  0.23037782  0.82555305  1
  O  O8  1  0.45565957  0.22782978  0.82463087  1
  O  O9  1  0.94888946  0.71851164  0.82555305  1
  O  O10  1  0.31058562  0.15529281  0.54237668  1
  O  O11  1  0.52476184  0.01867194  0.97318369  1
  O  O12  1  0.52476184  0.50608990  0.97318369  1
  O  O13  1  0.00035672  0.50017836  0.97147362  1
  O  O14  1  0.58611928  0.92098914  0.25505332  1
  O  O15  1  0.07798532  0.15911803  0.25481228  1
  O  O16  1  0.82426267  0.66816014  0.25557243  1
  O  O17  1  0.82426267  0.15610253  0.25557243  1
  O  O18  1  0.07798532  0.91886729  0.25481228  1
  O  O19  1  0.58611928  0.66513015  0.25505332  1
  O  O20  1  0.36931140  0.01919406  0.27738495  1
  O  O21  1  0.36931140  0.35011734  0.27738495  1
  O  O22  1  0.70423957  0.35211979  0.27738484  1
  O  O23  1  0.92230831  0.96115416  0.11867393  1
  O  O24  1  0.52683595  0.76341798  0.71360897  1
  O  O25  1  0.51549547  0.88513827  0.10663209  1
  O  O26  1  0.26797421  0.38399039  0.10532614  1
  O  O27  1  0.00118301  0.62767581  0.10739002  1
  O  O28  1  0.00118301  0.37350720  0.10739002  1
  O  O29  1  0.26797421  0.88398382  0.10532614  1
  O  O30  1  0.51549547  0.63035721  0.10663209  1
  O  O31  1  0.86734877  0.18963379  0.69119888  1
  O  O32  1  0.62825887  0.44171368  0.69337720  1
  O  O33  1  0.11720112  0.67572337  0.69343781  1
  O  O34  1  0.11720112  0.44147775  0.69343781  1
  O  O35  1  0.62825887  0.18654518  0.69337720  1
  O  O36  1  0.86734877  0.67771498  0.69119888  1
  O  O37  1  0.06345965  0.53172983  0.41541480  1
  O  O38  1  0.77631764  0.26261252  0.96044344  1
  O  O39  1  0.53369500  0.26684750  0.95495659  1
  O  O40  1  0.77631764  0.51370512  0.96044344  1
  O  O41  1  0.29958438  0.40160884  0.53911719  1
  O  O42  1  0.55596340  0.15982257  0.53906714  1
  O  O43  1  0.06623096  0.90573770  0.53813485  1
  O  O44  1  0.06623096  0.16049326  0.53813485  1
  O  O45  1  0.55596340  0.39614083  0.53906714  1
  O  O46  1  0.29958438  0.89797554  0.53911719  1
  O  O47  1  0.41102902  0.20551451  0.38314509  1
  O  O48  1  0.50679320  0.12991203  0.11461810  1
  O  O49  1  0.50679320  0.37688118  0.11461810  1
  O  O50  1  0.75297757  0.37648878  0.11326284  1
  O  O51  1  0.02895545  0.01447773  0.95990539  1
  O  O52  1  0.81042114  0.27508138  0.40536555  1
  O  O53  1  0.05337433  0.77854221  0.40814371  1
  O  O54  1  0.32215234  0.53479009  0.40274291  1
  O  O55  1  0.32215234  0.78736225  0.40274291  1
  O  O56  1  0.05337433  0.27483212  0.40814371  1
  O  O57  1  0.81042114  0.53533977  0.40536555  1
  O  O58  1  0.77664534  0.00831700  0.96751238  1
  O  O59  1  0.26682360  0.25637629  0.96560559  1
  O  O60  1  0.02547488  0.76760453  0.96695393  1
  O  O61  1  0.02547488  0.25787035  0.96695393  1
  O  O62  1  0.26682360  0.01044731  0.96560559  1
  O  O63  1  0.77664534  0.76832835  0.96751238  1
  O  O64  1  0.26050523  0.63025261  0.10337724  1
  O  O65  1  0.38133516  0.92882276  0.68490716  1
  O  O66  1  0.87313156  0.93656578  0.68334929  1
  O  O67  1  0.38133516  0.45251240  0.68490716  1
  O  O68  1  0.55567256  0.04186524  0.39737876  1
  O  O69  1  0.08663612  0.04331806  0.39654109  1
  O  O70  1  0.55567256  0.51380733  0.39737876  1
  O  O71  1  0.79874922  0.39937461  0.80115041  1
  O  O72  1  0.23104525  0.11552263  0.11365008  1
  O  O73  1  0.76456477  0.64628728  0.11216947  1
  O  O74  1  0.76456477  0.11827749  0.11216947  1
  O  O75  1  0.78837583  0.89418792  0.55883864  1
  O  O76  1  0.55429043  0.65557381  0.55417996  1
  O  O77  1  0.55429043  0.89871661  0.55417996  1
  O  O78  1  0.35017964  0.67508982  0.25722589  1
  O  O79  1  0.06822572  0.39177347  0.25617168  1
  O  O80  1  0.06822572  0.67645225  0.25617168  1
  O  O81  1  0.52052690  0.76026345  0.95520415  1
  O  O82  1  0.28380124  0.52442990  0.95812858  1
  O  O83  1  0.28380124  0.75937134  0.95812858  1
  O  O84  1  0.80652397  0.40326199  0.55841373  1
  O  O85  1  0.04022640  0.63621235  0.55495586  1
  O  O86  1  0.04022640  0.40401405  0.55495586  1
  O  O87  1  0.32186480  0.66093240  0.54799753  1
  O  O88  1  0.79964674  0.14379456  0.54250212  1
  O  O89  1  0.79964674  0.65585218  0.54250212  1
loop_
_geom_bond_atom_site_label_1
_geom_bond_atom_site_label_2
_geom_bond_distance
_geom_bond_site_symmetry_2
Mo0 O59 2.129264 1_555
Mo0 O82 2.142140 1_555
Mo0 O61 2.143893 1_555
Mo0 O4 2.191381 1_555
Mo0 O0 2.202445 1_555
Mo1 O62 2.129264 1_565
Mo1 O83 2.142140 1_555
Mo1 O60 2.143893 1_555
Mo1 O1 2.191381 1_555
Mo1 O5 2.202445 1_555
Mo2 O63 2.133673 1_555
Mo2 O58 2.133673 1_565
Mo2 O81 2.143461 1_555
Mo2 O3 2.200354 1_555
Mo2 O2 2.200354 1_555
Mo3 O84 2.081887 1_555
Mo3 O32 2.155939 1_555
Mo3 O35 2.155939 1_555
Mo3 O45 2.175649 1_555
Mo3 O42 2.175650 1_555
Mo4 O85 2.095090 1_555
Mo4 O36 2.143406 1_455
Mo4 O43 2.160869 1_555
Mo4 O33 2.175147 1_555
Mo4 O46 2.176672 1_555
Mo5 O86 2.095090 1_555
Mo5 O31 2.143406 1_455
Mo5 O44 2.160869 1_555
Mo5 O34 2.175147 1_555
Mo5 O41 2.176672 1_555
Mo6 O51 2.052247 1_555
Mo6 O62 2.069479 1_555
Mo6 O59 2.069479 1_555
Mo6 O8 2.145985 1_555
Mo7 O51 2.058376 1_665
Mo7 O60 2.074653 1_655
Mo7 O63 2.087403 1_555
Mo7 O9 2.130668 1_555
Mo8 O51 2.058376 1_655
Mo8 O61 2.074653 1_655
Mo8 O58 2.087403 1_555
Mo8 O7 2.130668 1_555
Mo9 O43 2.149202 1_545
Mo9 O44 2.149202 1_555
Mo9 O66 2.156069 1_445
Mo9 O10 2.157190 1_555
Mo10 O41 2.095987 1_555
Mo10 O45 2.127837 1_555
Mo10 O10 2.136374 1_555
Mo10 O67 2.166471 1_555
Mo10 Mo40 3.083223 1_555
Mo11 O46 2.095987 1_545
Mo11 O42 2.127837 1_555
Mo11 O10 2.136374 1_555
Mo11 O65 2.166471 1_545
Mo11 Mo40 3.083223 1_555
Mo12 O43 2.126319 1_655
Mo12 O75 2.142170 1_555
Mo12 O89 2.142172 1_555
Mo12 O53 2.144001 1_655
Mo12 O69 2.169886 1_665
Mo13 O87 2.092949 1_555
Mo13 O41 2.117205 1_555
Mo13 O54 2.137482 1_555
Mo13 O70 2.191554 1_555
Mo13 O76 2.192758 1_555
Mo14 O52 2.108230 1_555
Mo14 O42 2.114890 1_555
Mo14 O77 2.120034 1_545
Mo14 O88 2.129044 1_555
Mo14 O68 2.211096 1_555
Mo15 O57 2.108230 1_555
Mo15 O45 2.114890 1_555
Mo15 O76 2.120034 1_555
Mo15 O89 2.129044 1_555
Mo15 O70 2.211096 1_555
Mo16 O87 2.092949 1_555
Mo16 O46 2.117205 1_555
Mo16 O55 2.137482 1_555
Mo16 O68 2.191554 1_565
Mo16 O77 2.192758 1_555
Mo17 O44 2.126319 1_655
Mo17 O75 2.142171 1_545
Mo17 O88 2.142172 1_555
Mo17 O56 2.144001 1_655
Mo17 O69 2.169886 1_655
Mo18 O79 2.027616 1_655
Mo18 O15 2.136130 1_655
Mo18 O17 2.148265 1_555
Mo18 O52 2.153360 1_555
Mo18 O56 2.172813 1_655
Mo19 O80 2.027616 1_655
Mo19 O18 2.136130 1_655
Mo19 O16 2.148265 1_555
Mo19 O57 2.153360 1_555
Mo19 O53 2.172813 1_655
Mo20 O78 2.052281 1_555
Mo20 O19 2.134252 1_555
Mo20 O14 2.134252 1_555
Mo20 O55 2.156140 1_555
Mo20 O54 2.156140 1_555
Mo21 O35 2.106349 1_555
Mo21 O1 2.118433 1_545
Mo21 O65 2.139712 1_545
Mo21 O8 2.145414 1_555
Mo21 Mo40 3.033362 1_555
Mo22 O2 2.101152 1_555
Mo22 O36 2.108219 1_555
Mo22 O66 2.132193 1_555
Mo22 O9 2.136897 1_555
Mo22 Mo40 2.933605 1_665
Mo23 O34 2.098345 1_555
Mo23 O0 2.114838 1_555
Mo23 O7 2.122522 1_455
Mo23 O67 2.151593 1_555
Mo23 Mo40 2.952567 1_555
Mo24 O33 2.098346 1_555
Mo24 O5 2.114838 1_555
Mo24 O9 2.122522 1_455
Mo24 O65 2.151593 1_555
Mo24 Mo40 2.952567 1_565
Mo25 O3 2.101152 1_545
Mo25 O31 2.108219 1_555
Mo25 O66 2.132193 1_545
Mo25 O7 2.136897 1_555
Mo25 Mo40 2.933604 1_655
Mo26 O32 2.106349 1_555
Mo26 O4 2.118433 1_555
Mo26 O67 2.139712 1_555
Mo26 O8 2.145414 1_555
Mo26 Mo40 3.033362 1_555
Mo27 O62 2.099061 1_554
Mo27 O29 2.133895 1_545
Mo27 O72 2.138169 1_555
Mo27 O11 2.165154 1_554
Mo27 O39 2.174126 1_554
Mo27 O48 2.262924 1_555
Mo28 O30 2.064992 1_555
Mo28 O63 2.086611 1_554
Mo28 O73 2.101184 1_555
Mo28 O12 2.105818 1_554
Mo28 O40 2.149459 1_554
Mo28 O49 2.244237 1_555
Mo29 O28 2.055576 1_655
Mo29 O61 2.082244 1_654
Mo29 O74 2.094859 1_555
Mo29 O13 2.118811 1_654
Mo29 O38 2.149776 1_554
Mo29 O50 2.243441 1_555
Mo30 O27 2.055576 1_655
Mo30 O60 2.082244 1_654
Mo30 O73 2.094859 1_555
Mo30 O13 2.118811 1_654
Mo30 O40 2.149776 1_554
Mo30 O50 2.243441 1_555
Mo31 O25 2.064992 1_545
Mo31 O58 2.086611 1_554
Mo31 O74 2.101184 1_555
Mo31 O11 2.105818 1_554
Mo31 O38 2.149459 1_554
Mo31 O48 2.244237 1_555
Mo32 O59 2.099061 1_554
Mo32 O26 2.133895 1_555
Mo32 O72 2.138169 1_555
Mo32 O12 2.165154 1_554
Mo32 O39 2.174126 1_554
Mo32 O49 2.262924 1_555
Mo33 O37 2.048131 1_655
Mo33 O84 2.100964 1_555
Mo33 O85 2.112287 1_655
Mo33 O89 2.120389 1_555
Mo33 O53 2.123317 1_655
Mo33 O57 2.169227 1_555
Mo34 O37 2.101408 1_555
Mo34 O85 2.146566 1_555
Mo34 O86 2.146567 1_555
Mo34 O87 2.158419 1_555
Mo34 O54 2.166756 1_555
Mo34 O55 2.166756 1_555
Mo35 O37 2.048131 1_655
Mo35 O84 2.100964 1_555
Mo35 O86 2.112287 1_655
Mo35 O88 2.120389 1_555
Mo35 O56 2.123317 1_655
Mo35 O52 2.169227 1_555
Mo36 O77 2.087612 1_555
Mo36 O76 2.087612 1_555
Mo36 O75 2.151567 1_555
Mo37 O11 2.094594 1_564
Mo37 O64 2.099274 1_555
Mo37 O29 2.110948 1_555
Mo37 O81 2.118229 1_554
Mo37 O83 2.131408 1_554
Mo37 O25 2.147190 1_555
Mo38 O12 2.094594 1_554
Mo38 O64 2.099274 1_555
Mo38 O26 2.110948 1_555
Mo38 O81 2.118229 1_554
Mo38 O82 2.131408 1_554
Mo38 O30 2.147190 1_555
Mo39 O13 2.123004 1_554
Mo39 O82 2.139221 1_554
Mo39 O83 2.139221 1_554
Mo39 O64 2.145649 1_555
Mo39 O27 2.167384 1_555
Mo39 O28 2.167384 1_555
Mo40 Mo9 2.926917 1_555
Mo40 Mo8 2.929866 1_455
Mo40 Mo7 2.929866 1_445
Mo40 Mo6 2.970543 1_555
Mo41 O6 2.061046 1_555
Mo41 O18 2.108224 1_655
Mo41 O15 2.108224 1_665
Mo41 O69 2.212081 1_665
Mo42 O6 2.046326 1_555
Mo42 O16 2.100356 1_555
Mo42 O19 2.131464 1_555
Mo42 O70 2.207205 1_555
Mo43 O6 2.046326 1_555
Mo43 O17 2.100356 1_565
Mo43 O14 2.131464 1_555
Mo43 O68 2.207205 1_565
Mo44 O48 2.144286 1_555
Mo44 O49 2.144286 1_555
Mo44 O50 2.152767 1_555
Mo44 O38 2.174809 1_554
Mo44 O40 2.174809 1_554
Mo44 O39 2.179715 1_554
O0 Pr12 2.498741 1_455
O0 Pr14 2.778366 1_555
O0 Pr6 2.926492 1_555
O1 Pr13 2.459662 1_565
O1 Pr15 2.899502 1_565
O1 Pr6 2.921477 1_555
O2 Pr11 2.479370 1_555
O2 Pr16 2.888842 1_555
O2 Pr6 3.011555 1_555
O3 Pr13 2.479370 1_565
O3 Pr15 2.888842 1_565
O3 Pr6 3.011555 1_555
O4 Pr11 2.459661 1_555
O4 Pr16 2.899503 1_555
O4 Pr6 2.921477 1_555
O5 Pr12 2.498741 1_455
O5 Pr14 2.778366 1_555
O5 Pr6 2.926492 1_555
O7 Pr12 2.960709 1_555
O7 Pr13 3.133097 1_555
O8 Pr13 2.941802 1_555
O8 Pr11 2.941802 1_555
O9 Pr12 2.960709 1_555
O9 Pr11 3.133097 1_555
O10 Pr17 3.035968 1_555
O10 Pr19 3.132471 1_555
O10 Pr18 3.132471 1_545
O11 Pr13 2.382555 1_555
O12 Pr11 2.382555 1_555
O13 Pr12 2.374181 1_455
O14 Pr9 2.464879 1_565
O14 Pr1 2.551705 1_555
O15 Pr2 2.511039 1_555
O15 Pr7 2.519988 1_555
O16 Pr8 2.536839 1_555
O16 Pr0 2.607733 1_655
O17 Pr9 2.536839 1_555
O17 Pr2 2.607733 1_655
O18 Pr0 2.511039 1_555
O18 Pr7 2.519989 1_565
O19 Pr8 2.464879 1_555
O19 Pr1 2.551705 1_555
O20 Pr4 2.366799 1_545
O20 Pr18 2.415845 1_545
O20 Pr7 2.432645 1_555
O20 Pr9 2.454238 1_555
O21 Pr5 2.366799 1_555
O21 Pr19 2.415845 1_555
O21 Pr7 2.432645 1_555
O21 Pr8 2.454238 1_555
O22 Pr3 2.373727 1_555
O22 Pr17 2.422880 1_555
O22 Pr8 2.442676 1_555
O22 Pr9 2.442676 1_555
O23 Pr1 2.331055 1_555
O23 Pr2 2.335322 1_665
O23 Pr0 2.335322 1_655
O24 Pr6 2.344612 1_555
O24 Pr14 2.414836 1_555
O24 Pr16 2.416752 1_555
O24 Pr15 2.416752 1_565
O25 Pr4 2.507508 1_555
O25 Pr1 2.550129 1_555
O26 Pr5 2.485253 1_555
O26 Pr2 2.527485 1_555
O27 Pr3 2.493637 1_455
O27 Pr0 2.526342 1_555
O28 Pr3 2.493637 1_455
O28 Pr2 2.526342 1_555
O29 Pr4 2.485253 1_555
O29 Pr0 2.527484 1_555
O30 Pr5 2.507508 1_555
O30 Pr1 2.550129 1_555
O31 Pr15 2.474147 1_555
O31 Pr10 2.914821 1_555
O31 Pr13 3.076257 1_555
O32 Pr16 2.453330 1_555
O32 Pr11 2.969047 1_555
O32 Pr10 3.014375 1_555
O33 Pr14 2.504376 1_555
O33 Pr10 2.905866 1_455
O33 Pr12 2.948354 1_455
O34 Pr14 2.504376 1_555
O34 Pr10 2.905866 1_455
O34 Pr12 2.948353 1_455
O35 Pr15 2.453330 1_555
O35 Pr13 2.969047 1_555
O35 Pr10 3.014375 1_555
O36 Pr16 2.474147 1_555
O36 Pr10 2.914821 1_555
O36 Pr11 3.076257 1_555
O38 Pr12 2.880577 1_555
O38 Pr13 2.908457 1_555
O39 Pr13 2.731010 1_555
O39 Pr11 2.731010 1_555
O40 Pr12 2.880577 1_555
O40 Pr11 2.908457 1_555
O41 Pr19 2.550264 1_555
O42 Pr17 2.523506 1_555
O43 Pr18 2.510723 1_555
O44 Pr19 2.510723 1_555
O45 Pr17 2.523506 1_555
O46 Pr18 2.550264 1_555
O47 Pr17 2.302863 1_555
O47 Pr19 2.341566 1_555
O47 Pr18 2.341566 1_545
O48 Pr7 2.817239 1_555
O48 Pr9 2.854379 1_555
O49 Pr7 2.817239 1_555
O49 Pr8 2.854379 1_555
O50 Pr8 2.854067 1_555
O50 Pr9 2.854067 1_555
O52 Pr17 2.595357 1_555
O53 Pr18 2.591675 1_555
O54 Pr19 2.500044 1_555
O55 Pr18 2.500044 1_555
O56 Pr19 2.591675 1_555
O57 Pr17 2.595357 1_555
O65 Pr14 2.881635 1_555
O65 Pr15 2.998510 1_565
O66 Pr15 2.990520 1_565
O66 Pr16 2.990520 1_555
O67 Pr14 2.881635 1_555
O67 Pr16 2.998510 1_555
O68 Pr17 2.875969 1_555
O68 Pr18 2.894755 1_545
O68 Pr9 3.037156 1_555
O69 Pr18 2.910825 1_545
O69 Pr19 2.910825 1_555
O69 Pr7 3.073986 1_555
O70 Pr17 2.875969 1_555
O70 Pr19 2.894755 1_555
O70 Pr8 3.037157 1_555
O71 Pr10 2.326114 1_555
O71 Pr12 2.446979 1_555
O71 Pr11 2.453713 1_555
O71 Pr13 2.453713 1_555
O72 Pr7 2.395508 1_555
O72 Pr2 2.791498 1_555
O72 Pr0 2.791498 1_545
O73 Pr8 2.397321 1_555
O73 Pr1 2.884405 1_555
O73 Pr0 3.047825 1_655
O74 Pr9 2.397321 1_555
O74 Pr1 2.884405 1_545
O74 Pr2 3.047825 1_655
O75 Pr15 2.803840 1_565
O75 Pr16 2.803840 1_555
O76 Pr16 2.866869 1_555
O76 Pr14 2.953246 1_555
O77 Pr15 2.866869 1_565
O77 Pr14 2.953246 1_555
O78 Pr4 2.274783 1_555
O78 Pr5 2.274783 1_555
O79 Pr3 2.297892 1_455
O79 Pr5 2.300336 1_555
O80 Pr3 2.297892 1_455
O80 Pr4 2.300336 1_555
O81 Pr6 2.449877 1_555
O82 Pr6 2.443575 1_555
O83 Pr6 2.443575 1_555
O84 Pr10 2.472487 1_555
O85 Pr10 2.462271 1_455
O86 Pr10 2.462270 1_455
O87 Pr14 2.394396 1_555
O88 Pr15 2.423836 1_555
O89 Pr16 2.423836 1_555
