# generated using pymatgen
data_CrH10N2Cl5O
_symmetry_space_group_name_H-M   'P 1'
_cell_length_a   7.22290100
_cell_length_b   9.91615200
_cell_length_c   14.04787200
_cell_angle_alpha   90.00000000
_cell_angle_beta   90.00000000
_cell_angle_gamma   90.00000000
_symmetry_Int_Tables_number   1
_chemical_formula_structural   CrH10N2Cl5O
_chemical_formula_sum   'Cr4 H40 N8 Cl20 O4'
_cell_volume   1006.15613341
_cell_formula_units_Z   4
loop_
 _symmetry_equiv_pos_site_id
 _symmetry_equiv_pos_as_xyz
  1  'x, y, z'
loop_
 _atom_site_type_symbol
 _atom_site_label
 _atom_site_symmetry_multiplicity
 _atom_site_fract_x
 _atom_site_fract_y
 _atom_site_fract_z
 _atom_site_occupancy
  Cr  Cr0  1  0.80822500  0.75000000  0.11187400  1
  Cr  Cr1  1  0.69177500  0.75000000  0.61187400  1
  Cr  Cr2  1  0.19177500  0.25000000  0.88812600  1
  Cr  Cr3  1  0.30822500  0.25000000  0.38812600  1
  H  H0  1  0.03935000  0.83145700  0.96941300  1
  H  H1  1  0.46065000  0.66854300  0.46941300  1
  H  H2  1  0.96065000  0.33145700  0.03058700  1
  H  H3  1  0.53935000  0.16854300  0.53058700  1
  H  H4  1  0.96065000  0.16854300  0.03058700  1
  H  H5  1  0.53935000  0.33145700  0.53058700  1
  H  H6  1  0.03935000  0.66854300  0.96941300  1
  H  H7  1  0.46065000  0.83145700  0.46941300  1
  H  H8  1  0.21640900  0.54759800  0.16340900  1
  H  H9  1  0.28359100  0.95240200  0.66340900  1
  H  H10  1  0.78359100  0.04759800  0.83659100  1
  H  H11  1  0.71640900  0.45240200  0.33659100  1
  H  H12  1  0.78359100  0.45240200  0.83659100  1
  H  H13  1  0.71640900  0.04759800  0.33659100  1
  H  H14  1  0.21640900  0.95240200  0.16340900  1
  H  H15  1  0.28359100  0.54759800  0.66340900  1
  H  H16  1  0.33033400  0.48166300  0.06848700  1
  H  H17  1  0.16966600  0.01833700  0.56848700  1
  H  H18  1  0.66966600  0.98166300  0.93151300  1
  H  H19  1  0.83033400  0.51833700  0.43151300  1
  H  H20  1  0.66966600  0.51833700  0.93151300  1
  H  H21  1  0.83033400  0.98166300  0.43151300  1
  H  H22  1  0.33033400  0.01833700  0.06848700  1
  H  H23  1  0.16966600  0.48166300  0.56848700  1
  H  H24  1  0.35327800  0.41057400  0.17672100  1
  H  H25  1  0.14672200  0.08942600  0.67672100  1
  H  H26  1  0.64672200  0.91057400  0.82327900  1
  H  H27  1  0.85327800  0.58942600  0.32327900  1
  H  H28  1  0.64672200  0.58942600  0.82327900  1
  H  H29  1  0.85327800  0.91057400  0.32327900  1
  H  H30  1  0.35327800  0.08942600  0.17672100  1
  H  H31  1  0.14672200  0.41057400  0.67672100  1
  H  H32  1  0.44690100  0.56358900  0.15513900  1
  H  H33  1  0.05309900  0.93641100  0.65513900  1
  H  H34  1  0.55309900  0.06358900  0.84486100  1
  H  H35  1  0.94690100  0.43641100  0.34486100  1
  H  H36  1  0.55309900  0.43641100  0.84486100  1
  H  H37  1  0.94690100  0.06358900  0.34486100  1
  H  H38  1  0.44690100  0.93641100  0.15513900  1
  H  H39  1  0.05309900  0.56358900  0.65513900  1
  N  N0  1  0.33675000  0.50050100  0.14097500  1
  N  N1  1  0.16325000  0.99949900  0.64097500  1
  N  N2  1  0.66325000  0.00050100  0.85902500  1
  N  N3  1  0.83675000  0.49949900  0.35902500  1
  N  N4  1  0.66325000  0.49949900  0.85902500  1
  N  N5  1  0.83675000  0.00050100  0.35902500  1
  N  N6  1  0.33675000  0.99949900  0.14097500  1
  N  N7  1  0.16325000  0.50050100  0.64097500  1
  Cl  Cl0  1  0.81946000  0.51040600  0.10443700  1
  Cl  Cl1  1  0.68054000  0.98959400  0.60443700  1
  Cl  Cl2  1  0.18054000  0.01040600  0.89556300  1
  Cl  Cl3  1  0.31946000  0.48959400  0.39556300  1
  Cl  Cl4  1  0.18054000  0.48959400  0.89556300  1
  Cl  Cl5  1  0.31946000  0.01040600  0.39556300  1
  Cl  Cl6  1  0.81946000  0.98959400  0.10443700  1
  Cl  Cl7  1  0.68054000  0.51040600  0.60443700  1
  Cl  Cl8  1  0.06591300  0.75000000  0.21815700  1
  Cl  Cl9  1  0.43408700  0.75000000  0.71815700  1
  Cl  Cl10  1  0.93408700  0.25000000  0.78184300  1
  Cl  Cl11  1  0.56591300  0.25000000  0.28184300  1
  Cl  Cl12  1  0.60711900  0.75000000  0.24381200  1
  Cl  Cl13  1  0.89288100  0.75000000  0.74381200  1
  Cl  Cl14  1  0.39288100  0.25000000  0.75618800  1
  Cl  Cl15  1  0.10711900  0.25000000  0.25618800  1
  Cl  Cl16  1  0.54936800  0.75000000  0.00820900  1
  Cl  Cl17  1  0.95063200  0.75000000  0.50820900  1
  Cl  Cl18  1  0.45063200  0.25000000  0.99179100  1
  Cl  Cl19  1  0.04936800  0.25000000  0.49179100  1
  O  O0  1  0.98288500  0.75000000  0.99663100  1
  O  O1  1  0.51711500  0.75000000  0.49663100  1
  O  O2  1  0.01711500  0.25000000  0.00336900  1
  O  O3  1  0.48288400  0.25000000  0.50336900  1
loop_
_geom_bond_atom_site_label_1
_geom_bond_atom_site_label_2
_geom_bond_distance
_geom_bond_site_symmetry_2
Cr0 O0 2.052416 1_554
Cr1 O1 2.052416 1_555
Cr2 O2 2.052416 1_556
Cr3 O3 2.052412 1_555
H0 O0 0.982331 1_455
H1 O1 0.982331 1_555
H2 O2 0.982331 1_655
H3 O3 0.982334 1_555
H4 O2 0.982331 1_655
H5 O3 0.982334 1_555
H6 O0 0.982331 1_455
H7 O1 0.982331 1_555
H8 N0 1.035836 1_555
H9 N1 1.035836 1_555
H10 N2 1.035836 1_555
H11 N3 1.035836 1_555
H12 N4 1.035836 1_555
H13 N5 1.035836 1_555
H14 N6 1.035836 1_555
H15 N7 1.035836 1_555
H16 N0 1.036331 1_555
H17 N1 1.036331 1_545
H18 N2 1.036331 1_565
H19 N3 1.036331 1_555
H20 N4 1.036331 1_555
H21 N5 1.036331 1_565
H22 N6 1.036331 1_545
H23 N7 1.036331 1_555
H24 N0 1.030337 1_555
H25 N1 1.030337 1_545
H26 N2 1.030337 1_565
H27 N3 1.030337 1_555
H28 N4 1.030337 1_555
H29 N5 1.030337 1_565
H30 N6 1.030337 1_545
H31 N7 1.030337 1_555
H32 N0 1.031479 1_555
H33 N1 1.031479 1_555
H34 N2 1.031479 1_555
H35 N3 1.031479 1_555
H36 N4 1.031479 1_555
H37 N5 1.031479 1_555
H38 N6 1.031479 1_555
H39 N7 1.031479 1_555
Cl0 Cr0 2.379531 1_555
Cl1 Cr1 2.379531 1_555
Cl2 Cr2 2.379531 1_555
Cl3 Cr3 2.379531 1_555
Cl4 Cr2 2.379531 1_555
Cl5 Cr3 2.379531 1_555
Cl6 Cr0 2.379531 1_555
Cl7 Cr1 2.379531 1_555
Cl8 Cr0 2.386099 1_455
Cl9 Cr1 2.386099 1_555
Cl10 Cr2 2.386099 1_655
Cl11 Cr3 2.386099 1_555
Cl12 Cr0 2.354830 1_555
Cl13 Cr1 2.354830 1_555
Cl14 Cr2 2.354830 1_555
Cl15 Cr3 2.354830 1_555
Cl16 Cr0 2.369916 1_555
Cl17 Cr1 2.369916 1_555
Cl18 Cr2 2.369916 1_555
Cl19 Cr3 2.369916 1_555
