# generated using pymatgen
data_SrU2S5
_symmetry_space_group_name_H-M   'P 1'
_cell_length_a   7.37860400
_cell_length_b   7.86909700
_cell_length_c   12.29693400
_cell_angle_alpha   90.00000000
_cell_angle_beta   90.00000000
_cell_angle_gamma   90.00000000
_symmetry_Int_Tables_number   1
_chemical_formula_structural   SrU2S5
_chemical_formula_sum   'Sr4 U8 S20'
_cell_volume   713.99627138
_cell_formula_units_Z   4
loop_
 _symmetry_equiv_pos_site_id
 _symmetry_equiv_pos_as_xyz
  1  'x, y, z'
loop_
 _atom_site_type_symbol
 _atom_site_label
 _atom_site_symmetry_multiplicity
 _atom_site_fract_x
 _atom_site_fract_y
 _atom_site_fract_z
 _atom_site_occupancy
  Sr  Sr0  1  0.92357100  0.75000000  0.99375900  1
  Sr  Sr1  1  0.07642900  0.25000000  0.00624100  1
  Sr  Sr2  1  0.42357100  0.25000000  0.50624100  1
  Sr  Sr3  1  0.57642900  0.75000000  0.49375900  1
  U  U0  1  0.99016600  0.00165800  0.68164200  1
  U  U1  1  0.00983400  0.99834200  0.31835800  1
  U  U2  1  0.49016600  0.99834200  0.81835800  1
  U  U3  1  0.00983400  0.50165800  0.31835800  1
  U  U4  1  0.50983400  0.00165800  0.18164200  1
  U  U5  1  0.99016600  0.49834200  0.68164200  1
  U  U6  1  0.50983400  0.49834200  0.18164200  1
  U  U7  1  0.49016600  0.50165800  0.81835800  1
  S  S0  1  0.70910800  0.75000000  0.71690300  1
  S  S1  1  0.29089200  0.25000000  0.28309700  1
  S  S2  1  0.20910800  0.25000000  0.78309700  1
  S  S3  1  0.79089200  0.75000000  0.21690300  1
  S  S4  1  0.17856100  0.75000000  0.81157400  1
  S  S5  1  0.82143900  0.25000000  0.18842600  1
  S  S6  1  0.67856100  0.25000000  0.68842600  1
  S  S7  1  0.32143900  0.75000000  0.31157400  1
  S  S8  1  0.51977100  0.75000000  0.99722600  1
  S  S9  1  0.48022900  0.25000000  0.00277400  1
  S  S10  1  0.01977100  0.25000000  0.50277400  1
  S  S11  1  0.98022900  0.75000000  0.49722600  1
  S  S12  1  0.83173800  0.45463500  0.87877600  1
  S  S13  1  0.16826200  0.54536500  0.12122400  1
  S  S14  1  0.33173800  0.54536500  0.62122400  1
  S  S15  1  0.16826200  0.95463500  0.12122400  1
  S  S16  1  0.66826200  0.45463500  0.37877600  1
  S  S17  1  0.83173800  0.04536500  0.87877600  1
  S  S18  1  0.66826200  0.04536500  0.37877600  1
  S  S19  1  0.33173800  0.95463500  0.62122400  1
loop_
_geom_bond_atom_site_label_1
_geom_bond_atom_site_label_2
_geom_bond_distance
_geom_bond_site_symmetry_2
S0 U7 2.825822 1_555
S0 U2 2.825822 1_555
S0 U0 2.900068 1_565
S0 U5 2.900068 1_555
S0 Sr3 2.913396 1_555
S1 U6 2.825822 1_555
S1 U4 2.825822 1_555
S1 U1 2.900068 1_545
S1 U3 2.900068 1_555
S1 Sr2 2.913396 1_555
S2 U5 2.825822 1_455
S2 U0 2.825822 1_455
S2 U7 2.900068 1_555
S2 U2 2.900068 1_545
S2 Sr1 2.913396 1_556
S3 U1 2.825822 1_655
S3 U3 2.825822 1_655
S3 U4 2.900068 1_565
S3 U6 2.900068 1_555
S3 Sr0 2.913396 1_554
S4 U0 2.899462 1_465
S4 U5 2.899462 1_455
S4 Sr0 2.925568 1_455
S4 U7 3.018664 1_555
S4 U2 3.018664 1_555
S5 U1 2.899462 1_645
S5 U3 2.899462 1_655
S5 Sr1 2.925568 1_655
S5 U4 3.018664 1_555
S5 U6 3.018664 1_555
S6 U7 2.899462 1_555
S6 U2 2.899462 1_545
S6 Sr2 2.925568 1_555
S6 U0 3.018664 1_555
S6 U5 3.018664 1_555
S7 U4 2.899462 1_565
S7 U6 2.899462 1_555
S7 Sr3 2.925568 1_555
S7 U3 3.018664 1_555
S7 U1 3.018664 1_555
S8 U7 2.950364 1_555
S8 U2 2.950364 1_555
S8 Sr0 2.979785 1_555
S8 U4 3.011602 1_566
S8 U6 3.011602 1_556
S9 U6 2.950364 1_555
S9 U4 2.950364 1_555
S9 Sr1 2.979785 1_555
S9 U2 3.011602 1_544
S9 U7 3.011602 1_554
S10 U5 2.950364 1_455
S10 U0 2.950364 1_455
S10 Sr2 2.979785 1_555
S10 U3 3.011602 1_555
S10 U1 3.011602 1_545
S11 U3 2.950364 1_655
S11 U1 2.950364 1_655
S11 Sr3 2.979785 1_555
S11 U0 3.011602 1_565
S11 U5 3.011602 1_555
S12 U7 2.653477 1_555
S12 U5 2.713167 1_555
S12 Sr0 2.803663 1_555
S12 Sr1 2.882642 1_656
S13 U6 2.653477 1_555
S13 U3 2.713167 1_555
S13 Sr1 2.803663 1_555
S13 Sr0 2.882642 1_454
S14 U5 2.653477 1_455
S14 U7 2.713167 1_555
S14 Sr2 2.803663 1_555
S14 Sr3 2.882642 1_555
S15 U4 2.653477 1_565
S15 U1 2.713167 1_555
S15 Sr1 2.803663 1_565
S15 Sr0 2.882642 1_454
S16 U3 2.653477 1_655
S16 U6 2.713167 1_555
S16 Sr3 2.803663 1_555
S16 Sr2 2.882642 1_555
S17 U2 2.653477 1_545
S17 U0 2.713167 1_555
S17 Sr0 2.803663 1_545
S17 Sr1 2.882642 1_656
S18 U1 2.653477 1_645
S18 U4 2.713167 1_555
S18 Sr3 2.803663 1_545
S18 Sr2 2.882642 1_555
S19 U0 2.653477 1_465
S19 U2 2.713167 1_555
S19 Sr2 2.803663 1_565
S19 Sr3 2.882642 1_555
