# generated using pymatgen
data_Sr4FeMoO8
_symmetry_space_group_name_H-M   'P 1'
_cell_length_a   6.99080451
_cell_length_b   6.99080451
_cell_length_c   5.66187800
_cell_angle_alpha   90.00000000
_cell_angle_beta   90.00000000
_cell_angle_gamma   132.84507035
_symmetry_Int_Tables_number   1
_chemical_formula_structural   Sr4FeMoO8
_chemical_formula_sum   'Sr4 Fe1 Mo1 O8'
_cell_volume   202.87774976
_cell_formula_units_Z   1
loop_
 _symmetry_equiv_pos_site_id
 _symmetry_equiv_pos_as_xyz
  1  'x, y, z'
loop_
 _atom_site_type_symbol
 _atom_site_label
 _atom_site_symmetry_multiplicity
 _atom_site_fract_x
 _atom_site_fract_y
 _atom_site_fract_z
 _atom_site_occupancy
  Sr  Sr0  1  0.35177200  0.64822800  0.00000000  1
  Sr  Sr1  1  0.85385000  0.14615000  0.50000000  1
  Sr  Sr2  1  0.14615000  0.85385000  0.50000000  1
  Sr  Sr3  1  0.64822800  0.35177200  0.00000000  1
  Fe  Fe0  1  0.00000000  0.00000000  0.00000000  1
  Mo  Mo0  1  0.50000000  0.50000000  0.50000000  1
  O  O0  1  0.16120100  0.83879900  0.00000000  1
  O  O1  1  0.66130000  0.33870000  0.50000000  1
  O  O2  1  0.33870000  0.66130000  0.50000000  1
  O  O3  1  0.83879900  0.16120100  0.00000000  1
  O  O4  1  0.25429300  0.25429300  0.25094100  1
  O  O5  1  0.74570700  0.74570700  0.74905900  1
  O  O6  1  0.25429300  0.25429300  0.74905900  1
  O  O7  1  0.74570700  0.74570700  0.25094100  1
loop_
_geom_bond_atom_site_label_1
_geom_bond_atom_site_label_2
_geom_bond_distance
_geom_bond_site_symmetry_2
Fe0 O5 2.010253 1_444
Fe0 O6 2.010253 1_554
Fe0 O4 2.010253 1_555
Fe0 O7 2.010253 1_445
Fe0 O0 2.065698 1_545
Fe0 O3 2.065698 1_455
Mo0 O7 1.968930 1_555
Mo0 O4 1.968930 1_555
Mo0 O5 1.968930 1_555
Mo0 O6 1.968930 1_555
Mo0 O1 2.066967 1_555
Mo0 O2 2.066967 1_555
O0 Sr0 2.442058 1_555
O0 Sr3 2.801179 1_455
O0 Sr3 2.801179 1_565
O0 Sr2 2.837501 1_555
O0 Sr2 2.837501 1_554
O1 Sr1 2.467418 1_555
O1 Sr2 2.802973 1_545
O1 Sr2 2.802973 1_655
O1 Sr3 2.835891 1_555
O1 Sr3 2.835891 1_556
O2 Sr2 2.467418 1_555
O2 Sr1 2.802973 1_565
O2 Sr1 2.802973 1_455
O2 Sr0 2.835891 1_555
O2 Sr0 2.835891 1_556
O3 Sr3 2.442058 1_555
O3 Sr0 2.801179 1_655
O3 Sr0 2.801179 1_545
O3 Sr1 2.837501 1_554
O3 Sr1 2.837501 1_555
O4 Sr3 2.741311 1_555
O4 Sr0 2.741311 1_555
O4 Sr2 2.741977 1_545
O4 Sr1 2.741977 1_455
O5 Sr3 2.741311 1_556
O5 Sr0 2.741311 1_556
O5 Sr2 2.741977 1_655
O5 Sr1 2.741977 1_565
O6 Sr3 2.741311 1_556
O6 Sr0 2.741311 1_556
O6 Sr1 2.741977 1_455
O6 Sr2 2.741977 1_545
O7 Sr3 2.741311 1_555
O7 Sr0 2.741311 1_555
O7 Sr2 2.741977 1_655
O7 Sr1 2.741977 1_565
