# generated using pymatgen
data_Mg30MnNbO32
_symmetry_space_group_name_H-M   'P 1'
_cell_length_a   8.56646400
_cell_length_b   8.56646400
_cell_length_c   8.58626800
_cell_angle_alpha   90.00000000
_cell_angle_beta   90.00000000
_cell_angle_gamma   90.00000000
_symmetry_Int_Tables_number   1
_chemical_formula_structural   Mg30MnNbO32
_chemical_formula_sum   'Mg30 Mn1 Nb1 O32'
_cell_volume   630.09731370
_cell_formula_units_Z   1
loop_
 _symmetry_equiv_pos_site_id
 _symmetry_equiv_pos_as_xyz
  1  'x, y, z'
loop_
 _atom_site_type_symbol
 _atom_site_label
 _atom_site_symmetry_multiplicity
 _atom_site_fract_x
 _atom_site_fract_y
 _atom_site_fract_z
 _atom_site_occupancy
  Mg  Mg0  1  0.00000000  0.50000000  0.00000000  1
  Mg  Mg1  1  0.00000000  0.50000000  0.50000000  1
  Mg  Mg2  1  0.50000000  0.00000000  0.00000000  1
  Mg  Mg3  1  0.50000000  0.00000000  0.50000000  1
  Mg  Mg4  1  0.50000000  0.50000000  0.00000000  1
  Mg  Mg5  1  0.50000000  0.50000000  0.50000000  1
  Mg  Mg6  1  0.00000000  0.25272100  0.24892100  1
  Mg  Mg7  1  0.00000000  0.25272100  0.75107900  1
  Mg  Mg8  1  0.00000000  0.74727900  0.24892100  1
  Mg  Mg9  1  0.00000000  0.74727900  0.75107900  1
  Mg  Mg10  1  0.50000000  0.25005300  0.24989200  1
  Mg  Mg11  1  0.50000000  0.25005300  0.75010800  1
  Mg  Mg12  1  0.50000000  0.74994700  0.24989200  1
  Mg  Mg13  1  0.50000000  0.74994700  0.75010800  1
  Mg  Mg14  1  0.25272100  0.00000000  0.24892100  1
  Mg  Mg15  1  0.25272100  0.00000000  0.75107900  1
  Mg  Mg16  1  0.25005300  0.50000000  0.24989200  1
  Mg  Mg17  1  0.25005300  0.50000000  0.75010800  1
  Mg  Mg18  1  0.74727900  0.00000000  0.24892100  1
  Mg  Mg19  1  0.74727900  0.00000000  0.75107900  1
  Mg  Mg20  1  0.74994700  0.50000000  0.24989200  1
  Mg  Mg21  1  0.74994700  0.50000000  0.75010800  1
  Mg  Mg22  1  0.25082900  0.25082900  0.00000000  1
  Mg  Mg23  1  0.25174300  0.25174300  0.50000000  1
  Mg  Mg24  1  0.25082900  0.74917100  0.00000000  1
  Mg  Mg25  1  0.25174300  0.74825700  0.50000000  1
  Mg  Mg26  1  0.74917100  0.25082900  0.00000000  1
  Mg  Mg27  1  0.74825700  0.25174300  0.50000000  1
  Mg  Mg28  1  0.74917100  0.74917100  0.00000000  1
  Mg  Mg29  1  0.74825700  0.74825700  0.50000000  1
  Mn  Mn0  1  0.00000000  0.00000000  0.00000000  1
  Nb  Nb0  1  0.00000000  0.00000000  0.50000000  1
  O  O0  1  0.25793400  0.00000000  0.00000000  1
  O  O1  1  0.26247300  0.00000000  0.50000000  1
  O  O2  1  0.25107000  0.50000000  0.00000000  1
  O  O3  1  0.25155300  0.50000000  0.50000000  1
  O  O4  1  0.74206600  0.00000000  0.00000000  1
  O  O5  1  0.73752700  0.00000000  0.50000000  1
  O  O6  1  0.74893000  0.50000000  0.00000000  1
  O  O7  1  0.74844700  0.50000000  0.50000000  1
  O  O8  1  0.24948600  0.24948600  0.25007100  1
  O  O9  1  0.24948600  0.24948600  0.74992900  1
  O  O10  1  0.24948600  0.75051400  0.25007100  1
  O  O11  1  0.24948600  0.75051400  0.74992900  1
  O  O12  1  0.75051400  0.24948600  0.25007100  1
  O  O13  1  0.75051400  0.24948600  0.74992900  1
  O  O14  1  0.75051400  0.75051400  0.25007100  1
  O  O15  1  0.75051400  0.75051400  0.74992900  1
  O  O16  1  0.00000000  0.00000000  0.24251300  1
  O  O17  1  0.00000000  0.00000000  0.75748700  1
  O  O18  1  0.00000000  0.50000000  0.24942000  1
  O  O19  1  0.00000000  0.50000000  0.75058000  1
  O  O20  1  0.50000000  0.00000000  0.24942000  1
  O  O21  1  0.50000000  0.00000000  0.75058000  1
  O  O22  1  0.50000000  0.50000000  0.24989600  1
  O  O23  1  0.50000000  0.50000000  0.75010400  1
  O  O24  1  0.00000000  0.25793400  0.00000000  1
  O  O25  1  0.00000000  0.26247300  0.50000000  1
  O  O26  1  0.00000000  0.74206600  0.00000000  1
  O  O27  1  0.00000000  0.73752700  0.50000000  1
  O  O28  1  0.50000000  0.25107000  0.00000000  1
  O  O29  1  0.50000000  0.25155300  0.50000000  1
  O  O30  1  0.50000000  0.74893000  0.00000000  1
  O  O31  1  0.50000000  0.74844700  0.50000000  1
loop_
_geom_bond_atom_site_label_1
_geom_bond_atom_site_label_2
_geom_bond_distance
_geom_bond_site_symmetry_2
Mg0 O26 2.073650 1_555
Mg0 O24 2.073650 1_555
Mg0 O19 2.141587 1_554
Mg0 O18 2.141587 1_555
Mg0 O6 2.150782 1_455
Mg0 O2 2.150782 1_555
Mg1 O27 2.034766 1_555
Mg1 O25 2.034766 1_555
Mg1 O18 2.151547 1_555
Mg1 O19 2.151547 1_555
Mg1 O3 2.154920 1_555
Mg1 O7 2.154920 1_455
Mg2 O4 2.073650 1_555
Mg2 O0 2.073650 1_555
Mg2 O21 2.141587 1_554
Mg2 O20 2.141587 1_555
Mg2 O30 2.150782 1_545
Mg2 O28 2.150782 1_555
Mg3 O5 2.034766 1_555
Mg3 O1 2.034766 1_555
Mg3 O20 2.151547 1_555
Mg3 O21 2.151547 1_555
Mg3 O29 2.154920 1_555
Mg3 O31 2.154920 1_545
Mg4 O2 2.132450 1_555
Mg4 O28 2.132450 1_555
Mg4 O6 2.132450 1_555
Mg4 O30 2.132450 1_555
Mg4 O22 2.145674 1_555
Mg4 O23 2.145674 1_554
Mg5 O7 2.128312 1_555
Mg5 O31 2.128312 1_555
Mg5 O3 2.128312 1_555
Mg5 O29 2.128312 1_555
Mg5 O23 2.147460 1_555
Mg5 O22 2.147460 1_555
Mg6 O18 2.118311 1_555
Mg6 O8 2.137415 1_555
Mg6 O12 2.137415 1_455
Mg6 O24 2.137769 1_555
Mg6 O25 2.157450 1_555
Mg6 O16 2.165624 1_555
Mg7 O19 2.118311 1_555
Mg7 O9 2.137415 1_555
Mg7 O13 2.137415 1_455
Mg7 O24 2.137769 1_556
Mg7 O25 2.157450 1_555
Mg7 O17 2.165624 1_555
Mg8 O18 2.118311 1_555
Mg8 O10 2.137415 1_555
Mg8 O14 2.137415 1_455
Mg8 O26 2.137769 1_555
Mg8 O27 2.157450 1_555
Mg8 O16 2.165624 1_565
Mg9 O19 2.118311 1_555
Mg9 O11 2.137415 1_555
Mg9 O15 2.137415 1_455
Mg9 O26 2.137769 1_556
Mg9 O27 2.157450 1_555
Mg9 O17 2.165624 1_565
Mg10 O22 2.141162 1_555
Mg10 O20 2.142074 1_555
Mg10 O28 2.145657 1_555
Mg10 O12 2.146025 1_555
Mg10 O8 2.146025 1_555
Mg10 O29 2.147533 1_555
Mg11 O23 2.141162 1_555
Mg11 O21 2.142074 1_555
Mg11 O28 2.145657 1_556
Mg11 O13 2.146025 1_555
Mg11 O9 2.146025 1_555
Mg11 O29 2.147533 1_555
Mg12 O22 2.141162 1_555
Mg12 O20 2.142074 1_565
Mg12 O30 2.145657 1_555
Mg12 O14 2.146025 1_555
Mg12 O10 2.146025 1_555
Mg12 O31 2.147533 1_555
Mg13 O23 2.141162 1_555
Mg13 O21 2.142074 1_565
Mg13 O30 2.145657 1_556
Mg13 O15 2.146025 1_555
Mg13 O11 2.146025 1_555
Mg13 O31 2.147533 1_555
Mg14 O20 2.118311 1_555
Mg14 O8 2.137415 1_555
Mg14 O10 2.137415 1_545
Mg14 O0 2.137769 1_555
Mg14 O1 2.157450 1_555
Mg14 O16 2.165624 1_555
Mg15 O21 2.118311 1_555
Mg15 O9 2.137415 1_555
Mg15 O11 2.137415 1_545
Mg15 O0 2.137769 1_556
Mg15 O1 2.157450 1_555
Mg15 O17 2.165624 1_555
Mg16 O22 2.141162 1_555
Mg16 O18 2.142074 1_555
Mg16 O2 2.145657 1_555
Mg16 O10 2.146025 1_555
Mg16 O8 2.146025 1_555
Mg16 O3 2.147533 1_555
Mg17 O23 2.141162 1_555
Mg17 O19 2.142074 1_555
Mg17 O2 2.145657 1_556
Mg17 O11 2.146025 1_555
Mg17 O9 2.146025 1_555
Mg17 O3 2.147533 1_555
Mg18 O20 2.118311 1_555
Mg18 O12 2.137415 1_555
Mg18 O14 2.137415 1_545
Mg18 O4 2.137769 1_555
Mg18 O5 2.157450 1_555
Mg18 O16 2.165624 1_655
Mg19 O21 2.118311 1_555
Mg19 O13 2.137415 1_555
Mg19 O15 2.137415 1_545
Mg19 O4 2.137769 1_556
Mg19 O5 2.157450 1_555
Mg19 O17 2.165624 1_655
Mg20 O22 2.141162 1_555
Mg20 O18 2.142074 1_655
Mg20 O6 2.145657 1_555
Mg20 O14 2.146025 1_555
Mg20 O12 2.146025 1_555
Mg20 O7 2.147533 1_555
Mg21 O23 2.141162 1_555
Mg21 O19 2.142074 1_655
Mg21 O6 2.145657 1_556
Mg21 O15 2.146025 1_555
Mg21 O13 2.146025 1_555
Mg21 O7 2.147533 1_555
Mg22 O2 2.134515 1_555
Mg22 O28 2.134515 1_555
Mg22 O8 2.147238 1_555
Mg22 O9 2.147238 1_554
Mg22 O0 2.149579 1_555
Mg22 O24 2.149579 1_555
Mg23 O29 2.126685 1_555
Mg23 O3 2.126685 1_555
Mg23 O9 2.146132 1_555
Mg23 O8 2.146132 1_555
Mg23 O1 2.158505 1_555
Mg23 O25 2.158505 1_555
Mg24 O2 2.134515 1_555
Mg24 O30 2.134515 1_555
Mg24 O10 2.147238 1_555
Mg24 O11 2.147238 1_554
Mg24 O26 2.149579 1_555
Mg24 O0 2.149579 1_565
Mg25 O3 2.126685 1_555
Mg25 O31 2.126685 1_555
Mg25 O11 2.146132 1_555
Mg25 O10 2.146132 1_555
Mg25 O1 2.158505 1_565
Mg25 O27 2.158505 1_555
Mg26 O28 2.134515 1_555
Mg26 O6 2.134515 1_555
Mg26 O12 2.147238 1_555
Mg26 O13 2.147238 1_554
Mg26 O4 2.149579 1_555
Mg26 O24 2.149579 1_655
Mg27 O29 2.126685 1_555
Mg27 O7 2.126685 1_555
Mg27 O13 2.146132 1_555
Mg27 O12 2.146132 1_555
Mg27 O5 2.158505 1_555
Mg27 O25 2.158505 1_655
Mg28 O30 2.134515 1_555
Mg28 O6 2.134515 1_555
Mg28 O14 2.147238 1_555
Mg28 O15 2.147238 1_554
Mg28 O26 2.149579 1_655
Mg28 O4 2.149579 1_565
Mg29 O7 2.126685 1_555
Mg29 O31 2.126685 1_555
Mg29 O15 2.146132 1_555
Mg29 O14 2.146132 1_555
Mg29 O5 2.158505 1_565
Mg29 O27 2.158505 1_655
Mn0 O16 2.082282 1_555
Mn0 O17 2.082282 1_554
Mn0 O24 2.209582 1_555
Mn0 O0 2.209582 1_555
Mn0 O4 2.209582 1_455
Mn0 O26 2.209582 1_545
Nb0 O17 2.210852 1_555
Nb0 O16 2.210852 1_555
Nb0 O1 2.248466 1_555
Nb0 O25 2.248466 1_555
Nb0 O5 2.248466 1_455
Nb0 O27 2.248466 1_545
