# generated using pymatgen
data_Lu15C19
_symmetry_space_group_name_H-M   'P 1'
_cell_length_a   7.92645500
_cell_length_b   7.92645500
_cell_length_c   15.17118500
_cell_angle_alpha   90.00000000
_cell_angle_beta   90.00000000
_cell_angle_gamma   90.00000000
_symmetry_Int_Tables_number   1
_chemical_formula_structural   Lu15C19
_chemical_formula_sum   'Lu30 C38'
_cell_volume   953.18566211
_cell_formula_units_Z   2
loop_
 _symmetry_equiv_pos_site_id
 _symmetry_equiv_pos_as_xyz
  1  'x, y, z'
loop_
 _atom_site_type_symbol
 _atom_site_label
 _atom_site_symmetry_multiplicity
 _atom_site_fract_x
 _atom_site_fract_y
 _atom_site_fract_z
 _atom_site_occupancy
  Lu  Lu0  1  0.70287400  0.90705500  0.50000000  1
  Lu  Lu1  1  0.20287400  0.59294500  0.00000000  1
  Lu  Lu2  1  0.29712600  0.09294500  0.50000000  1
  Lu  Lu3  1  0.79712600  0.40705500  0.00000000  1
  Lu  Lu4  1  0.90705500  0.29712600  0.50000000  1
  Lu  Lu5  1  0.59294500  0.79712600  0.00000000  1
  Lu  Lu6  1  0.09294500  0.70287400  0.50000000  1
  Lu  Lu7  1  0.40705500  0.20287400  0.00000000  1
  Lu  Lu8  1  0.78407100  0.59839300  0.64879100  1
  Lu  Lu9  1  0.28407100  0.90160700  0.85120900  1
  Lu  Lu10  1  0.21592900  0.40160700  0.64879100  1
  Lu  Lu11  1  0.71592900  0.09839300  0.85120900  1
  Lu  Lu12  1  0.59839300  0.21592900  0.35120900  1
  Lu  Lu13  1  0.90160700  0.71592900  0.14879100  1
  Lu  Lu14  1  0.40160700  0.78407100  0.35120900  1
  Lu  Lu15  1  0.09839300  0.28407100  0.14879100  1
  Lu  Lu16  1  0.59839300  0.21592900  0.64879100  1
  Lu  Lu17  1  0.09839300  0.28407100  0.85120900  1
  Lu  Lu18  1  0.40160700  0.78407100  0.64879100  1
  Lu  Lu19  1  0.90160700  0.71592900  0.85120900  1
  Lu  Lu20  1  0.21592900  0.40160700  0.35120900  1
  Lu  Lu21  1  0.28407100  0.90160700  0.14879100  1
  Lu  Lu22  1  0.78407100  0.59839300  0.35120900  1
  Lu  Lu23  1  0.71592900  0.09839300  0.14879100  1
  Lu  Lu24  1  0.00000000  0.00000000  0.33161900  1
  Lu  Lu25  1  0.50000000  0.50000000  0.16838100  1
  Lu  Lu26  1  0.00000000  0.00000000  0.66838100  1
  Lu  Lu27  1  0.50000000  0.50000000  0.83161900  1
  Lu  Lu28  1  0.50000000  0.50000000  0.50000000  1
  Lu  Lu29  1  0.00000000  0.00000000  0.00000000  1
  C  C0  1  0.60260500  0.19750000  0.50000000  1
  C  C1  1  0.10260500  0.30250000  0.00000000  1
  C  C2  1  0.39739500  0.80250000  0.50000000  1
  C  C3  1  0.89739500  0.69750000  0.00000000  1
  C  C4  1  0.19750000  0.39739500  0.50000000  1
  C  C5  1  0.30250000  0.89739500  0.00000000  1
  C  C6  1  0.80250000  0.60260500  0.50000000  1
  C  C7  1  0.69750000  0.10260500  0.00000000  1
  C  C8  1  0.69728300  0.90571200  0.66742800  1
  C  C9  1  0.19728300  0.59428800  0.83257200  1
  C  C10  1  0.30271700  0.09428800  0.66742800  1
  C  C11  1  0.80271700  0.40571200  0.83257200  1
  C  C12  1  0.90571200  0.30271700  0.33257200  1
  C  C13  1  0.59428800  0.80271700  0.16742800  1
  C  C14  1  0.09428800  0.69728300  0.33257200  1
  C  C15  1  0.40571200  0.19728300  0.16742800  1
  C  C16  1  0.65089500  0.84910500  0.75000000  1
  C  C17  1  0.15089500  0.65089500  0.75000000  1
  C  C18  1  0.34910500  0.15089500  0.75000000  1
  C  C19  1  0.84910500  0.34910500  0.75000000  1
  C  C20  1  0.84910500  0.34910500  0.25000000  1
  C  C21  1  0.65089500  0.84910500  0.25000000  1
  C  C22  1  0.15089500  0.65089500  0.25000000  1
  C  C23  1  0.34910500  0.15089500  0.25000000  1
  C  C24  1  0.90571200  0.30271700  0.66742800  1
  C  C25  1  0.40571200  0.19728300  0.83257200  1
  C  C26  1  0.09428800  0.69728300  0.66742800  1
  C  C27  1  0.59428800  0.80271700  0.83257200  1
  C  C28  1  0.30271700  0.09428800  0.33257200  1
  C  C29  1  0.19728300  0.59428800  0.16742800  1
  C  C30  1  0.69728300  0.90571200  0.33257200  1
  C  C31  1  0.80271700  0.40571200  0.16742800  1
  C  C32  1  0.50000000  0.50000000  0.66311000  1
  C  C33  1  0.00000000  0.00000000  0.83689000  1
  C  C34  1  0.50000000  0.50000000  0.33689000  1
  C  C35  1  0.00000000  0.00000000  0.16311000  1
  C  C36  1  0.50000000  0.50000000  0.00000000  1
  C  C37  1  0.00000000  0.00000000  0.50000000  1
loop_
_geom_bond_atom_site_label_1
_geom_bond_atom_site_label_2
_geom_bond_distance
_geom_bond_site_symmetry_2
C0 Lu12 2.262304 1_555
C0 Lu16 2.262304 1_555
C0 Lu0 2.435527 1_545
C0 Lu28 2.531929 1_555
C0 Lu4 2.539129 1_555
C0 Lu2 2.559265 1_555
C1 Lu17 2.262304 1_554
C1 Lu15 2.262304 1_555
C1 Lu1 2.435527 1_555
C1 Lu29 2.531929 1_555
C1 Lu7 2.539129 1_555
C1 Lu3 2.559265 1_455
C2 Lu14 2.262304 1_555
C2 Lu18 2.262304 1_555
C2 Lu2 2.435527 1_565
C2 Lu28 2.531929 1_555
C2 Lu6 2.539129 1_555
C2 Lu0 2.559265 1_555
C3 Lu13 2.262304 1_555
C3 Lu19 2.262304 1_554
C3 Lu3 2.435527 1_555
C3 Lu29 2.531929 1_665
C3 Lu5 2.539129 1_555
C3 Lu1 2.559265 1_655
C4 Lu20 2.262304 1_555
C4 Lu10 2.262304 1_555
C4 Lu4 2.435527 1_455
C4 Lu28 2.531929 1_555
C4 Lu2 2.539129 1_555
C4 Lu6 2.559265 1_555
C5 Lu9 2.262304 1_554
C5 Lu21 2.262304 1_555
C5 Lu5 2.435527 1_555
C5 Lu29 2.531929 1_565
C5 Lu1 2.539129 1_555
C5 Lu7 2.559265 1_565
C6 Lu8 2.262304 1_555
C6 Lu22 2.262304 1_555
C6 Lu6 2.435527 1_655
C6 Lu28 2.531929 1_555
C6 Lu0 2.539129 1_555
C6 Lu4 2.559265 1_555
C7 Lu23 2.262304 1_555
C7 Lu11 2.262304 1_554
C7 Lu7 2.435527 1_555
C7 Lu29 2.531929 1_655
C7 Lu3 2.539129 1_555
C7 Lu5 2.559265 1_545
C8 Lu26 2.513213 1_665
C8 Lu0 2.540490 1_555
C8 Lu8 2.546966 1_555
C8 Lu18 2.549970 1_555
C8 Lu16 2.596277 1_565
C9 Lu27 2.513213 1_555
C9 Lu1 2.540490 1_556
C9 Lu9 2.546966 1_555
C9 Lu19 2.549970 1_455
C9 Lu17 2.596277 1_555
C10 C18 1.380514 1_555
C10 Lu26 2.513213 1_555
C10 Lu2 2.540490 1_555
C10 Lu10 2.546966 1_555
C10 Lu16 2.549970 1_555
C10 Lu18 2.596277 1_545
C11 C19 1.380514 1_555
C11 Lu27 2.513213 1_555
C11 Lu3 2.540490 1_556
C11 Lu11 2.546966 1_555
C11 Lu17 2.549970 1_655
C11 Lu19 2.596277 1_555
C12 C20 1.380514 1_555
C12 Lu24 2.513213 1_655
C12 Lu4 2.540490 1_555
C12 Lu12 2.546966 1_555
C12 Lu22 2.549970 1_555
C12 Lu20 2.596277 1_655
C13 C21 1.380514 1_555
C13 Lu25 2.513213 1_555
C13 Lu5 2.540490 1_555
C13 Lu13 2.546966 1_555
C13 Lu23 2.549970 1_565
C13 Lu21 2.596277 1_555
C14 C22 1.380514 1_555
C14 Lu24 2.513213 1_565
C14 Lu6 2.540490 1_555
C14 Lu14 2.546966 1_555
C14 Lu20 2.549970 1_555
C14 Lu22 2.596277 1_455
C15 C23 1.380514 1_555
C15 Lu25 2.513213 1_555
C15 Lu7 2.540490 1_555
C15 Lu15 2.546966 1_555
C15 Lu21 2.549970 1_545
C15 Lu23 2.596277 1_555
C16 C8 1.380514 1_555
C16 C27 1.380514 1_555
C16 Lu11 2.554961 1_565
C16 Lu18 2.554961 1_555
C16 Lu19 2.724179 1_555
C16 Lu8 2.724179 1_555
C17 C26 1.380514 1_555
C17 C9 1.380514 1_555
C17 Lu10 2.554961 1_555
C17 Lu19 2.554961 1_455
C17 Lu9 2.724179 1_555
C17 Lu18 2.724179 1_555
C18 C25 1.380514 1_555
C18 Lu16 2.554961 1_555
C18 Lu9 2.554961 1_545
C18 Lu17 2.724179 1_555
C18 Lu10 2.724179 1_555
C19 C24 1.380514 1_555
C19 Lu8 2.554961 1_555
C19 Lu17 2.554961 1_655
C19 Lu11 2.724179 1_555
C19 Lu16 2.724179 1_555
C20 C31 1.380514 1_555
C20 Lu22 2.554961 1_555
C20 Lu15 2.554961 1_655
C20 Lu23 2.724179 1_555
C20 Lu12 2.724179 1_555
C21 C30 1.380514 1_555
C21 Lu23 2.554961 1_565
C21 Lu14 2.554961 1_555
C21 Lu13 2.724179 1_555
C21 Lu22 2.724179 1_555
C22 C29 1.380514 1_555
C22 Lu20 2.554961 1_555
C22 Lu13 2.554961 1_455
C22 Lu21 2.724179 1_555
C22 Lu14 2.724179 1_555
C23 C28 1.380514 1_555
C23 Lu12 2.554961 1_555
C23 Lu21 2.554961 1_545
C23 Lu15 2.724179 1_555
C23 Lu20 2.724179 1_555
C24 Lu26 2.513213 1_655
C24 Lu4 2.540490 1_555
C24 Lu16 2.546966 1_555
C24 Lu8 2.549970 1_555
C24 Lu10 2.596277 1_655
C25 Lu27 2.513213 1_555
C25 Lu7 2.540490 1_556
C25 Lu17 2.546966 1_555
C25 Lu9 2.549970 1_545
C25 Lu11 2.596277 1_555
C26 Lu26 2.513213 1_565
C26 Lu6 2.540490 1_555
C26 Lu18 2.546966 1_555
C26 Lu10 2.549970 1_555
C26 Lu8 2.596277 1_455
C27 Lu27 2.513213 1_555
C27 Lu5 2.540490 1_556
C27 Lu19 2.546966 1_555
C27 Lu11 2.549970 1_565
C27 Lu9 2.596277 1_555
C28 Lu24 2.513213 1_555
C28 Lu2 2.540490 1_555
C28 Lu20 2.546966 1_555
C28 Lu12 2.549970 1_555
C28 Lu14 2.596277 1_545
C29 Lu25 2.513213 1_555
C29 Lu1 2.540490 1_555
C29 Lu21 2.546966 1_555
C29 Lu13 2.549970 1_455
C29 Lu15 2.596277 1_555
C30 Lu24 2.513213 1_665
C30 Lu0 2.540490 1_555
C30 Lu22 2.546966 1_555
C30 Lu14 2.549970 1_555
C30 Lu12 2.596277 1_565
C31 Lu25 2.513213 1_555
C31 Lu3 2.540490 1_555
C31 Lu23 2.546966 1_555
C31 Lu15 2.549970 1_655
C31 Lu13 2.596277 1_555
C32 Lu18 2.392800 1_555
C32 Lu8 2.392800 1_555
C32 Lu16 2.392800 1_555
C32 Lu10 2.392800 1_555
C32 Lu28 2.474572 1_555
C32 Lu27 2.556481 1_555
C33 Lu17 2.392800 1_555
C33 Lu9 2.392800 1_545
C33 Lu11 2.392800 1_455
C33 Lu19 2.392800 1_445
C33 Lu29 2.474572 1_556
C33 Lu26 2.556481 1_555
C34 Lu14 2.392800 1_555
C34 Lu22 2.392800 1_555
C34 Lu12 2.392800 1_555
C34 Lu20 2.392800 1_555
C34 Lu28 2.474572 1_555
C34 Lu25 2.556481 1_555
C35 Lu15 2.392800 1_555
C35 Lu21 2.392800 1_545
C35 Lu23 2.392800 1_455
C35 Lu13 2.392800 1_445
C35 Lu29 2.474572 1_555
C35 Lu24 2.556481 1_555
C36 Lu5 2.467696 1_555
C36 Lu1 2.467696 1_555
C36 Lu3 2.467696 1_555
C36 Lu7 2.467696 1_555
C36 Lu27 2.554539 1_554
C36 Lu25 2.554539 1_555
C37 Lu2 2.467696 1_555
C37 Lu6 2.467696 1_545
C37 Lu0 2.467696 1_445
C37 Lu4 2.467696 1_455
C37 Lu26 2.554539 1_555
C37 Lu24 2.554539 1_555
