# generated using pymatgen
data_Rb4Zn(MoO4)3
_symmetry_space_group_name_H-M   'P 1'
_cell_length_a   11.14163198
_cell_length_b   12.79304449
_cell_length_c   22.74037404
_cell_angle_alpha   90.00000000
_cell_angle_beta   90.00000000
_cell_angle_gamma   90.00000000
_symmetry_Int_Tables_number   1
_chemical_formula_structural   Rb4Zn(MoO4)3
_chemical_formula_sum   'Rb32 Zn8 Mo24 O96'
_cell_volume   3241.30816466
_cell_formula_units_Z   8
loop_
 _symmetry_equiv_pos_site_id
 _symmetry_equiv_pos_as_xyz
  1  'x, y, z'
loop_
 _atom_site_type_symbol
 _atom_site_label
 _atom_site_symmetry_multiplicity
 _atom_site_fract_x
 _atom_site_fract_y
 _atom_site_fract_z
 _atom_site_occupancy
  Rb  Rb0  1  0.91856056  0.62710574  0.97180165  1
  Rb  Rb1  1  0.08143944  0.37289426  0.02819835  1
  Rb  Rb2  1  0.58143944  0.12710574  0.02819835  1
  Rb  Rb3  1  0.08143944  0.87289426  0.47180165  1
  Rb  Rb4  1  0.41856056  0.87289426  0.97180165  1
  Rb  Rb5  1  0.91856056  0.12710574  0.52819835  1
  Rb  Rb6  1  0.41856056  0.37289426  0.52819835  1
  Rb  Rb7  1  0.58143944  0.62710574  0.47180165  1
  Rb  Rb8  1  0.57002650  0.60545491  0.66043882  1
  Rb  Rb9  1  0.42997350  0.39454509  0.33956118  1
  Rb  Rb10  1  0.92997350  0.10545491  0.33956118  1
  Rb  Rb11  1  0.42997350  0.89454509  0.16043882  1
  Rb  Rb12  1  0.07002650  0.89454509  0.66043882  1
  Rb  Rb13  1  0.57002650  0.10545491  0.83956118  1
  Rb  Rb14  1  0.07002650  0.39454509  0.83956118  1
  Rb  Rb15  1  0.92997350  0.60545491  0.16043882  1
  Rb  Rb16  1  0.59885627  0.62438148  0.84274690  1
  Rb  Rb17  1  0.40114373  0.37561852  0.15725310  1
  Rb  Rb18  1  0.90114373  0.12438148  0.15725310  1
  Rb  Rb19  1  0.40114373  0.87561852  0.34274690  1
  Rb  Rb20  1  0.09885627  0.87561852  0.84274690  1
  Rb  Rb21  1  0.59885627  0.12438148  0.65725310  1
  Rb  Rb22  1  0.09885627  0.37561852  0.65725310  1
  Rb  Rb23  1  0.90114373  0.62438148  0.34274690  1
  Rb  Rb24  1  0.91557626  0.62427509  0.53138916  1
  Rb  Rb25  1  0.08442374  0.37572491  0.46861084  1
  Rb  Rb26  1  0.58442374  0.12427509  0.46861084  1
  Rb  Rb27  1  0.08442374  0.87572491  0.03138916  1
  Rb  Rb28  1  0.41557626  0.87572491  0.53138916  1
  Rb  Rb29  1  0.91557626  0.12427509  0.96861084  1
  Rb  Rb30  1  0.41557626  0.37572491  0.96861084  1
  Rb  Rb31  1  0.58442374  0.62427509  0.03138916  1
  Zn  Zn0  1  0.71706113  0.82022786  0.74584552  1
  Zn  Zn1  1  0.28293887  0.17977214  0.25415448  1
  Zn  Zn2  1  0.78293887  0.32022786  0.25415448  1
  Zn  Zn3  1  0.28293887  0.67977214  0.24584552  1
  Zn  Zn4  1  0.21706113  0.67977214  0.74584552  1
  Zn  Zn5  1  0.71706113  0.32022786  0.75415448  1
  Zn  Zn6  1  0.21706113  0.17977214  0.75415448  1
  Zn  Zn7  1  0.78293887  0.82022786  0.24584552  1
  Mo  Mo0  1  0.92226972  0.62574054  0.76591341  1
  Mo  Mo1  1  0.07773028  0.37425946  0.23408659  1
  Mo  Mo2  1  0.57773028  0.12574054  0.23408659  1
  Mo  Mo3  1  0.07773028  0.87425946  0.26591341  1
  Mo  Mo4  1  0.42226972  0.87425946  0.76591341  1
  Mo  Mo5  1  0.92226972  0.12574054  0.73408659  1
  Mo  Mo6  1  0.42226972  0.37425946  0.73408659  1
  Mo  Mo7  1  0.57773028  0.62574054  0.26591341  1
  Mo  Mo8  1  0.74719196  0.87658665  0.59455595  1
  Mo  Mo9  1  0.25280804  0.12341335  0.40544405  1
  Mo  Mo10  1  0.75280804  0.37658665  0.40544405  1
  Mo  Mo11  1  0.25280804  0.62341335  0.09455595  1
  Mo  Mo12  1  0.24719196  0.62341335  0.59455595  1
  Mo  Mo13  1  0.74719196  0.37658665  0.90544405  1
  Mo  Mo14  1  0.24719196  0.12341335  0.90544405  1
  Mo  Mo15  1  0.75280804  0.87658665  0.09455595  1
  Mo  Mo16  1  0.75403514  0.87287858  0.90669761  1
  Mo  Mo17  1  0.24596486  0.12712142  0.09330239  1
  Mo  Mo18  1  0.74596486  0.37287858  0.09330239  1
  Mo  Mo19  1  0.24596486  0.62712142  0.40669761  1
  Mo  Mo20  1  0.25403514  0.62712142  0.90669761  1
  Mo  Mo21  1  0.75403514  0.37287858  0.59330239  1
  Mo  Mo22  1  0.25403514  0.12712142  0.59330239  1
  Mo  Mo23  1  0.74596486  0.87287858  0.40669761  1
  O  O0  1  0.66811093  0.75941814  0.57708776  1
  O  O1  1  0.33188907  0.24058186  0.42291224  1
  O  O2  1  0.83188907  0.25941814  0.42291224  1
  O  O3  1  0.33188907  0.74058186  0.07708776  1
  O  O4  1  0.16811093  0.74058186  0.57708776  1
  O  O5  1  0.66811093  0.25941814  0.92291224  1
  O  O6  1  0.16811093  0.24058186  0.92291224  1
  O  O7  1  0.83188907  0.75941814  0.07708776  1
  O  O8  1  0.89677067  0.86823776  0.56677629  1
  O  O9  1  0.10322933  0.13176224  0.43322371  1
  O  O10  1  0.60322933  0.36823776  0.43322371  1
  O  O11  1  0.10322933  0.63176224  0.06677629  1
  O  O12  1  0.39677067  0.63176224  0.56677629  1
  O  O13  1  0.89677067  0.36823776  0.93322371  1
  O  O14  1  0.39677067  0.13176224  0.93322371  1
  O  O15  1  0.60322933  0.86823776  0.06677629  1
  O  O16  1  0.91738450  0.61656623  0.84354452  1
  O  O17  1  0.08261550  0.38343377  0.15645548  1
  O  O18  1  0.58261550  0.11656623  0.15645548  1
  O  O19  1  0.08261550  0.88343377  0.34354452  1
  O  O20  1  0.41738450  0.88343377  0.84354452  1
  O  O21  1  0.91738450  0.11656623  0.65645548  1
  O  O22  1  0.41738450  0.38343377  0.65645548  1
  O  O23  1  0.58261550  0.61656623  0.34354452  1
  O  O24  1  0.77645292  0.67123238  0.73794736  1
  O  O25  1  0.22354708  0.32876762  0.26205264  1
  O  O26  1  0.72354708  0.17123238  0.26205264  1
  O  O27  1  0.22354708  0.82876762  0.23794736  1
  O  O28  1  0.27645292  0.82876762  0.73794736  1
  O  O29  1  0.77645292  0.17123238  0.76205264  1
  O  O30  1  0.27645292  0.32876762  0.76205264  1
  O  O31  1  0.72354708  0.67123238  0.23794736  1
  O  O32  1  0.68451294  0.75917549  0.93762611  1
  O  O33  1  0.31548706  0.24082451  0.06237389  1
  O  O34  1  0.81548706  0.25917549  0.06237389  1
  O  O35  1  0.31548706  0.74082451  0.43762611  1
  O  O36  1  0.18451294  0.74082451  0.93762611  1
  O  O37  1  0.68451294  0.25917549  0.56237389  1
  O  O38  1  0.18451294  0.24082451  0.56237389  1
  O  O39  1  0.81548706  0.75917549  0.43762611  1
  O  O40  1  0.75219654  0.89741619  0.67500667  1
  O  O41  1  0.24780346  0.10258381  0.32499333  1
  O  O42  1  0.74780346  0.39741619  0.32499333  1
  O  O43  1  0.24780346  0.60258381  0.17500667  1
  O  O44  1  0.25219654  0.60258381  0.67500667  1
  O  O45  1  0.75219654  0.39741619  0.82499333  1
  O  O46  1  0.25219654  0.10258381  0.82499333  1
  O  O47  1  0.74780346  0.89741619  0.17500667  1
  O  O48  1  0.67002440  0.98500390  0.56204204  1
  O  O49  1  0.32997560  0.01499610  0.43795796  1
  O  O50  1  0.82997560  0.48500390  0.43795796  1
  O  O51  1  0.32997560  0.51499610  0.06204204  1
  O  O52  1  0.17002440  0.51499610  0.56204204  1
  O  O53  1  0.67002440  0.48500390  0.93795796  1
  O  O54  1  0.17002440  0.01499610  0.93795796  1
  O  O55  1  0.82997560  0.98500390  0.06204204  1
  O  O56  1  0.90766736  0.87714663  0.92962143  1
  O  O57  1  0.09233264  0.12285337  0.07037857  1
  O  O58  1  0.59233264  0.37714663  0.07037857  1
  O  O59  1  0.09233264  0.62285337  0.42962143  1
  O  O60  1  0.40766736  0.62285337  0.92962143  1
  O  O61  1  0.90766736  0.37714663  0.57037857  1
  O  O62  1  0.40766736  0.12285337  0.57037857  1
  O  O63  1  0.59233264  0.87714663  0.42962143  1
  O  O64  1  0.68039421  0.98745851  0.93312251  1
  O  O65  1  0.31960579  0.01254149  0.06687749  1
  O  O66  1  0.81960579  0.48745851  0.06687749  1
  O  O67  1  0.31960579  0.51254149  0.43312251  1
  O  O68  1  0.18039421  0.51254149  0.93312251  1
  O  O69  1  0.68039421  0.48745851  0.56687749  1
  O  O70  1  0.18039421  0.01254149  0.56687749  1
  O  O71  1  0.81960579  0.98745851  0.43312251  1
  O  O72  1  0.74271301  0.86864075  0.82602179  1
  O  O73  1  0.25728699  0.13135925  0.17397821  1
  O  O74  1  0.75728699  0.36864075  0.17397821  1
  O  O75  1  0.25728699  0.63135925  0.32602179  1
  O  O76  1  0.24271301  0.63135925  0.82602179  1
  O  O77  1  0.74271301  0.36864075  0.67397821  1
  O  O78  1  0.24271301  0.13135925  0.67397821  1
  O  O79  1  0.75728699  0.86864075  0.32602179  1
  O  O80  1  0.96148149  0.50164211  0.73719720  1
  O  O81  1  0.03851851  0.49835789  0.26280280  1
  O  O82  1  0.53851851  0.00164211  0.26280280  1
  O  O83  1  0.03851851  0.99835789  0.23719720  1
  O  O84  1  0.46148149  0.99835789  0.73719720  1
  O  O85  1  0.96148149  0.00164211  0.76280280  1
  O  O86  1  0.46148149  0.49835789  0.76280280  1
  O  O87  1  0.53851851  0.50164211  0.23719720  1
  O  O88  1  0.54022072  0.78141853  0.74532673  1
  O  O89  1  0.45977928  0.21858147  0.25467327  1
  O  O90  1  0.95977928  0.28141853  0.25467327  1
  O  O91  1  0.45977928  0.71858147  0.24532673  1
  O  O92  1  0.04022072  0.71858147  0.74532673  1
  O  O93  1  0.54022072  0.28141853  0.75467327  1
  O  O94  1  0.04022072  0.21858147  0.75467327  1
  O  O95  1  0.95977928  0.78141853  0.24532673  1
loop_
_geom_bond_atom_site_label_1
_geom_bond_atom_site_label_2
_geom_bond_distance
_geom_bond_site_symmetry_2
Mo0 O16 1.770095 1_555
Mo0 O80 1.771373 1_555
Mo0 O92 1.832177 1_655
Mo0 O24 1.839182 1_555
Mo1 O17 1.770095 1_555
Mo1 O81 1.771373 1_555
Mo1 O90 1.832177 1_455
Mo1 O25 1.839182 1_555
Mo2 O18 1.770095 1_555
Mo2 O82 1.771373 1_555
Mo2 O89 1.832177 1_555
Mo2 O26 1.839182 1_555
Mo3 O19 1.770095 1_555
Mo3 O83 1.771373 1_555
Mo3 O95 1.832177 1_455
Mo3 O27 1.839182 1_555
Mo4 O20 1.770095 1_555
Mo4 O84 1.771373 1_555
Mo4 O88 1.832177 1_555
Mo4 O28 1.839182 1_555
Mo5 O21 1.770095 1_555
Mo5 O85 1.771373 1_555
Mo5 O94 1.832177 1_655
Mo5 O29 1.839182 1_555
Mo6 O22 1.770095 1_555
Mo6 O86 1.771373 1_555
Mo6 O93 1.832177 1_555
Mo6 O30 1.839182 1_555
Mo7 O23 1.770095 1_555
Mo7 O87 1.771373 1_555
Mo7 O91 1.832177 1_555
Mo7 O31 1.839182 1_555
Mo8 O0 1.783520 1_555
Mo8 O8 1.785461 1_555
Mo8 O48 1.791542 1_555
Mo8 O40 1.849625 1_555
Mo9 O1 1.783520 1_555
Mo9 O9 1.785461 1_555
Mo9 O49 1.791542 1_555
Mo9 O41 1.849625 1_555
Mo10 O2 1.783520 1_555
Mo10 O10 1.785461 1_555
Mo10 O50 1.791542 1_555
Mo10 O42 1.849625 1_555
Mo11 O3 1.783520 1_555
Mo11 O11 1.785461 1_555
Mo11 O51 1.791542 1_555
Mo11 O43 1.849625 1_555
Mo12 O4 1.783520 1_555
Mo12 O12 1.785461 1_555
Mo12 O52 1.791542 1_555
Mo12 O44 1.849625 1_555
Mo13 O5 1.783520 1_555
Mo13 O13 1.785461 1_555
Mo13 O53 1.791542 1_555
Mo13 O45 1.849625 1_555
Mo14 O6 1.783520 1_555
Mo14 O14 1.785461 1_555
Mo14 O54 1.791542 1_555
Mo14 O46 1.849625 1_555
Mo15 O7 1.783520 1_555
Mo15 O15 1.785461 1_555
Mo15 O55 1.791542 1_555
Mo15 O47 1.849625 1_555
Mo16 O64 1.784077 1_555
Mo16 O56 1.790166 1_555
Mo16 O32 1.791799 1_555
Mo16 O72 1.839729 1_555
Mo17 O65 1.784077 1_555
Mo17 O57 1.790166 1_555
Mo17 O33 1.791799 1_555
Mo17 O73 1.839729 1_555
Mo18 O66 1.784077 1_555
Mo18 O58 1.790166 1_555
Mo18 O34 1.791799 1_555
Mo18 O74 1.839729 1_555
Mo19 O67 1.784077 1_555
Mo19 O59 1.790166 1_555
Mo19 O35 1.791799 1_555
Mo19 O75 1.839729 1_555
Mo20 O68 1.784077 1_555
Mo20 O60 1.790166 1_555
Mo20 O36 1.791799 1_555
Mo20 O76 1.839729 1_555
Mo21 O69 1.784077 1_555
Mo21 O61 1.790166 1_555
Mo21 O37 1.791799 1_555
Mo21 O77 1.839729 1_555
Mo22 O70 1.784077 1_555
Mo22 O62 1.790166 1_555
Mo22 O38 1.791799 1_555
Mo22 O78 1.839729 1_555
Mo23 O71 1.784077 1_555
Mo23 O63 1.790166 1_555
Mo23 O39 1.791799 1_555
Mo23 O79 1.839729 1_555
O0 Rb8 2.943889 1_555
O0 Rb7 3.087082 1_555
O0 Rb28 3.348202 1_555
O0 Rb24 3.416282 1_555
O1 Rb9 2.943889 1_555
O1 Rb6 3.087082 1_555
O1 Rb26 3.348202 1_555
O1 Rb25 3.416282 1_555
O2 Rb10 2.943889 1_555
O2 Rb5 3.087082 1_555
O2 Rb25 3.348202 1_655
O2 Rb26 3.416282 1_555
O3 Rb11 2.943889 1_555
O3 Rb4 3.087082 1_554
O3 Rb31 3.348202 1_555
O3 Rb27 3.416282 1_555
O4 Rb12 2.943889 1_555
O4 Rb3 3.087082 1_555
O4 Rb24 3.348202 1_455
O4 Rb28 3.416282 1_555
O5 Rb13 2.943889 1_555
O5 Rb2 3.087082 1_556
O5 Rb30 3.348202 1_555
O5 Rb29 3.416282 1_555
O6 Rb14 2.943889 1_555
O6 Rb1 3.087082 1_556
O6 Rb29 3.348202 1_455
O6 Rb30 3.416282 1_555
O7 Rb15 2.943889 1_555
O7 Rb0 3.087082 1_554
O7 Rb27 3.348202 1_655
O7 Rb31 3.416282 1_555
O8 Rb12 2.894148 1_655
O8 Rb3 2.983532 1_655
O8 Rb24 3.229902 1_555
O8 Rb5 3.434527 1_565
O9 Rb10 2.894148 1_455
O9 Rb5 2.983532 1_455
O9 Rb25 3.229902 1_555
O9 Rb3 3.434527 1_545
O10 Rb9 2.894148 1_555
O10 Rb6 2.983532 1_555
O10 Rb26 3.229902 1_555
O10 Rb7 3.434527 1_555
O11 Rb15 2.894148 1_455
O11 Rb0 2.983532 1_454
O11 Rb27 3.229902 1_555
O11 Rb1 3.434527 1_555
O12 Rb8 2.894148 1_555
O12 Rb7 2.983532 1_555
O12 Rb28 3.229902 1_555
O12 Rb6 3.434527 1_555
O13 Rb14 2.894148 1_655
O13 Rb1 2.983532 1_656
O13 Rb29 3.229902 1_555
O13 Rb0 3.434527 1_555
O14 Rb13 2.894148 1_555
O14 Rb2 2.983532 1_556
O14 Rb30 3.229902 1_555
O14 Rb4 3.434527 1_545
O15 Rb11 2.894148 1_555
O15 Rb4 2.983532 1_554
O15 Rb31 3.229902 1_555
O15 Rb2 3.434527 1_565
O16 Rb0 2.919759 1_555
O16 Rb14 3.311793 1_655
O17 Rb1 2.919759 1_555
O17 Rb15 3.311793 1_455
O18 Rb2 2.919759 1_555
O18 Rb11 3.311793 1_545
O19 Rb3 2.919759 1_555
O19 Rb10 3.311793 1_465
O20 Rb4 2.919759 1_555
O20 Rb13 3.311793 1_565
O21 Rb5 2.919759 1_555
O21 Rb12 3.311793 1_645
O22 Rb6 2.919759 1_555
O22 Rb8 3.311793 1_555
O23 Rb7 2.919759 1_555
O23 Rb9 3.311793 1_555
O24 Zn0 2.025678 1_555
O24 Rb8 3.017357 1_555
O24 Rb16 3.155013 1_555
O25 Zn1 2.025678 1_555
O25 Rb9 3.017357 1_555
O25 Rb17 3.155013 1_555
O26 Zn2 2.025678 1_555
O26 Rb10 3.017357 1_555
O26 Rb18 3.155013 1_555
O27 Zn3 2.025678 1_555
O27 Rb11 3.017357 1_555
O27 Rb19 3.155013 1_555
O28 Zn4 2.025678 1_555
O28 Rb12 3.017357 1_555
O28 Rb20 3.155013 1_555
O29 Zn5 2.025678 1_555
O29 Rb13 3.017357 1_555
O29 Rb21 3.155013 1_555
O30 Zn6 2.025678 1_555
O30 Rb14 3.017357 1_555
O30 Rb22 3.155013 1_555
O31 Zn7 2.025678 1_555
O31 Rb15 3.017357 1_555
O31 Rb23 3.155013 1_555
O32 Rb16 2.922264 1_555
O32 Rb31 2.961118 1_556
O32 Rb0 3.202905 1_555
O32 Rb4 3.391264 1_555
O33 Rb17 2.922264 1_555
O33 Rb30 2.961118 1_554
O33 Rb1 3.202905 1_555
O33 Rb2 3.391264 1_555
O34 Rb18 2.922264 1_555
O34 Rb29 2.961118 1_554
O34 Rb2 3.202905 1_555
O34 Rb1 3.391264 1_655
O35 Rb19 2.922264 1_555
O35 Rb28 2.961118 1_555
O35 Rb3 3.202905 1_555
O35 Rb7 3.391264 1_555
O36 Rb20 2.922264 1_555
O36 Rb27 2.961118 1_556
O36 Rb4 3.202905 1_555
O36 Rb0 3.391264 1_455
O37 Rb21 2.922264 1_555
O37 Rb26 2.961118 1_555
O37 Rb5 3.202905 1_555
O37 Rb6 3.391264 1_555
O38 Rb22 2.922264 1_555
O38 Rb25 2.961118 1_555
O38 Rb6 3.202905 1_555
O38 Rb5 3.391264 1_455
O39 Rb23 2.922264 1_555
O39 Rb24 2.961118 1_555
O39 Rb7 3.202905 1_555
O39 Rb3 3.391264 1_655
O40 Zn0 1.929600 1_555
O40 Rb21 3.393021 1_565
O41 Zn1 1.929600 1_555
O41 Rb19 3.393021 1_545
O42 Zn2 1.929600 1_555
O42 Rb23 3.393021 1_555
O43 Zn3 1.929600 1_555
O43 Rb17 3.393021 1_555
O44 Zn4 1.929600 1_555
O44 Rb22 3.393021 1_555
O45 Zn5 1.929600 1_555
O45 Rb16 3.393021 1_555
O46 Zn6 1.929600 1_555
O46 Rb20 3.393021 1_545
O47 Zn7 1.929600 1_555
O47 Rb18 3.393021 1_565
O48 Rb21 2.914766 1_565
O48 Rb26 2.932277 1_565
O48 Rb28 3.236876 1_555
O48 Rb5 3.400740 1_565
O49 Rb19 2.914766 1_545
O49 Rb28 2.932277 1_545
O49 Rb26 3.236876 1_555
O49 Rb3 3.400740 1_545
O50 Rb23 2.914766 1_555
O50 Rb24 2.932277 1_555
O50 Rb25 3.236876 1_655
O50 Rb7 3.400740 1_555
O51 Rb17 2.914766 1_555
O51 Rb30 2.932277 1_554
O51 Rb31 3.236876 1_555
O51 Rb1 3.400740 1_555
O52 Rb22 2.914766 1_555
O52 Rb25 2.932277 1_555
O52 Rb24 3.236876 1_455
O52 Rb6 3.400740 1_555
O53 Rb16 2.914766 1_555
O53 Rb31 2.932277 1_556
O53 Rb30 3.236876 1_555
O53 Rb0 3.400740 1_555
O54 Rb20 2.914766 1_545
O54 Rb27 2.932277 1_546
O54 Rb29 3.236876 1_455
O54 Rb4 3.400740 1_545
O55 Rb18 2.914766 1_565
O55 Rb29 2.932277 1_564
O55 Rb27 3.236876 1_655
O55 Rb2 3.400740 1_565
O56 Rb20 2.905303 1_655
O56 Rb27 3.038812 1_656
O56 Rb29 3.284681 1_565
O56 Rb0 3.341707 1_555
O57 Rb18 2.905303 1_455
O57 Rb29 3.038812 1_454
O57 Rb27 3.284681 1_545
O57 Rb1 3.341707 1_555
O58 Rb17 2.905303 1_555
O58 Rb30 3.038812 1_554
O58 Rb31 3.284681 1_555
O58 Rb2 3.341707 1_555
O59 Rb23 2.905303 1_455
O59 Rb24 3.038812 1_455
O59 Rb25 3.284681 1_555
O59 Rb3 3.341707 1_555
O60 Rb16 2.905303 1_555
O60 Rb31 3.038812 1_556
O60 Rb30 3.284681 1_555
O60 Rb4 3.341707 1_555
O61 Rb22 2.905303 1_655
O61 Rb25 3.038812 1_655
O61 Rb24 3.284681 1_555
O61 Rb5 3.341707 1_555
O62 Rb21 2.905303 1_555
O62 Rb26 3.038812 1_555
O62 Rb28 3.284681 1_545
O62 Rb6 3.341707 1_555
O63 Rb19 2.905303 1_555
O63 Rb28 3.038812 1_555
O63 Rb26 3.284681 1_565
O63 Rb7 3.341707 1_555
O64 Rb13 2.884018 1_565
O64 Rb2 3.013582 1_566
O64 Rb29 3.252824 1_565
O64 Rb4 3.381137 1_555
O65 Rb11 2.884018 1_545
O65 Rb4 3.013582 1_544
O65 Rb27 3.252824 1_545
O65 Rb2 3.381137 1_555
O66 Rb15 2.884018 1_555
O66 Rb0 3.013582 1_554
O66 Rb31 3.252824 1_555
O66 Rb1 3.381137 1_655
O67 Rb9 2.884018 1_555
O67 Rb6 3.013582 1_555
O67 Rb25 3.252824 1_555
O67 Rb7 3.381137 1_555
O68 Rb14 2.884018 1_555
O68 Rb1 3.013582 1_556
O68 Rb30 3.252824 1_555
O68 Rb0 3.381137 1_455
O69 Rb8 2.884018 1_555
O69 Rb7 3.013582 1_555
O69 Rb24 3.252824 1_555
O69 Rb6 3.381137 1_555
O70 Rb12 2.884018 1_545
O70 Rb3 3.013582 1_545
O70 Rb28 3.252824 1_545
O70 Rb5 3.381137 1_455
O71 Rb10 2.884018 1_565
O71 Rb5 3.013582 1_565
O71 Rb26 3.252824 1_565
O71 Rb3 3.381137 1_655
O72 Zn0 1.946657 1_555
O73 Zn1 1.946657 1_555
O74 Zn2 1.946657 1_555
O75 Zn3 1.946657 1_555
O76 Zn4 1.946657 1_555
O77 Zn5 1.946657 1_555
O78 Zn6 1.946657 1_555
O79 Zn7 1.946657 1_555
O80 Rb22 2.871745 1_655
O80 Rb14 2.959454 1_655
O81 Rb23 2.871745 1_455
O81 Rb15 2.959454 1_455
O82 Rb19 2.871745 1_545
O82 Rb11 2.959454 1_545
O83 Rb18 2.871745 1_465
O83 Rb10 2.959454 1_465
O84 Rb21 2.871745 1_565
O84 Rb13 2.959454 1_565
O85 Rb20 2.871745 1_645
O85 Rb12 2.959454 1_645
O86 Rb16 2.871745 1_555
O86 Rb8 2.959454 1_555
O87 Rb17 2.871745 1_555
O87 Rb9 2.959454 1_555
O88 Zn0 2.031917 1_555
O88 Rb8 2.983983 1_555
O88 Rb16 3.061155 1_555
O89 Zn1 2.031917 1_555
O89 Rb9 2.983983 1_555
O89 Rb17 3.061155 1_555
O90 Zn2 2.031917 1_555
O90 Rb10 2.983983 1_555
O90 Rb18 3.061155 1_555
O91 Zn3 2.031917 1_555
O91 Rb11 2.983983 1_555
O91 Rb19 3.061155 1_555
O92 Zn4 2.031917 1_555
O92 Rb12 2.983983 1_555
O92 Rb20 3.061155 1_555
O93 Zn5 2.031917 1_555
O93 Rb13 2.983983 1_555
O93 Rb21 3.061155 1_555
O94 Zn6 2.031917 1_555
O94 Rb14 2.983983 1_555
O94 Rb22 3.061155 1_555
O95 Zn7 2.031917 1_555
O95 Rb15 2.983983 1_555
O95 Rb23 3.061155 1_555
