# generated using pymatgen
data_Mg2Sb
_symmetry_space_group_name_H-M   'P 1'
_cell_length_a   16.17517103
_cell_length_b   16.17517103
_cell_length_c   10.94335200
_cell_angle_alpha   90.00000000
_cell_angle_beta   90.00000000
_cell_angle_gamma   156.38616644
_symmetry_Int_Tables_number   1
_chemical_formula_structural   Mg2Sb
_chemical_formula_sum   'Mg32 Sb16'
_cell_volume   1146.90340809
_cell_formula_units_Z   16
loop_
 _symmetry_equiv_pos_site_id
 _symmetry_equiv_pos_as_xyz
  1  'x, y, z'
loop_
 _atom_site_type_symbol
 _atom_site_label
 _atom_site_symmetry_multiplicity
 _atom_site_fract_x
 _atom_site_fract_y
 _atom_site_fract_z
 _atom_site_occupancy
  Mg  Mg0_0  1  0.27921750  0.22078250  0.12500000  1
  Mg  Mg0_1  1  0.27921750  0.22078250  0.62500000  1
  Mg  Mg0_2  1  0.27921750  0.72078250  0.12500000  1
  Mg  Mg0_3  1  0.27921750  0.72078250  0.62500000  1
  Mg  Mg0_4  1  0.77921750  0.22078250  0.12500000  1
  Mg  Mg0_5  1  0.77921750  0.22078250  0.62500000  1
  Mg  Mg0_6  1  0.77921750  0.72078250  0.12500000  1
  Mg  Mg0_7  1  0.77921750  0.72078250  0.62500000  1
  Mg  Mg1_0  1  0.11096400  0.38903600  0.12500000  1
  Mg  Mg1_1  1  0.11096400  0.38903600  0.62500000  1
  Mg  Mg1_2  1  0.11096400  0.88903600  0.12500000  1
  Mg  Mg1_3  1  0.11096400  0.88903600  0.62500000  1
  Mg  Mg1_4  1  0.61096400  0.38903600  0.12500000  1
  Mg  Mg1_5  1  0.61096400  0.38903600  0.62500000  1
  Mg  Mg1_6  1  0.61096400  0.88903600  0.12500000  1
  Mg  Mg1_7  1  0.61096400  0.88903600  0.62500000  1
  Mg  Mg2_0  1  0.38903600  0.11096400  0.37500000  1
  Mg  Mg2_1  1  0.38903600  0.11096400  0.87500000  1
  Mg  Mg2_2  1  0.38903600  0.61096400  0.37500000  1
  Mg  Mg2_3  1  0.38903600  0.61096400  0.87500000  1
  Mg  Mg2_4  1  0.88903600  0.11096400  0.37500000  1
  Mg  Mg2_5  1  0.88903600  0.11096400  0.87500000  1
  Mg  Mg2_6  1  0.88903600  0.61096400  0.37500000  1
  Mg  Mg2_7  1  0.88903600  0.61096400  0.87500000  1
  Mg  Mg3_0  1  0.22078250  0.27921750  0.37500000  1
  Mg  Mg3_1  1  0.22078250  0.27921750  0.87500000  1
  Mg  Mg3_2  1  0.22078250  0.77921750  0.37500000  1
  Mg  Mg3_3  1  0.22078250  0.77921750  0.87500000  1
  Mg  Mg3_4  1  0.72078250  0.27921750  0.37500000  1
  Mg  Mg3_5  1  0.72078250  0.27921750  0.87500000  1
  Mg  Mg3_6  1  0.72078250  0.77921750  0.37500000  1
  Mg  Mg3_7  1  0.72078250  0.77921750  0.87500000  1
  Sb  Sb0_0  1  0.44452300  0.05547700  0.12500000  1
  Sb  Sb0_1  1  0.44452300  0.05547700  0.62500000  1
  Sb  Sb0_2  1  0.44452300  0.55547700  0.12500000  1
  Sb  Sb0_3  1  0.44452300  0.55547700  0.62500000  1
  Sb  Sb0_4  1  0.94452300  0.05547700  0.12500000  1
  Sb  Sb0_5  1  0.94452300  0.05547700  0.62500000  1
  Sb  Sb0_6  1  0.94452300  0.55547700  0.12500000  1
  Sb  Sb0_7  1  0.94452300  0.55547700  0.62500000  1
  Sb  Sb1_0  1  0.05547700  0.44452300  0.37500000  1
  Sb  Sb1_1  1  0.05547700  0.44452300  0.87500000  1
  Sb  Sb1_2  1  0.05547700  0.94452300  0.37500000  1
  Sb  Sb1_3  1  0.05547700  0.94452300  0.87500000  1
  Sb  Sb1_4  1  0.55547700  0.44452300  0.37500000  1
  Sb  Sb1_5  1  0.55547700  0.44452300  0.87500000  1
  Sb  Sb1_6  1  0.55547700  0.94452300  0.37500000  1
  Sb  Sb1_7  1  0.55547700  0.94452300  0.87500000  1
loop_
_geom_bond_atom_site_label_1
_geom_bond_atom_site_label_2
_geom_bond_distance
_geom_bond_site_symmetry_2
Mg0_0 Mg1_2 3.072329 1_545
Mg0_0 Mg1_4 3.072329 1_555
Mg0_0 Sb0_2 3.151383 1_555
Mg0_0 Sb0_4 3.151383 1_455
Mg0_0 Mg3_0 3.302844 1_555
Mg0_0 Mg3_1 3.302844 1_554
Mg0_0 Sb1_5 3.303745 1_554
Mg0_0 Sb1_4 3.303745 1_555
Mg0_0 Sb1_3 3.303745 1_544
Mg0_0 Sb1_2 3.303745 1_545
Mg0_0 Mg0_6 3.309670 1_555
Mg0_0 Mg0_6 3.309670 1_445
Mg0_1 Mg1_3 3.072329 1_545
Mg0_1 Mg1_5 3.072329 1_555
Mg0_1 Sb0_3 3.151383 1_555
Mg0_1 Sb0_5 3.151383 1_455
Mg0_1 Mg3_0 3.302844 1_555
Mg0_1 Mg3_1 3.302844 1_555
Mg0_1 Sb1_3 3.303745 1_545
Mg0_1 Sb1_5 3.303745 1_555
Mg0_1 Sb1_2 3.303745 1_545
Mg0_1 Sb1_4 3.303745 1_555
Mg0_1 Mg0_7 3.309670 1_445
Mg0_1 Mg0_7 3.309670 1_555
Mg0_2 Mg1_0 3.072329 1_555
Mg0_2 Mg1_6 3.072329 1_555
Mg0_2 Sb0_0 3.151383 1_565
Mg0_2 Sb0_6 3.151383 1_455
Mg0_2 Mg3_2 3.302844 1_555
Mg0_2 Mg3_3 3.302844 1_554
Mg0_2 Sb1_1 3.303745 1_554
Mg0_2 Sb1_6 3.303745 1_555
Mg0_2 Sb1_0 3.303745 1_555
Mg0_2 Sb1_7 3.303745 1_554
Mg0_2 Mg0_4 3.309670 1_565
Mg0_2 Mg0_4 3.309670 1_455
Mg0_3 Mg1_1 3.072329 1_555
Mg0_3 Mg1_7 3.072329 1_555
Mg0_3 Sb0_7 3.151383 1_455
Mg0_3 Sb0_1 3.151383 1_565
Mg0_3 Mg3_3 3.302844 1_555
Mg0_3 Mg3_2 3.302844 1_555
Mg0_3 Sb1_1 3.303745 1_555
Mg0_3 Sb1_7 3.303745 1_555
Mg0_3 Sb1_0 3.303745 1_555
Mg0_3 Sb1_6 3.303745 1_555
Mg0_3 Mg0_5 3.309670 1_565
Mg0_3 Mg0_5 3.309670 1_455
Mg0_4 Mg1_0 3.072329 1_655
Mg0_4 Mg1_6 3.072329 1_545
Mg0_4 Sb0_0 3.151383 1_555
Mg0_4 Sb0_6 3.151383 1_555
Mg0_4 Mg3_4 3.302844 1_555
Mg0_4 Mg3_5 3.302844 1_554
Mg0_4 Sb1_0 3.303745 1_655
Mg0_4 Sb1_6 3.303745 1_545
Mg0_4 Sb1_7 3.303745 1_544
Mg0_4 Sb1_1 3.303745 1_654
Mg0_5 Mg1_1 3.072329 1_655
Mg0_5 Mg1_7 3.072329 1_545
Mg0_5 Sb0_1 3.151383 1_555
Mg0_5 Sb0_7 3.151383 1_555
Mg0_5 Mg3_4 3.302844 1_555
Mg0_5 Mg3_5 3.302844 1_555
Mg0_5 Sb1_7 3.303745 1_545
Mg0_5 Sb1_1 3.303745 1_655
Mg0_5 Sb1_6 3.303745 1_545
Mg0_5 Sb1_0 3.303745 1_655
Mg0_6 Mg1_4 3.072329 1_555
Mg0_6 Mg1_2 3.072329 1_655
Mg0_6 Sb0_2 3.151383 1_555
Mg0_6 Sb0_4 3.151383 1_565
Mg0_6 Mg3_6 3.302844 1_555
Mg0_6 Mg3_7 3.302844 1_554
Mg0_6 Sb1_5 3.303745 1_554
Mg0_6 Sb1_4 3.303745 1_555
Mg0_6 Sb1_3 3.303745 1_654
Mg0_6 Sb1_2 3.303745 1_655
Mg0_7 Mg1_5 3.072329 1_555
Mg0_7 Mg1_3 3.072329 1_655
Mg0_7 Sb0_3 3.151383 1_555
Mg0_7 Sb0_5 3.151383 1_565
Mg0_7 Mg3_7 3.302844 1_555
Mg0_7 Mg3_6 3.302844 1_555
Mg0_7 Sb1_3 3.303745 1_655
Mg0_7 Sb1_5 3.303745 1_555
Mg0_7 Sb1_4 3.303745 1_555
Mg0_7 Sb1_2 3.303745 1_655
Mg1_0 Sb0_4 3.120840 1_455
Mg1_0 Sb0_2 3.120840 1_555
Mg1_0 Sb1_0 3.251464 1_555
Mg1_0 Sb1_1 3.251464 1_554
Mg1_0 Mg1_6 3.309670 1_445
Mg1_0 Mg1_6 3.309670 1_555
Mg1_0 Mg2_2 3.318656 1_555
Mg1_0 Mg2_3 3.318656 1_554
Mg1_0 Mg2_4 3.318656 1_455
Mg1_0 Mg2_5 3.318656 1_454
Mg1_1 Sb0_5 3.120840 1_455
Mg1_1 Sb0_3 3.120840 1_555
Mg1_1 Sb1_1 3.251464 1_555
Mg1_1 Sb1_0 3.251464 1_555
Mg1_1 Mg1_7 3.309670 1_445
Mg1_1 Mg1_7 3.309670 1_555
Mg1_1 Mg2_3 3.318656 1_555
Mg1_1 Mg2_4 3.318656 1_455
Mg1_1 Mg2_2 3.318656 1_555
Mg1_1 Mg2_5 3.318656 1_455
Mg1_2 Sb0_0 3.120840 1_565
Mg1_2 Sb0_6 3.120840 1_455
Mg1_2 Sb1_3 3.251464 1_554
Mg1_2 Sb1_2 3.251464 1_555
Mg1_2 Mg1_4 3.309670 1_565
Mg1_2 Mg1_4 3.309670 1_455
Mg1_2 Mg2_1 3.318656 1_564
Mg1_2 Mg2_0 3.318656 1_565
Mg1_2 Mg2_6 3.318656 1_455
Mg1_2 Mg2_7 3.318656 1_454
Mg1_3 Sb0_1 3.120840 1_565
Mg1_3 Sb0_7 3.120840 1_455
Mg1_3 Sb1_3 3.251464 1_555
Mg1_3 Sb1_2 3.251464 1_555
Mg1_3 Mg1_5 3.309670 1_565
Mg1_3 Mg1_5 3.309670 1_455
Mg1_3 Mg2_1 3.318656 1_565
Mg1_3 Mg2_7 3.318656 1_455
Mg1_3 Mg2_0 3.318656 1_565
Mg1_3 Mg2_6 3.318656 1_455
Mg1_4 Sb0_0 3.120840 1_555
Mg1_4 Sb0_6 3.120840 1_555
Mg1_4 Sb1_4 3.251464 1_555
Mg1_4 Sb1_5 3.251464 1_554
Mg1_4 Mg2_6 3.318656 1_555
Mg1_4 Mg2_0 3.318656 1_555
Mg1_4 Mg2_7 3.318656 1_554
Mg1_4 Mg2_1 3.318656 1_554
Mg1_5 Sb0_1 3.120840 1_555
Mg1_5 Sb0_7 3.120840 1_555
Mg1_5 Sb1_5 3.251464 1_555
Mg1_5 Sb1_4 3.251464 1_555
Mg1_5 Mg2_1 3.318656 1_555
Mg1_5 Mg2_7 3.318656 1_555
Mg1_5 Mg2_6 3.318656 1_555
Mg1_5 Mg2_0 3.318656 1_555
Mg1_6 Sb0_4 3.120840 1_565
Mg1_6 Sb0_2 3.120840 1_555
Mg1_6 Sb1_7 3.251464 1_554
Mg1_6 Sb1_6 3.251464 1_555
Mg1_6 Mg2_4 3.318656 1_565
Mg1_6 Mg2_5 3.318656 1_564
Mg1_6 Mg2_3 3.318656 1_554
Mg1_6 Mg2_2 3.318656 1_555
Mg1_7 Sb0_5 3.120840 1_565
Mg1_7 Sb0_3 3.120840 1_555
Mg1_7 Sb1_7 3.251464 1_555
Mg1_7 Sb1_6 3.251464 1_555
Mg1_7 Mg2_5 3.318656 1_565
Mg1_7 Mg2_3 3.318656 1_555
Mg1_7 Mg2_4 3.318656 1_565
Mg1_7 Mg2_2 3.318656 1_555
Mg2_0 Mg3_2 3.072329 1_545
Mg2_0 Mg3_4 3.072329 1_555
Mg2_0 Sb1_2 3.120840 1_545
Mg2_0 Sb1_4 3.120840 1_555
Mg2_0 Sb0_0 3.251464 1_555
Mg2_0 Sb0_1 3.251464 1_555
Mg2_0 Mg2_6 3.309670 1_445
Mg2_0 Mg2_6 3.309670 1_555
Mg2_1 Mg3_3 3.072329 1_545
Mg2_1 Mg3_5 3.072329 1_555
Mg2_1 Sb1_3 3.120840 1_545
Mg2_1 Sb1_5 3.120840 1_555
Mg2_1 Sb0_1 3.251464 1_555
Mg2_1 Sb0_0 3.251464 1_556
Mg2_1 Mg2_7 3.309670 1_445
Mg2_1 Mg2_7 3.309670 1_555
Mg2_2 Mg3_0 3.072329 1_555
Mg2_2 Mg3_6 3.072329 1_555
Mg2_2 Sb1_0 3.120840 1_555
Mg2_2 Sb1_6 3.120840 1_555
Mg2_2 Sb0_2 3.251464 1_555
Mg2_2 Sb0_3 3.251464 1_555
Mg2_2 Mg2_4 3.309670 1_565
Mg2_2 Mg2_4 3.309670 1_455
Mg2_3 Mg3_1 3.072329 1_555
Mg2_3 Mg3_7 3.072329 1_555
Mg2_3 Sb1_1 3.120840 1_555
Mg2_3 Sb1_7 3.120840 1_555
Mg2_3 Sb0_2 3.251464 1_556
Mg2_3 Sb0_3 3.251464 1_555
Mg2_3 Mg2_5 3.309670 1_565
Mg2_3 Mg2_5 3.309670 1_455
Mg2_4 Mg3_0 3.072329 1_655
Mg2_4 Mg3_6 3.072329 1_545
Mg2_4 Sb1_6 3.120840 1_545
Mg2_4 Sb1_0 3.120840 1_655
Mg2_4 Sb0_4 3.251464 1_555
Mg2_4 Sb0_5 3.251464 1_555
Mg2_5 Mg3_1 3.072329 1_655
Mg2_5 Mg3_7 3.072329 1_545
Mg2_5 Sb1_7 3.120840 1_545
Mg2_5 Sb1_1 3.120840 1_655
Mg2_5 Sb0_4 3.251464 1_556
Mg2_5 Sb0_5 3.251464 1_555
Mg2_6 Mg3_2 3.072329 1_655
Mg2_6 Mg3_4 3.072329 1_555
Mg2_6 Sb1_4 3.120840 1_555
Mg2_6 Sb1_2 3.120840 1_655
Mg2_6 Sb0_6 3.251464 1_555
Mg2_6 Sb0_7 3.251464 1_555
Mg2_7 Mg3_3 3.072329 1_655
Mg2_7 Mg3_5 3.072329 1_555
Mg2_7 Sb1_3 3.120840 1_655
Mg2_7 Sb1_5 3.120840 1_555
Mg2_7 Sb0_6 3.251464 1_556
Mg2_7 Sb0_7 3.251464 1_555
Mg3_0 Sb1_4 3.151383 1_555
Mg3_0 Sb1_2 3.151383 1_545
Mg3_0 Sb0_2 3.303745 1_555
Mg3_0 Sb0_4 3.303745 1_455
Mg3_0 Sb0_3 3.303745 1_555
Mg3_0 Sb0_5 3.303745 1_455
Mg3_0 Mg3_6 3.309670 1_555
Mg3_0 Mg3_6 3.309670 1_445
Mg3_1 Sb1_5 3.151383 1_555
Mg3_1 Sb1_3 3.151383 1_545
Mg3_1 Sb0_2 3.303745 1_556
Mg3_1 Sb0_4 3.303745 1_456
Mg3_1 Sb0_5 3.303745 1_455
Mg3_1 Sb0_3 3.303745 1_555
Mg3_1 Mg3_7 3.309670 1_445
Mg3_1 Mg3_7 3.309670 1_555
Mg3_2 Sb1_0 3.151383 1_555
Mg3_2 Sb1_6 3.151383 1_555
Mg3_2 Sb0_0 3.303745 1_565
Mg3_2 Sb0_6 3.303745 1_455
Mg3_2 Sb0_1 3.303745 1_565
Mg3_2 Sb0_7 3.303745 1_455
Mg3_2 Mg3_4 3.309670 1_455
Mg3_2 Mg3_4 3.309670 1_565
Mg3_3 Sb1_7 3.151383 1_555
Mg3_3 Sb1_1 3.151383 1_555
Mg3_3 Sb0_6 3.303745 1_456
Mg3_3 Sb0_1 3.303745 1_565
Mg3_3 Sb0_7 3.303745 1_455
Mg3_3 Sb0_0 3.303745 1_566
Mg3_3 Mg3_5 3.309670 1_455
Mg3_3 Mg3_5 3.309670 1_565
Mg3_4 Sb1_0 3.151383 1_655
Mg3_4 Sb1_6 3.151383 1_545
Mg3_4 Sb0_0 3.303745 1_555
Mg3_4 Sb0_6 3.303745 1_555
Mg3_4 Sb0_7 3.303745 1_555
Mg3_4 Sb0_1 3.303745 1_555
Mg3_5 Sb1_1 3.151383 1_655
Mg3_5 Sb1_7 3.151383 1_545
Mg3_5 Sb0_6 3.303745 1_556
Mg3_5 Sb0_0 3.303745 1_556
Mg3_5 Sb0_7 3.303745 1_555
Mg3_5 Sb0_1 3.303745 1_555
Mg3_6 Sb1_4 3.151383 1_555
Mg3_6 Sb1_2 3.151383 1_655
Mg3_6 Sb0_2 3.303745 1_555
Mg3_6 Sb0_3 3.303745 1_555
Mg3_6 Sb0_4 3.303745 1_565
Mg3_6 Sb0_5 3.303745 1_565
Mg3_7 Sb1_5 3.151383 1_555
Mg3_7 Sb1_3 3.151383 1_655
Mg3_7 Sb0_2 3.303745 1_556
Mg3_7 Sb0_4 3.303745 1_566
Mg3_7 Sb0_3 3.303745 1_555
Mg3_7 Sb0_5 3.303745 1_565
