# generated using pymatgen
data_Co2H26N12O13
_symmetry_space_group_name_H-M   'P 1'
_cell_length_a   7.87654000
_cell_length_b   24.04642800
_cell_length_c   13.71975188
_cell_angle_alpha   90.00000000
_cell_angle_beta   124.55550095
_cell_angle_gamma   90.00000000
_symmetry_Int_Tables_number   1
_chemical_formula_structural   Co2H26N12O13
_chemical_formula_sum   'Co8 H104 N48 O52'
_cell_volume   2140.11246126
_cell_formula_units_Z   4
loop_
 _symmetry_equiv_pos_site_id
 _symmetry_equiv_pos_as_xyz
  1  'x, y, z'
loop_
 _atom_site_type_symbol
 _atom_site_label
 _atom_site_symmetry_multiplicity
 _atom_site_fract_x
 _atom_site_fract_y
 _atom_site_fract_z
 _atom_site_occupancy
  Co  Co0  1  0.68287300  0.39582300  0.26277100  1
  Co  Co1  1  0.68287300  0.10417700  0.76277100  1
  Co  Co2  1  0.31712700  0.60417700  0.73722900  1
  Co  Co3  1  0.31712700  0.89582300  0.23722900  1
  Co  Co4  1  0.85264500  0.40411800  0.76753600  1
  Co  Co5  1  0.85264500  0.09588200  0.26753600  1
  Co  Co6  1  0.14735500  0.59588200  0.23246400  1
  Co  Co7  1  0.14735500  0.90411800  0.73246400  1
  H  H0  1  0.60948100  0.29124700  0.29792000  1
  H  H1  1  0.60948100  0.20875300  0.79792000  1
  H  H2  1  0.39051900  0.70875300  0.70208000  1
  H  H3  1  0.39051900  0.79124700  0.20208000  1
  H  H4  1  0.79746800  0.29285600  0.27752900  1
  H  H5  1  0.79746800  0.20714400  0.77752900  1
  H  H6  1  0.20253200  0.70714400  0.72247100  1
  H  H7  1  0.20253200  0.79285600  0.22247100  1
  H  H8  1  0.55087500  0.29582600  0.16384500  1
  H  H9  1  0.55087500  0.20417400  0.66384500  1
  H  H10  1  0.44912500  0.70417400  0.83615500  1
  H  H11  1  0.44912500  0.79582600  0.33615500  1
  H  H12  1  0.79964600  0.37824900  0.11450400  1
  H  H13  1  0.79964600  0.12175100  0.61450400  1
  H  H14  1  0.20035400  0.62175100  0.88549600  1
  H  H15  1  0.20035400  0.87824900  0.38549600  1
  H  H16  1  0.99610800  0.37149900  0.25300500  1
  H  H17  1  0.99610800  0.12850100  0.75300500  1
  H  H18  1  0.00389200  0.62850100  0.74699500  1
  H  H19  1  0.00389200  0.87149900  0.24699500  1
  H  H20  1  0.92417600  0.43444300  0.19508400  1
  H  H21  1  0.92417600  0.06555700  0.69508400  1
  H  H22  1  0.07582400  0.56555700  0.80491600  1
  H  H23  1  0.07582400  0.93444300  0.30491600  1
  H  H24  1  0.04888600  0.42702100  0.45325800  1
  H  H25  1  0.04888600  0.07297900  0.95325800  1
  H  H26  1  0.95111400  0.57297900  0.54674200  1
  H  H27  1  0.95111400  0.92702100  0.04674200  1
  H  H28  1  0.00232300  0.36211400  0.47144100  1
  H  H29  1  0.00232300  0.13788600  0.97144100  1
  H  H30  1  0.99767700  0.63788600  0.52855900  1
  H  H31  1  0.99767700  0.86211400  0.02855900  1
  H  H32  1  0.89453600  0.41358900  0.49682300  1
  H  H33  1  0.89453600  0.08641100  0.99682300  1
  H  H34  1  0.10546400  0.58641100  0.50317700  1
  H  H35  1  0.10546400  0.91358900  0.00317700  1
  H  H36  1  0.37407000  0.43443400  0.28552900  1
  H  H37  1  0.37407000  0.06556600  0.78552900  1
  H  H38  1  0.62593000  0.56556600  0.71447100  1
  H  H39  1  0.62593000  0.93443400  0.21447100  1
  H  H40  1  0.53202400  0.39560600  0.39920200  1
  H  H41  1  0.53202400  0.10439400  0.89920200  1
  H  H42  1  0.46797600  0.60439400  0.60079800  1
  H  H43  1  0.46797600  0.89560600  0.10079800  1
  H  H44  1  0.36474400  0.36617400  0.27195200  1
  H  H45  1  0.36474400  0.13382600  0.77195200  1
  H  H46  1  0.63525600  0.63382600  0.72804800  1
  H  H47  1  0.63525600  0.86617400  0.22804800  1
  H  H48  1  0.44738800  0.42280500  0.61793400  1
  H  H49  1  0.44738800  0.07719500  0.11793400  1
  H  H50  1  0.55261200  0.57719500  0.38206600  1
  H  H51  1  0.55261200  0.92280500  0.88206600  1
  H  H52  1  0.50476700  0.43548100  0.75057300  1
  H  H53  1  0.50476700  0.06451900  0.25057300  1
  H  H54  1  0.49523300  0.56451900  0.24942700  1
  H  H55  1  0.49523300  0.93548100  0.74942700  1
  H  H56  1  0.47012400  0.37088400  0.70245600  1
  H  H57  1  0.47012400  0.12911600  0.20245600  1
  H  H58  1  0.52987600  0.62911600  0.29754400  1
  H  H59  1  0.52987600  0.87088400  0.79754400  1
  H  H60  1  0.17583100  0.37174300  0.76459900  1
  H  H61  1  0.17583100  0.12825700  0.26459900  1
  H  H62  1  0.82416900  0.62825700  0.23540100  1
  H  H63  1  0.82416900  0.87174300  0.73540100  1
  H  H64  1  0.26439200  0.39590700  0.89736300  1
  H  H65  1  0.26439200  0.10409300  0.39736300  1
  H  H66  1  0.73560800  0.60409300  0.10263700  1
  H  H67  1  0.73560800  0.89590700  0.60263700  1
  H  H68  1  0.20703100  0.43936700  0.79129700  1
  H  H69  1  0.20703100  0.06063300  0.29129700  1
  H  H70  1  0.79296900  0.56063300  0.20870300  1
  H  H71  1  0.79296900  0.93936700  0.70870300  1
  H  H72  1  0.10588200  0.41137600  0.00335900  1
  H  H73  1  0.10588200  0.08862400  0.50335900  1
  H  H74  1  0.89411800  0.58862400  0.99664100  1
  H  H75  1  0.89411800  0.91137600  0.49664100  1
  H  H76  1  0.89846600  0.37431500  0.96739400  1
  H  H77  1  0.89846600  0.12568500  0.46739400  1
  H  H78  1  0.10153400  0.62568500  0.03260600  1
  H  H79  1  0.10153400  0.87431500  0.53260600  1
  H  H80  1  0.88707700  0.44243800  0.96167700  1
  H  H81  1  0.88707700  0.05756200  0.46167700  1
  H  H82  1  0.11292300  0.55756200  0.03832300  1
  H  H83  1  0.11292300  0.94243800  0.53832300  1
  H  H84  1  0.77331200  0.30294800  0.67082400  1
  H  H85  1  0.77331200  0.19705200  0.17082400  1
  H  H86  1  0.22668800  0.69705200  0.32917600  1
  H  H87  1  0.22668800  0.80294800  0.82917600  1
  H  H88  1  0.74942400  0.30270600  0.78268800  1
  H  H89  1  0.74942400  0.19729400  0.28268800  1
  H  H90  1  0.25057600  0.69729400  0.21731200  1
  H  H91  1  0.25057600  0.80270600  0.71731200  1
  H  H92  1  0.98180500  0.29798100  0.80900200  1
  H  H93  1  0.98180500  0.20201900  0.30900200  1
  H  H94  1  0.01819500  0.70201900  0.19099800  1
  H  H95  1  0.01819500  0.79798100  0.69099800  1
  H  H96  1  0.80956500  0.28355700  0.01253200  1
  H  H97  1  0.80956500  0.21644300  0.51253200  1
  H  H98  1  0.19043500  0.71644300  0.98746800  1
  H  H99  1  0.19043500  0.78355700  0.48746800  1
  H  H100  1  0.57814000  0.30199000  0.94380600  1
  H  H101  1  0.57814000  0.19801000  0.44380600  1
  H  H102  1  0.42186000  0.69801000  0.05619400  1
  H  H103  1  0.42186000  0.80199000  0.55619400  1
  N  N0  1  0.65569400  0.30893300  0.24883200  1
  N  N1  1  0.65569400  0.19106700  0.74883200  1
  N  N2  1  0.34430600  0.69106700  0.75116800  1
  N  N3  1  0.34430600  0.80893300  0.25116800  1
  N  N4  1  0.87022000  0.39603900  0.19706300  1
  N  N5  1  0.87022000  0.10396100  0.69706300  1
  N  N6  1  0.12978000  0.60396100  0.80293700  1
  N  N7  1  0.12978000  0.89603900  0.30293700  1
  N  N8  1  0.93698400  0.40075500  0.44236800  1
  N  N9  1  0.93698400  0.09924500  0.94236800  1
  N  N10  1  0.06301600  0.59924500  0.55763200  1
  N  N11  1  0.06301600  0.90075500  0.05763200  1
  N  N12  1  0.46315700  0.39935400  0.30991500  1
  N  N13  1  0.46315700  0.10064600  0.80991500  1
  N  N14  1  0.53684300  0.60064600  0.69008500  1
  N  N15  1  0.53684300  0.89935400  0.19008500  1
  N  N16  1  0.53237600  0.40852800  0.70316200  1
  N  N17  1  0.53237600  0.09147200  0.20316200  1
  N  N18  1  0.46762400  0.59147200  0.29683800  1
  N  N19  1  0.46762400  0.90852800  0.79683800  1
  N  N20  1  0.15973000  0.40334800  0.80898200  1
  N  N21  1  0.15973000  0.09665200  0.30898200  1
  N  N22  1  0.84027000  0.59665200  0.19101800  1
  N  N23  1  0.84027000  0.90334800  0.69101800  1
  N  N24  1  0.94874900  0.40884900  0.94635100  1
  N  N25  1  0.94874900  0.09115100  0.44635100  1
  N  N26  1  0.05125100  0.59115100  0.05364900  1
  N  N27  1  0.05125100  0.90884900  0.55364900  1
  N  N28  1  0.83939200  0.31663700  0.75584600  1
  N  N29  1  0.83939200  0.18336300  0.25584600  1
  N  N30  1  0.16060800  0.68336300  0.24415400  1
  N  N31  1  0.16060800  0.81663700  0.74415400  1
  N  N32  1  0.45444100  0.47717700  0.10788800  1
  N  N33  1  0.45444100  0.02282300  0.60788800  1
  N  N34  1  0.54555900  0.52282300  0.89211200  1
  N  N35  1  0.54555900  0.97717700  0.39211200  1
  N  N36  1  0.77376100  0.48398700  0.61318100  1
  N  N37  1  0.77376100  0.01601300  0.11318100  1
  N  N38  1  0.22623900  0.51601300  0.38681900  1
  N  N39  1  0.22623900  0.98398700  0.88681900  1
  N  N40  1  0.29915400  0.27552200  0.42250200  1
  N  N41  1  0.29915400  0.22447800  0.92250200  1
  N  N42  1  0.70084600  0.72447800  0.57749800  1
  N  N43  1  0.70084600  0.77552200  0.07749800  1
  N  N44  1  0.16506600  0.23940700  0.13459300  1
  N  N45  1  0.16506600  0.26059300  0.63459300  1
  N  N46  1  0.83493400  0.76059300  0.86540700  1
  N  N47  1  0.83493400  0.73940700  0.36540700  1
  O  O0  1  0.61481100  0.49008100  0.20983300  1
  O  O1  1  0.61481100  0.00991900  0.70983300  1
  O  O2  1  0.38518900  0.50991900  0.79016700  1
  O  O3  1  0.38518900  0.99008100  0.29016700  1
  O  O4  1  0.41586800  0.42492300  0.08643900  1
  O  O5  1  0.41586800  0.07507700  0.58643900  1
  O  O6  1  0.58413200  0.57507700  0.91356100  1
  O  O7  1  0.58413200  0.92492300  0.41356100  1
  O  O8  1  0.34020700  0.51301200  0.03421500  1
  O  O9  1  0.34020700  0.98698800  0.53421500  1
  O  O10  1  0.65979300  0.48698800  0.96578500  1
  O  O11  1  0.65979300  0.01301200  0.46578500  1
  O  O12  1  0.83333800  0.49571900  0.71943400  1
  O  O13  1  0.83333800  0.00428100  0.21943400  1
  O  O14  1  0.16666200  0.50428100  0.28056600  1
  O  O15  1  0.16666200  0.99571900  0.78056600  1
  O  O16  1  0.75196700  0.43217900  0.58615600  1
  O  O17  1  0.75196700  0.06782100  0.08615600  1
  O  O18  1  0.24803300  0.56782100  0.41384400  1
  O  O19  1  0.24803300  0.93217900  0.91384400  1
  O  O20  1  0.73991000  0.52067500  0.54031100  1
  O  O21  1  0.73991000  0.97932500  0.04031100  1
  O  O22  1  0.26009000  0.47932500  0.45968900  1
  O  O23  1  0.26009000  0.02067500  0.95968900  1
  O  O24  1  0.12956800  0.30193800  0.37408900  1
  O  O25  1  0.12956800  0.19806200  0.87408900  1
  O  O26  1  0.87043200  0.69806200  0.62591100  1
  O  O27  1  0.87043200  0.80193800  0.12591100  1
  O  O28  1  0.46797000  0.30133900  0.47298900  1
  O  O29  1  0.46797000  0.19866100  0.97298900  1
  O  O30  1  0.53203000  0.69866100  0.52701100  1
  O  O31  1  0.53203000  0.80133900  0.02701100  1
  O  O32  1  0.29668100  0.22234900  0.41929600  1
  O  O33  1  0.29668100  0.27765100  0.91929600  1
  O  O34  1  0.70331900  0.77765100  0.58070400  1
  O  O35  1  0.70331900  0.72234900  0.08070400  1
  O  O36  1  0.19886600  0.29119400  0.14499900  1
  O  O37  1  0.19886600  0.20880600  0.64499900  1
  O  O38  1  0.80113400  0.70880600  0.85500100  1
  O  O39  1  0.80113400  0.79119400  0.35500100  1
  O  O40  1  0.97929300  0.22143400  0.07307800  1
  O  O41  1  0.97929300  0.27856600  0.57307800  1
  O  O42  1  0.02070700  0.77856600  0.92692200  1
  O  O43  1  0.02070700  0.72143400  0.42692200  1
  O  O44  1  0.31325400  0.20498000  0.18452100  1
  O  O45  1  0.31325400  0.29502000  0.68452100  1
  O  O46  1  0.68674600  0.79502000  0.81547900  1
  O  O47  1  0.68674600  0.70498000  0.31547900  1
  O  O48  1  0.71674000  0.31606300  0.97394000  1
  O  O49  1  0.71674000  0.18393700  0.47394000  1
  O  O50  1  0.28326000  0.68393700  0.02606000  1
  O  O51  1  0.28326000  0.81606300  0.52606000  1
loop_
_geom_bond_atom_site_label_1
_geom_bond_atom_site_label_2
_geom_bond_distance
_geom_bond_site_symmetry_2
Co0 N0 2.097982 1_555
Co0 N8 2.120588 1_555
Co0 N4 2.121167 1_555
Co0 N12 2.165724 1_555
Co0 O4 2.234633 1_555
Co0 O0 2.347453 1_555
Co1 N1 2.097982 1_555
Co1 N9 2.120588 1_555
Co1 N5 2.121167 1_555
Co1 N13 2.165724 1_555
Co1 O5 2.234633 1_555
Co1 O1 2.347453 1_555
Co2 N2 2.097982 1_555
Co2 N10 2.120588 1_555
Co2 N6 2.121167 1_555
Co2 N14 2.165724 1_555
Co2 O6 2.234633 1_555
Co2 O2 2.347453 1_555
Co3 N3 2.097982 1_555
Co3 N11 2.120588 1_555
Co3 N7 2.121167 1_555
Co3 N15 2.165724 1_555
Co3 O7 2.234633 1_555
Co3 O3 2.347453 1_555
Co4 N28 2.107791 1_555
Co4 N24 2.120834 1_555
Co4 N20 2.147993 1_655
Co4 N16 2.151147 1_555
Co4 O16 2.244578 1_555
Co4 O12 2.279604 1_555
Co5 N29 2.107791 1_555
Co5 N25 2.120834 1_555
Co5 N21 2.147993 1_655
Co5 N17 2.151147 1_555
Co5 O17 2.244578 1_555
Co5 O13 2.279604 1_555
Co6 N30 2.107791 1_555
Co6 N26 2.120834 1_555
Co6 N22 2.147993 1_455
Co6 N18 2.151147 1_555
Co6 O18 2.244578 1_555
Co6 O14 2.279604 1_555
Co7 N31 2.107791 1_555
Co7 N27 2.120834 1_555
Co7 N23 2.147993 1_455
Co7 N19 2.151147 1_555
Co7 O19 2.244578 1_555
Co7 O15 2.279604 1_555
H0 N0 1.022264 1_555
H1 N1 1.022264 1_555
H2 N2 1.022264 1_555
H3 N3 1.022264 1_555
H4 N0 1.026016 1_555
H5 N1 1.026016 1_555
H6 N2 1.026016 1_555
H7 N3 1.026016 1_555
H8 N0 1.023950 1_555
H9 N1 1.023950 1_555
H10 N2 1.023950 1_555
H11 N3 1.023950 1_555
H12 N4 1.029913 1_555
H13 N5 1.029913 1_555
H14 N6 1.029913 1_555
H15 N7 1.029913 1_555
H16 N4 1.028183 1_555
H17 N5 1.028183 1_555
H18 N6 1.028183 1_555
H19 N7 1.028183 1_555
H20 N4 1.023354 1_555
H21 N5 1.023354 1_555
H22 N6 1.023354 1_555
H23 N7 1.023354 1_555
H24 N8 1.024072 1_455
H25 N9 1.024072 1_455
H26 N10 1.024072 1_655
H27 N11 1.024072 1_655
H28 N8 1.026870 1_455
H29 N9 1.026870 1_455
H30 N10 1.026870 1_655
H31 N11 1.026870 1_655
H32 N8 1.023994 1_555
H33 N9 1.023994 1_555
H34 N10 1.023994 1_555
H35 N11 1.023994 1_555
H36 N12 1.024485 1_555
H37 N13 1.024485 1_555
H38 N14 1.024485 1_555
H39 N15 1.024485 1_555
H40 N12 1.024295 1_555
H41 N13 1.024295 1_555
H42 N14 1.024295 1_555
H43 N15 1.024295 1_555
H44 N12 1.025048 1_555
H45 N13 1.025048 1_555
H46 N14 1.025048 1_555
H47 N15 1.025048 1_555
H48 N16 1.022398 1_555
H49 N17 1.022398 1_555
H50 N18 1.022398 1_555
H51 N19 1.022398 1_555
H52 N16 1.025147 1_555
H53 N17 1.025147 1_555
H54 N18 1.025147 1_555
H55 N19 1.025147 1_555
H56 N16 1.026900 1_555
H57 N17 1.026900 1_555
H58 N18 1.026900 1_555
H59 N19 1.026900 1_555
H60 N20 1.025698 1_555
H61 N21 1.025698 1_555
H62 N22 1.025698 1_555
H63 N23 1.025698 1_555
H64 N20 1.023699 1_555
H65 N21 1.023699 1_555
H66 N22 1.023699 1_555
H67 N23 1.023699 1_555
H68 N20 1.024892 1_555
H69 N21 1.024892 1_555
H70 N22 1.024892 1_555
H71 N23 1.024892 1_555
H72 N24 1.024261 1_454
H73 N25 1.024261 1_455
H74 N26 1.024261 1_656
H75 N27 1.024261 1_655
H76 N24 1.029329 1_555
H77 N25 1.029329 1_555
H78 N26 1.029329 1_555
H79 N27 1.029329 1_555
H80 N24 1.023923 1_555
H81 N25 1.023923 1_555
H82 N26 1.023923 1_555
H83 N27 1.023923 1_555
H84 N28 1.025279 1_555
H85 N29 1.025279 1_555
H86 N30 1.025279 1_555
H87 N31 1.025279 1_555
H88 N28 1.022764 1_555
H89 N29 1.022764 1_555
H90 N30 1.022764 1_555
H91 N31 1.022764 1_555
H92 N28 1.031193 1_555
H93 N29 1.031193 1_555
H94 N30 1.031193 1_555
H95 N31 1.031193 1_555
H96 O48 0.993347 1_554
H97 O49 0.993347 1_555
H98 O50 0.993347 1_556
H99 O51 0.993347 1_555
H100 O48 0.982459 1_555
H101 O49 0.982459 1_555
H102 O50 0.982459 1_555
H103 O51 0.982459 1_555
N32 O8 1.241805 1_555
N32 O0 1.282151 1_555
N32 O4 1.286984 1_555
N33 O9 1.241805 1_545
N33 O1 1.282151 1_555
N33 O5 1.286984 1_555
N34 O10 1.241805 1_555
N34 O2 1.282151 1_555
N34 O6 1.286984 1_555
N35 O11 1.241805 1_565
N35 O3 1.282151 1_555
N35 O7 1.286984 1_555
N36 O20 1.243591 1_555
N36 O16 1.283258 1_555
N36 O12 1.284077 1_555
N37 O21 1.243591 1_545
N37 O17 1.283258 1_555
N37 O13 1.284077 1_555
N38 O22 1.243591 1_555
N38 O18 1.283258 1_555
N38 O14 1.284077 1_555
N39 O23 1.243591 1_565
N39 O19 1.283258 1_555
N39 O15 1.284077 1_555
N40 O28 1.260329 1_555
N40 O24 1.273746 1_555
N40 O32 1.279145 1_555
N41 O29 1.260329 1_555
N41 O25 1.273746 1_555
N41 O33 1.279145 1_555
N42 O30 1.260329 1_555
N42 O26 1.273746 1_555
N42 O34 1.279145 1_555
N43 O31 1.260329 1_555
N43 O27 1.273746 1_555
N43 O35 1.279145 1_555
N44 O36 1.264474 1_555
N44 O44 1.268829 1_555
N44 O40 1.280329 1_455
N45 O37 1.264474 1_555
N45 O45 1.268829 1_555
N45 O41 1.280329 1_455
N46 O38 1.264474 1_555
N46 O46 1.268829 1_555
N46 O42 1.280329 1_655
N47 O39 1.264474 1_555
N47 O47 1.268829 1_555
N47 O43 1.280329 1_655
