# generated using pymatgen
data_Nd2Co23B3
_symmetry_space_group_name_H-M   'P 1'
_cell_length_a   11.91815500
_cell_length_b   11.91815500
_cell_length_c   11.91815500
_cell_angle_alpha   109.47122063
_cell_angle_beta   109.47122063
_cell_angle_gamma   109.47122063
_symmetry_Int_Tables_number   1
_chemical_formula_structural   Nd2Co23B3
_chemical_formula_sum   'Nd8 Co92 B12'
_cell_volume   1303.18237467
_cell_formula_units_Z   4
loop_
 _symmetry_equiv_pos_site_id
 _symmetry_equiv_pos_as_xyz
  1  'x, y, z'
loop_
 _atom_site_type_symbol
 _atom_site_label
 _atom_site_symmetry_multiplicity
 _atom_site_fract_x
 _atom_site_fract_y
 _atom_site_fract_z
 _atom_site_occupancy
  Nd  Nd0  1  0.11408400  0.11408400  0.11408400  1
  Nd  Nd1  1  0.38591600  0.50000000  0.00000000  1
  Nd  Nd2  1  0.00000000  0.38591600  0.50000000  1
  Nd  Nd3  1  0.61408400  0.61408400  0.61408400  1
  Nd  Nd4  1  0.50000000  0.00000000  0.38591600  1
  Nd  Nd5  1  0.88591600  0.50000000  0.00000000  1
  Nd  Nd6  1  0.50000000  0.00000000  0.88591600  1
  Nd  Nd7  1  0.00000000  0.88591600  0.50000000  1
  Co  Co0  1  0.30518900  0.05651900  0.99314600  1
  Co  Co1  1  0.19481100  0.18795700  0.75133000  1
  Co  Co2  1  0.93662800  0.44348100  0.74867000  1
  Co  Co3  1  0.05651900  0.99314600  0.30518900  1
  Co  Co4  1  0.80518900  0.49314600  0.55651900  1
  Co  Co5  1  0.56337200  0.31204300  0.50685400  1
  Co  Co6  1  0.18795700  0.75133000  0.19481100  1
  Co  Co7  1  0.69481100  0.25133000  0.68795700  1
  Co  Co8  1  0.44348100  0.74867000  0.93662800  1
  Co  Co9  1  0.43662800  0.24867000  0.94348100  1
  Co  Co10  1  0.31204300  0.50685400  0.56337200  1
  Co  Co11  1  0.06337200  0.00685400  0.81204300  1
  Co  Co12  1  0.99314600  0.30518900  0.05651900  1
  Co  Co13  1  0.55651900  0.80518900  0.49314600  1
  Co  Co14  1  0.74867000  0.93662800  0.44348100  1
  Co  Co15  1  0.94348100  0.43662800  0.24867000  1
  Co  Co16  1  0.50685400  0.56337200  0.31204300  1
  Co  Co17  1  0.81204300  0.06337200  0.00685400  1
  Co  Co18  1  0.75133000  0.19481100  0.18795700  1
  Co  Co19  1  0.68795700  0.69481100  0.25133000  1
  Co  Co20  1  0.49314600  0.55651900  0.80518900  1
  Co  Co21  1  0.25133000  0.68795700  0.69481100  1
  Co  Co22  1  0.00685400  0.81204300  0.06337200  1
  Co  Co23  1  0.24867000  0.94348100  0.43662800  1
  Co  Co24  1  0.41873000  0.16873000  0.25000000  1
  Co  Co25  1  0.08127000  0.33127000  0.75000000  1
  Co  Co26  1  0.16873000  0.25000000  0.41873000  1
  Co  Co27  1  0.91873000  0.75000000  0.66873000  1
  Co  Co28  1  0.33127000  0.75000000  0.08127000  1
  Co  Co29  1  0.58127000  0.25000000  0.83127000  1
  Co  Co30  1  0.25000000  0.41873000  0.16873000  1
  Co  Co31  1  0.66873000  0.91873000  0.75000000  1
  Co  Co32  1  0.75000000  0.08127000  0.33127000  1
  Co  Co33  1  0.83127000  0.58127000  0.25000000  1
  Co  Co34  1  0.75000000  0.66873000  0.91873000  1
  Co  Co35  1  0.25000000  0.83127000  0.58127000  1
  Co  Co36  1  0.12325900  0.26225800  0.93013000  1
  Co  Co37  1  0.37674100  0.30687100  0.13900000  1
  Co  Co38  1  0.66787200  0.23774200  0.36100000  1
  Co  Co39  1  0.26225800  0.93013000  0.12325900  1
  Co  Co40  1  0.62325900  0.43013000  0.76225800  1
  Co  Co41  1  0.83212800  0.19312900  0.56987000  1
  Co  Co42  1  0.30687100  0.13900000  0.37674100  1
  Co  Co43  1  0.87674100  0.63900000  0.80687100  1
  Co  Co44  1  0.23774200  0.36100000  0.66787200  1
  Co  Co45  1  0.16787200  0.86100000  0.73774200  1
  Co  Co46  1  0.19312900  0.56987000  0.83212800  1
  Co  Co47  1  0.33212800  0.06987000  0.69312900  1
  Co  Co48  1  0.93013000  0.12325900  0.26225800  1
  Co  Co49  1  0.76225800  0.62325900  0.43013000  1
  Co  Co50  1  0.36100000  0.66787200  0.23774200  1
  Co  Co51  1  0.73774200  0.16787200  0.86100000  1
  Co  Co52  1  0.56987000  0.83212800  0.19312900  1
  Co  Co53  1  0.69312900  0.33212800  0.06987000  1
  Co  Co54  1  0.13900000  0.37674100  0.30687100  1
  Co  Co55  1  0.80687100  0.87674100  0.63900000  1
  Co  Co56  1  0.43013000  0.76225800  0.62325900  1
  Co  Co57  1  0.63900000  0.80687100  0.87674100  1
  Co  Co58  1  0.06987000  0.69312900  0.33212800  1
  Co  Co59  1  0.86100000  0.73774200  0.16787200  1
  Co  Co60  1  0.90356000  0.07970200  0.85438200  1
  Co  Co61  1  0.59644000  0.45082200  0.17614100  1
  Co  Co62  1  0.77468100  0.42029800  0.32385900  1
  Co  Co63  1  0.07970200  0.85438200  0.90356000  1
  Co  Co64  1  0.40356000  0.35438200  0.57970200  1
  Co  Co65  1  0.72531900  0.04917800  0.64561800  1
  Co  Co66  1  0.45082200  0.17614100  0.59644000  1
  Co  Co67  1  0.09644000  0.67614100  0.95082200  1
  Co  Co68  1  0.42029800  0.32385900  0.77468100  1
  Co  Co69  1  0.27468100  0.82385900  0.92029800  1
  Co  Co70  1  0.04917800  0.64561800  0.72531900  1
  Co  Co71  1  0.22531900  0.14561800  0.54917800  1
  Co  Co72  1  0.85438200  0.90356000  0.07970200  1
  Co  Co73  1  0.57970200  0.40356000  0.35438200  1
  Co  Co74  1  0.32385900  0.77468100  0.42029800  1
  Co  Co75  1  0.92029800  0.27468100  0.82385900  1
  Co  Co76  1  0.64561800  0.72531900  0.04917800  1
  Co  Co77  1  0.54917800  0.22531900  0.14561800  1
  Co  Co78  1  0.17614100  0.59644000  0.45082200  1
  Co  Co79  1  0.95082200  0.09644000  0.67614100  1
  Co  Co80  1  0.35438200  0.57970200  0.40356000  1
  Co  Co81  1  0.67614100  0.95082200  0.09644000  1
  Co  Co82  1  0.14561800  0.54917800  0.22531900  1
  Co  Co83  1  0.82385900  0.92029800  0.27468100  1
  Co  Co84  1  0.36539800  0.36539800  0.36539800  1
  Co  Co85  1  0.13460200  0.50000000  0.00000000  1
  Co  Co86  1  0.00000000  0.13460200  0.50000000  1
  Co  Co87  1  0.86539800  0.86539800  0.86539800  1
  Co  Co88  1  0.50000000  0.00000000  0.13460200  1
  Co  Co89  1  0.63460200  0.50000000  0.00000000  1
  Co  Co90  1  0.50000000  0.00000000  0.63460200  1
  Co  Co91  1  0.00000000  0.63460200  0.50000000  1
  B  B0  1  0.18866700  0.93866700  0.25000000  1
  B  B1  1  0.31133300  0.56133300  0.75000000  1
  B  B2  1  0.93866700  0.25000000  0.18866700  1
  B  B3  1  0.68866700  0.75000000  0.43866700  1
  B  B4  1  0.56133300  0.75000000  0.31133300  1
  B  B5  1  0.81133300  0.25000000  0.06133300  1
  B  B6  1  0.25000000  0.18866700  0.93866700  1
  B  B7  1  0.43866700  0.68866700  0.75000000  1
  B  B8  1  0.75000000  0.31133300  0.56133300  1
  B  B9  1  0.06133300  0.81133300  0.25000000  1
  B  B10  1  0.75000000  0.43866700  0.68866700  1
  B  B11  1  0.25000000  0.06133300  0.81133300  1
loop_
_geom_bond_atom_site_label_1
_geom_bond_atom_site_label_2
_geom_bond_distance
_geom_bond_site_symmetry_2
Co0 Co77 2.438296 1_556
Co0 Co69 2.467243 1_545
Co0 Co63 2.494394 1_545
Co0 Co24 2.508659 1_556
Co0 Co88 2.806577 1_556
Co0 Nd6 3.150327 1_555
Co0 Nd0 3.210423 1_556
Co1 Co79 2.438296 1_455
Co1 Co71 2.467243 1_555
Co1 Co68 2.494391 1_555
Co1 Co25 2.508659 1_555
Co1 Co86 2.806577 1_555
Co1 Nd7 3.150327 1_545
Co1 Nd1 3.210423 1_556
Co2 Co75 2.438294 1_555
Co2 Co67 2.467243 1_655
Co2 Co70 2.494398 1_655
Co2 Co25 2.508649 1_655
Co2 Co85 2.806572 1_656
Co2 Nd5 3.150333 1_556
Co2 Nd2 3.210416 1_655
Co3 Co71 2.438296 1_565
Co3 Co83 2.467243 1_455
Co3 Co72 2.494394 1_455
Co3 Co86 2.806577 1_565
Co3 Nd7 3.150327 1_555
Co3 Nd0 3.210423 1_565
Co4 Co70 2.438296 1_655
Co4 Co62 2.467243 1_555
Co4 Co73 2.494394 1_555
Co4 Co91 2.806577 1_655
Co4 Nd2 3.150327 1_655
Co4 Nd3 3.210423 1_555
Co5 Co73 2.438300 1_555
Co5 Co64 2.467238 1_555
Co5 Co66 2.494395 1_555
Co5 Co84 2.806569 1_555
Co5 Nd3 3.150323 1_555
Co5 Nd4 3.210426 1_555
Co6 Co67 2.438296 1_554
Co6 Co82 2.467243 1_555
Co6 Co74 2.494391 1_555
Co6 Co85 2.806577 1_555
Co6 Nd5 3.150327 1_455
Co6 Nd4 3.210423 1_565
Co7 Co75 2.494391 1_555
Co7 Co90 2.806577 1_555
Co7 Nd4 3.150327 1_555
Co7 Nd5 3.210423 1_556
Co8 Co81 2.467243 1_556
Co8 Co88 2.806572 1_566
Co8 Nd6 3.150333 1_565
Co8 Nd1 3.210416 1_556
Co9 Nd1 3.150333 1_556
Co9 Nd6 3.210416 1_555
Co10 Co64 2.438300 1_555
Co10 Co80 2.467238 1_555
Co10 Co78 2.494395 1_555
Co10 Co26 2.508658 1_555
Co10 Co84 2.806569 1_555
Co10 Nd3 3.150323 1_555
Co10 Nd2 3.210426 1_555
Co11 Co63 2.438300 1_545
Co11 Co60 2.467238 1_455
Co11 Co79 2.494395 1_455
Co11 Co27 2.508658 1_445
Co11 Co87 2.806569 1_445
Co11 Nd0 3.150323 1_556
Co11 Nd7 3.210426 1_545
Co12 Co82 2.438296 1_655
Co12 Co75 2.467243 1_554
Co12 Co60 2.494394 1_554
Co12 Co30 2.508659 1_655
Co12 Co85 2.806577 1_655
Co12 Nd5 3.150327 1_555
Co12 Nd0 3.210423 1_655
Co13 Co65 2.438296 1_565
Co13 Co74 2.467243 1_555
Co13 Co80 2.494394 1_555
Co13 Co31 2.508659 1_555
Co13 Co90 2.806577 1_565
Co13 Nd4 3.150327 1_565
Co13 Nd3 3.210423 1_555
Co14 Co83 2.438294 1_555
Co14 Co79 2.467243 1_565
Co14 Co65 2.494398 1_565
Co14 Co32 2.508649 1_565
Co14 Co86 2.806572 1_665
Co14 Nd7 3.150333 1_655
Co14 Nd4 3.210416 1_565
Co15 Co62 2.438294 1_555
Co15 Co78 2.467243 1_655
Co15 Co82 2.494398 1_655
Co15 Co33 2.508649 1_555
Co15 Co91 2.806572 1_655
Co15 Nd2 3.150333 1_655
Co15 Nd5 3.210416 1_555
Co16 Co80 2.438300 1_555
Co16 Co73 2.467238 1_555
Co16 Co61 2.494395 1_555
Co16 Co30 2.508658 1_555
Co16 Co84 2.806569 1_555
Co16 Nd3 3.150323 1_555
Co16 Nd1 3.210426 1_555
Co17 Co60 2.438300 1_554
Co17 Co72 2.467238 1_545
Co17 Co81 2.494395 1_545
Co17 Co31 2.508658 1_544
Co17 Co87 2.806569 1_544
Co17 Nd0 3.150323 1_655
Co17 Nd6 3.210426 1_554
Co18 Co81 2.438296 1_545
Co18 Co77 2.467243 1_555
Co18 Co62 2.494391 1_555
Co18 Co32 2.508659 1_555
Co18 Co88 2.806577 1_555
Co18 Nd6 3.150327 1_554
Co18 Nd2 3.210423 1_655
Co19 Co61 2.438296 1_555
Co19 Co76 2.467243 1_555
Co19 Co83 2.494391 1_555
Co19 Co33 2.508659 1_555
Co19 Co89 2.806577 1_555
Co19 Nd1 3.150327 1_555
Co19 Nd7 3.210423 1_655
Co20 Co76 2.438296 1_556
Co20 Co68 2.467243 1_555
Co20 Co64 2.494394 1_555
Co20 Co34 2.508659 1_555
Co20 Co89 2.806577 1_556
Co20 Nd1 3.150327 1_556
Co20 Nd3 3.210423 1_555
Co21 Co78 2.438296 1_555
Co21 Co70 2.467243 1_555
Co21 Co69 2.494391 1_555
Co21 Co35 2.508659 1_555
Co21 Co91 2.806577 1_555
Co21 Nd2 3.150327 1_555
Co21 Nd6 3.210423 1_565
Co22 Co72 2.438300 1_455
Co22 Co63 2.467238 1_554
Co22 Co67 2.494395 1_554
Co22 Co34 2.508658 1_454
Co22 Co87 2.806569 1_454
Co22 Nd0 3.150323 1_565
Co22 Nd5 3.210426 1_455
Co23 Co74 2.438294 1_555
Co23 Co66 2.467243 1_565
Co23 Co71 2.494398 1_565
Co23 Co35 2.508649 1_555
Co23 Co90 2.806572 1_565
Co23 Nd4 3.150333 1_565
Co23 Nd7 3.210416 1_555
Co24 Co42 2.359854 1_555
Co24 Co39 2.359856 1_545
Co24 Co77 2.359941 1_555
Co24 Co73 2.359943 1_555
Co24 Co37 2.504208 1_555
Co24 Co38 2.504216 1_555
Co24 Co5 2.508658 1_555
Co24 Co88 2.686338 1_555
Co24 Co84 2.686338 1_555
Co24 Nd4 3.167055 1_555
Co24 Nd0 3.167055 1_555
Co25 Co44 2.359856 1_555
Co25 Co46 2.359856 1_555
Co25 Co79 2.359941 1_455
Co25 Co75 2.359951 1_455
Co25 Co41 2.504216 1_455
Co25 Co36 2.504216 1_555
Co25 Co85 2.686338 1_556
Co25 Co86 2.686338 1_555
Co25 Nd1 3.167055 1_556
Co25 Nd2 3.167055 1_555
Co26 Co54 2.359854 1_555
Co26 Co48 2.359856 1_455
Co26 Co71 2.359941 1_555
Co26 Co64 2.359943 1_555
Co26 Co42 2.504208 1_555
Co26 Co44 2.504216 1_555
Co26 Co3 2.508659 1_545
Co26 Co86 2.686338 1_555
Co26 Co84 2.686338 1_555
Co26 Nd2 3.167055 1_555
Co26 Nd0 3.167055 1_555
Co27 Co55 2.359854 1_555
Co27 Co49 2.359856 1_555
Co27 Co70 2.359941 1_655
Co27 Co63 2.359943 1_655
Co27 Co43 2.504208 1_555
Co27 Co45 2.504216 1_655
Co27 Co4 2.508659 1_555
Co27 Co91 2.686338 1_655
Co27 Co87 2.686338 1_555
Co27 Nd7 3.167055 1_655
Co27 Nd3 3.167055 1_555
Co28 Co50 2.359856 1_555
Co28 Co52 2.359856 1_555
Co28 Co67 2.359941 1_554
Co28 Co69 2.359951 1_554
Co28 Co46 2.504216 1_554
Co28 Co39 2.504216 1_555
Co28 Co8 2.508649 1_554
Co28 Co6 2.508659 1_555
Co28 Co85 2.686338 1_555
Co28 Co88 2.686338 1_565
Co28 Nd4 3.167055 1_565
Co28 Nd1 3.167055 1_555
Co29 Co51 2.359856 1_555
Co29 Co53 2.359856 1_556
Co29 Co66 2.359941 1_555
Co29 Co68 2.359951 1_555
Co29 Co40 2.504216 1_555
Co29 Co47 2.504216 1_555
Co29 Co9 2.508649 1_555
Co29 Co7 2.508659 1_555
Co29 Co89 2.686338 1_556
Co29 Co90 2.686338 1_555
Co29 Nd5 3.167055 1_556
Co29 Nd6 3.167055 1_555
Co30 Co37 2.359854 1_555
Co30 Co36 2.359856 1_554
Co30 Co82 2.359941 1_555
Co30 Co80 2.359943 1_555
Co30 Co54 2.504208 1_555
Co30 Co50 2.504216 1_555
Co30 Co85 2.686338 1_555
Co30 Co84 2.686338 1_555
Co30 Nd1 3.167055 1_555
Co30 Nd0 3.167055 1_555
Co31 Co57 2.359854 1_555
Co31 Co56 2.359856 1_555
Co31 Co65 2.359941 1_565
Co31 Co60 2.359943 1_565
Co31 Co55 2.504208 1_555
Co31 Co51 2.504216 1_565
Co31 Co90 2.686338 1_565
Co31 Co87 2.686338 1_555
Co31 Nd6 3.167055 1_565
Co31 Nd3 3.167055 1_555
Co32 Co38 2.359856 1_555
Co32 Co41 2.359856 1_555
Co32 Co81 2.359941 1_545
Co32 Co83 2.359951 1_545
Co32 Co52 2.504216 1_545
Co32 Co48 2.504216 1_555
Co32 Co86 2.686338 1_655
Co32 Co88 2.686338 1_555
Co32 Nd4 3.167055 1_555
Co32 Nd2 3.167055 1_655
Co33 Co59 2.359856 1_555
Co33 Co58 2.359856 1_655
Co33 Co61 2.359941 1_555
Co33 Co62 2.359951 1_555
Co33 Co53 2.504216 1_555
Co33 Co49 2.504216 1_555
Co33 Co89 2.686338 1_555
Co33 Co91 2.686338 1_655
Co33 Nd5 3.167055 1_555
Co33 Nd7 3.167055 1_655
Co34 Co43 2.359854 1_555
Co34 Co40 2.359856 1_555
Co34 Co76 2.359941 1_556
Co34 Co72 2.359943 1_556
Co34 Co57 2.504208 1_555
Co34 Co59 2.504216 1_556
Co34 Co89 2.686338 1_556
Co34 Co87 2.686338 1_555
Co34 Nd5 3.167055 1_556
Co34 Nd3 3.167055 1_555
Co35 Co45 2.359856 1_555
Co35 Co47 2.359856 1_565
Co35 Co78 2.359941 1_555
Co35 Co74 2.359951 1_555
Co35 Co58 2.504216 1_555
Co35 Co56 2.504216 1_555
Co35 Co90 2.686338 1_565
Co35 Co91 2.686338 1_555
Co35 Nd6 3.167055 1_565
Co35 Nd7 3.167055 1_555
Co36 Co60 2.391974 1_455
Co36 Co75 2.408023 1_455
Co36 Co79 2.539520 1_455
Co36 Co85 2.614713 1_556
Co36 Nd1 3.049126 1_556
Co36 Nd0 3.247978 1_556
Co37 Co61 2.391984 1_555
Co37 Co73 2.408012 1_555
Co37 Co77 2.539521 1_555
Co37 Co84 2.614701 1_555
Co37 Nd0 3.049120 1_555
Co37 Nd1 3.247987 1_555
Co38 Co62 2.391962 1_555
Co38 Co77 2.408003 1_555
Co38 Co73 2.539510 1_555
Co38 Co88 2.614708 1_555
Co38 Nd4 3.049133 1_555
Co38 Nd2 3.247978 1_655
Co39 Co63 2.391974 1_554
Co39 Co69 2.408023 1_554
Co39 Co67 2.539520 1_554
Co39 Co88 2.614713 1_565
Co39 Nd4 3.049126 1_565
Co39 Nd0 3.247978 1_565
Co40 Co64 2.391974 1_555
Co40 Co68 2.408023 1_555
Co40 Co66 2.539520 1_555
Co40 Co89 2.614713 1_556
Co40 Nd5 3.049126 1_556
Co40 Nd3 3.247978 1_555
Co41 Co65 2.391979 1_555
Co41 Co79 2.408013 1_555
Co41 Co75 2.539521 1_555
Co41 Co86 2.614713 1_655
Co41 Nd2 3.049126 1_655
Co41 Nd4 3.247978 1_555
Co42 Co66 2.391984 1_555
Co42 Co64 2.408012 1_555
Co42 Co71 2.539521 1_555
Co42 Co84 2.614701 1_555
Co42 Nd0 3.049120 1_555
Co42 Nd4 3.247987 1_555
Co43 Co67 2.391984 1_655
Co43 Co63 2.408012 1_655
Co43 Co70 2.539521 1_655
Co43 Co87 2.614701 1_555
Co43 Nd3 3.049120 1_555
Co43 Nd5 3.247987 1_556
Co44 Co68 2.391962 1_555
Co44 Co71 2.408003 1_555
Co44 Co64 2.539510 1_555
Co44 Co86 2.614708 1_555
Co44 Nd2 3.049133 1_555
Co44 Nd1 3.247978 1_556
Co45 Co69 2.391962 1_555
Co45 Co70 2.408003 1_555
Co45 Co63 2.539510 1_555
Co45 Co91 2.614708 1_555
Co45 Nd7 3.049133 1_555
Co45 Nd6 3.247978 1_565
Co46 Co70 2.391979 1_555
Co46 Co67 2.408013 1_555
Co46 Co69 2.539521 1_555
Co46 Co85 2.614713 1_556
Co46 Nd1 3.049126 1_556
Co46 Nd2 3.247978 1_555
Co47 Co71 2.391979 1_555
Co47 Co66 2.408013 1_555
Co47 Co68 2.539521 1_555
Co47 Co90 2.614713 1_555
Co47 Nd6 3.049126 1_555
Co47 Nd7 3.247978 1_545
Co48 Co72 2.391974 1_545
Co48 Co83 2.408023 1_545
Co48 Co81 2.539520 1_545
Co48 Co86 2.614713 1_655
Co48 Nd2 3.049126 1_655
Co48 Nd0 3.247978 1_655
Co49 Co73 2.391974 1_555
Co49 Co62 2.408023 1_555
Co49 Co61 2.539520 1_555
Co49 Co91 2.614713 1_655
Co49 Nd7 3.049126 1_655
Co49 Nd3 3.247978 1_555
Co50 Co74 2.391962 1_555
Co50 Co82 2.408003 1_555
Co50 Co80 2.539510 1_555
Co50 Co85 2.614708 1_555
Co50 Nd1 3.049133 1_555
Co50 Nd4 3.247978 1_565
Co51 Co75 2.391962 1_555
Co51 Co65 2.408003 1_555
Co51 Co60 2.539510 1_555
Co51 Co90 2.614708 1_555
Co51 Nd6 3.049133 1_555
Co51 Nd5 3.247978 1_556
Co52 Co76 2.391979 1_555
Co52 Co81 2.408013 1_555
Co52 Co83 2.539521 1_555
Co52 Co88 2.614713 1_565
Co52 Nd4 3.049126 1_565
Co52 Nd1 3.247978 1_555
Co53 Co77 2.391979 1_555
Co53 Co61 2.408013 1_555
Co53 Co62 2.539521 1_555
Co53 Co89 2.614713 1_555
Co53 Nd5 3.049126 1_555
Co53 Nd6 3.247978 1_554
Co54 Co78 2.391984 1_555
Co54 Co80 2.408012 1_555
Co54 Co82 2.539521 1_555
Co54 Co84 2.614701 1_555
Co54 Nd0 3.049120 1_555
Co54 Nd2 3.247987 1_555
Co55 Co79 2.391984 1_565
Co55 Co60 2.408012 1_565
Co55 Co65 2.539521 1_565
Co55 Co87 2.614701 1_555
Co55 Nd3 3.049120 1_555
Co55 Nd7 3.247987 1_655
Co56 Co80 2.391974 1_555
Co56 Co74 2.408023 1_555
Co56 Co78 2.539520 1_555
Co56 Co90 2.614713 1_565
Co56 Nd6 3.049126 1_565
Co56 Nd3 3.247978 1_555
Co57 Co81 2.391984 1_556
Co57 Co72 2.408012 1_556
Co57 Co76 2.539521 1_556
Co57 Co87 2.614701 1_555
Co57 Nd3 3.049120 1_555
Co57 Nd6 3.247987 1_565
Co58 Co82 2.391979 1_555
Co58 Co78 2.408013 1_555
Co58 Co74 2.539521 1_555
Co58 Co91 2.614713 1_555
Co58 Nd7 3.049126 1_555
Co58 Nd5 3.247978 1_455
Co59 Co83 2.391962 1_555
Co59 Co76 2.408003 1_555
Co59 Co72 2.539510 1_555
Co59 Co89 2.614708 1_555
Co59 Nd5 3.049133 1_555
Co59 Nd7 3.247978 1_655
Co60 Co75 2.423846 1_555
Co60 Co79 2.423852 1_555
Co60 Co65 2.488636 1_555
Co60 Co87 2.497296 1_545
Co60 Nd0 3.055337 1_656
Co61 Co73 2.423852 1_555
Co61 Co77 2.423855 1_555
Co61 Co9 2.467243 1_554
Co61 Co62 2.488649 1_555
Co61 Co89 2.497285 1_555
Co61 Nd1 3.055331 1_555
Co62 Co73 2.423846 1_555
Co62 Co77 2.423852 1_555
Co62 Co91 2.497289 1_655
Co62 Nd2 3.055323 1_655
Co63 Co69 2.423846 1_555
Co63 Co67 2.423852 1_555
Co63 Co70 2.488636 1_555
Co63 Co87 2.497296 1_455
Co63 Nd0 3.055337 1_566
Co64 Co68 2.423846 1_555
Co64 Co66 2.423852 1_555
Co64 Co71 2.488636 1_555
Co64 Co84 2.497296 1_555
Co64 Nd3 3.055337 1_555
Co65 Co75 2.423852 1_555
Co65 Co79 2.423855 1_555
Co65 Co7 2.467243 1_555
Co65 Co90 2.497285 1_555
Co65 Nd4 3.055331 1_555
Co66 Co71 2.423855 1_555
Co66 Co7 2.438296 1_555
Co66 Co68 2.488649 1_555
Co66 Co90 2.497285 1_555
Co66 Nd4 3.055331 1_555
Co67 Co70 2.423855 1_555
Co67 Co69 2.488649 1_555
Co67 Co85 2.497285 1_556
Co67 Nd5 3.055331 1_456
Co68 Co71 2.423852 1_555
Co68 Co9 2.438294 1_555
Co68 Co89 2.497289 1_556
Co68 Nd1 3.055323 1_556
Co69 Co70 2.423852 1_555
Co69 Co8 2.438294 1_555
Co69 Co88 2.497289 1_566
Co69 Nd6 3.055323 1_565
Co70 Co91 2.497285 1_555
Co70 Nd2 3.055331 1_555
Co71 Co86 2.497285 1_555
Co71 Nd7 3.055331 1_545
Co72 Co83 2.423846 1_555
Co72 Co81 2.423852 1_555
Co72 Co76 2.488636 1_555
Co72 Co87 2.497296 1_554
Co72 Nd0 3.055337 1_665
Co73 Co77 2.488636 1_555
Co73 Co84 2.497296 1_555
Co73 Nd3 3.055337 1_555
Co74 Co80 2.423846 1_555
Co74 Co82 2.423852 1_555
Co74 Co78 2.488649 1_555
Co74 Co90 2.497289 1_565
Co74 Nd4 3.055323 1_565
Co75 Co79 2.488649 1_555
Co75 Co85 2.497289 1_656
Co75 Nd5 3.055323 1_556
Co76 Co83 2.423852 1_555
Co76 Co81 2.423855 1_555
Co76 Co8 2.494398 1_554
Co76 Co89 2.497285 1_555
Co76 Nd1 3.055331 1_555
Co77 Co9 2.494398 1_554
Co77 Co88 2.497285 1_555
Co77 Nd6 3.055331 1_554
Co78 Co80 2.423852 1_555
Co78 Co82 2.423855 1_555
Co78 Co91 2.497285 1_555
Co78 Nd2 3.055331 1_555
Co79 Co86 2.497285 1_655
Co79 Nd7 3.055331 1_645
Co80 Co82 2.488636 1_555
Co80 Co84 2.497296 1_555
Co80 Nd3 3.055337 1_555
Co81 Co83 2.488649 1_555
Co81 Co88 2.497285 1_565
Co81 Nd6 3.055331 1_564
Co82 Co85 2.497285 1_555
Co82 Nd5 3.055331 1_455
Co83 Co86 2.497289 1_665
Co83 Nd7 3.055323 1_655
Co84 Nd3 2.963878 1_555
Co84 Nd0 2.995199 1_555
Co85 Nd5 2.963878 1_455
Co85 Nd1 2.995199 1_555
Co86 Nd7 2.963878 1_545
Co86 Nd2 2.995199 1_555
Co87 Nd0 2.963878 1_666
Co87 Nd3 2.995199 1_555
Co88 Nd6 2.963878 1_554
Co88 Nd4 2.995199 1_555
Co89 Co9 2.806572 1_554
Co89 Nd1 2.963878 1_555
Co89 Nd5 2.995199 1_555
Co90 Nd4 2.963878 1_555
Co90 Nd6 2.995199 1_555
Co91 Nd2 2.963878 1_555
Co91 Nd7 2.995199 1_555
B0 B9 1.752358 1_555
B0 Co39 1.975227 1_555
B0 Co42 1.975236 1_565
B0 Co22 2.071030 1_555
B0 Co23 2.071036 1_555
B0 Co6 2.102940 1_555
B0 Co3 2.102940 1_555
B0 Nd4 3.212725 1_565
B0 Nd0 3.212725 1_565
B1 B7 1.752358 1_555
B1 Co46 1.975227 1_555
B1 Co44 1.975238 1_555
B1 Co21 2.071024 1_555
B1 Co20 2.071024 1_555
B1 Co8 2.102945 1_555
B1 Co10 2.102951 1_555
B1 Nd2 3.212725 1_555
B1 Nd1 3.212725 1_556
B2 B5 1.752358 1_555
B2 Co48 1.975227 1_555
B2 Co54 1.975236 1_655
B2 Co17 2.071030 1_555
B2 Co15 2.071036 1_555
B2 Co18 2.102940 1_555
B2 Co12 2.102940 1_555
B2 Nd2 3.212725 1_655
B2 Nd0 3.212725 1_655
B3 B4 1.752358 1_555
B3 Co49 1.975227 1_555
B3 Co55 1.975236 1_555
B3 Co16 2.071030 1_555
B3 Co14 2.071036 1_555
B3 Co13 2.102940 1_555
B3 Co19 2.102940 1_555
B3 Nd3 3.212725 1_555
B3 Nd7 3.212725 1_655
B4 Co52 1.975227 1_555
B4 Co50 1.975238 1_555
B4 Co19 2.071024 1_555
B4 Co13 2.071024 1_555
B4 Co14 2.102945 1_555
B4 Co16 2.102951 1_555
B4 Nd1 3.212725 1_555
B4 Nd4 3.212725 1_565
B5 Co53 1.975227 1_555
B5 Co51 1.975238 1_554
B5 Co18 2.071024 1_555
B5 Co12 2.071024 1_555
B5 Co15 2.102945 1_555
B5 Co17 2.102951 1_555
B5 Nd5 3.212725 1_555
B5 Nd6 3.212725 1_554
B6 Co36 1.975227 1_555
B6 Co37 1.975236 1_556
B6 Co11 2.071030 1_555
B6 Co9 2.071036 1_555
B6 Co1 2.102940 1_555
B6 Co0 2.102940 1_555
B6 Nd1 3.212725 1_556
B6 Nd0 3.212725 1_556
B7 Co56 1.975227 1_555
B7 Co57 1.975236 1_555
B7 Co10 2.071030 1_555
B7 Co8 2.071036 1_555
B7 Co20 2.102940 1_555
B7 Co21 2.102940 1_555
B7 Nd3 3.212725 1_555
B7 Nd6 3.212725 1_565
B8 Co41 1.975227 1_555
B8 Co38 1.975238 1_555
B8 Co7 2.071024 1_555
B8 Co4 2.071024 1_555
B8 Co2 2.102945 1_555
B8 Co5 2.102951 1_555
B8 Nd4 3.212725 1_555
B8 Nd2 3.212725 1_655
B9 Co58 1.975227 1_555
B9 Co59 1.975238 1_455
B9 Co6 2.071024 1_555
B9 Co3 2.071024 1_555
B9 Co23 2.102945 1_555
B9 Co22 2.102951 1_555
B9 Nd5 3.212725 1_455
B9 Nd7 3.212725 1_555
B10 B8 1.752358 1_555
B10 Co40 1.975227 1_555
B10 Co43 1.975236 1_555
B10 Co5 2.071030 1_555
B10 Co2 2.071036 1_555
B10 Co4 2.102940 1_555
B10 Co7 2.102940 1_555
B10 Nd3 3.212725 1_555
B10 Nd5 3.212725 1_556
B11 B6 1.752358 1_555
B11 Co47 1.975227 1_555
B11 Co45 1.975238 1_545
B11 Co1 2.071024 1_555
B11 Co0 2.071024 1_555
B11 Co9 2.102945 1_555
B11 Co11 2.102951 1_555
B11 Nd6 3.212725 1_555
B11 Nd7 3.212725 1_545
