# generated using pymatgen
data_Sr4CaYGa2(Cu2O7)2
_symmetry_space_group_name_H-M   'P 1'
_cell_length_a   12.23851722
_cell_length_b   12.23851722
_cell_length_c   5.50183153
_cell_angle_alpha   77.06818351
_cell_angle_beta   77.06818351
_cell_angle_gamma   25.46827948
_symmetry_Int_Tables_number   1
_chemical_formula_structural   Sr4CaYGa2(Cu2O7)2
_chemical_formula_sum   'Sr4 Ca1 Y1 Ga2 Cu4 O14'
_cell_volume   344.90719678
_cell_formula_units_Z   1
loop_
 _symmetry_equiv_pos_site_id
 _symmetry_equiv_pos_as_xyz
  1  'x, y, z'
loop_
 _atom_site_type_symbol
 _atom_site_label
 _atom_site_symmetry_multiplicity
 _atom_site_fract_x
 _atom_site_fract_y
 _atom_site_fract_z
 _atom_site_occupancy
  Sr  Sr0  1  0.14825600  0.15238600  0.86407600  1
  Sr  Sr1  1  0.84761400  0.85174400  0.13592400  1
  Sr  Sr2  1  0.34632200  0.35101400  0.66568200  1
  Sr  Sr3  1  0.64898600  0.65367800  0.33431800  1
  Ca  Ca0  1  0.00002100  0.99997900  0.00000000  1
  Y  Y0  1  0.49996400  0.50003600  0.50000000  1
  Ga  Ga0  1  0.70435800  0.79559400  0.68160100  1
  Ga  Ga1  1  0.20440600  0.29564200  0.31839900  1
  Cu  Cu0  1  0.57338800  0.57313500  0.92638600  1
  Cu  Cu1  1  0.42686500  0.42661200  0.07361400  1
  Cu  Cu2  1  0.92673600  0.92656300  0.57264100  1
  Cu  Cu3  1  0.07343700  0.07326400  0.42735900  1
  O  O0  1  0.85216400  0.64874700  0.36505700  1
  O  O1  1  0.35125300  0.14783600  0.63494300  1
  O  O2  1  0.31661000  0.80910800  0.19130800  1
  O  O3  1  0.19089200  0.68339000  0.80869200  1
  O  O4  1  0.68214900  0.19203600  0.80727200  1
  O  O5  1  0.80796400  0.31785100  0.19272800  1
  O  O6  1  0.19216200  0.16028100  0.27966700  1
  O  O7  1  0.83971900  0.80783800  0.72033300  1
  O  O8  1  0.34035200  0.30717600  0.13332500  1
  O  O9  1  0.69282400  0.65964800  0.86667500  1
  O  O10  1  0.81168300  0.32214200  0.67736800  1
  O  O11  1  0.67785800  0.18831700  0.32263200  1
  O  O12  1  0.18810500  0.67809100  0.32226800  1
  O  O13  1  0.32190900  0.81189500  0.67773200  1
loop_
_geom_bond_atom_site_label_1
_geom_bond_atom_site_label_2
_geom_bond_distance
_geom_bond_site_symmetry_2
Ca0 O3 2.441118 1_554
Ca0 O2 2.441118 1_555
Ca0 O4 2.450156 1_464
Ca0 O5 2.450156 1_465
Ca0 O12 2.507631 1_555
Ca0 O13 2.507631 1_554
Ca0 O11 2.509657 1_465
Ca0 O10 2.509657 1_464
Ga0 O9 1.851048 1_555
Ga0 O7 1.852777 1_555
Ga0 O0 1.912041 1_555
Ga0 O1 1.920399 1_565
Ga1 O8 1.851048 1_555
Ga1 O6 1.852777 1_555
Ga1 O1 1.912041 1_555
Ga1 O0 1.920399 1_455
Cu0 O10 1.933289 1_555
Cu0 O13 1.933648 1_555
Cu0 O2 1.946040 1_556
Cu0 O5 1.946420 1_556
Cu0 O9 2.406136 1_555
Cu1 O11 1.933289 1_555
Cu1 O12 1.933648 1_555
Cu1 O3 1.946040 1_554
Cu1 O4 1.946420 1_554
Cu1 O8 2.406136 1_555
Cu2 O12 1.927601 1_655
Cu2 O11 1.927753 1_565
Cu2 O4 1.941553 1_565
Cu2 O3 1.942113 1_655
Cu2 O7 2.404989 1_555
Cu3 O13 1.927601 1_545
Cu3 O10 1.927753 1_455
Cu3 O5 1.941553 1_455
Cu3 O2 1.942113 1_545
Cu3 O6 2.404989 1_555
O0 Sr3 2.475502 1_555
O0 Sr1 2.478773 1_555
O1 Sr2 2.475502 1_555
O1 Sr0 2.478773 1_555
O2 Y0 2.394129 1_555
O2 Sr3 2.752314 1_555
O2 Sr0 2.789566 1_564
O3 Y0 2.394129 1_555
O3 Sr2 2.752314 1_555
O3 Sr1 2.789566 1_456
O4 Y0 2.386904 1_555
O4 Sr2 2.756841 1_555
O4 Sr1 2.784782 1_546
O5 Y0 2.386904 1_555
O5 Sr3 2.756841 1_555
O5 Sr0 2.784782 1_654
O6 Sr0 2.503750 1_554
O6 Sr3 2.667687 1_545
O6 Sr3 2.860282 1_455
O6 Sr0 3.133329 1_555
O7 Sr1 2.503750 1_556
O7 Sr2 2.667687 1_655
O7 Sr2 2.860282 1_565
O7 Sr1 3.133329 1_555
O8 Sr2 2.506345 1_554
O8 Sr1 2.670547 1_545
O8 Sr1 2.866673 1_455
O8 Sr2 3.121180 1_555
O9 Sr3 2.506345 1_556
O9 Sr0 2.670547 1_655
O9 Sr0 2.866673 1_565
O9 Sr3 3.121180 1_555
O10 Y0 2.442202 1_555
O10 Sr3 2.767071 1_555
O10 Sr0 2.797359 1_655
O11 Y0 2.442202 1_555
O11 Sr2 2.767071 1_555
O11 Sr1 2.797359 1_545
O12 Y0 2.443555 1_555
O12 Sr2 2.756713 1_555
O12 Sr1 2.806855 1_455
O13 Y0 2.443555 1_555
O13 Sr3 2.756713 1_555
O13 Sr0 2.806855 1_565
