# generated using pymatgen
data_CaBC
_symmetry_space_group_name_H-M   'P 1'
_cell_length_a   2.96675371
_cell_length_b   2.96675371
_cell_length_c   8.20541400
_cell_angle_alpha   90.00000000
_cell_angle_beta   90.00000000
_cell_angle_gamma   119.99999361
_symmetry_Int_Tables_number   1
_chemical_formula_structural   CaBC
_chemical_formula_sum   'Ca2 B2 C2'
_cell_volume   62.54522325
_cell_formula_units_Z   2
loop_
 _symmetry_equiv_pos_site_id
 _symmetry_equiv_pos_as_xyz
  1  'x, y, z'
loop_
 _atom_site_type_symbol
 _atom_site_label
 _atom_site_symmetry_multiplicity
 _atom_site_fract_x
 _atom_site_fract_y
 _atom_site_fract_z
 _atom_site_occupancy
  Ca  Ca0  1  0.00000000  0.00000000  0.50000000  1
  Ca  Ca1  1  0.00000000  0.00000000  0.00000000  1
  B  B0  1  0.33333300  0.66666700  0.75000000  1
  B  B1  1  0.66666700  0.33333300  0.25000000  1
  C  C0  1  0.33333300  0.66666700  0.25000000  1
  C  C1  1  0.66666700  0.33333300  0.75000000  1
loop_
_geom_bond_atom_site_label_1
_geom_bond_atom_site_label_2
_geom_bond_distance
_geom_bond_site_symmetry_2
B0 C1 1.712854 1_455
B0 C1 1.712854 1_565
B0 C1 1.712859 1_555
B0 Ca0 2.672437 1_565
B0 Ca1 2.672437 1_566
B0 Ca1 2.672439 1_556
B0 Ca0 2.672439 1_665
B0 Ca0 2.672439 1_555
B0 Ca1 2.672439 1_666
B1 C0 1.712854 1_545
B1 C0 1.712854 1_655
B1 C0 1.712859 1_555
B1 Ca0 2.672437 1_655
B1 Ca1 2.672437 1_655
B1 Ca0 2.672439 1_665
B1 Ca1 2.672439 1_555
B1 Ca0 2.672439 1_555
B1 Ca1 2.672439 1_665
C0 Ca1 2.672437 1_565
C0 Ca0 2.672437 1_565
C0 Ca0 2.672439 1_665
C0 Ca1 2.672439 1_555
C0 Ca0 2.672439 1_555
C0 Ca1 2.672439 1_665
C1 Ca0 2.672437 1_655
C1 Ca1 2.672437 1_656
C1 Ca1 2.672439 1_556
C1 Ca0 2.672439 1_665
C1 Ca0 2.672439 1_555
C1 Ca1 2.672439 1_666
