# generated using pymatgen
data_Li9Mn2Co5O16
_symmetry_space_group_name_H-M   'P 1'
_cell_length_a   5.03906700
_cell_length_b   5.10526603
_cell_length_c   11.79768582
_cell_angle_alpha   91.14839873
_cell_angle_beta   92.07247457
_cell_angle_gamma   108.20262448
_symmetry_Int_Tables_number   1
_chemical_formula_structural   Li9Mn2Co5O16
_chemical_formula_sum   'Li9 Mn2 Co5 O16'
_cell_volume   287.97095644
_cell_formula_units_Z   1
loop_
 _symmetry_equiv_pos_site_id
 _symmetry_equiv_pos_as_xyz
  1  'x, y, z'
loop_
 _atom_site_type_symbol
 _atom_site_label
 _atom_site_symmetry_multiplicity
 _atom_site_fract_x
 _atom_site_fract_y
 _atom_site_fract_z
 _atom_site_occupancy
  Li  Li0  1  0.00413100  0.50311400  0.12910800  1
  Li  Li1  1  0.48435300  0.48599500  0.26208700  1
  Li  Li2  1  0.99738700  0.50316900  0.38268700  1
  Li  Li3  1  0.49908300  0.50319800  0.50228300  1
  Li  Li4  1  0.00305000  0.49162700  0.62069100  1
  Li  Li5  1  0.51348000  0.50693200  0.74069100  1
  Li  Li6  1  0.99759300  0.49877700  0.86734900  1
  Li  Li7  1  0.49881600  0.49946300  0.99533900  1
  Li  Li8  1  0.99845100  0.99725900  0.49938300  1
  Mn  Mn0  1  0.00309600  0.00251800  0.99792600  1
  Mn  Mn1  1  0.49859500  0.00199700  0.12895400  1
  Co  Co0  1  0.99484200  0.99586200  0.25869600  1
  Co  Co1  1  0.49876500  0.99557500  0.37977300  1
  Co  Co2  1  0.49546300  0.01119500  0.62167500  1
  Co  Co3  1  0.99891600  0.99765900  0.73865300  1
  Co  Co4  1  0.50856900  0.00174100  0.87099400  1
  O  O0  1  0.24494000  0.77135900  0.00942200  1
  O  O1  1  0.77335300  0.79255200  0.12049800  1
  O  O2  1  0.24173000  0.77330900  0.26085600  1
  O  O3  1  0.72407300  0.77279300  0.36845100  1
  O  O4  1  0.28158200  0.77507400  0.49280100  1
  O  O5  1  0.76020200  0.76529900  0.63163200  1
  O  O6  1  0.27302400  0.76941400  0.75764100  1
  O  O7  1  0.75425200  0.77289700  0.88147000  1
  O  O8  1  0.73849100  0.22126000  0.25337700  1
  O  O9  1  0.24827000  0.21539800  0.36710000  1
  O  O10  1  0.71677200  0.22549200  0.49319500  1
  O  O11  1  0.25219500  0.23590100  0.63009400  1
  O  O12  1  0.75219800  0.24139700  0.74912800  1
  O  O13  1  0.23529600  0.20533600  0.88028400  1
  O  O14  1  0.75797900  0.22930600  0.99032700  1
  O  O15  1  0.25105500  0.23713000  0.11743000  1
loop_
_geom_bond_atom_site_label_1
_geom_bond_atom_site_label_2
_geom_bond_distance
_geom_bond_site_symmetry_2
Li0 O15 2.114621 1_555
Li0 O2 2.121279 1_555
Li0 O0 2.122479 1_555
Li0 O1 2.148763 1_455
Li0 O14 2.202591 1_454
Li0 O8 2.243855 1_455
Li1 O3 1.972149 1_555
Li1 O9 2.001760 1_555
Li1 O8 2.136000 1_555
Li1 O15 2.177989 1_555
Li1 O2 2.183220 1_555
Li1 O1 2.493451 1_555
Li2 O4 2.053440 1_655
Li2 O2 2.151858 1_655
Li2 O10 2.159613 1_555
Li2 O8 2.166945 1_555
Li2 O9 2.226390 1_655
Li2 O3 2.235334 1_555
Li3 O4 2.021891 1_555
Li3 O10 2.049119 1_555
Li3 O5 2.126850 1_555
Li3 O11 2.200257 1_555
Li3 O9 2.213557 1_555
Li3 O3 2.216835 1_555
Li4 O11 2.076701 1_555
Li4 O5 2.130405 1_455
Li4 O10 2.173973 1_455
Li4 O12 2.175568 1_455
Li4 O6 2.239699 1_555
Li4 O4 2.304827 1_555
Li5 O11 2.003939 1_555
Li5 O5 2.024885 1_555
Li5 O12 2.076098 1_555
Li5 O6 2.079675 1_555
Li5 O7 2.192899 1_555
Li5 O13 2.442974 1_555
Li6 O12 1.996902 1_555
Li6 O6 2.124639 1_655
Li6 O7 2.137137 1_555
Li6 O14 2.150445 1_555
Li6 O13 2.195295 1_655
Li6 O0 2.229631 1_656
Li7 O13 2.098279 1_555
Li7 O7 2.118449 1_555
Li7 O15 2.142397 1_556
Li7 O0 2.169471 1_556
Li7 O14 2.176890 1_555
Li7 O1 2.191686 1_556
Li8 O11 2.075114 1_665
Li8 O4 2.084171 1_655
Li8 O3 2.096572 1_555
Li8 O10 2.099256 1_565
Li8 O9 2.143926 1_665
Li8 O5 2.144606 1_555
Mn0 O7 1.930465 1_445
Mn0 O14 1.940051 1_455
Mn0 O13 1.945667 1_555
Mn0 O0 1.946593 1_546
Mn0 O15 1.963024 1_556
Mn0 O1 1.997075 1_446
Mn1 O8 1.956909 1_555
Mn1 O0 1.967652 1_545
Mn1 O15 1.986248 1_555
Mn1 O1 2.000207 1_545
Mn1 O2 2.175869 1_545
Mn1 O14 2.238957 1_554
Co0 O9 1.858181 1_665
Co0 O2 1.929068 1_655
Co0 O8 1.980521 1_565
Co0 O3 2.012795 1_555
Co0 O1 2.014466 1_555
Co0 O15 2.281673 1_665
Co1 O10 1.843982 1_565
Co1 O3 1.847176 1_555
Co1 O4 1.907647 1_555
Co1 O9 1.937319 1_565
Co1 O2 1.954480 1_555
Co1 O8 2.083265 1_565
Co2 O11 1.926500 1_555
Co2 O4 1.980580 1_545
Co2 O12 2.038237 1_555
Co2 O10 2.040739 1_555
Co2 O5 2.100061 1_545
Co2 O6 2.167515 1_545
Co3 O5 1.840367 1_555
Co3 O11 1.989828 1_665
Co3 O12 2.020085 1_565
Co3 O6 2.075927 1_655
Co3 O13 2.081087 1_665
Co3 O7 2.240425 1_555
Co4 O6 1.883101 1_545
Co4 O14 1.950784 1_555
Co4 O7 1.952244 1_545
Co4 O13 1.972102 1_555
Co4 O12 2.081098 1_555
Co4 O0 2.252328 1_546
