# generated using pymatgen
data_Mg(GeN)2
_symmetry_space_group_name_H-M   'P 1'
_cell_length_a   3.04567900
_cell_length_b   3.04570187
_cell_length_c   8.83686300
_cell_angle_alpha   90.00053874
_cell_angle_beta   89.99982293
_cell_angle_gamma   120.00032703
_symmetry_Int_Tables_number   1
_chemical_formula_structural   Mg(GeN)2
_chemical_formula_sum   'Mg1 Ge2 N2'
_cell_volume   70.99027221
_cell_formula_units_Z   1
loop_
 _symmetry_equiv_pos_site_id
 _symmetry_equiv_pos_as_xyz
  1  'x, y, z'
loop_
 _atom_site_type_symbol
 _atom_site_label
 _atom_site_symmetry_multiplicity
 _atom_site_fract_x
 _atom_site_fract_y
 _atom_site_fract_z
 _atom_site_occupancy
  Mg  Mg0  1  0.00001400  0.99999700  0.00000200  1
  Ge  Ge0  1  0.66666100  0.33333300  0.28450000  1
  Ge  Ge1  1  0.33332900  0.66666400  0.71550100  1
  N  N0  1  0.66666900  0.33333500  0.84542700  1
  N  N1  1  0.33332800  0.66667100  0.15457100  1
loop_
_geom_bond_atom_site_label_1
_geom_bond_atom_site_label_2
_geom_bond_distance
_geom_bond_site_symmetry_2
Mg0 N1 2.226560 1_555
Mg0 N0 2.226606 1_564
Mg0 N1 2.226612 1_565
Mg0 N0 2.226619 1_454
Mg0 N1 2.226638 1_455
Mg0 N0 2.226682 1_464
Ge0 N1 2.100067 1_545
Ge0 N1 2.100078 1_655
Ge0 N1 2.100104 1_555
Ge1 N0 2.100048 1_455
Ge1 N0 2.100073 1_565
Ge1 N0 2.100086 1_555
