# generated using pymatgen
data_Er5SbPt2
_symmetry_space_group_name_H-M   'P 1'
_cell_length_a   8.65235099
_cell_length_b   8.65235099
_cell_length_c   8.65235099
_cell_angle_alpha   127.58507875
_cell_angle_beta   127.58507875
_cell_angle_gamma   77.29815473
_symmetry_Int_Tables_number   1
_chemical_formula_structural   Er5SbPt2
_chemical_formula_sum   'Er10 Sb2 Pt4'
_cell_volume   394.64650021
_cell_formula_units_Z   2
loop_
 _symmetry_equiv_pos_site_id
 _symmetry_equiv_pos_as_xyz
  1  'x, y, z'
loop_
 _atom_site_type_symbol
 _atom_site_label
 _atom_site_symmetry_multiplicity
 _atom_site_fract_x
 _atom_site_fract_y
 _atom_site_fract_z
 _atom_site_occupancy
  Er  Er0  1  -0.00000000  0.00000000  0.00000000  1
  Er  Er1  1  0.50000000  0.50000000  0.00000000  1
  Er  Er2  1  0.79497591  0.29497591  0.81260578  1
  Er  Er3  1  0.20502409  0.70502409  0.18739422  1
  Er  Er4  1  0.48236913  0.98236913  0.18739422  1
  Er  Er5  1  0.29497591  0.48236913  0.50000000  1
  Er  Er6  1  0.01763087  0.20502409  0.50000000  1
  Er  Er7  1  0.51763087  0.01763087  0.81260578  1
  Er  Er8  1  0.70502409  0.51763087  0.50000000  1
  Er  Er9  1  0.98236913  0.79497591  0.50000000  1
  Sb  Sb0  1  0.25000000  0.25000000  0.00000000  1
  Sb  Sb1  1  0.75000000  0.75000000  0.00000000  1
  Pt  Pt0  1  0.13944171  0.63944171  0.77888342  1
  Pt  Pt1  1  0.86055829  0.36055829  0.22111658  1
  Pt  Pt2  1  0.63944171  0.86055829  0.50000000  1
  Pt  Pt3  1  0.36055829  0.13944171  0.50000000  1
loop_
_geom_bond_atom_site_label_1
_geom_bond_atom_site_label_2
_geom_bond_distance
_geom_bond_site_symmetry_2
Er0 Pt2 2.954323 1_444
Er0 Pt0 2.954323 1_544
Er0 Pt3 2.954323 1_555
Er0 Pt1 2.954323 1_455
Er0 Sb1 3.378682 1_445
Er0 Sb0 3.378682 1_555
Er1 Pt1 2.954323 1_555
Er1 Pt2 2.954323 1_555
Er1 Pt3 2.954323 1_554
Er1 Pt0 2.954323 1_554
Er1 Sb0 3.378682 1_555
Er1 Sb1 3.378682 1_555
Er2 Pt1 2.895770 1_556
Er2 Pt3 2.938898 1_555
Er2 Pt2 2.938898 1_545
Er2 Sb0 3.254141 1_656
Er2 Sb1 3.254141 1_556
Er3 Pt0 2.895770 1_554
Er3 Pt2 2.938898 1_555
Er3 Pt3 2.938898 1_565
Er3 Sb0 3.254141 1_555
Er3 Sb1 3.254141 1_455
Er4 Pt0 2.895762 1_554
Er4 Pt3 2.938889 1_565
Er4 Pt2 2.938889 1_555
Er4 Sb0 3.254147 1_565
Er4 Sb1 3.254147 1_555
Er5 Pt3 2.895762 1_555
Er5 Pt0 2.938897 1_555
Er5 Pt1 2.938897 1_455
Er5 Sb1 3.254143 1_556
Er5 Sb0 3.254143 1_555
Er6 Pt3 2.895762 1_555
Er6 Pt1 2.938897 1_455
Er6 Pt0 2.938897 1_555
Er6 Sb1 3.254143 1_445
Er6 Sb0 3.254143 1_556
Er7 Pt1 2.895762 1_556
Er7 Pt3 2.938889 1_555
Er7 Pt2 2.938889 1_545
Er7 Sb0 3.254147 1_556
Er7 Sb1 3.254147 1_546
Er8 Pt2 2.895762 1_555
Er8 Pt1 2.938897 1_555
Er8 Pt0 2.938897 1_655
Er8 Sb0 3.254143 1_555
Er8 Sb1 3.254143 1_556
Er9 Pt2 2.895762 1_555
Er9 Pt0 2.938897 1_655
Er9 Pt1 2.938897 1_555
Er9 Sb0 3.254143 1_666
Er9 Sb1 3.254143 1_555
