# generated using pymatgen
data_LaMg6Fe
_symmetry_space_group_name_H-M   'P 1'
_cell_length_a   5.01348400
_cell_length_b   5.81065900
_cell_length_c   12.45256300
_cell_angle_alpha   90.00000000
_cell_angle_beta   90.00000000
_cell_angle_gamma   90.00000000
_symmetry_Int_Tables_number   1
_chemical_formula_structural   LaMg6Fe
_chemical_formula_sum   'La2 Mg12 Fe2'
_cell_volume   362.76365619
_cell_formula_units_Z   2
loop_
 _symmetry_equiv_pos_site_id
 _symmetry_equiv_pos_as_xyz
  1  'x, y, z'
loop_
 _atom_site_type_symbol
 _atom_site_label
 _atom_site_symmetry_multiplicity
 _atom_site_fract_x
 _atom_site_fract_y
 _atom_site_fract_z
 _atom_site_occupancy
  La  La0  1  0.50000000  0.50000000  0.18682400  1
  La  La1  1  0.50000000  0.00000000  0.68682400  1
  Mg  Mg0  1  0.50000000  0.25271700  0.43730200  1
  Mg  Mg1  1  0.50000000  0.74728300  0.43730200  1
  Mg  Mg2  1  0.00000000  0.76085300  0.07712100  1
  Mg  Mg3  1  0.00000000  0.23914700  0.07712100  1
  Mg  Mg4  1  0.00000000  0.00000000  0.29174100  1
  Mg  Mg5  1  0.00000000  0.50000000  0.35083200  1
  Mg  Mg6  1  0.50000000  0.75271700  0.93730200  1
  Mg  Mg7  1  0.50000000  0.24728300  0.93730200  1
  Mg  Mg8  1  0.00000000  0.26085300  0.57712100  1
  Mg  Mg9  1  0.00000000  0.73914700  0.57712100  1
  Mg  Mg10  1  0.00000000  0.50000000  0.79174100  1
  Mg  Mg11  1  0.00000000  0.00000000  0.85083200  1
  Fe  Fe0  1  0.50000000  0.00000000  0.14175200  1
  Fe  Fe1  1  0.50000000  0.50000000  0.64175200  1
loop_
_geom_bond_atom_site_label_1
_geom_bond_atom_site_label_2
_geom_bond_distance
_geom_bond_site_symmetry_2
La0 Mg3 3.232239 1_555
La0 Mg2 3.232239 1_555
La0 Mg3 3.232239 1_655
La0 Mg2 3.232239 1_655
La0 Mg5 3.233392 1_655
La0 Mg5 3.233392 1_555
La0 Mg1 3.434146 1_555
La0 Mg0 3.434146 1_555
La0 Mg6 3.436709 1_554
La0 Mg7 3.436709 1_554
La1 Mg8 3.232239 1_555
La1 Mg8 3.232239 1_655
La1 Mg9 3.232239 1_545
La1 Mg9 3.232239 1_645
La1 Mg11 3.233392 1_655
La1 Mg11 3.233392 1_555
La1 Mg7 3.434146 1_555
La1 Mg6 3.434146 1_545
La1 Mg0 3.436709 1_555
La1 Mg1 3.436709 1_545
Mg0 Mg1 2.873754 1_555
Mg0 Mg1 2.936905 1_545
Mg0 Mg8 3.052448 1_555
Mg0 Mg8 3.052448 1_655
Mg0 Mg5 3.083474 1_555
Mg0 Mg5 3.083474 1_655
Mg0 Mg4 3.424274 1_555
Mg0 Mg4 3.424274 1_655
Mg1 Mg9 3.052448 1_555
Mg1 Mg9 3.052448 1_655
Mg1 Mg5 3.083474 1_555
Mg1 Mg5 3.083474 1_655
Mg1 Mg4 3.424274 1_665
Mg1 Mg4 3.424274 1_565
Mg2 Mg3 2.779203 1_565
Mg2 Mg4 3.012245 1_565
Mg2 Mg3 3.031456 1_555
Mg2 Mg6 3.052448 1_554
Mg2 Mg6 3.052448 1_454
Mg3 Mg4 3.012245 1_555
Mg3 Mg7 3.052448 1_454
Mg3 Mg7 3.052448 1_554
Mg4 Mg5 2.997064 1_545
Mg4 Mg5 2.997064 1_555
Mg5 Mg9 3.141883 1_555
Mg5 Mg8 3.141883 1_555
Mg6 Mg7 2.873754 1_565
Mg6 Mg7 2.936905 1_555
Mg8 Mg9 2.779203 1_555
Mg8 Mg9 3.031456 1_545
Mg10 Mg11 2.997064 1_555
Mg10 Mg11 2.997064 1_565
Mg10 Mg8 3.012245 1_555
Mg10 Mg9 3.012245 1_555
Mg10 Mg6 3.424274 1_555
Mg10 Mg6 3.424274 1_455
Mg10 Mg7 3.424274 1_455
Mg10 Mg7 3.424274 1_555
Mg11 Mg7 3.083474 1_455
Mg11 Mg7 3.083474 1_555
Mg11 Mg6 3.083474 1_445
Mg11 Mg6 3.083474 1_545
Mg11 Mg3 3.141883 1_556
Mg11 Mg2 3.141883 1_546
Fe0 Mg7 2.923415 1_554
Fe0 Mg6 2.923415 1_544
Fe0 La0 2.959046 1_545
Fe0 La0 2.959046 1_555
Fe0 Mg3 2.976993 1_655
Fe0 Mg2 2.976993 1_545
Fe0 Mg3 2.976993 1_555
Fe0 Mg2 2.976993 1_645
Fe0 Mg4 3.126058 1_655
Fe0 Mg4 3.126058 1_555
Fe1 Mg1 2.923415 1_555
Fe1 Mg0 2.923415 1_555
Fe1 La1 2.959046 1_555
Fe1 La1 2.959046 1_565
Fe1 Mg9 2.976993 1_555
Fe1 Mg9 2.976993 1_655
Fe1 Mg8 2.976993 1_655
Fe1 Mg8 2.976993 1_555
Fe1 Mg10 3.126058 1_555
Fe1 Mg10 3.126058 1_655
