# generated using pymatgen
data_CePS
_symmetry_space_group_name_H-M   'P 1'
_cell_length_a   5.55542957
_cell_length_b   5.65898542
_cell_length_c   17.06940239
_cell_angle_alpha   90.00000000
_cell_angle_beta   90.00000000
_cell_angle_gamma   90.00000000
_symmetry_Int_Tables_number   1
_chemical_formula_structural   CePS
_chemical_formula_sum   'Ce8 P8 S8'
_cell_volume   536.62949288
_cell_formula_units_Z   8
loop_
 _symmetry_equiv_pos_site_id
 _symmetry_equiv_pos_as_xyz
  1  'x, y, z'
loop_
 _atom_site_type_symbol
 _atom_site_label
 _atom_site_symmetry_multiplicity
 _atom_site_fract_x
 _atom_site_fract_y
 _atom_site_fract_z
 _atom_site_occupancy
  Ce  Ce0  1  0.75000000  0.01252936  0.35071097  1
  Ce  Ce1  1  0.25000000  0.48747064  0.85071097  1
  Ce  Ce2  1  0.75000000  0.51252936  0.14928903  1
  Ce  Ce3  1  0.25000000  0.98747064  0.64928903  1
  Ce  Ce4  1  0.75000000  0.48811814  0.63705493  1
  Ce  Ce5  1  0.25000000  0.01188186  0.13705493  1
  Ce  Ce6  1  0.75000000  0.98811814  0.86294507  1
  Ce  Ce7  1  0.25000000  0.51188186  0.36294507  1
  P  P0  1  0.54726310  0.30913277  0.00273536  1
  P  P1  1  0.45273690  0.19086723  0.50273536  1
  P  P2  1  0.95273690  0.80913277  0.49726464  1
  P  P3  1  0.04726310  0.69086723  0.99726464  1
  P  P4  1  0.45273690  0.69086723  0.99726464  1
  P  P5  1  0.54726310  0.80913277  0.49726464  1
  P  P6  1  0.04726310  0.19086723  0.50273536  1
  P  P7  1  0.95273690  0.30913277  0.00273536  1
  S  S0  1  0.75000000  0.00852174  0.17992604  1
  S  S1  1  0.25000000  0.49147826  0.67992604  1
  S  S2  1  0.75000000  0.50852174  0.32007396  1
  S  S3  1  0.25000000  -0.00852174  0.82007396  1
  S  S4  1  0.75000000  0.49233627  0.81119396  1
  S  S5  1  0.25000000  0.00766373  0.31119396  1
  S  S6  1  0.75000000  0.99233627  0.68880604  1
  S  S7  1  0.25000000  0.50766373  0.18880604  1
loop_
_geom_bond_atom_site_label_1
_geom_bond_atom_site_label_2
_geom_bond_distance
_geom_bond_site_symmetry_2
Ce0 S2 2.855116 1_555
Ce0 S5 2.858575 1_555
Ce0 S5 2.858575 1_655
Ce0 S2 2.899718 1_545
Ce0 S0 2.915285 1_555
Ce0 P5 2.975112 1_545
Ce0 P2 2.975112 1_545
Ce0 P6 3.237214 1_655
Ce0 P1 3.237214 1_555
Ce1 S3 2.855116 1_555
Ce1 S4 2.858575 1_455
Ce1 S4 2.858575 1_555
Ce1 S3 2.899718 1_565
Ce1 S1 2.915285 1_555
Ce1 P4 2.975112 1_555
Ce1 P3 2.975112 1_555
Ce1 P0 3.237214 1_556
Ce1 P7 3.237214 1_456
Ce2 S0 2.855116 1_565
Ce2 S7 2.858575 1_555
Ce2 S7 2.858575 1_655
Ce2 S0 2.899718 1_555
Ce2 S2 2.915285 1_555
Ce2 P7 2.975112 1_555
Ce2 P0 2.975112 1_555
Ce2 P3 3.237214 1_654
Ce2 P4 3.237214 1_554
Ce3 S1 2.855116 1_555
Ce3 S6 2.858575 1_455
Ce3 S6 2.858575 1_555
Ce3 S1 2.899718 1_565
Ce3 S3 2.915285 1_565
Ce3 P1 2.975112 1_565
Ce3 P6 2.975112 1_565
Ce3 P5 3.237214 1_555
Ce3 P2 3.237214 1_455
Ce4 S1 2.872554 1_555
Ce4 S1 2.872554 1_655
Ce4 S6 2.941401 1_545
Ce4 S4 2.972545 1_555
Ce4 S6 2.986973 1_555
Ce4 P5 3.203479 1_555
Ce4 P2 3.203479 1_555
Ce4 P6 3.288391 1_655
Ce4 P1 3.288391 1_555
Ce5 S0 2.872554 1_555
Ce5 S0 2.872554 1_455
Ce5 S7 2.941401 1_555
Ce5 S5 2.972545 1_555
Ce5 S7 2.986973 1_545
Ce5 P4 3.203479 1_544
Ce5 P3 3.203479 1_544
Ce5 P0 3.288391 1_555
Ce5 P7 3.288391 1_455
Ce6 S3 2.872554 1_565
Ce6 S3 2.872554 1_665
Ce6 S4 2.941401 1_555
Ce6 S6 2.972545 1_555
Ce6 S4 2.986973 1_565
Ce6 P7 3.203479 1_566
Ce6 P0 3.203479 1_566
Ce6 P3 3.288391 1_655
Ce6 P4 3.288391 1_555
Ce7 S2 2.872554 1_555
Ce7 S2 2.872554 1_455
Ce7 S5 2.941401 1_565
Ce7 S7 2.972545 1_555
Ce7 S5 2.986973 1_555
Ce7 P1 3.203479 1_555
Ce7 P6 3.203479 1_555
Ce7 P5 3.288391 1_555
Ce7 P2 3.288391 1_455
P0 P4 2.225102 1_554
P0 P7 2.252581 1_555
P1 P5 2.225102 1_545
P1 P6 2.252581 1_555
P2 P6 2.225102 1_665
P2 P5 2.252581 1_555
P3 P7 2.225102 1_456
P3 P4 2.252581 1_555
