# generated using pymatgen
data_Li3(WO3)8
_symmetry_space_group_name_H-M   'P 1'
_cell_length_a   6.44583624
_cell_length_b   6.44583498
_cell_length_c   10.53506656
_cell_angle_alpha   89.81027638
_cell_angle_beta   89.81027170
_cell_angle_gamma   70.47330050
_symmetry_Int_Tables_number   1
_chemical_formula_structural   Li3(WO3)8
_chemical_formula_sum   'Li3 W8 O24'
_cell_volume   412.54088673
_cell_formula_units_Z   1
loop_
 _symmetry_equiv_pos_site_id
 _symmetry_equiv_pos_as_xyz
  1  'x, y, z'
loop_
 _atom_site_type_symbol
 _atom_site_label
 _atom_site_symmetry_multiplicity
 _atom_site_fract_x
 _atom_site_fract_y
 _atom_site_fract_z
 _atom_site_occupancy
  Li  Li0  1  0.24708807  0.24708808  0.24911301  1
  Li  Li1  1  0.75291188  0.75291188  0.75088699  1
  Li  Li2  1  -0.00000009  -0.00000001  0.50000004  1
  W  W0  1  -0.00000001  0.50000033  0.50000011  1
  W  W1  1  0.49999986  0.00000043  -0.00000019  1
  W  W2  1  0.74840923  0.25098135  0.24754784  1
  W  W3  1  0.25159093  0.74901800  0.75245207  1
  W  W4  1  0.25098174  0.74840964  0.24754819  1
  W  W5  1  0.74901786  0.25159050  0.75245210  1
  W  W6  1  0.50000014  0.00000000  0.50000009  1
  W  W7  1  0.00000013  0.49999981  -0.00000013  1
  O  O0  1  0.70726039  0.70726024  0.49885111  1
  O  O1  1  0.21002652  0.21002734  0.99770850  1
  O  O2  1  0.49899328  0.49899388  0.70784003  1
  O  O3  1  0.99778103  0.99778138  0.20960174  1
  O  O4  1  0.50100661  0.50100612  0.29216004  1
  O  O5  1  0.00221904  0.00221866  0.79039821  1
  O  O6  1  0.29273964  0.29273983  0.50114899  1
  O  O7  1  0.78997354  0.78997274  0.00229138  1
  O  O8  1  0.35559288  0.94771049  0.34945660  1
  O  O9  1  0.85812497  0.44434461  0.84790100  1
  O  O10  1  0.94771021  0.35559289  0.34945642  1
  O  O11  1  0.44434421  0.85812604  0.84790071  1
  O  O12  1  0.05228984  0.64440710  0.65054361  1
  O  O13  1  0.55565583  0.14187396  0.15209919  1
  O  O14  1  0.64440712  0.05228957  0.65054347  1
  O  O15  1  0.14187511  0.55565531  0.15209892  1
  O  O16  1  0.69954948  0.09741103  0.39930509  1
  O  O17  1  0.18724419  0.60313583  0.89436472  1
  O  O18  1  0.90258907  0.30045055  0.60069488  1
  O  O19  1  0.39686406  0.81275563  0.10563512  1
  O  O20  1  0.09741097  0.69954945  0.39930525  1
  O  O21  1  0.60313593  0.18724434  0.89436478  1
  O  O22  1  0.30045051  0.90258896  0.60069497  1
  O  O23  1  0.81275584  0.39686406  0.10563515  1
loop_
_geom_bond_atom_site_label_1
_geom_bond_atom_site_label_2
_geom_bond_distance
_geom_bond_site_symmetry_2
Li0 O8 2.102313 1_545
Li0 O10 2.102313 1_455
Li0 O15 2.133059 1_555
Li0 O13 2.133061 1_555
Li1 O14 2.102313 1_565
Li1 O12 2.102314 1_655
Li1 O9 2.133059 1_555
Li1 O11 2.133060 1_555
Li2 O20 2.113417 1_545
Li2 O18 2.113418 1_455
Li2 O16 2.113418 1_455
Li2 O22 2.113419 1_545
O0 W0 1.913210 1_655
O0 W6 1.913212 1_565
O1 W7 1.906690 1_556
O1 W1 1.906695 1_556
O2 W3 1.908741 1_555
O2 W5 1.908746 1_555
O3 W2 1.911440 1_565
O3 W4 1.911443 1_655
O4 W2 1.908745 1_555
O4 W4 1.908747 1_555
O5 W3 1.911443 1_545
O5 W5 1.911445 1_455
O6 W0 1.913212 1_555
O6 W6 1.913213 1_555
O7 W7 1.906692 1_655
O7 W1 1.906699 1_565
O8 W6 1.928324 1_565
O8 W4 1.962319 1_555
O9 W5 1.909598 1_555
O9 W7 1.940473 1_656
O10 W0 1.928327 1_655
O10 W2 1.962322 1_555
O11 W3 1.909596 1_555
O11 W1 1.940473 1_566
O12 W0 1.928323 1_555
O12 W3 1.962320 1_555
O13 W2 1.909594 1_555
O13 W1 1.940474 1_555
O14 W6 1.928323 1_555
O14 W5 1.962319 1_555
O15 W4 1.909599 1_555
O15 W7 1.940475 1_555
O16 W6 1.923677 1_555
O16 W2 1.956971 1_555
O17 W3 1.881161 1_555
O17 W7 1.913046 1_556
O18 W0 1.923677 1_655
O18 W5 1.956974 1_555
O19 W4 1.881164 1_555
O19 W1 1.913049 1_565
O20 W0 1.923675 1_555
O20 W4 1.956972 1_555
O21 W5 1.881159 1_555
O21 W1 1.913044 1_556
O22 W6 1.923678 1_565
O22 W3 1.956971 1_555
O23 W2 1.881163 1_555
O23 W7 1.913047 1_655
