# generated using pymatgen
data_La3Pd4
_symmetry_space_group_name_H-M   'P 1'
_cell_length_a   5.80891728
_cell_length_b   8.31657253
_cell_length_c   8.31657276
_cell_angle_alpha   114.75183271
_cell_angle_beta   103.46344399
_cell_angle_gamma   103.46344446
_symmetry_Int_Tables_number   1
_chemical_formula_structural   La3Pd4
_chemical_formula_sum   'La6 Pd8'
_cell_volume   329.08682769
_cell_formula_units_Z   2
loop_
 _symmetry_equiv_pos_site_id
 _symmetry_equiv_pos_as_xyz
  1  'x, y, z'
loop_
 _atom_site_type_symbol
 _atom_site_label
 _atom_site_symmetry_multiplicity
 _atom_site_fract_x
 _atom_site_fract_y
 _atom_site_fract_z
 _atom_site_occupancy
  La  La0  1  0.40603844  0.12352705  0.37562919  1
  La  La1  1  0.03041025  0.62437081  0.74789785  1
  La  La2  1  0.28251140  0.25210215  0.87647295  1
  La  La3  1  0.59396156  0.87647295  0.62437081  1
  La  La4  1  0.96958975  0.37562919  0.25210215  1
  La  La5  1  0.71748860  0.74789785  0.12352705  1
  Pd  Pd0  1  -0.00000000  -0.00000000  -0.00000000  1
  Pd  Pd1  1  0.50000000  -0.00000000  -0.00000000  1
  Pd  Pd2  1  0.22083469  0.65977115  0.16372434  1
  Pd  Pd3  1  0.05710935  0.83627566  0.49604581  1
  Pd  Pd4  1  0.56106355  0.50395419  0.34022885  1
  Pd  Pd5  1  0.77916531  0.34022885  0.83627566  1
  Pd  Pd6  1  0.94289065  0.16372434  0.50395419  1
  Pd  Pd7  1  0.43893645  0.49604581  0.65977115  1
loop_
_geom_bond_atom_site_label_1
_geom_bond_atom_site_label_2
_geom_bond_distance
_geom_bond_site_symmetry_2
La0 Pd7 2.932978 1_555
La0 Pd6 2.939725 1_555
La0 Pd0 3.021737 1_555
La0 Pd1 3.078967 1_555
La0 Pd6 3.153721 1_455
La0 Pd4 3.237950 1_555
La0 Pd2 3.260658 1_545
La0 Pd5 3.339978 1_555
La0 Pd3 3.392950 1_545
La0 La3 3.639326 1_545
La1 Pd5 2.932986 1_455
La1 Pd7 2.939716 1_555
La1 Pd0 3.021740 1_566
La1 Pd1 3.078964 1_566
La1 Pd7 3.153728 1_455
La1 Pd2 3.237942 1_556
La1 Pd3 3.260664 1_555
La1 Pd6 3.339977 1_455
La1 Pd4 3.392959 1_455
La1 La4 3.639323 1_455
La2 Pd6 2.932975 1_455
La2 Pd5 2.939718 1_555
La2 Pd0 3.021737 1_556
La2 Pd1 3.078967 1_556
La2 Pd5 3.153723 1_455
La2 Pd3 3.237945 1_545
La2 Pd4 3.260658 1_556
La2 Pd7 3.339972 1_555
La2 Pd2 3.392953 1_556
La2 La5 3.639326 1_556
La3 Pd4 2.932978 1_555
La3 Pd3 2.939725 1_555
La3 Pd0 3.021737 1_666
La3 Pd1 3.078967 1_566
La3 Pd3 3.153721 1_655
La3 Pd7 3.237950 1_555
La3 Pd5 3.260658 1_565
La3 Pd2 3.339978 1_555
La3 Pd6 3.392950 1_565
La4 Pd2 2.932986 1_655
La4 Pd4 2.939716 1_555
La4 Pd0 3.021740 1_655
La4 Pd1 3.078964 1_555
La4 Pd4 3.153728 1_655
La4 Pd5 3.237942 1_554
La4 Pd6 3.260664 1_555
La4 Pd3 3.339977 1_655
La4 Pd7 3.392959 1_655
La5 Pd3 2.932975 1_655
La5 Pd2 2.939718 1_555
La5 Pd0 3.021737 1_665
La5 Pd1 3.078967 1_565
La5 Pd2 3.153723 1_655
La5 Pd6 3.237945 1_565
La5 Pd7 3.260658 1_554
La5 Pd4 3.339972 1_555
La5 Pd5 3.392953 1_554
Pd0 Pd1 2.904459 1_555
Pd0 Pd1 2.904459 1_455
Pd2 Pd5 2.927865 1_454
Pd2 Pd4 3.028955 1_555
Pd2 Pd3 3.028959 1_555
Pd3 Pd6 2.927854 1_465
Pd3 Pd4 3.028955 1_455
Pd4 Pd7 2.927870 1_555
Pd5 Pd7 3.028955 1_555
Pd5 Pd6 3.028959 1_555
Pd6 Pd7 3.028955 1_655
