# generated using pymatgen
data_U3(Mo5O16)4
_symmetry_space_group_name_H-M   'P 1'
_cell_length_a   8.19164824
_cell_length_b   15.38866853
_cell_length_c   10.89832343
_cell_angle_alpha   95.77038803
_cell_angle_beta   112.07509487
_cell_angle_gamma   74.48288439
_symmetry_Int_Tables_number   1
_chemical_formula_structural   U3(Mo5O16)4
_chemical_formula_sum   'U3 Mo20 O64'
_cell_volume   1226.71026803
_cell_formula_units_Z   1
loop_
 _symmetry_equiv_pos_site_id
 _symmetry_equiv_pos_as_xyz
  1  'x, y, z'
loop_
 _atom_site_type_symbol
 _atom_site_label
 _atom_site_symmetry_multiplicity
 _atom_site_fract_x
 _atom_site_fract_y
 _atom_site_fract_z
 _atom_site_occupancy
  U  U0  1  0.75000000  0.50000000  0.00000000  1
  U  U1  1  0.00102000  0.99825300  0.00000000  1
  U  U2  1  0.49898000  0.00174700  0.00000000  1
  Mo  Mo0  1  0.89582100  0.62576100  0.31967000  1
  Mo  Mo1  1  0.38965000  0.62293400  0.30922400  1
  Mo  Mo2  1  0.41957400  0.37706600  0.30922400  1
  Mo  Mo3  1  0.92385000  0.37423900  0.31967000  1
  Mo  Mo4  1  0.76415100  0.87816300  0.31044000  1
  Mo  Mo5  1  0.27459200  0.87500500  0.32300900  1
  Mo  Mo6  1  0.54841700  0.12499500  0.32300900  1
  Mo  Mo7  1  0.04628800  0.12183700  0.31044000  1
  Mo  Mo8  1  0.60417900  0.37423900  0.68033000  1
  Mo  Mo9  1  0.11035000  0.37706600  0.69077600  1
  Mo  Mo10  1  0.08042600  0.62293400  0.69077600  1
  Mo  Mo11  1  0.57615000  0.62576100  0.68033000  1
  Mo  Mo12  1  0.73584900  0.12183700  0.68956000  1
  Mo  Mo13  1  0.22540800  0.12499500  0.67699100  1
  Mo  Mo14  1  0.95158300  0.87500500  0.67699100  1
  Mo  Mo15  1  0.45371200  0.87816300  0.68956000  1
  Mo  Mo16  1  0.67829100  0.74846500  0.00000000  1
  Mo  Mo17  1  0.17788700  0.75398600  0.00000000  1
  Mo  Mo18  1  0.32211300  0.24601400  0.00000000  1
  Mo  Mo19  1  0.82170900  0.25153500  0.00000000  1
  O  O0  1  0.96346700  0.59903300  0.49993400  1
  O  O1  1  0.46353400  0.59903300  0.50006600  1
  O  O2  1  0.53653300  0.40096700  0.50006600  1
  O  O3  1  0.03646600  0.40096700  0.49993400  1
  O  O4  1  0.81052300  0.90930900  0.50563500  1
  O  O5  1  0.30488800  0.90930900  0.49436500  1
  O  O6  1  0.68947700  0.09069100  0.49436500  1
  O  O7  1  0.19511200  0.09069100  0.50563500  1
  O  O8  1  0.25222400  0.66004100  0.13673900  1
  O  O9  1  0.75417100  0.64488700  0.12543200  1
  O  O10  1  0.87126100  0.35511300  0.12543200  1
  O  O11  1  0.38451500  0.33995900  0.13673900  1
  O  O12  1  0.14544900  0.85729300  0.12240800  1
  O  O13  1  0.64357300  0.85784700  0.11916400  1
  O  O14  1  0.97559100  0.14215300  0.11916400  1
  O  O15  1  0.47696000  0.14270700  0.12240800  1
  O  O16  1  0.24777600  0.33995900  0.86326100  1
  O  O17  1  0.74582900  0.35511300  0.87456800  1
  O  O18  1  0.62873900  0.64488700  0.87456800  1
  O  O19  1  0.11548500  0.66004100  0.86326100  1
  O  O20  1  0.35455100  0.14270700  0.87759200  1
  O  O21  1  0.85642700  0.14215300  0.88083600  1
  O  O22  1  0.52440900  0.85784700  0.88083600  1
  O  O23  1  0.02304000  0.85729300  0.87759200  1
  O  O24  1  0.10836300  0.62519600  0.31725400  1
  O  O25  1  0.60536500  0.62250700  0.31514500  1
  O  O26  1  0.20978000  0.37749300  0.31514500  1
  O  O27  1  0.70889100  0.37480400  0.31725400  1
  O  O28  1  0.97970400  0.87814100  0.31612200  1
  O  O29  1  0.48464000  0.87645500  0.31585000  1
  O  O30  1  0.33121000  0.12354500  0.31585000  1
  O  O31  1  0.83641800  0.12185900  0.31612200  1
  O  O32  1  0.39163700  0.37480400  0.68274600  1
  O  O33  1  0.89463500  0.37749300  0.68485500  1
  O  O34  1  0.29022000  0.62250700  0.68485500  1
  O  O35  1  0.79110900  0.62519600  0.68274600  1
  O  O36  1  0.52029600  0.12185900  0.68387800  1
  O  O37  1  0.01536000  0.12354500  0.68415000  1
  O  O38  1  0.16879000  0.87645500  0.68415000  1
  O  O39  1  0.66358200  0.87814100  0.68387800  1
  O  O40  1  0.89069800  0.75076300  0.00000000  1
  O  O41  1  0.39289400  0.75149700  0.00000000  1
  O  O42  1  0.10710600  0.24850300  0.00000000  1
  O  O43  1  0.60930200  0.24923700  0.00000000  1
  O  O44  1  0.81084400  0.74816200  0.34595600  1
  O  O45  1  0.31627200  0.75353100  0.35358600  1
  O  O46  1  0.03511300  0.25183800  0.34595600  1
  O  O47  1  0.53731400  0.24646900  0.35358600  1
  O  O48  1  0.18372800  0.24646900  0.64641400  1
  O  O49  1  0.68915600  0.25183800  0.65404400  1
  O  O50  1  0.96268600  0.75353100  0.64641400  1
  O  O51  1  0.46488700  0.74816200  0.65404400  1
  O  O52  1  0.52888100  0.50376300  0.00000000  1
  O  O53  1  0.97111900  0.49623700  0.00000000  1
  O  O54  1  0.25000000  0.00000000  0.00000000  1
  O  O55  1  0.75000000  0.00000000  0.00000000  1
  O  O56  1  0.88047900  0.50000000  0.26095700  1
  O  O57  1  0.38701900  0.50000000  0.27403800  1
  O  O58  1  0.61694400  0.00270600  0.24184000  1
  O  O59  1  0.12489600  0.99729400  0.24184000  1
  O  O60  1  0.11298100  0.50000000  0.72596200  1
  O  O61  1  0.61952100  0.50000000  0.73904300  1
  O  O62  1  0.88305600  0.99729400  0.75816000  1
  O  O63  1  0.37510400  0.00270600  0.75816000  1
loop_
_geom_bond_atom_site_label_1
_geom_bond_atom_site_label_2
_geom_bond_distance
_geom_bond_site_symmetry_2
Mo0 O24 1.748829 1_655
Mo0 O44 1.858593 1_555
Mo0 O0 1.886284 1_555
Mo0 O56 1.997818 1_555
Mo0 O9 2.002612 1_555
Mo0 O25 2.375106 1_555
Mo1 O25 1.742090 1_555
Mo1 O8 1.846159 1_555
Mo1 O57 1.896342 1_555
Mo1 O1 1.978876 1_555
Mo1 O45 2.002674 1_555
Mo1 O24 2.329435 1_555
Mo2 O26 1.742090 1_555
Mo2 O11 1.846159 1_555
Mo2 O57 1.896342 1_555
Mo2 O2 1.978877 1_555
Mo2 O47 2.002674 1_555
Mo2 O27 2.329435 1_555
Mo3 O27 1.748837 1_555
Mo3 O46 1.858593 1_655
Mo3 O3 1.886281 1_655
Mo3 O56 1.997818 1_555
Mo3 O10 2.002611 1_555
Mo3 O26 2.375098 1_655
Mo4 O28 1.743316 1_555
Mo4 O13 1.976207 1_555
Mo4 O44 1.983254 1_555
Mo4 O58 2.014983 1_565
Mo4 O4 2.045585 1_555
Mo4 O29 2.319628 1_555
Mo5 O29 1.757550 1_555
Mo5 O5 1.830654 1_555
Mo5 O45 1.849389 1_555
Mo5 O59 2.027889 1_555
Mo5 O12 2.066164 1_555
Mo5 O28 2.375974 1_455
Mo6 O30 1.757550 1_555
Mo6 O6 1.830654 1_555
Mo6 O47 1.849389 1_555
Mo6 O58 2.027889 1_555
Mo6 O15 2.066165 1_555
Mo6 O31 2.375974 1_555
Mo7 O31 1.743308 1_455
Mo7 O14 1.976208 1_455
Mo7 O46 1.983257 1_555
Mo7 O59 2.014985 1_545
Mo7 O7 2.045586 1_555
Mo7 O30 2.319636 1_555
Mo8 O32 1.748829 1_555
Mo8 O49 1.858593 1_555
Mo8 O2 1.886284 1_555
Mo8 O61 1.997818 1_555
Mo8 O17 2.002612 1_555
Mo8 O33 2.375106 1_555
Mo9 O33 1.742090 1_455
Mo9 O16 1.846159 1_555
Mo9 O60 1.896342 1_555
Mo9 O3 1.978876 1_555
Mo9 O48 2.002674 1_555
Mo9 O32 2.329435 1_555
Mo10 O34 1.742090 1_555
Mo10 O19 1.846159 1_555
Mo10 O60 1.896342 1_555
Mo10 O0 1.978877 1_455
Mo10 O50 2.002674 1_455
Mo10 O35 2.329435 1_455
Mo11 O35 1.748837 1_555
Mo11 O51 1.858593 1_555
Mo11 O1 1.886281 1_555
Mo11 O61 1.997818 1_555
Mo11 O18 2.002611 1_555
Mo11 O34 2.375098 1_555
Mo12 O36 1.743316 1_555
Mo12 O21 1.976207 1_555
Mo12 O49 1.983254 1_555
Mo12 O62 2.014983 1_545
Mo12 O6 2.045585 1_555
Mo12 O37 2.319628 1_655
Mo13 O37 1.757550 1_555
Mo13 O7 1.830654 1_555
Mo13 O48 1.849389 1_555
Mo13 O63 2.027889 1_555
Mo13 O20 2.066164 1_555
Mo13 O36 2.375974 1_555
Mo14 O38 1.757550 1_655
Mo14 O4 1.830654 1_555
Mo14 O50 1.849389 1_555
Mo14 O62 2.027889 1_555
Mo14 O23 2.066165 1_655
Mo14 O39 2.375974 1_555
Mo15 O39 1.743308 1_555
Mo15 O22 1.976208 1_555
Mo15 O51 1.983257 1_555
Mo15 O63 2.014985 1_565
Mo15 O5 2.045586 1_555
Mo15 O38 2.319636 1_555
Mo16 O40 1.749756 1_555
Mo16 O9 2.016189 1_555
Mo16 O18 2.016189 1_554
Mo16 O22 2.045162 1_554
Mo16 O13 2.045162 1_555
Mo16 O41 2.325824 1_555
Mo17 O41 1.751404 1_555
Mo17 O8 1.990402 1_555
Mo17 O19 1.990402 1_554
Mo17 O12 1.997890 1_555
Mo17 O23 1.997891 1_554
Mo17 O40 2.366303 1_455
Mo18 O42 1.751404 1_555
Mo18 O11 1.990402 1_555
Mo18 O16 1.990402 1_554
Mo18 O20 1.997890 1_554
Mo18 O15 1.997891 1_555
Mo18 O43 2.366303 1_555
Mo19 O43 1.749756 1_555
Mo19 O17 2.016189 1_554
Mo19 O10 2.016189 1_555
Mo19 O14 2.045162 1_555
Mo19 O21 2.045162 1_554
Mo19 O42 2.325824 1_655
O9 U0 2.496762 1_555
O10 U0 2.496762 1_555
O12 U1 2.430473 1_555
O13 U2 2.451922 1_565
O14 U1 2.451922 1_645
O15 U2 2.430473 1_555
O17 U0 2.496762 1_556
O18 U0 2.496762 1_556
O20 U2 2.430473 1_556
O21 U1 2.451922 1_646
O22 U2 2.451922 1_566
O23 U1 2.430473 1_556
O52 U0 1.796704 1_555
O53 U0 1.796704 1_555
O54 U2 2.046913 1_555
O54 U1 2.046913 1_545
O55 U1 2.049239 1_645
O55 U2 2.049239 1_555
O56 U0 2.635507 1_555
O58 U2 2.442562 1_555
O59 U1 2.442562 1_555
O61 U0 2.635507 1_556
O62 U1 2.442562 1_656
O63 U2 2.442562 1_556
