# generated using pymatgen
data_BaO6
_symmetry_space_group_name_H-M   'P 1'
_cell_length_a   6.31749873
_cell_length_b   6.31749873
_cell_length_c   6.52719428
_cell_angle_alpha   88.90049331
_cell_angle_beta   88.90049331
_cell_angle_gamma   104.77988154
_symmetry_Int_Tables_number   1
_chemical_formula_structural   BaO6
_chemical_formula_sum   'Ba2 O12'
_cell_volume   251.76160139
_cell_formula_units_Z   2
loop_
 _symmetry_equiv_pos_site_id
 _symmetry_equiv_pos_as_xyz
  1  'x, y, z'
loop_
 _atom_site_type_symbol
 _atom_site_label
 _atom_site_symmetry_multiplicity
 _atom_site_fract_x
 _atom_site_fract_y
 _atom_site_fract_z
 _atom_site_occupancy
  Ba  Ba0  1  0.18244500  0.81755500  0.75000000  1
  Ba  Ba1  1  0.81755500  0.18244500  0.25000000  1
  O  O0  1  0.92684700  0.77012500  0.13364400  1
  O  O1  1  0.22987500  0.07315300  0.36635600  1
  O  O2  1  0.07315300  0.22987500  0.86635600  1
  O  O3  1  0.77012500  0.92684700  0.63364400  1
  O  O4  1  0.78686300  0.59826200  0.07039700  1
  O  O5  1  0.40173800  0.21313700  0.42960300  1
  O  O6  1  0.21313700  0.40173800  0.92960300  1
  O  O7  1  0.59826200  0.78686300  0.57039700  1
  O  O8  1  0.90514000  0.47541800  0.55497800  1
  O  O9  1  0.52458200  0.09486000  0.94502200  1
  O  O10  1  0.09486000  0.52458200  0.44502200  1
  O  O11  1  0.47541800  0.90514000  0.05497800  1
loop_
_geom_bond_atom_site_label_1
_geom_bond_atom_site_label_2
_geom_bond_distance
_geom_bond_site_symmetry_2
Ba0 O10 2.712135 1_555
Ba0 O11 2.712135 1_556
Ba0 O9 2.760531 1_565
Ba0 O8 2.760531 1_455
Ba0 O6 2.909129 1_555
Ba0 O7 2.909129 1_555
Ba0 O0 2.921805 1_456
Ba0 O1 2.921805 1_565
Ba0 O3 2.968518 1_455
Ba0 O2 2.968518 1_565
Ba1 O8 2.712135 1_555
Ba1 O9 2.712135 1_554
Ba1 O11 2.760531 1_545
Ba1 O10 2.760531 1_655
Ba1 O5 2.909129 1_555
Ba1 O4 2.909129 1_555
Ba1 O3 2.921805 1_545
Ba1 O2 2.921805 1_654
Ba1 O0 2.968518 1_545
Ba1 O1 2.968518 1_655
O0 O4 1.293312 1_555
O1 O5 1.293312 1_555
O2 O6 1.293312 1_555
O3 O7 1.293312 1_555
O10 O8 1.347814 1_455
O11 O9 1.347814 1_564
