# generated using pymatgen
data_Li9Mn2Co5O16
_symmetry_space_group_name_H-M   'P 1'
_cell_length_a   2.96391600
_cell_length_b   7.80727313
_cell_length_c   12.57412746
_cell_angle_alpha   90.57841452
_cell_angle_beta   89.92676565
_cell_angle_gamma   99.20378338
_symmetry_Int_Tables_number   1
_chemical_formula_structural   Li9Mn2Co5O16
_chemical_formula_sum   'Li9 Mn2 Co5 O16'
_cell_volume   287.20594702
_cell_formula_units_Z   1
loop_
 _symmetry_equiv_pos_site_id
 _symmetry_equiv_pos_as_xyz
  1  'x, y, z'
loop_
 _atom_site_type_symbol
 _atom_site_label
 _atom_site_symmetry_multiplicity
 _atom_site_fract_x
 _atom_site_fract_y
 _atom_site_fract_z
 _atom_site_occupancy
  Li  Li0  1  0.93240100  0.37407500  0.32174500  1
  Li  Li1  1  0.18577800  0.87612200  0.06315400  1
  Li  Li2  1  0.43543000  0.37503300  0.81417200  1
  Li  Li3  1  0.33881800  0.14193500  0.43786400  1
  Li  Li4  1  0.56457000  0.62496700  0.18582800  1
  Li  Li5  1  0.81422200  0.12387800  0.93684600  1
  Li  Li6  1  0.66118200  0.85806500  0.56213600  1
  Li  Li7  1  0.06759900  0.62592500  0.67825500  1
  Li  Li8  1  0.50000000  0.50000000  0.50000000  1
  Mn  Mn0  1  0.10947400  0.74472600  0.37833000  1
  Mn  Mn1  1  0.89052600  0.25527400  0.62167000  1
  Co  Co0  1  0.38217000  0.24964500  0.12593200  1
  Co  Co1  1  0.61783000  0.75035500  0.87406800  1
  Co  Co2  1  0.74749300  0.99887300  0.24832500  1
  Co  Co3  1  0.00000000  0.50000000  0.00000000  1
  Co  Co4  1  0.25250700  0.00112700  0.75167500  1
  O  O0  1  0.54211300  0.58740000  0.34697700  1
  O  O1  1  0.79956700  0.06866300  0.10268300  1
  O  O2  1  0.03015600  0.56491000  0.85080500  1
  O  O3  1  0.90652300  0.30163600  0.47894500  1
  O  O4  1  0.12224600  0.82348400  0.22676900  1
  O  O5  1  0.41791300  0.31531500  0.97703000  1
  O  O6  1  0.31397600  0.08207500  0.60547400  1
  O  O7  1  0.61505600  0.81903600  0.72536200  1
  O  O8  1  0.38494400  0.18096400  0.27463800  1
  O  O9  1  0.58208700  0.68468500  0.02297000  1
  O  O10  1  0.87775400  0.17651600  0.77323100  1
  O  O11  1  0.68602400  0.91792500  0.39452600  1
  O  O12  1  0.96984400  0.43509000  0.14919500  1
  O  O13  1  0.20043300  0.93133700  0.89731700  1
  O  O14  1  0.09347700  0.69836400  0.52105500  1
  O  O15  1  0.45788700  0.41260000  0.65302300  1
loop_
_geom_bond_atom_site_label_1
_geom_bond_atom_site_label_2
_geom_bond_distance
_geom_bond_site_symmetry_2
Li0 O3 2.059416 1_555
Li0 O8 2.111554 1_555
Li0 O0 2.194846 1_555
Li0 O12 2.224865 1_555
Li0 O8 2.247186 1_655
Li0 O0 2.273376 1_655
Li1 O1 2.085896 1_465
Li1 O9 2.100887 1_555
Li1 O4 2.104333 1_555
Li1 O13 2.132589 1_554
Li1 O9 2.195969 1_455
Li1 O1 2.220068 1_565
Li2 O15 2.049826 1_555
Li2 O2 2.099299 1_555
Li2 O5 2.103522 1_555
Li2 O10 2.136772 1_455
Li2 O2 2.160858 1_655
Li2 O10 2.240098 1_555
Li3 O3 1.989838 1_455
Li3 O3 1.992676 1_555
Li3 O8 2.079079 1_555
Li3 O6 2.161962 1_555
Li3 O11 2.229287 1_545
Li3 O11 2.449526 1_445
Li4 O0 2.049826 1_555
Li4 O12 2.099299 1_555
Li4 O9 2.103522 1_555
Li4 O4 2.136772 1_655
Li4 O12 2.160858 1_455
Li4 O4 2.240098 1_555
Li5 O13 2.085896 1_645
Li5 O5 2.100887 1_555
Li5 O10 2.104333 1_555
Li5 O1 2.132589 1_556
Li5 O5 2.195969 1_655
Li5 O13 2.220068 1_545
Li6 O14 1.989838 1_655
Li6 O14 1.992676 1_555
Li6 O7 2.079079 1_555
Li6 O11 2.161962 1_555
Li6 O6 2.229287 1_565
Li6 O6 2.449526 1_665
Li7 O14 2.059416 1_555
Li7 O7 2.111554 1_555
Li7 O15 2.194846 1_555
Li7 O2 2.224865 1_555
Li7 O7 2.247186 1_455
Li7 O15 2.273376 1_455
Li8 O0 2.045022 1_555
Li8 O15 2.045022 1_555
Li8 O3 2.123233 1_555
Li8 O14 2.123233 1_555
Li8 O3 2.164283 1_455
Li8 O14 2.164283 1_655
Mn0 O14 1.833416 1_555
Mn0 O0 1.949665 1_555
Mn0 O0 1.955276 1_455
Mn0 O11 1.995454 1_455
Mn0 O4 2.006843 1_555
Mn0 O11 2.011530 1_555
Mn1 O3 1.833416 1_555
Mn1 O15 1.949665 1_555
Mn1 O15 1.955276 1_655
Mn1 O6 1.995454 1_655
Mn1 O10 2.006843 1_555
Mn1 O6 2.011530 1_555
Co0 O5 1.944516 1_554
Co0 O8 1.950799 1_555
Co0 O1 2.040189 1_555
Co0 O12 2.057139 1_455
Co0 O1 2.067896 1_455
Co0 O12 2.098024 1_555
Co1 O9 1.944516 1_556
Co1 O7 1.950799 1_555
Co1 O13 2.040189 1_555
Co1 O2 2.057139 1_655
Co1 O13 2.067896 1_655
Co1 O2 2.098024 1_555
Co2 O4 1.913240 1_655
Co2 O1 1.914932 1_565
Co2 O8 1.939969 1_565
Co2 O11 1.948819 1_555
Co2 O4 2.136537 1_555
Co2 O8 2.198418 1_665
Co3 O2 1.946393 1_554
Co3 O12 1.946393 1_455
Co3 O5 2.063672 1_554
Co3 O9 2.063672 1_455
Co3 O5 2.082321 1_454
Co3 O9 2.082321 1_555
Co4 O10 1.913240 1_455
Co4 O13 1.914932 1_545
Co4 O7 1.939969 1_545
Co4 O6 1.948819 1_555
Co4 O10 2.136537 1_555
Co4 O7 2.198418 1_445
