# generated using pymatgen
data_ErSbMo2O9
_symmetry_space_group_name_H-M   'P 1'
_cell_length_a   9.65508915
_cell_length_b   9.65508915
_cell_length_c   10.79321067
_cell_angle_alpha   68.02504641
_cell_angle_beta   68.02504641
_cell_angle_gamma   95.19700522
_symmetry_Int_Tables_number   1
_chemical_formula_structural   ErSbMo2O9
_chemical_formula_sum   'Er4 Sb4 Mo8 O36'
_cell_volume   833.57340809
_cell_formula_units_Z   4
loop_
 _symmetry_equiv_pos_site_id
 _symmetry_equiv_pos_as_xyz
  1  'x, y, z'
loop_
 _atom_site_type_symbol
 _atom_site_label
 _atom_site_symmetry_multiplicity
 _atom_site_fract_x
 _atom_site_fract_y
 _atom_site_fract_z
 _atom_site_occupancy
  Er  Er0  1  0.67111200  0.32888800  0.75000000  1
  Er  Er1  1  0.32888800  0.67111200  0.25000000  1
  Er  Er2  1  0.12608000  0.87392000  0.75000000  1
  Er  Er3  1  0.87392000  0.12608000  0.25000000  1
  Sb  Sb0  1  0.65243700  0.61736800  0.96566200  1
  Sb  Sb1  1  0.38263200  0.34756300  0.53433800  1
  Sb  Sb2  1  0.34756300  0.38263200  0.03433800  1
  Sb  Sb3  1  0.61736800  0.65243700  0.46566200  1
  Mo  Mo0  1  0.04566400  0.25945400  0.47425200  1
  Mo  Mo1  1  0.74054600  0.95433600  0.02574800  1
  Mo  Mo2  1  0.95433600  0.74054600  0.52574800  1
  Mo  Mo3  1  0.25945400  0.04566400  0.97425200  1
  Mo  Mo4  1  0.05848800  0.43390000  0.80643100  1
  Mo  Mo5  1  0.56610000  0.94151200  0.69356900  1
  Mo  Mo6  1  0.94151200  0.56610000  0.19356900  1
  Mo  Mo7  1  0.43390000  0.05848800  0.30643100  1
  O  O0  1  0.06658300  0.09443000  0.60245800  1
  O  O1  1  0.90557000  0.93341700  0.89754200  1
  O  O2  1  0.93341700  0.90557000  0.39754200  1
  O  O3  1  0.09443000  0.06658300  0.10245800  1
  O  O4  1  0.86799400  0.29791000  0.56879100  1
  O  O5  1  0.70209000  0.13200600  0.93120900  1
  O  O6  1  0.13200600  0.70209000  0.43120900  1
  O  O7  1  0.29791000  0.86799400  0.06879100  1
  O  O8  1  0.04222600  0.22057700  0.32465700  1
  O  O9  1  0.77942300  0.95777400  0.17534300  1
  O  O10  1  0.95777400  0.77942300  0.67534300  1
  O  O11  1  0.22057700  0.04222600  0.82465700  1
  O  O12  1  0.77815500  0.59410400  0.57972200  1
  O  O13  1  0.40589600  0.22184500  0.92027800  1
  O  O14  1  0.22184500  0.40589600  0.42027800  1
  O  O15  1  0.59410400  0.77815500  0.07972200  1
  O  O16  1  0.97808100  0.30491400  0.99942800  1
  O  O17  1  0.69508600  0.02191900  0.50057200  1
  O  O18  1  0.02191900  0.69508600  0.00057200  1
  O  O19  1  0.30491400  0.97808100  0.49942800  1
  O  O20  1  0.14718500  0.62171600  0.77133200  1
  O  O21  1  0.37828400  0.85281500  0.72866800  1
  O  O22  1  0.85281500  0.37828400  0.22866800  1
  O  O23  1  0.62171600  0.14718500  0.27133200  1
  O  O24  1  0.90697900  0.44456700  0.74947100  1
  O  O25  1  0.55543300  0.09302100  0.75052900  1
  O  O26  1  0.09302100  0.55543300  0.25052900  1
  O  O27  1  0.44456700  0.90697900  0.24947100  1
  O  O28  1  0.20878400  0.36185100  0.70233200  1
  O  O29  1  0.63814900  0.79121600  0.79766800  1
  O  O30  1  0.79121600  0.63814900  0.29766800  1
  O  O31  1  0.36185100  0.20878400  0.20233200  1
  O  O32  1  0.57709900  0.45857200  0.89844300  1
  O  O33  1  0.54142800  0.42290100  0.60155700  1
  O  O34  1  0.42290100  0.54142800  0.10155700  1
  O  O35  1  0.45857200  0.57709900  0.39844300  1
loop_
_geom_bond_atom_site_label_1
_geom_bond_atom_site_label_2
_geom_bond_distance
_geom_bond_site_symmetry_2
Er0 O5 2.299246 1_555
Er0 O4 2.299246 1_555
Er0 O32 2.361682 1_555
Er0 O33 2.361682 1_555
Er0 O12 2.362171 1_555
Er0 O13 2.362171 1_555
Er0 O24 2.440975 1_555
Er0 O25 2.440975 1_555
Er1 O6 2.299246 1_555
Er1 O7 2.299246 1_555
Er1 O35 2.361682 1_555
Er1 O34 2.361682 1_555
Er1 O15 2.362171 1_555
Er1 O14 2.362171 1_555
Er1 O27 2.440975 1_555
Er1 O26 2.440975 1_555
Er2 O10 2.320339 1_455
Er2 O11 2.320339 1_565
Er2 O19 2.337092 1_555
Er2 O18 2.337092 1_556
Er2 O20 2.393622 1_555
Er2 O21 2.393622 1_555
Er2 O1 2.401568 1_455
Er2 O0 2.401568 1_565
Er3 O9 2.320339 1_545
Er3 O8 2.320339 1_655
Er3 O17 2.337092 1_555
Er3 O16 2.337092 1_554
Er3 O22 2.393622 1_555
Er3 O23 2.393622 1_555
Er3 O3 2.401568 1_655
Er3 O2 2.401568 1_545
Mo0 O0 1.763989 1_555
Mo0 O4 1.791826 1_455
Mo0 O8 1.800110 1_555
Mo0 O14 1.854258 1_555
Mo1 O1 1.763989 1_554
Mo1 O5 1.791826 1_564
Mo1 O9 1.800110 1_555
Mo1 O15 1.854258 1_555
Mo2 O2 1.763989 1_555
Mo2 O6 1.791826 1_655
Mo2 O10 1.800110 1_555
Mo2 O12 1.854258 1_555
Mo3 O3 1.763989 1_556
Mo3 O7 1.791826 1_546
Mo3 O11 1.800110 1_555
Mo3 O13 1.854258 1_555
Mo4 O20 1.768329 1_555
Mo4 O16 1.779284 1_455
Mo4 O24 1.783649 1_455
Mo4 O28 1.843819 1_555
Mo5 O21 1.768329 1_555
Mo5 O17 1.779284 1_565
Mo5 O25 1.783649 1_565
Mo5 O29 1.843819 1_555
Mo6 O22 1.768329 1_555
Mo6 O18 1.779284 1_655
Mo6 O26 1.783649 1_655
Mo6 O30 1.843819 1_555
Mo7 O23 1.768329 1_555
Mo7 O19 1.779284 1_545
Mo7 O27 1.783649 1_545
Mo7 O31 1.843819 1_555
O12 Sb3 2.304890 1_555
O13 Sb2 2.304890 1_556
O14 Sb1 2.304890 1_555
O15 Sb0 2.304890 1_554
O28 Sb1 2.018794 1_555
O29 Sb0 2.018794 1_555
O30 Sb3 2.018794 1_555
O31 Sb2 2.018794 1_555
O32 Sb2 2.017042 1_556
O32 Sb0 2.105121 1_555
O33 Sb3 2.017042 1_555
O33 Sb1 2.105121 1_555
O34 Sb0 2.017042 1_554
O34 Sb2 2.105121 1_555
O35 Sb1 2.017042 1_555
O35 Sb3 2.105121 1_555
