# generated using pymatgen
data_Sr3Nd(CoO4)2
_symmetry_space_group_name_H-M   'P 1'
_cell_length_a   6.80857996
_cell_length_b   6.80857996
_cell_length_c   5.39384100
_cell_angle_alpha   90.00000000
_cell_angle_beta   90.00000000
_cell_angle_gamma   133.02284654
_symmetry_Int_Tables_number   1
_chemical_formula_structural   Sr3Nd(CoO4)2
_chemical_formula_sum   'Sr3 Nd1 Co2 O8'
_cell_volume   182.80039770
_cell_formula_units_Z   1
loop_
 _symmetry_equiv_pos_site_id
 _symmetry_equiv_pos_as_xyz
  1  'x, y, z'
loop_
 _atom_site_type_symbol
 _atom_site_label
 _atom_site_symmetry_multiplicity
 _atom_site_fract_x
 _atom_site_fract_y
 _atom_site_fract_z
 _atom_site_occupancy
  Sr  Sr0  1  0.64344800  0.35655200  0.00000000  1
  Sr  Sr1  1  0.35885500  0.64114500  0.00000000  1
  Sr  Sr2  1  0.85583800  0.14416200  0.50000000  1
  Nd  Nd0  1  0.13738800  0.86261200  0.50000000  1
  Co  Co0  1  0.49828300  0.50171700  0.50000000  1
  Co  Co1  1  0.99860200  0.00139800  0.00000000  1
  O  O0  1  0.84546100  0.15453900  0.00000000  1
  O  O1  1  0.32633700  0.67366300  0.50000000  1
  O  O2  1  0.66196300  0.33803700  0.50000000  1
  O  O3  1  0.15845900  0.84154100  0.00000000  1
  O  O4  1  0.76123900  0.75355600  0.74569000  1
  O  O5  1  0.24644400  0.23876100  0.25431000  1
  O  O6  1  0.76123900  0.75355600  0.25431000  1
  O  O7  1  0.24644400  0.23876100  0.74569000  1
loop_
_geom_bond_atom_site_label_1
_geom_bond_atom_site_label_2
_geom_bond_distance
_geom_bond_site_symmetry_2
Nd0 O1 2.359753 1_555
Nd0 O7 2.504305 1_565
Nd0 O5 2.504305 1_565
Nd0 O6 2.504305 1_455
Nd0 O4 2.504305 1_455
Nd0 O3 2.709729 1_556
Nd0 O3 2.709729 1_555
Nd0 O2 2.730971 1_565
Nd0 O2 2.730971 1_455
Co0 O7 1.926803 1_555
Co0 O6 1.926803 1_555
Co0 O4 1.926803 1_555
Co0 O5 1.926803 1_555
Co0 O2 2.044173 1_555
Co0 O1 2.147405 1_555
Co1 O6 1.902505 1_545
Co1 O5 1.902505 1_655
Co1 O7 1.902505 1_654
Co1 O4 1.902505 1_544
Co1 O0 1.912553 1_555
Co1 O3 1.996428 1_645
O0 Sr0 2.522907 1_555
O0 Sr2 2.700032 1_555
O0 Sr2 2.700032 1_554
O0 Sr1 2.718821 1_655
O0 Sr1 2.718821 1_545
O1 Sr1 2.727326 1_555
O1 Sr1 2.727326 1_556
O1 Sr2 2.738567 1_455
O1 Sr2 2.738567 1_565
O2 Sr2 2.421273 1_555
O2 Sr0 2.706815 1_555
O2 Sr0 2.706815 1_556
O3 Sr1 2.502713 1_555
O3 Sr0 2.720138 1_455
O3 Sr0 2.720138 1_565
O4 Sr0 2.621644 1_556
O4 Sr2 2.628004 1_565
O4 Sr1 2.666801 1_556
O5 Sr0 2.621644 1_555
O5 Sr2 2.628004 1_455
O5 Sr1 2.666801 1_555
O6 Sr0 2.621644 1_555
O6 Sr2 2.628004 1_565
O6 Sr1 2.666801 1_555
O7 Sr0 2.621644 1_556
O7 Sr2 2.628004 1_455
O7 Sr1 2.666801 1_556
