# generated using pymatgen
data_SrCaHf2O6
_symmetry_space_group_name_H-M   'P 1'
_cell_length_a   5.70640000
_cell_length_b   5.80582200
_cell_length_c   8.13077500
_cell_angle_alpha   90.00000000
_cell_angle_beta   90.00000000
_cell_angle_gamma   90.00000000
_symmetry_Int_Tables_number   1
_chemical_formula_structural   SrCaHf2O6
_chemical_formula_sum   'Sr2 Ca2 Hf4 O12'
_cell_volume   269.37536185
_cell_formula_units_Z   2
loop_
 _symmetry_equiv_pos_site_id
 _symmetry_equiv_pos_as_xyz
  1  'x, y, z'
loop_
 _atom_site_type_symbol
 _atom_site_label
 _atom_site_symmetry_multiplicity
 _atom_site_fract_x
 _atom_site_fract_y
 _atom_site_fract_z
 _atom_site_occupancy
  Sr  Sr0  1  0.24004300  0.46481500  0.50000000  1
  Sr  Sr1  1  0.75995700  0.96481500  0.50000000  1
  Ca  Ca0  1  0.25877400  0.53995200  0.00000000  1
  Ca  Ca1  1  0.74122600  0.03995200  0.00000000  1
  Hf  Hf0  1  0.75136200  0.50022200  0.75454400  1
  Hf  Hf1  1  0.24863800  0.00022200  0.24545600  1
  Hf  Hf2  1  0.75136200  0.50022200  0.24545600  1
  Hf  Hf3  1  0.24863800  0.00022200  0.75454400  1
  O  O0  1  0.15220600  0.96743600  0.00000000  1
  O  O1  1  0.84779400  0.46743600  0.00000000  1
  O  O2  1  0.32506600  0.01840800  0.50000000  1
  O  O3  1  0.67493400  0.51840800  0.50000000  1
  O  O4  1  0.54131600  0.79136200  0.80283000  1
  O  O5  1  0.45868400  0.29136200  0.19717000  1
  O  O6  1  0.96204200  0.21311100  0.28953900  1
  O  O7  1  0.03795800  0.71311100  0.71046100  1
  O  O8  1  0.96204200  0.21311100  0.71046100  1
  O  O9  1  0.03795800  0.71311100  0.28953900  1
  O  O10  1  0.54131600  0.79136200  0.19717000  1
  O  O11  1  0.45868400  0.29136200  0.80283000  1
loop_
_geom_bond_atom_site_label_1
_geom_bond_atom_site_label_2
_geom_bond_distance
_geom_bond_site_symmetry_2
Ca0 O1 2.382707 1_455
Ca0 O11 2.440174 1_554
Ca0 O5 2.440174 1_555
Ca0 O0 2.555312 1_555
Ca0 O4 2.701876 1_554
Ca0 O10 2.701876 1_555
Ca0 O7 2.853173 1_554
Ca0 O9 2.853173 1_555
Ca1 O0 2.382707 1_645
Ca1 O4 2.440174 1_544
Ca1 O10 2.440174 1_545
Ca1 O1 2.555312 1_555
Ca1 O11 2.701876 1_554
Ca1 O5 2.701876 1_555
Ca1 O8 2.853173 1_554
Ca1 O6 2.853173 1_555
Hf0 O1 2.078954 1_556
Hf0 O7 2.081056 1_655
Hf0 O8 2.086246 1_555
Hf0 O11 2.100930 1_555
Hf0 O4 2.109012 1_555
Hf0 O3 2.117727 1_555
Hf1 O0 2.078954 1_545
Hf1 O6 2.081056 1_455
Hf1 O9 2.086246 1_545
Hf1 O10 2.100930 1_545
Hf1 O5 2.109012 1_555
Hf1 O2 2.117727 1_555
Hf2 O1 2.078954 1_555
Hf2 O9 2.081056 1_655
Hf2 O6 2.086246 1_555
Hf2 O5 2.100930 1_555
Hf2 O10 2.109012 1_555
Hf2 O3 2.117727 1_555
Hf3 O0 2.078954 1_546
Hf3 O8 2.081056 1_455
Hf3 O7 2.086246 1_545
Hf3 O4 2.100930 1_545
Hf3 O11 2.109012 1_555
Hf3 O2 2.117727 1_555
O2 Sr1 2.501092 1_545
O2 Sr0 2.636781 1_555
O3 Sr0 2.501092 1_555
O3 Sr1 2.636781 1_555
O4 Sr1 2.938265 1_555
O5 Sr0 2.938265 1_555
O6 Sr1 2.517174 1_545
O6 Sr0 2.753253 1_655
O7 Sr0 2.517174 1_555
O7 Sr1 2.753253 1_455
O8 Sr1 2.517174 1_545
O8 Sr0 2.753253 1_655
O9 Sr0 2.517174 1_555
O9 Sr1 2.753253 1_455
O10 Sr1 2.938265 1_555
O11 Sr0 2.938265 1_555
