# generated using pymatgen
data_Cr3AsC
_symmetry_space_group_name_H-M   'P 1'
_cell_length_a   5.33759638
_cell_length_b   5.33759638
_cell_length_c   7.46558300
_cell_angle_alpha   90.00000000
_cell_angle_beta   90.00000000
_cell_angle_gamma   147.59899210
_symmetry_Int_Tables_number   1
_chemical_formula_structural   Cr3AsC
_chemical_formula_sum   'Cr6 As2 C2'
_cell_volume   113.97029004
_cell_formula_units_Z   2
loop_
 _symmetry_equiv_pos_site_id
 _symmetry_equiv_pos_as_xyz
  1  'x, y, z'
loop_
 _atom_site_type_symbol
 _atom_site_label
 _atom_site_symmetry_multiplicity
 _atom_site_fract_x
 _atom_site_fract_y
 _atom_site_fract_z
 _atom_site_occupancy
  Cr  Cr0  1  0.62298900  0.37701100  0.44808800  1
  Cr  Cr1  1  0.37701100  0.62298900  0.55191200  1
  Cr  Cr2  1  0.62298900  0.37701100  0.05191200  1
  Cr  Cr3  1  0.37701100  0.62298900  0.94808800  1
  Cr  Cr4  1  0.96099500  0.03900500  0.25000000  1
  Cr  Cr5  1  0.03900500  0.96099500  0.75000000  1
  As  As0  1  0.26232000  0.73768000  0.25000000  1
  As  As1  1  0.73768000  0.26232000  0.75000000  1
  C  C0  1  0.00000000  0.00000000  0.50000000  1
  C  C1  1  0.00000000  0.00000000  0.00000000  1
loop_
_geom_bond_atom_site_label_1
_geom_bond_atom_site_label_2
_geom_bond_distance
_geom_bond_site_symmetry_2
As0 Cr4 2.523039 1_565
As0 Cr4 2.523039 1_455
As0 Cr2 2.538653 1_455
As0 Cr0 2.538653 1_565
As0 Cr0 2.538653 1_455
As0 Cr2 2.538653 1_565
As0 Cr1 2.542170 1_555
As0 Cr3 2.542170 1_554
As1 Cr5 2.523039 1_655
As1 Cr5 2.523039 1_545
As1 Cr3 2.538653 1_655
As1 Cr3 2.538653 1_545
As1 Cr1 2.538653 1_655
As1 Cr1 2.538653 1_545
As1 Cr2 2.542170 1_556
As1 Cr0 2.542170 1_555
C0 Cr4 1.908747 1_455
C0 Cr5 1.908747 1_545
C0 Cr1 1.989342 1_445
C0 Cr0 1.989342 1_555
C0 Cr0 1.989342 1_445
C0 Cr1 1.989342 1_555
C1 Cr4 1.908747 1_455
C1 Cr5 1.908747 1_544
C1 Cr2 1.989342 1_555
C1 Cr2 1.989342 1_445
C1 Cr3 1.989342 1_444
C1 Cr3 1.989342 1_554
