# generated using pymatgen
data_Fe2O3
_symmetry_space_group_name_H-M   'P 1'
_cell_length_a   10.32960206
_cell_length_b   10.33518529
_cell_length_c   10.03799652
_cell_angle_alpha   85.59534357
_cell_angle_beta   83.42412518
_cell_angle_gamma   84.45694404
_symmetry_Int_Tables_number   1
_chemical_formula_structural   Fe2O3
_chemical_formula_sum   'Fe32 O48'
_cell_volume   1057.26714732
_cell_formula_units_Z   16
loop_
 _symmetry_equiv_pos_site_id
 _symmetry_equiv_pos_as_xyz
  1  'x, y, z'
loop_
 _atom_site_type_symbol
 _atom_site_label
 _atom_site_symmetry_multiplicity
 _atom_site_fract_x
 _atom_site_fract_y
 _atom_site_fract_z
 _atom_site_occupancy
  Fe  Fe0  1  0.33879700  0.59738900  0.95016700  1
  Fe  Fe1  1  0.51952000  0.36661600  0.86469300  1
  Fe  Fe2  1  0.53679000  0.82623600  0.84558200  1
  Fe  Fe3  1  0.88672700  0.11684800  0.44762000  1
  Fe  Fe4  1  0.49777500  0.40763900  0.21389500  1
  Fe  Fe5  1  0.43376500  0.55083600  0.50281900  1
  Fe  Fe6  1  0.53387800  0.08519200  0.80509100  1
  Fe  Fe7  1  0.69272000  0.57024100  0.98497400  1
  Fe  Fe8  1  0.10438500  0.59488600  0.46762300  1
  Fe  Fe9  1  0.16382000  0.65891400  0.73100000  1
  Fe  Fe10  1  0.89630900  0.73768000  0.30506900  1
  Fe  Fe11  1  0.29709800  0.36543900  0.74492600  1
  Fe  Fe12  1  0.77281500  0.33894000  0.72037900  1
  Fe  Fe13  1  0.24572000  0.29110400  0.42192700  1
  Fe  Fe14  1  0.07509300  0.14797700  0.16022200  1
  Fe  Fe15  1  0.03904000  0.92006400  0.68355900  1
  Fe  Fe16  1  0.05670000  0.23045400  0.71008100  1
  Fe  Fe17  1  0.80757800  0.62019300  0.68828500  1
  Fe  Fe18  1  0.36889000  0.85847000  0.64784700  1
  Fe  Fe19  1  0.23975600  0.09479700  0.89505000  1
  Fe  Fe20  1  0.57813800  0.78292900  0.35200100  1
  Fe  Fe21  1  0.85193300  0.42973600  0.17940400  1
  Fe  Fe22  1  0.42309000  0.72800500  0.16068200  1
  Fe  Fe23  1  0.62661000  0.14538300  0.29627800  1
  Fe  Fe24  1  0.69572300  0.93157600  0.09345700  1
  Fe  Fe25  1  0.97912600  0.88849900  0.98447100  1
  Fe  Fe26  1  0.83326400  0.14458500  0.95480500  1
  Fe  Fe27  1  0.90958100  0.40195600  0.44418800  1
  Fe  Fe28  1  0.17159500  0.91156900  0.37385500  1
  Fe  Fe29  1  0.38258800  0.06094800  0.21708300  1
  Fe  Fe30  1  0.03021100  0.41590300  0.93950800  1
  Fe  Fe31  1  0.72066700  0.90437800  0.57676300  1
  O  O0  1  0.78619400  0.47220200  0.57810800  1
  O  O1  1  0.87672200  0.83693100  0.14317000  1
  O  O2  1  0.68278200  0.48415300  0.82596600  1
  O  O3  1  0.92262400  0.23981300  0.58289400  1
  O  O4  1  0.85157800  0.28349200  0.32970300  1
  O  O5  1  0.71352700  0.06825200  0.44445200  1
  O  O6  1  0.35554200  0.95190200  0.82529600  1
  O  O7  1  0.39507900  0.21495900  0.83665400  1
  O  O8  1  0.01907400  0.32964300  0.11541500  1
  O  O9  1  0.00399200  0.62520800  0.63935300  1
  O  O10  1  0.48568700  0.21302400  0.19647400  1
  O  O11  1  0.56079700  0.96362900  0.96172300  1
  O  O12  1  0.10579100  0.05621300  0.76009700  1
  O  O13  1  0.09629900  0.42202900  0.40951700  1
  O  O14  1  0.66965800  0.20535500  0.81330600  1
  O  O15  1  0.45560300  0.44004500  0.67249600  1
  O  O16  1  0.21811100  0.28213500  0.61160700  1
  O  O17  1  0.01608300  0.06504700  0.01638800  1
  O  O18  1  0.90662100  0.29941900  0.84687900  1
  O  O19  1  0.56145800  0.97838000  0.27640400  1
  O  O20  1  0.33531300  0.87655400  0.26198500  1
  O  O21  1  0.88356600  0.53940100  0.99984600  1
  O  O22  1  0.89581600  0.96158300  0.58371400  1
  O  O23  1  0.06767700  0.75671900  0.36298300  1
  O  O24  1  0.67478600  0.44151900  0.12965000  1
  O  O25  1  0.70515000  0.77830900  0.74311200  1
  O  O26  1  0.38228500  0.39947200  0.38644500  1
  O  O27  1  0.60383700  0.30940500  0.36352500  1
  O  O28  1  0.05673900  0.79448600  0.83343400  1
  O  O29  1  0.26819600  0.68377600  0.09957300  1
  O  O30  1  0.74238400  0.11461700  0.12683500  1
  O  O31  1  0.15012200  0.27521800  0.86241500  1
  O  O32  1  0.51700200  0.67822900  0.97112800  1
  O  O33  1  0.19981400  0.87555500  0.56555900  1
  O  O34  1  0.82356000  0.96803700  0.91183400  1
  O  O35  1  0.47517300  0.74388100  0.52200400  1
  O  O36  1  0.26095200  0.11632900  0.36654900  1
  O  O37  1  0.19041000  0.51271300  0.86293500  1
  O  O38  1  0.02903100  0.04184700  0.32268500  1
  O  O39  1  0.74513200  0.78715100  0.42933800  1
  O  O40  1  0.25351200  0.10258100  0.08675200  1
  O  O41  1  0.88392900  0.55332800  0.30520300  1
  O  O42  1  0.25188400  0.58714800  0.56207800  1
  O  O43  1  0.54490600  0.96300200  0.65987900  1
  O  O44  1  0.42810500  0.44009100  0.03271100  1
  O  O45  1  0.33791800  0.70979300  0.77534600  1
  O  O46  1  0.62669200  0.76483600  0.16022300  1
  O  O47  1  0.48444800  0.60807600  0.30901300  1
loop_
_geom_bond_atom_site_label_1
_geom_bond_atom_site_label_2
_geom_bond_distance
_geom_bond_site_symmetry_2
Fe0 O29 1.845962 1_556
Fe0 O44 1.964415 1_556
Fe0 O45 2.029200 1_555
Fe0 O32 2.131584 1_555
Fe0 O37 2.136883 1_555
Fe1 O44 2.001562 1_556
Fe1 O2 2.154973 1_555
Fe1 O15 2.168869 1_555
Fe1 O7 2.174430 1_555
Fe1 O14 2.213256 1_555
Fe2 O32 1.917077 1_555
Fe2 O11 1.955891 1_555
Fe2 O25 1.957022 1_555
Fe2 O6 2.193273 1_555
Fe2 O43 2.249936 1_555
Fe3 O5 1.908710 1_555
Fe3 O38 1.959930 1_655
Fe3 O3 2.016893 1_555
Fe3 O22 2.028217 1_545
Fe3 O4 2.040503 1_555
Fe4 O24 1.976116 1_555
Fe4 O26 1.988480 1_555
Fe4 O44 2.024258 1_555
Fe4 O10 2.049238 1_555
Fe4 O27 2.101142 1_555
Fe4 O47 2.332494 1_555
Fe5 O42 1.914817 1_555
Fe5 O15 2.000375 1_555
Fe5 O47 2.014577 1_555
Fe5 O35 2.107945 1_555
Fe5 O26 2.162945 1_555
Fe6 O7 1.882675 1_555
Fe6 O11 1.963941 1_545
Fe6 O14 1.973578 1_555
Fe6 O43 1.987313 1_545
Fe6 O6 2.386230 1_545
Fe7 O24 1.898018 1_556
Fe7 O2 1.903438 1_555
Fe7 O21 1.987174 1_555
Fe7 O32 2.049907 1_555
Fe8 O42 1.876810 1_555
Fe8 O13 1.933606 1_555
Fe8 O23 1.934792 1_555
Fe8 O9 1.938027 1_555
Fe9 O37 1.951488 1_555
Fe9 O28 1.976203 1_555
Fe9 O42 1.990571 1_555
Fe9 O45 2.027504 1_555
Fe9 O9 2.049763 1_555
Fe10 O1 1.874406 1_555
Fe10 O41 1.921772 1_555
Fe10 O39 1.937423 1_555
Fe10 O23 1.957220 1_655
Fe11 O15 1.920681 1_555
Fe11 O16 1.939240 1_555
Fe11 O7 1.995076 1_555
Fe11 O31 2.063920 1_555
Fe11 O37 2.142058 1_555
Fe12 O0 1.909184 1_555
Fe12 O14 1.941758 1_555
Fe12 O18 1.975568 1_555
Fe12 O2 1.997397 1_555
Fe12 O3 2.184173 1_555
Fe13 O26 1.870858 1_555
Fe13 O16 1.889126 1_555
Fe13 O36 1.917262 1_555
Fe13 O13 1.960467 1_555
Fe14 O17 1.919197 1_555
Fe14 O40 1.932732 1_555
Fe14 O38 1.933231 1_555
Fe14 O8 1.944826 1_555
Fe15 O12 1.876303 1_565
Fe15 O22 1.878376 1_455
Fe15 O28 1.923146 1_555
Fe15 O33 1.964231 1_555
Fe16 O12 1.869534 1_555
Fe16 O16 1.937986 1_555
Fe16 O3 1.979279 1_455
Fe16 O31 2.004098 1_555
Fe16 O18 2.060643 1_455
Fe17 O25 1.939991 1_555
Fe17 O0 1.998097 1_555
Fe17 O9 2.036774 1_655
Fe17 O2 2.278653 1_555
Fe18 O45 1.949514 1_555
Fe18 O35 1.965842 1_555
Fe18 O33 2.003027 1_555
Fe18 O6 2.075206 1_555
Fe18 O43 2.222011 1_555
Fe19 O6 1.930701 1_545
Fe19 O40 1.954027 1_556
Fe19 O31 2.020825 1_555
Fe19 O7 2.125512 1_555
Fe19 O12 2.127901 1_555
Fe19 O17 2.520201 1_556
Fe20 O35 1.941038 1_555
Fe20 O46 1.951521 1_555
Fe20 O39 1.976505 1_555
Fe20 O19 2.100780 1_555
Fe20 O47 2.223026 1_555
Fe21 O41 1.939159 1_555
Fe21 O24 1.941537 1_555
Fe21 O8 1.991621 1_655
Fe21 O4 2.051888 1_555
Fe21 O21 2.064682 1_554
Fe22 O29 1.885301 1_555
Fe22 O47 1.983911 1_555
Fe22 O20 1.993224 1_555
Fe22 O32 2.111234 1_554
Fe22 O46 2.172610 1_555
Fe23 O27 1.856623 1_555
Fe23 O5 1.907691 1_555
Fe23 O10 1.908200 1_555
Fe23 O19 1.944187 1_545
Fe23 O30 1.991975 1_555
Fe24 O46 1.969234 1_555
Fe24 O11 2.016547 1_554
Fe24 O30 2.057628 1_565
Fe24 O1 2.118214 1_555
Fe24 O34 2.156096 1_554
Fe24 O19 2.225631 1_555
Fe25 O1 1.879692 1_556
Fe25 O28 1.919064 1_655
Fe25 O34 1.926322 1_555
Fe25 O17 1.957070 1_666
Fe26 O30 1.887295 1_556
Fe26 O34 1.921355 1_545
Fe26 O18 2.022020 1_555
Fe26 O17 2.124509 1_656
Fe26 O14 2.340013 1_555
Fe27 O0 1.880790 1_555
Fe27 O4 1.922031 1_555
Fe27 O13 1.948487 1_655
Fe27 O41 2.033092 1_555
Fe27 O3 2.099031 1_555
Fe28 O20 1.939374 1_555
Fe28 O33 1.980916 1_555
Fe28 O38 1.982259 1_565
Fe28 O23 2.027559 1_555
Fe28 O36 2.381975 1_565
Fe29 O36 1.928344 1_555
Fe29 O10 1.967301 1_555
Fe29 O40 1.968911 1_555
Fe29 O20 2.017654 1_545
Fe29 O19 2.089489 1_545
Fe30 O8 1.912435 1_556
Fe30 O21 1.955924 1_455
Fe30 O31 1.962796 1_555
Fe30 O37 2.059285 1_555
Fe30 O18 2.164349 1_455
Fe31 O39 1.962727 1_555
Fe31 O22 1.967126 1_555
Fe31 O43 1.969158 1_555
Fe31 O25 2.038747 1_555
Fe31 O5 2.071399 1_565
