# generated using pymatgen
data_In7GeN6
_symmetry_space_group_name_H-M   'P 1'
_cell_length_a   10.94326600
_cell_length_b   6.14552300
_cell_length_c   15.00930500
_cell_angle_alpha   90.00000000
_cell_angle_beta   90.00000000
_cell_angle_gamma   90.00000000
_symmetry_Int_Tables_number   1
_chemical_formula_structural   In7GeN6
_chemical_formula_sum   'In28 Ge4 N24'
_cell_volume   1009.40717420
_cell_formula_units_Z   4
loop_
 _symmetry_equiv_pos_site_id
 _symmetry_equiv_pos_as_xyz
  1  'x, y, z'
loop_
 _atom_site_type_symbol
 _atom_site_label
 _atom_site_symmetry_multiplicity
 _atom_site_fract_x
 _atom_site_fract_y
 _atom_site_fract_z
 _atom_site_occupancy
  In  In0  1  0.99789900  0.81300800  0.05344800  1
  In  In1  1  0.50210100  0.68699200  0.55344800  1
  In  In2  1  0.49789900  0.68699200  0.94655200  1
  In  In3  1  0.00210100  0.81300800  0.44655200  1
  In  In4  1  0.00210100  0.18699200  0.94655200  1
  In  In5  1  0.49789900  0.31300800  0.44655200  1
  In  In6  1  0.50210100  0.31300800  0.05344800  1
  In  In7  1  0.99789900  0.18699200  0.55344800  1
  In  In8  1  0.23069800  0.64034200  0.64117900  1
  In  In9  1  0.26930200  0.85965800  0.14117900  1
  In  In10  1  0.73069800  0.85965800  0.35882100  1
  In  In11  1  0.76930200  0.64034200  0.85882100  1
  In  In12  1  0.76930200  0.35965800  0.35882100  1
  In  In13  1  0.73069800  0.14034200  0.85882100  1
  In  In14  1  0.26930200  0.14034200  0.64117900  1
  In  In15  1  0.23069800  0.35965800  0.14117900  1
  In  In16  1  0.22933200  0.62605200  0.90927700  1
  In  In17  1  0.27066800  0.87394800  0.40927700  1
  In  In18  1  0.72933200  0.87394800  0.09072300  1
  In  In19  1  0.77066800  0.62605200  0.59072300  1
  In  In20  1  0.77066800  0.37394800  0.09072300  1
  In  In21  1  0.72933200  0.12605200  0.59072300  1
  In  In22  1  0.27066800  0.12605200  0.90927700  1
  In  In23  1  0.22933200  0.37394800  0.40927700  1
  In  In24  1  0.00000000  0.34768800  0.75000000  1
  In  In25  1  0.50000000  0.15231200  0.25000000  1
  In  In26  1  0.00000000  0.65231200  0.25000000  1
  In  In27  1  0.50000000  0.84768800  0.75000000  1
  Ge  Ge0  1  0.00000000  0.84613400  0.75000000  1
  Ge  Ge1  1  0.50000000  0.65386600  0.25000000  1
  Ge  Ge2  1  0.00000000  0.15386600  0.25000000  1
  Ge  Ge3  1  0.50000000  0.34613400  0.75000000  1
  N  N0  1  0.12516600  0.63263100  0.77352900  1
  N  N1  1  0.37483400  0.86736900  0.27352900  1
  N  N2  1  0.62516600  0.86736900  0.22647100  1
  N  N3  1  0.87483400  0.63263100  0.72647100  1
  N  N4  1  0.87483400  0.36736900  0.22647100  1
  N  N5  1  0.62516600  0.13263100  0.72647100  1
  N  N6  1  0.37483400  0.13263100  0.77352900  1
  N  N7  1  0.12516600  0.36736900  0.27352900  1
  N  N8  1  0.16712100  0.38055600  0.55482600  1
  N  N9  1  0.33287900  0.11944400  0.05482600  1
  N  N10  1  0.66712100  0.11944400  0.44517400  1
  N  N11  1  0.83287900  0.38055600  0.94517400  1
  N  N12  1  0.83287900  0.61944400  0.44517400  1
  N  N13  1  0.66712100  0.88055600  0.94517400  1
  N  N14  1  0.33287900  0.88055600  0.55482600  1
  N  N15  1  0.16712100  0.61944400  0.05482600  1
  N  N16  1  0.42218500  0.55444100  0.67814400  1
  N  N17  1  0.07781500  0.94555900  0.17814400  1
  N  N18  1  0.92218500  0.94555900  0.32185600  1
  N  N19  1  0.57781500  0.55444100  0.82185600  1
  N  N20  1  0.57781500  0.44555900  0.32185600  1
  N  N21  1  0.92218500  0.05444100  0.82185600  1
  N  N22  1  0.07781500  0.05444100  0.67814400  1
  N  N23  1  0.42218500  0.44555900  0.17814400  1
loop_
_geom_bond_atom_site_label_1
_geom_bond_atom_site_label_2
_geom_bond_distance
_geom_bond_site_symmetry_2
In0 N15 2.201086 1_655
In0 N17 2.220648 1_655
In1 N14 2.201086 1_555
In1 N16 2.220648 1_555
In2 N13 2.201086 1_555
In2 N19 2.220648 1_555
In3 N12 2.201086 1_455
In3 N18 2.220648 1_455
In4 N11 2.201086 1_455
In4 N21 2.220648 1_455
In5 N10 2.201086 1_555
In5 N20 2.220648 1_555
In6 N9 2.201086 1_555
In6 N23 2.220648 1_555
In7 N8 2.201086 1_655
In7 N22 2.220648 1_655
In8 N8 2.170899 1_555
In8 N16 2.231054 1_555
In8 N14 2.260424 1_555
In8 N0 2.298275 1_555
In9 N9 2.170899 1_565
In9 N17 2.231054 1_555
In9 N15 2.260424 1_555
In9 N1 2.298275 1_555
In10 N10 2.170899 1_565
In10 N18 2.231054 1_555
In10 N12 2.260424 1_555
In10 N2 2.298275 1_555
In11 N11 2.170899 1_555
In11 N19 2.231054 1_555
In11 N13 2.260424 1_555
In11 N3 2.298275 1_555
In12 N12 2.170899 1_555
In12 N20 2.231054 1_555
In12 N10 2.260424 1_555
In12 N4 2.298275 1_555
In13 N13 2.170899 1_545
In13 N21 2.231054 1_555
In13 N11 2.260424 1_555
In13 N5 2.298275 1_555
In14 N14 2.170899 1_545
In14 N22 2.231054 1_555
In14 N8 2.260424 1_555
In14 N6 2.298275 1_555
In15 N15 2.170899 1_555
In15 N23 2.231054 1_555
In15 N9 2.260424 1_555
In15 N7 2.298275 1_555
In16 N15 2.288571 1_556
In16 N0 2.335033 1_555
In17 N14 2.288571 1_555
In17 N1 2.335033 1_555
In18 N13 2.288571 1_554
In18 N2 2.335033 1_555
In19 N12 2.288571 1_555
In19 N3 2.335033 1_555
In20 N11 2.288571 1_554
In20 N4 2.335033 1_555
In21 N10 2.288571 1_555
In21 N5 2.335033 1_555
In22 N9 2.288571 1_556
In22 N6 2.335033 1_555
In23 N8 2.288571 1_555
In23 N7 2.335033 1_555
In24 N0 2.251066 1_555
In24 N3 2.251066 1_455
In24 N21 2.266293 1_455
In24 N22 2.266293 1_555
In25 N2 2.251066 1_545
In25 N1 2.251066 1_545
In25 N20 2.266293 1_555
In25 N23 2.266293 1_555
In26 N4 2.251066 1_455
In26 N7 2.251066 1_555
In26 N18 2.266293 1_455
In26 N17 2.266293 1_555
In27 N5 2.251066 1_565
In27 N6 2.251066 1_565
In27 N19 2.266293 1_555
In27 N16 2.266293 1_555
Ge0 N22 1.878062 1_565
Ge0 N21 1.878062 1_465
Ge0 N0 1.929362 1_555
Ge0 N3 1.929362 1_455
Ge1 N20 1.878062 1_555
Ge1 N23 1.878062 1_555
Ge1 N1 1.929362 1_555
Ge1 N2 1.929362 1_555
Ge2 N18 1.878062 1_445
Ge2 N17 1.878062 1_545
Ge2 N4 1.929362 1_455
Ge2 N7 1.929362 1_555
Ge3 N19 1.878062 1_555
Ge3 N16 1.878062 1_555
Ge3 N6 1.929362 1_555
Ge3 N5 1.929362 1_555
