# generated using pymatgen
data_TlZnAsO4
_symmetry_space_group_name_H-M   'P 1'
_cell_length_a   5.64759888
_cell_length_b   8.92299006
_cell_length_c   8.96109253
_cell_angle_alpha   88.84978990
_cell_angle_beta   90.00000000
_cell_angle_gamma   90.00000000
_symmetry_Int_Tables_number   1
_chemical_formula_structural   TlZnAsO4
_chemical_formula_sum   'Tl4 Zn4 As4 O16'
_cell_volume   451.48954446
_cell_formula_units_Z   4
loop_
 _symmetry_equiv_pos_site_id
 _symmetry_equiv_pos_as_xyz
  1  'x, y, z'
loop_
 _atom_site_type_symbol
 _atom_site_label
 _atom_site_symmetry_multiplicity
 _atom_site_fract_x
 _atom_site_fract_y
 _atom_site_fract_z
 _atom_site_occupancy
  Tl  Tl0  1  0.51374873  0.49765739  0.32351339  1
  Tl  Tl1  1  0.01374873  0.50234261  0.67648661  1
  Tl  Tl2  1  0.48382798  0.00386912  0.18679207  1
  Tl  Tl3  1  0.98382798  0.99613088  0.81320793  1
  Zn  Zn0  1  0.50218132  0.82059551  0.59931556  1
  Zn  Zn1  1  0.00218132  0.17940449  0.40068444  1
  Zn  Zn2  1  0.96440218  0.67216450  0.07409591  1
  Zn  Zn3  1  0.46440218  0.32783550  0.92590409  1
  As  As0  1  0.46756261  0.69147557  0.93599772  1
  As  As1  1  0.50047483  0.18821962  0.60003435  1
  As  As2  1  0.96756261  0.30852443  0.06400228  1
  As  As3  1  0.00047483  0.81178038  0.39996565  1
  O  O0  1  0.90761505  0.32876455  0.24811480  1
  O  O1  1  0.40761505  0.67123545  0.75188520  1
  O  O2  1  0.29254623  0.77712907  0.43296469  1
  O  O3  1  0.79254623  0.22287093  0.56703531  1
  O  O4  1  0.24694582  0.78840147  0.02038229  1
  O  O5  1  0.74694582  0.21159853  0.97961771  1
  O  O6  1  0.89610707  0.67703038  0.28532460  1
  O  O7  1  0.39610707  0.32296962  0.71467540  1
  O  O8  1  0.34320338  0.20096607  0.43828621  1
  O  O9  1  0.84320338  0.79903393  0.56171379  1
  O  O10  1  0.72333944  0.78786345  0.96152156  1
  O  O11  1  0.22333944  0.21213655  0.03847844  1
  O  O12  1  0.46793540  0.01826159  0.68634447  1
  O  O13  1  0.96793540  0.98173841  0.31365553  1
  O  O14  1  0.99841196  0.47887281  0.97640195  1
  O  O15  1  0.49841196  0.52112719  0.02359805  1
loop_
_geom_bond_atom_site_label_1
_geom_bond_atom_site_label_2
_geom_bond_distance
_geom_bond_site_symmetry_2
As0 O1 1.697411 1_555
As0 O10 1.698994 1_555
As0 O4 1.702487 1_556
As0 O15 1.705614 1_556
As1 O12 1.698457 1_555
As1 O8 1.701794 1_555
As1 O7 1.702375 1_555
As1 O3 1.703006 1_555
As2 O0 1.697411 1_555
As2 O11 1.698994 1_655
As2 O5 1.702487 1_554
As2 O14 1.705614 1_554
As3 O13 1.698457 1_455
As3 O9 1.701794 1_455
As3 O6 1.702375 1_455
As3 O2 1.703006 1_555
O0 Zn1 1.964047 1_655
O0 Tl0 2.777854 1_555
O1 Zn0 1.964047 1_555
O1 Tl1 2.777854 1_555
O2 Zn0 1.948714 1_555
O3 Zn1 1.948714 1_655
O4 Zn2 1.957963 1_455
O4 Tl2 2.797324 1_565
O5 Zn3 1.957963 1_555
O5 Tl3 2.797324 1_545
O6 Zn2 1.933079 1_555
O6 Tl0 2.705531 1_555
O7 Zn3 1.933079 1_555
O7 Tl1 2.705531 1_555
O8 Zn1 1.965314 1_555
O9 Zn0 1.965314 1_555
O10 Zn2 1.973609 1_556
O10 Tl3 2.699072 1_555
O11 Zn3 1.973609 1_554
O11 Tl2 2.699072 1_555
O12 Zn0 1.952364 1_545
O13 Zn1 1.952364 1_665
O14 Zn2 1.959245 1_556
O14 Tl1 2.692915 1_655
O15 Zn3 1.959245 1_554
O15 Tl0 2.692915 1_555
