# generated using pymatgen
data_MgGe3
_symmetry_space_group_name_H-M   'P 1'
_cell_length_a   5.36186519
_cell_length_b   5.36186519
_cell_length_c   5.36186519
_cell_angle_alpha   134.08070583
_cell_angle_beta   134.08070583
_cell_angle_gamma   66.96198030
_symmetry_Int_Tables_number   1
_chemical_formula_structural   MgGe3
_chemical_formula_sum   'Mg1 Ge3'
_cell_volume   78.25697079
_cell_formula_units_Z   1
loop_
 _symmetry_equiv_pos_site_id
 _symmetry_equiv_pos_as_xyz
  1  'x, y, z'
loop_
 _atom_site_type_symbol
 _atom_site_label
 _atom_site_symmetry_multiplicity
 _atom_site_fract_x
 _atom_site_fract_y
 _atom_site_fract_z
 _atom_site_occupancy
  Mg  Mg0  1  0.00000000  0.00000000  0.00000000  1
  Ge  Ge0  1  0.50000000  0.50000000  0.00000000  1
  Ge  Ge1  1  0.75000000  0.25000000  0.50000000  1
  Ge  Ge2  1  0.25000000  0.75000000  0.50000000  1
loop_
_geom_bond_atom_site_label_1
_geom_bond_atom_site_label_2
_geom_bond_distance
_geom_bond_site_symmetry_2
Ge0 Mg0 2.957928 1_554
Ge0 Mg0 2.957928 1_666
Ge0 Mg0 2.957928 1_655
Ge0 Mg0 2.957928 1_565
Ge0 Ge2 3.061819 1_555
Ge0 Ge1 3.061819 1_565
Ge0 Ge2 3.061819 1_655
Ge0 Ge2 3.061819 1_544
Ge0 Ge1 3.061819 1_554
Ge0 Ge1 3.061819 1_555
Ge0 Ge2 3.061819 1_554
Ge0 Ge1 3.061819 1_454
Ge1 Ge2 2.957928 1_656
Ge1 Ge2 2.957928 1_544
Ge1 Ge2 2.957928 1_645
Ge1 Ge2 2.957928 1_555
Ge1 Mg0 3.061819 1_555
Ge1 Mg0 3.061819 1_656
Ge1 Mg0 3.061819 1_666
Ge1 Mg0 3.061819 1_655
Ge2 Mg0 3.061819 1_565
Ge2 Mg0 3.061819 1_555
Ge2 Mg0 3.061819 1_566
Ge2 Mg0 3.061819 1_666
