# generated using pymatgen
data_Ti2InN
_symmetry_space_group_name_H-M   'P 1'
_cell_length_a   6.14883200
_cell_length_b   6.14883200
_cell_length_c   28.04872688
_cell_angle_alpha   90.00000000
_cell_angle_beta   90.00000000
_cell_angle_gamma   119.99997249
_symmetry_Int_Tables_number   1
_chemical_formula_structural   Ti2InN
_chemical_formula_sum   'Ti32 In16 N16'
_cell_volume   918.39426001
_cell_formula_units_Z   16
loop_
 _symmetry_equiv_pos_site_id
 _symmetry_equiv_pos_as_xyz
  1  'x, y, z'
loop_
 _atom_site_type_symbol
 _atom_site_label
 _atom_site_symmetry_multiplicity
 _atom_site_fract_x
 _atom_site_fract_y
 _atom_site_fract_z
 _atom_site_occupancy
  Ti  Ti0_0  1  0.16666650  0.33333350  0.46004612  1
  Ti  Ti0_1  1  0.16666650  0.33333350  0.96004612  1
  Ti  Ti0_2  1  0.16666650  0.83333350  0.46004612  1
  Ti  Ti0_3  1  0.16666650  0.83333350  0.96004612  1
  Ti  Ti0_4  1  0.66666650  0.33333350  0.46004612  1
  Ti  Ti0_5  1  0.66666650  0.33333350  0.96004612  1
  Ti  Ti0_6  1  0.66666650  0.83333350  0.46004612  1
  Ti  Ti0_7  1  0.66666650  0.83333350  0.96004612  1
  Ti  Ti1_0  1  0.33333350  0.16666650  0.03995389  1
  Ti  Ti1_1  1  0.33333350  0.16666650  0.53995388  1
  Ti  Ti1_2  1  0.33333350  0.66666650  0.03995389  1
  Ti  Ti1_3  1  0.33333350  0.66666650  0.53995388  1
  Ti  Ti1_4  1  0.83333350  0.16666650  0.03995389  1
  Ti  Ti1_5  1  0.83333350  0.16666650  0.53995388  1
  Ti  Ti1_6  1  0.83333350  0.66666650  0.03995389  1
  Ti  Ti1_7  1  0.83333350  0.66666650  0.53995388  1
  Ti  Ti2_0  1  0.33333350  0.16666650  0.21004612  1
  Ti  Ti2_1  1  0.33333350  0.16666650  0.71004611  1
  Ti  Ti2_2  1  0.33333350  0.66666650  0.21004612  1
  Ti  Ti2_3  1  0.33333350  0.66666650  0.71004611  1
  Ti  Ti2_4  1  0.83333350  0.16666650  0.21004612  1
  Ti  Ti2_5  1  0.83333350  0.16666650  0.71004611  1
  Ti  Ti2_6  1  0.83333350  0.66666650  0.21004612  1
  Ti  Ti2_7  1  0.83333350  0.66666650  0.71004611  1
  Ti  Ti3_0  1  0.16666650  0.33333350  0.28995389  1
  Ti  Ti3_1  1  0.16666650  0.33333350  0.78995389  1
  Ti  Ti3_2  1  0.16666650  0.83333350  0.28995389  1
  Ti  Ti3_3  1  0.16666650  0.83333350  0.78995389  1
  Ti  Ti3_4  1  0.66666650  0.33333350  0.28995389  1
  Ti  Ti3_5  1  0.66666650  0.33333350  0.78995389  1
  Ti  Ti3_6  1  0.66666650  0.83333350  0.28995389  1
  Ti  Ti3_7  1  0.66666650  0.83333350  0.78995389  1
  In  In0_0  1  0.16666650  0.33333350  0.12500000  1
  In  In0_1  1  0.16666650  0.33333350  0.62500000  1
  In  In0_2  1  0.16666650  0.83333350  0.12500000  1
  In  In0_3  1  0.16666650  0.83333350  0.62500000  1
  In  In0_4  1  0.66666650  0.33333350  0.12500000  1
  In  In0_5  1  0.66666650  0.33333350  0.62500000  1
  In  In0_6  1  0.66666650  0.83333350  0.12500000  1
  In  In0_7  1  0.66666650  0.83333350  0.62500000  1
  In  In1_0  1  0.33333350  0.16666650  0.37500000  1
  In  In1_1  1  0.33333350  0.16666650  0.87500000  1
  In  In1_2  1  0.33333350  0.66666650  0.37500000  1
  In  In1_3  1  0.33333350  0.66666650  0.87500000  1
  In  In1_4  1  0.83333350  0.16666650  0.37500000  1
  In  In1_5  1  0.83333350  0.16666650  0.87500000  1
  In  In1_6  1  0.83333350  0.66666650  0.37500000  1
  In  In1_7  1  0.83333350  0.66666650  0.87500000  1
  N  N0_0  1  0.00000000  0.00000000  0.25000000  1
  N  N0_1  1  0.00000000  0.00000000  0.75000000  1
  N  N0_2  1  0.00000000  0.50000000  0.25000000  1
  N  N0_3  1  0.00000000  0.50000000  0.75000000  1
  N  N0_4  1  0.50000000  0.00000000  0.25000000  1
  N  N0_5  1  0.50000000  0.00000000  0.75000000  1
  N  N0_6  1  0.50000000  0.50000000  0.25000000  1
  N  N0_7  1  0.50000000  0.50000000  0.75000000  1
  N  N1_0  1  0.00000000  0.00000000  0.00000000  1
  N  N1_1  1  0.00000000  0.00000000  0.50000000  1
  N  N1_2  1  0.00000000  0.50000000  0.00000000  1
  N  N1_3  1  0.00000000  0.50000000  0.50000000  1
  N  N1_4  1  0.50000000  0.00000000  0.00000000  1
  N  N1_5  1  0.50000000  0.00000000  0.50000000  1
  N  N1_6  1  0.50000000  0.50000000  0.00000000  1
  N  N1_7  1  0.50000000  0.50000000  0.50000000  1
loop_
_geom_bond_atom_site_label_1
_geom_bond_atom_site_label_2
_geom_bond_distance
_geom_bond_site_symmetry_2
In0_0 Ti1_2 2.973378 1_555
In0_0 Ti1_4 2.973378 1_455
In0_0 Ti2_2 2.973378 1_555
In0_0 Ti2_4 2.973378 1_455
In0_0 Ti2_0 2.973380 1_555
In0_0 Ti1_0 2.973380 1_555
In0_0 In0_2 3.074416 1_545
In0_0 In0_4 3.074416 1_555
In0_0 In0_4 3.074416 1_455
In0_0 In0_2 3.074416 1_555
In0_0 In0_6 3.074417 1_555
In0_0 In0_6 3.074417 1_445
In0_1 Ti1_3 2.973378 1_555
In0_1 Ti1_5 2.973378 1_455
In0_1 Ti2_3 2.973378 1_555
In0_1 Ti2_5 2.973378 1_455
In0_1 Ti1_1 2.973380 1_555
In0_1 Ti2_1 2.973380 1_555
In0_1 In0_3 3.074416 1_545
In0_1 In0_5 3.074416 1_555
In0_1 In0_3 3.074416 1_555
In0_1 In0_5 3.074416 1_455
In0_1 In0_7 3.074417 1_555
In0_1 In0_7 3.074417 1_445
In0_2 Ti1_6 2.973378 1_455
In0_2 Ti2_0 2.973378 1_565
In0_2 Ti1_0 2.973378 1_565
In0_2 Ti2_6 2.973378 1_455
In0_2 Ti1_2 2.973380 1_555
In0_2 Ti2_2 2.973380 1_555
In0_2 In0_6 3.074416 1_555
In0_2 In0_6 3.074416 1_455
In0_2 In0_4 3.074417 1_565
In0_2 In0_4 3.074417 1_455
In0_3 Ti1_1 2.973378 1_565
In0_3 Ti1_7 2.973378 1_455
In0_3 Ti2_1 2.973378 1_565
In0_3 Ti2_7 2.973378 1_455
In0_3 Ti1_3 2.973380 1_555
In0_3 Ti2_3 2.973380 1_555
In0_3 In0_7 3.074416 1_555
In0_3 In0_7 3.074416 1_455
In0_3 In0_5 3.074417 1_565
In0_3 In0_5 3.074417 1_455
In0_4 Ti1_6 2.973378 1_555
In0_4 Ti1_0 2.973378 1_555
In0_4 Ti2_6 2.973378 1_555
In0_4 Ti2_0 2.973378 1_555
In0_4 Ti1_4 2.973380 1_555
In0_4 Ti2_4 2.973380 1_555
In0_4 In0_6 3.074416 1_545
In0_4 In0_6 3.074416 1_555
In0_5 Ti1_7 2.973378 1_555
In0_5 Ti1_1 2.973378 1_555
In0_5 Ti2_1 2.973378 1_555
In0_5 Ti2_7 2.973378 1_555
In0_5 Ti1_5 2.973380 1_555
In0_5 Ti2_5 2.973380 1_555
In0_5 In0_7 3.074416 1_545
In0_5 In0_7 3.074416 1_555
In0_6 Ti1_2 2.973378 1_555
In0_6 Ti2_4 2.973378 1_565
In0_6 Ti2_2 2.973378 1_555
In0_6 Ti1_4 2.973378 1_565
In0_6 Ti2_6 2.973380 1_555
In0_6 Ti1_6 2.973380 1_555
In0_7 Ti1_5 2.973378 1_565
In0_7 Ti1_3 2.973378 1_555
In0_7 Ti2_3 2.973378 1_555
In0_7 Ti2_5 2.973378 1_565
In0_7 Ti1_7 2.973380 1_555
In0_7 Ti2_7 2.973380 1_555
In1_0 Ti3_4 2.973378 1_555
In1_0 Ti3_2 2.973378 1_545
In1_0 Ti0_2 2.973378 1_545
In1_0 Ti0_4 2.973378 1_555
In1_0 Ti3_0 2.973380 1_555
In1_0 Ti0_0 2.973380 1_555
In1_0 In1_4 3.074416 1_455
In1_0 In1_2 3.074416 1_555
In1_0 In1_2 3.074416 1_545
In1_0 In1_4 3.074416 1_555
In1_0 In1_6 3.074417 1_445
In1_0 In1_6 3.074417 1_555
In1_1 Ti3_5 2.973378 1_555
In1_1 Ti3_3 2.973378 1_545
In1_1 Ti0_5 2.973378 1_555
In1_1 Ti0_3 2.973378 1_545
In1_1 Ti3_1 2.973380 1_555
In1_1 Ti0_1 2.973380 1_555
In1_1 In1_5 3.074416 1_455
In1_1 In1_3 3.074416 1_555
In1_1 In1_5 3.074416 1_555
In1_1 In1_3 3.074416 1_545
In1_1 In1_7 3.074417 1_445
In1_1 In1_7 3.074417 1_555
In1_2 Ti3_0 2.973378 1_555
In1_2 Ti3_6 2.973378 1_555
In1_2 Ti0_0 2.973378 1_555
In1_2 Ti0_6 2.973378 1_555
In1_2 Ti3_2 2.973380 1_555
In1_2 Ti0_2 2.973380 1_555
In1_2 In1_6 3.074416 1_455
In1_2 In1_6 3.074416 1_555
In1_2 In1_4 3.074417 1_455
In1_2 In1_4 3.074417 1_565
In1_3 Ti3_7 2.973378 1_555
In1_3 Ti3_1 2.973378 1_555
In1_3 Ti0_1 2.973378 1_555
In1_3 Ti0_7 2.973378 1_555
In1_3 Ti3_3 2.973380 1_555
In1_3 Ti0_3 2.973380 1_555
In1_3 In1_7 3.074416 1_455
In1_3 In1_7 3.074416 1_555
In1_3 In1_5 3.074417 1_455
In1_3 In1_5 3.074417 1_565
In1_4 Ti3_6 2.973378 1_545
In1_4 Ti3_0 2.973378 1_655
In1_4 Ti0_6 2.973378 1_545
In1_4 Ti0_0 2.973378 1_655
In1_4 Ti3_4 2.973380 1_555
In1_4 Ti0_4 2.973380 1_555
In1_4 In1_6 3.074416 1_555
In1_4 In1_6 3.074416 1_545
In1_5 Ti3_7 2.973378 1_545
In1_5 Ti3_1 2.973378 1_655
In1_5 Ti0_7 2.973378 1_545
In1_5 Ti0_1 2.973378 1_655
In1_5 Ti3_5 2.973380 1_555
In1_5 Ti0_5 2.973380 1_555
In1_5 In1_7 3.074416 1_555
In1_5 In1_7 3.074416 1_545
In1_6 Ti3_4 2.973378 1_555
In1_6 Ti3_2 2.973378 1_655
In1_6 Ti0_2 2.973378 1_655
In1_6 Ti0_4 2.973378 1_555
In1_6 Ti3_6 2.973380 1_555
In1_6 Ti0_6 2.973380 1_555
In1_7 Ti3_5 2.973378 1_555
In1_7 Ti3_3 2.973378 1_655
In1_7 Ti0_5 2.973378 1_555
In1_7 Ti0_3 2.973378 1_655
In1_7 Ti3_7 2.973380 1_555
In1_7 Ti0_7 2.973380 1_555
N0_0 Ti2_4 2.099176 1_455
N0_0 Ti3_2 2.099176 1_545
N0_0 Ti2_0 2.099179 1_555
N0_0 Ti2_6 2.099179 1_445
N0_0 Ti3_0 2.099179 1_555
N0_0 Ti3_6 2.099179 1_445
N0_1 Ti3_3 2.099176 1_545
N0_1 Ti2_5 2.099176 1_455
N0_1 Ti2_1 2.099179 1_555
N0_1 Ti3_1 2.099179 1_555
N0_1 Ti3_7 2.099179 1_445
N0_1 Ti2_7 2.099179 1_445
N0_2 Ti2_6 2.099176 1_455
N0_2 Ti3_0 2.099176 1_555
N0_2 Ti2_4 2.099179 1_455
N0_2 Ti2_2 2.099179 1_555
N0_2 Ti3_2 2.099179 1_555
N0_2 Ti3_4 2.099179 1_455
N0_3 Ti2_7 2.099176 1_455
N0_3 Ti3_1 2.099176 1_555
N0_3 Ti2_3 2.099179 1_555
N0_3 Ti2_5 2.099179 1_455
N0_3 Ti3_3 2.099179 1_555
N0_3 Ti3_5 2.099179 1_455
N0_4 Ti2_0 2.099176 1_555
N0_4 Ti3_6 2.099176 1_545
N0_4 Ti2_2 2.099179 1_545
N0_4 Ti3_4 2.099179 1_555
N0_4 Ti2_4 2.099179 1_555
N0_4 Ti3_2 2.099179 1_545
N0_5 Ti3_7 2.099176 1_545
N0_5 Ti2_1 2.099176 1_555
N0_5 Ti3_3 2.099179 1_545
N0_5 Ti3_5 2.099179 1_555
N0_5 Ti2_5 2.099179 1_555
N0_5 Ti2_3 2.099179 1_545
N0_6 Ti2_2 2.099176 1_555
N0_6 Ti3_4 2.099176 1_555
N0_6 Ti2_0 2.099179 1_555
N0_6 Ti2_6 2.099179 1_555
N0_6 Ti3_0 2.099179 1_555
N0_6 Ti3_6 2.099179 1_555
N0_7 Ti2_3 2.099176 1_555
N0_7 Ti3_5 2.099176 1_555
N0_7 Ti2_1 2.099179 1_555
N0_7 Ti3_1 2.099179 1_555
N0_7 Ti3_7 2.099179 1_555
N0_7 Ti2_7 2.099179 1_555
N1_0 Ti0_3 2.099176 1_544
N1_0 Ti1_4 2.099176 1_455
N1_0 Ti0_1 2.099179 1_554
N1_0 Ti0_7 2.099179 1_444
N1_0 Ti1_6 2.099179 1_445
N1_0 Ti1_0 2.099179 1_555
N1_1 Ti0_2 2.099176 1_545
N1_1 Ti1_5 2.099176 1_455
N1_1 Ti1_7 2.099179 1_445
N1_1 Ti1_1 2.099179 1_555
N1_1 Ti0_6 2.099179 1_445
N1_1 Ti0_0 2.099179 1_555
N1_2 Ti0_1 2.099176 1_554
N1_2 Ti1_6 2.099176 1_455
N1_2 Ti0_5 2.099179 1_454
N1_2 Ti0_3 2.099179 1_554
N1_2 Ti1_2 2.099179 1_555
N1_2 Ti1_4 2.099179 1_455
N1_3 Ti1_7 2.099176 1_455
N1_3 Ti0_0 2.099176 1_555
N1_3 Ti1_5 2.099179 1_455
N1_3 Ti1_3 2.099179 1_555
N1_3 Ti0_2 2.099179 1_555
N1_3 Ti0_4 2.099179 1_455
N1_4 Ti0_7 2.099176 1_544
N1_4 Ti1_0 2.099176 1_555
N1_4 Ti0_5 2.099179 1_554
N1_4 Ti0_3 2.099179 1_544
N1_4 Ti1_4 2.099179 1_555
N1_4 Ti1_2 2.099179 1_545
N1_5 Ti1_1 2.099176 1_555
N1_5 Ti0_6 2.099176 1_545
N1_5 Ti0_2 2.099179 1_545
N1_5 Ti0_4 2.099179 1_555
N1_5 Ti1_3 2.099179 1_545
N1_5 Ti1_5 2.099179 1_555
N1_6 Ti0_5 2.099176 1_554
N1_6 Ti1_2 2.099176 1_555
N1_6 Ti0_1 2.099179 1_554
N1_6 Ti0_7 2.099179 1_554
N1_6 Ti1_0 2.099179 1_555
N1_6 Ti1_6 2.099179 1_555
N1_7 Ti1_3 2.099176 1_555
N1_7 Ti0_4 2.099176 1_555
N1_7 Ti1_7 2.099179 1_555
N1_7 Ti1_1 2.099179 1_555
N1_7 Ti0_0 2.099179 1_555
N1_7 Ti0_6 2.099179 1_555
