# generated using pymatgen
data_CeAlO3
_symmetry_space_group_name_H-M   'P 1'
_cell_length_a   5.29975512
_cell_length_b   5.35162614
_cell_length_c   7.53646362
_cell_angle_alpha   90.00000000
_cell_angle_beta   90.00000000
_cell_angle_gamma   90.00000000
_symmetry_Int_Tables_number   1
_chemical_formula_structural   CeAlO3
_chemical_formula_sum   'Ce4 Al4 O12'
_cell_volume   213.75150269
_cell_formula_units_Z   4
loop_
 _symmetry_equiv_pos_site_id
 _symmetry_equiv_pos_as_xyz
  1  'x, y, z'
loop_
 _atom_site_type_symbol
 _atom_site_label
 _atom_site_symmetry_multiplicity
 _atom_site_fract_x
 _atom_site_fract_y
 _atom_site_fract_z
 _atom_site_occupancy
  Ce  Ce0  1  0.00316333  -0.00183849  0.75000000  1
  Ce  Ce1  1  0.50316333  0.50183849  0.75000000  1
  Ce  Ce2  1  0.49683667  0.49816151  0.25000000  1
  Ce  Ce3  1  0.99683667  0.00183849  0.25000000  1
  Al  Al0  1  0.50000000  0.00000000  0.00000000  1
  Al  Al1  1  0.50000000  0.00000000  0.50000000  1
  Al  Al2  1  0.00000000  0.50000000  0.00000000  1
  Al  Al3  1  0.00000000  0.50000000  0.50000000  1
  O  O0  1  0.50096628  0.95841726  0.25000000  1
  O  O1  1  0.75482252  0.75454010  0.52137934  1
  O  O2  1  0.75482252  0.75454010  0.97862066  1
  O  O3  1  0.25482252  0.74545990  0.97862066  1
  O  O4  1  0.25482252  0.74545990  0.52137934  1
  O  O5  1  0.00096628  0.54158274  0.25000000  1
  O  O6  1  0.99903372  0.45841726  0.75000000  1
  O  O7  1  0.74517748  0.25454010  0.02137934  1
  O  O8  1  0.74517748  0.25454010  0.47862066  1
  O  O9  1  0.24517748  0.24545990  0.02137934  1
  O  O10  1  0.24517748  0.24545990  0.47862066  1
  O  O11  1  0.49903372  0.04158274  0.75000000  1
loop_
_geom_bond_atom_site_label_1
_geom_bond_atom_site_label_2
_geom_bond_distance
_geom_bond_site_symmetry_2
Ce0 O6 2.463214 1_455
Ce0 O2 2.529972 1_445
Ce0 O1 2.529972 1_445
Ce0 O3 2.564455 1_545
Ce0 O4 2.564455 1_545
Ce0 O11 2.638245 1_555
Ce0 O11 2.681850 1_455
Ce0 O9 2.753112 1_556
Ce0 O10 2.753112 1_555
Ce0 O8 2.816898 1_455
Ce0 O7 2.816898 1_456
Ce0 O6 2.888592 1_445
Ce1 O11 2.463214 1_555
Ce1 O3 2.529972 1_555
Ce1 O4 2.529972 1_555
Ce1 O2 2.564455 1_555
Ce1 O1 2.564455 1_555
Ce1 O6 2.638245 1_555
Ce1 O6 2.681850 1_455
Ce1 O7 2.753112 1_556
Ce1 O8 2.753112 1_555
Ce1 O10 2.816898 1_555
Ce1 O9 2.816898 1_556
Ce1 O11 2.888592 1_565
Ce2 O0 2.463214 1_555
Ce2 O7 2.529972 1_555
Ce2 O8 2.529972 1_555
Ce2 O9 2.564455 1_555
Ce2 O10 2.564455 1_555
Ce2 O5 2.638245 1_555
Ce2 O5 2.681850 1_655
Ce2 O4 2.753112 1_555
Ce2 O3 2.753112 1_554
Ce2 O1 2.816898 1_555
Ce2 O2 2.816898 1_554
Ce2 O0 2.888592 1_545
Ce3 O5 2.463214 1_645
Ce3 O9 2.529972 1_655
Ce3 O10 2.529972 1_655
Ce3 O7 2.564455 1_555
Ce3 O8 2.564455 1_555
Ce3 O0 2.638245 1_545
Ce3 O0 2.681850 1_645
Ce3 O1 2.753112 1_545
Ce3 O2 2.753112 1_544
Ce3 O4 2.816898 1_645
Ce3 O3 2.816898 1_644
Ce3 O5 2.888592 1_655
Al0 O3 1.889431 1_544
Al0 O7 1.889431 1_555
Al0 O9 1.890866 1_555
Al0 O2 1.890866 1_544
Al0 O0 1.897219 1_545
Al0 O11 1.897219 1_554
Al1 O8 1.889431 1_555
Al1 O4 1.889431 1_545
Al1 O10 1.890866 1_555
Al1 O1 1.890866 1_545
Al1 O0 1.897219 1_545
Al1 O11 1.897219 1_555
Al2 O2 1.889431 1_454
Al2 O9 1.889431 1_555
Al2 O3 1.890866 1_554
Al2 O7 1.890866 1_455
Al2 O6 1.897219 1_454
Al2 O5 1.897219 1_555
Al3 O1 1.889431 1_455
Al3 O10 1.889431 1_555
Al3 O8 1.890866 1_455
Al3 O4 1.890866 1_555
Al3 O6 1.897219 1_455
Al3 O5 1.897219 1_555
