# generated using pymatgen
data_CaCd(WO4)2
_symmetry_space_group_name_H-M   'P 1'
_cell_length_a   6.79690887
_cell_length_b   6.79690887
_cell_length_c   6.79690887
_cell_angle_alpha   133.85242720
_cell_angle_beta   133.85242720
_cell_angle_gamma   67.31859433
_symmetry_Int_Tables_number   1
_chemical_formula_structural   CaCd(WO4)2
_chemical_formula_sum   'Ca1 Cd1 W2 O8'
_cell_volume   160.57792490
_cell_formula_units_Z   1
loop_
 _symmetry_equiv_pos_site_id
 _symmetry_equiv_pos_as_xyz
  1  'x, y, z'
loop_
 _atom_site_type_symbol
 _atom_site_label
 _atom_site_symmetry_multiplicity
 _atom_site_fract_x
 _atom_site_fract_y
 _atom_site_fract_z
 _atom_site_occupancy
  Ca  Ca0  1  0.25000000  0.75000000  0.50000000  1
  Cd  Cd0  1  0.00000000  0.00000000  0.00000000  1
  W  W0  1  0.75000000  0.25000000  0.50000000  1
  W  W1  1  0.50000000  0.50000000  0.00000000  1
  O  O0  1  0.90536200  0.00708700  0.58904900  1
  O  O1  1  0.41803800  0.31631300  0.41095100  1
  O  O2  1  0.56778100  0.65333200  0.39834800  1
  O  O3  1  0.25498400  0.16943300  0.60165200  1
  O  O4  1  0.34666800  0.74501600  0.91444900  1
  O  O5  1  0.83056700  0.43221900  0.08555100  1
  O  O6  1  0.68368700  0.09463800  0.10172600  1
  O  O7  1  0.99291300  0.58196200  0.89827400  1
loop_
_geom_bond_atom_site_label_1
_geom_bond_atom_site_label_2
_geom_bond_distance
_geom_bond_site_symmetry_2
Ca0 O2 2.432830 1_555
Ca0 O4 2.432830 1_555
Ca0 O3 2.432830 1_565
Ca0 O5 2.432830 1_455
Ca0 O0 2.499844 1_465
Ca0 O1 2.499844 1_555
Ca0 O6 2.499845 1_566
Ca0 O7 2.499850 1_454
Cd0 O7 2.427141 1_444
Cd0 O1 2.427144 1_555
Cd0 O0 2.427144 1_454
Cd0 O6 2.427149 1_455
Cd0 O5 2.499299 1_455
Cd0 O4 2.499299 1_544
Cd0 O3 2.499299 1_555
Cd0 O2 2.499299 1_444
O0 W0 1.833545 1_555
O1 W0 1.833545 1_555
O2 W1 1.833367 1_555
O3 W1 1.833367 1_556
O4 W1 1.833367 1_556
O5 W1 1.833367 1_555
O6 W0 1.833538 1_555
O7 W0 1.833545 1_555
