# generated using pymatgen
data_La4NiS7
_symmetry_space_group_name_H-M   'P 1'
_cell_length_a   9.93314619
_cell_length_b   9.93314619
_cell_length_c   7.06582500
_cell_angle_alpha   90.00000000
_cell_angle_beta   90.00000000
_cell_angle_gamma   120.00000129
_symmetry_Int_Tables_number   1
_chemical_formula_structural   La4NiS7
_chemical_formula_sum   'La8 Ni2 S14'
_cell_volume   603.76392158
_cell_formula_units_Z   2
loop_
 _symmetry_equiv_pos_site_id
 _symmetry_equiv_pos_as_xyz
  1  'x, y, z'
loop_
 _atom_site_type_symbol
 _atom_site_label
 _atom_site_symmetry_multiplicity
 _atom_site_fract_x
 _atom_site_fract_y
 _atom_site_fract_z
 _atom_site_occupancy
  La  La0  1  0.62851500  0.84996300  0.27629000  1
  La  La1  1  0.15003700  0.77855200  0.27629000  1
  La  La2  1  0.22144800  0.37148500  0.27629000  1
  La  La3  1  0.37148500  0.15003700  0.77629000  1
  La  La4  1  0.84996300  0.22144800  0.77629000  1
  La  La5  1  0.77855200  0.62851500  0.77629000  1
  La  La6  1  0.33333300  0.66666700  0.81263100  1
  La  La7  1  0.66666700  0.33333300  0.31263100  1
  Ni  Ni0  1  0.00000000  0.00000000  0.49603000  1
  Ni  Ni1  1  0.00000000  0.00000000  0.99603000  1
  S  S0  1  0.77412800  0.90412100  0.66261200  1
  S  S1  1  0.09587900  0.87000700  0.66261200  1
  S  S2  1  0.12999300  0.22587200  0.66261200  1
  S  S3  1  0.22587200  0.09587900  0.16261200  1
  S  S4  1  0.90412100  0.12999300  0.16261200  1
  S  S5  1  0.87000700  0.77412800  0.16261200  1
  S  S6  1  0.48989900  0.56379000  0.03321300  1
  S  S7  1  0.43621000  0.92610900  0.03321300  1
  S  S8  1  0.07389100  0.51010100  0.03321300  1
  S  S9  1  0.51010100  0.43621000  0.53321300  1
  S  S10  1  0.56379000  0.07389100  0.53321300  1
  S  S11  1  0.92610900  0.48989900  0.53321300  1
  S  S12  1  0.33333300  0.66666700  0.42867400  1
  S  S13  1  0.66666700  0.33333300  0.92867400  1
loop_
_geom_bond_atom_site_label_1
_geom_bond_atom_site_label_2
_geom_bond_distance
_geom_bond_site_symmetry_2
La0 S12 2.780819 1_555
La0 S4 2.874379 1_565
La0 S7 2.935249 1_555
La0 S5 2.962040 1_555
La0 S6 3.002031 1_555
La0 S0 3.009075 1_555
La0 S10 3.175932 1_565
La1 S12 2.780812 1_555
La1 S5 2.874379 1_455
La1 S8 2.935249 1_555
La1 S3 2.962040 1_565
La1 S7 3.002031 1_555
La1 S1 3.009075 1_555
La1 S11 3.175932 1_455
La2 S12 2.780820 1_555
La2 S3 2.874379 1_555
La2 S6 2.935249 1_555
La2 S4 2.962040 1_455
La2 S8 3.002031 1_555
La2 S2 3.009075 1_555
La2 S9 3.175932 1_555
La3 S13 2.780819 1_555
La3 S1 2.874379 1_545
La3 S10 2.935249 1_555
La3 S2 2.962040 1_555
La3 S9 3.002031 1_555
La3 S3 3.009075 1_556
La3 S7 3.175932 1_546
La4 S13 2.780812 1_555
La4 S2 2.874379 1_655
La4 S11 2.935249 1_555
La4 S0 2.962040 1_545
La4 S10 3.002031 1_555
La4 S4 3.009075 1_556
La4 S8 3.175932 1_656
La5 S13 2.780820 1_555
La5 S0 2.874379 1_555
La5 S9 2.935249 1_555
La5 S1 2.962040 1_655
La5 S11 3.002031 1_555
La5 S5 3.009075 1_556
La5 S6 3.175932 1_556
La6 S12 2.712973 1_555
La6 S7 2.735197 1_556
La6 S8 2.735198 1_556
La6 S6 2.735204 1_556
La7 S13 2.712973 1_554
La7 S10 2.735197 1_555
La7 S11 2.735198 1_555
La7 S9 2.735204 1_555
Ni0 S2 2.278047 1_555
Ni0 S0 2.278047 1_445
Ni0 S1 2.278047 1_545
Ni1 S5 2.278047 1_446
Ni1 S3 2.278047 1_556
Ni1 S4 2.278047 1_456
