# generated using pymatgen
data_Cs2S5
_symmetry_space_group_name_H-M   'P 1'
_cell_length_a   6.88181348
_cell_length_b   7.27034598
_cell_length_c   18.57177016
_cell_angle_alpha   90.00000000
_cell_angle_beta   90.00000000
_cell_angle_gamma   90.00000000
_symmetry_Int_Tables_number   1
_chemical_formula_structural   Cs2S5
_chemical_formula_sum   'Cs8 S20'
_cell_volume   929.20444019
_cell_formula_units_Z   4
loop_
 _symmetry_equiv_pos_site_id
 _symmetry_equiv_pos_as_xyz
  1  'x, y, z'
loop_
 _atom_site_type_symbol
 _atom_site_label
 _atom_site_symmetry_multiplicity
 _atom_site_fract_x
 _atom_site_fract_y
 _atom_site_fract_z
 _atom_site_occupancy
  Cs  Cs0  1  0.11318986  0.57767630  0.01738187  1
  Cs  Cs1  1  0.61318986  0.92232370  0.98261813  1
  Cs  Cs2  1  0.88681014  0.07767630  0.48261813  1
  Cs  Cs3  1  0.38681014  0.42232370  0.51738187  1
  Cs  Cs4  1  0.57540200  0.75671686  0.33662851  1
  Cs  Cs5  1  0.07540200  0.74328314  0.66337149  1
  Cs  Cs6  1  0.42459800  0.25671686  0.16337149  1
  Cs  Cs7  1  0.92459800  0.24328314  0.83662851  1
  S  S0  1  0.08948443  0.07554471  0.02725538  1
  S  S1  1  0.58948443  0.42445529  0.97274462  1
  S  S2  1  0.91051557  0.57554471  0.47274462  1
  S  S3  1  0.41051557  0.92445529  0.52725538  1
  S  S4  1  0.46583966  0.76362885  0.15402095  1
  S  S5  1  0.96583966  0.73637115  0.84597905  1
  S  S6  1  0.53416034  0.26362885  0.34597905  1
  S  S7  1  0.03416034  0.23637115  0.65402095  1
  S  S8  1  0.93084603  0.12018763  0.11831134  1
  S  S9  1  0.43084603  0.37981237  0.88168866  1
  S  S10  1  0.06915397  0.62018763  0.38168866  1
  S  S11  1  0.56915397  0.87981237  0.61831134  1
  S  S12  1  0.93343552  0.89612923  0.18778284  1
  S  S13  1  0.43343552  0.60387077  0.81221716  1
  S  S14  1  0.06656348  0.39612923  0.31221716  1
  S  S15  1  0.56656448  0.10387077  0.68778284  1
  S  S16  1  0.75124773  0.68985638  0.14902447  1
  S  S17  1  0.25124773  0.81014362  0.85097553  1
  S  S18  1  0.24875227  0.18985638  0.35097553  1
  S  S19  1  0.74875227  0.31014362  0.64902447  1
loop_
_geom_bond_atom_site_label_1
_geom_bond_atom_site_label_2
_geom_bond_distance
_geom_bond_site_symmetry_2
Cs0 S5 3.534480 1_454
Cs0 S1 3.559766 1_554
Cs0 S16 3.584213 1_455
Cs0 S0 3.627987 1_565
Cs0 S9 3.633033 1_554
Cs0 S17 3.648303 1_554
Cs0 S0 3.658911 1_555
Cs0 S4 3.762579 1_555
Cs0 S1 3.862290 1_454
Cs0 S8 4.018847 1_455
Cs1 S4 3.534480 1_556
Cs1 S0 3.559766 1_666
Cs1 S17 3.584213 1_555
Cs1 S1 3.627987 1_555
Cs1 S8 3.633033 1_566
Cs1 S16 3.648303 1_556
Cs1 S1 3.658911 1_565
Cs1 S5 3.762579 1_555
Cs1 S0 3.862290 1_566
Cs1 S9 4.018847 1_565
Cs2 S7 3.534480 1_655
Cs2 S3 3.559766 1_545
Cs2 S18 3.584213 1_655
Cs2 S2 3.627987 1_555
Cs2 S11 3.633033 1_545
Cs2 S19 3.648303 1_555
Cs2 S2 3.658911 1_545
Cs2 S6 3.762579 1_555
Cs2 S3 3.862290 1_645
Cs2 S10 4.018847 1_645
Cs3 S6 3.534480 1_555
Cs3 S2 3.559766 1_455
Cs3 S19 3.584213 1_555
Cs3 S3 3.627987 1_545
Cs3 S10 3.633033 1_555
Cs3 S18 3.648303 1_555
Cs3 S3 3.658911 1_555
Cs3 S7 3.762579 1_555
Cs3 S2 3.862290 1_555
Cs3 S11 4.018847 1_555
Cs4 S4 3.474514 1_555
Cs4 S6 3.600328 1_555
Cs4 S10 3.637497 1_655
Cs4 S2 3.666585 1_555
Cs4 S6 3.700415 1_565
Cs4 S10 3.717955 1_555
Cs4 S16 3.720208 1_555
Cs4 S12 3.839238 1_555
Cs4 S18 3.878261 1_565
Cs4 S3 3.912592 1_555
Cs5 S5 3.474514 1_455
Cs5 S7 3.600328 1_565
Cs5 S11 3.637497 1_555
Cs5 S3 3.666585 1_555
Cs5 S7 3.700415 1_555
Cs5 S11 3.717955 1_455
Cs5 S17 3.720208 1_555
Cs5 S13 3.839238 1_555
Cs5 S19 3.878261 1_455
Cs5 S2 3.912592 1_455
Cs6 S6 3.474514 1_555
Cs6 S4 3.600328 1_545
Cs6 S8 3.637497 1_455
Cs6 S0 3.666585 1_555
Cs6 S4 3.700415 1_555
Cs6 S8 3.717955 1_555
Cs6 S18 3.720208 1_555
Cs6 S14 3.839242 1_555
Cs6 S16 3.878261 1_555
Cs6 S1 3.912592 1_554
Cs7 S7 3.474514 1_655
Cs7 S5 3.600328 1_555
Cs7 S9 3.637497 1_555
Cs7 S1 3.666585 1_555
Cs7 S5 3.700415 1_545
Cs7 S9 3.717955 1_655
Cs7 S19 3.720208 1_555
Cs7 S15 3.839238 1_555
Cs7 S17 3.878261 1_645
Cs7 S0 3.912592 1_656
S0 S8 2.038852 1_455
S1 S9 2.038852 1_555
S10 S2 2.038852 1_455
S10 S14 2.078109 1_555
S11 S3 2.038852 1_555
S11 S15 2.078109 1_565
S12 S8 2.078109 1_565
S12 S16 2.083056 1_555
S13 S9 2.078109 1_555
S13 S17 2.083056 1_555
S14 S18 2.083061 1_555
S15 S19 2.083056 1_555
S16 S4 2.038154 1_555
S17 S5 2.038154 1_455
S18 S6 2.038154 1_555
S19 S7 2.038154 1_655
