# generated using pymatgen
data_LaB5HO10
_symmetry_space_group_name_H-M   'P 1'
_cell_length_a   10.49923000
_cell_length_b   6.58430800
_cell_length_c   11.17529153
_cell_angle_alpha   66.38370734
_cell_angle_beta   90.00000000
_cell_angle_gamma   90.00000000
_symmetry_Int_Tables_number   1
_chemical_formula_structural   LaB5HO10
_chemical_formula_sum   'La4 B20 H4 O40'
_cell_volume   707.84780734
_cell_formula_units_Z   4
loop_
 _symmetry_equiv_pos_site_id
 _symmetry_equiv_pos_as_xyz
  1  'x, y, z'
loop_
 _atom_site_type_symbol
 _atom_site_label
 _atom_site_symmetry_multiplicity
 _atom_site_fract_x
 _atom_site_fract_y
 _atom_site_fract_z
 _atom_site_occupancy
  La  La0  1  0.35761900  0.77186900  0.36919700  1
  La  La1  1  0.64238100  0.22813100  0.63080300  1
  La  La2  1  0.85761900  0.22813100  0.13080300  1
  La  La3  1  0.14238100  0.77186900  0.86919700  1
  B  B0  1  0.82198500  0.43602500  0.33847900  1
  B  B1  1  0.17801500  0.56397500  0.66152100  1
  B  B2  1  0.32198500  0.56397500  0.16152100  1
  B  B3  1  0.67801500  0.43602500  0.83847900  1
  B  B4  1  0.87073300  0.73913600  0.10563200  1
  B  B5  1  0.12926700  0.26086400  0.89436800  1
  B  B6  1  0.37073300  0.26086400  0.39436800  1
  B  B7  1  0.62926700  0.73913600  0.60563200  1
  B  B8  1  0.26401500  0.99825600  0.07746900  1
  B  B9  1  0.73598500  0.00174400  0.92253100  1
  B  B10  1  0.76401500  0.00174400  0.42253100  1
  B  B11  1  0.23598500  0.99825600  0.57746900  1
  B  B12  1  0.50538000  0.31430000  0.19866800  1
  B  B13  1  0.49462000  0.68570000  0.80133200  1
  B  B14  1  0.00538000  0.68570000  0.30133200  1
  B  B15  1  0.99462000  0.31430000  0.69866800  1
  B  B16  1  0.65993500  0.69176600  0.38742900  1
  B  B17  1  0.34006500  0.30823400  0.61257100  1
  B  B18  1  0.15993500  0.30823400  0.11257100  1
  B  B19  1  0.84006500  0.69176600  0.88742900  1
  H  H0  1  0.59876200  0.74047600  0.19959400  1
  H  H1  1  0.40123800  0.25952400  0.80040600  1
  H  H2  1  0.09876200  0.25952400  0.30040600  1
  H  H3  1  0.90123800  0.74047600  0.69959400  1
  O  O0  1  0.78793600  0.94312500  0.04458100  1
  O  O1  1  0.21206400  0.05687500  0.95541900  1
  O  O2  1  0.28793600  0.05687500  0.45541900  1
  O  O3  1  0.71206400  0.94312500  0.54458100  1
  O  O4  1  0.60651600  0.23724200  0.14857300  1
  O  O5  1  0.39348400  0.76275800  0.85142700  1
  O  O6  1  0.10651600  0.76275800  0.35142700  1
  O  O7  1  0.89348400  0.23724200  0.64857300  1
  O  O8  1  0.56727300  0.74903000  0.27914200  1
  O  O9  1  0.43272700  0.25097000  0.72085800  1
  O  O10  1  0.06727300  0.25097000  0.22085800  1
  O  O11  1  0.93272700  0.74903000  0.77914200  1
  O  O12  1  0.79949700  0.55151700  0.19645300  1
  O  O13  1  0.20050300  0.44848300  0.80354700  1
  O  O14  1  0.29949700  0.44848300  0.30354700  1
  O  O15  1  0.70050300  0.55151700  0.69645300  1
  O  O16  1  0.97100100  0.81584700  0.17298300  1
  O  O17  1  0.02899900  0.18415300  0.82701700  1
  O  O18  1  0.47100100  0.18415300  0.32701700  1
  O  O19  1  0.52899900  0.81584700  0.67298300  1
  O  O20  1  0.94608200  0.49379800  0.37640800  1
  O  O21  1  0.05391800  0.50620200  0.62359200  1
  O  O22  1  0.44608200  0.50620200  0.12359200  1
  O  O23  1  0.55391800  0.49379800  0.87640800  1
  O  O24  1  0.75771700  0.86814800  0.35463500  1
  O  O25  1  0.24228300  0.13185200  0.64536500  1
  O  O26  1  0.25771700  0.13185200  0.14536500  1
  O  O27  1  0.74228300  0.86814800  0.85463500  1
  O  O28  1  0.92047300  0.67748600  0.00057700  1
  O  O29  1  0.07952700  0.32251400  0.99942300  1
  O  O30  1  0.42047300  0.32251400  0.49942300  1
  O  O31  1  0.57952700  0.67748600  0.50057700  1
  O  O32  1  0.71845000  0.47313500  0.41621900  1
  O  O33  1  0.28155000  0.52686500  0.58378100  1
  O  O34  1  0.21845000  0.52686500  0.08378100  1
  O  O35  1  0.78155000  0.47313500  0.91621900  1
  O  O36  1  0.32687500  0.80241000  0.14052900  1
  O  O37  1  0.67312500  0.19759000  0.85947100  1
  O  O38  1  0.82687500  0.19759000  0.35947100  1
  O  O39  1  0.17312500  0.80241000  0.64052900  1
loop_
_geom_bond_atom_site_label_1
_geom_bond_atom_site_label_2
_geom_bond_distance
_geom_bond_site_symmetry_2
La0 O33 2.427204 1_555
La0 O8 2.449898 1_555
La0 O36 2.502625 1_555
La0 O2 2.536524 1_565
La0 O14 2.587678 1_555
La0 O6 2.646341 1_555
La0 O31 2.690549 1_555
La0 O30 2.803101 1_555
La0 O18 2.825446 1_565
La0 O26 2.867894 1_565
La1 O32 2.427204 1_555
La1 O9 2.449898 1_555
La1 O37 2.502625 1_555
La1 O3 2.536524 1_545
La1 O15 2.587678 1_555
La1 O7 2.646341 1_555
La1 O30 2.690549 1_555
La1 O31 2.803101 1_555
La1 O19 2.825446 1_545
La1 O27 2.867894 1_545
La2 O35 2.427204 1_554
La2 O10 2.449898 1_655
La2 O38 2.502625 1_555
La2 O0 2.536524 1_545
La2 O12 2.587678 1_555
La2 O4 2.646341 1_555
La2 O29 2.690549 1_654
La2 O28 2.803101 1_555
La2 O16 2.825446 1_545
La2 O24 2.867894 1_545
La3 O34 2.427204 1_556
La3 O11 2.449898 1_455
La3 O39 2.502625 1_555
La3 O1 2.536524 1_565
La3 O13 2.587678 1_555
La3 O5 2.646341 1_555
La3 O28 2.690549 1_456
La3 O29 2.803101 1_555
La3 O17 2.825446 1_565
La3 O25 2.867894 1_565
B0 O20 1.466683 1_555
B0 O32 1.471799 1_555
B0 O12 1.478555 1_555
B0 O38 1.492402 1_555
B1 O21 1.466683 1_555
B1 O33 1.471799 1_555
B1 O13 1.478555 1_555
B1 O39 1.492402 1_555
B2 O22 1.466683 1_555
B2 O34 1.471799 1_555
B2 O14 1.478555 1_555
B2 O36 1.492402 1_555
B3 O23 1.466683 1_555
B3 O35 1.471799 1_555
B3 O15 1.478555 1_555
B3 O37 1.492402 1_555
B4 O12 1.452930 1_555
B4 O28 1.482448 1_555
B4 O16 1.494815 1_555
B4 O0 1.513589 1_555
B5 O13 1.452930 1_555
B5 O29 1.482448 1_555
B5 O17 1.494815 1_555
B5 O1 1.513589 1_555
B6 O14 1.452930 1_555
B6 O30 1.482448 1_555
B6 O18 1.494815 1_555
B6 O2 1.513589 1_555
B7 O15 1.452930 1_555
B7 O31 1.482448 1_555
B7 O19 1.494815 1_555
B7 O3 1.513589 1_555
B8 O36 1.366359 1_555
B8 O1 1.372965 1_564
B8 O26 1.374266 1_565
B9 O37 1.366359 1_555
B9 O0 1.372965 1_546
B9 O27 1.374266 1_545
B10 O38 1.366359 1_555
B10 O3 1.372965 1_545
B10 O24 1.374266 1_545
B11 O39 1.366359 1_555
B11 O2 1.372965 1_565
B11 O25 1.374266 1_565
B12 O22 1.355981 1_555
B12 O4 1.387782 1_555
B12 O18 1.391811 1_555
B13 O23 1.355981 1_555
B13 O5 1.387782 1_555
B13 O19 1.391811 1_555
B14 O20 1.355981 1_455
B14 O6 1.387782 1_555
B14 O16 1.391811 1_455
B15 O21 1.355981 1_655
B15 O7 1.387782 1_555
B15 O17 1.391811 1_655
B16 O32 1.477203 1_555
B16 O8 1.479025 1_555
B16 O24 1.481898 1_555
B16 O31 1.491697 1_555
B17 O33 1.477203 1_555
B17 O9 1.479025 1_555
B17 O25 1.481898 1_555
B17 O30 1.491697 1_555
B18 O34 1.477203 1_555
B18 O10 1.479025 1_555
B18 O26 1.481898 1_555
B18 O29 1.491697 1_554
B19 O35 1.477203 1_555
B19 O11 1.479025 1_555
B19 O27 1.481898 1_555
B19 O28 1.491697 1_556
H0 O8 0.971011 1_555
H1 O9 0.971011 1_555
H2 O10 0.971011 1_555
H3 O11 0.971011 1_555
