# generated using pymatgen
data_Ba11(SiN5)2
_symmetry_space_group_name_H-M   'P 1'
_cell_length_a   16.97370600
_cell_length_b   16.97370600
_cell_length_c   4.14268900
_cell_angle_alpha   90.00000000
_cell_angle_beta   90.00000000
_cell_angle_gamma   90.00000000
_symmetry_Int_Tables_number   1
_chemical_formula_structural   Ba11(SiN5)2
_chemical_formula_sum   'Ba22 Si4 N20'
_cell_volume   1193.53643775
_cell_formula_units_Z   2
loop_
 _symmetry_equiv_pos_site_id
 _symmetry_equiv_pos_as_xyz
  1  'x, y, z'
loop_
 _atom_site_type_symbol
 _atom_site_label
 _atom_site_symmetry_multiplicity
 _atom_site_fract_x
 _atom_site_fract_y
 _atom_site_fract_z
 _atom_site_occupancy
  Ba  Ba0  1  0.50000000  0.50000000  0.50000000  1
  Ba  Ba1  1  0.00000000  0.00000000  0.00000000  1
  Ba  Ba2  1  0.98242800  0.79489200  0.50000000  1
  Ba  Ba3  1  0.01757200  0.20510800  0.50000000  1
  Ba  Ba4  1  0.51757200  0.29489200  0.00000000  1
  Ba  Ba5  1  0.48242800  0.70510800  0.00000000  1
  Ba  Ba6  1  0.79489200  0.98242800  0.50000000  1
  Ba  Ba7  1  0.20510800  0.01757200  0.50000000  1
  Ba  Ba8  1  0.29489200  0.51757200  0.00000000  1
  Ba  Ba9  1  0.70510800  0.48242800  0.00000000  1
  Ba  Ba10  1  0.67025200  0.67025200  0.50000000  1
  Ba  Ba11  1  0.32974800  0.32974800  0.50000000  1
  Ba  Ba12  1  0.82974800  0.17025200  0.00000000  1
  Ba  Ba13  1  0.17025200  0.82974800  0.00000000  1
  Ba  Ba14  1  0.37929700  0.89095500  0.50000000  1
  Ba  Ba15  1  0.62070300  0.10904500  0.50000000  1
  Ba  Ba16  1  0.12070300  0.39095500  0.00000000  1
  Ba  Ba17  1  0.87929700  0.60904500  0.00000000  1
  Ba  Ba18  1  0.89095500  0.37929700  0.50000000  1
  Ba  Ba19  1  0.10904500  0.62070300  0.50000000  1
  Ba  Ba20  1  0.39095500  0.12070300  0.00000000  1
  Ba  Ba21  1  0.60904500  0.87929700  0.00000000  1
  Si  Si0  1  0.31442300  0.68557700  0.50000000  1
  Si  Si1  1  0.68557700  0.31442300  0.50000000  1
  Si  Si2  1  0.18557700  0.18557700  0.00000000  1
  Si  Si3  1  0.81442300  0.81442300  0.00000000  1
  N  N0  1  0.09260200  0.90739800  0.50000000  1
  N  N1  1  0.90739800  0.09260200  0.50000000  1
  N  N2  1  0.40739800  0.40739800  0.00000000  1
  N  N3  1  0.59260200  0.59260200  0.00000000  1
  N  N4  1  0.47320600  0.18537600  0.50000000  1
  N  N5  1  0.52679400  0.81462400  0.50000000  1
  N  N6  1  0.02679400  0.68537600  0.00000000  1
  N  N7  1  0.97320600  0.31462400  0.00000000  1
  N  N8  1  0.18537600  0.47320600  0.50000000  1
  N  N9  1  0.81462400  0.52679400  0.50000000  1
  N  N10  1  0.68537600  0.02679400  0.00000000  1
  N  N11  1  0.31462400  0.97320600  0.00000000  1
  N  N12  1  0.24700100  0.75299900  0.50000000  1
  N  N13  1  0.75299900  0.24700100  0.50000000  1
  N  N14  1  0.25299900  0.25299900  0.00000000  1
  N  N15  1  0.74700100  0.74700100  0.00000000  1
  N  N16  1  0.38213300  0.61786700  0.50000000  1
  N  N17  1  0.61786700  0.38213300  0.50000000  1
  N  N18  1  0.11786700  0.11786700  0.00000000  1
  N  N19  1  0.88213300  0.88213300  0.00000000  1
loop_
_geom_bond_atom_site_label_1
_geom_bond_atom_site_label_2
_geom_bond_distance
_geom_bond_site_symmetry_2
Ba0 N16 2.829332 1_555
Ba0 N17 2.829332 1_555
Ba0 N3 3.038350 1_556
Ba0 N3 3.038350 1_555
Ba0 N2 3.038350 1_555
Ba0 N2 3.038350 1_556
Ba1 N18 2.829332 1_555
Ba1 N19 2.829332 1_445
Ba1 N0 3.038350 1_544
Ba1 N1 3.038350 1_455
Ba1 N1 3.038350 1_454
Ba1 N0 3.038350 1_545
Ba2 N0 2.672801 1_655
Ba2 N6 2.883235 1_655
Ba2 N6 2.883235 1_656
Ba2 N19 3.062897 1_555
Ba2 N19 3.062897 1_556
Ba3 N1 2.672801 1_455
Ba3 N7 2.883235 1_456
Ba3 N7 2.883235 1_455
Ba3 N18 3.062897 1_555
Ba3 N18 3.062897 1_556
Ba4 N2 2.672801 1_555
Ba4 N4 2.883235 1_554
Ba4 N4 2.883235 1_555
Ba4 N17 3.062897 1_554
Ba4 N17 3.062897 1_555
Ba5 N3 2.672801 1_555
Ba5 N5 2.883235 1_555
Ba5 N5 2.883235 1_554
Ba5 N16 3.062897 1_555
Ba5 N16 3.062897 1_554
Ba6 N1 2.672801 1_565
Ba6 N10 2.883235 1_565
Ba6 N10 2.883235 1_566
Ba6 N19 3.062897 1_555
Ba6 N19 3.062897 1_556
Ba7 N0 2.672801 1_545
Ba7 N11 2.883235 1_545
Ba7 N11 2.883235 1_546
Ba7 N18 3.062897 1_555
Ba7 N18 3.062897 1_556
Ba8 N2 2.672801 1_555
Ba8 N8 2.883235 1_554
Ba8 N8 2.883235 1_555
Ba8 N16 3.062897 1_555
Ba8 N16 3.062897 1_554
Ba9 N3 2.672801 1_555
Ba9 N9 2.883235 1_555
Ba9 N9 2.883235 1_554
Ba9 N17 3.062897 1_555
Ba9 N17 3.062897 1_554
Ba10 N15 2.772111 1_556
Ba10 N15 2.772111 1_555
Ba10 N3 2.786532 1_556
Ba10 N3 2.786532 1_555
Ba10 N9 3.454617 1_555
Ba10 N5 3.454617 1_555
Ba11 N14 2.772111 1_556
Ba11 N14 2.772111 1_555
Ba11 N2 2.786532 1_556
Ba11 N2 2.786532 1_555
Ba11 N4 3.454617 1_555
Ba11 N8 3.454617 1_555
Ba12 N13 2.772111 1_554
Ba12 N13 2.772111 1_555
Ba12 N1 2.786532 1_555
Ba12 N1 2.786532 1_554
Ba12 N7 3.454617 1_555
Ba12 N10 3.454617 1_555
Ba13 N12 2.772111 1_555
Ba13 N12 2.772111 1_554
Ba13 N0 2.786532 1_555
Ba13 N0 2.786532 1_554
Ba13 N11 3.454617 1_555
Ba13 N6 3.454617 1_555
Ba14 N11 2.728481 1_556
Ba14 N11 2.728481 1_555
Ba14 N5 2.818953 1_555
Ba14 N12 3.244336 1_555
Ba15 N10 2.728481 1_555
Ba15 N10 2.728481 1_556
Ba15 N4 2.818953 1_555
Ba15 N13 3.244336 1_555
Ba16 N8 2.728481 1_554
Ba16 N8 2.728481 1_555
Ba16 N7 2.818953 1_455
Ba16 N14 3.244336 1_555
Ba17 N9 2.728481 1_555
Ba17 N9 2.728481 1_554
Ba17 N6 2.818953 1_655
Ba17 N15 3.244336 1_555
Ba18 N7 2.728481 1_555
Ba18 N7 2.728481 1_556
Ba18 N9 2.818953 1_555
Ba18 N13 3.244336 1_555
Ba19 N6 2.728481 1_555
Ba19 N6 2.728481 1_556
Ba19 N8 2.818953 1_555
Ba19 N12 3.244336 1_555
Ba20 N4 2.728481 1_555
Ba20 N4 2.728481 1_554
Ba20 N11 2.818953 1_545
Ba20 N14 3.244336 1_555
Ba21 N5 2.728481 1_555
Ba21 N5 2.728481 1_554
Ba21 N10 2.818953 1_565
Ba21 N15 3.244336 1_555
N12 Si0 1.618428 1_555
N13 Si1 1.618428 1_555
N14 Si2 1.618428 1_555
N15 Si3 1.618428 1_555
N16 Si0 1.625341 1_555
N17 Si1 1.625341 1_555
N18 Si2 1.625341 1_555
N19 Si3 1.625341 1_555
