# generated using pymatgen
data_MgMnO2
_symmetry_space_group_name_H-M   'P 1'
_cell_length_a   3.03269721
_cell_length_b   8.36774780
_cell_length_c   8.45059362
_cell_angle_alpha   90.32380922
_cell_angle_beta   79.66487928
_cell_angle_gamma   79.86361243
_symmetry_Int_Tables_number   1
_chemical_formula_structural   MgMnO2
_chemical_formula_sum   'Mg4 Mn4 O8'
_cell_volume   207.52363133
_cell_formula_units_Z   4
loop_
 _symmetry_equiv_pos_site_id
 _symmetry_equiv_pos_as_xyz
  1  'x, y, z'
loop_
 _atom_site_type_symbol
 _atom_site_label
 _atom_site_symmetry_multiplicity
 _atom_site_fract_x
 _atom_site_fract_y
 _atom_site_fract_z
 _atom_site_occupancy
  Mg  Mg0  1  0.34499000  0.08358800  0.25411300  1
  Mg  Mg1  1  0.65704200  0.89526700  0.77701000  1
  Mg  Mg2  1  0.06666200  0.72801600  0.12171200  1
  Mg  Mg3  1  0.92437400  0.25069600  0.90958900  1
  Mn  Mn0  1  0.59958900  0.20987000  0.60030100  1
  Mn  Mn1  1  0.16096900  0.40714600  0.24972000  1
  Mn  Mn2  1  0.82359800  0.57176600  0.78182900  1
  Mn  Mn3  1  0.38618000  0.76911300  0.43108400  1
  O  O0  1  0.82646200  0.72637700  0.59064700  1
  O  O1  1  0.40618800  0.38116500  0.81669900  1
  O  O2  1  0.58391500  0.59756000  0.21466300  1
  O  O3  1  0.15962300  0.25247700  0.44063500  1
  O  O4  1  0.09019900  0.06444200  0.74951400  1
  O  O5  1  0.82590600  0.22784200  0.14039900  1
  O  O6  1  0.91155900  0.91437700  0.28148600  1
  O  O7  1  0.16811300  0.75064000  0.89078200  1
loop_
_geom_bond_atom_site_label_1
_geom_bond_atom_site_label_2
_geom_bond_distance
_geom_bond_site_symmetry_2
Mg0 O3 2.043267 1_555
Mg0 O6 2.073796 1_545
Mg0 O6 2.082269 1_445
Mg0 O5 2.153488 1_555
Mg0 O5 2.178465 1_455
Mg1 O0 2.042148 1_555
Mg1 O4 2.074514 1_565
Mg1 O4 2.081426 1_665
Mg1 O7 2.163061 1_655
Mg1 O7 2.172746 1_555
Mg2 O7 1.935995 1_554
Mg2 O6 1.991529 1_455
Mg2 O2 2.027709 1_455
Mg2 O2 2.029394 1_555
Mg3 O5 1.935316 1_556
Mg3 O4 1.991980 1_655
Mg3 O1 2.025533 1_655
Mg3 O1 2.031283 1_555
Mn0 O3 2.052298 1_555
Mn0 O3 2.056348 1_655
Mn0 O1 2.243265 1_555
Mn0 O4 2.310367 1_655
Mn0 O4 2.331826 1_555
Mn1 O3 2.073893 1_555
Mn1 O2 2.204556 1_555
Mn1 O2 2.213365 1_455
Mn1 O5 2.234931 1_455
Mn1 O5 2.328516 1_555
Mn2 O0 2.075227 1_555
Mn2 O1 2.194333 1_555
Mn2 O1 2.225411 1_655
Mn2 O7 2.249381 1_655
Mn2 O7 2.306544 1_555
Mn3 O0 2.052399 1_555
Mn3 O0 2.055546 1_455
Mn3 O2 2.244756 1_555
Mn3 O6 2.280782 1_455
Mn3 O6 2.364463 1_555
