# generated using pymatgen
data_Tb2Ni12P7
_symmetry_space_group_name_H-M   'P 1'
_cell_length_a   9.04268618
_cell_length_b   9.04268618
_cell_length_c   3.69006200
_cell_angle_alpha   90.00000000
_cell_angle_beta   90.00000000
_cell_angle_gamma   120.00000130
_symmetry_Int_Tables_number   1
_chemical_formula_structural   Tb2Ni12P7
_chemical_formula_sum   'Tb2 Ni12 P7'
_cell_volume   261.31191187
_cell_formula_units_Z   1
loop_
 _symmetry_equiv_pos_site_id
 _symmetry_equiv_pos_as_xyz
  1  'x, y, z'
loop_
 _atom_site_type_symbol
 _atom_site_label
 _atom_site_symmetry_multiplicity
 _atom_site_fract_x
 _atom_site_fract_y
 _atom_site_fract_z
 _atom_site_occupancy
  Tb  Tb0  1  0.66666700  0.33333300  0.00000000  1
  Tb  Tb1  1  0.33333300  0.66666700  0.50000000  1
  Ni  Ni0  1  0.05965400  0.62630400  0.00000000  1
  Ni  Ni1  1  0.56665000  0.94034600  0.00000000  1
  Ni  Ni2  1  0.37369600  0.43335000  0.00000000  1
  Ni  Ni3  1  0.27390300  0.12206000  0.00000000  1
  Ni  Ni4  1  0.84815700  0.72609700  0.00000000  1
  Ni  Ni5  1  0.87794000  0.15184300  0.00000000  1
  Ni  Ni6  1  0.43040000  0.04831000  0.50000000  1
  Ni  Ni7  1  0.61791000  0.56960000  0.50000000  1
  Ni  Ni8  1  0.95169000  0.38209000  0.50000000  1
  Ni  Ni9  1  0.09410600  0.87702400  0.50000000  1
  Ni  Ni10  1  0.78291800  0.90589400  0.50000000  1
  Ni  Ni11  1  0.12297600  0.21708200  0.50000000  1
  P  P0  1  0.29388200  0.88789600  0.00000000  1
  P  P1  1  0.59401500  0.70611800  0.00000000  1
  P  P2  1  0.11210400  0.40598500  0.00000000  1
  P  P3  1  0.40394800  0.29389400  0.50000000  1
  P  P4  1  0.88994700  0.59605200  0.50000000  1
  P  P5  1  0.70610600  0.11005300  0.50000000  1
  P  P6  1  0.00000000  0.00000000  0.00000000  1
loop_
_geom_bond_atom_site_label_1
_geom_bond_atom_site_label_2
_geom_bond_distance
_geom_bond_site_symmetry_2
Ni0 P0 2.251991 1_555
Ni0 P2 2.266942 1_555
Ni0 P4 2.326841 1_455
Ni0 P4 2.326841 1_454
Ni0 Tb1 2.959507 1_554
Ni0 Tb1 2.959507 1_555
Ni0 Tb0 3.198824 1_455
Ni1 P1 2.251997 1_555
Ni1 P0 2.266933 1_555
Ni1 P5 2.326842 1_565
Ni1 P5 2.326842 1_564
Ni1 Tb1 2.959510 1_554
Ni1 Tb1 2.959510 1_555
Ni1 Tb0 3.198821 1_565
Ni2 P2 2.251987 1_555
Ni2 P1 2.266936 1_555
Ni2 P3 2.326846 1_555
Ni2 P3 2.326846 1_554
Ni2 Tb1 2.959514 1_554
Ni2 Tb1 2.959514 1_555
Ni2 Tb0 3.198830 1_555
Ni3 P6 2.149211 1_555
Ni3 P0 2.213340 1_545
Ni3 P3 2.318229 1_555
Ni3 P3 2.318229 1_554
Ni3 Tb0 3.078758 1_555
Ni4 P6 2.149211 1_665
Ni4 P1 2.213331 1_555
Ni4 P4 2.318233 1_554
Ni4 P4 2.318233 1_555
Ni4 Tb0 3.078758 1_555
Ni5 P6 2.149211 1_655
Ni5 P2 2.213335 1_655
Ni5 P5 2.318227 1_554
Ni5 P5 2.318227 1_555
Ni5 Tb0 3.078750 1_555
Ni6 P5 2.266146 1_555
Ni6 P0 2.289443 1_546
Ni6 P0 2.289443 1_545
Ni6 P3 2.349488 1_555
Ni6 Tb0 3.017457 1_555
Ni6 Tb0 3.017457 1_556
Ni6 Tb1 3.106639 1_545
Ni7 P3 2.266143 1_555
Ni7 P1 2.289440 1_555
Ni7 P1 2.289440 1_556
Ni7 P4 2.349497 1_555
Ni7 Tb0 3.017462 1_555
Ni7 Tb0 3.017462 1_556
Ni7 Tb1 3.106648 1_555
Ni8 P4 2.266137 1_555
Ni8 P2 2.289445 1_655
Ni8 P2 2.289445 1_656
Ni8 P5 2.349493 1_555
Ni8 Tb0 3.017455 1_555
Ni8 Tb0 3.017455 1_556
Ni8 Tb1 3.106641 1_655
Ni9 P4 2.274432 1_455
Ni9 P6 2.512214 1_566
Ni9 P6 2.512214 1_565
Ni9 P0 2.549448 1_555
Ni9 P0 2.549448 1_556
Ni10 P5 2.274426 1_565
Ni10 P6 2.512214 1_666
Ni10 P6 2.512214 1_665
Ni10 P1 2.549446 1_556
Ni10 P1 2.549446 1_555
Ni11 P3 2.274435 1_555
Ni11 P6 2.512214 1_555
Ni11 P6 2.512214 1_556
Ni11 P2 2.549442 1_555
Ni11 P2 2.549442 1_556
P0 Tb1 2.871775 1_554
P0 Tb1 2.871775 1_555
P1 Tb1 2.871788 1_554
P1 Tb1 2.871788 1_555
P2 Tb1 2.871783 1_554
P2 Tb1 2.871783 1_555
P3 Tb0 2.885820 1_555
P3 Tb0 2.885820 1_556
P4 Tb0 2.885820 1_555
P4 Tb0 2.885820 1_556
P5 Tb0 2.885820 1_555
P5 Tb0 2.885820 1_556
