# generated using pymatgen
data_K2PtS6
_symmetry_space_group_name_H-M   'P 1'
_cell_length_a   7.53312175
_cell_length_b   7.53312175
_cell_length_c   5.24602321
_cell_angle_alpha   89.59487364
_cell_angle_beta   89.59487364
_cell_angle_gamma   60.20081857
_symmetry_Int_Tables_number   1
_chemical_formula_structural   K2PtS6
_chemical_formula_sum   'K2 Pt1 S6'
_cell_volume   258.32806215
_cell_formula_units_Z   1
loop_
 _symmetry_equiv_pos_site_id
 _symmetry_equiv_pos_as_xyz
  1  'x, y, z'
loop_
 _atom_site_type_symbol
 _atom_site_label
 _atom_site_symmetry_multiplicity
 _atom_site_fract_x
 _atom_site_fract_y
 _atom_site_fract_z
 _atom_site_occupancy
  K  K0  1  0.67446100  0.67446100  0.39389500  1
  K  K1  1  0.32553900  0.32553900  0.60610500  1
  Pt  Pt0  1  0.00000000  0.00000000  0.00000000  1
  S  S0  1  0.82141200  0.82141200  0.89676700  1
  S  S1  1  0.35799900  0.78964800  0.91710600  1
  S  S2  1  0.78964800  0.35799900  0.91710600  1
  S  S3  1  0.17858800  0.17858800  0.10323300  1
  S  S4  1  0.64200100  0.21035200  0.08289400  1
  S  S5  1  0.21035200  0.64200100  0.08289400  1
loop_
_geom_bond_atom_site_label_1
_geom_bond_atom_site_label_2
_geom_bond_distance
_geom_bond_site_symmetry_2
K0 S0 3.223139 1_554
K0 S2 3.269553 1_554
K0 S1 3.269553 1_554
K0 S0 3.272759 1_555
K0 S2 3.443118 1_555
K0 S1 3.443118 1_555
K1 S3 3.223139 1_556
K1 S5 3.269553 1_556
K1 S4 3.269553 1_556
K1 S3 3.272759 1_555
K1 S4 3.443118 1_555
K1 S5 3.443118 1_555
Pt0 S2 2.391395 1_454
Pt0 S1 2.391395 1_544
Pt0 S5 2.391395 1_545
Pt0 S4 2.391395 1_455
Pt0 S3 2.394284 1_555
Pt0 S0 2.394284 1_444
S1 S5 2.105422 1_556
S2 S4 2.105422 1_556
