# generated using pymatgen
data_Y3Mg
_symmetry_space_group_name_H-M   'P 1'
_cell_length_a   6.02133357
_cell_length_b   6.02133357
_cell_length_c   6.02133357
_cell_angle_alpha   131.39325998
_cell_angle_beta   131.39325998
_cell_angle_gamma   71.18901155
_symmetry_Int_Tables_number   1
_chemical_formula_structural   Y3Mg
_chemical_formula_sum   'Y3 Mg1'
_cell_volume   120.28053665
_cell_formula_units_Z   1
loop_
 _symmetry_equiv_pos_site_id
 _symmetry_equiv_pos_as_xyz
  1  'x, y, z'
loop_
 _atom_site_type_symbol
 _atom_site_label
 _atom_site_symmetry_multiplicity
 _atom_site_fract_x
 _atom_site_fract_y
 _atom_site_fract_z
 _atom_site_occupancy
  Y  Y0  1  0.50000000  0.50000000  0.00000000  1
  Y  Y1  1  0.25000000  0.75000000  0.50000000  1
  Y  Y2  1  0.75000000  0.25000000  0.50000000  1
  Mg  Mg0  1  0.00000000  0.00000000  0.00000000  1
loop_
_geom_bond_atom_site_label_1
_geom_bond_atom_site_label_2
_geom_bond_distance
_geom_bond_site_symmetry_2
Y0 Y1 3.483507 1_555
Y0 Y2 3.483507 1_554
Y0 Y2 3.483507 1_555
Y0 Y1 3.483507 1_554
Y0 Y1 3.483507 1_544
Y0 Y2 3.483507 1_565
Y0 Y2 3.483507 1_454
Y0 Y1 3.483507 1_655
Y1 Y2 3.504687 1_555
Y1 Y2 3.504687 1_454
Y1 Y2 3.504687 1_465
Y1 Y2 3.504687 1_566
Mg0 Y1 3.483507 1_545
Mg0 Y2 3.483507 1_455
Mg0 Y2 3.483507 1_454
Mg0 Y2 3.483507 1_444
Mg0 Y1 3.483507 1_555
Mg0 Y1 3.483507 1_544
Mg0 Y1 3.483507 1_444
Mg0 Y2 3.483507 1_555
Mg0 Y0 3.504687 1_545
Mg0 Y0 3.504687 1_556
Mg0 Y0 3.504687 1_455
Mg0 Y0 3.504687 1_444
