# generated using pymatgen
data_Lu6Mn23
_symmetry_space_group_name_H-M   'P 1'
_cell_length_a   8.37732173
_cell_length_b   8.37732173
_cell_length_c   8.37732173
_cell_angle_alpha   60.00000000
_cell_angle_beta   60.00000000
_cell_angle_gamma   60.00000000
_symmetry_Int_Tables_number   1
_chemical_formula_structural   Lu6Mn23
_chemical_formula_sum   'Lu6 Mn23'
_cell_volume   415.71968139
_cell_formula_units_Z   1
loop_
 _symmetry_equiv_pos_site_id
 _symmetry_equiv_pos_as_xyz
  1  'x, y, z'
loop_
 _atom_site_type_symbol
 _atom_site_label
 _atom_site_symmetry_multiplicity
 _atom_site_fract_x
 _atom_site_fract_y
 _atom_site_fract_z
 _atom_site_occupancy
  Lu  Lu0  1  0.70368500  0.70368500  0.29631500  1
  Lu  Lu1  1  0.29631500  0.70368500  0.29631500  1
  Lu  Lu2  1  0.70368500  0.29631500  0.29631500  1
  Lu  Lu3  1  0.29631500  0.29631500  0.70368500  1
  Lu  Lu4  1  0.70368500  0.29631500  0.70368500  1
  Lu  Lu5  1  0.29631500  0.70368500  0.70368500  1
  Mn  Mn0  1  0.00000000  0.00000000  0.00000000  1
  Mn  Mn1  1  0.00000000  0.00000000  0.50000000  1
  Mn  Mn2  1  0.50000000  0.00000000  0.50000000  1
  Mn  Mn3  1  0.00000000  0.50000000  0.50000000  1
  Mn  Mn4  1  0.50000000  0.50000000  0.00000000  1
  Mn  Mn5  1  0.00000000  0.50000000  0.00000000  1
  Mn  Mn6  1  0.50000000  0.00000000  0.00000000  1
  Mn  Mn7  1  0.87855600  0.87855600  0.36433200  1
  Mn  Mn8  1  0.87855600  0.36433200  0.87855600  1
  Mn  Mn9  1  0.36433200  0.87855600  0.87855600  1
  Mn  Mn10  1  0.87855600  0.87855600  0.87855600  1
  Mn  Mn11  1  0.12144400  0.12144400  0.63566800  1
  Mn  Mn12  1  0.12144400  0.63566800  0.12144400  1
  Mn  Mn13  1  0.63566800  0.12144400  0.12144400  1
  Mn  Mn14  1  0.12144400  0.12144400  0.12144400  1
  Mn  Mn15  1  0.67651100  0.67651100  0.97046700  1
  Mn  Mn16  1  0.67651100  0.97046700  0.67651100  1
  Mn  Mn17  1  0.97046700  0.67651100  0.67651100  1
  Mn  Mn18  1  0.67651100  0.67651100  0.67651100  1
  Mn  Mn19  1  0.32348900  0.32348900  0.02953300  1
  Mn  Mn20  1  0.32348900  0.02953300  0.32348900  1
  Mn  Mn21  1  0.02953300  0.32348900  0.32348900  1
  Mn  Mn22  1  0.32348900  0.32348900  0.32348900  1
loop_
_geom_bond_atom_site_label_1
_geom_bond_atom_site_label_2
_geom_bond_distance
_geom_bond_site_symmetry_2
Lu0 Mn12 2.903855 1_655
Lu0 Mn13 2.903855 1_565
Lu0 Mn7 2.903855 1_555
Lu0 Mn10 2.903855 1_554
Lu0 Mn18 2.974850 1_555
Lu0 Mn15 2.974850 1_554
Lu0 Mn21 2.974850 1_655
Lu0 Mn20 2.974850 1_565
Lu0 Mn3 3.012229 1_655
Lu0 Mn2 3.012229 1_565
Lu0 Mn6 3.012229 1_565
Lu0 Mn5 3.012229 1_655
Lu0 Lu1 3.412670 1_555
Lu0 Lu5 3.412670 1_555
Lu0 Lu2 3.412670 1_555
Lu0 Lu4 3.412670 1_555
Lu1 Mn14 2.903855 1_565
Lu1 Mn7 2.903855 1_455
Lu1 Mn9 2.903855 1_554
Lu1 Mn12 2.903855 1_555
Lu1 Mn20 2.974850 1_565
Lu1 Mn17 2.974850 1_455
Lu1 Mn15 2.974850 1_554
Lu1 Mn22 2.974850 1_555
Lu1 Mn4 3.012229 1_555
Lu1 Mn6 3.012229 1_565
Lu1 Mn1 3.012229 1_565
Lu1 Mn3 3.012229 1_555
Lu1 Lu5 3.412670 1_555
Lu1 Lu2 3.412670 1_555
Lu1 Lu3 3.412670 1_555
Lu2 Mn14 2.903855 1_655
Lu2 Mn13 2.903855 1_555
Lu2 Mn7 2.903855 1_545
Lu2 Mn8 2.903855 1_554
Lu2 Mn21 2.974850 1_655
Lu2 Mn15 2.974850 1_554
Lu2 Mn16 2.974850 1_545
Lu2 Mn22 2.974850 1_555
Lu2 Mn5 3.012229 1_655
Lu2 Mn4 3.012229 1_555
Lu2 Mn2 3.012229 1_555
Lu2 Mn1 3.012229 1_655
Lu2 Lu3 3.412670 1_555
Lu2 Lu4 3.412670 1_555
Lu3 Mn14 2.903855 1_556
Lu3 Mn8 2.903855 1_455
Lu3 Mn11 2.903855 1_555
Lu3 Mn9 2.903855 1_545
Lu3 Mn19 2.974850 1_556
Lu3 Mn17 2.974850 1_455
Lu3 Mn16 2.974850 1_545
Lu3 Mn22 2.974850 1_555
Lu3 Mn2 3.012229 1_555
Lu3 Mn5 3.012229 1_556
Lu3 Mn6 3.012229 1_556
Lu3 Mn3 3.012229 1_555
Lu3 Lu5 3.412670 1_555
Lu3 Lu4 3.412670 1_555
Lu4 Mn13 2.903855 1_556
Lu4 Mn11 2.903855 1_655
Lu4 Mn8 2.903855 1_555
Lu4 Mn10 2.903855 1_545
Lu4 Mn18 2.974850 1_555
Lu4 Mn16 2.974850 1_545
Lu4 Mn21 2.974850 1_655
Lu4 Mn19 2.974850 1_556
Lu4 Mn4 3.012229 1_556
Lu4 Mn3 3.012229 1_655
Lu4 Mn6 3.012229 1_556
Lu4 Mn1 3.012229 1_655
Lu4 Lu5 3.412670 1_555
Lu5 Mn12 2.903855 1_556
Lu5 Mn11 2.903855 1_565
Lu5 Mn10 2.903855 1_455
Lu5 Mn9 2.903855 1_555
Lu5 Mn18 2.974850 1_555
Lu5 Mn17 2.974850 1_455
Lu5 Mn19 2.974850 1_556
Lu5 Mn20 2.974850 1_565
Lu5 Mn4 3.012229 1_556
Lu5 Mn5 3.012229 1_556
Lu5 Mn2 3.012229 1_565
Lu5 Mn1 3.012229 1_565
Mn0 Mn13 2.492051 1_455
Mn0 Mn11 2.492051 1_554
Mn0 Mn12 2.492051 1_545
Mn0 Mn10 2.492051 1_444
Mn0 Mn7 2.492051 1_445
Mn0 Mn8 2.492051 1_454
Mn0 Mn9 2.492051 1_544
Mn0 Mn14 2.492051 1_555
Mn1 Mn21 2.426747 1_555
Mn1 Mn20 2.426747 1_555
Mn1 Mn16 2.426747 1_445
Mn1 Mn17 2.426747 1_445
Mn1 Mn7 2.590257 1_445
Mn1 Mn10 2.590257 1_445
Mn1 Mn11 2.590257 1_555
Mn1 Mn14 2.590257 1_555
Mn2 Mn22 2.426747 1_555
Mn2 Mn20 2.426747 1_555
Mn2 Mn7 2.590257 1_545
Mn2 Mn9 2.590257 1_545
Mn3 Mn7 2.590257 1_455
Mn3 Mn8 2.590257 1_455
Mn4 Mn8 2.590257 1_554
Mn4 Mn9 2.590257 1_554
Mn5 Mn8 2.590257 1_454
Mn6 Mn9 2.590257 1_544
Mn10 Mn16 2.565347 1_555
Mn10 Mn17 2.565347 1_555
Mn10 Mn15 2.565347 1_555
Mn10 Mn5 2.590257 1_656
Mn10 Mn6 2.590257 1_566
Mn10 Mn13 2.877572 1_566
Mn10 Mn12 2.877572 1_656
Mn10 Mn11 2.877572 1_665
Mn11 Mn22 2.565347 1_555
Mn11 Mn21 2.565347 1_555
Mn11 Mn20 2.565347 1_555
Mn11 Mn3 2.590257 1_555
Mn11 Mn2 2.590257 1_555
Mn11 Mn8 2.877572 1_455
Mn11 Mn9 2.877572 1_545
Mn12 Mn22 2.565347 1_555
Mn12 Mn21 2.565347 1_555
Mn12 Mn19 2.565347 1_555
Mn12 Mn3 2.590257 1_555
Mn12 Mn4 2.590257 1_555
Mn12 Mn5 2.590257 1_555
Mn12 Mn7 2.877572 1_455
Mn12 Mn9 2.877572 1_554
Mn13 Mn22 2.565347 1_555
Mn13 Mn20 2.565347 1_555
Mn13 Mn19 2.565347 1_555
Mn13 Mn6 2.590257 1_555
Mn13 Mn4 2.590257 1_555
Mn13 Mn2 2.590257 1_555
Mn13 Mn7 2.877572 1_545
Mn13 Mn8 2.877572 1_554
Mn14 Mn21 2.565347 1_555
Mn14 Mn19 2.565347 1_555
Mn14 Mn20 2.565347 1_555
Mn14 Mn6 2.590257 1_555
Mn14 Mn5 2.590257 1_555
Mn14 Mn7 2.877572 1_445
Mn14 Mn8 2.877572 1_454
Mn14 Mn9 2.877572 1_544
Mn15 Mn4 2.426747 1_556
Mn15 Mn6 2.426747 1_566
Mn15 Mn5 2.426747 1_656
Mn15 Mn18 2.462564 1_555
Mn15 Mn17 2.462564 1_555
Mn15 Mn16 2.462564 1_555
Mn15 Mn8 2.565347 1_555
Mn15 Mn9 2.565347 1_555
Mn16 Mn2 2.426747 1_565
Mn16 Mn6 2.426747 1_566
Mn16 Mn18 2.462564 1_555
Mn16 Mn17 2.462564 1_555
Mn16 Mn9 2.565347 1_555
Mn16 Mn7 2.565347 1_555
Mn17 Mn3 2.426747 1_655
Mn17 Mn5 2.426747 1_656
Mn17 Mn18 2.462564 1_555
Mn17 Mn8 2.565347 1_555
Mn17 Mn7 2.565347 1_555
Mn18 Mn3 2.426747 1_655
Mn18 Mn2 2.426747 1_565
Mn18 Mn4 2.426747 1_556
Mn18 Mn9 2.565347 1_555
Mn18 Mn7 2.565347 1_555
Mn18 Mn8 2.565347 1_555
Mn19 Mn6 2.426747 1_555
Mn19 Mn5 2.426747 1_555
Mn19 Mn4 2.426747 1_555
Mn19 Mn21 2.462564 1_555
Mn19 Mn22 2.462564 1_555
Mn19 Mn20 2.462564 1_555
Mn20 Mn6 2.426747 1_555
Mn20 Mn21 2.462564 1_555
Mn20 Mn22 2.462564 1_555
Mn21 Mn5 2.426747 1_555
Mn21 Mn3 2.426747 1_555
Mn21 Mn22 2.462564 1_555
Mn22 Mn3 2.426747 1_555
Mn22 Mn4 2.426747 1_555
