# generated using pymatgen
data_BaLaB12
_symmetry_space_group_name_H-M   'P 1'
_cell_length_a   4.20769620
_cell_length_b   4.20769620
_cell_length_c   8.42884969
_cell_angle_alpha   90.00000000
_cell_angle_beta   90.00000000
_cell_angle_gamma   90.00000000
_symmetry_Int_Tables_number   1
_chemical_formula_structural   BaLaB12
_chemical_formula_sum   'Ba1 La1 B12'
_cell_volume   149.23031673
_cell_formula_units_Z   1
loop_
 _symmetry_equiv_pos_site_id
 _symmetry_equiv_pos_as_xyz
  1  'x, y, z'
loop_
 _atom_site_type_symbol
 _atom_site_label
 _atom_site_symmetry_multiplicity
 _atom_site_fract_x
 _atom_site_fract_y
 _atom_site_fract_z
 _atom_site_occupancy
  Ba  Ba0  1  -0.00000000  -0.00000000  -0.00000000  1
  La  La0  1  0.00000000  -0.00000000  0.50000000  1
  B  B0  1  0.20235744  0.50000000  0.25424726  1
  B  B1  1  0.20235744  0.50000000  0.74575274  1
  B  B2  1  0.50000000  0.50000000  0.40110048  1
  B  B3  1  0.50000000  0.50000000  0.89621713  1
  B  B4  1  0.50000000  0.20235744  0.25424726  1
  B  B5  1  0.50000000  0.20235744  0.74575274  1
  B  B6  1  0.50000000  0.50000000  0.10378287  1
  B  B7  1  0.50000000  0.50000000  0.59889952  1
  B  B8  1  0.50000000  0.79764256  0.25424726  1
  B  B9  1  0.50000000  0.79764256  0.74575274  1
  B  B10  1  0.79764256  0.50000000  0.25424726  1
  B  B11  1  0.79764256  0.50000000  0.74575274  1
loop_
_geom_bond_atom_site_label_1
_geom_bond_atom_site_label_2
_geom_bond_distance
_geom_bond_site_symmetry_2
B0 B10 1.702917 1_455
B0 B2 1.760863 1_555
B0 B4 1.771146 1_555
B0 B8 1.771146 1_555
B0 B6 1.782391 1_555
B0 La0 3.072769 1_565
B0 La0 3.072769 1_555
B0 Ba0 3.121483 1_555
B0 Ba0 3.121483 1_565
B1 B11 1.702917 1_455
B1 B7 1.760863 1_555
B1 B5 1.771146 1_555
B1 B9 1.771146 1_555
B1 B3 1.782391 1_555
B1 La0 3.072769 1_565
B1 La0 3.072769 1_555
B1 Ba0 3.121483 1_556
B1 Ba0 3.121483 1_566
B2 B7 1.667218 1_555
B2 B8 1.760863 1_555
B2 B4 1.760863 1_555
B2 La0 3.089864 1_565
B2 La0 3.089864 1_555
B2 La0 3.089864 1_655
B2 La0 3.089864 1_665
B3 B6 1.749540 1_556
B3 B5 1.782391 1_555
B3 B9 1.782391 1_555
B3 Ba0 3.101222 1_656
B3 Ba0 3.101222 1_556
B3 Ba0 3.101222 1_566
B3 Ba0 3.101222 1_666
B4 B8 1.702917 1_545
B4 B6 1.782391 1_555
B4 La0 3.072769 1_555
B4 La0 3.072769 1_655
B4 Ba0 3.121483 1_555
B4 Ba0 3.121483 1_655
B5 B9 1.702917 1_545
B5 B7 1.760863 1_555
B5 La0 3.072769 1_655
B5 La0 3.072769 1_555
B5 Ba0 3.121483 1_656
B5 Ba0 3.121483 1_556
B6 B8 1.782391 1_555
B6 Ba0 3.101222 1_655
B6 Ba0 3.101222 1_555
B6 Ba0 3.101222 1_565
B6 Ba0 3.101222 1_665
B7 B9 1.760863 1_555
B7 La0 3.089864 1_565
B7 La0 3.089864 1_555
B7 La0 3.089864 1_655
B7 La0 3.089864 1_665
B8 La0 3.072769 1_565
B8 La0 3.072769 1_665
B8 Ba0 3.121483 1_565
B8 Ba0 3.121483 1_665
B9 La0 3.072769 1_565
B9 La0 3.072769 1_665
B9 Ba0 3.121483 1_566
B9 Ba0 3.121483 1_666
B10 B2 1.760863 1_555
B10 B4 1.771146 1_555
B10 B8 1.771146 1_555
B10 B6 1.782391 1_555
B10 La0 3.072769 1_655
B10 La0 3.072769 1_665
B10 Ba0 3.121483 1_655
B10 Ba0 3.121483 1_665
B11 B7 1.760863 1_555
B11 B5 1.771146 1_555
B11 B9 1.771146 1_555
B11 B3 1.782391 1_555
B11 La0 3.072769 1_655
B11 La0 3.072769 1_665
B11 Ba0 3.121483 1_656
B11 Ba0 3.121483 1_666
