# generated using pymatgen
data_NdBPt3
_symmetry_space_group_name_H-M   'P 1'
_cell_length_a   4.02110246
_cell_length_b   4.02110246
_cell_length_c   5.08640514
_cell_angle_alpha   90.00000000
_cell_angle_beta   90.00000000
_cell_angle_gamma   90.00000000
_symmetry_Int_Tables_number   1
_chemical_formula_structural   NdBPt3
_chemical_formula_sum   'Nd1 B1 Pt3'
_cell_volume   82.24343257
_cell_formula_units_Z   1
loop_
 _symmetry_equiv_pos_site_id
 _symmetry_equiv_pos_as_xyz
  1  'x, y, z'
loop_
 _atom_site_type_symbol
 _atom_site_label
 _atom_site_symmetry_multiplicity
 _atom_site_fract_x
 _atom_site_fract_y
 _atom_site_fract_z
 _atom_site_occupancy
  Nd  Nd0  1  -0.00000000  -0.00000000  0.98245941  1
  B  B0  1  0.50000000  0.50000000  0.68704017  1
  Pt  Pt0  1  -0.00000000  0.50000000  0.49952955  1
  Pt  Pt1  1  0.50000000  0.50000000  0.09934131  1
  Pt  Pt2  1  0.50000000  0.00000000  0.49952955  1
loop_
_geom_bond_atom_site_label_1
_geom_bond_atom_site_label_2
_geom_bond_distance
_geom_bond_site_symmetry_2
Nd0 Pt1 2.904836 1_456
Nd0 Pt1 2.904836 1_556
Nd0 Pt1 2.904836 1_546
Nd0 Pt1 2.904836 1_446
Nd0 Pt0 3.174288 1_555
Nd0 Pt2 3.174288 1_455
Nd0 Pt2 3.174288 1_555
Nd0 Pt0 3.174288 1_545
Nd0 Pt0 3.310493 1_556
Nd0 Pt2 3.310493 1_456
Nd0 Pt2 3.310493 1_556
Nd0 Pt0 3.310493 1_546
B0 Pt1 2.097131 1_556
B0 Pt2 2.225301 1_555
B0 Pt2 2.225301 1_565
B0 Pt0 2.225301 1_555
B0 Pt0 2.225301 1_655
B0 Nd0 3.215977 1_555
B0 Nd0 3.215977 1_565
B0 Nd0 3.215977 1_655
B0 Nd0 3.215977 1_665
