# generated using pymatgen
data_Al(CuO2)3
_symmetry_space_group_name_H-M   'P 1'
_cell_length_a   11.22888100
_cell_length_b   2.85550300
_cell_length_c   8.45263068
_cell_angle_alpha   80.48949460
_cell_angle_beta   90.00000000
_cell_angle_gamma   90.00000000
_symmetry_Int_Tables_number   1
_chemical_formula_structural   Al(CuO2)3
_chemical_formula_sum   'Al2 Cu6 O12'
_cell_volume   267.30085877
_cell_formula_units_Z   2
loop_
 _symmetry_equiv_pos_site_id
 _symmetry_equiv_pos_as_xyz
  1  'x, y, z'
loop_
 _atom_site_type_symbol
 _atom_site_label
 _atom_site_symmetry_multiplicity
 _atom_site_fract_x
 _atom_site_fract_y
 _atom_site_fract_z
 _atom_site_occupancy
  Al  Al0  1  0.99965000  0.66495500  0.16968100  1
  Al  Al1  1  0.49965000  0.33504500  0.83031900  1
  Cu  Cu0  1  0.24653200  0.43970500  0.60801300  1
  Cu  Cu1  1  0.25228400  0.10193800  0.26937900  1
  Cu  Cu2  1  0.25124600  0.77676100  0.95463100  1
  Cu  Cu3  1  0.75228400  0.89806200  0.73062100  1
  Cu  Cu4  1  0.74653200  0.56029500  0.39198700  1
  Cu  Cu5  1  0.75124600  0.22323900  0.04536900  1
  O  O0  1  0.59214700  0.87040500  0.75163300  1
  O  O1  1  0.59567300  0.53529600  0.39918900  1
  O  O2  1  0.59949900  0.24511700  0.01359200  1
  O  O3  1  0.09567300  0.46470400  0.60081100  1
  O  O4  1  0.09214700  0.12959500  0.24836700  1
  O  O5  1  0.09949900  0.75488300  0.98640800  1
  O  O6  1  0.90018300  0.89600600  0.71793800  1
  O  O7  1  0.90311200  0.57912100  0.35356300  1
  O  O8  1  0.90564800  0.20800300  0.08887100  1
  O  O9  1  0.40311200  0.42087900  0.64643700  1
  O  O10  1  0.40018300  0.10399400  0.28206200  1
  O  O11  1  0.40564800  0.79199700  0.91112900  1
loop_
_geom_bond_atom_site_label_1
_geom_bond_atom_site_label_2
_geom_bond_distance
_geom_bond_site_symmetry_2
Al0 O4 1.876733 1_655
Al0 O7 1.877519 1_555
Al0 O4 1.890262 1_665
Al0 O8 1.891515 1_555
Al0 O5 1.895096 1_654
Al0 O8 1.906646 1_565
Al1 O0 1.876733 1_555
Al1 O9 1.877519 1_555
Al1 O0 1.890262 1_545
Al1 O11 1.891515 1_555
Al1 O2 1.895096 1_556
Al1 O11 1.906646 1_545
Cu0 O3 1.696150 1_555
Cu0 O9 1.787159 1_555
Cu1 O10 1.664270 1_555
Cu1 O4 1.807352 1_555
Cu2 O5 1.724513 1_555
Cu2 O11 1.771368 1_555
Cu3 O6 1.664270 1_555
Cu3 O0 1.807352 1_555
Cu4 O1 1.696150 1_555
Cu4 O7 1.787159 1_555
Cu5 O2 1.724513 1_555
Cu5 O8 1.771368 1_555
