# generated using pymatgen
data_Ba2SmV3O11
_symmetry_space_group_name_H-M   'P 1'
_cell_length_a   7.84405000
_cell_length_b   12.50708692
_cell_length_c   11.39895802
_cell_angle_alpha   103.13995419
_cell_angle_beta   90.00000000
_cell_angle_gamma   90.00000000
_symmetry_Int_Tables_number   1
_chemical_formula_structural   Ba2SmV3O11
_chemical_formula_sum   'Ba8 Sm4 V12 O44'
_cell_volume   1089.02871201
_cell_formula_units_Z   4
loop_
 _symmetry_equiv_pos_site_id
 _symmetry_equiv_pos_as_xyz
  1  'x, y, z'
loop_
 _atom_site_type_symbol
 _atom_site_label
 _atom_site_symmetry_multiplicity
 _atom_site_fract_x
 _atom_site_fract_y
 _atom_site_fract_z
 _atom_site_occupancy
  Ba  Ba0  1  0.27451500  0.76706700  0.94150700  1
  Ba  Ba1  1  0.72548500  0.23293300  0.05849300  1
  Ba  Ba2  1  0.77451500  0.23293300  0.55849300  1
  Ba  Ba3  1  0.22548500  0.76706700  0.44150700  1
  Ba  Ba4  1  0.74764500  0.55407500  0.88935500  1
  Ba  Ba5  1  0.25235500  0.44592500  0.11064500  1
  Ba  Ba6  1  0.24764500  0.44592500  0.61064500  1
  Ba  Ba7  1  0.75235500  0.55407500  0.38935500  1
  Sm  Sm0  1  0.50112300  0.99773700  0.71197000  1
  Sm  Sm1  1  0.49887700  0.00226300  0.28803000  1
  Sm  Sm2  1  0.00112300  0.00226300  0.78803000  1
  Sm  Sm3  1  0.99887700  0.99773700  0.21197000  1
  V  V0  1  0.75278400  0.90508300  0.97605300  1
  V  V1  1  0.24721600  0.09491700  0.02394700  1
  V  V2  1  0.25278400  0.09491700  0.52394700  1
  V  V3  1  0.74721600  0.90508300  0.47605300  1
  V  V4  1  0.51967000  0.68349000  0.67341800  1
  V  V5  1  0.48033000  0.31651000  0.32658200  1
  V  V6  1  0.01967000  0.31651000  0.82658200  1
  V  V7  1  0.98033000  0.68349000  0.17341800  1
  V  V8  1  0.98083200  0.68696400  0.67053900  1
  V  V9  1  0.01916800  0.31303600  0.32946000  1
  V  V10  1  0.48083200  0.31303600  0.82946100  1
  V  V11  1  0.51916800  0.68696400  0.17054000  1
  O  O0  1  0.44381500  0.81696100  0.71829600  1
  O  O1  1  0.55618500  0.18303900  0.28170400  1
  O  O2  1  0.94381500  0.18303900  0.78170400  1
  O  O3  1  0.05618500  0.81696100  0.21829600  1
  O  O4  1  0.55126600  0.17855500  0.80774800  1
  O  O5  1  0.44873400  0.82144500  0.19225200  1
  O  O6  1  0.05126600  0.82144500  0.69225200  1
  O  O7  1  0.94873400  0.17855500  0.30774800  1
  O  O8  1  0.75032700  0.66630900  0.66743700  1
  O  O9  1  0.24967300  0.33369100  0.33256300  1
  O  O10  1  0.25032700  0.33369100  0.83256300  1
  O  O11  1  0.74967300  0.66630900  0.16743700  1
  O  O12  1  0.94482700  0.37550000  0.96614000  1
  O  O13  1  0.05517300  0.62450000  0.03386000  1
  O  O14  1  0.44482700  0.62450000  0.53386000  1
  O  O15  1  0.55517300  0.37550000  0.46614000  1
  O  O16  1  0.94119100  0.39223100  0.73155800  1
  O  O17  1  0.05880900  0.60776900  0.26844200  1
  O  O18  1  0.44119100  0.60776900  0.76844200  1
  O  O19  1  0.55880900  0.39223100  0.23155800  1
  O  O20  1  0.78440800  0.98617400  0.62347400  1
  O  O21  1  0.21559200  0.01382600  0.37652600  1
  O  O22  1  0.28440800  0.01382600  0.87652600  1
  O  O23  1  0.71559200  0.98617400  0.12347400  1
  O  O24  1  0.97147100  0.88337000  0.97357300  1
  O  O25  1  0.02852900  0.11663000  0.02642700  1
  O  O26  1  0.47147100  0.11663000  0.52642700  1
  O  O27  1  0.52852900  0.88337000  0.47357300  1
  O  O28  1  0.63998200  0.78589700  0.94676700  1
  O  O29  1  0.36001800  0.21410300  0.05323300  1
  O  O30  1  0.13998200  0.21410300  0.55323300  1
  O  O31  1  0.86001800  0.78589700  0.44676700  1
  O  O32  1  0.71806800  0.98289800  0.86542900  1
  O  O33  1  0.28193200  0.01710200  0.13457100  1
  O  O34  1  0.21806800  0.01710200  0.63457100  1
  O  O35  1  0.78193200  0.98289800  0.36543000  1
  O  O36  1  0.55851600  0.37041300  0.71892400  1
  O  O37  1  0.44148400  0.62958700  0.28107600  1
  O  O38  1  0.05851600  0.62958700  0.78107600  1
  O  O39  1  0.94148400  0.37041300  0.21892400  1
  O  O40  1  0.56260800  0.38753300  0.96132100  1
  O  O41  1  0.43739200  0.61246700  0.03867900  1
  O  O42  1  0.06260800  0.61246700  0.53867900  1
  O  O43  1  0.93739200  0.38753300  0.46132100  1
loop_
_geom_bond_atom_site_label_1
_geom_bond_atom_site_label_2
_geom_bond_distance
_geom_bond_site_symmetry_2
Ba0 O41 2.751687 1_556
Ba0 O24 2.767369 1_455
Ba0 O38 2.782428 1_555
Ba0 O18 2.789906 1_555
Ba0 O13 2.846287 1_556
Ba0 O28 2.875908 1_555
Ba0 O0 3.057567 1_555
Ba0 O5 3.100930 1_556
Ba0 O22 3.334502 1_565
Ba0 O33 3.390721 1_566
Ba1 O40 2.751687 1_554
Ba1 O25 2.767369 1_655
Ba1 O39 2.782428 1_555
Ba1 O19 2.789906 1_555
Ba1 O12 2.846287 1_554
Ba1 O29 2.875908 1_555
Ba1 O1 3.057567 1_555
Ba1 O4 3.100930 1_554
Ba1 O23 3.334502 1_545
Ba1 O32 3.390721 1_544
Ba2 O43 2.751687 1_555
Ba2 O26 2.767369 1_555
Ba2 O36 2.782428 1_555
Ba2 O16 2.789906 1_555
Ba2 O15 2.846287 1_555
Ba2 O30 2.875908 1_655
Ba2 O2 3.057567 1_555
Ba2 O7 3.100930 1_555
Ba2 O20 3.334502 1_545
Ba2 O35 3.390716 1_545
Ba3 O42 2.751687 1_555
Ba3 O27 2.767369 1_555
Ba3 O37 2.782428 1_555
Ba3 O17 2.789906 1_555
Ba3 O14 2.846287 1_555
Ba3 O31 2.875908 1_455
Ba3 O3 3.057567 1_555
Ba3 O6 3.100930 1_555
Ba3 O21 3.334502 1_565
Ba3 O34 3.390721 1_565
Ba4 O40 2.809844 1_555
Ba4 O16 2.825288 1_555
Ba4 O18 2.924026 1_555
Ba4 O13 2.940830 1_656
Ba4 O28 2.947101 1_555
Ba4 O41 2.964464 1_556
Ba4 O38 2.981877 1_655
Ba4 O12 3.005913 1_555
Ba4 O36 3.036888 1_555
Ba4 O8 3.159806 1_555
Ba4 O11 3.161575 1_556
Ba5 O41 2.809844 1_555
Ba5 O17 2.825288 1_555
Ba5 O19 2.924026 1_555
Ba5 O12 2.940830 1_454
Ba5 O29 2.947101 1_555
Ba5 O40 2.964464 1_554
Ba5 O39 2.981877 1_455
Ba5 O13 3.005913 1_555
Ba5 O37 3.036888 1_555
Ba5 O9 3.159806 1_555
Ba5 O10 3.161575 1_554
Ba6 O42 2.809844 1_555
Ba6 O18 2.825288 1_555
Ba6 O16 2.924026 1_455
Ba6 O15 2.940830 1_555
Ba6 O30 2.947101 1_555
Ba6 O43 2.964464 1_455
Ba6 O36 2.981877 1_555
Ba6 O14 3.005913 1_555
Ba6 O38 3.036888 1_555
Ba6 O10 3.159806 1_555
Ba6 O9 3.161575 1_555
Ba7 O43 2.809844 1_555
Ba7 O19 2.825288 1_555
Ba7 O17 2.924026 1_655
Ba7 O14 2.940830 1_555
Ba7 O31 2.947101 1_555
Ba7 O42 2.964464 1_655
Ba7 O37 2.981877 1_555
Ba7 O15 3.005913 1_555
Ba7 O39 3.036888 1_555
Ba7 O11 3.159806 1_555
Ba7 O8 3.161575 1_555
O0 V4 1.736128 1_555
O0 Sm0 2.322378 1_555
O1 V5 1.736128 1_555
O1 Sm1 2.322378 1_555
O2 V6 1.736128 1_655
O2 Sm2 2.322378 1_655
O3 V7 1.736128 1_455
O3 Sm3 2.322378 1_455
O4 V10 1.733850 1_555
O4 Sm0 2.310519 1_545
O5 V11 1.733851 1_555
O5 Sm1 2.310519 1_565
O6 V8 1.733850 1_455
O6 Sm2 2.310519 1_565
O7 V9 1.733851 1_655
O7 Sm3 2.310519 1_545
O8 V4 1.821449 1_555
O8 V8 1.825660 1_555
O9 V5 1.821449 1_555
O9 V9 1.825659 1_555
O10 V6 1.821449 1_555
O10 V10 1.825660 1_555
O11 V7 1.821449 1_555
O11 V11 1.825659 1_555
O12 V6 1.698839 1_655
O13 V7 1.698839 1_455
O14 V4 1.698839 1_555
O15 V5 1.698839 1_555
O16 V6 1.707491 1_655
O17 V7 1.707491 1_455
O18 V4 1.707491 1_555
O19 V5 1.707491 1_555
O20 V3 1.778410 1_555
O20 Sm0 2.431033 1_555
O20 Sm2 2.505418 1_665
O21 V2 1.778410 1_555
O21 Sm1 2.431033 1_555
O21 Sm3 2.505418 1_445
O22 V1 1.778410 1_556
O22 Sm2 2.431033 1_555
O22 Sm0 2.505418 1_545
O23 V0 1.778410 1_554
O23 Sm3 2.431033 1_555
O23 Sm1 2.505418 1_565
O24 V0 1.735980 1_555
O24 Sm3 2.776623 1_556
O24 Sm2 2.858043 1_665
O25 V1 1.735980 1_555
O25 Sm2 2.776623 1_554
O25 Sm3 2.858043 1_445
O26 V2 1.735980 1_555
O26 Sm1 2.776623 1_555
O26 Sm0 2.858043 1_545
O27 V3 1.735980 1_555
O27 Sm0 2.776623 1_555
O27 Sm1 2.858043 1_565
O28 V0 1.700059 1_555
O29 V1 1.700059 1_555
O30 V2 1.700059 1_555
O31 V3 1.700059 1_555
O32 V0 1.780295 1_555
O32 Sm2 2.421556 1_665
O32 Sm0 2.477475 1_555
O33 V1 1.780295 1_555
O33 Sm3 2.421556 1_445
O33 Sm1 2.477475 1_555
O34 V2 1.780295 1_555
O34 Sm0 2.421556 1_545
O34 Sm2 2.477475 1_555
O35 V3 1.780285 1_555
O35 Sm1 2.421560 1_565
O35 Sm3 2.477483 1_555
O36 V10 1.698534 1_555
O37 V11 1.698524 1_555
O38 V8 1.698534 1_455
O39 V9 1.698524 1_655
O40 V10 1.703548 1_555
O41 V11 1.703557 1_555
O42 V8 1.703548 1_455
O43 V9 1.703557 1_655
