# generated using pymatgen
data_TmCdNi4
_symmetry_space_group_name_H-M   'P 1'
_cell_length_a   4.89187651
_cell_length_b   4.89188584
_cell_length_c   4.89188728
_cell_angle_alpha   59.99999025
_cell_angle_beta   59.99992718
_cell_angle_gamma   59.99990776
_symmetry_Int_Tables_number   1
_chemical_formula_structural   TmCdNi4
_chemical_formula_sum   'Tm1 Cd1 Ni4'
_cell_volume   82.77756918
_cell_formula_units_Z   1
loop_
 _symmetry_equiv_pos_site_id
 _symmetry_equiv_pos_as_xyz
  1  'x, y, z'
loop_
 _atom_site_type_symbol
 _atom_site_label
 _atom_site_symmetry_multiplicity
 _atom_site_fract_x
 _atom_site_fract_y
 _atom_site_fract_z
 _atom_site_occupancy
  Tm  Tm0  1  0.24999900  0.25000100  0.25000000  1
  Cd  Cd0  1  0.00000000  -0.00000000  0.00000000  1
  Ni  Ni0  1  0.62584589  0.62584489  0.12246534  1
  Ni  Ni1  1  0.62584589  0.12246534  0.62584489  1
  Ni  Ni2  1  0.12246534  0.62584489  0.62584489  1
  Ni  Ni3  1  0.62584589  0.62584489  0.62584489  1
loop_
_geom_bond_atom_site_label_1
_geom_bond_atom_site_label_2
_geom_bond_distance
_geom_bond_site_symmetry_2
Cd0 Ni0 2.866371 1_445
Cd0 Ni1 2.866371 1_454
Cd0 Ni3 2.866372 1_454
Cd0 Ni3 2.866372 1_544
Cd0 Ni3 2.866373 1_445
Cd0 Ni0 2.866374 1_455
Cd0 Ni0 2.866374 1_545
Cd0 Ni1 2.866375 1_554
Cd0 Ni1 2.866375 1_455
Cd0 Ni2 2.866377 1_554
Cd0 Ni2 2.866377 1_544
Cd0 Ni2 2.866377 1_545
Cd0 Tm0 2.995650 1_545
Cd0 Tm0 2.995651 1_455
Cd0 Tm0 2.995656 1_555
Cd0 Tm0 2.995656 1_554
Ni0 Ni2 2.429403 1_654
Ni0 Ni1 2.429411 1_564
Ni0 Ni3 2.429411 1_554
Ni0 Ni2 2.462473 1_555
Ni0 Ni1 2.462475 1_555
Ni0 Ni3 2.462476 1_555
Ni0 Tm0 2.869887 1_655
Ni0 Tm0 2.869903 1_565
Ni0 Tm0 2.869904 1_555
Ni1 Ni2 2.429402 1_645
Ni1 Ni3 2.429411 1_545
Ni1 Ni2 2.462472 1_555
Ni1 Ni3 2.462475 1_555
Ni1 Tm0 2.869889 1_655
Ni1 Tm0 2.869902 1_556
Ni1 Tm0 2.869906 1_555
Ni2 Ni3 2.429401 1_455
Ni2 Ni3 2.462475 1_555
Ni2 Tm0 2.869900 1_556
Ni2 Tm0 2.869900 1_555
Ni2 Tm0 2.869904 1_565
Ni3 Tm0 2.869889 1_655
Ni3 Tm0 2.869902 1_556
Ni3 Tm0 2.869905 1_565
