# generated using pymatgen
data_Sn6P3NO14
_symmetry_space_group_name_H-M   'P 1'
_cell_length_a   7.02975300
_cell_length_b   12.57602700
_cell_length_c   19.73263500
_cell_angle_alpha   90.00000000
_cell_angle_beta   90.00000000
_cell_angle_gamma   90.00000000
_symmetry_Int_Tables_number   1
_chemical_formula_structural   Sn6P3NO14
_chemical_formula_sum   'Sn24 P12 N4 O56'
_cell_volume   1744.49050324
_cell_formula_units_Z   4
loop_
 _symmetry_equiv_pos_site_id
 _symmetry_equiv_pos_as_xyz
  1  'x, y, z'
loop_
 _atom_site_type_symbol
 _atom_site_label
 _atom_site_symmetry_multiplicity
 _atom_site_fract_x
 _atom_site_fract_y
 _atom_site_fract_z
 _atom_site_occupancy
  Sn  Sn0  1  0.18344800  0.10978200  0.94916400  1
  Sn  Sn1  1  0.31655200  0.60978200  0.55083600  1
  Sn  Sn2  1  0.68344800  0.89021800  0.55083600  1
  Sn  Sn3  1  0.81655200  0.39021800  0.94916400  1
  Sn  Sn4  1  0.81655200  0.89021800  0.05083600  1
  Sn  Sn5  1  0.68344800  0.39021800  0.44916400  1
  Sn  Sn6  1  0.31655200  0.10978200  0.44916400  1
  Sn  Sn7  1  0.18344800  0.60978200  0.05083600  1
  Sn  Sn8  1  0.30436500  0.84550000  0.90569000  1
  Sn  Sn9  1  0.19563500  0.34550000  0.59431000  1
  Sn  Sn10  1  0.80436500  0.15450000  0.59431000  1
  Sn  Sn11  1  0.69563500  0.65450000  0.90569000  1
  Sn  Sn12  1  0.69563500  0.15450000  0.09431000  1
  Sn  Sn13  1  0.80436500  0.65450000  0.40569000  1
  Sn  Sn14  1  0.19563500  0.84550000  0.40569000  1
  Sn  Sn15  1  0.30436500  0.34550000  0.09431000  1
  Sn  Sn16  1  0.97344400  0.00661100  0.79119200  1
  Sn  Sn17  1  0.52655600  0.50661100  0.70880800  1
  Sn  Sn18  1  0.47344400  0.99338900  0.70880800  1
  Sn  Sn19  1  0.02655600  0.49338900  0.79119200  1
  Sn  Sn20  1  0.02655600  0.99338900  0.20880800  1
  Sn  Sn21  1  0.47344400  0.49338900  0.29119200  1
  Sn  Sn22  1  0.52655600  0.00661100  0.29119200  1
  Sn  Sn23  1  0.97344400  0.50661100  0.20880800  1
  P  P0  1  0.50000000  0.75000000  0.75743200  1
  P  P1  1  0.00000000  0.25000000  0.74256800  1
  P  P2  1  0.50000000  0.25000000  0.24256800  1
  P  P3  1  0.00000000  0.75000000  0.25743200  1
  P  P4  1  0.35198600  0.96546700  0.08108500  1
  P  P5  1  0.14801400  0.46546700  0.41891500  1
  P  P6  1  0.85198600  0.03453300  0.41891500  1
  P  P7  1  0.64801400  0.53453300  0.08108500  1
  P  P8  1  0.64801400  0.03453300  0.91891500  1
  P  P9  1  0.85198600  0.53453300  0.58108500  1
  P  P10  1  0.14801400  0.96546700  0.58108500  1
  P  P11  1  0.35198600  0.46546700  0.91891500  1
  N  N0  1  0.50000000  0.25000000  0.80720400  1
  N  N1  1  0.00000000  0.75000000  0.69279600  1
  N  N2  1  0.50000000  0.75000000  0.19279600  1
  N  N3  1  0.00000000  0.25000000  0.30720400  1
  O  O0  1  0.21770600  0.97338400  0.01675800  1
  O  O1  1  0.28229400  0.47338400  0.48324200  1
  O  O2  1  0.71770600  0.02661600  0.48324200  1
  O  O3  1  0.78229400  0.52661600  0.01675800  1
  O  O4  1  0.78229400  0.02661600  0.98324200  1
  O  O5  1  0.71770600  0.52661600  0.51675800  1
  O  O6  1  0.28229400  0.97338400  0.51675800  1
  O  O7  1  0.21770600  0.47338400  0.98324200  1
  O  O8  1  0.48702700  0.11305600  0.93673000  1
  O  O9  1  0.01297300  0.61305600  0.56327000  1
  O  O10  1  0.98702700  0.88694400  0.56327000  1
  O  O11  1  0.51297300  0.38694400  0.93673000  1
  O  O12  1  0.51297300  0.88694400  0.06327000  1
  O  O13  1  0.98702700  0.38694400  0.43673000  1
  O  O14  1  0.01297300  0.11305600  0.43673000  1
  O  O15  1  0.48702700  0.61305600  0.06327000  1
  O  O16  1  0.15027500  0.98234400  0.87949400  1
  O  O17  1  0.34972500  0.48234400  0.62050600  1
  O  O18  1  0.65027500  0.01765600  0.62050600  1
  O  O19  1  0.84972500  0.51765600  0.87949400  1
  O  O20  1  0.84972500  0.01765600  0.12050600  1
  O  O21  1  0.65027500  0.51765600  0.37949400  1
  O  O22  1  0.34972500  0.98234400  0.37949400  1
  O  O23  1  0.15027500  0.48234400  0.12050600  1
  O  O24  1  0.57353500  0.92037600  0.90312900  1
  O  O25  1  0.92646500  0.42037600  0.59687100  1
  O  O26  1  0.07353500  0.07962400  0.59687100  1
  O  O27  1  0.42646500  0.57962400  0.90312900  1
  O  O28  1  0.42646500  0.07962400  0.09687100  1
  O  O29  1  0.07353500  0.57962400  0.40312900  1
  O  O30  1  0.92646500  0.92037600  0.40312900  1
  O  O31  1  0.57353500  0.42037600  0.09687100  1
  O  O32  1  0.34293200  0.80473400  0.80140500  1
  O  O33  1  0.15706800  0.30473400  0.69859500  1
  O  O34  1  0.84293200  0.19526600  0.69859500  1
  O  O35  1  0.65706800  0.69526600  0.80140500  1
  O  O36  1  0.65706800  0.19526600  0.19859500  1
  O  O37  1  0.84293200  0.69526600  0.30140500  1
  O  O38  1  0.15706800  0.80473400  0.30140500  1
  O  O39  1  0.34293200  0.30473400  0.19859500  1
  O  O40  1  0.09312900  0.16308100  0.78764600  1
  O  O41  1  0.40687100  0.66308100  0.71235400  1
  O  O42  1  0.59312900  0.83691900  0.71235400  1
  O  O43  1  0.90687100  0.33691900  0.78764600  1
  O  O44  1  0.90687100  0.83691900  0.21235400  1
  O  O45  1  0.59312900  0.33691900  0.28764600  1
  O  O46  1  0.40687100  0.16308100  0.28764600  1
  O  O47  1  0.09312900  0.66308100  0.21235400  1
  O  O48  1  0.76510200  0.07639200  0.85863400  1
  O  O49  1  0.73489800  0.57639200  0.64136600  1
  O  O50  1  0.26510200  0.92360800  0.64136600  1
  O  O51  1  0.23489800  0.42360800  0.85863400  1
  O  O52  1  0.23489800  0.92360800  0.14136600  1
  O  O53  1  0.26510200  0.42360800  0.35863400  1
  O  O54  1  0.73489800  0.07639200  0.35863400  1
  O  O55  1  0.76510200  0.57639200  0.14136600  1
loop_
_geom_bond_atom_site_label_1
_geom_bond_atom_site_label_2
_geom_bond_distance
_geom_bond_site_symmetry_2
O0 P4 1.584989 1_555
O0 Sn0 2.186195 1_564
O1 P5 1.584989 1_555
O1 Sn1 2.186195 1_555
O2 P6 1.584989 1_555
O2 Sn2 2.186195 1_545
O3 P7 1.584989 1_555
O3 Sn3 2.186195 1_554
O4 P8 1.584989 1_555
O4 Sn4 2.186195 1_546
O5 P9 1.584989 1_555
O5 Sn5 2.186195 1_555
O6 P10 1.584989 1_555
O6 Sn6 2.186195 1_565
O7 P11 1.584989 1_555
O7 Sn7 2.186195 1_556
O8 P8 1.542560 1_555
O8 Sn0 2.148538 1_555
O9 P9 1.542560 1_455
O9 Sn1 2.148538 1_555
O10 P10 1.542560 1_655
O10 Sn2 2.148538 1_555
O11 P11 1.542560 1_555
O11 Sn3 2.148538 1_555
O12 P4 1.542560 1_555
O12 Sn4 2.148538 1_555
O13 P5 1.542560 1_655
O13 Sn5 2.148538 1_555
O14 P6 1.542560 1_455
O14 Sn6 2.148538 1_555
O15 P7 1.542560 1_555
O15 Sn7 2.148538 1_555
O16 Sn8 2.098151 1_555
O16 Sn0 2.124362 1_565
O16 Sn16 2.162047 1_465
O17 Sn9 2.098151 1_555
O17 Sn1 2.124362 1_555
O17 Sn17 2.162047 1_555
O18 Sn10 2.098151 1_555
O18 Sn2 2.124362 1_545
O18 Sn18 2.162047 1_545
O19 Sn11 2.098151 1_555
O19 Sn3 2.124362 1_555
O19 Sn19 2.162047 1_655
O20 Sn12 2.098151 1_555
O20 Sn4 2.124362 1_545
O20 Sn20 2.162047 1_645
O21 Sn13 2.098151 1_555
O21 Sn5 2.124362 1_555
O21 Sn21 2.162047 1_555
O22 Sn14 2.098151 1_555
O22 Sn6 2.124362 1_565
O22 Sn22 2.162047 1_565
O23 Sn15 2.098151 1_555
O23 Sn7 2.124362 1_555
O23 Sn23 2.162047 1_455
O24 P8 1.559559 1_565
O24 Sn8 2.114157 1_555
O25 P9 1.559559 1_555
O25 Sn9 2.114157 1_655
O26 P10 1.559559 1_545
O26 Sn10 2.114157 1_455
O27 P11 1.559559 1_555
O27 Sn11 2.114157 1_555
O28 P4 1.559559 1_545
O28 Sn12 2.114157 1_555
O29 P5 1.559559 1_555
O29 Sn13 2.114157 1_455
O30 P6 1.559559 1_565
O30 Sn14 2.114157 1_655
O31 P7 1.559559 1_555
O31 Sn15 2.114157 1_555
O32 P0 1.563925 1_555
O32 Sn8 2.137979 1_555
O33 P1 1.563925 1_555
O33 Sn9 2.137979 1_555
O34 P1 1.563925 1_655
O34 Sn10 2.137979 1_555
O35 P0 1.563925 1_555
O35 Sn11 2.137979 1_555
O36 P2 1.563925 1_555
O36 Sn12 2.137979 1_555
O37 P3 1.563925 1_655
O37 Sn13 2.137979 1_555
O38 P3 1.563925 1_555
O38 Sn14 2.137979 1_555
O39 P2 1.563925 1_555
O39 Sn15 2.137979 1_555
O40 P1 1.553924 1_555
O40 Sn16 2.141238 1_455
O41 P0 1.553924 1_555
O41 Sn17 2.141238 1_555
O42 P0 1.553924 1_555
O42 Sn18 2.141238 1_555
O43 P1 1.553924 1_655
O43 Sn19 2.141238 1_655
O44 P3 1.553924 1_655
O44 Sn20 2.141238 1_655
O45 P2 1.553924 1_555
O45 Sn21 2.141238 1_555
O46 P2 1.553924 1_555
O46 Sn22 2.141238 1_555
O47 P3 1.553924 1_555
O47 Sn23 2.141238 1_455
O48 P8 1.539327 1_555
O48 Sn16 2.164765 1_555
O49 P9 1.539327 1_555
O49 Sn17 2.164765 1_555
O50 P10 1.539327 1_555
O50 Sn18 2.164765 1_555
O51 P11 1.539327 1_555
O51 Sn19 2.164765 1_555
O52 P4 1.539327 1_555
O52 Sn20 2.164765 1_555
O53 P5 1.539327 1_555
O53 Sn21 2.164765 1_555
O54 P6 1.539327 1_555
O54 Sn22 2.164765 1_555
O55 P7 1.539327 1_555
O55 Sn23 2.164765 1_555
