# generated using pymatgen
data_CsKMg6
_symmetry_space_group_name_H-M   'P 1'
_cell_length_a   5.08659200
_cell_length_b   6.83671200
_cell_length_c   8.79539403
_cell_angle_alpha   68.45718460
_cell_angle_beta   90.00000000
_cell_angle_gamma   90.00000000
_symmetry_Int_Tables_number   1
_chemical_formula_structural   CsKMg6
_chemical_formula_sum   'Cs1 K1 Mg6'
_cell_volume   284.49812865
_cell_formula_units_Z   1
loop_
 _symmetry_equiv_pos_site_id
 _symmetry_equiv_pos_as_xyz
  1  'x, y, z'
loop_
 _atom_site_type_symbol
 _atom_site_label
 _atom_site_symmetry_multiplicity
 _atom_site_fract_x
 _atom_site_fract_y
 _atom_site_fract_z
 _atom_site_occupancy
  Cs  Cs0  1  0.00000000  0.81294800  0.87414400  1
  K  K0  1  0.00000000  0.32297200  0.85388400  1
  Mg  Mg0  1  0.00000000  0.32731000  0.34156800  1
  Mg  Mg1  1  0.00000000  0.83140500  0.34255500  1
  Mg  Mg2  1  0.50000000  0.22039500  0.55790800  1
  Mg  Mg3  1  0.50000000  0.72285300  0.55640500  1
  Mg  Mg4  1  0.50000000  0.13543400  0.22837400  1
  Mg  Mg5  1  0.50000000  0.62668300  0.24516300  1
loop_
_geom_bond_atom_site_label_1
_geom_bond_atom_site_label_2
_geom_bond_distance
_geom_bond_site_symmetry_2
Cs0 K0 3.419277 1_555
Cs0 K0 3.425467 1_565
Cs0 Mg5 3.960687 1_556
Cs0 Mg5 3.960687 1_456
Cs0 Mg3 3.990229 1_555
Cs0 Mg3 3.990229 1_455
Cs0 Mg2 4.034129 1_465
Cs0 Mg2 4.034129 1_565
Cs0 Mg1 4.167847 1_556
Cs0 Mg0 4.230955 1_556
K0 Mg2 3.882997 1_555
K0 Mg2 3.882997 1_455
K0 Mg3 3.941454 1_455
K0 Mg3 3.941454 1_555
K0 Mg4 3.982444 1_456
K0 Mg4 3.982444 1_556
Mg0 Mg2 3.098684 1_555
Mg0 Mg2 3.098684 1_455
Mg0 Mg5 3.178349 1_455
Mg0 Mg5 3.178349 1_555
Mg0 Mg4 3.184257 1_555
Mg0 Mg4 3.184257 1_455
Mg0 Mg1 3.387182 1_545
Mg0 Mg1 3.449549 1_555
Mg1 Mg3 3.087355 1_455
Mg1 Mg3 3.087355 1_555
Mg1 Mg5 3.168840 1_555
Mg1 Mg5 3.168840 1_455
Mg1 Mg4 3.203798 1_465
Mg1 Mg4 3.203798 1_565
Mg2 Mg5 3.109777 1_555
Mg2 Mg4 3.158225 1_555
Mg2 Mg3 3.406428 1_545
Mg2 Mg3 3.430329 1_555
Mg3 Mg5 3.041050 1_555
Mg3 Mg4 3.209966 1_565
Mg4 Mg5 3.415513 1_555
Mg4 Mg5 3.426715 1_545
