# generated using pymatgen
data_SmCuSe2
_symmetry_space_group_name_H-M   'P 1'
_cell_length_a   6.66766568
_cell_length_b   7.13884582
_cell_length_c   7.40808229
_cell_angle_alpha   90.00000000
_cell_angle_beta   90.00000000
_cell_angle_gamma   96.46323575
_symmetry_Int_Tables_number   1
_chemical_formula_structural   SmCuSe2
_chemical_formula_sum   'Sm4 Cu4 Se8'
_cell_volume   350.37939395
_cell_formula_units_Z   4
loop_
 _symmetry_equiv_pos_site_id
 _symmetry_equiv_pos_as_xyz
  1  'x, y, z'
loop_
 _atom_site_type_symbol
 _atom_site_label
 _atom_site_symmetry_multiplicity
 _atom_site_fract_x
 _atom_site_fract_y
 _atom_site_fract_z
 _atom_site_occupancy
  Sm  Sm0  1  0.69310542  0.29937605  0.54536672  1
  Sm  Sm1  1  0.30689458  0.20062395  0.04536672  1
  Sm  Sm2  1  0.30689458  0.70062395  0.45463328  1
  Sm  Sm3  1  0.69310542  0.79937605  0.95463328  1
  Cu  Cu0  1  0.06855134  0.54563062  0.84038804  1
  Cu  Cu1  1  0.93144866  0.45436938  0.15961196  1
  Cu  Cu2  1  0.06855134  0.04563062  0.65961196  1
  Cu  Cu3  1  0.93144866  0.95436938  0.34038804  1
  Se  Se0  1  0.41976578  0.00222785  0.72430748  1
  Se  Se1  1  0.41976578  0.50222785  0.77569252  1
  Se  Se2  1  0.58023422  0.49777215  0.22430748  1
  Se  Se3  1  0.58023422  0.99777215  0.27569252  1
  Se  Se4  1  0.90314520  0.72107634  0.61192751  1
  Se  Se5  1  0.09685480  0.77892366  0.11192751  1
  Se  Se6  1  0.09685480  0.27892366  0.38807249  1
  Se  Se7  1  0.90314520  0.22107634  0.88807249  1
loop_
_geom_bond_atom_site_label_1
_geom_bond_atom_site_label_2
_geom_bond_distance
_geom_bond_site_symmetry_2
Cu0 Se4 2.441396 1_455
Cu0 Se1 2.443971 1_555
Cu0 Se7 2.476704 1_455
Cu0 Se5 2.604810 1_556
Cu1 Se6 2.441396 1_655
Cu1 Se2 2.443971 1_555
Cu1 Se5 2.476704 1_655
Cu1 Se7 2.604810 1_554
Cu2 Se7 2.441396 1_455
Cu2 Se0 2.443971 1_555
Cu2 Se4 2.476704 1_445
Cu2 Se6 2.604810 1_555
Cu3 Se5 2.441396 1_655
Cu3 Se3 2.443971 1_555
Cu3 Se6 2.476704 1_665
Cu3 Se4 2.604810 1_555
Se0 Sm1 2.910199 1_556
Se0 Sm0 2.950997 1_555
Se0 Sm2 2.971283 1_545
Se0 Sm3 2.987351 1_545
Se1 Sm2 2.910199 1_555
Se1 Sm3 2.950997 1_555
Se1 Sm1 2.971283 1_556
Se1 Sm0 2.987351 1_555
Se2 Sm0 2.910199 1_555
Se2 Sm1 2.950997 1_555
Se2 Sm3 2.971283 1_554
Se2 Sm2 2.987351 1_555
Se3 Sm3 2.910199 1_554
Se3 Sm2 2.950997 1_555
Se3 Sm0 2.971283 1_565
Se3 Sm1 2.987351 1_565
Se4 Sm2 2.952089 1_655
Se4 Sm3 2.982530 1_555
Se4 Sm0 3.212184 1_555
Se5 Sm3 2.952089 1_454
Se5 Sm2 2.982530 1_555
Se5 Sm1 3.212184 1_565
Se6 Sm0 2.952089 1_455
Se6 Sm1 2.982530 1_555
Se6 Sm2 3.212184 1_555
Se7 Sm1 2.952089 1_656
Se7 Sm0 2.982530 1_555
Se7 Sm3 3.212184 1_545
