# generated using pymatgen
data_SrMg30ZnO32
_symmetry_space_group_name_H-M   'P 1'
_cell_length_a   8.60390100
_cell_length_b   8.60390100
_cell_length_c   8.60695900
_cell_angle_alpha   90.00000000
_cell_angle_beta   90.00000000
_cell_angle_gamma   90.00000000
_symmetry_Int_Tables_number   1
_chemical_formula_structural   SrMg30ZnO32
_chemical_formula_sum   'Sr1 Mg30 Zn1 O32'
_cell_volume   637.14832147
_cell_formula_units_Z   1
loop_
 _symmetry_equiv_pos_site_id
 _symmetry_equiv_pos_as_xyz
  1  'x, y, z'
loop_
 _atom_site_type_symbol
 _atom_site_label
 _atom_site_symmetry_multiplicity
 _atom_site_fract_x
 _atom_site_fract_y
 _atom_site_fract_z
 _atom_site_occupancy
  Sr  Sr0  1  0.50000000  0.50000000  0.00000000  1
  Mg  Mg0  1  0.00000000  0.50000000  0.00000000  1
  Mg  Mg1  1  0.50000000  0.00000000  0.00000000  1
  Mg  Mg2  1  0.00000000  0.00000000  0.50000000  1
  Mg  Mg3  1  0.00000000  0.50000000  0.50000000  1
  Mg  Mg4  1  0.50000000  0.00000000  0.50000000  1
  Mg  Mg5  1  0.50000000  0.50000000  0.50000000  1
  Mg  Mg6  1  0.24512600  0.24512600  0.00000000  1
  Mg  Mg7  1  0.24512600  0.75487400  0.00000000  1
  Mg  Mg8  1  0.75487400  0.24512600  0.00000000  1
  Mg  Mg9  1  0.75487400  0.75487400  0.00000000  1
  Mg  Mg10  1  0.24971200  0.24971200  0.50000000  1
  Mg  Mg11  1  0.24971200  0.75028800  0.50000000  1
  Mg  Mg12  1  0.75028800  0.24971200  0.50000000  1
  Mg  Mg13  1  0.75028800  0.75028800  0.50000000  1
  Mg  Mg14  1  0.00000000  0.24971100  0.25019400  1
  Mg  Mg15  1  0.00000000  0.75028900  0.25019400  1
  Mg  Mg16  1  0.50000000  0.24510000  0.25474400  1
  Mg  Mg17  1  0.50000000  0.75490000  0.25474400  1
  Mg  Mg18  1  0.00000000  0.24971100  0.74980600  1
  Mg  Mg19  1  0.00000000  0.75028900  0.74980600  1
  Mg  Mg20  1  0.50000000  0.24510000  0.74525600  1
  Mg  Mg21  1  0.50000000  0.75490000  0.74525600  1
  Mg  Mg22  1  0.24971100  0.00000000  0.25019400  1
  Mg  Mg23  1  0.24510000  0.50000000  0.25474400  1
  Mg  Mg24  1  0.75028900  0.00000000  0.25019400  1
  Mg  Mg25  1  0.75490000  0.50000000  0.25474400  1
  Mg  Mg26  1  0.24971100  0.00000000  0.74980600  1
  Mg  Mg27  1  0.24510000  0.50000000  0.74525600  1
  Mg  Mg28  1  0.75028900  0.00000000  0.74980600  1
  Mg  Mg29  1  0.75490000  0.50000000  0.74525600  1
  Zn  Zn0  1  0.00000000  0.00000000  0.00000000  1
  O  O0  1  0.00000000  0.00000000  0.25415800  1
  O  O1  1  0.00000000  0.50000000  0.25360900  1
  O  O2  1  0.50000000  0.00000000  0.25360900  1
  O  O3  1  0.50000000  0.50000000  0.27022400  1
  O  O4  1  0.00000000  0.00000000  0.74584200  1
  O  O5  1  0.00000000  0.50000000  0.74639100  1
  O  O6  1  0.50000000  0.00000000  0.74639100  1
  O  O7  1  0.50000000  0.50000000  0.72977600  1
  O  O8  1  0.25020700  0.25020700  0.24932100  1
  O  O9  1  0.25020700  0.74979300  0.24932100  1
  O  O10  1  0.74979300  0.25020700  0.24932100  1
  O  O11  1  0.74979300  0.74979300  0.24932100  1
  O  O12  1  0.25020700  0.25020700  0.75067900  1
  O  O13  1  0.25020700  0.74979300  0.75067900  1
  O  O14  1  0.74979300  0.25020700  0.75067900  1
  O  O15  1  0.74979300  0.74979300  0.75067900  1
  O  O16  1  0.00000000  0.24976700  0.00000000  1
  O  O17  1  0.00000000  0.75023300  0.00000000  1
  O  O18  1  0.50000000  0.22990200  0.00000000  1
  O  O19  1  0.50000000  0.77009800  0.00000000  1
  O  O20  1  0.00000000  0.24955700  0.50000000  1
  O  O21  1  0.00000000  0.75044300  0.50000000  1
  O  O22  1  0.50000000  0.24655100  0.50000000  1
  O  O23  1  0.50000000  0.75344900  0.50000000  1
  O  O24  1  0.24976700  0.00000000  0.00000000  1
  O  O25  1  0.22990200  0.50000000  0.00000000  1
  O  O26  1  0.75023300  0.00000000  0.00000000  1
  O  O27  1  0.77009800  0.50000000  0.00000000  1
  O  O28  1  0.24955700  0.00000000  0.50000000  1
  O  O29  1  0.24655100  0.50000000  0.50000000  1
  O  O30  1  0.75044300  0.00000000  0.50000000  1
  O  O31  1  0.75344900  0.50000000  0.50000000  1
loop_
_geom_bond_atom_site_label_1
_geom_bond_atom_site_label_2
_geom_bond_distance
_geom_bond_site_symmetry_2
Mg0 O25 1.978054 1_555
Mg0 O27 1.978054 1_455
Mg0 O17 2.152980 1_555
Mg0 O16 2.152980 1_555
Mg0 O1 2.182802 1_555
Mg0 O5 2.182802 1_554
Mg1 O18 1.978054 1_555
Mg1 O19 1.978054 1_545
Mg1 O24 2.152980 1_555
Mg1 O26 2.152980 1_555
Mg1 O6 2.182802 1_554
Mg1 O2 2.182802 1_555
Mg2 O0 2.115952 1_555
Mg2 O4 2.115952 1_555
Mg2 O28 2.147164 1_555
Mg2 O30 2.147164 1_455
Mg2 O21 2.147164 1_545
Mg2 O20 2.147164 1_555
Mg3 O1 2.120677 1_555
Mg3 O5 2.120677 1_555
Mg3 O31 2.121300 1_455
Mg3 O29 2.121300 1_555
Mg3 O21 2.154787 1_555
Mg3 O20 2.154787 1_555
Mg4 O6 2.120677 1_555
Mg4 O2 2.120677 1_555
Mg4 O23 2.121300 1_545
Mg4 O22 2.121300 1_555
Mg4 O30 2.154787 1_555
Mg4 O28 2.154787 1_555
Mg5 O3 1.977673 1_555
Mg5 O7 1.977673 1_555
Mg5 O29 2.180650 1_555
Mg5 O31 2.180650 1_555
Mg5 O22 2.180650 1_555
Mg5 O23 2.180650 1_555
Mg6 O24 2.109418 1_555
Mg6 O16 2.109418 1_555
Mg6 O12 2.146786 1_554
Mg6 O8 2.146786 1_555
Mg6 O25 2.196819 1_555
Mg6 O18 2.196819 1_555
Mg7 O24 2.109418 1_565
Mg7 O17 2.109418 1_555
Mg7 O9 2.146786 1_555
Mg7 O13 2.146786 1_554
Mg7 O19 2.196819 1_555
Mg7 O25 2.196819 1_555
Mg8 O16 2.109418 1_655
Mg8 O26 2.109418 1_555
Mg8 O10 2.146786 1_555
Mg8 O14 2.146786 1_554
Mg8 O27 2.196819 1_555
Mg8 O18 2.196819 1_555
Mg9 O26 2.109418 1_565
Mg9 O17 2.109418 1_655
Mg9 O15 2.146786 1_554
Mg9 O11 2.146786 1_555
Mg9 O27 2.196819 1_555
Mg9 O19 2.196819 1_555
Mg10 O20 2.148498 1_555
Mg10 O28 2.148498 1_555
Mg10 O29 2.153625 1_555
Mg10 O22 2.153625 1_555
Mg10 O12 2.157592 1_555
Mg10 O8 2.157592 1_555
Mg11 O21 2.148498 1_555
Mg11 O28 2.148498 1_565
Mg11 O29 2.153625 1_555
Mg11 O23 2.153625 1_555
Mg11 O9 2.157592 1_555
Mg11 O13 2.157592 1_555
Mg12 O30 2.148498 1_555
Mg12 O20 2.148498 1_655
Mg12 O22 2.153625 1_555
Mg12 O31 2.153625 1_555
Mg12 O14 2.157592 1_555
Mg12 O10 2.157592 1_555
Mg13 O21 2.148498 1_655
Mg13 O30 2.148498 1_565
Mg13 O23 2.153625 1_555
Mg13 O31 2.153625 1_555
Mg13 O11 2.157592 1_555
Mg13 O15 2.157592 1_555
Mg14 O0 2.148760 1_555
Mg14 O20 2.150070 1_555
Mg14 O10 2.152774 1_455
Mg14 O8 2.152774 1_555
Mg14 O16 2.153410 1_555
Mg14 O1 2.153662 1_555
Mg15 O0 2.148760 1_565
Mg15 O21 2.150070 1_555
Mg15 O11 2.152774 1_455
Mg15 O9 2.152774 1_555
Mg15 O17 2.153410 1_555
Mg15 O1 2.153662 1_555
Mg16 O2 2.108839 1_555
Mg16 O22 2.110945 1_555
Mg16 O8 2.150150 1_555
Mg16 O10 2.150150 1_555
Mg16 O18 2.196467 1_555
Mg16 O3 2.197178 1_555
Mg17 O2 2.108839 1_565
Mg17 O23 2.110945 1_555
Mg17 O9 2.150150 1_555
Mg17 O11 2.150150 1_555
Mg17 O19 2.196467 1_555
Mg17 O3 2.197178 1_555
Mg18 O4 2.148760 1_555
Mg18 O20 2.150070 1_555
Mg18 O14 2.152774 1_455
Mg18 O12 2.152774 1_555
Mg18 O16 2.153410 1_556
Mg18 O5 2.153662 1_555
Mg19 O4 2.148760 1_565
Mg19 O21 2.150070 1_555
Mg19 O15 2.152774 1_455
Mg19 O13 2.152774 1_555
Mg19 O17 2.153410 1_556
Mg19 O5 2.153662 1_555
Mg20 O6 2.108839 1_555
Mg20 O22 2.110945 1_555
Mg20 O12 2.150150 1_555
Mg20 O14 2.150150 1_555
Mg20 O18 2.196467 1_556
Mg20 O7 2.197178 1_555
Mg21 O6 2.108839 1_565
Mg21 O23 2.110945 1_555
Mg21 O13 2.150150 1_555
Mg21 O15 2.150150 1_555
Mg21 O19 2.196467 1_556
Mg21 O7 2.197178 1_555
Mg22 O0 2.148760 1_555
Mg22 O28 2.150070 1_555
Mg22 O9 2.152774 1_545
Mg22 O8 2.152774 1_555
Mg22 O24 2.153410 1_555
Mg22 O2 2.153662 1_555
Mg23 O1 2.108839 1_555
Mg23 O29 2.110945 1_555
Mg23 O8 2.150150 1_555
Mg23 O9 2.150150 1_555
Mg23 O25 2.196467 1_555
Mg23 O3 2.197178 1_555
Mg24 O0 2.148760 1_655
Mg24 O30 2.150070 1_555
Mg24 O11 2.152774 1_545
Mg24 O10 2.152774 1_555
Mg24 O26 2.153410 1_555
Mg24 O2 2.153662 1_555
Mg25 O1 2.108839 1_655
Mg25 O31 2.110945 1_555
Mg25 O10 2.150150 1_555
Mg25 O11 2.150150 1_555
Mg25 O27 2.196467 1_555
Mg25 O3 2.197178 1_555
Mg26 O4 2.148760 1_555
Mg26 O28 2.150070 1_555
Mg26 O13 2.152774 1_545
Mg26 O12 2.152774 1_555
Mg26 O24 2.153410 1_556
Mg26 O6 2.153662 1_555
Mg27 O5 2.108839 1_555
Mg27 O29 2.110945 1_555
Mg27 O12 2.150150 1_555
Mg27 O13 2.150150 1_555
Mg27 O25 2.196467 1_556
Mg27 O7 2.197178 1_555
Mg28 O4 2.148760 1_655
Mg28 O30 2.150070 1_555
Mg28 O15 2.152774 1_545
Mg28 O14 2.152774 1_555
Mg28 O26 2.153410 1_556
Mg28 O6 2.153662 1_555
Mg29 O5 2.108839 1_655
Mg29 O31 2.110945 1_555
Mg29 O14 2.150150 1_555
Mg29 O15 2.150150 1_555
Mg29 O27 2.196467 1_556
Mg29 O7 2.197178 1_555
O0 Zn0 2.187527 1_555
O3 Sr0 2.325807 1_555
O4 Zn0 2.187527 1_556
O7 Sr0 2.325807 1_556
O16 Zn0 2.148971 1_555
O17 Zn0 2.148971 1_565
O18 Sr0 2.323896 1_555
O19 Sr0 2.323896 1_555
O24 Zn0 2.148971 1_555
O25 Sr0 2.323896 1_555
O26 Zn0 2.148971 1_655
O27 Sr0 2.323896 1_555
