# generated using pymatgen
data_BaLa2(CoO3)3
_symmetry_space_group_name_H-M   'P 1'
_cell_length_a   5.55246328
_cell_length_b   5.55398060
_cell_length_c   13.47942647
_cell_angle_alpha   90.04629861
_cell_angle_beta   90.21740292
_cell_angle_gamma   60.10765843
_symmetry_Int_Tables_number   1
_chemical_formula_structural   BaLa2(CoO3)3
_chemical_formula_sum   'Ba2 La4 Co6 O18'
_cell_volume   360.37839899
_cell_formula_units_Z   2
loop_
 _symmetry_equiv_pos_site_id
 _symmetry_equiv_pos_as_xyz
  1  'x, y, z'
loop_
 _atom_site_type_symbol
 _atom_site_label
 _atom_site_symmetry_multiplicity
 _atom_site_fract_x
 _atom_site_fract_y
 _atom_site_fract_z
 _atom_site_occupancy
  Ba  Ba0  1  0.99878900  0.00114300  0.00091600  1
  Ba  Ba1  1  0.00092400  0.99854000  0.49977900  1
  La  La0  1  0.33002200  0.33355100  0.16864400  1
  La  La1  1  0.32910000  0.34494700  0.67259200  1
  La  La2  1  0.66765900  0.66581800  0.32800200  1
  La  La3  1  0.66710800  0.67732100  0.83178800  1
  Co  Co0  1  0.33386300  0.33251300  0.41642500  1
  Co  Co1  1  0.33340200  0.33814000  0.91844500  1
  Co  Co2  1  0.66595200  0.66624300  0.08357200  1
  Co  Co3  1  0.66433100  0.67148000  0.58358900  1
  Co  Co4  1  0.99881100  0.00421200  0.75047500  1
  Co  Co5  1  0.00061200  0.99818600  0.24895300  1
  O  O0  1  0.49577100  0.49676400  0.00080300  1
  O  O1  1  0.49563800  0.49045600  0.49763100  1
  O  O2  1  0.50334000  0.98990000  0.00142700  1
  O  O3  1  0.51166000  0.97654700  0.49826600  1
  O  O4  1  0.99456600  0.50172600  0.00313200  1
  O  O5  1  0.01608300  0.48959900  0.49678400  1
  O  O6  1  0.82717200  0.82324100  0.17302800  1
  O  O7  1  0.82971700  0.82706300  0.67306300  1
  O  O8  1  0.17729100  0.17186900  0.32712400  1
  O  O9  1  0.17484500  0.18096000  0.82917500  1
  O  O10  1  0.16940000  0.65946400  0.32476400  1
  O  O11  1  0.16944100  0.65848200  0.82768700  1
  O  O12  1  0.82807400  0.34396500  0.17416100  1
  O  O13  1  0.82257600  0.35667000  0.66969300  1
  O  O14  1  0.64998800  0.17192900  0.32767800  1
  O  O15  1  0.65351700  0.17448000  0.82570000  1
  O  O16  1  0.34827800  0.82367400  0.17201200  1
  O  O17  1  0.34206900  0.83111900  0.67469600  1
loop_
_geom_bond_atom_site_label_1
_geom_bond_atom_site_label_2
_geom_bond_distance
_geom_bond_site_symmetry_2
Ba0 O4 2.768755 1_555
Ba0 O2 2.770892 1_645
Ba0 O0 2.777555 1_555
Ba0 O2 2.782644 1_545
Ba0 O0 2.785156 1_645
Ba0 O4 2.785698 1_545
Ba0 O16 2.849441 1_645
Ba0 O11 2.860819 1_644
Ba0 O12 2.861443 1_555
Ba0 O6 2.868011 1_545
Ba0 O9 2.882028 1_654
Ba0 O15 2.882703 1_554
Ba1 O5 2.770572 1_565
Ba1 O1 2.774134 1_465
Ba1 O3 2.777141 1_555
Ba1 O3 2.779512 1_455
Ba1 O5 2.785921 1_555
Ba1 O1 2.789905 1_555
Ba1 O7 2.861708 1_455
Ba1 O14 2.864399 1_465
Ba1 O17 2.868065 1_555
Ba1 O13 2.868656 1_465
Ba1 O10 2.870644 1_555
Ba1 O8 2.874463 1_565
La0 O8 2.620085 1_555
La0 O10 2.626678 1_555
La0 O14 2.634789 1_555
La0 O4 2.748977 1_455
La0 O12 2.759964 1_455
La0 O6 2.761898 1_455
La0 O0 2.763656 1_555
La0 O16 2.774373 1_555
La0 O16 2.783118 1_545
La0 O12 2.795400 1_555
La0 O2 2.797888 1_545
La0 O6 2.803060 1_545
La1 O11 2.580368 1_555
La1 O15 2.583694 1_555
La1 O9 2.610040 1_555
La1 O7 2.730937 1_455
La1 O17 2.736911 1_555
La1 O13 2.773453 1_555
La1 O13 2.780706 1_455
La1 O1 2.799035 1_555
La1 O5 2.803945 1_555
La1 O17 2.818758 1_545
La1 O7 2.833812 1_545
La1 O3 2.945951 1_545
La2 O6 2.588725 1_555
La2 O12 2.590356 1_555
La2 O16 2.599920 1_555
La2 O3 2.741280 1_555
La2 O14 2.763348 1_565
La2 O10 2.768990 1_655
La2 O8 2.772209 1_565
La2 O10 2.784498 1_555
La2 O8 2.792143 1_655
La2 O14 2.793244 1_555
La2 O5 2.821266 1_655
La2 O1 2.834852 1_555
La3 O7 2.617326 1_555
La3 O17 2.628308 1_555
La3 O13 2.677021 1_555
La3 O15 2.725682 1_565
La3 O11 2.739313 1_655
La3 O2 2.739587 1_556
La3 O9 2.770409 1_565
La3 O4 2.792068 1_556
La3 O9 2.793372 1_655
La3 O11 2.817219 1_555
La3 O15 2.832249 1_555
La3 O0 2.841134 1_556
Co0 O5 1.877868 1_555
Co0 O1 1.884384 1_555
Co0 O14 1.939402 1_555
Co0 O8 1.940165 1_555
Co0 O10 2.000027 1_555
Co0 O3 2.037175 1_545
Co1 O0 1.898379 1_556
Co1 O9 1.934275 1_555
Co1 O11 1.967610 1_555
Co1 O15 1.988217 1_555
Co1 O4 1.994741 1_456
Co1 O2 2.014633 1_546
Co2 O2 1.910617 1_555
Co2 O4 1.921312 1_555
Co2 O16 1.942663 1_555
Co2 O6 1.945189 1_555
Co2 O12 1.973422 1_555
Co2 O0 1.974963 1_555
Co3 O3 1.864471 1_555
Co3 O13 1.907992 1_555
Co3 O7 1.955853 1_555
Co3 O17 1.982329 1_555
Co3 O1 2.039415 1_555
Co3 O5 2.062280 1_655
Co4 O17 1.946026 1_645
Co4 O15 1.950458 1_555
Co4 O7 1.962146 1_545
Co4 O11 1.962232 1_645
Co4 O9 1.997793 1_655
Co4 O13 2.015261 1_555
Co5 O10 1.923588 1_555
Co5 O12 1.945319 1_465
Co5 O6 1.960221 1_455
Co5 O16 1.972343 1_555
Co5 O8 1.984164 1_565
Co5 O14 1.997221 1_465
