# generated using pymatgen
data_Ta(Cu3O4)2
_symmetry_space_group_name_H-M   'P 1'
_cell_length_a   6.53116633
_cell_length_b   6.53116633
_cell_length_c   6.53116633
_cell_angle_alpha   60.00000000
_cell_angle_beta   60.00000000
_cell_angle_gamma   60.00000000
_symmetry_Int_Tables_number   1
_chemical_formula_structural   Ta(Cu3O4)2
_chemical_formula_sum   'Ta1 Cu6 O8'
_cell_volume   196.99592124
_cell_formula_units_Z   1
loop_
 _symmetry_equiv_pos_site_id
 _symmetry_equiv_pos_as_xyz
  1  'x, y, z'
loop_
 _atom_site_type_symbol
 _atom_site_label
 _atom_site_symmetry_multiplicity
 _atom_site_fract_x
 _atom_site_fract_y
 _atom_site_fract_z
 _atom_site_occupancy
  Ta  Ta0  1  0.00000000  0.00000000  0.00000000  1
  Cu  Cu0  1  0.00000000  0.00000000  0.50000000  1
  Cu  Cu1  1  0.50000000  0.00000000  0.00000000  1
  Cu  Cu2  1  0.00000000  0.50000000  0.00000000  1
  Cu  Cu3  1  0.50000000  0.50000000  0.00000000  1
  Cu  Cu4  1  0.00000000  0.50000000  0.50000000  1
  Cu  Cu5  1  0.50000000  0.00000000  0.50000000  1
  O  O0  1  0.13442400  0.13442400  0.59672800  1
  O  O1  1  0.13442400  0.59672800  0.13442400  1
  O  O2  1  0.59672800  0.13442400  0.13442400  1
  O  O3  1  0.86557600  0.40327200  0.86557600  1
  O  O4  1  0.13442400  0.13442400  0.13442400  1
  O  O5  1  0.86557600  0.86557600  0.86557600  1
  O  O6  1  0.86557600  0.86557600  0.40327200  1
  O  O7  1  0.40327200  0.86557600  0.86557600  1
loop_
_geom_bond_atom_site_label_1
_geom_bond_atom_site_label_2
_geom_bond_distance
_geom_bond_site_symmetry_2
Cu0 O6 1.954673 1_445
Cu0 O5 1.954673 1_445
Cu0 O0 1.954673 1_555
Cu0 O4 1.954673 1_555
Cu1 O7 1.954673 1_544
Cu1 O2 1.954673 1_555
Cu1 O5 1.954673 1_544
Cu1 O4 1.954673 1_555
Cu2 O3 1.954673 1_454
Cu2 O1 1.954673 1_555
Cu2 O5 1.954673 1_454
Cu2 O4 1.954673 1_555
Cu3 O7 1.954673 1_554
Cu3 O2 1.954673 1_555
Cu3 O1 1.954673 1_555
Cu3 O3 1.954673 1_554
Cu4 O3 1.954673 1_455
Cu4 O0 1.954673 1_555
Cu4 O1 1.954673 1_555
Cu4 O6 1.954673 1_455
Cu5 O2 1.954673 1_555
Cu5 O7 1.954673 1_545
Cu5 O6 1.954673 1_545
Cu5 O0 1.954673 1_555
O0 Ta0 2.150519 1_556
O1 Ta0 2.150519 1_565
O2 Ta0 2.150519 1_655
O3 Ta0 2.150519 1_656
O4 Ta0 2.150519 1_555
O5 Ta0 2.150519 1_666
O6 Ta0 2.150519 1_665
O7 Ta0 2.150519 1_566
