# generated using pymatgen
data_Li4Co5SnO12
_symmetry_space_group_name_H-M   'P 1'
_cell_length_a   5.08058461
_cell_length_b   5.05819887
_cell_length_c   19.79180798
_cell_angle_alpha   92.43068130
_cell_angle_beta   85.09724778
_cell_angle_gamma   120.11001579
_symmetry_Int_Tables_number   1
_chemical_formula_structural   Li4Co5SnO12
_chemical_formula_sum   'Li8 Co10 Sn2 O24'
_cell_volume   438.38046069
_cell_formula_units_Z   2
loop_
 _symmetry_equiv_pos_site_id
 _symmetry_equiv_pos_as_xyz
  1  'x, y, z'
loop_
 _atom_site_type_symbol
 _atom_site_label
 _atom_site_symmetry_multiplicity
 _atom_site_fract_x
 _atom_site_fract_y
 _atom_site_fract_z
 _atom_site_occupancy
  Li  Li0  1  0.21053700  0.33040500  0.37300700  1
  Li  Li1  1  0.71401300  0.33900800  0.87224600  1
  Li  Li2  1  0.61971100  0.33005800  0.12698800  1
  Li  Li3  1  0.12521200  0.33908000  0.62777000  1
  Li  Li4  1  0.87994400  0.66975200  0.37297400  1
  Li  Li5  1  0.36957800  0.66270600  0.87246100  1
  Li  Li6  1  0.29010900  0.66983500  0.12703800  1
  Li  Li7  1  0.79297600  0.66253800  0.62750400  1
  Co  Co0  1  0.75162200  0.00307300  0.74998500  1
  Co  Co1  1  0.08061600  0.66103300  0.74999300  1
  Co  Co2  1  0.41299800  0.32617400  0.74999500  1
  Co  Co3  1  0.66656100  0.33331200  0.99980800  1
  Co  Co4  1  0.16674100  0.33333300  0.50019400  1
  Co  Co5  1  0.25011300  0.00006400  0.24999200  1
  Co  Co6  1  0.58461800  0.67001700  0.25000100  1
  Co  Co7  1  0.91466500  0.32969700  0.25007200  1
  Co  Co8  1  0.83357400  0.66700400  0.50010700  1
  Co  Co9  1  0.33344000  0.66697800  0.99989200  1
  Sn  Sn0  1  0.99968400  0.00034500  0.00017500  1
  Sn  Sn1  1  0.50067600  0.00041800  0.49982000  1
  O  O0  1  0.92113400  0.00052500  0.30184000  1
  O  O1  1  0.40783000  0.99585700  0.79840300  1
  O  O2  1  0.57817600  0.99948200  0.19803200  1
  O  O3  1  0.08816000  0.99598400  0.70155300  1
  O  O4  1  0.33877300  0.00013100  0.05332800  1
  O  O5  1  0.83784500  0.99971100  0.55392600  1
  O  O6  1  0.16145200  0.00034200  0.44666300  1
  O  O7  1  0.66183900  0.99972900  0.94606800  1
  O  O8  1  0.62459100  0.64322100  0.05370500  1
  O  O9  1  0.12613500  0.64491800  0.55348300  1
  O  O10  1  0.51873400  0.64339900  0.44627800  1
  O  O11  1  0.01880600  0.64495700  0.94652100  1
  O  O12  1  0.98107400  0.35653700  0.05373400  1
  O  O13  1  0.48171200  0.35614400  0.55390400  1
  O  O14  1  0.87555000  0.35668900  0.44625900  1
  O  O15  1  0.37449500  0.35621900  0.94609400  1
  O  O16  1  0.28109700  0.32417600  0.19745800  1
  O  O17  1  0.80555100  0.36104400  0.69475900  1
  O  O18  1  0.95660200  0.67506000  0.19762600  1
  O  O19  1  0.41727600  0.64444900  0.69994800  1
  O  O20  1  0.54305800  0.32398400  0.30252900  1
  O  O21  1  0.05587700  0.36139900  0.80534800  1
  O  O22  1  0.21967800  0.67642400  0.30256400  1
  O  O23  1  0.72716700  0.64478900  0.79995100  1
loop_
_geom_bond_atom_site_label_1
_geom_bond_atom_site_label_2
_geom_bond_distance
_geom_bond_site_symmetry_2
Li0 O20 2.109325 1_555
Li0 O0 2.150148 1_455
Li0 O6 2.168227 1_555
Li0 O10 2.183442 1_555
Li0 O14 2.192041 1_455
Li0 O22 2.263539 1_555
Li1 O21 2.050579 1_655
Li1 O23 2.124086 1_555
Li1 O11 2.178441 1_655
Li1 O15 2.197316 1_555
Li1 O7 2.200044 1_545
Li1 O1 2.243419 1_545
Li2 O16 2.108984 1_555
Li2 O2 2.147623 1_545
Li2 O4 2.169578 1_555
Li2 O8 2.182383 1_555
Li2 O12 2.192117 1_555
Li2 O18 2.265993 1_555
Li3 O17 2.051401 1_455
Li3 O19 2.122247 1_555
Li3 O9 2.177010 1_555
Li3 O13 2.196933 1_555
Li3 O5 2.202648 1_445
Li3 O3 2.240510 1_545
Li4 O22 2.111099 1_655
Li4 O0 2.150198 1_565
Li4 O6 2.172310 1_665
Li4 O14 2.183044 1_555
Li4 O10 2.192332 1_555
Li4 O20 2.264925 1_555
Li5 O21 2.092921 1_555
Li5 O11 2.176392 1_555
Li5 O15 2.182772 1_555
Li5 O7 2.202866 1_555
Li5 O1 2.204112 1_555
Li5 O23 2.253191 1_555
Li6 O18 2.112034 1_455
Li6 O2 2.144967 1_555
Li6 O4 2.170547 1_565
Li6 O12 2.186162 1_455
Li6 O8 2.191773 1_555
Li6 O16 2.262083 1_555
Li7 O17 2.094291 1_555
Li7 O9 2.176157 1_655
Li7 O13 2.183549 1_555
Li7 O5 2.201168 1_555
Li7 O3 2.206783 1_655
Li7 O19 2.252925 1_555
Co0 O3 1.903160 1_645
Co0 O1 1.903515 1_545
Co0 O17 2.041392 1_555
Co0 O23 2.045195 1_545
Co0 O21 2.045784 1_655
Co0 O19 2.049473 1_545
Co1 O21 1.854543 1_555
Co1 O17 1.855630 1_455
Co1 O19 1.939327 1_555
Co1 O23 1.940205 1_455
Co1 O3 1.964033 1_555
Co1 O1 1.964624 1_555
Co2 O19 1.915685 1_555
Co2 O23 1.917356 1_555
Co2 O1 1.948763 1_545
Co2 O3 1.949735 1_545
Co2 O21 2.119426 1_555
Co2 O17 2.120047 1_555
Co3 O4 1.941547 1_556
Co3 O11 1.946241 1_655
Co3 O7 1.946907 1_545
Co3 O8 1.948159 1_556
Co3 O15 1.948859 1_555
Co3 O12 1.949042 1_556
Co4 O6 1.941207 1_555
Co4 O9 1.946002 1_555
Co4 O5 1.946828 1_445
Co4 O14 1.948879 1_455
Co4 O10 1.948921 1_555
Co4 O13 1.949150 1_555
Co5 O2 1.883434 1_545
Co5 O0 1.886043 1_455
Co5 O22 1.910348 1_545
Co5 O16 1.910819 1_555
Co5 O20 1.911596 1_555
Co5 O18 1.913228 1_445
Co6 O16 1.983133 1_555
Co6 O20 1.983680 1_555
Co6 O2 2.010497 1_555
Co6 O0 2.014240 1_565
Co6 O22 2.061251 1_555
Co6 O18 2.065406 1_555
Co7 O18 1.979170 1_555
Co7 O22 1.987565 1_655
Co7 O0 2.007111 1_555
Co7 O2 2.015787 1_545
Co7 O20 2.062999 1_555
Co7 O16 2.066241 1_655
Co8 O6 1.941319 1_665
Co8 O5 1.944859 1_555
Co8 O9 1.944947 1_655
Co8 O10 1.948533 1_555
Co8 O13 1.948907 1_555
Co8 O14 1.949403 1_555
Co9 O4 1.940851 1_566
Co9 O7 1.944784 1_555
Co9 O11 1.945115 1_555
Co9 O8 1.948169 1_556
Co9 O15 1.948605 1_555
Co9 O12 1.949768 1_456
O4 Sn0 2.094369 1_455
O5 Sn1 2.097901 1_565
O6 Sn1 2.094371 1_555
O7 Sn0 2.097980 1_566
O8 Sn0 2.092973 1_565
O9 Sn1 2.089476 1_565
O10 Sn1 2.092806 1_565
O11 Sn0 2.089069 1_466
O12 Sn0 2.090569 1_555
O13 Sn1 2.094188 1_555
O14 Sn1 2.090932 1_555
O15 Sn0 2.094752 1_456
