# generated using pymatgen
data_Zr3(VNi2)2
_symmetry_space_group_name_H-M   'P 1'
_cell_length_a   4.93029200
_cell_length_b   5.01191889
_cell_length_c   12.45478007
_cell_angle_alpha   89.35364855
_cell_angle_beta   88.77087460
_cell_angle_gamma   61.77070748
_symmetry_Int_Tables_number   1
_chemical_formula_structural   Zr3(VNi2)2
_chemical_formula_sum   'Zr6 V4 Ni8'
_cell_volume   271.09329975
_cell_formula_units_Z   2
loop_
 _symmetry_equiv_pos_site_id
 _symmetry_equiv_pos_as_xyz
  1  'x, y, z'
loop_
 _atom_site_type_symbol
 _atom_site_label
 _atom_site_symmetry_multiplicity
 _atom_site_fract_x
 _atom_site_fract_y
 _atom_site_fract_z
 _atom_site_occupancy
  Zr  Zr0  1  0.34406700  0.33864300  0.78813700  1
  Zr  Zr1  1  0.99418500  0.00606100  0.12626000  1
  Zr  Zr2  1  0.67412300  0.67417000  0.45719500  1
  Zr  Zr3  1  0.32587700  0.32583000  0.54280500  1
  Zr  Zr4  1  0.00581500  0.99393900  0.87374000  1
  Zr  Zr5  1  0.65593300  0.66135700  0.21186300  1
  V  V0  1  0.50000000  0.50000000  0.00000000  1
  V  V1  1  0.16765200  0.16604300  0.33394200  1
  V  V2  1  0.83234800  0.83395700  0.66605800  1
  V  V3  1  0.00000000  0.50000000  0.00000000  1
  Ni  Ni0  1  0.66916100  0.16707100  0.33592000  1
  Ni  Ni1  1  0.33083900  0.83292900  0.66408000  1
  Ni  Ni2  1  0.33240200  0.33020500  0.16800300  1
  Ni  Ni3  1  0.00000000  0.00000000  0.50000000  1
  Ni  Ni4  1  0.66759800  0.66979500  0.83199700  1
  Ni  Ni5  1  0.50000000  0.00000000  0.00000000  1
  Ni  Ni6  1  0.16998300  0.66544700  0.33403700  1
  Ni  Ni7  1  0.83001700  0.33455300  0.66596300  1
loop_
_geom_bond_atom_site_label_1
_geom_bond_atom_site_label_2
_geom_bond_distance
_geom_bond_site_symmetry_2
Zr0 Zr3 3.061082 1_555
Zr0 Zr4 3.083877 1_545
Zr0 Zr4 3.086383 1_555
Zr0 Zr4 3.088931 1_645
Zr1 Zr5 3.083877 1_545
Zr1 Zr5 3.086383 1_555
Zr1 Zr5 3.088931 1_645
Zr1 Zr4 3.145122 1_644
Zr2 Zr3 3.050957 1_655
Zr2 Zr5 3.061082 1_555
Zr2 Zr3 3.073624 1_565
Zr2 Zr3 3.138149 1_555
V0 V3 2.465146 1_555
V0 V3 2.465146 1_655
V0 Zr1 2.984686 1_555
V0 Zr4 2.984686 1_554
V0 Zr5 2.988505 1_555
V0 Zr0 2.988505 1_554
V0 Zr4 3.010504 1_644
V0 Zr1 3.010504 1_465
V1 Zr5 2.945263 1_545
V1 Zr3 2.956676 1_555
V1 Zr2 2.971304 1_455
V1 Zr1 2.975810 1_455
V1 Zr2 2.987436 1_545
V1 Zr5 2.999025 1_455
V2 Zr0 2.945263 1_565
V2 Zr2 2.956676 1_555
V2 Zr3 2.971304 1_655
V2 Zr4 2.975810 1_655
V2 Zr3 2.987436 1_565
V2 Zr0 2.999025 1_655
V3 Zr4 2.929094 1_554
V3 Zr1 2.929094 1_455
V3 Zr4 2.987637 1_544
V3 Zr1 2.987637 1_465
V3 Zr5 3.008775 1_455
V3 Zr0 3.008775 1_554
Ni0 V1 2.454869 1_655
Ni0 V1 2.475678 1_555
Ni0 Ni3 2.519978 1_655
Ni0 Ni6 2.546049 1_555
Ni0 Ni6 2.558208 1_645
Ni0 Ni2 2.573941 1_555
Ni0 Zr2 2.871423 1_545
Ni0 Zr5 2.879903 1_555
Ni0 Zr1 2.946612 1_555
Ni0 Zr3 2.953345 1_555
Ni0 Zr2 2.981359 1_555
Ni0 Zr5 3.010786 1_545
Ni1 V2 2.454869 1_455
Ni1 V2 2.475678 1_555
Ni1 Ni3 2.519978 1_565
Ni1 Ni7 2.546049 1_555
Ni1 Ni7 2.558208 1_465
Ni1 Ni4 2.573941 1_555
Ni1 Zr3 2.871423 1_565
Ni1 Zr0 2.879903 1_555
Ni1 Zr4 2.946612 1_555
Ni1 Zr2 2.953345 1_555
Ni1 Zr3 2.981359 1_555
Ni1 Zr0 3.010786 1_565
Ni2 V1 2.475872 1_555
Ni2 V0 2.517172 1_555
Ni2 Ni6 2.544631 1_555
Ni2 Ni5 2.551524 1_555
Ni2 V3 2.564351 1_555
Ni2 Zr5 2.856514 1_555
Ni2 Zr1 2.882556 1_455
Ni2 Zr1 2.913274 1_555
Ni2 Zr5 2.980315 1_455
Ni2 Zr5 3.002959 1_545
Ni2 Zr1 3.029682 1_465
Ni3 V1 2.488341 1_555
Ni3 V2 2.488341 1_445
Ni3 Ni7 2.541851 1_455
Ni3 Ni6 2.541851 1_545
Ni3 Zr2 2.840927 1_445
Ni3 Zr3 2.840927 1_555
Ni3 Zr3 2.967593 1_455
Ni3 Zr2 2.967593 1_545
Ni3 Zr3 3.023734 1_545
Ni3 Zr2 3.023734 1_455
Ni4 V2 2.475872 1_555
Ni4 V0 2.517172 1_556
Ni4 Ni7 2.544631 1_555
Ni4 Ni5 2.551524 1_566
Ni4 V3 2.564351 1_656
Ni4 Zr0 2.856514 1_555
Ni4 Zr4 2.882556 1_655
Ni4 Zr4 2.913274 1_555
Ni4 Zr0 2.980315 1_655
Ni4 Zr0 3.002959 1_565
Ni4 Zr4 3.029682 1_645
Ni5 V0 2.505959 1_545
Ni5 V0 2.505959 1_555
Ni5 V3 2.552018 1_645
Ni5 V3 2.552018 1_555
Ni5 Zr4 2.907592 1_644
Ni5 Zr1 2.907592 1_455
Ni5 Zr4 2.940356 1_544
Ni5 Zr1 2.940356 1_555
Ni5 Zr5 3.030856 1_545
Ni5 Zr0 3.030856 1_554
Ni6 V1 2.503518 1_565
Ni6 V1 2.508442 1_555
Ni6 Zr5 2.802481 1_555
Ni6 Zr2 2.840956 1_455
Ni6 Zr2 2.966589 1_555
Ni6 Zr5 2.992391 1_455
Ni6 Zr1 2.993182 1_465
Ni6 Zr3 2.999517 1_555
Ni7 V2 2.503518 1_545
Ni7 V2 2.508442 1_555
Ni7 Zr0 2.802481 1_555
Ni7 Zr3 2.840956 1_655
Ni7 Zr3 2.966589 1_555
Ni7 Zr0 2.992391 1_655
Ni7 Zr4 2.993182 1_645
Ni7 Zr2 2.999517 1_555
