# generated using pymatgen
data_CaLa3Mn4O12
_symmetry_space_group_name_H-M   'P 1'
_cell_length_a   5.56186614
_cell_length_b   7.78497405
_cell_length_c   5.62722081
_cell_angle_alpha   90.06246968
_cell_angle_beta   89.45354039
_cell_angle_gamma   90.26249453
_symmetry_Int_Tables_number   1
_chemical_formula_structural   CaLa3Mn4O12
_chemical_formula_sum   'Ca1 La3 Mn4 O12'
_cell_volume   243.63916918
_cell_formula_units_Z   1
loop_
 _symmetry_equiv_pos_site_id
 _symmetry_equiv_pos_as_xyz
  1  'x, y, z'
loop_
 _atom_site_type_symbol
 _atom_site_label
 _atom_site_symmetry_multiplicity
 _atom_site_fract_x
 _atom_site_fract_y
 _atom_site_fract_z
 _atom_site_occupancy
  Ca  Ca0  1  0.48734900  0.75105700  0.45807200  1
  La  La0  1  0.00728200  0.75060800  0.96144900  1
  La  La1  1  0.50974500  0.24845200  0.53542500  1
  La  La2  1  0.99485700  0.24930800  0.03715900  1
  Mn  Mn0  1  0.50023400  0.50339300  0.00161600  1
  Mn  Mn1  1  0.00045000  0.50356600  0.50010600  1
  Mn  Mn2  1  0.50007300  0.99658000  0.00025800  1
  Mn  Mn3  1  0.00096600  0.99537400  0.49902300  1
  O  O0  1  0.57657100  0.74084400  0.02506200  1
  O  O1  1  0.90916100  0.74041000  0.51680800  1
  O  O2  1  0.42828500  0.26016300  0.98648900  1
  O  O3  1  0.08126200  0.25883800  0.49031700  1
  O  O4  1  0.22240600  0.96556100  0.20218400  1
  O  O5  1  0.20709200  0.54051600  0.21916300  1
  O  O6  1  0.27436500  0.54662200  0.70870100  1
  O  O7  1  0.27342700  0.95912600  0.70382800  1
  O  O8  1  0.78974700  0.45672800  0.77936300  1
  O  O9  1  0.77534700  0.03885800  0.79522600  1
  O  O10  1  0.73098800  0.04228400  0.29216600  1
  O  O11  1  0.73038900  0.45171300  0.28758400  1
loop_
_geom_bond_atom_site_label_1
_geom_bond_atom_site_label_2
_geom_bond_distance
_geom_bond_site_symmetry_2
Ca0 O1 2.374185 1_555
Ca0 O6 2.425080 1_555
Ca0 O7 2.435835 1_555
Ca0 O0 2.483280 1_555
Ca0 O5 2.633508 1_555
Ca0 O4 2.664903 1_555
Ca0 O10 2.792912 1_565
Ca0 O11 2.859648 1_555
La0 O0 2.419637 1_456
La0 O5 2.462879 1_556
La0 O4 2.464676 1_556
La0 O1 2.567064 1_455
La0 O6 2.593784 1_555
La0 O7 2.621085 1_555
La0 O9 2.762017 1_465
La0 O8 2.782295 1_455
La1 O3 2.400790 1_555
La1 O11 2.430920 1_555
La1 O10 2.438286 1_555
La1 O2 2.575688 1_555
La1 O8 2.636546 1_555
La1 O9 2.655267 1_555
La1 O7 2.766341 1_545
La1 O6 2.837493 1_555
La2 O2 2.425869 1_654
La2 O9 2.456969 1_554
La2 O8 2.463102 1_554
La2 O11 2.570842 1_555
La2 O10 2.598794 1_555
La2 O3 2.600326 1_655
La2 O4 2.719581 1_645
La2 O5 2.752329 1_655
Mn0 O0 1.899514 1_555
Mn0 O2 1.935518 1_554
Mn0 O5 2.050825 1_555
Mn0 O8 2.062753 1_554
Mn0 O11 2.106054 1_555
Mn0 O6 2.110188 1_554
Mn1 O1 1.916666 1_455
Mn1 O6 1.959526 1_555
Mn1 O3 1.960100 1_555
Mn1 O5 1.966293 1_555
Mn1 O11 1.968994 1_455
Mn1 O8 1.984425 1_455
Mn2 O4 1.923062 1_555
Mn2 O9 1.935480 1_564
Mn2 O0 2.042960 1_555
Mn2 O2 2.093924 1_564
Mn2 O7 2.119488 1_554
Mn2 O10 2.123461 1_565
Mn3 O7 1.934477 1_555
Mn3 O10 1.944832 1_465
Mn3 O1 2.049558 1_455
Mn3 O4 2.079291 1_555
Mn3 O3 2.097643 1_565
Mn3 O9 2.104819 1_465
