# generated using pymatgen
data_LiTiFe5O8
_symmetry_space_group_name_H-M   'P 1'
_cell_length_a   6.16259101
_cell_length_b   6.23099867
_cell_length_c   6.23299507
_cell_angle_alpha   89.06750482
_cell_angle_beta   60.29958595
_cell_angle_gamma   119.61683913
_symmetry_Int_Tables_number   1
_chemical_formula_structural   LiTiFe5O8
_chemical_formula_sum   'Li1 Ti1 Fe5 O8'
_cell_volume   169.58628915
_cell_formula_units_Z   1
loop_
 _symmetry_equiv_pos_site_id
 _symmetry_equiv_pos_as_xyz
  1  'x, y, z'
loop_
 _atom_site_type_symbol
 _atom_site_label
 _atom_site_symmetry_multiplicity
 _atom_site_fract_x
 _atom_site_fract_y
 _atom_site_fract_z
 _atom_site_occupancy
  Li  Li0  1  0.76931100  0.11280800  0.08238700  1
  Ti  Ti0  1  0.47640200  0.00237800  0.54773900  1
  Fe  Fe0  1  0.23329900  0.11287900  0.14859600  1
  Fe  Fe1  1  0.75045200  0.84940100  0.84606800  1
  Fe  Fe2  1  0.49085400  0.49980900  0.49292000  1
  Fe  Fe3  1  0.02273500  0.54683900  0.00045800  1
  Fe  Fe4  1  0.01647600  0.49945000  0.49272100  1
  O  O0  1  0.97895600  0.73170300  0.27460200  1
  O  O1  1  0.96703300  0.23390200  0.25945700  1
  O  O2  1  0.48181200  0.22154700  0.75800400  1
  O  O3  1  0.51002200  0.23357700  0.25919700  1
  O  O4  1  0.02291600  0.27928400  0.73365900  1
  O  O5  1  0.05250500  0.76800600  0.72004900  1
  O  O6  1  0.50397700  0.76563000  0.25832800  1
  O  O7  1  0.49408100  0.76778800  0.71956500  1
loop_
_geom_bond_atom_site_label_1
_geom_bond_atom_site_label_2
_geom_bond_distance
_geom_bond_site_symmetry_2
Li0 O4 1.789182 1_654
Li0 O6 1.790452 1_545
Li0 O1 1.929538 1_555
Li0 O3 1.950522 1_555
Fe0 O0 1.937680 1_445
Fe0 O1 1.963433 1_455
Fe0 O3 1.965498 1_555
Fe0 O2 1.989402 1_554
Fe1 O7 1.956995 1_555
Fe1 O5 1.958659 1_655
Fe1 O6 2.118387 1_556
Fe1 O4 2.193825 1_665
Fe1 Li0 2.221887 1_566
Fe2 O4 2.045495 1_555
Fe2 O6 2.135328 1_555
Fe2 O0 2.138110 1_555
Fe2 O7 2.203634 1_555
Fe2 O3 2.233818 1_555
Fe2 O2 2.336527 1_555
Fe3 O0 2.057626 1_455
Fe3 O7 2.080276 1_554
Fe3 O5 2.083633 1_554
Fe3 Li0 2.236956 1_455
Fe3 O3 2.268600 1_455
Fe3 O1 2.283181 1_455
Fe3 O4 2.373816 1_554
Fe4 O4 2.045648 1_555
Fe4 O6 2.134889 1_555
Fe4 O0 2.138758 1_455
Fe4 O5 2.208817 1_555
Fe4 O1 2.227901 1_455
Fe4 O2 2.336191 1_455
O1 Ti0 2.161604 1_555
O2 Ti0 1.907947 1_555
O3 Ti0 2.145742 1_555
O5 Ti0 1.873075 1_565
O6 Ti0 2.343010 1_565
O7 Ti0 1.875532 1_565
