# generated using pymatgen
data_FePO4
_symmetry_space_group_name_H-M   'P 1'
_cell_length_a   6.39968400
_cell_length_b   7.91109594
_cell_length_c   9.40586737
_cell_angle_alpha   105.07755613
_cell_angle_beta   107.73696446
_cell_angle_gamma   100.75521530
_symmetry_Int_Tables_number   1
_chemical_formula_structural   FePO4
_chemical_formula_sum   'Fe6 P6 O24'
_cell_volume   419.25592033
_cell_formula_units_Z   6
loop_
 _symmetry_equiv_pos_site_id
 _symmetry_equiv_pos_as_xyz
  1  'x, y, z'
loop_
 _atom_site_type_symbol
 _atom_site_label
 _atom_site_symmetry_multiplicity
 _atom_site_fract_x
 _atom_site_fract_y
 _atom_site_fract_z
 _atom_site_occupancy
  Fe  Fe0  1  0.01894300  0.00149400  0.01980400  1
  Fe  Fe1  1  0.05483400  0.72438900  0.51568200  1
  Fe  Fe2  1  0.95292100  0.27858100  0.46898400  1
  Fe  Fe3  1  0.61951400  0.55314900  0.89407500  1
  Fe  Fe4  1  0.39107500  0.47956300  0.13369900  1
  Fe  Fe5  1  0.71019400  0.18867200  0.70242000  1
  P  P0  1  0.60429500  0.76909400  0.62946300  1
  P  P1  1  0.38993300  0.22887300  0.36549000  1
  P  P2  1  0.22648900  0.14420600  0.77345000  1
  P  P3  1  0.77676100  0.85471600  0.23552100  1
  P  P4  1  0.08862300  0.58912600  0.82728900  1
  P  P5  1  0.90650200  0.40119900  0.16124500  1
  O  O0  1  0.01687500  0.19192500  0.66575400  1
  O  O1  1  0.98330300  0.81699900  0.34259800  1
  O  O2  1  0.22385200  0.19520800  0.94521000  1
  O  O3  1  0.78492700  0.81202800  0.06068000  1
  O  O4  1  0.57208200  0.64188000  0.72554100  1
  O  O5  1  0.46833900  0.37802100  0.30166300  1
  O  O6  1  0.30846500  0.54244400  0.91458900  1
  O  O7  1  0.68527200  0.45139300  0.07747500  1
  O  O8  1  0.87407600  0.45363400  0.83209300  1
  O  O9  1  0.11301700  0.52347100  0.15186800  1
  O  O10  1  0.76114600  0.72456600  0.54196200  1
  O  O11  1  0.24883100  0.27748800  0.46672000  1
  O  O12  1  0.25738600  0.05005500  0.22282200  1
  O  O13  1  0.72471200  0.97139900  0.75905000  1
  O  O14  1  0.09153100  0.78306300  0.90773900  1
  O  O15  1  0.88006500  0.19898100  0.07800200  1
  O  O16  1  0.06241500  0.54441200  0.65036300  1
  O  O17  1  0.93055500  0.44443300  0.33914000  1
  O  O18  1  0.45498300  0.25898200  0.77034700  1
  O  O19  1  0.54931100  0.73669400  0.22238500  1
  O  O20  1  0.20558200  0.94447000  0.70782200  1
  O  O21  1  0.79029100  0.05721500  0.29409700  1
  O  O22  1  0.37117800  0.76018300  0.51641600  1
  O  O23  1  0.61517800  0.21356600  0.48956500  1
loop_
_geom_bond_atom_site_label_1
_geom_bond_atom_site_label_2
_geom_bond_distance
_geom_bond_site_symmetry_2
Fe0 O12 1.935633 1_555
Fe0 O15 1.974898 1_455
Fe0 O14 1.990797 1_544
Fe0 O3 2.109549 1_445
Fe0 O2 2.220446 1_554
Fe0 O13 2.516479 1_444
Fe1 O1 1.920509 1_455
Fe1 O10 1.969146 1_455
Fe1 O20 1.975345 1_555
Fe1 O22 1.988805 1_555
Fe1 O16 2.135666 1_555
Fe1 O17 2.218026 1_455
Fe2 O11 1.901928 1_655
Fe2 O21 1.906273 1_555
Fe2 O17 2.007693 1_555
Fe2 O0 2.089544 1_655
Fe2 O16 2.163161 1_655
Fe2 O23 2.205832 1_555
Fe3 O4 1.860921 1_555
Fe3 O6 2.046109 1_555
Fe3 O7 2.051207 1_556
Fe3 O3 2.069078 1_556
Fe3 O8 2.105301 1_555
Fe3 O18 2.192865 1_555
Fe4 O19 1.921700 1_555
Fe4 O9 1.923936 1_555
Fe4 O5 1.928277 1_555
Fe4 O7 2.139180 1_555
Fe4 O6 2.177618 1_554
Fe4 O2 2.284631 1_554
Fe5 O13 1.937171 1_545
Fe5 O23 1.981148 1_555
Fe5 O8 2.012807 1_555
Fe5 O18 2.043320 1_555
Fe5 O0 2.090412 1_655
O0 P2 1.590019 1_555
O1 P3 1.530676 1_555
O2 P2 1.566243 1_555
O3 P3 1.609745 1_555
O4 P0 1.543130 1_555
O5 P1 1.528240 1_555
O6 P4 1.561364 1_555
O7 P5 1.573503 1_555
O8 P4 1.596846 1_655
O9 P5 1.525921 1_455
O10 P0 1.514455 1_555
O11 P1 1.527390 1_555
O12 P1 1.546761 1_555
O13 P0 1.610424 1_555
O14 P4 1.517776 1_555
O15 P5 1.538680 1_555
O16 P4 1.556974 1_555
O17 P5 1.570395 1_555
O18 P2 1.583618 1_555
O19 P3 1.526101 1_555
O20 P2 1.503023 1_565
O21 P3 1.528853 1_545
O22 P0 1.522003 1_555
O23 P1 1.602565 1_555
