# generated using pymatgen
data_Rb2BaCl4
_symmetry_space_group_name_H-M   'P 1'
_cell_length_a   8.39244957
_cell_length_b   8.39244957
_cell_length_c   8.39244957
_cell_angle_alpha   109.87145649
_cell_angle_beta   109.87145649
_cell_angle_gamma   108.67368061
_symmetry_Int_Tables_number   1
_chemical_formula_structural   Rb2BaCl4
_chemical_formula_sum   'Rb4 Ba2 Cl8'
_cell_volume   454.96849113
_cell_formula_units_Z   2
loop_
 _symmetry_equiv_pos_site_id
 _symmetry_equiv_pos_as_xyz
  1  'x, y, z'
loop_
 _atom_site_type_symbol
 _atom_site_label
 _atom_site_symmetry_multiplicity
 _atom_site_fract_x
 _atom_site_fract_y
 _atom_site_fract_z
 _atom_site_occupancy
  Rb  Rb0  1  0.37500000  0.51058300  0.63558300  1
  Rb  Rb1  1  0.87500000  0.73941700  0.36441700  1
  Rb  Rb2  1  0.48941700  0.12500000  0.86441700  1
  Rb  Rb3  1  0.26058300  0.62500000  0.13558300  1
  Ba  Ba0  1  0.75000000  0.25000000  0.50000000  1
  Ba  Ba1  1  0.00000000  0.00000000  0.00000000  1
  Cl  Cl0  1  0.97326400  0.35870400  0.25056100  1
  Cl  Cl1  1  0.10814300  0.72270200  0.74943900  1
  Cl  Cl2  1  0.64185700  0.89129600  0.11455900  1
  Cl  Cl3  1  0.77673600  0.52729800  0.88544100  1
  Cl  Cl4  1  0.10870400  0.22326400  0.75056100  1
  Cl  Cl5  1  0.47270200  0.35814300  0.24943900  1
  Cl  Cl6  1  0.64129600  0.89185700  0.61455900  1
  Cl  Cl7  1  0.27729800  0.02673600  0.38544100  1
loop_
_geom_bond_atom_site_label_1
_geom_bond_atom_site_label_2
_geom_bond_distance
_geom_bond_site_symmetry_2
Ba0 Cl4 3.159832 1_655
Ba0 Cl5 3.159837 1_555
Ba0 Cl2 3.159837 1_545
Ba0 Cl3 3.159842 1_555
Ba0 Cl1 3.405252 1_655
Ba0 Cl6 3.405252 1_545
Ba0 Cl7 3.405253 1_555
Ba0 Cl0 3.405258 1_555
Ba1 Cl0 3.159832 1_455
Ba1 Cl6 3.159837 1_444
Ba1 Cl1 3.159837 1_544
Ba1 Cl7 3.159842 1_555
Ba1 Cl2 3.405252 1_445
Ba1 Cl5 3.405252 1_555
Ba1 Cl3 3.405253 1_444
Ba1 Cl4 3.405258 1_554
Cl0 Rb0 3.236513 1_655
Cl0 Rb3 3.367077 1_655
Cl0 Rb1 3.456785 1_555
Cl0 Rb2 3.531411 1_554
Cl1 Rb1 3.236518 1_455
Cl1 Rb2 3.367082 1_565
Cl1 Rb0 3.456780 1_555
Cl1 Rb3 3.531405 1_556
Cl2 Rb1 3.236518 1_555
Cl2 Rb3 3.367082 1_555
Cl2 Rb0 3.456780 1_554
Cl2 Rb2 3.531405 1_564
Cl3 Rb0 3.236512 1_555
Cl3 Rb2 3.367079 1_555
Cl3 Rb1 3.456777 1_556
Cl3 Rb3 3.531413 1_656
Cl4 Rb3 3.236513 1_556
Cl4 Rb0 3.367077 1_555
Cl4 Rb2 3.456785 1_555
Cl4 Rb1 3.531411 1_445
Cl5 Rb2 3.236518 1_554
Cl5 Rb1 3.367082 1_555
Cl5 Rb3 3.456780 1_555
Cl5 Rb0 3.531405 1_555
Cl6 Rb2 3.236518 1_565
Cl6 Rb0 3.367082 1_555
Cl6 Rb3 3.456780 1_555
Cl6 Rb1 3.531405 1_555
Cl7 Rb3 3.236512 1_545
Cl7 Rb1 3.367079 1_445
Cl7 Rb2 3.456777 1_555
Cl7 Rb0 3.531413 1_555
