# generated using pymatgen
data_Ca8TiMn7O22
_symmetry_space_group_name_H-M   'P 1'
_cell_length_a   7.69951200
_cell_length_b   7.69951200
_cell_length_c   7.65153100
_cell_angle_alpha   90.00000000
_cell_angle_beta   90.00000000
_cell_angle_gamma   90.00000000
_symmetry_Int_Tables_number   1
_chemical_formula_structural   Ca8TiMn7O22
_chemical_formula_sum   'Ca8 Ti1 Mn7 O22'
_cell_volume   453.60177203
_cell_formula_units_Z   1
loop_
 _symmetry_equiv_pos_site_id
 _symmetry_equiv_pos_as_xyz
  1  'x, y, z'
loop_
 _atom_site_type_symbol
 _atom_site_label
 _atom_site_symmetry_multiplicity
 _atom_site_fract_x
 _atom_site_fract_y
 _atom_site_fract_z
 _atom_site_occupancy
  Ca  Ca0  1  0.25179300  0.25179300  0.25219400  1
  Ca  Ca1  1  0.25491400  0.25491400  0.74031800  1
  Ca  Ca2  1  0.25179300  0.74820700  0.25219400  1
  Ca  Ca3  1  0.25491400  0.74508600  0.74031800  1
  Ca  Ca4  1  0.74820700  0.25179300  0.25219400  1
  Ca  Ca5  1  0.74508600  0.25491400  0.74031800  1
  Ca  Ca6  1  0.74820700  0.74820700  0.25219400  1
  Ca  Ca7  1  0.74508600  0.74508600  0.74031800  1
  Ti  Ti0  1  0.00000000  0.00000000  0.98523800  1
  Mn  Mn0  1  0.00000000  0.00000000  0.49526000  1
  Mn  Mn1  1  0.00000000  0.50000000  0.00937000  1
  Mn  Mn2  1  0.00000000  0.50000000  0.49337900  1
  Mn  Mn3  1  0.50000000  0.00000000  0.00937000  1
  Mn  Mn4  1  0.50000000  0.00000000  0.49337900  1
  Mn  Mn5  1  0.50000000  0.50000000  0.99532500  1
  Mn  Mn6  1  0.50000000  0.50000000  0.50273200  1
  O  O0  1  0.00000000  0.00000000  0.75406200  1
  O  O1  1  0.00000000  0.50000000  0.25098900  1
  O  O2  1  0.00000000  0.50000000  0.75189800  1
  O  O3  1  0.50000000  0.00000000  0.25098900  1
  O  O4  1  0.50000000  0.00000000  0.75189800  1
  O  O5  1  0.50000000  0.50000000  0.74984700  1
  O  O6  1  0.24652900  0.00000000  0.02452400  1
  O  O7  1  0.24751400  0.00000000  0.48172900  1
  O  O8  1  0.25424000  0.50000000  0.02318400  1
  O  O9  1  0.25446000  0.50000000  0.47961800  1
  O  O10  1  0.75347100  0.00000000  0.02452400  1
  O  O11  1  0.75248600  0.00000000  0.48172900  1
  O  O12  1  0.74576000  0.50000000  0.02318400  1
  O  O13  1  0.74554000  0.50000000  0.47961800  1
  O  O14  1  0.00000000  0.24652900  0.02452400  1
  O  O15  1  0.00000000  0.24751400  0.48172900  1
  O  O16  1  0.00000000  0.75347100  0.02452400  1
  O  O17  1  0.00000000  0.75248600  0.48172900  1
  O  O18  1  0.50000000  0.25424000  0.02318400  1
  O  O19  1  0.50000000  0.25446000  0.47961800  1
  O  O20  1  0.50000000  0.74576000  0.02318400  1
  O  O21  1  0.50000000  0.74554000  0.47961800  1
loop_
_geom_bond_atom_site_label_1
_geom_bond_atom_site_label_2
_geom_bond_distance
_geom_bond_site_symmetry_2
Ca0 O19 2.584708 1_555
Ca0 O9 2.584708 1_555
Ca0 O18 2.592880 1_555
Ca0 O8 2.592880 1_555
Ca0 O14 2.606680 1_555
Ca0 O6 2.606680 1_555
Ca0 O15 2.616132 1_555
Ca0 O7 2.616132 1_555
Ca0 O1 2.722274 1_555
Ca0 O3 2.722274 1_555
Ca1 O5 2.669677 1_555
Ca1 O2 2.724156 1_555
Ca1 O4 2.724156 1_555
Ca1 O9 2.745904 1_555
Ca1 O19 2.745904 1_555
Ca1 O0 2.777687 1_555
Ca1 O15 2.787536 1_555
Ca1 O7 2.787536 1_555
Ca1 O8 2.871481 1_556
Ca1 O18 2.871481 1_556
Ca1 O14 2.930076 1_556
Ca1 O6 2.930076 1_556
Ca2 O9 2.584708 1_555
Ca2 O21 2.584708 1_555
Ca2 O8 2.592880 1_555
Ca2 O20 2.592880 1_555
Ca2 O6 2.606680 1_565
Ca2 O16 2.606680 1_555
Ca2 O17 2.616132 1_555
Ca2 O7 2.616132 1_565
Ca2 O1 2.722274 1_555
Ca2 O3 2.722274 1_565
Ca3 O5 2.669677 1_555
Ca3 O2 2.724156 1_555
Ca3 O4 2.724156 1_565
Ca3 O9 2.745904 1_555
Ca3 O21 2.745904 1_555
Ca3 O0 2.777687 1_565
Ca3 O17 2.787536 1_555
Ca3 O7 2.787536 1_565
Ca3 O8 2.871481 1_556
Ca3 O20 2.871481 1_556
Ca3 O16 2.930076 1_556
Ca3 O6 2.930076 1_566
Ca4 O19 2.584708 1_555
Ca4 O13 2.584708 1_555
Ca4 O18 2.592880 1_555
Ca4 O12 2.592880 1_555
Ca4 O10 2.606680 1_555
Ca4 O14 2.606680 1_655
Ca4 O11 2.616132 1_555
Ca4 O15 2.616132 1_655
Ca4 O3 2.722274 1_555
Ca4 O1 2.722274 1_655
Ca5 O5 2.669677 1_555
Ca5 O4 2.724156 1_555
Ca5 O2 2.724156 1_655
Ca5 O19 2.745904 1_555
Ca5 O13 2.745904 1_555
Ca5 O0 2.777687 1_655
Ca5 O11 2.787536 1_555
Ca5 O15 2.787536 1_655
Ca5 O18 2.871481 1_556
Ca5 O12 2.871481 1_556
Ca5 O10 2.930076 1_556
Ca5 O14 2.930076 1_656
Ca6 O13 2.584708 1_555
Ca6 O21 2.584708 1_555
Ca6 O12 2.592880 1_555
Ca6 O20 2.592880 1_555
Ca6 O16 2.606680 1_655
Ca6 O10 2.606680 1_565
Ca6 O11 2.616132 1_565
Ca6 O17 2.616132 1_655
Ca6 O1 2.722274 1_655
Ca6 O3 2.722274 1_565
Ca7 O5 2.669677 1_555
Ca7 O2 2.724156 1_655
Ca7 O4 2.724156 1_565
Ca7 O21 2.745904 1_555
Ca7 O13 2.745904 1_555
Ca7 O0 2.777687 1_665
Ca7 O11 2.787536 1_565
Ca7 O17 2.787536 1_655
Ca7 O20 2.871481 1_556
Ca7 O12 2.871481 1_556
Ca7 O10 2.930076 1_566
Ca7 O16 2.930076 1_656
Mn0 O15 1.908547 1_555
Mn0 O7 1.908547 1_555
Mn0 O17 1.908547 1_545
Mn0 O11 1.908547 1_455
Mn0 O0 1.980232 1_555
Mn1 O1 1.848755 1_555
Mn1 O14 1.955045 1_555
Mn1 O16 1.955045 1_555
Mn1 O12 1.960375 1_455
Mn1 O8 1.960375 1_555
Mn1 O2 1.970055 1_554
Mn2 O1 1.854655 1_555
Mn2 O17 1.946062 1_555
Mn2 O15 1.946062 1_555
Mn2 O13 1.962045 1_455
Mn2 O9 1.962045 1_555
Mn2 O2 1.978066 1_555
Mn3 O3 1.848755 1_555
Mn3 O6 1.955045 1_555
Mn3 O10 1.955045 1_555
Mn3 O20 1.960375 1_545
Mn3 O18 1.960375 1_555
Mn3 O4 1.970055 1_554
Mn4 O3 1.854655 1_555
Mn4 O11 1.946062 1_555
Mn4 O7 1.946062 1_555
Mn4 O21 1.962045 1_545
Mn4 O19 1.962045 1_555
Mn4 O4 1.978066 1_555
Mn5 O5 1.878283 1_555
Mn5 O8 1.904201 1_556
Mn5 O18 1.904201 1_556
Mn5 O20 1.904201 1_556
Mn5 O12 1.904201 1_556
Mn6 O5 1.890808 1_555
Mn6 O9 1.898793 1_555
Mn6 O19 1.898793 1_555
Mn6 O21 1.898793 1_555
Mn6 O13 1.898793 1_555
O0 Ti0 1.768850 1_555
O6 Ti0 1.921807 1_554
O10 Ti0 1.921807 1_654
O14 Ti0 1.921807 1_554
O16 Ti0 1.921807 1_564
