# generated using pymatgen
data_Mn3(SiSe3)2
_symmetry_space_group_name_H-M   'P 1'
_cell_length_a   6.51580418
_cell_length_b   6.51580418
_cell_length_c   13.74025100
_cell_angle_alpha   90.00000000
_cell_angle_beta   90.00000000
_cell_angle_gamma   120.00000185
_symmetry_Int_Tables_number   1
_chemical_formula_structural   Mn3(SiSe3)2
_chemical_formula_sum   'Mn6 Si4 Se12'
_cell_volume   505.19766897
_cell_formula_units_Z   2
loop_
 _symmetry_equiv_pos_site_id
 _symmetry_equiv_pos_as_xyz
  1  'x, y, z'
loop_
 _atom_site_type_symbol
 _atom_site_label
 _atom_site_symmetry_multiplicity
 _atom_site_fract_x
 _atom_site_fract_y
 _atom_site_fract_z
 _atom_site_occupancy
  Mn  Mn0  1  0.66666700  0.33333300  0.99950000  1
  Mn  Mn1  1  0.33333300  0.66666700  0.00050000  1
  Mn  Mn2  1  0.66666700  0.33333300  0.50050000  1
  Mn  Mn3  1  0.33333300  0.66666700  0.49950000  1
  Mn  Mn4  1  0.66666700  0.33333300  0.75000000  1
  Mn  Mn5  1  0.33333300  0.66666700  0.25000000  1
  Si  Si0  1  0.00000000  0.00000000  0.91550500  1
  Si  Si1  1  0.00000000  0.00000000  0.08449500  1
  Si  Si2  1  0.00000000  0.00000000  0.58449500  1
  Si  Si3  1  0.00000000  0.00000000  0.41550500  1
  Se  Se0  1  0.65686000  0.65753100  0.87333500  1
  Se  Se1  1  0.34314000  0.34246900  0.12666500  1
  Se  Se2  1  0.00067100  0.34314000  0.87333500  1
  Se  Se3  1  0.00067100  0.65753100  0.62666500  1
  Se  Se4  1  0.99932900  0.65686000  0.12666500  1
  Se  Se5  1  0.99932900  0.34246900  0.37333500  1
  Se  Se6  1  0.34246900  0.99932900  0.87333500  1
  Se  Se7  1  0.34246900  0.34314000  0.62666500  1
  Se  Se8  1  0.65753100  0.00067100  0.12666500  1
  Se  Se9  1  0.65753100  0.65686000  0.37333500  1
  Se  Se10  1  0.65686000  0.99932900  0.62666500  1
  Se  Se11  1  0.34314000  0.00067100  0.37333500  1
loop_
_geom_bond_atom_site_label_1
_geom_bond_atom_site_label_2
_geom_bond_distance
_geom_bond_site_symmetry_2
Mn0 Se2 2.757984 1_655
Mn0 Se6 2.757986 1_545
Mn0 Se0 2.757989 1_555
Mn0 Se8 2.761488 1_556
Mn0 Se4 2.761490 1_556
Mn0 Se1 2.761493 1_556
Mn1 Se4 2.757984 1_455
Mn1 Se8 2.757986 1_565
Mn1 Se1 2.757989 1_555
Mn1 Se6 2.761488 1_554
Mn1 Se2 2.761490 1_554
Mn1 Se0 2.761493 1_554
Mn2 Se10 2.757984 1_545
Mn2 Se3 2.757986 1_655
Mn2 Se7 2.757989 1_555
Mn2 Se5 2.761488 1_555
Mn2 Se11 2.761490 1_555
Mn2 Se9 2.761493 1_555
Mn3 Se11 2.757984 1_565
Mn3 Se5 2.757986 1_455
Mn3 Se9 2.757989 1_555
Mn3 Se3 2.761488 1_555
Mn3 Se10 2.761490 1_555
Mn3 Se7 2.761493 1_555
Mn4 Se10 2.733710 1_545
Mn4 Se2 2.733710 1_655
Mn4 Se6 2.733712 1_545
Mn4 Se3 2.733712 1_655
Mn4 Se7 2.733715 1_555
Mn4 Se0 2.733715 1_555
Mn5 Se4 2.733710 1_455
Mn5 Se11 2.733710 1_565
Mn5 Se5 2.733712 1_455
Mn5 Se8 2.733712 1_565
Mn5 Se9 2.733715 1_555
Mn5 Se1 2.733715 1_555
Si0 Si1 2.321965 1_556
Si2 Si3 2.321965 1_555
Se0 Si0 2.307581 1_665
Se1 Si1 2.307581 1_555
Se2 Si0 2.307581 1_555
Se3 Si2 2.307581 1_565
Se4 Si1 2.307581 1_665
Se5 Si3 2.307581 1_655
Se6 Si0 2.307581 1_565
Se7 Si2 2.307581 1_555
Se8 Si1 2.307581 1_655
Se9 Si3 2.307581 1_665
Se10 Si2 2.307581 1_665
Se11 Si3 2.307581 1_555
