# generated using pymatgen
data_La12InCo6
_symmetry_space_group_name_H-M   'P 1'
_cell_length_a   8.79709125
_cell_length_b   8.79709125
_cell_length_c   8.79709125
_cell_angle_alpha   109.47122063
_cell_angle_beta   109.47122063
_cell_angle_gamma   109.47122063
_symmetry_Int_Tables_number   1
_chemical_formula_structural   La12InCo6
_chemical_formula_sum   'La12 In1 Co6'
_cell_volume   524.07736082
_cell_formula_units_Z   1
loop_
 _symmetry_equiv_pos_site_id
 _symmetry_equiv_pos_as_xyz
  1  'x, y, z'
loop_
 _atom_site_type_symbol
 _atom_site_label
 _atom_site_symmetry_multiplicity
 _atom_site_fract_x
 _atom_site_fract_y
 _atom_site_fract_z
 _atom_site_occupancy
  La  La0  1  0.81144300  0.68998400  0.50142700  1
  La  La1  1  0.18855700  0.31001600  0.49857300  1
  La  La2  1  0.18855700  0.68998400  0.87854100  1
  La  La3  1  0.81144300  0.31001600  0.12145900  1
  La  La4  1  0.68998400  0.50142700  0.81144300  1
  La  La5  1  0.31001600  0.49857300  0.18855700  1
  La  La6  1  0.68998400  0.87854100  0.18855700  1
  La  La7  1  0.31001600  0.12145900  0.81144300  1
  La  La8  1  0.50142700  0.81144300  0.68998400  1
  La  La9  1  0.49857300  0.18855700  0.31001600  1
  La  La10  1  0.12145900  0.81144300  0.31001600  1
  La  La11  1  0.87854100  0.18855700  0.68998400  1
  In  In0  1  0.00000000  0.00000000  0.00000000  1
  Co  Co0  1  0.88286400  0.38286400  0.50000000  1
  Co  Co1  1  0.11713600  0.61713600  0.50000000  1
  Co  Co2  1  0.38286400  0.50000000  0.88286400  1
  Co  Co3  1  0.61713600  0.50000000  0.11713600  1
  Co  Co4  1  0.50000000  0.88286400  0.38286400  1
  Co  Co5  1  0.50000000  0.11713600  0.61713600  1
loop_
_geom_bond_atom_site_label_1
_geom_bond_atom_site_label_2
_geom_bond_distance
_geom_bond_site_symmetry_2
In0 La9 3.685882 1_555
In0 La6 3.685882 1_445
In0 La5 3.685882 1_555
In0 La3 3.685882 1_455
In0 La2 3.685882 1_544
In0 La11 3.685882 1_454
In0 La10 3.685882 1_545
In0 La1 3.685882 1_555
In0 La7 3.685882 1_554
In0 La0 3.685882 1_444
In0 La4 3.685882 1_444
In0 La8 3.685882 1_444
Co0 Co1 2.379736 1_655
Co0 La11 2.760458 1_555
Co0 La9 2.760458 1_555
Co0 La3 2.967955 1_555
Co0 La0 2.967955 1_555
Co0 La2 2.967955 1_655
Co0 La1 2.967955 1_655
Co0 La6 3.721207 1_545
Co0 La4 3.721207 1_555
Co1 La8 2.760458 1_555
Co1 La10 2.760458 1_555
Co1 La1 2.967955 1_555
Co1 La2 2.967955 1_555
Co1 La3 2.967955 1_455
Co1 La0 2.967955 1_455
Co1 La7 3.721207 1_565
Co1 La5 3.721207 1_555
Co2 Co3 2.379736 1_556
Co2 La1 2.760458 1_555
Co2 La2 2.760458 1_555
Co2 La7 2.967955 1_555
Co2 La4 2.967955 1_555
Co2 La6 2.967955 1_556
Co2 La5 2.967955 1_556
Co2 La11 3.721207 1_455
Co2 La8 3.721207 1_555
Co3 La0 2.760458 1_555
Co3 La3 2.760458 1_555
Co3 La7 2.967955 1_554
Co3 La5 2.967955 1_555
Co3 La6 2.967955 1_555
Co3 La4 2.967955 1_554
Co3 La10 3.721207 1_655
Co3 La9 3.721207 1_555
Co4 Co5 2.379736 1_565
Co4 La5 2.760458 1_555
Co4 La6 2.760458 1_555
Co4 La8 2.967955 1_555
Co4 La11 2.967955 1_565
Co4 La10 2.967955 1_555
Co4 La9 2.967955 1_565
Co4 La0 3.721207 1_555
Co4 La2 3.721207 1_554
Co5 La4 2.760458 1_555
Co5 La7 2.760458 1_555
Co5 La10 2.967955 1_545
Co5 La8 2.967955 1_545
Co5 La11 2.967955 1_555
Co5 La9 2.967955 1_555
Co5 La3 3.721207 1_556
Co5 La1 3.721207 1_555
