# generated using pymatgen
data_Na2CoH12(SO7)2
_symmetry_space_group_name_H-M   'P 1'
_cell_length_a   12.08441500
_cell_length_b   5.94426200
_cell_length_c   8.84843646
_cell_angle_alpha   77.42696742
_cell_angle_beta   90.00000000
_cell_angle_gamma   90.00000000
_symmetry_Int_Tables_number   1
_chemical_formula_structural   Na2CoH12(SO7)2
_chemical_formula_sum   'Na4 Co2 H24 S4 O28'
_cell_volume   620.36677285
_cell_formula_units_Z   2
loop_
 _symmetry_equiv_pos_site_id
 _symmetry_equiv_pos_as_xyz
  1  'x, y, z'
loop_
 _atom_site_type_symbol
 _atom_site_label
 _atom_site_symmetry_multiplicity
 _atom_site_fract_x
 _atom_site_fract_y
 _atom_site_fract_z
 _atom_site_occupancy
  Na  Na0  1  0.64888800  0.33464700  0.35008500  1
  Na  Na1  1  0.14888800  0.66535300  0.14991500  1
  Na  Na2  1  0.35111200  0.66535300  0.64991500  1
  Na  Na3  1  0.85111200  0.33464700  0.85008500  1
  Co  Co0  1  0.50000000  0.00000000  0.00000000  1
  Co  Co1  1  0.00000000  0.00000000  0.50000000  1
  H  H0  1  0.43289800  0.33705500  0.11503700  1
  H  H1  1  0.93289800  0.66294500  0.38496300  1
  H  H2  1  0.56710200  0.66294500  0.88496300  1
  H  H3  1  0.06710200  0.33705500  0.61503700  1
  H  H4  1  0.35225700  0.34658800  0.96638600  1
  H  H5  1  0.85225700  0.65341200  0.53361400  1
  H  H6  1  0.64774300  0.65341200  0.03361400  1
  H  H7  1  0.14774300  0.34658800  0.46638600  1
  H  H8  1  0.41337400  0.66848100  0.21967100  1
  H  H9  1  0.91337400  0.33151900  0.28032900  1
  H  H10  1  0.58662600  0.33151900  0.78032900  1
  H  H11  1  0.08662600  0.66848100  0.71967100  1
  H  H12  1  0.37351600  0.90406800  0.25672200  1
  H  H13  1  0.87351600  0.09593200  0.24327800  1
  H  H14  1  0.62648400  0.09593200  0.74327800  1
  H  H15  1  0.12648400  0.90406800  0.75672200  1
  H  H16  1  0.60906700  0.91787400  0.27466200  1
  H  H17  1  0.10906700  0.08212600  0.22533800  1
  H  H18  1  0.39093300  0.08212600  0.72533800  1
  H  H19  1  0.89093300  0.91787400  0.77466200  1
  H  H20  1  0.69415400  0.02196600  0.14255400  1
  H  H21  1  0.19415400  0.97803400  0.35744600  1
  H  H22  1  0.30584600  0.97803400  0.85744600  1
  H  H23  1  0.80584600  0.02196600  0.64255400  1
  S  S0  1  0.36178600  0.28292200  0.41923500  1
  S  S1  1  0.86178600  0.71707800  0.08076500  1
  S  S2  1  0.63821400  0.71707800  0.58076500  1
  S  S3  1  0.13821400  0.28292200  0.91923500  1
  O  O0  1  0.42699600  0.29896800  0.01150100  1
  O  O1  1  0.92699600  0.70103200  0.48849900  1
  O  O2  1  0.57300400  0.70103200  0.98849900  1
  O  O3  1  0.07300400  0.29896800  0.51150100  1
  O  O4  1  0.38570900  0.82442200  0.17059300  1
  O  O5  1  0.88570900  0.17557800  0.32940700  1
  O  O6  1  0.61429100  0.17557800  0.82940700  1
  O  O7  1  0.11429100  0.82442200  0.67059300  1
  O  O8  1  0.61975700  0.04861200  0.18265600  1
  O  O9  1  0.11975700  0.95138800  0.31734400  1
  O  O10  1  0.38024300  0.95138800  0.81734400  1
  O  O11  1  0.88024300  0.04861200  0.68265600  1
  O  O12  1  0.33432400  0.03652700  0.41903200  1
  O  O13  1  0.83432400  0.96347300  0.08096800  1
  O  O14  1  0.66567600  0.96347300  0.58096800  1
  O  O15  1  0.16567600  0.03652700  0.91903200  1
  O  O16  1  0.44892900  0.36888100  0.30004300  1
  O  O17  1  0.94892900  0.63111900  0.19995700  1
  O  O18  1  0.55107100  0.63111900  0.69995700  1
  O  O19  1  0.05107100  0.36888100  0.80004300  1
  O  O20  1  0.26185100  0.43225400  0.37926700  1
  O  O21  1  0.76185100  0.56774600  0.12073300  1
  O  O22  1  0.73814900  0.56774600  0.62073300  1
  O  O23  1  0.23814900  0.43225400  0.87926700  1
  O  O24  1  0.40304000  0.30062000  0.57462900  1
  O  O25  1  0.90304000  0.69938000  0.92537100  1
  O  O26  1  0.59696000  0.69938000  0.42537100  1
  O  O27  1  0.09696000  0.30062000  0.07462900  1
loop_
_geom_bond_atom_site_label_1
_geom_bond_atom_site_label_2
_geom_bond_distance
_geom_bond_site_symmetry_2
Na0 O16 2.457067 1_555
Na0 O26 2.483319 1_555
Na0 O8 2.511232 1_555
Na0 O21 2.584110 1_555
Na0 O14 2.668409 1_545
Na1 O17 2.457067 1_455
Na1 O27 2.483319 1_555
Na1 O9 2.511232 1_555
Na1 O20 2.584110 1_555
Na1 O15 2.668409 1_564
Na2 O18 2.457067 1_555
Na2 O24 2.483319 1_555
Na2 O10 2.511232 1_555
Na2 O23 2.584110 1_555
Na2 O12 2.668409 1_565
Na3 O19 2.457067 1_655
Na3 O25 2.483319 1_555
Na3 O11 2.511232 1_555
Na3 O22 2.584110 1_555
Na3 O13 2.668409 1_546
Co0 O2 2.006397 1_544
Co0 O0 2.006397 1_555
Co0 O4 2.142304 1_545
Co0 O6 2.142304 1_554
Co0 O8 2.234583 1_555
Co0 O10 2.234583 1_544
Co1 O1 2.006397 1_445
Co1 O3 2.006397 1_555
Co1 O7 2.142304 1_545
Co1 O5 2.142304 1_455
Co1 O9 2.234583 1_545
Co1 O11 2.234583 1_455
H0 O0 0.992946 1_555
H0 O16 1.699401 1_555
H1 O1 0.992946 1_555
H1 O17 1.699401 1_555
H2 O2 0.992946 1_555
H2 O18 1.699401 1_555
H3 O3 0.992946 1_555
H3 O19 1.699401 1_555
H4 O0 1.003004 1_556
H4 O23 1.607509 1_555
H5 O1 1.003004 1_555
H5 O22 1.607509 1_555
H6 O2 1.003004 1_554
H6 O21 1.607509 1_555
H7 O3 1.003004 1_555
H7 O20 1.607509 1_555
H8 O4 0.992140 1_555
H9 O5 0.992140 1_555
H10 O6 0.992140 1_555
H11 O7 0.992140 1_555
H12 O4 0.991839 1_555
H13 O5 0.991839 1_555
H14 O6 0.991839 1_555
H15 O7 0.991839 1_555
H16 O8 1.003973 1_565
H16 O26 1.653036 1_555
H17 O9 1.003973 1_545
H17 O27 1.653036 1_555
H18 O10 1.003973 1_545
H18 O24 1.653036 1_555
H19 O11 1.003973 1_565
H19 O25 1.653036 1_555
H20 O8 0.991841 1_555
H21 O9 0.991841 1_555
H22 O10 0.991841 1_555
H23 O11 0.991841 1_555
O12 S0 1.502145 1_555
O13 S1 1.502145 1_555
O14 S2 1.502145 1_555
O15 S3 1.502145 1_555
O16 S0 1.499247 1_555
O17 S1 1.499247 1_555
O18 S2 1.499247 1_555
O19 S3 1.499247 1_555
O20 S0 1.494920 1_555
O21 S1 1.494920 1_555
O22 S2 1.494920 1_555
O23 S3 1.494920 1_555
O24 S0 1.487678 1_555
O25 S1 1.487678 1_556
O26 S2 1.487678 1_555
O27 S3 1.487678 1_554
