# generated using pymatgen
data_Cs3CoI4NO3
_symmetry_space_group_name_H-M   'P 1'
_cell_length_a   10.12113327
_cell_length_b   11.66119259
_cell_length_c   14.32064469
_cell_angle_alpha   90.00000000
_cell_angle_beta   90.00000000
_cell_angle_gamma   90.00000000
_symmetry_Int_Tables_number   1
_chemical_formula_structural   Cs3CoI4NO3
_chemical_formula_sum   'Cs12 Co4 I16 N4 O12'
_cell_volume   1690.18670425
_cell_formula_units_Z   4
loop_
 _symmetry_equiv_pos_site_id
 _symmetry_equiv_pos_as_xyz
  1  'x, y, z'
loop_
 _atom_site_type_symbol
 _atom_site_label
 _atom_site_symmetry_multiplicity
 _atom_site_fract_x
 _atom_site_fract_y
 _atom_site_fract_z
 _atom_site_occupancy
  Cs  Cs0  1  0.07542522  0.25000000  0.55273518  1
  Cs  Cs1  1  0.57542522  0.25000000  0.94726482  1
  Cs  Cs2  1  0.92457478  0.75000000  0.44726482  1
  Cs  Cs3  1  0.42457478  0.75000000  0.05273518  1
  Cs  Cs4  1  0.39975557  0.98872400  0.31902898  1
  Cs  Cs5  1  0.89975557  0.51127600  0.18097102  1
  Cs  Cs6  1  0.60024443  0.48872400  0.68097102  1
  Cs  Cs7  1  0.10024443  0.01127600  0.81902898  1
  Cs  Cs8  1  0.60024443  0.01127600  0.68097102  1
  Cs  Cs9  1  0.10024443  0.48872400  0.81902898  1
  Cs  Cs10  1  0.39975557  0.51127600  0.31902898  1
  Cs  Cs11  1  0.89975557  0.98872400  0.18097102  1
  Co  Co0  1  0.67514733  0.25000000  0.40185006  1
  Co  Co1  1  0.17514733  0.25000000  0.09814994  1
  Co  Co2  1  0.32485267  0.75000000  0.59814994  1
  Co  Co3  1  0.82485267  0.75000000  0.90185006  1
  I  I0  1  0.79935667  0.06289358  0.44295715  1
  I  I1  1  0.29935667  0.43710642  0.05704285  1
  I  I2  1  0.20064333  0.56289358  0.55704285  1
  I  I3  1  0.70064333  0.93710642  0.94295715  1
  I  I4  1  0.20064333  0.93710642  0.55704285  1
  I  I5  1  0.70064333  0.56289358  0.94295715  1
  I  I6  1  0.79935667  0.43710642  0.44295715  1
  I  I7  1  0.29935667  0.06289358  0.05704285  1
  I  I8  1  0.46041037  0.25000000  0.50119853  1
  I  I9  1  0.96041037  0.25000000  0.99880147  1
  I  I10  1  0.53958963  0.75000000  0.49880147  1
  I  I11  1  0.03958963  0.75000000  0.00119853  1
  I  I12  1  0.62726934  0.25000000  0.22413420  1
  I  I13  1  0.12726934  0.25000000  0.27586580  1
  I  I14  1  0.37273066  0.75000000  0.77586580  1
  I  I15  1  0.87273066  0.75000000  0.72413420  1
  N  N0  1  0.17466743  0.75000000  0.27301300  1
  N  N1  1  0.67466743  0.75000000  0.22698700  1
  N  N2  1  0.82533257  0.25000000  0.72698700  1
  N  N3  1  0.32533257  0.25000000  0.77301300  1
  O  O0  1  0.29313356  0.75000000  0.24490001  1
  O  O1  1  0.79313356  0.75000000  0.25509999  1
  O  O2  1  0.70686644  0.25000000  0.75509999  1
  O  O3  1  0.20686644  0.25000000  0.74490001  1
  O  O4  1  0.11641009  0.65614334  0.28780867  1
  O  O5  1  0.61641009  0.84385666  0.21219133  1
  O  O6  1  0.88358991  0.15614334  0.71219133  1
  O  O7  1  0.38358991  0.34385666  0.78780867  1
  O  O8  1  0.88358991  0.34385666  0.71219133  1
  O  O9  1  0.38358991  0.15614334  0.78780867  1
  O  O10  1  0.11641009  0.84385666  0.28780867  1
  O  O11  1  0.61641009  0.65614334  0.21219133  1
loop_
_geom_bond_atom_site_label_1
_geom_bond_atom_site_label_2
_geom_bond_distance
_geom_bond_site_symmetry_2
Cs0 O3 3.056612 1_555
Cs0 O6 3.190941 1_455
Cs0 O8 3.190941 1_455
Cs0 I4 3.863040 1_545
Cs0 I2 3.863040 1_555
Cs0 I6 3.878045 1_455
Cs0 I0 3.878045 1_455
Cs0 I8 3.965766 1_555
Cs0 I13 3.999518 1_555
Cs1 O2 3.056612 1_555
Cs1 O9 3.190941 1_555
Cs1 O7 3.190941 1_555
Cs1 I5 3.863040 1_555
Cs1 I3 3.863040 1_545
Cs1 I7 3.878045 1_556
Cs1 I1 3.878045 1_556
Cs1 I9 3.965766 1_555
Cs1 I12 3.999518 1_556
Cs2 O1 3.056612 1_555
Cs2 O4 3.190941 1_655
Cs2 O10 3.190941 1_655
Cs2 I0 3.863040 1_565
Cs2 I6 3.863040 1_555
Cs2 I4 3.878045 1_655
Cs2 I2 3.878045 1_655
Cs2 I10 3.965766 1_555
Cs2 I15 3.999518 1_555
Cs3 O0 3.056612 1_555
Cs3 O11 3.190941 1_555
Cs3 O5 3.190941 1_555
Cs3 I7 3.863040 1_565
Cs3 I1 3.863040 1_555
Cs3 I3 3.878045 1_554
Cs3 I5 3.878045 1_554
Cs3 I11 3.965766 1_555
Cs3 I14 3.999518 1_554
Cs4 O5 3.162752 1_555
Cs4 O0 3.168762 1_555
Cs4 O10 3.358253 1_555
Cs4 I7 3.982048 1_565
Cs4 I4 4.005180 1_555
Cs4 I10 4.047274 1_555
Cs4 I12 4.053653 1_565
Cs4 I8 4.057777 1_565
Cs4 I13 4.155821 1_565
Cs5 O4 3.162752 1_655
Cs5 O1 3.168762 1_555
Cs5 O11 3.358253 1_555
Cs5 I6 3.982048 1_555
Cs5 I5 4.005180 1_554
Cs5 I11 4.047274 1_655
Cs5 I13 4.053653 1_655
Cs5 I9 4.057777 1_554
Cs5 I12 4.155821 1_555
Cs6 O7 3.162752 1_555
Cs6 O2 3.168762 1_555
Cs6 O8 3.358253 1_555
Cs6 I5 3.982048 1_555
Cs6 I6 4.005180 1_555
Cs6 I8 4.047274 1_555
Cs6 I14 4.053653 1_555
Cs6 I10 4.057777 1_555
Cs6 I15 4.155821 1_555
Cs7 O6 3.162752 1_455
Cs7 O3 3.168762 1_555
Cs7 O9 3.358253 1_555
Cs7 I4 3.982048 1_545
Cs7 I7 4.005180 1_556
Cs7 I9 4.047274 1_455
Cs7 I15 4.053653 1_445
Cs7 I11 4.057777 1_546
Cs7 I14 4.155821 1_545
Cs8 O9 3.162752 1_555
Cs8 O2 3.168762 1_555
Cs8 O6 3.358253 1_555
Cs8 I3 3.982048 1_545
Cs8 I0 4.005180 1_555
Cs8 I8 4.047274 1_555
Cs8 I14 4.053653 1_545
Cs8 I10 4.057777 1_545
Cs8 I15 4.155821 1_545
Cs9 O8 3.162752 1_455
Cs9 O3 3.168762 1_555
Cs9 O7 3.358253 1_555
Cs9 I2 3.982048 1_555
Cs9 I1 4.005180 1_556
Cs9 I9 4.047274 1_455
Cs9 I15 4.053653 1_455
Cs9 I11 4.057777 1_556
Cs9 I14 4.155821 1_555
Cs10 O11 3.162752 1_555
Cs10 O0 3.168762 1_555
Cs10 O4 3.358253 1_555
Cs10 I1 3.982048 1_555
Cs10 I2 4.005180 1_555
Cs10 I10 4.047274 1_555
Cs10 I12 4.053653 1_555
Cs10 I8 4.057777 1_555
Cs10 I13 4.155821 1_555
Cs11 O10 3.162752 1_655
Cs11 O1 3.168762 1_555
Cs11 O5 3.358253 1_555
Cs11 I0 3.982048 1_565
Cs11 I3 4.005180 1_554
Cs11 I11 4.047274 1_655
Cs11 I13 4.053653 1_665
Cs11 I9 4.057777 1_564
Cs11 I12 4.155821 1_565
Co0 I6 2.586032 1_555
Co0 I0 2.586032 1_555
Co0 I12 2.590728 1_555
Co0 I8 2.597645 1_555
Co1 I1 2.586032 1_555
Co1 I7 2.586032 1_555
Co1 I13 2.590728 1_555
Co1 I9 2.597645 1_454
Co2 I4 2.586032 1_555
Co2 I2 2.586032 1_555
Co2 I14 2.590728 1_555
Co2 I10 2.597645 1_555
Co3 I3 2.586032 1_555
Co3 I5 2.586032 1_555
Co3 I15 2.590728 1_555
Co3 I11 2.597645 1_656
N0 O10 1.261129 1_555
N0 O4 1.261129 1_555
N0 O0 1.264797 1_555
N1 O11 1.261129 1_555
N1 O5 1.261129 1_555
N1 O1 1.264797 1_555
N2 O8 1.261129 1_555
N2 O6 1.261129 1_555
N2 O2 1.264797 1_555
N3 O7 1.261129 1_555
N3 O9 1.261129 1_555
N3 O3 1.264797 1_555
