# generated using pymatgen
data_Nd2US5
_symmetry_space_group_name_H-M   'P 1'
_cell_length_a   7.53645119
_cell_length_b   8.15146082
_cell_length_c   11.89740701
_cell_angle_alpha   90.00000000
_cell_angle_beta   90.00000000
_cell_angle_gamma   90.00000000
_symmetry_Int_Tables_number   1
_chemical_formula_structural   Nd2US5
_chemical_formula_sum   'Nd8 U4 S20'
_cell_volume   730.89443513
_cell_formula_units_Z   4
loop_
 _symmetry_equiv_pos_site_id
 _symmetry_equiv_pos_as_xyz
  1  'x, y, z'
loop_
 _atom_site_type_symbol
 _atom_site_label
 _atom_site_symmetry_multiplicity
 _atom_site_fract_x
 _atom_site_fract_y
 _atom_site_fract_z
 _atom_site_occupancy
  Nd  Nd0  1  0.52284522  0.50012244  0.32310248  1
  Nd  Nd1  1  0.97715478  -0.00012244  0.82310248  1
  Nd  Nd2  1  0.47715478  0.00012244  0.67689752  1
  Nd  Nd3  1  0.02284522  0.49987756  0.17689752  1
  Nd  Nd4  1  0.47715478  0.49987756  0.67689752  1
  Nd  Nd5  1  0.02284522  0.00012244  0.17689752  1
  Nd  Nd6  1  0.52284522  -0.00012244  0.32310248  1
  Nd  Nd7  1  0.97715478  0.50012244  0.82310248  1
  U  U0  1  0.07257325  0.75000000  0.48991257  1
  U  U1  1  0.42742675  0.75000000  0.98991257  1
  U  U2  1  0.92742675  0.25000000  0.51008743  1
  U  U3  1  0.57257325  0.25000000  0.01008743  1
  S  S0  1  0.83808189  0.95876809  0.59546057  1
  S  S1  1  0.66191811  0.54123191  0.09546057  1
  S  S2  1  0.16191811  0.45876809  0.40453943  1
  S  S3  1  0.33808189  0.04123191  0.90453943  1
  S  S4  1  0.16191811  0.04123191  0.40453943  1
  S  S5  1  0.33808189  0.45876809  0.90453943  1
  S  S6  1  0.83808189  0.54123191  0.59546057  1
  S  S7  1  0.66191811  0.95876809  0.09546057  1
  S  S8  1  0.83049755  0.75000000  0.31429365  1
  S  S9  1  0.66950245  0.75000000  0.81429365  1
  S  S10  1  0.16950245  0.25000000  0.68570635  1
  S  S11  1  0.33049755  0.25000000  0.18570635  1
  S  S12  1  0.45562973  0.75000000  0.49927704  1
  S  S13  1  0.04437027  0.75000000  0.99927704  1
  S  S14  1  0.54437027  0.25000000  0.50072296  1
  S  S15  1  0.95562973  0.25000000  0.00072296  1
  S  S16  1  0.19628583  0.75000000  0.71426979  1
  S  S17  1  0.30371417  0.75000000  0.21426979  1
  S  S18  1  0.80371417  0.25000000  0.28573021  1
  S  S19  1  0.69628583  0.25000000  0.78573021  1
loop_
_geom_bond_atom_site_label_1
_geom_bond_atom_site_label_2
_geom_bond_distance
_geom_bond_site_symmetry_2
Nd0 S2 2.907125 1_555
Nd0 S1 2.923353 1_555
Nd0 S17 2.924510 1_555
Nd0 S14 2.940917 1_555
Nd0 S12 2.966267 1_555
Nd0 S18 2.972426 1_555
Nd0 S11 2.988388 1_555
Nd0 S8 3.088001 1_555
Nd1 S3 2.907125 1_655
Nd1 S0 2.923353 1_545
Nd1 S16 2.924510 1_645
Nd1 S15 2.940917 1_556
Nd1 S13 2.966267 1_645
Nd1 S19 2.972426 1_555
Nd1 S10 2.988388 1_655
Nd1 S9 3.088001 1_545
Nd2 S0 2.907125 1_545
Nd2 S3 2.923353 1_555
Nd2 S19 2.924510 1_555
Nd2 S12 2.940917 1_545
Nd2 S14 2.966267 1_555
Nd2 S16 2.972426 1_545
Nd2 S9 2.988388 1_545
Nd2 S10 3.088001 1_555
Nd3 S1 2.907125 1_455
Nd3 S2 2.923353 1_555
Nd3 S18 2.924510 1_455
Nd3 S13 2.940917 1_554
Nd3 S15 2.966267 1_455
Nd3 S17 2.972426 1_555
Nd3 S8 2.988388 1_455
Nd3 S11 3.088001 1_555
Nd4 S6 2.907125 1_555
Nd4 S5 2.923353 1_555
Nd4 S19 2.924510 1_555
Nd4 S12 2.940917 1_555
Nd4 S14 2.966267 1_555
Nd4 S16 2.972426 1_555
Nd4 S9 2.988388 1_555
Nd4 S10 3.088001 1_555
Nd5 S7 2.907125 1_445
Nd5 S4 2.923353 1_555
Nd5 S18 2.924510 1_455
Nd5 S13 2.940917 1_544
Nd5 S15 2.966267 1_455
Nd5 S17 2.972426 1_545
Nd5 S8 2.988388 1_445
Nd5 S11 3.088001 1_555
Nd6 S4 2.907125 1_555
Nd6 S7 2.923353 1_545
Nd6 S17 2.924510 1_545
Nd6 S14 2.940917 1_555
Nd6 S12 2.966267 1_545
Nd6 S18 2.972426 1_555
Nd6 S11 2.988388 1_555
Nd6 S8 3.088001 1_545
Nd7 S5 2.907125 1_655
Nd7 S6 2.923353 1_555
Nd7 S16 2.924510 1_655
Nd7 S15 2.940917 1_556
Nd7 S13 2.966267 1_655
Nd7 S19 2.972426 1_555
Nd7 S10 2.988388 1_655
Nd7 S9 3.088001 1_555
S0 U2 2.668481 1_565
S0 U0 2.756087 1_655
S1 U3 2.668481 1_555
S1 U1 2.756087 1_554
S2 U0 2.668481 1_555
S2 U2 2.756087 1_455
S3 U1 2.668481 1_545
S3 U3 2.756087 1_556
S4 U0 2.668481 1_545
S4 U2 2.756087 1_455
S5 U1 2.668481 1_555
S5 U3 2.756087 1_556
S6 U2 2.668481 1_555
S6 U0 2.756087 1_655
S7 U3 2.668481 1_565
S7 U1 2.756087 1_554
S8 U0 2.773813 1_655
S9 U1 2.773813 1_555
S10 U2 2.773813 1_455
S11 U3 2.773813 1_555
S12 U0 2.889036 1_555
S13 U1 2.889036 1_555
S14 U2 2.889036 1_555
S15 U3 2.889036 1_555
S16 U0 2.827416 1_555
S17 U1 2.827416 1_554
S18 U2 2.827416 1_555
S19 U3 2.827416 1_556
