# generated using pymatgen
data_Cs2TlCrF6
_symmetry_space_group_name_H-M   'P 1'
_cell_length_a   6.60505900
_cell_length_b   6.60505798
_cell_length_c   6.60505859
_cell_angle_alpha   60.00000299
_cell_angle_beta   60.00000296
_cell_angle_gamma   59.99999991
_symmetry_Int_Tables_number   1
_chemical_formula_structural   Cs2TlCrF6
_chemical_formula_sum   'Cs2 Tl1 Cr1 F6'
_cell_volume   203.75817001
_cell_formula_units_Z   1
loop_
 _symmetry_equiv_pos_site_id
 _symmetry_equiv_pos_as_xyz
  1  'x, y, z'
loop_
 _atom_site_type_symbol
 _atom_site_label
 _atom_site_symmetry_multiplicity
 _atom_site_fract_x
 _atom_site_fract_y
 _atom_site_fract_z
 _atom_site_occupancy
  Cs  Cs0  1  0.25000000  0.25000000  0.25000000  1
  Cs  Cs1  1  0.75000000  0.75000000  0.75000000  1
  Tl  Tl0  1  0.50000000  0.50000000  0.50000000  1
  Cr  Cr0  1  0.00000000  0.00000000  0.00000000  1
  F  F0  1  0.20864900  0.79135100  0.20864900  1
  F  F1  1  0.79135100  0.79135100  0.20864900  1
  F  F2  1  0.79135100  0.20864900  0.79135100  1
  F  F3  1  0.79135100  0.20864900  0.20864900  1
  F  F4  1  0.20864900  0.79135100  0.79135100  1
  F  F5  1  0.20864900  0.20864900  0.79135100  1
loop_
_geom_bond_atom_site_label_1
_geom_bond_atom_site_label_2
_geom_bond_distance
_geom_bond_site_symmetry_2
Cs0 F0 3.325040 1_555
Cs0 F0 3.325040 1_545
Cs0 F1 3.325041 1_455
Cs0 F4 3.325041 1_554
Cs0 F5 3.325041 1_554
Cs0 F1 3.325041 1_545
Cs0 F5 3.325041 1_555
Cs0 F4 3.325041 1_545
Cs0 F3 3.325041 1_455
Cs0 F2 3.325041 1_455
Cs0 F3 3.325041 1_555
Cs0 F2 3.325041 1_554
Cs1 F2 3.325040 1_555
Cs1 F2 3.325040 1_565
Cs1 F5 3.325041 1_655
Cs1 F3 3.325041 1_556
Cs1 F1 3.325041 1_556
Cs1 F5 3.325041 1_565
Cs1 F1 3.325041 1_555
Cs1 F3 3.325041 1_565
Cs1 F4 3.325041 1_655
Cs1 F0 3.325041 1_655
Cs1 F4 3.325041 1_555
Cs1 F0 3.325041 1_556
Cr0 F3 1.948983 1_455
Cr0 F4 1.948983 1_544
Cr0 F5 1.948983 1_554
Cr0 F0 1.948983 1_545
Cr0 F1 1.948983 1_445
Cr0 F2 1.948983 1_454
F0 Tl0 2.721499 1_555
F1 Tl0 2.721499 1_555
F2 Tl0 2.721499 1_555
F3 Tl0 2.721499 1_555
F4 Tl0 2.721499 1_555
F5 Tl0 2.721499 1_555
