# generated using pymatgen
data_Tb3Th
_symmetry_space_group_name_H-M   'P 1'
_cell_length_a   6.14592825
_cell_length_b   6.14592825
_cell_length_c   6.14592825
_cell_angle_alpha   131.09685951
_cell_angle_beta   131.09685951
_cell_angle_gamma   71.65923475
_symmetry_Int_Tables_number   1
_chemical_formula_structural   Tb3Th
_chemical_formula_sum   'Tb3 Th1'
_cell_volume   128.99015748
_cell_formula_units_Z   1
loop_
 _symmetry_equiv_pos_site_id
 _symmetry_equiv_pos_as_xyz
  1  'x, y, z'
loop_
 _atom_site_type_symbol
 _atom_site_label
 _atom_site_symmetry_multiplicity
 _atom_site_fract_x
 _atom_site_fract_y
 _atom_site_fract_z
 _atom_site_occupancy
  Tb  Tb0  1  0.75000000  0.25000000  0.50000000  1
  Tb  Tb1  1  0.25000000  0.75000000  0.50000000  1
  Tb  Tb2  1  0.50000000  0.50000000  -0.00000000  1
  Th  Th0  1  -0.00000000  -0.00000000  -0.00000000  1
loop_
_geom_bond_atom_site_label_1
_geom_bond_atom_site_label_2
_geom_bond_distance
_geom_bond_site_symmetry_2
Tb0 Tb2 3.560750 1_545
Tb0 Th0 3.560750 1_656
Tb0 Th0 3.560750 1_555
Tb0 Tb2 3.560750 1_555
Tb0 Th0 3.560750 1_655
Tb0 Tb2 3.560750 1_656
Tb0 Tb2 3.560750 1_556
Tb0 Th0 3.560750 1_666
Tb0 Tb1 3.597684 1_645
Tb0 Tb1 3.597684 1_555
Tb0 Tb1 3.597684 1_656
Tb0 Tb1 3.597684 1_544
Tb1 Th0 3.560750 1_565
Tb1 Tb2 3.560750 1_566
Tb1 Tb2 3.560750 1_455
Tb1 Th0 3.560750 1_555
Tb1 Tb2 3.560750 1_555
Tb1 Tb2 3.560750 1_556
Tb1 Th0 3.560750 1_566
Tb1 Th0 3.560750 1_666
Tb2 Th0 3.597684 1_554
Tb2 Th0 3.597684 1_565
Tb2 Th0 3.597684 1_666
Tb2 Th0 3.597684 1_655
