# generated using pymatgen
data_Ba2Tm2CuPtO8
_symmetry_space_group_name_H-M   'P 1'
_cell_length_a   5.69418700
_cell_length_b   10.36922600
_cell_length_c   13.29394700
_cell_angle_alpha   90.00000000
_cell_angle_beta   90.00000000
_cell_angle_gamma   90.00000000
_symmetry_Int_Tables_number   1
_chemical_formula_structural   Ba2Tm2CuPtO8
_chemical_formula_sum   'Ba8 Tm8 Cu4 Pt4 O32'
_cell_volume   784.93195291
_cell_formula_units_Z   4
loop_
 _symmetry_equiv_pos_site_id
 _symmetry_equiv_pos_as_xyz
  1  'x, y, z'
loop_
 _atom_site_type_symbol
 _atom_site_label
 _atom_site_symmetry_multiplicity
 _atom_site_fract_x
 _atom_site_fract_y
 _atom_site_fract_z
 _atom_site_occupancy
  Ba  Ba0  1  0.25000000  0.40725400  0.42276000  1
  Ba  Ba1  1  0.75000000  0.59274600  0.57724000  1
  Ba  Ba2  1  0.75000000  0.90725400  0.07724000  1
  Ba  Ba3  1  0.25000000  0.09274600  0.92276000  1
  Ba  Ba4  1  0.25000000  0.68495600  0.20717500  1
  Ba  Ba5  1  0.75000000  0.31504400  0.79282500  1
  Ba  Ba6  1  0.75000000  0.18495600  0.29282500  1
  Ba  Ba7  1  0.25000000  0.81504400  0.70717500  1
  Tm  Tm0  1  0.25000000  0.01286900  0.41734300  1
  Tm  Tm1  1  0.75000000  0.98713100  0.58265700  1
  Tm  Tm2  1  0.75000000  0.51286900  0.08265700  1
  Tm  Tm3  1  0.25000000  0.48713100  0.91734300  1
  Tm  Tm4  1  0.25000000  0.31202200  0.14113700  1
  Tm  Tm5  1  0.75000000  0.68797800  0.85886300  1
  Tm  Tm6  1  0.75000000  0.81202200  0.35886300  1
  Tm  Tm7  1  0.25000000  0.18797800  0.64113700  1
  Cu  Cu0  1  0.25000000  0.73439200  0.46053900  1
  Cu  Cu1  1  0.75000000  0.26560800  0.53946100  1
  Cu  Cu2  1  0.75000000  0.23439200  0.03946100  1
  Cu  Cu3  1  0.25000000  0.76560800  0.96053900  1
  Pt  Pt0  1  0.25000000  0.03183900  0.19476100  1
  Pt  Pt1  1  0.75000000  0.96816100  0.80523900  1
  Pt  Pt2  1  0.75000000  0.53183900  0.30523900  1
  Pt  Pt3  1  0.25000000  0.46816100  0.69476100  1
  O  O0  1  0.25000000  0.18582600  0.29698000  1
  O  O1  1  0.75000000  0.81417400  0.70302000  1
  O  O2  1  0.75000000  0.68582600  0.20302000  1
  O  O3  1  0.25000000  0.31417400  0.79698000  1
  O  O4  1  0.50897400  0.44263700  0.21403000  1
  O  O5  1  0.49102600  0.55736300  0.78597000  1
  O  O6  1  0.49102600  0.94263700  0.28597000  1
  O  O7  1  0.00897400  0.55736300  0.78597000  1
  O  O8  1  0.50897400  0.05736300  0.71403000  1
  O  O9  1  0.99102600  0.44263700  0.21403000  1
  O  O10  1  0.99102600  0.05736300  0.71403000  1
  O  O11  1  0.00897400  0.94263700  0.28597000  1
  O  O12  1  0.00988500  0.14039100  0.11384100  1
  O  O13  1  0.99011500  0.85960900  0.88615900  1
  O  O14  1  0.99011500  0.64039100  0.38615900  1
  O  O15  1  0.50988500  0.85960900  0.88615900  1
  O  O16  1  0.00988500  0.35960900  0.61384100  1
  O  O17  1  0.49011500  0.14039100  0.11384100  1
  O  O18  1  0.49011500  0.35960900  0.61384100  1
  O  O19  1  0.50988500  0.64039100  0.38615900  1
  O  O20  1  0.50365300  0.36594900  0.00854800  1
  O  O21  1  0.49634700  0.63405100  0.99145200  1
  O  O22  1  0.49634700  0.86594900  0.49145200  1
  O  O23  1  0.00365300  0.63405100  0.99145200  1
  O  O24  1  0.50365300  0.13405100  0.50854800  1
  O  O25  1  0.99634700  0.36594900  0.00854800  1
  O  O26  1  0.99634700  0.13405100  0.50854800  1
  O  O27  1  0.00365300  0.86594900  0.49145200  1
  O  O28  1  0.25000000  0.60998600  0.58841700  1
  O  O29  1  0.75000000  0.39001400  0.41158300  1
  O  O30  1  0.75000000  0.10998600  0.91158300  1
  O  O31  1  0.25000000  0.89001400  0.08841700  1
loop_
_geom_bond_atom_site_label_1
_geom_bond_atom_site_label_2
_geom_bond_distance
_geom_bond_site_symmetry_2
Ba0 O0 2.840378 1_555
Ba0 O29 2.856567 1_555
Ba0 O29 2.856567 1_455
Ba0 O19 2.875887 1_555
Ba0 O14 2.875887 1_455
Ba0 O18 2.926807 1_555
Ba0 O16 2.926807 1_555
Ba0 O28 3.044499 1_555
Ba0 O4 3.163694 1_555
Ba0 O9 3.163694 1_455
Ba0 O24 3.378185 1_555
Ba0 O26 3.378185 1_455
Ba1 O1 2.840378 1_555
Ba1 O28 2.856567 1_655
Ba1 O28 2.856567 1_555
Ba1 O16 2.875887 1_655
Ba1 O18 2.875887 1_555
Ba1 O14 2.926807 1_555
Ba1 O19 2.926807 1_555
Ba1 O29 3.044499 1_555
Ba1 O7 3.163694 1_655
Ba1 O5 3.163694 1_555
Ba1 O27 3.378185 1_655
Ba1 O22 3.378185 1_555
Ba2 O2 2.840378 1_555
Ba2 O31 2.856567 1_555
Ba2 O31 2.856567 1_655
Ba2 O12 2.875887 1_665
Ba2 O17 2.875887 1_565
Ba2 O13 2.926807 1_554
Ba2 O15 2.926807 1_554
Ba2 O30 3.044499 1_564
Ba2 O11 3.163694 1_655
Ba2 O6 3.163694 1_555
Ba2 O23 3.378185 1_654
Ba2 O21 3.378185 1_554
Ba3 O3 2.840378 1_555
Ba3 O30 2.856567 1_555
Ba3 O30 2.856567 1_455
Ba3 O15 2.875887 1_545
Ba3 O13 2.875887 1_445
Ba3 O17 2.926807 1_556
Ba3 O12 2.926807 1_556
Ba3 O31 3.044499 1_546
Ba3 O8 3.163694 1_555
Ba3 O10 3.163694 1_455
Ba3 O25 3.378185 1_456
Ba3 O20 3.378185 1_556
Ba4 O31 2.648322 1_555
Ba4 O19 2.839896 1_555
Ba4 O14 2.839896 1_455
Ba4 O2 2.847644 1_555
Ba4 O2 2.847644 1_455
Ba4 O4 2.914850 1_555
Ba4 O9 2.914850 1_455
Ba4 O6 3.181225 1_555
Ba4 O11 3.181225 1_555
Ba4 O23 3.235839 1_554
Ba4 O21 3.235839 1_554
Ba5 O30 2.648322 1_555
Ba5 O16 2.839896 1_655
Ba5 O18 2.839896 1_555
Ba5 O3 2.847644 1_555
Ba5 O3 2.847644 1_655
Ba5 O7 2.914850 1_655
Ba5 O5 2.914850 1_555
Ba5 O10 3.181225 1_555
Ba5 O8 3.181225 1_555
Ba5 O20 3.235839 1_556
Ba5 O25 3.235839 1_556
Ba6 O29 2.648322 1_555
Ba6 O12 2.839896 1_655
Ba6 O17 2.839896 1_555
Ba6 O0 2.847644 1_555
Ba6 O0 2.847644 1_655
Ba6 O11 2.914850 1_645
Ba6 O6 2.914850 1_545
Ba6 O9 3.181225 1_555
Ba6 O4 3.181225 1_555
Ba6 O26 3.235839 1_555
Ba6 O24 3.235839 1_555
Ba7 O28 2.648322 1_555
Ba7 O15 2.839896 1_555
Ba7 O13 2.839896 1_455
Ba7 O1 2.847644 1_455
Ba7 O1 2.847644 1_555
Ba7 O8 2.914850 1_565
Ba7 O10 2.914850 1_465
Ba7 O5 3.181225 1_555
Ba7 O7 3.181225 1_555
Ba7 O27 3.235839 1_555
Ba7 O22 3.235839 1_555
Cu0 O22 1.999367 1_555
Cu0 O27 1.999367 1_555
Cu0 O19 2.029215 1_555
Cu0 O14 2.029215 1_455
Cu0 O28 2.134033 1_555
Cu1 O24 1.999367 1_555
Cu1 O26 1.999367 1_555
Cu1 O16 2.029215 1_655
Cu1 O18 2.029215 1_555
Cu1 O29 2.134033 1_555
Cu2 O25 1.999367 1_555
Cu2 O20 1.999367 1_555
Cu2 O12 2.029215 1_655
Cu2 O17 2.029215 1_555
Cu2 O30 2.134033 1_554
Cu3 O23 1.999367 1_555
Cu3 O21 1.999367 1_555
Cu3 O15 2.029215 1_555
Cu3 O13 2.029215 1_455
Cu3 O31 2.134033 1_556
O0 Pt0 2.096694 1_555
O0 Tm0 2.403479 1_555
O0 Tm4 2.450416 1_555
O1 Pt1 2.096694 1_555
O1 Tm1 2.403479 1_555
O1 Tm5 2.450416 1_555
O2 Pt2 2.096694 1_555
O2 Tm2 2.403479 1_555
O2 Tm6 2.450416 1_555
O3 Pt3 2.096694 1_555
O3 Tm3 2.403479 1_555
O3 Tm7 2.450416 1_555
O4 Pt2 2.051677 1_555
O4 Tm4 2.224398 1_555
O4 Tm2 2.337542 1_555
O5 Pt3 2.051677 1_555
O5 Tm5 2.224398 1_555
O5 Tm3 2.337542 1_555
O6 Pt0 2.051677 1_565
O6 Tm6 2.224398 1_555
O6 Tm0 2.337542 1_565
O7 Pt3 2.051677 1_555
O7 Tm5 2.224398 1_455
O7 Tm3 2.337542 1_555
O8 Pt1 2.051677 1_545
O8 Tm7 2.224398 1_555
O8 Tm1 2.337542 1_545
O9 Pt2 2.051677 1_555
O9 Tm4 2.224398 1_655
O9 Tm2 2.337542 1_555
O10 Pt1 2.051677 1_545
O10 Tm7 2.224398 1_655
O10 Tm1 2.337542 1_545
O11 Pt0 2.051677 1_565
O11 Tm6 2.224398 1_455
O11 Tm0 2.337542 1_565
O12 Pt0 2.072102 1_555
O12 Tm4 2.273398 1_555
O13 Pt1 2.072102 1_555
O13 Tm5 2.273398 1_555
O14 Pt2 2.072102 1_555
O14 Tm6 2.273398 1_555
O15 Pt1 2.072102 1_555
O15 Tm5 2.273398 1_555
O16 Pt3 2.072102 1_555
O16 Tm7 2.273398 1_555
O17 Pt0 2.072102 1_555
O17 Tm4 2.273398 1_555
O18 Pt3 2.072102 1_555
O18 Tm7 2.273398 1_555
O19 Pt2 2.072102 1_555
O19 Tm6 2.273398 1_555
O20 Tm3 2.266095 1_554
O20 Tm2 2.293296 1_555
O20 Tm4 2.346421 1_555
O21 Tm2 2.266095 1_556
O21 Tm3 2.293296 1_555
O21 Tm5 2.346421 1_555
O22 Tm1 2.266095 1_555
O22 Tm0 2.293296 1_565
O22 Tm6 2.346421 1_555
O23 Tm2 2.266095 1_456
O23 Tm3 2.293296 1_555
O23 Tm5 2.346421 1_455
O24 Tm0 2.266095 1_555
O24 Tm1 2.293296 1_545
O24 Tm7 2.346421 1_555
O25 Tm3 2.266095 1_654
O25 Tm2 2.293296 1_555
O25 Tm4 2.346421 1_655
O26 Tm0 2.266095 1_655
O26 Tm1 2.293296 1_545
O26 Tm7 2.346421 1_655
O27 Tm1 2.266095 1_455
O27 Tm0 2.293296 1_565
O27 Tm6 2.346421 1_455
O28 Pt3 2.039938 1_555
O29 Pt2 2.039938 1_555
O30 Pt1 2.039938 1_545
O31 Pt0 2.039938 1_565
