# generated using pymatgen
data_Ho(FeGe)6
_symmetry_space_group_name_H-M   'P 1'
_cell_length_a   5.10984500
_cell_length_b   8.12839900
_cell_length_c   9.73382554
_cell_angle_alpha   114.67897605
_cell_angle_beta   90.00000000
_cell_angle_gamma   90.00000000
_symmetry_Int_Tables_number   1
_chemical_formula_structural   Ho(FeGe)6
_chemical_formula_sum   'Ho2 Fe12 Ge12'
_cell_volume   367.36552711
_cell_formula_units_Z   2
loop_
 _symmetry_equiv_pos_site_id
 _symmetry_equiv_pos_as_xyz
  1  'x, y, z'
loop_
 _atom_site_type_symbol
 _atom_site_label
 _atom_site_symmetry_multiplicity
 _atom_site_fract_x
 _atom_site_fract_y
 _atom_site_fract_z
 _atom_site_occupancy
  Ho  Ho0  1  0.25000000  0.12634100  0.25268200  1
  Ho  Ho1  1  0.75000000  0.87365900  0.74731800  1
  Fe  Fe0  1  0.50000000  0.00000000  0.50000000  1
  Fe  Fe1  1  0.50000000  0.50000000  0.50000000  1
  Fe  Fe2  1  0.00000000  0.00000000  0.50000000  1
  Fe  Fe3  1  0.00000000  0.50000000  0.50000000  1
  Fe  Fe4  1  0.50000000  0.75028400  0.00000000  1
  Fe  Fe5  1  0.00000000  0.75028400  0.00000000  1
  Fe  Fe6  1  0.50000000  0.24971600  0.00000000  1
  Fe  Fe7  1  0.00000000  0.24971600  0.00000000  1
  Fe  Fe8  1  0.75000000  0.87447300  0.24995200  1
  Fe  Fe9  1  0.25000000  0.62452100  0.75004800  1
  Fe  Fe10  1  0.25000000  0.12552700  0.75004800  1
  Fe  Fe11  1  0.75000000  0.37547900  0.24995200  1
  Ge  Ge0  1  0.75000000  0.04229700  0.08459400  1
  Ge  Ge1  1  0.25000000  0.95770300  0.91540600  1
  Ge  Ge2  1  0.75000000  0.54151500  0.08302900  1
  Ge  Ge3  1  0.25000000  0.45848500  0.91697100  1
  Ge  Ge4  1  0.75000000  0.21069600  0.42139200  1
  Ge  Ge5  1  0.25000000  0.78930400  0.57860800  1
  Ge  Ge6  1  0.75000000  0.70527800  0.41055700  1
  Ge  Ge7  1  0.25000000  0.29472200  0.58944300  1
  Ge  Ge8  1  0.25000000  0.77808300  0.24896900  1
  Ge  Ge9  1  0.75000000  0.52911400  0.75103100  1
  Ge  Ge10  1  0.75000000  0.22191700  0.75103100  1
  Ge  Ge11  1  0.25000000  0.47088600  0.24896900  1
loop_
_geom_bond_atom_site_label_1
_geom_bond_atom_site_label_2
_geom_bond_distance
_geom_bond_site_symmetry_2
Fe0 Ge5 2.498947 1_545
Fe0 Ge4 2.498947 1_555
Fe0 Ge7 2.527290 1_555
Fe0 Ge6 2.527290 1_545
Fe0 Fe8 2.554047 1_545
Fe0 Fe10 2.554047 1_555
Fe0 Fe2 2.554922 1_655
Fe0 Fe2 2.554922 1_555
Fe0 Ge10 2.678747 1_555
Fe0 Ge8 2.678747 1_545
Fe0 Ho0 3.247514 1_555
Fe0 Ho1 3.247514 1_545
Fe1 Ge4 2.498947 1_555
Fe1 Ge5 2.498947 1_555
Fe1 Ge6 2.527283 1_555
Fe1 Ge7 2.527283 1_555
Fe1 Fe11 2.554047 1_555
Fe1 Fe9 2.554047 1_555
Fe1 Fe3 2.554922 1_655
Fe1 Fe3 2.554922 1_555
Fe1 Ge11 2.678747 1_555
Fe1 Ge9 2.678747 1_555
Fe1 Ho0 3.247514 1_555
Fe1 Ho1 3.247514 1_555
Fe2 Ge5 2.498947 1_545
Fe2 Ge4 2.498947 1_455
Fe2 Ge7 2.527290 1_555
Fe2 Ge6 2.527290 1_445
Fe2 Fe8 2.554047 1_445
Fe2 Ge10 2.678747 1_455
Fe2 Ge8 2.678747 1_545
Fe2 Ho0 3.247514 1_555
Fe2 Ho1 3.247514 1_445
Fe3 Ge4 2.498947 1_455
Fe3 Ge5 2.498947 1_555
Fe3 Ge6 2.527283 1_455
Fe3 Ge7 2.527283 1_555
Fe3 Fe9 2.554047 1_555
Fe3 Ge11 2.678747 1_555
Fe3 Ge9 2.678747 1_455
Fe3 Ho0 3.247514 1_555
Fe3 Ho1 3.247514 1_455
Fe4 Ge2 2.511973 1_555
Fe4 Ge3 2.511980 1_554
Fe4 Ge0 2.512326 1_565
Fe4 Ge1 2.512326 1_554
Fe4 Fe9 2.553316 1_554
Fe4 Fe8 2.553316 1_555
Fe4 Fe5 2.554922 1_555
Fe4 Fe5 2.554922 1_655
Fe4 Ge9 2.664329 1_554
Fe4 Ge8 2.664330 1_555
Fe4 Ho0 3.278228 1_565
Fe4 Ho1 3.278228 1_554
Fe5 Ge2 2.511973 1_455
Fe5 Ge3 2.511980 1_554
Fe5 Ge0 2.512326 1_465
Fe5 Ge1 2.512326 1_554
Fe5 Fe9 2.553316 1_554
Fe5 Fe8 2.553316 1_455
Fe5 Ge9 2.664329 1_454
Fe5 Ge8 2.664330 1_555
Fe5 Ho0 3.278228 1_565
Fe5 Ho1 3.278228 1_454
Fe6 Ge3 2.511973 1_554
Fe6 Ge2 2.511980 1_555
Fe6 Ge1 2.512326 1_544
Fe6 Ge0 2.512326 1_555
Fe6 Fe7 2.554922 1_555
Fe6 Fe7 2.554922 1_655
Fe6 Ge11 2.664329 1_555
Fe6 Ge10 2.664330 1_554
Fe6 Ho1 3.278228 1_544
Fe6 Ho0 3.278228 1_555
Fe7 Ge3 2.511973 1_554
Fe7 Ge2 2.511980 1_455
Fe7 Ge1 2.512326 1_544
Fe7 Ge0 2.512326 1_455
Fe7 Ge11 2.664329 1_555
Fe7 Ge10 2.664330 1_454
Fe7 Ho1 3.278228 1_444
Fe7 Ho0 3.278228 1_555
Fe8 Ge6 2.476025 1_555
Fe8 Ge0 2.507014 1_565
Fe8 Ge2 2.508495 1_555
Fe8 Ge4 2.538772 1_565
Fe8 Ge8 2.671203 1_655
Fe8 Ge8 2.671203 1_555
Fe8 Ho0 3.267151 1_565
Fe8 Ho0 3.267151 1_665
Fe9 Ge7 2.476018 1_555
Fe9 Ge1 2.507013 1_555
Fe9 Ge3 2.508502 1_555
Fe9 Ge5 2.538772 1_555
Fe9 Ge9 2.671203 1_455
Fe9 Ge9 2.671203 1_555
Fe9 Ho1 3.267151 1_455
Fe9 Ho1 3.267151 1_555
Fe10 Ge7 2.476025 1_555
Fe10 Ge1 2.507014 1_545
Fe10 Ge3 2.508495 1_555
Fe10 Ge5 2.538772 1_545
Fe10 Fe6 2.553316 1_556
Fe10 Fe7 2.553316 1_556
Fe10 Fe2 2.554047 1_555
Fe10 Ge10 2.671203 1_455
Fe10 Ge10 2.671203 1_555
Fe10 Ho1 3.267151 1_445
Fe10 Ho1 3.267151 1_545
Fe11 Ge6 2.476018 1_555
Fe11 Ge0 2.507013 1_555
Fe11 Ge2 2.508502 1_555
Fe11 Ge4 2.538772 1_555
Fe11 Fe6 2.553316 1_555
Fe11 Fe7 2.553316 1_655
Fe11 Fe3 2.554047 1_655
Fe11 Ge11 2.671203 1_655
Fe11 Ge11 2.671203 1_555
Fe11 Ho0 3.267151 1_655
Fe11 Ho0 3.267151 1_555
Ge0 Ho0 2.955993 1_655
Ge0 Ho0 2.955993 1_555
Ge0 Ho1 2.983123 1_544
Ge1 Ho1 2.955993 1_555
Ge1 Ho1 2.955993 1_455
Ge1 Ho0 2.983123 1_566
Ge4 Ho0 2.958764 1_655
Ge4 Ho0 2.958764 1_555
Ge5 Ho1 2.958764 1_455
Ge5 Ho1 2.958764 1_555
Ge6 Ho1 2.978568 1_555
Ge7 Ho0 2.978568 1_555
Ge8 Ho0 2.815881 1_565
Ge9 Ho1 2.815881 1_555
Ge10 Ge9 2.497020 1_555
Ge10 Ho1 2.815881 1_545
Ge11 Ge8 2.497020 1_555
Ge11 Ho0 2.815881 1_555
