# generated using pymatgen
data_Si5Ir4
_symmetry_space_group_name_H-M   'P 1'
_cell_length_a   3.65278700
_cell_length_b   5.94335235
_cell_length_c   12.45142482
_cell_angle_alpha   100.03414556
_cell_angle_beta   90.00000000
_cell_angle_gamma   90.00000000
_symmetry_Int_Tables_number   1
_chemical_formula_structural   Si5Ir4
_chemical_formula_sum   'Si10 Ir8'
_cell_volume   266.18318688
_cell_formula_units_Z   2
loop_
 _symmetry_equiv_pos_site_id
 _symmetry_equiv_pos_as_xyz
  1  'x, y, z'
loop_
 _atom_site_type_symbol
 _atom_site_label
 _atom_site_symmetry_multiplicity
 _atom_site_fract_x
 _atom_site_fract_y
 _atom_site_fract_z
 _atom_site_occupancy
  Si  Si0  1  0.25000000  0.64283800  0.63708000  1
  Si  Si1  1  0.75000000  0.35716200  0.36292000  1
  Si  Si2  1  0.25000000  0.89046200  0.42415300  1
  Si  Si3  1  0.75000000  0.10953800  0.57584700  1
  Si  Si4  1  0.25000000  0.47220200  0.22462200  1
  Si  Si5  1  0.75000000  0.52779800  0.77537800  1
  Si  Si6  1  0.75000000  0.97829700  0.14099000  1
  Si  Si7  1  0.25000000  0.02170300  0.85901000  1
  Si  Si8  1  0.25000000  0.49130700  0.92161300  1
  Si  Si9  1  0.75000000  0.50869300  0.07838700  1
  Ir  Ir0  1  0.25000000  0.21876600  0.04926800  1
  Ir  Ir1  1  0.75000000  0.78123400  0.95073200  1
  Ir  Ir2  1  0.25000000  0.10746000  0.27365700  1
  Ir  Ir3  1  0.75000000  0.89254000  0.72634300  1
  Ir  Ir4  1  0.25000000  0.30017900  0.50153800  1
  Ir  Ir5  1  0.75000000  0.69982100  0.49846200  1
  Ir  Ir6  1  0.25000000  0.28983500  0.73121300  1
  Ir  Ir7  1  0.75000000  0.71016500  0.26878700  1
loop_
_geom_bond_atom_site_label_1
_geom_bond_atom_site_label_2
_geom_bond_distance
_geom_bond_site_symmetry_2
Ir0 Si4 2.426941 1_555
Ir0 Si7 2.452950 1_554
Ir0 Si8 2.459153 1_554
Ir0 Si9 2.493725 1_555
Ir0 Si9 2.493725 1_455
Ir0 Si6 2.692845 1_445
Ir0 Si6 2.692845 1_545
Ir1 Si5 2.426941 1_555
Ir1 Si6 2.452950 1_556
Ir1 Si9 2.459153 1_556
Ir1 Si8 2.493725 1_655
Ir1 Si8 2.493725 1_555
Ir1 Si7 2.692845 1_665
Ir1 Si7 2.692845 1_565
Ir2 Si4 2.352299 1_555
Ir2 Si2 2.452945 1_545
Ir2 Si1 2.489719 1_555
Ir2 Si1 2.489719 1_455
Ir2 Si6 2.492363 1_445
Ir2 Si6 2.492363 1_545
Ir3 Si5 2.352299 1_555
Ir3 Si3 2.452945 1_565
Ir3 Si0 2.489719 1_555
Ir3 Si0 2.489719 1_655
Ir3 Si7 2.492363 1_665
Ir3 Si7 2.492363 1_565
Ir4 Si0 2.407924 1_555
Ir4 Si3 2.416800 1_455
Ir4 Si3 2.416800 1_555
Ir4 Si2 2.457739 1_545
Ir4 Si1 2.575491 1_455
Ir4 Si1 2.575491 1_555
Ir5 Si1 2.407924 1_555
Ir5 Si2 2.416800 1_555
Ir5 Si2 2.416800 1_655
Ir5 Si3 2.457739 1_565
Ir5 Si0 2.575491 1_555
Ir5 Si0 2.575491 1_655
Ir6 Si5 2.316752 1_555
Ir6 Si5 2.316752 1_455
Ir6 Si7 2.440353 1_555
Ir6 Si8 2.462731 1_555
Ir6 Si0 2.575345 1_555
Ir6 Si3 2.739343 1_555
Ir6 Si3 2.739343 1_455
Ir7 Si4 2.316752 1_555
Ir7 Si4 2.316752 1_655
Ir7 Si6 2.440353 1_555
Ir7 Si9 2.462731 1_555
Ir7 Si1 2.575345 1_555
Ir7 Si2 2.739343 1_555
Ir7 Si2 2.739343 1_655
