# generated using pymatgen
data_CaMg6Ti
_symmetry_space_group_name_H-M   'P 1'
_cell_length_a   5.15148900
_cell_length_b   6.76798100
_cell_length_c   11.11376400
_cell_angle_alpha   90.00000000
_cell_angle_beta   90.00000000
_cell_angle_gamma   90.00000000
_symmetry_Int_Tables_number   1
_chemical_formula_structural   CaMg6Ti
_chemical_formula_sum   'Ca2 Mg12 Ti2'
_cell_volume   387.48337871
_cell_formula_units_Z   2
loop_
 _symmetry_equiv_pos_site_id
 _symmetry_equiv_pos_as_xyz
  1  'x, y, z'
loop_
 _atom_site_type_symbol
 _atom_site_label
 _atom_site_symmetry_multiplicity
 _atom_site_fract_x
 _atom_site_fract_y
 _atom_site_fract_z
 _atom_site_occupancy
  Ca  Ca0  1  0.50000000  0.50000000  0.33710000  1
  Ca  Ca1  1  0.50000000  0.00000000  0.83710000  1
  Mg  Mg0  1  0.50000000  0.74934600  0.08333000  1
  Mg  Mg1  1  0.50000000  0.25065400  0.08333000  1
  Mg  Mg2  1  0.00000000  0.73066600  0.91376900  1
  Mg  Mg3  1  0.00000000  0.26933400  0.91376900  1
  Mg  Mg4  1  0.00000000  0.50000000  0.15790900  1
  Mg  Mg5  1  0.00000000  0.50000000  0.67107200  1
  Mg  Mg6  1  0.50000000  0.24934600  0.58333000  1
  Mg  Mg7  1  0.50000000  0.75065400  0.58333000  1
  Mg  Mg8  1  0.00000000  0.23066600  0.41376900  1
  Mg  Mg9  1  0.00000000  0.76933400  0.41376900  1
  Mg  Mg10  1  0.00000000  0.00000000  0.65790900  1
  Mg  Mg11  1  0.00000000  0.00000000  0.17107200  1
  Ti  Ti0  1  0.50000000  0.50000000  0.83972500  1
  Ti  Ti1  1  0.50000000  0.00000000  0.33972500  1
loop_
_geom_bond_atom_site_label_1
_geom_bond_atom_site_label_2
_geom_bond_distance
_geom_bond_site_symmetry_2
Ca0 Mg6 3.219706 1_555
Ca0 Mg7 3.219706 1_555
Ca0 Mg4 3.255838 1_555
Ca0 Mg4 3.255838 1_655
Ca0 Mg9 3.268528 1_655
Ca0 Mg8 3.268528 1_555
Ca0 Mg8 3.268528 1_655
Ca0 Mg9 3.268528 1_555
Ca0 Mg1 3.286671 1_555
Ca0 Mg0 3.286671 1_555
Ca0 Ti1 3.384116 1_555
Ca0 Ti1 3.384116 1_565
Ca1 Mg1 3.219706 1_556
Ca1 Mg0 3.219706 1_546
Ca1 Mg10 3.255838 1_655
Ca1 Mg10 3.255838 1_555
Ca1 Mg2 3.268528 1_645
Ca1 Mg2 3.268528 1_545
Ca1 Mg3 3.268528 1_555
Ca1 Mg3 3.268528 1_655
Ca1 Mg7 3.286671 1_545
Ca1 Mg6 3.286671 1_555
Ca1 Ti0 3.384116 1_545
Ca1 Ti0 3.384116 1_555
Mg0 Mg4 3.188941 1_655
Mg0 Mg4 3.188941 1_555
Mg0 Ti0 3.190256 1_554
Mg0 Mg2 3.194000 1_654
Mg0 Mg2 3.194000 1_554
Mg0 Mg11 3.234689 1_565
Mg0 Mg11 3.234689 1_665
Mg0 Ti1 3.316259 1_565
Mg0 Mg1 3.375138 1_555
Mg0 Mg1 3.392843 1_565
Mg1 Mg4 3.188941 1_555
Mg1 Mg4 3.188941 1_655
Mg1 Ti0 3.190256 1_554
Mg1 Mg3 3.194000 1_654
Mg1 Mg3 3.194000 1_554
Mg1 Mg11 3.234689 1_555
Mg1 Mg11 3.234689 1_655
Mg1 Ti1 3.316259 1_555
Mg2 Mg5 3.116484 1_555
Mg2 Mg3 3.122286 1_555
Mg2 Ti0 3.122308 1_455
Mg2 Ti0 3.122308 1_555
Mg2 Mg4 3.130374 1_556
Mg3 Mg5 3.116484 1_555
Mg3 Ti0 3.122308 1_455
Mg3 Ti0 3.122308 1_555
Mg3 Mg4 3.130374 1_556
Mg4 Mg8 3.377669 1_555
Mg4 Mg9 3.377669 1_555
Mg5 Ti0 3.185549 1_555
Mg5 Ti0 3.185549 1_455
Mg5 Mg6 3.234689 1_455
Mg5 Mg6 3.234689 1_555
Mg5 Mg7 3.234689 1_455
Mg5 Mg7 3.234689 1_555
Mg5 Mg9 3.391182 1_555
Mg5 Mg8 3.391182 1_555
Mg6 Ti1 3.190256 1_555
Mg6 Mg8 3.194000 1_555
Mg6 Mg8 3.194000 1_655
Mg6 Ti0 3.316259 1_555
Mg6 Mg7 3.375138 1_545
Mg6 Mg7 3.392843 1_555
Mg7 Ti1 3.190256 1_565
Mg7 Mg9 3.194000 1_555
Mg7 Mg9 3.194000 1_655
Mg7 Ti0 3.316259 1_555
Mg8 Mg9 3.122286 1_545
Mg8 Ti1 3.122308 1_555
Mg8 Ti1 3.122308 1_455
Mg9 Ti1 3.122308 1_565
Mg9 Ti1 3.122308 1_465
Mg10 Mg8 3.130374 1_555
Mg10 Mg9 3.130374 1_545
Mg10 Mg7 3.188941 1_445
Mg10 Mg7 3.188941 1_545
Mg10 Mg6 3.188941 1_455
Mg10 Mg6 3.188941 1_555
Mg10 Mg2 3.377669 1_545
Mg10 Mg3 3.377669 1_555
Mg10 Mg5 3.387151 1_555
Mg10 Mg5 3.387151 1_545
Mg11 Mg8 3.116484 1_555
Mg11 Mg9 3.116484 1_545
Mg11 Ti1 3.185549 1_455
Mg11 Ti1 3.185549 1_555
Mg11 Mg4 3.387151 1_555
Mg11 Mg4 3.387151 1_545
Mg11 Mg2 3.391182 1_544
Mg11 Mg3 3.391182 1_554
