# generated using pymatgen
data_Sc2MnNiO6
_symmetry_space_group_name_H-M   'P 1'
_cell_length_a   5.05269453
_cell_length_b   5.38846200
_cell_length_c   7.50071000
_cell_angle_alpha   89.99998173
_cell_angle_beta   90.79277284
_cell_angle_gamma   89.99979177
_symmetry_Int_Tables_number   1
_chemical_formula_structural   Sc2MnNiO6
_chemical_formula_sum   'Sc4 Mn2 Ni2 O12'
_cell_volume   204.19667586
_cell_formula_units_Z   2
loop_
 _symmetry_equiv_pos_site_id
 _symmetry_equiv_pos_as_xyz
  1  'x, y, z'
loop_
 _atom_site_type_symbol
 _atom_site_label
 _atom_site_symmetry_multiplicity
 _atom_site_fract_x
 _atom_site_fract_y
 _atom_site_fract_z
 _atom_site_occupancy
  Sc  Sc0  1  0.52780600  0.57314000  0.24558300  1
  Sc  Sc1  1  0.02780600  0.92685900  0.74558000  1
  Sc  Sc2  1  0.47219100  0.42686100  0.75441600  1
  Sc  Sc3  1  0.97219500  0.07314900  0.25442300  1
  Mn  Mn0  1  0.00000300  0.49999700  0.00001600  1
  Mn  Mn1  1  0.49999200  0.00000400  0.49999600  1
  Ni  Ni0  1  0.99999400  0.50000700  0.49999500  1
  Ni  Ni1  1  0.49999900  0.99999500  0.99999400  1
  O  O0  1  0.14099300  0.43802200  0.23896200  1
  O  O1  1  0.64099400  0.06198000  0.73896900  1
  O  O2  1  0.85901100  0.56198000  0.76103700  1
  O  O3  1  0.35900800  0.93801300  0.26102900  1
  O  O4  1  0.30537100  0.68365200  0.93421400  1
  O  O5  1  0.80536900  0.81634100  0.43421100  1
  O  O6  1  0.69463400  0.31634600  0.06578500  1
  O  O7  1  0.19463200  0.18365600  0.56579000  1
  O  O8  1  0.82277300  0.79840200  0.07767700  1
  O  O9  1  0.32276800  0.70160100  0.57768100  1
  O  O10  1  0.17722900  0.20159600  0.92232000  1
  O  O11  1  0.67723300  0.29839900  0.42232200  1
loop_
_geom_bond_atom_site_label_1
_geom_bond_atom_site_label_2
_geom_bond_distance
_geom_bond_site_symmetry_2
Mn0 O6 1.903782 1_455
Mn0 O4 1.903856 1_554
Mn0 O8 1.934200 1_455
Mn0 O10 1.934254 1_554
Mn0 O0 1.948303 1_555
Mn0 O2 1.948541 1_454
Mn1 O7 1.903793 1_555
Mn1 O5 1.903875 1_545
Mn1 O11 1.934216 1_555
Mn1 O9 1.934238 1_545
Mn1 O3 1.948453 1_545
Mn1 O1 1.948512 1_555
Ni0 O5 2.025480 1_555
Ni0 O7 2.025609 1_655
Ni0 O11 2.037859 1_555
Ni0 O9 2.037898 1_655
Ni0 O0 2.119247 1_655
Ni0 O2 2.119271 1_555
Ni1 O4 2.025528 1_555
Ni1 O6 2.025601 1_566
Ni1 O10 2.037871 1_565
Ni1 O8 2.037882 1_556
Ni1 O1 2.119185 1_565
Ni1 O3 2.119245 1_556
O0 Sc0 2.085607 1_555
O0 Sc3 2.146899 1_455
O1 Sc1 2.085602 1_645
O1 Sc2 2.146937 1_555
O2 Sc2 2.085642 1_555
O2 Sc1 2.146921 1_655
O3 Sc3 2.085634 1_465
O3 Sc0 2.146887 1_555
O4 Sc2 2.115495 1_555
O4 Sc1 2.373035 1_555
O4 Sc0 2.645679 1_556
O5 Sc3 2.115522 1_565
O5 Sc0 2.372991 1_555
O5 Sc1 2.645692 1_655
O6 Sc0 2.115522 1_555
O6 Sc3 2.373011 1_555
O6 Sc2 2.645699 1_554
O7 Sc1 2.115493 1_545
O7 Sc2 2.372982 1_555
O7 Sc3 2.645666 1_455
O8 Sc3 2.119344 1_565
O8 Sc0 2.309254 1_555
O8 Sc1 2.797975 1_654
O9 Sc2 2.119264 1_555
O9 Sc1 2.309191 1_555
O9 Sc0 2.797995 1_555
O10 Sc1 2.119281 1_545
O10 Sc2 2.309237 1_555
O10 Sc3 2.798004 1_456
O11 Sc0 2.119294 1_555
O11 Sc3 2.309169 1_555
O11 Sc2 2.797978 1_555
