# generated using pymatgen
data_MgV12(BO5)4
_symmetry_space_group_name_H-M   'P 1'
_cell_length_a   3.19235669
_cell_length_b   9.70105873
_cell_length_c   12.93879506
_cell_angle_alpha   90.55376896
_cell_angle_beta   89.99999544
_cell_angle_gamma   90.00000542
_symmetry_Int_Tables_number   1
_chemical_formula_structural   MgV12(BO5)4
_chemical_formula_sum   'Mg1 V12 B4 O20'
_cell_volume   400.68593060
_cell_formula_units_Z   1
loop_
 _symmetry_equiv_pos_site_id
 _symmetry_equiv_pos_as_xyz
  1  'x, y, z'
loop_
 _atom_site_type_symbol
 _atom_site_label
 _atom_site_symmetry_multiplicity
 _atom_site_fract_x
 _atom_site_fract_y
 _atom_site_fract_z
 _atom_site_occupancy
  Mg  Mg0  1  0.00000007  0.49662510  0.86159147  1
  V  V0  1  0.49999946  0.00597667  0.22535643  1
  V  V1  1  0.50000029  0.99516940  0.77441560  1
  V  V2  1  0.50000013  0.49281271  0.69585081  1
  V  V3  1  0.49999992  0.50741822  0.28140271  1
  V  V4  1  0.50000045  0.00110334  0.49843139  1
  V  V5  1  0.49999993  0.48777430  0.03107679  1
  V  V6  1  0.00000009  0.24617530  0.38880275  1
  V  V7  1  0.00000044  0.75970626  0.60362519  1
  V  V8  1  0.99999999  0.23220941  0.89079832  1
  V  V9  1  0.99999956  0.75152923  0.11729522  1
  V  V10  1  0.99999979  0.99288404  0.00523251  1
  V  V11  1  0.00000011  0.50235238  0.49094422  1
  B  B0  1  0.99999993  0.27166627  0.14614929  1
  B  B1  1  0.00000026  0.73502042  0.85886425  1
  B  B2  1  0.00000030  0.22030637  0.63833797  1
  B  B3  1  0.99999987  0.77924547  0.35864396  1
  O  O0  1  0.99999971  0.34311518  0.04934146  1
  O  O1  1  0.00000003  0.65771324  0.95237700  1
  O  O2  1  0.00000028  0.15326195  0.54398875  1
  O  O3  1  0.00000034  0.84986026  0.45278221  1
  O  O4  1  0.99999968  0.12959673  0.14477444  1
  O  O5  1  0.00000018  0.87362792  0.85725780  1
  O  O6  1  0.00000016  0.36775843  0.63924258  1
  O  O7  1  0.99999982  0.63426302  0.35566660  1
  O  O8  1  0.50000009  0.11961615  0.36259668  1
  O  O9  1  0.50000047  0.88567879  0.63633511  1
  O  O10  1  0.50000001  0.38871165  0.85837976  1
  O  O11  1  0.49999952  0.62080257  0.14585099  1
  O  O12  1  0.99999987  0.34952244  0.23632440  1
  O  O13  1  0.00000046  0.65160065  0.76576528  1
  O  O14  1  0.00000037  0.14978139  0.73179337  1
  O  O15  1  0.99999950  0.85321596  0.26645420  1
  O  O16  1  0.50000008  0.39281570  0.42047508  1
  O  O17  1  0.50000024  0.60921112  0.56774241  1
  O  O18  1  0.49999996  0.09818716  0.92404321  1
  O  O19  1  0.49999963  0.89368680  0.08136479  1
loop_
_geom_bond_atom_site_label_1
_geom_bond_atom_site_label_2
_geom_bond_distance
_geom_bond_site_symmetry_2
Mg0 O10 1.909088 1_555
Mg0 O10 1.909088 1_455
Mg0 O1 1.945878 1_555
Mg0 O13 1.957962 1_555
B0 O4 1.378168 1_555
B0 O12 1.383744 1_555
B0 O0 1.437414 1_555
B1 O5 1.345001 1_555
B1 O1 1.429665 1_555
B1 O13 1.444677 1_555
B2 O2 1.377658 1_555
B2 O14 1.395078 1_555
B2 O6 1.430376 1_555
B3 O3 1.391675 1_655
B3 O15 1.397968 1_555
B3 O7 1.406639 1_555
O0 V5 2.139959 1_555
O0 V5 2.139960 1_655
O0 V8 2.307157 1_554
O1 V9 2.311721 1_456
O1 V5 2.516937 1_556
O1 V5 2.516937 1_456
O2 V6 2.208885 1_555
O2 V4 2.248843 1_455
O2 V4 2.248844 1_555
O3 V7 2.146424 1_555
O3 V4 2.243351 1_465
O3 V4 2.243351 1_565
O4 V10 2.229915 1_545
O4 V0 2.257704 1_655
O4 V0 2.257705 1_555
O5 V10 2.227414 1_456
O5 V1 2.260834 1_455
O5 V1 2.260834 1_555
O6 V2 2.130454 1_555
O6 V2 2.130454 1_455
O6 V11 2.331329 1_555
O7 V11 2.178190 1_655
O7 V3 2.227651 1_555
O7 V3 2.227652 1_655
O8 V6 2.040122 1_655
O8 V6 2.040122 1_555
O8 V0 2.081031 1_555
O8 V4 2.109456 1_555
O9 V7 2.051915 1_655
O9 V7 2.051915 1_555
O9 V1 2.069651 1_555
O9 V4 2.115702 1_565
O10 V8 2.245236 1_455
O10 V8 2.245236 1_555
O10 V2 2.341632 1_555
O10 V5 2.423838 1_556
O11 V5 1.957991 1_555
O11 V9 2.074043 1_555
O11 V9 2.074043 1_455
O11 V3 2.079244 1_555
O12 V6 2.221638 1_655
O12 V3 2.284072 1_555
O12 V3 2.284072 1_655
O13 V7 2.354476 1_555
O13 V2 2.389985 1_555
O13 V2 2.389987 1_455
O14 V8 2.200054 1_455
O14 V1 2.262212 1_545
O14 V1 2.262212 1_445
O15 V9 2.158930 1_555
O15 V0 2.245424 1_665
O15 V0 2.245424 1_565
O16 V11 2.118862 1_555
O16 V11 2.118862 1_655
O16 V3 2.124297 1_555
O16 V6 2.174431 1_555
O16 V6 2.174431 1_655
O17 V2 2.014641 1_555
O17 V11 2.142404 1_655
O17 V11 2.142404 1_555
O17 V7 2.209463 1_555
O17 V7 2.209464 1_655
O18 V8 2.105715 1_555
O18 V8 2.105715 1_455
O18 V1 2.170130 1_545
O18 V10 2.171550 1_546
O18 V10 2.171550 1_446
O19 V10 2.112465 1_455
O19 V10 2.112465 1_555
O19 V0 2.149063 1_565
O19 V9 2.162907 1_555
O19 V9 2.162907 1_455
