# generated using pymatgen
data_WO3
_symmetry_space_group_name_H-M   'P 1'
_cell_length_a   7.67759900
_cell_length_b   7.73374600
_cell_length_c   7.76418300
_cell_angle_alpha   90.00000000
_cell_angle_beta   90.00000000
_cell_angle_gamma   90.00000000
_symmetry_Int_Tables_number   1
_chemical_formula_structural   WO3
_chemical_formula_sum   'W8 O24'
_cell_volume   461.01079263
_cell_formula_units_Z   8
loop_
 _symmetry_equiv_pos_site_id
 _symmetry_equiv_pos_as_xyz
  1  'x, y, z'
loop_
 _atom_site_type_symbol
 _atom_site_label
 _atom_site_symmetry_multiplicity
 _atom_site_fract_x
 _atom_site_fract_y
 _atom_site_fract_z
 _atom_site_occupancy
  W  W0  1  0.75130700  0.48453200  0.23496100  1
  W  W1  1  0.25130700  0.51546800  0.26503900  1
  W  W2  1  0.74869300  0.98453200  0.26503900  1
  W  W3  1  0.24869300  0.01546800  0.23496100  1
  W  W4  1  0.24869300  0.51546800  0.76503900  1
  W  W5  1  0.74869300  0.48453200  0.73496100  1
  W  W6  1  0.25130700  0.01546800  0.73496100  1
  W  W7  1  0.75130700  0.98453200  0.76503900  1
  O  O0  1  0.75807500  0.49447300  0.49660000  1
  O  O1  1  0.25807500  0.50552700  0.00340000  1
  O  O2  1  0.74192500  0.99447300  0.00340000  1
  O  O3  1  0.24192500  0.00552700  0.49660000  1
  O  O4  1  0.24192500  0.50552700  0.50340000  1
  O  O5  1  0.74192500  0.49447300  0.99660000  1
  O  O6  1  0.25807500  0.00552700  0.99660000  1
  O  O7  1  0.75807500  0.99447300  0.50340000  1
  O  O8  1  0.50006500  0.98483800  0.74197600  1
  O  O9  1  0.00006500  0.01516200  0.75802400  1
  O  O10  1  0.99993500  0.48483800  0.75802400  1
  O  O11  1  0.49993500  0.51516200  0.74197600  1
  O  O12  1  0.49993500  0.01516200  0.25802400  1
  O  O13  1  0.99993500  0.98483800  0.24197600  1
  O  O14  1  0.00006500  0.51516200  0.24197600  1
  O  O15  1  0.50006500  0.48483800  0.25802400  1
  O  O16  1  0.76537400  0.24453000  0.24878100  1
  O  O17  1  0.26537400  0.25547000  0.74878100  1
  O  O18  1  0.73462600  0.24453000  0.74878100  1
  O  O19  1  0.23462600  0.75547000  0.75121900  1
  O  O20  1  0.23462600  0.25547000  0.24878100  1
  O  O21  1  0.73462600  0.74453000  0.25121900  1
  O  O22  1  0.26537400  0.75547000  0.25121900  1
  O  O23  1  0.76537400  0.74453000  0.75121900  1
loop_
_geom_bond_atom_site_label_1
_geom_bond_atom_site_label_2
_geom_bond_distance
_geom_bond_site_symmetry_2
O0 W5 1.853675 1_555
O0 W0 2.033531 1_555
O1 W4 1.853675 1_554
O1 W1 2.033531 1_555
O2 W7 1.853675 1_554
O2 W2 2.033531 1_555
O3 W6 1.853675 1_555
O3 W3 2.033531 1_555
O4 W1 1.853675 1_555
O4 W4 2.033531 1_555
O5 W0 1.853675 1_556
O5 W5 2.033531 1_555
O6 W3 1.853675 1_556
O6 W6 2.033531 1_555
O7 W2 1.853675 1_555
O7 W7 2.033531 1_555
O8 W6 1.925269 1_565
O8 W7 1.937230 1_555
O9 W7 1.925269 1_445
O9 W6 1.937230 1_555
O10 W4 1.925269 1_655
O10 W5 1.937230 1_555
O11 W5 1.925269 1_555
O11 W4 1.937230 1_555
O12 W2 1.925269 1_545
O12 W3 1.937230 1_555
O13 W3 1.925269 1_665
O13 W2 1.937230 1_555
O14 W0 1.925269 1_455
O14 W1 1.937230 1_555
O15 W1 1.925269 1_555
O15 W0 1.937230 1_555
O16 W0 1.862348 1_555
O16 W2 2.018783 1_545
O17 W6 1.862348 1_555
O17 W4 2.018783 1_555
O18 W5 1.862348 1_555
O18 W7 2.018783 1_545
O19 W4 1.862348 1_555
O19 W6 2.018783 1_565
O20 W3 1.862348 1_555
O20 W1 2.018783 1_555
O21 W2 1.862348 1_555
O21 W0 2.018783 1_555
O22 W1 1.862348 1_555
O22 W3 2.018783 1_565
O23 W7 1.862348 1_555
O23 W5 2.018783 1_555
