# generated using pymatgen
data_SmGe2Pt
_symmetry_space_group_name_H-M   'P 1'
_cell_length_a   4.40138738
_cell_length_b   8.75517794
_cell_length_c   9.56676377
_cell_angle_alpha   117.23148793
_cell_angle_beta   103.29283845
_cell_angle_gamma   90.00091172
_symmetry_Int_Tables_number   1
_chemical_formula_structural   SmGe2Pt
_chemical_formula_sum   'Sm4 Ge8 Pt4'
_cell_volume   316.64491369
_cell_formula_units_Z   4
loop_
 _symmetry_equiv_pos_site_id
 _symmetry_equiv_pos_as_xyz
  1  'x, y, z'
loop_
 _atom_site_type_symbol
 _atom_site_label
 _atom_site_symmetry_multiplicity
 _atom_site_fract_x
 _atom_site_fract_y
 _atom_site_fract_z
 _atom_site_occupancy
  Sm  Sm0  1  0.00002179  0.23811086  0.00000039  1
  Sm  Sm1  1  0.99997921  0.76188914  -0.00000039  1
  Sm  Sm2  1  0.20266526  0.20264306  0.40529181  1
  Sm  Sm3  1  0.79733474  0.79735694  0.59470919  1
  Ge  Ge0  1  0.57385491  0.07437196  0.14869198  1
  Ge  Ge1  1  0.57445721  0.57335474  0.14668885  1
  Ge  Ge2  1  0.19909911  0.54777208  0.39756696  1
  Ge  Ge3  1  0.19888271  0.84978036  0.39755208  1
  Ge  Ge4  1  0.80111829  0.15021964  0.60244792  1
  Ge  Ge5  1  0.80090189  0.45222792  0.60243304  1
  Ge  Ge6  1  0.42554379  0.42664626  0.85331115  1
  Ge  Ge7  1  0.42614509  0.92562904  0.85130802  1
  Pt  Pt0  1  0.64957907  0.40259376  0.29831423  1
  Pt  Pt1  1  0.64922572  0.89578533  0.29820293  1
  Pt  Pt2  1  0.35077528  0.10421467  0.70179807  1
  Pt  Pt3  1  0.35042293  0.59740624  0.70168677  1
loop_
_geom_bond_atom_site_label_1
_geom_bond_atom_site_label_2
_geom_bond_distance
_geom_bond_site_symmetry_2
Ge0 Ge7 2.443634 1_544
Ge0 Pt1 2.535576 1_545
Ge0 Pt0 2.536528 1_555
Ge0 Sm2 3.045961 1_555
Ge0 Sm2 3.049560 1_655
Ge0 Sm0 3.266771 1_555
Ge0 Sm1 3.267131 1_445
Ge0 Sm0 3.269574 1_655
Ge0 Sm1 3.269773 1_545
Ge1 Ge6 2.410731 1_554
Ge1 Pt0 2.492543 1_555
Ge1 Pt1 2.492827 1_555
Ge1 Sm1 3.395615 1_555
Ge1 Sm0 3.395888 1_655
Ge1 Sm0 3.402242 1_555
Ge1 Sm1 3.402303 1_455
Ge2 Pt0 2.491255 1_455
Ge2 Pt0 2.491937 1_555
Ge2 Ge3 2.644202 1_555
Ge2 Pt3 2.655017 1_555
Ge2 Sm3 3.034721 1_555
Ge2 Sm3 3.036619 1_455
Ge2 Sm2 3.056142 1_555
Ge2 Sm0 3.408014 1_555
Ge3 Pt1 2.492208 1_555
Ge3 Pt1 2.492262 1_455
Ge3 Pt2 2.655639 1_565
Ge3 Sm3 3.035451 1_555
Ge3 Sm3 3.035954 1_455
Ge3 Sm2 3.056156 1_565
Ge3 Sm1 3.407936 1_455
Ge4 Pt2 2.492214 1_555
Ge4 Pt2 2.492265 1_655
Ge4 Ge5 2.644202 1_555
Ge4 Pt1 2.655633 1_545
Ge4 Sm2 3.035449 1_555
Ge4 Sm2 3.035943 1_655
Ge4 Sm3 3.056160 1_545
Ge4 Sm0 3.407936 1_656
Ge5 Pt3 2.491258 1_655
Ge5 Pt3 2.491936 1_555
Ge5 Pt0 2.655008 1_555
Ge5 Sm2 3.034723 1_555
Ge5 Sm2 3.036612 1_655
Ge5 Sm3 3.056138 1_555
Ge5 Sm1 3.408014 1_556
Ge6 Pt3 2.492527 1_555
Ge6 Pt2 2.492834 1_555
Ge6 Sm0 3.395621 1_556
Ge6 Sm1 3.395882 1_456
Ge6 Sm1 3.402236 1_556
Ge6 Sm0 3.402309 1_656
Ge7 Pt2 2.535560 1_565
Ge7 Pt3 2.536535 1_555
Ge7 Sm3 3.045954 1_555
Ge7 Sm3 3.049556 1_455
Ge7 Sm1 3.266780 1_556
Ge7 Sm0 3.267129 1_666
Ge7 Sm1 3.269577 1_456
Ge7 Sm0 3.269764 1_566
Pt0 Sm2 3.245330 1_655
Pt0 Sm2 3.247546 1_555
Pt0 Sm3 3.254488 1_555
Pt0 Sm0 3.295570 1_655
Pt0 Sm0 3.298301 1_555
Pt1 Sm2 3.245653 1_665
Pt1 Sm2 3.246188 1_565
Pt1 Sm3 3.255872 1_555
Pt1 Sm1 3.295602 1_555
Pt1 Sm1 3.296837 1_455
Pt2 Sm3 3.245656 1_445
Pt2 Sm3 3.246185 1_545
Pt2 Sm2 3.255872 1_555
Pt2 Sm0 3.295594 1_556
Pt2 Sm0 3.296832 1_656
Pt3 Sm3 3.245336 1_455
Pt3 Sm3 3.247540 1_555
Pt3 Sm2 3.254488 1_555
Pt3 Sm1 3.295566 1_456
Pt3 Sm1 3.298293 1_556
