# generated using pymatgen
data_Ba3Li(AsO4)2
_symmetry_space_group_name_H-M   'P 1'
_cell_length_a   7.91773448
_cell_length_b   8.87252365
_cell_length_c   7.89953765
_cell_angle_alpha   43.01559645
_cell_angle_beta   42.17961961
_cell_angle_gamma   43.04453934
_symmetry_Int_Tables_number   1
_chemical_formula_structural   Ba3Li(AsO4)2
_chemical_formula_sum   'Ba3 Li1 As2 O8'
_cell_volume   231.55578927
_cell_formula_units_Z   1
loop_
 _symmetry_equiv_pos_site_id
 _symmetry_equiv_pos_as_xyz
  1  'x, y, z'
loop_
 _atom_site_type_symbol
 _atom_site_label
 _atom_site_symmetry_multiplicity
 _atom_site_fract_x
 _atom_site_fract_y
 _atom_site_fract_z
 _atom_site_occupancy
  Ba  Ba0  1  0.77421600  0.86082300  0.77599700  1
  Ba  Ba1  1  0.19379100  0.24751300  0.19648400  1
  Ba  Ba2  1  0.03097000  0.89603800  0.03878800  1
  Li  Li0  1  0.86738700  0.41824500  0.86189600  1
  As  As0  1  0.61872900  0.55742100  0.62127400  1
  As  As1  1  0.40283400  0.41974700  0.40028800  1
  O  O0  1  0.65787900  0.73153200  0.65066400  1
  O  O1  1  0.29860100  0.39228600  0.29798000  1
  O  O2  1  0.74723300  0.68665000  0.25806900  1
  O  O3  1  0.72743300  0.22738200  0.73208100  1
  O  O4  1  0.25708700  0.69331800  0.74259100  1
  O  O5  1  0.29039000  0.72225900  0.28594300  1
  O  O6  1  0.25549100  0.27811200  0.75979500  1
  O  O7  1  0.76129200  0.27700600  0.25315000  1
loop_
_geom_bond_atom_site_label_1
_geom_bond_atom_site_label_2
_geom_bond_distance
_geom_bond_site_symmetry_2
Ba0 O2 2.758034 1_556
Ba0 O3 2.759478 1_565
Ba0 O4 2.769228 1_655
Ba0 O0 2.775173 1_555
Ba0 O6 2.907344 1_565
Ba0 O7 2.911392 1_565
Ba0 O5 3.030581 1_556
Ba0 O5 3.060667 1_655
Ba1 O1 2.651723 1_555
Ba1 O2 2.829411 1_455
Ba1 O3 2.867900 1_554
Ba1 O4 2.871845 1_554
Ba1 O3 2.876114 1_455
Ba1 O6 2.922164 1_554
Ba1 O7 2.930035 1_455
Ba2 O2 2.669432 1_455
Ba2 O4 2.674712 1_554
Ba2 O5 2.705670 1_555
Ba2 O1 2.804270 1_555
Ba2 O3 2.859337 1_464
Ba2 O0 3.007211 1_455
Ba2 O0 3.093243 1_554
Li0 O0 1.960270 1_555
Li0 O6 1.961600 1_655
Li0 O7 1.963540 1_556
As0 O4 1.774151 1_555
As0 O2 1.774771 1_555
As0 O3 1.940690 1_555
As0 O0 1.966586 1_555
As1 O1 1.721635 1_555
As1 O5 1.722330 1_555
As1 O6 1.737557 1_555
As1 O7 1.737743 1_555
