# generated using pymatgen
data_Li9Mn2Co5O16
_symmetry_space_group_name_H-M   'P 1'
_cell_length_a   5.84625400
_cell_length_b   5.91912486
_cell_length_c   9.72568859
_cell_angle_alpha   92.15375936
_cell_angle_beta   99.07737595
_cell_angle_gamma   119.35422755
_symmetry_Int_Tables_number   1
_chemical_formula_structural   Li9Mn2Co5O16
_chemical_formula_sum   'Li9 Mn2 Co5 O16'
_cell_volume   287.07542623
_cell_formula_units_Z   1
loop_
 _symmetry_equiv_pos_site_id
 _symmetry_equiv_pos_as_xyz
  1  'x, y, z'
loop_
 _atom_site_type_symbol
 _atom_site_label
 _atom_site_symmetry_multiplicity
 _atom_site_fract_x
 _atom_site_fract_y
 _atom_site_fract_z
 _atom_site_occupancy
  Li  Li0  1  0.25073300  0.12407300  0.74761600  1
  Li  Li1  1  0.00736600  0.26072300  0.49332200  1
  Li  Li2  1  0.74369000  0.36717600  0.25585600  1
  Li  Li3  1  0.49681500  0.49659000  0.00444800  1
  Li  Li4  1  0.25166000  0.62623700  0.74584700  1
  Li  Li5  1  0.00816300  0.75842100  0.48825900  1
  Li  Li6  1  0.74861800  0.87472300  0.25193200  1
  Li  Li7  1  0.48984900  0.98830200  0.01255200  1
  Li  Li8  1  0.25214300  0.88076200  0.25255600  1
  Mn  Mn0  1  0.99684100  0.99602000  0.00319800  1
  Mn  Mn1  1  0.74714400  0.62011900  0.74828300  1
  Co  Co0  1  0.50645000  0.25126300  0.49849400  1
  Co  Co1  1  0.00940300  0.50679400  0.01101400  1
  Co  Co2  1  0.74268400  0.12035000  0.74682800  1
  Co  Co3  1  0.50541800  0.75931700  0.49253200  1
  Co  Co4  1  0.24963500  0.37534800  0.25667200  1
  O  O0  1  0.10025900  0.80979900  0.87587200  1
  O  O1  1  0.84762600  0.90062100  0.62974400  1
  O  O2  1  0.62286300  0.07825300  0.38733600  1
  O  O3  1  0.34410400  0.18731200  0.11896800  1
  O  O4  1  0.08812500  0.27527300  0.87666300  1
  O  O5  1  0.85602600  0.43044500  0.63267200  1
  O  O6  1  0.61850100  0.58020600  0.37657000  1
  O  O7  1  0.34780300  0.67001600  0.11730200  1
  O  O8  1  0.40255100  0.43385300  0.62664400  1
  O  O9  1  0.14986800  0.56542700  0.37710600  1
  O  O10  1  0.88317400  0.71245800  0.11166100  1
  O  O11  1  0.64395400  0.80953800  0.86997800  1
  O  O12  1  0.39714800  0.92492300  0.62643400  1
  O  O13  1  0.16379500  0.09506800  0.38198600  1
  O  O14  1  0.87827300  0.18024200  0.11561600  1
  O  O15  1  0.64931500  0.34035000  0.86603800  1
loop_
_geom_bond_atom_site_label_1
_geom_bond_atom_site_label_2
_geom_bond_distance
_geom_bond_site_symmetry_2
Li0 O4 2.099071 1_555
Li0 O8 2.104817 1_555
Li0 O15 2.124363 1_555
Li0 O1 2.143605 1_445
Li0 O0 2.169454 1_545
Li0 O12 2.171282 1_545
Li1 O13 2.020424 1_555
Li1 O2 2.021629 1_455
Li1 O9 2.049806 1_555
Li1 O8 2.168602 1_555
Li1 O5 2.185473 1_455
Li1 O1 2.414070 1_445
Li2 O2 2.079383 1_555
Li2 O6 2.137440 1_555
Li2 O9 2.164924 1_655
Li2 O14 2.186871 1_555
Li2 O3 2.199299 1_555
Li2 O10 2.398120 1_555
Li3 O7 2.027599 1_555
Li3 O10 2.036902 1_555
Li3 O3 2.062407 1_555
Li3 O15 2.134406 1_554
Li3 O4 2.200320 1_554
Li3 O11 2.203742 1_554
Li4 O12 2.046861 1_555
Li4 O5 2.092187 1_455
Li4 O11 2.117275 1_555
Li4 O8 2.151118 1_555
Li4 O0 2.180815 1_555
Li4 O4 2.341703 1_555
Li5 O6 2.063815 1_455
Li5 O9 2.068224 1_555
Li5 O13 2.130918 1_565
Li5 O1 2.139567 1_455
Li5 O12 2.165086 1_555
Li5 O5 2.332117 1_455
Li6 O6 2.058338 1_555
Li6 O10 2.093641 1_555
Li6 O14 2.180808 1_565
Li6 O2 2.186478 1_565
Li6 O7 2.191450 1_555
Li6 O13 2.235163 1_665
Li7 O14 2.029516 1_565
Li7 O7 2.038186 1_555
Li7 O3 2.086969 1_565
Li7 O0 2.156567 1_554
Li7 O11 2.252245 1_554
Li7 O15 2.445326 1_564
Li8 O13 2.046445 1_565
Li8 O2 2.070393 1_565
Li8 O10 2.093101 1_455
Li8 O7 2.095707 1_555
Li8 O9 2.147789 1_555
Li8 O3 2.170407 1_565
Mn0 O3 1.897537 1_665
Mn0 O10 1.905850 1_555
Mn0 O14 1.937919 1_565
Mn0 O0 1.975106 1_654
Mn0 O11 1.992436 1_554
Mn0 O4 2.006675 1_664
Mn1 O8 1.909439 1_555
Mn1 O5 1.939472 1_555
Mn1 O15 1.949784 1_555
Mn1 O11 1.952063 1_555
Mn1 O1 1.957604 1_555
Mn1 O0 1.968930 1_655
Co0 O2 1.874277 1_555
Co0 O13 1.881740 1_555
Co0 O8 1.967656 1_555
Co0 O5 1.983409 1_555
Co0 O6 2.189613 1_555
Co0 O12 2.215687 1_545
Co1 O7 1.822540 1_555
Co1 O10 2.000961 1_455
Co1 O14 2.073614 1_455
Co1 O15 2.077504 1_454
Co1 O4 2.114396 1_554
Co1 O0 2.165606 1_554
Co2 O12 1.910693 1_545
Co2 O4 1.951044 1_655
Co2 O15 2.030031 1_555
Co2 O5 2.057577 1_555
Co2 O1 2.063032 1_545
Co2 O11 2.120135 1_545
Co3 O6 1.914569 1_555
Co3 O9 1.930310 1_555
Co3 O12 1.957027 1_555
Co3 O1 1.978907 1_555
Co3 O2 2.044031 1_565
Co3 O8 2.252713 1_555
Co4 O9 1.933364 1_555
Co4 O6 2.004271 1_555
Co4 O13 2.004561 1_555
Co4 O3 2.015307 1_555
Co4 O14 2.100530 1_455
Co4 O7 2.156521 1_555
