# generated using pymatgen
data_LaNb2CuClO7
_symmetry_space_group_name_H-M   'P 1'
_cell_length_a   7.89044500
_cell_length_b   7.90240600
_cell_length_c   11.83527100
_cell_angle_alpha   90.00000000
_cell_angle_beta   90.00000000
_cell_angle_gamma   90.00000000
_symmetry_Int_Tables_number   1
_chemical_formula_structural   LaNb2CuClO7
_chemical_formula_sum   'La4 Nb8 Cu4 Cl4 O28'
_cell_volume   737.97056924
_cell_formula_units_Z   4
loop_
 _symmetry_equiv_pos_site_id
 _symmetry_equiv_pos_as_xyz
  1  'x, y, z'
loop_
 _atom_site_type_symbol
 _atom_site_label
 _atom_site_symmetry_multiplicity
 _atom_site_fract_x
 _atom_site_fract_y
 _atom_site_fract_z
 _atom_site_occupancy
  La  La0  1  0.99999700  0.23756400  0.00000000  1
  La  La1  1  0.00000300  0.76243600  0.00000000  1
  La  La2  1  0.49999700  0.26243600  0.00000000  1
  La  La3  1  0.50000300  0.73756400  0.00000000  1
  Nb  Nb0  1  0.75202400  0.49997600  0.19052300  1
  Nb  Nb1  1  0.24797600  0.50002400  0.19052300  1
  Nb  Nb2  1  0.25202400  0.00002400  0.80947700  1
  Nb  Nb3  1  0.74797600  0.99997600  0.80947700  1
  Nb  Nb4  1  0.24797600  0.50002400  0.80947700  1
  Nb  Nb5  1  0.75202400  0.49997600  0.80947700  1
  Nb  Nb6  1  0.74797600  0.99997600  0.19052300  1
  Nb  Nb7  1  0.25202400  0.00002400  0.19052300  1
  Cu  Cu0  1  0.77075600  0.49249300  0.50000000  1
  Cu  Cu1  1  0.22924400  0.50750700  0.50000000  1
  Cu  Cu2  1  0.27075600  0.00750700  0.50000000  1
  Cu  Cu3  1  0.72924400  0.99249300  0.50000000  1
  Cl  Cl0  1  0.91628300  0.22902900  0.50000000  1
  Cl  Cl1  1  0.08371700  0.77097100  0.50000000  1
  Cl  Cl2  1  0.41628300  0.27097100  0.50000000  1
  Cl  Cl3  1  0.58371700  0.72902900  0.50000000  1
  O  O0  1  0.00000000  0.50000000  0.13403000  1
  O  O1  1  0.50000000  0.00000000  0.86597000  1
  O  O2  1  0.00000000  0.50000000  0.86597000  1
  O  O3  1  0.50000000  0.00000000  0.13403000  1
  O  O4  1  0.50000000  0.50000000  0.18391900  1
  O  O5  1  0.00000000  0.00000000  0.81608100  1
  O  O6  1  0.50000000  0.50000000  0.81608100  1
  O  O7  1  0.00000000  0.00000000  0.18391900  1
  O  O8  1  0.74980200  0.24991500  0.15235500  1
  O  O9  1  0.25019800  0.75008500  0.15235500  1
  O  O10  1  0.24980200  0.25008500  0.84764500  1
  O  O11  1  0.75019800  0.74991500  0.84764500  1
  O  O12  1  0.25019800  0.75008500  0.84764500  1
  O  O13  1  0.74980200  0.24991500  0.84764500  1
  O  O14  1  0.75019800  0.74991500  0.15235500  1
  O  O15  1  0.24980200  0.25008500  0.15235500  1
  O  O16  1  0.69950800  0.49987000  0.00000000  1
  O  O17  1  0.30049200  0.50013000  0.00000000  1
  O  O18  1  0.19950800  0.00013000  0.00000000  1
  O  O19  1  0.80049200  0.99987000  0.00000000  1
  O  O20  1  0.78200100  0.49905500  0.34202600  1
  O  O21  1  0.21799900  0.50094500  0.34202600  1
  O  O22  1  0.28200100  0.00094500  0.65797400  1
  O  O23  1  0.71799900  0.99905500  0.65797400  1
  O  O24  1  0.21799900  0.50094500  0.65797400  1
  O  O25  1  0.78200100  0.49905500  0.65797400  1
  O  O26  1  0.71799900  0.99905500  0.34202600  1
  O  O27  1  0.28200100  0.00094500  0.34202600  1
loop_
_geom_bond_atom_site_label_1
_geom_bond_atom_site_label_2
_geom_bond_distance
_geom_bond_site_symmetry_2
La0 O18 2.449225 1_655
La0 O19 2.450769 1_545
La0 O2 2.610986 1_654
La0 O0 2.610986 1_655
La0 O15 2.673259 1_655
La0 O10 2.673259 1_654
La0 O8 2.675479 1_555
La0 O13 2.675479 1_554
La0 O7 2.874459 1_655
La0 O5 2.874459 1_654
La0 O16 3.149334 1_555
La0 O17 3.150722 1_655
La1 O19 2.449225 1_455
La1 O18 2.450769 1_565
La1 O2 2.610986 1_554
La1 O0 2.610986 1_555
La1 O14 2.673259 1_455
La1 O11 2.673259 1_454
La1 O9 2.675479 1_555
La1 O12 2.675479 1_554
La1 O7 2.874459 1_565
La1 O5 2.874459 1_564
La1 O17 3.149334 1_555
La1 O16 3.150722 1_455
La2 O16 2.449225 1_555
La2 O17 2.450769 1_555
La2 O1 2.610986 1_554
La2 O3 2.610986 1_555
La2 O8 2.673259 1_555
La2 O13 2.673259 1_554
La2 O15 2.675479 1_555
La2 O10 2.675479 1_554
La2 O4 2.874459 1_555
La2 O6 2.874459 1_554
La2 O18 3.149334 1_555
La2 O19 3.150722 1_545
La3 O17 2.449225 1_555
La3 O16 2.450769 1_555
La3 O1 2.610986 1_564
La3 O3 2.610986 1_565
La3 O9 2.673259 1_555
La3 O12 2.673259 1_554
La3 O14 2.675479 1_555
La3 O11 2.675479 1_554
La3 O4 2.874459 1_555
La3 O6 2.874459 1_554
La3 O19 3.149334 1_555
La3 O18 3.150722 1_565
Nb0 O20 1.808627 1_555
Nb0 O4 1.990117 1_555
Nb0 O14 2.026170 1_555
Nb0 O8 2.027134 1_555
Nb0 O0 2.067724 1_655
Nb0 O16 2.292650 1_555
Nb1 O21 1.808627 1_555
Nb1 O4 1.990117 1_555
Nb1 O15 2.026170 1_555
Nb1 O9 2.027134 1_555
Nb1 O0 2.067724 1_555
Nb1 O17 2.292650 1_555
Nb2 O22 1.808627 1_555
Nb2 O5 1.990117 1_555
Nb2 O12 2.026170 1_545
Nb2 O10 2.027134 1_555
Nb2 O1 2.067724 1_555
Nb2 O18 2.292650 1_556
Nb3 O23 1.808627 1_555
Nb3 O5 1.990117 1_665
Nb3 O13 2.026170 1_565
Nb3 O11 2.027134 1_555
Nb3 O1 2.067724 1_565
Nb3 O19 2.292650 1_556
Nb4 O24 1.808627 1_555
Nb4 O6 1.990117 1_555
Nb4 O10 2.026170 1_555
Nb4 O12 2.027134 1_555
Nb4 O2 2.067724 1_555
Nb4 O17 2.292650 1_556
Nb5 O25 1.808627 1_555
Nb5 O6 1.990117 1_555
Nb5 O11 2.026170 1_555
Nb5 O13 2.027134 1_555
Nb5 O2 2.067724 1_655
Nb5 O16 2.292650 1_556
Nb6 O26 1.808627 1_555
Nb6 O7 1.990117 1_665
Nb6 O8 2.026170 1_565
Nb6 O14 2.027134 1_555
Nb6 O3 2.067724 1_565
Nb6 O19 2.292650 1_555
Nb7 O27 1.808627 1_555
Nb7 O7 1.990117 1_555
Nb7 O9 2.026170 1_545
Nb7 O15 2.027134 1_555
Nb7 O3 2.067724 1_555
Nb7 O18 2.292650 1_555
Cu0 O25 1.872487 1_555
Cu0 O20 1.872487 1_555
Cu1 O24 1.872487 1_555
Cu1 O21 1.872487 1_555
Cu2 O22 1.872487 1_555
Cu2 O27 1.872487 1_555
Cu3 O23 1.872487 1_555
Cu3 O26 1.872487 1_555
Cl0 Cu0 2.377657 1_555
Cl0 Cu3 2.381590 1_545
Cl1 Cu1 2.377657 1_555
Cl1 Cu2 2.381590 1_565
Cl2 Cu2 2.377657 1_555
Cl2 Cu1 2.381590 1_555
Cl3 Cu3 2.377657 1_555
Cl3 Cu0 2.381590 1_555
