# generated using pymatgen
data_LaN3
_symmetry_space_group_name_H-M   'P 1'
_cell_length_a   10.23464300
_cell_length_b   7.40059400
_cell_length_c   8.71095716
_cell_angle_alpha   65.53539956
_cell_angle_beta   90.00000000
_cell_angle_gamma   90.00000000
_symmetry_Int_Tables_number   1
_chemical_formula_structural   LaN3
_chemical_formula_sum   'La8 N24'
_cell_volume   600.55148658
_cell_formula_units_Z   8
loop_
 _symmetry_equiv_pos_site_id
 _symmetry_equiv_pos_as_xyz
  1  'x, y, z'
loop_
 _atom_site_type_symbol
 _atom_site_label
 _atom_site_symmetry_multiplicity
 _atom_site_fract_x
 _atom_site_fract_y
 _atom_site_fract_z
 _atom_site_occupancy
  La  La0  1  0.33875200  0.41510900  0.06809500  1
  La  La1  1  0.83875200  0.58489100  0.43190500  1
  La  La2  1  0.66124800  0.58489100  0.93190500  1
  La  La3  1  0.16124800  0.41510900  0.56809500  1
  La  La4  1  0.56227400  0.98953800  0.28756000  1
  La  La5  1  0.06227400  0.01046200  0.21244000  1
  La  La6  1  0.43772600  0.01046200  0.71244000  1
  La  La7  1  0.93772600  0.98953800  0.78756000  1
  N  N0  1  0.85124800  0.89073200  0.09632800  1
  N  N1  1  0.35124800  0.10926800  0.40367200  1
  N  N2  1  0.14875200  0.10926800  0.90367200  1
  N  N3  1  0.64875200  0.89073200  0.59632800  1
  N  N4  1  0.52198900  0.59258500  0.30874700  1
  N  N5  1  0.02198900  0.40741500  0.19125300  1
  N  N6  1  0.47801100  0.40741500  0.69125300  1
  N  N7  1  0.97801100  0.59258500  0.80874700  1
  N  N8  1  0.04271800  0.71000800  0.41636800  1
  N  N9  1  0.54271800  0.28999200  0.08363200  1
  N  N10  1  0.95728200  0.28999200  0.58363200  1
  N  N11  1  0.45728200  0.71000800  0.91636800  1
  N  N12  1  0.08633000  0.54003800  0.16714200  1
  N  N13  1  0.58633000  0.45996200  0.33285800  1
  N  N14  1  0.91367000  0.45996200  0.83285800  1
  N  N15  1  0.41367000  0.54003800  0.66714200  1
  N  N16  1  0.81023200  0.95696100  0.20556600  1
  N  N17  1  0.31023200  0.04303900  0.29443400  1
  N  N18  1  0.18976800  0.04303900  0.79443400  1
  N  N19  1  0.68976800  0.95696100  0.70556600  1
  N  N20  1  0.80131000  0.73958500  0.07592500  1
  N  N21  1  0.30131000  0.26041500  0.42407500  1
  N  N22  1  0.19869000  0.26041500  0.92407500  1
  N  N23  1  0.69869000  0.73958500  0.57592500  1
loop_
_geom_bond_atom_site_label_1
_geom_bond_atom_site_label_2
_geom_bond_distance
_geom_bond_site_symmetry_2
La0 N9 2.264867 1_555
La0 N11 2.364821 1_554
La0 N22 2.475681 1_554
La0 N17 2.656671 1_555
La0 N21 2.851819 1_555
La0 N12 2.988999 1_555
La1 N8 2.264867 1_655
La1 N10 2.364821 1_555
La1 N23 2.475681 1_555
La1 N16 2.656671 1_555
La1 N20 2.851819 1_555
La1 N13 2.988999 1_555
La2 N11 2.264867 1_555
La2 N9 2.364821 1_556
La2 N20 2.475681 1_556
La2 N19 2.656671 1_555
La2 N23 2.851819 1_555
La2 N14 2.988999 1_555
La3 N10 2.264867 1_455
La3 N8 2.364821 1_555
La3 N21 2.475681 1_555
La3 N18 2.656671 1_555
La3 N22 2.851819 1_555
La3 N15 2.988999 1_555
La4 N9 2.206410 1_565
La4 N17 2.614215 1_565
La4 N3 2.631227 1_555
La4 N16 2.674160 1_555
La4 N1 2.686091 1_565
La4 N23 2.798622 1_555
La4 N4 2.895687 1_555
La5 N8 2.206410 1_545
La5 N16 2.614215 1_445
La5 N2 2.631227 1_554
La5 N17 2.674160 1_555
La5 N0 2.686091 1_445
La5 N22 2.798622 1_554
La5 N5 2.895687 1_555
La6 N11 2.206410 1_545
La6 N19 2.614215 1_545
La6 N1 2.631227 1_555
La6 N18 2.674160 1_555
La6 N3 2.686091 1_545
La6 N21 2.798622 1_555
La6 N6 2.895687 1_555
La7 N10 2.206410 1_565
La7 N18 2.614215 1_665
La7 N0 2.631227 1_556
La7 N19 2.674160 1_555
La7 N2 2.686091 1_665
La7 N20 2.798622 1_556
La7 N7 2.895687 1_555
N0 N16 1.306992 1_555
N0 N20 1.307167 1_555
N1 N17 1.306992 1_555
N1 N21 1.307167 1_555
N2 N22 1.307167 1_555
N12 N5 1.127087 1_555
N13 N4 1.127087 1_555
N14 N7 1.127087 1_555
N15 N6 1.127087 1_555
N18 N2 1.306992 1_555
N19 N3 1.306992 1_555
N23 N3 1.307167 1_555
