# generated using pymatgen
data_Ba4Cu2IBrO4
_symmetry_space_group_name_H-M   'P 1'
_cell_length_a   4.38759800
_cell_length_b   7.59772800
_cell_length_c   10.40202644
_cell_angle_alpha   75.80208470
_cell_angle_beta   90.00000000
_cell_angle_gamma   90.00000000
_symmetry_Int_Tables_number   1
_chemical_formula_structural   Ba4Cu2IBrO4
_chemical_formula_sum   'Ba4 Cu2 I1 Br1 O4'
_cell_volume   336.16760101
_cell_formula_units_Z   1
loop_
 _symmetry_equiv_pos_site_id
 _symmetry_equiv_pos_as_xyz
  1  'x, y, z'
loop_
 _atom_site_type_symbol
 _atom_site_label
 _atom_site_symmetry_multiplicity
 _atom_site_fract_x
 _atom_site_fract_y
 _atom_site_fract_z
 _atom_site_occupancy
  Ba  Ba0  1  0.50000000  0.24840100  0.74876000  1
  Ba  Ba1  1  0.00000000  0.75374000  0.74382200  1
  Ba  Ba2  1  0.50000000  0.75159900  0.25124000  1
  Ba  Ba3  1  0.00000000  0.24626000  0.25617800  1
  Cu  Cu0  1  0.00000000  0.50000000  0.50000000  1
  Cu  Cu1  1  0.50000000  0.00000000  0.50000000  1
  I  I0  1  0.50000000  0.50000000  0.00000000  1
  Br  Br0  1  0.00000000  0.00000000  0.00000000  1
  O  O0  1  0.00000000  0.43958800  0.67944600  1
  O  O1  1  0.50000000  0.94083500  0.67903800  1
  O  O2  1  0.00000000  0.56041200  0.32055400  1
  O  O3  1  0.50000000  0.05916500  0.32096200  1
loop_
_geom_bond_atom_site_label_1
_geom_bond_atom_site_label_2
_geom_bond_distance
_geom_bond_site_symmetry_2
Ba0 O1 2.611129 1_545
Ba0 O0 2.632272 1_555
Ba0 O0 2.632272 1_655
Ba0 Br0 3.575612 1_556
Ba0 Br0 3.575612 1_656
Ba0 I0 3.596478 1_556
Ba1 O1 2.611058 1_455
Ba1 O1 2.611058 1_555
Ba1 O0 2.632391 1_555
Ba1 Br0 3.612129 1_566
Ba1 I0 3.620814 1_456
Ba1 I0 3.620814 1_556
Ba2 O3 2.611129 1_565
Ba2 O2 2.632272 1_655
Ba2 O2 2.632272 1_555
Ba2 Br0 3.575612 1_565
Ba2 Br0 3.575612 1_665
Ba2 I0 3.596478 1_555
Ba3 O3 2.611058 1_455
Ba3 O3 2.611058 1_555
Ba3 O2 2.632391 1_555
Ba3 Br0 3.612129 1_555
Ba3 I0 3.620814 1_455
Ba3 I0 3.620814 1_555
Cu0 O2 1.809586 1_555
Cu0 O0 1.809586 1_555
Cu1 O1 1.805486 1_545
Cu1 O3 1.805486 1_555
