# generated using pymatgen
data_Na3Mn5(Ge3O10)2
_symmetry_space_group_name_H-M   'P 1'
_cell_length_a   9.33694200
_cell_length_b   10.34647001
_cell_length_c   10.73783036
_cell_angle_alpha   114.51027911
_cell_angle_beta   84.17982478
_cell_angle_gamma   114.85170841
_symmetry_Int_Tables_number   1
_chemical_formula_structural   Na3Mn5(Ge3O10)2
_chemical_formula_sum   'Na6 Mn10 Ge12 O40'
_cell_volume   853.09458382
_cell_formula_units_Z   2
loop_
 _symmetry_equiv_pos_site_id
 _symmetry_equiv_pos_as_xyz
  1  'x, y, z'
loop_
 _atom_site_type_symbol
 _atom_site_label
 _atom_site_symmetry_multiplicity
 _atom_site_fract_x
 _atom_site_fract_y
 _atom_site_fract_z
 _atom_site_occupancy
  Na  Na0  1  0.61673900  0.37014700  0.57872300  1
  Na  Na1  1  0.38326100  0.62985300  0.42127700  1
  Na  Na2  1  0.37328100  0.61179800  0.94870900  1
  Na  Na3  1  0.62671900  0.38820200  0.05129100  1
  Na  Na4  1  0.94073800  0.06224100  0.15415000  1
  Na  Na5  1  0.05926200  0.93775900  0.84585000  1
  Mn  Mn0  1  0.84046900  0.17673000  0.95219900  1
  Mn  Mn1  1  0.15953100  0.82327000  0.04780100  1
  Mn  Mn2  1  0.93826000  0.05252400  0.65360200  1
  Mn  Mn3  1  0.06174000  0.94747600  0.34639800  1
  Mn  Mn4  1  0.82293700  0.15253900  0.46145900  1
  Mn  Mn5  1  0.17706300  0.84746100  0.53854100  1
  Mn  Mn6  1  0.00000000  0.50000000  0.50000000  1
  Mn  Mn7  1  0.73203100  0.27102200  0.26098700  1
  Mn  Mn8  1  0.26796900  0.72897800  0.73901300  1
  Mn  Mn9  1  0.50000000  0.00000000  0.00000000  1
  Ge  Ge0  1  0.55973000  0.05268100  0.69725600  1
  Ge  Ge1  1  0.44027000  0.94731900  0.30274400  1
  Ge  Ge2  1  0.65191400  0.76787100  0.74441300  1
  Ge  Ge3  1  0.34808600  0.23212900  0.25558700  1
  Ge  Ge4  1  0.95157400  0.43766400  0.79946500  1
  Ge  Ge5  1  0.04842600  0.56233600  0.20053500  1
  Ge  Ge6  1  0.33454400  0.23207900  0.76116000  1
  Ge  Ge7  1  0.66545600  0.76792100  0.23884000  1
  Ge  Ge8  1  0.75880900  0.65611000  0.44285800  1
  Ge  Ge9  1  0.24119100  0.34389000  0.55714200  1
  Ge  Ge10  1  0.78051700  0.65958800  0.93336400  1
  Ge  Ge11  1  0.21948300  0.34041200  0.06663600  1
  O  O0  1  0.71614200  0.04730800  0.59300100  1
  O  O1  1  0.28385800  0.95269200  0.40699900  1
  O  O2  1  0.71732300  0.07935600  0.07097100  1
  O  O3  1  0.28267700  0.92064400  0.92902900  1
  O  O4  1  0.61346900  0.11670000  0.87734500  1
  O  O5  1  0.38653100  0.88330000  0.12265500  1
  O  O6  1  0.61172000  0.68073600  0.56185200  1
  O  O7  1  0.38828000  0.31926400  0.43814800  1
  O  O8  1  0.95271200  0.27769900  0.82526400  1
  O  O9  1  0.04728800  0.72230100  0.17473600  1
  O  O10  1  0.89047900  0.38723900  0.62686100  1
  O  O11  1  0.10952100  0.61276100  0.37313900  1
  O  O12  1  0.91450700  0.29011500  0.35081300  1
  O  O13  1  0.08549300  0.70988500  0.64918700  1
  O  O14  1  0.86689400  0.39281400  0.13691200  1
  O  O15  1  0.13310600  0.60718600  0.86308800  1
  O  O16  1  0.33916400  0.38021000  0.71290700  1
  O  O17  1  0.66083600  0.61979000  0.28709300  1
  O  O18  1  0.36831400  0.33328700  0.94566000  1
  O  O19  1  0.63168600  0.66671300  0.05434000  1
  O  O20  1  0.77396900  0.48831200  0.42991200  1
  O  O21  1  0.22603100  0.51168800  0.57008800  1
  O  O22  1  0.47856800  0.77447200  0.82492200  1
  O  O23  1  0.52143200  0.22552800  0.17507800  1
  O  O24  1  0.68909900  0.62717500  0.77874400  1
  O  O25  1  0.31090100  0.37282500  0.22125600  1
  O  O26  1  0.81969000  0.94535800  0.79177600  1
  O  O27  1  0.18031000  0.05464200  0.20822400  1
  O  O28  1  0.95702400  0.82499000  0.99232300  1
  O  O29  1  0.04297600  0.17501000  0.00767700  1
  O  O30  1  0.16475700  0.05837600  0.70126200  1
  O  O31  1  0.83524300  0.94162400  0.29873800  1
  O  O32  1  0.61066300  0.12692700  0.36643700  1
  O  O33  1  0.38933700  0.87307300  0.63356300  1
  O  O34  1  0.50895100  0.20585300  0.70057300  1
  O  O35  1  0.49104900  0.79414700  0.29942700  1
  O  O36  1  0.93637500  0.82940100  0.48661200  1
  O  O37  1  0.06362500  0.17059900  0.51338800  1
  O  O38  1  0.79744000  0.48408200  0.90066400  1
  O  O39  1  0.20256000  0.51591800  0.09933600  1
loop_
_geom_bond_atom_site_label_1
_geom_bond_atom_site_label_2
_geom_bond_distance
_geom_bond_site_symmetry_2
Na0 O34 2.398888 1_555
Na0 O20 2.416554 1_555
Na0 O7 2.481041 1_555
Na0 O24 2.487279 1_555
Na0 O10 2.577448 1_555
Na0 O32 2.584315 1_555
Na0 O16 2.854607 1_555
Na1 O35 2.398888 1_555
Na1 O21 2.416554 1_555
Na1 O6 2.481041 1_555
Na1 O25 2.487279 1_555
Na1 O11 2.577448 1_555
Na1 O33 2.584315 1_555
Na1 O17 2.854607 1_555
Na2 O39 2.370702 1_556
Na2 O22 2.401349 1_555
Na2 O15 2.483576 1_555
Na2 O19 2.509697 1_556
Na2 O16 2.596547 1_555
Na2 O5 2.606984 1_556
Na2 O18 2.848960 1_555
Na3 O38 2.370702 1_554
Na3 O23 2.401349 1_555
Na3 O14 2.483576 1_555
Na3 O18 2.509697 1_554
Na3 O17 2.596547 1_555
Na3 O4 2.606984 1_554
Na3 O19 2.848960 1_555
Na4 O29 2.242364 1_655
Na4 O31 2.280853 1_545
Na4 O28 2.406088 1_544
Na4 O27 2.407494 1_655
Na4 O2 2.449517 1_555
Na4 O12 2.515471 1_555
Na5 O28 2.242364 1_455
Na5 O30 2.280853 1_565
Na5 O29 2.406088 1_566
Na5 O26 2.407494 1_455
Na5 O3 2.449517 1_555
Na5 O13 2.515471 1_555
Mn0 O2 1.938708 1_556
Mn0 O8 2.004724 1_555
Mn0 O29 2.048371 1_656
Mn0 O4 2.085385 1_555
Mn0 O14 2.224763 1_556
Mn0 O26 2.234182 1_545
Mn1 O3 1.938708 1_554
Mn1 O9 2.004724 1_555
Mn1 O28 2.048371 1_454
Mn1 O5 2.085385 1_555
Mn1 O15 2.224763 1_554
Mn1 O27 2.234182 1_565
Mn2 O26 2.157874 1_545
Mn2 O30 2.196376 1_655
Mn2 O0 2.208601 1_555
Mn2 O8 2.250948 1_555
Mn2 O36 2.254457 1_545
Mn2 O37 2.257459 1_655
Mn3 O27 2.157874 1_565
Mn3 O31 2.196376 1_455
Mn3 O1 2.208601 1_555
Mn3 O9 2.250948 1_555
Mn3 O37 2.254457 1_565
Mn3 O36 2.257459 1_455
Mn4 O0 2.062180 1_555
Mn4 O12 2.083971 1_555
Mn4 O32 2.187218 1_555
Mn4 O10 2.193254 1_555
Mn4 O31 2.198786 1_545
Mn4 O37 2.282736 1_655
Mn5 O1 2.062180 1_555
Mn5 O13 2.083971 1_555
Mn5 O33 2.187218 1_555
Mn5 O11 2.193254 1_555
Mn5 O30 2.198786 1_565
Mn5 O36 2.282736 1_455
Mn6 O13 1.958340 1_555
Mn6 O12 1.958340 1_455
Mn6 O10 2.072624 1_455
Mn6 O11 2.072624 1_555
Mn6 O20 2.251015 1_455
Mn6 O21 2.251015 1_555
Mn7 O12 1.940226 1_555
Mn7 O23 2.041738 1_555
Mn7 O32 2.123518 1_555
Mn7 O20 2.125657 1_555
Mn7 O2 2.141318 1_555
Mn7 O14 2.160440 1_555
Mn8 O13 1.940226 1_555
Mn8 O22 2.041738 1_555
Mn8 O33 2.123518 1_555
Mn8 O21 2.125657 1_555
Mn8 O3 2.141318 1_555
Mn8 O15 2.160440 1_555
Mn9 O3 1.940712 1_544
Mn9 O2 1.940712 1_555
Mn9 O4 2.067890 1_554
Mn9 O5 2.067890 1_545
Mn9 O22 2.250160 1_544
Mn9 O23 2.250160 1_555
Ge0 O0 1.753321 1_555
Ge0 O33 1.770114 1_545
Ge0 O4 1.812353 1_555
Ge0 O34 1.821792 1_555
Ge1 O1 1.753321 1_555
Ge1 O32 1.770114 1_565
Ge1 O5 1.812353 1_555
Ge1 O35 1.821792 1_555
Ge2 O26 1.747442 1_555
Ge2 O22 1.769681 1_555
Ge2 O6 1.787428 1_555
Ge2 O24 1.808743 1_555
Ge3 O27 1.747442 1_555
Ge3 O23 1.769681 1_555
Ge3 O7 1.787428 1_555
Ge3 O25 1.808743 1_555
Ge4 O15 1.777010 1_655
Ge4 O10 1.787354 1_555
Ge4 O8 1.792184 1_555
Ge4 O38 1.820267 1_555
Ge5 O14 1.777010 1_455
Ge5 O11 1.787354 1_555
Ge5 O9 1.792184 1_555
Ge5 O39 1.820267 1_555
Ge6 O30 1.734852 1_555
Ge6 O34 1.777281 1_555
Ge6 O16 1.793896 1_555
Ge6 O18 1.802417 1_555
Ge7 O31 1.734852 1_555
Ge7 O35 1.777281 1_555
Ge7 O17 1.793896 1_555
Ge7 O19 1.802417 1_555
Ge8 O20 1.748081 1_555
Ge8 O36 1.773300 1_555
Ge8 O6 1.803264 1_555
Ge8 O17 1.809807 1_555
Ge9 O21 1.748081 1_555
Ge9 O37 1.773300 1_555
Ge9 O7 1.803264 1_555
Ge9 O16 1.809807 1_555
Ge10 O28 1.728449 1_555
Ge10 O38 1.773845 1_555
Ge10 O24 1.783932 1_555
Ge10 O19 1.806790 1_556
Ge11 O29 1.728449 1_555
Ge11 O39 1.773845 1_555
Ge11 O25 1.783932 1_555
Ge11 O18 1.806790 1_554
