# generated using pymatgen
data_YMg14Si
_symmetry_space_group_name_H-M   'P 1'
_cell_length_a   6.39791476
_cell_length_b   6.39791424
_cell_length_c   10.31831485
_cell_angle_alpha   90.00000000
_cell_angle_beta   90.00000000
_cell_angle_gamma   120.00000270
_symmetry_Int_Tables_number   1
_chemical_formula_structural   YMg14Si
_chemical_formula_sum   'Y1 Mg14 Si1'
_cell_volume   365.77688691
_cell_formula_units_Z   1
loop_
 _symmetry_equiv_pos_site_id
 _symmetry_equiv_pos_as_xyz
  1  'x, y, z'
loop_
 _atom_site_type_symbol
 _atom_site_label
 _atom_site_symmetry_multiplicity
 _atom_site_fract_x
 _atom_site_fract_y
 _atom_site_fract_z
 _atom_site_occupancy
  Y  Y0  1  0.16666700  0.33333300  0.12500000  1
  Mg  Mg0  1  0.17811550  0.83905725  0.12500000  1
  Mg  Mg1  1  0.16094688  0.83047294  0.62500000  1
  Mg  Mg2  1  0.66094275  0.32188450  0.12500000  1
  Mg  Mg3  1  0.66952706  0.33905312  0.62500000  1
  Mg  Mg4  1  0.66094275  0.83905725  0.12500000  1
  Mg  Mg5  1  0.66952706  0.83047294  0.62500000  1
  Mg  Mg6  1  0.32989839  0.17010161  0.38437124  1
  Mg  Mg7  1  0.32989839  0.17010161  0.86562876  1
  Mg  Mg8  1  0.32989839  0.65979777  0.38437124  1
  Mg  Mg9  1  0.32989839  0.65979777  0.86562876  1
  Mg  Mg10  1  0.84020223  0.17010161  0.38437124  1
  Mg  Mg11  1  0.84020223  0.17010161  0.86562876  1
  Mg  Mg12  1  0.83333300  0.66666700  0.36558042  1
  Mg  Mg13  1  0.83333300  0.66666700  0.88441958  1
  Si  Si0  1  0.16666700  0.33333300  0.62500000  1
loop_
_geom_bond_atom_site_label_1
_geom_bond_atom_site_label_2
_geom_bond_distance
_geom_bond_site_symmetry_2
Mg0 Mg2 3.089087 1_565
Mg0 Mg4 3.089088 1_555
Mg0 Mg12 3.132362 1_455
Mg0 Mg13 3.132362 1_454
Mg0 Y0 3.199586 1_555
Mg0 Y0 3.199586 1_565
Mg0 Mg9 3.245697 1_554
Mg0 Mg8 3.245697 1_555
Mg0 Mg7 3.245704 1_564
Mg0 Mg6 3.245704 1_565
Mg0 Mg2 3.308827 1_455
Mg0 Mg4 3.308827 1_455
Mg1 Mg8 3.115424 1_555
Mg1 Mg9 3.115424 1_555
Mg1 Mg7 3.115431 1_565
Mg1 Mg6 3.115431 1_565
Mg1 Mg3 3.144062 1_455
Mg1 Mg5 3.144062 1_455
Mg1 Si0 3.199114 1_565
Mg1 Si0 3.199114 1_555
Mg1 Mg12 3.234218 1_455
Mg1 Mg13 3.234218 1_455
Mg1 Mg3 3.253852 1_565
Mg1 Mg5 3.253853 1_555
Mg2 Mg4 3.089087 1_545
Mg2 Y0 3.199586 1_655
Mg2 Y0 3.199586 1_555
Mg2 Mg7 3.245704 1_554
Mg2 Mg6 3.245704 1_555
Mg2 Mg4 3.308827 1_555
Mg3 Mg7 3.115431 1_555
Mg3 Mg6 3.115431 1_555
Mg3 Mg5 3.144062 1_555
Mg3 Si0 3.199114 1_655
Mg3 Si0 3.199114 1_555
Mg3 Mg5 3.253852 1_545
Mg4 Y0 3.199586 1_555
Mg4 Y0 3.199586 1_665
Mg4 Mg9 3.245703 1_554
Mg4 Mg8 3.245703 1_555
Mg5 Mg8 3.115431 1_555
Mg5 Mg9 3.115431 1_555
Mg5 Si0 3.199114 1_665
Mg5 Si0 3.199114 1_555
Mg6 Si0 3.071913 1_555
Mg6 Mg8 3.133034 1_555
Mg6 Y0 3.230230 1_555
Mg6 Mg8 3.264880 1_545
Mg7 Si0 3.071913 1_555
Mg7 Mg9 3.133034 1_555
Mg7 Y0 3.230230 1_556
Mg7 Mg9 3.264880 1_545
Mg8 Si0 3.071920 1_555
Mg8 Y0 3.230236 1_555
Mg9 Si0 3.071920 1_555
Mg9 Y0 3.230236 1_556
Mg10 Si0 3.071920 1_655
Mg10 Mg3 3.115424 1_555
Mg10 Mg5 3.115431 1_545
Mg10 Mg8 3.133034 1_655
Mg10 Mg6 3.133034 1_655
Mg10 Mg12 3.205054 1_545
Mg10 Mg12 3.205054 1_555
Mg10 Y0 3.230236 1_655
Mg10 Mg2 3.245697 1_555
Mg10 Mg4 3.245703 1_545
Mg10 Mg8 3.264880 1_545
Mg10 Mg6 3.264880 1_555
Mg11 Si0 3.071920 1_655
Mg11 Mg3 3.115424 1_555
Mg11 Mg5 3.115431 1_545
Mg11 Mg9 3.133034 1_655
Mg11 Mg7 3.133034 1_655
Mg11 Mg13 3.205054 1_545
Mg11 Mg13 3.205054 1_555
Mg11 Y0 3.230236 1_656
Mg11 Mg2 3.245697 1_556
Mg11 Mg4 3.245703 1_546
Mg11 Mg9 3.264880 1_545
Mg11 Mg7 3.264880 1_555
Mg12 Mg4 3.132355 1_555
Mg12 Mg2 3.132362 1_555
Mg12 Mg6 3.205054 1_665
Mg12 Mg6 3.205054 1_555
Mg12 Mg8 3.205054 1_555
Mg12 Mg8 3.205054 1_655
Mg12 Mg5 3.234212 1_555
Mg12 Mg3 3.234218 1_555
Mg13 Mg4 3.132355 1_556
Mg13 Mg2 3.132362 1_556
Mg13 Mg7 3.205054 1_665
Mg13 Mg7 3.205054 1_555
Mg13 Mg9 3.205054 1_555
Mg13 Mg9 3.205054 1_655
Mg13 Mg5 3.234212 1_555
Mg13 Mg3 3.234218 1_555
