# generated using pymatgen
data_CoSe2
_symmetry_space_group_name_H-M   'P 1'
_cell_length_a   6.86466780
_cell_length_b   6.86466780
_cell_length_c   6.86466780
_cell_angle_alpha   60.00000000
_cell_angle_beta   60.00000000
_cell_angle_gamma   60.00000000
_symmetry_Int_Tables_number   1
_chemical_formula_structural   CoSe2
_chemical_formula_sum   'Co4 Se8'
_cell_volume   228.74076951
_cell_formula_units_Z   4
loop_
 _symmetry_equiv_pos_site_id
 _symmetry_equiv_pos_as_xyz
  1  'x, y, z'
loop_
 _atom_site_type_symbol
 _atom_site_label
 _atom_site_symmetry_multiplicity
 _atom_site_fract_x
 _atom_site_fract_y
 _atom_site_fract_z
 _atom_site_occupancy
  Co  Co0  1  0.62500000  0.62500000  0.62500000  1
  Co  Co1  1  0.12500000  0.62500000  0.62500000  1
  Co  Co2  1  0.62500000  0.12500000  0.62500000  1
  Co  Co3  1  0.62500000  0.62500000  0.12500000  1
  Se  Se0  1  0.86753816  0.39738553  0.86753816  1
  Se  Se1  1  0.38246184  0.38246184  0.85261447  1
  Se  Se2  1  0.85261447  0.38246184  0.38246184  1
  Se  Se3  1  0.38246184  0.38246184  0.38246184  1
  Se  Se4  1  0.39738553  0.86753816  0.86753816  1
  Se  Se5  1  0.86753816  0.86753816  0.86753816  1
  Se  Se6  1  0.86753816  0.86753816  0.39738553  1
  Se  Se7  1  0.38246184  0.85261447  0.38246184  1
loop_
_geom_bond_atom_site_label_1
_geom_bond_atom_site_label_2
_geom_bond_distance
_geom_bond_site_symmetry_2
Co0 Se7 2.356814 1_555
Co0 Se4 2.356814 1_555
Co0 Se1 2.356814 1_555
Co0 Se2 2.356814 1_555
Co0 Se0 2.356814 1_555
Co0 Se6 2.356814 1_555
Co1 Se6 2.356814 1_455
Co1 Se0 2.356814 1_455
Co1 Se1 2.356814 1_555
Co1 Se7 2.356814 1_555
Co1 Se3 2.356814 1_555
Co1 Se5 2.356814 1_455
Co2 Se4 2.356814 1_545
Co2 Se6 2.356814 1_545
Co2 Se2 2.356814 1_555
Co2 Se1 2.356814 1_555
Co2 Se3 2.356814 1_555
Co2 Se5 2.356814 1_545
Co3 Se0 2.356814 1_554
Co3 Se4 2.356814 1_554
Co3 Se2 2.356814 1_555
Co3 Se7 2.356814 1_555
Co3 Se3 2.356814 1_555
Co3 Se5 2.356814 1_554
