# generated using pymatgen
data_Ba3HfNb4O15
_symmetry_space_group_name_H-M   'P 1'
_cell_length_a   4.11259300
_cell_length_b   12.81272500
_cell_length_c   12.81272500
_cell_angle_alpha   90.00000000
_cell_angle_beta   90.00000000
_cell_angle_gamma   90.00000000
_symmetry_Int_Tables_number   1
_chemical_formula_structural   Ba3HfNb4O15
_chemical_formula_sum   'Ba6 Hf2 Nb8 O30'
_cell_volume   675.14762135
_cell_formula_units_Z   2
loop_
 _symmetry_equiv_pos_site_id
 _symmetry_equiv_pos_as_xyz
  1  'x, y, z'
loop_
 _atom_site_type_symbol
 _atom_site_label
 _atom_site_symmetry_multiplicity
 _atom_site_fract_x
 _atom_site_fract_y
 _atom_site_fract_z
 _atom_site_occupancy
  Ba  Ba0  1  0.33458700  0.50000000  0.50000000  1
  Ba  Ba1  1  0.33458700  0.00000000  0.00000000  1
  Ba  Ba2  1  0.34424200  0.83222700  0.33222700  1
  Ba  Ba3  1  0.34424200  0.16777300  0.66777300  1
  Ba  Ba4  1  0.34424200  0.66777300  0.83222700  1
  Ba  Ba5  1  0.34424200  0.33222700  0.16777300  1
  Hf  Hf0  1  0.82670500  0.00000000  0.50000000  1
  Hf  Hf1  1  0.82670500  0.50000000  0.00000000  1
  Nb  Nb0  1  0.85481800  0.28612500  0.42540800  1
  Nb  Nb1  1  0.85481800  0.71387500  0.57459200  1
  Nb  Nb2  1  0.85481800  0.21387500  0.92540800  1
  Nb  Nb3  1  0.85481800  0.78612500  0.07459200  1
  Nb  Nb4  1  0.85481800  0.42540800  0.71387500  1
  Nb  Nb5  1  0.85481800  0.57459200  0.28612500  1
  Nb  Nb6  1  0.85481800  0.92540800  0.78612500  1
  Nb  Nb7  1  0.85481800  0.07459200  0.21387500  1
  O  O0  1  0.81632900  0.48950700  0.16242500  1
  O  O1  1  0.81632900  0.51049300  0.83757500  1
  O  O2  1  0.81632900  0.01049300  0.66242500  1
  O  O3  1  0.81632900  0.98950700  0.33757500  1
  O  O4  1  0.81632900  0.16242500  0.51049300  1
  O  O5  1  0.81632900  0.83757500  0.48950700  1
  O  O6  1  0.81632900  0.66242500  0.98950700  1
  O  O7  1  0.81632900  0.33757500  0.01049300  1
  O  O8  1  0.80829800  0.43275200  0.36228500  1
  O  O9  1  0.80829800  0.56724800  0.63771500  1
  O  O10  1  0.80829800  0.06724800  0.86228500  1
  O  O11  1  0.80829800  0.93275200  0.13771500  1
  O  O12  1  0.80829800  0.36228500  0.56724800  1
  O  O13  1  0.80829800  0.63771500  0.43275200  1
  O  O14  1  0.80829800  0.86228500  0.93275200  1
  O  O15  1  0.80829800  0.13771500  0.06724800  1
  O  O16  1  0.31140600  0.29470900  0.42096100  1
  O  O17  1  0.31140600  0.70529100  0.57903900  1
  O  O18  1  0.31140600  0.20529100  0.92096100  1
  O  O19  1  0.31140600  0.79470900  0.07903900  1
  O  O20  1  0.31140600  0.42096100  0.70529100  1
  O  O21  1  0.31140600  0.57903900  0.29470900  1
  O  O22  1  0.31140600  0.92096100  0.79470900  1
  O  O23  1  0.31140600  0.07903900  0.20529100  1
  O  O24  1  0.32048200  0.00000000  0.50000000  1
  O  O25  1  0.32048200  0.50000000  0.00000000  1
  O  O26  1  0.81367100  0.71702100  0.21702100  1
  O  O27  1  0.81367100  0.28297900  0.78297900  1
  O  O28  1  0.81367100  0.78297900  0.71702100  1
  O  O29  1  0.81367100  0.21702100  0.28297900  1
loop_
_geom_bond_atom_site_label_1
_geom_bond_atom_site_label_2
_geom_bond_distance
_geom_bond_site_symmetry_2
Ba0 O9 2.766096 1_555
Ba0 O13 2.766096 1_555
Ba0 O12 2.766096 1_555
Ba0 O8 2.766096 1_555
Ba0 O17 2.820165 1_555
Ba0 O21 2.820165 1_555
Ba0 O16 2.820165 1_555
Ba0 O20 2.820165 1_555
Ba0 O9 2.922424 1_455
Ba0 O13 2.922424 1_455
Ba0 O12 2.922424 1_455
Ba0 O8 2.922424 1_455
Ba1 O15 2.766096 1_555
Ba1 O10 2.766096 1_554
Ba1 O11 2.766096 1_545
Ba1 O14 2.766096 1_544
Ba1 O23 2.820165 1_555
Ba1 O19 2.820165 1_545
Ba1 O22 2.820165 1_544
Ba1 O18 2.820165 1_554
Ba1 O15 2.922424 1_455
Ba1 O10 2.922424 1_454
Ba1 O11 2.922424 1_445
Ba1 O14 2.922424 1_444
Ba2 O5 2.799124 1_555
Ba2 O3 2.799124 1_555
Ba2 O26 2.843389 1_555
Ba2 O5 2.962989 1_455
Ba2 O3 2.962989 1_455
Ba2 O26 3.019765 1_455
Ba2 O24 3.041605 1_565
Ba2 O21 3.282230 1_555
Ba2 O19 3.282230 1_555
Ba3 O4 2.799124 1_555
Ba3 O2 2.799124 1_555
Ba3 O27 2.843389 1_555
Ba3 O4 2.962989 1_455
Ba3 O2 2.962989 1_455
Ba3 O27 3.019765 1_455
Ba3 O24 3.041605 1_555
Ba3 O18 3.282230 1_555
Ba3 O20 3.282230 1_555
Ba4 O1 2.799124 1_555
Ba4 O6 2.799124 1_555
Ba4 O28 2.843389 1_555
Ba4 O1 2.962989 1_455
Ba4 O6 2.962989 1_455
Ba4 O28 3.019765 1_455
Ba4 O25 3.041605 1_556
Ba4 O22 3.282230 1_555
Ba4 O17 3.282230 1_555
Ba5 O0 2.799124 1_555
Ba5 O7 2.799124 1_555
Ba5 O29 2.843389 1_555
Ba5 O0 2.962989 1_455
Ba5 O7 2.962989 1_455
Ba5 O29 3.019765 1_455
Ba5 O25 3.041605 1_555
Ba5 O16 3.282230 1_555
Ba5 O23 3.282230 1_555
Hf0 O24 2.030704 1_655
Hf0 O24 2.081889 1_555
Hf0 O2 2.085882 1_555
Hf0 O4 2.085882 1_555
Hf0 O5 2.085882 1_545
Hf0 O3 2.085882 1_545
Hf1 O25 2.030704 1_655
Hf1 O25 2.081889 1_555
Hf1 O6 2.085882 1_554
Hf1 O0 2.085882 1_555
Hf1 O1 2.085882 1_554
Hf1 O7 2.085882 1_555
Nb0 O16 1.881842 1_655
Nb0 O4 1.930167 1_555
Nb0 O29 2.035402 1_555
Nb0 O8 2.054314 1_555
Nb0 O12 2.071620 1_555
Nb0 O16 2.238262 1_555
Nb1 O17 1.881842 1_655
Nb1 O5 1.930167 1_555
Nb1 O28 2.035402 1_555
Nb1 O9 2.054314 1_555
Nb1 O13 2.071620 1_555
Nb1 O17 2.238262 1_555
Nb2 O18 1.881842 1_655
Nb2 O7 1.930167 1_556
Nb2 O27 2.035402 1_555
Nb2 O10 2.054314 1_555
Nb2 O15 2.071620 1_556
Nb2 O18 2.238262 1_555
Nb3 O19 1.881842 1_655
Nb3 O6 1.930167 1_554
Nb3 O26 2.035402 1_555
Nb3 O11 2.054314 1_555
Nb3 O14 2.071620 1_554
Nb3 O19 2.238262 1_555
Nb4 O20 1.881842 1_655
Nb4 O1 1.930167 1_555
Nb4 O27 2.035402 1_555
Nb4 O12 2.054314 1_555
Nb4 O9 2.071620 1_555
Nb4 O20 2.238262 1_555
Nb5 O21 1.881842 1_655
Nb5 O0 1.930167 1_555
Nb5 O26 2.035402 1_555
Nb5 O13 2.054314 1_555
Nb5 O8 2.071620 1_555
Nb5 O21 2.238262 1_555
Nb6 O22 1.881842 1_655
Nb6 O2 1.930167 1_565
Nb6 O28 2.035402 1_555
Nb6 O14 2.054314 1_555
Nb6 O10 2.071620 1_565
Nb6 O22 2.238262 1_555
Nb7 O23 1.881842 1_655
Nb7 O3 1.930167 1_545
Nb7 O29 2.035402 1_555
Nb7 O15 2.054314 1_555
Nb7 O11 2.071620 1_545
Nb7 O23 2.238262 1_555
