# generated using pymatgen
data_Ba2ErInTe5
_symmetry_space_group_name_H-M   'P 1'
_cell_length_a   10.48102656
_cell_length_b   10.48102656
_cell_length_c   14.36081300
_cell_angle_alpha   90.00000000
_cell_angle_beta   90.00000000
_cell_angle_gamma   154.80614042
_symmetry_Int_Tables_number   1
_chemical_formula_structural   Ba2ErInTe5
_chemical_formula_sum   'Ba4 Er2 In2 Te10'
_cell_volume   671.54061019
_cell_formula_units_Z   2
loop_
 _symmetry_equiv_pos_site_id
 _symmetry_equiv_pos_as_xyz
  1  'x, y, z'
loop_
 _atom_site_type_symbol
 _atom_site_label
 _atom_site_symmetry_multiplicity
 _atom_site_fract_x
 _atom_site_fract_y
 _atom_site_fract_z
 _atom_site_occupancy
  Ba  Ba0  1  0.13087100  0.86912900  0.81528300  1
  Ba  Ba1  1  0.86912900  0.13087100  0.31528300  1
  Ba  Ba2  1  0.11938400  0.88061600  0.18205800  1
  Ba  Ba3  1  0.88061600  0.11938400  0.68205800  1
  Er  Er0  1  0.20970500  0.79029500  0.51856300  1
  Er  Er1  1  0.79029500  0.20970500  0.01856300  1
  In  In0  1  0.44357200  0.55642800  0.93412200  1
  In  In1  1  0.55642800  0.44357200  0.43412200  1
  Te  Te0  1  0.35489100  0.64510900  0.50118200  1
  Te  Te1  1  0.64510900  0.35489100  0.00118200  1
  Te  Te2  1  0.29198600  0.70801400  0.15930400  1
  Te  Te3  1  0.70801400  0.29198600  0.65930400  1
  Te  Te4  1  0.30976100  0.69023900  0.86759400  1
  Te  Te5  1  0.69023900  0.30976100  0.36759400  1
  Te  Te6  1  0.50410000  0.49590000  0.76236600  1
  Te  Te7  1  0.49590000  0.50410000  0.26236600  1
  Te  Te8  1  0.05082600  0.94917400  0.55142700  1
  Te  Te9  1  0.94917400  0.05082600  0.05142700  1
loop_
_geom_bond_atom_site_label_1
_geom_bond_atom_site_label_2
_geom_bond_distance
_geom_bond_site_symmetry_2
Ba0 Te1 3.526597 1_566
Ba0 Te1 3.526597 1_456
Ba0 Te6 3.539526 1_455
Ba0 Te6 3.539526 1_565
Ba0 Te3 3.568340 1_565
Ba0 Te3 3.568340 1_455
Ba0 Te4 3.735944 1_555
Ba0 Te8 4.127881 1_555
Ba1 Te0 3.526597 1_655
Ba1 Te0 3.526597 1_545
Ba1 Te7 3.539526 1_545
Ba1 Te7 3.539526 1_655
Ba1 Te2 3.568340 1_655
Ba1 Te2 3.568340 1_545
Ba1 Te5 3.735944 1_555
Ba1 Te9 4.127881 1_555
Ba2 Te1 3.499866 1_565
Ba2 Te1 3.499866 1_455
Ba2 Te2 3.546087 1_555
Ba2 Te7 3.596744 1_455
Ba2 Te7 3.596744 1_565
Ba2 Te5 3.798069 1_455
Ba2 Te5 3.798069 1_565
Ba2 Te9 3.955253 1_465
Ba3 Te0 3.499866 1_655
Ba3 Te0 3.499866 1_545
Ba3 Te3 3.546087 1_555
Ba3 Te6 3.596744 1_545
Ba3 Te6 3.596744 1_655
Ba3 Te4 3.798069 1_545
Ba3 Te4 3.798069 1_655
Ba3 Te8 3.955253 1_645
Er0 Te0 2.980607 1_555
Er0 Te3 3.051430 1_565
Er0 Te3 3.051430 1_455
Er0 Te5 3.175520 1_565
Er0 Te5 3.175520 1_455
Er0 Te8 3.284348 1_555
Er1 Te1 2.980607 1_555
Er1 Te2 3.051430 1_655
Er1 Te2 3.051430 1_545
Er1 Te4 3.175520 1_654
Er1 Te4 3.175520 1_544
Er1 Te9 3.284348 1_555
In0 Te6 2.759920 1_555
In0 Te9 2.841822 1_456
In0 Te9 2.841822 1_566
In0 Te4 2.899366 1_555
In1 Te7 2.759920 1_555
In1 Te8 2.841822 1_545
In1 Te8 2.841822 1_655
In1 Te5 2.899366 1_555
