# generated using pymatgen
data_Mg6TiAl
_symmetry_space_group_name_H-M   'P 1'
_cell_length_a   4.99191700
_cell_length_b   6.05955500
_cell_length_c   10.95207100
_cell_angle_alpha   90.00000000
_cell_angle_beta   90.00000000
_cell_angle_gamma   90.00000000
_symmetry_Int_Tables_number   1
_chemical_formula_structural   Mg6TiAl
_chemical_formula_sum   'Mg12 Ti2 Al2'
_cell_volume   331.28695726
_cell_formula_units_Z   2
loop_
 _symmetry_equiv_pos_site_id
 _symmetry_equiv_pos_as_xyz
  1  'x, y, z'
loop_
 _atom_site_type_symbol
 _atom_site_label
 _atom_site_symmetry_multiplicity
 _atom_site_fract_x
 _atom_site_fract_y
 _atom_site_fract_z
 _atom_site_occupancy
  Mg  Mg0  1  0.50000000  0.25112300  0.41871300  1
  Mg  Mg1  1  0.50000000  0.74887700  0.41871300  1
  Mg  Mg2  1  0.00000000  0.74614000  0.08458000  1
  Mg  Mg3  1  0.00000000  0.25386000  0.08458000  1
  Mg  Mg4  1  0.00000000  0.00000000  0.32905200  1
  Mg  Mg5  1  0.00000000  0.50000000  0.32689200  1
  Mg  Mg6  1  0.50000000  0.75112300  0.91871300  1
  Mg  Mg7  1  0.50000000  0.24887700  0.91871300  1
  Mg  Mg8  1  0.00000000  0.24614000  0.58458000  1
  Mg  Mg9  1  0.00000000  0.75386000  0.58458000  1
  Mg  Mg10  1  0.00000000  0.50000000  0.82905200  1
  Mg  Mg11  1  0.00000000  0.00000000  0.82689200  1
  Ti  Ti0  1  0.50000000  0.50000000  0.17066900  1
  Ti  Ti1  1  0.50000000  0.00000000  0.67066900  1
  Al  Al0  1  0.50000000  0.00000000  0.16679600  1
  Al  Al1  1  0.50000000  0.50000000  0.66679600  1
loop_
_geom_bond_atom_site_label_1
_geom_bond_atom_site_label_2
_geom_bond_distance
_geom_bond_site_symmetry_2
Mg0 Mg1 3.016168 1_555
Mg0 Mg1 3.043387 1_545
Mg0 Mg4 3.083769 1_555
Mg0 Mg4 3.083769 1_655
Mg0 Mg5 3.084707 1_655
Mg0 Mg5 3.084707 1_555
Mg0 Mg8 3.087185 1_655
Mg0 Mg8 3.087185 1_555
Mg0 Ti0 3.107122 1_555
Mg0 Ti1 3.151200 1_555
Mg1 Mg4 3.083769 1_565
Mg1 Mg4 3.083769 1_665
Mg1 Mg5 3.084707 1_655
Mg1 Mg5 3.084707 1_555
Mg1 Mg9 3.087185 1_555
Mg1 Mg9 3.087185 1_655
Mg1 Ti0 3.107122 1_555
Mg1 Ti1 3.151200 1_565
Mg2 Mg3 2.982998 1_555
Mg2 Mg5 3.044227 1_555
Mg2 Ti0 3.056689 1_455
Mg2 Ti0 3.056689 1_555
Mg2 Mg3 3.076557 1_565
Mg2 Mg6 3.087185 1_554
Mg2 Mg6 3.087185 1_454
Mg2 Mg4 3.087907 1_565
Mg3 Mg5 3.044227 1_555
Mg3 Ti0 3.056689 1_455
Mg3 Ti0 3.056689 1_555
Mg3 Mg7 3.087185 1_554
Mg3 Mg7 3.087185 1_454
Mg3 Mg4 3.087907 1_555
Mg4 Mg5 3.029870 1_545
Mg4 Mg5 3.029870 1_555
Mg4 Mg9 3.171200 1_545
Mg4 Mg8 3.171200 1_555
Mg5 Ti0 3.026088 1_555
Mg5 Ti0 3.026088 1_455
Mg5 Mg8 3.214220 1_555
Mg5 Mg9 3.214220 1_555
Mg6 Mg7 3.016168 1_565
Mg6 Mg7 3.043387 1_555
Mg6 Ti1 3.107122 1_565
Mg6 Ti0 3.151200 1_556
Mg7 Ti1 3.107122 1_555
Mg7 Ti0 3.151200 1_556
Mg8 Mg9 2.982998 1_545
Mg8 Ti1 3.056689 1_555
Mg8 Ti1 3.056689 1_455
Mg8 Mg9 3.076557 1_555
Mg9 Ti1 3.056689 1_465
Mg9 Ti1 3.056689 1_565
Mg10 Mg11 3.029870 1_565
Mg10 Mg11 3.029870 1_555
Mg10 Mg7 3.083769 1_455
Mg10 Mg7 3.083769 1_555
Mg10 Mg6 3.083769 1_555
Mg10 Mg6 3.083769 1_455
Mg10 Mg8 3.087907 1_555
Mg10 Mg9 3.087907 1_555
Mg10 Mg3 3.171200 1_556
Mg10 Mg2 3.171200 1_556
Mg11 Ti1 3.026088 1_455
Mg11 Ti1 3.026088 1_555
Mg11 Mg9 3.044227 1_545
Mg11 Mg8 3.044227 1_555
Mg11 Mg6 3.084707 1_445
Mg11 Mg7 3.084707 1_455
Mg11 Mg6 3.084707 1_545
Mg11 Mg7 3.084707 1_555
Mg11 Mg2 3.214220 1_546
Mg11 Mg3 3.214220 1_556
Al0 Ti0 3.030074 1_555
Al0 Ti0 3.030074 1_545
Al0 Mg4 3.063932 1_555
Al0 Mg4 3.063932 1_655
Al0 Mg2 3.067066 1_545
Al0 Mg3 3.067066 1_555
Al0 Mg3 3.067066 1_655
Al0 Mg2 3.067066 1_645
Al0 Mg7 3.107496 1_554
Al0 Mg6 3.107496 1_544
Al0 Mg0 3.150826 1_555
Al0 Mg1 3.150826 1_545
Al1 Ti1 3.030074 1_555
Al1 Ti1 3.030074 1_565
Al1 Mg10 3.063932 1_555
Al1 Mg10 3.063932 1_655
Al1 Mg8 3.067066 1_655
Al1 Mg8 3.067066 1_555
Al1 Mg9 3.067066 1_655
Al1 Mg9 3.067066 1_555
Al1 Mg0 3.107496 1_555
Al1 Mg1 3.107496 1_555
Al1 Mg7 3.150826 1_555
Al1 Mg6 3.150826 1_555
