# generated using pymatgen
data_Ti3Ir2
_symmetry_space_group_name_H-M   'P 1'
_cell_length_a   6.21915600
_cell_length_b   6.21915600
_cell_length_c   31.93732600
_cell_angle_alpha   90.00000000
_cell_angle_beta   90.00000000
_cell_angle_gamma   90.00000000
_symmetry_Int_Tables_number   1
_chemical_formula_structural   Ti3Ir2
_chemical_formula_sum   'Ti48 Ir32'
_cell_volume   1235.26874449
_cell_formula_units_Z   16
loop_
 _symmetry_equiv_pos_site_id
 _symmetry_equiv_pos_as_xyz
  1  'x, y, z'
loop_
 _atom_site_type_symbol
 _atom_site_label
 _atom_site_symmetry_multiplicity
 _atom_site_fract_x
 _atom_site_fract_y
 _atom_site_fract_z
 _atom_site_occupancy
  Ti  Ti0_0  1  0.25000000  0.25000000  0.05333700  1
  Ti  Ti0_1  1  0.25000000  0.25000000  0.55333700  1
  Ti  Ti0_2  1  0.25000000  0.75000000  0.05333700  1
  Ti  Ti0_3  1  0.25000000  0.75000000  0.55333700  1
  Ti  Ti0_4  1  0.75000000  0.25000000  0.05333700  1
  Ti  Ti0_5  1  0.75000000  0.25000000  0.55333700  1
  Ti  Ti0_6  1  0.75000000  0.75000000  0.05333700  1
  Ti  Ti0_7  1  0.75000000  0.75000000  0.55333700  1
  Ti  Ti1_0  1  0.25000000  0.25000000  0.15143250  1
  Ti  Ti1_1  1  0.25000000  0.25000000  0.65143250  1
  Ti  Ti1_2  1  0.25000000  0.75000000  0.15143250  1
  Ti  Ti1_3  1  0.25000000  0.75000000  0.65143250  1
  Ti  Ti1_4  1  0.75000000  0.25000000  0.15143250  1
  Ti  Ti1_5  1  0.75000000  0.25000000  0.65143250  1
  Ti  Ti1_6  1  0.75000000  0.75000000  0.15143250  1
  Ti  Ti1_7  1  0.75000000  0.75000000  0.65143250  1
  Ti  Ti2_0  1  0.25000000  0.25000000  0.25000000  1
  Ti  Ti2_1  1  0.25000000  0.25000000  0.75000000  1
  Ti  Ti2_2  1  0.25000000  0.75000000  0.25000000  1
  Ti  Ti2_3  1  0.25000000  0.75000000  0.75000000  1
  Ti  Ti2_4  1  0.75000000  0.25000000  0.25000000  1
  Ti  Ti2_5  1  0.75000000  0.25000000  0.75000000  1
  Ti  Ti2_6  1  0.75000000  0.75000000  0.25000000  1
  Ti  Ti2_7  1  0.75000000  0.75000000  0.75000000  1
  Ti  Ti3_0  1  0.25000000  0.25000000  0.34856750  1
  Ti  Ti3_1  1  0.25000000  0.25000000  0.84856750  1
  Ti  Ti3_2  1  0.25000000  0.75000000  0.34856750  1
  Ti  Ti3_3  1  0.25000000  0.75000000  0.84856750  1
  Ti  Ti3_4  1  0.75000000  0.25000000  0.34856750  1
  Ti  Ti3_5  1  0.75000000  0.25000000  0.84856750  1
  Ti  Ti3_6  1  0.75000000  0.75000000  0.34856750  1
  Ti  Ti3_7  1  0.75000000  0.75000000  0.84856750  1
  Ti  Ti4_0  1  0.25000000  0.25000000  0.44666300  1
  Ti  Ti4_1  1  0.25000000  0.25000000  0.94666300  1
  Ti  Ti4_2  1  0.25000000  0.75000000  0.44666300  1
  Ti  Ti4_3  1  0.25000000  0.75000000  0.94666300  1
  Ti  Ti4_4  1  0.75000000  0.25000000  0.44666300  1
  Ti  Ti4_5  1  0.75000000  0.25000000  0.94666300  1
  Ti  Ti4_6  1  0.75000000  0.75000000  0.44666300  1
  Ti  Ti4_7  1  0.75000000  0.75000000  0.94666300  1
  Ti  Ti5_0  1  0.00000000  0.00000000  0.00000000  1
  Ti  Ti5_1  1  0.00000000  0.00000000  0.50000000  1
  Ti  Ti5_2  1  0.00000000  0.50000000  0.00000000  1
  Ti  Ti5_3  1  0.00000000  0.50000000  0.50000000  1
  Ti  Ti5_4  1  0.50000000  0.00000000  0.00000000  1
  Ti  Ti5_5  1  0.50000000  0.00000000  0.50000000  1
  Ti  Ti5_6  1  0.50000000  0.50000000  0.00000000  1
  Ti  Ti5_7  1  0.50000000  0.50000000  0.50000000  1
  Ir  Ir0_0  1  0.00000000  0.00000000  0.10288850  1
  Ir  Ir0_1  1  0.00000000  0.00000000  0.60288850  1
  Ir  Ir0_2  1  0.00000000  0.50000000  0.10288850  1
  Ir  Ir0_3  1  0.00000000  0.50000000  0.60288850  1
  Ir  Ir0_4  1  0.50000000  0.00000000  0.10288850  1
  Ir  Ir0_5  1  0.50000000  0.00000000  0.60288850  1
  Ir  Ir0_6  1  0.50000000  0.50000000  0.10288850  1
  Ir  Ir0_7  1  0.50000000  0.50000000  0.60288850  1
  Ir  Ir1_0  1  0.00000000  0.00000000  0.19991950  1
  Ir  Ir1_1  1  0.00000000  0.00000000  0.69991950  1
  Ir  Ir1_2  1  0.00000000  0.50000000  0.19991950  1
  Ir  Ir1_3  1  0.00000000  0.50000000  0.69991950  1
  Ir  Ir1_4  1  0.50000000  0.00000000  0.19991950  1
  Ir  Ir1_5  1  0.50000000  0.00000000  0.69991950  1
  Ir  Ir1_6  1  0.50000000  0.50000000  0.19991950  1
  Ir  Ir1_7  1  0.50000000  0.50000000  0.69991950  1
  Ir  Ir2_0  1  0.00000000  0.00000000  0.30008050  1
  Ir  Ir2_1  1  0.00000000  0.00000000  0.80008050  1
  Ir  Ir2_2  1  0.00000000  0.50000000  0.30008050  1
  Ir  Ir2_3  1  0.00000000  0.50000000  0.80008050  1
  Ir  Ir2_4  1  0.50000000  0.00000000  0.30008050  1
  Ir  Ir2_5  1  0.50000000  0.00000000  0.80008050  1
  Ir  Ir2_6  1  0.50000000  0.50000000  0.30008050  1
  Ir  Ir2_7  1  0.50000000  0.50000000  0.80008050  1
  Ir  Ir3_0  1  0.00000000  0.00000000  0.39711150  1
  Ir  Ir3_1  1  0.00000000  0.00000000  0.89711150  1
  Ir  Ir3_2  1  0.00000000  0.50000000  0.39711150  1
  Ir  Ir3_3  1  0.00000000  0.50000000  0.89711150  1
  Ir  Ir3_4  1  0.50000000  0.00000000  0.39711150  1
  Ir  Ir3_5  1  0.50000000  0.00000000  0.89711150  1
  Ir  Ir3_6  1  0.50000000  0.50000000  0.39711150  1
  Ir  Ir3_7  1  0.50000000  0.50000000  0.89711150  1
loop_
_geom_bond_atom_site_label_1
_geom_bond_atom_site_label_2
_geom_bond_distance
_geom_bond_site_symmetry_2
Ti0_0 Ti5_4 2.781447 1_555
Ti0_0 Ti5_2 2.781447 1_555
Ti0_0 Ti5_0 2.781447 1_555
Ti0_0 Ti5_6 2.781447 1_555
Ti0_1 Ti5_1 2.781447 1_555
Ti0_1 Ti5_3 2.781447 1_555
Ti0_1 Ti5_7 2.781447 1_555
Ti0_1 Ti5_5 2.781447 1_555
Ti0_2 Ti5_4 2.781447 1_565
Ti0_2 Ti5_0 2.781447 1_565
Ti0_2 Ti5_2 2.781447 1_555
Ti0_2 Ti5_6 2.781447 1_555
Ti0_3 Ti5_1 2.781447 1_565
Ti0_3 Ti5_5 2.781447 1_565
Ti0_3 Ti5_3 2.781447 1_555
Ti0_3 Ti5_7 2.781447 1_555
Ti0_4 Ti5_2 2.781447 1_655
Ti0_4 Ti5_0 2.781447 1_655
Ti0_4 Ti5_4 2.781447 1_555
Ti0_4 Ti5_6 2.781447 1_555
Ti0_5 Ti5_3 2.781447 1_655
Ti0_5 Ti5_1 2.781447 1_655
Ti0_5 Ti5_5 2.781447 1_555
Ti0_5 Ti5_7 2.781447 1_555
Ti0_6 Ti5_0 2.781447 1_665
Ti0_6 Ti5_4 2.781447 1_565
Ti0_6 Ti5_2 2.781447 1_655
Ti0_6 Ti5_6 2.781447 1_555
Ti0_7 Ti5_1 2.781447 1_665
Ti0_7 Ti5_5 2.781447 1_565
Ti0_7 Ti5_3 2.781447 1_655
Ti0_7 Ti5_7 2.781447 1_555
Ti4_0 Ti5_1 2.781447 1_555
Ti4_0 Ti5_3 2.781447 1_555
Ti4_0 Ti5_7 2.781447 1_555
Ti4_0 Ti5_5 2.781447 1_555
Ti4_1 Ti5_0 2.781447 1_556
Ti4_1 Ti5_6 2.781447 1_556
Ti4_1 Ti5_2 2.781447 1_556
Ti4_1 Ti5_4 2.781447 1_556
Ti4_2 Ti5_5 2.781447 1_565
Ti4_2 Ti5_1 2.781447 1_565
Ti4_2 Ti5_3 2.781447 1_555
Ti4_2 Ti5_7 2.781447 1_555
Ti4_3 Ti5_0 2.781447 1_566
Ti4_3 Ti5_4 2.781447 1_566
Ti4_3 Ti5_6 2.781447 1_556
Ti4_3 Ti5_2 2.781447 1_556
Ti4_4 Ti5_1 2.781447 1_655
Ti4_4 Ti5_3 2.781447 1_655
Ti4_4 Ti5_5 2.781447 1_555
Ti4_4 Ti5_7 2.781447 1_555
Ti4_5 Ti5_0 2.781447 1_656
Ti4_5 Ti5_2 2.781447 1_656
Ti4_5 Ti5_6 2.781447 1_556
Ti4_5 Ti5_4 2.781447 1_556
Ti4_6 Ti5_1 2.781447 1_665
Ti4_6 Ti5_5 2.781447 1_565
Ti4_6 Ti5_3 2.781447 1_655
Ti4_6 Ti5_7 2.781447 1_555
Ti4_7 Ti5_0 2.781447 1_666
Ti4_7 Ti5_4 2.781447 1_566
Ti4_7 Ti5_2 2.781447 1_656
Ti4_7 Ti5_6 2.781447 1_556
Ti5_0 Ti5_2 3.109578 1_555
Ti5_0 Ti5_2 3.109578 1_545
Ti5_0 Ti5_4 3.109578 1_555
Ti5_0 Ti5_4 3.109578 1_455
Ti5_1 Ti5_5 3.109578 1_555
Ti5_1 Ti5_5 3.109578 1_455
Ti5_1 Ti5_3 3.109578 1_545
Ti5_1 Ti5_3 3.109578 1_555
Ti5_2 Ti5_6 3.109578 1_555
Ti5_2 Ti5_6 3.109578 1_455
Ti5_3 Ti5_7 3.109578 1_555
Ti5_3 Ti5_7 3.109578 1_455
Ti5_4 Ti5_6 3.109578 1_555
Ti5_4 Ti5_6 3.109578 1_545
Ti5_5 Ti5_7 3.109578 1_555
Ti5_5 Ti5_7 3.109578 1_545
Ir0_0 Ti1_6 2.690422 1_445
Ir0_0 Ti1_4 2.690422 1_455
Ir0_0 Ti1_0 2.690422 1_555
Ir0_0 Ti1_2 2.690422 1_545
Ir0_0 Ti0_6 2.709092 1_445
Ir0_0 Ti0_4 2.709092 1_455
Ir0_0 Ti0_2 2.709092 1_545
Ir0_0 Ti0_0 2.709092 1_555
Ir0_0 Ti5_0 3.285984 1_555
Ir0_1 Ti1_5 2.690422 1_455
Ir0_1 Ti1_7 2.690422 1_445
Ir0_1 Ti1_3 2.690422 1_545
Ir0_1 Ti1_1 2.690422 1_555
Ir0_1 Ti0_7 2.709092 1_445
Ir0_1 Ti0_3 2.709092 1_545
Ir0_1 Ti0_5 2.709092 1_455
Ir0_1 Ti0_1 2.709092 1_555
Ir0_1 Ti5_1 3.285984 1_555
Ir0_2 Ti1_4 2.690422 1_455
Ir0_2 Ti1_0 2.690422 1_555
Ir0_2 Ti1_6 2.690422 1_455
Ir0_2 Ti1_2 2.690422 1_555
Ir0_2 Ti0_4 2.709092 1_455
Ir0_2 Ti0_6 2.709092 1_455
Ir0_2 Ti0_0 2.709092 1_555
Ir0_2 Ti0_2 2.709092 1_555
Ir0_2 Ti5_2 3.285984 1_555
Ir0_3 Ti1_5 2.690422 1_455
Ir0_3 Ti1_3 2.690422 1_555
Ir0_3 Ti1_7 2.690422 1_455
Ir0_3 Ti1_1 2.690422 1_555
Ir0_3 Ti0_5 2.709092 1_455
Ir0_3 Ti0_7 2.709092 1_455
Ir0_3 Ti0_3 2.709092 1_555
Ir0_3 Ti0_1 2.709092 1_555
Ir0_3 Ti5_3 3.285984 1_555
Ir0_4 Ti1_0 2.690422 1_555
Ir0_4 Ti1_2 2.690422 1_545
Ir0_4 Ti1_6 2.690422 1_545
Ir0_4 Ti1_4 2.690422 1_555
Ir0_4 Ti0_2 2.709092 1_545
Ir0_4 Ti0_0 2.709092 1_555
Ir0_4 Ti0_6 2.709092 1_545
Ir0_4 Ti0_4 2.709092 1_555
Ir0_4 Ti5_4 3.285984 1_555
Ir0_5 Ti1_3 2.690422 1_545
Ir0_5 Ti1_7 2.690422 1_545
Ir0_5 Ti1_5 2.690422 1_555
Ir0_5 Ti1_1 2.690422 1_555
Ir0_5 Ti0_3 2.709092 1_545
Ir0_5 Ti0_5 2.709092 1_555
Ir0_5 Ti0_1 2.709092 1_555
Ir0_5 Ti0_7 2.709092 1_545
Ir0_5 Ti5_5 3.285984 1_555
Ir0_6 Ti1_0 2.690422 1_555
Ir0_6 Ti1_2 2.690422 1_555
Ir0_6 Ti1_4 2.690422 1_555
Ir0_6 Ti1_6 2.690422 1_555
Ir0_6 Ti0_0 2.709092 1_555
Ir0_6 Ti0_2 2.709092 1_555
Ir0_6 Ti0_4 2.709092 1_555
Ir0_6 Ti0_6 2.709092 1_555
Ir0_6 Ti5_6 3.285984 1_555
Ir0_7 Ti1_5 2.690422 1_555
Ir0_7 Ti1_3 2.690422 1_555
Ir0_7 Ti1_1 2.690422 1_555
Ir0_7 Ti1_7 2.690422 1_555
Ir0_7 Ti0_5 2.709092 1_555
Ir0_7 Ti0_3 2.709092 1_555
Ir0_7 Ti0_1 2.709092 1_555
Ir0_7 Ti0_7 2.709092 1_555
Ir0_7 Ti5_7 3.285984 1_555
Ir1_0 Ti1_6 2.689373 1_445
Ir1_0 Ti1_4 2.689373 1_455
Ir1_0 Ti1_0 2.689373 1_555
Ir1_0 Ti1_2 2.689373 1_545
Ir1_0 Ti2_6 2.718996 1_445
Ir1_0 Ti2_2 2.718996 1_545
Ir1_0 Ti2_4 2.718996 1_455
Ir1_0 Ti2_0 2.718996 1_555
Ir1_1 Ti1_7 2.689373 1_445
Ir1_1 Ti1_5 2.689373 1_455
Ir1_1 Ti1_3 2.689373 1_545
Ir1_1 Ti1_1 2.689373 1_555
Ir1_1 Ti2_7 2.718996 1_445
Ir1_1 Ti2_5 2.718996 1_455
Ir1_1 Ti2_3 2.718996 1_545
Ir1_1 Ti2_1 2.718996 1_555
Ir1_2 Ti1_4 2.689373 1_455
Ir1_2 Ti1_6 2.689373 1_455
Ir1_2 Ti1_0 2.689373 1_555
Ir1_2 Ti1_2 2.689373 1_555
Ir1_2 Ti2_4 2.718996 1_455
Ir1_2 Ti2_2 2.718996 1_555
Ir1_2 Ti2_6 2.718996 1_455
Ir1_2 Ti2_0 2.718996 1_555
Ir1_3 Ti1_5 2.689373 1_455
Ir1_3 Ti1_7 2.689373 1_455
Ir1_3 Ti1_1 2.689373 1_555
Ir1_3 Ti1_3 2.689373 1_555
Ir1_3 Ti2_5 2.718996 1_455
Ir1_3 Ti2_1 2.718996 1_555
Ir1_3 Ti2_7 2.718996 1_455
Ir1_3 Ti2_3 2.718996 1_555
Ir1_4 Ti1_0 2.689373 1_555
Ir1_4 Ti1_6 2.689373 1_545
Ir1_4 Ti1_2 2.689373 1_545
Ir1_4 Ti1_4 2.689373 1_555
Ir1_4 Ti2_2 2.718996 1_545
Ir1_4 Ti2_4 2.718996 1_555
Ir1_4 Ti2_6 2.718996 1_545
Ir1_4 Ti2_0 2.718996 1_555
Ir1_5 Ti1_3 2.689373 1_545
Ir1_5 Ti1_1 2.689373 1_555
Ir1_5 Ti1_7 2.689373 1_545
Ir1_5 Ti1_5 2.689373 1_555
Ir1_5 Ti2_3 2.718996 1_545
Ir1_5 Ti2_1 2.718996 1_555
Ir1_5 Ti2_7 2.718996 1_545
Ir1_5 Ti2_5 2.718996 1_555
Ir1_6 Ti1_0 2.689373 1_555
Ir1_6 Ti1_4 2.689373 1_555
Ir1_6 Ti1_2 2.689373 1_555
Ir1_6 Ti1_6 2.689373 1_555
Ir1_6 Ti2_4 2.718996 1_555
Ir1_6 Ti2_2 2.718996 1_555
Ir1_6 Ti2_0 2.718996 1_555
Ir1_6 Ti2_6 2.718996 1_555
Ir1_7 Ti1_1 2.689373 1_555
Ir1_7 Ti1_3 2.689373 1_555
Ir1_7 Ti1_5 2.689373 1_555
Ir1_7 Ti1_7 2.689373 1_555
Ir1_7 Ti2_1 2.718996 1_555
Ir1_7 Ti2_3 2.718996 1_555
Ir1_7 Ti2_5 2.718996 1_555
Ir1_7 Ti2_7 2.718996 1_555
Ir2_0 Ti3_6 2.689373 1_445
Ir2_0 Ti3_2 2.689373 1_545
Ir2_0 Ti3_4 2.689373 1_455
Ir2_0 Ti3_0 2.689373 1_555
Ir2_0 Ti2_6 2.718996 1_445
Ir2_0 Ti2_4 2.718996 1_455
Ir2_0 Ti2_2 2.718996 1_545
Ir2_0 Ti2_0 2.718996 1_555
Ir2_1 Ti3_7 2.689373 1_445
Ir2_1 Ti3_3 2.689373 1_545
Ir2_1 Ti3_5 2.689373 1_455
Ir2_1 Ti3_1 2.689373 1_555
Ir2_1 Ti2_7 2.718996 1_445
Ir2_1 Ti2_5 2.718996 1_455
Ir2_1 Ti2_3 2.718996 1_545
Ir2_1 Ti2_1 2.718996 1_555
Ir2_2 Ti3_4 2.689373 1_455
Ir2_2 Ti3_0 2.689373 1_555
Ir2_2 Ti3_6 2.689373 1_455
Ir2_2 Ti3_2 2.689373 1_555
Ir2_2 Ti2_4 2.718996 1_455
Ir2_2 Ti2_6 2.718996 1_455
Ir2_2 Ti2_0 2.718996 1_555
Ir2_2 Ti2_2 2.718996 1_555
Ir2_3 Ti3_5 2.689373 1_455
Ir2_3 Ti3_1 2.689373 1_555
Ir2_3 Ti3_7 2.689373 1_455
Ir2_3 Ti3_3 2.689373 1_555
Ir2_3 Ti2_5 2.718996 1_455
Ir2_3 Ti2_7 2.718996 1_455
Ir2_3 Ti2_1 2.718996 1_555
Ir2_3 Ti2_3 2.718996 1_555
Ir2_4 Ti3_2 2.689373 1_545
Ir2_4 Ti3_0 2.689373 1_555
Ir2_4 Ti3_6 2.689373 1_545
Ir2_4 Ti3_4 2.689373 1_555
Ir2_4 Ti2_2 2.718996 1_545
Ir2_4 Ti2_0 2.718996 1_555
Ir2_4 Ti2_6 2.718996 1_545
Ir2_4 Ti2_4 2.718996 1_555
Ir2_5 Ti3_3 2.689373 1_545
Ir2_5 Ti3_1 2.689373 1_555
Ir2_5 Ti3_7 2.689373 1_545
Ir2_5 Ti3_5 2.689373 1_555
Ir2_5 Ti2_3 2.718996 1_545
Ir2_5 Ti2_7 2.718996 1_545
Ir2_5 Ti2_1 2.718996 1_555
Ir2_5 Ti2_5 2.718996 1_555
Ir2_6 Ti3_0 2.689373 1_555
Ir2_6 Ti3_4 2.689373 1_555
Ir2_6 Ti3_2 2.689373 1_555
Ir2_6 Ti3_6 2.689373 1_555
Ir2_6 Ti2_0 2.718996 1_555
Ir2_6 Ti2_4 2.718996 1_555
Ir2_6 Ti2_2 2.718996 1_555
Ir2_6 Ti2_6 2.718996 1_555
Ir2_7 Ti3_1 2.689373 1_555
Ir2_7 Ti3_5 2.689373 1_555
Ir2_7 Ti3_3 2.689373 1_555
Ir2_7 Ti3_7 2.689373 1_555
Ir2_7 Ti2_1 2.718996 1_555
Ir2_7 Ti2_7 2.718996 1_555
Ir2_7 Ti2_5 2.718996 1_555
Ir2_7 Ti2_3 2.718996 1_555
Ir3_0 Ti3_4 2.690422 1_455
Ir3_0 Ti3_6 2.690422 1_445
Ir3_0 Ti3_2 2.690422 1_545
Ir3_0 Ti3_0 2.690422 1_555
Ir3_0 Ti4_6 2.709092 1_445
Ir3_0 Ti4_4 2.709092 1_455
Ir3_0 Ti4_2 2.709092 1_545
Ir3_0 Ti4_0 2.709092 1_555
Ir3_0 Ti5_1 3.285984 1_555
Ir3_1 Ti3_5 2.690422 1_455
Ir3_1 Ti3_7 2.690422 1_445
Ir3_1 Ti3_3 2.690422 1_545
Ir3_1 Ti3_1 2.690422 1_555
Ir3_1 Ti4_7 2.709092 1_445
Ir3_1 Ti4_3 2.709092 1_545
Ir3_1 Ti4_5 2.709092 1_455
Ir3_1 Ti4_1 2.709092 1_555
Ir3_1 Ti5_0 3.285984 1_556
Ir3_2 Ti3_4 2.690422 1_455
Ir3_2 Ti3_6 2.690422 1_455
Ir3_2 Ti3_2 2.690422 1_555
Ir3_2 Ti3_0 2.690422 1_555
Ir3_2 Ti4_4 2.709092 1_455
Ir3_2 Ti4_6 2.709092 1_455
Ir3_2 Ti4_0 2.709092 1_555
Ir3_2 Ti4_2 2.709092 1_555
Ir3_2 Ti5_3 3.285984 1_555
Ir3_3 Ti3_5 2.690422 1_455
Ir3_3 Ti3_1 2.690422 1_555
Ir3_3 Ti3_3 2.690422 1_555
Ir3_3 Ti3_7 2.690422 1_455
Ir3_3 Ti4_5 2.709092 1_455
Ir3_3 Ti4_3 2.709092 1_555
Ir3_3 Ti4_7 2.709092 1_455
Ir3_3 Ti4_1 2.709092 1_555
Ir3_3 Ti5_2 3.285984 1_556
Ir3_4 Ti3_2 2.690422 1_545
Ir3_4 Ti3_6 2.690422 1_545
Ir3_4 Ti3_4 2.690422 1_555
Ir3_4 Ti3_0 2.690422 1_555
Ir3_4 Ti4_2 2.709092 1_545
Ir3_4 Ti4_6 2.709092 1_545
Ir3_4 Ti4_0 2.709092 1_555
Ir3_4 Ti4_4 2.709092 1_555
Ir3_4 Ti5_5 3.285984 1_555
Ir3_5 Ti3_3 2.690422 1_545
Ir3_5 Ti3_7 2.690422 1_545
Ir3_5 Ti3_1 2.690422 1_555
Ir3_5 Ti3_5 2.690422 1_555
Ir3_5 Ti4_3 2.709092 1_545
Ir3_5 Ti4_5 2.709092 1_555
Ir3_5 Ti4_7 2.709092 1_545
Ir3_5 Ti4_1 2.709092 1_555
Ir3_5 Ti5_4 3.285984 1_556
Ir3_6 Ti3_4 2.690422 1_555
Ir3_6 Ti3_2 2.690422 1_555
Ir3_6 Ti3_0 2.690422 1_555
Ir3_6 Ti3_6 2.690422 1_555
Ir3_6 Ti4_0 2.709092 1_555
Ir3_6 Ti4_4 2.709092 1_555
Ir3_6 Ti4_2 2.709092 1_555
Ir3_6 Ti4_6 2.709092 1_555
Ir3_6 Ti5_7 3.285984 1_555
Ir3_7 Ti3_1 2.690422 1_555
Ir3_7 Ti3_5 2.690422 1_555
Ir3_7 Ti3_3 2.690422 1_555
Ir3_7 Ti3_7 2.690422 1_555
Ir3_7 Ti4_5 2.709092 1_555
Ir3_7 Ti4_3 2.709092 1_555
Ir3_7 Ti4_1 2.709092 1_555
Ir3_7 Ti4_7 2.709092 1_555
Ir3_7 Ti5_6 3.285984 1_556
