# generated using pymatgen
data_Mg6TiAlO8
_symmetry_space_group_name_H-M   'P 1'
_cell_length_a   8.61575030
_cell_length_b   4.31296827
_cell_length_c   4.31296827
_cell_angle_alpha   90.00000000
_cell_angle_beta   90.00000000
_cell_angle_gamma   90.00000000
_symmetry_Int_Tables_number   1
_chemical_formula_structural   Mg6TiAlO8
_chemical_formula_sum   'Mg6 Ti1 Al1 O8'
_cell_volume   160.26756184
_cell_formula_units_Z   1
loop_
 _symmetry_equiv_pos_site_id
 _symmetry_equiv_pos_as_xyz
  1  'x, y, z'
loop_
 _atom_site_type_symbol
 _atom_site_label
 _atom_site_symmetry_multiplicity
 _atom_site_fract_x
 _atom_site_fract_y
 _atom_site_fract_z
 _atom_site_occupancy
  Mg  Mg0  1  0.50000000  0.00000000  0.00000000  1
  Mg  Mg1  1  0.50000000  0.50000000  0.50000000  1
  Mg  Mg2  1  0.25231104  -0.00000000  0.50000000  1
  Mg  Mg3  1  0.74768896  0.00000000  0.50000000  1
  Mg  Mg4  1  0.25231104  0.50000000  0.00000000  1
  Mg  Mg5  1  0.74768896  0.50000000  -0.00000000  1
  Ti  Ti0  1  0.00000000  0.50000000  0.50000000  1
  Al  Al0  1  0.00000000  0.00000000  0.00000000  1
  O  O0  1  0.24626694  -0.00000000  0.00000000  1
  O  O1  1  0.75373306  0.00000000  -0.00000000  1
  O  O2  1  0.25834744  0.50000000  0.50000000  1
  O  O3  1  0.74165256  0.50000000  0.50000000  1
  O  O4  1  0.00000000  0.00000000  0.50000000  1
  O  O5  1  0.50000000  0.00000000  0.50000000  1
  O  O6  1  0.00000000  0.50000000  0.00000000  1
  O  O7  1  0.50000000  0.50000000  0.00000000  1
loop_
_geom_bond_atom_site_label_1
_geom_bond_atom_site_label_2
_geom_bond_distance
_geom_bond_site_symmetry_2
Mg0 O5 2.156484 1_554
Mg0 O5 2.156484 1_555
Mg0 O7 2.156484 1_545
Mg0 O7 2.156484 1_555
Mg0 O0 2.186101 1_555
Mg0 O1 2.186101 1_555
Mg1 O2 2.082018 1_555
Mg1 O3 2.082018 1_555
Mg1 O5 2.156484 1_555
Mg1 O5 2.156484 1_565
Mg1 O7 2.156484 1_555
Mg1 O7 2.156484 1_556
Mg2 O5 2.134026 1_555
Mg2 O2 2.157111 1_555
Mg2 O2 2.157111 1_545
Mg2 O0 2.157113 1_555
Mg2 O0 2.157113 1_556
Mg2 O4 2.173849 1_555
Mg3 O5 2.134026 1_555
Mg3 O3 2.157111 1_555
Mg3 O3 2.157111 1_545
Mg3 O1 2.157113 1_555
Mg3 O1 2.157113 1_556
Mg3 O4 2.173849 1_655
Mg4 O7 2.134026 1_555
Mg4 O2 2.157111 1_555
Mg4 O2 2.157111 1_554
Mg4 O0 2.157113 1_555
Mg4 O0 2.157113 1_565
Mg4 O6 2.173849 1_555
Mg5 O7 2.134026 1_555
Mg5 O3 2.157111 1_555
Mg5 O3 2.157111 1_554
Mg5 O1 2.157113 1_555
Mg5 O1 2.157113 1_565
Mg5 O6 2.173849 1_655
Al0 O1 2.121774 1_455
Al0 O0 2.121774 1_555
Al0 O6 2.156484 1_555
Al0 O4 2.156484 1_555
Al0 O4 2.156484 1_554
Al0 O6 2.156484 1_545
O2 Ti0 2.225857 1_555
O3 Ti0 2.225857 1_655
O4 Ti0 2.156484 1_555
O4 Ti0 2.156484 1_545
O6 Ti0 2.156484 1_555
O6 Ti0 2.156484 1_554
