# generated using pymatgen
data_MgFe10(O4F)4
_symmetry_space_group_name_H-M   'P 1'
_cell_length_a   4.91587335
_cell_length_b   13.09900949
_cell_length_c   5.70814075
_cell_angle_alpha   106.08089531
_cell_angle_beta   87.72184909
_cell_angle_gamma   92.01235595
_symmetry_Int_Tables_number   1
_chemical_formula_structural   MgFe10(O4F)4
_chemical_formula_sum   'Mg1 Fe10 O16 F4'
_cell_volume   352.79210536
_cell_formula_units_Z   1
loop_
 _symmetry_equiv_pos_site_id
 _symmetry_equiv_pos_as_xyz
  1  'x, y, z'
loop_
 _atom_site_type_symbol
 _atom_site_label
 _atom_site_symmetry_multiplicity
 _atom_site_fract_x
 _atom_site_fract_y
 _atom_site_fract_z
 _atom_site_occupancy
  Mg  Mg0  1  0.01056799  0.60373016  0.70117780  1
  Fe  Fe0  1  0.49208776  0.99946801  0.47930970  1
  Fe  Fe1  1  0.48205099  0.40140306  0.32088537  1
  Fe  Fe2  1  0.48302131  0.19733911  0.89381461  1
  Fe  Fe3  1  0.51599035  0.60664138  0.67474789  1
  Fe  Fe4  1  0.52534424  0.80474239  0.06823304  1
  Fe  Fe5  1  0.01492799  0.37334886  0.84025832  1
  Fe  Fe6  1  0.96422601  0.82263750  0.56484386  1
  Fe  Fe7  1  0.02211460  0.19208140  0.41515802  1
  Fe  Fe8  1  0.93797908  0.59524735  0.19567055  1
  Fe  Fe9  1  0.03818512  0.99490360  0.01150125  1
  O  O0  1  0.80075435  0.24771798  0.70943801  1
  O  O1  1  0.82173549  0.86771975  0.90202270  1
  O  O2  1  0.79990623  0.67518994  0.50560716  1
  O  O3  1  0.82019446  0.06021056  0.30762166  1
  O  O4  1  0.78959309  0.45502380  0.11397963  1
  O  O5  1  0.70506805  0.48252891  0.60693241  1
  O  O6  1  0.72490310  0.65863650  0.97612924  1
  O  O7  1  0.68321153  0.86734115  0.39428559  1
  O  O8  1  0.30404216  0.33270787  0.01029330  1
  O  O9  1  0.30227451  0.72276878  0.78577841  1
  O  O10  1  0.31560732  0.13192210  0.57973388  1
  O  O11  1  0.31137865  0.93474223  0.17590389  1
  O  O12  1  0.27601858  0.54102591  0.42355469  1
  O  O13  1  0.19160754  0.13659060  0.08974856  1
  O  O14  1  0.20267149  0.94440124  0.68499826  1
  O  O15  1  0.19478004  0.33135125  0.50716385  1
  F  F0  1  0.68493548  0.05956126  0.80934247  1
  F  F1  1  0.68902417  0.25988122  0.21802651  1
  F  F2  1  0.20036460  0.53163172  0.90596633  1
  F  F3  1  0.19543871  0.73521338  0.27073003  1
loop_
_geom_bond_atom_site_label_1
_geom_bond_atom_site_label_2
_geom_bond_distance
_geom_bond_site_symmetry_2
Mg0 O2 1.983366 1_455
Mg0 O12 2.019543 1_555
Mg0 O9 2.049825 1_555
Mg0 O6 2.054969 1_455
Mg0 O5 2.118717 1_455
Fe0 O10 1.899139 1_565
Fe0 O7 1.930369 1_555
Fe0 O11 1.939941 1_555
Fe0 O14 2.046285 1_555
Fe0 O3 2.100299 1_565
Fe1 O8 1.975573 1_555
Fe1 O5 2.023974 1_555
Fe1 O12 2.050207 1_555
Fe1 O15 2.072929 1_555
Fe1 O4 2.101640 1_555
Fe2 O8 1.941735 1_556
Fe2 O10 1.960223 1_555
Fe2 O0 2.040699 1_555
Fe2 O13 2.054722 1_556
Fe3 O9 1.828813 1_555
Fe3 O5 1.840035 1_555
Fe3 O12 1.888601 1_555
Fe3 O6 1.979985 1_555
Fe3 O2 1.992860 1_555
Fe4 O11 1.969375 1_555
Fe4 O1 1.985660 1_554
Fe4 O7 1.990783 1_555
Fe4 O9 2.013391 1_554
Fe4 O6 2.105946 1_554
Fe5 O0 1.906382 1_455
Fe5 O8 1.922091 1_556
Fe5 O4 1.957664 1_456
Fe5 O15 2.005120 1_555
Fe6 O7 1.917981 1_555
Fe6 O14 1.927418 1_655
Fe6 O1 1.958554 1_555
Fe6 O2 2.011854 1_555
Fe7 O3 1.920032 1_455
Fe7 O15 1.928798 1_555
Fe7 O0 1.941427 1_455
Fe7 O13 1.960699 1_555
Fe7 O10 2.045192 1_555
Fe8 O4 1.892559 1_555
Fe8 O2 1.901400 1_555
Fe8 O6 2.024587 1_554
Fe8 O12 2.392598 1_655
Fe9 O1 1.910447 1_454
Fe9 O13 1.918892 1_565
Fe9 O14 1.949271 1_554
Fe9 O3 1.963820 1_465
Fe9 O11 1.972185 1_555
F0 Fe2 2.020031 1_555
F0 Fe0 2.082161 1_545
F0 Fe9 2.422500 1_646
F1 Fe1 2.073281 1_555
F1 Fe2 2.091027 1_554
F1 Fe7 2.353372 1_655
F2 Mg0 1.972082 1_555
F2 Fe8 2.057974 1_456
F2 Fe5 2.175792 1_555
F2 Fe3 2.358661 1_555
F3 Fe6 2.072787 1_455
F3 Fe8 2.142848 1_455
F3 Fe4 2.264097 1_555
