# generated using pymatgen
data_Li3NdSb2
_symmetry_space_group_name_H-M   'P 1'
_cell_length_a   4.59322462
_cell_length_b   4.59317186
_cell_length_c   7.34569956
_cell_angle_alpha   90.00004887
_cell_angle_beta   90.01720032
_cell_angle_gamma   119.99972158
_symmetry_Int_Tables_number   1
_chemical_formula_structural   Li3NdSb2
_chemical_formula_sum   'Li3 Nd1 Sb2'
_cell_volume   134.21324144
_cell_formula_units_Z   1
loop_
 _symmetry_equiv_pos_site_id
 _symmetry_equiv_pos_as_xyz
  1  'x, y, z'
loop_
 _atom_site_type_symbol
 _atom_site_label
 _atom_site_symmetry_multiplicity
 _atom_site_fract_x
 _atom_site_fract_y
 _atom_site_fract_z
 _atom_site_occupancy
  Li  Li0  1  0.00000000  0.00000000  0.50000000  1
  Li  Li1  1  0.66640714  0.33320376  0.35334281  1
  Li  Li2  1  0.33359286  0.66679624  0.64665719  1
  Nd  Nd0  1  0.00000000  0.00000000  -0.00000000  1
  Sb  Sb0  1  0.66680687  0.33340397  0.74452807  1
  Sb  Sb1  1  0.33319313  0.66659603  0.25547193  1
loop_
_geom_bond_atom_site_label_1
_geom_bond_atom_site_label_2
_geom_bond_distance
_geom_bond_site_symmetry_2
Li0 Li2 2.861764 1_445
Li0 Li1 2.861764 1_555
Li0 Li2 2.862649 1_555
Li0 Li1 2.862649 1_445
Li0 Li1 2.862656 1_455
Li0 Li2 2.862656 1_545
Li0 Sb0 3.202921 1_555
Li0 Sb1 3.202921 1_445
Li0 Sb1 3.202977 1_555
Li0 Sb0 3.202977 1_445
Li0 Sb1 3.202981 1_545
Li0 Sb0 3.202981 1_455
Li0 Nd0 3.672850 1_556
Li0 Nd0 3.672850 1_555
Li1 Sb1 2.747253 1_555
Li1 Sb1 2.747253 1_545
Li1 Sb1 2.748329 1_655
Li1 Sb0 2.873529 1_555
Li2 Sb0 2.747253 1_555
Li2 Sb0 2.747253 1_565
Li2 Sb0 2.748329 1_455
Li2 Sb1 2.873529 1_555
Nd0 Sb0 3.248219 1_444
Nd0 Sb1 3.248219 1_555
Nd0 Sb1 3.248228 1_545
Nd0 Sb0 3.248228 1_454
Nd0 Sb0 3.249727 1_554
Nd0 Sb1 3.249727 1_445
