# generated using pymatgen
data_Nd3Cd
_symmetry_space_group_name_H-M   'P 1'
_cell_length_a   7.16207261
_cell_length_b   7.16207261
_cell_length_c   5.61713300
_cell_angle_alpha   90.00000000
_cell_angle_beta   90.00000000
_cell_angle_gamma   120.00000563
_symmetry_Int_Tables_number   1
_chemical_formula_structural   Nd3Cd
_chemical_formula_sum   'Nd6 Cd2'
_cell_volume   249.52999237
_cell_formula_units_Z   2
loop_
 _symmetry_equiv_pos_site_id
 _symmetry_equiv_pos_as_xyz
  1  'x, y, z'
loop_
 _atom_site_type_symbol
 _atom_site_label
 _atom_site_symmetry_multiplicity
 _atom_site_fract_x
 _atom_site_fract_y
 _atom_site_fract_z
 _atom_site_occupancy
  Nd  Nd0  1  0.17408500  0.34817100  0.25000000  1
  Nd  Nd1  1  0.65182900  0.82591500  0.25000000  1
  Nd  Nd2  1  0.17408500  0.82591500  0.25000000  1
  Nd  Nd3  1  0.82591500  0.65182900  0.75000000  1
  Nd  Nd4  1  0.34817100  0.17408500  0.75000000  1
  Nd  Nd5  1  0.82591500  0.17408500  0.75000000  1
  Cd  Cd0  1  0.33333300  0.66666700  0.75000000  1
  Cd  Cd1  1  0.66666700  0.33333300  0.25000000  1
loop_
_geom_bond_atom_site_label_1
_geom_bond_atom_site_label_2
_geom_bond_distance
_geom_bond_site_symmetry_2
Nd0 Nd1 3.421637 1_555
Nd0 Nd2 3.421637 1_555
Nd0 Nd5 3.542830 1_455
Nd0 Nd5 3.542830 1_454
Nd0 Nd4 3.542838 1_554
Nd0 Nd4 3.542838 1_555
Nd0 Nd1 3.740435 1_445
Nd0 Nd2 3.740435 1_545
Nd1 Nd2 3.421637 1_555
Nd1 Nd5 3.542830 1_564
Nd1 Nd5 3.542830 1_565
Nd1 Nd3 3.542838 1_555
Nd1 Nd3 3.542838 1_554
Nd1 Nd2 3.740435 1_655
Nd2 Nd3 3.542830 1_454
Nd2 Nd3 3.542830 1_455
Nd2 Nd4 3.542830 1_565
Nd2 Nd4 3.542830 1_564
Nd3 Nd4 3.421637 1_555
Nd3 Nd5 3.421637 1_555
Nd3 Nd4 3.740435 1_665
Nd3 Nd5 3.740435 1_565
Nd4 Nd5 3.421637 1_555
Nd4 Nd5 3.740435 1_455
Cd0 Nd0 3.433741 1_555
Cd0 Nd0 3.433741 1_556
Cd0 Nd1 3.433741 1_555
Cd0 Nd1 3.433741 1_556
Cd0 Nd2 3.433741 1_555
Cd0 Nd2 3.433741 1_556
Cd0 Nd3 3.582212 1_455
Cd0 Nd4 3.582212 1_565
Cd0 Nd5 3.582218 1_565
Cd0 Nd5 3.582218 1_455
Cd0 Nd3 3.582226 1_555
Cd0 Nd4 3.582226 1_555
Cd1 Nd4 3.433741 1_554
Cd1 Nd3 3.433741 1_555
Cd1 Nd4 3.433741 1_555
Cd1 Nd3 3.433741 1_554
Cd1 Nd5 3.433741 1_555
Cd1 Nd5 3.433741 1_554
Cd1 Nd0 3.582212 1_655
Cd1 Nd1 3.582212 1_545
Cd1 Nd2 3.582218 1_655
Cd1 Nd2 3.582218 1_545
Cd1 Nd0 3.582226 1_555
Cd1 Nd1 3.582226 1_555
