# generated using pymatgen
data_Al4Ni12C
_symmetry_space_group_name_H-M   'P 1'
_cell_length_a   3.67037900
_cell_length_b   3.67037900
_cell_length_c   14.04846100
_cell_angle_alpha   90.00000000
_cell_angle_beta   90.00000000
_cell_angle_gamma   90.00000000
_symmetry_Int_Tables_number   1
_chemical_formula_structural   Al4Ni12C
_chemical_formula_sum   'Al4 Ni12 C1'
_cell_volume   189.25639923
_cell_formula_units_Z   1
loop_
 _symmetry_equiv_pos_site_id
 _symmetry_equiv_pos_as_xyz
  1  'x, y, z'
loop_
 _atom_site_type_symbol
 _atom_site_label
 _atom_site_symmetry_multiplicity
 _atom_site_fract_x
 _atom_site_fract_y
 _atom_site_fract_z
 _atom_site_occupancy
  Al  Al0  1  0.00000000  0.00000000  0.86160900  1
  Al  Al1  1  0.00000000  0.00000000  0.13839100  1
  Al  Al2  1  0.00000000  0.00000000  0.37827800  1
  Al  Al3  1  0.00000000  0.00000000  0.62172200  1
  Ni  Ni0  1  0.50000000  0.50000000  0.86842100  1
  Ni  Ni1  1  0.50000000  0.50000000  0.13157900  1
  Ni  Ni2  1  0.50000000  0.50000000  0.37517400  1
  Ni  Ni3  1  0.50000000  0.50000000  0.62482600  1
  Ni  Ni4  1  0.50000000  0.00000000  0.00000000  1
  Ni  Ni5  1  0.50000000  0.00000000  0.25477900  1
  Ni  Ni6  1  0.50000000  0.00000000  0.50000000  1
  Ni  Ni7  1  0.50000000  0.00000000  0.74522100  1
  Ni  Ni8  1  0.00000000  0.50000000  0.00000000  1
  Ni  Ni9  1  0.00000000  0.50000000  0.25477900  1
  Ni  Ni10  1  0.00000000  0.50000000  0.50000000  1
  Ni  Ni11  1  0.00000000  0.50000000  0.74522100  1
  C  C0  1  0.50000000  0.50000000  0.00000000  1
loop_
_geom_bond_atom_site_label_1
_geom_bond_atom_site_label_2
_geom_bond_distance
_geom_bond_site_symmetry_2
Al0 Ni11 2.457922 1_545
Al0 Ni11 2.457922 1_555
Al0 Ni7 2.457922 1_455
Al0 Ni7 2.457922 1_555
Al0 Ni0 2.597114 1_545
Al0 Ni0 2.597114 1_445
Al0 Ni0 2.597114 1_555
Al0 Ni0 2.597114 1_455
Al0 Ni4 2.673529 1_556
Al0 Ni8 2.673529 1_546
Al0 Ni8 2.673529 1_556
Al0 Ni4 2.673529 1_456
Al1 Ni9 2.457922 1_555
Al1 Ni9 2.457922 1_545
Al1 Ni5 2.457922 1_455
Al1 Ni5 2.457922 1_555
Al1 Ni1 2.597114 1_445
Al1 Ni1 2.597114 1_555
Al1 Ni1 2.597114 1_455
Al1 Ni1 2.597114 1_545
Al1 Ni8 2.673529 1_545
Al1 Ni4 2.673529 1_455
Al1 Ni4 2.673529 1_555
Al1 Ni8 2.673529 1_555
Al2 Ni6 2.508395 1_555
Al2 Ni10 2.508395 1_545
Al2 Ni10 2.508395 1_555
Al2 Ni6 2.508395 1_455
Al2 Ni9 2.525479 1_555
Al2 Ni9 2.525479 1_545
Al2 Ni5 2.525479 1_455
Al2 Ni5 2.525479 1_555
Al2 Ni2 2.595716 1_445
Al2 Ni2 2.595716 1_455
Al2 Ni2 2.595716 1_545
Al2 Ni2 2.595716 1_555
Al3 Ni6 2.508395 1_555
Al3 Ni10 2.508395 1_545
Al3 Ni10 2.508395 1_555
Al3 Ni6 2.508395 1_455
Al3 Ni11 2.525479 1_555
Al3 Ni7 2.525479 1_455
Al3 Ni7 2.525479 1_555
Al3 Ni11 2.525479 1_545
Al3 Ni3 2.595716 1_445
Al3 Ni3 2.595716 1_545
Al3 Ni3 2.595716 1_455
Al3 Ni3 2.595716 1_555
Ni0 Ni7 2.522595 1_565
Ni0 Ni11 2.522595 1_655
Ni0 Ni7 2.522595 1_555
Ni0 Ni11 2.522595 1_555
Ni1 Ni9 2.522595 1_555
Ni1 Ni9 2.522595 1_655
Ni1 Ni5 2.522595 1_565
Ni1 Ni5 2.522595 1_555
Ni2 Ni9 2.495723 1_655
Ni2 Ni5 2.495723 1_565
Ni2 Ni5 2.495723 1_555
Ni2 Ni9 2.495723 1_555
Ni2 Ni6 2.538322 1_565
Ni2 Ni6 2.538322 1_555
Ni3 Ni7 2.495723 1_555
Ni3 Ni7 2.495723 1_565
Ni3 Ni6 2.538322 1_565
Ni3 Ni6 2.538322 1_555
Ni5 Ni9 2.595350 1_645
Ni5 Ni9 2.595350 1_555
Ni5 Ni9 2.595350 1_545
Ni5 Ni9 2.595350 1_655
Ni10 Ni3 2.538322 1_455
Ni10 Ni2 2.538322 1_555
Ni10 Ni3 2.538322 1_555
Ni10 Ni2 2.538322 1_455
Ni10 Ni6 2.595350 1_565
Ni10 Ni6 2.595350 1_555
Ni10 Ni6 2.595350 1_465
Ni10 Ni6 2.595350 1_455
Ni11 Ni3 2.495723 1_455
Ni11 Ni3 2.495723 1_555
Ni11 Ni7 2.595350 1_465
Ni11 Ni7 2.595350 1_565
Ni11 Ni7 2.595350 1_455
Ni11 Ni7 2.595350 1_555
C0 Ni8 1.835190 1_655
C0 Ni4 1.835190 1_565
C0 Ni4 1.835190 1_555
C0 Ni8 1.835190 1_555
C0 Ni1 1.848482 1_555
C0 Ni0 1.848482 1_554
