# generated using pymatgen
data_Nd5MgAl4
_symmetry_space_group_name_H-M   'P 1'
_cell_length_a   3.72707500
_cell_length_b   3.72707500
_cell_length_c   19.08424300
_cell_angle_alpha   90.00000000
_cell_angle_beta   90.00000000
_cell_angle_gamma   90.00000000
_symmetry_Int_Tables_number   1
_chemical_formula_structural   Nd5MgAl4
_chemical_formula_sum   'Nd5 Mg1 Al4'
_cell_volume   265.10089999
_cell_formula_units_Z   1
loop_
 _symmetry_equiv_pos_site_id
 _symmetry_equiv_pos_as_xyz
  1  'x, y, z'
loop_
 _atom_site_type_symbol
 _atom_site_label
 _atom_site_symmetry_multiplicity
 _atom_site_fract_x
 _atom_site_fract_y
 _atom_site_fract_z
 _atom_site_occupancy
  Nd  Nd0  1  0.50000000  0.50000000  0.10863000  1
  Nd  Nd1  1  0.50000000  0.50000000  0.30444100  1
  Nd  Nd2  1  0.50000000  0.50000000  0.50000000  1
  Nd  Nd3  1  0.50000000  0.50000000  0.69555900  1
  Nd  Nd4  1  0.50000000  0.50000000  0.89137000  1
  Mg  Mg0  1  0.00000000  0.00000000  0.00000000  1
  Al  Al0  1  0.00000000  0.00000000  0.20325200  1
  Al  Al1  1  0.00000000  0.00000000  0.40176800  1
  Al  Al2  1  0.00000000  0.00000000  0.59823200  1
  Al  Al3  1  0.00000000  0.00000000  0.79674800  1
loop_
_geom_bond_atom_site_label_1
_geom_bond_atom_site_label_2
_geom_bond_distance
_geom_bond_site_symmetry_2
Mg0 Nd4 3.353114 1_454
Mg0 Nd4 3.353114 1_544
Mg0 Nd0 3.353114 1_555
Mg0 Nd4 3.353114 1_444
Mg0 Nd0 3.353114 1_455
Mg0 Nd0 3.353114 1_445
Mg0 Nd4 3.353114 1_554
Mg0 Nd0 3.353114 1_545
Al0 Nd0 3.194749 1_455
Al0 Nd0 3.194749 1_555
Al0 Nd0 3.194749 1_445
Al0 Nd0 3.194749 1_545
Al0 Nd1 3.267224 1_455
Al0 Nd1 3.267224 1_445
Al0 Nd1 3.267224 1_555
Al0 Nd1 3.267224 1_545
Al1 Nd1 3.224209 1_455
Al1 Nd1 3.224209 1_445
Al1 Nd1 3.224209 1_555
Al1 Nd1 3.224209 1_545
Al1 Nd2 3.234190 1_455
Al1 Nd2 3.234190 1_555
Al1 Nd2 3.234190 1_545
Al1 Nd2 3.234190 1_445
Al2 Nd3 3.224209 1_555
Al2 Nd3 3.224209 1_455
Al2 Nd3 3.224209 1_545
Al2 Nd3 3.224209 1_445
Al2 Nd2 3.234190 1_555
Al2 Nd2 3.234190 1_545
Al2 Nd2 3.234190 1_445
Al2 Nd2 3.234190 1_455
Al3 Nd4 3.194749 1_545
Al3 Nd4 3.194749 1_555
Al3 Nd4 3.194749 1_445
Al3 Nd4 3.194749 1_455
Al3 Nd3 3.267224 1_455
Al3 Nd3 3.267224 1_545
Al3 Nd3 3.267224 1_555
Al3 Nd3 3.267224 1_445
