# generated using pymatgen
data_Mg3N
_symmetry_space_group_name_H-M   'P 1'
_cell_length_a   5.62221747
_cell_length_b   5.62221747
_cell_length_c   4.73150100
_cell_angle_alpha   90.00000000
_cell_angle_beta   90.00000000
_cell_angle_gamma   119.99999375
_symmetry_Int_Tables_number   1
_chemical_formula_structural   Mg3N
_chemical_formula_sum   'Mg6 N2'
_cell_volume   129.52239778
_cell_formula_units_Z   2
loop_
 _symmetry_equiv_pos_site_id
 _symmetry_equiv_pos_as_xyz
  1  'x, y, z'
loop_
 _atom_site_type_symbol
 _atom_site_label
 _atom_site_symmetry_multiplicity
 _atom_site_fract_x
 _atom_site_fract_y
 _atom_site_fract_z
 _atom_site_occupancy
  Mg  Mg0  1  0.17122900  0.34245700  0.25000000  1
  Mg  Mg1  1  0.17122900  0.82877100  0.25000000  1
  Mg  Mg2  1  0.65754300  0.82877100  0.25000000  1
  Mg  Mg3  1  0.34245700  0.17122900  0.75000000  1
  Mg  Mg4  1  0.82877100  0.17122900  0.75000000  1
  Mg  Mg5  1  0.82877100  0.65754300  0.75000000  1
  N  N0  1  0.66666700  0.33333300  0.25000000  1
  N  N1  1  0.33333300  0.66666700  0.75000000  1
loop_
_geom_bond_atom_site_label_1
_geom_bond_atom_site_label_2
_geom_bond_distance
_geom_bond_site_symmetry_2
Mg0 Mg1 2.734163 1_555
Mg0 Mg2 2.734163 1_555
Mg0 N0 2.811460 1_555
Mg0 N0 2.811460 1_455
Mg0 N1 2.844058 1_555
Mg0 N1 2.844058 1_554
Mg0 Mg1 2.888054 1_545
Mg0 Mg2 2.888055 1_445
Mg0 Mg3 2.894312 1_555
Mg0 Mg3 2.894312 1_554
Mg0 Mg4 2.894317 1_455
Mg0 Mg4 2.894317 1_454
Mg1 Mg2 2.734163 1_555
Mg1 N0 2.811460 1_455
Mg1 N0 2.811460 1_565
Mg1 N1 2.844053 1_555
Mg1 N1 2.844053 1_554
Mg1 Mg2 2.888054 1_455
Mg1 Mg5 2.894317 1_455
Mg1 Mg5 2.894317 1_454
Mg1 Mg3 2.894317 1_565
Mg1 Mg3 2.894317 1_564
Mg2 N0 2.811460 1_555
Mg2 N0 2.811460 1_565
Mg2 N1 2.844058 1_555
Mg2 N1 2.844058 1_554
Mg2 Mg5 2.894312 1_555
Mg2 Mg5 2.894312 1_554
Mg2 Mg4 2.894317 1_564
Mg2 Mg4 2.894317 1_565
Mg3 Mg4 2.734163 1_555
Mg3 Mg5 2.734163 1_555
Mg3 N1 2.811460 1_555
Mg3 N1 2.811460 1_545
Mg3 N0 2.844058 1_555
Mg3 N0 2.844058 1_556
Mg3 Mg4 2.888054 1_455
Mg3 Mg5 2.888055 1_445
Mg4 Mg5 2.734163 1_555
Mg4 N1 2.811460 1_545
Mg4 N1 2.811460 1_655
Mg4 N0 2.844053 1_555
Mg4 N0 2.844053 1_556
Mg4 Mg5 2.888054 1_545
Mg5 N1 2.811460 1_555
Mg5 N1 2.811460 1_655
Mg5 N0 2.844058 1_555
Mg5 N0 2.844058 1_556
