# generated using pymatgen
data_Li9Mn2Co5O16
_symmetry_space_group_name_H-M   'P 1'
_cell_length_a   5.12907200
_cell_length_b   5.88170153
_cell_length_c   9.73138340
_cell_angle_alpha   88.40309318
_cell_angle_beta   78.80037178
_cell_angle_gamma   89.50835720
_symmetry_Int_Tables_number   1
_chemical_formula_structural   Li9Mn2Co5O16
_chemical_formula_sum   'Li9 Mn2 Co5 O16'
_cell_volume   287.86913525
_cell_formula_units_Z   1
loop_
 _symmetry_equiv_pos_site_id
 _symmetry_equiv_pos_as_xyz
  1  'x, y, z'
loop_
 _atom_site_type_symbol
 _atom_site_label
 _atom_site_symmetry_multiplicity
 _atom_site_fract_x
 _atom_site_fract_y
 _atom_site_fract_z
 _atom_site_occupancy
  Li  Li0  1  0.49945300  0.25401900  0.99459700  1
  Li  Li1  1  0.25746800  0.50483900  0.25476200  1
  Li  Li2  1  0.49767900  0.74473400  0.99782200  1
  Li  Li3  1  0.25382800  0.99767600  0.26286300  1
  Li  Li4  1  0.74564600  0.00209200  0.74156500  1
  Li  Li5  1  0.75083700  0.49130500  0.73966300  1
  Li  Li6  1  0.99139900  0.76545600  0.50773900  1
  Li  Li7  1  0.00431400  0.23895600  0.50169200  1
  Li  Li8  1  0.50592200  0.00061500  0.49993600  1
  Mn  Mn0  1  0.99974900  0.99851200  0.00092300  1
  Mn  Mn1  1  0.74927700  0.24754700  0.25364700  1
  Co  Co0  1  0.50022700  0.50000800  0.49887000  1
  Co  Co1  1  0.25904100  0.75627300  0.73987200  1
  Co  Co2  1  0.99378700  0.49896400  0.99985400  1
  Co  Co3  1  0.75597400  0.75405400  0.25439300  1
  Co  Co4  1  0.25030600  0.24716900  0.74329000  1
  O  O0  1  0.34529600  0.99808200  0.88268400  1
  O  O1  1  0.09691800  0.24470800  0.11422000  1
  O  O2  1  0.33174500  0.50219000  0.87737900  1
  O  O3  1  0.09810700  0.76525500  0.12828000  1
  O  O4  1  0.60972500  0.73597200  0.62835900  1
  O  O5  1  0.59722200  0.26053600  0.62650800  1
  O  O6  1  0.86414000  0.49048300  0.35757400  1
  O  O7  1  0.87378200  0.01788600  0.36592000  1
  O  O8  1  0.65383500  0.48639800  0.12239800  1
  O  O9  1  0.41623100  0.73554200  0.36848600  1
  O  O10  1  0.65387000  0.00580300  0.13503300  1
  O  O11  1  0.40778400  0.25577200  0.36556100  1
  O  O12  1  0.88898700  0.23163000  0.87995700  1
  O  O13  1  0.88844700  0.75897900  0.89480100  1
  O  O14  1  0.12577900  0.99942100  0.63562200  1
  O  O15  1  0.13322600  0.50912400  0.62573100  1
loop_
_geom_bond_atom_site_label_1
_geom_bond_atom_site_label_2
_geom_bond_distance
_geom_bond_site_symmetry_2
Li0 O12 2.095602 1_555
Li0 O2 2.106784 1_555
Li0 O0 2.126879 1_545
Li0 O8 2.130189 1_556
Li0 O1 2.164621 1_556
Li0 O10 2.217161 1_556
Li1 O11 2.029417 1_555
Li1 O9 2.044955 1_555
Li1 O6 2.071766 1_455
Li1 O8 2.188780 1_555
Li1 O3 2.189383 1_555
Li1 O1 2.337800 1_555
Li2 O13 2.060796 1_555
Li2 O0 2.076987 1_555
Li2 O2 2.152847 1_555
Li2 O8 2.161836 1_556
Li2 O3 2.195465 1_556
Li2 O10 2.309427 1_566
Li3 O7 2.015661 1_465
Li3 O11 2.082902 1_565
Li3 O9 2.085592 1_555
Li3 O3 2.178722 1_555
Li3 O10 2.183268 1_565
Li3 O1 2.272929 1_565
Li4 O14 2.020923 1_645
Li4 O5 2.088122 1_555
Li4 O4 2.136070 1_545
Li4 O12 2.163319 1_555
Li4 O0 2.237548 1_545
Li4 O13 2.256603 1_545
Li5 O4 1.991912 1_555
Li5 O5 2.028377 1_555
Li5 O15 2.058951 1_655
Li5 O12 2.222554 1_555
Li5 O2 2.303063 1_555
Li5 O13 2.412784 1_555
Li6 O15 2.080820 1_655
Li6 O4 2.083763 1_555
Li6 O14 2.088635 1_655
Li6 O7 2.160282 1_565
Li6 O9 2.339873 1_655
Li6 O6 2.386950 1_555
Li7 O14 2.066330 1_545
Li7 O7 2.083015 1_455
Li7 O15 2.203235 1_555
Li7 O5 2.206822 1_455
Li7 O6 2.220419 1_455
Li7 O11 2.231261 1_555
Li8 O7 2.076329 1_555
Li8 O11 2.085413 1_555
Li8 O4 2.098565 1_545
Li8 O5 2.101163 1_555
Li8 O14 2.131857 1_545
Li8 O9 2.151917 1_545
Mn0 O0 1.916516 1_654
Mn0 O13 1.923850 1_554
Mn0 O12 1.935179 1_564
Mn0 O3 1.951664 1_655
Mn0 O1 1.968667 1_665
Mn0 O10 1.988646 1_565
Mn1 O11 1.875315 1_555
Mn1 O7 1.897403 1_555
Mn1 O6 1.933405 1_555
Mn1 O10 1.978979 1_555
Mn1 O8 1.993901 1_555
Mn1 O1 2.020284 1_655
Co0 O9 1.954176 1_555
Co0 O5 1.976028 1_555
Co0 O15 2.041941 1_555
Co0 O4 2.053104 1_555
Co0 O11 2.079867 1_555
Co0 O6 2.093624 1_555
Co1 O4 1.916361 1_555
Co1 O14 1.927010 1_555
Co1 O15 2.036625 1_555
Co1 O2 2.058112 1_555
Co1 O0 2.123616 1_555
Co1 O13 2.184942 1_455
Co2 O2 1.903247 1_655
Co2 O8 1.912438 1_556
Co2 O13 1.946570 1_555
Co2 O1 1.969056 1_656
Co2 O12 2.117317 1_555
Co2 O3 2.164385 1_656
Co3 O9 1.877785 1_555
Co3 O3 1.936697 1_655
Co3 O6 1.958095 1_555
Co3 O10 1.985716 1_565
Co3 O7 2.077437 1_565
Co3 O8 2.188827 1_555
Co4 O5 1.917216 1_555
Co4 O14 1.997535 1_545
Co4 O15 2.048416 1_555
Co4 O12 2.061627 1_455
Co4 O0 2.087477 1_545
Co4 O2 2.111542 1_555
