# generated using pymatgen
data_Ce3W(ClO2)3
_symmetry_space_group_name_H-M   'P 1'
_cell_length_a   9.37427774
_cell_length_b   9.37415478
_cell_length_c   5.40785409
_cell_angle_alpha   90.00000000
_cell_angle_beta   90.00000000
_cell_angle_gamma   120.00117053
_symmetry_Int_Tables_number   1
_chemical_formula_structural   Ce3W(ClO2)3
_chemical_formula_sum   'Ce6 W2 Cl6 O12'
_cell_volume   411.54791990
_cell_formula_units_Z   2
loop_
 _symmetry_equiv_pos_site_id
 _symmetry_equiv_pos_as_xyz
  1  'x, y, z'
loop_
 _atom_site_type_symbol
 _atom_site_label
 _atom_site_symmetry_multiplicity
 _atom_site_fract_x
 _atom_site_fract_y
 _atom_site_fract_z
 _atom_site_occupancy
  Ce  Ce0  1  0.91088355  0.59392493  0.75000000  1
  Ce  Ce1  1  0.08915181  0.40612289  0.25000000  1
  Ce  Ce2  1  0.68303296  0.08910961  0.75000000  1
  Ce  Ce3  1  0.31696144  0.91085305  0.25000000  1
  Ce  Ce4  1  0.40609369  0.31698053  0.75000000  1
  Ce  Ce5  1  0.59388412  0.68304310  0.25000000  1
  W  W0  1  0.33332663  0.66667494  0.75000000  1
  W  W1  1  0.66667736  0.33332602  0.25000000  1
  Cl  Cl0  1  0.75771762  0.80576825  0.75000000  1
  Cl  Cl1  1  0.24221601  0.19417393  0.25000000  1
  Cl  Cl2  1  0.04803030  0.24228801  0.75000000  1
  Cl  Cl3  1  0.95195725  0.75774238  0.25000000  1
  Cl  Cl4  1  0.19421924  0.95193809  0.75000000  1
  Cl  Cl5  1  0.80582020  0.04803574  0.25000000  1
  O  O0  1  0.47310636  0.83882823  0.97972518  1
  O  O1  1  0.52690307  0.16118433  0.02029316  1
  O  O2  1  0.36569423  0.52689946  0.97972646  1
  O  O3  1  0.52690307  0.16118433  0.47970684  1
  O  O4  1  0.63430566  0.47309200  0.02029238  1
  O  O5  1  0.47310636  0.83882823  0.52027482  1
  O  O6  1  0.16117950  0.63430584  0.97972965  1
  O  O7  1  0.63430566  0.47309200  0.47970762  1
  O  O8  1  0.83882509  0.36569940  0.02028021  1
  O  O9  1  0.36569423  0.52689946  0.52027354  1
  O  O10  1  0.83882509  0.36569940  0.47971979  1
  O  O11  1  0.16117950  0.63430584  0.52027035  1
loop_
_geom_bond_atom_site_label_1
_geom_bond_atom_site_label_2
_geom_bond_distance
_geom_bond_site_symmetry_2
Ce0 O8 2.392609 1_556
Ce0 O10 2.392609 1_555
Ce0 O6 2.510743 1_655
Ce0 O11 2.510743 1_655
Ce0 O4 2.684193 1_556
Ce0 O7 2.684193 1_555
Ce0 Cl0 2.976006 1_555
Ce0 Cl3 3.037498 1_556
Ce0 Cl3 3.037498 1_555
Ce0 Cl4 3.066535 1_655
Ce1 O11 2.392323 1_555
Ce1 O6 2.392323 1_554
Ce1 O10 2.510838 1_455
Ce1 O8 2.510838 1_455
Ce1 O9 2.683918 1_555
Ce1 O2 2.683918 1_554
Ce1 Cl1 2.976128 1_555
Ce1 Cl2 3.037514 1_555
Ce1 Cl2 3.037514 1_554
Ce1 Cl5 3.066982 1_455
Ce2 O3 2.392513 1_555
Ce2 O1 2.392513 1_556
Ce2 O5 2.510647 1_545
Ce2 O0 2.510647 1_545
Ce2 O8 2.684231 1_556
Ce2 O10 2.684231 1_555
Ce2 Cl2 2.975873 1_655
Ce2 Cl5 3.037692 1_555
Ce2 Cl5 3.037692 1_556
Ce2 Cl0 3.066689 1_545
Ce3 O5 2.392283 1_555
Ce3 O0 2.392283 1_554
Ce3 O1 2.510896 1_565
Ce3 O3 2.510896 1_565
Ce3 O6 2.683919 1_554
Ce3 O11 2.683919 1_555
Ce3 Cl3 2.975991 1_455
Ce3 Cl4 3.037538 1_555
Ce3 Cl4 3.037538 1_554
Ce3 Cl1 3.066878 1_565
Ce4 O4 2.392494 1_556
Ce4 O7 2.392494 1_555
Ce4 O9 2.510848 1_555
Ce4 O2 2.510848 1_555
Ce4 O3 2.684419 1_555
Ce4 O1 2.684419 1_556
Ce4 Cl4 2.976217 1_545
Ce4 Cl1 3.037751 1_555
Ce4 Cl1 3.037751 1_556
Ce4 Cl2 3.067022 1_555
Ce5 O9 2.392360 1_555
Ce5 O2 2.392360 1_554
Ce5 O7 2.511169 1_555
Ce5 O4 2.511169 1_555
Ce5 O5 2.684081 1_555
Ce5 O0 2.684081 1_554
Ce5 Cl5 2.975890 1_565
Ce5 Cl0 3.037524 1_554
Ce5 Cl0 3.037524 1_555
Ce5 Cl3 3.067091 1_555
O0 W0 1.936486 1_555
O1 W1 1.936355 1_555
O2 W0 1.936453 1_555
O3 W1 1.936355 1_555
O4 W1 1.936339 1_555
O5 W0 1.936486 1_555
O6 W0 1.936495 1_555
O7 W1 1.936339 1_555
O8 W1 1.936455 1_555
O9 W0 1.936453 1_555
O10 W1 1.936455 1_555
O11 W0 1.936495 1_555
