# generated using pymatgen
data_Er3(CuSn)4
_symmetry_space_group_name_H-M   'P 1'
_cell_length_a   8.39526446
_cell_length_b   8.39526446
_cell_length_c   8.39526472
_cell_angle_alpha   149.18549315
_cell_angle_beta   131.21835980
_cell_angle_gamma   58.81783001
_symmetry_Int_Tables_number   1
_chemical_formula_structural   Er3(CuSn)4
_chemical_formula_sum   'Er3 Cu4 Sn4'
_cell_volume   226.21016039
_cell_formula_units_Z   1
loop_
 _symmetry_equiv_pos_site_id
 _symmetry_equiv_pos_as_xyz
  1  'x, y, z'
loop_
 _atom_site_type_symbol
 _atom_site_label
 _atom_site_symmetry_multiplicity
 _atom_site_fract_x
 _atom_site_fract_y
 _atom_site_fract_z
 _atom_site_occupancy
  Er  Er0  1  0.00000000  0.00000000  0.00000000  1
  Er  Er1  1  0.36891800  0.86891800  0.50000000  1
  Er  Er2  1  0.63108200  0.13108200  0.50000000  1
  Cu  Cu0  1  0.01687100  0.32798300  0.68888900  1
  Cu  Cu1  1  0.63909400  0.32798300  0.31111100  1
  Cu  Cu2  1  0.98312900  0.67201700  0.31111100  1
  Cu  Cu3  1  0.36090600  0.67201700  0.68888900  1
  Sn  Sn0  1  0.21573800  0.21573800  0.00000000  1
  Sn  Sn1  1  0.78426200  0.78426200  0.00000000  1
  Sn  Sn2  1  0.29648000  0.50000000  0.79648000  1
  Sn  Sn3  1  0.70352000  0.50000000  0.20352000  1
loop_
_geom_bond_atom_site_label_1
_geom_bond_atom_site_label_2
_geom_bond_distance
_geom_bond_site_symmetry_2
Er0 Sn3 3.033296 1_455
Er0 Sn2 3.033296 1_544
Er0 Sn3 3.033296 1_444
Er0 Sn2 3.033296 1_555
Er0 Sn0 3.155569 1_555
Er0 Sn1 3.155569 1_445
Er1 Sn0 3.161469 1_566
Er1 Sn0 3.161469 1_555
Er1 Sn2 3.262262 1_565
Er1 Sn3 3.262262 1_555
Er1 Sn2 3.262262 1_554
Er1 Sn3 3.262262 1_566
Er2 Sn1 3.161469 1_556
Er2 Sn1 3.161469 1_545
Er2 Sn2 3.262262 1_555
Er2 Sn3 3.262262 1_545
Er2 Sn3 3.262262 1_556
Er2 Sn2 3.262262 1_544
Cu0 Cu1 2.619431 1_455
Cu0 Sn2 2.624343 1_555
Cu0 Sn1 2.664422 1_456
Cu0 Sn1 2.664426 1_445
Cu0 Sn0 2.710884 1_556
Cu0 Er1 3.160189 1_556
Cu0 Er1 3.160192 1_545
Cu0 Er2 3.163851 1_455
Cu1 Sn3 2.624335 1_555
Cu1 Sn1 2.664428 1_545
Cu1 Sn1 2.664428 1_556
Cu1 Sn0 2.710886 1_555
Cu1 Er1 3.160186 1_555
Cu1 Er1 3.160187 1_544
Cu1 Er2 3.163859 1_555
Cu2 Cu3 2.619431 1_655
Cu2 Sn3 2.624343 1_555
Cu2 Sn0 2.664422 1_655
Cu2 Sn0 2.664426 1_666
Cu2 Sn1 2.710884 1_555
Cu2 Er2 3.160189 1_554
Cu2 Er2 3.160192 1_565
Cu2 Er1 3.163851 1_655
Cu3 Sn2 2.624335 1_555
Cu3 Sn0 2.664428 1_566
Cu3 Sn0 2.664428 1_555
Cu3 Sn1 2.710886 1_556
Cu3 Er2 3.160186 1_555
Cu3 Er2 3.160187 1_566
Cu3 Er1 3.163859 1_555
Sn2 Sn3 2.822331 1_556
