# generated using pymatgen
data_K2SnH2OF6
_symmetry_space_group_name_H-M   'P 1'
_cell_length_a   11.26338812
_cell_length_b   10.94481797
_cell_length_c   9.20633759
_cell_angle_alpha   67.32690475
_cell_angle_beta   63.71744594
_cell_angle_gamma   48.95564931
_symmetry_Int_Tables_number   1
_chemical_formula_structural   K2SnH2OF6
_chemical_formula_sum   'K8 Sn4 H8 O4 F24'
_cell_volume   759.90437351
_cell_formula_units_Z   4
loop_
 _symmetry_equiv_pos_site_id
 _symmetry_equiv_pos_as_xyz
  1  'x, y, z'
loop_
 _atom_site_type_symbol
 _atom_site_label
 _atom_site_symmetry_multiplicity
 _atom_site_fract_x
 _atom_site_fract_y
 _atom_site_fract_z
 _atom_site_occupancy
  K  K0  1  0.12354100  0.12354100  0.87645900  1
  K  K1  1  0.87645900  0.87645900  0.12354100  1
  K  K2  1  0.12645900  0.12645900  0.37354100  1
  K  K3  1  0.37354100  0.37354100  0.12645900  1
  K  K4  1  0.28628400  0.71371600  0.71371600  1
  K  K5  1  0.71371600  0.28628400  0.28628400  1
  K  K6  1  0.96371600  0.53628400  0.53628400  1
  K  K7  1  0.53628400  0.96371600  0.96371600  1
  Sn  Sn0  1  0.78132700  0.21867300  0.78132700  1
  Sn  Sn1  1  0.21867300  0.78132700  0.21867300  1
  Sn  Sn2  1  0.46867300  0.03132700  0.46867300  1
  Sn  Sn3  1  0.03132700  0.46867300  0.03132700  1
  H  H0  1  0.63028500  0.51605000  0.48578300  1
  H  H1  1  0.36788200  0.48578300  0.51605000  1
  H  H2  1  0.48578300  0.36788200  0.63028500  1
  H  H3  1  0.51605000  0.63028500  0.36788200  1
  H  H4  1  0.61971500  0.73395000  0.76421700  1
  H  H5  1  0.88211800  0.76421700  0.73395000  1
  H  H6  1  0.76421700  0.88211800  0.61971500  1
  H  H7  1  0.73395000  0.61971500  0.88211800  1
  O  O0  1  0.60531400  0.60531400  0.39468600  1
  O  O1  1  0.39468600  0.39468600  0.60531400  1
  O  O2  1  0.64468600  0.64468600  0.85531400  1
  O  O3  1  0.85531400  0.85531400  0.64468600  1
  F  F0  1  0.65879700  0.12059800  0.92215500  1
  F  F1  1  0.29845000  0.92215500  0.12059800  1
  F  F2  1  0.92215500  0.29845000  0.65879700  1
  F  F3  1  0.12059800  0.65879700  0.29845000  1
  F  F4  1  0.59120300  0.12940200  0.32784500  1
  F  F5  1  0.95155000  0.32784500  0.12940200  1
  F  F6  1  0.32784500  0.95155000  0.59120300  1
  F  F7  1  0.12940200  0.59120300  0.95155000  1
  F  F8  1  0.56256800  0.43583200  0.78580200  1
  F  F9  1  0.21579800  0.78580200  0.43583200  1
  F  F10  1  0.78580200  0.21579800  0.56256800  1
  F  F11  1  0.43583200  0.56256800  0.21579800  1
  F  F12  1  0.68743200  0.81416800  0.46419800  1
  F  F13  1  0.03420200  0.46419800  0.81416800  1
  F  F14  1  0.46419800  0.03420200  0.68743200  1
  F  F15  1  0.81416800  0.68743200  0.03420200  1
  F  F16  1  0.78818700  0.22907900  0.98989600  1
  F  F17  1  0.99283800  0.98989600  0.22907900  1
  F  F18  1  0.98989600  0.99283800  0.78818700  1
  F  F19  1  0.22907900  0.78818700  0.99283800  1
  F  F20  1  0.46181300  0.02092100  0.26010400  1
  F  F21  1  0.25716200  0.26010400  0.02092100  1
  F  F22  1  0.26010400  0.25716200  0.46181300  1
  F  F23  1  0.02092100  0.46181300  0.25716200  1
loop_
_geom_bond_atom_site_label_1
_geom_bond_atom_site_label_2
_geom_bond_distance
_geom_bond_site_symmetry_2
H0 O0 0.976373 1_555
H1 O1 0.976373 1_555
H2 O1 0.976373 1_555
H3 O0 0.976373 1_555
H4 O2 0.976373 1_555
H5 O3 0.976373 1_555
H6 O3 0.976373 1_555
H7 O2 0.976373 1_555
F0 Sn0 2.006449 1_555
F0 K7 2.671400 1_545
F0 K1 2.861923 1_546
F0 K3 2.916517 1_556
F1 Sn1 2.006449 1_555
F1 K7 2.671400 1_554
F1 K0 2.861923 1_564
F1 K2 2.916517 1_565
F2 Sn0 2.006449 1_555
F2 K6 2.671400 1_555
F2 K0 2.861923 1_655
F2 K2 2.916517 1_655
F3 Sn1 2.006449 1_555
F3 K6 2.671400 1_455
F3 K1 2.861923 1_455
F3 K3 2.916517 1_555
F4 Sn2 2.006449 1_555
F4 K5 2.671400 1_555
F4 K3 2.861923 1_555
F4 K1 2.916517 1_545
F5 Sn3 2.006449 1_655
F5 K5 2.671400 1_555
F5 K2 2.861923 1_655
F5 K0 2.916517 1_654
F6 Sn2 2.006449 1_565
F6 K4 2.671400 1_555
F6 K2 2.861923 1_565
F6 K0 2.916517 1_565
F7 Sn3 2.006449 1_556
F7 K4 2.671400 1_555
F7 K3 2.861923 1_556
F7 K1 2.916517 1_456
F8 Sn0 2.004115 1_555
F8 K4 2.686567 1_555
F8 K3 3.029540 1_556
F9 Sn1 2.004115 1_555
F9 K4 2.686567 1_555
F9 K2 3.029540 1_565
F10 Sn0 2.004115 1_555
F10 K5 2.686567 1_555
F10 K2 3.029540 1_655
F11 Sn1 2.004115 1_555
F11 K5 2.686567 1_555
F11 K3 3.029540 1_555
F12 Sn2 2.004115 1_565
F12 K6 2.686567 1_555
F12 K1 3.029540 1_555
F13 Sn3 2.004115 1_556
F13 K6 2.686567 1_455
F13 K0 3.029540 1_555
F14 Sn2 2.004115 1_555
F14 K7 2.686567 1_545
F14 K0 3.029540 1_555
F15 Sn3 2.004115 1_655
F15 K7 2.686567 1_554
F15 K1 3.029540 1_555
F16 Sn0 2.004368 1_555
F16 K5 2.672368 1_556
F16 K0 2.898094 1_655
F16 K1 3.127345 1_546
F17 Sn1 2.004368 1_655
F17 K5 2.672368 1_565
F17 K1 2.898094 1_555
F17 K0 3.127345 1_664
F18 Sn0 2.004368 1_565
F18 K4 2.672368 1_655
F18 K1 2.898094 1_556
F18 K0 3.127345 1_665
F19 Sn1 2.004368 1_556
F19 K4 2.672368 1_555
F19 K0 2.898094 1_565
F19 K1 3.127345 1_456
F20 Sn2 2.004368 1_555
F20 K7 2.672368 1_544
F20 K2 2.898094 1_555
F20 K3 3.127345 1_555
F21 Sn3 2.004368 1_555
F21 K7 2.672368 1_544
F21 K3 2.898094 1_555
F21 K2 3.127345 1_555
F22 Sn2 2.004368 1_555
F22 K6 2.672368 1_455
F22 K3 2.898094 1_555
F22 K2 3.127345 1_555
F23 Sn3 2.004368 1_555
F23 K6 2.672368 1_455
F23 K2 2.898094 1_555
F23 K3 3.127345 1_555
