# generated using pymatgen
data_Ca4SnN4
_symmetry_space_group_name_H-M   'P 1'
_cell_length_a   6.09172274
_cell_length_b   6.10242890
_cell_length_c   9.28209222
_cell_angle_alpha   69.80849125
_cell_angle_beta   80.61949724
_cell_angle_gamma   68.68230689
_symmetry_Int_Tables_number   1
_chemical_formula_structural   Ca4SnN4
_chemical_formula_sum   'Ca8 Sn2 N8'
_cell_volume   301.41376818
_cell_formula_units_Z   2
loop_
 _symmetry_equiv_pos_site_id
 _symmetry_equiv_pos_as_xyz
  1  'x, y, z'
loop_
 _atom_site_type_symbol
 _atom_site_label
 _atom_site_symmetry_multiplicity
 _atom_site_fract_x
 _atom_site_fract_y
 _atom_site_fract_z
 _atom_site_occupancy
  Ca  Ca0  1  0.73181754  0.61980843  0.19361657  1
  Ca  Ca1  1  0.26818246  0.38019157  0.80638343  1
  Ca  Ca2  1  0.75174415  0.24640414  0.99420059  1
  Ca  Ca3  1  0.24825585  0.75359586  0.00579941  1
  Ca  Ca4  1  0.73761072  0.47704824  0.57512527  1
  Ca  Ca5  1  0.26238928  0.52295176  0.42487473  1
  Ca  Ca6  1  0.24826728  0.94366346  0.59435410  1
  Ca  Ca7  1  0.75173272  0.05633654  0.40564590  1
  Sn  Sn0  1  0.71894160  0.84148692  0.76185468  1
  Sn  Sn1  1  0.28105840  0.15851308  0.23814532  1
  N  N0  1  0.99106492  0.69273053  0.61200752  1
  N  N1  1  0.00893508  0.30726947  0.38799248  1
  N  N2  1  0.85013184  0.86188864  0.94574429  1
  N  N3  1  0.14986816  0.13811136  0.05425571  1
  N  N4  1  0.50789578  0.61199632  0.80227741  1
  N  N5  1  0.49210422  0.38800368  0.19772259  1
  N  N6  1  0.49756092  0.81644758  0.38138802  1
  N  N7  1  0.50244008  0.18355242  0.61861198  1
loop_
_geom_bond_atom_site_label_1
_geom_bond_atom_site_label_2
_geom_bond_distance
_geom_bond_site_symmetry_2
Ca0 N5 2.362494 1_555
Ca0 N2 2.425416 1_554
Ca0 N6 2.429411 1_555
Ca0 N1 2.453365 1_655
Ca1 N4 2.362494 1_555
Ca1 N3 2.425416 1_556
Ca1 N7 2.429413 1_555
Ca1 N0 2.453365 1_455
Ca2 N3 2.377066 1_656
Ca2 N2 2.384455 1_545
Ca2 N5 2.444625 1_556
Ca2 N4 2.463118 1_555
Ca3 N2 2.377066 1_454
Ca3 N3 2.384455 1_565
Ca3 N4 2.444625 1_554
Ca3 N5 2.463118 1_555
Ca4 N6 2.397064 1_555
Ca4 N1 2.425647 1_655
Ca4 N0 2.488832 1_555
Ca4 N4 2.545756 1_555
Ca4 N7 2.569254 1_555
Ca5 N7 2.397067 1_555
Ca5 N0 2.425647 1_455
Ca5 N1 2.488832 1_555
Ca5 N5 2.545756 1_555
Ca5 N6 2.569258 1_555
Ca6 N6 2.457669 1_555
Ca6 N4 2.508726 1_555
Ca6 N0 2.512796 1_455
Ca6 N1 2.518394 1_565
Ca6 N7 2.565213 1_565
Ca7 N7 2.457666 1_555
Ca7 N5 2.508726 1_555
Ca7 N1 2.512796 1_655
Ca7 N0 2.518394 1_545
Ca7 N6 2.565208 1_545
N0 Sn0 2.128966 1_555
N1 Sn1 2.128966 1_555
N2 Sn0 2.057019 1_555
N3 Sn1 2.057019 1_555
N4 Sn0 2.131664 1_555
N5 Sn1 2.131664 1_555
N6 Sn1 2.125704 1_565
N7 Sn0 2.125702 1_545
