# generated using pymatgen
data_TmInNi
_symmetry_space_group_name_H-M   'P 1'
_cell_length_a   3.66150000
_cell_length_b   7.47936200
_cell_length_c   7.50351064
_cell_angle_alpha   119.89359608
_cell_angle_beta   90.00000000
_cell_angle_gamma   90.00000000
_symmetry_Int_Tables_number   1
_chemical_formula_structural   TmInNi
_chemical_formula_sum   'Tm3 In3 Ni3'
_cell_volume   178.14899530
_cell_formula_units_Z   3
loop_
 _symmetry_equiv_pos_site_id
 _symmetry_equiv_pos_as_xyz
  1  'x, y, z'
loop_
 _atom_site_type_symbol
 _atom_site_label
 _atom_site_symmetry_multiplicity
 _atom_site_fract_x
 _atom_site_fract_y
 _atom_site_fract_z
 _atom_site_occupancy
  Tm  Tm0  1  0.50000000  0.40990900  0.00000000  1
  Tm  Tm1  1  0.50000000  0.58981700  0.58941100  1
  Tm  Tm2  1  0.50000000  0.00040600  0.41058900  1
  In  In0  1  0.00000000  0.74218400  0.00000000  1
  In  In1  1  0.00000000  0.25779600  0.25783100  1
  In  In2  1  0.00000000  0.99996500  0.74216900  1
  Ni  Ni0  1  0.00000000  0.66678700  0.33319500  1
  Ni  Ni1  1  0.00000000  0.33359200  0.66680500  1
  Ni  Ni2  1  0.50000000  0.99964500  0.00000000  1
loop_
_geom_bond_atom_site_label_1
_geom_bond_atom_site_label_2
_geom_bond_distance
_geom_bond_site_symmetry_2
In0 Ni2 2.657019 1_555
In0 Ni2 2.657019 1_455
In0 Ni0 2.823829 1_555
In0 Ni1 2.823829 1_554
In0 Tm0 3.086728 1_555
In0 Tm0 3.086728 1_455
In0 Tm1 3.262265 1_554
In0 Tm1 3.262265 1_454
In0 Tm2 3.262265 1_465
In0 Tm2 3.262265 1_565
In0 In1 3.343382 1_565
In0 In2 3.343382 1_554
In1 Ni2 2.664412 1_445
In1 Ni2 2.664412 1_545
In1 Ni0 2.820095 1_555
In1 Ni1 2.829216 1_555
In1 Tm1 3.090316 1_455
In1 Tm1 3.090316 1_555
In1 Tm2 3.251312 1_555
In1 Tm2 3.251312 1_455
In1 Tm0 3.253124 1_555
In1 Tm0 3.253124 1_455
In2 Ni2 2.664412 1_556
In2 Ni2 2.664412 1_456
In2 Ni1 2.820095 1_565
In2 Ni0 2.829216 1_555
In2 Tm2 3.090316 1_465
In2 Tm2 3.090316 1_565
In2 Tm1 3.251312 1_555
In2 Tm1 3.251312 1_455
In2 Tm0 3.253124 1_566
In2 Tm0 3.253124 1_466
Ni0 Tm2 2.910464 1_465
Ni0 Tm2 2.910464 1_565
Ni0 Tm1 2.912447 1_455
Ni0 Tm1 2.912447 1_555
Ni0 Tm0 2.916442 1_555
Ni0 Tm0 2.916442 1_455
Ni1 Tm1 2.910464 1_455
Ni1 Tm1 2.910464 1_555
Ni1 Tm2 2.912447 1_455
Ni1 Tm2 2.912447 1_555
Ni1 Tm0 2.916442 1_456
Ni1 Tm0 2.916442 1_556
Ni2 Tm0 3.068513 1_565
Ni2 Tm2 3.078026 1_565
Ni2 Tm1 3.078026 1_554
