# generated using pymatgen
data_Pb10S(ClO3)4
_symmetry_space_group_name_H-M   'P 1'
_cell_length_a   9.06672900
_cell_length_b   10.84359502
_cell_length_c   13.14512940
_cell_angle_alpha   66.12723315
_cell_angle_beta   84.64623994
_cell_angle_gamma   77.45239879
_symmetry_Int_Tables_number   1
_chemical_formula_structural   Pb10S(ClO3)4
_chemical_formula_sum   'Pb20 S2 Cl8 O24'
_cell_volume   1153.56089457
_cell_formula_units_Z   2
loop_
 _symmetry_equiv_pos_site_id
 _symmetry_equiv_pos_as_xyz
  1  'x, y, z'
loop_
 _atom_site_type_symbol
 _atom_site_label
 _atom_site_symmetry_multiplicity
 _atom_site_fract_x
 _atom_site_fract_y
 _atom_site_fract_z
 _atom_site_occupancy
  Pb  Pb0  1  0.99779400  0.65485200  0.02590000  1
  Pb  Pb1  1  0.00220600  0.34514800  0.97410000  1
  Pb  Pb2  1  0.45412800  0.41679400  0.64774400  1
  Pb  Pb3  1  0.54587200  0.58320600  0.35225600  1
  Pb  Pb4  1  0.34964600  0.83093600  0.94294700  1
  Pb  Pb5  1  0.65035400  0.16906400  0.05705300  1
  Pb  Pb6  1  0.64986600  0.49665500  0.09343600  1
  Pb  Pb7  1  0.35013400  0.50334500  0.90656400  1
  Pb  Pb8  1  0.82116100  0.56884400  0.56016500  1
  Pb  Pb9  1  0.17883900  0.43115600  0.43983500  1
  Pb  Pb10  1  0.28391700  0.32751800  0.20484200  1
  Pb  Pb11  1  0.71608300  0.67248200  0.79515800  1
  Pb  Pb12  1  0.15001400  0.75977700  0.46765500  1
  Pb  Pb13  1  0.84998600  0.24022300  0.53234500  1
  Pb  Pb14  1  0.14289000  0.22751100  0.74602800  1
  Pb  Pb15  1  0.85711000  0.77248900  0.25397200  1
  Pb  Pb16  1  0.55422900  0.93343400  0.38502500  1
  Pb  Pb17  1  0.44577100  0.06656600  0.61497500  1
  Pb  Pb18  1  0.88000900  0.12282800  0.28758900  1
  Pb  Pb19  1  0.11999100  0.87717200  0.71241100  1
  S  S0  1  0.77227000  0.01683100  0.80798400  1
  S  S1  1  0.22773000  0.98316900  0.19201600  1
  Cl  Cl0  1  0.80471200  0.90435400  0.52300300  1
  Cl  Cl1  1  0.19528800  0.09564600  0.47699700  1
  Cl  Cl2  1  0.27966500  0.61174400  0.17571100  1
  Cl  Cl3  1  0.72033500  0.38825600  0.82428900  1
  Cl  Cl4  1  0.57721800  0.26682100  0.35477800  1
  Cl  Cl5  1  0.42278200  0.73317900  0.64522200  1
  Cl  Cl6  1  0.06119300  0.59284900  0.70075000  1
  Cl  Cl7  1  0.93880700  0.40715100  0.29925000  1
  O  O0  1  0.91462300  0.06569600  0.74863700  1
  O  O1  1  0.08537700  0.93430400  0.25136300  1
  O  O2  1  0.75319800  0.03074700  0.91495600  1
  O  O3  1  0.24680200  0.96925300  0.08504400  1
  O  O4  1  0.64264400  0.10129800  0.73119100  1
  O  O5  1  0.35735600  0.89870200  0.26880900  1
  O  O6  1  0.79303100  0.86781400  0.82673800  1
  O  O7  1  0.20696900  0.13218600  0.17326200  1
  O  O8  1  0.48038000  0.35778200  0.07371200  1
  O  O9  1  0.51962000  0.64221800  0.92628800  1
  O  O10  1  0.33224400  0.27661800  0.61389500  1
  O  O11  1  0.66775600  0.72338200  0.38610500  1
  O  O12  1  0.72834600  0.00175300  0.24466900  1
  O  O13  1  0.27165400  0.99824700  0.75533100  1
  O  O14  1  0.66460400  0.42848100  0.52219500  1
  O  O15  1  0.33539600  0.57151900  0.47780500  1
  O  O16  1  0.84857200  0.55268700  0.95950200  1
  O  O17  1  0.15142800  0.44731300  0.04049800  1
  O  O18  1  0.81733600  0.27286900  0.10524900  1
  O  O19  1  0.18266400  0.72713100  0.89475100  1
  O  O20  1  0.00208200  0.64596300  0.41830500  1
  O  O21  1  0.99791800  0.35403700  0.58169500  1
  O  O22  1  0.33513800  0.34977600  0.82001900  1
  O  O23  1  0.66486200  0.65022400  0.17998100  1
loop_
_geom_bond_atom_site_label_1
_geom_bond_atom_site_label_2
_geom_bond_distance
_geom_bond_site_symmetry_2
Cl0 Pb16 2.922564 1_555
Cl0 Pb18 3.166900 1_565
Cl1 Pb17 2.922564 1_555
Cl1 Pb19 3.166900 1_545
Cl2 Pb10 2.939880 1_555
Cl2 Pb4 3.133743 1_554
Cl2 Pb0 3.209818 1_455
Cl3 Pb11 2.939880 1_555
Cl3 Pb5 3.133743 1_556
Cl3 Pb1 3.209818 1_655
Cl4 Pb18 3.091289 1_555
Cl5 Pb19 3.091289 1_555
Cl6 Pb12 2.999528 1_555
Cl6 Pb8 3.099227 1_455
Cl7 Pb13 2.999528 1_555
Cl7 Pb9 3.099227 1_655
O0 S0 1.526393 1_555
O0 Pb19 2.615626 1_645
O0 Pb13 2.735418 1_555
O1 S1 1.526393 1_555
O1 Pb18 2.615626 1_465
O1 Pb12 2.735418 1_555
O2 S0 1.464581 1_555
O2 Pb5 2.818324 1_556
O3 S1 1.464581 1_555
O3 Pb4 2.818324 1_554
O4 S0 1.498166 1_555
O4 Pb17 2.632204 1_555
O5 S1 1.498166 1_555
O5 Pb16 2.632204 1_555
O6 S0 1.503776 1_565
O6 Pb11 2.559929 1_555
O7 S1 1.503776 1_545
O7 Pb10 2.559929 1_555
O8 Pb10 2.339875 1_555
O8 Pb5 2.353743 1_555
O8 Pb7 2.362360 1_554
O8 Pb6 2.468226 1_555
O9 Pb11 2.339875 1_555
O9 Pb4 2.353743 1_555
O9 Pb6 2.362360 1_556
O9 Pb7 2.468226 1_555
O10 Pb2 2.258025 1_555
O10 Pb17 2.281571 1_555
O10 Pb14 2.310845 1_555
O10 Pb9 2.540772 1_555
O11 Pb3 2.258025 1_555
O11 Pb16 2.281571 1_555
O11 Pb15 2.310845 1_555
O11 Pb8 2.540772 1_555
O12 Pb16 2.302900 1_545
O12 Pb18 2.337005 1_555
O12 Pb5 2.453622 1_555
O12 Pb15 2.465328 1_545
O13 Pb17 2.302900 1_565
O13 Pb19 2.337005 1_555
O13 Pb4 2.453622 1_555
O13 Pb14 2.465328 1_565
O14 Pb13 2.311004 1_555
O14 Pb3 2.365235 1_555
O14 Pb2 2.393646 1_555
O14 Pb8 2.503283 1_555
O15 Pb12 2.311004 1_555
O15 Pb2 2.365235 1_555
O15 Pb3 2.393646 1_555
O15 Pb9 2.503283 1_555
O16 Pb11 2.309160 1_555
O16 Pb1 2.319488 1_655
O16 Pb0 2.339626 1_556
O16 Pb6 2.394263 1_556
O17 Pb10 2.309160 1_555
O17 Pb0 2.319488 1_455
O17 Pb1 2.339626 1_554
O17 Pb7 2.394263 1_554
O18 Pb1 2.309502 1_654
O18 Pb18 2.326159 1_555
O18 Pb5 2.336065 1_555
O18 Pb6 2.521169 1_555
O19 Pb0 2.309502 1_456
O19 Pb19 2.326159 1_555
O19 Pb4 2.336065 1_555
O19 Pb7 2.521169 1_555
O20 Pb12 2.296207 1_555
O20 Pb15 2.371461 1_455
O20 Pb8 2.372858 1_455
O20 Pb9 2.450121 1_555
O21 Pb13 2.296207 1_555
O21 Pb14 2.371461 1_655
O21 Pb9 2.372858 1_655
O21 Pb8 2.450121 1_555
O22 Pb2 2.317980 1_555
O22 Pb7 2.397162 1_555
O23 Pb3 2.317980 1_555
O23 Pb6 2.397162 1_555
