# generated using pymatgen
data_Li2H12C8N2O13
_symmetry_space_group_name_H-M   'P 1'
_cell_length_a   7.28979029
_cell_length_b   9.10327518
_cell_length_c   11.85780000
_cell_angle_alpha   90.00000000
_cell_angle_beta   90.00000000
_cell_angle_gamma   107.20138499
_symmetry_Int_Tables_number   1
_chemical_formula_structural   Li2H12C8N2O13
_chemical_formula_sum   'Li4 H24 C16 N4 O26'
_cell_volume   751.69821355
_cell_formula_units_Z   2
loop_
 _symmetry_equiv_pos_site_id
 _symmetry_equiv_pos_as_xyz
  1  'x, y, z'
loop_
 _atom_site_type_symbol
 _atom_site_label
 _atom_site_symmetry_multiplicity
 _atom_site_fract_x
 _atom_site_fract_y
 _atom_site_fract_z
 _atom_site_occupancy
  Li  Li0  1  0.60949400  0.93728000  0.75000000  1
  Li  Li1  1  0.39050600  0.06272000  0.25000000  1
  Li  Li2  1  0.15126100  0.95187000  0.75000000  1
  Li  Li3  1  0.84873900  0.04813000  0.25000000  1
  H  H0  1  0.74048000  0.99724700  0.96547400  1
  H  H1  1  0.25952000  0.00275300  0.03452600  1
  H  H2  1  0.25952000  0.00275300  0.46547400  1
  H  H3  1  0.74048000  0.99724700  0.53452600  1
  H  H4  1  0.98647800  0.15554500  0.81630600  1
  H  H5  1  0.01352200  0.84445500  0.18369400  1
  H  H6  1  0.01352200  0.84445500  0.31630600  1
  H  H7  1  0.98647800  0.15554500  0.68369400  1
  H  H8  1  0.37362400  0.65839200  0.81651700  1
  H  H9  1  0.62637600  0.34160800  0.18348300  1
  H  H10  1  0.62637600  0.34160800  0.31651700  1
  H  H11  1  0.37362400  0.65839200  0.68348300  1
  H  H12  1  0.52423900  0.84515700  0.31491200  1
  H  H13  1  0.47576100  0.15484300  0.68508800  1
  H  H14  1  0.47576100  0.15484300  0.81491200  1
  H  H15  1  0.52423900  0.84515700  0.18508800  1
  H  H16  1  0.83156500  0.59316700  0.44890800  1
  H  H17  1  0.16843500  0.40683300  0.55109200  1
  H  H18  1  0.16843500  0.40683300  0.94890800  1
  H  H19  1  0.83156500  0.59316700  0.05109200  1
  H  H20  1  0.56778300  0.84795600  0.96161500  1
  H  H21  1  0.43221700  0.15204400  0.03838500  1
  H  H22  1  0.43221700  0.15204400  0.46161500  1
  H  H23  1  0.56778300  0.84795600  0.53838500  1
  C  C0  1  0.76110400  0.50871900  0.84845100  1
  C  C1  1  0.23889600  0.49128100  0.15154900  1
  C  C2  1  0.23889600  0.49128100  0.34845100  1
  C  C3  1  0.76110400  0.50871900  0.65154900  1
  C  C4  1  0.89548800  0.65812200  0.84865700  1
  C  C5  1  0.10451200  0.34187800  0.15134300  1
  C  C6  1  0.10451200  0.34187800  0.34865700  1
  C  C7  1  0.89548800  0.65812200  0.65134300  1
  C  C8  1  0.67305000  0.40852300  0.94995900  1
  C  C9  1  0.32695000  0.59147700  0.05004100  1
  C  C10  1  0.32695000  0.59147700  0.44995900  1
  C  C11  1  0.67305000  0.40852300  0.55004100  1
  C  C12  1  0.99477200  0.76131900  0.94683300  1
  C  C13  1  0.00522800  0.23868100  0.05316700  1
  C  C14  1  0.00522800  0.23868100  0.44683300  1
  C  C15  1  0.99477200  0.76131900  0.55316700  1
  N  N0  1  0.70021800  0.44083000  0.75000000  1
  N  N1  1  0.29978200  0.55917000  0.25000000  1
  N  N2  1  0.95590900  0.72482500  0.75000000  1
  N  N3  1  0.04409100  0.27517500  0.25000000  1
  O  O0  1  0.42375000  0.72147500  0.75000000  1
  O  O1  1  0.57625000  0.27852500  0.25000000  1
  O  O2  1  0.43591700  0.08425100  0.75000000  1
  O  O3  1  0.56408300  0.91574900  0.25000000  1
  O  O4  1  0.94793000  0.71534400  0.45052400  1
  O  O5  1  0.05207000  0.28465600  0.54947600  1
  O  O6  1  0.05207000  0.28465600  0.95052400  1
  O  O7  1  0.94793000  0.71534400  0.04947600  1
  O  O8  1  0.71996000  0.46338400  0.44950600  1
  O  O9  1  0.28004000  0.53661600  0.55049400  1
  O  O10  1  0.28004000  0.53661600  0.94950600  1
  O  O11  1  0.71996000  0.46338400  0.05049400  1
  O  O12  1  0.11902100  0.88340900  0.92276100  1
  O  O13  1  0.88097900  0.11659100  0.07723900  1
  O  O14  1  0.88097900  0.11659100  0.42276100  1
  O  O15  1  0.11902100  0.88340900  0.57723900  1
  O  O16  1  0.66093900  0.92106200  0.91270100  1
  O  O17  1  0.33906100  0.07893800  0.08729900  1
  O  O18  1  0.33906100  0.07893800  0.41270100  1
  O  O19  1  0.66093900  0.92106200  0.58729900  1
  O  O20  1  0.96821400  0.08800200  0.75000000  1
  O  O21  1  0.03178600  0.91199800  0.25000000  1
  O  O22  1  0.55992400  0.27842700  0.93273300  1
  O  O23  1  0.44007600  0.72157300  0.06726700  1
  O  O24  1  0.44007600  0.72157300  0.43273300  1
  O  O25  1  0.55992400  0.27842700  0.56726700  1
loop_
_geom_bond_atom_site_label_1
_geom_bond_atom_site_label_2
_geom_bond_distance
_geom_bond_site_symmetry_2
Li0 O19 1.979215 1_555
Li0 O16 1.979215 1_555
Li0 O0 2.029650 1_555
Li0 O2 2.095807 1_565
Li0 O20 2.568778 1_565
Li1 O17 1.979215 1_555
Li1 O18 1.979215 1_555
Li1 O1 2.029650 1_555
Li1 O3 2.095807 1_545
Li1 O21 2.568778 1_545
Li2 O2 2.068617 1_565
Li2 O20 2.072279 1_465
Li2 O12 2.133923 1_555
Li2 O15 2.133923 1_555
Li2 N2 2.135179 1_455
Li3 O3 2.068617 1_545
Li3 O21 2.072279 1_645
Li3 O14 2.133923 1_555
Li3 O13 2.133923 1_555
Li3 N3 2.135179 1_655
H0 O16 0.985363 1_555
H1 O17 0.985363 1_555
H2 O18 0.985363 1_555
H3 O19 0.985363 1_555
H4 O20 0.982620 1_555
H5 O21 0.982620 1_555
H6 O21 0.982620 1_555
H7 O20 0.982620 1_555
H8 O0 0.980462 1_555
H9 O1 0.980462 1_555
H10 O1 0.980462 1_555
H11 O0 0.980462 1_555
H12 O3 0.989638 1_555
H13 O2 0.989638 1_555
H14 O2 0.989638 1_555
H15 O3 0.989638 1_555
H16 O4 1.182764 1_555
H16 O8 1.220356 1_555
H17 O5 1.182764 1_555
H17 O9 1.220356 1_555
H18 O6 1.182764 1_555
H18 O10 1.220356 1_555
H19 O7 1.182764 1_555
H19 O11 1.220356 1_555
H20 O16 0.986492 1_555
H21 O17 0.986492 1_555
H22 O18 0.986492 1_555
H23 O19 0.986492 1_555
C0 N0 1.333998 1_555
C0 C4 1.421760 1_555
C0 C8 1.531825 1_555
C1 N1 1.333998 1_555
C1 C5 1.421760 1_555
C1 C9 1.531825 1_555
C2 N1 1.333998 1_555
C2 C6 1.421760 1_555
C3 N0 1.333998 1_555
C3 C7 1.421760 1_555
C4 N2 1.331573 1_555
C5 N3 1.331573 1_555
C6 N3 1.331573 1_555
C7 N2 1.331573 1_555
C8 O22 1.243668 1_555
C8 O11 1.298654 1_556
C9 O23 1.243668 1_555
C9 O10 1.298654 1_554
C10 O24 1.243668 1_555
C10 O9 1.298654 1_555
C10 C2 1.531825 1_555
C11 O25 1.243668 1_555
C11 O8 1.298654 1_555
C11 C3 1.531825 1_555
C12 O12 1.241654 1_655
C12 O7 1.299468 1_556
C12 C4 1.536053 1_555
C13 O13 1.241654 1_455
C13 O6 1.299468 1_554
C13 C5 1.536053 1_555
C14 O14 1.241654 1_455
C14 O5 1.299468 1_555
C14 C6 1.536053 1_555
C15 O15 1.241654 1_655
C15 O4 1.299468 1_555
C15 C7 1.536053 1_555
