# generated using pymatgen
data_V6CoIr
_symmetry_space_group_name_H-M   'P 1'
_cell_length_a   4.69889463
_cell_length_b   4.69889463
_cell_length_c   4.69889463
_cell_angle_alpha   90.00000000
_cell_angle_beta   90.00000000
_cell_angle_gamma   90.00000000
_symmetry_Int_Tables_number   1
_chemical_formula_structural   V6CoIr
_chemical_formula_sum   'V6 Co1 Ir1'
_cell_volume   103.74976436
_cell_formula_units_Z   1
loop_
 _symmetry_equiv_pos_site_id
 _symmetry_equiv_pos_as_xyz
  1  'x, y, z'
loop_
 _atom_site_type_symbol
 _atom_site_label
 _atom_site_symmetry_multiplicity
 _atom_site_fract_x
 _atom_site_fract_y
 _atom_site_fract_z
 _atom_site_occupancy
  V  V0  1  0.00000000  0.50000000  0.74568444  1
  V  V1  1  0.50000000  0.25431556  -0.00000000  1
  V  V2  1  0.74568444  -0.00000000  0.50000000  1
  V  V3  1  0.00000000  0.50000000  0.25431556  1
  V  V4  1  0.50000000  0.74568444  -0.00000000  1
  V  V5  1  0.25431556  0.00000000  0.50000000  1
  Co  Co0  1  0.50000000  0.50000000  0.50000000  1
  Ir  Ir0  1  0.00000000  0.00000000  -0.00000000  1
loop_
_geom_bond_atom_site_label_1
_geom_bond_atom_site_label_2
_geom_bond_distance
_geom_bond_site_symmetry_2
V0 V3 2.308891 1_555
V0 V3 2.390004 1_556
V0 V4 2.877616 1_556
V0 V2 2.877616 1_455
V0 V5 2.877616 1_555
V0 V5 2.877616 1_565
V0 V1 2.877616 1_556
V0 V1 2.877616 1_456
V0 V2 2.877616 1_465
V0 V4 2.877616 1_456
V1 V4 2.308891 1_555
V1 V4 2.390004 1_545
V1 V5 2.877616 1_554
V1 V2 2.877616 1_555
V1 V2 2.877616 1_554
V1 V3 2.877616 1_555
V1 V5 2.877616 1_555
V1 V3 2.877616 1_655
V2 V5 2.308891 1_555
V2 V5 2.390004 1_655
V2 V4 2.877616 1_545
V2 V4 2.877616 1_546
V2 V3 2.877616 1_645
V2 V3 2.877616 1_655
V3 V4 2.877616 1_555
V3 V5 2.877616 1_555
V3 V5 2.877616 1_565
V3 V4 2.877616 1_455
V4 V5 2.877616 1_565
V4 V5 2.877616 1_564
Co0 V0 2.617756 1_555
Co0 V3 2.617756 1_555
Co0 V4 2.617756 1_556
Co0 V4 2.617756 1_555
Co0 V3 2.617756 1_655
Co0 V1 2.617756 1_555
Co0 V5 2.617756 1_555
Co0 V5 2.617756 1_565
Co0 V2 2.617756 1_565
Co0 V0 2.617756 1_655
Co0 V1 2.617756 1_556
Co0 V2 2.617756 1_555
Ir0 V5 2.635893 1_554
Ir0 V3 2.635893 1_545
Ir0 V0 2.635893 1_544
Ir0 V2 2.635893 1_455
Ir0 V4 2.635893 1_545
Ir0 V3 2.635893 1_555
Ir0 V4 2.635893 1_445
Ir0 V0 2.635893 1_554
Ir0 V1 2.635893 1_555
Ir0 V5 2.635893 1_555
Ir0 V1 2.635893 1_455
Ir0 V2 2.635893 1_454
