# generated using pymatgen
data_Ca2YBeO5
_symmetry_space_group_name_H-M   'P 1'
_cell_length_a   6.37807200
_cell_length_b   7.11365400
_cell_length_c   9.21988400
_cell_angle_alpha   90.00000000
_cell_angle_beta   90.00000000
_cell_angle_gamma   90.00000000
_symmetry_Int_Tables_number   1
_chemical_formula_structural   Ca2YBeO5
_chemical_formula_sum   'Ca8 Y4 Be4 O20'
_cell_volume   418.31902090
_cell_formula_units_Z   4
loop_
 _symmetry_equiv_pos_site_id
 _symmetry_equiv_pos_as_xyz
  1  'x, y, z'
loop_
 _atom_site_type_symbol
 _atom_site_label
 _atom_site_symmetry_multiplicity
 _atom_site_fract_x
 _atom_site_fract_y
 _atom_site_fract_z
 _atom_site_occupancy
  Ca  Ca0  1  0.58802200  0.52386300  0.82625700  1
  Ca  Ca1  1  0.41197800  0.47613700  0.17374300  1
  Ca  Ca2  1  0.08802200  0.47613700  0.67374300  1
  Ca  Ca3  1  0.41197800  0.02386300  0.17374300  1
  Ca  Ca4  1  0.91197800  0.52386300  0.32625700  1
  Ca  Ca5  1  0.58802200  0.97613700  0.82625700  1
  Ca  Ca6  1  0.91197800  0.97613700  0.32625700  1
  Ca  Ca7  1  0.08802200  0.02386300  0.67374300  1
  Y  Y0  1  0.09597100  0.75000000  0.97167000  1
  Y  Y1  1  0.90402900  0.25000000  0.02833000  1
  Y  Y2  1  0.59597100  0.25000000  0.52833000  1
  Y  Y3  1  0.40402900  0.75000000  0.47167000  1
  Be  Be0  1  0.81023200  0.75000000  0.60362400  1
  Be  Be1  1  0.18976800  0.25000000  0.39637600  1
  Be  Be2  1  0.31023200  0.25000000  0.89637600  1
  Be  Be3  1  0.68976800  0.75000000  0.10362400  1
  O  O0  1  0.86945500  0.75000000  0.77694200  1
  O  O1  1  0.13054500  0.25000000  0.22305800  1
  O  O2  1  0.36945500  0.25000000  0.72305800  1
  O  O3  1  0.63054500  0.75000000  0.27694200  1
  O  O4  1  0.32571500  0.75000000  0.72254700  1
  O  O5  1  0.67428500  0.25000000  0.27745300  1
  O  O6  1  0.82571500  0.25000000  0.77745300  1
  O  O7  1  0.17428500  0.75000000  0.22254700  1
  O  O8  1  0.68614600  0.55799200  0.56671400  1
  O  O9  1  0.31385400  0.44200800  0.43328600  1
  O  O10  1  0.18614600  0.44200800  0.93328600  1
  O  O11  1  0.31385400  0.05799200  0.43328600  1
  O  O12  1  0.81385400  0.55799200  0.06671400  1
  O  O13  1  0.68614600  0.94200800  0.56671400  1
  O  O14  1  0.81385400  0.94200800  0.06671400  1
  O  O15  1  0.18614600  0.05799200  0.93328600  1
  O  O16  1  0.03160900  0.75000000  0.51017400  1
  O  O17  1  0.96839100  0.25000000  0.48982600  1
  O  O18  1  0.53160900  0.25000000  0.98982600  1
  O  O19  1  0.46839100  0.75000000  0.01017400  1
loop_
_geom_bond_atom_site_label_1
_geom_bond_atom_site_label_2
_geom_bond_distance
_geom_bond_site_symmetry_2
Ca0 O0 2.452865 1_555
Ca0 O19 2.458731 1_556
Ca0 O8 2.485329 1_555
Ca0 O18 2.489807 1_555
Ca0 O6 2.509213 1_555
Ca0 O4 2.510193 1_555
Ca0 O2 2.577598 1_555
Ca0 O12 2.654928 1_556
Ca0 O10 2.807630 1_555
Ca1 O1 2.452865 1_555
Ca1 O18 2.458731 1_554
Ca1 O9 2.485329 1_555
Ca1 O19 2.489807 1_555
Ca1 O7 2.509213 1_555
Ca1 O5 2.510193 1_555
Ca1 O3 2.577598 1_555
Ca1 O10 2.654928 1_554
Ca1 O12 2.807630 1_555
Ca2 O2 2.452865 1_555
Ca2 O17 2.458731 1_455
Ca2 O10 2.485329 1_555
Ca2 O16 2.489807 1_555
Ca2 O4 2.509213 1_555
Ca2 O6 2.510193 1_455
Ca2 O0 2.577598 1_455
Ca2 O9 2.654928 1_555
Ca2 O8 2.807630 1_455
Ca3 O1 2.452865 1_555
Ca3 O18 2.458731 1_554
Ca3 O11 2.485329 1_555
Ca3 O19 2.489807 1_545
Ca3 O7 2.509213 1_545
Ca3 O5 2.510193 1_555
Ca3 O3 2.577598 1_545
Ca3 O15 2.654928 1_554
Ca3 O14 2.807630 1_545
Ca4 O3 2.452865 1_555
Ca4 O16 2.458731 1_655
Ca4 O12 2.485329 1_555
Ca4 O17 2.489807 1_555
Ca4 O5 2.509213 1_555
Ca4 O7 2.510193 1_655
Ca4 O1 2.577598 1_655
Ca4 O8 2.654928 1_555
Ca4 O9 2.807630 1_655
Ca5 O0 2.452865 1_555
Ca5 O19 2.458731 1_556
Ca5 O13 2.485329 1_555
Ca5 O18 2.489807 1_565
Ca5 O6 2.509213 1_565
Ca5 O4 2.510193 1_555
Ca5 O2 2.577598 1_565
Ca5 O14 2.654928 1_556
Ca5 O15 2.807630 1_565
Ca6 O3 2.452865 1_555
Ca6 O16 2.458731 1_655
Ca6 O14 2.485329 1_555
Ca6 O17 2.489807 1_565
Ca6 O5 2.509213 1_565
Ca6 O7 2.510193 1_655
Ca6 O1 2.577598 1_665
Ca6 O13 2.654928 1_555
Ca6 O11 2.807630 1_665
Ca7 O2 2.452865 1_555
Ca7 O17 2.458731 1_455
Ca7 O15 2.485329 1_555
Ca7 O16 2.489807 1_545
Ca7 O4 2.509213 1_545
Ca7 O6 2.510193 1_455
Ca7 O0 2.577598 1_445
Ca7 O11 2.654928 1_555
Ca7 O13 2.807630 1_445
Be0 O13 1.614866 1_555
Be0 O8 1.614866 1_555
Be0 O0 1.642009 1_555
Be0 O16 1.654079 1_655
Be1 O9 1.614866 1_555
Be1 O11 1.614866 1_555
Be1 O1 1.642009 1_555
Be1 O17 1.654079 1_455
Be2 O10 1.614866 1_555
Be2 O15 1.614866 1_555
Be2 O2 1.642009 1_555
Be2 O18 1.654079 1_555
Be3 O14 1.614866 1_555
Be3 O12 1.614866 1_555
Be3 O3 1.642009 1_555
Be3 O19 1.654079 1_555
O0 Y0 2.304477 1_655
O1 Y1 2.304477 1_455
O2 Y2 2.304477 1_555
O3 Y3 2.304477 1_555
O4 Y3 2.366374 1_555
O4 Y0 2.724492 1_555
O5 Y2 2.366374 1_555
O5 Y1 2.724492 1_555
O6 Y1 2.366374 1_556
O6 Y2 2.724492 1_555
O7 Y0 2.366374 1_554
O7 Y3 2.724492 1_555
O8 Y2 2.292659 1_555
O8 Y3 2.423060 1_555
O9 Y3 2.292659 1_555
O9 Y2 2.423060 1_555
O10 Y0 2.292659 1_555
O10 Y1 2.423060 1_456
O11 Y3 2.292659 1_545
O11 Y2 2.423060 1_555
O12 Y1 2.292659 1_555
O12 Y0 2.423060 1_654
O13 Y2 2.292659 1_565
O13 Y3 2.423060 1_555
O14 Y1 2.292659 1_565
O14 Y0 2.423060 1_654
O15 Y0 2.292659 1_545
O15 Y1 2.423060 1_456
O16 Y3 2.401703 1_555
O17 Y2 2.401703 1_555
O18 Y1 2.401703 1_556
O19 Y0 2.401703 1_554
