# generated using pymatgen
data_Ca2TiO4
_symmetry_space_group_name_H-M   'P 1'
_cell_length_a   6.58404804
_cell_length_b   6.58404804
_cell_length_c   6.58404804
_cell_angle_alpha   145.94720541
_cell_angle_beta   145.94720541
_cell_angle_gamma   48.92518717
_symmetry_Int_Tables_number   1
_chemical_formula_structural   Ca2TiO4
_chemical_formula_sum   'Ca2 Ti1 O4'
_cell_volume   89.09831584
_cell_formula_units_Z   1
loop_
 _symmetry_equiv_pos_site_id
 _symmetry_equiv_pos_as_xyz
  1  'x, y, z'
loop_
 _atom_site_type_symbol
 _atom_site_label
 _atom_site_symmetry_multiplicity
 _atom_site_fract_x
 _atom_site_fract_y
 _atom_site_fract_z
 _atom_site_occupancy
  Ca  Ca0  1  0.35328500  0.35328500  0.00000000  1
  Ca  Ca1  1  0.64671500  0.64671500  0.00000000  1
  Ti  Ti0  1  0.00000000  0.00000000  0.00000000  1
  O  O0  1  0.00000000  0.50000000  0.50000000  1
  O  O1  1  0.50000000  0.00000000  0.50000000  1
  O  O2  1  0.16601900  0.16601900  0.00000000  1
  O  O3  1  0.83398100  0.83398100  0.00000000  1
loop_
_geom_bond_atom_site_label_1
_geom_bond_atom_site_label_2
_geom_bond_distance
_geom_bond_site_symmetry_2
Ca0 O2 2.244574 1_555
Ca0 O1 2.609441 1_554
Ca0 O1 2.609441 1_565
Ca0 O0 2.609441 1_554
Ca0 O0 2.609441 1_655
Ca0 O3 2.736248 1_556
Ca0 O3 2.736248 1_444
Ca0 O3 2.736248 1_545
Ca0 O3 2.736248 1_455
Ca1 O3 2.244574 1_555
Ca1 O1 2.609441 1_565
Ca1 O1 2.609441 1_554
Ca1 O0 2.609441 1_655
Ca1 O0 2.609441 1_554
Ca1 O2 2.736248 1_655
Ca1 O2 2.736248 1_565
Ca1 O2 2.736248 1_666
Ca1 O2 2.736248 1_554
O0 Ti0 1.927890 1_566
O0 Ti0 1.927890 1_555
O1 Ti0 1.927890 1_656
O1 Ti0 1.927890 1_555
O2 Ti0 1.989907 1_555
O3 Ti0 1.989907 1_665
