# generated using pymatgen
data_KYMg6
_symmetry_space_group_name_H-M   'P 1'
_cell_length_a   5.39870700
_cell_length_b   6.96959500
_cell_length_c   11.75884700
_cell_angle_alpha   90.00000000
_cell_angle_beta   90.00000000
_cell_angle_gamma   90.00000000
_symmetry_Int_Tables_number   1
_chemical_formula_structural   KYMg6
_chemical_formula_sum   'K2 Y2 Mg12'
_cell_volume   442.44779975
_cell_formula_units_Z   2
loop_
 _symmetry_equiv_pos_site_id
 _symmetry_equiv_pos_as_xyz
  1  'x, y, z'
loop_
 _atom_site_type_symbol
 _atom_site_label
 _atom_site_symmetry_multiplicity
 _atom_site_fract_x
 _atom_site_fract_y
 _atom_site_fract_z
 _atom_site_occupancy
  K  K0  1  0.50000000  0.50000000  0.14960900  1
  K  K1  1  0.50000000  0.00000000  0.64960900  1
  Y  Y0  1  0.00000000  0.50000000  0.34683300  1
  Y  Y1  1  0.00000000  0.00000000  0.84683300  1
  Mg  Mg0  1  0.00000000  0.23469600  0.08567400  1
  Mg  Mg1  1  0.00000000  0.76530400  0.08567400  1
  Mg  Mg2  1  0.00000000  0.50000000  0.84405300  1
  Mg  Mg3  1  0.50000000  0.24259100  0.91085200  1
  Mg  Mg4  1  0.50000000  0.75740900  0.91085200  1
  Mg  Mg5  1  0.50000000  0.50000000  0.66645100  1
  Mg  Mg6  1  0.00000000  0.73469600  0.58567400  1
  Mg  Mg7  1  0.00000000  0.26530400  0.58567400  1
  Mg  Mg8  1  0.00000000  0.00000000  0.34405300  1
  Mg  Mg9  1  0.50000000  0.74259100  0.41085200  1
  Mg  Mg10  1  0.50000000  0.25740900  0.41085200  1
  Mg  Mg11  1  0.50000000  0.00000000  0.16645100  1
loop_
_geom_bond_atom_site_label_1
_geom_bond_atom_site_label_2
_geom_bond_distance
_geom_bond_site_symmetry_2
K0 Mg3 3.331766 1_554
K0 Mg4 3.331766 1_554
K0 Mg1 3.357193 1_655
K0 Mg0 3.357193 1_655
K0 Mg1 3.357193 1_555
K0 Mg0 3.357193 1_555
K0 Mg11 3.490420 1_555
K0 Mg11 3.490420 1_565
K0 Mg10 3.506472 1_555
K0 Mg9 3.506472 1_555
K0 Y0 3.558772 1_555
K0 Y0 3.558772 1_655
K1 Mg9 3.331766 1_545
K1 Mg10 3.331766 1_555
K1 Mg7 3.357193 1_555
K1 Mg7 3.357193 1_655
K1 Mg6 3.357193 1_645
K1 Mg6 3.357193 1_545
K1 Mg5 3.490420 1_545
K1 Mg5 3.490420 1_555
K1 Mg4 3.506472 1_545
K1 Mg3 3.506472 1_555
K1 Y1 3.558772 1_555
K1 Y1 3.558772 1_655
Mg0 Y1 3.250119 1_554
Mg0 Mg1 3.271472 1_545
Mg0 Mg11 3.296111 1_455
Mg0 Mg11 3.296111 1_555
Mg0 Mg2 3.389890 1_554
Mg0 Mg3 3.393444 1_554
Mg0 Mg3 3.393444 1_454
Mg0 Mg8 3.450584 1_555
Mg0 Y0 3.584638 1_555
Mg1 Y1 3.250119 1_564
Mg1 Mg11 3.296111 1_465
Mg1 Mg11 3.296111 1_565
Mg1 Mg2 3.389890 1_554
Mg1 Mg4 3.393444 1_554
Mg1 Mg4 3.393444 1_454
Mg1 Mg8 3.450584 1_565
Mg1 Y0 3.584638 1_555
Mg2 Mg3 3.334974 1_455
Mg2 Mg3 3.334974 1_555
Mg2 Mg4 3.334974 1_555
Mg2 Mg4 3.334974 1_455
Mg2 Mg5 3.412902 1_455
Mg2 Mg5 3.412902 1_555
Mg2 Mg6 3.450584 1_555
Mg2 Mg7 3.450584 1_555
Mg2 Y1 3.484951 1_555
Mg2 Y1 3.484951 1_565
Mg3 Y1 3.272900 1_555
Mg3 Y1 3.272900 1_655
Mg3 Mg4 3.381522 1_545
Mg3 Mg5 3.387878 1_555
Mg4 Y1 3.272900 1_565
Mg4 Y1 3.272900 1_665
Mg4 Mg5 3.387878 1_555
Mg5 Mg7 3.296111 1_655
Mg5 Mg6 3.296111 1_555
Mg5 Mg6 3.296111 1_655
Mg5 Mg7 3.296111 1_555
Mg5 Mg9 3.448478 1_555
Mg6 Y0 3.250119 1_555
Mg6 Mg7 3.271472 1_555
Mg6 Mg8 3.389890 1_565
Mg6 Mg9 3.393444 1_455
Mg6 Mg9 3.393444 1_555
Mg6 Y1 3.584638 1_565
Mg7 Y0 3.250119 1_555
Mg7 Mg8 3.389890 1_555
Mg7 Y1 3.584638 1_555
Mg8 Mg9 3.334974 1_545
Mg8 Mg9 3.334974 1_445
Mg8 Y0 3.484951 1_545
Mg8 Y0 3.484951 1_555
Mg9 Y0 3.272900 1_555
Mg9 Y0 3.272900 1_655
Mg10 Y0 3.272900 1_555
Mg10 Y0 3.272900 1_655
Mg10 Mg8 3.334974 1_555
Mg10 Mg8 3.334974 1_655
Mg10 Mg9 3.381522 1_555
Mg10 Mg11 3.387878 1_555
Mg10 Mg7 3.393444 1_655
Mg10 Mg7 3.393444 1_555
Mg10 Mg5 3.448478 1_555
Mg11 Mg9 3.387878 1_545
Mg11 Mg8 3.412902 1_555
Mg11 Mg8 3.412902 1_655
Mg11 Mg4 3.448478 1_544
Mg11 Mg3 3.448478 1_554
