# generated using pymatgen
data_Na5AsO5
_symmetry_space_group_name_H-M   'P 1'
_cell_length_a   6.03695400
_cell_length_b   6.50431800
_cell_length_c   16.62694200
_cell_angle_alpha   90.00000000
_cell_angle_beta   90.00000000
_cell_angle_gamma   90.00000000
_symmetry_Int_Tables_number   1
_chemical_formula_structural   Na5AsO5
_chemical_formula_sum   'Na20 As4 O20'
_cell_volume   652.87797003
_cell_formula_units_Z   4
loop_
 _symmetry_equiv_pos_site_id
 _symmetry_equiv_pos_as_xyz
  1  'x, y, z'
loop_
 _atom_site_type_symbol
 _atom_site_label
 _atom_site_symmetry_multiplicity
 _atom_site_fract_x
 _atom_site_fract_y
 _atom_site_fract_z
 _atom_site_occupancy
  Na  Na0  1  0.55850200  0.75000000  0.41066700  1
  Na  Na1  1  0.55850200  0.25000000  0.08933300  1
  Na  Na2  1  0.44149800  0.25000000  0.58933300  1
  Na  Na3  1  0.44149800  0.75000000  0.91066700  1
  Na  Na4  1  0.42406900  0.50000000  0.25000000  1
  Na  Na5  1  0.57593100  0.00000000  0.75000000  1
  Na  Na6  1  0.86607900  0.49425000  0.58538100  1
  Na  Na7  1  0.86607900  0.50575000  0.91461900  1
  Na  Na8  1  0.13392100  0.99425000  0.41461900  1
  Na  Na9  1  0.13392100  0.00575000  0.08538100  1
  Na  Na10  1  0.13392100  0.50575000  0.41461900  1
  Na  Na11  1  0.13392100  0.49425000  0.08538100  1
  Na  Na12  1  0.86607900  0.00575000  0.58538100  1
  Na  Na13  1  0.86607900  0.99425000  0.91461900  1
  Na  Na14  1  0.08674400  0.75000000  0.76993000  1
  Na  Na15  1  0.08674400  0.25000000  0.73007000  1
  Na  Na16  1  0.91325600  0.25000000  0.23007000  1
  Na  Na17  1  0.91325600  0.75000000  0.26993000  1
  Na  Na18  1  0.57593100  0.50000000  0.75000000  1
  Na  Na19  1  0.42406900  0.00000000  0.25000000  1
  As  As0  1  0.30662200  0.75000000  0.59594000  1
  As  As1  1  0.30662200  0.25000000  0.90406000  1
  As  As2  1  0.69337800  0.25000000  0.40406000  1
  As  As3  1  0.69337800  0.75000000  0.09594000  1
  O  O0  1  0.42701200  0.75000000  0.05817300  1
  O  O1  1  0.42701200  0.25000000  0.44182700  1
  O  O2  1  0.57298800  0.25000000  0.94182700  1
  O  O3  1  0.57298800  0.75000000  0.55817300  1
  O  O4  1  0.74371700  0.25000000  0.67585300  1
  O  O5  1  0.74371700  0.75000000  0.82414700  1
  O  O6  1  0.11071500  0.75000000  0.52012100  1
  O  O7  1  0.11071500  0.25000000  0.97987900  1
  O  O8  1  0.88928500  0.25000000  0.47987900  1
  O  O9  1  0.88928500  0.75000000  0.02012100  1
  O  O10  1  0.74433000  0.46471500  0.34505000  1
  O  O11  1  0.74433000  0.53528500  0.15495000  1
  O  O12  1  0.25567000  0.96471500  0.65495000  1
  O  O13  1  0.25567000  0.03528500  0.84505000  1
  O  O14  1  0.25567000  0.53528500  0.65495000  1
  O  O15  1  0.25567000  0.46471500  0.84505000  1
  O  O16  1  0.74433000  0.03528500  0.34505000  1
  O  O17  1  0.74433000  0.96471500  0.15495000  1
  O  O18  1  0.25628300  0.75000000  0.32414700  1
  O  O19  1  0.25628300  0.25000000  0.17585300  1
loop_
_geom_bond_atom_site_label_1
_geom_bond_atom_site_label_2
_geom_bond_distance
_geom_bond_site_symmetry_2
Na0 O18 2.323402 1_555
Na0 O10 2.427346 1_555
Na0 O16 2.427346 1_565
Na0 O3 2.454132 1_555
Na1 O19 2.323402 1_555
Na1 O17 2.427346 1_545
Na1 O11 2.427346 1_555
Na1 O2 2.454132 1_554
Na2 O4 2.323402 1_555
Na2 O14 2.427346 1_555
Na2 O12 2.427346 1_545
Na2 O1 2.454132 1_555
Na3 O5 2.323402 1_555
Na3 O15 2.427346 1_555
Na3 O13 2.427346 1_565
Na3 O0 2.454132 1_556
Na4 O18 2.278162 1_555
Na4 O19 2.278162 1_555
Na4 O11 2.507658 1_555
Na4 O10 2.507658 1_555
Na5 O5 2.278162 1_545
Na5 O4 2.278162 1_555
Na5 O12 2.507658 1_545
Na5 O13 2.507658 1_555
Na6 O4 2.309201 1_555
Na6 O8 2.370793 1_555
Na6 O3 2.470326 1_555
Na6 O6 2.475006 1_655
Na6 O14 2.634554 1_655
Na7 O5 2.309201 1_555
Na7 O9 2.370793 1_556
Na7 O2 2.470326 1_555
Na7 O7 2.475006 1_655
Na7 O15 2.634554 1_655
Na8 O18 2.309201 1_555
Na8 O6 2.370793 1_555
Na8 O1 2.470326 1_565
Na8 O8 2.475006 1_465
Na8 O16 2.634554 1_465
Na9 O19 2.309201 1_555
Na9 O7 2.370793 1_554
Na9 O0 2.470326 1_545
Na9 O9 2.475006 1_445
Na9 O17 2.634554 1_445
Na10 O18 2.309201 1_555
Na10 O6 2.370793 1_555
Na10 O1 2.470326 1_555
Na10 O8 2.475006 1_455
Na10 O10 2.634554 1_455
Na11 O19 2.309201 1_555
Na11 O7 2.370793 1_554
Na11 O0 2.470326 1_555
Na11 O9 2.475006 1_455
Na11 O11 2.634554 1_455
Na12 O4 2.309201 1_555
Na12 O8 2.370793 1_555
Na12 O3 2.470326 1_545
Na12 O6 2.475006 1_645
Na12 O12 2.634554 1_645
Na13 O5 2.309201 1_555
Na13 O9 2.370793 1_556
Na13 O2 2.470326 1_565
Na13 O7 2.475006 1_665
Na13 O13 2.634554 1_665
Na14 O5 2.258541 1_455
Na14 O13 2.458297 1_565
Na14 O15 2.458297 1_555
Na14 O14 2.577840 1_555
Na14 O12 2.577840 1_555
Na15 O4 2.258541 1_455
Na15 O12 2.458297 1_545
Na15 O14 2.458297 1_555
Na15 O15 2.577840 1_555
Na15 O13 2.577840 1_555
Na16 O19 2.258541 1_655
Na16 O17 2.458297 1_545
Na16 O11 2.458297 1_555
Na16 O10 2.577840 1_555
Na16 O16 2.577840 1_555
Na17 O18 2.258541 1_655
Na17 O16 2.458297 1_565
Na17 O10 2.458297 1_555
Na17 O17 2.577840 1_555
Na17 O11 2.577840 1_555
Na18 O5 2.278162 1_555
Na18 O4 2.278162 1_555
Na18 O14 2.507658 1_555
Na18 O15 2.507658 1_555
Na19 O18 2.278162 1_545
Na19 O19 2.278162 1_555
Na19 O16 2.507658 1_555
Na19 O17 2.507658 1_545
As0 O3 1.726300 1_555
As0 O6 1.728567 1_555
As0 O14 1.734273 1_555
As0 O12 1.734273 1_555
As1 O2 1.726300 1_555
As1 O7 1.728567 1_555
As1 O15 1.734273 1_555
As1 O13 1.734273 1_555
As2 O1 1.726300 1_555
As2 O8 1.728567 1_555
As2 O16 1.734273 1_555
As2 O10 1.734273 1_555
As3 O0 1.726300 1_555
As3 O9 1.728567 1_555
As3 O11 1.734273 1_555
As3 O17 1.734273 1_555
