# generated using pymatgen
data_RbCaMg14
_symmetry_space_group_name_H-M   'P 1'
_cell_length_a   6.75212310
_cell_length_b   6.75212249
_cell_length_c   10.63211122
_cell_angle_alpha   90.00000000
_cell_angle_beta   90.00000000
_cell_angle_gamma   120.00000299
_symmetry_Int_Tables_number   1
_chemical_formula_structural   RbCaMg14
_chemical_formula_sum   'Rb1 Ca1 Mg14'
_cell_volume   419.78874772
_cell_formula_units_Z   1
loop_
 _symmetry_equiv_pos_site_id
 _symmetry_equiv_pos_as_xyz
  1  'x, y, z'
loop_
 _atom_site_type_symbol
 _atom_site_label
 _atom_site_symmetry_multiplicity
 _atom_site_fract_x
 _atom_site_fract_y
 _atom_site_fract_z
 _atom_site_occupancy
  Rb  Rb0  1  0.16666700  0.33333300  0.62500000  1
  Ca  Ca0  1  0.16666700  0.33333300  0.12500000  1
  Mg  Mg0  1  0.17204676  0.83602288  0.12500000  1
  Mg  Mg1  1  0.17066270  0.83533085  0.62500000  1
  Mg  Mg2  1  0.66397712  0.32795324  0.12500000  1
  Mg  Mg3  1  0.66466915  0.32933730  0.62500000  1
  Mg  Mg4  1  0.66397712  0.83602288  0.12500000  1
  Mg  Mg5  1  0.66466915  0.83533085  0.62500000  1
  Mg  Mg6  1  0.34094709  0.15905291  0.36869227  1
  Mg  Mg7  1  0.34094709  0.15905291  0.88130773  1
  Mg  Mg8  1  0.34094709  0.68189518  0.36869227  1
  Mg  Mg9  1  0.34094709  0.68189518  0.88130773  1
  Mg  Mg10  1  0.81810482  0.15905291  0.36869227  1
  Mg  Mg11  1  0.81810482  0.15905291  0.88130773  1
  Mg  Mg12  1  0.83333300  0.66666700  0.37539706  1
  Mg  Mg13  1  0.83333300  0.66666700  0.87460294  1
loop_
_geom_bond_atom_site_label_1
_geom_bond_atom_site_label_2
_geom_bond_distance
_geom_bond_site_symmetry_2
Ca0 Mg6 3.296572 1_555
Ca0 Mg7 3.296572 1_554
Ca0 Mg8 3.296579 1_555
Ca0 Mg9 3.296579 1_554
Ca0 Mg10 3.296579 1_455
Ca0 Mg11 3.296579 1_454
Ca0 Mg4 3.376208 1_555
Ca0 Mg0 3.376208 1_555
Ca0 Mg0 3.376208 1_545
Ca0 Mg4 3.376208 1_445
Ca0 Mg2 3.376208 1_555
Ca0 Mg2 3.376208 1_455
Mg0 Mg8 3.206799 1_555
Mg0 Mg9 3.206799 1_554
Mg0 Mg7 3.206805 1_564
Mg0 Mg6 3.206805 1_565
Mg0 Mg13 3.318204 1_454
Mg0 Mg12 3.318204 1_455
Mg0 Mg2 3.321574 1_565
Mg0 Mg4 3.321574 1_555
Mg0 Mg2 3.430548 1_455
Mg0 Mg4 3.430549 1_455
Mg1 Mg12 3.306599 1_455
Mg1 Mg13 3.306599 1_455
Mg1 Mg9 3.318531 1_555
Mg1 Mg8 3.318531 1_555
Mg1 Mg7 3.318537 1_565
Mg1 Mg6 3.318537 1_565
Mg1 Mg3 3.335592 1_565
Mg1 Mg5 3.335592 1_555
Mg1 Rb0 3.376142 1_555
Mg1 Rb0 3.376142 1_565
Mg1 Mg3 3.416530 1_455
Mg1 Mg5 3.416531 1_455
Mg2 Mg6 3.206805 1_555
Mg2 Mg7 3.206805 1_554
Mg2 Mg4 3.321574 1_545
Mg2 Mg4 3.430548 1_555
Mg3 Mg6 3.318537 1_555
Mg3 Mg7 3.318537 1_555
Mg3 Mg5 3.335592 1_545
Mg3 Rb0 3.376142 1_655
Mg3 Rb0 3.376142 1_555
Mg3 Mg5 3.416530 1_555
Mg4 Mg8 3.206806 1_555
Mg4 Mg9 3.206806 1_554
Mg5 Mg9 3.318538 1_555
Mg5 Mg8 3.318538 1_555
Mg5 Rb0 3.376142 1_555
Mg5 Rb0 3.376142 1_665
Mg6 Rb0 3.403002 1_555
Mg7 Rb0 3.403002 1_555
Mg8 Rb0 3.403009 1_555
Mg9 Rb0 3.403009 1_555
Mg10 Mg2 3.206799 1_555
Mg10 Mg4 3.206806 1_545
Mg10 Mg3 3.318531 1_555
Mg10 Mg5 3.318538 1_545
Mg10 Mg12 3.377988 1_555
Mg10 Mg12 3.377988 1_545
Mg10 Rb0 3.403009 1_655
Mg11 Mg2 3.206799 1_556
Mg11 Mg4 3.206806 1_546
Mg11 Mg3 3.318531 1_555
Mg11 Mg5 3.318538 1_545
Mg11 Mg13 3.377988 1_555
Mg11 Mg13 3.377988 1_545
Mg11 Rb0 3.403009 1_655
Mg12 Mg5 3.306592 1_555
Mg12 Mg3 3.306599 1_555
Mg12 Mg4 3.318197 1_555
Mg12 Mg2 3.318204 1_555
Mg12 Mg6 3.377988 1_555
Mg12 Mg6 3.377988 1_665
Mg12 Mg8 3.377988 1_555
Mg12 Mg8 3.377988 1_655
Mg13 Mg5 3.306592 1_555
Mg13 Mg3 3.306599 1_555
Mg13 Mg4 3.318197 1_556
Mg13 Mg2 3.318204 1_556
Mg13 Mg7 3.377988 1_555
Mg13 Mg7 3.377988 1_665
Mg13 Mg9 3.377988 1_655
Mg13 Mg9 3.377988 1_555
