# generated using pymatgen
data_Ba2LiLaCu3O7
_symmetry_space_group_name_H-M   'P 1'
_cell_length_a   3.98807700
_cell_length_b   3.98813900
_cell_length_c   13.16543600
_cell_angle_alpha   90.00000000
_cell_angle_beta   90.00000000
_cell_angle_gamma   90.00000000
_symmetry_Int_Tables_number   1
_chemical_formula_structural   Ba2LiLaCu3O7
_chemical_formula_sum   'Ba2 Li1 La1 Cu3 O7'
_cell_volume   209.39633092
_cell_formula_units_Z   1
loop_
 _symmetry_equiv_pos_site_id
 _symmetry_equiv_pos_as_xyz
  1  'x, y, z'
loop_
 _atom_site_type_symbol
 _atom_site_label
 _atom_site_symmetry_multiplicity
 _atom_site_fract_x
 _atom_site_fract_y
 _atom_site_fract_z
 _atom_site_occupancy
  Ba  Ba0  1  0.50000000  0.50000000  0.83070600  1
  Ba  Ba1  1  0.50000000  0.50000000  0.11856300  1
  Li  Li0  1  0.50000000  0.50000000  0.33703900  1
  La  La0  1  0.50000000  0.50000000  0.53593000  1
  Cu  Cu0  1  0.00000000  0.00000000  0.66657900  1
  Cu  Cu1  1  0.00000000  0.00000000  0.36625300  1
  Cu  Cu2  1  0.00000000  0.00000000  0.97670200  1
  O  O0  1  0.50000000  0.00000000  0.63263300  1
  O  O1  1  0.00000000  0.50000000  0.63262900  1
  O  O2  1  0.50000000  0.00000000  0.37309500  1
  O  O3  1  0.00000000  0.50000000  0.37309800  1
  O  O4  1  0.00000000  0.50000000  0.00197700  1
  O  O5  1  0.50000000  0.00000000  0.00197400  1
  O  O6  1  0.00000000  0.00000000  0.81971000  1
loop_
_geom_bond_atom_site_label_1
_geom_bond_atom_site_label_2
_geom_bond_distance
_geom_bond_site_symmetry_2
Ba0 O6 2.823732 1_565
Ba0 O6 2.823732 1_655
Ba0 O6 2.823732 1_665
Ba0 O6 2.823732 1_555
Ba0 O5 3.010069 1_566
Ba0 O5 3.010069 1_556
Ba0 O4 3.010078 1_656
Ba0 O4 3.010078 1_556
Ba0 O0 3.282758 1_555
Ba0 O0 3.282758 1_565
Ba0 O1 3.282781 1_655
Ba0 O1 3.282781 1_555
Ba1 O4 2.516371 1_555
Ba1 O4 2.516371 1_655
Ba1 O5 2.516420 1_565
Ba1 O5 2.516420 1_555
Li0 O3 2.049771 1_655
Li0 O3 2.049771 1_555
Li0 O2 2.049792 1_565
Li0 O2 2.049792 1_555
La0 O1 2.365784 1_555
La0 O1 2.365784 1_655
La0 O0 2.365838 1_555
La0 O0 2.365838 1_565
Cu0 O6 2.016036 1_555
Cu0 O0 2.043507 1_455
Cu0 O0 2.043507 1_555
Cu0 O1 2.043549 1_545
Cu0 O1 2.043549 1_555
Cu1 O2 1.996072 1_555
Cu1 O2 1.996072 1_455
Cu1 O3 1.996105 1_555
Cu1 O3 1.996105 1_545
Cu2 O5 2.021606 1_556
Cu2 O5 2.021606 1_456
Cu2 O4 2.021643 1_546
Cu2 O4 2.021643 1_556
Cu2 O6 2.066868 1_555
