# generated using pymatgen
data_Li9Mn2Co5O16
_symmetry_space_group_name_H-M   'P 1'
_cell_length_a   5.78585600
_cell_length_b   5.86589773
_cell_length_c   9.77731491
_cell_angle_alpha   80.56136092
_cell_angle_beta   81.33618257
_cell_angle_gamma   60.44671528
_symmetry_Int_Tables_number   1
_chemical_formula_structural   Li9Mn2Co5O16
_chemical_formula_sum   'Li9 Mn2 Co5 O16'
_cell_volume   283.81187173
_cell_formula_units_Z   1
loop_
 _symmetry_equiv_pos_site_id
 _symmetry_equiv_pos_as_xyz
  1  'x, y, z'
loop_
 _atom_site_type_symbol
 _atom_site_label
 _atom_site_symmetry_multiplicity
 _atom_site_fract_x
 _atom_site_fract_y
 _atom_site_fract_z
 _atom_site_occupancy
  Li  Li0  1  0.25109300  0.12475300  0.24411500  1
  Li  Li1  1  0.24795900  0.37779500  0.75224400  1
  Li  Li2  1  0.24861700  0.62490400  0.24496200  1
  Li  Li3  1  0.75302000  0.62084100  0.24790100  1
  Li  Li4  1  0.74930200  0.87462000  0.75489100  1
  Li  Li5  1  0.75383100  0.13197300  0.24444700  1
  Li  Li6  1  0.24520200  0.86822200  0.75518000  1
  Li  Li7  1  0.74977900  0.37508500  0.75583500  1
  Li  Li8  1  0.99988000  0.50002200  0.00000900  1
  Mn  Mn0  1  0.00070900  0.00016500  0.99954000  1
  Mn  Mn1  1  0.50053700  0.75050600  0.50006300  1
  Co  Co0  1  0.00022600  0.25021300  0.49929700  1
  Co  Co1  1  0.00002900  0.74984100  0.50059300  1
  Co  Co2  1  0.50015800  0.49994900  0.00004200  1
  Co  Co3  1  0.50004200  0.99969000  0.00016600  1
  Co  Co4  1  0.49946500  0.24948300  0.49996500  1
  O  O0  1  0.14105700  0.83331900  0.11155200  1
  O  O1  1  0.13724200  0.08376800  0.61620100  1
  O  O2  1  0.14018300  0.30365500  0.10739400  1
  O  O3  1  0.60569900  0.29757000  0.10290200  1
  O  O4  1  0.61545300  0.56603400  0.61718500  1
  O  O5  1  0.64470500  0.84440800  0.11594800  1
  O  O6  1  0.14097400  0.56609100  0.61866800  1
  O  O7  1  0.61857700  0.04422300  0.61379700  1
  O  O8  1  0.38265000  0.45714000  0.38434300  1
  O  O9  1  0.39367600  0.70293500  0.89875500  1
  O  O10  1  0.38361500  0.93251500  0.38459100  1
  O  O11  1  0.85734900  0.93227500  0.38400400  1
  O  O12  1  0.85714100  0.16643200  0.88940700  1
  O  O13  1  0.86406800  0.41953600  0.38096500  1
  O  O14  1  0.35707200  0.15603400  0.88300800  1
  O  O15  1  0.86069000  0.69600100  0.89203000  1
loop_
_geom_bond_atom_site_label_1
_geom_bond_atom_site_label_2
_geom_bond_distance
_geom_bond_site_symmetry_2
Li0 O2 1.560140 1_555
Li0 O10 1.643872 1_545
Li1 O6 1.550740 1_555
Li1 O14 1.616447 1_555
Li2 O8 1.597711 1_555
Li2 O0 1.598233 1_555
Li3 O13 1.580933 1_555
Li3 O5 1.629410 1_555
Li4 O15 1.563483 1_555
Li4 O7 1.608366 1_565
Li5 O11 1.619455 1_545
Li5 O3 1.639686 1_555
Li6 O9 1.656468 1_555
Li6 O1 1.657826 1_565
Li7 O12 1.599879 1_555
Li7 O4 1.630031 1_555
Li8 O2 1.423328 1_655
Li8 O15 1.424617 1_554
Mn0 O12 1.388010 1_455
Mn0 O0 1.396089 1_546
Mn1 O10 1.412248 1_555
Mn1 O4 1.427438 1_555
Co0 O1 1.425351 1_555
Co0 O13 1.439281 1_455
Co1 O11 1.462212 1_455
Co1 O6 1.472411 1_555
Co2 O9 1.360686 1_554
Co2 O3 1.368186 1_555
Co3 O5 1.416667 1_555
Co3 O14 1.424796 1_564
Co4 O7 1.461633 1_555
Co4 O8 1.478156 1_555
