# generated using pymatgen
data_Re4Si7
_symmetry_space_group_name_H-M   'P 1'
_cell_length_a   3.15195416
_cell_length_b   3.15195416
_cell_length_c   15.71027688
_cell_angle_alpha   89.94236705
_cell_angle_beta   89.94236705
_cell_angle_gamma   89.95676019
_symmetry_Int_Tables_number   1
_chemical_formula_structural   Re4Si7
_chemical_formula_sum   'Re4 Si7'
_cell_volume   156.07849235
_cell_formula_units_Z   1
loop_
 _symmetry_equiv_pos_site_id
 _symmetry_equiv_pos_as_xyz
  1  'x, y, z'
loop_
 _atom_site_type_symbol
 _atom_site_label
 _atom_site_symmetry_multiplicity
 _atom_site_fract_x
 _atom_site_fract_y
 _atom_site_fract_z
 _atom_site_occupancy
  Re  Re0  1  0.49302000  0.49302000  0.24570700  1
  Re  Re1  1  0.50000400  0.50000400  0.73574100  1
  Re  Re2  1  0.99805000  0.99805000  0.99902400  1
  Re  Re3  1  0.99267900  0.99267900  0.49066600  1
  Si  Si0  1  0.99680100  0.99680100  0.15358500  1
  Si  Si1  1  0.99688800  0.99688800  0.66437700  1
  Si  Si2  1  0.49812700  0.49812700  0.06296500  1
  Si  Si3  1  0.49508800  0.49508800  0.57889700  1
  Si  Si4  1  0.99150900  0.99150900  0.32435500  1
  Si  Si5  1  0.96466900  0.96466900  0.84136800  1
  Si  Si6  1  0.49170600  0.49170600  0.40921500  1
loop_
_geom_bond_atom_site_label_1
_geom_bond_atom_site_label_2
_geom_bond_distance
_geom_bond_site_symmetry_2
Re0 Si4 2.544726 1_555
Re0 Si4 2.547615 1_545
Re0 Si4 2.547615 1_455
Re0 Si4 2.553439 1_445
Re0 Si6 2.568754 1_555
Re0 Si0 2.645738 1_445
Re0 Si0 2.656773 1_455
Re0 Si0 2.656773 1_545
Re0 Si0 2.670570 1_555
Re0 Si2 2.870985 1_555
Re1 Si3 2.464191 1_555
Re1 Si1 2.481793 1_555
Re1 Si1 2.494167 1_545
Re1 Si1 2.494167 1_455
Re1 Si1 2.509469 1_445
Re1 Si5 2.656472 1_555
Re1 Si5 2.782346 1_545
Re1 Si5 2.782346 1_455
Re1 Si5 2.905348 1_445
Re2 Si0 2.428195 1_556
Re2 Si2 2.443837 1_556
Re2 Si2 2.443919 1_656
Re2 Si2 2.443919 1_566
Re2 Si2 2.447068 1_666
Re2 Si5 2.481500 1_555
Re3 Si6 2.565375 1_665
Re3 Si6 2.569264 1_565
Re3 Si6 2.569264 1_655
Re3 Si6 2.576058 1_555
Re3 Si4 2.612804 1_555
Re3 Si3 2.614572 1_555
Re3 Si3 2.623963 1_655
Re3 Si3 2.623963 1_565
Re3 Si3 2.636166 1_665
Re3 Si1 2.729139 1_555
Si0 Si2 2.642092 1_555
Si0 Si2 2.643954 1_565
Si0 Si2 2.643954 1_655
Si0 Si2 2.648647 1_665
Si0 Si4 2.682914 1_555
Si1 Si3 2.594294 1_665
Si1 Si3 2.601379 1_565
Si1 Si3 2.601379 1_655
Si1 Si3 2.611317 1_555
Si1 Si5 2.784083 1_555
Si3 Si6 2.665815 1_555
Si4 Si6 2.595408 1_555
Si4 Si6 2.596347 1_655
Si4 Si6 2.596347 1_565
Si4 Si6 2.600170 1_665
