# generated using pymatgen
data_BaSrI4
_symmetry_space_group_name_H-M   'P 1'
_cell_length_a   8.21874000
_cell_length_b   8.39143300
_cell_length_c   16.71952700
_cell_angle_alpha   90.00000000
_cell_angle_beta   90.00000000
_cell_angle_gamma   90.00000000
_symmetry_Int_Tables_number   1
_chemical_formula_structural   BaSrI4
_chemical_formula_sum   'Ba4 Sr4 I16'
_cell_volume   1153.09571984
_cell_formula_units_Z   4
loop_
 _symmetry_equiv_pos_site_id
 _symmetry_equiv_pos_as_xyz
  1  'x, y, z'
loop_
 _atom_site_type_symbol
 _atom_site_label
 _atom_site_symmetry_multiplicity
 _atom_site_fract_x
 _atom_site_fract_y
 _atom_site_fract_z
 _atom_site_occupancy
  Ba  Ba0  1  0.30092600  0.73906900  0.00600100  1
  Ba  Ba1  1  0.80092600  0.23906900  0.49399900  1
  Ba  Ba2  1  0.30092600  0.76093100  0.50600100  1
  Ba  Ba3  1  0.80092600  0.26093100  0.99399900  1
  Sr  Sr0  1  0.31505000  0.19563600  0.24600800  1
  Sr  Sr1  1  0.81505000  0.69563600  0.25399200  1
  Sr  Sr2  1  0.31505000  0.30436400  0.74600800  1
  Sr  Sr3  1  0.81505000  0.80436400  0.75399200  1
  I  I0  1  0.54093600  0.02603400  0.10856000  1
  I  I1  1  0.04622600  0.94373100  0.14441500  1
  I  I2  1  0.58381500  0.52552200  0.11620800  1
  I  I3  1  0.07584700  0.44352500  0.14191100  1
  I  I4  1  0.57584700  0.94352500  0.35808900  1
  I  I5  1  0.08381500  0.02552200  0.38379200  1
  I  I6  1  0.54622600  0.44373100  0.35558500  1
  I  I7  1  0.04093600  0.52603400  0.39144000  1
  I  I8  1  0.54093600  0.47396600  0.60856000  1
  I  I9  1  0.04622600  0.55626900  0.64441500  1
  I  I10  1  0.58381500  0.97447800  0.61620800  1
  I  I11  1  0.07584700  0.05647500  0.64191100  1
  I  I12  1  0.57584700  0.55647500  0.85808900  1
  I  I13  1  0.08381500  0.47447800  0.88379200  1
  I  I14  1  0.54622600  0.05626900  0.85558500  1
  I  I15  1  0.04093600  0.97396600  0.89144000  1
loop_
_geom_bond_atom_site_label_1
_geom_bond_atom_site_label_2
_geom_bond_distance
_geom_bond_site_symmetry_2
Ba0 I2 3.465823 1_555
Ba0 I15 3.481375 1_554
Ba0 I13 3.505526 1_554
Ba0 I0 3.553884 1_565
Ba0 I1 3.561888 1_555
Ba0 I12 3.683598 1_554
Ba0 I3 3.838772 1_555
Ba0 I14 4.180204 1_564
Ba1 I5 3.465823 1_655
Ba1 I8 3.481375 1_555
Ba1 I10 3.505526 1_545
Ba1 I7 3.553884 1_655
Ba1 I6 3.561888 1_555
Ba1 I11 3.683598 1_655
Ba1 I4 3.838772 1_545
Ba1 I9 4.180204 1_655
Ba2 I10 3.465823 1_555
Ba2 I7 3.481375 1_555
Ba2 I5 3.505526 1_565
Ba2 I8 3.553884 1_555
Ba2 I9 3.561888 1_555
Ba2 I4 3.683598 1_555
Ba2 I11 3.838772 1_565
Ba2 I6 4.180204 1_555
Ba3 I13 3.465823 1_655
Ba3 I0 3.481375 1_556
Ba3 I2 3.505526 1_556
Ba3 I15 3.553884 1_645
Ba3 I14 3.561888 1_555
Ba3 I3 3.683598 1_656
Ba3 I12 3.838772 1_555
Ba3 I1 4.180204 1_646
I0 Sr0 3.279207 1_555
I1 Sr1 3.361637 1_455
I1 Sr0 3.497850 1_565
I2 Sr1 3.310055 1_555
I3 Sr0 3.349794 1_555
I3 Sr1 3.547050 1_455
I4 Sr1 3.349794 1_555
I4 Sr0 3.547050 1_565
I5 Sr0 3.310055 1_555
I6 Sr0 3.361637 1_555
I6 Sr1 3.497850 1_555
I7 Sr1 3.279207 1_455
I8 Sr2 3.279207 1_555
I9 Sr3 3.361637 1_455
I9 Sr2 3.497850 1_555
I10 Sr3 3.310055 1_555
I11 Sr2 3.349794 1_555
I11 Sr3 3.547050 1_445
I12 Sr3 3.349794 1_555
I12 Sr2 3.547050 1_555
I13 Sr2 3.310055 1_555
I14 Sr2 3.361637 1_555
I14 Sr3 3.497850 1_545
I15 Sr3 3.279207 1_455
