# generated using pymatgen
data_Cu5SeCl5O4
_symmetry_space_group_name_H-M   'P 1'
_cell_length_a   6.32074500
_cell_length_b   9.41456308
_cell_length_c   9.66131897
_cell_angle_alpha   91.55061716
_cell_angle_beta   90.00000000
_cell_angle_gamma   90.00000000
_symmetry_Int_Tables_number   1
_chemical_formula_structural   Cu5SeCl5O4
_chemical_formula_sum   'Cu10 Se2 Cl10 O8'
_cell_volume   574.70608618
_cell_formula_units_Z   2
loop_
 _symmetry_equiv_pos_site_id
 _symmetry_equiv_pos_as_xyz
  1  'x, y, z'
loop_
 _atom_site_type_symbol
 _atom_site_label
 _atom_site_symmetry_multiplicity
 _atom_site_fract_x
 _atom_site_fract_y
 _atom_site_fract_z
 _atom_site_occupancy
  Cu  Cu0  1  0.25054400  0.12516800  0.98588200  1
  Cu  Cu1  1  0.75054400  0.87483200  0.01411800  1
  Cu  Cu2  1  0.25184000  0.71663700  0.50406700  1
  Cu  Cu3  1  0.75184000  0.28336300  0.49593300  1
  Cu  Cu4  1  0.25036600  0.89302300  0.22674400  1
  Cu  Cu5  1  0.75036600  0.10697700  0.77325600  1
  Cu  Cu6  1  0.50018800  0.00015100  0.50014900  1
  Cu  Cu7  1  0.00018800  0.99984900  0.49985100  1
  Cu  Cu8  1  0.38512800  0.40869100  0.79169900  1
  Cu  Cu9  1  0.88512800  0.59130900  0.20830100  1
  Se  Se0  1  0.75059400  0.75977300  0.68126800  1
  Se  Se1  1  0.25059400  0.24022700  0.31873200  1
  Cl  Cl0  1  0.24997200  0.50773100  0.60369600  1
  Cl  Cl1  1  0.74997200  0.49226900  0.39630400  1
  Cl  Cl2  1  0.25026100  0.87626400  0.99292900  1
  Cl  Cl3  1  0.75026100  0.12373600  0.00707100  1
  Cl  Cl4  1  0.25123200  0.12189700  0.75271200  1
  Cl  Cl5  1  0.75123200  0.87810300  0.24728800  1
  Cl  Cl6  1  0.23574500  0.64620100  0.25907300  1
  Cl  Cl7  1  0.73574500  0.35379900  0.74092700  1
  Cl  Cl8  1  0.25398400  0.36920900  0.99946100  1
  Cl  Cl9  1  0.75398400  0.63079100  0.00053900  1
  O  O0  1  0.25052200  0.91023400  0.42680000  1
  O  O1  1  0.75052200  0.08976600  0.57320000  1
  O  O2  1  0.75000900  0.89660900  0.80878800  1
  O  O3  1  0.25000900  0.10339100  0.19121200  1
  O  O4  1  0.53570000  0.81327400  0.58199500  1
  O  O5  1  0.03570000  0.18672600  0.41800500  1
  O  O6  1  0.46511600  0.18703000  0.41812200  1
  O  O7  1  0.96511600  0.81297000  0.58187800  1
loop_
_geom_bond_atom_site_label_1
_geom_bond_atom_site_label_2
_geom_bond_distance
_geom_bond_site_symmetry_2
Cu0 O3 1.999839 1_556
Cu1 O2 1.999839 1_554
Cu2 O0 1.988204 1_555
Cu2 O4 2.139316 1_555
Cu2 O7 2.152959 1_455
Cu3 O1 1.988204 1_555
Cu3 O5 2.139316 1_655
Cu3 O6 2.152959 1_555
Cu4 O0 1.935211 1_555
Cu4 O3 2.019187 1_565
Cu5 O1 1.935211 1_555
Cu5 O2 2.019187 1_545
Cu6 O0 1.917459 1_545
Cu6 O1 1.918686 1_555
Cu6 O4 1.961202 1_545
Cu6 O6 1.961651 1_555
Cu7 O1 1.917459 1_465
Cu7 O0 1.918686 1_555
Cu7 O5 1.961202 1_565
Cu7 O7 1.961651 1_455
Cl0 Cu2 2.212969 1_555
Cl0 Cu8 2.233835 1_555
Cl1 Cu3 2.212969 1_555
Cl1 Cu9 2.233835 1_555
Cl2 Cu4 2.260202 1_556
Cl2 Cu0 2.346153 1_565
Cl3 Cu5 2.260202 1_554
Cl3 Cu1 2.346153 1_545
Cl4 Cu0 2.252111 1_555
Cl4 Cu8 2.844875 1_555
Cl5 Cu1 2.252111 1_555
Cl5 Cu9 2.844875 1_555
Cl6 Cu9 2.324936 1_455
Cl6 Cu4 2.354795 1_555
Cl6 Cu2 2.442880 1_555
Cl7 Cu8 2.324936 1_555
Cl7 Cu5 2.354795 1_555
Cl7 Cu3 2.442880 1_555
Cl8 Cu8 2.212406 1_555
Cl8 Cu0 2.297838 1_555
Cl9 Cu9 2.212406 1_555
Cl9 Cu1 2.297838 1_555
O2 Se0 1.758283 1_555
O3 Se1 1.758283 1_555
O4 Se0 1.744903 1_555
O5 Se1 1.744903 1_555
O6 Se1 1.742837 1_555
O7 Se0 1.742837 1_555
