# generated using pymatgen
data_Ca6GaN5
_symmetry_space_group_name_H-M   'P 1'
_cell_length_a   6.30129471
_cell_length_b   6.30129412
_cell_length_c   12.16808912
_cell_angle_alpha   90.00000701
_cell_angle_beta   90.00003389
_cell_angle_gamma   119.99995384
_symmetry_Int_Tables_number   1
_chemical_formula_structural   Ca6GaN5
_chemical_formula_sum   'Ca12 Ga2 N10'
_cell_volume   418.42031163
_cell_formula_units_Z   2
loop_
 _symmetry_equiv_pos_site_id
 _symmetry_equiv_pos_as_xyz
  1  'x, y, z'
loop_
 _atom_site_type_symbol
 _atom_site_label
 _atom_site_symmetry_multiplicity
 _atom_site_fract_x
 _atom_site_fract_y
 _atom_site_fract_z
 _atom_site_occupancy
  Ca  Ca0  1  0.00000027  0.40931162  0.87715780  1
  Ca  Ca1  1  0.59068798  0.59068832  0.87715839  1
  Ca  Ca2  1  0.59068799  -0.00000014  0.12284196  1
  Ca  Ca3  1  0.40932097  0.00000047  0.62281672  1
  Ca  Ca4  1  0.40932023  0.40932101  0.37718334  1
  Ca  Ca5  1  0.59067894  -0.00000028  0.37718341  1
  Ca  Ca6  1  0.40931148  0.40931155  0.12284237  1
  Ca  Ca7  1  -0.00000003  0.59068834  0.12284216  1
  Ca  Ca8  1  0.00000034  0.40932114  0.62281650  1
  Ca  Ca9  1  0.59067900  0.59067859  0.62281676  1
  Ca  Ca10  1  0.40931185  0.00000054  0.87715790  1
  Ca  Ca11  1  -0.00000054  0.59067862  0.37718333  1
  Ga  Ga0  1  0.00000102  0.00000096  0.74995991  1
  Ga  Ga1  1  -0.00000111  -0.00000112  0.25004022  1
  N  N0  1  0.70358292  0.00000029  0.74997866  1
  N  N1  1  0.29641697  0.29641640  0.74997856  1
  N  N2  1  0.29641783  -0.00000006  0.25002141  1
  N  N3  1  0.66666630  0.33333327  0.49999992  1
  N  N4  1  0.33333313  0.66666688  0.00000011  1
  N  N5  1  0.33333310  0.66666678  0.49999985  1
  N  N6  1  0.66666689  0.33333373  0.00000015  1
  N  N7  1  0.70358319  0.70358244  0.25002218  1
  N  N8  1  0.00000027  0.29641761  0.25002146  1
  N  N9  1  0.00000001  0.70358304  0.74997793  1
loop_
_geom_bond_atom_site_label_1
_geom_bond_atom_site_label_2
_geom_bond_distance
_geom_bond_site_symmetry_2
Ca0 N9 2.415215 1_555
Ca0 N4 2.422748 1_556
Ca0 N6 2.422752 1_456
Ca0 N0 2.778191 1_455
Ca0 N1 2.778193 1_555
Ca1 N1 2.415215 1_555
Ca1 N6 2.422745 1_556
Ca1 N4 2.422745 1_556
Ca1 N0 2.778198 1_565
Ca1 N9 2.778204 1_655
Ca2 N2 2.415206 1_555
Ca2 N4 2.422745 1_545
Ca2 N6 2.422748 1_555
Ca2 N8 2.778198 1_655
Ca2 N7 2.778203 1_545
Ca3 N0 2.415029 1_555
Ca3 N3 2.422543 1_555
Ca3 N5 2.422546 1_545
Ca3 N1 2.778104 1_555
Ca3 N9 2.778108 1_545
Ca4 N7 2.415026 1_555
Ca4 N5 2.422540 1_555
Ca4 N3 2.422544 1_555
Ca4 N8 2.778105 1_555
Ca4 N2 2.778113 1_555
Ca5 N2 2.415025 1_555
Ca5 N5 2.422542 1_545
Ca5 N3 2.422543 1_555
Ca5 N7 2.778107 1_545
Ca5 N8 2.778115 1_655
Ca6 N7 2.415214 1_555
Ca6 N6 2.422749 1_555
Ca6 N4 2.422750 1_555
Ca6 N8 2.778192 1_555
Ca6 N2 2.778193 1_555
Ca7 N8 2.415208 1_555
Ca7 N6 2.422746 1_455
Ca7 N4 2.422748 1_555
Ca7 N2 2.778194 1_565
Ca7 N7 2.778195 1_455
Ca8 N9 2.415026 1_555
Ca8 N5 2.422543 1_555
Ca8 N3 2.422545 1_455
Ca8 N1 2.778111 1_555
Ca8 N0 2.778114 1_455
Ca9 N1 2.415031 1_555
Ca9 N3 2.422541 1_555
Ca9 N5 2.422547 1_555
Ca9 N9 2.778104 1_655
Ca9 N0 2.778113 1_565
Ca10 N0 2.415210 1_555
Ca10 N6 2.422749 1_556
Ca10 N4 2.422750 1_546
Ca10 N1 2.778188 1_555
Ca10 N9 2.778199 1_545
Ca11 N8 2.415026 1_555
Ca11 N5 2.422542 1_555
Ca11 N3 2.422543 1_455
Ca11 N7 2.778100 1_455
Ca11 N2 2.778115 1_565
Ga0 N1 1.867804 1_555
Ga0 N9 1.867813 1_545
Ga0 N0 1.867816 1_455
Ga1 N7 1.867806 1_445
Ga1 N8 1.867817 1_555
Ga1 N2 1.867820 1_555
