# generated using pymatgen
data_ZnS
_symmetry_space_group_name_H-M   'P 1'
_cell_length_a   13.91725089
_cell_length_b   13.52046042
_cell_length_c   12.45853008
_cell_angle_alpha   90.78487527
_cell_angle_beta   91.55615652
_cell_angle_gamma   88.88854967
_symmetry_Int_Tables_number   1
_chemical_formula_structural   ZnS
_chemical_formula_sum   'Zn50 S50'
_cell_volume   2342.78322147
_cell_formula_units_Z   50
loop_
 _symmetry_equiv_pos_site_id
 _symmetry_equiv_pos_as_xyz
  1  'x, y, z'
loop_
 _atom_site_type_symbol
 _atom_site_label
 _atom_site_symmetry_multiplicity
 _atom_site_fract_x
 _atom_site_fract_y
 _atom_site_fract_z
 _atom_site_occupancy
  Zn  Zn0  1  0.43914846  0.92699845  0.89536048  1
  Zn  Zn1  1  0.38365413  0.27283143  0.19073180  1
  Zn  Zn2  1  0.73965334  0.20139737  0.93494425  1
  Zn  Zn3  1  0.56619400  0.28001307  0.88052163  1
  Zn  Zn4  1  0.14688945  0.14960795  0.20289729  1
  Zn  Zn5  1  0.84302474  0.29005802  0.65158678  1
  Zn  Zn6  1  0.51052172  0.91395548  0.63442312  1
  Zn  Zn7  1  0.79332904  0.18435775  0.15035894  1
  Zn  Zn8  1  0.27766642  0.10552949  0.70407318  1
  Zn  Zn9  1  0.51522714  0.71754928  0.87076779  1
  Zn  Zn10  1  0.71794058  0.44081956  0.49409294  1
  Zn  Zn11  1  0.73392069  0.92694005  0.09049458  1
  Zn  Zn12  1  0.80371924  0.61957176  0.08898283  1
  Zn  Zn13  1  0.97622382  0.05139343  0.98875123  1
  Zn  Zn14  1  0.19284658  0.65574398  0.02763492  1
  Zn  Zn15  1  0.69343847  0.44952846  0.05169806  1
  Zn  Zn16  1  0.98110325  0.11411071  0.46161410  1
  Zn  Zn17  1  0.06149883  0.77239217  0.26620156  1
  Zn  Zn18  1  0.94799759  0.02422192  0.30369287  1
  Zn  Zn19  1  0.07173858  0.94186783  0.72023323  1
  Zn  Zn20  1  0.89364202  0.28719516  0.85272320  1
  Zn  Zn21  1  0.58664422  0.29818180  0.67836433  1
  Zn  Zn22  1  0.81857002  0.47010477  0.19939337  1
  Zn  Zn23  1  0.59429959  0.16594351  0.42055491  1
  Zn  Zn24  1  0.29070626  0.08274792  0.02232555  1
  Zn  Zn25  1  0.29129789  0.70856704  0.67505335  1
  Zn  Zn26  1  0.83519527  0.80894909  0.84013485  1
  Zn  Zn27  1  0.57351612  0.79117018  0.02955990  1
  Zn  Zn28  1  0.66970369  0.03812326  0.89702004  1
  Zn  Zn29  1  0.52242586  0.13859043  0.74584786  1
  Zn  Zn30  1  0.36443314  0.86822071  0.16810959  1
  Zn  Zn31  1  0.00281350  0.38860791  0.44181321  1
  Zn  Zn32  1  0.38690376  0.75274822  0.41191339  1
  Zn  Zn33  1  0.26471549  0.31023799  0.45280364  1
  Zn  Zn34  1  0.29614546  0.03232805  0.35995161  1
  Zn  Zn35  1  0.61105587  0.77181507  0.27882299  1
  Zn  Zn36  1  0.57597583  0.38389434  0.26419242  1
  Zn  Zn37  1  0.66082017  0.71239101  0.66394734  1
  Zn  Zn38  1  0.17387842  0.21822485  0.60332068  1
  Zn  Zn39  1  0.44721163  0.50210023  0.46714085  1
  Zn  Zn40  1  0.22283810  0.49352932  0.27642505  1
  Zn  Zn41  1  0.47177649  0.53530040  0.74309189  1
  Zn  Zn42  1  0.28939965  0.36594668  0.64427891  1
  Zn  Zn43  1  0.97795325  0.59682753  0.35365660  1
  Zn  Zn44  1  0.92876578  0.13486817  0.73654001  1
  Zn  Zn45  1  0.14290474  0.77346127  0.88999260  1
  Zn  Zn46  1  0.01449696  0.62215896  0.99168353  1
  Zn  Zn47  1  0.81410484  0.51169187  0.80378827  1
  Zn  Zn48  1  0.21254971  0.41119204  0.99468645  1
  Zn  Zn49  1  0.82679929  0.89407159  0.53441976  1
  S  S0  1  0.62829603  0.00886534  0.71454453  1
  S  S1  1  0.04904285  0.02142730  0.15571130  1
  S  S2  1  0.46100594  0.15878632  0.55246543  1
  S  S3  1  0.90691496  0.21043588  0.02181715  1
  S  S4  1  0.00847763  0.26203666  0.56021905  1
  S  S5  1  0.24002904  0.24625716  0.08582687  1
  S  S6  1  0.35194871  0.39754324  0.33536543  1
  S  S7  1  0.71244948  0.76380858  0.13737521  1
  S  S8  1  0.72942471  0.32898214  0.19308585  1
  S  S9  1  0.71960214  0.37980594  0.88454719  1
  S  S10  1  0.45556613  0.40668523  0.62748580  1
  S  S11  1  0.61730214  0.60061802  0.78573223  1
  S  S12  1  0.52958840  0.22107817  0.25824511  1
  S  S13  1  0.32543913  0.58124583  0.81816539  1
  S  S14  1  0.33144520  0.62894592  0.51202500  1
  S  S15  1  0.77601256  0.03699026  0.23445310  1
  S  S16  1  0.41997436  0.81327048  0.74490178  1
  S  S17  1  0.27464373  0.53435179  0.11066567  1
  S  S18  1  0.13265350  0.78237014  0.70930587  1
  S  S19  1  0.81102640  0.77320661  0.66506600  1
  S  S20  1  0.04167228  0.44949779  0.98870017  1
  S  S21  1  0.69451798  0.27010901  0.54278050  1
  S  S22  1  0.06647691  0.07801375  0.83611764  1
  S  S23  1  0.18970877  0.16571383  0.38627823  1
  S  S24  1  0.45462474  0.74140065  0.24555803  1
  S  S25  1  0.20691066  0.93194600  0.96216992  1
  S  S26  1  0.59645847  0.51192613  0.39004194  1
  S  S27  1  0.99797945  0.75596062  0.43490046  1
  S  S28  1  0.46575970  0.35010909  0.00904354  1
  S  S29  1  0.83507009  0.46341049  0.63141516  1
  S  S30  1  0.99052862  0.41925585  0.83335918  1
  S  S31  1  0.85995199  0.64851243  0.91190058  1
  S  S32  1  0.55675846  0.77263515  0.53148567  1
  S  S33  1  0.86618176  0.47195970  0.37444251  1
  S  S34  1  0.21664090  0.80875450  0.25609205  1
  S  S35  1  0.11495639  0.50608017  0.40789279  1
  S  S36  1  0.57009714  0.97149701  0.02509794  1
  S  S37  1  0.83432590  0.94862123  0.94399987  1
  S  S38  1  0.24179366  0.45366400  0.80394178  1
  S  S39  1  0.68043021  0.78690712  0.44090950  1
  S  S40  1  0.53058483  0.46738487  0.09322115  1
  S  S41  1  0.38366235  0.08850827  0.85310077  1
  S  S42  1  0.25186905  0.87102176  0.40574861  1
  S  S43  1  0.36427001  0.03438606  0.19012546  1
  S  S44  1  0.69644805  0.02694445  0.37367421  1
  S  S45  1  0.32236968  0.83109892  0.99029008  1
  S  S46  1  0.94130967  0.00386393  0.61328017  1
  S  S47  1  0.88842832  0.84808475  0.36649659  1
  S  S48  1  0.39258553  0.02301162  0.54556373  1
  S  S49  1  0.97096532  0.66169431  0.17006409  1
loop_
_geom_bond_atom_site_label_1
_geom_bond_atom_site_label_2
_geom_bond_distance
_geom_bond_site_symmetry_2
Zn16 Zn18 2.338211 1_555
Zn33 Zn38 2.629835 1_555
Zn38 Zn8 2.419131 1_555
Zn38 Zn42 2.624190 1_555
S0 Zn6 2.299420 1_545
S0 Zn29 2.304690 1_555
S0 Zn28 2.360058 1_555
S1 Zn4 2.285527 1_555
S1 Zn13 2.326069 1_454
S1 Zn18 2.348373 1_455
S2 S48 2.084009 1_555
S2 Zn23 2.515630 1_555
S2 Zn29 2.550860 1_555
S2 Zn21 2.994593 1_555
S3 Zn7 2.315700 1_555
S3 Zn20 2.362318 1_554
S3 Zn13 2.375056 1_554
S3 Zn2 2.544731 1_554
S4 Zn31 2.273430 1_555
S4 Zn16 2.364577 1_455
S4 Zn38 2.413871 1_555
S4 Zn5 2.614991 1_455
S5 Zn1 2.388685 1_555
S5 Zn4 2.394941 1_555
S5 Zn24 2.435674 1_555
S5 Zn48 2.533997 1_554
S6 Zn33 2.281960 1_555
S6 Zn40 2.305675 1_555
S6 Zn1 2.493160 1_555
S6 Zn39 2.518402 1_555
S7 Zn35 2.287433 1_555
S7 Zn11 2.316353 1_555
S7 Zn27 2.350445 1_555
S7 Zn12 2.386067 1_555
S8 Zn7 2.197184 1_555
S8 Zn22 2.295314 1_555
S8 Zn36 2.433097 1_555
S8 Zn15 2.451349 1_555
S9 Zn15 2.309099 1_556
S9 Zn47 2.476645 1_555
S9 Zn2 2.509284 1_555
S9 Zn3 2.546639 1_555
S9 Zn20 2.740948 1_555
S10 Zn41 2.253478 1_555
S10 Zn39 2.391774 1_555
S10 Zn21 2.395967 1_555
S10 Zn42 2.402923 1_555
S11 Zn37 2.258522 1_555
S11 Zn41 2.272032 1_555
S11 Zn9 2.364034 1_555
S11 Zn47 2.973926 1_555
S12 Zn1 2.278219 1_555
S12 Zn36 2.305705 1_555
S12 Zn23 2.317794 1_555
S13 S38 2.102473 1_555
S13 Zn41 2.333869 1_555
S13 Zn25 2.524765 1_555
S14 Zn32 2.261142 1_555
S14 Zn25 2.361105 1_555
S14 Zn39 2.401090 1_555
S15 S44 2.090375 1_555
S15 Zn7 2.283687 1_555
S15 Zn11 2.382734 1_545
S15 Zn18 2.525659 1_555
S16 Zn6 2.355368 1_555
S16 Zn9 2.401541 1_555
S16 Zn0 2.420559 1_555
S16 Zn25 2.438914 1_555
S17 Zn14 2.229320 1_555
S17 Zn40 2.284012 1_555
S17 Zn48 2.351495 1_554
S18 Zn45 2.256456 1_555
S18 Zn19 2.305420 1_555
S18 Zn25 2.450846 1_555
S19 Zn26 2.245319 1_555
S19 Zn37 2.260774 1_555
S19 Zn49 2.339680 1_555
S20 S30 2.081844 1_455
S20 Zn46 2.357595 1_555
S20 Zn48 2.423429 1_555
S21 Zn21 2.312869 1_555
S21 Zn10 2.424817 1_555
S21 Zn5 2.457933 1_555
S21 Zn23 2.479865 1_555
S22 Zn19 2.325051 1_545
S22 Zn13 2.342932 1_455
S22 Zn44 2.375500 1_455
S23 Zn34 2.336831 1_555
S23 Zn4 2.353649 1_555
S23 Zn33 2.362762 1_555
S23 Zn38 2.799656 1_555
S24 Zn35 2.249808 1_555
S24 Zn32 2.301963 1_555
S24 Zn30 2.311433 1_555
S25 S45 2.112207 1_555
S25 Zn24 2.466126 1_566
S25 Zn45 2.484229 1_555
S26 Zn10 2.305479 1_555
S26 Zn39 2.318883 1_555
S26 Zn36 2.335939 1_555
S27 S47 2.118274 1_555
S27 Zn17 2.317213 1_655
S27 Zn43 2.383200 1_555
S28 S40 2.094403 1_555
S28 Zn3 2.333317 1_554
S28 Zn1 2.787962 1_555
S29 Zn47 2.260824 1_555
S29 Zn10 2.351821 1_555
S29 Zn5 2.360804 1_555
S30 Zn20 2.277570 1_555
S30 Zn47 2.751504 1_555
S31 Zn47 2.360978 1_555
S31 Zn46 2.367472 1_655
S31 Zn26 2.372943 1_555
S31 Zn12 2.400445 1_556
S32 S39 2.096996 1_555
S32 Zn37 2.312047 1_555
S32 Zn6 2.374780 1_555
S32 Zn32 2.775244 1_555
S33 Zn22 2.261965 1_555
S33 Zn31 2.333765 1_655
S33 Zn43 2.339401 1_555
S33 Zn10 2.621776 1_555
S34 S42 2.085392 1_555
S34 Zn17 2.230953 1_555
S34 Zn30 2.507862 1_555
S35 Zn40 2.254288 1_555
S35 Zn31 2.299445 1_555
S35 Zn43 2.336554 1_455
S36 Zn28 2.342491 1_564
S36 Zn27 2.439009 1_555
S36 Zn11 2.466634 1_555
S36 Zn0 2.480269 1_554
S37 Zn26 2.274596 1_555
S37 Zn11 2.353433 1_556
S37 Zn13 2.483347 1_565
S37 Zn28 2.625841 1_565
S38 Zn42 2.403904 1_555
S38 Zn48 2.498329 1_555
S39 Zn35 2.223084 1_555
S39 Zn49 2.746913 1_555
S40 Zn15 2.345601 1_555
S40 Zn36 2.485069 1_555
S41 Zn8 2.350760 1_555
S41 Zn0 2.363471 1_545
S41 Zn29 2.487813 1_555
S41 Zn24 2.506222 1_556
S42 Zn34 2.359461 1_565
S42 Zn32 2.444138 1_555
S43 Zn30 2.259546 1_545
S43 Zn34 2.342608 1_555
S43 Zn24 2.396105 1_555
S44 Zn23 2.409443 1_555
S45 Zn30 2.326579 1_556
S45 Zn0 2.439158 1_555
S46 Zn44 2.335377 1_555
S46 Zn19 2.369240 1_645
S46 Zn49 2.382312 1_545
S46 Zn16 2.502985 1_555
S47 Zn49 2.353756 1_555
S47 Zn18 2.670904 1_565
S47 Zn17 2.905708 1_655
S48 Zn6 2.438413 1_545
S48 Zn34 2.645299 1_555
S48 Zn8 2.782887 1_555
S49 Zn17 2.281284 1_655
S49 Zn46 2.370585 1_654
S49 Zn43 2.459657 1_555
S49 Zn12 2.582725 1_555
