# generated using pymatgen
data_Ba(FeSe2)2
_symmetry_space_group_name_H-M   'P 1'
_cell_length_a   6.21308832
_cell_length_b   6.21308832
_cell_length_c   6.21308832
_cell_angle_alpha   100.41193295
_cell_angle_beta   100.41193295
_cell_angle_gamma   129.68393197
_symmetry_Int_Tables_number   1
_chemical_formula_structural   Ba(FeSe2)2
_chemical_formula_sum   'Ba1 Fe2 Se4'
_cell_volume   167.06701707
_cell_formula_units_Z   1
loop_
 _symmetry_equiv_pos_site_id
 _symmetry_equiv_pos_as_xyz
  1  'x, y, z'
loop_
 _atom_site_type_symbol
 _atom_site_label
 _atom_site_symmetry_multiplicity
 _atom_site_fract_x
 _atom_site_fract_y
 _atom_site_fract_z
 _atom_site_occupancy
  Ba  Ba0  1  0.50000000  0.50000000  0.00000000  1
  Fe  Fe0  1  0.75000000  0.25000000  0.50000000  1
  Fe  Fe1  1  0.25000000  0.75000000  0.50000000  1
  Se  Se0  1  0.30042600  0.11997400  0.42040000  1
  Se  Se1  1  0.69957400  0.88002600  0.57960000  1
  Se  Se2  1  0.88002600  0.30042600  0.18045200  1
  Se  Se3  1  0.11997400  0.69957400  0.81954800  1
loop_
_geom_bond_atom_site_label_1
_geom_bond_atom_site_label_2
_geom_bond_distance
_geom_bond_site_symmetry_2
Ba0 Se3 3.413822 1_554
Ba0 Se0 3.413822 1_554
Ba0 Se1 3.413822 1_555
Ba0 Se2 3.413822 1_555
Ba0 Se2 3.687235 1_565
Ba0 Se0 3.687235 1_665
Ba0 Se2 3.687235 1_455
Ba0 Se1 3.687235 1_554
Ba0 Se0 3.687235 1_555
Ba0 Se1 3.687235 1_444
Ba0 Se3 3.687235 1_654
Ba0 Se3 3.687235 1_544
Fe0 Se3 2.274611 1_655
Fe0 Se1 2.274611 1_545
Fe0 Se2 2.274611 1_555
Fe0 Se0 2.274611 1_555
Fe1 Se1 2.274611 1_555
Fe1 Se3 2.274611 1_555
Fe1 Se2 2.274611 1_455
Fe1 Se0 2.274611 1_565
