# generated using pymatgen
data_Ho2As7Rh12
_symmetry_space_group_name_H-M   'P 1'
_cell_length_a   9.88621176
_cell_length_b   9.88621986
_cell_length_c   3.89728300
_cell_angle_alpha   90.00030729
_cell_angle_beta   89.99974609
_cell_angle_gamma   120.00000001
_symmetry_Int_Tables_number   1
_chemical_formula_structural   Ho2As7Rh12
_chemical_formula_sum   'Ho2 As7 Rh12'
_cell_volume   329.87754064
_cell_formula_units_Z   1
loop_
 _symmetry_equiv_pos_site_id
 _symmetry_equiv_pos_as_xyz
  1  'x, y, z'
loop_
 _atom_site_type_symbol
 _atom_site_label
 _atom_site_symmetry_multiplicity
 _atom_site_fract_x
 _atom_site_fract_y
 _atom_site_fract_z
 _atom_site_occupancy
  Ho  Ho0  1  0.33329667  0.66666490  0.24801911  1
  Ho  Ho1  1  0.66663056  0.33332739  0.75198196  1
  As  As0  1  0.00003993  0.00000426  0.49999907  1
  As  As1  1  0.40588051  0.11820246  0.24925037  1
  As  As2  1  0.71229430  0.59408277  0.24921525  1
  As  As3  1  0.88180711  0.28769996  0.24922163  1
  As  As4  1  0.59408503  0.88180395  0.75079057  1
  As  As5  1  0.28767880  0.40587713  0.75075653  1
  As  As6  1  0.11820897  0.71231197  0.75076346  1
  Rh  Rh0  1  0.44864357  0.38132965  0.25082290  1
  Rh  Rh1  1  0.93272808  0.55134188  0.25082160  1
  Rh  Rh2  1  0.61858234  0.06731733  0.25082111  1
  Rh  Rh3  1  0.55128259  0.61857219  0.74917952  1
  Rh  Rh4  1  0.06732968  0.44869674  0.74918060  1
  Rh  Rh5  1  0.38133718  0.93271420  0.74917619  1
  Rh  Rh6  1  0.14959548  0.88582910  0.24566166  1
  Rh  Rh7  1  0.73625093  0.85042819  0.24568083  1
  Rh  Rh8  1  0.11424121  0.26377083  0.24566487  1
  Rh  Rh9  1  0.85046443  0.11422348  0.75432624  1
  Rh  Rh10  1  0.26377273  0.14955544  0.75434059  1
  Rh  Rh11  1  0.88584891  0.73624617  0.75432494  1
loop_
_geom_bond_atom_site_label_1
_geom_bond_atom_site_label_2
_geom_bond_distance
_geom_bond_site_symmetry_2
Ho0 Rh4 3.109793 1_554
Ho0 Rh5 3.110327 1_554
Ho0 Rh3 3.110386 1_554
Ho0 Rh4 3.115461 1_555
Ho0 Rh5 3.115958 1_555
Ho0 Rh3 3.116063 1_555
Ho1 Rh0 3.109951 1_556
Ho1 Rh2 3.109999 1_556
Ho1 Rh1 3.110564 1_556
Ho1 Rh0 3.115622 1_555
Ho1 Rh2 3.115648 1_555
Ho1 Rh1 3.116225 1_555
As0 Rh6 2.472163 1_545
As0 Rh10 2.472188 1_555
As0 Rh11 2.472368 1_445
As0 Rh8 2.472443 1_555
As0 Rh7 2.472589 1_445
As0 Rh9 2.472640 1_455
As1 Rh2 2.394324 1_555
As1 Rh0 2.417840 1_555
As1 Rh6 2.424191 1_545
As1 Rh10 2.495120 1_554
As1 Rh10 2.525904 1_555
As1 Rh5 2.602456 1_545
As1 Rh5 2.602876 1_544
As1 Ho1 3.072741 1_554
As1 Ho1 3.086214 1_555
As2 Rh0 2.394903 1_555
As2 Rh1 2.418382 1_555
As2 Rh7 2.424598 1_555
As2 Rh11 2.495553 1_554
As2 Rh11 2.526461 1_555
As2 Rh3 2.602776 1_555
As2 Rh3 2.602997 1_554
As2 Ho1 3.072585 1_554
As2 Ho1 3.086246 1_555
As3 Rh1 2.394742 1_555
As3 Rh2 2.418509 1_555
As3 Rh8 2.424887 1_655
As3 Rh9 2.495185 1_554
As3 Rh9 2.526079 1_555
As3 Rh4 2.602813 1_655
As3 Rh4 2.603053 1_654
As3 Ho1 3.073080 1_554
As3 Ho1 3.086678 1_555
As4 Rh5 2.394933 1_555
As4 Rh3 2.418721 1_555
As4 Rh9 2.424917 1_565
As4 Rh7 2.495512 1_556
As4 Rh7 2.526408 1_555
As4 Rh2 2.602865 1_565
As4 Rh2 2.603030 1_566
As4 Ho0 3.072868 1_556
As4 Ho0 3.086537 1_555
As5 Rh3 2.394410 1_555
As5 Rh4 2.418041 1_555
As5 Rh10 2.424577 1_555
As5 Rh8 2.495014 1_556
As5 Rh8 2.525820 1_555
As5 Rh0 2.602611 1_555
As5 Rh0 2.603010 1_556
As5 Ho0 3.073026 1_556
As5 Ho0 3.086541 1_555
As6 Rh4 2.394620 1_555
As6 Rh5 2.417982 1_555
As6 Rh11 2.424186 1_455
As6 Rh6 2.495349 1_556
As6 Rh6 2.526225 1_555
As6 Rh1 2.602531 1_455
As6 Rh1 2.602871 1_456
As6 Ho0 3.072542 1_556
As6 Ho0 3.086064 1_555
