# generated using pymatgen
data_Fe5SiC
_symmetry_space_group_name_H-M   'P 1'
_cell_length_a   6.35564788
_cell_length_b   6.35564788
_cell_length_c   7.41387000
_cell_angle_alpha   90.00000000
_cell_angle_beta   90.00000000
_cell_angle_gamma   102.68118599
_symmetry_Int_Tables_number   1
_chemical_formula_structural   Fe5SiC
_chemical_formula_sum   'Fe20 Si4 C4'
_cell_volume   292.17253524
_cell_formula_units_Z   4
loop_
 _symmetry_equiv_pos_site_id
 _symmetry_equiv_pos_as_xyz
  1  'x, y, z'
loop_
 _atom_site_type_symbol
 _atom_site_label
 _atom_site_symmetry_multiplicity
 _atom_site_fract_x
 _atom_site_fract_y
 _atom_site_fract_z
 _atom_site_occupancy
  Fe  Fe0  1  0.93433600  0.69271100  0.01338600  1
  Fe  Fe1  1  0.06566400  0.30728900  0.51338600  1
  Fe  Fe2  1  0.30728900  0.06566400  0.51338600  1
  Fe  Fe3  1  0.69271100  0.93433600  0.01338600  1
  Fe  Fe4  1  0.87753300  0.12686800  0.26240800  1
  Fe  Fe5  1  0.12246700  0.87313200  0.76240800  1
  Fe  Fe6  1  0.87313200  0.12246700  0.76240800  1
  Fe  Fe7  1  0.12686800  0.87753300  0.26240800  1
  Fe  Fe8  1  0.15214300  0.15214300  0.01213500  1
  Fe  Fe9  1  0.84785700  0.84785700  0.51213500  1
  Fe  Fe10  1  0.80988200  0.51365800  0.32224500  1
  Fe  Fe11  1  0.19011800  0.48634200  0.82224500  1
  Fe  Fe12  1  0.48634200  0.19011800  0.82224500  1
  Fe  Fe13  1  0.51365800  0.80988200  0.32224500  1
  Fe  Fe14  1  0.19362700  0.48818100  0.20119300  1
  Fe  Fe15  1  0.80637300  0.51181900  0.70119300  1
  Fe  Fe16  1  0.51181900  0.80637300  0.70119300  1
  Fe  Fe17  1  0.48818100  0.19362700  0.20119300  1
  Fe  Fe18  1  0.53330500  0.53330500  0.00354800  1
  Fe  Fe19  1  0.46669500  0.46669500  0.50354900  1
  Si  Si0  1  0.82105500  0.32653400  0.01169800  1
  Si  Si1  1  0.17894500  0.67346600  0.51169800  1
  Si  Si2  1  0.67346600  0.17894500  0.51169800  1
  Si  Si3  1  0.32653400  0.82105500  0.01169800  1
  C  C0  1  0.18868200  0.18868200  0.72634500  1
  C  C1  1  0.81131800  0.81131800  0.22634500  1
  C  C2  1  0.19393000  0.19393000  0.30091100  1
  C  C3  1  0.80607000  0.80607000  0.80091100  1
loop_
_geom_bond_atom_site_label_1
_geom_bond_atom_site_label_2
_geom_bond_distance
_geom_bond_site_symmetry_2
Fe0 Si0 2.280162 1_555
Fe0 Si3 2.446678 1_655
Fe0 Fe18 2.528723 1_555
Fe1 Si1 2.280162 1_555
Fe1 Si2 2.446678 1_455
Fe1 Fe19 2.528723 1_555
Fe2 Si2 2.280162 1_555
Fe2 Si1 2.446678 1_545
Fe3 Si3 2.280162 1_555
Fe3 Si0 2.446678 1_565
Fe4 Si0 2.322521 1_555
Fe4 Si2 2.322936 1_555
Fe5 Si1 2.322521 1_555
Fe5 Si3 2.322936 1_556
Fe6 Si2 2.322521 1_555
Fe6 Si0 2.322936 1_556
Fe7 Si3 2.322521 1_555
Fe7 Si1 2.322936 1_555
Fe8 Si3 2.584664 1_545
Fe8 Si0 2.584664 1_455
Fe9 Si1 2.584664 1_655
Fe9 Si2 2.584664 1_565
Fe10 Fe19 2.523402 1_555
Fe10 Si2 2.537764 1_555
Fe10 Si0 2.599496 1_555
Fe10 Si1 2.731383 1_655
Fe11 Fe18 2.523398 1_556
Fe11 Si3 2.537764 1_556
Fe11 Si1 2.599496 1_555
Fe11 Si0 2.731383 1_456
Fe12 Fe18 2.523398 1_556
Fe12 Si0 2.537764 1_556
Fe12 Si2 2.599496 1_555
Fe12 Si3 2.731383 1_546
Fe13 Fe19 2.523402 1_555
Fe13 Si1 2.537764 1_555
Fe13 Si3 2.599496 1_555
Fe13 Si2 2.731383 1_565
Fe14 Si3 2.525573 1_555
Fe14 Fe18 2.572604 1_555
Fe14 Si1 2.596751 1_555
Fe14 Si0 2.751042 1_455
Fe15 Si2 2.525573 1_555
Fe15 Fe19 2.572600 1_555
Fe15 Si0 2.596751 1_556
Fe15 Si1 2.751042 1_655
Fe16 Si1 2.525573 1_555
Fe16 Fe19 2.572600 1_555
Fe16 Si3 2.596751 1_556
Fe16 Si2 2.751042 1_565
Fe17 Si0 2.525573 1_555
Fe17 Fe18 2.572604 1_555
Fe17 Si2 2.596751 1_555
Fe17 Si3 2.751042 1_545
Fe18 Si3 2.475992 1_555
Fe18 Si0 2.475992 1_555
Fe18 Fe3 2.528723 1_555
Fe19 Si1 2.475992 1_555
Fe19 Si2 2.475992 1_555
Fe19 Fe2 2.528723 1_555
C0 Fe5 1.974882 1_545
C0 Fe6 1.974882 1_455
C0 Fe1 1.982699 1_555
C0 Fe2 1.982699 1_555
C0 Fe11 2.019158 1_555
C0 Fe12 2.019158 1_555
C0 Fe8 2.138583 1_556
C0 Fe19 2.757145 1_555
C1 Fe4 1.974882 1_565
C1 Fe7 1.974882 1_655
C1 Fe0 1.982699 1_555
C1 Fe3 1.982699 1_555
C1 Fe13 2.019158 1_555
C1 Fe10 2.019158 1_555
C1 Fe9 2.138583 1_555
C1 Fe18 2.757150 1_555
C2 Fe2 1.980649 1_555
C2 Fe1 1.980649 1_555
C2 Fe4 1.982572 1_455
C2 Fe7 1.982572 1_545
C2 Fe17 2.011374 1_555
C2 Fe14 2.011374 1_555
C2 Fe8 2.166508 1_555
C2 Fe19 2.635947 1_555
C3 Fe0 1.980649 1_556
C3 Fe3 1.980649 1_556
C3 Fe5 1.982572 1_655
C3 Fe6 1.982572 1_565
C3 Fe15 2.011374 1_555
C3 Fe16 2.011374 1_555
C3 Fe9 2.166508 1_555
C3 Fe18 2.635943 1_556
