# generated using pymatgen
data_Na3La8Ti9Mn3O36
_symmetry_space_group_name_H-M   'P 1'
_cell_length_a   5.50118000
_cell_length_b   5.53283427
_cell_length_c   27.14935518
_cell_angle_alpha   89.86644163
_cell_angle_beta   89.84333275
_cell_angle_gamma   60.77792796
_symmetry_Int_Tables_number   1
_chemical_formula_structural   Na3La8Ti9Mn3O36
_chemical_formula_sum   'Na3 La8 Ti9 Mn3 O36'
_cell_volume   721.17898454
_cell_formula_units_Z   1
loop_
 _symmetry_equiv_pos_site_id
 _symmetry_equiv_pos_as_xyz
  1  'x, y, z'
loop_
 _atom_site_type_symbol
 _atom_site_label
 _atom_site_symmetry_multiplicity
 _atom_site_fract_x
 _atom_site_fract_y
 _atom_site_fract_z
 _atom_site_occupancy
  Na  Na0  1  0.66449100  0.66809000  0.95671700  1
  Na  Na1  1  0.33249700  0.33155000  0.79031400  1
  Na  Na2  1  0.33377900  0.33993800  0.29390400  1
  La  La0  1  0.99528200  0.99779000  0.87347500  1
  La  La1  1  0.67264800  0.65709700  0.45931300  1
  La  La2  1  0.66718700  0.66212000  0.70863900  1
  La  La3  1  0.33409200  0.33020700  0.54695600  1
  La  La4  1  0.99606000  0.99939600  0.12310300  1
  La  La5  1  0.00980100  0.99797800  0.37263400  1
  La  La6  1  0.66260400  0.66530900  0.21308700  1
  La  La7  1  0.33340400  0.34084400  0.03657400  1
  Ti  Ti0  1  0.00380600  0.00082800  0.99726700  1
  Ti  Ti1  1  0.66210100  0.66901200  0.83161500  1
  Ti  Ti2  1  0.34186100  0.32114300  0.66765600  1
  Ti  Ti3  1  0.33102200  0.33290700  0.91327400  1
  Ti  Ti4  1  0.00012500  0.99943900  0.50378900  1
  Ti  Ti5  1  0.99941400  0.99536100  0.74758000  1
  Ti  Ti6  1  0.67621900  0.66176700  0.33326200  1
  Ti  Ti7  1  0.67213400  0.65806200  0.58889500  1
  Ti  Ti8  1  0.32439200  0.33990400  0.16755800  1
  Mn  Mn0  1  0.33690800  0.33162000  0.41704900  1
  Mn  Mn1  1  0.00041000  0.99630900  0.25092300  1
  Mn  Mn2  1  0.65915600  0.67340000  0.08181900  1
  O  O0  1  0.15638300  0.69557300  0.94775300  1
  O  O1  1  0.56611800  0.43503600  0.87443500  1
  O  O2  1  0.03998500  0.47962000  0.86590800  1
  O  O3  1  0.64109700  0.17343600  0.96621800  1
  O  O4  1  0.81660700  0.37560700  0.78167400  1
  O  O5  1  0.12034900  0.21611800  0.95796000  1
  O  O6  1  0.23300800  0.10878700  0.71081900  1
  O  O7  1  0.51928700  0.96170600  0.88296600  1
  O  O8  1  0.69276600  0.16034100  0.70254700  1
  O  O9  1  0.29719700  0.84787300  0.80148900  1
  O  O10  1  0.48298800  0.03195000  0.61775700  1
  O  O11  1  0.78458900  0.88516900  0.79219300  1
  O  O12  1  0.88466400  0.77211200  0.53863800  1
  O  O13  1  0.17828300  0.63678000  0.71676000  1
  O  O14  1  0.36355300  0.83000700  0.53267800  1
  O  O15  1  0.96689500  0.51609800  0.63399700  1
  O  O16  1  0.12839300  0.74441600  0.44910400  1
  O  O17  1  0.46045200  0.53681700  0.62499300  1
  O  O18  1  0.58477100  0.42839200  0.38036800  1
  O  O19  1  0.83089600  0.32542100  0.54644500  1
  O  O20  1  0.05120100  0.47274100  0.36704900  1
  O  O21  1  0.60884300  0.19865200  0.47155800  1
  O  O22  1  0.82929800  0.35354200  0.28298800  1
  O  O23  1  0.10504700  0.23546500  0.45952400  1
  O  O24  1  0.21731400  0.10372100  0.20423600  1
  O  O25  1  0.54393300  0.92954800  0.38566600  1
  O  O26  1  0.68424800  0.17032700  0.19414300  1
  O  O27  1  0.32189200  0.81787700  0.30396900  1
  O  O28  1  0.43976600  0.08801200  0.11258400  1
  O  O29  1  0.77630900  0.88137600  0.29090300  1
  O  O30  1  0.90352600  0.77137000  0.04413100  1
  O  O31  1  0.16707600  0.64278500  0.21569900  1
  O  O32  1  0.37385200  0.80694700  0.03136100  1
  O  O33  1  0.92850500  0.54853100  0.13663000  1
  O  O34  1  0.42508300  0.57812400  0.12429800  1
  O  O35  1  0.86643500  0.26965200  0.05015300  1
loop_
_geom_bond_atom_site_label_1
_geom_bond_atom_site_label_2
_geom_bond_distance
_geom_bond_site_symmetry_2
Na0 O7 2.452120 1_555
Na0 O32 2.458377 1_556
Na0 O5 2.533855 1_655
Na0 O0 2.735691 1_555
Na0 O3 2.748188 1_565
Na0 O1 2.765364 1_555
Na0 O0 2.793330 1_655
Na0 O3 2.813150 1_555
Na0 O30 2.906028 1_556
Na1 O13 2.480759 1_555
Na1 O2 2.484998 1_555
Na1 O11 2.508065 1_545
Na1 O6 2.674718 1_555
Na1 O4 2.737996 1_455
Na1 O9 2.784371 1_555
Na1 O9 2.791880 1_545
Na1 O4 2.799485 1_555
Na1 O1 2.817104 1_555
Na2 O20 2.403046 1_555
Na2 O29 2.517818 1_545
Na2 O31 2.578836 1_555
Na2 O27 2.627928 1_555
Na2 O22 2.756065 1_455
Na2 O22 2.778498 1_555
Na2 O18 2.887792 1_555
Na2 O27 2.933069 1_545
Na2 O24 2.980939 1_555
La0 O1 2.418762 1_565
La0 O9 2.431218 1_655
La0 O0 2.489018 1_655
La0 O11 2.706848 1_555
La0 O7 2.733036 1_555
La0 O2 2.763359 1_655
La0 O2 2.801234 1_665
La0 O7 2.803177 1_655
La0 O5 2.833146 1_665
La0 O3 3.035864 1_565
La0 O4 3.087162 1_565
La0 O1 3.163845 1_655
La1 O23 2.383746 1_655
La1 O25 2.392299 1_555
La1 O14 2.485138 1_555
La1 O18 2.654102 1_555
La1 O12 2.673612 1_555
La1 O21 2.744501 1_555
La1 O16 2.788223 1_655
La1 O16 2.804658 1_555
La1 O19 2.855280 1_555
La1 O21 2.861617 1_565
La1 O20 3.092105 1_655
La1 O23 3.199045 1_565
La2 O4 2.417086 1_555
La2 O6 2.460163 1_565
La2 O15 2.483241 1_555
La2 O8 2.715760 1_555
La2 O13 2.755339 1_655
La2 O13 2.768886 1_555
La2 O17 2.778941 1_555
La2 O11 2.808060 1_555
La2 O8 2.832373 1_565
La2 O10 3.044242 1_565
La2 O9 3.081414 1_555
La2 O6 3.124218 1_655
La3 O10 2.400628 1_555
La3 O21 2.433184 1_555
La3 O12 2.497976 1_455
La3 O14 2.720741 1_545
La3 O14 2.873278 1_555
La4 O35 2.370600 1_565
La4 O34 2.373376 1_655
La4 O26 2.441944 1_565
La4 O33 2.719554 1_555
La4 O28 2.728374 1_665
La4 O28 2.868158 1_565
La4 O33 2.899324 1_565
La5 O27 2.395122 1_555
La5 O18 2.396913 1_465
La5 O16 2.409193 1_555
La5 O25 2.788982 1_455
La5 O29 2.796637 1_455
La5 O25 2.796658 1_555
La5 O22 2.977124 1_465
La6 O22 2.422333 1_555
La6 O33 2.435729 1_555
La6 O24 2.478114 1_565
La6 O29 2.651948 1_555
La6 O31 2.717646 1_655
La6 O26 2.732539 1_555
La6 O31 2.789655 1_555
La6 O34 2.896360 1_555
La6 O26 2.898957 1_565
La6 O27 2.958586 1_555
La6 O24 3.125041 1_655
La7 O28 2.398274 1_555
La7 O30 2.410002 1_455
La7 O3 2.414826 1_554
La7 O35 2.786922 1_555
La7 O35 2.805767 1_455
La7 O0 2.956346 1_554
Mn0 O20 1.931627 1_555
Mn0 O18 1.959742 1_555
Mn0 O23 1.972667 1_555
Mn0 O21 1.975260 1_555
Mn0 O25 2.121704 1_545
Mn0 O16 2.176078 1_555
Mn1 O22 1.933251 1_465
Mn1 O31 1.958047 1_555
Mn1 O29 1.964000 1_455
Mn1 O24 2.015984 1_565
Mn1 O27 2.116358 1_555
Mn1 O26 2.168199 1_465
Mn2 O32 1.939245 1_555
Mn2 O30 1.961977 1_555
Mn2 O33 1.973571 1_555
Mn2 O34 1.979358 1_555
Mn2 O35 2.132138 1_555
Mn2 O28 2.171813 1_565
O0 Ti3 1.986745 1_555
O0 Ti0 1.996078 1_565
O1 Ti3 1.951184 1_555
O1 Ti1 1.990777 1_555
O2 Ti3 1.900894 1_555
O2 Ti1 2.040940 1_455
O3 Ti0 1.936190 1_655
O3 Ti3 2.071777 1_555
O4 Ti1 1.962867 1_555
O4 Ti5 2.057297 1_545
O5 Ti0 1.924767 1_555
O5 Ti3 1.988067 1_555
O6 Ti2 1.946530 1_555
O6 Ti5 1.954158 1_445
O7 Ti3 1.973356 1_565
O7 Ti1 1.986380 1_555
O8 Ti5 1.917373 1_545
O8 Ti2 1.935056 1_555
O9 Ti1 1.934816 1_555
O9 Ti5 2.047899 1_455
O10 Ti2 1.946705 1_555
O10 Ti7 1.969130 1_545
O11 Ti1 1.951104 1_555
O11 Ti5 1.981817 1_555
O12 Ti4 1.910960 1_655
O12 Ti7 2.081936 1_555
O13 Ti5 1.923962 1_455
O13 Ti2 2.026505 1_555
O14 Ti4 1.914750 1_555
O14 Ti7 2.132318 1_555
O15 Ti7 1.873096 1_555
O15 Ti2 2.021575 1_655
O16 Ti4 1.930014 1_555
O17 Ti7 1.876160 1_555
O17 Ti2 1.985115 1_555
O18 Ti6 2.044248 1_555
O19 Ti4 1.955819 1_645
O19 Ti7 1.978180 1_555
O20 Ti6 2.022360 1_455
O21 Ti4 2.074412 1_645
O22 Ti6 2.020578 1_555
O23 Ti4 2.051244 1_545
O24 Ti8 1.946408 1_555
O25 Ti6 1.923614 1_555
O26 Ti8 1.873852 1_555
O27 Ti6 1.881324 1_555
O28 Ti8 1.927069 1_555
O29 Ti6 1.935290 1_555
O30 Ti0 2.051186 1_664
O31 Ti8 1.963025 1_555
O32 Ti0 2.006254 1_564
O33 Ti8 2.081206 1_655
O34 Ti8 2.031136 1_555
O35 Ti0 1.936869 1_654
