# generated using pymatgen
data_Na3CoBPO7
_symmetry_space_group_name_H-M   'P 1'
_cell_length_a   6.69192637
_cell_length_b   10.49158894
_cell_length_c   10.21618496
_cell_angle_alpha   119.28716064
_cell_angle_beta   90.01214228
_cell_angle_gamma   89.93034608
_symmetry_Int_Tables_number   1
_chemical_formula_structural   Na3CoBPO7
_chemical_formula_sum   'Na12 Co4 B4 P4 O28'
_cell_volume   625.58508895
_cell_formula_units_Z   4
loop_
 _symmetry_equiv_pos_site_id
 _symmetry_equiv_pos_as_xyz
  1  'x, y, z'
loop_
 _atom_site_type_symbol
 _atom_site_label
 _atom_site_symmetry_multiplicity
 _atom_site_fract_x
 _atom_site_fract_y
 _atom_site_fract_z
 _atom_site_occupancy
  Na  Na0  1  0.24872000  0.42397700  0.08036600  1
  Na  Na1  1  0.25092700  0.91289400  0.07728400  1
  Na  Na2  1  0.75273000  0.58309000  0.92434600  1
  Na  Na3  1  0.74903900  0.08087500  0.92356900  1
  Na  Na4  1  0.00268900  0.25370500  0.25762500  1
  Na  Na5  1  0.00423500  0.75294600  0.25878100  1
  Na  Na6  1  0.49617700  0.25099500  0.25580400  1
  Na  Na7  1  0.49694300  0.75647200  0.26046000  1
  Na  Na8  1  0.49975200  0.75143500  0.74629400  1
  Na  Na9  1  0.50531000  0.24566900  0.73907400  1
  Na  Na10  1  0.99899800  0.74879700  0.74486400  1
  Na  Na11  1  0.99620000  0.24711800  0.74066000  1
  Co  Co0  1  0.75339000  0.05624500  0.33968700  1
  Co  Co1  1  0.25231700  0.44313900  0.65954100  1
  Co  Co2  1  0.74728100  0.55591100  0.34028700  1
  Co  Co3  1  0.24982900  0.94491400  0.65930200  1
  B  B0  1  0.75104100  0.39677000  0.06657100  1
  B  B1  1  0.74851500  0.89726000  0.06679800  1
  B  B2  1  0.24948300  0.59948200  0.93279900  1
  B  B3  1  0.24952300  0.09947400  0.93457800  1
  P  P0  1  0.25007900  0.57283100  0.42454100  1
  P  P1  1  0.25033600  0.06887900  0.42055200  1
  P  P2  1  0.74942700  0.43043500  0.57692100  1
  P  P3  1  0.75089600  0.92955100  0.57646100  1
  O  O0  1  0.24797600  0.19716500  0.08171100  1
  O  O1  1  0.25189700  0.68267200  0.08311800  1
  O  O2  1  0.74993100  0.81250400  0.91677700  1
  O  O3  1  0.74945300  0.31213600  0.91630400  1
  O  O4  1  0.75475400  0.55063200  0.14142000  1
  O  O5  1  0.74480800  0.05099200  0.14107000  1
  O  O6  1  0.24534200  0.44536100  0.85708400  1
  O  O7  1  0.24851800  0.94880900  0.86959500  1
  O  O8  1  0.74956600  0.34580200  0.16953000  1
  O  O9  1  0.75028900  0.84600000  0.16962300  1
  O  O10  1  0.24962000  0.65196800  0.83124900  1
  O  O11  1  0.25239200  0.14199600  0.82159400  1
  O  O12  1  0.25063500  0.44996500  0.47122200  1
  O  O13  1  0.25198700  0.94171900  0.45970900  1
  O  O14  1  0.74870000  0.55499900  0.53224300  1
  O  O15  1  0.75099100  0.05484600  0.53281800  1
  O  O16  1  0.75004000  0.28161300  0.43194900  1
  O  O17  1  0.75025100  0.78102600  0.43132200  1
  O  O18  1  0.25057400  0.72360000  0.56891700  1
  O  O19  1  0.24954800  0.21717000  0.56717100  1
  O  O20  1  0.06545300  0.55229900  0.32497800  1
  O  O21  1  0.06389600  0.05125500  0.32159500  1
  O  O22  1  0.43559200  0.55210100  0.32503100  1
  O  O23  1  0.43393200  0.05293600  0.32057200  1
  O  O24  1  0.56382500  0.45043100  0.67672200  1
  O  O25  1  0.56613200  0.94872200  0.67657300  1
  O  O26  1  0.93375400  0.45044900  0.67714900  1
  O  O27  1  0.93630800  0.94796900  0.67578900  1
loop_
_geom_bond_atom_site_label_1
_geom_bond_atom_site_label_2
_geom_bond_distance
_geom_bond_site_symmetry_2
Na0 O0 2.386381 1_555
Na0 O6 2.398934 1_554
Na0 O20 2.503447 1_555
Na0 O22 2.516737 1_555
Na0 O1 2.700589 1_555
Na0 O11 2.844250 1_554
Na1 O7 2.329467 1_554
Na1 O1 2.445104 1_555
Na1 O23 2.503267 1_565
Na1 O21 2.521006 1_565
Na1 O10 2.660824 1_554
Na1 O0 2.960635 1_565
Na2 O4 2.402715 1_556
Na2 O2 2.445724 1_555
Na2 O26 2.518051 1_555
Na2 O24 2.548143 1_555
Na2 O9 2.669321 1_556
Na2 O3 2.803576 1_555
Na3 O5 2.391265 1_556
Na3 O3 2.463459 1_555
Na3 O25 2.523436 1_545
Na3 O27 2.542901 1_545
Na3 O8 2.684494 1_556
Na3 O2 2.782352 1_545
Na4 O0 2.287335 1_555
Na4 O8 2.336457 1_455
Na4 O16 2.367661 1_455
Na4 O5 2.539597 1_455
Na4 O21 2.542086 1_555
Na4 O12 2.713921 1_555
Na4 O20 2.891011 1_555
Na5 O1 2.283578 1_555
Na5 O9 2.352879 1_455
Na5 O17 2.361081 1_455
Na5 O4 2.499616 1_455
Na5 O20 2.539152 1_555
Na5 O13 2.629429 1_555
Na5 O21 2.899034 1_565
Na6 O0 2.293310 1_555
Na6 O8 2.346054 1_555
Na6 O16 2.379495 1_555
Na6 O5 2.476136 1_555
Na6 O23 2.505324 1_555
Na6 O12 2.720183 1_555
Na6 O22 2.907826 1_555
Na7 O1 2.280434 1_555
Na7 O9 2.339896 1_555
Na7 O17 2.355126 1_555
Na7 O4 2.557651 1_555
Na7 O22 2.566579 1_555
Na7 O13 2.594408 1_555
Na7 O23 2.890933 1_565
Na8 O2 2.270781 1_555
Na8 O10 2.352687 1_555
Na8 O18 2.373118 1_555
Na8 O7 2.478259 1_555
Na8 O25 2.536488 1_555
Na8 O14 2.718210 1_555
Na8 O24 2.909097 1_555
Na9 O3 2.280367 1_555
Na9 O19 2.364151 1_555
Na9 O11 2.379202 1_555
Na9 O6 2.527882 1_555
Na9 O24 2.552492 1_555
Na9 O15 2.649025 1_555
Na9 O25 2.886199 1_545
Na10 O2 2.271423 1_555
Na10 O10 2.344373 1_655
Na10 O18 2.381276 1_655
Na10 O7 2.491350 1_655
Na10 O27 2.545783 1_555
Na10 O14 2.709920 1_555
Na10 O26 2.889918 1_555
Na11 O3 2.283129 1_555
Na11 O19 2.359995 1_655
Na11 O11 2.392962 1_655
Na11 O6 2.471347 1_655
Na11 O26 2.549191 1_555
Na11 O15 2.662028 1_555
Na11 O27 2.901421 1_545
Co0 O15 1.980352 1_555
Co0 O5 2.003538 1_555
Co0 O9 2.033514 1_545
Co0 O16 2.073416 1_555
Co0 O21 2.084450 1_655
Co0 O23 2.145426 1_555
Co1 O12 1.959960 1_555
Co1 O6 2.007387 1_555
Co1 O10 2.029155 1_555
Co1 O19 2.079105 1_555
Co1 O24 2.090279 1_555
Co1 O26 2.137541 1_455
Co2 O14 1.965777 1_555
Co2 O4 2.005783 1_555
Co2 O8 2.034780 1_555
Co2 O17 2.072334 1_555
Co2 O22 2.090555 1_555
Co2 O20 2.133885 1_655
Co3 O11 1.915887 1_565
Co3 O13 2.022947 1_555
Co3 O18 2.036258 1_555
Co3 O27 2.103795 1_455
Co3 O25 2.122781 1_555
Co3 O7 2.128720 1_555
B0 O3 1.345965 1_554
B0 O8 1.393821 1_555
B0 O4 1.408394 1_555
B1 O2 1.344023 1_554
B1 O9 1.394842 1_555
B1 O5 1.407243 1_565
B2 O1 1.345004 1_556
B2 O10 1.392290 1_555
B2 O6 1.410707 1_555
B3 O0 1.342647 1_556
B3 O7 1.383024 1_545
B3 O11 1.426731 1_555
O12 P0 1.578154 1_555
O13 P1 1.569112 1_565
O14 P2 1.581098 1_555
O15 P3 1.581220 1_545
O16 P2 1.539143 1_555
O17 P3 1.538259 1_555
O18 P0 1.547582 1_555
O19 P1 1.544082 1_555
O20 P0 1.547003 1_555
O21 P1 1.558841 1_555
O22 P0 1.550978 1_555
O23 P1 1.553585 1_555
O24 P2 1.554621 1_555
O25 P3 1.553679 1_555
O26 P2 1.550428 1_555
O27 P3 1.553951 1_555
