# generated using pymatgen
data_NaFeAs
_symmetry_space_group_name_H-M   'P 1'
_cell_length_a   3.93105349
_cell_length_b   3.93305651
_cell_length_c   19.37417273
_cell_angle_alpha   89.99999962
_cell_angle_beta   90.01227873
_cell_angle_gamma   120.01685713
_symmetry_Int_Tables_number   1
_chemical_formula_structural   NaFeAs
_chemical_formula_sum   'Na4 Fe4 As4'
_cell_volume   259.36963420
_cell_formula_units_Z   4
loop_
 _symmetry_equiv_pos_site_id
 _symmetry_equiv_pos_as_xyz
  1  'x, y, z'
loop_
 _atom_site_type_symbol
 _atom_site_label
 _atom_site_symmetry_multiplicity
 _atom_site_fract_x
 _atom_site_fract_y
 _atom_site_fract_z
 _atom_site_occupancy
  Na  Na0  1  0.33570800  0.66785400  0.65112700  1
  Na  Na1  1  0.66429200  0.33214600  0.34887300  1
  Na  Na2  1  0.99935000  0.99967500  0.18191000  1
  Na  Na3  1  0.00065000  0.00032500  0.81809000  1
  Fe  Fe0  1  0.00000000  0.00000000  0.50000000  1
  Fe  Fe1  1  0.00000000  0.00000000  0.00000000  1
  Fe  Fe2  1  0.33326000  0.66663000  0.04155400  1
  Fe  Fe3  1  0.66674000  0.33337000  0.95844600  1
  As  As0  1  0.33330600  0.66665300  0.91906000  1
  As  As1  1  0.66669400  0.33334700  0.08094000  1
  As  As2  1  0.33280200  0.66640100  0.44989300  1
  As  As3  1  0.66719800  0.33359900  0.55010700  1
loop_
_geom_bond_atom_site_label_1
_geom_bond_atom_site_label_2
_geom_bond_distance
_geom_bond_site_symmetry_2
Fe1 Fe2 2.408214 1_445
Fe1 Fe3 2.408214 1_554
Fe1 Fe2 2.408669 1_555
Fe1 Fe3 2.408669 1_444
Fe1 Fe2 2.408669 1_545
Fe1 Fe3 2.408669 1_454
As0 Fe2 2.373220 1_556
As0 Fe3 2.393928 1_455
As0 Fe3 2.395243 1_565
As0 Fe3 2.395243 1_555
As0 Fe1 2.758088 1_666
As0 Fe1 2.759404 1_556
As0 Fe1 2.759404 1_566
As0 Na3 2.995830 1_565
As0 Na3 2.995830 1_555
As0 Na3 2.998122 1_665
As1 Fe3 2.373220 1_554
As1 Fe2 2.393928 1_655
As1 Fe2 2.395243 1_545
As1 Fe2 2.395243 1_555
As1 Fe1 2.758088 1_555
As1 Fe1 2.759404 1_665
As1 Fe1 2.759404 1_655
As1 Na2 2.995830 1_545
As1 Na2 2.995830 1_555
As1 Na2 2.998122 1_445
As2 Fe0 2.468486 1_555
As2 Fe0 2.468486 1_565
As2 Fe0 2.469584 1_665
As2 Na1 2.995331 1_565
As2 Na1 2.995331 1_555
As2 Na1 3.001028 1_455
As3 Fe0 2.468486 1_665
As3 Fe0 2.468486 1_655
As3 Fe0 2.469584 1_555
As3 Na0 2.995331 1_545
As3 Na0 2.995331 1_555
As3 Na0 3.001028 1_655
