# generated using pymatgen
data_AlPPd4
_symmetry_space_group_name_H-M   'P 1'
_cell_length_a   3.41298970
_cell_length_b   6.63204728
_cell_length_c   11.42197644
_cell_angle_alpha   89.93789103
_cell_angle_beta   90.00000000
_cell_angle_gamma   90.00000000
_symmetry_Int_Tables_number   1
_chemical_formula_structural   AlPPd4
_chemical_formula_sum   'Al3 P3 Pd12'
_cell_volume   258.53753068
_cell_formula_units_Z   3
loop_
 _symmetry_equiv_pos_site_id
 _symmetry_equiv_pos_as_xyz
  1  'x, y, z'
loop_
 _atom_site_type_symbol
 _atom_site_label
 _atom_site_symmetry_multiplicity
 _atom_site_fract_x
 _atom_site_fract_y
 _atom_site_fract_z
 _atom_site_occupancy
  Al  Al0  1  -0.00000000  0.50138434  0.16679039  1
  Al  Al1  1  -0.00000000  0.49991086  0.83468793  1
  Al  Al2  1  -0.00000000  0.00009683  0.33190164  1
  P  P0  1  0.50000000  0.00234393  -0.00035111  1
  P  P1  1  0.50000000  0.49518721  0.49977013  1
  P  P2  1  -0.00000000  0.99511176  0.66593067  1
  Pd  Pd0  1  -0.00000000  0.74555622  0.99902555  1
  Pd  Pd1  1  -0.00000000  0.23411460  0.50718966  1
  Pd  Pd2  1  0.00000000  0.63746227  0.62928675  1
  Pd  Pd3  1  -0.00000000  0.12964393  0.12649492  1
  Pd  Pd4  1  -0.00000000  0.12286346  0.86195128  1
  Pd  Pd5  1  -0.00000000  0.62844082  0.37458286  1
  Pd  Pd6  1  0.50000000  0.89847314  0.50373120  1
  Pd  Pd7  1  0.50000000  0.39297786  0.99723023  1
  Pd  Pd8  1  0.50000000  0.80263315  0.79966367  1
  Pd  Pd9  1  0.50000000  0.30189268  0.30437346  1
  Pd  Pd10  1  0.50000000  0.30983216  0.69830763  1
  Pd  Pd11  1  0.50000000  0.80227277  0.19943613  1
loop_
_geom_bond_atom_site_label_1
_geom_bond_atom_site_label_2
_geom_bond_distance
_geom_bond_site_symmetry_2
Al0 Pd0 2.507477 1_554
Al0 Pd3 2.508484 1_555
Al0 Pd5 2.519408 1_555
Al0 Pd11 2.652324 1_455
Al0 Pd11 2.652324 1_555
Al0 Pd9 2.669750 1_455
Al0 Pd9 2.669750 1_555
Al0 Pd7 2.680093 1_454
Al0 Pd7 2.680093 1_554
Al1 Pd0 2.486776 1_555
Al1 Pd2 2.516283 1_555
Al1 Pd4 2.519576 1_555
Al1 Pd7 2.618971 1_555
Al1 Pd7 2.618971 1_455
Al1 Pd10 2.632879 1_555
Al1 Pd10 2.632879 1_455
Al1 Pd8 2.664799 1_455
Al1 Pd8 2.664799 1_555
Al2 Pd3 2.497642 1_555
Al2 Pd5 2.512069 1_545
Al2 Pd1 2.534569 1_555
Al2 Pd11 2.631908 1_545
Al2 Pd11 2.631908 1_445
Al2 Pd9 2.648721 1_555
Al2 Pd9 2.648721 1_455
Al2 Pd6 2.686154 1_545
Al2 Pd6 2.686154 1_445
P0 Pd3 2.393045 1_555
P0 Pd3 2.393045 1_655
P0 Pd0 2.410914 1_544
P0 Pd0 2.410914 1_644
P0 Pd4 2.453956 1_654
P0 Pd4 2.453956 1_554
P0 Pd7 2.590820 1_554
P0 Pd11 2.638449 1_545
P0 Pd8 2.641690 1_544
P1 Pd5 2.394778 1_555
P1 Pd5 2.394778 1_655
P1 Pd1 2.432466 1_555
P1 Pd1 2.432466 1_655
P1 Pd2 2.448248 1_555
P1 Pd2 2.448248 1_655
P1 Pd9 2.574990 1_555
P1 Pd10 2.578278 1_555
P1 Pd6 2.675043 1_555
P2 Pd4 2.394748 1_565
P2 Pd1 2.407011 1_565
P2 Pd2 2.409040 1_555
P2 Pd6 2.599565 1_555
P2 Pd6 2.599565 1_455
P2 Pd8 2.621194 1_555
P2 Pd8 2.621194 1_455
P2 Pd10 2.721604 1_565
P2 Pd10 2.721604 1_465
