# generated using pymatgen
data_BaCaMnF7
_symmetry_space_group_name_H-M   'P 1'
_cell_length_a   10.53821600
_cell_length_b   5.89036600
_cell_length_c   9.89806735
_cell_angle_alpha   87.22183905
_cell_angle_beta   90.00000000
_cell_angle_gamma   90.00000000
_symmetry_Int_Tables_number   1
_chemical_formula_structural   BaCaMnF7
_chemical_formula_sum   'Ba4 Ca4 Mn4 F28'
_cell_volume   613.69000215
_cell_formula_units_Z   4
loop_
 _symmetry_equiv_pos_site_id
 _symmetry_equiv_pos_as_xyz
  1  'x, y, z'
loop_
 _atom_site_type_symbol
 _atom_site_label
 _atom_site_symmetry_multiplicity
 _atom_site_fract_x
 _atom_site_fract_y
 _atom_site_fract_z
 _atom_site_occupancy
  Ba  Ba0  1  0.32662600  0.72059400  0.50694500  1
  Ba  Ba1  1  0.82662600  0.27940600  0.99305500  1
  Ba  Ba2  1  0.67337400  0.27940600  0.49305500  1
  Ba  Ba3  1  0.17337400  0.72059400  0.00694500  1
  Ca  Ca0  1  0.41364400  0.29415100  0.82392000  1
  Ca  Ca1  1  0.91364400  0.70584900  0.67608000  1
  Ca  Ca2  1  0.08635600  0.29415100  0.32392000  1
  Ca  Ca3  1  0.58635600  0.70584900  0.17608000  1
  Mn  Mn0  1  0.62123300  0.80884100  0.80356900  1
  Mn  Mn1  1  0.37876700  0.19115900  0.19643100  1
  Mn  Mn2  1  0.87876700  0.80884100  0.30356900  1
  Mn  Mn3  1  0.12123300  0.19115900  0.69643100  1
  F  F0  1  0.41165600  0.88200900  0.10293100  1
  F  F1  1  0.03005000  0.66013200  0.36338500  1
  F  F2  1  0.71914000  0.51910800  0.72864800  1
  F  F3  1  0.28086000  0.48089200  0.27135200  1
  F  F4  1  0.46173600  0.08865300  0.35560700  1
  F  F5  1  0.80233300  0.71313400  0.47179700  1
  F  F6  1  0.77092200  0.97513700  0.74008800  1
  F  F7  1  0.96173600  0.91134700  0.14439300  1
  F  F8  1  0.46995000  0.66013200  0.86338500  1
  F  F9  1  0.21914000  0.48089200  0.77135200  1
  F  F10  1  0.08834400  0.88200900  0.60293100  1
  F  F11  1  0.58834400  0.11799100  0.89706900  1
  F  F12  1  0.27092200  0.02486300  0.75991200  1
  F  F13  1  0.96079300  0.61280100  0.88436900  1
  F  F14  1  0.53826400  0.91134700  0.64439300  1
  F  F15  1  0.03826400  0.08865300  0.85560700  1
  F  F16  1  0.22907800  0.02486300  0.25991200  1
  F  F17  1  0.91165600  0.11799100  0.39706900  1
  F  F18  1  0.46079300  0.38719900  0.61563100  1
  F  F19  1  0.96995000  0.33986800  0.63661500  1
  F  F20  1  0.03920700  0.38719900  0.11563100  1
  F  F21  1  0.72907800  0.97513700  0.24008800  1
  F  F22  1  0.53920700  0.61280100  0.38436900  1
  F  F23  1  0.30233300  0.28686600  0.02820300  1
  F  F24  1  0.19766700  0.28686600  0.52820300  1
  F  F25  1  0.69766700  0.71313400  0.97179700  1
  F  F26  1  0.53005000  0.33986800  0.13661500  1
  F  F27  1  0.78086000  0.51910800  0.22864800  1
loop_
_geom_bond_atom_site_label_1
_geom_bond_atom_site_label_2
_geom_bond_distance
_geom_bond_site_symmetry_2
Ba0 F18 2.609244 1_555
Ba0 F22 2.639781 1_555
Ba0 F3 2.825448 1_555
Ba0 F10 2.863508 1_555
Ba0 F14 2.869796 1_555
Ba0 F24 2.892426 1_555
Ba0 F4 2.942201 1_565
Ba0 F9 3.125330 1_555
Ba0 F16 3.134145 1_565
Ba0 F12 3.203316 1_565
Ba1 F13 2.609244 1_555
Ba1 F20 2.639781 1_656
Ba1 F27 2.825448 1_556
Ba1 F11 2.863508 1_555
Ba1 F15 2.869796 1_655
Ba1 F25 2.892426 1_555
Ba1 F7 2.942201 1_546
Ba1 F2 3.125330 1_555
Ba1 F21 3.134145 1_546
Ba1 F6 3.203316 1_545
Ba2 F22 2.609244 1_555
Ba2 F18 2.639781 1_555
Ba2 F2 2.825448 1_555
Ba2 F17 2.863508 1_555
Ba2 F4 2.869796 1_555
Ba2 F5 2.892426 1_555
Ba2 F14 2.942201 1_545
Ba2 F27 3.125330 1_555
Ba2 F6 3.134145 1_545
Ba2 F21 3.203316 1_545
Ba3 F20 2.609244 1_555
Ba3 F13 2.639781 1_454
Ba3 F9 2.825448 1_554
Ba3 F0 2.863508 1_555
Ba3 F7 2.869796 1_455
Ba3 F23 2.892426 1_555
Ba3 F15 2.942201 1_564
Ba3 F3 3.125330 1_555
Ba3 F12 3.134145 1_564
Ba3 F16 3.203316 1_565
Ca0 F18 2.165219 1_555
Ca0 F11 2.217540 1_555
Ca0 F8 2.287709 1_555
Ca0 F12 2.297167 1_555
Ca0 F23 2.336218 1_556
Ca0 F9 2.372038 1_555
Ca1 F13 2.165219 1_555
Ca1 F10 2.217540 1_655
Ca1 F19 2.287709 1_555
Ca1 F6 2.297167 1_555
Ca1 F5 2.336218 1_555
Ca1 F2 2.372038 1_555
Ca2 F20 2.165219 1_555
Ca2 F17 2.217540 1_455
Ca2 F1 2.287709 1_555
Ca2 F16 2.297167 1_555
Ca2 F24 2.336218 1_555
Ca2 F3 2.372038 1_555
Ca3 F22 2.165219 1_555
Ca3 F0 2.217540 1_555
Ca3 F26 2.287709 1_555
Ca3 F21 2.297167 1_555
Ca3 F25 2.336218 1_554
Ca3 F27 2.372038 1_555
F0 Mn1 2.110936 1_565
F1 Mn2 1.899788 1_455
F2 Mn0 2.156328 1_555
F3 Mn1 2.156328 1_555
F4 Mn1 1.875938 1_555
F5 Mn2 1.910046 1_555
F6 Mn0 1.944998 1_555
F7 Mn2 1.875938 1_555
F8 Mn0 1.899788 1_555
F9 Mn3 2.156328 1_555
F10 Mn3 2.110936 1_565
F11 Mn0 2.110936 1_545
F12 Mn3 1.944998 1_555
F14 Mn0 1.875938 1_555
F15 Mn3 1.875938 1_555
F16 Mn1 1.944998 1_555
F17 Mn2 2.110936 1_545
F19 Mn3 1.899788 1_655
F21 Mn2 1.944998 1_555
F23 Mn1 1.910046 1_555
F24 Mn3 1.910046 1_555
F25 Mn0 1.910046 1_555
F26 Mn1 1.899788 1_555
F27 Mn2 2.156328 1_555
