# generated using pymatgen
data_V2SN2
_symmetry_space_group_name_H-M   'P 1'
_cell_length_a   3.33433700
_cell_length_b   3.33445372
_cell_length_c   5.91782400
_cell_angle_alpha   89.99983169
_cell_angle_beta   90.00098338
_cell_angle_gamma   120.00194613
_symmetry_Int_Tables_number   1
_chemical_formula_structural   V2SN2
_chemical_formula_sum   'V2 S1 N2'
_cell_volume   56.97946211
_cell_formula_units_Z   1
loop_
 _symmetry_equiv_pos_site_id
 _symmetry_equiv_pos_as_xyz
  1  'x, y, z'
loop_
 _atom_site_type_symbol
 _atom_site_label
 _atom_site_symmetry_multiplicity
 _atom_site_fract_x
 _atom_site_fract_y
 _atom_site_fract_z
 _atom_site_occupancy
  V  V0  1  0.66662800  0.33333800  0.68389800  1
  V  V1  1  0.33337100  0.66666100  0.31610300  1
  S  S0  1  0.00000100  0.00000100  0.00000000  1
  N  N0  1  0.66666800  0.33334000  0.35020500  1
  N  N1  1  0.33333200  0.66665900  0.64979500  1
loop_
_geom_bond_atom_site_label_1
_geom_bond_atom_site_label_2
_geom_bond_distance
_geom_bond_site_symmetry_2
S0 V0 2.684168 1_554
S0 V1 2.684178 1_445
S0 V1 2.684256 1_555
S0 V0 2.684258 1_444
S0 V0 2.684365 1_454
S0 V1 2.684369 1_545
N0 V1 1.935540 1_555
N0 V1 1.935693 1_545
N0 V1 1.935700 1_655
N0 V0 1.974736 1_555
N1 V0 1.935537 1_555
N1 V0 1.935694 1_565
N1 V0 1.935703 1_455
N1 V1 1.974731 1_555
