# generated using pymatgen
data_Sm3ReO7
_symmetry_space_group_name_H-M   'P 1'
_cell_length_a   6.57069359
_cell_length_b   6.57069359
_cell_length_c   7.57179700
_cell_angle_alpha   90.00000000
_cell_angle_beta   90.00000000
_cell_angle_gamma   110.81004779
_symmetry_Int_Tables_number   1
_chemical_formula_structural   Sm3ReO7
_chemical_formula_sum   'Sm6 Re2 O14'
_cell_volume   305.57870557
_cell_formula_units_Z   2
loop_
 _symmetry_equiv_pos_site_id
 _symmetry_equiv_pos_as_xyz
  1  'x, y, z'
loop_
 _atom_site_type_symbol
 _atom_site_label
 _atom_site_symmetry_multiplicity
 _atom_site_fract_x
 _atom_site_fract_y
 _atom_site_fract_z
 _atom_site_occupancy
  Sm  Sm0  1  0.02218700  0.57307300  0.25000000  1
  Sm  Sm1  1  0.97781300  0.42692700  0.75000000  1
  Sm  Sm2  1  0.50000000  0.50000000  0.50000000  1
  Sm  Sm3  1  0.50000000  0.50000000  0.00000000  1
  Sm  Sm4  1  0.42692700  0.97781300  0.75000000  1
  Sm  Sm5  1  0.57307300  0.02218700  0.25000000  1
  Re  Re0  1  0.00000000  0.00000000  0.00000000  1
  Re  Re1  1  0.00000000  0.00000000  0.50000000  1
  O  O0  1  0.60898000  0.34491800  0.75000000  1
  O  O1  1  0.39102000  0.65508200  0.25000000  1
  O  O2  1  0.34491800  0.60898000  0.75000000  1
  O  O3  1  0.65508200  0.39102000  0.25000000  1
  O  O4  1  0.31471400  0.06060500  0.03693300  1
  O  O5  1  0.68528600  0.93939500  0.53693300  1
  O  O6  1  0.06060500  0.31471400  0.46306700  1
  O  O7  1  0.93939500  0.68528600  0.96306700  1
  O  O8  1  0.91874300  0.91874300  0.25000000  1
  O  O9  1  0.08125700  0.08125700  0.75000000  1
  O  O10  1  0.06060500  0.31471400  0.03693300  1
  O  O11  1  0.93939500  0.68528600  0.53693300  1
  O  O12  1  0.31471400  0.06060500  0.46306700  1
  O  O13  1  0.68528600  0.93939500  0.96306700  1
loop_
_geom_bond_atom_site_label_1
_geom_bond_atom_site_label_2
_geom_bond_distance
_geom_bond_site_symmetry_2
O0 Sm4 2.280154 1_545
O0 Sm1 2.288178 1_555
O0 Sm2 2.377570 1_555
O0 Sm3 2.377570 1_556
O1 Sm5 2.280154 1_565
O1 Sm0 2.288178 1_555
O1 Sm2 2.377570 1_555
O1 Sm3 2.377570 1_555
O2 Sm1 2.280154 1_455
O2 Sm4 2.288178 1_555
O2 Sm2 2.377570 1_555
O2 Sm3 2.377570 1_556
O3 Sm0 2.280154 1_655
O3 Sm5 2.288178 1_555
O3 Sm3 2.377570 1_555
O3 Sm2 2.377570 1_555
O4 Re0 1.981877 1_555
O4 Sm4 2.417593 1_544
O4 Sm5 2.419253 1_555
O4 Sm3 2.720000 1_555
O5 Re1 1.981877 1_665
O5 Sm5 2.417593 1_565
O5 Sm4 2.419253 1_555
O5 Sm2 2.720000 1_555
O6 Re1 1.981877 1_555
O6 Sm1 2.417593 1_455
O6 Sm0 2.419253 1_555
O6 Sm2 2.720000 1_555
O7 Re0 1.981877 1_666
O7 Sm0 2.417593 1_656
O7 Sm1 2.419253 1_555
O7 Sm3 2.720000 1_556
O8 Re1 1.987671 1_665
O8 Re0 1.987671 1_665
O8 Sm0 2.591850 1_655
O8 Sm5 2.591850 1_565
O9 Re0 1.987671 1_556
O9 Re1 1.987671 1_555
O9 Sm1 2.591850 1_455
O9 Sm4 2.591850 1_545
O10 Re0 1.981877 1_555
O10 Sm1 2.417593 1_454
O10 Sm0 2.419253 1_555
O10 Sm3 2.720000 1_555
O11 Re1 1.981877 1_665
O11 Sm0 2.417593 1_655
O11 Sm1 2.419253 1_555
O11 Sm2 2.720000 1_555
O12 Re1 1.981877 1_555
O12 Sm4 2.417593 1_545
O12 Sm5 2.419253 1_555
O12 Sm2 2.720000 1_555
O13 Re0 1.981877 1_666
O13 Sm5 2.417593 1_566
O13 Sm4 2.419253 1_555
O13 Sm3 2.720000 1_556
