# generated using pymatgen
data_Li2PWO4F
_symmetry_space_group_name_H-M   'P 1'
_cell_length_a   5.52768100
_cell_length_b   5.62519036
_cell_length_c   7.81558457
_cell_angle_alpha   107.19742549
_cell_angle_beta   104.31516399
_cell_angle_gamma   97.39953012
_symmetry_Int_Tables_number   1
_chemical_formula_structural   Li2PWO4F
_chemical_formula_sum   'Li4 P2 W2 O8 F2'
_cell_volume   219.53052132
_cell_formula_units_Z   2
loop_
 _symmetry_equiv_pos_site_id
 _symmetry_equiv_pos_as_xyz
  1  'x, y, z'
loop_
 _atom_site_type_symbol
 _atom_site_label
 _atom_site_symmetry_multiplicity
 _atom_site_fract_x
 _atom_site_fract_y
 _atom_site_fract_z
 _atom_site_occupancy
  Li  Li0  1  0.26316500  0.57534300  0.15784400  1
  Li  Li1  1  0.46253100  0.14232200  0.83036000  1
  Li  Li2  1  0.49737900  0.02965000  0.46399100  1
  Li  Li3  1  0.82170300  0.46559700  0.83535600  1
  P  P0  1  0.66475500  0.35784100  0.22955400  1
  P  P1  1  0.33617300  0.63190300  0.77973400  1
  W  W0  1  0.00505200  0.99935400  0.00967100  1
  W  W1  1  0.97786500  0.98888200  0.50592500  1
  O  O0  1  0.26410200  0.79825800  0.65936200  1
  O  O1  1  0.72035800  0.20361500  0.36098100  1
  O  O2  1  0.29765500  0.34274200  0.67183900  1
  O  O3  1  0.16729400  0.65836000  0.91876700  1
  O  O4  1  0.84694600  0.33700700  0.10102400  1
  O  O5  1  0.38550700  0.24703400  0.08513300  1
  O  O6  1  0.66705600  0.63926200  0.33222700  1
  O  O7  1  0.62533400  0.72638300  0.89561800  1
  F  F0  1  0.73491700  0.12977100  0.69810400  1
  F  F1  1  0.19008800  0.85830900  0.30592100  1
loop_
_geom_bond_atom_site_label_1
_geom_bond_atom_site_label_2
_geom_bond_distance
_geom_bond_site_symmetry_2
Li0 O3 2.019990 1_554
Li0 O5 2.020418 1_555
Li0 O6 2.229343 1_555
Li0 O4 2.374063 1_455
Li1 O0 1.983387 1_545
Li1 O2 2.041775 1_555
Li1 O5 2.069634 1_556
Li1 O4 2.448954 1_556
Li2 O1 1.941879 1_555
Li2 O6 2.536442 1_545
Li2 O2 2.579810 1_555
Li3 O3 1.919031 1_655
Li3 O7 1.951016 1_555
Li3 O4 2.371662 1_556
O0 P1 1.533207 1_555
O0 W1 2.313104 1_455
O1 P0 1.530268 1_555
O1 W1 2.285406 1_545
O2 P1 1.553423 1_555
O2 W1 2.280852 1_445
O3 P1 1.586227 1_555
O3 W0 2.222768 1_556
O4 P0 1.580548 1_555
O4 W0 2.194397 1_645
O5 P0 1.587386 1_555
O5 W0 2.204034 1_545
O6 P0 1.545547 1_555
O6 W1 2.249450 1_555
O7 P1 1.561497 1_555
O7 W0 2.234558 1_656
F0 Li3 1.806456 1_555
F0 Li2 1.844250 1_555
F0 Li1 2.023440 1_555
F0 W1 2.292438 1_545
F1 Li2 1.782398 1_565
F1 Li0 1.828565 1_555
F1 W1 2.192920 1_455
F1 W0 2.675965 1_555
