# generated using pymatgen
data_Nd2Mn2CuSi3
_symmetry_space_group_name_H-M   'P 1'
_cell_length_a   9.25992120
_cell_length_b   9.25992120
_cell_length_c   3.97324300
_cell_angle_alpha   90.00000000
_cell_angle_beta   90.00000000
_cell_angle_gamma   154.25027745
_symmetry_Int_Tables_number   1
_chemical_formula_structural   Nd2Mn2CuSi3
_chemical_formula_sum   'Nd2 Mn2 Cu1 Si3'
_cell_volume   148.00977859
_cell_formula_units_Z   1
loop_
 _symmetry_equiv_pos_site_id
 _symmetry_equiv_pos_as_xyz
  1  'x, y, z'
loop_
 _atom_site_type_symbol
 _atom_site_label
 _atom_site_symmetry_multiplicity
 _atom_site_fract_x
 _atom_site_fract_y
 _atom_site_fract_z
 _atom_site_occupancy
  Nd  Nd0  1  0.90084800  0.09915200  0.00000000  1
  Nd  Nd1  1  0.10063100  0.89936900  0.50000000  1
  Mn  Mn0  1  0.25189100  0.74810900  0.00000000  1
  Mn  Mn1  1  0.75178500  0.24821500  0.50000000  1
  Cu  Cu0  1  0.66702200  0.33297800  0.00000000  1
  Si  Si0  1  0.53637600  0.46362400  0.00000000  1
  Si  Si1  1  0.46420000  0.53580000  0.50000000  1
  Si  Si2  1  0.32724800  0.67275200  0.50000000  1
loop_
_geom_bond_atom_site_label_1
_geom_bond_atom_site_label_2
_geom_bond_distance
_geom_bond_site_symmetry_2
Nd0 Si1 3.084179 1_544
Nd0 Si1 3.084179 1_545
Nd0 Si1 3.084179 1_654
Nd0 Si1 3.084179 1_655
Nd0 Si2 3.157473 1_545
Nd0 Si2 3.157473 1_544
Nd0 Si2 3.157473 1_655
Nd0 Si2 3.157473 1_654
Nd0 Si0 3.200684 1_545
Nd0 Si0 3.200684 1_655
Nd1 Si0 3.090262 1_455
Nd1 Si0 3.090262 1_456
Nd1 Si0 3.090262 1_566
Nd1 Si0 3.090262 1_565
Nd1 Si1 3.213164 1_565
Nd1 Si1 3.213164 1_455
Mn0 Si2 2.407833 1_555
Mn0 Si2 2.407833 1_554
Mn0 Nd1 3.377039 1_555
Mn0 Nd1 3.377039 1_554
Mn0 Nd0 3.389637 1_455
Mn0 Nd0 3.389637 1_565
Mn1 Si2 2.472547 1_545
Mn1 Si2 2.472547 1_655
Mn1 Nd0 3.345044 1_555
Mn1 Nd0 3.345044 1_556
Mn1 Nd1 3.421193 1_545
Mn1 Nd1 3.421193 1_655
Cu0 Si0 2.358714 1_555
Cu0 Mn1 2.507704 1_555
Cu0 Mn1 2.507704 1_554
Cu0 Mn0 2.570030 1_655
Cu0 Mn0 2.570030 1_545
Cu0 Nd1 3.104945 1_654
Cu0 Nd1 3.104945 1_655
Cu0 Nd1 3.104945 1_544
Cu0 Nd1 3.104945 1_545
Si0 Si1 2.375855 1_554
Si0 Si1 2.375855 1_555
Si1 Si2 2.472564 1_555
