# generated using pymatgen
data_Sc2Al4(CO)3
_symmetry_space_group_name_H-M   'P 1'
_cell_length_a   14.41335602
_cell_length_b   14.41335602
_cell_length_c   14.41335574
_cell_angle_alpha   13.39414949
_cell_angle_beta   13.39414949
_cell_angle_gamma   13.39414936
_symmetry_Int_Tables_number   1
_chemical_formula_structural   Sc2Al4(CO)3
_chemical_formula_sum   'Sc2 Al4 C3 O3'
_cell_volume   139.78431551
_cell_formula_units_Z   1
loop_
 _symmetry_equiv_pos_site_id
 _symmetry_equiv_pos_as_xyz
  1  'x, y, z'
loop_
 _atom_site_type_symbol
 _atom_site_label
 _atom_site_symmetry_multiplicity
 _atom_site_fract_x
 _atom_site_fract_y
 _atom_site_fract_z
 _atom_site_occupancy
  Sc  Sc0  1  0.00072600  0.00072600  0.00072600  1
  Sc  Sc1  1  0.49731500  0.49731500  0.49731500  1
  Al  Al0  1  0.76998300  0.76998300  0.76998300  1
  Al  Al1  1  0.23388100  0.23388100  0.23388100  1
  Al  Al2  1  0.38441400  0.38441400  0.38441400  1
  Al  Al3  1  0.61749500  0.61749500  0.61749500  1
  C  C0  1  0.69451200  0.69451200  0.69451200  1
  C  C1  1  0.29166200  0.29166200  0.29166200  1
  C  C2  1  0.42913800  0.42913800  0.42913800  1
  O  O0  1  0.19310200  0.19310200  0.19310200  1
  O  O1  1  0.81466600  0.81466600  0.81466600  1
  O  O2  1  0.57291600  0.57291600  0.57291600  1
loop_
_geom_bond_atom_site_label_1
_geom_bond_atom_site_label_2
_geom_bond_distance
_geom_bond_site_symmetry_2
Al0 O1 1.914498 1_555
Al0 C2 1.967424 1_655
Al0 C2 1.967424 1_565
Al0 C2 1.967424 1_556
Al1 O0 1.747226 1_555
Al1 O2 1.956234 1_545
Al1 O2 1.956234 1_455
Al1 O2 1.956234 1_554
Al1 C1 2.475698 1_555
Al2 C2 1.916255 1_555
Al2 C0 2.181349 1_554
Al2 C0 2.181349 1_455
Al2 C0 2.181349 1_545
Al3 O2 1.910042 1_555
Al3 C1 1.967344 1_556
Al3 C1 1.967344 1_655
Al3 C1 1.967344 1_565
C0 Sc0 2.262150 1_665
C0 Sc0 2.262150 1_566
C0 Sc0 2.262150 1_656
C1 Sc0 2.658398 1_556
C1 Sc0 2.658398 1_565
C1 Sc0 2.658398 1_655
O0 Sc1 2.307361 1_554
O0 Sc1 2.307361 1_455
O0 Sc1 2.307361 1_545
O1 Sc1 2.058178 1_556
O1 Sc1 2.058178 1_565
O1 Sc1 2.058178 1_655
