# generated using pymatgen
data_GdFe10Mo2N
_symmetry_space_group_name_H-M   'P 1'
_cell_length_a   4.79289700
_cell_length_b   6.56255202
_cell_length_c   6.56255202
_cell_angle_alpha   98.24006711
_cell_angle_beta   111.41805341
_cell_angle_gamma   68.58194659
_symmetry_Int_Tables_number   1
_chemical_formula_structural   GdFe10Mo2N
_chemical_formula_sum   'Gd1 Fe10 Mo2 N1'
_cell_volume   178.87884920
_cell_formula_units_Z   1
loop_
 _symmetry_equiv_pos_site_id
 _symmetry_equiv_pos_as_xyz
  1  'x, y, z'
loop_
 _atom_site_type_symbol
 _atom_site_label
 _atom_site_symmetry_multiplicity
 _atom_site_fract_x
 _atom_site_fract_y
 _atom_site_fract_z
 _atom_site_occupancy
  Gd  Gd0  1  0.00000000  0.00000000  0.00000000  1
  Fe  Fe0  1  0.72016800  0.77983200  0.22016800  1
  Fe  Fe1  1  0.27983200  0.22016800  0.77983200  1
  Fe  Fe2  1  0.50000000  0.77817600  0.77817600  1
  Fe  Fe3  1  0.50000000  0.22182400  0.22182400  1
  Fe  Fe4  1  0.50000000  0.00000000  0.50000000  1
  Fe  Fe5  1  0.00000000  0.00000000  0.50000000  1
  Fe  Fe6  1  0.50000000  0.50000000  0.00000000  1
  Fe  Fe7  1  0.00000000  0.50000000  0.00000000  1
  Fe  Fe8  1  0.63984500  0.36015500  0.63984500  1
  Fe  Fe9  1  0.36015500  0.63984500  0.36015500  1
  Mo  Mo0  1  0.00000000  0.35737400  0.35737400  1
  Mo  Mo1  1  0.00000000  0.64262600  0.64262600  1
  N  N0  1  0.50000000  0.00000000  0.00000000  1
loop_
_geom_bond_atom_site_label_1
_geom_bond_atom_site_label_2
_geom_bond_distance
_geom_bond_site_symmetry_2
Gd0 N0 2.396448 1_555
Gd0 N0 2.396448 1_455
Gd0 Mo0 3.069868 1_555
Gd0 Mo1 3.069868 1_544
Fe0 N0 1.913147 1_565
Fe0 Fe4 2.472807 1_565
Fe0 Fe6 2.472807 1_555
Fe0 Fe5 2.472807 1_665
Fe0 Fe7 2.472807 1_655
Fe0 Fe9 2.687495 1_555
Fe0 Fe9 2.687495 1_655
Fe0 Mo1 2.722810 1_655
Fe0 Mo0 2.722810 1_655
Fe1 N0 1.913147 1_556
Fe1 Fe4 2.472807 1_555
Fe1 Fe6 2.472807 1_556
Fe1 Fe5 2.472807 1_555
Fe1 Fe7 2.472807 1_556
Fe1 Fe8 2.687495 1_555
Fe1 Fe8 2.687495 1_455
Fe1 Mo1 2.722810 1_555
Fe1 Mo0 2.722810 1_555
Fe2 N0 1.905484 1_566
Fe2 Fe4 2.492693 1_565
Fe2 Fe6 2.492693 1_556
Fe2 Fe7 2.492693 1_656
Fe2 Fe5 2.492693 1_565
Fe2 Mo1 2.664349 1_555
Fe2 Mo1 2.664349 1_655
Fe2 Fe9 2.680788 1_555
Fe2 Fe8 2.680788 1_555
Fe3 N0 1.905484 1_555
Fe3 Fe6 2.492693 1_555
Fe3 Fe4 2.492693 1_555
Fe3 Fe5 2.492693 1_655
Fe3 Fe7 2.492693 1_555
Fe3 Mo0 2.664349 1_655
Fe3 Mo0 2.664349 1_555
Fe3 Fe8 2.680788 1_555
Fe3 Fe9 2.680788 1_555
Fe4 Fe5 2.396448 1_655
Fe4 Fe5 2.396448 1_555
Fe4 Fe9 2.638899 1_545
Fe4 Fe8 2.638899 1_555
Fe4 Mo0 2.646823 1_555
Fe4 Mo1 2.646823 1_645
Fe4 Gd0 3.281276 1_656
Fe4 Gd0 3.281276 1_555
Fe5 Fe9 2.638899 1_545
Fe5 Fe8 2.638899 1_455
Fe5 Mo0 2.646822 1_555
Fe5 Mo1 2.646822 1_545
Fe5 Gd0 3.281276 1_556
Fe5 Gd0 3.281276 1_555
Fe6 Fe7 2.396448 1_555
Fe6 Fe7 2.396448 1_655
Fe6 Fe8 2.638899 1_554
Fe6 Fe9 2.638899 1_555
Fe6 Mo0 2.646823 1_655
Fe6 Mo1 2.646823 1_554
Fe6 Gd0 3.281276 1_565
Fe6 Gd0 3.281276 1_655
Fe7 Fe8 2.638899 1_454
Fe7 Fe9 2.638899 1_555
Fe7 Mo0 2.646822 1_555
Fe7 Mo1 2.646822 1_554
Fe7 Gd0 3.281276 1_565
Fe7 Gd0 3.281276 1_555
Fe8 Fe9 2.430362 1_555
Fe8 Mo1 2.953077 1_655
Fe8 Mo0 2.953077 1_655
Fe8 Mo1 2.953078 1_555
Fe8 Mo0 2.953078 1_555
Fe8 Gd0 3.129562 1_656
Fe9 Mo1 2.953077 1_555
Fe9 Mo0 2.953077 1_555
Fe9 Mo1 2.953078 1_655
Fe9 Mo0 2.953078 1_655
Fe9 Gd0 3.129562 1_565
Mo0 Mo1 2.450335 1_555
