# generated using pymatgen
data_ZrCd
_symmetry_space_group_name_H-M   'P 1'
_cell_length_a   5.84713000
_cell_length_b   5.84713000
_cell_length_c   24.03165400
_cell_angle_alpha   90.00000000
_cell_angle_beta   90.00000000
_cell_angle_gamma   90.00000000
_symmetry_Int_Tables_number   1
_chemical_formula_structural   ZrCd
_chemical_formula_sum   'Zr16 Cd16'
_cell_volume   821.61651805
_cell_formula_units_Z   16
loop_
 _symmetry_equiv_pos_site_id
 _symmetry_equiv_pos_as_xyz
  1  'x, y, z'
loop_
 _atom_site_type_symbol
 _atom_site_label
 _atom_site_symmetry_multiplicity
 _atom_site_fract_x
 _atom_site_fract_y
 _atom_site_fract_z
 _atom_site_occupancy
  Zr  Zr0_0  1  0.25000000  0.25000000  0.31194000  1
  Zr  Zr0_1  1  0.25000000  0.25000000  0.81194000  1
  Zr  Zr0_2  1  0.25000000  0.75000000  0.31194000  1
  Zr  Zr0_3  1  0.25000000  0.75000000  0.81194000  1
  Zr  Zr0_4  1  0.75000000  0.25000000  0.31194000  1
  Zr  Zr0_5  1  0.75000000  0.25000000  0.81194000  1
  Zr  Zr0_6  1  0.75000000  0.75000000  0.31194000  1
  Zr  Zr0_7  1  0.75000000  0.75000000  0.81194000  1
  Zr  Zr1_0  1  0.25000000  0.25000000  0.18806000  1
  Zr  Zr1_1  1  0.25000000  0.25000000  0.68806000  1
  Zr  Zr1_2  1  0.25000000  0.75000000  0.18806000  1
  Zr  Zr1_3  1  0.25000000  0.75000000  0.68806000  1
  Zr  Zr1_4  1  0.75000000  0.25000000  0.18806000  1
  Zr  Zr1_5  1  0.75000000  0.25000000  0.68806000  1
  Zr  Zr1_6  1  0.75000000  0.75000000  0.18806000  1
  Zr  Zr1_7  1  0.75000000  0.75000000  0.68806000  1
  Cd  Cd0_0  1  0.25000000  0.25000000  0.06203200  1
  Cd  Cd0_1  1  0.25000000  0.25000000  0.56203200  1
  Cd  Cd0_2  1  0.25000000  0.75000000  0.06203200  1
  Cd  Cd0_3  1  0.25000000  0.75000000  0.56203200  1
  Cd  Cd0_4  1  0.75000000  0.25000000  0.06203200  1
  Cd  Cd0_5  1  0.75000000  0.25000000  0.56203200  1
  Cd  Cd0_6  1  0.75000000  0.75000000  0.06203200  1
  Cd  Cd0_7  1  0.75000000  0.75000000  0.56203200  1
  Cd  Cd1_0  1  0.25000000  0.25000000  0.43796800  1
  Cd  Cd1_1  1  0.25000000  0.25000000  0.93796800  1
  Cd  Cd1_2  1  0.25000000  0.75000000  0.43796800  1
  Cd  Cd1_3  1  0.25000000  0.75000000  0.93796800  1
  Cd  Cd1_4  1  0.75000000  0.25000000  0.43796800  1
  Cd  Cd1_5  1  0.75000000  0.25000000  0.93796800  1
  Cd  Cd1_6  1  0.75000000  0.75000000  0.43796800  1
  Cd  Cd1_7  1  0.75000000  0.75000000  0.93796800  1
loop_
_geom_bond_atom_site_label_1
_geom_bond_atom_site_label_2
_geom_bond_distance
_geom_bond_site_symmetry_2
Zr0_0 Zr0_2 2.923565 1_555
Zr0_0 Zr0_2 2.923565 1_545
Zr0_0 Zr0_4 2.923565 1_455
Zr0_0 Zr0_4 2.923565 1_555
Zr0_0 Zr1_0 2.977041 1_555
Zr0_1 Zr0_3 2.923565 1_555
Zr0_1 Zr0_5 2.923565 1_455
Zr0_1 Zr0_3 2.923565 1_545
Zr0_1 Zr0_5 2.923565 1_555
Zr0_1 Zr1_1 2.977041 1_555
Zr0_2 Zr0_6 2.923565 1_555
Zr0_2 Zr0_6 2.923565 1_455
Zr0_2 Zr1_2 2.977041 1_555
Zr0_3 Zr0_7 2.923565 1_455
Zr0_3 Zr0_7 2.923565 1_555
Zr0_3 Zr1_3 2.977041 1_555
Zr0_4 Zr0_6 2.923565 1_545
Zr0_4 Zr0_6 2.923565 1_555
Zr0_4 Zr1_4 2.977041 1_555
Zr0_5 Zr0_7 2.923565 1_555
Zr0_5 Zr0_7 2.923565 1_545
Zr0_5 Zr1_5 2.977041 1_555
Zr0_6 Zr1_6 2.977041 1_555
Zr0_7 Zr1_7 2.977041 1_555
Zr1_0 Zr1_4 2.923565 1_555
Zr1_0 Zr1_4 2.923565 1_455
Zr1_0 Zr1_2 2.923565 1_555
Zr1_0 Zr1_2 2.923565 1_545
Zr1_1 Zr1_5 2.923565 1_455
Zr1_1 Zr1_3 2.923565 1_545
Zr1_1 Zr1_5 2.923565 1_555
Zr1_1 Zr1_3 2.923565 1_555
Zr1_2 Zr1_6 2.923565 1_455
Zr1_2 Zr1_6 2.923565 1_555
Zr1_3 Zr1_7 2.923565 1_555
Zr1_3 Zr1_7 2.923565 1_455
Zr1_4 Zr1_6 2.923565 1_545
Zr1_4 Zr1_6 2.923565 1_555
Zr1_5 Zr1_7 2.923565 1_555
Zr1_5 Zr1_7 2.923565 1_545
Cd0_0 Cd0_4 2.923565 1_555
Cd0_0 Cd0_2 2.923565 1_545
Cd0_0 Cd0_2 2.923565 1_555
Cd0_0 Cd0_4 2.923565 1_455
Cd0_0 Cd1_1 2.981463 1_554
Cd0_0 Zr1_0 3.028661 1_555
Cd0_1 Cd0_3 2.923565 1_555
Cd0_1 Cd0_3 2.923565 1_545
Cd0_1 Cd0_5 2.923565 1_455
Cd0_1 Cd0_5 2.923565 1_555
Cd0_1 Cd1_0 2.981463 1_555
Cd0_1 Zr1_1 3.028661 1_555
Cd0_2 Cd0_6 2.923565 1_455
Cd0_2 Cd0_6 2.923565 1_555
Cd0_2 Cd1_3 2.981463 1_554
Cd0_2 Zr1_2 3.028661 1_555
Cd0_3 Cd0_7 2.923565 1_455
Cd0_3 Cd0_7 2.923565 1_555
Cd0_3 Cd1_2 2.981463 1_555
Cd0_3 Zr1_3 3.028661 1_555
Cd0_4 Cd0_6 2.923565 1_545
Cd0_4 Cd0_6 2.923565 1_555
Cd0_4 Cd1_5 2.981463 1_554
Cd0_4 Zr1_4 3.028661 1_555
Cd0_5 Cd0_7 2.923565 1_555
Cd0_5 Cd0_7 2.923565 1_545
Cd0_5 Cd1_4 2.981463 1_555
Cd0_5 Zr1_5 3.028661 1_555
Cd0_6 Cd1_7 2.981463 1_554
Cd0_6 Zr1_6 3.028661 1_555
Cd0_7 Cd1_6 2.981463 1_555
Cd0_7 Zr1_7 3.028661 1_555
Cd1_0 Cd1_4 2.923565 1_455
Cd1_0 Cd1_2 2.923565 1_555
Cd1_0 Cd1_4 2.923565 1_555
Cd1_0 Cd1_2 2.923565 1_545
Cd1_0 Zr0_0 3.028661 1_555
Cd1_1 Cd1_5 2.923565 1_455
Cd1_1 Cd1_3 2.923565 1_545
Cd1_1 Cd1_5 2.923565 1_555
Cd1_1 Cd1_3 2.923565 1_555
Cd1_1 Zr0_1 3.028661 1_555
Cd1_2 Cd1_6 2.923565 1_455
Cd1_2 Cd1_6 2.923565 1_555
Cd1_2 Zr0_2 3.028661 1_555
Cd1_3 Cd1_7 2.923565 1_555
Cd1_3 Cd1_7 2.923565 1_455
Cd1_3 Zr0_3 3.028661 1_555
Cd1_4 Cd1_6 2.923565 1_545
Cd1_4 Cd1_6 2.923565 1_555
Cd1_4 Zr0_4 3.028661 1_555
Cd1_5 Cd1_7 2.923565 1_545
Cd1_5 Cd1_7 2.923565 1_555
Cd1_5 Zr0_5 3.028661 1_555
Cd1_6 Zr0_6 3.028661 1_555
Cd1_7 Zr0_7 3.028661 1_555
