# generated using pymatgen
data_Pm(Mg4Al3)4
_symmetry_space_group_name_H-M   'P 1'
_cell_length_a   9.15358021
_cell_length_b   9.15358021
_cell_length_c   9.15358021
_cell_angle_alpha   109.47122063
_cell_angle_beta   109.47122063
_cell_angle_gamma   109.47122063
_symmetry_Int_Tables_number   1
_chemical_formula_structural   Pm(Mg4Al3)4
_chemical_formula_sum   'Pm1 Mg16 Al12'
_cell_volume   590.40643741
_cell_formula_units_Z   1
loop_
 _symmetry_equiv_pos_site_id
 _symmetry_equiv_pos_as_xyz
  1  'x, y, z'
loop_
 _atom_site_type_symbol
 _atom_site_label
 _atom_site_symmetry_multiplicity
 _atom_site_fract_x
 _atom_site_fract_y
 _atom_site_fract_z
 _atom_site_occupancy
  Pm  Pm0  1  0.00000000  0.00000000  0.00000000  1
  Mg  Mg0  1  0.71679200  0.31945200  0.31945200  1
  Mg  Mg1  1  0.28320800  0.60266000  0.60266000  1
  Mg  Mg2  1  0.36100700  0.36100700  0.36100700  1
  Mg  Mg3  1  0.63899300  0.00000000  0.00000000  1
  Mg  Mg4  1  0.00000000  0.68054800  0.39734000  1
  Mg  Mg5  1  0.39734000  0.00000000  0.68054800  1
  Mg  Mg6  1  0.60266000  0.60266000  0.28320800  1
  Mg  Mg7  1  0.00000000  0.00000000  0.63899300  1
  Mg  Mg8  1  0.68054800  0.39734000  0.00000000  1
  Mg  Mg9  1  0.31945200  0.71679200  0.31945200  1
  Mg  Mg10  1  0.31945200  0.31945200  0.71679200  1
  Mg  Mg11  1  0.68054800  0.00000000  0.39734000  1
  Mg  Mg12  1  0.00000000  0.63899300  0.00000000  1
  Mg  Mg13  1  0.39734000  0.68054800  0.00000000  1
  Mg  Mg14  1  0.60266000  0.28320800  0.60266000  1
  Mg  Mg15  1  0.00000000  0.39734000  0.68054800  1
  Al  Al0  1  0.18321500  0.81288100  0.81288100  1
  Al  Al1  1  0.81678500  0.62966600  0.62966600  1
  Al  Al2  1  0.00000000  0.37033400  0.18711900  1
  Al  Al3  1  0.37033400  0.18711900  0.00000000  1
  Al  Al4  1  0.62966600  0.81678500  0.62966600  1
  Al  Al5  1  0.18711900  0.37033400  0.00000000  1
  Al  Al6  1  0.81288100  0.18321500  0.81288100  1
  Al  Al7  1  0.81288100  0.81288100  0.18321500  1
  Al  Al8  1  0.18711900  0.00000000  0.37033400  1
  Al  Al9  1  0.62966600  0.62966600  0.81678500  1
  Al  Al10  1  0.37033400  0.00000000  0.18711900  1
  Al  Al11  1  0.00000000  0.18711900  0.37033400  1
loop_
_geom_bond_atom_site_label_1
_geom_bond_atom_site_label_2
_geom_bond_distance
_geom_bond_site_symmetry_2
Mg0 Mg3 3.021810 1_555
Mg0 Mg15 3.104550 1_655
Mg0 Mg4 3.104550 1_655
Mg0 Mg14 3.173278 1_555
Mg0 Mg6 3.173278 1_555
Mg0 Mg8 3.173278 1_555
Mg0 Mg11 3.173278 1_555
Mg1 Mg2 3.021810 1_555
Mg1 Mg15 3.104550 1_555
Mg1 Mg4 3.104550 1_555
Mg1 Mg10 3.173278 1_555
Mg1 Mg13 3.173278 1_556
Mg1 Mg9 3.173278 1_555
Mg1 Mg5 3.173278 1_565
Mg2 Mg6 3.021810 1_555
Mg2 Pm0 3.304507 1_555
Mg3 Mg5 3.021810 1_554
Mg3 Pm0 3.304507 1_655
Mg4 Mg7 3.021810 1_565
Mg4 Mg8 3.173278 1_455
Mg4 Mg6 3.173278 1_455
Mg4 Mg9 3.173278 1_555
Mg4 Mg5 3.173278 1_565
Mg5 Mg9 3.104550 1_545
Mg5 Mg8 3.173278 1_556
Mg6 Mg8 3.104550 1_555
Mg6 Mg9 3.173278 1_555
Mg7 Pm0 3.304507 1_556
Mg10 Mg7 3.021810 1_555
Mg10 Mg8 3.104550 1_556
Mg10 Mg13 3.104550 1_556
Mg10 Mg14 3.173278 1_555
Mg10 Mg15 3.173278 1_555
Mg10 Mg5 3.173278 1_555
Mg11 Mg7 3.021810 1_655
Mg11 Mg14 3.104550 1_555
Mg11 Mg9 3.104550 1_545
Mg11 Mg6 3.173278 1_545
Mg11 Mg15 3.173278 1_655
Mg11 Mg13 3.173278 1_545
Mg12 Mg8 3.021810 1_455
Mg12 Mg15 3.021810 1_554
Mg12 Mg9 3.021810 1_555
Mg12 Pm0 3.304507 1_565
Mg13 Mg3 3.021810 1_565
Mg13 Mg6 3.104550 1_555
Mg13 Mg9 3.173278 1_555
Mg13 Mg15 3.173278 1_554
Mg14 Mg2 3.021810 1_555
Mg14 Mg5 3.104550 1_555
Mg14 Mg8 3.173278 1_556
Mg14 Mg15 3.173278 1_655
Al0 Al1 2.738649 1_455
Al0 Al10 2.797005 1_566
Al0 Al3 2.797005 1_566
Al0 Mg1 2.850130 1_555
Al0 Mg5 2.995087 1_565
Al0 Mg13 2.995087 1_556
Al0 Mg15 3.173205 1_555
Al0 Mg4 3.173205 1_555
Al0 Mg12 3.198861 1_556
Al0 Mg7 3.198861 1_565
Al0 Pm0 3.248723 1_566
Al1 Al9 2.797005 1_555
Al1 Al4 2.797005 1_555
Al1 Mg0 2.850130 1_555
Al1 Mg14 2.995087 1_555
Al1 Mg6 2.995087 1_555
Al1 Mg15 3.173205 1_655
Al1 Mg4 3.173205 1_655
Al1 Mg7 3.198861 1_665
Al1 Mg12 3.198861 1_656
Al1 Pm0 3.248723 1_666
Al2 Al5 2.797005 1_555
Al2 Al6 2.797005 1_454
Al2 Mg4 2.850130 1_555
Al2 Mg8 2.995087 1_455
Al2 Mg9 2.995087 1_555
Al2 Mg1 3.173205 1_555
Al2 Mg0 3.173205 1_455
Al2 Mg3 3.198861 1_455
Al2 Mg2 3.198861 1_555
Al2 Pm0 3.248723 1_555
Al3 Al5 2.738649 1_555
Al3 Mg8 2.850130 1_555
Al3 Mg0 2.995087 1_555
Al3 Mg5 2.995087 1_554
Al3 Mg6 3.173205 1_555
Al3 Mg10 3.173205 1_554
Al3 Mg7 3.198861 1_554
Al3 Mg2 3.198861 1_555
Al3 Pm0 3.248723 1_555
Al4 Al6 2.738649 1_565
Al4 Al9 2.797005 1_555
Al4 Mg9 2.850130 1_555
Al4 Mg6 2.995087 1_555
Al4 Mg1 2.995087 1_555
Al4 Mg11 3.173205 1_565
Al4 Mg5 3.173205 1_565
Al4 Mg7 3.198861 1_665
Al4 Mg3 3.198861 1_566
Al4 Pm0 3.248723 1_666
Al5 Al6 2.797005 1_454
Al5 Mg13 2.850130 1_555
Al5 Mg15 2.995087 1_554
Al5 Mg9 2.995087 1_555
Al5 Mg6 3.173205 1_555
Al5 Mg10 3.173205 1_554
Al5 Mg7 3.198861 1_554
Al5 Mg2 3.198861 1_555
Al5 Pm0 3.248723 1_555
Al6 Mg14 2.850130 1_555
Al6 Mg8 2.995087 1_556
Al6 Mg15 2.995087 1_655
Al6 Mg5 3.173205 1_555
Al6 Mg11 3.173205 1_555
Al6 Mg7 3.198861 1_655
Al6 Mg3 3.198861 1_556
Al6 Pm0 3.248723 1_656
Al7 Al9 2.738649 1_554
Al7 Al8 2.797005 1_665
Al7 Mg6 2.850130 1_555
Al7 Mg11 2.995087 1_565
Al7 Mg4 2.995087 1_655
Al7 Mg13 3.173205 1_555
Al7 Mg8 3.173205 1_555
Al7 Mg12 3.198861 1_655
Al7 Mg3 3.198861 1_565
Al7 Pm0 3.248723 1_665
Al8 Mg5 2.850130 1_555
Al8 Mg4 2.995087 1_545
Al8 Mg10 2.995087 1_555
Al8 Mg14 3.173205 1_555
Al8 Mg9 3.173205 1_545
Al8 Mg2 3.198861 1_555
Al8 Mg12 3.198861 1_545
Al8 Pm0 3.248723 1_555
Al9 Mg10 2.850130 1_555
Al9 Mg1 2.995087 1_555
Al9 Mg14 2.995087 1_555
Al9 Mg8 3.173205 1_556
Al9 Mg13 3.173205 1_556
Al9 Mg12 3.198861 1_656
Al9 Mg3 3.198861 1_566
Al9 Pm0 3.248723 1_666
Al10 Al8 2.738649 1_555
Al10 Al3 2.797005 1_555
Al10 Mg11 2.850130 1_555
Al10 Mg13 2.995087 1_545
Al10 Mg0 2.995087 1_555
Al10 Mg14 3.173205 1_555
Al10 Mg9 3.173205 1_545
Al10 Mg2 3.198861 1_555
Al10 Mg12 3.198861 1_545
Al10 Pm0 3.248723 1_555
Al11 Al2 2.738649 1_555
Al11 Al8 2.797005 1_555
Al11 Al7 2.797005 1_445
Al11 Mg15 2.850130 1_555
Al11 Mg11 2.995087 1_455
Al11 Mg10 2.995087 1_555
Al11 Mg1 3.173205 1_555
Al11 Mg0 3.173205 1_455
Al11 Mg3 3.198861 1_455
Al11 Mg2 3.198861 1_555
Al11 Pm0 3.248723 1_555
