# generated using pymatgen
data_MgV4(CuO4)3
_symmetry_space_group_name_H-M   'P 1'
_cell_length_a   6.37804871
_cell_length_b   6.36679743
_cell_length_c   6.37964167
_cell_angle_alpha   109.64982844
_cell_angle_beta   109.39620159
_cell_angle_gamma   109.42870689
_symmetry_Int_Tables_number   1
_chemical_formula_structural   MgV4(CuO4)3
_chemical_formula_sum   'Mg1 V4 Cu3 O12'
_cell_volume   199.27535338
_cell_formula_units_Z   1
loop_
 _symmetry_equiv_pos_site_id
 _symmetry_equiv_pos_as_xyz
  1  'x, y, z'
loop_
 _atom_site_type_symbol
 _atom_site_label
 _atom_site_symmetry_multiplicity
 _atom_site_fract_x
 _atom_site_fract_y
 _atom_site_fract_z
 _atom_site_occupancy
  Mg  Mg0  1  0.99997700  0.99992600  0.99998600  1
  V  V0  1  0.50002100  0.50010500  0.50008900  1
  V  V1  1  0.99993500  0.49987000  0.99992400  1
  V  V2  1  0.00008800  0.00010700  0.50015400  1
  V  V3  1  0.50002900  0.00005900  0.99996900  1
  Cu  Cu0  1  0.99992600  0.49989100  0.49992300  1
  Cu  Cu1  1  0.50002000  0.49999100  0.00000500  1
  Cu  Cu2  1  0.50000200  0.99997500  0.49998200  1
  O  O0  1  0.12383200  0.81662400  0.29285400  1
  O  O1  1  0.82258100  0.69846100  0.52731000  1
  O  O2  1  0.29972400  0.47363000  0.17656500  1
  O  O3  1  0.18427800  0.70579400  0.87776500  1
  O  O4  1  0.70032600  0.52645400  0.82347500  1
  O  O5  1  0.17742100  0.30148700  0.47263200  1
  O  O6  1  0.69128900  0.87629300  0.17165200  1
  O  O7  1  0.30876300  0.12374800  0.82839800  1
  O  O8  1  0.81572100  0.29421000  0.12225900  1
  O  O9  1  0.51908600  0.82473700  0.70085100  1
  O  O10  1  0.48086800  0.17523300  0.29909100  1
  O  O11  1  0.87611400  0.18340600  0.70711600  1
loop_
_geom_bond_atom_site_label_1
_geom_bond_atom_site_label_2
_geom_bond_distance
_geom_bond_site_symmetry_2
Mg0 O5 2.540376 1_666
Mg0 O1 2.540460 1_555
Mg0 O4 2.542181 1_555
Mg0 O2 2.543382 1_666
Mg0 O0 2.564448 1_656
Mg0 O11 2.565379 1_565
Mg0 O3 2.566680 1_655
Mg0 O8 2.567275 1_566
Mg0 O6 2.583830 1_556
Mg0 O7 2.584177 1_665
Mg0 O10 2.587885 1_666
Mg0 O9 2.588082 1_555
Cu0 O5 1.960082 1_655
Cu0 O1 1.960189 1_555
Cu0 O8 1.968397 1_555
Cu0 O3 1.969357 1_655
Cu1 O7 1.957059 1_554
Cu1 O6 1.957357 1_555
Cu1 O4 1.966958 1_554
Cu1 O2 1.967023 1_555
Cu2 O9 1.962165 1_555
Cu2 O10 1.962394 1_565
Cu2 O11 1.964049 1_565
Cu2 O0 1.964361 1_555
O0 V1 1.899526 1_454
O0 V2 2.001053 1_565
O1 V0 1.935017 1_555
O1 V2 1.976793 1_665
O2 V0 1.947266 1_555
O2 V1 1.965147 1_454
O3 V3 1.907446 1_565
O3 V1 1.994727 1_455
O4 V0 1.946957 1_555
O4 V1 1.965193 1_555
O5 V0 1.934947 1_555
O5 V2 1.976524 1_555
O6 V3 1.908178 1_564
O6 V2 2.001760 1_665
O7 V3 1.907442 1_555
O7 V2 2.000708 1_555
O8 V3 1.906715 1_554
O8 V1 1.994226 1_554
O9 V3 1.927172 1_565
O9 V0 1.968791 1_555
O10 V3 1.927329 1_554
O10 V0 1.970164 1_555
O11 V1 1.898180 1_555
O11 V2 2.000377 1_655
