# generated using pymatgen
data_Mg14TiV
_symmetry_space_group_name_H-M   'P 1'
_cell_length_a   6.31890207
_cell_length_b   6.21615806
_cell_length_c   10.12664354
_cell_angle_alpha   90.00000000
_cell_angle_beta   90.00000000
_cell_angle_gamma   119.46357769
_symmetry_Int_Tables_number   1
_chemical_formula_structural   Mg14TiV
_chemical_formula_sum   'Mg14 Ti1 V1'
_cell_volume   346.32357261
_cell_formula_units_Z   1
loop_
 _symmetry_equiv_pos_site_id
 _symmetry_equiv_pos_as_xyz
  1  'x, y, z'
loop_
 _atom_site_type_symbol
 _atom_site_label
 _atom_site_symmetry_multiplicity
 _atom_site_fract_x
 _atom_site_fract_y
 _atom_site_fract_z
 _atom_site_occupancy
  Mg  Mg0  1  0.16633247  0.33316573  0.62500000  1
  Mg  Mg1  1  0.16677020  0.83338460  0.62500000  1
  Mg  Mg2  1  0.66232134  0.33329811  0.12500000  1
  Mg  Mg3  1  0.66536370  0.33215106  0.62500000  1
  Mg  Mg4  1  0.66232134  0.82902223  0.12500000  1
  Mg  Mg5  1  0.66536370  0.83321164  0.62500000  1
  Mg  Mg6  1  0.32909858  0.16462444  0.36737897  1
  Mg  Mg7  1  0.32909858  0.16462444  0.88262103  1
  Mg  Mg8  1  0.32909858  0.66447513  0.36737897  1
  Mg  Mg9  1  0.32909858  0.66447513  0.88262103  1
  Mg  Mg10  1  0.84173118  0.17086609  0.36911369  1
  Mg  Mg11  1  0.84173118  0.17086609  0.88088631  1
  Mg  Mg12  1  0.84150669  0.67075384  0.37239793  1
  Mg  Mg13  1  0.84150669  0.67075384  0.87760207  1
  Ti  Ti0  1  0.16285814  0.83142857  0.12500000  1
  V  V0  1  0.16579907  0.33289904  0.12500000  1
loop_
_geom_bond_atom_site_label_1
_geom_bond_atom_site_label_2
_geom_bond_distance
_geom_bond_site_symmetry_2
Mg0 Mg1 3.108080 1_545
Mg0 Mg1 3.108080 1_555
Mg0 Mg10 3.147052 1_455
Mg0 Mg11 3.147052 1_455
Mg0 Mg5 3.156436 1_555
Mg0 Mg3 3.156437 1_555
Mg0 Mg5 3.162475 1_445
Mg0 Mg3 3.162475 1_455
Mg0 Mg6 3.165675 1_555
Mg0 Mg7 3.165675 1_555
Mg0 Mg8 3.165681 1_555
Mg0 Mg9 3.165681 1_555
Mg1 Mg12 3.121811 1_455
Mg1 Mg13 3.121811 1_455
Mg1 Mg3 3.151092 1_565
Mg1 Mg5 3.151092 1_555
Mg1 Mg8 3.165450 1_555
Mg1 Mg9 3.165450 1_555
Mg1 Mg6 3.165456 1_565
Mg1 Mg7 3.165456 1_565
Mg1 Mg3 3.167810 1_455
Mg1 Mg5 3.167810 1_455
Mg2 Mg7 3.063590 1_554
Mg2 Mg6 3.063590 1_555
Mg2 Mg4 3.081499 1_555
Mg2 Mg4 3.134659 1_545
Mg2 V0 3.136256 1_555
Mg2 Ti0 3.155512 1_655
Mg2 Ti0 3.163443 1_545
Mg2 V0 3.182647 1_655
Mg3 Mg5 3.101486 1_545
Mg3 Mg5 3.114672 1_555
Mg3 Mg6 3.198220 1_555
Mg3 Mg7 3.198220 1_555
Mg4 Mg9 3.063590 1_554
Mg4 Mg8 3.063590 1_555
Mg4 V0 3.136256 1_555
Mg4 Ti0 3.155512 1_655
Mg4 Ti0 3.163443 1_555
Mg4 V0 3.182647 1_665
Mg5 Mg8 3.198220 1_555
Mg5 Mg9 3.198220 1_555
Mg6 V0 3.040598 1_555
Mg6 Ti0 3.045898 1_545
Mg6 Mg8 3.107151 1_555
Mg6 Mg8 3.109007 1_545
Mg7 V0 3.040598 1_556
Mg7 Ti0 3.045898 1_546
Mg7 Mg9 3.107151 1_555
Mg7 Mg9 3.109007 1_545
Mg8 V0 3.040604 1_555
Mg8 Ti0 3.045891 1_555
Mg9 V0 3.040604 1_556
Mg9 Ti0 3.045891 1_556
Mg10 V0 3.047922 1_655
Mg10 Mg2 3.088984 1_555
Mg10 Mg4 3.088990 1_545
Mg10 Mg8 3.098945 1_655
Mg10 Mg6 3.098945 1_655
Mg10 Mg12 3.108257 1_555
Mg10 Mg12 3.108257 1_545
Mg10 Mg3 3.171904 1_555
Mg10 Mg5 3.171910 1_545
Mg10 Mg8 3.220416 1_545
Mg10 Mg6 3.220416 1_555
Mg11 V0 3.047922 1_656
Mg11 Mg2 3.088984 1_556
Mg11 Mg4 3.088990 1_546
Mg11 Mg9 3.098945 1_655
Mg11 Mg7 3.098945 1_655
Mg11 Mg13 3.108257 1_555
Mg11 Mg13 3.108257 1_545
Mg11 Mg3 3.171904 1_555
Mg11 Mg5 3.171910 1_545
Mg11 Mg9 3.220416 1_545
Mg11 Mg7 3.220416 1_555
Mg12 Ti0 3.066317 1_655
Mg12 Mg6 3.100845 1_665
Mg12 Mg8 3.100846 1_655
Mg12 Mg4 3.101985 1_555
Mg12 Mg2 3.101991 1_555
Mg12 Mg5 3.147668 1_555
Mg12 Mg3 3.147674 1_555
Mg12 Mg6 3.219240 1_555
Mg12 Mg8 3.219240 1_555
Mg13 Ti0 3.066317 1_656
Mg13 Mg7 3.100845 1_665
Mg13 Mg9 3.100846 1_655
Mg13 Mg4 3.101985 1_556
Mg13 Mg2 3.101991 1_556
Mg13 Mg5 3.147668 1_555
Mg13 Mg3 3.147674 1_555
Mg13 Mg7 3.219240 1_555
Mg13 Mg9 3.219240 1_555
Ti0 V0 3.108121 1_555
Ti0 V0 3.108121 1_565
