# generated using pymatgen
data_BaTiMn2(SiO5)2
_symmetry_space_group_name_H-M   'P 1'
_cell_length_a   5.40664574
_cell_length_b   6.90965000
_cell_length_c   11.49844215
_cell_angle_alpha   90.00000000
_cell_angle_beta   96.46058370
_cell_angle_gamma   90.00000000
_symmetry_Int_Tables_number   1
_chemical_formula_structural   BaTiMn2(SiO5)2
_chemical_formula_sum   'Ba2 Ti2 Mn4 Si4 O20'
_cell_volume   426.83122705
_cell_formula_units_Z   2
loop_
 _symmetry_equiv_pos_site_id
 _symmetry_equiv_pos_as_xyz
  1  'x, y, z'
loop_
 _atom_site_type_symbol
 _atom_site_label
 _atom_site_symmetry_multiplicity
 _atom_site_fract_x
 _atom_site_fract_y
 _atom_site_fract_z
 _atom_site_occupancy
  Ba  Ba0  1  0.76686200  0.25000000  0.56899900  1
  Ba  Ba1  1  0.23313800  0.75000000  0.43100100  1
  Ti  Ti0  1  0.22904000  0.25000000  0.33626600  1
  Ti  Ti1  1  0.77096000  0.75000000  0.66373400  1
  Mn  Mn0  1  0.50408200  0.25000000  0.00320800  1
  Mn  Mn1  1  0.49591800  0.75000000  0.99679200  1
  Mn  Mn2  1  0.00000000  0.50000000  0.00000000  1
  Mn  Mn3  1  0.00000000  0.00000000  0.00000000  1
  Si  Si0  1  0.29600300  0.48077700  0.75456000  1
  Si  Si1  1  0.70399700  0.98077700  0.24544000  1
  Si  Si2  1  0.70399700  0.51922300  0.24544000  1
  Si  Si3  1  0.29600300  0.01922300  0.75456000  1
  O  O0  1  0.65871500  0.48805400  0.10139700  1
  O  O1  1  0.34128500  0.98805400  0.89860300  1
  O  O2  1  0.34128500  0.51194600  0.89860300  1
  O  O3  1  0.65871500  0.01194600  0.10139700  1
  O  O4  1  0.80657500  0.25000000  0.93295800  1
  O  O5  1  0.19342500  0.75000000  0.06704200  1
  O  O6  1  0.25144900  0.25000000  0.48739100  1
  O  O7  1  0.74855100  0.75000000  0.51260900  1
  O  O8  1  0.19476500  0.25000000  0.06799400  1
  O  O9  1  0.80523500  0.75000000  0.93200600  1
  O  O10  1  0.28115800  0.25000000  0.73514000  1
  O  O11  1  0.71884200  0.75000000  0.26486000  1
  O  O12  1  0.47821000  0.44661400  0.31547600  1
  O  O13  1  0.52179000  0.94661400  0.68452400  1
  O  O14  1  0.52179000  0.55338600  0.68452400  1
  O  O15  1  0.47821000  0.05338600  0.31547600  1
  O  O16  1  0.97431900  0.44579600  0.30309200  1
  O  O17  1  0.02568100  0.94579600  0.69690800  1
  O  O18  1  0.02568100  0.55420400  0.69690800  1
  O  O19  1  0.97431900  0.05420400  0.30309200  1
loop_
_geom_bond_atom_site_label_1
_geom_bond_atom_site_label_2
_geom_bond_distance
_geom_bond_site_symmetry_2
Ba0 O6 2.838578 1_555
Ba0 O18 2.841882 1_655
Ba0 O17 2.841882 1_645
Ba0 O6 2.880649 1_655
Ba0 O14 2.882834 1_555
Ba0 O13 2.882834 1_545
Ba1 O7 2.838578 1_555
Ba1 O19 2.841882 1_465
Ba1 O16 2.841882 1_455
Ba1 O7 2.880649 1_455
Ba1 O15 2.882834 1_565
Ba1 O12 2.882834 1_555
Mn0 O4 1.903825 1_554
Mn0 O8 1.905807 1_555
Mn0 O3 2.113490 1_555
Mn0 O0 2.113490 1_555
Mn0 O2 2.293280 1_554
Mn0 O1 2.293280 1_544
Mn1 O5 1.903825 1_556
Mn1 O9 1.905807 1_555
Mn1 O1 2.113490 1_555
Mn1 O2 2.113490 1_555
Mn1 O3 2.293280 1_566
Mn1 O0 2.293280 1_556
Mn2 O5 2.119067 1_555
Mn2 O4 2.119067 1_454
Mn2 O8 2.125746 1_555
Mn2 O9 2.125746 1_454
Mn2 O0 2.292396 1_455
Mn2 O2 2.292396 1_554
Mn3 O5 2.119067 1_545
Mn3 O4 2.119067 1_454
Mn3 O8 2.125746 1_555
Mn3 O9 2.125746 1_444
Mn3 O3 2.292396 1_455
Mn3 O1 2.292396 1_544
O0 Si2 1.660813 1_555
O1 Si3 1.660813 1_565
O2 Si0 1.660813 1_555
O3 Si1 1.660813 1_545
O6 Ti0 1.728268 1_555
O7 Ti1 1.728268 1_555
O10 Si0 1.610895 1_555
O10 Si3 1.610895 1_555
O11 Si1 1.610895 1_555
O11 Si2 1.610895 1_555
O12 Si2 1.616070 1_555
O12 Ti0 1.946821 1_555
O13 Si3 1.616070 1_565
O13 Ti1 1.946821 1_555
O14 Si0 1.616070 1_555
O14 Ti1 1.946821 1_555
O15 Si1 1.616070 1_545
O15 Ti0 1.946821 1_555
O16 Si2 1.617068 1_555
O16 Ti0 1.937580 1_655
O17 Si3 1.617068 1_565
O17 Ti1 1.937580 1_455
O18 Si0 1.617068 1_555
O18 Ti1 1.937580 1_455
O19 Si1 1.617068 1_545
O19 Ti0 1.937580 1_655
