# generated using pymatgen
data_Na2Cu4P2ClO9
_symmetry_space_group_name_H-M   'P 1'
_cell_length_a   8.59435003
_cell_length_b   8.59435003
_cell_length_c   6.52748300
_cell_angle_alpha   90.00000000
_cell_angle_beta   90.00000000
_cell_angle_gamma   105.00397974
_symmetry_Int_Tables_number   1
_chemical_formula_structural   Na2Cu4P2ClO9
_chemical_formula_sum   'Na4 Cu8 P4 Cl2 O18'
_cell_volume   465.70137299
_cell_formula_units_Z   2
loop_
 _symmetry_equiv_pos_site_id
 _symmetry_equiv_pos_as_xyz
  1  'x, y, z'
loop_
 _atom_site_type_symbol
 _atom_site_label
 _atom_site_symmetry_multiplicity
 _atom_site_fract_x
 _atom_site_fract_y
 _atom_site_fract_z
 _atom_site_occupancy
  Na  Na0  1  0.30518200  0.69481800  0.00000000  1
  Na  Na1  1  0.30518200  0.69481800  0.50000000  1
  Na  Na2  1  0.69481800  0.30518200  0.00000000  1
  Na  Na3  1  0.69481800  0.30518200  0.50000000  1
  Cu  Cu0  1  0.68748100  0.91523000  0.25000000  1
  Cu  Cu1  1  0.08477000  0.31251900  0.75000000  1
  Cu  Cu2  1  0.31251900  0.08477000  0.75000000  1
  Cu  Cu3  1  0.91523000  0.68748100  0.25000000  1
  Cu  Cu4  1  0.00000000  0.00000000  0.50000000  1
  Cu  Cu5  1  0.00000000  0.00000000  0.00000000  1
  Cu  Cu6  1  0.37710800  0.37710800  0.25000000  1
  Cu  Cu7  1  0.62289200  0.62289200  0.75000000  1
  P  P0  1  0.36869300  0.03679200  0.25000000  1
  P  P1  1  0.96320800  0.63130700  0.75000000  1
  P  P2  1  0.63130700  0.96320800  0.75000000  1
  P  P3  1  0.03679200  0.36869300  0.25000000  1
  Cl  Cl0  1  0.60043800  0.60043800  0.25000000  1
  Cl  Cl1  1  0.39956200  0.39956200  0.75000000  1
  O  O0  1  0.26173200  0.01385200  0.44399800  1
  O  O1  1  0.98614800  0.73826800  0.55600200  1
  O  O2  1  0.26173200  0.01385200  0.05600200  1
  O  O3  1  0.98614800  0.73826800  0.94399800  1
  O  O4  1  0.73826800  0.98614800  0.55600200  1
  O  O5  1  0.01385200  0.26173200  0.44399800  1
  O  O6  1  0.73826800  0.98614800  0.94399800  1
  O  O7  1  0.01385200  0.26173200  0.05600200  1
  O  O8  1  0.45854200  0.90054000  0.25000000  1
  O  O9  1  0.09946000  0.54145800  0.75000000  1
  O  O10  1  0.54145800  0.09946000  0.75000000  1
  O  O11  1  0.90054000  0.45854200  0.25000000  1
  O  O12  1  0.49123400  0.20715200  0.25000000  1
  O  O13  1  0.79284800  0.50876600  0.75000000  1
  O  O14  1  0.50876600  0.79284800  0.75000000  1
  O  O15  1  0.20715200  0.49123400  0.25000000  1
  O  O16  1  0.91181300  0.91181300  0.25000000  1
  O  O17  1  0.08818700  0.08818700  0.75000000  1
loop_
_geom_bond_atom_site_label_1
_geom_bond_atom_site_label_2
_geom_bond_distance
_geom_bond_site_symmetry_2
Na0 O15 2.381369 1_555
Na0 O14 2.381369 1_554
Na0 O9 2.513883 1_554
Na0 O8 2.513883 1_555
Na0 O3 2.884645 1_454
Na0 O2 2.884645 1_565
Na1 O15 2.381369 1_555
Na1 O14 2.381369 1_555
Na1 O9 2.513883 1_555
Na1 O8 2.513883 1_555
Na1 O1 2.884645 1_455
Na1 O0 2.884645 1_565
Na2 O12 2.381369 1_555
Na2 O13 2.381369 1_554
Na2 O10 2.513883 1_554
Na2 O11 2.513883 1_555
Na2 O6 2.884645 1_544
Na2 O7 2.884645 1_655
Na3 O12 2.381369 1_555
Na3 O13 2.381369 1_555
Na3 O10 2.513883 1_555
Na3 O11 2.513883 1_555
Na3 O4 2.884645 1_545
Na3 O5 2.884645 1_655
Cu0 O16 1.935798 1_555
Cu0 O8 1.938736 1_555
Cu0 O6 2.100941 1_554
Cu0 O4 2.100941 1_555
Cu1 O17 1.935798 1_555
Cu1 O9 1.938736 1_555
Cu1 O7 2.100941 1_556
Cu1 O5 2.100941 1_555
Cu2 O17 1.935798 1_555
Cu2 O10 1.938736 1_555
Cu2 O2 2.100941 1_556
Cu2 O0 2.100941 1_555
Cu3 O16 1.935798 1_555
Cu3 O11 1.938736 1_555
Cu3 O1 2.100941 1_555
Cu3 O3 2.100941 1_554
Cu4 O17 1.874683 1_555
Cu4 O16 1.874683 1_445
Cu4 O5 2.251449 1_555
Cu4 O0 2.251449 1_555
Cu4 O4 2.251449 1_445
Cu4 O1 2.251449 1_445
Cu5 O17 1.874683 1_554
Cu5 O16 1.874683 1_445
Cu5 O7 2.251449 1_555
Cu5 O2 2.251449 1_555
Cu5 O6 2.251449 1_444
Cu5 O3 2.251449 1_444
Cu6 O15 1.958922 1_555
Cu6 O12 1.958922 1_555
Cu7 O14 1.958922 1_555
Cu7 O13 1.958922 1_555
Cl0 Cu6 2.336779 1_555
Cl0 Cu3 2.613634 1_555
Cl0 Cu0 2.613634 1_555
Cl1 Cu7 2.336779 1_555
Cl1 Cu1 2.613634 1_555
Cl1 Cu2 2.613634 1_555
O0 P0 1.547137 1_555
O1 P1 1.547137 1_555
O2 P0 1.547137 1_555
O3 P1 1.547137 1_555
O4 P2 1.547137 1_555
O5 P3 1.547137 1_555
O6 P2 1.547137 1_555
O7 P3 1.547137 1_555
O8 P0 1.560675 1_565
O9 P1 1.560675 1_455
O10 P2 1.560675 1_545
O11 P3 1.560675 1_655
O12 P0 1.566667 1_555
O13 P1 1.566667 1_555
O14 P2 1.566667 1_555
O15 P3 1.566667 1_555
