# generated using pymatgen
data_Li3Cr4(PO4)6
_symmetry_space_group_name_H-M   'P 1'
_cell_length_a   9.72921545
_cell_length_b   9.81075939
_cell_length_c   9.79689478
_cell_angle_alpha   85.87335473
_cell_angle_beta   94.26812155
_cell_angle_gamma   94.52592587
_symmetry_Int_Tables_number   1
_chemical_formula_structural   Li3Cr4(PO4)6
_chemical_formula_sum   'Li6 Cr8 P12 O48'
_cell_volume   927.56553826
_cell_formula_units_Z   2
loop_
 _symmetry_equiv_pos_site_id
 _symmetry_equiv_pos_as_xyz
  1  'x, y, z'
loop_
 _atom_site_type_symbol
 _atom_site_label
 _atom_site_symmetry_multiplicity
 _atom_site_fract_x
 _atom_site_fract_y
 _atom_site_fract_z
 _atom_site_occupancy
  Li  Li0  1  0.02586100  0.51117700  0.25147000  1
  Li  Li1  1  0.37399100  0.75053800  0.82497500  1
  Li  Li2  1  0.51254300  0.01804400  0.75599800  1
  Li  Li3  1  0.56982800  0.22539400  0.54119000  1
  Li  Li4  1  0.91483600  0.68969800  0.02126100  1
  Li  Li5  1  0.96852400  0.24936600  0.38749700  1
  Cr  Cr0  1  0.02351100  0.25277200  0.78490600  1
  Cr  Cr1  1  0.24923500  0.24980700  0.99959500  1
  Cr  Cr2  1  0.25067800  0.02614100  0.21553100  1
  Cr  Cr3  1  0.47087100  0.46643900  0.00050000  1
  Cr  Cr4  1  0.52620400  0.53247200  0.50112400  1
  Cr  Cr5  1  0.74877900  0.74905400  0.49952600  1
  Cr  Cr6  1  0.75108300  0.96461100  0.27538300  1
  Cr  Cr7  1  0.96628200  0.75139800  0.71788400  1
  P  P0  1  0.04907200  0.82014300  0.40376300  1
  P  P1  1  0.17264200  0.95297600  0.90085600  1
  P  P2  1  0.15016300  0.55005800  0.92976000  1
  P  P3  1  0.34372900  0.32375800  0.70126200  1
  P  P4  1  0.31951200  0.33931500  0.29921000  1
  P  P5  1  0.45163700  0.84512000  0.42468900  1
  P  P6  1  0.54930200  0.15232100  0.06840900  1
  P  P7  1  0.64747700  0.68127100  0.79868400  1
  P  P8  1  0.68216900  0.64784600  0.20395700  1
  P  P9  1  0.84259100  0.45011000  0.57592300  1
  P  P10  1  0.81787000  0.04955600  0.59103700  1
  P  P11  1  0.95194400  0.17381600  0.10186700  1
  O  O0  1  0.03190500  0.88110600  0.85500800  1
  O  O1  1  0.08034700  0.81358500  0.56190700  1
  O  O2  1  0.09284000  0.61679500  0.79211100  1
  O  O3  1  0.11394900  0.95631100  0.33976400  1
  O  O4  1  0.09218100  0.69417800  0.34380400  1
  O  O5  1  0.12219200  0.38712000  0.92074000  1
  O  O6  1  0.08170200  0.59125100  0.05214500  1
  O  O7  1  0.11683300  0.16137100  0.12615400  1
  O  O8  1  0.16056000  0.11457100  0.87330900  1
  O  O9  1  0.18358800  0.30975400  0.67235800  1
  O  O10  1  0.19243400  0.91763300  0.06004200  1
  O  O11  1  0.18801100  0.39127600  0.33918400  1
  O  O12  1  0.29410000  0.91506000  0.82938100  1
  O  O13  1  0.31108200  0.58390900  0.93622400  1
  O  O14  1  0.31603200  0.17867600  0.32628100  1
  O  O15  1  0.38550500  0.90367500  0.28796400  1
  O  O16  1  0.37634200  0.33164700  0.86417200  1
  O  O17  1  0.33363200  0.37572700  0.13735100  1
  O  O18  1  0.41102900  0.90743300  0.55093500  1
  O  O19  1  0.39908900  0.46416700  0.63766000  1
  O  O20  1  0.41634400  0.68721900  0.43605700  1
  O  O21  1  0.41422200  0.20461900  0.65615600  1
  O  O22  1  0.38555900  0.12140200  0.07908900  1
  O  O23  1  0.45620100  0.39346100  0.37375800  1
  O  O24  1  0.56986200  0.79969300  0.83309000  1
  O  O25  1  0.54538100  0.58822700  0.13709300  1
  O  O26  1  0.59308600  0.54134500  0.86375800  1
  O  O27  1  0.61516600  0.87567600  0.41207500  1
  O  O28  1  0.62180800  0.66736100  0.63538300  1
  O  O29  1  0.59023400  0.09489400  0.93983500  1
  O  O30  1  0.58373800  0.31031600  0.06170300  1
  O  O31  1  0.61559500  0.08880700  0.20317400  1
  O  O32  1  0.66866900  0.61825800  0.36531800  1
  O  O33  1  0.68209400  0.41298600  0.56264400  1
  O  O34  1  0.69320900  0.80654700  0.16628400  1
  O  O35  1  0.68448700  0.09279600  0.63671400  1
  O  O36  1  0.80700800  0.69711400  0.83705100  1
  O  O37  1  0.82763700  0.88801700  0.62601200  1
  O  O38  1  0.81191900  0.59169800  0.16253300  1
  O  O39  1  0.82555800  0.08083000  0.43064000  1
  O  O40  1  0.87241000  0.61204900  0.58568200  1
  O  O41  1  0.88547700  0.82952500  0.37168900  1
  O  O42  1  0.89900100  0.38607100  0.71560500  1
  O  O43  1  0.91590500  0.19794600  0.94525100  1
  O  O44  1  0.91061900  0.40750600  0.45493100  1
  O  O45  1  0.88672800  0.03082900  0.14779500  1
  O  O46  1  0.91929000  0.28653100  0.18791600  1
  O  O47  1  0.95137500  0.11920300  0.65649200  1
loop_
_geom_bond_atom_site_label_1
_geom_bond_atom_site_label_2
_geom_bond_distance
_geom_bond_site_symmetry_2
Li0 O4 2.102863 1_555
Li0 O11 2.134612 1_555
Li0 O6 2.143683 1_555
Li0 O38 2.367766 1_455
Li0 O46 2.461885 1_455
Li0 O44 2.475013 1_455
Li1 O12 1.850491 1_555
Li1 O24 1.925719 1_555
Li1 O13 1.979866 1_555
Li2 O29 2.070354 1_555
Li2 O35 2.162416 1_555
Li2 O21 2.258699 1_555
Li2 O24 2.315897 1_545
Li2 O12 2.416294 1_545
Li2 O18 2.457305 1_545
Li3 O35 1.926384 1_555
Li3 O21 1.942718 1_555
Li3 O33 2.080529 1_555
Li3 O23 2.502003 1_555
Li4 O38 1.924931 1_555
Li4 O6 1.947397 1_655
Li4 O36 2.018440 1_554
Li5 O44 1.871300 1_555
Li5 O46 1.992747 1_555
Li5 O39 2.114542 1_555
Li5 O11 2.511745 1_655
Cr0 O42 1.907476 1_455
Cr0 O47 1.937306 1_455
Cr0 O43 1.971637 1_455
Cr0 O9 1.995833 1_555
Cr0 O5 2.071834 1_555
Cr0 O8 2.076236 1_555
Cr1 O7 1.963667 1_556
Cr1 O16 1.966818 1_555
Cr1 O5 1.977435 1_555
Cr1 O22 1.980246 1_556
Cr1 O8 1.982937 1_555
Cr1 O17 1.984101 1_556
Cr2 O15 1.911887 1_545
Cr2 O3 1.922872 1_545
Cr2 O10 1.945390 1_545
Cr2 O14 1.949827 1_555
Cr2 O7 2.039203 1_555
Cr2 O22 2.066416 1_555
Cr3 O25 1.921695 1_555
Cr3 O26 1.925115 1_554
Cr3 O30 1.986626 1_555
Cr3 O13 2.043076 1_554
Cr3 O16 2.063451 1_554
Cr3 O17 2.068711 1_555
Cr4 O19 1.937588 1_555
Cr4 O23 1.962813 1_555
Cr4 O20 1.966997 1_555
Cr4 O33 2.020051 1_555
Cr4 O28 2.054432 1_555
Cr4 O32 2.080608 1_555
Cr5 O28 1.968462 1_555
Cr5 O41 1.974974 1_555
Cr5 O27 1.975601 1_555
Cr5 O40 1.976529 1_555
Cr5 O32 1.978712 1_555
Cr5 O37 1.979749 1_555
Cr6 O31 1.927003 1_565
Cr6 O45 1.928595 1_565
Cr6 O34 1.968595 1_555
Cr6 O39 2.023312 1_565
Cr6 O27 2.053440 1_555
Cr6 O41 2.065473 1_555
Cr7 O2 1.942663 1_655
Cr7 O0 1.954947 1_655
Cr7 O1 1.987522 1_655
Cr7 O36 2.024217 1_555
Cr7 O40 2.064537 1_555
Cr7 O37 2.087380 1_555
O0 P1 1.541252 1_555
O1 P0 1.554249 1_555
O2 P2 1.541710 1_555
O3 P0 1.543202 1_555
O4 P0 1.507032 1_555
O5 P2 1.607890 1_555
O6 P2 1.508527 1_554
O7 P11 1.617104 1_455
O8 P1 1.600987 1_545
O9 P3 1.559716 1_555
O10 P1 1.573992 1_554
O11 P4 1.502116 1_555
O12 P1 1.501706 1_555
O13 P2 1.572153 1_555
O14 P4 1.577336 1_555
O15 P5 1.535417 1_555
O16 P3 1.610108 1_555
O17 P4 1.613732 1_555
O18 P5 1.509709 1_555
O19 P3 1.544423 1_555
O20 P5 1.557890 1_555
O21 P3 1.509243 1_555
O22 P6 1.607755 1_555
O23 P4 1.543998 1_555
O24 P7 1.505441 1_555
O25 P8 1.531302 1_555
O26 P7 1.542921 1_555
O27 P5 1.607827 1_555
O28 P7 1.614640 1_555
O29 P6 1.508273 1_556
O30 P6 1.557525 1_555
O31 P6 1.538078 1_555
O32 P8 1.599814 1_555
O33 P9 1.573123 1_555
O34 P8 1.571222 1_555
O35 P10 1.504961 1_555
O36 P7 1.567798 1_555
O37 P10 1.605882 1_565
O38 P8 1.509926 1_555
O39 P10 1.585400 1_555
O40 P9 1.600752 1_555
O41 P0 1.607817 1_655
O42 P9 1.545147 1_555
O43 P11 1.553692 1_556
O44 P9 1.499850 1_555
O45 P11 1.544055 1_555
O46 P11 1.504632 1_555
O47 P10 1.537610 1_555
