# generated using pymatgen
data_Ta3Fe8Si
_symmetry_space_group_name_H-M   'P 1'
_cell_length_a   4.76216983
_cell_length_b   4.76216983
_cell_length_c   7.76990900
_cell_angle_alpha   90.00000000
_cell_angle_beta   90.00000000
_cell_angle_gamma   119.99999763
_symmetry_Int_Tables_number   1
_chemical_formula_structural   Ta3Fe8Si
_chemical_formula_sum   'Ta3 Fe8 Si1'
_cell_volume   152.60063225
_cell_formula_units_Z   1
loop_
 _symmetry_equiv_pos_site_id
 _symmetry_equiv_pos_as_xyz
  1  'x, y, z'
loop_
 _atom_site_type_symbol
 _atom_site_label
 _atom_site_symmetry_multiplicity
 _atom_site_fract_x
 _atom_site_fract_y
 _atom_site_fract_z
 _atom_site_occupancy
  Ta  Ta0  1  0.00000000  0.00000000  0.44226200  1
  Ta  Ta1  1  0.00000000  0.00000000  0.06631400  1
  Ta  Ta2  1  0.66666700  0.33333300  0.91740100  1
  Fe  Fe0  1  0.33333300  0.66666700  0.50206300  1
  Fe  Fe1  1  0.33333300  0.66666700  0.00791200  1
  Fe  Fe2  1  0.16469300  0.83530700  0.74932600  1
  Fe  Fe3  1  0.67061300  0.83530700  0.74932600  1
  Fe  Fe4  1  0.16469300  0.32938700  0.74932600  1
  Fe  Fe5  1  0.50331500  0.49668500  0.25317000  1
  Fe  Fe6  1  0.99336900  0.49668500  0.25317000  1
  Fe  Fe7  1  0.50331500  0.00663100  0.25317000  1
  Si  Si0  1  0.66666700  0.33333300  0.55658100  1
loop_
_geom_bond_atom_site_label_1
_geom_bond_atom_site_label_2
_geom_bond_distance
_geom_bond_site_symmetry_2
Ta0 Ta1 2.921082 1_555
Ta1 Ta2 2.982976 1_454
Ta1 Ta2 2.982980 1_554
Ta1 Ta2 2.982980 1_444
Fe0 Fe2 2.371903 1_555
Fe0 Fe4 2.371903 1_555
Fe0 Fe3 2.371903 1_555
Fe0 Fe5 2.388653 1_555
Fe0 Fe6 2.388653 1_455
Fe0 Fe7 2.388653 1_565
Fe0 Si0 2.781878 1_565
Fe0 Si0 2.781878 1_455
Fe0 Si0 2.781886 1_555
Fe0 Ta0 2.788423 1_565
Fe0 Ta0 2.788427 1_555
Fe0 Ta0 2.788427 1_665
Fe1 Fe5 2.365845 1_555
Fe1 Fe7 2.365845 1_565
Fe1 Fe6 2.365845 1_455
Fe1 Fe2 2.443709 1_554
Fe1 Fe3 2.443709 1_554
Fe1 Fe4 2.443709 1_554
Fe1 Ta1 2.786632 1_565
Fe1 Ta1 2.786637 1_555
Fe1 Ta1 2.786637 1_665
Fe1 Ta2 2.837954 1_564
Fe1 Ta2 2.837954 1_454
Fe1 Ta2 2.837962 1_554
Fe2 Fe3 2.352893 1_455
Fe2 Fe4 2.352893 1_565
Fe2 Fe4 2.409277 1_555
Fe2 Fe3 2.409277 1_555
Fe2 Ta2 2.715746 1_455
Fe2 Ta2 2.715746 1_565
Fe2 Ta0 2.745485 1_565
Fe2 Ta1 2.812752 1_566
Fe2 Si0 2.812947 1_455
Fe2 Si0 2.812947 1_565
Fe3 Fe4 2.352893 1_665
Fe3 Fe4 2.409277 1_555
Fe3 Ta2 2.715742 1_565
Fe3 Ta2 2.715750 1_555
Fe3 Ta0 2.745487 1_665
Fe3 Ta1 2.812754 1_666
Fe3 Si0 2.812943 1_565
Fe3 Si0 2.812951 1_555
Fe4 Ta2 2.715742 1_455
Fe4 Ta2 2.715750 1_555
Fe4 Ta0 2.745487 1_555
Fe4 Ta1 2.812754 1_556
Fe4 Si0 2.812943 1_455
Fe4 Si0 2.812951 1_555
Fe5 Fe6 2.333720 1_555
Fe5 Fe7 2.333720 1_555
Fe5 Fe7 2.428449 1_565
Fe5 Fe6 2.428449 1_455
Fe5 Si0 2.715350 1_555
Fe5 Ta1 2.788941 1_665
Fe5 Ta1 2.788941 1_555
Fe5 Ta0 2.798025 1_555
Fe5 Ta0 2.798025 1_665
Fe5 Ta2 2.936284 1_554
Fe6 Fe7 2.333720 1_555
Fe6 Fe7 2.428450 1_665
Fe6 Si0 2.715346 1_555
Fe6 Ta1 2.788939 1_665
Fe6 Ta1 2.788943 1_655
Fe6 Ta0 2.798023 1_665
Fe6 Ta0 2.798027 1_655
Fe6 Ta2 2.936280 1_554
Fe7 Si0 2.715346 1_555
Fe7 Ta1 2.788939 1_555
Fe7 Ta1 2.788943 1_655
Fe7 Ta0 2.798023 1_555
Fe7 Ta0 2.798027 1_655
Fe7 Ta2 2.936280 1_554
Si0 Ta2 2.803539 1_555
Si0 Ta0 2.889358 1_655
Si0 Ta0 2.889362 1_665
Si0 Ta0 2.889362 1_555
