# generated using pymatgen
data_Tb2AlCu
_symmetry_space_group_name_H-M   'P 1'
_cell_length_a   3.47105400
_cell_length_b   3.47105400
_cell_length_c   7.45628900
_cell_angle_alpha   90.00000000
_cell_angle_beta   90.00000000
_cell_angle_gamma   90.00000000
_symmetry_Int_Tables_number   1
_chemical_formula_structural   Tb2AlCu
_chemical_formula_sum   'Tb2 Al1 Cu1'
_cell_volume   89.83497947
_cell_formula_units_Z   1
loop_
 _symmetry_equiv_pos_site_id
 _symmetry_equiv_pos_as_xyz
  1  'x, y, z'
loop_
 _atom_site_type_symbol
 _atom_site_label
 _atom_site_symmetry_multiplicity
 _atom_site_fract_x
 _atom_site_fract_y
 _atom_site_fract_z
 _atom_site_occupancy
  Tb  Tb0  1  0.50000000  0.50000000  0.26140700  1
  Tb  Tb1  1  0.50000000  0.50000000  0.73859300  1
  Al  Al0  1  0.00000000  0.00000000  0.00000000  1
  Cu  Cu0  1  0.00000000  0.00000000  0.50000000  1
loop_
_geom_bond_atom_site_label_1
_geom_bond_atom_site_label_2
_geom_bond_distance
_geom_bond_site_symmetry_2
Al0 Tb0 3.134199 1_555
Al0 Tb0 3.134199 1_545
Al0 Tb0 3.134199 1_455
Al0 Tb0 3.134199 1_445
Al0 Tb1 3.134199 1_554
Al0 Tb1 3.134199 1_444
Al0 Tb1 3.134199 1_454
Al0 Tb1 3.134199 1_544
Cu0 Tb1 3.031339 1_445
Cu0 Tb1 3.031339 1_545
Cu0 Tb1 3.031339 1_455
Cu0 Tb1 3.031339 1_555
Cu0 Tb0 3.031339 1_555
Cu0 Tb0 3.031339 1_545
Cu0 Tb0 3.031339 1_455
Cu0 Tb0 3.031339 1_445
