# generated using pymatgen
data_CsPSe6
_symmetry_space_group_name_H-M   'P 1'
_cell_length_a   12.79460000
_cell_length_b   12.79460000
_cell_length_c   13.10258000
_cell_angle_alpha   90.00000000
_cell_angle_beta   90.00000000
_cell_angle_gamma   90.00000000
_symmetry_Int_Tables_number   1
_chemical_formula_structural   CsPSe6
_chemical_formula_sum   'Cs8 P8 Se48'
_cell_volume   2144.91578861
_cell_formula_units_Z   8
loop_
 _symmetry_equiv_pos_site_id
 _symmetry_equiv_pos_as_xyz
  1  'x, y, z'
loop_
 _atom_site_type_symbol
 _atom_site_label
 _atom_site_symmetry_multiplicity
 _atom_site_fract_x
 _atom_site_fract_y
 _atom_site_fract_z
 _atom_site_occupancy
  Cs  Cs0  1  0.00000000  0.00000000  0.50000000  1
  Cs  Cs1  1  0.50000000  0.50000000  0.00000000  1
  Cs  Cs2  1  0.00000000  0.00000000  0.00000000  1
  Cs  Cs3  1  0.50000000  0.50000000  0.50000000  1
  Cs  Cs4  1  0.50000000  0.00000000  0.21260200  1
  Cs  Cs5  1  0.00000000  0.50000000  0.28739800  1
  Cs  Cs6  1  0.00000000  0.50000000  0.78739800  1
  Cs  Cs7  1  0.50000000  0.00000000  0.71260200  1
  P  P0  1  0.75884100  0.73218900  0.08744800  1
  P  P1  1  0.25884100  0.76781100  0.41255200  1
  P  P2  1  0.24115900  0.26781100  0.08744800  1
  P  P3  1  0.74115900  0.23218900  0.41255200  1
  P  P4  1  0.73218900  0.24115900  0.91255200  1
  P  P5  1  0.76781100  0.74115900  0.58744800  1
  P  P6  1  0.26781100  0.75884100  0.91255200  1
  P  P7  1  0.23218900  0.25884100  0.58744800  1
  Se  Se0  1  0.80004700  0.87918800  0.18213700  1
  Se  Se1  1  0.30004700  0.62081200  0.31786300  1
  Se  Se2  1  0.19995300  0.12081200  0.18213700  1
  Se  Se3  1  0.69995300  0.37918800  0.31786300  1
  Se  Se4  1  0.87918800  0.19995300  0.81786300  1
  Se  Se5  1  0.62081200  0.69995300  0.68213700  1
  Se  Se6  1  0.12081200  0.80004700  0.81786300  1
  Se  Se7  1  0.37918800  0.30004700  0.68213700  1
  Se  Se8  1  0.91943900  0.80321100  0.29890100  1
  Se  Se9  1  0.41943900  0.69678900  0.20109900  1
  Se  Se10  1  0.08056100  0.19678900  0.29890100  1
  Se  Se11  1  0.58056100  0.30321100  0.20109900  1
  Se  Se12  1  0.80321100  0.08056100  0.70109900  1
  Se  Se13  1  0.69678900  0.58056100  0.79890100  1
  Se  Se14  1  0.19678900  0.91943900  0.70109900  1
  Se  Se15  1  0.30321100  0.41943900  0.79890100  1
  Se  Se16  1  0.57720200  0.71435200  0.30106900  1
  Se  Se17  1  0.07720200  0.78564800  0.19893100  1
  Se  Se18  1  0.42279800  0.28564800  0.30106900  1
  Se  Se19  1  0.92279800  0.21435200  0.19893100  1
  Se  Se20  1  0.71435200  0.42279800  0.69893100  1
  Se  Se21  1  0.78564800  0.92279800  0.80106900  1
  Se  Se22  1  0.28564800  0.57720200  0.69893100  1
  Se  Se23  1  0.21435200  0.07720200  0.80106900  1
  Se  Se24  1  0.70234900  0.61314600  0.20818500  1
  Se  Se25  1  0.20234900  0.88685400  0.29181500  1
  Se  Se26  1  0.29765100  0.38685400  0.20818500  1
  Se  Se27  1  0.79765100  0.11314600  0.29181500  1
  Se  Se28  1  0.61314600  0.29765100  0.79181500  1
  Se  Se29  1  0.88685400  0.79765100  0.70818500  1
  Se  Se30  1  0.38685400  0.70234900  0.79181500  1
  Se  Se31  1  0.11314600  0.20234900  0.70818500  1
  Se  Se32  1  0.63086700  0.78750300  0.99504600  1
  Se  Se33  1  0.13086700  0.71249700  0.50495400  1
  Se  Se34  1  0.36913300  0.21249700  0.99504600  1
  Se  Se35  1  0.86913300  0.28750300  0.50495400  1
  Se  Se36  1  0.78750300  0.36913300  0.00495400  1
  Se  Se37  1  0.71249700  0.86913300  0.49504600  1
  Se  Se38  1  0.21249700  0.63086700  0.00495400  1
  Se  Se39  1  0.28750300  0.13086700  0.49504600  1
  Se  Se40  1  0.90068000  0.66168600  0.03026100  1
  Se  Se41  1  0.40068000  0.83831400  0.46973900  1
  Se  Se42  1  0.09932000  0.33831400  0.03026100  1
  Se  Se43  1  0.59932000  0.16168600  0.46973900  1
  Se  Se44  1  0.66168600  0.09932000  0.96973900  1
  Se  Se45  1  0.83831400  0.59932000  0.53026100  1
  Se  Se46  1  0.33831400  0.90068000  0.96973900  1
  Se  Se47  1  0.16168600  0.40068000  0.53026100  1
loop_
_geom_bond_atom_site_label_1
_geom_bond_atom_site_label_2
_geom_bond_distance
_geom_bond_site_symmetry_2
Cs0 Se10 3.787442 1_555
Cs0 Se8 3.787442 1_445
Cs0 Se14 3.787442 1_545
Cs0 Se12 3.787442 1_455
Cs0 Se29 4.029787 1_445
Cs0 Se31 4.029787 1_555
Cs0 Se27 4.029787 1_455
Cs0 Se25 4.029787 1_545
Cs0 Se37 4.042160 1_445
Cs0 Se33 4.042160 1_545
Cs0 Se39 4.042160 1_555
Cs0 Se35 4.042160 1_455
Cs1 Se9 3.787442 1_555
Cs1 Se11 3.787442 1_555
Cs1 Se15 3.787442 1_554
Cs1 Se13 3.787442 1_554
Cs1 Se28 4.029787 1_554
Cs1 Se26 4.029787 1_555
Cs1 Se24 4.029787 1_555
Cs1 Se30 4.029787 1_554
Cs1 Se32 4.042160 1_554
Cs1 Se36 4.042160 1_555
Cs1 Se38 4.042160 1_555
Cs1 Se34 4.042160 1_554
Cs2 Se4 3.824856 1_454
Cs2 Se2 3.824856 1_555
Cs2 Se6 3.824856 1_544
Cs2 Se0 3.824856 1_445
Cs2 Se21 3.910390 1_444
Cs2 Se23 3.910390 1_554
Cs2 Se19 3.910390 1_455
Cs2 Se17 3.910390 1_545
Cs3 Se7 3.824856 1_555
Cs3 Se3 3.824856 1_555
Cs3 Se1 3.824856 1_555
Cs3 Se5 3.824856 1_555
Cs3 Se22 3.910390 1_555
Cs3 Se20 3.910390 1_555
Cs3 Se18 3.910390 1_555
Cs3 Se16 3.910390 1_555
Cs4 Se18 3.959358 1_555
Cs4 Se16 3.959358 1_545
Cs4 Se44 4.002542 1_554
Cs4 Se46 4.002542 1_544
Cs4 Se9 4.016888 1_545
Cs4 Se11 4.016888 1_555
Cs4 Se41 4.152783 1_545
Cs4 Se43 4.152783 1_555
Cs4 Se0 4.157695 1_545
Cs4 Se2 4.157695 1_555
Cs4 Se25 4.204317 1_545
Cs4 Se27 4.204317 1_555
Cs4 Se34 4.280320 1_554
Cs4 Se32 4.280320 1_544
Cs5 Se19 3.959358 1_455
Cs5 Se17 3.959358 1_555
Cs5 Se45 4.002542 1_455
Cs5 Se47 4.002542 1_555
Cs5 Se8 4.016888 1_455
Cs5 Se10 4.016888 1_555
Cs5 Se40 4.152783 1_455
Cs5 Se42 4.152783 1_555
Cs5 Se3 4.157695 1_455
Cs5 Se1 4.157695 1_555
Cs5 Se24 4.204317 1_455
Cs5 Se26 4.204317 1_555
Cs5 Se35 4.280320 1_455
Cs5 Se33 4.280320 1_555
Cs6 Se20 3.959358 1_455
Cs6 Se22 3.959358 1_555
Cs6 Se42 4.002542 1_556
Cs6 Se40 4.002542 1_456
Cs6 Se13 4.016888 1_455
Cs6 Se15 4.016888 1_555
Cs6 Se47 4.152783 1_555
Cs6 Se45 4.152783 1_455
Cs6 Se4 4.157695 1_455
Cs6 Se6 4.157695 1_555
Cs6 Se29 4.204317 1_455
Cs6 Se31 4.204317 1_555
Cs6 Se38 4.280320 1_556
Cs6 Se36 4.280320 1_456
Cs7 Se23 3.959358 1_555
Cs7 Se21 3.959358 1_545
Cs7 Se43 4.002542 1_555
Cs7 Se41 4.002542 1_545
Cs7 Se12 4.016888 1_555
Cs7 Se14 4.016888 1_545
Cs7 Se44 4.152783 1_555
Cs7 Se46 4.152783 1_545
Cs7 Se7 4.157695 1_555
Cs7 Se5 4.157695 1_545
Cs7 Se30 4.204317 1_545
Cs7 Se28 4.204317 1_555
Cs7 Se39 4.280320 1_555
Cs7 Se37 4.280320 1_545
P0 Se32 2.155847 1_554
P0 Se40 2.160684 1_555
P0 Se24 2.311905 1_555
P0 Se0 2.314001 1_555
P1 Se33 2.155847 1_555
P1 Se41 2.160684 1_555
P1 Se25 2.311905 1_555
P1 Se1 2.314001 1_555
P2 Se34 2.155847 1_554
P2 Se42 2.160684 1_555
P2 Se26 2.311905 1_555
P2 Se2 2.314001 1_555
P3 Se35 2.155847 1_555
P3 Se43 2.160684 1_555
P3 Se27 2.311905 1_555
P3 Se3 2.314001 1_555
P4 Se36 2.155847 1_556
P4 Se44 2.160684 1_555
P4 Se28 2.311905 1_555
P4 Se4 2.314001 1_555
P5 Se37 2.155847 1_555
P5 Se45 2.160684 1_555
P5 Se29 2.311905 1_555
P5 Se5 2.314001 1_555
P6 Se38 2.155847 1_556
P6 Se46 2.160684 1_555
P6 Se30 2.311905 1_555
P6 Se6 2.314001 1_555
P7 Se39 2.155847 1_555
P7 Se47 2.160684 1_555
P7 Se31 2.311905 1_555
P7 Se7 2.314001 1_555
Se0 Se8 2.370458 1_555
Se1 Se9 2.370458 1_555
Se10 Se2 2.370458 1_555
Se10 Se19 2.416742 1_455
Se11 Se3 2.370458 1_555
Se11 Se18 2.416742 1_555
Se12 Se4 2.370458 1_555
Se12 Se21 2.416742 1_545
Se13 Se5 2.370458 1_555
Se13 Se20 2.416742 1_555
Se14 Se6 2.370458 1_555
Se14 Se23 2.416742 1_565
Se15 Se7 2.370458 1_555
Se15 Se22 2.416742 1_555
Se16 Se24 2.392016 1_555
Se16 Se9 2.416742 1_555
Se17 Se25 2.392016 1_555
Se17 Se8 2.416742 1_455
Se18 Se26 2.392016 1_555
Se19 Se27 2.392016 1_555
Se20 Se28 2.392016 1_555
Se21 Se29 2.392016 1_555
Se22 Se30 2.392016 1_555
Se23 Se31 2.392016 1_555
