# generated using pymatgen
data_ZnCr2(CuO4)2
_symmetry_space_group_name_H-M   'P 1'
_cell_length_a   6.48331700
_cell_length_b   8.31957200
_cell_length_c   11.92922696
_cell_angle_alpha   90.00000000
_cell_angle_beta   90.60056294
_cell_angle_gamma   90.00000000
_symmetry_Int_Tables_number   1
_chemical_formula_structural   ZnCr2(CuO4)2
_chemical_formula_sum   'Zn4 Cr8 Cu8 O32'
_cell_volume   643.40833838
_cell_formula_units_Z   4
loop_
 _symmetry_equiv_pos_site_id
 _symmetry_equiv_pos_as_xyz
  1  'x, y, z'
loop_
 _atom_site_type_symbol
 _atom_site_label
 _atom_site_symmetry_multiplicity
 _atom_site_fract_x
 _atom_site_fract_y
 _atom_site_fract_z
 _atom_site_occupancy
  Zn  Zn0  1  0.11500700  0.15853500  0.04821100  1
  Zn  Zn1  1  0.88499300  0.84146500  0.95178900  1
  Zn  Zn2  1  0.88499300  0.65853500  0.45178900  1
  Zn  Zn3  1  0.11500700  0.34146500  0.54821100  1
  Cr  Cr0  1  0.10270900  0.46076300  0.84666200  1
  Cr  Cr1  1  0.10270900  0.03923700  0.34666200  1
  Cr  Cr2  1  0.61069900  0.08909000  0.13183500  1
  Cr  Cr3  1  0.89729100  0.96076300  0.65333800  1
  Cr  Cr4  1  0.38930100  0.91091000  0.86816500  1
  Cr  Cr5  1  0.38930100  0.58909000  0.36816500  1
  Cr  Cr6  1  0.61069900  0.41091000  0.63183500  1
  Cr  Cr7  1  0.89729100  0.53923700  0.15333800  1
  Cu  Cu0  1  0.75416400  0.18466900  0.87261100  1
  Cu  Cu1  1  0.38310700  0.05906500  0.63508100  1
  Cu  Cu2  1  0.61689300  0.94093500  0.36491900  1
  Cu  Cu3  1  0.24583600  0.81533100  0.12738900  1
  Cu  Cu4  1  0.75416400  0.31533100  0.37261100  1
  Cu  Cu5  1  0.38310700  0.44093500  0.13508100  1
  Cu  Cu6  1  0.24583600  0.68466900  0.62738900  1
  Cu  Cu7  1  0.61689300  0.55906500  0.86491900  1
  O  O0  1  0.03650600  0.22647400  0.39278900  1
  O  O1  1  0.67034200  0.01249500  0.59750400  1
  O  O2  1  0.18594700  0.58111900  0.47335700  1
  O  O3  1  0.81405300  0.08111900  0.02664300  1
  O  O4  1  0.03650600  0.27352600  0.89278900  1
  O  O5  1  0.96349400  0.77352600  0.60721100  1
  O  O6  1  0.07920700  0.09849300  0.61582600  1
  O  O7  1  0.51681000  0.89696700  0.13950800  1
  O  O8  1  0.51681000  0.60303300  0.63950800  1
  O  O9  1  0.31873200  0.86719700  0.72707200  1
  O  O10  1  0.68126800  0.36719700  0.77292800  1
  O  O11  1  0.48319000  0.10303300  0.86049200  1
  O  O12  1  0.92079300  0.90150700  0.38417400  1
  O  O13  1  0.87877300  0.53632500  0.29235300  1
  O  O14  1  0.40855800  0.27979000  0.58452500  1
  O  O15  1  0.40855800  0.22021000  0.08452500  1
  O  O16  1  0.12122700  0.03632500  0.20764700  1
  O  O17  1  0.48319000  0.39696700  0.36049200  1
  O  O18  1  0.12122700  0.46367500  0.70764700  1
  O  O19  1  0.81405300  0.41888100  0.52664300  1
  O  O20  1  0.67034200  0.48750500  0.09750400  1
  O  O21  1  0.68126800  0.13280300  0.27292800  1
  O  O22  1  0.96349400  0.72647400  0.10721100  1
  O  O23  1  0.07920700  0.40150700  0.11582600  1
  O  O24  1  0.18594700  0.91888100  0.97335700  1
  O  O25  1  0.59144200  0.77979000  0.91547500  1
  O  O26  1  0.32965800  0.98750500  0.40249600  1
  O  O27  1  0.32965800  0.51249500  0.90249600  1
  O  O28  1  0.92079300  0.59849300  0.88417400  1
  O  O29  1  0.59144200  0.72021000  0.41547500  1
  O  O30  1  0.31873200  0.63280300  0.22707200  1
  O  O31  1  0.87877300  0.96367500  0.79235300  1
loop_
_geom_bond_atom_site_label_1
_geom_bond_atom_site_label_2
_geom_bond_distance
_geom_bond_site_symmetry_2
Cr0 O18 1.664113 1_555
Cr0 O27 1.665319 1_555
Cr0 O28 1.707432 1_455
Cr0 O4 1.708359 1_555
Cr1 O16 1.664113 1_555
Cr1 O26 1.665319 1_545
Cr1 O12 1.707432 1_445
Cr1 O0 1.708359 1_555
Cr2 O7 1.713155 1_545
Cr2 O21 1.777180 1_555
Cr2 O15 1.791792 1_555
Cr2 O3 1.830834 1_555
Cr3 O31 1.664113 1_555
Cr3 O1 1.665319 1_565
Cr3 O6 1.707432 1_665
Cr3 O5 1.708359 1_555
Cr4 O11 1.713155 1_565
Cr4 O9 1.777180 1_555
Cr4 O25 1.791792 1_555
Cr4 O24 1.830834 1_555
Cr5 O17 1.713155 1_555
Cr5 O30 1.777180 1_555
Cr5 O29 1.791792 1_555
Cr5 O2 1.830834 1_555
Cr6 O8 1.713155 1_555
Cr6 O10 1.777180 1_555
Cr6 O14 1.791792 1_555
Cr6 O19 1.830834 1_555
Cr7 O13 1.664113 1_555
Cr7 O20 1.665319 1_555
Cr7 O23 1.707432 1_655
Cr7 O22 1.708359 1_555
Cu0 O11 1.887655 1_555
Cu0 O10 1.982837 1_555
Cu0 O4 1.986448 1_655
Cu0 O3 2.062599 1_556
Cu0 O31 2.228428 1_545
Cu1 O14 1.940405 1_555
Cu1 O1 1.958692 1_555
Cu1 O9 1.983957 1_545
Cu1 O6 2.008202 1_555
Cu2 O29 1.940405 1_555
Cu2 O26 1.958692 1_555
Cu2 O21 1.983957 1_565
Cu2 O12 2.008202 1_555
Cu3 O7 1.887655 1_555
Cu3 O30 1.982837 1_555
Cu3 O22 1.986448 1_455
Cu3 O24 2.062599 1_554
Cu3 O16 2.228428 1_565
Cu4 O17 1.887655 1_555
Cu4 O21 1.982837 1_555
Cu4 O0 1.986448 1_655
Cu4 O19 2.062599 1_555
Cu4 O13 2.228428 1_555
Cu5 O15 1.940405 1_555
Cu5 O20 1.958692 1_555
Cu5 O30 1.983957 1_555
Cu5 O23 2.008202 1_555
Cu6 O8 1.887655 1_555
Cu6 O9 1.982837 1_555
Cu6 O5 1.986448 1_455
Cu6 O2 2.062599 1_555
Cu6 O18 2.228428 1_555
Cu7 O25 1.940405 1_555
Cu7 O27 1.958692 1_555
Cu7 O10 1.983957 1_555
Cu7 O28 2.008202 1_555
O0 Zn3 2.142902 1_555
O2 Zn2 2.068236 1_455
O2 Zn3 2.234461 1_555
O3 Zn0 2.068236 1_655
O3 Zn1 2.234461 1_544
O4 Zn0 2.142902 1_556
O5 Zn2 2.142902 1_555
O6 Zn3 2.189644 1_555
O12 Zn2 2.189644 1_555
O13 Zn2 2.156658 1_555
O14 Zn3 2.013894 1_555
O15 Zn0 2.013894 1_555
O16 Zn0 2.156658 1_555
O18 Zn3 2.156658 1_555
O19 Zn3 2.068236 1_655
O19 Zn2 2.234461 1_555
O22 Zn1 2.142902 1_554
O23 Zn0 2.189644 1_555
O24 Zn1 2.068236 1_455
O24 Zn0 2.234461 1_566
O25 Zn1 2.013894 1_555
O28 Zn1 2.189644 1_555
O29 Zn2 2.013894 1_555
O31 Zn1 2.156658 1_555
