# generated using pymatgen
data_Nd3SnN
_symmetry_space_group_name_H-M   'P 1'
_cell_length_a   5.00002241
_cell_length_b   5.00002241
_cell_length_c   5.00002241
_cell_angle_alpha   90.00000000
_cell_angle_beta   90.00000000
_cell_angle_gamma   90.00000000
_symmetry_Int_Tables_number   1
_chemical_formula_structural   Nd3SnN
_chemical_formula_sum   'Nd3 Sn1 N1'
_cell_volume   125.00168076
_cell_formula_units_Z   1
loop_
 _symmetry_equiv_pos_site_id
 _symmetry_equiv_pos_as_xyz
  1  'x, y, z'
loop_
 _atom_site_type_symbol
 _atom_site_label
 _atom_site_symmetry_multiplicity
 _atom_site_fract_x
 _atom_site_fract_y
 _atom_site_fract_z
 _atom_site_occupancy
  Nd  Nd0  1  0.50000000  0.50000000  -0.00000000  1
  Nd  Nd1  1  0.50000000  -0.00000000  0.50000000  1
  Nd  Nd2  1  -0.00000000  0.50000000  0.50000000  1
  Sn  Sn0  1  0.00000000  0.00000000  0.00000000  1
  N  N0  1  0.50000000  0.50000000  0.50000000  1
loop_
_geom_bond_atom_site_label_1
_geom_bond_atom_site_label_2
_geom_bond_distance
_geom_bond_site_symmetry_2
Nd0 Sn0 3.535550 1_555
Nd0 Sn0 3.535550 1_655
Nd0 Sn0 3.535550 1_665
Nd0 Sn0 3.535550 1_565
Nd1 Sn0 3.535550 1_555
Nd1 Sn0 3.535550 1_655
Nd1 Sn0 3.535550 1_556
Nd1 Sn0 3.535550 1_656
Nd2 Sn0 3.535550 1_555
Nd2 Sn0 3.535550 1_566
Nd2 Sn0 3.535550 1_556
Nd2 Sn0 3.535550 1_565
N0 Nd2 2.500011 1_555
N0 Nd2 2.500011 1_655
N0 Nd1 2.500011 1_565
N0 Nd0 2.500011 1_555
N0 Nd0 2.500011 1_556
N0 Nd1 2.500011 1_555
