# generated using pymatgen
data_Ce(PrS2)2
_symmetry_space_group_name_H-M   'P 1'
_cell_length_a   7.48548098
_cell_length_b   7.48548098
_cell_length_c   7.48548098
_cell_angle_alpha   109.48499042
_cell_angle_beta   109.48499042
_cell_angle_gamma   109.44368458
_symmetry_Int_Tables_number   1
_chemical_formula_structural   Ce(PrS2)2
_chemical_formula_sum   'Ce2 Pr4 S8'
_cell_volume   322.87704315
_cell_formula_units_Z   2
loop_
 _symmetry_equiv_pos_site_id
 _symmetry_equiv_pos_as_xyz
  1  'x, y, z'
loop_
 _atom_site_type_symbol
 _atom_site_label
 _atom_site_symmetry_multiplicity
 _atom_site_fract_x
 _atom_site_fract_y
 _atom_site_fract_z
 _atom_site_occupancy
  Ce  Ce0  1  0.75000000  0.25000000  0.50000000  1
  Ce  Ce1  1  0.00000000  0.00000000  0.00000000  1
  Pr  Pr0  1  0.37500000  0.50411400  0.62911400  1
  Pr  Pr1  1  0.87500000  0.74588600  0.37088600  1
  Pr  Pr2  1  0.49588600  0.12500000  0.87088600  1
  Pr  Pr3  1  0.25411400  0.62500000  0.12911400  1
  S  S0  1  0.97466800  0.37234400  0.24933500  1
  S  S1  1  0.12301000  0.72533300  0.75066500  1
  S  S2  1  0.62699000  0.87765600  0.10232300  1
  S  S3  1  0.77533200  0.52466700  0.89767700  1
  S  S4  1  0.12234400  0.22466800  0.74933500  1
  S  S5  1  0.47533300  0.37301000  0.25066500  1
  S  S6  1  0.62765600  0.87699000  0.60232300  1
  S  S7  1  0.27466700  0.02533200  0.39767700  1
loop_
_geom_bond_atom_site_label_1
_geom_bond_atom_site_label_2
_geom_bond_distance
_geom_bond_site_symmetry_2
Ce0 S4 2.899197 1_655
Ce0 S2 2.899199 1_545
Ce0 S3 2.899203 1_555
Ce0 S5 2.899203 1_555
Ce0 S0 3.068186 1_555
Ce0 S6 3.068188 1_545
Ce0 S7 3.068189 1_555
Ce0 S1 3.068189 1_655
Ce1 S0 2.899197 1_455
Ce1 S6 2.899199 1_444
Ce1 S1 2.899203 1_544
Ce1 S7 2.899203 1_555
Ce1 S4 3.068186 1_554
Ce1 S2 3.068188 1_445
Ce1 S3 3.068189 1_444
Ce1 S5 3.068189 1_555
Pr0 S0 2.917694 1_455
Pr0 S3 2.917696 1_555
Pr0 S6 2.918843 1_555
Pr0 S4 2.918844 1_555
Pr0 S1 3.057335 1_555
Pr0 S2 3.057337 1_556
Pr0 S5 3.099634 1_555
Pr0 S7 3.099634 1_555
Pr1 S1 2.917696 1_655
Pr1 S2 2.917702 1_555
Pr1 S7 2.918840 1_665
Pr1 S5 2.918840 1_555
Pr1 S3 3.057335 1_554
Pr1 S0 3.057342 1_555
Pr1 S6 3.099627 1_555
Pr1 S4 3.099634 1_665
Pr2 S5 2.917696 1_556
Pr2 S6 2.917702 1_545
Pr2 S3 2.918840 1_555
Pr2 S1 2.918840 1_545
Pr2 S7 3.057335 1_555
Pr2 S4 3.057342 1_555
Pr2 S2 3.099627 1_546
Pr2 S0 3.099634 1_556
Pr3 S4 2.917694 1_554
Pr3 S7 2.917696 1_565
Pr3 S2 2.918843 1_555
Pr3 S0 2.918844 1_455
Pr3 S5 3.057335 1_555
Pr3 S6 3.057337 1_555
Pr3 S1 3.099634 1_554
Pr3 S3 3.099634 1_454
