# generated using pymatgen
data_Ba8Si6Sn
_symmetry_space_group_name_H-M   'P 1'
_cell_length_a   8.82667700
_cell_length_b   8.83476500
_cell_length_c   27.43303700
_cell_angle_alpha   90.00000000
_cell_angle_beta   90.00000000
_cell_angle_gamma   90.00000000
_symmetry_Int_Tables_number   1
_chemical_formula_structural   Ba8Si6Sn
_chemical_formula_sum   'Ba32 Si24 Sn4'
_cell_volume   2139.27258519
_cell_formula_units_Z   4
loop_
 _symmetry_equiv_pos_site_id
 _symmetry_equiv_pos_as_xyz
  1  'x, y, z'
loop_
 _atom_site_type_symbol
 _atom_site_label
 _atom_site_symmetry_multiplicity
 _atom_site_fract_x
 _atom_site_fract_y
 _atom_site_fract_z
 _atom_site_occupancy
  Ba  Ba0  1  0.17958600  0.55025200  0.41384000  1
  Ba  Ba1  1  0.32041400  0.94974800  0.91384000  1
  Ba  Ba2  1  0.32041400  0.05025200  0.58616000  1
  Ba  Ba3  1  0.17958600  0.44974800  0.08616000  1
  Ba  Ba4  1  0.82041400  0.44974800  0.58616000  1
  Ba  Ba5  1  0.67958600  0.05025200  0.08616000  1
  Ba  Ba6  1  0.67958600  0.94974800  0.41384000  1
  Ba  Ba7  1  0.82041400  0.55025200  0.91384000  1
  Ba  Ba8  1  0.49151700  0.68536500  0.18586300  1
  Ba  Ba9  1  0.00848300  0.81463500  0.68586300  1
  Ba  Ba10  1  0.00848300  0.18536500  0.81413700  1
  Ba  Ba11  1  0.49151700  0.31463500  0.31413700  1
  Ba  Ba12  1  0.50848300  0.31463500  0.81413700  1
  Ba  Ba13  1  0.99151700  0.18536500  0.31413700  1
  Ba  Ba14  1  0.99151700  0.81463500  0.18586300  1
  Ba  Ba15  1  0.50848300  0.68536500  0.68586300  1
  Ba  Ba16  1  0.49319800  0.71178500  0.02183500  1
  Ba  Ba17  1  0.00680200  0.78821500  0.52183500  1
  Ba  Ba18  1  0.00680200  0.21178500  0.97816500  1
  Ba  Ba19  1  0.49319800  0.28821500  0.47816500  1
  Ba  Ba20  1  0.50680200  0.28821500  0.97816500  1
  Ba  Ba21  1  0.99319800  0.21178500  0.47816500  1
  Ba  Ba22  1  0.99319800  0.78821500  0.02183500  1
  Ba  Ba23  1  0.50680200  0.71178500  0.52183500  1
  Ba  Ba24  1  0.36956200  0.82526800  0.32482800  1
  Ba  Ba25  1  0.13043800  0.67473200  0.82482800  1
  Ba  Ba26  1  0.13043800  0.32526800  0.67517200  1
  Ba  Ba27  1  0.36956200  0.17473200  0.17517200  1
  Ba  Ba28  1  0.63043800  0.17473200  0.67517200  1
  Ba  Ba29  1  0.86956200  0.32526800  0.17517200  1
  Ba  Ba30  1  0.86956200  0.67473200  0.32482800  1
  Ba  Ba31  1  0.63043800  0.82526800  0.82482800  1
  Si  Si0  1  0.26754500  0.86863800  0.10766800  1
  Si  Si1  1  0.23245500  0.63136200  0.60766800  1
  Si  Si2  1  0.23245500  0.36863800  0.89233200  1
  Si  Si3  1  0.26754500  0.13136200  0.39233200  1
  Si  Si4  1  0.73245500  0.13136200  0.89233200  1
  Si  Si5  1  0.76754500  0.36863800  0.39233200  1
  Si  Si6  1  0.76754500  0.63136200  0.10766800  1
  Si  Si7  1  0.73245500  0.86863800  0.60766800  1
  Si  Si8  1  0.29286000  0.05991900  0.04596000  1
  Si  Si9  1  0.20714000  0.44008100  0.54596000  1
  Si  Si10  1  0.20714000  0.55991900  0.95404000  1
  Si  Si11  1  0.29286000  0.94008100  0.45404000  1
  Si  Si12  1  0.70714000  0.94008100  0.95404000  1
  Si  Si13  1  0.79286000  0.55991900  0.45404000  1
  Si  Si14  1  0.79286000  0.44008100  0.04596000  1
  Si  Si15  1  0.70714000  0.05991900  0.54596000  1
  Si  Si16  1  0.07648200  0.07006200  0.10060800  1
  Si  Si17  1  0.42351800  0.42993800  0.60060800  1
  Si  Si18  1  0.42351800  0.57006200  0.89939200  1
  Si  Si19  1  0.07648200  0.92993800  0.39939200  1
  Si  Si20  1  0.92351800  0.92993800  0.89939200  1
  Si  Si21  1  0.57648200  0.57006200  0.39939200  1
  Si  Si22  1  0.57648200  0.42993800  0.10060800  1
  Si  Si23  1  0.92351800  0.07006200  0.60060800  1
  Sn  Sn0  1  0.17402500  0.50000000  0.25000000  1
  Sn  Sn1  1  0.32597500  0.00000000  0.75000000  1
  Sn  Sn2  1  0.82597500  0.50000000  0.75000000  1
  Sn  Sn3  1  0.67402500  0.00000000  0.25000000  1
loop_
_geom_bond_atom_site_label_1
_geom_bond_atom_site_label_2
_geom_bond_distance
_geom_bond_site_symmetry_2
Ba0 Si19 3.498222 1_555
Ba0 Si21 3.529964 1_555
Ba0 Si13 3.588245 1_455
Ba0 Si11 3.751975 1_555
Ba0 Si9 3.760743 1_555
Ba0 Si3 3.827113 1_555
Ba1 Si18 3.498222 1_555
Ba1 Si20 3.529964 1_455
Ba1 Si12 3.588245 1_555
Ba1 Si10 3.751975 1_555
Ba1 Si8 3.760743 1_566
Ba1 Si2 3.827113 1_565
Ba2 Si17 3.498222 1_555
Ba2 Si23 3.529964 1_455
Ba2 Si15 3.588245 1_555
Ba2 Si9 3.751975 1_555
Ba2 Si11 3.760743 1_545
Ba2 Si1 3.827113 1_545
Ba3 Si16 3.498222 1_555
Ba3 Si22 3.529964 1_555
Ba3 Si14 3.588245 1_455
Ba3 Si8 3.751975 1_555
Ba3 Si10 3.760743 1_554
Ba3 Si0 3.827113 1_555
Ba4 Si23 3.498222 1_555
Ba4 Si17 3.529964 1_555
Ba4 Si9 3.588245 1_655
Ba4 Si15 3.751975 1_555
Ba4 Si13 3.760743 1_555
Ba4 Si7 3.827113 1_555
Ba5 Si22 3.498222 1_555
Ba5 Si16 3.529964 1_655
Ba5 Si8 3.588245 1_555
Ba5 Si14 3.751975 1_555
Ba5 Si12 3.760743 1_544
Ba5 Si6 3.827113 1_545
Ba6 Si21 3.498222 1_555
Ba6 Si19 3.529964 1_655
Ba6 Si11 3.588245 1_555
Ba6 Si13 3.751975 1_555
Ba6 Si15 3.760743 1_565
Ba6 Si5 3.827113 1_565
Ba7 Si20 3.498222 1_555
Ba7 Si18 3.529964 1_555
Ba7 Si10 3.588245 1_655
Ba7 Si12 3.751975 1_555
Ba7 Si14 3.760743 1_556
Ba7 Si4 3.827113 1_555
Ba8 Si6 3.281050 1_555
Ba8 Si22 3.335394 1_555
Ba8 Si0 3.336396 1_555
Ba8 Sn3 3.663024 1_565
Ba8 Sn0 3.692033 1_555
Ba9 Si7 3.281050 1_455
Ba9 Si23 3.335394 1_465
Ba9 Si1 3.336396 1_555
Ba9 Sn2 3.663024 1_455
Ba9 Sn1 3.692033 1_565
Ba10 Si4 3.281050 1_455
Ba10 Si20 3.335394 1_445
Ba10 Si2 3.336396 1_555
Ba10 Sn2 3.663024 1_455
Ba10 Sn1 3.692033 1_555
Ba11 Si5 3.281050 1_555
Ba11 Si21 3.335394 1_555
Ba11 Si3 3.336396 1_555
Ba11 Sn3 3.663024 1_555
Ba11 Sn0 3.692033 1_555
Ba12 Si2 3.281050 1_555
Ba12 Si18 3.335394 1_555
Ba12 Si4 3.336396 1_555
Ba12 Sn1 3.663024 1_555
Ba12 Sn2 3.692033 1_555
Ba13 Si3 3.281050 1_655
Ba13 Si19 3.335394 1_645
Ba13 Si5 3.336396 1_555
Ba13 Sn0 3.663024 1_655
Ba13 Sn3 3.692033 1_555
Ba14 Si0 3.281050 1_655
Ba14 Si16 3.335394 1_665
Ba14 Si6 3.336396 1_555
Ba14 Sn0 3.663024 1_655
Ba14 Sn3 3.692033 1_565
Ba15 Si1 3.281050 1_555
Ba15 Si17 3.335394 1_555
Ba15 Si7 3.336396 1_555
Ba15 Sn1 3.663024 1_565
Ba15 Sn2 3.692033 1_555
Ba16 Si12 3.330621 1_554
Ba16 Si22 3.377959 1_555
Ba16 Si0 3.381107 1_555
Ba16 Si10 3.410928 1_554
Ba16 Si6 3.451561 1_555
Ba16 Si8 3.608986 1_565
Ba16 Si14 3.632665 1_555
Ba16 Si18 3.637138 1_554
Ba17 Si13 3.330621 1_455
Ba17 Si23 3.377959 1_465
Ba17 Si1 3.381107 1_555
Ba17 Si11 3.410928 1_555
Ba17 Si7 3.451561 1_455
Ba17 Si9 3.608986 1_555
Ba17 Si15 3.632665 1_465
Ba17 Si19 3.637138 1_555
Ba18 Si14 3.330621 1_456
Ba18 Si20 3.377959 1_445
Ba18 Si2 3.381107 1_555
Ba18 Si8 3.410928 1_556
Ba18 Si4 3.451561 1_455
Ba18 Si10 3.608986 1_555
Ba18 Si12 3.632665 1_445
Ba18 Si16 3.637138 1_556
Ba19 Si15 3.330621 1_555
Ba19 Si21 3.377959 1_555
Ba19 Si3 3.381107 1_555
Ba19 Si9 3.410928 1_555
Ba19 Si5 3.451561 1_555
Ba19 Si11 3.608986 1_545
Ba19 Si13 3.632665 1_555
Ba19 Si17 3.637138 1_555
Ba20 Si8 3.330621 1_556
Ba20 Si18 3.377959 1_555
Ba20 Si4 3.381107 1_555
Ba20 Si14 3.410928 1_556
Ba20 Si2 3.451561 1_555
Ba20 Si12 3.608986 1_545
Ba20 Si10 3.632665 1_555
Ba20 Si22 3.637138 1_556
Ba21 Si9 3.330621 1_655
Ba21 Si19 3.377959 1_645
Ba21 Si5 3.381107 1_555
Ba21 Si15 3.410928 1_555
Ba21 Si3 3.451561 1_655
Ba21 Si13 3.608986 1_555
Ba21 Si11 3.632665 1_645
Ba21 Si23 3.637138 1_555
Ba22 Si10 3.330621 1_654
Ba22 Si16 3.377959 1_665
Ba22 Si6 3.381107 1_555
Ba22 Si12 3.410928 1_554
Ba22 Si0 3.451561 1_655
Ba22 Si14 3.608986 1_555
Ba22 Si8 3.632665 1_665
Ba22 Si20 3.637138 1_554
Ba23 Si11 3.330621 1_555
Ba23 Si17 3.377959 1_555
Ba23 Si7 3.381107 1_555
Ba23 Si13 3.410928 1_555
Ba23 Si1 3.451561 1_555
Ba23 Si15 3.608986 1_565
Ba23 Si9 3.632665 1_555
Ba23 Si21 3.637138 1_555
Ba24 Si3 3.399004 1_565
Ba24 Si19 3.425119 1_555
Ba24 Si21 3.550146 1_555
Ba24 Sn3 3.717389 1_565
Ba24 Si11 3.748599 1_555
Ba24 Sn0 3.930732 1_555
Ba25 Si2 3.399004 1_555
Ba25 Si18 3.425119 1_555
Ba25 Si20 3.550146 1_455
Ba25 Sn2 3.717389 1_455
Ba25 Si10 3.748599 1_555
Ba25 Sn1 3.930732 1_565
Ba26 Si1 3.399004 1_555
Ba26 Si17 3.425119 1_555
Ba26 Si23 3.550146 1_455
Ba26 Sn2 3.717389 1_455
Ba26 Si9 3.748599 1_555
Ba26 Sn1 3.930732 1_555
Ba27 Si0 3.399004 1_545
Ba27 Si16 3.425119 1_555
Ba27 Si22 3.550146 1_555
Ba27 Sn3 3.717389 1_555
Ba27 Si8 3.748599 1_555
Ba27 Sn0 3.930732 1_555
Ba28 Si7 3.399004 1_545
Ba28 Si23 3.425119 1_555
Ba28 Si17 3.550146 1_555
Ba28 Sn1 3.717389 1_555
Ba28 Si15 3.748599 1_555
Ba28 Sn2 3.930732 1_555
Ba29 Si6 3.399004 1_555
Ba29 Si22 3.425119 1_555
Ba29 Si16 3.550146 1_655
Ba29 Sn0 3.717389 1_655
Ba29 Si14 3.748599 1_555
Ba29 Sn3 3.930732 1_555
Ba30 Si5 3.399004 1_555
Ba30 Si21 3.425119 1_555
Ba30 Si19 3.550146 1_655
Ba30 Sn0 3.717389 1_655
Ba30 Si13 3.748599 1_555
Ba30 Sn3 3.930732 1_565
Ba31 Si4 3.399004 1_565
Ba31 Si20 3.425119 1_555
Ba31 Si18 3.550146 1_555
Ba31 Sn1 3.717389 1_565
Ba31 Si12 3.748599 1_555
Ba31 Sn2 3.930732 1_555
Si0 Si8 2.402388 1_565
Si0 Si16 2.459343 1_565
Si1 Si9 2.402388 1_555
Si1 Si17 2.459343 1_555
Si10 Si2 2.402388 1_555
Si10 Si18 2.429655 1_555
Si11 Si3 2.402388 1_565
Si11 Si19 2.429655 1_555
Si12 Si4 2.402388 1_565
Si12 Si20 2.429655 1_555
Si13 Si5 2.402388 1_555
Si13 Si21 2.429655 1_555
Si14 Si6 2.402388 1_555
Si14 Si22 2.429655 1_555
Si15 Si7 2.402388 1_545
Si15 Si23 2.429655 1_555
Si16 Si8 2.429655 1_555
Si17 Si9 2.429655 1_555
Si18 Si2 2.459343 1_555
Si19 Si3 2.459343 1_565
Si20 Si4 2.459343 1_565
Si21 Si5 2.459343 1_555
Si22 Si6 2.459343 1_555
Si23 Si7 2.459343 1_545
