# generated using pymatgen
data_Bi4PPd15
_symmetry_space_group_name_H-M   'P 1'
_cell_length_a   19.11175038
_cell_length_b   19.11175038
_cell_length_c   19.11175063
_cell_angle_alpha   13.82226784
_cell_angle_beta   13.82226784
_cell_angle_gamma   13.82226665
_symmetry_Int_Tables_number   1
_chemical_formula_structural   Bi4PPd15
_chemical_formula_sum   'Bi4 P1 Pd15'
_cell_volume   346.74074569
_cell_formula_units_Z   1
loop_
 _symmetry_equiv_pos_site_id
 _symmetry_equiv_pos_as_xyz
  1  'x, y, z'
loop_
 _atom_site_type_symbol
 _atom_site_label
 _atom_site_symmetry_multiplicity
 _atom_site_fract_x
 _atom_site_fract_y
 _atom_site_fract_z
 _atom_site_occupancy
  Bi  Bi0  1  0.60152500  0.60152500  0.60152500  1
  Bi  Bi1  1  0.20026600  0.20026600  0.20026600  1
  Bi  Bi2  1  0.79973400  0.79973400  0.79973400  1
  Bi  Bi3  1  0.39847500  0.39847500  0.39847500  1
  P  P0  1  0.00000000  0.00000000  0.00000000  1
  Pd  Pd0  1  0.04189800  0.04189800  0.04189800  1
  Pd  Pd1  1  0.44937100  0.44937100  0.44937100  1
  Pd  Pd2  1  0.85057000  0.85057000  0.85057000  1
  Pd  Pd3  1  0.65375300  0.65375300  0.65375300  1
  Pd  Pd4  1  0.25001500  0.25001500  0.25001500  1
  Pd  Pd5  1  0.34624700  0.34624700  0.34624700  1
  Pd  Pd6  1  0.74998500  0.74998500  0.74998500  1
  Pd  Pd7  1  0.14943000  0.14943000  0.14943000  1
  Pd  Pd8  1  0.95810200  0.95810200  0.95810200  1
  Pd  Pd9  1  0.55062900  0.55062900  0.55062900  1
  Pd  Pd10  1  0.70066400  0.70066400  0.70066400  1
  Pd  Pd11  1  0.09763000  0.09763000  0.09763000  1
  Pd  Pd12  1  0.50000000  0.50000000  0.50000000  1
  Pd  Pd13  1  0.29933600  0.29933600  0.29933600  1
  Pd  Pd14  1  0.90237000  0.90237000  0.90237000  1
loop_
_geom_bond_atom_site_label_1
_geom_bond_atom_site_label_2
_geom_bond_distance
_geom_bond_site_symmetry_2
Bi0 Pd4 2.848983 1_565
Bi0 Pd4 2.848983 1_655
Bi0 Pd4 2.848983 1_556
Bi0 Pd9 2.889829 1_555
Bi0 Pd8 2.965353 1_545
Bi0 Pd8 2.965353 1_455
Bi0 Pd8 2.965353 1_554
Bi0 Pd3 2.965459 1_555
Bi0 Pd13 3.190395 1_655
Bi0 Pd13 3.190395 1_565
Bi0 Pd13 3.190395 1_556
Bi0 Pd14 3.233316 1_455
Bi0 Pd14 3.233316 1_545
Bi0 Pd14 3.233316 1_554
Bi1 Pd2 2.813310 1_544
Bi1 Pd2 2.813310 1_454
Bi1 Pd2 2.813311 1_445
Bi1 Pd4 2.824704 1_555
Bi1 Pd9 2.826043 1_545
Bi1 Pd9 2.826043 1_455
Bi1 Pd9 2.826043 1_554
Bi1 Pd7 2.886423 1_555
Bi1 Pd12 3.269716 1_545
Bi1 Pd12 3.269716 1_455
Bi1 Pd12 3.269716 1_554
Bi1 Pd14 3.331683 1_544
Bi1 Pd14 3.331683 1_454
Bi1 Pd14 3.331684 1_445
Bi2 Pd7 2.813310 1_656
Bi2 Pd7 2.813310 1_566
Bi2 Pd7 2.813311 1_665
Bi2 Pd6 2.824704 1_555
Bi2 Pd1 2.826043 1_565
Bi2 Pd1 2.826043 1_655
Bi2 Pd1 2.826043 1_556
Bi2 Pd2 2.886423 1_555
Bi2 Pd12 3.269716 1_565
Bi2 Pd12 3.269716 1_655
Bi2 Pd12 3.269716 1_556
Bi2 Pd11 3.331683 1_656
Bi2 Pd11 3.331683 1_566
Bi2 Pd11 3.331684 1_665
Bi3 Pd6 2.848983 1_455
Bi3 Pd6 2.848983 1_545
Bi3 Pd6 2.848983 1_554
Bi3 Pd1 2.889829 1_555
Bi3 Pd0 2.965353 1_565
Bi3 Pd0 2.965353 1_655
Bi3 Pd0 2.965353 1_556
Bi3 Pd5 2.965459 1_555
Bi3 Pd10 3.190395 1_545
Bi3 Pd10 3.190395 1_455
Bi3 Pd10 3.190395 1_554
Bi3 Pd11 3.233316 1_655
Bi3 Pd11 3.233316 1_565
Bi3 Pd11 3.233316 1_556
P0 Pd8 2.378931 1_444
P0 Pd0 2.378931 1_555
P0 Pd5 2.754848 1_545
P0 Pd5 2.754848 1_455
P0 Pd3 2.754848 1_544
P0 Pd3 2.754848 1_454
P0 Pd5 2.754848 1_554
P0 Pd3 2.754848 1_445
Pd0 Pd10 2.693103 1_544
Pd0 Pd10 2.693103 1_454
Pd0 Pd10 2.693103 1_445
Pd0 Pd5 3.124086 1_455
Pd0 Pd5 3.124086 1_545
Pd0 Pd5 3.124086 1_554
Pd0 Pd11 3.164413 1_555
Pd1 Pd11 2.853761 1_565
Pd1 Pd11 2.853761 1_655
Pd1 Pd11 2.853761 1_556
Pd1 Pd12 2.874669 1_555
Pd3 Pd5 3.033488 1_565
Pd3 Pd5 3.033488 1_655
Pd3 Pd5 3.033489 1_556
Pd3 Pd8 3.124086 1_455
Pd3 Pd8 3.124086 1_545
Pd3 Pd8 3.124086 1_554
Pd10 Pd3 2.663565 1_555
Pd10 Pd6 2.800402 1_555
Pd10 Pd5 2.912841 1_565
Pd10 Pd5 2.912841 1_655
Pd10 Pd5 2.912841 1_556
Pd11 Pd6 2.777029 1_454
Pd11 Pd6 2.777029 1_544
Pd11 Pd6 2.777030 1_445
Pd11 Pd7 2.941158 1_555
Pd12 Pd7 2.830086 1_565
Pd12 Pd7 2.830086 1_655
Pd12 Pd2 2.830086 1_545
Pd12 Pd2 2.830086 1_455
Pd12 Pd7 2.830086 1_556
Pd12 Pd2 2.830086 1_554
Pd12 Pd9 2.874669 1_555
Pd13 Pd5 2.663565 1_555
Pd13 Pd8 2.693103 1_544
Pd13 Pd8 2.693103 1_454
Pd13 Pd8 2.693103 1_445
Pd13 Pd4 2.800402 1_555
Pd13 Pd3 2.912841 1_545
Pd13 Pd3 2.912841 1_455
Pd13 Pd3 2.912841 1_554
Pd14 Pd4 2.777029 1_566
Pd14 Pd4 2.777029 1_656
Pd14 Pd4 2.777030 1_665
Pd14 Pd9 2.853761 1_565
Pd14 Pd9 2.853761 1_655
Pd14 Pd9 2.853761 1_556
Pd14 Pd2 2.941158 1_555
Pd14 Pd8 3.164413 1_555
