# generated using pymatgen
data_Ca11(VN5)2
_symmetry_space_group_name_H-M   'P 1'
_cell_length_a   15.20307600
_cell_length_b   15.20307600
_cell_length_c   3.59068000
_cell_angle_alpha   90.00000000
_cell_angle_beta   90.00000000
_cell_angle_gamma   90.00000000
_symmetry_Int_Tables_number   1
_chemical_formula_structural   Ca11(VN5)2
_chemical_formula_sum   'Ca22 V4 N20'
_cell_volume   829.92650710
_cell_formula_units_Z   2
loop_
 _symmetry_equiv_pos_site_id
 _symmetry_equiv_pos_as_xyz
  1  'x, y, z'
loop_
 _atom_site_type_symbol
 _atom_site_label
 _atom_site_symmetry_multiplicity
 _atom_site_fract_x
 _atom_site_fract_y
 _atom_site_fract_z
 _atom_site_occupancy
  Ca  Ca0  1  0.50000000  0.50000000  0.50000000  1
  Ca  Ca1  1  0.00000000  0.00000000  0.00000000  1
  Ca  Ca2  1  0.97217500  0.80284700  0.50000000  1
  Ca  Ca3  1  0.02782500  0.19715300  0.50000000  1
  Ca  Ca4  1  0.52782500  0.30284700  0.00000000  1
  Ca  Ca5  1  0.47217500  0.69715300  0.00000000  1
  Ca  Ca6  1  0.80284700  0.97217500  0.50000000  1
  Ca  Ca7  1  0.19715300  0.02782500  0.50000000  1
  Ca  Ca8  1  0.30284700  0.52782500  0.00000000  1
  Ca  Ca9  1  0.69715300  0.47217500  0.00000000  1
  Ca  Ca10  1  0.65605500  0.65605500  0.50000000  1
  Ca  Ca11  1  0.34394500  0.34394500  0.50000000  1
  Ca  Ca12  1  0.84394500  0.15605500  0.00000000  1
  Ca  Ca13  1  0.15605500  0.84394500  0.00000000  1
  Ca  Ca14  1  0.36998500  0.90696800  0.50000000  1
  Ca  Ca15  1  0.63001500  0.09303200  0.50000000  1
  Ca  Ca16  1  0.13001500  0.40696800  0.00000000  1
  Ca  Ca17  1  0.86998500  0.59303200  0.00000000  1
  Ca  Ca18  1  0.90696800  0.36998500  0.50000000  1
  Ca  Ca19  1  0.09303200  0.63001500  0.50000000  1
  Ca  Ca20  1  0.40696800  0.13001500  0.00000000  1
  Ca  Ca21  1  0.59303200  0.86998500  0.00000000  1
  V  V0  1  0.30306400  0.69693600  0.50000000  1
  V  V1  1  0.69693600  0.30306400  0.50000000  1
  V  V2  1  0.19693600  0.19693600  0.00000000  1
  V  V3  1  0.80306400  0.80306400  0.00000000  1
  N  N0  1  0.08083400  0.91916600  0.50000000  1
  N  N1  1  0.91916600  0.08083400  0.50000000  1
  N  N2  1  0.41916600  0.41916600  0.00000000  1
  N  N3  1  0.58083400  0.58083400  0.00000000  1
  N  N4  1  0.49800100  0.18736100  0.50000000  1
  N  N5  1  0.50199900  0.81263900  0.50000000  1
  N  N6  1  0.00199900  0.68736100  0.00000000  1
  N  N7  1  0.99800100  0.31263900  0.00000000  1
  N  N8  1  0.18736100  0.49800100  0.50000000  1
  N  N9  1  0.81263900  0.50199900  0.50000000  1
  N  N10  1  0.68736100  0.00199900  0.00000000  1
  N  N11  1  0.31263900  0.99800100  0.00000000  1
  N  N12  1  0.22114000  0.77886000  0.50000000  1
  N  N13  1  0.77886000  0.22114000  0.50000000  1
  N  N14  1  0.27886000  0.27886000  0.00000000  1
  N  N15  1  0.72114000  0.72114000  0.00000000  1
  N  N16  1  0.38609100  0.61390900  0.50000000  1
  N  N17  1  0.61390900  0.38609100  0.50000000  1
  N  N18  1  0.11390900  0.11390900  0.00000000  1
  N  N19  1  0.88609100  0.88609100  0.00000000  1
loop_
_geom_bond_atom_site_label_1
_geom_bond_atom_site_label_2
_geom_bond_distance
_geom_bond_site_symmetry_2
Ca0 N17 2.449089 1_555
Ca0 N16 2.449089 1_555
Ca0 N3 2.498752 1_555
Ca0 N3 2.498752 1_556
Ca0 N2 2.498752 1_556
Ca0 N2 2.498752 1_555
Ca1 N18 2.449089 1_555
Ca1 N19 2.449089 1_445
Ca1 N0 2.498752 1_544
Ca1 N1 2.498752 1_454
Ca1 N1 2.498752 1_455
Ca1 N0 2.498752 1_545
Ca2 N0 2.419960 1_655
Ca2 N6 2.551757 1_655
Ca2 N6 2.551757 1_656
Ca2 N19 2.556894 1_555
Ca2 N19 2.556894 1_556
Ca3 N1 2.419960 1_455
Ca3 N7 2.551757 1_455
Ca3 N7 2.551757 1_456
Ca3 N18 2.556894 1_556
Ca3 N18 2.556894 1_555
Ca4 N2 2.419960 1_555
Ca4 N4 2.551757 1_555
Ca4 N4 2.551757 1_554
Ca4 N17 2.556894 1_555
Ca4 N17 2.556894 1_554
Ca5 N3 2.419960 1_555
Ca5 N5 2.551757 1_555
Ca5 N5 2.551757 1_554
Ca5 N16 2.556894 1_554
Ca5 N16 2.556894 1_555
Ca6 N1 2.419960 1_565
Ca6 N10 2.551757 1_566
Ca6 N10 2.551757 1_565
Ca6 N19 2.556894 1_555
Ca6 N19 2.556894 1_556
Ca7 N0 2.419960 1_545
Ca7 N11 2.551757 1_546
Ca7 N11 2.551757 1_545
Ca7 N18 2.556894 1_556
Ca7 N18 2.556894 1_555
Ca8 N2 2.419960 1_555
Ca8 N8 2.551757 1_555
Ca8 N8 2.551757 1_554
Ca8 N16 2.556894 1_555
Ca8 N16 2.556894 1_554
Ca9 N3 2.419960 1_555
Ca9 N9 2.551757 1_554
Ca9 N9 2.551757 1_555
Ca9 N17 2.556894 1_555
Ca9 N17 2.556894 1_554
Ca10 N15 2.276277 1_556
Ca10 N15 2.276277 1_555
Ca10 N3 2.416370 1_555
Ca10 N3 2.416370 1_556
Ca11 N14 2.276277 1_556
Ca11 N14 2.276277 1_555
Ca11 N2 2.416370 1_556
Ca11 N2 2.416370 1_555
Ca12 N13 2.276277 1_555
Ca12 N13 2.276277 1_554
Ca12 N1 2.416370 1_555
Ca12 N1 2.416370 1_554
Ca13 N12 2.276277 1_555
Ca13 N12 2.276277 1_554
Ca13 N0 2.416370 1_555
Ca13 N0 2.416370 1_554
Ca14 N11 2.428734 1_556
Ca14 N11 2.428734 1_555
Ca14 N5 2.466727 1_555
Ca14 N12 2.985634 1_555
Ca15 N10 2.428734 1_556
Ca15 N10 2.428734 1_555
Ca15 N4 2.466727 1_555
Ca15 N13 2.985634 1_555
Ca16 N8 2.428734 1_554
Ca16 N8 2.428734 1_555
Ca16 N7 2.466727 1_455
Ca16 N14 2.985634 1_555
Ca17 N9 2.428734 1_555
Ca17 N9 2.428734 1_554
Ca17 N6 2.466727 1_655
Ca17 N15 2.985634 1_555
Ca18 N7 2.428734 1_555
Ca18 N7 2.428734 1_556
Ca18 N9 2.466727 1_555
Ca18 N13 2.985634 1_555
Ca19 N6 2.428734 1_556
Ca19 N6 2.428734 1_555
Ca19 N8 2.466727 1_555
Ca19 N12 2.985634 1_555
Ca20 N4 2.428734 1_555
Ca20 N4 2.428734 1_554
Ca20 N11 2.466727 1_545
Ca20 N14 2.985634 1_555
Ca21 N5 2.428734 1_555
Ca21 N5 2.428734 1_554
Ca21 N10 2.466727 1_565
Ca21 N15 2.985634 1_555
N12 V0 1.761398 1_555
N13 V1 1.761398 1_555
N14 V2 1.761398 1_555
N15 V3 1.761398 1_555
N16 V0 1.785113 1_555
N17 V1 1.785113 1_555
N18 V2 1.785113 1_555
N19 V3 1.785113 1_555
