# generated using pymatgen
data_Cs2EuCl5
_symmetry_space_group_name_H-M   'P 1'
_cell_length_a   7.66673980
_cell_length_b   9.57876088
_cell_length_c   15.41538839
_cell_angle_alpha   90.00000000
_cell_angle_beta   90.00000000
_cell_angle_gamma   90.00000000
_symmetry_Int_Tables_number   1
_chemical_formula_structural   Cs2EuCl5
_chemical_formula_sum   'Cs8 Eu4 Cl20'
_cell_volume   1132.07324655
_cell_formula_units_Z   4
loop_
 _symmetry_equiv_pos_site_id
 _symmetry_equiv_pos_as_xyz
  1  'x, y, z'
loop_
 _atom_site_type_symbol
 _atom_site_label
 _atom_site_symmetry_multiplicity
 _atom_site_fract_x
 _atom_site_fract_y
 _atom_site_fract_z
 _atom_site_occupancy
  Cs  Cs0  1  0.75000000  0.83528452  0.57838846  1
  Cs  Cs1  1  0.25000000  0.16471548  0.42161154  1
  Cs  Cs2  1  0.25000000  0.66471548  0.07838846  1
  Cs  Cs3  1  0.75000000  0.33528452  0.92161154  1
  Cs  Cs4  1  0.75000000  0.52897320  0.29012473  1
  Cs  Cs5  1  0.25000000  0.47102680  0.70987527  1
  Cs  Cs6  1  0.25000000  0.97102680  0.79012473  1
  Cs  Cs7  1  0.75000000  0.02897320  0.20987527  1
  Eu  Eu0  1  0.75000000  0.81773348  0.93324919  1
  Eu  Eu1  1  0.25000000  0.18226652  0.06675081  1
  Eu  Eu2  1  0.25000000  0.68226652  0.43324919  1
  Eu  Eu3  1  0.75000000  0.31773348  0.56675081  1
  Cl  Cl0  1  0.75000000  0.97301800  0.79112361  1
  Cl  Cl1  1  0.25000000  0.02698200  0.20887639  1
  Cl  Cl2  1  0.25000000  0.52698200  0.29112361  1
  Cl  Cl3  1  0.75000000  0.47301800  0.70887639  1
  Cl  Cl4  1  0.48890333  0.65907314  0.87736991  1
  Cl  Cl5  1  0.51109667  0.34092686  0.12263009  1
  Cl  Cl6  1  0.51109667  0.84092686  0.37736991  1
  Cl  Cl7  1  0.98890333  0.34092686  0.12263009  1
  Cl  Cl8  1  0.48890333  0.15907314  0.62263009  1
  Cl  Cl9  1  0.01109667  0.65907314  0.87736991  1
  Cl  Cl10  1  0.01109667  0.15907314  0.62263009  1
  Cl  Cl11  1  0.98890333  0.84092686  0.37736991  1
  Cl  Cl12  1  0.75000000  0.70482901  0.09275488  1
  Cl  Cl13  1  0.25000000  0.29517099  0.90724512  1
  Cl  Cl14  1  0.25000000  0.79517099  0.59275488  1
  Cl  Cl15  1  0.75000000  0.20482901  0.40724512  1
  Cl  Cl16  1  -0.00000000  -0.00000000  -0.00000000  1
  Cl  Cl17  1  -0.00000000  0.50000000  0.50000000  1
  Cl  Cl18  1  0.50000000  -0.00000000  -0.00000000  1
  Cl  Cl19  1  0.50000000  0.50000000  0.50000000  1
loop_
_geom_bond_atom_site_label_1
_geom_bond_atom_site_label_2
_geom_bond_distance
_geom_bond_site_symmetry_2
Cl0 Eu0 2.648130 1_555
Cl0 Cs0 3.534830 1_555
Cl0 Cs6 3.833448 1_655
Cl0 Cs6 3.833448 1_555
Cl0 Cs3 4.010931 1_565
Cl1 Eu1 2.648130 1_555
Cl1 Cs1 3.534830 1_555
Cl1 Cs7 3.833448 1_455
Cl1 Cs7 3.833448 1_555
Cl1 Cs2 4.010931 1_545
Cl2 Eu2 2.648130 1_555
Cl2 Cs2 3.534830 1_555
Cl2 Cs4 3.833448 1_555
Cl2 Cs4 3.833448 1_455
Cl2 Cs1 4.010931 1_555
Cl3 Eu3 2.648130 1_555
Cl3 Cs3 3.534830 1_555
Cl3 Cs5 3.833448 1_555
Cl3 Cs5 3.833448 1_655
Cl3 Cs0 4.010931 1_555
Cl4 Eu0 2.656832 1_555
Cl4 Cs2 3.600020 1_556
Cl4 Cs5 3.642252 1_555
Cl4 Cs3 3.753856 1_555
Cl4 Cs6 3.754000 1_555
Cl5 Eu1 2.656832 1_555
Cl5 Cs3 3.600020 1_554
Cl5 Cs4 3.642252 1_555
Cl5 Cs2 3.753856 1_555
Cl5 Cs7 3.754000 1_555
Cl6 Eu2 2.656832 1_555
Cl6 Cs0 3.600020 1_555
Cl6 Cs7 3.642252 1_565
Cl6 Cs1 3.753856 1_565
Cl6 Cs4 3.754000 1_555
Cl7 Eu1 2.656832 1_655
Cl7 Cs3 3.600020 1_554
Cl7 Cs4 3.642252 1_555
Cl7 Cs2 3.753856 1_655
Cl7 Cs7 3.754000 1_555
Cl8 Eu3 2.656832 1_555
Cl8 Cs1 3.600020 1_555
Cl8 Cs6 3.642252 1_545
Cl8 Cs0 3.753856 1_545
Cl8 Cs5 3.754000 1_555
Cl9 Eu0 2.656832 1_455
Cl9 Cs2 3.600020 1_556
Cl9 Cs5 3.642252 1_555
Cl9 Cs3 3.753856 1_455
Cl9 Cs6 3.754000 1_555
Cl10 Eu3 2.656832 1_455
Cl10 Cs1 3.600020 1_555
Cl10 Cs6 3.642252 1_545
Cl10 Cs0 3.753856 1_445
Cl10 Cs5 3.754000 1_555
Cl11 Eu2 2.656832 1_655
Cl11 Cs0 3.600020 1_555
Cl11 Cs7 3.642252 1_565
Cl11 Cs1 3.753856 1_665
Cl11 Cs4 3.754000 1_555
Cl12 Eu0 2.686171 1_554
Cl12 Cs4 3.477712 1_555
Cl12 Cs7 3.591667 1_565
Cl12 Cs2 3.858939 1_655
Cl12 Cs2 3.858939 1_555
Cl13 Eu1 2.686171 1_556
Cl13 Cs5 3.477712 1_555
Cl13 Cs6 3.591667 1_545
Cl13 Cs3 3.858939 1_455
Cl13 Cs3 3.858939 1_555
Cl14 Eu2 2.686171 1_555
Cl14 Cs6 3.477712 1_555
Cl14 Cs5 3.591667 1_555
Cl14 Cs0 3.858939 1_455
Cl14 Cs0 3.858939 1_555
Cl15 Eu3 2.686171 1_555
Cl15 Cs7 3.477712 1_555
Cl15 Cs4 3.591667 1_555
Cl15 Cs1 3.858939 1_555
Cl15 Cs1 3.858939 1_655
Cl16 Eu0 2.789377 1_444
Cl16 Eu1 2.789377 1_555
Cl16 Cs7 3.770666 1_455
Cl16 Cs6 3.770666 1_544
Cl16 Cs3 3.930436 1_454
Cl16 Cs2 3.930436 1_545
Cl17 Eu3 2.789377 1_455
Cl17 Eu2 2.789377 1_555
Cl17 Cs4 3.770666 1_455
Cl17 Cs5 3.770666 1_555
Cl17 Cs0 3.930436 1_455
Cl17 Cs1 3.930436 1_555
Cl18 Eu0 2.789377 1_544
Cl18 Eu1 2.789377 1_555
Cl18 Cs6 3.770666 1_544
Cl18 Cs7 3.770666 1_555
Cl18 Cs3 3.930436 1_554
Cl18 Cs2 3.930436 1_545
Cl19 Eu2 2.789377 1_555
Cl19 Eu3 2.789377 1_555
Cl19 Cs4 3.770666 1_555
Cl19 Cs5 3.770666 1_555
Cl19 Cs0 3.930436 1_555
Cl19 Cs1 3.930436 1_555
