# generated using pymatgen
data_Ba6Mn4Co2ClO16
_symmetry_space_group_name_H-M   'P 1'
_cell_length_a   5.82026935
_cell_length_b   5.82026935
_cell_length_c   14.93507500
_cell_angle_alpha   90.00000000
_cell_angle_beta   90.00000000
_cell_angle_gamma   119.97668870
_symmetry_Int_Tables_number   1
_chemical_formula_structural   Ba6Mn4Co2ClO16
_chemical_formula_sum   'Ba6 Mn4 Co2 Cl1 O16'
_cell_volume   438.25428774
_cell_formula_units_Z   1
loop_
 _symmetry_equiv_pos_site_id
 _symmetry_equiv_pos_as_xyz
  1  'x, y, z'
loop_
 _atom_site_type_symbol
 _atom_site_label
 _atom_site_symmetry_multiplicity
 _atom_site_fract_x
 _atom_site_fract_y
 _atom_site_fract_z
 _atom_site_occupancy
  Ba  Ba0  1  0.33659200  0.66340800  0.35136400  1
  Ba  Ba1  1  0.33659200  0.66340800  0.64863600  1
  Ba  Ba2  1  0.00352000  0.99648000  0.79719200  1
  Ba  Ba3  1  0.00352000  0.99648000  0.20280800  1
  Ba  Ba4  1  0.66617700  0.33382300  0.00000000  1
  Ba  Ba5  1  0.00298900  0.99701100  0.50000000  1
  Mn  Mn0  1  0.66995800  0.33004200  0.75907100  1
  Mn  Mn1  1  0.66995800  0.33004200  0.24092900  1
  Mn  Mn2  1  0.66987900  0.33012100  0.58539900  1
  Mn  Mn3  1  0.66987900  0.33012100  0.41460100  1
  Co  Co0  1  0.33669500  0.66330500  0.87934200  1
  Co  Co1  1  0.33669500  0.66330500  0.12065800  1
  Cl  Cl0  1  0.00704700  0.99295300  0.00000000  1
  O  O0  1  0.81498300  0.62156000  0.66547200  1
  O  O1  1  0.81750600  0.18249400  0.66568100  1
  O  O2  1  0.37844000  0.18501700  0.66547200  1
  O  O3  1  0.81498300  0.62156000  0.33452800  1
  O  O4  1  0.81750600  0.18249400  0.33431900  1
  O  O5  1  0.37844000  0.18501700  0.33452800  1
  O  O6  1  0.96442000  0.47586200  0.50000000  1
  O  O7  1  0.52413800  0.03558000  0.50000000  1
  O  O8  1  0.52107200  0.47892800  0.50000000  1
  O  O9  1  0.98589000  0.48690900  0.83002300  1
  O  O10  1  0.51309100  0.01411000  0.83002300  1
  O  O11  1  0.51075700  0.48924300  0.82803200  1
  O  O12  1  0.98589000  0.48690900  0.16997700  1
  O  O13  1  0.51309100  0.01411000  0.16997700  1
  O  O14  1  0.51075700  0.48924300  0.17196800  1
  O  O15  1  0.35046400  0.64953600  0.00000000  1
loop_
_geom_bond_atom_site_label_1
_geom_bond_atom_site_label_2
_geom_bond_distance
_geom_bond_site_symmetry_2
Ba0 O8 2.895815 1_555
Ba0 O7 2.906678 1_565
Ba0 O6 2.906678 1_455
Ba0 O3 2.924540 1_555
Ba0 O5 2.924540 1_555
Ba0 O4 2.928595 1_565
Ba0 O4 2.928595 1_455
Ba0 O5 2.932634 1_565
Ba0 O3 2.932634 1_455
Ba0 O14 3.203213 1_555
Ba0 O12 3.234991 1_455
Ba0 O13 3.234991 1_565
Ba1 O8 2.895815 1_555
Ba1 O7 2.906678 1_565
Ba1 O6 2.906678 1_455
Ba1 O2 2.924540 1_555
Ba1 O0 2.924540 1_555
Ba1 O1 2.928595 1_455
Ba1 O1 2.928595 1_565
Ba1 O2 2.932634 1_565
Ba1 O0 2.932634 1_455
Ba1 O11 3.203213 1_555
Ba1 O9 3.234991 1_455
Ba1 O10 3.234991 1_565
Ba2 O1 2.715395 1_465
Ba2 O0 2.728201 1_455
Ba2 O2 2.728201 1_565
Ba2 O9 2.948120 1_465
Ba2 O10 2.948120 1_465
Ba2 O11 2.948275 1_565
Ba2 O11 2.948275 1_455
Ba2 O10 2.956865 1_565
Ba2 O9 2.956865 1_455
Ba2 Cl0 3.029161 1_556
Ba3 O4 2.715395 1_465
Ba3 O5 2.728201 1_565
Ba3 O3 2.728201 1_455
Ba3 O13 2.948120 1_465
Ba3 O12 2.948120 1_465
Ba3 O14 2.948275 1_455
Ba3 O14 2.948275 1_565
Ba3 O13 2.956865 1_565
Ba3 O12 2.956865 1_455
Ba3 Cl0 3.029161 1_555
Ba4 O13 3.007372 1_555
Ba4 O12 3.007372 1_555
Ba4 O10 3.007372 1_554
Ba4 O9 3.007372 1_554
Ba4 O14 3.008438 1_555
Ba4 O11 3.008438 1_554
Ba4 O15 3.182330 1_555
Ba4 Cl0 3.323804 1_655
Ba4 Cl0 3.323804 1_545
Ba4 Cl0 3.435908 1_645
Ba4 O15 3.453325 1_545
Ba4 O15 3.453325 1_655
Ba5 O6 2.905717 1_465
Ba5 O7 2.905717 1_465
Ba5 O8 2.916861 1_565
Ba5 O8 2.916861 1_455
Ba5 O7 2.927531 1_565
Ba5 O6 2.927531 1_455
Ba5 O1 3.101367 1_465
Ba5 O4 3.101367 1_465
Ba5 O0 3.112973 1_455
Ba5 O2 3.112973 1_565
Ba5 O3 3.112973 1_455
Ba5 O5 3.112973 1_565
Mn0 O11 1.906801 1_555
Mn0 O10 1.913125 1_555
Mn0 O9 1.913125 1_555
Mn0 O2 2.028374 1_555
Mn0 O0 2.028374 1_555
Mn0 O1 2.038961 1_555
Mn1 O14 1.906801 1_555
Mn1 O13 1.913125 1_555
Mn1 O12 1.913125 1_555
Mn1 O5 2.028374 1_555
Mn1 O3 2.028374 1_555
Mn1 O4 2.038961 1_555
Mn2 O2 1.894504 1_555
Mn2 O0 1.894504 1_555
Mn2 O1 1.911007 1_555
Mn2 O7 1.957547 1_555
Mn2 O6 1.957547 1_555
Mn2 O8 1.968906 1_555
Mn3 O5 1.894504 1_555
Mn3 O3 1.894504 1_555
Mn3 O4 1.911007 1_555
Mn3 O7 1.957547 1_555
Mn3 O6 1.957547 1_555
Mn3 O8 1.968906 1_555
Co0 O15 1.807373 1_556
Co0 O11 1.914566 1_555
Co0 O9 1.915911 1_455
Co0 O10 1.915911 1_565
Co1 O15 1.807373 1_555
Co1 O14 1.914566 1_555
Co1 O12 1.915911 1_455
Co1 O13 1.915911 1_565
