# generated using pymatgen
data_FeSb(ClO)8
_symmetry_space_group_name_H-M   'P 1'
_cell_length_a   6.91022900
_cell_length_b   6.91022900
_cell_length_c   8.87674600
_cell_angle_alpha   90.00000000
_cell_angle_beta   90.00000000
_cell_angle_gamma   90.00000000
_symmetry_Int_Tables_number   1
_chemical_formula_structural   FeSb(ClO)8
_chemical_formula_sum   'Fe1 Sb1 Cl8 O8'
_cell_volume   423.87584910
_cell_formula_units_Z   1
loop_
 _symmetry_equiv_pos_site_id
 _symmetry_equiv_pos_as_xyz
  1  'x, y, z'
loop_
 _atom_site_type_symbol
 _atom_site_label
 _atom_site_symmetry_multiplicity
 _atom_site_fract_x
 _atom_site_fract_y
 _atom_site_fract_z
 _atom_site_occupancy
  Fe  Fe0  1  0.00000000  0.00000000  0.00000000  1
  Sb  Sb0  1  0.50000000  0.50000000  0.50000000  1
  Cl  Cl0  1  0.00000000  0.00000000  0.75209500  1
  Cl  Cl1  1  0.00000000  0.00000000  0.24790500  1
  Cl  Cl2  1  0.50000000  0.50000000  0.76615200  1
  Cl  Cl3  1  0.50000000  0.50000000  0.23384800  1
  Cl  Cl4  1  0.25021100  0.25021100  0.50000000  1
  Cl  Cl5  1  0.74978900  0.74978900  0.50000000  1
  Cl  Cl6  1  0.74978900  0.25021100  0.50000000  1
  Cl  Cl7  1  0.25021100  0.74978900  0.50000000  1
  O  O0  1  0.00000000  0.26292500  0.00000000  1
  O  O1  1  0.00000000  0.73707500  0.00000000  1
  O  O2  1  0.73707500  0.00000000  0.00000000  1
  O  O3  1  0.26292500  0.00000000  0.00000000  1
  O  O4  1  0.50000000  0.00000000  0.68708800  1
  O  O5  1  0.00000000  0.50000000  0.68708800  1
  O  O6  1  0.50000000  0.00000000  0.31291200  1
  O  O7  1  0.00000000  0.50000000  0.31291200  1
loop_
_geom_bond_atom_site_label_1
_geom_bond_atom_site_label_2
_geom_bond_distance
_geom_bond_site_symmetry_2
Fe0 O3 1.816872 1_555
Fe0 O0 1.816872 1_555
Fe0 O2 1.816872 1_455
Fe0 O1 1.816872 1_545
Cl0 Fe0 2.200590 1_556
Cl1 Fe0 2.200590 1_555
Cl2 Sb0 2.362564 1_555
Cl3 Sb0 2.362564 1_555
Cl4 Sb0 2.441073 1_555
Cl5 Sb0 2.441073 1_555
Cl6 Sb0 2.441073 1_555
Cl7 Sb0 2.441073 1_555
