# generated using pymatgen
data_Li3MnV(PO4)3
_symmetry_space_group_name_H-M   'P 1'
_cell_length_a   8.66114100
_cell_length_b   8.69008813
_cell_length_c   12.64106087
_cell_angle_alpha   105.60465511
_cell_angle_beta   105.95923871
_cell_angle_gamma   95.73643500
_symmetry_Int_Tables_number   1
_chemical_formula_structural   Li3MnV(PO4)3
_chemical_formula_sum   'Li12 Mn4 V4 P12 O48'
_cell_volume   865.37646851
_cell_formula_units_Z   4
loop_
 _symmetry_equiv_pos_site_id
 _symmetry_equiv_pos_as_xyz
  1  'x, y, z'
loop_
 _atom_site_type_symbol
 _atom_site_label
 _atom_site_symmetry_multiplicity
 _atom_site_fract_x
 _atom_site_fract_y
 _atom_site_fract_z
 _atom_site_occupancy
  Li  Li0  1  0.00359600  0.00097400  0.12470600  1
  Li  Li1  1  0.99547100  0.99387000  0.62538700  1
  Li  Li2  1  0.71159400  0.29201000  0.37608200  1
  Li  Li3  1  0.49949800  0.50017900  0.25118100  1
  Li  Li4  1  0.71229000  0.29104600  0.87551000  1
  Li  Li5  1  0.50185200  0.50077600  0.49936800  1
  Li  Li6  1  0.29058800  0.71051300  0.12475700  1
  Li  Li7  1  0.50129700  0.50174500  0.74920800  1
  Li  Li8  1  0.50017600  0.49991800  0.00116200  1
  Li  Li9  1  0.28774900  0.70691400  0.62297700  1
  Li  Li10  1  0.00483700  0.00071500  0.37331000  1
  Li  Li11  1  0.99710000  0.00669400  0.87406100  1
  Mn  Mn0  1  0.94094800  0.63299900  0.68474000  1
  Mn  Mn1  1  0.37386600  0.05412300  0.06467500  1
  Mn  Mn2  1  0.05545800  0.37430000  0.31529300  1
  Mn  Mn3  1  0.05723700  0.37106200  0.81422700  1
  V  V0  1  0.94151100  0.62314600  0.18083600  1
  V  V1  1  0.62182100  0.94328700  0.43018500  1
  V  V2  1  0.62302600  0.94260900  0.93136400  1
  V  V3  1  0.38027400  0.05559700  0.56869400  1
  P  P0  1  0.71081800  0.28701900  0.12519200  1
  P  P1  1  0.85964600  0.66496900  0.43366300  1
  P  P2  1  0.66720800  0.86085500  0.18273800  1
  P  P3  1  0.71547400  0.29169600  0.62446500  1
  P  P4  1  0.85998400  0.66684000  0.93057800  1
  P  P5  1  0.66333700  0.87019400  0.68327500  1
  P  P6  1  0.33778700  0.13279700  0.31527500  1
  P  P7  1  0.13304400  0.33848800  0.06719100  1
  P  P8  1  0.28605200  0.70940300  0.37462100  1
  P  P9  1  0.33668800  0.13227900  0.81863100  1
  P  P10  1  0.14229900  0.33401300  0.56752200  1
  P  P11  1  0.28562600  0.70976800  0.87440400  1
  O  O0  1  0.98557400  0.66227900  0.04424900  1
  O  O1  1  0.94743000  0.61527300  0.33979800  1
  O  O2  1  0.74004300  0.17653700  0.01668600  1
  O  O3  1  0.98504100  0.66212600  0.54942500  1
  O  O4  1  0.82612600  0.26709300  0.23859200  1
  O  O5  1  0.85110300  0.84180000  0.20205000  1
  O  O6  1  0.73127700  0.46297300  0.11697000  1
  O  O7  1  0.84083700  0.84811600  0.45358100  1
  O  O8  1  0.94653800  0.61545200  0.83522100  1
  O  O9  1  0.74100000  0.17580900  0.51620800  1
  O  O10  1  0.82626300  0.26866500  0.73789600  1
  O  O11  1  0.84771400  0.86127400  0.69886600  1
  O  O12  1  0.70073200  0.54470300  0.39823100  1
  O  O13  1  0.61594100  0.94641400  0.08756100  1
  O  O14  1  0.66434000  0.98657700  0.29617400  1
  O  O15  1  0.53568900  0.25572900  0.13538200  1
  O  O16  1  0.74107800  0.46595400  0.61383800  1
  O  O17  1  0.54635600  0.70268400  0.14856800  1
  O  O18  1  0.84196600  0.84980000  0.94896500  1
  O  O19  1  0.70090400  0.54691700  0.89608500  1
  O  O20  1  0.59915800  0.95506000  0.58756600  1
  O  O21  1  0.45234600  0.29505600  0.35097800  1
  O  O22  1  0.65973700  0.99317400  0.79747600  1
  O  O23  1  0.53884900  0.26508700  0.63251400  1
  O  O24  1  0.46380900  0.73315000  0.36878600  1
  O  O25  1  0.34000300  0.01114300  0.19904300  1
  O  O26  1  0.55048800  0.70719600  0.64950700  1
  O  O27  1  0.40107700  0.04491800  0.40973300  1
  O  O28  1  0.29636900  0.45197500  0.10322900  1
  O  O29  1  0.14184800  0.15559200  0.05297500  1
  O  O30  1  0.45036700  0.29494600  0.85356500  1
  O  O31  1  0.25814000  0.53361200  0.38409200  1
  O  O32  1  0.46135700  0.73363500  0.86567100  1
  O  O33  1  0.34100800  0.01096000  0.70432200  1
  O  O34  1  0.40274500  0.04521900  0.91425800  1
  O  O35  1  0.30101600  0.45484900  0.60325000  1
  O  O36  1  0.15379200  0.14257900  0.29993700  1
  O  O37  1  0.17623300  0.73622700  0.26379500  1
  O  O38  1  0.26125900  0.82358800  0.48425600  1
  O  O39  1  0.04415600  0.40271800  0.16175600  1
  O  O40  1  0.16156000  0.15127500  0.54920400  1
  O  O41  1  0.25751800  0.53658900  0.88669700  1
  O  O42  1  0.15316800  0.14103800  0.80499200  1
  O  O43  1  0.17396500  0.73406300  0.76230800  1
  O  O44  1  0.01694900  0.33674300  0.45224400  1
  O  O45  1  0.26323300  0.82583600  0.98544600  1
  O  O46  1  0.05409700  0.38454000  0.66207200  1
  O  O47  1  0.01164800  0.34225800  0.95070500  1
loop_
_geom_bond_atom_site_label_1
_geom_bond_atom_site_label_2
_geom_bond_distance
_geom_bond_site_symmetry_2
Li0 O36 2.177648 1_555
Li0 O18 2.230001 1_444
Li0 O29 2.234349 1_555
Li0 O5 2.384567 1_445
Li1 O7 2.167079 1_555
Li1 O11 2.182416 1_555
Li1 O42 2.244822 1_665
Li1 O40 2.438234 1_665
Li2 O12 2.152750 1_555
Li2 O21 2.183510 1_555
Li2 O4 2.200039 1_555
Li2 O9 2.233348 1_555
Li2 O44 2.503102 1_655
Li2 O14 2.519110 1_545
Li3 O12 2.083143 1_555
Li3 O28 2.095323 1_555
Li3 O24 2.272221 1_555
Li3 O15 2.337976 1_555
Li3 O21 2.506652 1_555
Li3 O17 2.513745 1_555
Li4 O19 2.183647 1_555
Li4 O10 2.199793 1_555
Li4 O30 2.213322 1_555
Li4 O2 2.236105 1_556
Li4 O47 2.451649 1_655
Li4 O22 2.454500 1_545
Li5 O21 2.121039 1_555
Li5 O26 2.138919 1_555
Li5 O16 2.278310 1_555
Li5 O31 2.305018 1_555
Li5 O12 2.467682 1_555
Li5 O35 2.511728 1_555
Li6 O17 2.162639 1_555
Li6 O28 2.196668 1_555
Li6 O37 2.215909 1_555
Li6 O45 2.220189 1_554
Li6 O25 2.475030 1_565
Li6 O0 2.502211 1_455
Li7 O35 2.067253 1_555
Li7 O19 2.072989 1_555
Li7 O32 2.274030 1_555
Li7 O23 2.297115 1_555
Li7 O26 2.512240 1_555
Li7 O30 2.569310 1_555
Li8 O17 2.102330 1_555
Li8 O30 2.110880 1_554
Li8 O6 2.241107 1_555
Li8 O41 2.306951 1_554
Li8 O28 2.519689 1_555
Li8 O19 2.524570 1_554
Li9 O35 2.155397 1_555
Li9 O26 2.206738 1_555
Li9 O43 2.215049 1_555
Li9 O38 2.222047 1_555
Li9 O3 2.480042 1_455
Li9 O33 2.507016 1_565
Li10 O5 2.192185 1_445
Li10 O40 2.217753 1_555
Li10 O36 2.236014 1_555
Li10 O7 2.438394 1_445
Li11 O11 2.183448 1_545
Li11 O42 2.198719 1_655
Li11 O29 2.214317 1_656
Li11 O18 2.364060 1_545
Mn0 O3 1.925783 1_555
Mn0 O8 1.936748 1_555
Mn0 O16 1.962588 1_555
Mn0 O43 1.974852 1_655
Mn0 O11 2.197292 1_555
Mn0 O46 2.439039 1_655
Mn1 O25 1.924570 1_555
Mn1 O15 1.952047 1_555
Mn1 O34 1.967292 1_554
Mn1 O45 1.969813 1_544
Mn1 O29 2.258008 1_555
Mn1 O13 2.357997 1_545
Mn2 O31 1.944611 1_555
Mn2 O44 1.953094 1_555
Mn2 O4 1.959183 1_455
Mn2 O39 1.998942 1_555
Mn2 O36 2.245306 1_555
Mn2 O1 2.357672 1_455
Mn3 O47 1.944773 1_555
Mn3 O46 1.951153 1_555
Mn3 O41 1.958517 1_555
Mn3 O10 1.961016 1_455
Mn3 O42 2.226994 1_555
Mn3 O8 2.396631 1_455
O0 P4 1.558611 1_554
O0 V0 1.973514 1_555
O1 P1 1.567972 1_555
O1 V0 2.015740 1_555
O2 P0 1.548627 1_555
O2 V2 2.032341 1_544
O3 P1 1.572387 1_555
O4 P0 1.569441 1_555
O5 P2 1.576227 1_555
O5 V0 2.105776 1_555
O6 P0 1.556174 1_555
O6 V0 1.996287 1_555
O7 P1 1.575374 1_555
O7 V1 2.122855 1_555
O8 P4 1.577552 1_555
O9 P3 1.550887 1_555
O9 V1 2.028451 1_545
O10 P3 1.566210 1_555
O11 P5 1.566806 1_555
O12 P1 1.519507 1_555
O13 P2 1.565569 1_555
O13 V2 1.983785 1_554
O14 P2 1.559690 1_555
O14 V1 1.950677 1_555
O15 P0 1.560481 1_555
O16 P3 1.555338 1_555
O17 P2 1.521789 1_555
O18 P4 1.573853 1_555
O18 V2 2.113309 1_555
O19 P4 1.520750 1_555
O20 P5 1.583923 1_555
O20 V1 2.028845 1_555
O20 V3 2.146801 1_565
O21 P6 1.519242 1_555
O22 P5 1.558377 1_555
O22 V2 1.956221 1_555
O23 P3 1.559349 1_555
O23 V3 1.987983 1_555
O24 P8 1.557386 1_555
O24 V1 1.990935 1_555
O25 P6 1.568669 1_555
O26 P5 1.520665 1_555
O27 P6 1.588638 1_555
O27 V3 2.044755 1_555
O27 V1 2.165819 1_545
O28 P7 1.518625 1_555
O29 P7 1.562800 1_555
O30 P9 1.519704 1_555
O31 P8 1.564271 1_555
O32 P11 1.553510 1_555
O32 V2 1.997262 1_555
O33 P9 1.555283 1_555
O33 V3 1.964086 1_555
O34 P9 1.599753 1_555
O34 V2 2.167683 1_545
O35 P10 1.520273 1_555
O36 P6 1.565387 1_555
O37 P8 1.552085 1_555
O37 V0 2.017967 1_455
O38 P8 1.554944 1_555
O38 V3 2.022018 1_565
O39 P7 1.601953 1_555
O39 V0 2.174306 1_455
O40 P10 1.574672 1_555
O40 V3 2.123405 1_555
O41 P11 1.556163 1_555
O42 P9 1.562867 1_555
O43 P11 1.560761 1_555
O44 P10 1.567335 1_555
O45 P11 1.566022 1_555
O46 P10 1.578521 1_555
O47 P7 1.567260 1_556
