# generated using pymatgen
data_KCoMo3(AsO6)3
_symmetry_space_group_name_H-M   'P 1'
_cell_length_a   15.20295503
_cell_length_b   15.20295503
_cell_length_c   15.20295503
_cell_angle_alpha   90.00000000
_cell_angle_beta   90.00000000
_cell_angle_gamma   90.00000000
_symmetry_Int_Tables_number   1
_chemical_formula_structural   KCoMo3(AsO6)3
_chemical_formula_sum   'K8 Co8 Mo24 As24 O144'
_cell_volume   3513.85658861
_cell_formula_units_Z   8
loop_
 _symmetry_equiv_pos_site_id
 _symmetry_equiv_pos_as_xyz
  1  'x, y, z'
loop_
 _atom_site_type_symbol
 _atom_site_label
 _atom_site_symmetry_multiplicity
 _atom_site_fract_x
 _atom_site_fract_y
 _atom_site_fract_z
 _atom_site_occupancy
  K  K0  1  0.25180448  0.75180448  0.74819552  1
  K  K1  1  0.74819552  0.25180448  0.75180448  1
  K  K2  1  0.24819552  0.24819552  0.24819552  1
  K  K3  1  0.75180448  0.74819552  0.25180448  1
  K  K4  1  0.74819552  0.24819552  0.25180448  1
  K  K5  1  0.25180448  0.74819552  0.24819552  1
  K  K6  1  0.75180448  0.75180448  0.75180448  1
  K  K7  1  0.24819552  0.25180448  0.74819552  1
  Co  Co0  1  0.50000000  0.50000000  -0.00000000  1
  Co  Co1  1  0.50000000  0.00000000  0.50000000  1
  Co  Co2  1  -0.00000000  0.50000000  0.50000000  1
  Co  Co3  1  -0.00000000  0.00000000  -0.00000000  1
  Co  Co4  1  0.50000000  0.50000000  0.50000000  1
  Co  Co5  1  0.50000000  0.00000000  -0.00000000  1
  Co  Co6  1  -0.00000000  0.50000000  -0.00000000  1
  Co  Co7  1  -0.00000000  0.00000000  0.50000000  1
  Mo  Mo0  1  0.34138631  0.50274630  0.84049511  1
  Mo  Mo1  1  0.65861369  0.00274630  0.65950489  1
  Mo  Mo2  1  0.15861369  0.49725370  0.34049511  1
  Mo  Mo3  1  0.84138631  0.99725370  0.15950489  1
  Mo  Mo4  1  0.84049511  0.34138631  0.50274630  1
  Mo  Mo5  1  0.65950489  0.65861369  0.00274630  1
  Mo  Mo6  1  0.34049511  0.15861369  0.49725370  1
  Mo  Mo7  1  0.15950489  0.84138631  0.99725370  1
  Mo  Mo8  1  0.50274630  0.84049511  0.34138631  1
  Mo  Mo9  1  0.00274630  0.65950489  0.65861369  1
  Mo  Mo10  1  0.49725370  0.34049511  0.15861369  1
  Mo  Mo11  1  0.99725370  0.15950489  0.84138631  1
  Mo  Mo12  1  0.65861369  0.49725370  0.15950489  1
  Mo  Mo13  1  0.34138631  0.99725370  0.34049511  1
  Mo  Mo14  1  0.84138631  0.50274630  0.65950489  1
  Mo  Mo15  1  0.15861369  0.00274630  0.84049511  1
  Mo  Mo16  1  0.15950489  0.65861369  0.49725370  1
  Mo  Mo17  1  0.34049511  0.34138631  0.99725370  1
  Mo  Mo18  1  0.65950489  0.84138631  0.50274630  1
  Mo  Mo19  1  0.84049511  0.15861369  0.00274630  1
  Mo  Mo20  1  0.49725370  0.15950489  0.65861369  1
  Mo  Mo21  1  0.99725370  0.34049511  0.34138631  1
  Mo  Mo22  1  0.50274630  0.65950489  0.84138631  1
  Mo  Mo23  1  0.00274630  0.84049511  0.15861369  1
  As  As0  1  0.51137576  0.34463191  0.83145339  1
  As  As1  1  0.48862424  0.84463191  0.66854661  1
  As  As2  1  0.98862424  0.65536809  0.33145339  1
  As  As3  1  0.01137576  0.15536809  0.16854661  1
  As  As4  1  0.83145339  0.51137576  0.34463191  1
  As  As5  1  0.66854661  0.48862424  0.84463191  1
  As  As6  1  0.33145339  0.98862424  0.65536809  1
  As  As7  1  0.16854661  0.01137576  0.15536809  1
  As  As8  1  0.34463191  0.83145339  0.51137576  1
  As  As9  1  0.84463191  0.66854661  0.48862424  1
  As  As10  1  0.65536809  0.33145339  0.98862424  1
  As  As11  1  0.15536809  0.16854661  0.01137576  1
  As  As12  1  0.48862424  0.65536809  0.16854661  1
  As  As13  1  0.51137576  0.15536809  0.33145339  1
  As  As14  1  0.01137576  0.34463191  0.66854661  1
  As  As15  1  0.98862424  0.84463191  0.83145339  1
  As  As16  1  0.16854661  0.48862424  0.65536809  1
  As  As17  1  0.33145339  0.51137576  0.15536809  1
  As  As18  1  0.66854661  0.01137576  0.34463191  1
  As  As19  1  0.83145339  0.98862424  0.84463191  1
  As  As20  1  0.65536809  0.16854661  0.48862424  1
  As  As21  1  0.15536809  0.33145339  0.51137576  1
  As  As22  1  0.34463191  0.66854661  0.01137576  1
  As  As23  1  0.84463191  0.83145339  0.98862424  1
  O  O0  1  0.45458909  0.41829848  0.91262558  1
  O  O1  1  0.54541091  0.91829848  0.58737442  1
  O  O2  1  0.04541091  0.58170152  0.41262558  1
  O  O3  1  0.95458909  0.08170152  0.08737442  1
  O  O4  1  0.91262558  0.45458909  0.41829848  1
  O  O5  1  0.58737442  0.54541091  0.91829848  1
  O  O6  1  0.41262558  0.04541091  0.58170152  1
  O  O7  1  0.08737442  0.95458909  0.08170152  1
  O  O8  1  0.41829848  0.91262558  0.45458909  1
  O  O9  1  0.91829848  0.58737442  0.54541091  1
  O  O10  1  0.58170152  0.41262558  0.04541091  1
  O  O11  1  0.08170152  0.08737442  0.95458909  1
  O  O12  1  0.54541091  0.58170152  0.08737442  1
  O  O13  1  0.45458909  0.08170152  0.41262558  1
  O  O14  1  0.95458909  0.41829848  0.58737442  1
  O  O15  1  0.04541091  0.91829848  0.91262558  1
  O  O16  1  0.08737442  0.54541091  0.58170152  1
  O  O17  1  0.41262558  0.45458909  0.08170152  1
  O  O18  1  0.58737442  0.95458909  0.41829848  1
  O  O19  1  0.91262558  0.04541091  0.91829848  1
  O  O20  1  0.58170152  0.08737442  0.54541091  1
  O  O21  1  0.08170152  0.41262558  0.45458909  1
  O  O22  1  0.41829848  0.58737442  0.95458909  1
  O  O23  1  0.91829848  0.91262558  0.04541091  1
  O  O24  1  0.26492125  0.58593380  0.82390690  1
  O  O25  1  0.73507875  0.08593380  0.67609310  1
  O  O26  1  0.23507875  0.41406620  0.32390690  1
  O  O27  1  0.76492125  0.91406620  0.17609310  1
  O  O28  1  0.82390690  0.26492125  0.58593380  1
  O  O29  1  0.67609310  0.73507875  0.08593380  1
  O  O30  1  0.32390690  0.23507875  0.41406620  1
  O  O31  1  0.17609310  0.76492125  0.91406620  1
  O  O32  1  0.58593380  0.82390690  0.26492125  1
  O  O33  1  0.08593380  0.67609310  0.73507875  1
  O  O34  1  0.41406620  0.32390690  0.23507875  1
  O  O35  1  0.91406620  0.17609310  0.76492125  1
  O  O36  1  0.73507875  0.41406620  0.17609310  1
  O  O37  1  0.26492125  0.91406620  0.32390690  1
  O  O38  1  0.76492125  0.58593380  0.67609310  1
  O  O39  1  0.23507875  0.08593380  0.82390690  1
  O  O40  1  0.17609310  0.73507875  0.41406620  1
  O  O41  1  0.32390690  0.26492125  0.91406620  1
  O  O42  1  0.67609310  0.76492125  0.58593380  1
  O  O43  1  0.82390690  0.23507875  0.08593380  1
  O  O44  1  0.41406620  0.17609310  0.73507875  1
  O  O45  1  0.91406620  0.32390690  0.26492125  1
  O  O46  1  0.58593380  0.67609310  0.76492125  1
  O  O47  1  0.08593380  0.82390690  0.23507875  1
  O  O48  1  0.29054399  0.44565746  0.94265048  1
  O  O49  1  0.70945601  0.94565746  0.55734952  1
  O  O50  1  0.20945601  0.55434254  0.44265048  1
  O  O51  1  0.79054399  0.05434254  0.05734952  1
  O  O52  1  0.94265048  0.29054399  0.44565746  1
  O  O53  1  0.55734952  0.70945601  0.94565746  1
  O  O54  1  0.44265048  0.20945601  0.55434254  1
  O  O55  1  0.05734952  0.79054399  0.05434254  1
  O  O56  1  0.44565746  0.94265048  0.29054399  1
  O  O57  1  0.94565746  0.55734952  0.70945601  1
  O  O58  1  0.55434254  0.44265048  0.20945601  1
  O  O59  1  0.05434254  0.05734952  0.79054399  1
  O  O60  1  0.70945601  0.55434254  0.05734952  1
  O  O61  1  0.29054399  0.05434254  0.44265048  1
  O  O62  1  0.79054399  0.44565746  0.55734952  1
  O  O63  1  0.20945601  0.94565746  0.94265048  1
  O  O64  1  0.05734952  0.70945601  0.55434254  1
  O  O65  1  0.44265048  0.29054399  0.05434254  1
  O  O66  1  0.55734952  0.79054399  0.44565746  1
  O  O67  1  0.94265048  0.20945601  0.94565746  1
  O  O68  1  0.55434254  0.05734952  0.70945601  1
  O  O69  1  0.05434254  0.44265048  0.29054399  1
  O  O70  1  0.44565746  0.55734952  0.79054399  1
  O  O71  1  0.94565746  0.94265048  0.20945601  1
  O  O72  1  0.31945342  0.42361021  0.75985430  1
  O  O73  1  0.68054658  0.92361021  0.74014570  1
  O  O74  1  0.18054658  0.57638979  0.25985430  1
  O  O75  1  0.81945342  0.07638979  0.24014570  1
  O  O76  1  0.75985430  0.31945342  0.42361021  1
  O  O77  1  0.74014570  0.68054658  0.92361021  1
  O  O78  1  0.25985430  0.18054658  0.57638979  1
  O  O79  1  0.24014570  0.81945342  0.07638979  1
  O  O80  1  0.42361021  0.75985430  0.31945342  1
  O  O81  1  0.92361021  0.74014570  0.68054658  1
  O  O82  1  0.57638979  0.25985430  0.18054658  1
  O  O83  1  0.07638979  0.24014570  0.81945342  1
  O  O84  1  0.68054658  0.57638979  0.24014570  1
  O  O85  1  0.31945342  0.07638979  0.25985430  1
  O  O86  1  0.81945342  0.42361021  0.74014570  1
  O  O87  1  0.18054658  0.92361021  0.75985430  1
  O  O88  1  0.24014570  0.68054658  0.57638979  1
  O  O89  1  0.25985430  0.31945342  0.07638979  1
  O  O90  1  0.74014570  0.81945342  0.42361021  1
  O  O91  1  0.75985430  0.18054658  0.92361021  1
  O  O92  1  0.57638979  0.24014570  0.68054658  1
  O  O93  1  0.07638979  0.25985430  0.31945342  1
  O  O94  1  0.42361021  0.74014570  0.81945342  1
  O  O95  1  0.92361021  0.75985430  0.18054658  1
  O  O96  1  0.58100019  0.28514485  0.90739913  1
  O  O97  1  0.41899981  0.78514485  0.59260087  1
  O  O98  1  0.91899981  0.71485515  0.40739913  1
  O  O99  1  0.08100019  0.21485515  0.09260087  1
  O  O100  1  0.90739913  0.58100019  0.28514485  1
  O  O101  1  0.59260087  0.41899981  0.78514485  1
  O  O102  1  0.40739913  0.91899981  0.71485515  1
  O  O103  1  0.09260087  0.08100019  0.21485515  1
  O  O104  1  0.28514485  0.90739913  0.58100019  1
  O  O105  1  0.78514485  0.59260087  0.41899981  1
  O  O106  1  0.71485515  0.40739913  0.91899981  1
  O  O107  1  0.21485515  0.09260087  0.08100019  1
  O  O108  1  0.41899981  0.71485515  0.09260087  1
  O  O109  1  0.58100019  0.21485515  0.40739913  1
  O  O110  1  0.08100019  0.28514485  0.59260087  1
  O  O111  1  0.91899981  0.78514485  0.90739913  1
  O  O112  1  0.09260087  0.41899981  0.71485515  1
  O  O113  1  0.40739913  0.58100019  0.21485515  1
  O  O114  1  0.59260087  0.08100019  0.28514485  1
  O  O115  1  0.90739913  0.91899981  0.78514485  1
  O  O116  1  0.71485515  0.09260087  0.41899981  1
  O  O117  1  0.21485515  0.40739913  0.58100019  1
  O  O118  1  0.28514485  0.59260087  0.08100019  1
  O  O119  1  0.78514485  0.90739913  0.91899981  1
  O  O120  1  0.42150440  0.55474515  0.43286327  1
  O  O121  1  0.57849560  0.05474515  0.06713673  1
  O  O122  1  0.07849560  0.44525485  0.93286327  1
  O  O123  1  0.92150440  0.94525485  0.56713673  1
  O  O124  1  0.43286327  0.42150440  0.55474515  1
  O  O125  1  0.06713673  0.57849560  0.05474515  1
  O  O126  1  0.93286327  0.07849560  0.44525485  1
  O  O127  1  0.56713673  0.92150440  0.94525485  1
  O  O128  1  0.55474515  0.43286327  0.42150440  1
  O  O129  1  0.05474515  0.06713673  0.57849560  1
  O  O130  1  0.44525485  0.93286327  0.07849560  1
  O  O131  1  0.94525485  0.56713673  0.92150440  1
  O  O132  1  0.57849560  0.44525485  0.56713673  1
  O  O133  1  0.42150440  0.94525485  0.93286327  1
  O  O134  1  0.92150440  0.55474515  0.06713673  1
  O  O135  1  0.07849560  0.05474515  0.43286327  1
  O  O136  1  0.56713673  0.57849560  0.44525485  1
  O  O137  1  0.93286327  0.42150440  0.94525485  1
  O  O138  1  0.06713673  0.92150440  0.55474515  1
  O  O139  1  0.43286327  0.07849560  0.05474515  1
  O  O140  1  0.44525485  0.56713673  0.57849560  1
  O  O141  1  0.94525485  0.93286327  0.42150440  1
  O  O142  1  0.55474515  0.06713673  0.92150440  1
  O  O143  1  0.05474515  0.43286327  0.07849560  1
loop_
_geom_bond_atom_site_label_1
_geom_bond_atom_site_label_2
_geom_bond_distance
_geom_bond_site_symmetry_2
K0 O33 2.779163 1_555
K0 O24 2.779163 1_555
K0 O31 2.779163 1_555
K0 O94 2.833254 1_555
K0 O88 2.833254 1_555
K0 O87 2.833254 1_555
K1 O25 2.779163 1_555
K1 O35 2.779163 1_555
K1 O28 2.779163 1_555
K1 O91 2.833254 1_555
K1 O92 2.833254 1_555
K1 O86 2.833254 1_555
K2 O34 2.779163 1_555
K2 O26 2.779163 1_555
K2 O30 2.779163 1_555
K2 O85 2.833254 1_555
K2 O89 2.833254 1_555
K2 O93 2.833254 1_555
K3 O29 2.779163 1_555
K3 O32 2.779163 1_555
K3 O27 2.779163 1_555
K3 O84 2.833254 1_555
K3 O95 2.833254 1_555
K3 O90 2.833254 1_555
K4 O43 2.779163 1_555
K4 O36 2.779163 1_555
K4 O45 2.779163 1_555
K4 O75 2.833254 1_555
K4 O76 2.833254 1_555
K4 O82 2.833254 1_555
K5 O47 2.779163 1_555
K5 O40 2.779163 1_555
K5 O37 2.779163 1_555
K5 O79 2.833254 1_555
K5 O80 2.833254 1_555
K5 O74 2.833254 1_555
K6 O38 2.779163 1_555
K6 O46 2.779163 1_555
K6 O42 2.779163 1_555
K6 O81 2.833254 1_555
K6 O73 2.833254 1_555
K6 O77 2.833254 1_555
K7 O44 2.779163 1_555
K7 O39 2.779163 1_555
K7 O41 2.779163 1_555
K7 O72 2.833254 1_555
K7 O78 2.833254 1_555
K7 O83 2.833254 1_555
Co0 O5 1.945240 1_554
Co0 O12 1.945240 1_555
Co0 O22 1.945240 1_554
Co0 O0 1.945240 1_554
Co0 O10 1.945240 1_555
Co0 O17 1.945240 1_555
Co1 O1 1.945240 1_545
Co1 O20 1.945240 1_555
Co1 O18 1.945240 1_545
Co1 O8 1.945240 1_545
Co1 O6 1.945240 1_555
Co1 O13 1.945240 1_555
Co2 O9 1.945240 1_455
Co2 O16 1.945240 1_555
Co2 O14 1.945240 1_455
Co2 O4 1.945240 1_455
Co2 O2 1.945240 1_555
Co2 O21 1.945240 1_555
Co3 O15 1.945240 1_544
Co3 O19 1.945240 1_454
Co3 O23 1.945240 1_445
Co3 O3 1.945240 1_455
Co3 O11 1.945240 1_554
Co3 O7 1.945240 1_545
Co4 O140 1.777246 1_555
Co4 O124 1.777246 1_555
Co4 O128 1.777246 1_555
Co4 O136 1.777246 1_555
Co4 O120 1.777246 1_555
Co4 O132 1.777246 1_555
Co5 O130 1.777246 1_545
Co5 O127 1.777246 1_544
Co5 O139 1.777246 1_555
Co5 O133 1.777246 1_544
Co5 O121 1.777246 1_555
Co5 O142 1.777246 1_554
Co6 O131 1.777246 1_454
Co6 O137 1.777246 1_454
Co6 O143 1.777246 1_555
Co6 O125 1.777246 1_555
Co6 O122 1.777246 1_554
Co6 O134 1.777246 1_455
Co7 O141 1.777246 1_445
Co7 O126 1.777246 1_455
Co7 O135 1.777246 1_555
Co7 O129 1.777246 1_555
Co7 O123 1.777246 1_445
Co7 O138 1.777246 1_545
Mo0 O24 1.736217 1_555
Mo0 O72 1.749761 1_555
Mo0 O48 1.939780 1_555
Mo0 O70 1.943904 1_555
Mo0 O0 2.410956 1_555
Mo0 O22 2.455870 1_555
Mo1 O25 1.736217 1_555
Mo1 O73 1.749761 1_545
Mo1 O49 1.939780 1_545
Mo1 O68 1.943904 1_555
Mo1 O1 2.410956 1_545
Mo1 O20 2.455870 1_555
Mo2 O26 1.736217 1_555
Mo2 O74 1.749761 1_555
Mo2 O50 1.939780 1_555
Mo2 O69 1.943904 1_555
Mo2 O2 2.410956 1_555
Mo2 O21 2.455870 1_555
Mo3 O27 1.736217 1_555
Mo3 O75 1.749761 1_565
Mo3 O51 1.939780 1_565
Mo3 O71 1.943904 1_555
Mo3 O3 2.410956 1_565
Mo3 O23 2.455870 1_555
Mo4 O28 1.736217 1_555
Mo4 O76 1.749761 1_555
Mo4 O52 1.939780 1_555
Mo4 O62 1.943904 1_555
Mo4 O4 2.410956 1_555
Mo4 O14 2.455870 1_555
Mo5 O29 1.736217 1_555
Mo5 O77 1.749761 1_554
Mo5 O53 1.939780 1_554
Mo5 O60 1.943904 1_555
Mo5 O5 2.410956 1_554
Mo5 O12 2.455870 1_555
Mo6 O30 1.736217 1_555
Mo6 O78 1.749761 1_555
Mo6 O54 1.939780 1_555
Mo6 O61 1.943904 1_555
Mo6 O6 2.410956 1_555
Mo6 O13 2.455870 1_555
Mo7 O31 1.736217 1_555
Mo7 O79 1.749761 1_556
Mo7 O55 1.939780 1_556
Mo7 O63 1.943904 1_555
Mo7 O7 2.410956 1_556
Mo7 O15 2.455870 1_555
Mo8 O32 1.736217 1_555
Mo8 O80 1.749761 1_555
Mo8 O56 1.939780 1_555
Mo8 O66 1.943904 1_555
Mo8 O8 2.410956 1_555
Mo8 O18 2.455870 1_555
Mo9 O33 1.736217 1_555
Mo9 O81 1.749761 1_455
Mo9 O57 1.939780 1_455
Mo9 O64 1.943904 1_555
Mo9 O9 2.410956 1_455
Mo9 O16 2.455870 1_555
Mo10 O34 1.736217 1_555
Mo10 O82 1.749761 1_555
Mo10 O58 1.939780 1_555
Mo10 O65 1.943904 1_555
Mo10 O10 2.410956 1_555
Mo10 O17 2.455870 1_555
Mo11 O35 1.736217 1_555
Mo11 O83 1.749761 1_655
Mo11 O59 1.939780 1_655
Mo11 O67 1.943904 1_555
Mo11 O11 2.410956 1_655
Mo11 O19 2.455870 1_555
Mo12 O36 1.736217 1_555
Mo12 O84 1.749761 1_555
Mo12 O60 1.939780 1_555
Mo12 O58 1.943904 1_555
Mo12 O12 2.410956 1_555
Mo12 O10 2.455870 1_555
Mo13 O37 1.736217 1_555
Mo13 O85 1.749761 1_565
Mo13 O61 1.939780 1_565
Mo13 O56 1.943904 1_555
Mo13 O13 2.410956 1_565
Mo13 O8 2.455870 1_555
Mo14 O38 1.736217 1_555
Mo14 O86 1.749761 1_555
Mo14 O62 1.939780 1_555
Mo14 O57 1.943904 1_555
Mo14 O14 2.410956 1_555
Mo14 O9 2.455870 1_555
Mo15 O39 1.736217 1_555
Mo15 O87 1.749761 1_545
Mo15 O63 1.939780 1_545
Mo15 O59 1.943904 1_555
Mo15 O15 2.410956 1_545
Mo15 O11 2.455870 1_555
Mo16 O40 1.736217 1_555
Mo16 O88 1.749761 1_555
Mo16 O64 1.939780 1_555
Mo16 O50 1.943904 1_555
Mo16 O16 2.410956 1_555
Mo16 O2 2.455870 1_555
Mo17 O41 1.736217 1_555
Mo17 O89 1.749761 1_556
Mo17 O65 1.939780 1_556
Mo17 O48 1.943904 1_555
Mo17 O17 2.410956 1_556
Mo17 O0 2.455870 1_555
Mo18 O42 1.736217 1_555
Mo18 O90 1.749761 1_555
Mo18 O66 1.939780 1_555
Mo18 O49 1.943904 1_555
Mo18 O18 2.410956 1_555
Mo18 O1 2.455870 1_555
Mo19 O43 1.736217 1_555
Mo19 O91 1.749761 1_554
Mo19 O67 1.939780 1_554
Mo19 O51 1.943904 1_555
Mo19 O19 2.410956 1_554
Mo19 O3 2.455870 1_555
Mo20 O44 1.736217 1_555
Mo20 O92 1.749761 1_555
Mo20 O68 1.939780 1_555
Mo20 O54 1.943904 1_555
Mo20 O20 2.410956 1_555
Mo20 O6 2.455870 1_555
Mo21 O45 1.736217 1_555
Mo21 O93 1.749761 1_655
Mo21 O69 1.939780 1_655
Mo21 O52 1.943904 1_555
Mo21 O21 2.410956 1_655
Mo21 O4 2.455870 1_555
Mo22 O46 1.736217 1_555
Mo22 O94 1.749761 1_555
Mo22 O70 1.939780 1_555
Mo22 O53 1.943904 1_555
Mo22 O22 2.410956 1_555
Mo22 O5 2.455870 1_555
Mo23 O47 1.736217 1_555
Mo23 O95 1.749761 1_455
Mo23 O71 1.939780 1_455
Mo23 O55 1.943904 1_555
Mo23 O23 2.410956 1_455
Mo23 O7 2.455870 1_555
As0 O96 1.808706 1_555
As0 O101 1.816265 1_555
As0 O0 1.876836 1_555
As1 O97 1.808706 1_555
As1 O102 1.816265 1_555
As1 O1 1.876836 1_555
As2 O98 1.808706 1_555
As2 O100 1.816265 1_555
As2 O2 1.876836 1_655
As3 O99 1.808706 1_555
As3 O103 1.816265 1_555
As3 O3 1.876836 1_455
As4 O100 1.808706 1_555
As4 O105 1.816265 1_555
As4 O4 1.876836 1_555
As5 O101 1.808706 1_555
As5 O106 1.816265 1_555
As5 O5 1.876836 1_555
As6 O102 1.808706 1_555
As6 O104 1.816265 1_555
As6 O6 1.876836 1_565
As7 O103 1.808706 1_555
As7 O107 1.816265 1_555
As7 O7 1.876836 1_545
As8 O104 1.808706 1_555
As8 O97 1.816265 1_555
As8 O8 1.876836 1_555
As9 O105 1.808706 1_555
As9 O98 1.816265 1_555
As9 O9 1.876836 1_555
As10 O106 1.808706 1_555
As10 O96 1.816265 1_555
As10 O10 1.876836 1_556
As11 O107 1.808706 1_555
As11 O99 1.816265 1_555
As11 O11 1.876836 1_554
As12 O108 1.808706 1_555
As12 O113 1.816265 1_555
As12 O12 1.876836 1_555
As13 O109 1.808706 1_555
As13 O114 1.816265 1_555
As13 O13 1.876836 1_555
As14 O110 1.808706 1_555
As14 O112 1.816265 1_555
As14 O14 1.876836 1_455
As15 O111 1.808706 1_555
As15 O115 1.816265 1_555
As15 O15 1.876836 1_655
As16 O112 1.808706 1_555
As16 O117 1.816265 1_555
As16 O16 1.876836 1_555
As17 O113 1.808706 1_555
As17 O118 1.816265 1_555
As17 O17 1.876836 1_555
As18 O114 1.808706 1_555
As18 O116 1.816265 1_555
As18 O18 1.876836 1_545
As19 O115 1.808706 1_555
As19 O119 1.816265 1_555
As19 O19 1.876836 1_565
As20 O116 1.808706 1_555
As20 O109 1.816265 1_555
As20 O20 1.876836 1_555
As21 O117 1.808706 1_555
As21 O110 1.816265 1_555
As21 O21 1.876836 1_555
As22 O118 1.808706 1_555
As22 O108 1.816265 1_555
As22 O22 1.876836 1_554
As23 O119 1.808706 1_555
As23 O111 1.816265 1_555
As23 O23 1.876836 1_556
