# generated using pymatgen
data_Re3Br10N
_symmetry_space_group_name_H-M   'P 1'
_cell_length_a   9.21208931
_cell_length_b   9.21208931
_cell_length_c   10.42073984
_cell_angle_alpha   87.84087835
_cell_angle_beta   87.84087835
_cell_angle_gamma   73.38677853
_symmetry_Int_Tables_number   1
_chemical_formula_structural   Re3Br10N
_chemical_formula_sum   'Re6 Br20 N2'
_cell_volume   846.48010697
_cell_formula_units_Z   2
loop_
 _symmetry_equiv_pos_site_id
 _symmetry_equiv_pos_as_xyz
  1  'x, y, z'
loop_
 _atom_site_type_symbol
 _atom_site_label
 _atom_site_symmetry_multiplicity
 _atom_site_fract_x
 _atom_site_fract_y
 _atom_site_fract_z
 _atom_site_occupancy
  Re  Re0  1  0.23676300  0.23676300  0.18762600  1
  Re  Re1  1  0.76323700  0.76323700  0.81237400  1
  Re  Re2  1  0.41432300  0.18879100  0.37045200  1
  Re  Re3  1  0.18879100  0.41432300  0.37045200  1
  Re  Re4  1  0.58567700  0.81120900  0.62954800  1
  Re  Re5  1  0.81120900  0.58567700  0.62954800  1
  Br  Br0  1  0.61169200  0.29759700  0.28986000  1
  Br  Br1  1  0.29759700  0.61169200  0.28986000  1
  Br  Br2  1  0.38830800  0.70240300  0.71014000  1
  Br  Br3  1  0.70240300  0.38830800  0.71014000  1
  Br  Br4  1  0.67939900  0.00196900  0.49360100  1
  Br  Br5  1  0.00196900  0.67939900  0.49360100  1
  Br  Br6  1  0.32060100  0.99803100  0.50639900  1
  Br  Br7  1  0.99803100  0.32060100  0.50639900  1
  Br  Br8  1  0.37088000  0.37088000  0.03622600  1
  Br  Br9  1  0.62912000  0.62912000  0.96377400  1
  Br  Br10  1  0.07556700  0.07556700  0.25837600  1
  Br  Br11  1  0.92443300  0.92443300  0.74162400  1
  Br  Br12  1  0.46906300  0.00419800  0.18691400  1
  Br  Br13  1  0.00419800  0.46906300  0.18691400  1
  Br  Br14  1  0.53093700  0.99580200  0.81308600  1
  Br  Br15  1  0.99580200  0.53093700  0.81308600  1
  Br  Br16  1  0.63960300  0.63960300  0.43686000  1
  Br  Br17  1  0.36039700  0.36039700  0.56314000  1
  Br  Br18  1  0.15592100  0.15592100  0.95986100  1
  Br  Br19  1  0.84407900  0.84407900  0.04013900  1
  N  N0  1  0.79142900  0.20857100  0.00000000  1
  N  N1  1  0.20857100  0.79142900  0.00000000  1
loop_
_geom_bond_atom_site_label_1
_geom_bond_atom_site_label_2
_geom_bond_distance
_geom_bond_site_symmetry_2
Re0 Re2 2.501711 1_555
Re0 Re3 2.501711 1_555
Re1 Re4 2.501711 1_555
Re1 Re5 2.501711 1_555
Re2 Re3 2.482893 1_555
Re4 Re5 2.482893 1_555
Br0 Re2 2.424741 1_555
Br1 Re3 2.424741 1_555
Br2 Re4 2.424741 1_555
Br3 Re5 2.424741 1_555
Br4 Re4 2.535407 1_545
Br4 Re2 2.870239 1_555
Br5 Re5 2.535407 1_455
Br5 Re3 2.870239 1_555
Br6 Re2 2.535407 1_565
Br6 Re4 2.870239 1_555
Br7 Re3 2.535407 1_655
Br7 Re5 2.870239 1_555
Br8 Re0 2.474096 1_555
Br9 Re1 2.474096 1_555
Br10 Re0 2.459603 1_555
Br11 Re1 2.459603 1_555
Br12 Re2 2.546771 1_555
Br12 Re0 2.558872 1_555
Br13 Re3 2.546771 1_555
Br13 Re0 2.558872 1_555
Br14 Re4 2.546771 1_555
Br14 Re1 2.558872 1_555
Br15 Re5 2.546771 1_555
Br15 Re1 2.558872 1_555
Br16 Re4 2.548077 1_555
Br16 Re5 2.548077 1_555
Br17 Re3 2.548077 1_555
Br17 Re2 2.548077 1_555
Br18 Re0 2.706685 1_556
Br19 Re1 2.706685 1_554
