# generated using pymatgen
data_Tm10In20Ni9
_symmetry_space_group_name_H-M   'P 1'
_cell_length_a   13.33731900
_cell_length_b   13.33731900
_cell_length_c   9.11062500
_cell_angle_alpha   90.00000000
_cell_angle_beta   90.00000000
_cell_angle_gamma   90.00000000
_symmetry_Int_Tables_number   1
_chemical_formula_structural   Tm10In20Ni9
_chemical_formula_sum   'Tm20 In40 Ni18'
_cell_volume   1620.63512911
_cell_formula_units_Z   2
loop_
 _symmetry_equiv_pos_site_id
 _symmetry_equiv_pos_as_xyz
  1  'x, y, z'
loop_
 _atom_site_type_symbol
 _atom_site_label
 _atom_site_symmetry_multiplicity
 _atom_site_fract_x
 _atom_site_fract_y
 _atom_site_fract_z
 _atom_site_occupancy
  Tm  Tm0  1  0.50000000  0.00000000  0.36034900  1
  Tm  Tm1  1  0.00000000  0.50000000  0.63965100  1
  Tm  Tm2  1  0.50000000  0.00000000  0.83380600  1
  Tm  Tm3  1  0.00000000  0.50000000  0.16619400  1
  Tm  Tm4  1  0.50000000  0.27730300  0.76714700  1
  Tm  Tm5  1  0.50000000  0.72269700  0.76714700  1
  Tm  Tm6  1  0.77730300  0.00000000  0.76714700  1
  Tm  Tm7  1  0.22269700  0.00000000  0.76714700  1
  Tm  Tm8  1  0.00000000  0.22269700  0.23285300  1
  Tm  Tm9  1  0.00000000  0.77730300  0.23285300  1
  Tm  Tm10  1  0.72269700  0.50000000  0.23285300  1
  Tm  Tm11  1  0.27730300  0.50000000  0.23285300  1
  Tm  Tm12  1  0.70364000  0.20364000  0.26715900  1
  Tm  Tm13  1  0.70364000  0.79636000  0.26715900  1
  Tm  Tm14  1  0.29636000  0.20364000  0.26715900  1
  Tm  Tm15  1  0.29636000  0.79636000  0.26715900  1
  Tm  Tm16  1  0.79636000  0.29636000  0.73284100  1
  Tm  Tm17  1  0.79636000  0.70364000  0.73284100  1
  Tm  Tm18  1  0.20364000  0.29636000  0.73284100  1
  Tm  Tm19  1  0.20364000  0.70364000  0.73284100  1
  In  In0  1  0.34622400  0.65377600  0.00000000  1
  In  In1  1  0.34622400  0.34622400  0.00000000  1
  In  In2  1  0.65377600  0.65377600  0.00000000  1
  In  In3  1  0.65377600  0.34622400  0.00000000  1
  In  In4  1  0.15377600  0.84622400  0.00000000  1
  In  In5  1  0.15377600  0.15377600  0.00000000  1
  In  In6  1  0.84622400  0.84622400  0.00000000  1
  In  In7  1  0.84622400  0.15377600  0.00000000  1
  In  In8  1  0.86945700  0.13054300  0.50000000  1
  In  In9  1  0.86945700  0.86945700  0.50000000  1
  In  In10  1  0.13054300  0.13054300  0.50000000  1
  In  In11  1  0.13054300  0.86945700  0.50000000  1
  In  In12  1  0.63054300  0.36945700  0.50000000  1
  In  In13  1  0.63054300  0.63054300  0.50000000  1
  In  In14  1  0.36945700  0.36945700  0.50000000  1
  In  In15  1  0.36945700  0.63054300  0.50000000  1
  In  In16  1  0.50000000  0.83323900  0.09257000  1
  In  In17  1  0.50000000  0.16676100  0.09257000  1
  In  In18  1  0.33323900  0.00000000  0.09257000  1
  In  In19  1  0.66676100  0.00000000  0.09257000  1
  In  In20  1  0.00000000  0.66676100  0.90743000  1
  In  In21  1  0.00000000  0.33323900  0.90743000  1
  In  In22  1  0.16676100  0.50000000  0.90743000  1
  In  In23  1  0.83323900  0.50000000  0.90743000  1
  In  In24  1  0.63184800  0.13184800  0.58974700  1
  In  In25  1  0.63184800  0.86815200  0.58974700  1
  In  In26  1  0.36815200  0.13184800  0.58974700  1
  In  In27  1  0.36815200  0.86815200  0.58974700  1
  In  In28  1  0.86815200  0.36815200  0.41025300  1
  In  In29  1  0.86815200  0.63184800  0.41025300  1
  In  In30  1  0.13184800  0.36815200  0.41025300  1
  In  In31  1  0.13184800  0.63184800  0.41025300  1
  In  In32  1  0.50000000  0.61575600  0.23551500  1
  In  In33  1  0.50000000  0.38424400  0.23551500  1
  In  In34  1  0.11575600  0.00000000  0.23551500  1
  In  In35  1  0.88424400  0.00000000  0.23551500  1
  In  In36  1  0.00000000  0.88424400  0.76448500  1
  In  In37  1  0.00000000  0.11575600  0.76448500  1
  In  In38  1  0.38424400  0.50000000  0.76448500  1
  In  In39  1  0.61575600  0.50000000  0.76448500  1
  Ni  Ni0  1  0.50000000  0.50000000  0.00000000  1
  Ni  Ni1  1  0.00000000  0.00000000  0.00000000  1
  Ni  Ni2  1  0.50000000  0.77759100  0.40782600  1
  Ni  Ni3  1  0.50000000  0.22240900  0.40782600  1
  Ni  Ni4  1  0.27759100  0.00000000  0.40782600  1
  Ni  Ni5  1  0.72240900  0.00000000  0.40782600  1
  Ni  Ni6  1  0.00000000  0.72240900  0.59217400  1
  Ni  Ni7  1  0.00000000  0.27759100  0.59217400  1
  Ni  Ni8  1  0.22240900  0.50000000  0.59217400  1
  Ni  Ni9  1  0.77759100  0.50000000  0.59217400  1
  Ni  Ni10  1  0.84397800  0.34397800  0.10488100  1
  Ni  Ni11  1  0.84397800  0.65602200  0.10488100  1
  Ni  Ni12  1  0.15602200  0.34397800  0.10488100  1
  Ni  Ni13  1  0.15602200  0.65602200  0.10488100  1
  Ni  Ni14  1  0.65602200  0.15602200  0.89511900  1
  Ni  Ni15  1  0.65602200  0.84397800  0.89511900  1
  Ni  Ni16  1  0.34397800  0.15602200  0.89511900  1
  Ni  Ni17  1  0.34397800  0.84397800  0.89511900  1
loop_
_geom_bond_atom_site_label_1
_geom_bond_atom_site_label_2
_geom_bond_distance
_geom_bond_site_symmetry_2
In0 Ni17 2.710943 1_554
In0 Ni13 2.710943 1_555
In0 Ni0 2.900495 1_555
In0 In32 3.011237 1_555
In0 In38 3.011237 1_554
In0 Tm11 3.090614 1_555
In0 Tm5 3.090614 1_554
In0 Tm19 3.159588 1_554
In0 Tm15 3.159588 1_555
In0 In16 3.262946 1_555
In0 In22 3.262946 1_554
In1 Ni16 2.710943 1_554
In1 Ni12 2.710943 1_555
In1 Ni0 2.900495 1_555
In1 In33 3.011237 1_555
In1 In38 3.011237 1_554
In1 Tm11 3.090614 1_555
In1 Tm4 3.090614 1_554
In1 Tm14 3.159588 1_555
In1 Tm18 3.159588 1_554
In1 In17 3.262946 1_555
In1 In22 3.262946 1_554
In2 Ni15 2.710943 1_554
In2 Ni11 2.710943 1_555
In2 Ni0 2.900495 1_555
In2 In32 3.011237 1_555
In2 In39 3.011237 1_554
In2 Tm10 3.090614 1_555
In2 Tm5 3.090614 1_554
In2 Tm17 3.159588 1_554
In2 Tm13 3.159588 1_555
In2 In23 3.262946 1_554
In3 Ni10 2.710943 1_555
In3 Ni14 2.710943 1_554
In3 Ni0 2.900495 1_555
In3 In33 3.011237 1_555
In3 In39 3.011237 1_554
In3 Tm10 3.090614 1_555
In3 Tm4 3.090614 1_554
In3 Tm12 3.159588 1_555
In3 Tm16 3.159588 1_554
In4 Ni13 2.710943 1_555
In4 Ni17 2.710943 1_554
In4 Ni1 2.900495 1_565
In4 Tm9 3.090614 1_555
In4 Tm7 3.090614 1_564
In4 Tm19 3.159588 1_554
In4 Tm15 3.159588 1_555
In5 Ni12 2.710943 1_555
In5 Ni16 2.710943 1_554
In5 Ni1 2.900495 1_555
In5 Tm8 3.090614 1_555
In5 Tm7 3.090614 1_554
In5 Tm14 3.159588 1_555
In5 Tm18 3.159588 1_554
In6 Ni15 2.710943 1_554
In6 Ni11 2.710943 1_555
In6 Ni1 2.900495 1_665
In6 Tm9 3.090614 1_655
In6 Tm6 3.090614 1_564
In6 Tm13 3.159588 1_555
In6 Tm17 3.159588 1_554
In7 Ni14 2.710943 1_554
In7 Ni10 2.710943 1_555
In7 Ni1 2.900495 1_655
In7 Tm8 3.090614 1_655
In7 Tm6 3.090614 1_554
In7 Tm12 3.159588 1_555
In7 Tm16 3.159588 1_554
In8 Ni5 2.753728 1_555
In8 Ni7 2.753728 1_655
In8 Tm12 3.215815 1_555
In8 Tm16 3.215815 1_555
In8 Tm6 3.235091 1_555
In8 Tm8 3.235091 1_655
In8 In9 3.482187 1_545
In9 Ni6 2.753728 1_655
In9 Ni5 2.753728 1_565
In9 Tm17 3.215815 1_555
In9 Tm13 3.215815 1_555
In9 Tm6 3.235091 1_565
In9 Tm9 3.235091 1_655
In10 Ni7 2.753728 1_555
In10 Ni4 2.753728 1_555
In10 In37 2.979360 1_555
In10 In34 2.979360 1_555
In10 Tm18 3.215815 1_555
In10 Tm14 3.215815 1_555
In10 Tm7 3.235091 1_555
In10 Tm8 3.235091 1_555
In10 In30 3.272895 1_555
In10 In26 3.272895 1_555
In10 In8 3.482187 1_455
In10 In11 3.482187 1_545
In11 Ni6 2.753728 1_555
In11 Ni4 2.753728 1_565
In11 In36 2.979360 1_555
In11 In34 2.979360 1_565
In11 Tm19 3.215815 1_555
In11 Tm15 3.215815 1_555
In11 Tm7 3.235091 1_565
In11 Tm9 3.235091 1_555
In11 In31 3.272895 1_555
In11 In27 3.272895 1_555
In11 In9 3.482187 1_455
In12 Ni9 2.753728 1_555
In12 Ni3 2.753728 1_555
In12 In33 2.979360 1_555
In12 In39 2.979360 1_555
In12 Tm12 3.215815 1_555
In12 Tm16 3.215815 1_555
In12 Tm4 3.235091 1_555
In12 Tm10 3.235091 1_555
In12 In28 3.272895 1_555
In12 In24 3.272895 1_555
In12 In14 3.482187 1_555
In12 In13 3.482187 1_555
In13 Ni9 2.753728 1_555
In13 Ni2 2.753728 1_555
In13 In39 2.979360 1_555
In13 In32 2.979360 1_555
In13 Tm13 3.215815 1_555
In13 Tm17 3.215815 1_555
In13 Tm5 3.235091 1_555
In13 Tm10 3.235091 1_555
In13 In29 3.272895 1_555
In13 In25 3.272895 1_555
In13 In15 3.482187 1_555
In14 Ni8 2.753728 1_555
In14 Ni3 2.753728 1_555
In14 In38 2.979360 1_555
In14 In33 2.979360 1_555
In14 Tm18 3.215815 1_555
In14 Tm14 3.215815 1_555
In14 Tm4 3.235091 1_555
In14 Tm11 3.235091 1_555
In14 In30 3.272895 1_555
In14 In26 3.272895 1_555
In14 In15 3.482187 1_555
In15 Ni2 2.753728 1_555
In15 Ni8 2.753728 1_555
In15 In38 2.979360 1_555
In15 In32 2.979360 1_555
In15 Tm19 3.215815 1_555
In15 Tm15 3.215815 1_555
In15 Tm5 3.235091 1_555
In15 Tm11 3.235091 1_555
In15 In27 3.272895 1_555
In15 In31 3.272895 1_555
In16 Ni17 2.754409 1_554
In16 Ni15 2.754409 1_554
In16 Ni2 2.966524 1_555
In16 In19 3.145416 1_565
In16 In18 3.145416 1_565
In16 In32 3.179583 1_555
In16 Tm15 3.185704 1_555
In16 Tm13 3.185704 1_555
In16 Tm2 3.241085 1_564
In16 In2 3.262946 1_555
In16 Tm0 3.301308 1_565
In16 Tm5 3.311154 1_554
In17 Ni16 2.754409 1_554
In17 Ni14 2.754409 1_554
In17 Ni3 2.966524 1_555
In17 In19 3.145416 1_555
In17 In18 3.145416 1_555
In17 In33 3.179583 1_555
In17 Tm14 3.185704 1_555
In17 Tm12 3.185704 1_555
In17 Tm2 3.241085 1_554
In17 In3 3.262946 1_555
In17 Tm0 3.301308 1_555
In17 Tm4 3.311154 1_554
In18 Ni17 2.754409 1_544
In18 Ni16 2.754409 1_554
In18 Ni4 2.966524 1_555
In18 In34 3.179583 1_555
In18 Tm15 3.185704 1_545
In18 Tm14 3.185704 1_555
In18 Tm2 3.241085 1_554
In18 In5 3.262946 1_555
In18 In4 3.262946 1_545
In18 Tm0 3.301308 1_555
In18 Tm7 3.311154 1_554
In19 Ni15 2.754409 1_544
In19 Ni14 2.754409 1_554
In19 Ni5 2.966524 1_555
In19 In35 3.179583 1_555
In19 Tm13 3.185704 1_545
In19 Tm12 3.185704 1_555
In19 Tm2 3.241085 1_554
In19 In7 3.262946 1_555
In19 In6 3.262946 1_545
In19 Tm0 3.301308 1_555
In19 Tm6 3.311154 1_554
In20 Ni11 2.754409 1_456
In20 Ni13 2.754409 1_556
In20 Ni6 2.966524 1_555
In20 In22 3.145416 1_555
In20 In23 3.145416 1_455
In20 In36 3.179583 1_555
In20 Tm17 3.185704 1_455
In20 Tm19 3.185704 1_555
In20 Tm3 3.241085 1_556
In20 In6 3.262946 1_456
In20 In4 3.262946 1_556
In20 Tm1 3.301308 1_555
In20 Tm9 3.311154 1_556
In21 Ni10 2.754409 1_456
In21 Ni12 2.754409 1_556
In21 Ni7 2.966524 1_555
In21 In23 3.145416 1_455
In21 In22 3.145416 1_555
In21 In37 3.179583 1_555
In21 Tm16 3.185704 1_455
In21 Tm18 3.185704 1_555
In21 Tm3 3.241085 1_556
In21 In5 3.262946 1_556
In21 In7 3.262946 1_456
In21 Tm1 3.301308 1_555
In21 Tm8 3.311154 1_556
In22 Ni12 2.754409 1_556
In22 Ni13 2.754409 1_556
In22 Ni8 2.966524 1_555
In22 In38 3.179583 1_555
In22 Tm18 3.185704 1_555
In22 Tm19 3.185704 1_555
In22 Tm3 3.241085 1_556
In22 Tm1 3.301308 1_555
In22 Tm11 3.311154 1_556
In23 Ni10 2.754409 1_556
In23 Ni11 2.754409 1_556
In23 Ni9 2.966524 1_555
In23 In39 3.179583 1_555
In23 Tm16 3.185704 1_555
In23 Tm17 3.185704 1_555
In23 Tm3 3.241085 1_656
In23 In3 3.262946 1_556
In23 Tm1 3.301308 1_655
In23 Tm10 3.311154 1_556
In24 Ni3 2.701522 1_555
In24 Ni5 2.701522 1_555
In24 Ni14 2.819246 1_555
In24 Tm4 3.077015 1_555
In24 Tm6 3.077015 1_555
In24 Tm12 3.235932 1_555
In24 Tm0 3.248471 1_555
In24 In8 3.272895 1_555
In24 Tm2 3.335974 1_555
In24 Tm16 3.365732 1_555
In25 Ni2 2.701522 1_555
In25 Ni5 2.701522 1_565
In25 Ni15 2.819246 1_555
In25 Tm5 3.077015 1_555
In25 Tm6 3.077015 1_565
In25 Tm13 3.235932 1_555
In25 Tm0 3.248471 1_565
In25 In9 3.272895 1_555
In25 Tm2 3.335974 1_565
In25 Tm17 3.365732 1_555
In26 Ni4 2.701522 1_555
In26 Ni3 2.701522 1_555
In26 Ni16 2.819246 1_555
In26 Tm4 3.077015 1_555
In26 Tm7 3.077015 1_555
In26 Tm14 3.235932 1_555
In26 Tm0 3.248471 1_555
In26 Tm2 3.335974 1_555
In26 Tm18 3.365732 1_555
In27 Ni2 2.701522 1_555
In27 Ni4 2.701522 1_565
In27 Ni17 2.819246 1_555
In27 Tm5 3.077015 1_555
In27 Tm7 3.077015 1_565
In27 Tm15 3.235932 1_555
In27 Tm0 3.248471 1_565
In27 Tm2 3.335974 1_565
In27 Tm19 3.365732 1_555
In28 Ni9 2.701522 1_555
In28 Ni7 2.701522 1_655
In28 Ni10 2.819246 1_555
In28 Tm10 3.077015 1_555
In28 Tm8 3.077015 1_655
In28 Tm16 3.235932 1_555
In28 Tm1 3.248471 1_655
In28 In8 3.272895 1_555
In28 Tm3 3.335974 1_655
In28 Tm12 3.365732 1_555
In29 Ni9 2.701522 1_555
In29 Ni6 2.701522 1_655
In29 Ni11 2.819246 1_555
In29 Tm10 3.077015 1_555
In29 Tm9 3.077015 1_655
In29 Tm17 3.235932 1_555
In29 Tm1 3.248471 1_655
In29 In9 3.272895 1_555
In29 Tm3 3.335974 1_655
In29 Tm13 3.365732 1_555
In30 Ni7 2.701522 1_555
In30 Ni8 2.701522 1_555
In30 Ni12 2.819246 1_555
In30 Tm11 3.077015 1_555
In30 Tm8 3.077015 1_555
In30 Tm18 3.235932 1_555
In30 Tm1 3.248471 1_555
In30 Tm3 3.335974 1_555
In30 Tm14 3.365732 1_555
In31 Ni8 2.701522 1_555
In31 Ni6 2.701522 1_555
In31 Ni13 2.819246 1_555
In31 Tm11 3.077015 1_555
In31 Tm9 3.077015 1_555
In31 Tm19 3.235932 1_555
In31 Tm1 3.248471 1_555
In31 Tm3 3.335974 1_555
In31 Tm15 3.365732 1_555
In32 Ni0 2.643394 1_555
In32 Ni2 2.668960 1_555
In32 In33 3.087749 1_555
In32 Tm10 3.347553 1_555
In32 Tm11 3.347553 1_555
In33 Ni0 2.643394 1_555
In33 Ni3 2.668960 1_555
In33 Tm10 3.347553 1_555
In33 Tm11 3.347553 1_555
In34 Ni1 2.643394 1_555
In34 Ni4 2.668960 1_555
In34 In4 3.011237 1_545
In34 In5 3.011237 1_555
In34 In35 3.087749 1_455
In34 Tm8 3.347553 1_555
In34 Tm9 3.347553 1_545
In35 Ni1 2.643394 1_655
In35 Ni5 2.668960 1_555
In35 In8 2.979360 1_555
In35 In9 2.979360 1_545
In35 In7 3.011237 1_555
In35 In6 3.011237 1_545
In35 Tm8 3.347553 1_655
In35 Tm9 3.347553 1_645
In36 Ni1 2.643394 1_566
In36 Ni6 2.668960 1_555
In36 In9 2.979360 1_455
In36 In6 3.011237 1_456
In36 In4 3.011237 1_556
In36 In37 3.087749 1_565
In36 Tm7 3.347553 1_565
In36 Tm6 3.347553 1_465
In37 Ni1 2.643394 1_556
In37 Ni7 2.668960 1_555
In37 In8 2.979360 1_455
In37 In5 3.011237 1_556
In37 In7 3.011237 1_456
In37 Tm7 3.347553 1_555
In37 Tm6 3.347553 1_455
In38 Ni0 2.643394 1_556
In38 Ni8 2.668960 1_555
In38 In39 3.087749 1_555
In38 Tm5 3.347553 1_555
In38 Tm4 3.347553 1_555
In39 Ni0 2.643394 1_556
In39 Ni9 2.668960 1_555
In39 Tm5 3.347553 1_555
In39 Tm4 3.347553 1_555
Ni2 Tm0 2.997710 1_565
Ni2 Tm15 3.013601 1_555
Ni2 Tm13 3.013601 1_555
Ni2 Tm5 3.354510 1_555
Ni3 Tm0 2.997710 1_555
Ni3 Tm14 3.013601 1_555
Ni3 Tm12 3.013601 1_555
Ni3 Tm4 3.354510 1_555
Ni4 Tm0 2.997710 1_555
Ni4 Tm15 3.013601 1_545
Ni4 Tm14 3.013601 1_555
Ni4 Tm7 3.354510 1_555
Ni5 Tm0 2.997710 1_555
Ni5 Tm13 3.013601 1_545
Ni5 Tm12 3.013601 1_555
Ni5 Tm6 3.354510 1_555
Ni6 Tm1 2.997710 1_555
Ni6 Tm17 3.013601 1_455
Ni6 Tm19 3.013601 1_555
Ni6 Tm9 3.354510 1_555
Ni7 Tm1 2.997710 1_555
Ni7 Tm16 3.013601 1_455
Ni7 Tm18 3.013601 1_555
Ni7 Tm8 3.354510 1_555
Ni8 Tm1 2.997710 1_555
Ni8 Tm18 3.013601 1_555
Ni8 Tm19 3.013601 1_555
Ni8 Tm11 3.354510 1_555
Ni9 Tm1 2.997710 1_655
Ni9 Tm16 3.013601 1_555
Ni9 Tm17 3.013601 1_555
Ni9 Tm10 3.354510 1_555
Ni10 Tm10 2.882022 1_555
Ni10 Tm8 2.882022 1_655
Ni10 Tm3 2.995405 1_655
Ni10 Tm12 3.031929 1_555
Ni11 Tm9 2.882022 1_655
Ni11 Tm10 2.882022 1_555
Ni11 Tm3 2.995405 1_655
Ni11 Tm13 3.031929 1_555
Ni12 Tm11 2.882022 1_555
Ni12 Tm8 2.882022 1_555
Ni12 Tm3 2.995405 1_555
Ni12 Tm14 3.031929 1_555
Ni13 Tm11 2.882022 1_555
Ni13 Tm9 2.882022 1_555
Ni13 Tm3 2.995405 1_555
Ni13 Tm15 3.031929 1_555
Ni14 Tm4 2.882022 1_555
Ni14 Tm6 2.882022 1_555
Ni14 Tm2 2.995405 1_555
Ni14 Tm16 3.031929 1_555
Ni15 Tm6 2.882022 1_565
Ni15 Tm5 2.882022 1_555
Ni15 Tm2 2.995405 1_565
Ni15 Tm17 3.031929 1_555
Ni16 Tm4 2.882022 1_555
Ni16 Tm7 2.882022 1_555
Ni16 Tm2 2.995405 1_555
Ni16 Tm18 3.031929 1_555
Ni17 Tm7 2.882022 1_565
Ni17 Tm5 2.882022 1_555
Ni17 Tm2 2.995405 1_565
Ni17 Tm19 3.031929 1_555
