# generated using pymatgen
data_YBO3
_symmetry_space_group_name_H-M   'P 1'
_cell_length_a   4.56267462
_cell_length_b   3.59897658
_cell_length_c   8.29874700
_cell_angle_alpha   90.00000000
_cell_angle_beta   90.00000000
_cell_angle_gamma   66.77864571
_symmetry_Int_Tables_number   1
_chemical_formula_structural   YBO3
_chemical_formula_sum   'Y2 B2 O6'
_cell_volume   125.23366720
_cell_formula_units_Z   2
loop_
 _symmetry_equiv_pos_site_id
 _symmetry_equiv_pos_as_xyz
  1  'x, y, z'
loop_
 _atom_site_type_symbol
 _atom_site_label
 _atom_site_symmetry_multiplicity
 _atom_site_fract_x
 _atom_site_fract_y
 _atom_site_fract_z
 _atom_site_occupancy
  Y  Y0  1  0.00000000  0.00000000  0.50000000  1
  Y  Y1  1  0.00000000  0.00000000  0.00000000  1
  B  B0  1  0.43739800  0.27823300  0.75000000  1
  B  B1  1  0.56260200  0.72176700  0.25000000  1
  O  O0  1  0.27476800  0.35955400  0.60347800  1
  O  O1  1  0.72523200  0.64044600  0.39652200  1
  O  O2  1  0.72523200  0.64044600  0.10347800  1
  O  O3  1  0.27476800  0.35955400  0.89652200  1
  O  O4  1  0.23614200  0.88268400  0.25000000  1
  O  O5  1  0.76385800  0.11731600  0.75000000  1
loop_
_geom_bond_atom_site_label_1
_geom_bond_atom_site_label_2
_geom_bond_distance
_geom_bond_site_symmetry_2
B0 O5 1.368886 1_555
B0 O3 1.394109 1_555
B0 O0 1.394109 1_555
B1 O4 1.368886 1_555
B1 O1 1.394109 1_555
B1 O2 1.394109 1_555
O0 Y0 2.294107 1_555
O0 Y0 2.311544 1_565
O1 Y0 2.294107 1_665
O1 Y0 2.311544 1_655
O2 Y1 2.294107 1_665
O2 Y1 2.311544 1_655
O3 Y1 2.294107 1_556
O3 Y1 2.311544 1_566
O4 Y0 2.298856 1_565
O4 Y1 2.298856 1_565
O5 Y1 2.298856 1_656
O5 Y0 2.298856 1_655
