# generated using pymatgen
data_Ba4MnIn2(S3F2)2
_symmetry_space_group_name_H-M   'P 1'
_cell_length_a   6.45716300
_cell_length_b   13.24601500
_cell_length_c   19.07975000
_cell_angle_alpha   90.00000000
_cell_angle_beta   90.00000000
_cell_angle_gamma   90.00000000
_symmetry_Int_Tables_number   1
_chemical_formula_structural   Ba4MnIn2(S3F2)2
_chemical_formula_sum   'Ba16 Mn4 In8 S24 F16'
_cell_volume   1631.92303247
_cell_formula_units_Z   4
loop_
 _symmetry_equiv_pos_site_id
 _symmetry_equiv_pos_as_xyz
  1  'x, y, z'
loop_
 _atom_site_type_symbol
 _atom_site_label
 _atom_site_symmetry_multiplicity
 _atom_site_fract_x
 _atom_site_fract_y
 _atom_site_fract_z
 _atom_site_occupancy
  Ba  Ba0  1  0.26067300  0.74844700  0.07481500  1
  Ba  Ba1  1  0.23932700  0.24844700  0.42518500  1
  Ba  Ba2  1  0.73932700  0.25155300  0.57481500  1
  Ba  Ba3  1  0.76067300  0.75155300  0.92518500  1
  Ba  Ba4  1  0.73932700  0.25155300  0.92518500  1
  Ba  Ba5  1  0.76067300  0.75155300  0.57481500  1
  Ba  Ba6  1  0.26067300  0.74844700  0.42518500  1
  Ba  Ba7  1  0.23932700  0.24844700  0.07481500  1
  Ba  Ba8  1  0.75370800  0.00022500  0.07477700  1
  Ba  Ba9  1  0.74629200  0.50022500  0.42522300  1
  Ba  Ba10  1  0.24629200  0.99977500  0.57477700  1
  Ba  Ba11  1  0.25370800  0.49977500  0.92522300  1
  Ba  Ba12  1  0.24629200  0.99977500  0.92522300  1
  Ba  Ba13  1  0.25370800  0.49977500  0.57477700  1
  Ba  Ba14  1  0.75370800  0.00022500  0.42522300  1
  Ba  Ba15  1  0.74629200  0.50022500  0.07477700  1
  Mn  Mn0  1  0.49941500  0.12435000  0.25000000  1
  Mn  Mn1  1  0.00058500  0.62435000  0.25000000  1
  Mn  Mn2  1  0.50058500  0.87565000  0.75000000  1
  Mn  Mn3  1  0.99941500  0.37565000  0.75000000  1
  In  In0  1  0.63446600  0.79393400  0.25000000  1
  In  In1  1  0.86553400  0.29393400  0.25000000  1
  In  In2  1  0.36553400  0.20606600  0.75000000  1
  In  In3  1  0.13446600  0.70606600  0.75000000  1
  In  In4  1  0.13290500  0.95427100  0.25000000  1
  In  In5  1  0.36709500  0.45427100  0.25000000  1
  In  In6  1  0.86709500  0.04572900  0.75000000  1
  In  In7  1  0.63290500  0.54572900  0.75000000  1
  S  S0  1  0.28181800  0.02431300  0.35651800  1
  S  S1  1  0.21818200  0.52431200  0.14348200  1
  S  S2  1  0.71818200  0.97568800  0.85651800  1
  S  S3  1  0.78181800  0.47568700  0.64348200  1
  S  S4  1  0.71818200  0.97568800  0.64348200  1
  S  S5  1  0.78181800  0.47568700  0.85651800  1
  S  S6  1  0.28181800  0.02431300  0.14348200  1
  S  S7  1  0.21818200  0.52431200  0.35651800  1
  S  S8  1  0.78534400  0.72439900  0.14355700  1
  S  S9  1  0.71465600  0.22439900  0.35644300  1
  S  S10  1  0.21465600  0.27560100  0.64355700  1
  S  S11  1  0.28534400  0.77560100  0.85644300  1
  S  S12  1  0.21465600  0.27560100  0.85644300  1
  S  S13  1  0.28534400  0.77560100  0.64355700  1
  S  S14  1  0.78534400  0.72439900  0.35644300  1
  S  S15  1  0.71465600  0.22439900  0.14355700  1
  S  S16  1  0.25095900  0.77344500  0.25000000  1
  S  S17  1  0.24904100  0.27344500  0.25000000  1
  S  S18  1  0.74904100  0.22655500  0.75000000  1
  S  S19  1  0.75095900  0.72655500  0.75000000  1
  S  S20  1  0.74924900  0.97503800  0.25000000  1
  S  S21  1  0.75075100  0.47503800  0.25000000  1
  S  S22  1  0.25075100  0.02496200  0.75000000  1
  S  S23  1  0.24924900  0.52496200  0.75000000  1
  F  F0  1  0.00544500  0.87481300  0.00304800  1
  F  F1  1  0.49455500  0.37481300  0.49695200  1
  F  F2  1  0.99455500  0.12518700  0.50304800  1
  F  F3  1  0.50544500  0.62518700  0.99695200  1
  F  F4  1  0.99455500  0.12518700  0.99695200  1
  F  F5  1  0.50544500  0.62518700  0.50304800  1
  F  F6  1  0.00544500  0.87481300  0.49695200  1
  F  F7  1  0.49455500  0.37481300  0.00304800  1
  F  F8  1  0.00873000  0.62535200  0.99810600  1
  F  F9  1  0.49127000  0.12535200  0.50189400  1
  F  F10  1  0.99127000  0.37464800  0.49810600  1
  F  F11  1  0.50873000  0.87464800  0.00189400  1
  F  F12  1  0.99127000  0.37464800  0.00189400  1
  F  F13  1  0.50873000  0.87464800  0.49810600  1
  F  F14  1  0.00873000  0.62535200  0.50189400  1
  F  F15  1  0.49127000  0.12535200  0.99810600  1
loop_
_geom_bond_atom_site_label_1
_geom_bond_atom_site_label_2
_geom_bond_distance
_geom_bond_site_symmetry_2
Ba0 F11 2.701072 1_555
Ba0 F3 2.714928 1_554
Ba0 F0 2.718970 1_555
Ba0 F8 2.728970 1_554
Ba0 S1 3.256703 1_555
Ba0 S8 3.352935 1_455
Ba0 S16 3.359433 1_555
Ba0 S8 3.646846 1_555
Ba0 S6 3.884297 1_565
Ba1 F10 2.701072 1_455
Ba1 F2 2.714928 1_455
Ba1 F1 2.718970 1_555
Ba1 F9 2.728970 1_555
Ba1 S0 3.256690 1_555
Ba1 S9 3.352935 1_555
Ba1 S17 3.359433 1_555
Ba1 S9 3.646846 1_455
Ba1 S7 3.884285 1_555
Ba2 F9 2.701072 1_555
Ba2 F1 2.714928 1_555
Ba2 F2 2.718970 1_555
Ba2 F10 2.728970 1_555
Ba2 S3 3.256690 1_555
Ba2 S10 3.352935 1_655
Ba2 S18 3.359433 1_555
Ba2 S10 3.646846 1_555
Ba2 S4 3.884285 1_545
Ba3 F8 2.701072 1_655
Ba3 F0 2.714928 1_656
Ba3 F3 2.718970 1_555
Ba3 F11 2.728970 1_556
Ba3 S2 3.256703 1_555
Ba3 S11 3.352935 1_555
Ba3 S19 3.359433 1_555
Ba3 S11 3.646846 1_655
Ba3 S5 3.884297 1_555
Ba4 F15 2.701072 1_555
Ba4 F7 2.714928 1_556
Ba4 F4 2.718970 1_555
Ba4 F12 2.728970 1_556
Ba4 S5 3.256690 1_555
Ba4 S12 3.352935 1_655
Ba4 S18 3.359433 1_555
Ba4 S12 3.646846 1_555
Ba4 S2 3.884285 1_545
Ba5 F14 2.701072 1_655
Ba5 F6 2.714928 1_655
Ba5 F5 2.718970 1_555
Ba5 F13 2.728970 1_555
Ba5 S4 3.256703 1_555
Ba5 S13 3.352935 1_555
Ba5 S19 3.359433 1_555
Ba5 S13 3.646846 1_655
Ba5 S3 3.884297 1_555
Ba6 F13 2.701072 1_555
Ba6 F5 2.714928 1_555
Ba6 F6 2.718970 1_555
Ba6 F14 2.728970 1_555
Ba6 S7 3.256703 1_555
Ba6 S14 3.352935 1_455
Ba6 S16 3.359433 1_555
Ba6 S14 3.646846 1_555
Ba6 S0 3.884297 1_565
Ba7 F12 2.701072 1_455
Ba7 F4 2.714928 1_454
Ba7 F7 2.718970 1_555
Ba7 F15 2.728970 1_554
Ba7 S6 3.256690 1_555
Ba7 S15 3.352935 1_555
Ba7 S17 3.359433 1_555
Ba7 S15 3.646846 1_455
Ba7 S1 3.884285 1_555
Ba8 F11 2.683824 1_545
Ba8 F0 2.697198 1_645
Ba8 F4 2.713546 1_554
Ba8 F15 2.785452 1_554
Ba8 S15 3.256246 1_555
Ba8 S6 3.332392 1_555
Ba8 S20 3.359940 1_545
Ba8 S6 3.667278 1_655
Ba9 F10 2.683824 1_555
Ba9 F1 2.697198 1_555
Ba9 F5 2.713546 1_555
Ba9 F14 2.785452 1_655
Ba9 S14 3.256246 1_555
Ba9 S7 3.332391 1_655
Ba9 S21 3.359940 1_555
Ba9 S7 3.667277 1_555
Ba10 F9 2.683824 1_565
Ba10 F2 2.697198 1_465
Ba10 F6 2.713546 1_555
Ba10 F13 2.785452 1_555
Ba10 S13 3.256246 1_555
Ba10 S4 3.332391 1_555
Ba10 S22 3.359940 1_565
Ba10 S4 3.667277 1_455
Ba11 F8 2.683824 1_555
Ba11 F3 2.697198 1_555
Ba11 F7 2.713546 1_556
Ba11 F12 2.785452 1_456
Ba11 S12 3.256246 1_555
Ba11 S5 3.332392 1_455
Ba11 S23 3.359940 1_555
Ba11 S5 3.667278 1_555
Ba12 F15 2.683824 1_565
Ba12 F4 2.697198 1_465
Ba12 F0 2.713546 1_556
Ba12 F11 2.785452 1_556
Ba12 S11 3.256246 1_555
Ba12 S2 3.332391 1_555
Ba12 S22 3.359940 1_565
Ba12 S2 3.667277 1_455
Ba13 F14 2.683824 1_555
Ba13 F5 2.697198 1_555
Ba13 F1 2.713546 1_555
Ba13 F10 2.785452 1_455
Ba13 S10 3.256246 1_555
Ba13 S3 3.332392 1_455
Ba13 S23 3.359940 1_555
Ba13 S3 3.667278 1_555
Ba14 F13 2.683824 1_545
Ba14 F6 2.697198 1_645
Ba14 F2 2.713546 1_555
Ba14 F9 2.785452 1_555
Ba14 S9 3.256246 1_555
Ba14 S0 3.332392 1_555
Ba14 S20 3.359940 1_545
Ba14 S0 3.667278 1_655
Ba15 F12 2.683824 1_555
Ba15 F7 2.697198 1_555
Ba15 F3 2.713546 1_554
Ba15 F8 2.785452 1_654
Ba15 S8 3.256246 1_555
Ba15 S1 3.332391 1_655
Ba15 S21 3.359940 1_555
Ba15 S1 3.667277 1_555
Mn0 S17 2.552259 1_555
Mn0 S20 2.552278 1_545
Mn0 S15 2.795092 1_555
Mn0 S9 2.795092 1_555
Mn0 S6 2.803650 1_555
Mn0 S0 2.803650 1_555
Mn1 S16 2.552259 1_555
Mn1 S21 2.552278 1_455
Mn1 S8 2.795092 1_455
Mn1 S14 2.795092 1_455
Mn1 S7 2.803656 1_555
Mn1 S1 2.803656 1_555
Mn2 S19 2.552259 1_555
Mn2 S22 2.552278 1_565
Mn2 S11 2.795092 1_555
Mn2 S13 2.795092 1_555
Mn2 S2 2.803656 1_555
Mn2 S4 2.803656 1_555
Mn3 S18 2.552259 1_555
Mn3 S23 2.552278 1_655
Mn3 S12 2.795092 1_655
Mn3 S10 2.795092 1_655
Mn3 S3 2.803650 1_555
Mn3 S5 2.803650 1_555
In0 S8 2.433533 1_555
In0 S14 2.433533 1_555
In0 S16 2.491195 1_555
In0 S20 2.510794 1_555
In1 S15 2.433533 1_555
In1 S9 2.433533 1_555
In1 S17 2.491195 1_655
In1 S21 2.510794 1_555
In2 S10 2.433533 1_555
In2 S12 2.433533 1_555
In2 S18 2.491195 1_555
In2 S22 2.510794 1_555
In3 S11 2.433533 1_555
In3 S13 2.433533 1_555
In3 S19 2.491195 1_455
In3 S23 2.510794 1_555
In4 S0 2.432232 1_565
In4 S6 2.432232 1_565
In4 S20 2.492555 1_455
In4 S16 2.513601 1_555
In5 S7 2.432227 1_555
In5 S1 2.432227 1_555
In5 S21 2.492555 1_555
In5 S17 2.513601 1_555
In6 S4 2.432227 1_545
In6 S2 2.432227 1_545
In6 S22 2.492555 1_655
In6 S18 2.513601 1_555
In7 S3 2.432232 1_555
In7 S5 2.432232 1_555
In7 S23 2.492555 1_555
In7 S19 2.513601 1_555
