# generated using pymatgen
data_CsHf2Br9
_symmetry_space_group_name_H-M   'P 1'
_cell_length_a   6.88181403
_cell_length_b   10.17559558
_cell_length_c   13.24779540
_cell_angle_alpha   66.70110233
_cell_angle_beta   90.00000000
_cell_angle_gamma   90.00000000
_symmetry_Int_Tables_number   1
_chemical_formula_structural   CsHf2Br9
_chemical_formula_sum   'Cs2 Hf4 Br18'
_cell_volume   852.04746474
_cell_formula_units_Z   2
loop_
 _symmetry_equiv_pos_site_id
 _symmetry_equiv_pos_as_xyz
  1  'x, y, z'
loop_
 _atom_site_type_symbol
 _atom_site_label
 _atom_site_symmetry_multiplicity
 _atom_site_fract_x
 _atom_site_fract_y
 _atom_site_fract_z
 _atom_site_occupancy
  Cs  Cs0  1  0.59141298  0.50000000  0.75000000  1
  Cs  Cs1  1  0.40858702  0.50000000  0.25000000  1
  Hf  Hf0  1  0.25466249  0.82532507  0.86655024  1
  Hf  Hf1  1  0.74533751  0.17467493  0.13344976  1
  Hf  Hf2  1  0.25466249  0.17467493  0.63344976  1
  Hf  Hf3  1  0.74533751  0.82532507  0.36655024  1
  Br  Br0  1  0.09961784  0.79423897  0.04438229  1
  Br  Br1  1  0.90038216  0.20576103  0.95561771  1
  Br  Br2  1  0.09961784  0.20576103  0.45561771  1
  Br  Br3  1  0.90038216  0.79423897  0.54438229  1
  Br  Br4  1  0.10595802  0.61257743  0.84441175  1
  Br  Br5  1  0.89404198  0.38742257  0.15558825  1
  Br  Br6  1  0.10595802  0.38742257  0.65558825  1
  Br  Br7  1  0.89404198  0.61257743  0.34441175  1
  Br  Br8  1  0.96309040  -0.00000000  0.75000000  1
  Br  Br9  1  0.03690960  -0.00000000  0.25000000  1
  Br  Br10  1  0.40571697  0.08462366  0.84277430  1
  Br  Br11  1  0.59428303  0.91537634  0.15722570  1
  Br  Br12  1  0.40571697  0.91537634  0.65722570  1
  Br  Br13  1  0.59428303  0.08462366  0.34277430  1
  Br  Br14  1  0.57439165  0.70726995  0.94283849  1
  Br  Br15  1  0.42560835  0.29273005  0.05716151  1
  Br  Br16  1  0.57439165  0.29273005  0.55716151  1
  Br  Br17  1  0.42560835  0.70726995  0.44283849  1
loop_
_geom_bond_atom_site_label_1
_geom_bond_atom_site_label_2
_geom_bond_distance
_geom_bond_site_symmetry_2
Br0 Hf0 2.489820 1_554
Br0 Cs1 3.801817 1_555
Br1 Hf1 2.489820 1_556
Br1 Cs0 3.801817 1_555
Br2 Hf2 2.489820 1_555
Br2 Cs1 3.801817 1_555
Br3 Hf3 2.489820 1_555
Br3 Cs0 3.801817 1_555
Br4 Hf0 2.514366 1_555
Br4 Cs0 3.895005 1_555
Br4 Cs0 4.068016 1_455
Br5 Hf1 2.514366 1_555
Br5 Cs1 3.895005 1_555
Br5 Cs1 4.068016 1_655
Br6 Hf2 2.514366 1_555
Br6 Cs0 3.895005 1_555
Br6 Cs0 4.068016 1_455
Br7 Hf3 2.514366 1_555
Br7 Cs1 3.895005 1_555
Br7 Cs1 4.068016 1_655
Br8 Hf2 2.720022 1_655
Br8 Hf0 2.720022 1_645
Br9 Hf1 2.720022 1_455
Br9 Hf3 2.720022 1_445
Br10 Hf0 2.735723 1_545
Br10 Hf2 2.756842 1_555
Br10 Cs0 4.110871 1_555
Br11 Hf1 2.735723 1_565
Br11 Hf3 2.756842 1_555
Br11 Cs1 4.110871 1_555
Br12 Hf2 2.735723 1_565
Br12 Hf0 2.756842 1_555
Br12 Cs0 4.110871 1_555
Br13 Hf3 2.735723 1_545
Br13 Hf1 2.756842 1_555
Br13 Cs1 4.110871 1_555
Br14 Hf0 2.519024 1_555
Br14 Cs0 3.905212 1_555
Br14 Cs1 3.939495 1_556
Br15 Hf1 2.519024 1_555
Br15 Cs1 3.905212 1_555
Br15 Cs0 3.939495 1_554
Br16 Hf2 2.519024 1_555
Br16 Cs0 3.905212 1_555
Br16 Cs1 3.939495 1_555
Br17 Hf3 2.519024 1_555
Br17 Cs1 3.905212 1_555
Br17 Cs0 3.939495 1_555
