# generated using pymatgen
data_GaAs
_symmetry_space_group_name_H-M   'P 1'
_cell_length_a   5.43003600
_cell_length_b   5.43003600
_cell_length_c   10.92789200
_cell_angle_alpha   90.00000000
_cell_angle_beta   90.00000000
_cell_angle_gamma   90.00000000
_symmetry_Int_Tables_number   1
_chemical_formula_structural   GaAs
_chemical_formula_sum   'Ga8 As8'
_cell_volume   322.21207521
_cell_formula_units_Z   8
loop_
 _symmetry_equiv_pos_site_id
 _symmetry_equiv_pos_as_xyz
  1  'x, y, z'
loop_
 _atom_site_type_symbol
 _atom_site_label
 _atom_site_symmetry_multiplicity
 _atom_site_fract_x
 _atom_site_fract_y
 _atom_site_fract_z
 _atom_site_occupancy
  Ga  Ga0_0  1  0.00000000  0.00000000  0.25000000  1
  Ga  Ga0_1  1  0.00000000  0.00000000  0.75000000  1
  Ga  Ga0_2  1  0.00000000  0.50000000  0.25000000  1
  Ga  Ga0_3  1  0.00000000  0.50000000  0.75000000  1
  Ga  Ga0_4  1  0.50000000  0.00000000  0.25000000  1
  Ga  Ga0_5  1  0.50000000  0.00000000  0.75000000  1
  Ga  Ga0_6  1  0.50000000  0.50000000  0.25000000  1
  Ga  Ga0_7  1  0.50000000  0.50000000  0.75000000  1
  As  As0_0  1  0.00000000  0.00000000  0.00000000  1
  As  As0_1  1  0.00000000  0.00000000  0.50000000  1
  As  As0_2  1  0.00000000  0.50000000  0.00000000  1
  As  As0_3  1  0.00000000  0.50000000  0.50000000  1
  As  As0_4  1  0.50000000  0.00000000  0.00000000  1
  As  As0_5  1  0.50000000  0.00000000  0.50000000  1
  As  As0_6  1  0.50000000  0.50000000  0.00000000  1
  As  As0_7  1  0.50000000  0.50000000  0.50000000  1
loop_
_geom_bond_atom_site_label_1
_geom_bond_atom_site_label_2
_geom_bond_distance
_geom_bond_site_symmetry_2
Ga0_0 Ga0_4 2.715018 1_555
Ga0_0 Ga0_2 2.715018 1_545
Ga0_0 Ga0_2 2.715018 1_555
Ga0_0 Ga0_4 2.715018 1_455
Ga0_1 Ga0_3 2.715018 1_555
Ga0_1 Ga0_3 2.715018 1_545
Ga0_1 Ga0_5 2.715018 1_555
Ga0_1 Ga0_5 2.715018 1_455
Ga0_2 Ga0_6 2.715018 1_455
Ga0_2 Ga0_6 2.715018 1_555
Ga0_3 Ga0_7 2.715018 1_555
Ga0_3 Ga0_7 2.715018 1_455
Ga0_4 Ga0_6 2.715018 1_555
Ga0_4 Ga0_6 2.715018 1_545
Ga0_5 Ga0_7 2.715018 1_545
Ga0_5 Ga0_7 2.715018 1_555
As0_0 As0_2 2.715018 1_555
As0_0 As0_4 2.715018 1_455
As0_0 As0_4 2.715018 1_555
As0_0 As0_2 2.715018 1_545
As0_0 Ga0_1 2.731973 1_554
As0_0 Ga0_0 2.731973 1_555
As0_1 As0_3 2.715018 1_555
As0_1 As0_3 2.715018 1_545
As0_1 As0_5 2.715018 1_455
As0_1 As0_5 2.715018 1_555
As0_1 Ga0_1 2.731973 1_555
As0_1 Ga0_0 2.731973 1_555
As0_2 As0_6 2.715018 1_555
As0_2 As0_6 2.715018 1_455
As0_2 Ga0_3 2.731973 1_554
As0_2 Ga0_2 2.731973 1_555
As0_3 As0_7 2.715018 1_455
As0_3 As0_7 2.715018 1_555
As0_3 Ga0_3 2.731973 1_555
As0_3 Ga0_2 2.731973 1_555
As0_4 As0_6 2.715018 1_545
As0_4 As0_6 2.715018 1_555
As0_4 Ga0_4 2.731973 1_555
As0_4 Ga0_5 2.731973 1_554
As0_5 As0_7 2.715018 1_545
As0_5 As0_7 2.715018 1_555
As0_5 Ga0_4 2.731973 1_555
As0_5 Ga0_5 2.731973 1_555
As0_6 Ga0_7 2.731973 1_554
As0_6 Ga0_6 2.731973 1_555
As0_7 Ga0_7 2.731973 1_555
As0_7 Ga0_6 2.731973 1_555
