# generated using pymatgen
data_Mg16Al12Tl
_symmetry_space_group_name_H-M   'P 1'
_cell_length_a   9.24961436
_cell_length_b   9.14937727
_cell_length_c   9.14937808
_cell_angle_alpha   109.24822766
_cell_angle_beta   109.69330099
_cell_angle_gamma   109.69329067
_symmetry_Int_Tables_number   1
_chemical_formula_structural   Mg16Al12Tl
_chemical_formula_sum   'Mg16 Al12 Tl1'
_cell_volume   594.41158763
_cell_formula_units_Z   1
loop_
 _symmetry_equiv_pos_site_id
 _symmetry_equiv_pos_as_xyz
  1  'x, y, z'
loop_
 _atom_site_type_symbol
 _atom_site_label
 _atom_site_symmetry_multiplicity
 _atom_site_fract_x
 _atom_site_fract_y
 _atom_site_fract_z
 _atom_site_occupancy
  Mg  Mg0  1  0.60473500  0.31322300  0.00000000  1
  Mg  Mg1  1  0.00256400  0.00000000  0.99999900  1
  Mg  Mg2  1  0.00010800  0.34444200  0.99999900  1
  Mg  Mg3  1  0.31428600  0.60194200  0.00000000  1
  Mg  Mg4  1  0.68125600  0.68176700  0.28183700  1
  Mg  Mg5  1  0.60473500  0.00000000  0.31322200  1
  Mg  Mg6  1  0.99948900  0.60006900  0.31823400  1
  Mg  Mg7  1  0.00010900  0.99999900  0.34444100  1
  Mg  Mg8  1  0.71234400  0.39805900  0.39805800  1
  Mg  Mg9  1  0.39942100  0.71816500  0.39993300  1
  Mg  Mg10  1  0.99948900  0.31823400  0.60006900  1
  Mg  Mg11  1  0.31428600  0.00000000  0.60194200  1
  Mg  Mg12  1  0.65566800  0.65555700  0.65555700  1
  Mg  Mg13  1  0.68125600  0.28183600  0.68176700  1
  Mg  Mg14  1  0.29151200  0.68677800  0.68677800  1
  Mg  Mg15  1  0.39942100  0.39993200  0.71816500  1
  Al  Al0  1  0.63852800  0.81311000  0.00000000  1
  Al  Al1  1  0.81596000  0.63209200  0.00000000  1
  Al  Al2  1  0.36447200  0.37238600  0.18361800  1
  Al  Al3  1  0.82541700  0.18689000  0.18689000  1
  Al  Al4  1  0.18085300  0.81638100  0.18876700  1
  Al  Al5  1  0.18386700  0.36790800  0.36790800  1
  Al  Al6  1  0.36447200  0.18361800  0.37238600  1
  Al  Al7  1  0.99208800  0.81123200  0.62761600  1
  Al  Al8  1  0.81596000  0.00000000  0.63209200  1
  Al  Al9  1  0.99208800  0.62761500  0.81123300  1
  Al  Al10  1  0.63852800  0.00000000  0.81310900  1
  Al  Al11  1  0.18085300  0.18876700  0.81638000  1
  Tl  Tl0  1  0.34623700  0.00000000  0.99999900  1
loop_
_geom_bond_atom_site_label_1
_geom_bond_atom_site_label_2
_geom_bond_distance
_geom_bond_site_symmetry_2
Mg0 Tl0 3.051480 1_554
Mg0 Mg15 3.154184 1_554
Mg0 Mg4 3.154192 1_555
Mg0 Mg8 3.166945 1_555
Mg0 Mg11 3.166948 1_554
Mg0 Mg13 3.167915 1_554
Mg0 Mg6 3.167918 1_555
Mg1 Mg12 3.159155 1_445
Mg1 Mg2 3.159158 1_555
Mg1 Mg7 3.159158 1_546
Mg1 Tl0 3.178843 1_555
Mg2 Mg3 3.062873 1_556
Mg2 Mg6 3.078674 1_456
Mg3 Mg4 3.145258 1_555
Mg3 Mg5 3.166945 1_565
Mg3 Mg9 3.173066 1_555
Mg4 Mg7 3.078670 1_655
Mg4 Mg5 3.167917 1_565
Mg4 Mg8 3.173037 1_555
Mg4 Mg9 3.212536 1_555
Mg4 Mg6 3.212537 1_555
Mg5 Tl0 3.051485 1_554
Mg5 Mg9 3.154198 1_545
Mg5 Mg8 3.166954 1_555
Mg6 Mg8 3.145245 1_555
Mg6 Mg9 3.212542 1_655
Mg10 Mg7 3.078684 1_645
Mg10 Mg8 3.145255 1_555
Mg10 Mg14 3.154185 1_655
Mg10 Mg5 3.167919 1_555
Mg10 Mg3 3.173051 1_656
Mg10 Mg13 3.212536 1_555
Mg10 Mg15 3.212545 1_655
Mg11 Mg7 3.062870 1_545
Mg11 Mg9 3.145247 1_545
Mg11 Mg13 3.145255 1_555
Mg11 Mg14 3.166943 1_545
Mg11 Mg6 3.173051 1_445
Mg11 Mg15 3.173057 1_555
Mg12 Mg8 3.062849 1_555
Mg12 Mg9 3.078664 1_555
Mg12 Mg15 3.078670 1_555
Mg13 Mg2 3.078657 1_655
Mg13 Mg5 3.154195 1_555
Mg13 Mg8 3.173057 1_555
Mg13 Mg15 3.212535 1_555
Mg14 Tl0 3.051469 1_565
Mg14 Mg6 3.154185 1_455
Mg14 Mg3 3.166943 1_556
Mg14 Mg9 3.167911 1_555
Mg14 Mg15 3.167920 1_555
Mg15 Mg3 3.145251 1_556
Al0 Al1 2.695997 1_555
Al0 Al3 2.788452 1_565
Al0 Al10 2.788459 1_564
Al0 Mg3 2.970224 1_555
Al0 Mg5 2.994554 1_565
Al0 Mg14 2.994560 1_554
Al0 Mg7 3.087088 1_655
Al0 Mg12 3.087106 1_554
Al0 Mg15 3.150534 1_554
Al0 Mg4 3.150550 1_555
Al0 Mg1 3.222015 1_664
Al1 Al4 2.744657 1_655
Al1 Al9 2.744671 1_554
Al1 Mg0 2.913256 1_555
Al1 Mg13 3.001939 1_554
Al1 Mg6 3.001947 1_555
Al1 Mg7 3.112449 1_655
Al1 Mg12 3.112460 1_554
Al1 Mg15 3.191012 1_554
Al1 Mg4 3.191028 1_555
Al1 Mg1 3.224008 1_664
Al2 Al5 2.744671 1_555
Al2 Al6 2.816472 1_555
Al2 Mg4 2.892049 1_555
Al2 Mg9 2.963370 1_555
Al2 Mg8 3.031501 1_555
Al2 Mg2 3.092936 1_554
Al2 Mg3 3.147537 1_555
Al2 Tl0 3.179148 1_554
Al2 Mg1 3.222657 1_554
Al2 Mg0 3.283539 1_555
Al3 Al5 2.695998 1_655
Al3 Mg8 2.970222 1_555
Al3 Mg5 2.994548 1_555
Al3 Mg0 2.994555 1_555
Al3 Mg2 3.087099 1_654
Al3 Mg7 3.087100 1_645
Al3 Mg6 3.150540 1_555
Al3 Mg10 3.150540 1_555
Al3 Mg1 3.222023 1_654
Al4 Al6 2.739641 1_565
Al4 Al9 2.816458 1_454
Al4 Mg9 2.892063 1_555
Al4 Mg6 2.963367 1_455
Al4 Mg3 3.031503 1_555
Al4 Mg7 3.092918 1_555
Al4 Mg11 3.147544 1_565
Al4 Tl0 3.179156 1_564
Al4 Mg1 3.222661 1_564
Al4 Mg5 3.283548 1_565
Al5 Al6 2.744671 1_555
Al5 Mg14 2.913263 1_555
Al5 Mg9 3.001943 1_555
Al5 Mg15 3.001947 1_555
Al5 Mg7 3.112461 1_545
Al5 Mg2 3.112466 1_554
Al5 Mg6 3.191011 1_455
Al5 Mg10 3.191012 1_455
Al5 Mg1 3.224010 1_554
Al6 Mg13 2.892052 1_555
Al6 Mg15 2.963368 1_555
Al6 Mg8 3.031509 1_555
Al6 Mg7 3.092924 1_545
Al6 Mg11 3.147537 1_555
Al6 Tl0 3.179154 1_554
Al6 Mg1 3.222663 1_554
Al6 Mg5 3.283541 1_555
Al7 Al9 2.739618 1_555
Al7 Al8 2.744678 1_565
Al7 Mg6 2.892049 1_555
Al7 Mg4 2.963377 1_555
Al7 Mg11 3.031502 1_665
Al7 Mg12 3.092920 1_555
Al7 Mg8 3.147534 1_555
Al7 Tl0 3.179123 1_665
Al7 Mg1 3.222644 1_665
Al7 Mg14 3.283516 1_655
Al8 Mg5 2.913263 1_555
Al8 Mg4 3.001934 1_545
Al8 Mg10 3.001947 1_555
Al8 Mg2 3.112455 1_655
Al8 Mg12 3.112460 1_545
Al8 Mg9 3.191012 1_545
Al8 Mg13 3.191020 1_555
Al8 Mg1 3.223995 1_655
Al9 Mg10 2.892045 1_555
Al9 Mg13 2.963374 1_555
Al9 Mg3 3.031494 1_656
Al9 Mg12 3.092927 1_555
Al9 Mg8 3.147547 1_555
Al9 Tl0 3.179136 1_665
Al9 Mg1 3.222656 1_665
Al9 Mg14 3.283523 1_655
Al10 Al8 2.695990 1_555
Al10 Al3 2.788460 1_556
Al10 Mg11 2.970221 1_555
Al10 Mg14 2.994563 1_545
Al10 Mg0 2.994564 1_556
Al10 Mg2 3.087086 1_655
Al10 Mg12 3.087104 1_545
Al10 Mg9 3.150521 1_545
Al10 Mg13 3.150535 1_555
Al10 Mg1 3.222010 1_655
Al11 Al2 2.739648 1_556
Al11 Al8 2.744657 1_455
Al11 Al7 2.816465 1_445
Al11 Mg15 2.892052 1_555
Al11 Mg10 2.963361 1_455
Al11 Mg11 3.031498 1_555
Al11 Mg2 3.092936 1_555
Al11 Mg3 3.147543 1_556
Al11 Tl0 3.179147 1_555
Al11 Mg1 3.222657 1_555
Al11 Mg0 3.283546 1_556
