# generated using pymatgen
data_Y3FeB7
_symmetry_space_group_name_H-M   'P 1'
_cell_length_a   8.04665086
_cell_length_b   8.04665086
_cell_length_c   9.30678273
_cell_angle_alpha   90.00000000
_cell_angle_beta   90.00000000
_cell_angle_gamma   155.50927192
_symmetry_Int_Tables_number   1
_chemical_formula_structural   Y3FeB7
_chemical_formula_sum   'Y6 Fe2 B14'
_cell_volume   249.80584819
_cell_formula_units_Z   2
loop_
 _symmetry_equiv_pos_site_id
 _symmetry_equiv_pos_as_xyz
  1  'x, y, z'
loop_
 _atom_site_type_symbol
 _atom_site_label
 _atom_site_symmetry_multiplicity
 _atom_site_fract_x
 _atom_site_fract_y
 _atom_site_fract_z
 _atom_site_occupancy
  Y  Y0  1  0.75726497  0.24273503  0.25000000  1
  Y  Y1  1  0.24273503  0.75726497  0.75000000  1
  Y  Y2  1  0.89528055  0.10471945  0.56042429  1
  Y  Y3  1  0.10471945  0.89528055  0.43957571  1
  Y  Y4  1  0.10471945  0.89528055  0.06042429  1
  Y  Y5  1  0.89528055  0.10471945  0.93957571  1
  Fe  Fe0  1  0.94562335  0.05437665  0.25000000  1
  Fe  Fe1  1  0.05437665  0.94562335  0.75000000  1
  B  B0  1  0.53948750  0.46051250  0.25000000  1
  B  B1  1  0.46051250  0.53948750  0.75000000  1
  B  B2  1  0.52194445  0.47805555  0.90047175  1
  B  B3  1  0.47805555  0.52194445  0.09952825  1
  B  B4  1  0.47805555  0.52194445  0.40047175  1
  B  B5  1  0.52194445  0.47805555  0.59952825  1
  B  B6  1  0.62953642  0.37046358  0.84644765  1
  B  B7  1  0.37046358  0.62953642  0.15355235  1
  B  B8  1  0.72720239  0.27279761  0.96731832  1
  B  B9  1  0.27279761  0.72720239  0.03268168  1
  B  B10  1  0.27279761  0.72720239  0.46731832  1
  B  B11  1  0.72720239  0.27279761  0.53268168  1
  B  B12  1  0.62953642  0.37046358  0.65355235  1
  B  B13  1  0.37046358  0.62953642  0.34644765  1
loop_
_geom_bond_atom_site_label_1
_geom_bond_atom_site_label_2
_geom_bond_distance
_geom_bond_site_symmetry_2
B0 B3 1.701349 1_555
B0 B4 1.701349 1_555
B0 Fe0 2.256542 1_565
B0 Fe0 2.256542 1_455
B0 Y4 2.660481 1_655
B0 Y3 2.660481 1_655
B0 Y3 2.660481 1_545
B0 Y4 2.660481 1_545
B1 B5 1.701349 1_555
B1 B2 1.701349 1_555
B1 Fe1 2.256542 1_545
B1 Fe1 2.256542 1_655
B1 Y5 2.660481 1_565
B1 Y2 2.660481 1_565
B1 Y5 2.660481 1_455
B1 Y2 2.660481 1_455
B2 B6 1.765234 1_555
B2 B3 1.976987 1_556
B2 Fe1 2.265850 1_545
B2 Fe1 2.265850 1_655
B2 Y4 2.612193 1_546
B2 Y4 2.612193 1_656
B2 Y5 2.648306 1_565
B2 Y5 2.648306 1_455
B3 B7 1.765234 1_555
B3 Fe0 2.265850 1_565
B3 Fe0 2.265850 1_455
B3 Y5 2.612193 1_564
B3 Y5 2.612193 1_454
B3 Y4 2.648306 1_655
B3 Y4 2.648306 1_545
B4 B5 1.976987 1_555
B4 Fe0 2.265850 1_565
B4 Fe0 2.265850 1_455
B4 Y2 2.612193 1_565
B4 Y2 2.612193 1_455
B4 Y3 2.648306 1_655
B4 Y3 2.648306 1_545
B5 Fe1 2.265850 1_655
B5 Fe1 2.265850 1_545
B5 Y3 2.612193 1_655
B5 Y3 2.612193 1_545
B5 Y2 2.648306 1_565
B5 Y2 2.648306 1_455
B6 B8 1.903880 1_555
B6 Fe1 2.261797 1_545
B6 Fe1 2.261797 1_655
B6 Y1 2.624485 1_655
B6 Y1 2.624485 1_545
B6 Y4 2.651587 1_656
B6 Y4 2.651587 1_546
B7 B9 1.903880 1_555
B7 Fe0 2.261797 1_565
B7 Fe0 2.261797 1_455
B7 Y0 2.624485 1_455
B7 Y0 2.624485 1_565
B7 Y5 2.651587 1_564
B7 Y5 2.651587 1_454
B8 B9 1.948598 1_656
B8 B9 1.948598 1_546
B8 Y5 2.655970 1_555
B8 Y1 2.657647 1_545
B8 Y1 2.657647 1_655
B8 Y0 2.673003 1_556
B8 Y4 2.715563 1_546
B8 Y4 2.715563 1_656
B9 Y4 2.655970 1_555
B9 Y0 2.657647 1_455
B9 Y0 2.657647 1_565
B9 Y1 2.673003 1_554
B9 Y5 2.715563 1_454
B9 Y5 2.715563 1_564
B10 B13 1.903880 1_555
B10 B11 1.948598 1_455
B10 B11 1.948598 1_565
B10 Y3 2.655970 1_555
B10 Y0 2.657647 1_455
B10 Y0 2.657647 1_565
B10 Y1 2.673003 1_555
B10 Y2 2.715563 1_455
B10 Y2 2.715563 1_565
B11 B12 1.903880 1_555
B11 Y2 2.655970 1_555
B11 Y1 2.657647 1_545
B11 Y1 2.657647 1_655
B11 Y0 2.673003 1_555
B11 Y3 2.715563 1_545
B11 Y3 2.715563 1_655
B12 B5 1.765234 1_555
B12 B6 1.795235 1_555
B12 Fe1 2.261797 1_545
B12 Fe1 2.261797 1_655
B12 Y1 2.624485 1_655
B12 Y1 2.624485 1_545
B12 Y3 2.651587 1_545
B12 Y3 2.651587 1_655
B13 B4 1.765234 1_555
B13 B7 1.795235 1_555
B13 Fe0 2.261797 1_565
B13 Fe0 2.261797 1_455
B13 Y0 2.624485 1_455
B13 Y0 2.624485 1_565
B13 Y2 2.651587 1_565
B13 Y2 2.651587 1_455
