# generated using pymatgen
data_TiZnSn(PO4)3
_symmetry_space_group_name_H-M   'P 1'
_cell_length_a   8.69228346
_cell_length_b   8.69228255
_cell_length_c   8.69228309
_cell_angle_alpha   60.57345330
_cell_angle_beta   60.57345452
_cell_angle_gamma   60.57345064
_symmetry_Int_Tables_number   1
_chemical_formula_structural   TiZnSn(PO4)3
_chemical_formula_sum   'Ti2 Zn2 Sn2 P6 O24'
_cell_volume   470.40961623
_cell_formula_units_Z   2
loop_
 _symmetry_equiv_pos_site_id
 _symmetry_equiv_pos_as_xyz
  1  'x, y, z'
loop_
 _atom_site_type_symbol
 _atom_site_label
 _atom_site_symmetry_multiplicity
 _atom_site_fract_x
 _atom_site_fract_y
 _atom_site_fract_z
 _atom_site_occupancy
  Ti  Ti0  1  0.14499600  0.14499600  0.14499600  1
  Ti  Ti1  1  0.64499600  0.64499600  0.64499600  1
  Zn  Zn0  1  0.00496500  0.00496500  0.00496500  1
  Zn  Zn1  1  0.50496500  0.50496500  0.50496500  1
  Sn  Sn0  1  0.35480600  0.35480600  0.35480600  1
  Sn  Sn1  1  0.85480600  0.85480600  0.85480600  1
  P  P0  1  0.04449800  0.45035700  0.75099000  1
  P  P1  1  0.45035700  0.75099000  0.04449800  1
  P  P2  1  0.75099000  0.04449800  0.45035700  1
  P  P3  1  0.25099000  0.95035700  0.54449800  1
  P  P4  1  0.54449800  0.25099000  0.95035700  1
  P  P5  1  0.95035700  0.54449800  0.25099000  1
  O  O0  1  0.10425900  0.51252300  0.31410800  1
  O  O1  1  0.31410800  0.10425900  0.51252300  1
  O  O2  1  0.05925600  0.25889800  0.91227600  1
  O  O3  1  0.51252300  0.31410800  0.10425900  1
  O  O4  1  0.01252300  0.60425900  0.81410800  1
  O  O5  1  0.24119200  0.43433900  0.59177600  1
  O  O6  1  0.25889800  0.91227600  0.05925600  1
  O  O7  1  0.43433900  0.59177600  0.24119200  1
  O  O8  1  0.18526500  0.99664700  0.38884600  1
  O  O9  1  0.59177600  0.24119200  0.43433900  1
  O  O10  1  0.09177600  0.93433900  0.74119200  1
  O  O11  1  0.38884600  0.18526500  0.99664700  1
  O  O12  1  0.60425900  0.81410800  0.01252300  1
  O  O13  1  0.91227600  0.05925600  0.25889800  1
  O  O14  1  0.41227600  0.75889800  0.55925600  1
  O  O15  1  0.81410800  0.01252300  0.60425900  1
  O  O16  1  0.55925600  0.41227600  0.75889800  1
  O  O17  1  0.74119200  0.09177600  0.93433900  1
  O  O18  1  0.75889800  0.55925600  0.41227600  1
  O  O19  1  0.99664700  0.38884600  0.18526500  1
  O  O20  1  0.49664700  0.68526500  0.88884600  1
  O  O21  1  0.93433900  0.74119200  0.09177600  1
  O  O22  1  0.68526500  0.88884600  0.49664700  1
  O  O23  1  0.88884600  0.49664700  0.68526500  1
loop_
_geom_bond_atom_site_label_1
_geom_bond_atom_site_label_2
_geom_bond_distance
_geom_bond_site_symmetry_2
O0 P5 1.540734 1_455
O0 Sn0 2.023428 1_555
O1 P3 1.540734 1_545
O1 Sn0 2.023427 1_555
O2 P0 1.557524 1_555
O2 Ti0 2.101440 1_556
O2 Zn0 2.155529 1_556
O3 P4 1.540734 1_554
O3 Sn0 2.023428 1_555
O4 P0 1.540734 1_555
O4 Sn1 2.023427 1_455
O5 P0 1.577411 1_555
O5 Sn0 2.103706 1_555
O5 Zn1 2.330455 1_555
O6 P1 1.557524 1_555
O6 Ti0 2.101439 1_565
O6 Zn0 2.155529 1_565
O7 P1 1.577411 1_555
O7 Sn0 2.103706 1_555
O7 Zn1 2.330455 1_555
O8 P3 1.522343 1_555
O8 Ti0 1.969233 1_565
O9 P2 1.577411 1_555
O9 Sn0 2.103706 1_555
O9 Zn1 2.330454 1_555
O10 P3 1.577411 1_555
O10 Sn1 2.103707 1_455
O10 Zn0 2.330455 1_566
O11 P4 1.522343 1_555
O11 Ti0 1.969233 1_556
O12 P1 1.540734 1_555
O12 Sn1 2.023428 1_554
O13 P2 1.557524 1_555
O13 Ti0 2.101440 1_655
O13 Zn0 2.155529 1_655
O14 P3 1.557524 1_555
O14 Ti1 2.101440 1_555
O14 Zn1 2.155529 1_555
O15 P2 1.540734 1_555
O15 Sn1 2.023428 1_545
O16 P4 1.557524 1_555
O16 Ti1 2.101439 1_555
O16 Zn1 2.155529 1_555
O17 P4 1.577411 1_555
O17 Sn1 2.103706 1_545
O17 Zn0 2.330455 1_656
O18 P5 1.557524 1_555
O18 Ti1 2.101440 1_555
O18 Zn1 2.155529 1_555
O19 P5 1.522343 1_555
O19 Ti0 1.969233 1_655
O20 P1 1.522343 1_556
O20 Ti1 1.969233 1_555
O21 P5 1.577411 1_555
O21 Sn1 2.103706 1_554
O21 Zn0 2.330454 1_665
O22 P2 1.522343 1_565
O22 Ti1 1.969233 1_555
O23 P0 1.522343 1_655
O23 Ti1 1.969233 1_555
