# generated using pymatgen
data_KFe11O17
_symmetry_space_group_name_H-M   'P 1'
_cell_length_a   5.98981860
_cell_length_b   5.99181501
_cell_length_c   24.05905956
_cell_angle_alpha   89.92025961
_cell_angle_beta   89.87583075
_cell_angle_gamma   120.00688190
_symmetry_Int_Tables_number   1
_chemical_formula_structural   KFe11O17
_chemical_formula_sum   'K2 Fe22 O34'
_cell_volume   747.73624050
_cell_formula_units_Z   2
loop_
 _symmetry_equiv_pos_site_id
 _symmetry_equiv_pos_as_xyz
  1  'x, y, z'
loop_
 _atom_site_type_symbol
 _atom_site_label
 _atom_site_symmetry_multiplicity
 _atom_site_fract_x
 _atom_site_fract_y
 _atom_site_fract_z
 _atom_site_occupancy
  K  K0  1  0.33290400  0.66620500  0.75077100  1
  K  K1  1  0.66561900  0.33375100  0.25007900  1
  Fe  Fe0  1  0.16797900  0.83212700  0.60600200  1
  Fe  Fe1  1  0.16830100  0.83258400  0.89396900  1
  Fe  Fe2  1  0.33456100  0.66546100  0.17510300  1
  Fe  Fe3  1  0.33517900  0.66745800  0.02619200  1
  Fe  Fe4  1  0.99994900  0.00012100  0.00037600  1
  Fe  Fe5  1  0.33344300  0.66327800  0.32467400  1
  Fe  Fe6  1  0.99966200  0.99979400  0.49951700  1
  Fe  Fe7  1  0.16775300  0.33594400  0.60584500  1
  Fe  Fe8  1  0.16852100  0.33554100  0.89392300  1
  Fe  Fe9  1  0.33174600  0.66520300  0.47350100  1
  Fe  Fe10  1  0.66401800  0.83225500  0.60594700  1
  Fe  Fe11  1  0.66519600  0.83231200  0.89384600  1
  Fe  Fe12  1  0.33299800  0.16573600  0.10235300  1
  Fe  Fe13  1  0.33659400  0.17116700  0.39228300  1
  Fe  Fe14  1  0.83014400  0.66417500  0.10743000  1
  Fe  Fe15  1  0.66540300  0.33270100  0.67501000  1
  Fe  Fe16  1  0.83455900  0.66804900  0.39785500  1
  Fe  Fe17  1  0.66714500  0.33360300  0.82493600  1
  Fe  Fe18  1  0.66488300  0.33226300  0.97550500  1
  Fe  Fe19  1  0.66785800  0.33543000  0.52437400  1
  Fe  Fe20  1  0.82931000  0.16495400  0.10761700  1
  Fe  Fe21  1  0.83446200  0.17061300  0.39210400  1
  O  O0  1  0.16300000  0.85009300  0.05198600  1
  O  O1  1  0.14855100  0.83682200  0.44801200  1
  O  O2  1  0.00750300  0.50342100  0.64699400  1
  O  O3  1  0.00805800  0.50402900  0.85386300  1
  O  O4  1  0.33428100  0.66739700  0.25023600  1
  O  O5  1  0.00967700  0.00457100  0.14239700  1
  O  O6  1  0.16309600  0.31251700  0.05189900  1
  O  O7  1  0.99555000  0.98993600  0.35737500  1
  O  O8  1  0.99983300  0.00010200  0.64345600  1
  O  O9  1  0.15610400  0.31213500  0.44889100  1
  O  O10  1  0.00021000  0.00015500  0.85650700  1
  O  O11  1  0.49744300  0.99346400  0.85253400  1
  O  O12  1  0.49537800  0.99124600  0.64693200  1
  O  O13  1  0.33327400  0.66700800  0.55455400  1
  O  O14  1  0.33428600  0.66698000  0.94532600  1
  O  O15  1  0.31388500  0.15600300  0.55018000  1
  O  O16  1  0.31348900  0.15666000  0.94924500  1
  O  O17  1  0.49494500  0.50380600  0.64675400  1
  O  O18  1  0.49722600  0.50420900  0.85229600  1
  O  O19  1  0.51430400  0.50563600  0.35391700  1
  O  O20  1  0.49405400  0.48682400  0.14541200  1
  O  O21  1  0.68814900  0.84438600  0.05133700  1
  O  O22  1  0.68731800  0.83784500  0.44842100  1
  O  O23  1  0.66126800  0.33063800  0.05621200  1
  O  O24  1  0.66877500  0.33937300  0.44386400  1
  O  O25  1  0.50344200  0.00693000  0.35320100  1
  O  O26  1  0.49571700  0.00736900  0.14629400  1
  O  O27  1  0.84338000  0.68678000  0.55089400  1
  O  O28  1  0.84352200  0.68626200  0.94996900  1
  O  O29  1  0.66356300  0.33303600  0.75058600  1
  O  O30  1  0.99242900  0.49616000  0.14710300  1
  O  O31  1  0.99421500  0.50382100  0.35389800  1
  O  O32  1  0.84240700  0.15666000  0.55032500  1
  O  O33  1  0.84348200  0.15720200  0.94991400  1
loop_
_geom_bond_atom_site_label_1
_geom_bond_atom_site_label_2
_geom_bond_distance
_geom_bond_site_symmetry_2
K0 O18 2.972641 1_555
K0 O11 2.983538 1_555
K0 O3 2.993888 1_555
K0 O12 3.010264 1_555
K0 O17 3.015390 1_555
K0 O2 3.018376 1_555
K1 O30 2.997314 1_555
K1 O25 3.001201 1_555
K1 O19 3.009051 1_555
K1 O26 3.021420 1_555
K1 O31 3.028793 1_555
K1 O20 3.030855 1_555
Fe0 O8 1.962614 1_465
Fe0 O12 1.966051 1_555
Fe0 O2 1.967899 1_555
Fe0 O13 2.114023 1_555
Fe0 O27 2.148802 1_455
Fe0 O15 2.150527 1_565
Fe1 O10 1.961307 1_565
Fe1 O3 1.961434 1_555
Fe1 O11 1.974280 1_555
Fe1 O14 2.118592 1_555
Fe1 O16 2.149106 1_565
Fe1 O28 2.155871 1_455
Fe2 O4 1.807685 1_555
Fe2 O20 1.894874 1_555
Fe2 O30 1.900294 1_455
Fe2 O26 1.903774 1_565
Fe3 O21 1.930109 1_555
Fe3 O6 1.941386 1_555
Fe3 O0 1.942732 1_555
Fe3 O14 1.945581 1_554
Fe4 O21 2.026278 1_545
Fe4 O33 2.030324 1_554
Fe4 O28 2.033253 1_544
Fe4 O16 2.035930 1_654
Fe4 O6 2.043871 1_655
Fe4 O0 2.045482 1_645
Fe5 O4 1.791006 1_555
Fe5 O19 1.893599 1_555
Fe5 O31 1.893688 1_455
Fe5 O25 1.912492 1_565
Fe6 O9 2.024539 1_665
Fe6 O32 2.036819 1_565
Fe6 O22 2.037282 1_555
Fe6 O1 2.038143 1_655
Fe6 O27 2.038199 1_555
Fe6 O15 2.038465 1_665
Fe7 O8 1.961226 1_455
Fe7 O17 1.964882 1_555
Fe7 O2 1.967364 1_555
Fe7 O13 2.112223 1_555
Fe7 O32 2.158083 1_455
Fe7 O15 2.159876 1_555
Fe8 O3 1.960546 1_555
Fe8 O10 1.961553 1_555
Fe8 O18 1.974664 1_555
Fe8 O14 2.121110 1_555
Fe8 O16 2.146225 1_555
Fe8 O33 2.156567 1_455
Fe9 O9 1.926887 1_555
Fe9 O22 1.938899 1_555
Fe9 O1 1.940961 1_555
Fe9 O13 1.950120 1_555
Fe10 O8 1.964400 1_565
Fe10 O17 1.964534 1_555
Fe10 O12 1.964938 1_555
Fe10 O13 2.118024 1_555
Fe10 O27 2.145245 1_555
Fe10 O32 2.149413 1_565
Fe11 O10 1.953542 1_665
Fe11 O11 1.975349 1_555
Fe11 O18 1.976848 1_555
Fe11 O14 2.113310 1_555
Fe11 O28 2.160519 1_555
Fe11 O33 2.164228 1_565
Fe12 O5 1.931330 1_555
Fe12 O20 1.964371 1_555
Fe12 O26 1.973507 1_555
Fe12 O23 2.029565 1_555
Fe12 O0 2.041496 1_545
Fe12 O6 2.044571 1_555
Fe13 O25 1.957930 1_555
Fe13 O7 1.961830 1_445
Fe13 O19 1.964257 1_555
Fe13 O24 2.126778 1_555
Fe13 O9 2.155750 1_555
Fe13 O1 2.192891 1_545
Fe14 O5 1.959340 1_665
Fe14 O30 1.962031 1_555
Fe14 O20 1.966357 1_555
Fe14 O23 2.127422 1_555
Fe14 O21 2.151769 1_555
Fe14 O0 2.181337 1_655
Fe15 O29 1.818307 1_555
Fe15 O2 1.896088 1_655
Fe15 O12 1.897932 1_545
Fe15 O17 1.898359 1_555
Fe16 O7 1.930982 1_555
Fe16 O19 1.971992 1_555
Fe16 O31 1.985199 1_555
Fe16 O24 2.030501 1_555
Fe16 O1 2.031499 1_655
Fe16 O22 2.046756 1_555
Fe17 O29 1.788954 1_555
Fe17 O11 1.883877 1_545
Fe17 O18 1.885143 1_555
Fe17 O3 1.902473 1_655
Fe18 O16 1.931038 1_555
Fe18 O28 1.935170 1_555
Fe18 O33 1.935216 1_555
Fe18 O23 1.941765 1_556
Fe19 O27 1.933201 1_555
Fe19 O15 1.936287 1_555
Fe19 O32 1.936857 1_555
Fe19 O24 1.937068 1_555
Fe20 O5 1.957290 1_655
Fe20 O26 1.962776 1_555
Fe20 O30 1.966048 1_555
Fe20 O23 2.128301 1_555
Fe20 O21 2.150709 1_545
Fe20 O6 2.189294 1_655
Fe21 O31 1.956245 1_555
Fe21 O25 1.958269 1_555
Fe21 O7 1.960853 1_545
Fe21 O24 2.135430 1_555
Fe21 O9 2.162864 1_655
Fe21 O22 2.194954 1_545
