# generated using pymatgen
data_Li2MgAg
_symmetry_space_group_name_H-M   'P 1'
_cell_length_a   4.66650170
_cell_length_b   4.66650170
_cell_length_c   4.66650170
_cell_angle_alpha   90.00000000
_cell_angle_beta   60.00000000
_cell_angle_gamma   120.00000000
_symmetry_Int_Tables_number   1
_chemical_formula_structural   Li2MgAg
_chemical_formula_sum   'Li2 Mg1 Ag1'
_cell_volume   71.85537971
_cell_formula_units_Z   1
loop_
 _symmetry_equiv_pos_site_id
 _symmetry_equiv_pos_as_xyz
  1  'x, y, z'
loop_
 _atom_site_type_symbol
 _atom_site_label
 _atom_site_symmetry_multiplicity
 _atom_site_fract_x
 _atom_site_fract_y
 _atom_site_fract_z
 _atom_site_occupancy
  Li  Li0  1  0.00000000  0.50000000  0.50000000  1
  Li  Li1  1  0.50000000  0.25000000  0.25000000  1
  Mg  Mg0  1  0.50000000  0.75000000  0.75000000  1
  Ag  Ag0  1  0.00000000  0.00000000  0.00000000  1
loop_
_geom_bond_atom_site_label_1
_geom_bond_atom_site_label_2
_geom_bond_distance
_geom_bond_site_symmetry_2
Li0 Mg0 2.857637 1_455
Li0 Li1 2.857637 1_565
Li0 Li1 2.857637 1_456
Li0 Mg0 2.857637 1_555
Li0 Mg0 2.857637 1_445
Li0 Li1 2.857637 1_455
Li0 Li1 2.857637 1_555
Li0 Mg0 2.857637 1_554
Ag0 Mg0 2.857637 1_444
Ag0 Mg0 2.857637 1_544
Ag0 Li1 2.857637 1_445
Ag0 Mg0 2.857637 1_445
Ag0 Li1 2.857637 1_455
Ag0 Li1 2.857637 1_554
Ag0 Li1 2.857637 1_555
Ag0 Mg0 2.857637 1_554
Ag0 Li0 3.299715 1_554
Ag0 Li0 3.299715 1_544
Ag0 Li0 3.299715 1_445
Ag0 Li0 3.299715 1_545
Ag0 Li0 3.299715 1_654
Ag0 Li0 3.299715 1_555
