# generated using pymatgen
data_BaCuWO5
_symmetry_space_group_name_H-M   'P 1'
_cell_length_a   3.83837800
_cell_length_b   3.83837800
_cell_length_c   8.99196200
_cell_angle_alpha   90.00000000
_cell_angle_beta   90.00000000
_cell_angle_gamma   90.00000000
_symmetry_Int_Tables_number   1
_chemical_formula_structural   BaCuWO5
_chemical_formula_sum   'Ba1 Cu1 W1 O5'
_cell_volume   132.47988601
_cell_formula_units_Z   1
loop_
 _symmetry_equiv_pos_site_id
 _symmetry_equiv_pos_as_xyz
  1  'x, y, z'
loop_
 _atom_site_type_symbol
 _atom_site_label
 _atom_site_symmetry_multiplicity
 _atom_site_fract_x
 _atom_site_fract_y
 _atom_site_fract_z
 _atom_site_occupancy
  Ba  Ba0  1  0.00000000  0.00000000  0.06551300  1
  Cu  Cu0  1  0.50000000  0.50000000  0.28433500  1
  W  W0  1  0.50000000  0.50000000  0.68764500  1
  O  O0  1  0.00000000  0.50000000  0.65264200  1
  O  O1  1  0.50000000  0.00000000  0.65264200  1
  O  O2  1  0.00000000  0.50000000  0.24752700  1
  O  O3  1  0.50000000  0.00000000  0.24752700  1
  O  O4  1  0.50000000  0.50000000  0.88598400  1
loop_
_geom_bond_atom_site_label_1
_geom_bond_atom_site_label_2
_geom_bond_distance
_geom_bond_site_symmetry_2
Ba0 O2 2.522291 1_545
Ba0 O3 2.522291 1_555
Ba0 O2 2.522291 1_555
Ba0 O3 2.522291 1_455
Ba0 O4 3.157942 1_544
Ba0 O4 3.157942 1_454
Ba0 O4 3.157942 1_444
Ba0 O4 3.157942 1_554
Cu0 O2 1.947519 1_555
Cu0 O2 1.947519 1_655
Cu0 O3 1.947519 1_555
Cu0 O3 1.947519 1_565
O0 W0 1.944827 1_555
O0 W0 1.944827 1_455
O1 W0 1.944827 1_545
O1 W0 1.944827 1_555
O4 W0 1.783457 1_555
