# generated using pymatgen
data_Eu2MgS4
_symmetry_space_group_name_H-M   'P 1'
_cell_length_a   13.07040656
_cell_length_b   7.79783238
_cell_length_c   12.78294406
_cell_angle_alpha   90.00000000
_cell_angle_beta   90.00000000
_cell_angle_gamma   90.00000000
_symmetry_Int_Tables_number   1
_chemical_formula_structural   Eu2MgS4
_chemical_formula_sum   'Eu16 Mg8 S32'
_cell_volume   1302.84838979
_cell_formula_units_Z   8
loop_
 _symmetry_equiv_pos_site_id
 _symmetry_equiv_pos_as_xyz
  1  'x, y, z'
loop_
 _atom_site_type_symbol
 _atom_site_label
 _atom_site_symmetry_multiplicity
 _atom_site_fract_x
 _atom_site_fract_y
 _atom_site_fract_z
 _atom_site_occupancy
  Eu  Eu0  1  0.10870908  0.88554012  0.68461053  1
  Eu  Eu1  1  0.89129092  0.11445988  0.18461053  1
  Eu  Eu2  1  0.39129092  0.88554012  0.18461053  1
  Eu  Eu3  1  0.60870908  0.11445988  0.68461053  1
  Eu  Eu4  1  0.12590918  0.38386466  0.32523388  1
  Eu  Eu5  1  0.87409082  0.61613534  0.82523388  1
  Eu  Eu6  1  0.37409082  0.38386466  0.82523388  1
  Eu  Eu7  1  0.62590918  0.61613534  0.32523388  1
  Eu  Eu8  1  0.13516961  0.63154668  0.99331901  1
  Eu  Eu9  1  0.86483039  0.36845332  0.49331901  1
  Eu  Eu10  1  0.36483039  0.63154668  0.49331901  1
  Eu  Eu11  1  0.63516961  0.36845332  0.99331901  1
  Eu  Eu12  1  0.13627051  0.12996079  0.99207302  1
  Eu  Eu13  1  0.86372949  0.87003921  0.49207302  1
  Eu  Eu14  1  0.36372949  0.12996079  0.49207302  1
  Eu  Eu15  1  0.63627051  0.87003921  0.99207302  1
  Mg  Mg0  1  0.11064219  0.38385614  0.69239092  1
  Mg  Mg1  1  0.88935781  0.61614386  0.19239092  1
  Mg  Mg2  1  0.38935781  0.38385614  0.19239092  1
  Mg  Mg3  1  0.61064219  0.61614386  0.69239092  1
  Mg  Mg4  1  0.12530732  0.87869585  0.32035666  1
  Mg  Mg5  1  0.87469268  0.12130415  0.82035666  1
  Mg  Mg6  1  0.37469268  0.87869585  0.82035666  1
  Mg  Mg7  1  0.62530732  0.12130415  0.32035666  1
  S  S0  1  0.01044075  0.88308978  0.87992388  1
  S  S1  1  0.98955925  0.11691022  0.37992388  1
  S  S2  1  0.48955925  0.88308978  0.37992388  1
  S  S3  1  0.51044075  0.11691022  0.87992388  1
  S  S4  1  0.02591185  0.38496870  0.13061786  1
  S  S5  1  0.97408815  0.61503130  0.63061786  1
  S  S6  1  0.47408815  0.38496870  0.63061786  1
  S  S7  1  0.52591185  0.61503130  0.13061786  1
  S  S8  1  0.02159783  0.37113304  0.87024533  1
  S  S9  1  0.97840217  0.62886696  0.37024533  1
  S  S10  1  0.47840217  0.37113304  0.37024533  1
  S  S11  1  0.52159783  0.62886696  0.87024533  1
  S  S12  1  0.04379806  0.87263495  0.14076198  1
  S  S13  1  0.95620194  0.12736505  0.64076198  1
  S  S14  1  0.45620194  0.87263495  0.64076198  1
  S  S15  1  0.54379806  0.12736505  0.14076198  1
  S  S16  1  0.20834668  0.88120972  0.49633952  1
  S  S17  1  0.79165332  0.11879028  0.99633952  1
  S  S18  1  0.29165332  0.88120972  0.99633952  1
  S  S19  1  0.70834668  0.11879028  0.49633952  1
  S  S20  1  0.20938628  0.38127943  0.52400484  1
  S  S21  1  0.79061372  0.61872057  0.02400484  1
  S  S22  1  0.29061372  0.38127943  0.02400484  1
  S  S23  1  0.70938628  0.61872057  0.52400484  1
  S  S24  1  0.23153360  0.13703867  0.77171608  1
  S  S25  1  0.76846640  0.86296133  0.27171608  1
  S  S26  1  0.26846640  0.13703867  0.27171608  1
  S  S27  1  0.73153360  0.86296133  0.77171608  1
  S  S28  1  0.23518713  0.63928498  0.77540749  1
  S  S29  1  0.76481287  0.36071502  0.27540749  1
  S  S30  1  0.26481287  0.63928498  0.27540749  1
  S  S31  1  0.73518713  0.36071502  0.77540749  1
loop_
_geom_bond_atom_site_label_1
_geom_bond_atom_site_label_2
_geom_bond_distance
_geom_bond_site_symmetry_2
Eu0 S16 2.736629 1_555
Eu0 S24 2.768229 1_565
Eu0 S28 2.786988 1_555
Eu0 S13 2.800615 1_465
Eu0 S0 2.807753 1_555
Eu0 S5 2.832290 1_455
Eu1 S17 2.736629 1_554
Eu1 S25 2.768229 1_545
Eu1 S29 2.786988 1_555
Eu1 S12 2.800615 1_645
Eu1 S1 2.807753 1_555
Eu1 S4 2.832290 1_655
Eu2 S18 2.736629 1_554
Eu2 S26 2.768229 1_565
Eu2 S30 2.786988 1_555
Eu2 S15 2.800615 1_565
Eu2 S2 2.807753 1_555
Eu2 S7 2.832290 1_555
Eu3 S19 2.736629 1_555
Eu3 S27 2.768229 1_545
Eu3 S31 2.786988 1_555
Eu3 S14 2.800615 1_545
Eu3 S3 2.807753 1_555
Eu3 S6 2.832290 1_555
Eu4 S26 2.764838 1_555
Eu4 S20 2.765307 1_555
Eu4 S30 2.769257 1_555
Eu4 S9 2.774548 1_455
Eu4 S4 2.810216 1_555
Eu4 S1 2.828096 1_455
Eu5 S27 2.764838 1_555
Eu5 S21 2.765307 1_556
Eu5 S31 2.769257 1_555
Eu5 S8 2.774548 1_655
Eu5 S5 2.810216 1_555
Eu5 S0 2.828096 1_655
Eu6 S24 2.764838 1_555
Eu6 S22 2.765307 1_556
Eu6 S28 2.769257 1_555
Eu6 S11 2.774548 1_555
Eu6 S6 2.810216 1_555
Eu6 S3 2.828096 1_555
Eu7 S25 2.764838 1_555
Eu7 S23 2.765307 1_555
Eu7 S29 2.769257 1_555
Eu7 S10 2.774548 1_555
Eu7 S7 2.810216 1_555
Eu7 S2 2.828096 1_555
Eu8 S18 2.823989 1_555
Eu8 S22 2.844338 1_556
Eu8 S12 2.917677 1_556
Eu8 S0 2.933650 1_555
Eu8 S8 2.966853 1_555
Eu8 S4 2.969290 1_556
Eu8 S28 3.077643 1_555
Eu9 S19 2.823989 1_555
Eu9 S23 2.844338 1_555
Eu9 S13 2.917677 1_555
Eu9 S1 2.933650 1_555
Eu9 S9 2.966853 1_555
Eu9 S5 2.969290 1_555
Eu9 S29 3.077643 1_555
Eu10 S16 2.823989 1_555
Eu10 S20 2.844338 1_555
Eu10 S14 2.917677 1_555
Eu10 S2 2.933650 1_555
Eu10 S10 2.966853 1_555
Eu10 S6 2.969290 1_555
Eu10 S30 3.077643 1_555
Eu11 S17 2.823989 1_555
Eu11 S21 2.844338 1_556
Eu11 S15 2.917677 1_556
Eu11 S3 2.933650 1_555
Eu11 S11 2.966853 1_555
Eu11 S7 2.969290 1_556
Eu11 S31 3.077643 1_555
Eu12 S18 2.808933 1_545
Eu12 S22 2.841973 1_556
Eu12 S8 2.865035 1_555
Eu12 S0 2.909624 1_545
Eu12 S12 3.016590 1_546
Eu12 S4 3.028409 1_556
Eu12 S24 3.080229 1_555
Eu13 S19 2.808933 1_565
Eu13 S23 2.841973 1_555
Eu13 S9 2.865035 1_555
Eu13 S1 2.909624 1_565
Eu13 S13 3.016590 1_565
Eu13 S5 3.028409 1_555
Eu13 S25 3.080229 1_555
Eu14 S16 2.808933 1_545
Eu14 S20 2.841973 1_555
Eu14 S10 2.865035 1_555
Eu14 S2 2.909624 1_545
Eu14 S14 3.016590 1_545
Eu14 S6 3.028409 1_555
Eu14 S26 3.080229 1_555
Eu15 S17 2.808933 1_565
Eu15 S21 2.841973 1_556
Eu15 S11 2.865035 1_555
Eu15 S3 2.909624 1_565
Eu15 S15 3.016590 1_566
Eu15 S7 3.028409 1_556
Eu15 S27 3.080229 1_555
Mg0 S20 2.509829 1_555
Mg0 S8 2.556012 1_555
Mg0 S5 2.656823 1_455
Mg0 S24 2.688712 1_555
Mg0 S28 2.782674 1_555
Mg0 S13 2.917292 1_455
Mg1 S21 2.509829 1_555
Mg1 S9 2.556012 1_555
Mg1 S4 2.656823 1_655
Mg1 S25 2.688712 1_555
Mg1 S29 2.782674 1_555
Mg1 S12 2.917292 1_655
Mg2 S22 2.509829 1_555
Mg2 S10 2.556012 1_555
Mg2 S7 2.656823 1_555
Mg2 S26 2.688712 1_555
Mg2 S30 2.782674 1_555
Mg2 S15 2.917292 1_555
Mg3 S23 2.509829 1_555
Mg3 S11 2.556012 1_555
Mg3 S6 2.656823 1_555
Mg3 S27 2.688712 1_555
Mg3 S31 2.782674 1_555
Mg3 S14 2.917292 1_555
Mg4 S16 2.497798 1_555
Mg4 S12 2.531341 1_555
Mg4 S30 2.672111 1_555
Mg4 S1 2.679252 1_465
Mg4 S9 2.808683 1_455
Mg4 S26 2.818875 1_565
Mg5 S17 2.497798 1_555
Mg5 S13 2.531341 1_555
Mg5 S31 2.672111 1_555
Mg5 S0 2.679252 1_645
Mg5 S8 2.808683 1_655
Mg5 S27 2.818875 1_545
Mg6 S18 2.497798 1_555
Mg6 S14 2.531341 1_555
Mg6 S28 2.672111 1_555
Mg6 S3 2.679252 1_565
Mg6 S11 2.808683 1_555
Mg6 S24 2.818875 1_565
Mg7 S19 2.497798 1_555
Mg7 S15 2.531341 1_555
Mg7 S29 2.672111 1_555
Mg7 S2 2.679252 1_545
Mg7 S10 2.808683 1_555
Mg7 S25 2.818875 1_545
