# generated using pymatgen
data_Y3MnAu5
_symmetry_space_group_name_H-M   'P 1'
_cell_length_a   7.86042948
_cell_length_b   7.86042948
_cell_length_c   7.86042939
_cell_angle_alpha   66.13222266
_cell_angle_beta   66.13222266
_cell_angle_gamma   66.13221424
_symmetry_Int_Tables_number   1
_chemical_formula_structural   Y3MnAu5
_chemical_formula_sum   'Y6 Mn2 Au10'
_cell_volume   388.93545435
_cell_formula_units_Z   2
loop_
 _symmetry_equiv_pos_site_id
 _symmetry_equiv_pos_as_xyz
  1  'x, y, z'
loop_
 _atom_site_type_symbol
 _atom_site_label
 _atom_site_symmetry_multiplicity
 _atom_site_fract_x
 _atom_site_fract_y
 _atom_site_fract_z
 _atom_site_occupancy
  Y  Y0  1  0.89072300  0.19171700  0.62093400  1
  Y  Y1  1  0.62093400  0.89072300  0.19171700  1
  Y  Y2  1  0.19171700  0.62093400  0.89072300  1
  Y  Y3  1  0.10927700  0.80828300  0.37906600  1
  Y  Y4  1  0.37906600  0.10927700  0.80828300  1
  Y  Y5  1  0.80828300  0.37906600  0.10927700  1
  Mn  Mn0  1  0.65475500  0.65475500  0.65475500  1
  Mn  Mn1  1  0.34524500  0.34524500  0.34524500  1
  Au  Au0  1  0.00000000  0.00000000  0.00000000  1
  Au  Au1  1  0.50000000  0.50000000  0.50000000  1
  Au  Au2  1  0.80210500  0.80210500  0.80210500  1
  Au  Au3  1  0.19789500  0.19789500  0.19789500  1
  Au  Au4  1  0.94142200  0.55201500  0.31717900  1
  Au  Au5  1  0.31717900  0.94142200  0.55201500  1
  Au  Au6  1  0.55201500  0.31717900  0.94142200  1
  Au  Au7  1  0.05857800  0.44798500  0.68282100  1
  Au  Au8  1  0.68282100  0.05857800  0.44798500  1
  Au  Au9  1  0.44798500  0.68282100  0.05857800  1
loop_
_geom_bond_atom_site_label_1
_geom_bond_atom_site_label_2
_geom_bond_distance
_geom_bond_site_symmetry_2
Au0 Y5 3.045796 1_455
Au0 Y2 3.045796 1_544
Au0 Y3 3.045797 1_545
Au0 Y0 3.045797 1_454
Au0 Y4 3.045797 1_554
Au0 Y1 3.045797 1_445
Au1 Mn0 2.834011 1_555
Au1 Mn1 2.834011 1_555
Au1 Y0 3.268640 1_555
Au1 Y3 3.268640 1_555
Au1 Y2 3.268641 1_555
Au1 Y5 3.268641 1_555
Au1 Y1 3.268641 1_555
Au1 Y4 3.268641 1_555
Au2 Mn0 2.698404 1_555
Au2 Y2 3.047368 1_655
Au2 Y1 3.047369 1_556
Au2 Y0 3.047369 1_565
Au2 Y4 3.218136 1_565
Au2 Y3 3.218136 1_655
Au2 Y5 3.218136 1_556
Au3 Mn1 2.698404 1_555
Au3 Y5 3.047368 1_455
Au3 Y4 3.047369 1_554
Au3 Y3 3.047369 1_545
Au3 Y1 3.218136 1_545
Au3 Y0 3.218136 1_455
Au3 Y2 3.218136 1_554
Au4 Mn0 2.862434 1_555
Au4 Y0 2.924305 1_555
Au4 Y1 2.977437 1_555
Au4 Mn1 2.977833 1_655
Au4 Y2 3.075201 1_654
Au4 Y3 3.081955 1_655
Au4 Y5 3.153910 1_555
Au5 Mn0 2.862434 1_555
Au5 Y1 2.924305 1_555
Au5 Y2 2.977437 1_555
Au5 Mn1 2.977833 1_565
Au5 Y0 3.075200 1_465
Au5 Y4 3.081955 1_565
Au5 Y3 3.153910 1_555
Au6 Mn0 2.862434 1_555
Au6 Y2 2.924304 1_555
Au6 Y0 2.977437 1_555
Au6 Mn1 2.977833 1_556
Au6 Y1 3.075201 1_546
Au6 Y5 3.081955 1_556
Au6 Y4 3.153910 1_555
Au7 Mn1 2.862434 1_555
Au7 Y3 2.924305 1_555
Au7 Y4 2.977437 1_555
Au7 Mn0 2.977833 1_455
Au7 Y5 3.075201 1_456
Au7 Y0 3.081955 1_455
Au7 Y2 3.153910 1_555
Au8 Mn1 2.862434 1_555
Au8 Y4 2.924305 1_555
Au8 Y5 2.977437 1_555
Au8 Mn0 2.977833 1_545
Au8 Y3 3.075200 1_645
Au8 Y1 3.081955 1_545
Au8 Y0 3.153910 1_555
Au9 Mn1 2.862434 1_555
Au9 Y5 2.924304 1_555
Au9 Y3 2.977437 1_555
Au9 Mn0 2.977833 1_554
Au9 Y4 3.075201 1_564
Au9 Y2 3.081955 1_554
Au9 Y1 3.153910 1_555
