# generated using pymatgen
data_Li7Mn2(CoO4)3
_symmetry_space_group_name_H-M   'P 1'
_cell_length_a   7.81771613
_cell_length_b   7.81771613
_cell_length_c   10.24097778
_cell_angle_alpha   69.13674400
_cell_angle_beta   69.13674400
_cell_angle_gamma   21.48029182
_symmetry_Int_Tables_number   1
_chemical_formula_structural   Li7Mn2(CoO4)3
_chemical_formula_sum   'Li7 Mn2 Co3 O12'
_cell_volume   213.60313144
_cell_formula_units_Z   1
loop_
 _symmetry_equiv_pos_site_id
 _symmetry_equiv_pos_as_xyz
  1  'x, y, z'
loop_
 _atom_site_type_symbol
 _atom_site_label
 _atom_site_symmetry_multiplicity
 _atom_site_fract_x
 _atom_site_fract_y
 _atom_site_fract_z
 _atom_site_occupancy
  Li  Li0  1  0.16607100  0.16607100  0.60451200  1
  Li  Li1  1  0.83205600  0.83205600  0.90723500  1
  Li  Li2  1  0.49512500  0.49512500  0.25083500  1
  Li  Li3  1  0.17108600  0.17108600  0.06258000  1
  Li  Li4  1  0.83714800  0.83714800  0.42400500  1
  Li  Li5  1  0.50418000  0.50418000  0.74903600  1
  Li  Li6  1  0.66605400  0.66605400  0.83035800  1
  Mn  Mn0  1  0.00239600  0.00239600  0.99604100  1
  Mn  Mn1  1  0.66806700  0.66806700  0.33286200  1
  Co  Co0  1  0.32055000  0.32055000  0.67957200  1
  Co  Co1  1  0.99223100  0.99223100  0.51175300  1
  Co  Co2  1  0.33353900  0.33353900  0.16649500  1
  O  O0  1  0.25752100  0.25752100  0.86611100  1
  O  O1  1  0.90842400  0.90842400  0.19773200  1
  O  O2  1  0.58682200  0.58682200  0.52251200  1
  O  O3  1  0.24530700  0.24530700  0.35838200  1
  O  O4  1  0.92095200  0.92095200  0.69735800  1
  O  O5  1  0.57059500  0.57059500  0.04197800  1
  O  O6  1  0.09571700  0.09571700  0.29582100  1
  O  O7  1  0.75386100  0.75386100  0.62321800  1
  O  O8  1  0.41969600  0.41969600  0.97607400  1
  O  O9  1  0.07332700  0.07332700  0.81082100  1
  O  O10  1  0.75662200  0.75662200  0.13741100  1
  O  O11  1  0.42265300  0.42265300  0.45729700  1
loop_
_geom_bond_atom_site_label_1
_geom_bond_atom_site_label_2
_geom_bond_distance
_geom_bond_site_symmetry_2
Li0 O7 2.040872 1_455
Li0 O7 2.040872 1_545
Li0 O9 2.076401 1_555
Li0 O2 2.247410 1_455
Li0 O2 2.247410 1_545
Li0 O3 2.368704 1_555
Li1 O0 1.990073 1_565
Li1 O0 1.990073 1_655
Li1 O4 2.087250 1_555
Li1 O10 2.217884 1_556
Li1 O8 2.262748 1_565
Li1 O8 2.262748 1_655
Li2 O11 2.000862 1_555
Li2 O5 2.030080 1_555
Li2 O1 2.171906 1_455
Li2 O1 2.171906 1_545
Li2 O6 2.288803 1_565
Li2 O6 2.288803 1_655
Li3 O0 1.968368 1_554
Li3 O5 2.187718 1_455
Li3 O5 2.187718 1_545
Li3 O6 2.245222 1_555
Li3 O10 2.272943 1_545
Li3 O10 2.272943 1_455
Li4 O7 1.976547 1_555
Li4 O11 2.070901 1_565
Li4 O11 2.070901 1_655
Li4 O1 2.174650 1_555
Li4 O3 2.291703 1_565
Li4 O3 2.291703 1_655
Li5 O9 2.034297 1_655
Li5 O9 2.034297 1_565
Li5 O4 2.127837 1_455
Li5 O4 2.127837 1_545
Li5 O2 2.204124 1_555
Li5 O8 2.214208 1_555
Li6 O7 2.060333 1_555
Li6 O9 2.097169 1_655
Li6 O9 2.097169 1_565
Li6 O5 2.131455 1_556
Li6 O0 2.145633 1_565
Li6 O0 2.145633 1_655
Mn0 O9 1.812964 1_555
Mn0 O5 1.949012 1_456
Mn0 O5 1.949012 1_546
Mn0 O8 1.991615 1_455
Mn0 O8 1.991615 1_545
Mn0 O1 2.046593 1_446
Mn1 O2 1.890094 1_555
Mn1 O6 1.951216 1_655
Mn1 O6 1.951216 1_565
Mn1 O3 1.955360 1_655
Mn1 O3 1.955360 1_565
Mn1 O10 1.970520 1_555
Co0 O0 1.801643 1_555
Co0 O7 1.983345 1_545
Co0 O7 1.983345 1_455
Co0 O4 2.176717 1_545
Co0 O4 2.176717 1_455
Co0 O11 2.247949 1_555
Co1 O4 1.817418 1_555
Co1 O11 2.002000 1_655
Co1 O11 2.002000 1_565
Co1 O2 2.088559 1_655
Co1 O2 2.088559 1_565
Co1 O6 2.206505 1_665
Co2 O8 1.919219 1_554
Co2 O3 1.941071 1_555
Co2 O1 1.953176 1_455
Co2 O1 1.953176 1_545
Co2 O10 1.965304 1_545
Co2 O10 1.965304 1_455
