# generated using pymatgen
data_YBi3Se2ClO8
_symmetry_space_group_name_H-M   'P 1'
_cell_length_a   7.72583600
_cell_length_b   7.76237000
_cell_length_c   9.80631900
_cell_angle_alpha   90.00000000
_cell_angle_beta   90.00000000
_cell_angle_gamma   90.00000000
_symmetry_Int_Tables_number   1
_chemical_formula_structural   YBi3Se2ClO8
_chemical_formula_sum   'Y2 Bi6 Se4 Cl2 O16'
_cell_volume   588.09277186
_cell_formula_units_Z   2
loop_
 _symmetry_equiv_pos_site_id
 _symmetry_equiv_pos_as_xyz
  1  'x, y, z'
loop_
 _atom_site_type_symbol
 _atom_site_label
 _atom_site_symmetry_multiplicity
 _atom_site_fract_x
 _atom_site_fract_y
 _atom_site_fract_z
 _atom_site_occupancy
  Y  Y0  1  0.17179300  0.50000000  0.50000000  1
  Y  Y1  1  0.82820700  0.00000000  0.00000000  1
  Bi  Bi0  1  0.50000000  0.25000000  0.75000000  1
  Bi  Bi1  1  0.50000000  0.25000000  0.25000000  1
  Bi  Bi2  1  0.50000000  0.75000000  0.75000000  1
  Bi  Bi3  1  0.35574900  0.00000000  0.00000000  1
  Bi  Bi4  1  0.64425100  0.50000000  0.50000000  1
  Bi  Bi5  1  0.50000000  0.75000000  0.25000000  1
  Se  Se0  1  0.08328400  0.00000000  0.68159100  1
  Se  Se1  1  0.91671600  0.50000000  0.81840900  1
  Se  Se2  1  0.08328400  0.00000000  0.31840900  1
  Se  Se3  1  0.91671600  0.50000000  0.18159100  1
  Cl  Cl0  1  0.41976400  0.50000000  0.00000000  1
  Cl  Cl1  1  0.58023600  0.00000000  0.50000000  1
  O  O0  1  0.38742800  0.50000000  0.64750800  1
  O  O1  1  0.93439100  0.50000000  0.64025900  1
  O  O2  1  0.06560900  0.00000000  0.14025900  1
  O  O3  1  0.21373100  0.17806600  0.65613600  1
  O  O4  1  0.78626900  0.32193400  0.15613600  1
  O  O5  1  0.78626900  0.67806600  0.15613600  1
  O  O6  1  0.61257200  0.00000000  0.85249200  1
  O  O7  1  0.21373100  0.82193400  0.65613600  1
  O  O8  1  0.21373100  0.82193400  0.34386400  1
  O  O9  1  0.78626900  0.67806600  0.84386400  1
  O  O10  1  0.38742800  0.50000000  0.35249200  1
  O  O11  1  0.61257200  0.00000000  0.14750800  1
  O  O12  1  0.78626900  0.32193400  0.84386400  1
  O  O13  1  0.21373100  0.17806600  0.34386400  1
  O  O14  1  0.06560900  0.00000000  0.85974100  1
  O  O15  1  0.93439100  0.50000000  0.35974100  1
loop_
_geom_bond_atom_site_label_1
_geom_bond_atom_site_label_2
_geom_bond_distance
_geom_bond_site_symmetry_2
Bi0 O6 2.352119 1_555
Bi0 O0 2.352119 1_555
Bi0 O3 2.459778 1_555
Bi0 O12 2.459778 1_555
Bi0 Cl1 3.187539 1_555
Bi0 Cl0 3.187539 1_556
Bi1 O10 2.352119 1_555
Bi1 O11 2.352119 1_555
Bi1 O13 2.459778 1_555
Bi1 O4 2.459778 1_555
Bi1 Cl0 3.187539 1_555
Bi1 Cl1 3.187539 1_555
Bi2 O6 2.352119 1_565
Bi2 O0 2.352119 1_555
Bi2 O7 2.459778 1_555
Bi2 O9 2.459778 1_555
Bi2 Cl1 3.187539 1_565
Bi2 Cl0 3.187539 1_556
Bi3 O6 2.455470 1_554
Bi3 O11 2.455470 1_555
Bi3 O2 2.629914 1_555
Bi3 O14 2.629914 1_554
Bi4 O10 2.455470 1_555
Bi4 O0 2.455470 1_555
Bi4 O15 2.629914 1_555
Bi4 O1 2.629914 1_555
Bi5 O11 2.352119 1_565
Bi5 O10 2.352119 1_555
Bi5 O8 2.459778 1_555
Bi5 O5 2.459778 1_555
Bi5 Cl0 3.187539 1_555
Bi5 Cl1 3.187539 1_565
O0 Y0 2.206313 1_555
O1 Se1 1.752324 1_555
O1 Y0 2.292558 1_655
O2 Se2 1.752324 1_555
O2 Y1 2.292558 1_455
O3 Se0 1.728731 1_555
O3 Y0 2.948586 1_555
O4 Se3 1.728731 1_555
O4 Y1 2.948586 1_555
O5 Se3 1.728731 1_555
O5 Y1 2.948586 1_565
O6 Y1 2.206313 1_556
O7 Se0 1.728731 1_565
O7 Y0 2.948586 1_555
O8 Se2 1.728731 1_565
O8 Y0 2.948586 1_555
O9 Se1 1.728731 1_555
O9 Y1 2.948586 1_566
O10 Y0 2.206313 1_555
O11 Y1 2.206313 1_555
O12 Se1 1.728731 1_555
O12 Y1 2.948586 1_556
O13 Se2 1.728731 1_555
O13 Y0 2.948586 1_555
O14 Se0 1.752324 1_555
O14 Y1 2.292558 1_456
O15 Se3 1.752324 1_555
O15 Y0 2.292558 1_655
