# generated using pymatgen
data_NdSI
_symmetry_space_group_name_H-M   'P 1'
_cell_length_a   7.07233898
_cell_length_b   7.30591205
_cell_length_c   14.36783311
_cell_angle_alpha   90.00000000
_cell_angle_beta   90.00000000
_cell_angle_gamma   90.00000000
_symmetry_Int_Tables_number   1
_chemical_formula_structural   NdSI
_chemical_formula_sum   'Nd8 S8 I8'
_cell_volume   742.38430713
_cell_formula_units_Z   8
loop_
 _symmetry_equiv_pos_site_id
 _symmetry_equiv_pos_as_xyz
  1  'x, y, z'
loop_
 _atom_site_type_symbol
 _atom_site_label
 _atom_site_symmetry_multiplicity
 _atom_site_fract_x
 _atom_site_fract_y
 _atom_site_fract_z
 _atom_site_occupancy
  Nd  Nd0  1  0.25855697  0.97068908  0.91656037  1
  Nd  Nd1  1  0.74144303  0.02931092  0.08343963  1
  Nd  Nd2  1  0.24144303  0.47068908  0.08343963  1
  Nd  Nd3  1  0.74144303  0.52931092  0.41656037  1
  Nd  Nd4  1  0.75855697  0.52931092  0.91656037  1
  Nd  Nd5  1  0.25855697  0.47068908  0.58343963  1
  Nd  Nd6  1  0.75855697  0.02931092  0.58343963  1
  Nd  Nd7  1  0.24144303  0.97068908  0.41656037  1
  S  S0  1  0.99879524  0.74117795  0.52334403  1
  S  S1  1  0.00120476  0.25882205  0.47665597  1
  S  S2  1  0.50120476  0.24117795  0.47665597  1
  S  S3  1  0.00120476  0.75882205  0.02334403  1
  S  S4  1  0.49879524  0.75882205  0.52334403  1
  S  S5  1  0.99879524  0.24117795  0.97665597  1
  S  S6  1  0.49879524  0.25882205  0.97665597  1
  S  S7  1  0.50120476  0.74117795  0.02334403  1
  I  I0  1  0.17416213  0.59881223  0.79814240  1
  I  I1  1  0.82583787  0.40118777  0.20185760  1
  I  I2  1  0.32583787  0.09881223  0.20185760  1
  I  I3  1  0.82583787  0.90118777  0.29814240  1
  I  I4  1  0.67416213  0.90118777  0.79814240  1
  I  I5  1  0.17416213  0.09881223  0.70185760  1
  I  I6  1  0.67416213  0.40118777  0.70185760  1
  I  I7  1  0.32583787  0.59881223  0.29814240  1
loop_
_geom_bond_atom_site_label_1
_geom_bond_atom_site_label_2
_geom_bond_distance
_geom_bond_site_symmetry_2
Nd0 S5 2.832983 1_465
Nd0 S3 2.839465 1_556
Nd0 S6 2.839653 1_565
Nd0 S7 2.847893 1_556
Nd1 S3 2.832983 1_645
Nd1 S5 2.839465 1_554
Nd1 S7 2.839653 1_545
Nd1 S6 2.847893 1_554
Nd2 S7 2.832983 1_555
Nd2 S6 2.839465 1_554
Nd2 S3 2.839653 1_555
Nd2 S5 2.847893 1_454
Nd3 S1 2.832983 1_655
Nd3 S0 2.839465 1_555
Nd3 S2 2.839653 1_555
Nd3 S4 2.847893 1_555
Nd4 S6 2.832983 1_555
Nd4 S7 2.839465 1_556
Nd4 S5 2.839653 1_555
Nd4 S3 2.847893 1_656
Nd5 S0 2.832983 1_455
Nd5 S1 2.839465 1_555
Nd5 S4 2.839653 1_555
Nd5 S2 2.847893 1_555
Nd6 S4 2.832983 1_545
Nd6 S2 2.839465 1_555
Nd6 S0 2.839653 1_545
Nd6 S1 2.847893 1_655
Nd7 S2 2.832983 1_565
Nd7 S4 2.839465 1_555
Nd7 S1 2.839653 1_565
Nd7 S0 2.847893 1_455
I0 Nd0 3.260765 1_555
I0 Nd5 3.278495 1_555
I0 Nd4 3.433965 1_455
I1 Nd1 3.260765 1_555
I1 Nd3 3.278495 1_555
I1 Nd2 3.433965 1_655
I2 Nd2 3.260765 1_555
I2 Nd7 3.278495 1_545
I2 Nd1 3.433965 1_555
I3 Nd3 3.260765 1_555
I3 Nd1 3.278495 1_565
I3 Nd7 3.433965 1_655
I4 Nd4 3.260765 1_555
I4 Nd6 3.278495 1_565
I4 Nd0 3.433965 1_555
I5 Nd5 3.260765 1_555
I5 Nd0 3.278495 1_545
I5 Nd6 3.433965 1_455
I6 Nd6 3.260765 1_555
I6 Nd4 3.278495 1_555
I6 Nd5 3.433965 1_555
I7 Nd7 3.260765 1_555
I7 Nd2 3.278495 1_555
I7 Nd3 3.433965 1_555
