# generated using pymatgen
data_NbS2
_symmetry_space_group_name_H-M   'P 1'
_cell_length_a   7.03520652
_cell_length_b   7.03520652
_cell_length_c   7.03520652
_cell_angle_alpha   154.83065497
_cell_angle_beta   154.83065497
_cell_angle_gamma   35.89337311
_symmetry_Int_Tables_number   1
_chemical_formula_structural   NbS2
_chemical_formula_sum   'Nb1 S2'
_cell_volume   62.90299332
_cell_formula_units_Z   1
loop_
 _symmetry_equiv_pos_site_id
 _symmetry_equiv_pos_as_xyz
  1  'x, y, z'
loop_
 _atom_site_type_symbol
 _atom_site_label
 _atom_site_symmetry_multiplicity
 _atom_site_fract_x
 _atom_site_fract_y
 _atom_site_fract_z
 _atom_site_occupancy
  Nb  Nb0  1  0.00000000  0.00000000  0.00000000  1
  S  S0  1  0.61059300  0.61059300  0.00000000  1
  S  S1  1  0.38940700  0.38940700  0.00000000  1
loop_
_geom_bond_atom_site_label_1
_geom_bond_atom_site_label_2
_geom_bond_distance
_geom_bond_site_symmetry_2
Nb0 S1 2.625023 1_444
Nb0 S1 2.625023 1_545
Nb0 S1 2.625023 1_455
Nb0 S1 2.625023 1_556
Nb0 S0 2.625023 1_455
Nb0 S0 2.625023 1_556
Nb0 S0 2.625023 1_444
Nb0 S0 2.625023 1_545
