# generated using pymatgen
data_SnTe(PbS)4
_symmetry_space_group_name_H-M   'P 1'
_cell_length_a   17.58300508
_cell_length_b   17.58300508
_cell_length_c   17.58300461
_cell_angle_alpha   14.09911764
_cell_angle_beta   14.09911764
_cell_angle_gamma   14.09911899
_symmetry_Int_Tables_number   1
_chemical_formula_structural   SnTe(PbS)4
_chemical_formula_sum   'Sn1 Te1 Pb4 S4'
_cell_volume   280.76995560
_cell_formula_units_Z   1
loop_
 _symmetry_equiv_pos_site_id
 _symmetry_equiv_pos_as_xyz
  1  'x, y, z'
loop_
 _atom_site_type_symbol
 _atom_site_label
 _atom_site_symmetry_multiplicity
 _atom_site_fract_x
 _atom_site_fract_y
 _atom_site_fract_z
 _atom_site_occupancy
  Sn  Sn0  1  0.59490100  0.59490100  0.59490100  1
  Te  Te0  1  0.29811100  0.29811100  0.29811100  1
  Pb  Pb0  1  0.00395400  0.00395400  0.00395400  1
  Pb  Pb1  1  0.40167000  0.40167000  0.40167000  1
  Pb  Pb2  1  0.80010100  0.80010100  0.80010100  1
  Pb  Pb3  1  0.19876800  0.19876800  0.19876800  1
  S  S0  1  0.70216100  0.70216100  0.70216100  1
  S  S1  1  0.10066200  0.10066200  0.10066200  1
  S  S2  1  0.50021200  0.50021200  0.50021200  1
  S  S3  1  0.89945800  0.89945800  0.89945800  1
loop_
_geom_bond_atom_site_label_1
_geom_bond_atom_site_label_2
_geom_bond_distance
_geom_bond_site_symmetry_2
Sn0 Te0 3.138465 1_556
Sn0 Te0 3.138465 1_655
Sn0 Te0 3.138465 1_565
Pb0 S0 2.986842 1_445
Pb0 S0 2.986843 1_544
Pb0 S0 2.986843 1_454
Pb0 Te0 3.223904 1_554
Pb0 Te0 3.223905 1_455
Pb0 Te0 3.223905 1_545
Pb1 S1 3.009638 1_556
Pb1 S1 3.009639 1_565
Pb1 S1 3.009639 1_655
Pb1 S0 3.024861 1_554
Pb1 S0 3.024862 1_545
Pb1 S0 3.024862 1_455
Pb2 S1 3.022790 1_665
Pb2 S1 3.022791 1_566
Pb2 S1 3.022791 1_656
Pb2 S2 3.042793 1_556
Pb2 S2 3.042793 1_565
Pb2 S2 3.042793 1_655
Pb3 S2 2.996929 1_554
Pb3 S2 2.996930 1_455
Pb3 S2 2.996930 1_545
Pb3 S3 3.060245 1_445
Pb3 S3 3.060245 1_544
Pb3 S3 3.060245 1_454
S3 Sn0 2.909753 1_556
S3 Sn0 2.909754 1_655
S3 Sn0 2.909754 1_565
