# generated using pymatgen
data_Na2Ti2F7
_symmetry_space_group_name_H-M   'P 1'
_cell_length_a   7.49832567
_cell_length_b   7.49832567
_cell_length_c   24.97667526
_cell_angle_alpha   81.25811321
_cell_angle_beta   81.25811321
_cell_angle_gamma   60.20277622
_symmetry_Int_Tables_number   1
_chemical_formula_structural   Na2Ti2F7
_chemical_formula_sum   'Na16 Ti16 F56'
_cell_volume   1199.69404210
_cell_formula_units_Z   8
loop_
 _symmetry_equiv_pos_site_id
 _symmetry_equiv_pos_as_xyz
  1  'x, y, z'
loop_
 _atom_site_type_symbol
 _atom_site_label
 _atom_site_symmetry_multiplicity
 _atom_site_fract_x
 _atom_site_fract_y
 _atom_site_fract_z
 _atom_site_occupancy
  Na  Na0  1  0.00000000  0.00000000  0.50000000  1
  Na  Na1  1  0.00000000  0.00000000  0.00000000  1
  Na  Na2  1  0.50000000  0.50000000  0.50000000  1
  Na  Na3  1  0.50000000  0.50000000  0.00000000  1
  Na  Na4  1  0.50000000  0.00000000  0.00000000  1
  Na  Na5  1  0.00000000  0.50000000  0.50000000  1
  Na  Na6  1  0.20955600  0.79044400  0.75000000  1
  Na  Na7  1  0.79044400  0.20955600  0.25000000  1
  Na  Na8  1  0.71807700  0.78602900  0.75459000  1
  Na  Na9  1  0.28192300  0.21397100  0.24541000  1
  Na  Na10  1  0.21397100  0.28192300  0.74541000  1
  Na  Na11  1  0.78602900  0.71807700  0.25459000  1
  Na  Na12  1  0.11623800  0.13343400  0.62068400  1
  Na  Na13  1  0.88376200  0.86656600  0.37931600  1
  Na  Na14  1  0.86656600  0.88376200  0.87931600  1
  Na  Na15  1  0.13343400  0.11623800  0.12068400  1
  Ti  Ti0  1  0.50000000  0.00000000  0.50000000  1
  Ti  Ti1  1  0.00000000  0.50000000  0.00000000  1
  Ti  Ti2  1  0.74960800  0.25039200  0.75000000  1
  Ti  Ti3  1  0.25039200  0.74960800  0.25000000  1
  Ti  Ti4  1  0.11149700  0.63492400  0.62564200  1
  Ti  Ti5  1  0.88850300  0.36507600  0.37435800  1
  Ti  Ti6  1  0.36507600  0.88850300  0.87435800  1
  Ti  Ti7  1  0.63492400  0.11149700  0.12564200  1
  Ti  Ti8  1  0.61394900  0.61913900  0.62910800  1
  Ti  Ti9  1  0.38605100  0.38086100  0.37089200  1
  Ti  Ti10  1  0.38086100  0.38605100  0.87089200  1
  Ti  Ti11  1  0.61913900  0.61394900  0.12910800  1
  Ti  Ti12  1  0.61357700  0.14086000  0.62565300  1
  Ti  Ti13  1  0.38642300  0.85914000  0.37434700  1
  Ti  Ti14  1  0.85914000  0.38642300  0.87434700  1
  Ti  Ti15  1  0.14086000  0.61357700  0.12565300  1
  F  F0  1  0.57772200  0.73385000  0.54936200  1
  F  F1  1  0.42227800  0.26615000  0.45063800  1
  F  F2  1  0.26615000  0.42227800  0.95063800  1
  F  F3  1  0.73385000  0.57772200  0.04936200  1
  F  F4  1  0.63186800  0.54834600  0.71220300  1
  F  F5  1  0.36813200  0.45165400  0.28779700  1
  F  F6  1  0.45165400  0.36813200  0.78779700  1
  F  F7  1  0.54834600  0.63186800  0.21220300  1
  F  F8  1  0.30058400  0.74150900  0.64287500  1
  F  F9  1  0.69941600  0.25849100  0.35712500  1
  F  F10  1  0.25849100  0.69941600  0.85712500  1
  F  F11  1  0.74150900  0.30058400  0.14287500  1
  F  F12  1  0.92233800  0.52450700  0.61292300  1
  F  F13  1  0.07766200  0.47549300  0.38707700  1
  F  F14  1  0.47549300  0.07766200  0.88707700  1
  F  F15  1  0.52450700  0.92233800  0.11292300  1
  F  F16  1  0.57659000  0.15200700  0.54590300  1
  F  F17  1  0.42341000  0.84799300  0.45409700  1
  F  F18  1  0.84799300  0.42341000  0.95409700  1
  F  F19  1  0.15200700  0.57659000  0.04590300  1
  F  F20  1  0.63764500  0.12085500  0.70640500  1
  F  F21  1  0.36235500  0.87914500  0.29359500  1
  F  F22  1  0.87914500  0.36235500  0.79359500  1
  F  F23  1  0.12085500  0.63764500  0.20640500  1
  F  F24  1  0.92318100  0.94639500  0.60949500  1
  F  F25  1  0.07681900  0.05360500  0.39050500  1
  F  F26  1  0.05360500  0.07681900  0.89050500  1
  F  F27  1  0.94639500  0.92318100  0.10949500  1
  F  F28  1  0.30204800  0.32169300  0.64147000  1
  F  F29  1  0.69795200  0.67830700  0.35853000  1
  F  F30  1  0.67830700  0.69795200  0.85853000  1
  F  F31  1  0.32169300  0.30204800  0.14147000  1
  F  F32  1  0.56004100  0.89810600  0.64577300  1
  F  F33  1  0.43995900  0.10189400  0.35422700  1
  F  F34  1  0.10189400  0.43995900  0.85422700  1
  F  F35  1  0.89810600  0.56004100  0.14577300  1
  F  F36  1  0.70232100  0.35590900  0.59416400  1
  F  F37  1  0.29767900  0.64409100  0.40583600  1
  F  F38  1  0.64409100  0.29767900  0.90583600  1
  F  F39  1  0.35590900  0.70232100  0.09416400  1
  F  F40  1  0.19845300  0.13719300  0.52974500  1
  F  F41  1  0.80154700  0.86280700  0.47025500  1
  F  F42  1  0.86280700  0.80154700  0.97025500  1
  F  F43  1  0.13719300  0.19845300  0.02974500  1
  F  F44  1  0.86367100  0.96650700  0.79078200  1
  F  F45  1  0.13632900  0.03349300  0.20921800  1
  F  F46  1  0.03349300  0.13632900  0.70921800  1
  F  F47  1  0.96650700  0.86367100  0.29078200  1
  F  F48  1  0.04308900  0.63005400  0.70766600  1
  F  F49  1  0.95691100  0.36994600  0.29233400  1
  F  F50  1  0.36994600  0.95691100  0.79233400  1
  F  F51  1  0.63005400  0.04308900  0.20766600  1
  F  F52  1  0.17636500  0.63944000  0.54338800  1
  F  F53  1  0.82363500  0.36056000  0.45661200  1
  F  F54  1  0.36056000  0.82363500  0.95661200  1
  F  F55  1  0.63944000  0.17636500  0.04338800  1
loop_
_geom_bond_atom_site_label_1
_geom_bond_atom_site_label_2
_geom_bond_distance
_geom_bond_site_symmetry_2
F0 Ti0 2.038873 1_565
F0 Ti8 2.047521 1_555
F0 Na2 2.612576 1_555
F0 Na5 2.927981 1_655
F1 Ti0 2.038873 1_555
F1 Ti9 2.047521 1_555
F1 Na2 2.612576 1_555
F1 Na5 2.927981 1_555
F2 Ti1 2.038873 1_556
F2 Ti10 2.047521 1_555
F2 Na3 2.612576 1_556
F2 Na4 2.927981 1_556
F3 Ti1 2.038873 1_655
F3 Ti11 2.047521 1_555
F3 Na3 2.612576 1_555
F3 Na4 2.927981 1_565
F4 Ti8 2.070331 1_555
F4 Ti2 2.077018 1_555
F4 Na8 2.577122 1_555
F4 Na6 2.848373 1_555
F5 Ti9 2.070331 1_555
F5 Ti3 2.077018 1_555
F5 Na9 2.577122 1_555
F5 Na7 2.848373 1_555
F6 Ti10 2.070331 1_555
F6 Ti2 2.077018 1_555
F6 Na10 2.577122 1_555
F6 Na6 2.848373 1_555
F7 Ti11 2.070331 1_555
F7 Ti3 2.077018 1_555
F7 Na11 2.577122 1_555
F7 Na7 2.848373 1_555
F8 Ti8 2.046665 1_555
F8 Ti4 2.061678 1_555
F8 Na12 2.560236 1_565
F8 Na6 2.693304 1_555
F9 Ti9 2.046665 1_555
F9 Ti5 2.061678 1_555
F9 Na13 2.560236 1_545
F9 Na7 2.693304 1_555
F10 Ti10 2.046665 1_555
F10 Ti6 2.061678 1_555
F10 Na14 2.560236 1_455
F10 Na6 2.693304 1_555
F11 Ti11 2.046665 1_555
F11 Ti7 2.061678 1_555
F11 Na15 2.560236 1_655
F11 Na7 2.693304 1_555
F12 Ti4 2.045052 1_655
F12 Ti8 2.046070 1_555
F12 Na12 2.534949 1_655
F12 Na5 2.807082 1_655
F13 Ti5 2.045052 1_455
F13 Ti9 2.046070 1_555
F13 Na13 2.534949 1_455
F13 Na5 2.807082 1_555
F14 Ti6 2.045052 1_545
F14 Ti10 2.046070 1_555
F14 Na14 2.534949 1_545
F14 Na4 2.807082 1_556
F15 Ti7 2.045052 1_565
F15 Ti11 2.046070 1_555
F15 Na15 2.534949 1_565
F15 Na4 2.807082 1_565
F16 Ti12 2.036125 1_555
F16 Ti0 2.047280 1_555
F16 Na2 2.500900 1_555
F16 Na0 2.896147 1_655
F17 Ti13 2.036125 1_555
F17 Ti0 2.047280 1_565
F17 Na2 2.500900 1_555
F17 Na0 2.896147 1_565
F18 Ti14 2.036125 1_555
F18 Ti1 2.047280 1_656
F18 Na3 2.500900 1_556
F18 Na1 2.896147 1_656
F19 Ti15 2.036125 1_555
F19 Ti1 2.047280 1_555
F19 Na3 2.500900 1_555
F19 Na1 2.896147 1_565
F20 Ti12 2.028496 1_555
F20 Ti2 2.060017 1_555
F20 Na8 2.431610 1_545
F20 Na10 2.846701 1_555
F21 Ti13 2.028496 1_555
F21 Ti3 2.060017 1_555
F21 Na9 2.431610 1_565
F21 Na11 2.846701 1_555
F22 Ti14 2.028496 1_555
F22 Ti2 2.060017 1_555
F22 Na10 2.431610 1_655
F22 Na8 2.846701 1_555
F23 Ti15 2.028496 1_555
F23 Ti3 2.060017 1_555
F23 Na11 2.431610 1_455
F23 Na9 2.846701 1_555
F24 Ti12 2.051401 1_565
F24 Ti4 2.054342 1_655
F24 Na12 2.529919 1_665
F24 Na0 2.718406 1_665
F25 Ti13 2.051401 1_545
F25 Ti5 2.054342 1_455
F25 Na13 2.529919 1_445
F25 Na0 2.718406 1_555
F26 Ti14 2.051401 1_455
F26 Ti6 2.054342 1_545
F26 Na14 2.529919 1_445
F26 Na1 2.718406 1_556
F27 Ti15 2.051401 1_655
F27 Ti7 2.054342 1_565
F27 Na15 2.529919 1_665
F27 Na1 2.718406 1_665
F28 Ti12 2.045883 1_555
F28 Ti4 2.066013 1_555
F28 Na12 2.569192 1_555
F28 Na10 2.589201 1_555
F29 Ti13 2.045883 1_555
F29 Ti5 2.066013 1_555
F29 Na13 2.569192 1_555
F29 Na11 2.589201 1_555
F30 Ti14 2.045883 1_555
F30 Ti6 2.066013 1_555
F30 Na14 2.569192 1_555
F30 Na8 2.589201 1_555
F31 Ti15 2.045883 1_555
F31 Ti7 2.066013 1_555
F31 Na15 2.569192 1_555
F31 Na9 2.589201 1_555
F32 Ti8 2.021231 1_555
F32 Ti12 2.028260 1_565
F33 Ti9 2.021231 1_555
F33 Ti13 2.028260 1_545
F34 Ti10 2.021231 1_555
F34 Ti14 2.028260 1_455
F35 Ti11 2.021231 1_555
F35 Ti15 2.028260 1_655
F36 Ti8 2.035836 1_555
F36 Ti12 2.045335 1_555
F36 Na2 2.771895 1_555
F36 Na12 2.828025 1_655
F37 Ti9 2.035836 1_555
F37 Ti13 2.045335 1_555
F37 Na2 2.771895 1_555
F37 Na13 2.828025 1_455
F38 Ti10 2.035836 1_555
F38 Ti14 2.045335 1_555
F38 Na3 2.771895 1_556
F38 Na14 2.828025 1_545
F39 Ti11 2.035836 1_555
F39 Ti15 2.045335 1_555
F39 Na3 2.771895 1_555
F39 Na15 2.828025 1_565
F40 Ti0 2.032906 1_555
F40 Na12 2.260989 1_555
F40 Na5 2.421868 1_555
F40 Na0 2.431935 1_555
F41 Ti0 2.032906 1_565
F41 Na13 2.260989 1_555
F41 Na5 2.421868 1_655
F41 Na0 2.431935 1_665
F42 Ti1 2.032906 1_656
F42 Na14 2.260989 1_555
F42 Na4 2.421868 1_566
F42 Na1 2.431935 1_666
F43 Ti1 2.032906 1_555
F43 Na15 2.260989 1_555
F43 Na4 2.421868 1_555
F43 Na1 2.431935 1_555
F44 Ti2 2.023995 1_565
F44 Na14 2.204399 1_555
F44 Na6 2.389507 1_655
F44 Na8 2.445504 1_555
F45 Ti3 2.023995 1_545
F45 Na15 2.204399 1_555
F45 Na7 2.389507 1_455
F45 Na9 2.445504 1_555
F46 Ti2 2.023995 1_455
F46 Na12 2.204399 1_555
F46 Na6 2.389507 1_545
F46 Na10 2.445504 1_555
F47 Ti3 2.023995 1_655
F47 Na13 2.204399 1_555
F47 Na7 2.389507 1_565
F47 Na11 2.445504 1_555
F48 Ti4 2.034210 1_555
F48 Na8 2.323001 1_455
F48 Na10 2.374784 1_555
F48 Na6 2.530248 1_555
F49 Ti5 2.034210 1_555
F49 Na9 2.323001 1_655
F49 Na11 2.374784 1_555
F49 Na7 2.530248 1_555
F50 Ti6 2.034210 1_555
F50 Na10 2.323001 1_565
F50 Na8 2.374784 1_555
F50 Na6 2.530248 1_555
F51 Ti7 2.034210 1_555
F51 Na11 2.323001 1_545
F51 Na9 2.374784 1_555
F51 Na7 2.530248 1_555
F52 Ti4 2.037130 1_555
F52 Na2 2.275934 1_555
F52 Na5 2.484088 1_555
F52 Na0 2.494854 1_565
F53 Ti5 2.037130 1_555
F53 Na2 2.275934 1_555
F53 Na5 2.484088 1_655
F53 Na0 2.494854 1_655
F54 Ti6 2.037130 1_555
F54 Na3 2.275934 1_556
F54 Na4 2.484088 1_566
F54 Na1 2.494854 1_566
F55 Ti7 2.037130 1_555
F55 Na3 2.275934 1_555
F55 Na4 2.484088 1_555
F55 Na1 2.494854 1_655
