# generated using pymatgen
data_Mn2Cd3(GeO4)3
_symmetry_space_group_name_H-M   'P 1'
_cell_length_a   10.85244515
_cell_length_b   10.85244515
_cell_length_c   10.85244515
_cell_angle_alpha   109.47122063
_cell_angle_beta   109.47122063
_cell_angle_gamma   109.47122063
_symmetry_Int_Tables_number   1
_chemical_formula_structural   Mn2Cd3(GeO4)3
_chemical_formula_sum   'Mn8 Cd12 Ge12 O48'
_cell_volume   983.92253648
_cell_formula_units_Z   4
loop_
 _symmetry_equiv_pos_site_id
 _symmetry_equiv_pos_as_xyz
  1  'x, y, z'
loop_
 _atom_site_type_symbol
 _atom_site_label
 _atom_site_symmetry_multiplicity
 _atom_site_fract_x
 _atom_site_fract_y
 _atom_site_fract_z
 _atom_site_occupancy
  Mn  Mn0  1  -0.00000000  -0.00000000  -0.00000000  1
  Mn  Mn1  1  0.50000000  -0.00000000  0.50000000  1
  Mn  Mn2  1  0.50000000  0.50000000  -0.00000000  1
  Mn  Mn3  1  -0.00000000  -0.00000000  0.50000000  1
  Mn  Mn4  1  -0.00000000  0.50000000  0.50000000  1
  Mn  Mn5  1  0.50000000  0.50000000  0.50000000  1
  Mn  Mn6  1  0.50000000  -0.00000000  -0.00000000  1
  Mn  Mn7  1  -0.00000000  0.50000000  -0.00000000  1
  Cd  Cd0  1  0.87500000  0.62500000  0.75000000  1
  Cd  Cd1  1  0.12500000  0.37500000  0.25000000  1
  Cd  Cd2  1  0.62500000  0.87500000  0.25000000  1
  Cd  Cd3  1  0.62500000  0.75000000  0.87500000  1
  Cd  Cd4  1  0.87500000  0.25000000  0.62500000  1
  Cd  Cd5  1  0.37500000  0.12500000  0.75000000  1
  Cd  Cd6  1  0.37500000  0.25000000  0.12500000  1
  Cd  Cd7  1  0.12500000  0.75000000  0.37500000  1
  Cd  Cd8  1  0.75000000  0.87500000  0.62500000  1
  Cd  Cd9  1  0.25000000  0.12500000  0.37500000  1
  Cd  Cd10  1  0.25000000  0.62500000  0.87500000  1
  Cd  Cd11  1  0.75000000  0.37500000  0.12500000  1
  Ge  Ge0  1  0.62500000  0.37500000  0.75000000  1
  Ge  Ge1  1  0.37500000  0.62500000  0.25000000  1
  Ge  Ge2  1  0.87500000  0.12500000  0.25000000  1
  Ge  Ge3  1  0.37500000  0.75000000  0.62500000  1
  Ge  Ge4  1  0.62500000  0.25000000  0.37500000  1
  Ge  Ge5  1  0.12500000  0.87500000  0.75000000  1
  Ge  Ge6  1  0.12500000  0.25000000  0.87500000  1
  Ge  Ge7  1  0.87500000  0.75000000  0.12500000  1
  Ge  Ge8  1  0.75000000  0.62500000  0.37500000  1
  Ge  Ge9  1  0.25000000  0.37500000  0.62500000  1
  Ge  Ge10  1  0.25000000  0.87500000  0.12500000  1
  Ge  Ge11  1  0.75000000  0.12500000  0.87500000  1
  O  O0  1  0.70207225  0.62124276  0.51694510  1
  O  O1  1  0.29792775  0.37875724  0.48305490  1
  O  O2  1  0.79792775  0.81487285  0.41917051  1
  O  O3  1  0.39570234  0.87875724  0.08082949  1
  O  O4  1  0.62124276  0.51694510  0.70207225  1
  O  O5  1  0.70207225  0.08082949  0.68512715  1
  O  O6  1  0.20207225  0.18512715  0.58082949  1
  O  O7  1  0.60429766  0.12124276  0.91917051  1
  O  O8  1  0.37875724  0.48305490  0.29792775  1
  O  O9  1  0.29792775  0.91917051  0.31487285  1
  O  O10  1  0.10429766  0.68512715  0.98305490  1
  O  O11  1  0.81487285  0.41917051  0.79792775  1
  O  O12  1  0.79792775  0.98305490  0.87875724  1
  O  O13  1  0.89570234  0.31487285  0.01694510  1
  O  O14  1  0.18512715  0.58082949  0.20207225  1
  O  O15  1  0.20207225  0.01694510  0.12124276  1
  O  O16  1  0.87875724  0.08082949  0.39570234  1
  O  O17  1  0.39570234  0.51694510  0.81487285  1
  O  O18  1  0.12124276  0.91917051  0.60429766  1
  O  O19  1  0.60429766  0.48305490  0.18512715  1
  O  O20  1  0.68512715  0.98305490  0.10429766  1
  O  O21  1  0.10429766  0.41917051  0.62124276  1
  O  O22  1  0.31487285  0.01694510  0.89570234  1
  O  O23  1  0.89570234  0.58082949  0.37875724  1
  O  O24  1  0.51694510  0.70207225  0.62124276  1
  O  O25  1  0.62124276  0.10429766  0.41917051  1
  O  O26  1  0.48305490  0.29792775  0.37875724  1
  O  O27  1  0.37875724  0.89570234  0.58082949  1
  O  O28  1  0.08082949  0.39570234  0.87875724  1
  O  O29  1  0.87875724  0.79792775  0.98305490  1
  O  O30  1  0.91917051  0.60429766  0.12124276  1
  O  O31  1  0.12124276  0.20207225  0.01694510  1
  O  O32  1  0.98305490  0.10429766  0.68512715  1
  O  O33  1  0.68512715  0.70207225  0.08082949  1
  O  O34  1  0.01694510  0.89570234  0.31487285  1
  O  O35  1  0.31487285  0.29792775  0.91917051  1
  O  O36  1  0.41917051  0.79792775  0.81487285  1
  O  O37  1  0.81487285  0.39570234  0.51694510  1
  O  O38  1  0.58082949  0.20207225  0.18512715  1
  O  O39  1  0.18512715  0.60429766  0.48305490  1
  O  O40  1  0.08082949  0.68512715  0.70207225  1
  O  O41  1  0.91917051  0.31487285  0.29792775  1
  O  O42  1  0.98305490  0.87875724  0.79792775  1
  O  O43  1  0.01694510  0.12124276  0.20207225  1
  O  O44  1  0.41917051  0.62124276  0.10429766  1
  O  O45  1  0.58082949  0.37875724  0.89570234  1
  O  O46  1  0.51694510  0.81487285  0.39570234  1
  O  O47  1  0.48305490  0.18512715  0.60429766  1
loop_
_geom_bond_atom_site_label_1
_geom_bond_atom_site_label_2
_geom_bond_distance
_geom_bond_site_symmetry_2
Mn0 O29 2.054369 1_444
Mn0 O12 2.054369 1_444
Mn0 O42 2.054369 1_444
Mn0 O43 2.054369 1_555
Mn0 O31 2.054369 1_555
Mn0 O15 2.054369 1_555
Mn1 O46 2.054369 1_545
Mn1 O25 2.054369 1_555
Mn1 O27 2.054369 1_545
Mn1 O9 2.054369 1_545
Mn1 O5 2.054369 1_555
Mn1 O47 2.054369 1_555
Mn2 O17 2.054369 1_554
Mn2 O35 2.054369 1_554
Mn2 O44 2.054369 1_555
Mn2 O45 2.054369 1_554
Mn2 O33 2.054369 1_555
Mn2 O19 2.054369 1_555
Mn3 O34 2.054369 1_545
Mn3 O2 2.054369 1_445
Mn3 O18 2.054369 1_545
Mn3 O16 2.054369 1_455
Mn3 O32 2.054369 1_455
Mn3 O6 2.054369 1_555
Mn4 O37 2.054369 1_455
Mn4 O21 2.054369 1_555
Mn4 O41 2.054369 1_455
Mn4 O40 2.054369 1_555
Mn4 O23 2.054369 1_455
Mn4 O39 2.054369 1_555
Mn5 O1 2.054369 1_555
Mn5 O8 2.054369 1_555
Mn5 O26 2.054369 1_555
Mn5 O0 2.054369 1_555
Mn5 O24 2.054369 1_555
Mn5 O4 2.054369 1_555
Mn6 O22 2.054369 1_554
Mn6 O7 2.054369 1_554
Mn6 O38 2.054369 1_555
Mn6 O36 2.054369 1_544
Mn6 O3 2.054369 1_545
Mn6 O20 2.054369 1_545
Mn7 O13 2.054369 1_455
Mn7 O30 2.054369 1_455
Mn7 O11 2.054369 1_454
Mn7 O14 2.054369 1_555
Mn7 O28 2.054369 1_554
Mn7 O10 2.054369 1_554
Cd0 O40 2.390626 1_655
Cd0 O42 2.390626 1_555
Cd0 O11 2.390626 1_555
Cd0 O4 2.390626 1_555
Cd0 O29 2.576125 1_555
Cd0 O10 2.576125 1_655
Cd0 O37 2.576125 1_555
Cd0 O0 2.576125 1_555
Cd1 O41 2.390626 1_455
Cd1 O14 2.390626 1_555
Cd1 O8 2.390626 1_555
Cd1 O43 2.390626 1_555
Cd1 O1 2.576125 1_555
Cd1 O39 2.576125 1_555
Cd1 O13 2.576125 1_455
Cd1 O31 2.576125 1_555
Cd2 O20 2.390626 1_555
Cd2 O16 2.390626 1_565
Cd2 O44 2.390626 1_555
Cd2 O46 2.390626 1_555
Cd2 O33 2.576125 1_555
Cd2 O2 2.576125 1_555
Cd2 O3 2.576125 1_555
Cd2 O25 2.576125 1_565
Cd3 O33 2.390626 1_556
Cd3 O29 2.390626 1_555
Cd3 O36 2.390626 1_555
Cd3 O24 2.390626 1_555
Cd3 O12 2.576125 1_555
Cd3 O20 2.576125 1_556
Cd3 O17 2.576125 1_555
Cd3 O4 2.576125 1_555
Cd4 O32 2.390626 1_555
Cd4 O28 2.390626 1_655
Cd4 O25 2.390626 1_555
Cd4 O37 2.390626 1_555
Cd4 O5 2.576125 1_555
Cd4 O11 2.576125 1_555
Cd4 O16 2.576125 1_555
Cd4 O21 2.576125 1_655
Cd5 O47 2.390626 1_555
Cd5 O18 2.390626 1_545
Cd5 O45 2.390626 1_555
Cd5 O22 2.390626 1_555
Cd5 O6 2.576125 1_555
Cd5 O27 2.576125 1_545
Cd5 O7 2.576125 1_555
Cd5 O35 2.576125 1_555
Cd6 O35 2.390626 1_554
Cd6 O26 2.390626 1_555
Cd6 O31 2.390626 1_555
Cd6 O38 2.390626 1_555
Cd6 O8 2.576125 1_555
Cd6 O19 2.576125 1_555
Cd6 O22 2.576125 1_554
Cd6 O15 2.576125 1_555
Cd7 O39 2.390626 1_555
Cd7 O30 2.390626 1_455
Cd7 O27 2.390626 1_555
Cd7 O34 2.390626 1_555
Cd7 O14 2.576125 1_555
Cd7 O18 2.576125 1_555
Cd7 O23 2.576125 1_455
Cd7 O9 2.576125 1_555
Cd8 O5 2.390626 1_565
Cd8 O12 2.390626 1_555
Cd8 O0 2.390626 1_555
Cd8 O2 2.390626 1_555
Cd8 O32 2.576125 1_565
Cd8 O42 2.576125 1_555
Cd8 O46 2.576125 1_555
Cd8 O24 2.576125 1_555
Cd9 O1 2.390626 1_555
Cd9 O9 2.390626 1_545
Cd9 O6 2.390626 1_555
Cd9 O15 2.390626 1_555
Cd9 O26 2.576125 1_555
Cd9 O47 2.576125 1_555
Cd9 O34 2.576125 1_545
Cd9 O43 2.576125 1_555
Cd10 O10 2.390626 1_555
Cd10 O21 2.390626 1_555
Cd10 O3 2.390626 1_556
Cd10 O17 2.390626 1_555
Cd10 O40 2.576125 1_555
Cd10 O28 2.576125 1_555
Cd10 O44 2.576125 1_556
Cd10 O36 2.576125 1_555
Cd11 O19 2.390626 1_555
Cd11 O7 2.390626 1_554
Cd11 O23 2.390626 1_555
Cd11 O13 2.390626 1_555
Cd11 O45 2.576125 1_554
Cd11 O30 2.576125 1_555
Cd11 O38 2.576125 1_555
Cd11 O41 2.576125 1_555
Ge0 O4 1.790834 1_555
Ge0 O11 1.790834 1_555
Ge0 O45 1.790834 1_555
Ge0 O47 1.790834 1_555
Ge1 O46 1.790834 1_555
Ge1 O44 1.790834 1_555
Ge1 O14 1.790834 1_555
Ge1 O8 1.790834 1_555
Ge2 O43 1.790834 1_655
Ge2 O41 1.790834 1_555
Ge2 O20 1.790834 1_545
Ge2 O16 1.790834 1_555
Ge3 O24 1.790834 1_555
Ge3 O36 1.790834 1_555
Ge3 O27 1.790834 1_555
Ge3 O39 1.790834 1_555
Ge4 O37 1.790834 1_555
Ge4 O25 1.790834 1_555
Ge4 O38 1.790834 1_555
Ge4 O26 1.790834 1_555
Ge5 O22 1.790834 1_565
Ge5 O40 1.790834 1_555
Ge5 O42 1.790834 1_455
Ge5 O18 1.790834 1_555
Ge6 O31 1.790834 1_556
Ge6 O28 1.790834 1_555
Ge6 O32 1.790834 1_455
Ge6 O35 1.790834 1_555
Ge7 O34 1.790834 1_655
Ge7 O33 1.790834 1_555
Ge7 O29 1.790834 1_554
Ge7 O30 1.790834 1_555
Ge8 O0 1.790834 1_555
Ge8 O2 1.790834 1_555
Ge8 O23 1.790834 1_555
Ge8 O19 1.790834 1_555
Ge9 O17 1.790834 1_555
Ge9 O21 1.790834 1_555
Ge9 O6 1.790834 1_555
Ge9 O1 1.790834 1_555
Ge10 O15 1.790834 1_565
Ge10 O9 1.790834 1_555
Ge10 O3 1.790834 1_555
Ge10 O10 1.790834 1_554
Ge11 O13 1.790834 1_556
Ge11 O5 1.790834 1_555
Ge11 O7 1.790834 1_555
Ge11 O12 1.790834 1_545
