# generated using pymatgen
data_LiNbO2F
_symmetry_space_group_name_H-M   'P 1'
_cell_length_a   5.33463373
_cell_length_b   5.33463373
_cell_length_c   5.60257537
_cell_angle_alpha   62.98711641
_cell_angle_beta   62.98711641
_cell_angle_gamma   58.93112070
_symmetry_Int_Tables_number   1
_chemical_formula_structural   LiNbO2F
_chemical_formula_sum   'Li2 Nb2 O4 F2'
_cell_volume   116.51266178
_cell_formula_units_Z   2
loop_
 _symmetry_equiv_pos_site_id
 _symmetry_equiv_pos_as_xyz
  1  'x, y, z'
loop_
 _atom_site_type_symbol
 _atom_site_label
 _atom_site_symmetry_multiplicity
 _atom_site_fract_x
 _atom_site_fract_y
 _atom_site_fract_z
 _atom_site_occupancy
  Li  Li0  1  0.73983300  0.33149900  0.66178100  1
  Li  Li1  1  0.33149900  0.73983300  0.16178100  1
  Nb  Nb0  1  0.49114100  0.99856600  0.51974000  1
  Nb  Nb1  1  0.99856600  0.49114100  0.01974000  1
  O  O0  1  0.62244300  0.70289300  0.31742000  1
  O  O1  1  0.23273900  0.35619100  0.28518100  1
  O  O2  1  0.35619100  0.23273900  0.78518100  1
  O  O3  1  0.70289300  0.62244300  0.81742000  1
  F  F0  1  0.91010900  0.07058500  0.28187800  1
  F  F1  1  0.07058500  0.91010900  0.78187800  1
loop_
_geom_bond_atom_site_label_1
_geom_bond_atom_site_label_2
_geom_bond_distance
_geom_bond_site_symmetry_2
Li0 O3 1.991418 1_555
Li0 O0 2.093901 1_555
Li0 O2 2.107322 1_555
Li0 O1 2.539411 1_655
Li1 O0 1.991418 1_555
Li1 O3 2.093901 1_554
Li1 O1 2.107322 1_555
Li1 O2 2.539411 1_564
Nb0 O1 1.980053 1_565
Nb0 O0 2.006469 1_555
Nb0 O2 2.019230 1_565
Nb0 O3 2.101345 1_555
Nb1 O2 1.980053 1_654
Nb1 O3 2.006469 1_554
Nb1 O1 2.019230 1_655
Nb1 O0 2.101345 1_555
F0 Li1 2.056677 1_645
F0 Nb0 2.152795 1_545
F0 Nb1 2.209765 1_555
F1 Li0 2.056677 1_465
F1 Nb1 2.152795 1_456
F1 Nb0 2.209765 1_555
