# generated using pymatgen
data_NaMn(GeO3)2
_symmetry_space_group_name_H-M   'P 1'
_cell_length_a   5.68838311
_cell_length_b   6.69050022
_cell_length_c   6.69050437
_cell_angle_alpha   83.00778800
_cell_angle_beta   78.59493967
_cell_angle_gamma   78.59493244
_symmetry_Int_Tables_number   1
_chemical_formula_structural   NaMn(GeO3)2
_chemical_formula_sum   'Na2 Mn2 Ge4 O12'
_cell_volume   243.76507939
_cell_formula_units_Z   2
loop_
 _symmetry_equiv_pos_site_id
 _symmetry_equiv_pos_as_xyz
  1  'x, y, z'
loop_
 _atom_site_type_symbol
 _atom_site_label
 _atom_site_symmetry_multiplicity
 _atom_site_fract_x
 _atom_site_fract_y
 _atom_site_fract_z
 _atom_site_occupancy
  Na  Na0  1  0.75000000  0.80070200  0.19929800  1
  Na  Na1  1  0.25000000  0.19929800  0.80070200  1
  Mn  Mn0  1  0.75000100  0.40951900  0.59048200  1
  Mn  Mn1  1  0.25000100  0.59048400  0.40951600  1
  Ge  Ge0  1  0.74065400  0.30126300  0.11726200  1
  Ge  Ge1  1  0.75934600  0.88273800  0.69873700  1
  Ge  Ge2  1  0.25934600  0.69873600  0.88273700  1
  Ge  Ge3  1  0.24065400  0.11726200  0.30126300  1
  O  O0  1  0.65138500  0.47119100  0.31198200  1
  O  O1  1  0.84861500  0.68801900  0.52880900  1
  O  O2  1  0.34861500  0.52880900  0.68801800  1
  O  O3  1  0.15138600  0.31198200  0.47119100  1
  O  O4  1  0.51730500  0.14592200  0.12530300  1
  O  O5  1  0.98269500  0.87469700  0.85407800  1
  O  O6  1  0.48269500  0.85407800  0.87469700  1
  O  O7  1  0.01730500  0.12530300  0.14592200  1
  O  O8  1  0.68990200  0.13334200  0.58879800  1
  O  O9  1  0.81009800  0.41120300  0.86665800  1
  O  O10  1  0.31009800  0.86665800  0.41120300  1
  O  O11  1  0.18990100  0.58879700  0.13334200  1
loop_
_geom_bond_atom_site_label_1
_geom_bond_atom_site_label_2
_geom_bond_distance
_geom_bond_site_symmetry_2
Na0 O0 2.379174 1_555
Na0 O1 2.379174 1_555
Na0 O4 2.470529 1_565
Na0 O5 2.470530 1_554
Na0 O11 2.603637 1_655
Na0 O10 2.603642 1_555
Na0 O7 2.838737 1_665
Na0 O6 2.838738 1_554
Na1 O3 2.379173 1_555
Na1 O2 2.379174 1_555
Na1 O6 2.470529 1_545
Na1 O7 2.470530 1_556
Na1 O8 2.603640 1_555
Na1 O9 2.603642 1_455
Na1 O5 2.838737 1_445
Na1 O4 2.838738 1_556
Mn0 O9 1.946177 1_555
Mn0 O8 1.946186 1_555
Mn0 O1 2.022740 1_555
Mn0 O0 2.022745 1_555
Mn0 O3 2.256731 1_655
Mn0 O2 2.256734 1_555
Mn1 O10 1.946166 1_555
Mn1 O11 1.946173 1_555
Mn1 O2 2.022754 1_555
Mn1 O3 2.022755 1_555
Mn1 O0 2.256726 1_555
Mn1 O1 2.256737 1_455
Ge0 O9 1.749572 1_554
Ge0 O0 1.765866 1_555
Ge0 O4 1.782915 1_555
Ge0 O7 1.797473 1_655
Ge1 O8 1.749569 1_565
Ge1 O1 1.765861 1_555
Ge1 O5 1.782915 1_555
Ge1 O6 1.797474 1_555
Ge2 O11 1.749576 1_556
Ge2 O2 1.765857 1_555
Ge2 O6 1.782921 1_555
Ge2 O5 1.797475 1_455
Ge3 O10 1.749572 1_545
Ge3 O3 1.765866 1_555
Ge3 O7 1.782915 1_555
Ge3 O4 1.797474 1_555
