# generated using pymatgen
data_UNiSb2
_symmetry_space_group_name_H-M   'P 1'
_cell_length_a   4.38723870
_cell_length_b   4.38723870
_cell_length_c   9.29417377
_cell_angle_alpha   90.00000000
_cell_angle_beta   90.00000000
_cell_angle_gamma   90.00000000
_symmetry_Int_Tables_number   1
_chemical_formula_structural   UNiSb2
_chemical_formula_sum   'U2 Ni2 Sb4'
_cell_volume   178.89298724
_cell_formula_units_Z   2
loop_
 _symmetry_equiv_pos_site_id
 _symmetry_equiv_pos_as_xyz
  1  'x, y, z'
loop_
 _atom_site_type_symbol
 _atom_site_label
 _atom_site_symmetry_multiplicity
 _atom_site_fract_x
 _atom_site_fract_y
 _atom_site_fract_z
 _atom_site_occupancy
  U  U0  1  -0.00000000  0.50000000  0.73276785  1
  U  U1  1  0.50000000  -0.00000000  0.26723215  1
  Ni  Ni0  1  0.50000000  0.50000000  0.50000000  1
  Ni  Ni1  1  0.00000000  -0.00000000  0.50000000  1
  Sb  Sb0  1  0.50000000  0.50000000  -0.00000000  1
  Sb  Sb1  1  -0.00000000  -0.00000000  -0.00000000  1
  Sb  Sb2  1  -0.00000000  0.50000000  0.35621820  1
  Sb  Sb3  1  0.50000000  -0.00000000  0.64378180  1
loop_
_geom_bond_atom_site_label_1
_geom_bond_atom_site_label_2
_geom_bond_distance
_geom_bond_site_symmetry_2
Ni0 Sb3 2.568609 1_565
Ni0 Sb3 2.568609 1_555
Ni0 Sb2 2.568609 1_555
Ni0 Sb2 2.568609 1_655
Ni0 U0 3.080941 1_555
Ni0 U1 3.080941 1_555
Ni0 U0 3.080941 1_655
Ni0 U1 3.080941 1_565
Ni1 Sb3 2.568609 1_455
Ni1 Sb3 2.568609 1_555
Ni1 Sb2 2.568609 1_555
Ni1 Sb2 2.568609 1_545
Ni1 U0 3.080941 1_545
Ni1 U0 3.080941 1_555
Ni1 U1 3.080941 1_555
Ni1 U1 3.080941 1_455
Sb0 Sb1 3.102246 1_665
Sb0 Sb1 3.102246 1_565
Sb0 Sb1 3.102246 1_655
Sb0 Sb1 3.102246 1_555
Sb0 U1 3.313720 1_565
Sb0 U1 3.313720 1_555
Sb0 U0 3.313720 1_654
Sb0 U0 3.313720 1_554
Sb1 U1 3.313720 1_555
Sb1 U1 3.313720 1_455
Sb1 U0 3.313720 1_544
Sb1 U0 3.313720 1_554
Sb2 U1 3.210599 1_565
Sb2 U1 3.210599 1_465
Sb2 U1 3.210599 1_555
Sb2 U1 3.210599 1_455
Sb3 U0 3.210599 1_545
Sb3 U0 3.210599 1_555
Sb3 U0 3.210599 1_655
Sb3 U0 3.210599 1_645
