# generated using pymatgen
data_HfMg14CdO16
_symmetry_space_group_name_H-M   'P 1'
_cell_length_a   8.75304852
_cell_length_b   8.83589865
_cell_length_c   4.35339853
_cell_angle_alpha   90.00000000
_cell_angle_beta   90.00000000
_cell_angle_gamma   90.00000000
_symmetry_Int_Tables_number   1
_chemical_formula_structural   HfMg14CdO16
_chemical_formula_sum   'Hf1 Mg14 Cd1 O16'
_cell_volume   336.69641164
_cell_formula_units_Z   1
loop_
 _symmetry_equiv_pos_site_id
 _symmetry_equiv_pos_as_xyz
  1  'x, y, z'
loop_
 _atom_site_type_symbol
 _atom_site_label
 _atom_site_symmetry_multiplicity
 _atom_site_fract_x
 _atom_site_fract_y
 _atom_site_fract_z
 _atom_site_occupancy
  Hf  Hf0  1  0.00000000  0.50000000  0.00000000  1
  Mg  Mg0  1  0.50000000  0.00000000  0.00000000  1
  Mg  Mg1  1  0.50000000  0.50000000  0.00000000  1
  Mg  Mg2  1  0.00000000  0.24010371  0.50000000  1
  Mg  Mg3  1  0.00000000  0.75989629  0.50000000  1
  Mg  Mg4  1  0.50000000  0.24852300  0.50000000  1
  Mg  Mg5  1  0.50000000  0.75147700  0.50000000  1
  Mg  Mg6  1  0.25609792  0.00000000  0.50000000  1
  Mg  Mg7  1  0.25926314  0.50000000  0.50000000  1
  Mg  Mg8  1  0.74390208  0.00000000  0.50000000  1
  Mg  Mg9  1  0.74073686  0.50000000  0.50000000  1
  Mg  Mg10  1  0.25938306  0.24361343  -0.00000000  1
  Mg  Mg11  1  0.25938306  0.75638657  -0.00000000  1
  Mg  Mg12  1  0.74061694  0.24361343  0.00000000  1
  Mg  Mg13  1  0.74061694  0.75638657  0.00000000  1
  Cd  Cd0  1  0.00000000  0.00000000  0.00000000  1
  O  O0  1  0.27414732  0.00000000  -0.00000000  1
  O  O1  1  0.25323525  0.50000000  0.00000000  1
  O  O2  1  0.72585268  0.00000000  0.00000000  1
  O  O3  1  0.74676475  0.50000000  -0.00000000  1
  O  O4  1  0.25064899  0.25271469  0.50000000  1
  O  O5  1  0.25064899  0.74728531  0.50000000  1
  O  O6  1  0.74935101  0.25271469  0.50000000  1
  O  O7  1  0.74935101  0.74728531  0.50000000  1
  O  O8  1  0.00000000  0.00000000  0.50000000  1
  O  O9  1  0.00000000  0.50000000  0.50000000  1
  O  O10  1  0.50000000  0.00000000  0.50000000  1
  O  O11  1  0.50000000  0.50000000  0.50000000  1
  O  O12  1  0.00000000  0.27018516  0.00000000  1
  O  O13  1  0.00000000  0.72981484  0.00000000  1
  O  O14  1  0.50000000  0.25691328  0.00000000  1
  O  O15  1  0.50000000  0.74308672  0.00000000  1
loop_
_geom_bond_atom_site_label_1
_geom_bond_atom_site_label_2
_geom_bond_distance
_geom_bond_site_symmetry_2
Hf0 O13 2.030621 1_555
Hf0 O12 2.030621 1_555
Hf0 O9 2.176699 1_554
Hf0 O9 2.176699 1_555
Hf0 O3 2.216580 1_455
Hf0 O1 2.216580 1_555
Mg0 O0 1.976899 1_555
Mg0 O2 1.976899 1_555
Mg0 O10 2.176699 1_555
Mg0 O10 2.176699 1_554
Mg0 O15 2.270060 1_545
Mg0 O14 2.270060 1_555
Mg1 O14 2.147890 1_555
Mg1 O15 2.147890 1_555
Mg1 O3 2.159944 1_555
Mg1 O1 2.159944 1_555
Mg1 O11 2.176699 1_554
Mg1 O11 2.176699 1_555
Mg2 O8 2.121532 1_555
Mg2 O12 2.192867 1_556
Mg2 O12 2.192867 1_555
Mg2 O6 2.196771 1_455
Mg2 O4 2.196771 1_555
Mg2 O9 2.296417 1_555
Mg3 O8 2.121532 1_565
Mg3 O13 2.192867 1_555
Mg3 O13 2.192867 1_556
Mg3 O7 2.196771 1_455
Mg3 O5 2.196771 1_555
Mg3 O9 2.296417 1_555
Mg4 O14 2.177961 1_555
Mg4 O14 2.177961 1_556
Mg4 O4 2.182896 1_555
Mg4 O6 2.182896 1_555
Mg4 O10 2.195924 1_555
Mg4 O11 2.222025 1_555
Mg5 O15 2.177961 1_556
Mg5 O15 2.177961 1_555
Mg5 O5 2.182896 1_555
Mg5 O7 2.182896 1_555
Mg5 O10 2.195924 1_565
Mg5 O11 2.222025 1_555
Mg6 O10 2.134887 1_555
Mg6 O0 2.182425 1_555
Mg6 O0 2.182425 1_556
Mg6 O5 2.233471 1_545
Mg6 O4 2.233471 1_555
Mg6 O8 2.241638 1_555
Mg7 O11 2.107181 1_555
Mg7 O1 2.177339 1_555
Mg7 O1 2.177339 1_556
Mg7 O4 2.186289 1_555
Mg7 O5 2.186289 1_555
Mg7 O9 2.269343 1_555
Mg8 O10 2.134887 1_555
Mg8 O2 2.182425 1_555
Mg8 O2 2.182425 1_556
Mg8 O6 2.233471 1_555
Mg8 O7 2.233471 1_545
Mg8 O8 2.241638 1_655
Mg9 O11 2.107181 1_555
Mg9 O3 2.177339 1_556
Mg9 O3 2.177339 1_555
Mg9 O7 2.186289 1_555
Mg9 O6 2.186289 1_555
Mg9 O9 2.269343 1_655
Mg10 O14 2.109408 1_555
Mg10 O0 2.156419 1_555
Mg10 O4 2.179525 1_554
Mg10 O4 2.179525 1_555
Mg10 O1 2.266045 1_555
Mg10 O12 2.282500 1_555
Mg11 O15 2.109408 1_555
Mg11 O0 2.156419 1_565
Mg11 O5 2.179525 1_555
Mg11 O5 2.179525 1_554
Mg11 O1 2.266045 1_555
Mg11 O13 2.282500 1_555
Mg12 O14 2.109408 1_555
Mg12 O2 2.156419 1_555
Mg12 O6 2.179525 1_555
Mg12 O6 2.179525 1_554
Mg12 O3 2.266045 1_555
Mg12 O12 2.282500 1_655
Mg13 O15 2.109408 1_555
Mg13 O2 2.156419 1_565
Mg13 O7 2.179525 1_555
Mg13 O7 2.179525 1_554
Mg13 O3 2.266045 1_555
Mg13 O13 2.282500 1_655
Cd0 O8 2.176699 1_554
Cd0 O8 2.176699 1_555
Cd0 O12 2.387329 1_555
Cd0 O13 2.387329 1_545
Cd0 O2 2.399625 1_455
Cd0 O0 2.399625 1_555
