# generated using pymatgen
data_NdAlRh
_symmetry_space_group_name_H-M   'P 1'
_cell_length_a   4.26335953
_cell_length_b   7.01752503
_cell_length_c   8.12332042
_cell_angle_alpha   90.00000000
_cell_angle_beta   90.00000000
_cell_angle_gamma   90.00000000
_symmetry_Int_Tables_number   1
_chemical_formula_structural   NdAlRh
_chemical_formula_sum   'Nd4 Al4 Rh4'
_cell_volume   243.03538667
_cell_formula_units_Z   4
loop_
 _symmetry_equiv_pos_site_id
 _symmetry_equiv_pos_as_xyz
  1  'x, y, z'
loop_
 _atom_site_type_symbol
 _atom_site_label
 _atom_site_symmetry_multiplicity
 _atom_site_fract_x
 _atom_site_fract_y
 _atom_site_fract_z
 _atom_site_occupancy
  Nd  Nd0  1  0.25000000  0.53746376  0.18109876  1
  Nd  Nd1  1  0.75000000  0.46253624  0.81890124  1
  Nd  Nd2  1  0.75000000  0.96253624  0.68109876  1
  Nd  Nd3  1  0.25000000  0.03746376  0.31890124  1
  Al  Al0  1  0.25000000  0.63265812  0.55937252  1
  Al  Al1  1  0.75000000  0.36734188  0.44062748  1
  Al  Al2  1  0.75000000  0.86734188  0.05937252  1
  Al  Al3  1  0.25000000  0.13265812  0.94062748  1
  Rh  Rh0  1  0.25000000  0.77176167  0.88384408  1
  Rh  Rh1  1  0.75000000  0.22823833  0.11615592  1
  Rh  Rh2  1  0.75000000  0.72823833  0.38384408  1
  Rh  Rh3  1  0.25000000  0.27176167  0.61615592  1
loop_
_geom_bond_atom_site_label_1
_geom_bond_atom_site_label_2
_geom_bond_distance
_geom_bond_site_symmetry_2
Nd0 Rh0 2.921321 1_554
Nd0 Rh2 3.008130 1_555
Nd0 Rh2 3.008130 1_455
Nd0 Rh1 3.087273 1_555
Nd0 Rh1 3.087273 1_455
Nd0 Nd1 3.671150 1_554
Nd0 Nd1 3.671150 1_454
Nd0 Nd3 3.683002 1_555
Nd0 Nd3 3.683002 1_565
Nd1 Rh1 2.921321 1_556
Nd1 Rh3 3.008130 1_655
Nd1 Rh3 3.008130 1_555
Nd1 Rh0 3.087273 1_655
Nd1 Rh0 3.087273 1_555
Nd1 Nd2 3.683002 1_545
Nd1 Nd2 3.683002 1_555
Nd2 Rh2 2.921321 1_555
Nd2 Rh0 3.008130 1_555
Nd2 Rh0 3.008130 1_655
Nd2 Rh3 3.087273 1_565
Nd2 Rh3 3.087273 1_665
Nd2 Nd3 3.671150 1_665
Nd2 Nd3 3.671150 1_565
Nd3 Rh3 2.921321 1_555
Nd3 Rh1 3.008130 1_555
Nd3 Rh1 3.008130 1_455
Nd3 Rh2 3.087273 1_445
Nd3 Rh2 3.087273 1_545
Al0 Rh3 2.574263 1_555
Al0 Rh2 2.650861 1_555
Al0 Rh2 2.650861 1_455
Al0 Rh0 2.810741 1_555
Al0 Nd0 3.144615 1_555
Al0 Nd1 3.227066 1_555
Al0 Nd1 3.227066 1_455
Al0 Nd2 3.298593 1_555
Al0 Nd2 3.298593 1_455
Al0 Nd3 3.447555 1_565
Al1 Rh2 2.574263 1_555
Al1 Rh3 2.650861 1_655
Al1 Rh3 2.650861 1_555
Al1 Rh1 2.810741 1_555
Al1 Nd1 3.144615 1_555
Al1 Nd0 3.227066 1_555
Al1 Nd0 3.227066 1_655
Al1 Nd3 3.298593 1_655
Al1 Nd3 3.298593 1_555
Al1 Nd2 3.447555 1_545
Al2 Rh1 2.574263 1_565
Al2 Rh0 2.650861 1_554
Al2 Rh0 2.650861 1_654
Al2 Rh2 2.810741 1_555
Al2 Nd2 3.144615 1_554
Al2 Nd3 3.227066 1_665
Al2 Nd3 3.227066 1_565
Al2 Nd0 3.298593 1_555
Al2 Nd0 3.298593 1_655
Al2 Nd1 3.447555 1_554
Al3 Rh0 2.574263 1_545
Al3 Rh1 2.650861 1_456
Al3 Rh1 2.650861 1_556
Al3 Rh3 2.810741 1_555
Al3 Nd3 3.144615 1_556
Al3 Nd2 3.227066 1_545
Al3 Nd2 3.227066 1_445
Al3 Nd1 3.298593 1_555
Al3 Nd1 3.298593 1_455
Al3 Nd0 3.447555 1_556
