# generated using pymatgen
data_V2ZnO4
_symmetry_space_group_name_H-M   'P 1'
_cell_length_a   6.12122581
_cell_length_b   6.12122581
_cell_length_c   6.12122581
_cell_angle_alpha   121.18978726
_cell_angle_beta   120.77577075
_cell_angle_gamma   88.30642718
_symmetry_Int_Tables_number   1
_chemical_formula_structural   V2ZnO4
_chemical_formula_sum   'V4 Zn2 O8'
_cell_volume   159.69351038
_cell_formula_units_Z   2
loop_
 _symmetry_equiv_pos_site_id
 _symmetry_equiv_pos_as_xyz
  1  'x, y, z'
loop_
 _atom_site_type_symbol
 _atom_site_label
 _atom_site_symmetry_multiplicity
 _atom_site_fract_x
 _atom_site_fract_y
 _atom_site_fract_z
 _atom_site_occupancy
  V  V0  1  0.61754300  0.86754300  0.75000000  1
  V  V1  1  0.38245700  0.13245700  0.25000000  1
  V  V2  1  0.00000000  0.50000000  0.50000000  1
  V  V3  1  0.50000000  0.50000000  0.00000000  1
  Zn  Zn0  1  0.00000000  0.50000000  0.00000000  1
  Zn  Zn1  1  0.00000000  0.00000000  0.50000000  1
  O  O0  1  0.77201800  0.26329500  0.50872300  1
  O  O1  1  0.25194600  0.73430900  0.98236400  1
  O  O2  1  0.25457100  0.26329500  0.99127700  1
  O  O3  1  0.25194600  0.26958200  0.51763600  1
  O  O4  1  0.74805400  0.73041800  0.48236400  1
  O  O5  1  0.74805400  0.26569100  0.01763600  1
  O  O6  1  0.74542900  0.73670500  0.00872300  1
  O  O7  1  0.22798200  0.73670500  0.49127700  1
loop_
_geom_bond_atom_site_label_1
_geom_bond_atom_site_label_2
_geom_bond_distance
_geom_bond_site_symmetry_2
O0 V1 1.941722 1_555
O0 V2 2.079818 1_655
O0 Zn0 2.098111 1_656
O0 Zn1 2.098111 1_655
O1 V1 1.975382 1_566
O1 V3 2.058682 1_556
O1 V2 2.058687 1_555
O1 Zn0 2.215554 1_556
O2 V1 1.941722 1_556
O2 V3 2.079822 1_556
O2 Zn0 2.098107 1_556
O2 Zn1 2.098111 1_555
O3 V1 1.975377 1_555
O3 V2 2.058686 1_555
O3 V3 2.058686 1_556
O3 Zn1 2.215558 1_555
O4 V0 1.975377 1_555
O4 V3 2.058686 1_555
O4 V2 2.058686 1_655
O4 Zn1 2.215558 1_665
O5 V0 1.975382 1_544
O5 V3 2.058682 1_555
O5 V2 2.058687 1_655
O5 Zn0 2.215554 1_655
O6 V0 1.941722 1_554
O6 V3 2.079822 1_555
O6 Zn0 2.098107 1_655
O6 Zn1 2.098111 1_665
O7 V0 1.941722 1_555
O7 V2 2.079818 1_555
O7 Zn1 2.098111 1_565
O7 Zn0 2.098111 1_555
