# generated using pymatgen
data_Sr2YTlNi2O7
_symmetry_space_group_name_H-M   'P 1'
_cell_length_a   3.85770100
_cell_length_b   3.85766600
_cell_length_c   12.05840700
_cell_angle_alpha   90.00003386
_cell_angle_beta   90.00004396
_cell_angle_gamma   90.00579243
_symmetry_Int_Tables_number   1
_chemical_formula_structural   Sr2YTlNi2O7
_chemical_formula_sum   'Sr2 Y1 Tl1 Ni2 O7'
_cell_volume   179.44986011
_cell_formula_units_Z   1
loop_
 _symmetry_equiv_pos_site_id
 _symmetry_equiv_pos_as_xyz
  1  'x, y, z'
loop_
 _atom_site_type_symbol
 _atom_site_label
 _atom_site_symmetry_multiplicity
 _atom_site_fract_x
 _atom_site_fract_y
 _atom_site_fract_z
 _atom_site_occupancy
  Sr  Sr0  1  0.50000000  0.50000000  0.78912300  1
  Sr  Sr1  1  0.50000000  0.50000100  0.21089200  1
  Y  Y0  1  0.49999900  0.49999800  0.49999700  1
  Tl  Tl0  1  0.00000000  0.00000300  0.00000700  1
  Ni  Ni0  1  0.99999800  0.00000000  0.64942700  1
  Ni  Ni1  1  0.00000100  0.00000000  0.35056600  1
  O  O0  1  0.49999900  0.99999900  0.62016000  1
  O  O1  1  0.99999900  0.49999800  0.62015400  1
  O  O2  1  0.50000000  0.99999900  0.37983000  1
  O  O3  1  0.99999900  0.50000000  0.37983700  1
  O  O4  1  0.00000500  0.99999900  0.81970400  1
  O  O5  1  0.00000000  0.00000400  0.18030000  1
  O  O6  1  0.50000000  0.50000100  0.00000400  1
loop_
_geom_bond_atom_site_label_1
_geom_bond_atom_site_label_2
_geom_bond_distance
_geom_bond_site_symmetry_2
Ni0 O1 1.960859 1_555
Ni0 O0 1.960866 1_545
Ni0 O1 1.960873 1_545
Ni0 O0 1.960874 1_645
Ni0 O4 2.053269 1_645
Ni1 O2 1.960860 1_545
Ni1 O3 1.960862 1_455
Ni1 O3 1.960862 1_445
Ni1 O2 1.960868 1_445
Ni1 O5 2.053137 1_555
O0 Y0 2.412449 1_565
O0 Y0 2.412454 1_555
O0 Sr0 2.805617 1_555
O0 Sr0 2.805620 1_565
O1 Y0 2.412421 1_555
O1 Y0 2.412423 1_655
O1 Sr0 2.805682 1_555
O1 Sr0 2.805685 1_655
O2 Y0 2.412477 1_565
O2 Y0 2.412484 1_555
O2 Sr1 2.805394 1_555
O2 Sr1 2.805406 1_565
O3 Y0 2.412443 1_655
O3 Y0 2.412445 1_555
O3 Sr1 2.805469 1_555
O3 Sr1 2.805477 1_655
O4 Tl0 2.174167 1_566
O4 Sr0 2.752460 1_565
O4 Sr0 2.752481 1_455
O4 Sr0 2.752727 1_555
O4 Sr0 2.752760 1_465
O5 Tl0 2.174046 1_555
O5 Sr1 2.752479 1_555
O5 Sr1 2.752496 1_445
O5 Sr1 2.752753 1_455
O5 Sr1 2.752769 1_545
O6 Sr0 2.542889 1_554
O6 Sr1 2.542973 1_555
O6 Tl0 2.727651 1_555
O6 Tl0 2.727662 1_665
O6 Tl0 2.727927 1_655
O6 Tl0 2.727938 1_565
