# generated using pymatgen
data_Ho(VFe5)2
_symmetry_space_group_name_H-M   'P 1'
_cell_length_a   4.69299000
_cell_length_b   6.43339388
_cell_length_c   6.43339388
_cell_angle_alpha   97.30523929
_cell_angle_beta   111.39138109
_cell_angle_gamma   68.60861891
_symmetry_Int_Tables_number   1
_chemical_formula_structural   Ho(VFe5)2
_chemical_formula_sum   'Ho1 V2 Fe10'
_cell_volume   168.39242813
_cell_formula_units_Z   1
loop_
 _symmetry_equiv_pos_site_id
 _symmetry_equiv_pos_as_xyz
  1  'x, y, z'
loop_
 _atom_site_type_symbol
 _atom_site_label
 _atom_site_symmetry_multiplicity
 _atom_site_fract_x
 _atom_site_fract_y
 _atom_site_fract_z
 _atom_site_occupancy
  Ho  Ho0  1  0.00000000  0.00000000  0.00000000  1
  V  V0  1  0.00000000  0.35856900  0.35856900  1
  V  V1  1  0.00000000  0.64143100  0.64143100  1
  Fe  Fe0  1  0.50000000  0.00000000  0.50000000  1
  Fe  Fe1  1  0.00000000  0.00000000  0.50000000  1
  Fe  Fe2  1  0.50000000  0.50000000  0.00000000  1
  Fe  Fe3  1  0.00000000  0.50000000  0.00000000  1
  Fe  Fe4  1  0.72540200  0.77459800  0.22540200  1
  Fe  Fe5  1  0.27459800  0.22540200  0.77459800  1
  Fe  Fe6  1  0.50000000  0.77311900  0.77311900  1
  Fe  Fe7  1  0.50000000  0.22688100  0.22688100  1
  Fe  Fe8  1  0.64056900  0.35943100  0.64056900  1
  Fe  Fe9  1  0.35943100  0.64056900  0.35943100  1
loop_
_geom_bond_atom_site_label_1
_geom_bond_atom_site_label_2
_geom_bond_distance
_geom_bond_site_symmetry_2
Ho0 V1 3.047869 1_544
Ho0 V0 3.047869 1_555
V0 V1 2.404353 1_555
Fe0 Fe1 2.346495 1_555
Fe0 Fe1 2.346495 1_655
Fe0 Fe6 2.422815 1_545
Fe0 Fe7 2.422815 1_555
Fe0 Fe5 2.436259 1_555
Fe0 Fe4 2.436259 1_545
Fe0 V0 2.585162 1_555
Fe0 V1 2.585162 1_645
Fe0 Fe9 2.597268 1_545
Fe0 Fe8 2.597268 1_555
Fe0 Ho0 3.216697 1_656
Fe0 Ho0 3.216697 1_555
Fe1 Fe6 2.422815 1_545
Fe1 Fe7 2.422815 1_455
Fe1 Fe5 2.436259 1_555
Fe1 Fe4 2.436259 1_445
Fe1 V0 2.585162 1_555
Fe1 V1 2.585162 1_545
Fe1 Fe9 2.597268 1_545
Fe1 Fe8 2.597268 1_455
Fe1 Ho0 3.216697 1_556
Fe1 Ho0 3.216697 1_555
Fe2 Fe3 2.346495 1_655
Fe2 Fe3 2.346495 1_555
Fe2 Fe6 2.422815 1_554
Fe2 Fe7 2.422815 1_555
Fe2 Fe5 2.436259 1_554
Fe2 Fe4 2.436259 1_555
Fe2 V0 2.585162 1_655
Fe2 V1 2.585162 1_554
Fe2 Fe9 2.597268 1_555
Fe2 Fe8 2.597268 1_554
Fe2 Ho0 3.216697 1_655
Fe2 Ho0 3.216697 1_565
Fe3 Fe6 2.422815 1_454
Fe3 Fe7 2.422815 1_555
Fe3 Fe5 2.436259 1_554
Fe3 Fe4 2.436259 1_455
Fe3 V0 2.585162 1_555
Fe3 V1 2.585162 1_554
Fe3 Fe8 2.597268 1_454
Fe3 Fe9 2.597268 1_555
Fe3 Ho0 3.216697 1_565
Fe3 Ho0 3.216697 1_555
Fe4 Fe9 2.605085 1_555
Fe4 Fe9 2.605085 1_655
Fe4 V1 2.611497 1_655
Fe4 V0 2.611497 1_655
Fe4 Fe6 2.709341 1_554
Fe4 Fe7 2.709341 1_565
Fe4 Ho0 3.021162 1_665
Fe4 Ho0 3.021162 1_565
Fe5 Fe8 2.605085 1_555
Fe5 Fe8 2.605085 1_455
Fe5 V0 2.611497 1_555
Fe5 V1 2.611497 1_555
Fe5 Fe6 2.709341 1_545
Fe5 Fe7 2.709341 1_556
Fe5 Ho0 3.021162 1_556
Fe5 Ho0 3.021162 1_656
Fe6 V1 2.599809 1_655
Fe6 V1 2.599809 1_555
Fe6 Fe8 2.607292 1_555
Fe6 Fe9 2.607292 1_555
Fe6 Ho0 3.037299 1_566
Fe6 Ho0 3.037299 1_666
Fe7 V0 2.599809 1_655
Fe7 V0 2.599809 1_555
Fe7 Fe9 2.607292 1_555
Fe7 Fe8 2.607292 1_555
Fe7 Ho0 3.037299 1_655
Fe7 Ho0 3.037299 1_555
Fe8 Fe9 2.373553 1_555
Fe8 V1 2.891315 1_655
Fe8 V1 2.891315 1_555
Fe8 V0 2.891315 1_655
Fe8 V0 2.891315 1_555
Fe8 Ho0 3.034554 1_656
Fe9 V1 2.891315 1_655
Fe9 V0 2.891315 1_555
Fe9 V1 2.891315 1_555
Fe9 V0 2.891315 1_655
Fe9 Ho0 3.034554 1_565
