# generated using pymatgen
data_Ho5(SiSb)2
_symmetry_space_group_name_H-M   'P 1'
_cell_length_a   8.44929985
_cell_length_b   8.44929985
_cell_length_c   7.82341528
_cell_angle_alpha   90.00003994
_cell_angle_beta   89.99985401
_cell_angle_gamma   124.99744485
_symmetry_Int_Tables_number   1
_chemical_formula_structural   Ho5(SiSb)2
_chemical_formula_sum   'Ho10 Si4 Sb4'
_cell_volume   457.52613714
_cell_formula_units_Z   2
loop_
 _symmetry_equiv_pos_site_id
 _symmetry_equiv_pos_as_xyz
  1  'x, y, z'
loop_
 _atom_site_type_symbol
 _atom_site_label
 _atom_site_symmetry_multiplicity
 _atom_site_fract_x
 _atom_site_fract_y
 _atom_site_fract_z
 _atom_site_occupancy
  Ho  Ho0  1  0.03985458  0.29089204  0.33457610  1
  Ho  Ho1  1  0.96014542  0.70910796  0.66542390  1
  Ho  Ho2  1  0.46014642  0.20910796  0.83457410  1
  Ho  Ho3  1  0.79089204  0.53985258  0.16542490  1
  Ho  Ho4  1  0.53985358  0.79089204  0.16542590  1
  Ho  Ho5  1  0.20910796  0.46014742  0.83457510  1
  Ho  Ho6  1  0.70910696  0.96014542  0.66542590  1
  Ho  Ho7  1  0.29089304  0.03985458  0.33457410  1
  Ho  Ho8  1  0.00000000  0.00000000  0.00000000  1
  Ho  Ho9  1  0.50000000  0.50000000  0.50000000  1
  Si  Si0  1  0.36715112  0.36715112  0.13150255  1
  Si  Si1  1  0.63284888  0.63284888  0.86849745  1
  Si  Si2  1  0.13284888  0.13284788  0.63150255  1
  Si  Si3  1  0.86715112  0.86715212  0.36849745  1
  Sb  Sb0  1  0.79476515  0.20523485  0.00000100  1
  Sb  Sb1  1  0.20523485  0.79476515  0.99999900  1
  Sb  Sb2  1  0.70523585  0.29476415  0.50000000  1
  Sb  Sb3  1  0.29476415  0.70523585  0.50000000  1
loop_
_geom_bond_atom_site_label_1
_geom_bond_atom_site_label_2
_geom_bond_distance
_geom_bond_site_symmetry_2
Ho0 Si0 2.922816 1_555
Ho0 Si2 3.000064 1_555
Ho0 Si3 3.004242 1_445
Ho0 Sb2 3.126603 1_455
Ho0 Sb3 3.149743 1_555
Ho0 Sb0 3.153475 1_455
Ho1 Si1 2.922816 1_555
Ho1 Si3 3.000064 1_555
Ho1 Si2 3.004242 1_665
Ho1 Sb3 3.126603 1_655
Ho1 Sb2 3.149743 1_555
Ho1 Sb1 3.153475 1_655
Ho2 Si2 2.922819 1_555
Ho2 Si0 3.000071 1_556
Ho2 Si1 3.004253 1_555
Ho2 Sb0 3.126624 1_556
Ho2 Sb1 3.149738 1_545
Ho2 Sb2 3.153462 1_555
Ho3 Si3 2.922836 1_555
Ho3 Si1 3.000075 1_554
Ho3 Si0 3.004254 1_555
Ho3 Sb0 3.126602 1_555
Ho3 Sb1 3.149740 1_654
Ho3 Sb2 3.153468 1_555
Ho4 Si3 2.922819 1_555
Ho4 Si1 3.000071 1_554
Ho4 Si0 3.004253 1_555
Ho4 Sb1 3.126624 1_554
Ho4 Sb0 3.149738 1_565
Ho4 Sb3 3.153462 1_555
Ho5 Si2 2.922836 1_555
Ho5 Si0 3.000075 1_556
Ho5 Si1 3.004254 1_555
Ho5 Sb1 3.126602 1_555
Ho5 Sb0 3.149740 1_456
Ho5 Sb3 3.153468 1_555
Ho6 Si1 2.922814 1_555
Ho6 Si3 3.000067 1_555
Ho6 Si2 3.004260 1_665
Ho6 Sb2 3.126609 1_565
Ho6 Sb3 3.149745 1_555
Ho6 Sb0 3.153470 1_566
Ho7 Si0 2.922814 1_555
Ho7 Si2 3.000067 1_555
Ho7 Si3 3.004260 1_445
Ho7 Sb3 3.126609 1_545
Ho7 Sb2 3.149745 1_555
Ho7 Sb1 3.153470 1_544
Ho8 Si1 3.044090 1_444
Ho8 Si0 3.044090 1_555
Ho8 Si3 3.063623 1_445
Ho8 Si2 3.063623 1_554
Ho8 Sb0 3.076279 1_455
Ho8 Sb1 3.076279 1_544
Ho9 Si2 3.044089 1_555
Ho9 Si3 3.044089 1_555
Ho9 Si1 3.063629 1_555
Ho9 Si0 3.063629 1_555
Ho9 Sb2 3.076294 1_555
Ho9 Sb3 3.076294 1_555
