# generated using pymatgen
data_UCoAs2
_symmetry_space_group_name_H-M   'P 1'
_cell_length_a   4.01251316
_cell_length_b   4.01251316
_cell_length_c   8.96791359
_cell_angle_alpha   90.00000000
_cell_angle_beta   90.00000000
_cell_angle_gamma   90.00000000
_symmetry_Int_Tables_number   1
_chemical_formula_structural   UCoAs2
_chemical_formula_sum   'U2 Co2 As4'
_cell_volume   144.38575713
_cell_formula_units_Z   2
loop_
 _symmetry_equiv_pos_site_id
 _symmetry_equiv_pos_as_xyz
  1  'x, y, z'
loop_
 _atom_site_type_symbol
 _atom_site_label
 _atom_site_symmetry_multiplicity
 _atom_site_fract_x
 _atom_site_fract_y
 _atom_site_fract_z
 _atom_site_occupancy
  U  U0  1  0.00000000  0.50000000  0.74695313  1
  U  U1  1  0.50000000  -0.00000000  0.25304687  1
  Co  Co0  1  -0.00000000  -0.00000000  0.50000000  1
  Co  Co1  1  0.50000000  0.50000000  0.50000000  1
  As  As0  1  -0.00000000  0.50000000  0.35651952  1
  As  As1  1  0.50000000  -0.00000000  0.64348048  1
  As  As2  1  -0.00000000  0.00000000  -0.00000000  1
  As  As3  1  0.50000000  0.50000000  -0.00000000  1
loop_
_geom_bond_atom_site_label_1
_geom_bond_atom_site_label_2
_geom_bond_distance
_geom_bond_site_symmetry_2
Co0 U0 2.988270 1_555
Co0 U1 2.988270 1_455
Co0 U0 2.988270 1_545
Co0 U1 2.988270 1_555
Co1 U1 2.988270 1_565
Co1 U0 2.988270 1_655
Co1 U0 2.988270 1_555
Co1 U1 2.988270 1_555
As0 Co0 2.383425 1_565
As0 Co1 2.383425 1_555
As0 Co0 2.383425 1_555
As0 Co1 2.383425 1_455
As0 U1 2.985162 1_465
As0 U1 2.985162 1_455
As0 U1 2.985162 1_555
As0 U1 2.985162 1_565
As1 Co0 2.383425 1_555
As1 Co1 2.383425 1_545
As1 Co1 2.383425 1_555
As1 Co0 2.383425 1_655
As1 U0 2.985162 1_545
As1 U0 2.985162 1_655
As1 U0 2.985162 1_555
As1 U0 2.985162 1_645
As2 As3 2.837275 1_445
As2 As3 2.837275 1_455
As2 As3 2.837275 1_545
As2 As3 2.837275 1_555
As2 U0 3.028993 1_544
As2 U1 3.028993 1_455
As2 U1 3.028993 1_555
As2 U0 3.028993 1_554
As3 U1 3.028993 1_555
As3 U0 3.028993 1_654
As3 U0 3.028993 1_554
As3 U1 3.028993 1_565
