# generated using pymatgen
data_Sr2CaIrO6
_symmetry_space_group_name_H-M   'P 1'
_cell_length_a   5.93881700
_cell_length_b   5.80122600
_cell_length_c   10.06673054
_cell_angle_alpha   55.16274094
_cell_angle_beta   90.00000000
_cell_angle_gamma   90.00000000
_symmetry_Int_Tables_number   1
_chemical_formula_structural   Sr2CaIrO6
_chemical_formula_sum   'Sr4 Ca2 Ir2 O12'
_cell_volume   284.66483948
_cell_formula_units_Z   2
loop_
 _symmetry_equiv_pos_site_id
 _symmetry_equiv_pos_as_xyz
  1  'x, y, z'
loop_
 _atom_site_type_symbol
 _atom_site_label
 _atom_site_symmetry_multiplicity
 _atom_site_fract_x
 _atom_site_fract_y
 _atom_site_fract_z
 _atom_site_occupancy
  Sr  Sr0  1  0.04669300  0.23976600  0.74942500  1
  Sr  Sr1  1  0.54669300  0.76023400  0.75057500  1
  Sr  Sr2  1  0.45330700  0.23976600  0.24942500  1
  Sr  Sr3  1  0.95330700  0.76023400  0.25057500  1
  Ca  Ca0  1  0.50000000  0.50000000  0.50000000  1
  Ca  Ca1  1  0.00000000  0.50000000  0.00000000  1
  Ir  Ir0  1  0.00000000  0.00000000  0.50000000  1
  Ir  Ir1  1  0.50000000  0.00000000  0.00000000  1
  O  O0  1  0.02680500  0.31124200  0.27147800  1
  O  O1  1  0.52680500  0.68875800  0.22852200  1
  O  O2  1  0.97319500  0.68875800  0.72852200  1
  O  O3  1  0.47319500  0.31124200  0.77147800  1
  O  O4  1  0.72998800  0.86304100  0.45248600  1
  O  O5  1  0.22998800  0.13695900  0.04751400  1
  O  O6  1  0.27001200  0.13695900  0.54751400  1
  O  O7  1  0.77001200  0.86304100  0.95248600  1
  O  O8  1  0.31124400  0.76937900  0.95944900  1
  O  O9  1  0.81124400  0.23062100  0.54055100  1
  O  O10  1  0.68875600  0.23062100  0.04055100  1
  O  O11  1  0.18875600  0.76937900  0.45944900  1
loop_
_geom_bond_atom_site_label_1
_geom_bond_atom_site_label_2
_geom_bond_distance
_geom_bond_site_symmetry_2
Ca0 O3 2.296545 1_555
Ca0 O1 2.296545 1_555
Ca0 O9 2.301432 1_555
Ca0 O11 2.301432 1_555
Ca0 O4 2.319272 1_555
Ca0 O6 2.319272 1_555
Ca1 O0 2.296545 1_555
Ca1 O2 2.296545 1_454
Ca1 O8 2.301432 1_554
Ca1 O10 2.301432 1_455
Ca1 O7 2.319272 1_454
Ca1 O5 2.319272 1_555
Ir0 O0 1.957566 1_555
Ir0 O2 1.957566 1_445
Ir0 O11 1.958866 1_545
Ir0 O9 1.958866 1_455
Ir0 O6 1.966119 1_555
Ir0 O4 1.966119 1_445
Ir1 O1 1.957566 1_545
Ir1 O3 1.957566 1_554
Ir1 O8 1.958866 1_544
Ir1 O10 1.958866 1_555
Ir1 O7 1.966119 1_544
Ir1 O5 1.966119 1_555
O0 Sr3 2.528456 1_455
O0 Sr2 2.596547 1_555
O1 Sr2 2.528456 1_555
O1 Sr3 2.596547 1_555
O2 Sr0 2.528456 1_655
O2 Sr1 2.596547 1_555
O3 Sr1 2.528456 1_555
O3 Sr0 2.596547 1_555
O4 Sr2 2.559451 1_565
O4 Sr3 2.762431 1_555
O4 Sr1 2.915585 1_555
O5 Sr3 2.559451 1_445
O5 Sr2 2.762431 1_555
O5 Sr0 2.915585 1_554
O6 Sr1 2.559451 1_545
O6 Sr0 2.762431 1_555
O6 Sr2 2.915585 1_555
O7 Sr0 2.559451 1_665
O7 Sr1 2.762431 1_555
O7 Sr3 2.915585 1_556
O8 Sr1 2.550829 1_555
O8 Sr0 2.791670 1_565
O8 Sr2 2.902758 1_556
O9 Sr0 2.550829 1_655
O9 Sr1 2.791670 1_545
O9 Sr3 2.902758 1_555
O10 Sr2 2.550829 1_555
O10 Sr3 2.791670 1_545
O10 Sr1 2.902758 1_554
O11 Sr3 2.550829 1_455
O11 Sr2 2.791670 1_565
O11 Sr0 2.902758 1_555
