# generated using pymatgen
data_Zn6Sb5
_symmetry_space_group_name_H-M   'P 1'
_cell_length_a   8.12955534
_cell_length_b   8.12955534
_cell_length_c   8.12955482
_cell_angle_alpha   97.02863398
_cell_angle_beta   97.02863398
_cell_angle_gamma   97.02863143
_symmetry_Int_Tables_number   1
_chemical_formula_structural   Zn6Sb5
_chemical_formula_sum   'Zn12 Sb10'
_cell_volume   524.06543314
_cell_formula_units_Z   2
loop_
 _symmetry_equiv_pos_site_id
 _symmetry_equiv_pos_as_xyz
  1  'x, y, z'
loop_
 _atom_site_type_symbol
 _atom_site_label
 _atom_site_symmetry_multiplicity
 _atom_site_fract_x
 _atom_site_fract_y
 _atom_site_fract_z
 _atom_site_occupancy
  Zn  Zn0  1  0.93595955  0.01619702  0.34164936  1
  Zn  Zn1  1  0.01619702  0.34164936  0.93595955  1
  Zn  Zn2  1  0.34164936  0.93595955  0.01619702  1
  Zn  Zn3  1  0.43595955  0.84164936  0.51619702  1
  Zn  Zn4  1  0.84164936  0.51619702  0.43595955  1
  Zn  Zn5  1  0.51619702  0.43595955  0.84164936  1
  Zn  Zn6  1  0.06404045  0.98380298  0.65835064  1
  Zn  Zn7  1  0.98380298  0.65835064  0.06404045  1
  Zn  Zn8  1  0.65835064  0.06404045  0.98380298  1
  Zn  Zn9  1  0.56404045  0.15835164  0.48380298  1
  Zn  Zn10  1  0.15835164  0.48380298  0.56404045  1
  Zn  Zn11  1  0.48380298  0.56404045  0.15835164  1
  Sb  Sb0  1  0.60637302  0.89362698  0.25000000  1
  Sb  Sb1  1  0.89362698  0.25000000  0.60637302  1
  Sb  Sb2  1  0.25000000  0.60637302  0.89362698  1
  Sb  Sb3  1  0.10637302  0.75000000  0.39362698  1
  Sb  Sb4  1  0.75000000  0.39362698  0.10637302  1
  Sb  Sb5  1  0.39362698  0.10637302  0.75000000  1
  Sb  Sb6  1  0.36441120  0.36441120  0.36441120  1
  Sb  Sb7  1  0.86441120  0.86441120  0.86441120  1
  Sb  Sb8  1  0.63558880  0.63558880  0.63558880  1
  Sb  Sb9  1  0.13558880  0.13558880  0.13558880  1
loop_
_geom_bond_atom_site_label_1
_geom_bond_atom_site_label_2
_geom_bond_distance
_geom_bond_site_symmetry_2
Zn0 Zn6 2.712798 1_645
Zn1 Zn7 2.712798 1_456
Zn2 Zn8 2.712798 1_564
Zn3 Zn9 2.712805 1_565
Zn10 Zn4 2.712805 1_455
Zn11 Zn5 2.712805 1_554
Sb0 Zn11 2.720938 1_555
Sb0 Zn0 2.720939 1_565
Sb0 Zn3 2.755950 1_555
Sb0 Zn8 2.755950 1_564
Sb0 Zn2 2.775408 1_555
Sb0 Zn9 2.775414 1_565
Sb1 Zn9 2.720938 1_555
Sb1 Zn1 2.720939 1_655
Sb1 Zn4 2.755950 1_555
Sb1 Zn6 2.755950 1_645
Sb1 Zn0 2.775408 1_555
Sb1 Zn10 2.775414 1_655
Sb2 Zn10 2.720938 1_555
Sb2 Zn2 2.720939 1_556
Sb2 Zn7 2.755950 1_456
Sb2 Zn5 2.755950 1_555
Sb2 Zn1 2.775408 1_555
Sb2 Zn11 2.775414 1_556
Sb3 Zn7 2.720939 1_455
Sb3 Zn3 2.720939 1_555
Sb3 Zn0 2.755950 1_465
Sb3 Zn10 2.755951 1_555
Sb3 Zn6 2.775408 1_555
Sb3 Zn4 2.775408 1_455
Sb4 Zn4 2.720939 1_555
Sb4 Zn8 2.720939 1_554
Sb4 Zn1 2.755950 1_654
Sb4 Zn11 2.755951 1_555
Sb4 Zn5 2.775408 1_554
Sb4 Zn7 2.775408 1_555
Sb5 Zn6 2.720939 1_545
Sb5 Zn5 2.720939 1_555
Sb5 Zn2 2.755950 1_546
Sb5 Zn9 2.755951 1_555
Sb5 Zn3 2.775408 1_545
Sb5 Zn8 2.775408 1_555
Sb6 Zn10 2.657031 1_555
Sb6 Zn9 2.657031 1_555
Sb6 Zn11 2.657031 1_555
Sb7 Zn7 2.657038 1_556
Sb7 Zn8 2.657038 1_565
Sb7 Zn6 2.657038 1_655
Sb8 Zn4 2.657038 1_555
Sb8 Zn3 2.657038 1_555
Sb8 Zn5 2.657038 1_555
Sb9 Zn1 2.657038 1_554
Sb9 Zn2 2.657038 1_545
Sb9 Zn0 2.657038 1_455
