# generated using pymatgen
data_CrSn4Au
_symmetry_space_group_name_H-M   'P 1'
_cell_length_a   6.88294700
_cell_length_b   6.88294700
_cell_length_c   5.60168300
_cell_angle_alpha   90.00000000
_cell_angle_beta   90.00000000
_cell_angle_gamma   90.00000000
_symmetry_Int_Tables_number   1
_chemical_formula_structural   CrSn4Au
_chemical_formula_sum   'Cr2 Sn8 Au2'
_cell_volume   265.37950472
_cell_formula_units_Z   2
loop_
 _symmetry_equiv_pos_site_id
 _symmetry_equiv_pos_as_xyz
  1  'x, y, z'
loop_
 _atom_site_type_symbol
 _atom_site_label
 _atom_site_symmetry_multiplicity
 _atom_site_fract_x
 _atom_site_fract_y
 _atom_site_fract_z
 _atom_site_occupancy
  Cr  Cr0  1  0.50000000  0.50000000  0.25000000  1
  Cr  Cr1  1  0.50000000  0.50000000  0.75000000  1
  Sn  Sn0  1  0.36987700  0.17785700  0.00000000  1
  Sn  Sn1  1  0.63012300  0.82214300  0.00000000  1
  Sn  Sn2  1  0.17785700  0.63012300  0.00000000  1
  Sn  Sn3  1  0.36987700  0.82214300  0.50000000  1
  Sn  Sn4  1  0.82214300  0.36987700  0.00000000  1
  Sn  Sn5  1  0.63012300  0.17785700  0.50000000  1
  Sn  Sn6  1  0.17785700  0.36987700  0.50000000  1
  Sn  Sn7  1  0.82214300  0.63012300  0.50000000  1
  Au  Au0  1  0.00000000  0.00000000  0.00000000  1
  Au  Au1  1  0.00000000  0.00000000  0.50000000  1
loop_
_geom_bond_atom_site_label_1
_geom_bond_atom_site_label_2
_geom_bond_distance
_geom_bond_site_symmetry_2
Cr0 Sn7 2.771231 1_555
Cr0 Sn1 2.771231 1_555
Cr0 Sn5 2.771231 1_555
Cr0 Sn2 2.771231 1_555
Cr0 Sn4 2.771231 1_555
Cr0 Sn3 2.771231 1_555
Cr0 Sn6 2.771231 1_555
Cr0 Sn0 2.771231 1_555
Cr0 Cr1 2.800841 1_555
Cr0 Cr1 2.800841 1_554
Cr1 Sn1 2.771231 1_556
Cr1 Sn7 2.771231 1_555
Cr1 Sn5 2.771231 1_555
Cr1 Sn2 2.771231 1_556
Cr1 Sn3 2.771231 1_555
Cr1 Sn4 2.771231 1_556
Cr1 Sn6 2.771231 1_555
Cr1 Sn0 2.771231 1_556
Au0 Au1 2.800841 1_554
Au0 Au1 2.800841 1_555
Au0 Sn0 2.824878 1_555
Au0 Sn4 2.824878 1_455
Au0 Sn1 2.824878 1_445
Au0 Sn2 2.824878 1_545
Au1 Sn6 2.824878 1_555
Au1 Sn3 2.824878 1_545
Au1 Sn5 2.824878 1_455
Au1 Sn7 2.824878 1_445
