# generated using pymatgen
data_EuAs
_symmetry_space_group_name_H-M   'P 1'
_cell_length_a   8.00021352
_cell_length_b   8.00021352
_cell_length_c   6.20900600
_cell_angle_alpha   90.00000000
_cell_angle_beta   90.00000000
_cell_angle_gamma   119.99999599
_symmetry_Int_Tables_number   1
_chemical_formula_structural   EuAs
_chemical_formula_sum   'Eu6 As6'
_cell_volume   344.15642724
_cell_formula_units_Z   6
loop_
 _symmetry_equiv_pos_site_id
 _symmetry_equiv_pos_as_xyz
  1  'x, y, z'
loop_
 _atom_site_type_symbol
 _atom_site_label
 _atom_site_symmetry_multiplicity
 _atom_site_fract_x
 _atom_site_fract_y
 _atom_site_fract_z
 _atom_site_occupancy
  Eu  Eu0  1  0.34176900  0.34176900  0.50000000  1
  Eu  Eu1  1  0.65823100  0.00000000  0.50000000  1
  Eu  Eu2  1  0.00000000  0.65823100  0.50000000  1
  Eu  Eu3  1  0.67464700  0.67464700  0.00000000  1
  Eu  Eu4  1  0.32535300  0.00000000  0.00000000  1
  Eu  Eu5  1  0.00000000  0.32535300  0.00000000  1
  As  As0  1  0.00000000  0.00000000  0.72778900  1
  As  As1  1  0.00000000  0.00000000  0.27221100  1
  As  As2  1  0.66666700  0.33333300  0.76665500  1
  As  As3  1  0.66666700  0.33333300  0.23334500  1
  As  As4  1  0.33333300  0.66666700  0.76665500  1
  As  As5  1  0.33333300  0.66666700  0.23334500  1
loop_
_geom_bond_atom_site_label_1
_geom_bond_atom_site_label_2
_geom_bond_distance
_geom_bond_site_symmetry_2
As0 As1 2.828687 1_555
As0 Eu2 3.078369 1_545
As0 Eu1 3.078369 1_455
As0 Eu0 3.078369 1_555
As0 Eu5 3.103497 1_556
As0 Eu4 3.103497 1_556
As0 Eu3 3.103497 1_446
As1 Eu2 3.078369 1_545
As1 Eu1 3.078369 1_455
As1 Eu0 3.078369 1_555
As1 Eu4 3.103497 1_555
As1 Eu5 3.103497 1_555
As1 Eu3 3.103497 1_445
As2 Eu5 3.063485 1_656
As2 Eu4 3.063489 1_556
As2 Eu3 3.063492 1_556
As2 Eu1 3.110831 1_555
As2 Eu2 3.110835 1_655
As2 Eu0 3.110838 1_555
As3 Eu5 3.063485 1_655
As3 Eu4 3.063489 1_555
As3 Eu3 3.063492 1_555
As3 Eu1 3.110831 1_555
As3 Eu2 3.110835 1_655
As3 Eu0 3.110838 1_555
As4 Eu4 3.063485 1_566
As4 Eu5 3.063489 1_556
As4 Eu3 3.063492 1_556
As4 Eu2 3.110831 1_555
As4 Eu1 3.110835 1_565
As4 Eu0 3.110838 1_555
As5 Eu4 3.063485 1_565
As5 Eu5 3.063489 1_555
As5 Eu3 3.063492 1_555
As5 Eu2 3.110831 1_555
As5 Eu1 3.110835 1_565
As5 Eu0 3.110838 1_555
