# generated using pymatgen
data_Ba3Sm(BO2)9
_symmetry_space_group_name_H-M   'P 1'
_cell_length_a   7.30711952
_cell_length_b   7.30711952
_cell_length_c   17.77470900
_cell_angle_alpha   90.00000000
_cell_angle_beta   90.00000000
_cell_angle_gamma   119.99999570
_symmetry_Int_Tables_number   1
_chemical_formula_structural   Ba3Sm(BO2)9
_chemical_formula_sum   'Ba6 Sm2 B18 O36'
_cell_volume   821.91247551
_cell_formula_units_Z   2
loop_
 _symmetry_equiv_pos_site_id
 _symmetry_equiv_pos_as_xyz
  1  'x, y, z'
loop_
 _atom_site_type_symbol
 _atom_site_label
 _atom_site_symmetry_multiplicity
 _atom_site_fract_x
 _atom_site_fract_y
 _atom_site_fract_z
 _atom_site_occupancy
  Ba  Ba0  1  0.66666700  0.33333300  0.86669100  1
  Ba  Ba1  1  0.33333300  0.66666700  0.13330900  1
  Ba  Ba2  1  0.33333300  0.66666700  0.36669100  1
  Ba  Ba3  1  0.66666700  0.33333300  0.63330900  1
  Ba  Ba4  1  0.00000000  0.00000000  0.75000000  1
  Ba  Ba5  1  0.00000000  0.00000000  0.25000000  1
  Sm  Sm0  1  0.00000000  0.00000000  0.00000000  1
  Sm  Sm1  1  0.00000000  0.00000000  0.50000000  1
  B  B0  1  0.54881200  0.83519500  0.91774500  1
  B  B1  1  0.45118800  0.16480500  0.08225500  1
  B  B2  1  0.28638300  0.45118800  0.91774500  1
  B  B3  1  0.45118800  0.16480500  0.41774500  1
  B  B4  1  0.71361700  0.54881200  0.08225500  1
  B  B5  1  0.54881200  0.83519500  0.58225500  1
  B  B6  1  0.16480500  0.71361700  0.91774500  1
  B  B7  1  0.71361700  0.54881200  0.41774500  1
  B  B8  1  0.83519500  0.28638300  0.08225500  1
  B  B9  1  0.28638300  0.45118800  0.58225500  1
  B  B10  1  0.83519500  0.28638300  0.41774500  1
  B  B11  1  0.16480500  0.71361700  0.58225500  1
  B  B12  1  0.50445200  0.62202000  0.75000000  1
  B  B13  1  0.49554800  0.37798000  0.25000000  1
  B  B14  1  0.11756800  0.49554800  0.75000000  1
  B  B15  1  0.88243200  0.50445200  0.25000000  1
  B  B16  1  0.37798000  0.88243200  0.75000000  1
  B  B17  1  0.62202000  0.11756800  0.25000000  1
  O  O0  1  0.54110500  0.83238400  0.75000000  1
  O  O1  1  0.45889500  0.16761600  0.25000000  1
  O  O2  1  0.29127900  0.45889500  0.75000000  1
  O  O3  1  0.70872100  0.54110500  0.25000000  1
  O  O4  1  0.16761600  0.70872100  0.75000000  1
  O  O5  1  0.83238400  0.29127900  0.25000000  1
  O  O6  1  0.92086500  0.33357700  0.75000000  1
  O  O7  1  0.07913500  0.66642300  0.25000000  1
  O  O8  1  0.41271300  0.07913500  0.75000000  1
  O  O9  1  0.58728700  0.92086500  0.25000000  1
  O  O10  1  0.66642300  0.58728700  0.75000000  1
  O  O11  1  0.33357700  0.41271300  0.25000000  1
  O  O12  1  0.74676400  0.99590300  0.91764500  1
  O  O13  1  0.25323600  0.00409700  0.08235500  1
  O  O14  1  0.24913900  0.25323600  0.91764500  1
  O  O15  1  0.25323600  0.00409700  0.41764500  1
  O  O16  1  0.75086100  0.74676400  0.08235500  1
  O  O17  1  0.74676400  0.99590300  0.58235500  1
  O  O18  1  0.00409700  0.75086100  0.91764500  1
  O  O19  1  0.75086100  0.74676400  0.41764500  1
  O  O20  1  0.99590300  0.24913900  0.08235500  1
  O  O21  1  0.24913900  0.25323600  0.58235500  1
  O  O22  1  0.99590300  0.24913900  0.41764500  1
  O  O23  1  0.00409700  0.75086100  0.58235500  1
  O  O24  1  0.49694300  0.62144000  0.91810900  1
  O  O25  1  0.50305700  0.37856000  0.08189100  1
  O  O26  1  0.12449700  0.50305700  0.91810900  1
  O  O27  1  0.50305700  0.37856000  0.41810900  1
  O  O28  1  0.87550300  0.49694300  0.08189100  1
  O  O29  1  0.49694300  0.62144000  0.58189100  1
  O  O30  1  0.37856000  0.87550300  0.91810900  1
  O  O31  1  0.87550300  0.49694300  0.41810900  1
  O  O32  1  0.62144000  0.12449700  0.08189100  1
  O  O33  1  0.12449700  0.50305700  0.58189100  1
  O  O34  1  0.62144000  0.12449700  0.41810900  1
  O  O35  1  0.37856000  0.87550300  0.58189100  1
loop_
_geom_bond_atom_site_label_1
_geom_bond_atom_site_label_2
_geom_bond_distance
_geom_bond_site_symmetry_2
Ba0 O10 2.783689 1_555
Ba0 O6 2.783689 1_555
Ba0 O8 2.783689 1_555
Ba0 O12 2.947084 1_545
Ba0 O18 2.947089 1_655
Ba0 O14 2.947091 1_555
Ba0 O26 3.068587 1_655
Ba0 O30 3.068588 1_545
Ba0 O24 3.068593 1_555
Ba1 O11 2.783689 1_555
Ba1 O7 2.783689 1_555
Ba1 O9 2.783689 1_555
Ba1 O13 2.947084 1_565
Ba1 O20 2.947089 1_455
Ba1 O16 2.947091 1_555
Ba1 O28 3.068587 1_455
Ba1 O32 3.068588 1_565
Ba1 O25 3.068593 1_555
Ba2 O11 2.783689 1_555
Ba2 O7 2.783689 1_555
Ba2 O9 2.783689 1_555
Ba2 O15 2.947084 1_565
Ba2 O22 2.947089 1_455
Ba2 O19 2.947091 1_555
Ba2 O31 3.068587 1_455
Ba2 O34 3.068588 1_565
Ba2 O27 3.068593 1_555
Ba3 O10 2.783689 1_555
Ba3 O6 2.783689 1_555
Ba3 O8 2.783689 1_555
Ba3 O17 2.947084 1_545
Ba3 O23 2.947089 1_655
Ba3 O21 2.947091 1_555
Ba3 O33 3.068587 1_655
Ba3 O35 3.068588 1_545
Ba3 O29 3.068593 1_555
Ba4 O6 2.772217 1_455
Ba4 O10 2.772222 1_445
Ba4 O8 2.772225 1_555
Ba4 O4 2.938894 1_545
Ba4 O0 2.938894 1_445
Ba4 O2 2.938894 1_555
Ba5 O7 2.772217 1_545
Ba5 O11 2.772222 1_555
Ba5 O9 2.772225 1_445
Ba5 O5 2.938894 1_455
Ba5 O1 2.938894 1_555
Ba5 O3 2.938894 1_445
B0 O12 1.331414 1_555
B0 O24 1.411147 1_555
B0 O30 1.414523 1_555
B1 O13 1.331414 1_555
B1 O25 1.411147 1_555
B1 O32 1.414523 1_555
B2 O14 1.331413 1_555
B2 O26 1.411147 1_555
B2 O24 1.414523 1_555
B3 O15 1.331414 1_555
B3 O27 1.411147 1_555
B3 O34 1.414523 1_555
B4 O16 1.331413 1_555
B4 O28 1.411147 1_555
B4 O25 1.414523 1_555
B5 O17 1.331414 1_555
B5 O29 1.411147 1_555
B5 O35 1.414523 1_555
B6 O18 1.331413 1_555
B6 O30 1.411147 1_555
B6 O26 1.414523 1_555
B7 O19 1.331413 1_555
B7 O31 1.411147 1_555
B7 O27 1.414523 1_555
B8 O20 1.331413 1_555
B8 O32 1.411147 1_555
B8 O28 1.414523 1_555
B9 O21 1.331413 1_555
B9 O33 1.411147 1_555
B9 O29 1.414523 1_555
B10 O22 1.331413 1_555
B10 O34 1.411147 1_555
B10 O31 1.414523 1_555
B11 O23 1.331413 1_555
B11 O35 1.411147 1_555
B11 O33 1.414523 1_555
B12 O10 1.328745 1_555
B12 O2 1.410835 1_555
B12 O0 1.422281 1_555
B13 O11 1.328745 1_555
B13 O3 1.410835 1_555
B13 O1 1.422281 1_555
B14 O6 1.328741 1_455
B14 O4 1.410835 1_555
B14 O2 1.422281 1_555
B15 O7 1.328741 1_655
B15 O5 1.410835 1_555
B15 O3 1.422281 1_555
B16 O8 1.328738 1_565
B16 O0 1.410835 1_555
B16 O4 1.422281 1_555
B17 O9 1.328738 1_545
B17 O1 1.410835 1_555
B17 O5 1.422281 1_555
O12 Sm0 2.347848 1_666
O13 Sm0 2.347848 1_555
O14 Sm0 2.347848 1_556
O15 Sm1 2.347848 1_555
O16 Sm0 2.347848 1_665
O17 Sm1 2.347848 1_665
O18 Sm0 2.347848 1_566
O19 Sm1 2.347848 1_665
O20 Sm0 2.347848 1_655
O21 Sm1 2.347848 1_555
O22 Sm1 2.347848 1_655
O23 Sm1 2.347848 1_565
