# generated using pymatgen
data_BaCrCu3Se4
_symmetry_space_group_name_H-M   'P 1'
_cell_length_a   6.17372500
_cell_length_b   6.17310200
_cell_length_c   6.17281000
_cell_angle_alpha   90.00102099
_cell_angle_beta   89.99853356
_cell_angle_gamma   90.00040837
_symmetry_Int_Tables_number   1
_chemical_formula_structural   BaCrCu3Se4
_chemical_formula_sum   'Ba1 Cr1 Cu3 Se4'
_cell_volume   235.25217262
_cell_formula_units_Z   1
loop_
 _symmetry_equiv_pos_site_id
 _symmetry_equiv_pos_as_xyz
  1  'x, y, z'
loop_
 _atom_site_type_symbol
 _atom_site_label
 _atom_site_symmetry_multiplicity
 _atom_site_fract_x
 _atom_site_fract_y
 _atom_site_fract_z
 _atom_site_occupancy
  Ba  Ba0  1  0.49999800  0.49999000  0.50000200  1
  Cr  Cr0  1  0.99999000  0.00000500  0.99999600  1
  Cu  Cu0  1  0.00000600  0.49999600  0.00000200  1
  Cu  Cu1  1  0.00000500  0.00000300  0.50000000  1
  Cu  Cu2  1  0.49999900  0.00000300  0.00000200  1
  Se  Se0  1  0.21972500  0.21970800  0.21970800  1
  Se  Se1  1  0.78027500  0.78028800  0.21971400  1
  Se  Se2  1  0.21972900  0.78029100  0.78029100  1
  Se  Se3  1  0.78027300  0.21971500  0.78028700  1
loop_
_geom_bond_atom_site_label_1
_geom_bond_atom_site_label_2
_geom_bond_distance
_geom_bond_site_symmetry_2
Ba0 Se2 2.996874 1_555
Ba0 Se3 2.996875 1_555
Ba0 Se0 2.996875 1_555
Ba0 Se1 2.996910 1_555
Cr0 Se1 2.349269 1_546
Cr0 Se3 2.349270 1_555
Cr0 Se2 2.349280 1_645
Cr0 Se0 2.349281 1_656
Cu0 Se0 2.583274 1_555
Cu0 Se3 2.583274 1_454
Cu0 Se1 2.583280 1_455
Cu0 Se2 2.583282 1_554
Cu1 Se0 2.583216 1_555
Cu1 Se3 2.583235 1_455
Cu1 Se1 2.583270 1_445
Cu1 Se2 2.583304 1_545
Cu2 Se0 2.583145 1_555
Cu2 Se2 2.583201 1_544
Cu2 Se3 2.583209 1_554
Cu2 Se1 2.583277 1_545
