# generated using pymatgen
data_Mn6Zn3Si(AsO10)2
_symmetry_space_group_name_H-M   'P 1'
_cell_length_a   8.54622295
_cell_length_b   11.50148862
_cell_length_c   15.68912672
_cell_angle_alpha   90.00000000
_cell_angle_beta   105.80482995
_cell_angle_gamma   90.00000000
_symmetry_Int_Tables_number   1
_chemical_formula_structural   Mn6Zn3Si(AsO10)2
_chemical_formula_sum   'Mn24 Zn12 Si4 As8 O80'
_cell_volume   1483.85052873
_cell_formula_units_Z   4
loop_
 _symmetry_equiv_pos_site_id
 _symmetry_equiv_pos_as_xyz
  1  'x, y, z'
loop_
 _atom_site_type_symbol
 _atom_site_label
 _atom_site_symmetry_multiplicity
 _atom_site_fract_x
 _atom_site_fract_y
 _atom_site_fract_z
 _atom_site_occupancy
  Mn  Mn0  1  0.09812592  0.00000000  0.19625185  1
  Mn  Mn1  1  0.90187408  0.00000000  0.80374815  1
  Mn  Mn2  1  0.40187408  0.50000000  0.80374815  1
  Mn  Mn3  1  0.59812592  0.50000000  0.19625185  1
  Mn  Mn4  1  0.41004048  0.13382633  0.30946981  1
  Mn  Mn5  1  0.58995952  0.86617367  0.69053019  1
  Mn  Mn6  1  0.08995952  0.63382633  0.69053019  1
  Mn  Mn7  1  0.60057067  0.36617367  0.69053019  1
  Mn  Mn8  1  0.91004048  0.36617367  0.30946981  1
  Mn  Mn9  1  0.39942933  0.63382633  0.30946981  1
  Mn  Mn10  1  0.89942933  0.86617367  0.30946981  1
  Mn  Mn11  1  0.10057067  0.13382633  0.69053019  1
  Mn  Mn12  1  0.19841141  0.00000000  0.39682282  1
  Mn  Mn13  1  0.80158859  0.00000000  0.60317718  1
  Mn  Mn14  1  0.30158859  0.50000000  0.60317718  1
  Mn  Mn15  1  0.69841141  0.50000000  0.39682282  1
  Mn  Mn16  1  0.31272966  0.12423348  0.09618729  1
  Mn  Mn17  1  0.68727034  0.87576652  0.90381271  1
  Mn  Mn18  1  0.18727034  0.62423348  0.90381271  1
  Mn  Mn19  1  0.71654237  0.37576652  0.90381271  1
  Mn  Mn20  1  0.81272966  0.37576652  0.09618729  1
  Mn  Mn21  1  0.28345763  0.62423348  0.09618729  1
  Mn  Mn22  1  0.78345763  0.87576652  0.09618729  1
  Mn  Mn23  1  0.21654237  0.12423348  0.90381271  1
  Zn  Zn0  1  0.40267390  0.37901678  0.00000000  1
  Zn  Zn1  1  0.59732610  0.62098322  1.00000000  1
  Zn  Zn2  1  0.09732610  0.87901678  1.00000000  1
  Zn  Zn3  1  0.90267390  0.12098322  0.00000000  1
  Zn  Zn4  1  0.43417653  0.11538316  0.59203411  1
  Zn  Zn5  1  0.56582347  0.88461684  0.40796589  1
  Zn  Zn6  1  0.06582347  0.61538316  0.40796589  1
  Zn  Zn7  1  0.34214243  0.38461684  0.40796589  1
  Zn  Zn8  1  0.93417653  0.38461684  0.59203411  1
  Zn  Zn9  1  0.65785757  0.61538316  0.59203411  1
  Zn  Zn10  1  0.15785757  0.88461684  0.59203411  1
  Zn  Zn11  1  0.84214243  0.11538316  0.40796589  1
  Si  Si0  1  0.63669362  0.25000000  0.50000000  1
  Si  Si1  1  0.36330638  0.75000000  0.50000000  1
  Si  Si2  1  0.86330638  0.75000000  0.50000000  1
  Si  Si3  1  0.13669362  0.25000000  0.50000000  1
  As  As0  1  0.21274227  0.36492603  0.19804719  1
  As  As1  1  0.78725773  0.63507397  0.80195281  1
  As  As2  1  0.28725773  0.86492603  0.80195281  1
  As  As3  1  0.51469508  0.13507397  0.80195281  1
  As  As4  1  0.71274227  0.13507397  0.19804719  1
  As  As5  1  0.48530492  0.86492603  0.19804719  1
  As  As6  1  0.98530492  0.63507397  0.19804719  1
  As  As7  1  0.01469508  0.36492603  0.80195281  1
  O  O0  1  0.74398241  0.12831816  0.50547566  1
  O  O1  1  0.25601759  0.87168184  0.49452434  1
  O  O2  1  0.75601759  0.62831816  0.49452434  1
  O  O3  1  0.73850675  0.37168184  0.49452434  1
  O  O4  1  0.24398241  0.37168184  0.50547566  1
  O  O5  1  0.26149325  0.62831816  0.50547566  1
  O  O6  1  0.76149325  0.87168184  0.50547566  1
  O  O7  1  0.23850675  0.12831816  0.49452434  1
  O  O8  1  0.34739564  0.24724694  0.20468851  1
  O  O9  1  0.65260436  0.75275306  0.79531149  1
  O  O10  1  0.15260436  0.74724694  0.79531149  1
  O  O11  1  0.64270712  0.25275306  0.79531149  1
  O  O12  1  0.84739564  0.25275306  0.20468851  1
  O  O13  1  0.35729288  0.74724694  0.20468851  1
  O  O14  1  0.85729288  0.75275306  0.20468851  1
  O  O15  1  0.14270712  0.24724694  0.79531149  1
  O  O16  1  0.05158560  0.36402189  0.10806828  1
  O  O17  1  0.94841440  0.63597811  0.89193172  1
  O  O18  1  0.44841440  0.86402189  0.89193172  1
  O  O19  1  0.44351733  0.13597811  0.89193172  1
  O  O20  1  0.55158560  0.13597811  0.10806828  1
  O  O21  1  0.55648267  0.86402189  0.10806828  1
  O  O22  1  0.05648267  0.63597811  0.10806828  1
  O  O23  1  0.94351733  0.36402189  0.89193172  1
  O  O24  1  0.17752408  0.10687225  0.29897603  1
  O  O25  1  0.82247592  0.89312775  0.70102397  1
  O  O26  1  0.32247592  0.60687225  0.70102397  1
  O  O27  1  0.37854805  0.39312775  0.70102397  1
  O  O28  1  0.67752408  0.39312775  0.29897603  1
  O  O29  1  0.62145195  0.60687225  0.29897603  1
  O  O30  1  0.12145195  0.89312775  0.29897603  1
  O  O31  1  0.87854805  0.10687225  0.70102397  1
  O  O32  1  0.42241143  0.01467705  0.39571465  1
  O  O33  1  0.57758857  0.98532295  0.60428535  1
  O  O34  1  0.07758857  0.51467705  0.60428535  1
  O  O35  1  0.52669678  0.48532295  0.60428535  1
  O  O36  1  0.92241143  0.48532295  0.39571465  1
  O  O37  1  0.47330322  0.51467705  0.39571465  1
  O  O38  1  0.97330322  0.98532295  0.39571465  1
  O  O39  1  0.02669678  0.01467705  0.60428535  1
  O  O40  1  0.35990986  0.13014799  0.70331992  1
  O  O41  1  0.64009014  0.86985201  0.29668008  1
  O  O42  1  0.14009014  0.63014799  0.29668008  1
  O  O43  1  0.15658993  0.36985201  0.29668008  1
  O  O44  1  0.85990986  0.36985201  0.70331992  1
  O  O45  1  0.84341007  0.63014799  0.70331992  1
  O  O46  1  0.34341007  0.86985201  0.70331992  1
  O  O47  1  0.65658993  0.13014799  0.29668008  1
  O  O48  1  0.09591962  0.11359767  0.10654395  1
  O  O49  1  0.90408038  0.88640233  0.89345605  1
  O  O50  1  0.40408038  0.61359767  0.89345605  1
  O  O51  1  0.48937568  0.38640233  0.89345605  1
  O  O52  1  0.59591962  0.38640233  0.10654395  1
  O  O53  1  0.51062432  0.61359767  0.10654395  1
  O  O54  1  0.01062432  0.88640233  0.10654395  1
  O  O55  1  0.98937568  0.11359767  0.89345605  1
  O  O56  1  0.27392610  0.23670497  1.00000000  1
  O  O57  1  0.72607390  0.76329503  0.00000000  1
  O  O58  1  0.22607390  0.73670497  0.00000000  1
  O  O59  1  0.77392610  0.26329503  1.00000000  1
  O  O60  1  0.25781139  0.01240169  0.00000000  1
  O  O61  1  0.74218861  0.98759831  1.00000000  1
  O  O62  1  0.24218861  0.51240169  1.00000000  1
  O  O63  1  0.75781139  0.48759831  0.00000000  1
  O  O64  1  0.48635746  0.25173006  0.40991923  1
  O  O65  1  0.51364254  0.74826994  0.59008077  1
  O  O66  1  0.01364254  0.75173006  0.59008077  1
  O  O67  1  0.57643823  0.24826994  0.59008077  1
  O  O68  1  0.98635746  0.24826994  0.40991923  1
  O  O69  1  0.42356177  0.75173006  0.40991923  1
  O  O70  1  0.92356177  0.74826994  0.40991923  1
  O  O71  1  0.07643823  0.25173006  0.59008077  1
  O  O72  1  0.63673180  0.01082560  0.80447001  1
  O  O73  1  0.36326820  0.98917440  0.19552999  1
  O  O74  1  0.86326820  0.51082560  0.19552999  1
  O  O75  1  0.33226179  0.48917440  0.19552999  1
  O  O76  1  0.13673180  0.48917440  0.80447001  1
  O  O77  1  0.66773821  0.51082560  0.80447001  1
  O  O78  1  0.16773821  0.98917440  0.80447001  1
  O  O79  1  0.83226179  0.01082560  0.19552999  1
loop_
_geom_bond_atom_site_label_1
_geom_bond_atom_site_label_2
_geom_bond_distance
_geom_bond_site_symmetry_2
Mn0 O54 1.916725 1_545
Mn0 O48 1.916725 1_555
Mn0 O30 1.993254 1_545
Mn0 O24 1.993254 1_555
Mn0 O79 2.272489 1_455
Mn0 O73 2.272489 1_545
Mn1 O55 1.916725 1_555
Mn1 O49 1.916725 1_545
Mn1 O31 1.993254 1_555
Mn1 O25 1.993254 1_545
Mn1 O78 2.272489 1_645
Mn1 O72 2.272489 1_555
Mn2 O51 1.916725 1_555
Mn2 O50 1.916725 1_555
Mn2 O27 1.993254 1_555
Mn2 O26 1.993254 1_555
Mn2 O77 2.272489 1_555
Mn2 O76 2.272489 1_555
Mn3 O53 1.916725 1_555
Mn3 O52 1.916725 1_555
Mn3 O29 1.993254 1_555
Mn3 O28 1.993254 1_555
Mn3 O75 2.272489 1_555
Mn3 O74 2.272489 1_555
Mn4 O32 1.908436 1_555
Mn4 O24 1.973250 1_555
Mn4 O64 2.046477 1_555
Mn4 O8 2.052179 1_555
Mn4 O47 2.170736 1_555
Mn4 O73 2.394589 1_545
Mn5 O33 1.908436 1_555
Mn5 O25 1.973250 1_555
Mn5 O65 2.046477 1_555
Mn5 O9 2.052179 1_555
Mn5 O46 2.170736 1_555
Mn5 O72 2.394589 1_565
Mn6 O34 1.908436 1_555
Mn6 O26 1.973250 1_555
Mn6 O66 2.046477 1_555
Mn6 O10 2.052179 1_555
Mn6 O45 2.170736 1_455
Mn6 O76 2.394589 1_555
Mn7 O35 1.908436 1_555
Mn7 O27 1.973250 1_555
Mn7 O67 2.046477 1_555
Mn7 O11 2.052179 1_555
Mn7 O44 2.170736 1_555
Mn7 O77 2.394589 1_555
Mn8 O36 1.908436 1_555
Mn8 O28 1.973250 1_555
Mn8 O68 2.046477 1_555
Mn8 O12 2.052179 1_555
Mn8 O43 2.170736 1_655
Mn8 O74 2.394589 1_555
Mn9 O37 1.908436 1_555
Mn9 O29 1.973250 1_555
Mn9 O69 2.046477 1_555
Mn9 O13 2.052179 1_555
Mn9 O42 2.170736 1_555
Mn9 O75 2.394589 1_555
Mn10 O38 1.908436 1_555
Mn10 O30 1.973250 1_655
Mn10 O70 2.046477 1_555
Mn10 O14 2.052179 1_555
Mn10 O41 2.170736 1_555
Mn10 O79 2.394589 1_565
Mn11 O39 1.908436 1_555
Mn11 O31 1.973250 1_455
Mn11 O71 2.046477 1_555
Mn11 O15 2.052179 1_555
Mn11 O40 2.170736 1_555
Mn11 O78 2.394589 1_545
Mn12 O38 1.926572 1_445
Mn12 O32 1.926572 1_555
Mn12 O30 1.936525 1_545
Mn12 O24 1.936525 1_555
Mn12 O1 2.087838 1_545
Mn12 O7 2.087838 1_555
Mn13 O39 1.926572 1_655
Mn13 O33 1.926572 1_545
Mn13 O31 1.936525 1_555
Mn13 O25 1.936525 1_545
Mn13 O0 2.087838 1_555
Mn13 O6 2.087838 1_545
Mn14 O35 1.926572 1_555
Mn14 O34 1.926572 1_555
Mn14 O27 1.936525 1_555
Mn14 O26 1.936525 1_555
Mn14 O4 2.087838 1_555
Mn14 O5 2.087838 1_555
Mn15 O37 1.926572 1_555
Mn15 O36 1.926572 1_555
Mn15 O29 1.936525 1_555
Mn15 O28 1.936525 1_555
Mn15 O2 2.087838 1_555
Mn15 O3 2.087838 1_555
Mn16 O48 1.907520 1_555
Mn16 O60 1.940676 1_555
Mn16 O56 1.946306 1_554
Mn16 O20 2.003171 1_555
Mn16 O73 2.159185 1_545
Mn16 O8 2.170855 1_555
Mn17 O49 1.907520 1_555
Mn17 O61 1.940676 1_555
Mn17 O57 1.946306 1_556
Mn17 O18 2.003171 1_555
Mn17 O72 2.159185 1_565
Mn17 O9 2.170855 1_555
Mn18 O50 1.907520 1_555
Mn18 O62 1.940676 1_555
Mn18 O58 1.946306 1_556
Mn18 O17 2.003171 1_455
Mn18 O76 2.159185 1_555
Mn18 O10 2.170855 1_555
Mn19 O51 1.907520 1_555
Mn19 O63 1.940676 1_556
Mn19 O59 1.946306 1_555
Mn19 O23 2.003171 1_555
Mn19 O77 2.159185 1_555
Mn19 O11 2.170855 1_555
Mn20 O52 1.907520 1_555
Mn20 O63 1.940676 1_555
Mn20 O59 1.946306 1_554
Mn20 O16 2.003171 1_655
Mn20 O74 2.159185 1_555
Mn20 O12 2.170855 1_555
Mn21 O53 1.907520 1_555
Mn21 O62 1.940676 1_554
Mn21 O58 1.946306 1_555
Mn21 O22 2.003171 1_555
Mn21 O75 2.159185 1_555
Mn21 O13 2.170855 1_555
Mn22 O54 1.907520 1_655
Mn22 O61 1.940676 1_554
Mn22 O57 1.946306 1_555
Mn22 O21 2.003171 1_555
Mn22 O79 2.159185 1_565
Mn22 O14 2.170855 1_555
Mn23 O55 1.907520 1_455
Mn23 O60 1.940676 1_556
Mn23 O56 1.946306 1_555
Mn23 O19 2.003171 1_555
Mn23 O78 2.159185 1_545
Mn23 O15 2.170855 1_555
As0 O16 1.682492 1_555
As0 O43 1.741456 1_555
As0 O8 1.761179 1_555
As0 O75 1.763245 1_555
As1 O17 1.682492 1_555
As1 O45 1.741456 1_555
As1 O9 1.761179 1_555
As1 O77 1.763245 1_555
As2 O18 1.682492 1_555
As2 O46 1.741456 1_555
As2 O10 1.761179 1_555
As2 O78 1.763245 1_555
As3 O19 1.682492 1_555
As3 O40 1.741455 1_555
As3 O11 1.761179 1_555
As3 O72 1.763245 1_555
As4 O20 1.682492 1_555
As4 O47 1.741456 1_555
As4 O12 1.761179 1_555
As4 O79 1.763245 1_555
As5 O21 1.682492 1_555
As5 O41 1.741455 1_555
As5 O13 1.761179 1_555
As5 O73 1.763245 1_555
As6 O22 1.682492 1_655
As6 O42 1.741455 1_655
As6 O14 1.761179 1_555
As6 O74 1.763245 1_555
As7 O23 1.682492 1_455
As7 O44 1.741455 1_455
As7 O15 1.761179 1_555
As7 O76 1.763245 1_555
O0 Si0 1.662488 1_555
O0 Zn11 1.940461 1_555
O1 Si1 1.662488 1_555
O1 Zn10 1.940461 1_555
O2 Si2 1.662488 1_555
O2 Zn9 1.940461 1_555
O3 Si0 1.662488 1_555
O3 Zn8 1.940461 1_555
O4 Si3 1.662488 1_555
O4 Zn7 1.940461 1_555
O5 Si1 1.662488 1_555
O5 Zn6 1.940461 1_555
O6 Si2 1.662488 1_555
O6 Zn5 1.940461 1_555
O7 Si3 1.662488 1_555
O7 Zn4 1.940461 1_555
O32 Zn5 1.910096 1_545
O33 Zn4 1.910096 1_565
O34 Zn8 1.910096 1_455
O35 Zn9 1.910096 1_555
O36 Zn6 1.910096 1_655
O37 Zn7 1.910096 1_555
O38 Zn11 1.910096 1_565
O39 Zn10 1.910096 1_545
O40 Zn4 2.020832 1_555
O41 Zn5 2.020832 1_555
O42 Zn6 2.020832 1_555
O43 Zn7 2.020832 1_555
O44 Zn8 2.020832 1_555
O45 Zn9 2.020832 1_555
O46 Zn10 2.020832 1_555
O47 Zn11 2.020832 1_555
O48 Zn3 2.006273 1_455
O49 Zn2 2.006273 1_655
O50 Zn1 2.006273 1_555
O51 Zn0 2.006273 1_556
O52 Zn0 2.006273 1_555
O53 Zn1 2.006273 1_554
O54 Zn2 2.006273 1_554
O55 Zn3 2.006273 1_556
O56 Zn0 1.972253 1_556
O57 Zn1 1.972253 1_554
O58 Zn2 1.972253 1_554
O59 Zn3 1.972253 1_556
O60 Zn2 2.057831 1_544
O61 Zn3 2.057831 1_566
O62 Zn0 2.057831 1_556
O63 Zn1 2.057831 1_554
O64 Si0 1.630766 1_555
O64 Zn7 1.958417 1_555
O65 Si1 1.630766 1_555
O65 Zn9 1.958417 1_555
O66 Si2 1.630766 1_455
O66 Zn10 1.958417 1_555
O67 Si0 1.630767 1_555
O67 Zn4 1.958418 1_555
O68 Si3 1.630766 1_655
O68 Zn11 1.958417 1_555
O69 Si1 1.630767 1_555
O69 Zn5 1.958418 1_555
O70 Si2 1.630767 1_555
O70 Zn6 1.958418 1_655
O71 Si3 1.630767 1_555
O71 Zn8 1.958418 1_455
