# generated using pymatgen
data_YbPS4
_symmetry_space_group_name_H-M   'P 1'
_cell_length_a   11.47416194
_cell_length_b   11.47416194
_cell_length_c   12.44922890
_cell_angle_alpha   66.13628046
_cell_angle_beta   66.13628046
_cell_angle_gamma   91.93082125
_symmetry_Int_Tables_number   1
_chemical_formula_structural   YbPS4
_chemical_formula_sum   'Yb8 P8 S32'
_cell_volume   1332.04478272
_cell_formula_units_Z   8
loop_
 _symmetry_equiv_pos_site_id
 _symmetry_equiv_pos_as_xyz
  1  'x, y, z'
loop_
 _atom_site_type_symbol
 _atom_site_label
 _atom_site_symmetry_multiplicity
 _atom_site_fract_x
 _atom_site_fract_y
 _atom_site_fract_z
 _atom_site_occupancy
  Yb  Yb0  1  0.13686600  0.36809000  0.74634400  1
  Yb  Yb1  1  0.86313400  0.63191000  0.25365600  1
  Yb  Yb2  1  0.36809000  0.13686600  0.24634400  1
  Yb  Yb3  1  0.63191000  0.86313400  0.75365600  1
  Yb  Yb4  1  0.90193300  0.09806700  0.25000000  1
  Yb  Yb5  1  0.60199500  0.39800500  0.75000000  1
  Yb  Yb6  1  0.09806700  0.90193300  0.75000000  1
  Yb  Yb7  1  0.39800500  0.60199500  0.25000000  1
  P  P0  1  0.20414300  0.77540200  0.06754800  1
  P  P1  1  0.29302700  0.27186000  0.49725100  1
  P  P2  1  0.22459800  0.79585700  0.43245200  1
  P  P3  1  0.72814000  0.70697300  0.00274900  1
  P  P4  1  0.79585700  0.22459800  0.93245200  1
  P  P5  1  0.70697300  0.72814000  0.50274900  1
  P  P6  1  0.77540200  0.20414300  0.56754800  1
  P  P7  1  0.27186000  0.29302700  0.99725100  1
  S  S0  1  0.38833100  0.86354000  0.97581200  1
  S  S1  1  0.40965700  0.13202300  0.48368100  1
  S  S2  1  0.15156500  0.92905900  0.48542500  1
  S  S3  1  0.86797700  0.59034300  0.01631900  1
  S  S4  1  0.07094100  0.84843500  0.01457500  1
  S  S5  1  0.13646000  0.61166900  0.52418800  1
  S  S6  1  0.37332000  0.42524600  0.50815600  1
  S  S7  1  0.57475400  0.62668000  0.99184400  1
  S  S8  1  0.61166900  0.13646000  0.02418800  1
  S  S9  1  0.59034300  0.86797700  0.51631900  1
  S  S10  1  0.84843500  0.07094100  0.51457500  1
  S  S11  1  0.13202300  0.40965700  0.98368100  1
  S  S12  1  0.92905900  0.15156500  0.98542500  1
  S  S13  1  0.86354000  0.38833100  0.47581200  1
  S  S14  1  0.62668000  0.57475400  0.49184400  1
  S  S15  1  0.42524600  0.37332000  0.00815600  1
  S  S16  1  0.11029400  0.18164000  0.65380300  1
  S  S17  1  0.65947200  0.69245500  0.18842200  1
  S  S18  1  0.13687400  0.61356900  0.23386400  1
  S  S19  1  0.30754500  0.34052800  0.31157800  1
  S  S20  1  0.38643100  0.86312600  0.26613600  1
  S  S21  1  0.81836000  0.88970600  0.84619700  1
  S  S22  1  0.36175900  0.98840300  0.66980200  1
  S  S23  1  0.01159700  0.63824100  0.83019800  1
  S  S24  1  0.88970600  0.81836000  0.34619700  1
  S  S25  1  0.34052800  0.30754500  0.81157800  1
  S  S26  1  0.86312600  0.38643100  0.76613600  1
  S  S27  1  0.69245500  0.65947200  0.68842200  1
  S  S28  1  0.61356900  0.13687400  0.73386400  1
  S  S29  1  0.18164000  0.11029400  0.15380300  1
  S  S30  1  0.63824100  0.01159700  0.33019800  1
  S  S31  1  0.98840300  0.36175900  0.16980200  1
loop_
_geom_bond_atom_site_label_1
_geom_bond_atom_site_label_2
_geom_bond_distance
_geom_bond_site_symmetry_2
P0 S0 1.939600 1_554
P0 S18 1.957115 1_555
P0 S4 1.981863 1_555
P1 S6 2.037153 1_555
P1 S16 2.044780 1_555
P1 S19 2.048782 1_555
P1 S1 2.138914 1_555
P2 S5 1.939600 1_555
P2 S20 1.957115 1_555
P2 S2 1.981863 1_555
P3 S7 2.037153 1_554
P3 S21 2.044780 1_554
P3 S17 2.048782 1_555
P3 S3 2.138914 1_555
P4 S8 1.939600 1_556
P4 S26 1.957115 1_555
P4 S12 1.981863 1_555
P5 S14 2.037153 1_555
P5 S24 2.044780 1_555
P5 S27 2.048782 1_555
P5 S9 2.138914 1_555
P6 S13 1.939600 1_555
P6 S28 1.957115 1_555
P6 S10 1.981863 1_555
P7 S15 2.037153 1_556
P7 S29 2.044780 1_556
P7 S25 2.048782 1_555
P7 S11 2.138914 1_555
S0 Yb3 3.035993 1_555
S1 S22 2.050746 1_545
S1 Yb2 3.157494 1_555
S2 Yb2 2.931216 1_565
S2 Yb6 2.973920 1_555
S3 Yb1 3.157494 1_555
S4 Yb1 2.931216 1_455
S4 Yb6 2.973920 1_554
S5 Yb0 3.035993 1_555
S6 Yb0 2.894990 1_555
S6 Yb7 2.910843 1_555
S7 Yb3 2.894990 1_555
S7 Yb7 2.910843 1_556
S8 Yb2 3.035993 1_555
S9 Yb3 3.157494 1_555
S10 Yb3 2.931216 1_545
S10 Yb4 2.973920 1_555
S11 S31 2.050746 1_456
S11 Yb0 3.157494 1_555
S12 Yb0 2.931216 1_655
S12 Yb4 2.973920 1_556
S13 Yb1 3.035993 1_555
S14 Yb1 2.894990 1_555
S14 Yb5 2.910843 1_555
S15 Yb2 2.894990 1_555
S15 Yb5 2.910843 1_554
S16 Yb0 2.869067 1_555
S16 Yb6 2.911697 1_545
S17 Yb1 2.791319 1_555
S17 Yb7 2.819780 1_555
S18 Yb1 3.070959 1_455
S18 Yb7 3.086712 1_555
S19 Yb2 2.791319 1_555
S19 Yb7 2.819780 1_555
S20 Yb2 3.070959 1_565
S20 Yb7 3.086712 1_555
S21 Yb3 2.869067 1_555
S21 Yb6 2.911697 1_655
S22 Yb6 2.772675 1_555
S23 S3 2.050746 1_456
S23 Yb6 2.772675 1_555
S24 Yb1 2.869067 1_555
S24 Yb4 2.911697 1_565
S25 Yb0 2.791319 1_555
S25 Yb5 2.819780 1_555
S26 Yb0 3.070959 1_655
S26 Yb5 3.086712 1_555
S27 Yb3 2.791319 1_555
S27 Yb5 2.819780 1_555
S28 Yb3 3.070959 1_545
S28 Yb5 3.086712 1_555
S29 Yb2 2.869067 1_555
S29 Yb4 2.911697 1_455
S30 S9 2.050746 1_545
S30 Yb4 2.772675 1_555
S31 Yb4 2.772675 1_555
