# generated using pymatgen
data_Ge7H18O23
_symmetry_space_group_name_H-M   'P 1'
_cell_length_a   7.71626800
_cell_length_b   7.76643680
_cell_length_c   7.95422749
_cell_angle_alpha   88.06026905
_cell_angle_beta   89.58332804
_cell_angle_gamma   89.43485575
_symmetry_Int_Tables_number   1
_chemical_formula_structural   Ge7H18O23
_chemical_formula_sum   'Ge7 H18 O23'
_cell_volume   476.37240991
_cell_formula_units_Z   1
loop_
 _symmetry_equiv_pos_site_id
 _symmetry_equiv_pos_as_xyz
  1  'x, y, z'
loop_
 _atom_site_type_symbol
 _atom_site_label
 _atom_site_symmetry_multiplicity
 _atom_site_fract_x
 _atom_site_fract_y
 _atom_site_fract_z
 _atom_site_occupancy
  Ge  Ge0  1  0.15378200  0.14256900  0.86905600  1
  Ge  Ge1  1  0.89180600  0.87854400  0.86043100  1
  Ge  Ge2  1  0.87318000  0.14651100  0.12682700  1
  Ge  Ge3  1  0.14868700  0.86468100  0.14164400  1
  Ge  Ge4  1  0.50288800  0.01467600  0.00535300  1
  Ge  Ge5  1  0.01068300  0.51524600  0.99496900  1
  Ge  Ge6  1  0.00187600  0.00516100  0.48243700  1
  H  H0  1  0.43316800  0.91936900  0.54124500  1
  H  H1  1  0.64157600  0.94369200  0.57503800  1
  H  H2  1  0.60634700  0.73791800  0.92970500  1
  H  H3  1  0.43621900  0.55939600  0.04878500  1
  H  H4  1  0.62729200  0.47788400  0.04676300  1
  H  H5  1  0.98411000  0.47249400  0.36831000  1
  H  H6  1  0.93282300  0.42814100  0.55358100  1
  H  H7  1  0.45579600  0.25731600  0.32051100  1
  H  H8  1  0.29134400  0.36814800  0.28261200  1
  H  H9  1  0.23086000  0.20648200  0.53806800  1
  H  H10  1  0.56665500  0.33252900  0.70305100  1
  H  H11  1  0.66679400  0.50018600  0.72953400  1
  H  H12  1  0.17364800  0.58320300  0.55742800  1
  H  H13  1  0.21561300  0.48235300  0.75099600  1
  H  H14  1  0.37767400  0.53107900  0.59931000  1
  H  H15  1  0.59487000  0.56698100  0.40009500  1
  H  H16  1  0.77749000  0.64562700  0.42438900  1
  H  H17  1  0.59393900  0.80224500  0.42343000  1
  O  O0  1  0.13309600  0.12946300  0.10811000  1
  O  O1  1  0.89701300  0.13002100  0.87720900  1
  O  O2  1  0.13708100  0.89708000  0.87291500  1
  O  O3  1  0.90175300  0.88911500  0.11056000  1
  O  O4  1  0.39267500  0.14036200  0.84920200  1
  O  O5  1  0.14499000  0.38774700  0.85633600  1
  O  O6  1  0.14268500  0.14405200  0.60899000  1
  O  O7  1  0.63578500  0.86210300  0.88552800  1
  O  O8  1  0.88897400  0.64236900  0.85167300  1
  O  O9  1  0.85836800  0.90601300  0.62802100  1
  O  O10  1  0.63245500  0.14506400  0.12494300  1
  O  O11  1  0.86927200  0.38717200  0.11660900  1
  O  O12  1  0.88014300  0.14846000  0.35853500  1
  O  O13  1  0.38451600  0.87176700  0.13402500  1
  O  O14  1  0.15190100  0.62279200  0.12876200  1
  O  O15  1  0.14220400  0.86736100  0.37620000  1
  O  O16  1  0.54787400  0.93156600  0.48883300  1
  O  O17  1  0.54407700  0.55142000  0.98368300  1
  O  O18  1  0.97479100  0.52279300  0.47953500  1
  O  O19  1  0.36891900  0.33184600  0.37394200  1
  O  O20  1  0.60953600  0.43561900  0.64223700  1
  O  O21  1  0.26865200  0.58168100  0.64349300  1
  O  O22  1  0.66313400  0.67000300  0.36996500  1
loop_
_geom_bond_atom_site_label_1
_geom_bond_atom_site_label_2
_geom_bond_distance
_geom_bond_site_symmetry_2
Ge0 O4 1.848931 1_555
Ge0 O5 1.903988 1_555
Ge0 O0 1.906386 1_556
Ge0 O2 1.911388 1_545
Ge0 O1 1.985134 1_455
Ge0 O6 2.070656 1_555
Ge1 O8 1.838266 1_555
Ge1 O9 1.873157 1_555
Ge1 O2 1.903057 1_655
Ge1 O1 1.962962 1_565
Ge1 O7 1.989064 1_555
Ge1 O3 1.996115 1_556
Ge2 O12 1.844810 1_555
Ge2 O10 1.857816 1_555
Ge2 O11 1.868050 1_555
Ge2 O1 2.000986 1_554
Ge2 O0 2.013407 1_655
Ge2 O3 2.017412 1_545
Ge3 O13 1.821600 1_555
Ge3 O15 1.866833 1_555
Ge3 O14 1.884778 1_555
Ge3 O3 1.929837 1_455
Ge3 O0 2.067101 1_565
Ge3 O2 2.146230 1_554
Ge4 O10 1.740371 1_555
Ge4 O13 1.744469 1_545
Ge4 O4 1.770790 1_554
Ge4 O7 1.844556 1_544
Ge5 O11 1.748453 1_456
Ge5 O8 1.754136 1_455
Ge5 O14 1.764255 1_556
Ge5 O5 1.818676 1_555
Ge6 O12 1.735170 1_455
Ge6 O15 1.748419 1_545
Ge6 O9 1.760098 1_445
Ge6 O6 1.862776 1_555
H0 O16 0.979692 1_555
H1 O16 1.007345 1_555
H1 O9 1.747523 1_555
H2 O7 1.041876 1_555
H2 O17 1.575367 1_555
H3 O17 0.979559 1_554
H4 O17 0.984013 1_554
H5 O18 0.981020 1_555
H6 O18 0.982223 1_555
H7 O19 0.984845 1_555
H8 O19 0.977073 1_555
H9 O6 0.999329 1_555
H10 O20 0.980399 1_555
H11 O20 0.980423 1_555
H12 O21 1.006366 1_555
H13 O21 1.204274 1_555
H13 O5 1.224124 1_555
H14 O21 0.992056 1_555
H15 O22 0.984162 1_555
H16 O22 0.999294 1_555
H17 O16 1.196399 1_555
H17 O22 1.239441 1_555
