# generated using pymatgen
data_Ho5P12Ru19
_symmetry_space_group_name_H-M   'P 1'
_cell_length_a   12.42626417
_cell_length_b   12.42631577
_cell_length_c   3.96106856
_cell_angle_alpha   90.00000000
_cell_angle_beta   90.00000000
_cell_angle_gamma   120.00011670
_symmetry_Int_Tables_number   1
_chemical_formula_structural   Ho5P12Ru19
_chemical_formula_sum   'Ho5 P12 Ru19'
_cell_volume   529.69448085
_cell_formula_units_Z   1
loop_
 _symmetry_equiv_pos_site_id
 _symmetry_equiv_pos_as_xyz
  1  'x, y, z'
loop_
 _atom_site_type_symbol
 _atom_site_label
 _atom_site_symmetry_multiplicity
 _atom_site_fract_x
 _atom_site_fract_y
 _atom_site_fract_z
 _atom_site_occupancy
  Ho  Ho0  1  0.00000629  0.18322059  0.50000000  1
  Ho  Ho1  1  0.81681874  0.81679843  0.50000000  1
  Ho  Ho2  1  0.18316852  -0.00001123  0.50000000  1
  Ho  Ho3  1  0.66671545  0.33336352  -0.00000000  1
  Ho  Ho4  1  0.33329489  0.66662764  -0.00000000  1
  P  P0  1  -0.00000417  0.81529711  0.00000000  1
  P  P1  1  0.18468698  0.18470252  0.00000000  1
  P  P2  1  0.81530979  0.00001116  -0.00000000  1
  P  P3  1  0.69445770  0.17181111  0.50000000  1
  P  P4  1  0.82823091  0.52264712  0.50000000  1
  P  P5  1  0.47735639  0.30558297  0.50000000  1
  P  P6  1  0.17176510  0.69440769  0.50000000  1
  P  P7  1  0.52264413  0.82820917  0.50000000  1
  P  P8  1  0.30554709  0.47734982  0.50000000  1
  P  P9  1  0.00000681  0.37234688  0.00000000  1
  P  P10  1  0.62768105  0.62765635  -0.00000000  1
  P  P11  1  0.37231717  -0.00001556  0.00000000  1
  Ru  Ru0  1  -0.00000427  0.55416679  -0.00000000  1
  Ru  Ru1  1  0.44581821  0.44582804  -0.00000000  1
  Ru  Ru2  1  0.55418256  0.00000431  0.00000000  1
  Ru  Ru3  1  -0.00000828  0.71720612  0.50000000  1
  Ru  Ru4  1  0.28275751  0.28278934  0.50000000  1
  Ru  Ru5  1  0.71724856  0.00001933  0.50000000  1
  Ru  Ru6  1  0.80794956  0.18513164  -0.00000000  1
  Ru  Ru7  1  0.81490958  0.62280595  -0.00000000  1
  Ru  Ru8  1  0.37717659  0.19209345  -0.00000000  1
  Ru  Ru9  1  0.18507525  0.80788371  -0.00000000  1
  Ru  Ru10  1  0.62282407  0.81489086  0.00000000  1
  Ru  Ru11  1  0.19206551  0.37718714  -0.00000000  1
  Ru  Ru12  1  0.87398433  0.36662782  0.50000000  1
  Ru  Ru13  1  0.63340942  0.50736091  0.50000000  1
  Ru  Ru14  1  0.49266596  0.12605533  0.50000000  1
  Ru  Ru15  1  0.36658636  0.87394005  0.50000000  1
  Ru  Ru16  1  0.50733679  0.63337293  0.50000000  1
  Ru  Ru17  1  0.12602753  0.49263708  0.50000000  1
  Ru  Ru18  1  -0.00001110  -0.00000809  0.00000000  1
loop_
_geom_bond_atom_site_label_1
_geom_bond_atom_site_label_2
_geom_bond_distance
_geom_bond_site_symmetry_2
Ho0 Ru18 3.017632 1_556
Ho0 Ru18 3.017632 1_555
Ho0 P1 3.024421 1_555
Ho0 P1 3.024421 1_556
Ho0 P2 3.024546 1_456
Ho0 P2 3.024546 1_455
Ho0 P9 3.073381 1_555
Ho0 P9 3.073381 1_556
Ho0 Ru4 3.086842 1_555
Ho0 Ru5 3.086944 1_455
Ho0 Ru6 3.110525 1_455
Ho0 Ru6 3.110525 1_456
Ho0 Ru11 3.110531 1_555
Ho0 Ru11 3.110531 1_556
Ho0 Ru17 3.348812 1_555
Ho0 Ru12 3.348954 1_455
Ho1 Ru18 3.017268 1_666
Ho1 Ru18 3.017268 1_665
Ho1 P0 3.024309 1_656
Ho1 P0 3.024309 1_655
Ho1 P2 3.024687 1_566
Ho1 P2 3.024687 1_565
Ho1 P10 3.073506 1_555
Ho1 P10 3.073506 1_556
Ho1 Ru3 3.086965 1_655
Ho1 Ru5 3.087317 1_565
Ho1 Ru7 3.110778 1_556
Ho1 Ru7 3.110778 1_555
Ho1 Ru10 3.110799 1_555
Ho1 Ru10 3.110799 1_556
Ho1 Ru13 3.349038 1_555
Ho1 Ru16 3.349494 1_555
Ho2 Ru18 3.017261 1_556
Ho2 Ru18 3.017261 1_555
Ho2 P0 3.024352 1_545
Ho2 P0 3.024352 1_546
Ho2 P1 3.024569 1_555
Ho2 P1 3.024569 1_556
Ho2 P11 3.073609 1_556
Ho2 P11 3.073609 1_555
Ho2 Ru3 3.087141 1_545
Ho2 Ru4 3.087389 1_555
Ho2 Ru8 3.110947 1_555
Ho2 Ru8 3.110947 1_556
Ho2 Ru9 3.110974 1_545
Ho2 Ru9 3.110974 1_546
Ho2 Ru15 3.349340 1_545
Ho2 Ru14 3.349656 1_555
Ho3 P4 2.960120 1_555
Ho3 P4 2.960120 1_554
Ho3 P3 2.960316 1_555
Ho3 P3 2.960316 1_554
Ho3 P5 2.960764 1_555
Ho3 P5 2.960764 1_554
Ho3 Ru12 3.108432 1_555
Ho3 Ru12 3.108432 1_554
Ho3 Ru13 3.108622 1_554
Ho3 Ru13 3.108622 1_555
Ho3 Ru14 3.108827 1_555
Ho3 Ru14 3.108827 1_554
Ho3 Ru7 3.115131 1_555
Ho3 Ru6 3.115389 1_555
Ho3 Ru8 3.116161 1_555
Ho4 P8 2.960143 1_555
Ho4 P8 2.960143 1_554
Ho4 P6 2.960318 1_555
Ho4 P6 2.960318 1_554
Ho4 P7 2.960720 1_554
Ho4 P7 2.960720 1_555
Ho4 Ru17 3.108375 1_555
Ho4 Ru17 3.108375 1_554
Ho4 Ru16 3.108731 1_555
Ho4 Ru16 3.108731 1_554
Ho4 Ru15 3.108758 1_554
Ho4 Ru15 3.108758 1_555
Ho4 Ru11 3.115114 1_555
Ho4 Ru9 3.115490 1_555
Ho4 Ru10 3.116056 1_555
P0 Ru18 2.295119 1_565
P0 Ru3 2.325553 1_555
P0 Ru3 2.325553 1_554
P0 Ru9 2.347263 1_555
P0 Ru7 2.347292 1_455
P1 Ru18 2.295186 1_555
P1 Ru4 2.325483 1_555
P1 Ru4 2.325483 1_554
P1 Ru8 2.347353 1_555
P1 Ru11 2.347374 1_555
P2 Ru18 2.294991 1_655
P2 Ru5 2.325396 1_554
P2 Ru5 2.325396 1_555
P2 Ru6 2.347432 1_555
P2 Ru10 2.347455 1_545
P3 Ru14 2.277104 1_555
P3 Ru5 2.289517 1_555
P3 Ru12 2.331659 1_555
P3 Ru6 2.388591 1_556
P3 Ru6 2.388591 1_555
P3 Ru2 2.792385 1_556
P3 Ru2 2.792385 1_555
P4 Ru12 2.276893 1_555
P4 Ru3 2.289180 1_655
P4 Ru13 2.331737 1_555
P4 Ru7 2.388511 1_555
P4 Ru7 2.388511 1_556
P4 Ru0 2.792056 1_655
P4 Ru0 2.792056 1_656
P5 Ru13 2.277057 1_555
P5 Ru4 2.289693 1_555
P5 Ru14 2.331815 1_555
P5 Ru8 2.388606 1_555
P5 Ru8 2.388606 1_556
P5 Ru1 2.792166 1_556
P5 Ru1 2.792166 1_555
P6 Ru17 2.276927 1_555
P6 Ru3 2.289337 1_555
P6 Ru15 2.331721 1_555
P6 Ru9 2.388514 1_555
P6 Ru9 2.388514 1_556
P6 Ru0 2.792069 1_555
P6 Ru0 2.792069 1_556
P7 Ru15 2.277164 1_555
P7 Ru5 2.289759 1_565
P7 Ru16 2.331816 1_555
P7 Ru10 2.388642 1_556
P7 Ru10 2.388642 1_555
P7 Ru2 2.792268 1_565
P7 Ru2 2.792268 1_566
P8 Ru16 2.277040 1_555
P8 Ru4 2.289250 1_555
P8 Ru17 2.331551 1_555
P8 Ru11 2.388525 1_556
P8 Ru11 2.388525 1_555
P8 Ru1 2.792294 1_555
P8 Ru1 2.792294 1_556
P9 Ru0 2.259420 1_555
P9 Ru6 2.357047 1_455
P9 Ru11 2.357074 1_555
P9 Ru17 2.503663 1_555
P9 Ru17 2.503663 1_554
P9 Ru12 2.503717 1_455
P9 Ru12 2.503717 1_454
P10 Ru1 2.259662 1_555
P10 Ru7 2.357266 1_555
P10 Ru10 2.357392 1_555
P10 Ru13 2.503698 1_554
P10 Ru13 2.503698 1_555
P10 Ru16 2.504017 1_555
P10 Ru16 2.504017 1_554
P11 Ru2 2.259784 1_555
P11 Ru9 2.357487 1_545
P11 Ru8 2.357595 1_555
P11 Ru15 2.503846 1_544
P11 Ru15 2.503846 1_545
P11 Ru14 2.504074 1_555
P11 Ru14 2.504074 1_554
Ru0 Ru9 2.824593 1_555
Ru0 Ru7 2.824687 1_455
Ru0 Ru12 2.855898 1_454
Ru0 Ru12 2.855898 1_455
Ru0 Ru17 2.856085 1_554
Ru0 Ru17 2.856085 1_555
Ru1 Ru8 2.824798 1_555
Ru1 Ru11 2.825004 1_555
Ru1 Ru16 2.855967 1_554
Ru1 Ru16 2.855967 1_555
Ru1 Ru13 2.856327 1_554
Ru1 Ru13 2.856327 1_555
Ru2 Ru6 2.825180 1_555
Ru3 Ru7 2.808937 1_455
Ru3 Ru7 2.808937 1_456
Ru3 Ru9 2.808948 1_556
Ru3 Ru9 2.808948 1_555
Ru4 Ru8 2.809193 1_555
Ru4 Ru8 2.809193 1_556
Ru5 Ru6 2.809172 1_555
Ru5 Ru6 2.809172 1_556
Ru10 Ru16 2.798699 1_555
Ru10 Ru16 2.798699 1_554
Ru10 Ru5 2.809296 1_565
Ru10 Ru5 2.809296 1_564
Ru10 Ru2 2.825042 1_565
Ru11 Ru17 2.798445 1_554
Ru11 Ru17 2.798445 1_555
Ru11 Ru4 2.809000 1_554
Ru11 Ru4 2.809000 1_555
Ru12 Ru17 2.712350 1_655
Ru12 Ru6 2.798518 1_556
Ru12 Ru6 2.798518 1_555
Ru13 Ru16 2.712806 1_555
Ru13 Ru7 2.798516 1_555
Ru13 Ru7 2.798516 1_556
Ru14 Ru15 2.713137 1_545
Ru14 Ru8 2.798767 1_555
Ru14 Ru8 2.798767 1_556
Ru14 Ru2 2.856162 1_555
Ru14 Ru2 2.856162 1_556
Ru15 Ru9 2.798604 1_556
Ru15 Ru9 2.798604 1_555
Ru15 Ru2 2.856371 1_565
Ru15 Ru2 2.856371 1_566
