# generated using pymatgen
data_LuAl3Ni2
_symmetry_space_group_name_H-M   'P 1'
_cell_length_a   8.86315029
_cell_length_b   8.86315029
_cell_length_c   4.02255068
_cell_angle_alpha   90.00000000
_cell_angle_beta   90.00000000
_cell_angle_gamma   119.99999363
_symmetry_Int_Tables_number   1
_chemical_formula_structural   LuAl3Ni2
_chemical_formula_sum   'Lu3 Al9 Ni6'
_cell_volume   273.65816526
_cell_formula_units_Z   3
loop_
 _symmetry_equiv_pos_site_id
 _symmetry_equiv_pos_as_xyz
  1  'x, y, z'
loop_
 _atom_site_type_symbol
 _atom_site_label
 _atom_site_symmetry_multiplicity
 _atom_site_fract_x
 _atom_site_fract_y
 _atom_site_fract_z
 _atom_site_occupancy
  Lu  Lu0  1  0.00000000  0.00000000  -0.00000000  1
  Lu  Lu1  1  0.66666700  0.33333300  0.50000000  1
  Lu  Lu2  1  0.33333300  0.66666700  0.50000000  1
  Al  Al0  1  0.50000000  0.50000000  -0.00000000  1
  Al  Al1  1  0.50000000  0.00000000  -0.00000000  1
  Al  Al2  1  0.00000000  0.50000000  -0.00000000  1
  Al  Al3  1  0.70196404  0.70196404  0.50000000  1
  Al  Al4  1  0.29803596  0.00000000  0.50000000  1
  Al  Al5  1  0.00000000  0.29803596  0.50000000  1
  Al  Al6  1  0.29803596  0.29803596  0.50000000  1
  Al  Al7  1  0.70196404  -0.00000000  0.50000000  1
  Al  Al8  1  -0.00000000  0.70196404  0.50000000  1
  Ni  Ni0  1  0.81936352  0.18063648  0.00000000  1
  Ni  Ni1  1  0.81936352  0.63872804  -0.00000000  1
  Ni  Ni2  1  0.36127196  0.18063648  0.00000000  1
  Ni  Ni3  1  0.18063648  0.81936352  -0.00000000  1
  Ni  Ni4  1  0.63872804  0.81936352  0.00000000  1
  Ni  Ni5  1  0.18063648  0.36127196  0.00000000  1
loop_
_geom_bond_atom_site_label_1
_geom_bond_atom_site_label_2
_geom_bond_distance
_geom_bond_site_symmetry_2
Lu0 Ni1 2.773020 1_445
Lu0 Ni4 2.773020 1_445
Lu0 Ni5 2.773020 1_555
Lu0 Ni2 2.773020 1_555
Lu0 Ni0 2.773028 1_455
Lu0 Ni3 2.773028 1_545
Lu1 Ni0 3.088702 1_555
Lu1 Ni0 3.088702 1_556
Lu1 Ni1 3.088713 1_555
Lu1 Ni2 3.088713 1_556
Lu1 Ni1 3.088713 1_556
Lu1 Ni2 3.088713 1_555
Lu2 Ni3 3.088702 1_555
Lu2 Ni3 3.088702 1_556
Lu2 Ni5 3.088713 1_556
Lu2 Ni5 3.088713 1_555
Lu2 Ni4 3.088713 1_556
Lu2 Ni4 3.088713 1_555
Al0 Ni5 2.458368 1_555
Al0 Ni2 2.458368 1_555
Al0 Ni4 2.458368 1_555
Al0 Ni1 2.458368 1_555
Al0 Al6 2.692483 1_554
Al0 Al6 2.692483 1_555
Al0 Al3 2.692483 1_555
Al0 Al3 2.692483 1_554
Al0 Lu1 3.254465 1_555
Al0 Lu1 3.254465 1_554
Al0 Lu2 3.254465 1_555
Al0 Lu2 3.254465 1_554
Al1 Ni0 2.458369 1_555
Al1 Ni3 2.458369 1_545
Al1 Ni2 2.458376 1_555
Al1 Ni4 2.458376 1_545
Al1 Al7 2.692483 1_554
Al1 Al4 2.692483 1_554
Al1 Al4 2.692483 1_555
Al1 Al7 2.692483 1_555
Al1 Lu2 3.254459 1_544
Al1 Lu1 3.254459 1_555
Al1 Lu2 3.254459 1_545
Al1 Lu1 3.254459 1_554
Al2 Ni3 2.458369 1_555
Al2 Ni0 2.458369 1_455
Al2 Ni1 2.458376 1_455
Al2 Ni5 2.458376 1_555
Al2 Al8 2.692483 1_555
Al2 Al5 2.692483 1_555
Al2 Al8 2.692483 1_554
Al2 Al5 2.692483 1_554
Al2 Lu1 3.254459 1_454
Al2 Lu1 3.254459 1_455
Al2 Lu2 3.254459 1_555
Al2 Lu2 3.254459 1_554
Al3 Ni4 2.454637 1_555
Al3 Ni1 2.454637 1_555
Al3 Ni4 2.454637 1_556
Al3 Ni1 2.454637 1_556
Al3 Al7 2.641538 1_565
Al3 Al8 2.641538 1_655
Al3 Lu1 3.122587 1_555
Al3 Lu2 3.122587 1_555
Al4 Ni3 2.454641 1_545
Al4 Ni3 2.454641 1_546
Al4 Ni2 2.454642 1_555
Al4 Ni2 2.454642 1_556
Al4 Al6 2.641538 1_555
Al4 Al8 2.641538 1_545
Al4 Lu2 3.122578 1_545
Al4 Lu1 3.122583 1_555
Al5 Ni0 2.454641 1_455
Al5 Ni0 2.454641 1_456
Al5 Ni5 2.454642 1_555
Al5 Ni5 2.454642 1_556
Al5 Al6 2.641538 1_555
Al5 Al7 2.641538 1_455
Al5 Lu1 3.122578 1_455
Al5 Lu2 3.122583 1_555
Al6 Ni5 2.454637 1_555
Al6 Ni2 2.454637 1_555
Al6 Ni5 2.454637 1_556
Al6 Ni2 2.454637 1_556
Al6 Lu1 3.122587 1_555
Al6 Lu2 3.122587 1_555
Al7 Ni0 2.454641 1_556
Al7 Ni0 2.454641 1_555
Al7 Ni4 2.454642 1_546
Al7 Ni4 2.454642 1_545
Al7 Lu1 3.122578 1_555
Al7 Lu2 3.122583 1_545
Al8 Ni3 2.454641 1_555
Al8 Ni3 2.454641 1_556
Al8 Ni1 2.454642 1_455
Al8 Ni1 2.454642 1_456
Al8 Lu2 3.122578 1_555
Al8 Lu1 3.122583 1_455
Ni0 Ni4 2.773028 1_545
Ni0 Ni5 2.773028 1_655
Ni1 Ni4 2.773012 1_555
Ni1 Ni3 2.773028 1_655
Ni2 Ni5 2.773012 1_555
Ni2 Ni3 2.773028 1_545
