# generated using pymatgen
data_Mg16ZrAl12
_symmetry_space_group_name_H-M   'P 1'
_cell_length_a   9.21027862
_cell_length_b   9.21027862
_cell_length_c   9.21027826
_cell_angle_alpha   110.43375556
_cell_angle_beta   110.43375556
_cell_angle_gamma   110.43375382
_symmetry_Int_Tables_number   1
_chemical_formula_structural   Mg16ZrAl12
_chemical_formula_sum   'Mg16 Zr1 Al12'
_cell_volume   579.02196856
_cell_formula_units_Z   1
loop_
 _symmetry_equiv_pos_site_id
 _symmetry_equiv_pos_as_xyz
  1  'x, y, z'
loop_
 _atom_site_type_symbol
 _atom_site_label
 _atom_site_symmetry_multiplicity
 _atom_site_fract_x
 _atom_site_fract_y
 _atom_site_fract_z
 _atom_site_occupancy
  Mg  Mg0  1  0.00493400  0.00493400  0.34466100  1
  Mg  Mg1  1  0.99688500  0.99688500  0.99688500  1
  Mg  Mg2  1  0.39512300  0.39512300  0.72138900  1
  Mg  Mg3  1  0.68517600  0.68517600  0.27997800  1
  Mg  Mg4  1  0.60585700  0.31086700  0.99862500  1
  Mg  Mg5  1  0.31086700  0.99862500  0.60585700  1
  Mg  Mg6  1  0.72138900  0.39512300  0.39512300  1
  Mg  Mg7  1  0.34466100  0.00493400  0.00493400  1
  Mg  Mg8  1  0.99862500  0.60585700  0.31086700  1
  Mg  Mg9  1  0.68517600  0.27997800  0.68517600  1
  Mg  Mg10  1  0.27997800  0.68517600  0.68517600  1
  Mg  Mg11  1  0.60585700  0.99862500  0.31086700  1
  Mg  Mg12  1  0.00493400  0.34466100  0.00493400  1
  Mg  Mg13  1  0.39512300  0.72138900  0.39512300  1
  Mg  Mg14  1  0.99862500  0.31086700  0.60585700  1
  Mg  Mg15  1  0.31086700  0.60585700  0.99862500  1
  Zr  Zr0  1  0.62884700  0.62884700  0.62884700  1
  Al  Al0  1  0.37429300  0.37429300  0.19401400  1
  Al  Al1  1  0.19079000  0.19079000  0.82525200  1
  Al  Al2  1  0.81211500  0.63416100  0.99254500  1
  Al  Al3  1  0.99254500  0.81211500  0.63416100  1
  Al  Al4  1  0.37429300  0.19401400  0.37429300  1
  Al  Al5  1  0.99254500  0.63416100  0.81211500  1
  Al  Al6  1  0.19079000  0.82525200  0.19079000  1
  Al  Al7  1  0.82525200  0.19079000  0.19079000  1
  Al  Al8  1  0.63416100  0.99254500  0.81211500  1
  Al  Al9  1  0.19401400  0.37429300  0.37429300  1
  Al  Al10  1  0.81211500  0.99254500  0.63416100  1
  Al  Al11  1  0.63416100  0.81211500  0.99254500  1
loop_
_geom_bond_atom_site_label_1
_geom_bond_atom_site_label_2
_geom_bond_distance
_geom_bond_site_symmetry_2
Mg0 Mg3 3.032380 1_445
Mg0 Mg14 3.034651 1_455
Mg0 Mg5 3.034651 1_545
Mg0 Mg1 3.152060 1_444
Mg0 Mg2 3.381993 1_555
Mg1 Mg12 3.152060 1_666
Mg1 Mg7 3.152060 1_666
Mg1 Zr0 3.225157 1_555
Mg2 Zr0 3.053036 1_555
Mg2 Mg5 3.130795 1_545
Mg2 Mg4 3.140718 1_555
Mg2 Mg9 3.275072 1_555
Mg3 Mg4 3.132987 1_554
Mg3 Mg8 3.161237 1_555
Mg3 Mg6 3.275072 1_555
Mg4 Mg5 3.025871 1_545
Mg4 Mg8 3.025871 1_556
Mg4 Mg7 3.034651 1_556
Mg4 Mg6 3.130795 1_556
Mg4 Mg9 3.161237 1_555
Mg5 Mg8 3.025871 1_455
Mg5 Mg9 3.132987 1_565
Mg6 Zr0 3.053036 1_555
Mg6 Mg8 3.140718 1_555
Mg6 Mg9 3.275071 1_555
Mg6 Mg7 3.381993 1_555
Mg10 Mg7 3.032380 1_566
Mg10 Mg8 3.132987 1_455
Mg10 Mg14 3.132987 1_455
Mg10 Mg15 3.161237 1_555
Mg10 Mg5 3.161237 1_555
Mg10 Mg13 3.275071 1_555
Mg10 Mg2 3.275072 1_555
Mg11 Mg15 3.025871 1_554
Mg11 Mg14 3.025871 1_565
Mg11 Mg7 3.034651 1_565
Mg11 Mg6 3.130795 1_565
Mg11 Mg9 3.132987 1_565
Mg11 Mg13 3.140718 1_555
Mg11 Mg3 3.161237 1_555
Mg12 Mg9 3.032380 1_454
Mg12 Mg8 3.034651 1_455
Mg12 Mg15 3.034651 1_554
Mg12 Mg13 3.381993 1_555
Mg13 Zr0 3.053036 1_555
Mg13 Mg15 3.130795 1_554
Mg13 Mg8 3.130795 1_455
Mg13 Mg5 3.140718 1_555
Mg13 Mg3 3.275072 1_555
Mg14 Mg15 3.025871 1_655
Mg14 Mg2 3.130795 1_655
Mg14 Mg6 3.140718 1_555
Mg14 Mg9 3.161237 1_555
Mg15 Mg3 3.132987 1_556
Mg15 Mg2 3.140718 1_555
Al0 Al1 2.690289 1_554
Al0 Al9 2.727463 1_555
Al0 Al4 2.727463 1_555
Al0 Mg3 2.851928 1_555
Al0 Mg13 2.979356 1_555
Al0 Mg6 2.979356 1_555
Al0 Mg12 3.092466 1_555
Al0 Mg7 3.092466 1_555
Al0 Zr0 3.175265 1_555
Al0 Mg1 3.195589 1_444
Al0 Mg15 3.308221 1_554
Al0 Mg4 3.308221 1_554
Al1 Al10 2.760257 1_445
Al1 Al3 2.760257 1_445
Al1 Mg2 2.835443 1_555
Al1 Mg14 2.978048 1_455
Al1 Mg5 2.978048 1_545
Al1 Mg12 3.116365 1_556
Al1 Mg7 3.116365 1_556
Al1 Mg15 3.152734 1_555
Al1 Mg4 3.152734 1_555
Al1 Mg1 3.254745 1_445
Al2 Al5 2.729747 1_555
Al2 Al6 2.760257 1_656
Al2 Mg9 2.932624 1_555
Al2 Mg4 2.952837 1_555
Al2 Mg8 2.990689 1_556
Al2 Mg0 3.056800 1_666
Al2 Mg2 3.064946 1_555
Al2 Mg1 3.154052 1_555
Al2 Zr0 3.154718 1_555
Al2 Mg3 3.205037 1_556
Al3 Al5 2.692288 1_555
Al3 Mg3 2.932624 1_555
Al3 Mg8 2.952837 1_555
Al3 Mg5 2.990689 1_655
Al3 Mg7 3.056800 1_666
Al3 Mg6 3.064946 1_555
Al3 Mg1 3.154052 1_555
Al3 Zr0 3.154718 1_555
Al3 Mg10 3.205037 1_655
Al4 Al6 2.690289 1_545
Al4 Al9 2.727463 1_555
Al4 Mg9 2.851928 1_555
Al4 Mg2 2.979356 1_555
Al4 Mg6 2.979356 1_555
Al4 Mg7 3.092466 1_555
Al4 Mg0 3.092466 1_555
Al4 Zr0 3.175266 1_555
Al4 Mg1 3.195589 1_444
Al4 Mg5 3.308221 1_545
Al4 Mg11 3.308221 1_545
Al5 Al6 2.760257 1_656
Al5 Mg9 2.932624 1_555
Al5 Mg14 2.952837 1_555
Al5 Mg15 2.990689 1_655
Al5 Mg7 3.056800 1_666
Al5 Mg6 3.064946 1_555
Al5 Mg1 3.154052 1_555
Al5 Zr0 3.154718 1_555
Al5 Mg10 3.205037 1_655
Al6 Mg13 2.835443 1_555
Al6 Mg15 2.978048 1_554
Al6 Mg8 2.978048 1_455
Al6 Mg0 3.116365 1_565
Al6 Mg7 3.116365 1_565
Al6 Mg5 3.152734 1_555
Al6 Mg11 3.152734 1_555
Al6 Mg1 3.254745 1_454
Al7 Al9 2.690289 1_655
Al7 Al8 2.760257 1_544
Al7 Mg6 2.835443 1_555
Al7 Mg4 2.978048 1_554
Al7 Mg11 2.978048 1_545
Al7 Mg0 3.116365 1_655
Al7 Mg12 3.116365 1_655
Al7 Mg14 3.152734 1_555
Al7 Mg8 3.152734 1_555
Al7 Mg1 3.254745 1_544
Al8 Mg10 2.932624 1_555
Al8 Mg5 2.952837 1_555
Al8 Mg4 2.990689 1_565
Al8 Mg12 3.056800 1_666
Al8 Mg13 3.064946 1_555
Al8 Mg1 3.154052 1_555
Al8 Zr0 3.154718 1_555
Al8 Mg9 3.205037 1_565
Al9 Mg10 2.851928 1_555
Al9 Mg2 2.979356 1_555
Al9 Mg13 2.979356 1_555
Al9 Mg12 3.092466 1_555
Al9 Mg0 3.092466 1_555
Al9 Zr0 3.175266 1_555
Al9 Mg1 3.195589 1_444
Al9 Mg14 3.308221 1_455
Al9 Mg8 3.308221 1_455
Al10 Al8 2.692288 1_555
Al10 Al3 2.729747 1_555
Al10 Mg3 2.932624 1_555
Al10 Mg11 2.952837 1_555
Al10 Mg14 2.990689 1_565
Al10 Mg12 3.056800 1_666
Al10 Mg13 3.064946 1_555
Al10 Mg1 3.154052 1_555
Al10 Zr0 3.154718 1_555
Al10 Mg9 3.205037 1_565
Al11 Al2 2.692288 1_555
Al11 Al8 2.729747 1_555
Al11 Al7 2.760257 1_566
Al11 Mg10 2.932624 1_555
Al11 Mg15 2.952837 1_555
Al11 Mg11 2.990689 1_556
Al11 Mg0 3.056800 1_666
Al11 Mg2 3.064946 1_555
Al11 Mg1 3.154052 1_555
Al11 Zr0 3.154718 1_555
Al11 Mg3 3.205037 1_556
