# generated using pymatgen
data_Lu12Co31Sn16
_symmetry_space_group_name_H-M   'P 1'
_cell_length_a   7.45413811
_cell_length_b   8.70669389
_cell_length_c   15.17417484
_cell_angle_alpha   89.99969772
_cell_angle_beta   89.95711673
_cell_angle_gamma   89.99812493
_symmetry_Int_Tables_number   1
_chemical_formula_structural   Lu12Co31Sn16
_chemical_formula_sum   'Lu12 Co31 Sn16'
_cell_volume   984.81730918
_cell_formula_units_Z   1
loop_
 _symmetry_equiv_pos_site_id
 _symmetry_equiv_pos_as_xyz
  1  'x, y, z'
loop_
 _atom_site_type_symbol
 _atom_site_label
 _atom_site_symmetry_multiplicity
 _atom_site_fract_x
 _atom_site_fract_y
 _atom_site_fract_z
 _atom_site_occupancy
  Lu  Lu0  1  0.49762359  0.28750891  0.23801124  1
  Lu  Lu1  1  0.50527344  0.78521790  0.73867559  1
  Lu  Lu2  1  0.49760739  0.71245159  0.23804428  1
  Lu  Lu3  1  0.50525850  0.21473402  0.73874621  1
  Lu  Lu4  1  0.49895888  0.49990325  0.02456505  1
  Lu  Lu5  1  0.50470427  0.99989178  0.52288211  1
  Lu  Lu6  1  0.99884155  0.21256867  0.26195124  1
  Lu  Lu7  1  0.99474067  0.70960700  0.76327416  1
  Lu  Lu8  1  0.99885826  0.78735978  0.26199675  1
  Lu  Lu9  1  0.99480512  0.29038172  0.76331676  1
  Lu  Lu10  1  0.99564470  0.99984984  0.47319886  1
  Lu  Lu11  1  0.99915190  0.49998928  0.97570406  1
  Co  Co0  1  0.03200006  0.65134724  0.45039473  1
  Co  Co1  1  0.03250083  0.15022468  0.94937382  1
  Co  Co2  1  0.03199557  0.34884592  0.45047104  1
  Co  Co3  1  0.03244899  0.84987711  0.94941946  1
  Co  Co4  1  0.02936850  -0.00002917  0.09993326  1
  Co  Co5  1  0.03263979  0.50002092  0.59878569  1
  Co  Co6  1  0.53048867  0.84875546  0.04995923  1
  Co  Co7  1  0.52869602  0.34806725  0.55065927  1
  Co  Co8  1  0.53045486  0.15127734  0.04993644  1
  Co  Co9  1  0.52871273  0.65202188  0.55069535  1
  Co  Co10  1  0.52874813  0.50000263  0.40053841  1
  Co  Co11  1  0.52798989  0.00002848  0.89961965  1
  Co  Co12  1  0.33950163  0.74329003  0.42059964  1
  Co  Co13  1  0.34078583  0.24083104  0.91834888  1
  Co  Co14  1  0.33947418  0.25673337  0.42061356  1
  Co  Co15  1  0.34069301  0.75927126  0.91836354  1
  Co  Co16  1  0.34209658  0.00001490  0.16187765  1
  Co  Co17  1  0.33897095  0.50002153  0.66124992  1
  Co  Co18  1  0.84371046  0.75771340  0.08041504  1
  Co  Co19  1  0.84797024  0.25791710  0.58080937  1
  Co  Co20  1  0.84365151  0.24229031  0.08043215  1
  Co  Co21  1  0.84798308  0.74212527  0.58083047  1
  Co  Co22  1  0.84512628  0.49999688  0.33833827  1
  Co  Co23  1  0.84806460  0.99996145  0.83789721  1
  Co  Co24  1  0.78674300  0.00000683  0.99900104  1
  Co  Co25  1  0.78636808  0.50004491  0.50005816  1
  Co  Co26  1  0.28586388  0.00002309  0.99916731  1
  Co  Co27  1  0.28535051  0.50002581  0.50207106  1
  Co  Co28  1  0.65675072  0.99995521  0.33325809  1
  Co  Co29  1  0.65780501  0.49997182  0.83218930  1
  Co  Co30  1  0.15165460  0.50002301  0.16731649  1
  Sn  Sn0  1  0.71192135  0.75633307  0.41362093  1
  Sn  Sn1  1  0.71232814  0.25800197  0.91430810  1
  Sn  Sn2  1  0.71192365  0.24360881  0.41360032  1
  Sn  Sn3  1  0.71228009  0.74199712  0.91435420  1
  Sn  Sn4  1  0.71129804  -0.00006004  0.17170912  1
  Sn  Sn5  1  0.71142766  0.49997682  0.67053319  1
  Sn  Sn6  1  0.21375465  0.74196516  0.08635522  1
  Sn  Sn7  1  0.21017867  0.22868232  0.59063088  1
  Sn  Sn8  1  0.21369156  0.25808002  0.08640274  1
  Sn  Sn9  1  0.21014577  0.77123547  0.59058615  1
  Sn  Sn10  1  0.21354121  0.49998734  0.32850043  1
  Sn  Sn11  1  0.20943249  -0.00001123  0.81961951  1
  Sn  Sn12  1  0.30319978  0.99997969  0.33325495  1
  Sn  Sn13  1  0.30319806  0.50002411  0.83395176  1
  Sn  Sn14  1  0.80128733  0.50006503  0.16654012  1
  Sn  Sn15  1  0.80511508  0.99996362  0.66639256  1
loop_
_geom_bond_atom_site_label_1
_geom_bond_atom_site_label_2
_geom_bond_distance
_geom_bond_site_symmetry_2
Lu0 Sn14 3.117910 1_555
Lu0 Sn10 3.128489 1_555
Lu0 Sn2 3.131023 1_555
Lu0 Sn4 3.132943 1_555
Lu0 Sn8 3.137655 1_555
Lu0 Sn12 3.233158 1_545
Lu1 Sn5 3.097713 1_555
Lu1 Sn3 3.104048 1_555
Lu1 Sn15 3.113037 1_555
Lu1 Sn11 3.140714 1_565
Lu1 Sn9 3.148256 1_555
Lu1 Sn13 3.243732 1_555
Lu2 Sn14 3.117215 1_555
Lu2 Sn10 3.128188 1_555
Lu2 Sn0 3.130912 1_555
Lu2 Sn4 3.132680 1_565
Lu2 Sn6 3.138200 1_555
Lu2 Sn12 3.232811 1_555
Lu3 Sn5 3.098209 1_555
Lu3 Sn1 3.102826 1_555
Lu3 Sn15 3.113542 1_545
Lu3 Sn11 3.140163 1_555
Lu3 Sn7 3.148269 1_555
Lu3 Sn13 3.243781 1_555
Lu4 Sn14 3.118849 1_555
Lu4 Sn1 3.124181 1_554
Lu4 Sn3 3.124814 1_554
Lu4 Sn8 3.135679 1_555
Lu4 Sn6 3.136454 1_555
Lu4 Sn13 3.240623 1_554
Lu5 Sn0 3.102830 1_555
Lu5 Sn2 3.104005 1_565
Lu5 Sn15 3.124732 1_555
Lu5 Sn9 3.136367 1_555
Lu5 Sn7 3.137075 1_565
Lu5 Sn12 3.246881 1_555
Lu6 Sn12 3.122048 1_645
Lu6 Sn8 3.132313 1_655
Lu6 Sn10 3.137847 1_655
Lu6 Sn4 3.146617 1_555
Lu6 Sn2 3.151996 1_555
Lu6 Sn14 3.245498 1_555
Lu7 Sn11 3.112326 1_665
Lu7 Sn9 3.118700 1_655
Lu7 Sn3 3.124264 1_555
Lu7 Sn13 3.125717 1_655
Lu7 Sn5 3.126717 1_555
Lu7 Sn15 3.248540 1_555
Lu8 Sn12 3.121972 1_655
Lu8 Sn6 3.133551 1_655
Lu8 Sn10 3.137148 1_655
Lu8 Sn4 3.146664 1_565
Lu8 Sn0 3.151816 1_555
Lu8 Sn14 3.244596 1_555
Lu9 Sn11 3.111888 1_655
Lu9 Sn7 3.118645 1_655
Lu9 Sn1 3.123362 1_555
Lu9 Sn13 3.125538 1_655
Lu9 Sn5 3.127066 1_555
Lu9 Sn15 3.249543 1_545
Lu10 Sn9 3.113748 1_655
Lu10 Sn7 3.115556 1_665
Lu10 Sn12 3.123769 1_655
Lu10 Sn0 3.128688 1_555
Lu10 Sn2 3.130096 1_565
Lu10 Sn15 3.256509 1_555
Lu11 Sn13 3.123455 1_655
Lu11 Sn8 3.133533 1_656
Lu11 Sn6 3.133859 1_656
Lu11 Sn1 3.143478 1_555
Lu11 Sn3 3.143533 1_555
Lu11 Sn14 3.248770 1_556
Co0 Co25 2.377784 1_455
Co0 Co27 2.432946 1_555
Co0 Co12 2.469372 1_555
Co0 Co21 2.533684 1_455
Co0 Co22 2.563557 1_455
Co0 Co5 2.608860 1_555
Co0 Sn0 2.615594 1_455
Co0 Co2 2.633787 1_555
Co0 Sn10 2.642972 1_555
Co0 Sn9 2.717105 1_555
Co0 Lu10 3.065943 1_455
Co0 Lu8 3.104360 1_455
Co1 Co24 2.373116 1_455
Co1 Co26 2.418660 1_555
Co1 Co13 2.474522 1_555
Co1 Co23 2.542984 1_445
Co1 Co20 2.564152 1_456
Co1 Co3 2.615034 1_545
Co1 Sn1 2.619418 1_455
Co1 Co4 2.632741 1_556
Co1 Sn8 2.652134 1_556
Co1 Sn11 2.706122 1_555
Co1 Lu11 3.081404 1_455
Co1 Lu9 3.088695 1_455
Co2 Co25 2.376832 1_455
Co2 Co27 2.432002 1_555
Co2 Co22 2.563360 1_455
Co2 Co5 2.607207 1_555
Co2 Sn2 2.616685 1_455
Co2 Sn10 2.642886 1_555
Co2 Sn7 2.717746 1_555
Co2 Lu10 3.070076 1_445
Co2 Lu6 3.106967 1_455
Co3 Sn3 2.619769 1_455
Co3 Co4 2.631456 1_566
Co3 Sn6 2.651598 1_556
Co3 Sn11 2.706322 1_565
Co3 Lu11 3.082356 1_455
Co3 Lu7 3.090336 1_455
Co4 Sn4 2.608394 1_455
Co4 Sn6 2.641424 1_545
Co4 Sn8 2.641965 1_555
Co4 Lu6 3.085680 1_455
Co4 Lu8 3.086284 1_445
Co5 Sn5 2.629514 1_455
Co5 Sn9 2.709667 1_555
Co5 Sn7 2.710623 1_555
Co5 Lu7 3.104605 1_455
Co5 Lu9 3.105348 1_455
Co6 Sn6 2.596523 1_555
Co6 Sn3 2.632519 1_554
Co6 Co8 2.633965 1_565
Co6 Sn4 2.639347 1_565
Co6 Lu4 3.070734 1_555
Co6 Lu2 3.100471 1_555
Co7 Sn5 2.630067 1_555
Co7 Co9 2.646440 1_555
Co7 Sn2 2.648332 1_555
Co7 Sn7 2.661486 1_555
Co7 Lu5 3.065866 1_545
Co7 Lu3 3.085953 1_555
Co8 Sn8 2.596933 1_555
Co8 Sn1 2.633029 1_554
Co8 Sn4 2.640328 1_555
Co8 Lu4 3.068703 1_555
Co8 Lu0 3.100063 1_555
Co9 Sn5 2.630163 1_555
Co9 Sn0 2.648026 1_555
Co9 Sn9 2.660897 1_555
Co9 Lu5 3.063302 1_555
Co9 Lu1 3.084014 1_555
Co10 Co27 2.379338 1_555
Co10 Co25 2.443874 1_555
Co10 Co22 2.539527 1_555
Co10 Co12 2.562951 1_555
Co10 Co14 2.563032 1_555
Co10 Sn10 2.592171 1_555
Co10 Sn0 2.623971 1_555
Co10 Sn2 2.624347 1_555
Co10 Co7 2.634201 1_555
Co10 Co9 2.635053 1_555
Co10 Lu2 3.091263 1_555
Co10 Lu0 3.091911 1_555
Co11 Co26 2.352688 1_555
Co11 Co24 2.449226 1_555
Co11 Co13 2.534357 1_555
Co11 Co15 2.534509 1_545
Co11 Co23 2.562475 1_545
Co11 Co8 2.633867 1_556
Co11 Co6 2.634261 1_546
Co11 Sn1 2.642611 1_555
Co11 Sn3 2.642834 1_545
Co11 Sn11 2.667685 1_555
Co11 Lu3 3.079432 1_555
Co11 Lu1 3.080853 1_545
Co12 Co27 2.485276 1_555
Co12 Co9 2.553788 1_555
Co12 Sn12 2.612507 1_555
Co12 Sn10 2.706336 1_555
Co12 Sn9 2.763793 1_555
Co12 Sn0 2.780332 1_555
Co12 Lu5 2.986609 1_555
Co12 Lu2 3.021549 1_555
Co12 Lu10 3.491877 1_455
Co12 Lu8 3.520782 1_455
Co13 Co26 2.463073 1_555
Co13 Co8 2.568642 1_556
Co13 Sn13 2.609945 1_555
Co13 Sn8 2.723850 1_556
Co13 Sn11 2.757285 1_555
Co13 Sn1 2.774197 1_555
Co13 Lu3 2.996177 1_555
Co13 Lu4 3.013126 1_556
Co13 Lu11 3.511449 1_455
Co13 Lu9 3.518591 1_455
Co14 Co2 2.469818 1_555
Co14 Co27 2.485336 1_555
Co14 Co7 2.553459 1_555
Co14 Sn12 2.613097 1_545
Co14 Sn10 2.705982 1_555
Co14 Sn7 2.764157 1_555
Co14 Sn2 2.780594 1_555
Co14 Lu5 2.988074 1_545
Co14 Lu0 3.022284 1_555
Co14 Lu10 3.493585 1_445
Co14 Lu6 3.521452 1_455
Co15 Co26 2.462420 1_565
Co15 Co3 2.474280 1_555
Co15 Co6 2.569109 1_556
Co15 Sn13 2.610414 1_555
Co15 Sn6 2.722593 1_556
Co15 Sn11 2.756273 1_565
Co15 Sn3 2.774558 1_555
Co15 Lu1 2.997587 1_555
Co15 Lu4 3.015136 1_556
Co15 Lu11 3.511686 1_455
Co15 Lu7 3.519163 1_455
Co16 Co26 2.504633 1_554
Co16 Co4 2.514142 1_555
Co16 Co6 2.566500 1_545
Co16 Co8 2.566642 1_555
Co16 Sn12 2.616407 1_545
Co16 Sn8 2.697736 1_555
Co16 Sn6 2.697827 1_545
Co16 Sn4 2.756231 1_555
Co16 Lu0 2.991071 1_555
Co16 Lu2 2.991649 1_545
Co16 Lu6 3.503072 1_455
Co16 Lu8 3.503826 1_445
Co17 Co27 2.448550 1_555
Co17 Co5 2.472998 1_555
Co17 Co9 2.561770 1_555
Co17 Co7 2.561813 1_555
Co17 Sn13 2.633941 1_555
Co17 Sn9 2.765747 1_555
Co17 Sn7 2.766393 1_555
Co17 Sn5 2.780020 1_555
Co17 Lu1 3.014186 1_555
Co17 Lu3 3.015135 1_555
Co17 Lu7 3.507766 1_455
Co17 Lu9 3.508025 1_455
Co18 Co24 2.481434 1_564
Co18 Co6 2.508921 1_555
Co18 Co4 2.540226 1_665
Co18 Co3 2.563250 1_654
Co18 Sn14 2.615256 1_555
Co18 Sn3 2.707733 1_554
Co18 Sn4 2.709058 1_565
Co18 Sn6 2.763300 1_655
Co18 Lu11 2.983197 1_554
Co18 Lu8 3.000145 1_555
Co19 Co25 2.481385 1_555
Co19 Co5 2.532470 1_655
Co19 Co2 2.532995 1_655
Co19 Co7 2.547722 1_555
Co19 Sn15 2.613831 1_545
Co19 Sn5 2.707233 1_555
Co19 Sn7 2.716118 1_655
Co19 Sn2 2.735962 1_555
Co19 Lu10 2.987289 1_545
Co19 Lu9 2.991993 1_555
Co20 Co24 2.481449 1_554
Co20 Co8 2.508828 1_555
Co20 Co4 2.540806 1_655
Co20 Sn14 2.616011 1_555
Co20 Sn1 2.708331 1_554
Co20 Sn4 2.709644 1_555
Co20 Sn8 2.763311 1_655
Co20 Lu11 2.983386 1_554
Co20 Lu6 2.999441 1_555
Co21 Co25 2.481247 1_555
Co21 Co5 2.532310 1_655
Co21 Co9 2.547578 1_555
Co21 Sn15 2.612816 1_555
Co21 Sn5 2.707751 1_555
Co21 Sn9 2.715639 1_655
Co21 Sn0 2.735967 1_555
Co21 Lu10 2.985227 1_555
Co21 Lu7 2.990922 1_555
Co22 Co25 2.492424 1_555
Co22 Sn14 2.627540 1_555
Co22 Sn0 2.696326 1_555
Co22 Sn2 2.696605 1_555
Co22 Sn10 2.750159 1_655
Co22 Lu8 2.985497 1_555
Co22 Lu6 2.986141 1_555
Co23 Co24 2.486649 1_565
Co23 Co3 2.542379 1_655
Co23 Sn15 2.622298 1_555
Co23 Sn11 2.707720 1_665
Co23 Sn3 2.722758 1_555
Co23 Sn1 2.722830 1_565
Co23 Lu7 2.977670 1_555
Co23 Lu9 2.978138 1_565
Co23 Lu3 3.506489 1_565
Co23 Lu1 3.506831 1_555
Co24 Co4 2.370809 1_656
Co24 Co3 2.372114 1_645
Co24 Co6 2.445153 1_546
Co24 Co8 2.445267 1_556
Co24 Sn3 2.646778 1_545
Co24 Sn1 2.646892 1_555
Co24 Sn4 2.679952 1_556
Co25 Co5 2.370317 1_655
Co25 Co7 2.455119 1_555
Co25 Co9 2.455126 1_555
Co25 Sn5 2.646038 1_555
Co25 Sn0 2.647359 1_555
Co25 Sn2 2.648638 1_555
Co26 Co8 2.377847 1_556
Co26 Co6 2.378147 1_546
Co26 Co3 2.418554 1_545
Co26 Co4 2.447274 1_556
Co26 Sn6 2.662047 1_546
Co26 Sn8 2.662475 1_556
Co26 Sn11 2.783839 1_555
Co27 Co7 2.363525 1_555
Co27 Co9 2.364045 1_555
Co27 Co5 2.387067 1_555
Co27 Sn10 2.688027 1_555
Co27 Sn9 2.773632 1_555
Co27 Sn7 2.774923 1_555
Co28 Sn0 2.481144 1_555
Co28 Sn2 2.481261 1_565
Co28 Sn4 2.484564 1_565
Co28 Sn12 2.635418 1_555
Co28 Lu5 3.091766 1_555
Co28 Lu2 3.124662 1_555
Co28 Lu0 3.125123 1_565
Co28 Lu10 3.301321 1_555
Co28 Lu8 3.330792 1_555
Co28 Lu6 3.331094 1_565
Co29 Sn1 2.481332 1_555
Co29 Sn3 2.482068 1_555
Co29 Sn5 2.485055 1_555
Co29 Sn13 2.643404 1_555
Co29 Lu3 3.077955 1_555
Co29 Lu1 3.078394 1_555
Co29 Lu4 3.149321 1_556
Co29 Lu9 3.275422 1_555
Co29 Lu7 3.275564 1_555
Co29 Lu11 3.350367 1_555
Co30 Sn8 2.481510 1_555
Co30 Sn6 2.481962 1_555
Co30 Sn10 2.489297 1_555
Co30 Sn14 2.611721 1_455
Co30 Lu8 3.101210 1_455
Co30 Lu6 3.101810 1_455
Co30 Lu11 3.122678 1_454
Co30 Lu2 3.350710 1_555
Co30 Lu0 3.350953 1_555
Co30 Lu4 3.374302 1_555
