# generated using pymatgen
data_Sr3LaCuRuO8
_symmetry_space_group_name_H-M   'P 1'
_cell_length_a   7.88766683
_cell_length_b   5.59527308
_cell_length_c   6.92072525
_cell_angle_alpha   89.59102840
_cell_angle_beta   73.25181795
_cell_angle_gamma   44.81632547
_symmetry_Int_Tables_number   1
_chemical_formula_structural   Sr3LaCuRuO8
_chemical_formula_sum   'Sr3 La1 Cu1 Ru1 O8'
_cell_volume   197.14806920
_cell_formula_units_Z   1
loop_
 _symmetry_equiv_pos_site_id
 _symmetry_equiv_pos_as_xyz
  1  'x, y, z'
loop_
 _atom_site_type_symbol
 _atom_site_label
 _atom_site_symmetry_multiplicity
 _atom_site_fract_x
 _atom_site_fract_y
 _atom_site_fract_z
 _atom_site_occupancy
  Sr  Sr0  1  0.14260900  0.34825000  0.71478300  1
  Sr  Sr1  1  0.64433100  0.35452400  0.71133800  1
  Sr  Sr2  1  0.85807300  0.64987300  0.28385400  1
  La  La0  1  0.35841600  0.65361700  0.28316700  1
  Cu  Cu0  1  0.00577500  0.99286300  0.98845100  1
  Ru  Ru0  1  0.50476800  0.99480600  0.99046500  1
  O  O0  1  0.25021900  0.00107800  0.00832100  1
  O  O1  1  0.25132300  0.49792600  0.01242300  1
  O  O2  1  0.33794700  0.14268300  0.32410600  1
  O  O3  1  0.73625400  0.01299500  0.01242300  1
  O  O4  1  0.17686500  0.83729700  0.64627000  1
  O  O5  1  0.74146000  0.50983700  0.00832100  1
  O  O6  1  0.83159100  0.16000900  0.33681700  1
  O  O7  1  0.66037000  0.84424300  0.67926100  1
loop_
_geom_bond_atom_site_label_1
_geom_bond_atom_site_label_2
_geom_bond_distance
_geom_bond_site_symmetry_2
La0 O4 2.301446 1_555
La0 O0 2.579722 1_565
La0 O5 2.579725 1_555
La0 O2 2.636747 1_565
La0 O1 2.638718 1_555
La0 O3 2.638721 1_555
La0 O6 2.802701 1_465
La0 O6 2.802702 1_555
La0 O2 2.982629 1_555
Cu0 O1 2.004212 1_556
Cu0 O3 2.004216 1_466
Cu0 O0 2.004296 1_566
Cu0 O5 2.004299 1_466
Cu0 O4 2.169782 1_555
Cu0 O6 2.207964 1_466
O0 Ru0 1.950603 1_544
O0 Sr2 2.674113 1_455
O0 Sr0 2.686828 1_554
O0 Sr1 2.728391 1_544
O1 Ru0 1.947073 1_544
O1 Sr2 2.606941 1_455
O1 Sr1 2.714315 1_554
O1 Sr0 2.782316 1_554
O2 Ru0 2.116424 1_544
O2 Sr0 2.477192 1_555
O2 Sr2 2.795512 1_545
O2 Sr2 2.795512 1_455
O3 Ru0 1.947069 1_544
O3 Sr2 2.606941 1_545
O3 Sr1 2.714315 1_554
O3 Sr0 2.782318 1_644
O4 Sr0 2.705704 1_565
O4 Sr1 2.811389 1_465
O4 Sr1 2.811389 1_555
O4 Sr0 2.956697 1_555
O5 Ru0 1.950599 1_554
O5 Sr2 2.674113 1_555
O5 Sr0 2.686831 1_654
O5 Sr1 2.728391 1_554
O6 Sr1 2.374352 1_555
O6 Sr2 2.729511 1_545
O6 Sr2 2.905932 1_555
O7 Ru0 1.972372 1_555
O7 Sr2 2.505987 1_555
O7 Sr1 2.774462 1_565
O7 Sr0 2.789872 1_565
O7 Sr0 2.789873 1_655
O7 Sr1 2.835567 1_555
