# generated using pymatgen
data_Ca2Ni12As7
_symmetry_space_group_name_H-M   'P 1'
_cell_length_a   9.38949904
_cell_length_b   9.38949904
_cell_length_c   3.81937700
_cell_angle_alpha   90.00000000
_cell_angle_beta   90.00000000
_cell_angle_gamma   120.00000734
_symmetry_Int_Tables_number   1
_chemical_formula_structural   Ca2Ni12As7
_chemical_formula_sum   'Ca2 Ni12 As7'
_cell_volume   291.61373271
_cell_formula_units_Z   1
loop_
 _symmetry_equiv_pos_site_id
 _symmetry_equiv_pos_as_xyz
  1  'x, y, z'
loop_
 _atom_site_type_symbol
 _atom_site_label
 _atom_site_symmetry_multiplicity
 _atom_site_fract_x
 _atom_site_fract_y
 _atom_site_fract_z
 _atom_site_occupancy
  Ca  Ca0  1  0.00000000  0.00000000  0.00000000  1
  Ca  Ca1  1  0.66666700  0.33333300  0.50000000  1
  Ni  Ni0  1  0.38841200  0.28502200  0.00000000  1
  Ni  Ni1  1  0.89660900  0.61158800  0.00000000  1
  Ni  Ni2  1  0.71497800  0.10339100  0.00000000  1
  Ni  Ni3  1  0.61368500  0.79493800  0.00000000  1
  Ni  Ni4  1  0.18125300  0.38631500  0.00000000  1
  Ni  Ni5  1  0.20506200  0.81874700  0.00000000  1
  Ni  Ni6  1  0.75711700  0.71479900  0.50000000  1
  Ni  Ni7  1  0.95768200  0.24288300  0.50000000  1
  Ni  Ni8  1  0.28520100  0.04231800  0.50000000  1
  Ni  Ni9  1  0.42904300  0.55220600  0.50000000  1
  Ni  Ni10  1  0.12316300  0.57095700  0.50000000  1
  Ni  Ni11  1  0.44779400  0.87683700  0.50000000  1
  As  As0  1  0.62056700  0.54920500  0.00000000  1
  As  As1  1  0.92863800  0.37943300  0.00000000  1
  As  As2  1  0.45079500  0.07136200  0.00000000  1
  As  As3  1  0.73797600  0.96485900  0.50000000  1
  As  As4  1  0.22688300  0.26202400  0.50000000  1
  As  As5  1  0.03514100  0.77311700  0.50000000  1
  As  As6  1  0.33333300  0.66666700  0.00000000  1
loop_
_geom_bond_atom_site_label_1
_geom_bond_atom_site_label_2
_geom_bond_distance
_geom_bond_site_symmetry_2
Ca0 Ni3 3.143325 1_445
Ca0 Ni4 3.143326 1_555
Ca0 Ni5 3.143326 1_545
Ca0 Ni6 3.148311 1_444
Ca0 Ni6 3.148311 1_445
Ca0 Ni8 3.148311 1_555
Ca0 Ni8 3.148311 1_554
Ca0 Ni7 3.148311 1_455
Ca0 Ni7 3.148311 1_454
Ca0 Ni1 3.271473 1_445
Ca0 Ni0 3.271475 1_555
Ca0 Ni2 3.271482 1_455
Ca1 Ni2 3.081154 1_555
Ca1 Ni2 3.081154 1_556
Ca1 Ni1 3.081163 1_556
Ca1 Ni1 3.081163 1_555
Ca1 Ni0 3.081168 1_556
Ca1 Ni0 3.081168 1_555
Ca1 Ni7 3.241666 1_555
Ca1 Ni8 3.241672 1_555
Ca1 Ni6 3.241675 1_555
As0 Ni3 2.340288 1_555
As0 Ni0 2.344691 1_555
As0 Ni1 2.354322 1_555
As0 Ni6 2.390565 1_555
As0 Ni6 2.390565 1_554
As0 Ni9 2.632928 1_554
As0 Ni9 2.632928 1_555
As0 Ca1 2.969863 1_555
As0 Ca1 2.969863 1_554
As1 Ni4 2.340288 1_655
As1 Ni1 2.344697 1_555
As1 Ni2 2.354325 1_555
As1 Ni7 2.390565 1_555
As1 Ni7 2.390565 1_554
As1 Ni10 2.632928 1_654
As1 Ni10 2.632928 1_655
As1 Ca1 2.969856 1_554
As1 Ca1 2.969856 1_555
As2 Ni5 2.340288 1_545
As2 Ni2 2.344688 1_555
As2 Ni0 2.354331 1_555
As2 Ni8 2.390565 1_555
As2 Ni8 2.390565 1_554
As2 Ni11 2.632928 1_544
As2 Ni11 2.632928 1_545
As2 Ca1 2.969859 1_555
As2 Ca1 2.969859 1_554
As3 Ni2 2.380412 1_565
As3 Ni2 2.380412 1_566
As3 Ni7 2.384351 1_565
As3 Ni3 2.385883 1_556
As3 Ni3 2.385883 1_555
As3 Ni11 2.419706 1_555
As3 Ni6 2.442764 1_555
As3 Ca0 2.999491 1_665
As3 Ca0 2.999491 1_666
As4 Ni0 2.380407 1_556
As4 Ni0 2.380407 1_555
As4 Ni8 2.384351 1_555
As4 Ni4 2.385883 1_556
As4 Ni4 2.385883 1_555
As4 Ni9 2.419706 1_555
As4 Ni7 2.442764 1_455
As4 Ca0 2.999491 1_555
As4 Ca0 2.999491 1_556
As5 Ni1 2.380409 1_456
As5 Ni1 2.380409 1_455
As5 Ni6 2.384351 1_455
As5 Ni5 2.385883 1_556
As5 Ni5 2.385883 1_555
As5 Ni10 2.419706 1_555
As5 Ni8 2.442764 1_565
As5 Ca0 2.999491 1_565
As5 Ca0 2.999491 1_566
As6 Ni5 2.282425 1_555
As6 Ni4 2.282433 1_555
As6 Ni3 2.282434 1_555
As6 Ni10 2.564247 1_554
As6 Ni10 2.564247 1_555
As6 Ni11 2.564247 1_554
As6 Ni11 2.564247 1_555
As6 Ni9 2.564253 1_554
As6 Ni9 2.564253 1_555
