# generated using pymatgen
data_HoGa2Ni
_symmetry_space_group_name_H-M   'P 1'
_cell_length_a   4.07134961
_cell_length_b   5.40003395
_cell_length_c   6.59229292
_cell_angle_alpha   90.00000000
_cell_angle_beta   90.00000000
_cell_angle_gamma   112.14639839
_symmetry_Int_Tables_number   1
_chemical_formula_structural   HoGa2Ni
_chemical_formula_sum   'Ho2 Ga4 Ni2'
_cell_volume   134.24164140
_cell_formula_units_Z   2
loop_
 _symmetry_equiv_pos_site_id
 _symmetry_equiv_pos_as_xyz
  1  'x, y, z'
loop_
 _atom_site_type_symbol
 _atom_site_label
 _atom_site_symmetry_multiplicity
 _atom_site_fract_x
 _atom_site_fract_y
 _atom_site_fract_z
 _atom_site_occupancy
  Ho  Ho0  1  0.42890692  0.85781483  0.25000000  1
  Ho  Ho1  1  0.57109308  0.14218517  0.75000000  1
  Ga  Ga0  1  0.14544012  0.29088224  0.05453010  1
  Ga  Ga1  1  0.85455988  0.70911776  0.94546990  1
  Ga  Ga2  1  0.85455988  0.70911776  0.55453010  1
  Ga  Ga3  1  0.14544012  0.29088224  0.44546990  1
  Ni  Ni0  1  0.71088614  0.42177228  0.25000000  1
  Ni  Ni1  1  0.28911386  0.57822772  0.75000000  1
loop_
_geom_bond_atom_site_label_1
_geom_bond_atom_site_label_2
_geom_bond_distance
_geom_bond_site_symmetry_2
Ho0 Ni0 2.820712 1_565
Ho0 Ni0 2.983355 1_455
Ho0 Ni0 2.983358 1_555
Ho1 Ni1 2.820712 1_545
Ho1 Ni1 2.983355 1_655
Ho1 Ni1 2.983358 1_555
Ga0 Ni1 2.468968 1_554
Ga0 Ni0 2.496601 1_455
Ga0 Ni0 2.496608 1_555
Ga0 Ho1 2.954208 1_454
Ga0 Ho1 2.954216 1_554
Ga0 Ho0 3.114652 1_555
Ga0 Ho0 3.239784 1_445
Ga0 Ho0 3.239786 1_545
Ga1 Ni0 2.468968 1_556
Ga1 Ni1 2.496601 1_655
Ga1 Ni1 2.496608 1_555
Ga1 Ho0 2.954208 1_656
Ga1 Ho0 2.954216 1_556
Ga1 Ho1 3.114652 1_555
Ga1 Ho1 3.239784 1_665
Ga1 Ho1 3.239786 1_565
Ga2 Ni0 2.468968 1_555
Ga2 Ni1 2.496601 1_655
Ga2 Ni1 2.496608 1_555
Ga2 Ho0 2.954208 1_655
Ga2 Ho0 2.954216 1_555
Ga2 Ho1 3.114652 1_555
Ga2 Ho1 3.239784 1_665
Ga2 Ho1 3.239786 1_565
Ga3 Ni1 2.468968 1_555
Ga3 Ni0 2.496601 1_455
Ga3 Ni0 2.496608 1_555
Ga3 Ho1 2.954208 1_455
Ga3 Ho1 2.954216 1_555
Ga3 Ho0 3.114652 1_555
Ga3 Ho0 3.239784 1_445
Ga3 Ho0 3.239786 1_545
