# generated using pymatgen
data_CaMn2O4
_symmetry_space_group_name_H-M   'P 1'
_cell_length_a   5.91839286
_cell_length_b   6.64647887
_cell_length_c   5.91839769
_cell_angle_alpha   116.40867015
_cell_angle_beta   90.05952085
_cell_angle_gamma   116.40845069
_symmetry_Int_Tables_number   1
_chemical_formula_structural   CaMn2O4
_chemical_formula_sum   'Ca2 Mn4 O8'
_cell_volume   180.92546310
_cell_formula_units_Z   2
loop_
 _symmetry_equiv_pos_site_id
 _symmetry_equiv_pos_as_xyz
  1  'x, y, z'
loop_
 _atom_site_type_symbol
 _atom_site_label
 _atom_site_symmetry_multiplicity
 _atom_site_fract_x
 _atom_site_fract_y
 _atom_site_fract_z
 _atom_site_occupancy
  Ca  Ca0  1  0.62501100  0.74999400  0.37499600  1
  Ca  Ca1  1  0.37500500  0.24999400  0.62499700  1
  Mn  Mn0  1  0.99995900  0.49990400  0.49998800  1
  Mn  Mn1  1  0.00008400  0.00011200  0.00003500  1
  Mn  Mn2  1  0.99989900  0.50008800  0.00006100  1
  Mn  Mn3  1  0.49997300  0.99995000  0.99995700  1
  O  O0  1  0.79859700  0.52992700  0.76529600  1
  O  O1  1  0.23535300  0.97006300  0.76867500  1
  O  O2  1  0.23471000  0.97006200  0.20140800  1
  O  O3  1  0.20142300  0.47006500  0.23469700  1
  O  O4  1  0.76869100  0.47006700  0.23533900  1
  O  O5  1  0.76465900  0.02992400  0.23131700  1
  O  O6  1  0.23133000  0.52992400  0.76464900  1
  O  O7  1  0.76530400  0.02992500  0.79858500  1
loop_
_geom_bond_atom_site_label_1
_geom_bond_atom_site_label_2
_geom_bond_distance
_geom_bond_site_symmetry_2
Ca0 O3 2.215470 1_555
Ca0 O7 2.215474 1_565
Ca0 O4 2.215559 1_555
Ca0 O5 2.215577 1_565
Ca1 O2 2.215475 1_545
Ca1 O0 2.215493 1_555
Ca1 O6 2.215554 1_555
Ca1 O1 2.215578 1_545
Mn0 O6 1.960337 1_655
Mn0 O4 1.960572 1_555
Mn0 O0 1.965272 1_555
Mn0 O3 1.965570 1_655
Mn0 O5 2.435737 1_555
Mn0 O1 2.436623 1_655
Mn1 O7 1.960395 1_454
Mn1 O2 1.960494 1_545
Mn1 O1 1.965122 1_544
Mn1 O5 1.965349 1_455
Mn1 O3 2.435579 1_555
Mn1 O0 2.436758 1_444
Mn2 O0 1.959876 1_554
Mn2 O3 1.960998 1_655
Mn2 O4 1.964557 1_555
Mn2 O6 1.965885 1_654
Mn2 O2 2.435689 1_655
Mn2 O7 2.436647 1_554
Mn3 O1 1.960309 1_555
Mn3 O5 1.960578 1_566
Mn3 O2 1.965401 1_556
Mn3 O7 1.965408 1_565
Mn3 O6 2.435950 1_555
Mn3 O4 2.436433 1_566
