# generated using pymatgen
data_Li9Mn2Co5O16
_symmetry_space_group_name_H-M   'P 1'
_cell_length_a   19.32712709
_cell_length_b   19.32712709
_cell_length_c   5.19880145
_cell_angle_alpha   89.05142146
_cell_angle_beta   89.05142146
_cell_angle_gamma   8.55693892
_symmetry_Int_Tables_number   1
_chemical_formula_structural   Li9Mn2Co5O16
_chemical_formula_sum   'Li9 Mn2 Co5 O16'
_cell_volume   288.90704318
_cell_formula_units_Z   1
loop_
 _symmetry_equiv_pos_site_id
 _symmetry_equiv_pos_as_xyz
  1  'x, y, z'
loop_
 _atom_site_type_symbol
 _atom_site_label
 _atom_site_symmetry_multiplicity
 _atom_site_fract_x
 _atom_site_fract_y
 _atom_site_fract_z
 _atom_site_occupancy
  Li  Li0  1  0.43679600  0.43679600  0.18720700  1
  Li  Li1  1  0.30958800  0.30958800  0.56963600  1
  Li  Li2  1  0.18942000  0.18942000  0.93206900  1
  Li  Li3  1  0.06319100  0.06319100  0.31282800  1
  Li  Li4  1  0.93810000  0.93810000  0.68849800  1
  Li  Li5  1  0.80845800  0.80845800  0.07523000  1
  Li  Li6  1  0.69019600  0.69019600  0.42360800  1
  Li  Li7  1  0.56399000  0.56399000  0.81169800  1
  Li  Li8  1  0.74976900  0.74976900  0.75067700  1
  Mn  Mn0  1  0.00022300  0.00022300  0.99928700  1
  Mn  Mn1  1  0.37392800  0.37392800  0.87799700  1
  Co  Co0  1  0.87468200  0.87468200  0.37906700  1
  Co  Co1  1  0.62554200  0.62554200  0.12259900  1
  Co  Co2  1  0.50020600  0.50020600  0.49878800  1
  Co  Co3  1  0.24978700  0.24978700  0.25009600  1
  Co  Co4  1  0.12602700  0.12602700  0.62260400  1
  O  O0  1  0.47104400  0.47104400  0.86323400  1
  O  O1  1  0.34702800  0.34702800  0.24690000  1
  O  O2  1  0.22301100  0.22301100  0.54060500  1
  O  O3  1  0.09649800  0.09649800  0.96486700  1
  O  O4  1  0.97165500  0.97165500  0.36988000  1
  O  O5  1  0.84497300  0.84497300  0.74008600  1
  O  O6  1  0.72247500  0.72247500  0.10902600  1
  O  O7  1  0.59670300  0.59670300  0.46868000  1
  O  O8  1  0.40300000  0.40300000  0.50993100  1
  O  O9  1  0.27689600  0.27689600  0.95852000  1
  O  O10  1  0.15368200  0.15368200  0.27748600  1
  O  O11  1  0.02836700  0.02836700  0.62946100  1
  O  O12  1  0.90349400  0.90349400  0.01191200  1
  O  O13  1  0.77729000  0.77729000  0.39100500  1
  O  O14  1  0.65484600  0.65484600  0.77984000  1
  O  O15  1  0.52913500  0.52913500  0.13667800  1
loop_
_geom_bond_atom_site_label_1
_geom_bond_atom_site_label_2
_geom_bond_distance
_geom_bond_site_symmetry_2
Li0 O8 2.106999 1_555
Li0 O0 2.122668 1_554
Li0 O12 2.143875 1_455
Li0 O12 2.143875 1_545
Li0 O4 2.197452 1_545
Li0 O4 2.197452 1_455
Li1 O13 2.128332 1_455
Li1 O13 2.128332 1_545
Li1 O5 2.182842 1_545
Li1 O5 2.182842 1_455
Li1 O1 2.194886 1_555
Li1 O9 2.364491 1_555
Li2 O14 2.125201 1_545
Li2 O14 2.125201 1_455
Li2 O6 2.141903 1_546
Li2 O6 2.141903 1_456
Li2 O10 2.245064 1_556
Li2 O2 2.393923 1_555
Li3 O11 2.106705 1_555
Li3 O7 2.106879 1_545
Li3 O7 2.106879 1_455
Li3 O15 2.163529 1_455
Li3 O15 2.163529 1_545
Li3 O3 2.200822 1_554
Li4 O4 2.084608 1_555
Li4 O12 2.128831 1_556
Li4 O0 2.134276 1_655
Li4 O0 2.134276 1_565
Li4 O8 2.193876 1_655
Li4 O8 2.193876 1_565
Li5 O9 1.987915 1_564
Li5 O9 1.987915 1_654
Li5 O13 2.018153 1_555
Li5 O5 2.221594 1_554
Li5 O1 2.264948 1_655
Li5 O1 2.264948 1_565
Li6 O2 2.018542 1_565
Li6 O2 2.018542 1_655
Li6 O6 2.038449 1_555
Li6 O10 2.161626 1_565
Li6 O10 2.161626 1_655
Li6 O14 2.280959 1_555
Li7 O3 2.077600 1_565
Li7 O3 2.077600 1_655
Li7 O15 2.141066 1_556
Li7 O7 2.166907 1_555
Li7 O11 2.214798 1_565
Li7 O11 2.214798 1_655
Li8 O2 2.091171 1_655
Li8 O2 2.091171 1_565
Li8 O9 2.092242 1_565
Li8 O9 2.092242 1_655
Li8 O6 2.124271 1_556
Li8 O13 2.134457 1_555
Mn0 O15 1.964089 1_546
Mn0 O15 1.964089 1_456
Mn0 O0 1.967432 1_545
Mn0 O0 1.967432 1_455
Mn0 O11 2.191859 1_555
Mn0 O4 2.203209 1_446
Mn1 O5 1.966050 1_545
Mn1 O5 1.966050 1_455
Mn1 O12 1.972028 1_546
Mn1 O12 1.972028 1_456
Mn1 O1 2.165017 1_556
Mn1 O8 2.201384 1_555
Co0 O1 1.926588 1_655
Co0 O1 1.926588 1_565
Co0 O8 1.938566 1_565
Co0 O8 1.938566 1_655
Co0 O5 2.182360 1_555
Co0 O12 2.192360 1_555
Co1 O10 1.983175 1_565
Co1 O10 1.983175 1_655
Co1 O3 2.008809 1_654
Co1 O3 2.008809 1_564
Co1 O14 2.093893 1_554
Co1 O7 2.099163 1_555
Co2 O11 1.934772 1_655
Co2 O11 1.934772 1_565
Co2 O4 1.940058 1_455
Co2 O4 1.940058 1_545
Co2 O15 2.172033 1_555
Co2 O0 2.186937 1_555
Co3 O2 1.815082 1_555
Co3 O9 1.826782 1_554
Co3 O6 1.936718 1_545
Co3 O6 1.936718 1_455
Co3 O13 1.940452 1_545
Co3 O13 1.940452 1_455
Co4 O14 2.002852 1_545
Co4 O14 2.002852 1_455
Co4 O7 2.006756 1_545
Co4 O7 2.006756 1_455
Co4 O10 2.071718 1_555
Co4 O3 2.096296 1_555
