# generated using pymatgen
data_LiV3O4
_symmetry_space_group_name_H-M   'P 1'
_cell_length_a   4.33315900
_cell_length_b   7.90890172
_cell_length_c   5.26153035
_cell_angle_alpha   90.62071696
_cell_angle_beta   114.31489379
_cell_angle_gamma   74.10296688
_symmetry_Int_Tables_number   1
_chemical_formula_structural   LiV3O4
_chemical_formula_sum   'Li2 V6 O8'
_cell_volume   156.96359953
_cell_formula_units_Z   2
loop_
 _symmetry_equiv_pos_site_id
 _symmetry_equiv_pos_as_xyz
  1  'x, y, z'
loop_
 _atom_site_type_symbol
 _atom_site_label
 _atom_site_symmetry_multiplicity
 _atom_site_fract_x
 _atom_site_fract_y
 _atom_site_fract_z
 _atom_site_occupancy
  Li  Li0  1  0.99999400  0.00000400  0.00001200  1
  Li  Li1  1  0.50000600  0.49999600  0.49998800  1
  V  V0  1  0.75000000  0.75000000  0.25000000  1
  V  V1  1  0.63130700  0.11765800  0.38022700  1
  V  V2  1  0.86869300  0.38234200  0.11977300  1
  V  V3  1  0.25000000  0.25000000  0.75000000  1
  V  V4  1  0.13130100  0.61765800  0.88022500  1
  V  V5  1  0.36870000  0.88234200  0.61977500  1
  O  O0  1  0.50006000  0.00000700  0.00000500  1
  O  O1  1  0.99994000  0.49999300  0.49999500  1
  O  O2  1  0.75000000  0.25000000  0.75000000  1
  O  O3  1  0.25000000  0.75000000  0.25000000  1
  O  O4  1  0.62032200  0.63341900  0.87402400  1
  O  O5  1  0.12032500  0.13343200  0.37402000  1
  O  O6  1  0.37967400  0.36656800  0.12598000  1
  O  O7  1  0.87967900  0.86658100  0.62597600  1
loop_
_geom_bond_atom_site_label_1
_geom_bond_atom_site_label_2
_geom_bond_distance
_geom_bond_site_symmetry_2
Li0 O3 2.126663 1_645
Li0 O2 2.126665 1_554
Li0 O5 2.160875 1_655
Li0 O7 2.160972 1_544
Li0 O0 2.166272 1_555
Li0 O0 2.166887 1_655
Li1 O3 2.126663 1_555
Li1 O2 2.126665 1_555
Li1 O6 2.160875 1_555
Li1 O4 2.160972 1_555
Li1 O1 2.166272 1_555
Li1 O1 2.166887 1_455
O0 V1 2.122281 1_555
O0 V5 2.122372 1_544
O0 V3 2.126631 1_554
O0 V0 2.126697 1_545
O1 V2 2.122281 1_555
O1 V4 2.122372 1_655
O1 V3 2.126631 1_655
O1 V0 2.126697 1_555
O2 V2 2.138238 1_556
O2 V1 2.138238 1_555
O2 V3 2.166580 1_555
O2 V3 2.166580 1_655
O3 V5 2.138247 1_555
O3 V4 2.138247 1_554
O3 V0 2.166580 1_555
O3 V0 2.166580 1_455
O4 V0 2.099549 1_556
O4 V2 2.124204 1_556
O4 V5 2.129361 1_555
O4 V4 2.169903 1_655
O4 V4 2.169910 1_555
O5 V3 2.099515 1_555
O5 V5 2.124300 1_545
O5 V2 2.129275 1_455
O5 V1 2.169880 1_555
O5 V1 2.169944 1_455
O6 V3 2.099515 1_554
O6 V4 2.124300 1_554
O6 V1 2.129275 1_555
O6 V2 2.169876 1_455
O6 V2 2.169948 1_555
O7 V0 2.099549 1_555
O7 V1 2.124204 1_565
O7 V4 2.129361 1_655
O7 V5 2.169903 1_555
O7 V5 2.169910 1_655
