# generated using pymatgen
data_EuAl
_symmetry_space_group_name_H-M   'P 1'
_cell_length_a   13.16136405
_cell_length_b   13.16136405
_cell_length_c   9.25199824
_cell_angle_alpha   90.00000000
_cell_angle_beta   90.00000000
_cell_angle_gamma   146.23280079
_symmetry_Int_Tables_number   1
_chemical_formula_structural   EuAl
_chemical_formula_sum   'Eu16 Al16'
_cell_volume   890.78185092
_cell_formula_units_Z   16
loop_
 _symmetry_equiv_pos_site_id
 _symmetry_equiv_pos_as_xyz
  1  'x, y, z'
loop_
 _atom_site_type_symbol
 _atom_site_label
 _atom_site_symmetry_multiplicity
 _atom_site_fract_x
 _atom_site_fract_y
 _atom_site_fract_z
 _atom_site_occupancy
  Eu  Eu0_0  1  0.17079202  0.32920798  0.37500000  1
  Eu  Eu0_1  1  0.17079202  0.32920798  0.87500000  1
  Eu  Eu0_2  1  0.17079202  0.82920798  0.37500000  1
  Eu  Eu0_3  1  0.17079202  0.82920798  0.87500000  1
  Eu  Eu0_4  1  0.67079202  0.32920798  0.37500000  1
  Eu  Eu0_5  1  0.67079202  0.32920798  0.87500000  1
  Eu  Eu0_6  1  0.67079202  0.82920798  0.37500000  1
  Eu  Eu0_7  1  0.67079202  0.82920798  0.87500000  1
  Eu  Eu1_0  1  0.32920798  0.17079202  0.12500000  1
  Eu  Eu1_1  1  0.32920798  0.17079202  0.62500000  1
  Eu  Eu1_2  1  0.32920798  0.67079202  0.12500000  1
  Eu  Eu1_3  1  0.32920798  0.67079202  0.62500000  1
  Eu  Eu1_4  1  0.82920798  0.17079202  0.12500000  1
  Eu  Eu1_5  1  0.82920798  0.17079202  0.62500000  1
  Eu  Eu1_6  1  0.82920798  0.67079202  0.12500000  1
  Eu  Eu1_7  1  0.82920798  0.67079202  0.62500000  1
  Al  Al0_0  1  0.02864793  0.47135207  0.37500000  1
  Al  Al0_1  1  0.02864793  0.47135207  0.87500000  1
  Al  Al0_2  1  0.02864793  0.97135207  0.37500000  1
  Al  Al0_3  1  0.02864793  0.97135207  0.87500000  1
  Al  Al0_4  1  0.52864793  0.47135207  0.37500000  1
  Al  Al0_5  1  0.52864793  0.47135207  0.87500000  1
  Al  Al0_6  1  0.52864793  0.97135207  0.37500000  1
  Al  Al0_7  1  0.52864793  0.97135207  0.87500000  1
  Al  Al1_0  1  0.47135207  0.02864793  0.12500000  1
  Al  Al1_1  1  0.47135207  0.02864793  0.62500000  1
  Al  Al1_2  1  0.47135207  0.52864793  0.12500000  1
  Al  Al1_3  1  0.47135207  0.52864793  0.62500000  1
  Al  Al1_4  1  0.97135207  0.02864793  0.12500000  1
  Al  Al1_5  1  0.97135207  0.02864793  0.62500000  1
  Al  Al1_6  1  0.97135207  0.52864793  0.12500000  1
  Al  Al1_7  1  0.97135207  0.52864793  0.62500000  1
loop_
_geom_bond_atom_site_label_1
_geom_bond_atom_site_label_2
_geom_bond_distance
_geom_bond_site_symmetry_2
Eu0_0 Eu1_3 3.784730 1_555
Eu0_0 Eu1_2 3.784730 1_555
Eu0_0 Eu1_4 3.784730 1_455
Eu0_0 Eu1_5 3.784730 1_455
Eu0_0 Eu0_6 3.822433 1_555
Eu0_0 Eu0_6 3.822433 1_445
Eu0_1 Eu1_2 3.784730 1_556
Eu0_1 Eu1_4 3.784730 1_456
Eu0_1 Eu1_5 3.784730 1_455
Eu0_1 Eu1_3 3.784730 1_555
Eu0_1 Eu0_7 3.822433 1_555
Eu0_1 Eu0_7 3.822433 1_445
Eu0_2 Eu1_7 3.784730 1_455
Eu0_2 Eu1_6 3.784730 1_455
Eu0_2 Eu1_1 3.784730 1_565
Eu0_2 Eu1_0 3.784730 1_565
Eu0_2 Eu0_4 3.822433 1_455
Eu0_2 Eu0_4 3.822433 1_565
Eu0_3 Eu1_6 3.784730 1_456
Eu0_3 Eu1_0 3.784730 1_566
Eu0_3 Eu1_7 3.784730 1_455
Eu0_3 Eu1_1 3.784730 1_565
Eu0_3 Eu0_5 3.822433 1_455
Eu0_3 Eu0_5 3.822433 1_565
Eu0_4 Eu1_1 3.784730 1_555
Eu0_4 Eu1_0 3.784730 1_555
Eu0_4 Eu1_7 3.784730 1_555
Eu0_4 Eu1_6 3.784730 1_555
Eu0_5 Eu1_0 3.784730 1_556
Eu0_5 Eu1_6 3.784730 1_556
Eu0_5 Eu1_1 3.784730 1_555
Eu0_5 Eu1_7 3.784730 1_555
Eu0_6 Eu1_4 3.784730 1_565
Eu0_6 Eu1_5 3.784730 1_565
Eu0_6 Eu1_2 3.784730 1_555
Eu0_6 Eu1_3 3.784730 1_555
Eu0_7 Eu1_4 3.784730 1_566
Eu0_7 Eu1_2 3.784730 1_556
Eu0_7 Eu1_5 3.784730 1_565
Eu0_7 Eu1_3 3.784730 1_555
Eu1_0 Eu1_6 3.822433 1_445
Eu1_0 Eu1_6 3.822433 1_555
Eu1_1 Eu1_7 3.822433 1_445
Eu1_1 Eu1_7 3.822433 1_555
Eu1_2 Eu1_4 3.822433 1_565
Eu1_2 Eu1_4 3.822433 1_455
Eu1_3 Eu1_5 3.822433 1_565
Eu1_3 Eu1_5 3.822433 1_455
Al0_0 Al1_7 2.726302 1_455
Al0_0 Al1_6 2.726302 1_455
Al0_0 Eu1_5 3.259532 1_455
Al0_0 Eu1_4 3.259532 1_455
Al0_0 Eu1_3 3.259532 1_555
Al0_0 Eu1_2 3.259532 1_555
Al0_0 Eu0_2 3.321618 1_555
Al0_0 Eu0_4 3.321618 1_455
Al0_0 Eu0_0 3.580344 1_555
Al0_1 Al1_6 2.726302 1_456
Al0_1 Al1_7 2.726302 1_455
Al0_1 Eu1_4 3.259532 1_456
Al0_1 Eu1_2 3.259532 1_556
Al0_1 Eu1_5 3.259532 1_455
Al0_1 Eu1_3 3.259532 1_555
Al0_1 Eu0_3 3.321618 1_555
Al0_1 Eu0_5 3.321618 1_455
Al0_1 Eu0_1 3.580344 1_555
Al0_2 Al1_5 2.726302 1_465
Al0_2 Al1_4 2.726302 1_465
Al0_2 Eu1_6 3.259532 1_455
Al0_2 Eu1_7 3.259532 1_455
Al0_2 Eu1_0 3.259532 1_565
Al0_2 Eu1_1 3.259532 1_565
Al0_2 Eu0_6 3.321618 1_455
Al0_2 Eu0_0 3.321618 1_565
Al0_2 Eu0_2 3.580344 1_555
Al0_3 Al1_4 2.726302 1_466
Al0_3 Al1_5 2.726302 1_465
Al0_3 Eu1_6 3.259532 1_456
Al0_3 Eu1_0 3.259532 1_566
Al0_3 Eu1_7 3.259532 1_455
Al0_3 Eu1_1 3.259532 1_565
Al0_3 Eu0_7 3.321618 1_455
Al0_3 Eu0_1 3.321618 1_565
Al0_3 Eu0_3 3.580344 1_555
Al0_4 Al1_3 2.726302 1_555
Al0_4 Al1_2 2.726302 1_555
Al0_4 Eu1_0 3.259532 1_555
Al0_4 Eu1_1 3.259532 1_555
Al0_4 Eu1_6 3.259532 1_555
Al0_4 Eu1_7 3.259532 1_555
Al0_4 Eu0_6 3.321618 1_555
Al0_4 Eu0_0 3.321618 1_555
Al0_4 Eu0_4 3.580344 1_555
Al0_5 Al1_2 2.726302 1_556
Al0_5 Al1_3 2.726302 1_555
Al0_5 Eu1_0 3.259532 1_556
Al0_5 Eu1_6 3.259532 1_556
Al0_5 Eu1_1 3.259532 1_555
Al0_5 Eu1_7 3.259532 1_555
Al0_5 Eu0_7 3.321618 1_555
Al0_5 Eu0_1 3.321618 1_555
Al0_5 Eu0_5 3.580344 1_555
Al0_6 Al1_0 2.726302 1_565
Al0_6 Al1_1 2.726302 1_565
Al0_6 Eu1_4 3.259532 1_565
Al0_6 Eu1_2 3.259532 1_555
Al0_6 Eu1_3 3.259532 1_555
Al0_6 Eu1_5 3.259532 1_565
Al0_6 Eu0_2 3.321618 1_555
Al0_6 Eu0_4 3.321618 1_565
Al0_6 Eu0_6 3.580344 1_555
Al0_7 Al1_0 2.726302 1_566
Al0_7 Al1_1 2.726302 1_565
Al0_7 Eu1_4 3.259532 1_566
Al0_7 Eu1_2 3.259532 1_556
Al0_7 Eu1_3 3.259532 1_555
Al0_7 Eu1_5 3.259532 1_565
Al0_7 Eu0_3 3.321618 1_555
Al0_7 Eu0_5 3.321618 1_565
Al0_7 Eu0_7 3.580344 1_555
Al1_0 Eu0_3 3.259532 1_544
Al1_0 Eu0_2 3.259532 1_545
Al1_0 Eu0_5 3.259532 1_554
Al1_0 Eu0_4 3.259532 1_555
Al1_0 Eu1_2 3.321618 1_545
Al1_0 Eu1_4 3.321618 1_555
Al1_0 Eu1_0 3.580344 1_555
Al1_1 Eu0_2 3.259532 1_545
Al1_1 Eu0_4 3.259532 1_555
Al1_1 Eu0_3 3.259532 1_545
Al1_1 Eu0_5 3.259532 1_555
Al1_1 Eu1_3 3.321618 1_545
Al1_1 Eu1_5 3.321618 1_555
Al1_1 Eu1_1 3.580344 1_555
Al1_2 Eu0_7 3.259532 1_554
Al1_2 Eu0_1 3.259532 1_554
Al1_2 Eu0_6 3.259532 1_555
Al1_2 Eu0_0 3.259532 1_555
Al1_2 Eu1_6 3.321618 1_555
Al1_2 Eu1_0 3.321618 1_555
Al1_2 Eu1_2 3.580344 1_555
Al1_3 Eu0_6 3.259532 1_555
Al1_3 Eu0_7 3.259532 1_555
Al1_3 Eu0_0 3.259532 1_555
Al1_3 Eu0_1 3.259532 1_555
Al1_3 Eu1_7 3.321618 1_555
Al1_3 Eu1_1 3.321618 1_555
Al1_3 Eu1_3 3.580344 1_555
Al1_4 Eu0_7 3.259532 1_544
Al1_4 Eu0_6 3.259532 1_545
Al1_4 Eu0_1 3.259532 1_654
Al1_4 Eu0_0 3.259532 1_655
Al1_4 Eu1_6 3.321618 1_545
Al1_4 Eu1_0 3.321618 1_655
Al1_4 Eu1_4 3.580344 1_555
Al1_5 Eu0_6 3.259532 1_545
Al1_5 Eu0_0 3.259532 1_655
Al1_5 Eu0_7 3.259532 1_545
Al1_5 Eu0_1 3.259532 1_655
Al1_5 Eu1_7 3.321618 1_545
Al1_5 Eu1_1 3.321618 1_655
Al1_5 Eu1_5 3.580344 1_555
Al1_6 Eu0_3 3.259532 1_654
Al1_6 Eu0_5 3.259532 1_554
Al1_6 Eu0_2 3.259532 1_655
Al1_6 Eu0_4 3.259532 1_555
Al1_6 Eu1_4 3.321618 1_555
Al1_6 Eu1_2 3.321618 1_655
Al1_6 Eu1_6 3.580344 1_555
Al1_7 Eu0_2 3.259532 1_655
Al1_7 Eu0_4 3.259532 1_555
Al1_7 Eu0_5 3.259532 1_555
Al1_7 Eu0_3 3.259532 1_655
Al1_7 Eu1_5 3.321618 1_555
Al1_7 Eu1_3 3.321618 1_655
Al1_7 Eu1_7 3.580344 1_555
