# generated using pymatgen
data_Li7Mn4CoO12
_symmetry_space_group_name_H-M   'P 1'
_cell_length_a   2.87973355
_cell_length_b   23.05722558
_cell_length_c   6.73652297
_cell_angle_alpha   94.37236009
_cell_angle_beta   102.34561565
_cell_angle_gamma   86.79977092
_symmetry_Int_Tables_number   1
_chemical_formula_structural   Li7Mn4CoO12
_chemical_formula_sum   'Li14 Mn8 Co2 O24'
_cell_volume   435.32217119
_cell_formula_units_Z   2
loop_
 _symmetry_equiv_pos_site_id
 _symmetry_equiv_pos_as_xyz
  1  'x, y, z'
loop_
 _atom_site_type_symbol
 _atom_site_label
 _atom_site_symmetry_multiplicity
 _atom_site_fract_x
 _atom_site_fract_y
 _atom_site_fract_z
 _atom_site_occupancy
  Li  Li0  1  0.66649900  0.41688500  0.74916800  1
  Li  Li1  1  0.66682000  0.91643500  0.25082700  1
  Li  Li2  1  0.66606700  0.03798300  0.36653000  1
  Li  Li3  1  0.66651100  0.53919200  0.86644700  1
  Li  Li4  1  0.66725500  0.29532700  0.63346300  1
  Li  Li5  1  0.66682200  0.79413400  0.13357600  1
  Li  Li6  1  0.00314700  0.12580600  0.13301500  1
  Li  Li7  1  0.00555500  0.62513500  0.63312700  1
  Li  Li8  1  0.33016200  0.20750900  0.86694000  1
  Li  Li9  1  0.32779100  0.70818100  0.36690200  1
  Li  Li10  1  0.32757800  0.45732400  0.11220300  1
  Li  Li11  1  0.32783800  0.95760600  0.61409900  1
  Li  Li12  1  0.00548900  0.37572600  0.38592300  1
  Li  Li13  1  0.00574700  0.87600700  0.88781100  1
  Mn  Mn0  1  0.01136900  0.99733500  0.02099800  1
  Mn  Mn1  1  0.32198000  0.33600300  0.97908800  1
  Mn  Mn2  1  0.33612200  0.58228700  0.25011400  1
  Mn  Mn3  1  0.99721400  0.75103800  0.74987700  1
  Mn  Mn4  1  0.01330900  0.49728600  0.51872400  1
  Mn  Mn5  1  0.32015600  0.83604100  0.48142300  1
  Mn  Mn6  1  0.33544900  0.08233200  0.75347100  1
  Mn  Mn7  1  0.99780800  0.25109000  0.24627200  1
  Co  Co0  1  0.66663100  0.16667100  0.49995800  1
  Co  Co1  1  0.66666100  0.66665600  0.00000400  1
  O  O0  1  0.50769400  0.05452400  0.06612700  1
  O  O1  1  0.50883800  0.55505200  0.56129400  1
  O  O2  1  0.82560800  0.27881700  0.93384400  1
  O  O3  1  0.82452400  0.77827200  0.43875300  1
  O  O4  1  0.83821000  0.13879700  0.81325400  1
  O  O5  1  0.83755200  0.63896300  0.31322400  1
  O  O6  1  0.49513100  0.19456400  0.18671400  1
  O  O7  1  0.49579700  0.69435900  0.68678400  1
  O  O8  1  0.17323200  0.22122000  0.56086500  1
  O  O9  1  0.13189100  0.72529200  0.05243800  1
  O  O10  1  0.16003800  0.11211400  0.43904900  1
  O  O11  1  0.20144700  0.60803400  0.94755900  1
  O  O12  1  0.15284000  0.48111600  0.78570500  1
  O  O13  1  0.15296800  0.98121000  0.28871000  1
  O  O14  1  0.18036600  0.35211700  0.71131900  1
  O  O15  1  0.18050200  0.85220200  0.21433200  1
  O  O16  1  0.83658300  0.38919200  0.05651400  1
  O  O17  1  0.83480900  0.88915500  0.55848200  1
  O  O18  1  0.49855800  0.44417600  0.44156600  1
  O  O19  1  0.49673800  0.94414600  0.94350700  1
  O  O20  1  0.49183700  0.30948400  0.29070800  1
  O  O21  1  0.48339700  0.80959600  0.79021000  1
  O  O22  1  0.84149900  0.02388900  0.70926000  1
  O  O23  1  0.84996100  0.52372500  0.20981900  1
loop_
_geom_bond_atom_site_label_1
_geom_bond_atom_site_label_2
_geom_bond_distance
_geom_bond_site_symmetry_2
Li0 O12 2.060096 1_655
Li0 O14 2.068262 1_555
Li0 O12 2.073031 1_555
Li0 O14 2.083632 1_655
Li0 O18 2.158712 1_555
Li0 O16 2.160408 1_556
Li1 O15 2.060108 1_555
Li1 O13 2.068395 1_655
Li1 O15 2.073047 1_655
Li1 O13 2.083760 1_555
Li1 O17 2.158956 1_555
Li1 O19 2.160393 1_554
Li2 O13 1.987896 1_545
Li2 O13 1.989760 1_645
Li2 O0 2.037720 1_555
Li2 O10 2.242926 1_655
Li2 O10 2.276560 1_555
Li2 O22 2.299722 1_555
Li3 O12 2.010758 1_555
Li3 O12 2.013866 1_655
Li3 O1 2.064612 1_555
Li3 O11 2.134257 1_555
Li3 O11 2.229795 1_655
Li3 O23 2.310639 1_556
Li4 O14 1.988201 1_655
Li4 O14 1.990058 1_555
Li4 O2 2.037399 1_555
Li4 O8 2.242601 1_555
Li4 O8 2.276234 1_655
Li4 O20 2.300185 1_555
Li5 O15 2.010656 1_655
Li5 O15 2.013770 1_555
Li5 O3 2.064779 1_555
Li5 O9 2.134325 1_655
Li5 O9 2.229793 1_555
Li5 O21 2.310575 1_554
Li6 O10 2.058889 1_555
Li6 O6 2.143759 1_555
Li6 O4 2.144845 1_454
Li6 O6 2.159718 1_455
Li6 O0 2.194085 1_455
Li6 O0 2.217171 1_555
Li7 O11 2.133527 1_555
Li7 O7 2.148656 1_555
Li7 O5 2.149790 1_455
Li7 O7 2.170366 1_455
Li7 O1 2.175844 1_455
Li7 O1 2.205692 1_555
Li8 O8 2.059250 1_555
Li8 O4 2.142891 1_455
Li8 O6 2.144714 1_556
Li8 O4 2.159032 1_555
Li8 O2 2.194534 1_555
Li8 O2 2.217628 1_455
Li9 O9 2.133789 1_555
Li9 O5 2.148540 1_455
Li9 O7 2.149624 1_555
Li9 O5 2.170313 1_555
Li9 O3 2.176017 1_555
Li9 O3 2.205824 1_455
Li10 O16 2.130517 1_455
Li10 O16 2.155302 1_555
Li10 O23 2.160173 1_455
Li10 O23 2.172573 1_555
Li10 O18 2.208162 1_555
Li10 O12 2.252034 1_554
Li11 O17 2.140033 1_455
Li11 O22 2.152265 1_565
Li11 O17 2.156217 1_555
Li11 O22 2.168799 1_465
Li11 O19 2.209922 1_555
Li11 O13 2.243634 1_555
Li12 O18 2.140089 1_555
Li12 O20 2.151597 1_455
Li12 O18 2.156170 1_455
Li12 O20 2.168344 1_555
Li12 O16 2.209957 1_455
Li12 O14 2.243714 1_555
Li13 O19 2.130631 1_555
Li13 O19 2.155432 1_455
Li13 O21 2.160347 1_555
Li13 O21 2.172666 1_455
Li13 O17 2.207940 1_455
Li13 O15 2.252273 1_556
Mn0 O13 1.824220 1_555
Mn0 O19 1.935809 1_454
Mn0 O19 1.937318 1_554
Mn0 O0 1.958961 1_565
Mn0 O0 1.961856 1_465
Mn0 O22 2.178901 1_464
Mn1 O14 1.824520 1_555
Mn1 O16 1.935724 1_556
Mn1 O16 1.937214 1_456
Mn1 O2 1.958972 1_455
Mn1 O2 1.961917 1_555
Mn1 O20 2.177880 1_556
Mn2 O5 1.958826 1_555
Mn2 O23 1.962051 1_455
Mn2 O5 1.979052 1_455
Mn2 O23 1.994816 1_555
Mn2 O11 2.116067 1_554
Mn2 O1 2.180842 1_555
Mn3 O7 1.958846 1_555
Mn3 O21 1.962013 1_655
Mn3 O7 1.979084 1_655
Mn3 O21 1.994775 1_555
Mn3 O9 2.116097 1_656
Mn3 O3 2.180481 1_555
Mn4 O12 1.819791 1_555
Mn4 O18 1.934744 1_455
Mn4 O18 1.935178 1_555
Mn4 O1 1.967381 1_455
Mn4 O1 1.967624 1_555
Mn4 O23 2.160107 1_455
Mn5 O15 1.820443 1_555
Mn5 O17 1.934557 1_555
Mn5 O17 1.935191 1_455
Mn5 O3 1.967378 1_555
Mn5 O3 1.967849 1_455
Mn5 O21 2.159409 1_555
Mn6 O4 1.958202 1_555
Mn6 O4 1.966237 1_455
Mn6 O22 1.974730 1_455
Mn6 O22 1.983277 1_555
Mn6 O0 2.194753 1_556
Mn6 O10 2.222302 1_555
Mn7 O6 1.959002 1_555
Mn7 O6 1.966798 1_655
Mn7 O20 1.974008 1_655
Mn7 O20 1.982791 1_555
Mn7 O2 2.192660 1_554
Mn7 O8 2.224120 1_655
Co0 O8 1.933957 1_555
Co0 O10 1.934088 1_655
Co0 O8 1.936186 1_655
Co0 O10 1.936294 1_555
Co0 O6 2.199135 1_555
Co0 O4 2.199308 1_555
Co1 O11 1.916651 1_554
Co1 O9 1.916921 1_655
Co1 O11 2.061787 1_654
Co1 O9 2.061926 1_555
Co1 O5 2.197355 1_555
Co1 O7 2.197436 1_554
