# generated using pymatgen
data_Tb2Se3O20
_symmetry_space_group_name_H-M   'P 1'
_cell_length_a   7.00575300
_cell_length_b   7.19099238
_cell_length_c   19.74907340
_cell_angle_alpha   98.59103624
_cell_angle_beta   90.00000000
_cell_angle_gamma   119.15146986
_symmetry_Int_Tables_number   1
_chemical_formula_structural   Tb2Se3O20
_chemical_formula_sum   'Tb4 Se6 O40'
_cell_volume   856.09785460
_cell_formula_units_Z   2
loop_
 _symmetry_equiv_pos_site_id
 _symmetry_equiv_pos_as_xyz
  1  'x, y, z'
loop_
 _atom_site_type_symbol
 _atom_site_label
 _atom_site_symmetry_multiplicity
 _atom_site_fract_x
 _atom_site_fract_y
 _atom_site_fract_z
 _atom_site_occupancy
  Tb  Tb0  1  0.82185500  0.67882300  0.60701500  1
  Tb  Tb1  1  0.17814500  0.32117700  0.39298500  1
  Tb  Tb2  1  0.14303100  0.32117700  0.89298500  1
  Tb  Tb3  1  0.85696900  0.67882300  0.10701500  1
  Se  Se0  1  0.76683600  0.59014900  0.91600500  1
  Se  Se1  1  0.23316400  0.40985100  0.08399500  1
  Se  Se2  1  0.17668600  0.40985100  0.58399500  1
  Se  Se3  1  0.82331400  0.59014900  0.41600500  1
  Se  Se4  1  0.71333300  0.00000000  0.75000000  1
  Se  Se5  1  0.28666700  0.00000000  0.25000000  1
  O  O0  1  0.34266300  0.61300500  0.81961500  1
  O  O1  1  0.65733700  0.38699500  0.18038500  1
  O  O2  1  0.72965800  0.38699500  0.68038500  1
  O  O3  1  0.27034200  0.61300500  0.31961500  1
  O  O4  1  0.32043300  0.69804900  0.92705000  1
  O  O5  1  0.67956700  0.30195100  0.07295000  1
  O  O6  1  0.62238400  0.30195100  0.57295000  1
  O  O7  1  0.37761600  0.69804900  0.42705000  1
  O  O8  1  0.50973500  0.40413100  0.88708400  1
  O  O9  1  0.49026500  0.59586900  0.11291600  1
  O  O10  1  0.10560400  0.59586900  0.61291600  1
  O  O11  1  0.89439600  0.40413100  0.38708400  1
  O  O12  1  0.78827700  0.70973900  0.99671800  1
  O  O13  1  0.21172300  0.29026100  0.00328200  1
  O  O14  1  0.07853800  0.29026100  0.50328200  1
  O  O15  1  0.92146200  0.70973900  0.49671800  1
  O  O16  1  0.53763100  0.93441300  0.81365100  1
  O  O17  1  0.46236900  0.06558700  0.18634900  1
  O  O18  1  0.60321800  0.06558700  0.68634900  1
  O  O19  1  0.39678200  0.93441300  0.31365100  1
  O  O20  1  0.85066300  0.77278800  0.86177300  1
  O  O21  1  0.14933700  0.22721200  0.13822700  1
  O  O22  1  0.07787500  0.22721200  0.63822700  1
  O  O23  1  0.92212500  0.77278800  0.36177300  1
  O  O24  1  0.44923900  0.53086900  0.58764400  1
  O  O25  1  0.55076100  0.46913100  0.41235600  1
  O  O26  1  0.91837000  0.46913100  0.91235600  1
  O  O27  1  0.08163000  0.53086900  0.08764400  1
  O  O28  1  0.18988800  0.00295800  0.86193400  1
  O  O29  1  0.81011200  0.99704200  0.13806600  1
  O  O30  1  0.18693000  0.99704200  0.63806600  1
  O  O31  1  0.81307000  0.00295800  0.36193400  1
  O  O32  1  0.76968200  0.97689100  0.58127600  1
  O  O33  1  0.23031800  0.02310900  0.41872400  1
  O  O34  1  0.79279100  0.02310900  0.91872400  1
  O  O35  1  0.20720900  0.97689100  0.08127600  1
  O  O36  1  0.74836200  0.79487800  0.71417900  1
  O  O37  1  0.25163800  0.20512200  0.28582100  1
  O  O38  1  0.95348400  0.20512200  0.78582100  1
  O  O39  1  0.04651600  0.79487800  0.21417900  1
loop_
_geom_bond_atom_site_label_1
_geom_bond_atom_site_label_2
_geom_bond_distance
_geom_bond_site_symmetry_2
O0 Tb2 2.551182 1_555
O1 Tb3 2.551182 1_555
O2 Tb0 2.551181 1_555
O3 Tb1 2.551181 1_555
O4 Tb2 2.348544 1_555
O5 Tb3 2.348544 1_555
O6 Tb0 2.348544 1_555
O7 Tb1 2.348544 1_555
O8 Se0 1.668610 1_555
O8 Tb2 2.344597 1_555
O9 Se1 1.668610 1_555
O9 Tb3 2.344597 1_555
O10 Se2 1.668605 1_555
O10 Tb0 2.344590 1_455
O11 Se3 1.668605 1_555
O11 Tb1 2.344590 1_655
O12 Se0 1.663605 1_555
O12 Tb3 2.296684 1_556
O13 Se1 1.663605 1_555
O13 Tb2 2.296684 1_554
O14 Se2 1.663603 1_555
O14 Tb1 2.296683 1_555
O15 Se3 1.663603 1_555
O15 Tb0 2.296683 1_555
O16 Se4 1.711525 1_565
O17 Se5 1.711525 1_555
O18 Se4 1.711526 1_555
O19 Se5 1.711526 1_565
O20 Se0 1.698742 1_555
O21 Se1 1.698742 1_555
O22 Se2 1.698741 1_555
O23 Se3 1.698741 1_555
O24 Se2 1.664592 1_555
O24 Tb0 2.294641 1_555
O25 Se3 1.664592 1_555
O25 Tb1 2.294641 1_555
O26 Se0 1.664586 1_555
O26 Tb2 2.294634 1_655
O27 Se1 1.664586 1_555
O27 Tb3 2.294634 1_455
O28 Tb2 2.456169 1_555
O29 Tb3 2.456169 1_555
O30 Tb0 2.456164 1_455
O31 Tb1 2.456164 1_655
O32 Tb0 2.464740 1_555
O33 Tb1 2.464740 1_555
O34 Tb2 2.464736 1_655
O35 Tb3 2.464736 1_455
O36 Se4 1.666524 1_565
O36 Tb0 2.309028 1_555
O37 Se5 1.666524 1_555
O37 Tb1 2.309028 1_555
O38 Se4 1.666523 1_555
O38 Tb2 2.309026 1_655
O39 Se5 1.666523 1_565
O39 Tb3 2.309026 1_455
