# generated using pymatgen
data_SrB12O7
_symmetry_space_group_name_H-M   'P 1'
_cell_length_a   6.50524368
_cell_length_b   6.50524368
_cell_length_c   6.50524319
_cell_angle_alpha   82.59479994
_cell_angle_beta   82.59479994
_cell_angle_gamma   82.59480225
_symmetry_Int_Tables_number   1
_chemical_formula_structural   SrB12O7
_chemical_formula_sum   'Sr1 B12 O7'
_cell_volume   268.94699388
_cell_formula_units_Z   1
loop_
 _symmetry_equiv_pos_site_id
 _symmetry_equiv_pos_as_xyz
  1  'x, y, z'
loop_
 _atom_site_type_symbol
 _atom_site_label
 _atom_site_symmetry_multiplicity
 _atom_site_fract_x
 _atom_site_fract_y
 _atom_site_fract_z
 _atom_site_occupancy
  Sr  Sr0  1  0.93832900  0.93832900  0.93832900  1
  B  B0  1  0.51055200  0.64933500  0.79981700  1
  B  B1  1  0.64933500  0.79981700  0.51055200  1
  B  B2  1  0.79981700  0.51055200  0.64933500  1
  B  B3  1  0.63461800  0.19288200  0.41589500  1
  B  B4  1  0.19288200  0.41589500  0.63461800  1
  B  B5  1  0.41589500  0.63461800  0.19288200  1
  B  B6  1  0.36252600  0.78902400  0.59730200  1
  B  B7  1  0.78902400  0.59730200  0.36252600  1
  B  B8  1  0.59730200  0.36252600  0.78902400  1
  B  B9  1  0.55922000  0.42574100  0.34005000  1
  B  B10  1  0.42574100  0.34005000  0.55922000  1
  B  B11  1  0.34005000  0.55922000  0.42574100  1
  O  O0  1  0.62811100  0.19378500  0.91920800  1
  O  O1  1  0.19378500  0.91920800  0.62811100  1
  O  O2  1  0.91920800  0.62811100  0.19378500  1
  O  O3  1  0.42559900  0.72030800  0.00020900  1
  O  O4  1  0.72030800  0.00020900  0.42559900  1
  O  O5  1  0.00020900  0.42559900  0.72030800  1
  O  O6  1  0.72748700  0.72748700  0.72748700  1
loop_
_geom_bond_atom_site_label_1
_geom_bond_atom_site_label_2
_geom_bond_distance
_geom_bond_site_symmetry_2
B0 O3 1.456576 1_556
B0 O6 1.556761 1_555
B1 O4 1.456576 1_565
B1 O6 1.556761 1_555
B2 O5 1.456576 1_655
B2 O6 1.556761 1_555
B3 O4 1.301640 1_555
B3 B9 1.567432 1_555
B4 O5 1.301640 1_555
B5 O3 1.301640 1_555
B5 B9 1.788958 1_555
B6 O1 1.307567 1_555
B7 O2 1.307567 1_555
B7 B9 2.007543 1_555
B8 O0 1.307567 1_555
B10 B4 1.567432 1_555
B10 B9 1.642639 1_555
B10 B11 1.642639 1_555
B10 B3 1.788958 1_555
B10 B8 2.007543 1_555
B11 B5 1.567432 1_555
B11 B9 1.642639 1_555
B11 B4 1.788958 1_555
B11 B6 2.007543 1_555
O0 Sr0 2.448781 1_545
O1 Sr0 2.448780 1_455
O2 Sr0 2.448780 1_554
O6 Sr0 2.664294 1_555
