# generated using pymatgen
data_Li4Fe5Sn3O16
_symmetry_space_group_name_H-M   'P 1'
_cell_length_a   6.12493671
_cell_length_b   6.12493671
_cell_length_c   9.68424170
_cell_angle_alpha   89.43202033
_cell_angle_beta   89.43202033
_cell_angle_gamma   60.04009211
_symmetry_Int_Tables_number   1
_chemical_formula_structural   Li4Fe5Sn3O16
_chemical_formula_sum   'Li4 Fe5 Sn3 O16'
_cell_volume   314.73591915
_cell_formula_units_Z   1
loop_
 _symmetry_equiv_pos_site_id
 _symmetry_equiv_pos_as_xyz
  1  'x, y, z'
loop_
 _atom_site_type_symbol
 _atom_site_label
 _atom_site_symmetry_multiplicity
 _atom_site_fract_x
 _atom_site_fract_y
 _atom_site_fract_z
 _atom_site_occupancy
  Li  Li0  1  0.33081600  0.33081600  0.11264500  1
  Li  Li1  1  0.00988800  0.00988800  0.00758800  1
  Li  Li2  1  0.00735400  0.00735400  0.49918600  1
  Li  Li3  1  0.66596500  0.66596500  0.60442300  1
  Fe  Fe0  1  0.32913100  0.32913100  0.50438400  1
  Fe  Fe1  1  0.16990000  0.16990000  0.78374700  1
  Fe  Fe2  1  0.66143100  0.66143100  0.01319100  1
  Fe  Fe3  1  0.82948700  0.33994600  0.28504900  1
  Fe  Fe4  1  0.33994600  0.82948700  0.28504900  1
  Sn  Sn0  1  0.66118300  0.16923100  0.78621900  1
  Sn  Sn1  1  0.16923100  0.66118300  0.78621900  1
  Sn  Sn2  1  0.82932100  0.82932100  0.28732900  1
  O  O0  1  0.67185300  0.16684900  0.40332800  1
  O  O1  1  0.48258300  0.48258300  0.65529600  1
  O  O2  1  0.32892900  0.32892900  0.90272600  1
  O  O3  1  0.00390800  0.00390800  0.68457500  1
  O  O4  1  0.00356800  0.00356800  0.19149000  1
  O  O5  1  0.16684900  0.67185300  0.40332800  1
  O  O6  1  0.47716100  0.03833700  0.65726700  1
  O  O7  1  0.03833700  0.47716100  0.65726700  1
  O  O8  1  0.83799900  0.83799900  0.90688200  1
  O  O9  1  0.16557300  0.16557300  0.39644300  1
  O  O10  1  0.95929000  0.51424300  0.15715500  1
  O  O11  1  0.51424300  0.95929000  0.15715500  1
  O  O12  1  0.66087500  0.66087500  0.39842900  1
  O  O13  1  0.83809700  0.32817300  0.90152300  1
  O  O14  1  0.51907900  0.51907900  0.16273300  1
  O  O15  1  0.32817300  0.83809700  0.90152300  1
loop_
_geom_bond_atom_site_label_1
_geom_bond_atom_site_label_2
_geom_bond_distance
_geom_bond_site_symmetry_2
Li0 O10 2.015672 1_455
Li0 O11 2.015672 1_545
Li0 O2 2.033234 1_554
Li0 O14 2.060283 1_555
Li1 O4 1.781445 1_555
Li1 O15 1.973731 1_544
Li1 O13 1.973731 1_454
Li1 O8 2.077433 1_444
Li2 O3 1.795305 1_555
Li2 O9 1.941130 1_555
Li2 O0 2.013361 1_455
Li2 O5 2.013361 1_545
Li3 O12 1.996244 1_555
Li3 O1 2.001001 1_555
Li3 O7 2.044049 1_655
Li3 O6 2.044049 1_565
Fe0 O9 2.035613 1_555
Fe0 O0 2.060767 1_555
Fe0 O5 2.060767 1_555
Fe0 O6 2.132562 1_555
Fe0 O7 2.132562 1_555
Fe0 O1 2.199870 1_555
Fe1 O3 2.015148 1_555
Fe1 O7 2.037296 1_555
Fe1 O6 2.037296 1_555
Fe1 O2 2.053593 1_555
Fe1 O15 2.092615 1_545
Fe1 O13 2.092615 1_455
Fe2 O13 2.078777 1_554
Fe2 O15 2.078777 1_554
Fe2 O14 2.080123 1_555
Fe2 O11 2.113669 1_555
Fe2 O10 2.113669 1_555
Fe2 O8 2.126751 1_554
Fe3 O4 2.006577 1_655
Fe3 O10 2.026762 1_555
Fe3 O12 2.031934 1_555
Fe3 O14 2.038879 1_555
Fe3 O0 2.084383 1_555
Fe3 O9 2.089778 1_655
Fe4 O4 2.006577 1_565
Fe4 O11 2.026762 1_555
Fe4 O12 2.031934 1_555
Fe4 O14 2.038879 1_555
Fe4 O5 2.084383 1_555
Fe4 O9 2.089778 1_565
O0 Sn2 2.121114 1_545
O1 Sn0 2.090466 1_555
O1 Sn1 2.090466 1_555
O2 Sn0 2.087910 1_555
O2 Sn1 2.087910 1_555
O3 Sn0 2.063143 1_455
O3 Sn1 2.063143 1_545
O4 Sn2 2.058602 1_445
O5 Sn2 2.121114 1_455
O6 Sn0 2.103083 1_555
O7 Sn1 2.103083 1_555
O8 Sn0 2.106624 1_565
O8 Sn1 2.106624 1_655
O10 Sn2 2.107394 1_555
O11 Sn2 2.107394 1_555
O12 Sn2 2.075004 1_555
O13 Sn0 2.113739 1_555
O15 Sn1 2.113739 1_555
