# generated using pymatgen
data_ZnTeH12Se3N4
_symmetry_space_group_name_H-M   'P 1'
_cell_length_a   6.79833200
_cell_length_b   13.38133800
_cell_length_c   13.61809000
_cell_angle_alpha   90.00000000
_cell_angle_beta   90.00000000
_cell_angle_gamma   90.00000000
_symmetry_Int_Tables_number   1
_chemical_formula_structural   ZnTeH12Se3N4
_chemical_formula_sum   'Zn4 Te4 H48 Se12 N16'
_cell_volume   1238.84824664
_cell_formula_units_Z   4
loop_
 _symmetry_equiv_pos_site_id
 _symmetry_equiv_pos_as_xyz
  1  'x, y, z'
loop_
 _atom_site_type_symbol
 _atom_site_label
 _atom_site_symmetry_multiplicity
 _atom_site_fract_x
 _atom_site_fract_y
 _atom_site_fract_z
 _atom_site_occupancy
  Zn  Zn0  1  0.97274200  0.43648800  0.77490500  1
  Zn  Zn1  1  0.02725800  0.93648800  0.22509500  1
  Zn  Zn2  1  0.97274200  0.93648800  0.72509500  1
  Zn  Zn3  1  0.02725800  0.43648800  0.27490500  1
  Te  Te0  1  0.38893400  0.23529100  0.55424200  1
  Te  Te1  1  0.61106600  0.73529100  0.44575800  1
  Te  Te2  1  0.38893400  0.73529100  0.94575800  1
  Te  Te3  1  0.61106600  0.23529100  0.05424200  1
  H  H0  1  0.71383300  0.28752100  0.74987200  1
  H  H1  1  0.28616700  0.78752100  0.25012800  1
  H  H2  1  0.71383300  0.78752100  0.75012800  1
  H  H3  1  0.28616700  0.28752100  0.24987200  1
  H  H4  1  0.92078100  0.26730200  0.69016800  1
  H  H5  1  0.07921900  0.76730200  0.30983200  1
  H  H6  1  0.92078100  0.76730200  0.80983200  1
  H  H7  1  0.07921900  0.26730200  0.19016800  1
  H  H8  1  0.91001700  0.25297000  0.81235600  1
  H  H9  1  0.08998300  0.75297000  0.18764400  1
  H  H10  1  0.91001700  0.75297000  0.68764400  1
  H  H11  1  0.08998300  0.25297000  0.31235600  1
  H  H12  1  0.00173300  0.56898200  0.62744100  1
  H  H13  1  0.99826700  0.06898200  0.37255900  1
  H  H14  1  0.00173300  0.06898200  0.87255900  1
  H  H15  1  0.99826700  0.56898200  0.12744100  1
  H  H16  1  0.11362100  0.46274800  0.60258000  1
  H  H17  1  0.88637900  0.96274800  0.39742000  1
  H  H18  1  0.11362100  0.96274800  0.89742000  1
  H  H19  1  0.88637900  0.46274800  0.10258000  1
  H  H20  1  0.86835100  0.47067100  0.59710800  1
  H  H21  1  0.13164900  0.97067100  0.40289200  1
  H  H22  1  0.86835100  0.97067100  0.90289200  1
  H  H23  1  0.13164900  0.47067100  0.09710800  1
  H  H24  1  0.27039700  0.41591000  0.90124700  1
  H  H25  1  0.72960300  0.91591000  0.09875300  1
  H  H26  1  0.27039700  0.91591000  0.59875300  1
  H  H27  1  0.72960300  0.41591000  0.40124700  1
  H  H28  1  0.30884900  0.35048700  0.80015900  1
  H  H29  1  0.69115100  0.85048700  0.19984100  1
  H  H30  1  0.30884900  0.85048700  0.69984100  1
  H  H31  1  0.69115100  0.35048700  0.30015900  1
  H  H32  1  0.33735600  0.47446200  0.79998500  1
  H  H33  1  0.66264400  0.97446200  0.20001500  1
  H  H34  1  0.33735600  0.97446200  0.70001500  1
  H  H35  1  0.66264400  0.47446200  0.29998500  1
  H  H36  1  0.74362300  0.48284100  0.92022900  1
  H  H37  1  0.25637700  0.98284100  0.07977100  1
  H  H38  1  0.74362300  0.98284100  0.57977100  1
  H  H39  1  0.25637700  0.48284100  0.42022900  1
  H  H40  1  0.89246700  0.57843400  0.89740500  1
  H  H41  1  0.10753300  0.07843400  0.10259500  1
  H  H42  1  0.89246700  0.07843400  0.60259500  1
  H  H43  1  0.10753300  0.57843400  0.39740500  1
  H  H44  1  0.69669000  0.55954800  0.82798900  1
  H  H45  1  0.30331000  0.05954800  0.17201100  1
  H  H46  1  0.69669000  0.05954800  0.67201100  1
  H  H47  1  0.30331000  0.55954800  0.32798900  1
  Se  Se0  1  0.46706100  0.42002900  0.56413200  1
  Se  Se1  1  0.53293900  0.92002900  0.43586800  1
  Se  Se2  1  0.46706100  0.92002900  0.93586800  1
  Se  Se3  1  0.53293900  0.42002900  0.06413200  1
  Se  Se4  1  0.40081200  0.17422800  0.73018500  1
  Se  Se5  1  0.59918800  0.67422800  0.26981500  1
  Se  Se6  1  0.40081200  0.67422800  0.76981500  1
  Se  Se7  1  0.59918800  0.17422800  0.23018500  1
  Se  Se8  1  0.02808100  0.22995600  0.50939200  1
  Se  Se9  1  0.97191900  0.72995600  0.49060800  1
  Se  Se10  1  0.02808100  0.72995600  0.99060800  1
  Se  Se11  1  0.97191900  0.22995600  0.00939200  1
  N  N0  1  0.86410800  0.29646000  0.75458300  1
  N  N1  1  0.13589200  0.79646000  0.24541700  1
  N  N2  1  0.86410800  0.79646000  0.74541700  1
  N  N3  1  0.13589200  0.29646000  0.25458300  1
  N  N4  1  0.98990900  0.49311800  0.63591200  1
  N  N5  1  0.01009100  0.99311800  0.36408800  1
  N  N6  1  0.98990900  0.99311800  0.86408800  1
  N  N7  1  0.01009100  0.49311800  0.13591200  1
  N  N8  1  0.25189600  0.41702700  0.82639500  1
  N  N9  1  0.74810400  0.91702700  0.17360500  1
  N  N10  1  0.25189600  0.91702700  0.67360500  1
  N  N11  1  0.74810400  0.41702700  0.32639500  1
  N  N12  1  0.80927800  0.52308600  0.86414800  1
  N  N13  1  0.19072200  0.02308600  0.13585200  1
  N  N14  1  0.80927800  0.02308600  0.63585200  1
  N  N15  1  0.19072200  0.52308600  0.36414800  1
loop_
_geom_bond_atom_site_label_1
_geom_bond_atom_site_label_2
_geom_bond_distance
_geom_bond_site_symmetry_2
H0 N0 1.030597 1_555
H1 N1 1.030597 1_555
H2 N2 1.030597 1_555
H3 N3 1.030597 1_555
H4 N0 1.034492 1_555
H5 N1 1.034492 1_555
H6 N2 1.034492 1_555
H7 N3 1.034492 1_555
H8 N0 1.027165 1_555
H9 N1 1.027165 1_555
H10 N2 1.027165 1_555
H11 N3 1.027165 1_555
H12 N4 1.024853 1_455
H13 N5 1.024853 1_645
H14 N6 1.024853 1_445
H15 N7 1.024853 1_655
H16 N4 1.038526 1_455
H17 N5 1.038526 1_655
H18 N6 1.038526 1_455
H19 N7 1.038526 1_655
H20 N4 1.025861 1_555
H21 N5 1.025861 1_555
H22 N6 1.025861 1_555
H23 N7 1.025861 1_555
H24 N8 1.027180 1_555
H25 N9 1.027180 1_555
H26 N10 1.027180 1_555
H27 N11 1.027180 1_555
H28 N8 1.034585 1_555
H29 N9 1.034585 1_555
H30 N10 1.034585 1_555
H31 N11 1.034585 1_555
H32 N8 1.028385 1_555
H33 N9 1.028385 1_555
H34 N10 1.028385 1_555
H35 N11 1.028385 1_555
H36 N12 1.035617 1_555
H37 N13 1.035617 1_565
H38 N14 1.035617 1_565
H39 N15 1.035617 1_555
H40 N12 1.036094 1_555
H41 N13 1.036094 1_555
H42 N14 1.036094 1_555
H43 N15 1.036094 1_555
H44 N12 1.032659 1_555
H45 N13 1.032659 1_555
H46 N14 1.032659 1_555
H47 N15 1.032659 1_555
Se0 Te0 2.532041 1_555
Se1 Te1 2.532041 1_555
Se2 Te2 2.532041 1_555
Se3 Te3 2.532041 1_555
Se4 Te0 2.532792 1_555
Se5 Te1 2.532792 1_555
Se6 Te2 2.532792 1_555
Se7 Te3 2.532792 1_555
Se8 Te0 2.529095 1_555
Se9 Te1 2.529095 1_555
Se10 Te2 2.529095 1_555
Se11 Te3 2.529095 1_555
N0 Zn0 2.032978 1_555
N1 Zn1 2.032978 1_555
N2 Zn2 2.032978 1_555
N3 Zn3 2.032978 1_555
N4 Zn0 2.042210 1_555
N5 Zn1 2.042210 1_555
N6 Zn2 2.042210 1_555
N7 Zn3 2.042210 1_555
N8 Zn0 2.039869 1_455
N9 Zn1 2.039869 1_655
N10 Zn2 2.039869 1_455
N11 Zn3 2.039869 1_655
N12 Zn0 2.013644 1_555
N13 Zn1 2.013644 1_545
N14 Zn2 2.013644 1_545
N15 Zn3 2.013644 1_555
