# generated using pymatgen
data_SmGe2Pd
_symmetry_space_group_name_H-M   'P 1'
_cell_length_a   4.38631462
_cell_length_b   8.77093427
_cell_length_c   9.58305875
_cell_angle_alpha   117.23410625
_cell_angle_beta   103.14796517
_cell_angle_gamma   89.99964750
_symmetry_Int_Tables_number   1
_chemical_formula_structural   SmGe2Pd
_chemical_formula_sum   'Sm4 Ge8 Pd4'
_cell_volume   316.90146811
_cell_formula_units_Z   4
loop_
 _symmetry_equiv_pos_site_id
 _symmetry_equiv_pos_as_xyz
  1  'x, y, z'
loop_
 _atom_site_type_symbol
 _atom_site_label
 _atom_site_symmetry_multiplicity
 _atom_site_fract_x
 _atom_site_fract_y
 _atom_site_fract_z
 _atom_site_occupancy
  Sm  Sm0  1  0.20252300  0.20255034  0.40508040  1
  Sm  Sm1  1  0.79747760  0.79745027  0.59492050  1
  Sm  Sm2  1  0.99993065  0.75892261  0.99999386  1
  Sm  Sm3  1  0.00006734  0.24107680  0.00000365  1
  Ge  Ge0  1  0.57393908  0.07399669  0.14800686  1
  Ge  Ge1  1  0.42605967  0.92600280  0.85199339  1
  Ge  Ge2  1  0.19590374  0.84648282  0.39246071  1
  Ge  Ge3  1  0.80409861  0.15351808  0.60754049  1
  Ge  Ge4  1  0.19595056  0.54597092  0.39244904  1
  Ge  Ge5  1  0.80405038  0.45402898  0.60755121  1
  Ge  Ge6  1  0.42612792  0.42606908  0.85209949  1
  Ge  Ge7  1  0.57386984  0.57393081  0.14789986  1
  Pd  Pd0  1  0.35114634  0.10343476  0.70226832  1
  Pd  Pd1  1  0.64885745  0.89656617  0.29773353  1
  Pd  Pd2  1  0.35092895  0.59882807  0.70215980  1
  Pd  Pd3  1  0.64907185  0.40117081  0.29783888  1
loop_
_geom_bond_atom_site_label_1
_geom_bond_atom_site_label_2
_geom_bond_distance
_geom_bond_site_symmetry_2
Ge0 Ge1 2.438319 1_544
Ge0 Pd1 2.533339 1_545
Ge0 Pd3 2.533492 1_555
Ge0 Sm0 3.045989 1_555
Ge0 Sm0 3.051227 1_655
Ge0 Sm2 3.279984 1_544
Ge0 Sm3 3.280435 1_655
Ge0 Sm3 3.282299 1_555
Ge0 Sm2 3.282655 1_444
Ge1 Pd0 2.533338 1_565
Ge1 Pd2 2.533497 1_555
Ge1 Sm1 3.045990 1_555
Ge1 Sm1 3.051219 1_455
Ge1 Sm3 3.279981 1_566
Ge1 Sm2 3.280418 1_455
Ge1 Sm2 3.282285 1_555
Ge1 Sm3 3.282656 1_666
Ge2 Pd1 2.479661 1_455
Ge2 Pd1 2.479894 1_555
Ge2 Ge4 2.635719 1_555
Ge2 Pd0 2.704361 1_565
Ge2 Sm1 3.051179 1_455
Ge2 Sm1 3.057218 1_555
Ge2 Sm0 3.069463 1_565
Ge2 Sm2 3.370410 1_454
Ge3 Pd0 2.479668 1_655
Ge3 Pd0 2.479892 1_555
Ge3 Ge5 2.635714 1_555
Ge3 Pd1 2.704357 1_545
Ge3 Sm0 3.051175 1_655
Ge3 Sm0 3.057224 1_555
Ge3 Sm1 3.069464 1_545
Ge3 Sm3 3.370380 1_656
Ge4 Pd3 2.479089 1_455
Ge4 Pd3 2.480152 1_555
Ge4 Pd2 2.703460 1_555
Ge4 Sm1 3.051316 1_455
Ge4 Sm1 3.057047 1_555
Ge4 Sm0 3.069278 1_555
Ge4 Sm3 3.370238 1_555
Ge5 Pd2 2.479086 1_655
Ge5 Pd2 2.480145 1_555
Ge5 Pd3 2.703471 1_555
Ge5 Sm0 3.051310 1_655
Ge5 Sm0 3.057045 1_555
Ge5 Sm1 3.069281 1_555
Ge5 Sm2 3.370218 1_555
Ge6 Ge7 2.436563 1_556
Ge6 Pd0 2.498792 1_555
Ge6 Pd2 2.499308 1_555
Ge6 Sm3 3.382918 1_556
Ge6 Sm2 3.383024 1_455
Ge6 Sm2 3.384782 1_555
Ge6 Sm3 3.385389 1_656
Ge7 Pd1 2.498801 1_555
Ge7 Pd3 2.499311 1_555
Ge7 Sm2 3.382930 1_554
Ge7 Sm3 3.383030 1_655
Ge7 Sm3 3.384782 1_555
Ge7 Sm2 3.385394 1_454
Pd0 Sm1 3.237738 1_545
Pd0 Sm1 3.239668 1_445
Pd0 Sm0 3.273079 1_555
Pd0 Sm3 3.288759 1_556
Pd0 Sm3 3.294370 1_656
Pd1 Sm0 3.237745 1_565
Pd1 Sm0 3.239659 1_665
Pd1 Sm1 3.273072 1_555
Pd1 Sm2 3.288775 1_554
Pd1 Sm2 3.294408 1_454
Pd2 Sm1 3.237585 1_555
Pd2 Sm1 3.238507 1_455
Pd2 Sm0 3.272580 1_555
Pd2 Sm2 3.289260 1_455
Pd2 Sm2 3.295057 1_555
Pd3 Sm0 3.237590 1_555
Pd3 Sm0 3.238504 1_655
Pd3 Sm1 3.272597 1_555
Pd3 Sm3 3.289260 1_655
Pd3 Sm3 3.295070 1_555
