# generated using pymatgen
data_KV3O7
_symmetry_space_group_name_H-M   'P 1'
_cell_length_a   3.72789070
_cell_length_b   8.25972914
_cell_length_c   9.66277368
_cell_angle_alpha   83.46146800
_cell_angle_beta   78.88394650
_cell_angle_gamma   76.96046988
_symmetry_Int_Tables_number   1
_chemical_formula_structural   KV3O7
_chemical_formula_sum   'K2 V6 O14'
_cell_volume   283.64825432
_cell_formula_units_Z   2
loop_
 _symmetry_equiv_pos_site_id
 _symmetry_equiv_pos_as_xyz
  1  'x, y, z'
loop_
 _atom_site_type_symbol
 _atom_site_label
 _atom_site_symmetry_multiplicity
 _atom_site_fract_x
 _atom_site_fract_y
 _atom_site_fract_z
 _atom_site_occupancy
  K  K0  1  0.82154897  0.76912907  0.58724190  1
  K  K1  1  0.17844965  0.23085954  0.41276994  1
  V  V0  1  0.79334284  0.35889332  0.05450122  1
  V  V1  1  0.20663681  0.64113314  0.94550055  1
  V  V2  1  0.55492363  0.65299263  0.23749866  1
  V  V3  1  0.44507110  0.34702524  0.76249606  1
  V  V4  1  0.94191762  0.93896320  0.17765329  1
  V  V5  1  0.05808472  0.06101918  0.82236170  1
  O  O0  1  0.47671287  0.88545639  0.16142733  1
  O  O1  1  0.52328857  0.11452107  0.83859404  1
  O  O2  1  0.29872616  0.39611804  0.00648327  1
  O  O3  1  0.70128376  0.60389284  0.99348457  1
  O  O4  1  0.68107267  0.41102051  0.22706978  1
  O  O5  1  0.31892352  0.58898596  0.77292975  1
  O  O6  1  0.93207099  0.31398601  0.82162056  1
  O  O7  1  0.06791973  0.68603364  0.17838194  1
  O  O8  1  0.46389675  0.66424980  0.40802780  1
  O  O9  1  0.53609882  0.33574855  0.59198886  1
  O  O10  1  0.89580715  0.13422089  0.07454147  1
  O  O11  1  0.10421462  0.86572067  0.92545648  1
  O  O12  1  0.83284941  0.99445716  0.34013416  1
  O  O13  1  0.16715763  0.00557218  0.65983668  1
loop_
_geom_bond_atom_site_label_1
_geom_bond_atom_site_label_2
_geom_bond_distance
_geom_bond_site_symmetry_2
K0 O8 2.698149 1_555
K0 O8 2.699997 1_655
K0 O13 2.785599 1_565
K0 O13 2.786025 1_665
K0 O12 2.855083 1_555
K0 O5 2.880606 1_555
K0 O5 2.881160 1_655
K1 O9 2.698218 1_555
K1 O9 2.700044 1_455
K1 O12 2.785505 1_545
K1 O12 2.785891 1_445
K1 O13 2.854594 1_555
K1 O4 2.880740 1_555
K1 O4 2.881292 1_455
O0 V4 1.921519 1_455
O0 V4 1.921965 1_555
O0 V2 1.954647 1_555
O1 V5 1.921516 1_655
O1 V5 1.921961 1_555
O1 V3 1.955025 1_555
O2 V0 1.936791 1_455
O2 V0 1.936821 1_555
O2 V1 2.013353 1_554
O2 V3 2.375341 1_554
O3 V1 1.936717 1_655
O3 V1 1.936786 1_555
O3 V0 2.013302 1_556
O3 V2 2.375606 1_556
O4 V0 1.718767 1_555
O4 V2 1.956854 1_555
O5 V1 1.718838 1_555
O5 V3 1.956768 1_555
O6 V3 1.958794 1_655
O6 V3 1.959006 1_555
O6 V5 2.035055 1_655
O6 V0 2.263529 1_556
O7 V2 1.958778 1_455
O7 V2 1.958985 1_555
O7 V4 2.034764 1_455
O7 V1 2.263523 1_554
O8 V2 1.626050 1_555
O9 V3 1.625862 1_555
O10 V4 1.788375 1_545
O10 V0 1.803876 1_555
O10 V5 2.504275 1_654
O11 V5 1.788572 1_565
O11 V1 1.803198 1_555
O11 V4 2.504533 1_456
O12 V4 1.635241 1_555
O13 V5 1.635515 1_555
