# generated using pymatgen
data_Mn5(SiO5)2
_symmetry_space_group_name_H-M   'P 1'
_cell_length_a   4.87439700
_cell_length_b   8.02823300
_cell_length_c   10.68994949
_cell_angle_alpha   72.62875557
_cell_angle_beta   90.00000000
_cell_angle_gamma   90.00000000
_symmetry_Int_Tables_number   1
_chemical_formula_structural   Mn5(SiO5)2
_chemical_formula_sum   'Mn10 Si4 O20'
_cell_volume   399.24780006
_cell_formula_units_Z   2
loop_
 _symmetry_equiv_pos_site_id
 _symmetry_equiv_pos_as_xyz
  1  'x, y, z'
loop_
 _atom_site_type_symbol
 _atom_site_label
 _atom_site_symmetry_multiplicity
 _atom_site_fract_x
 _atom_site_fract_y
 _atom_site_fract_z
 _atom_site_occupancy
  Mn  Mn0  1  0.02591300  0.71384300  0.16428400  1
  Mn  Mn1  1  0.52591300  0.28615700  0.33571600  1
  Mn  Mn2  1  0.97408700  0.28615700  0.83571600  1
  Mn  Mn3  1  0.47408700  0.71384300  0.66428400  1
  Mn  Mn4  1  0.01179500  0.92244200  0.39486000  1
  Mn  Mn5  1  0.51179500  0.07755800  0.10514000  1
  Mn  Mn6  1  0.98820500  0.07755800  0.60514000  1
  Mn  Mn7  1  0.48820500  0.92244200  0.89486000  1
  Mn  Mn8  1  0.00000000  0.50000000  0.50000000  1
  Mn  Mn9  1  0.50000000  0.50000000  0.00000000  1
  Si  Si0  1  0.57688500  0.70728100  0.35656100  1
  Si  Si1  1  0.07688500  0.29271900  0.14343900  1
  Si  Si2  1  0.42311500  0.29271900  0.64343900  1
  Si  Si3  1  0.92311500  0.70728100  0.85656100  1
  O  O0  1  0.70670200  0.69875800  0.50129800  1
  O  O1  1  0.20670200  0.30124200  0.99870200  1
  O  O2  1  0.29329800  0.30124200  0.49870200  1
  O  O3  1  0.79329800  0.69875800  0.00129800  1
  O  O4  1  0.73682700  0.87958600  0.25557000  1
  O  O5  1  0.23682700  0.12041400  0.24443000  1
  O  O6  1  0.26317300  0.12041400  0.74443000  1
  O  O7  1  0.76317300  0.87958600  0.75557000  1
  O  O8  1  0.71073400  0.53668000  0.32426500  1
  O  O9  1  0.21073400  0.46332000  0.17573500  1
  O  O10  1  0.28926600  0.46332000  0.67573500  1
  O  O11  1  0.78926600  0.53668000  0.82426500  1
  O  O12  1  0.23812400  0.72153000  0.35459000  1
  O  O13  1  0.73812400  0.27847000  0.14541000  1
  O  O14  1  0.76187600  0.27847000  0.64541000  1
  O  O15  1  0.26187600  0.72153000  0.85459000  1
  O  O16  1  0.29778100  0.90382200  0.05617000  1
  O  O17  1  0.79778100  0.09617800  0.44383000  1
  O  O18  1  0.70221900  0.09617800  0.94383000  1
  O  O19  1  0.20221900  0.90382200  0.55617000  1
loop_
_geom_bond_atom_site_label_1
_geom_bond_atom_site_label_2
_geom_bond_distance
_geom_bond_site_symmetry_2
Mn0 O16 2.089381 1_555
Mn0 O3 2.112332 1_455
Mn0 O9 2.173645 1_555
Mn0 O12 2.299432 1_555
Mn0 O4 2.341751 1_455
Mn0 O8 2.419812 1_455
Mn1 O17 2.089381 1_555
Mn1 O2 2.112332 1_555
Mn1 O8 2.173645 1_555
Mn1 O13 2.299432 1_555
Mn1 O5 2.341751 1_555
Mn1 O9 2.419812 1_555
Mn2 O18 2.089381 1_555
Mn2 O1 2.112332 1_655
Mn2 O11 2.173645 1_555
Mn2 O14 2.299432 1_555
Mn2 O6 2.341751 1_655
Mn2 O10 2.419812 1_655
Mn3 O19 2.089381 1_555
Mn3 O0 2.112332 1_555
Mn3 O10 2.173645 1_555
Mn3 O15 2.299432 1_555
Mn3 O7 2.341751 1_555
Mn3 O11 2.419812 1_555
Mn4 O19 1.924454 1_555
Mn4 O17 1.934870 1_465
Mn4 O12 2.102068 1_555
Mn4 O4 2.106615 1_455
Mn4 O5 2.188392 1_565
Mn4 O0 2.347549 1_455
Mn5 O18 1.924454 1_554
Mn5 O16 1.934870 1_545
Mn5 O13 2.102068 1_555
Mn5 O5 2.106615 1_555
Mn5 O4 2.188392 1_545
Mn5 O1 2.347549 1_554
Mn6 O17 1.924454 1_555
Mn6 O19 1.934870 1_645
Mn6 O14 2.102068 1_555
Mn6 O6 2.106615 1_655
Mn6 O7 2.188392 1_545
Mn6 O2 2.347549 1_655
Mn7 O16 1.924454 1_556
Mn7 O18 1.934870 1_565
Mn7 O15 2.102068 1_555
Mn7 O7 2.106615 1_555
Mn7 O6 2.188392 1_565
Mn7 O3 2.347549 1_556
Mn8 O2 2.145576 1_555
Mn8 O0 2.145576 1_455
Mn8 O8 2.296434 1_455
Mn8 O10 2.296434 1_555
Mn8 O12 2.296902 1_555
Mn8 O14 2.296902 1_455
Mn9 O3 2.145576 1_555
Mn9 O1 2.145576 1_554
Mn9 O11 2.296434 1_554
Mn9 O9 2.296434 1_555
Mn9 O15 2.296902 1_554
Mn9 O13 2.296902 1_555
O0 Si0 1.654025 1_555
O1 Si1 1.654025 1_556
O2 Si2 1.654025 1_555
O3 Si3 1.654025 1_554
O4 Si0 1.671858 1_555
O5 Si1 1.671858 1_555
O6 Si2 1.671858 1_555
O7 Si3 1.671858 1_555
O8 Si0 1.644106 1_555
O9 Si1 1.644106 1_555
O10 Si2 1.644106 1_555
O11 Si3 1.644106 1_555
O12 Si0 1.654913 1_555
O13 Si1 1.654913 1_655
O14 Si2 1.654913 1_555
O15 Si3 1.654913 1_455
