# generated using pymatgen
data_NdGaCo4
_symmetry_space_group_name_H-M   'P 1'
_cell_length_a   5.13998921
_cell_length_b   5.13998921
_cell_length_c   3.88140200
_cell_angle_alpha   90.00000000
_cell_angle_beta   90.00000000
_cell_angle_gamma   119.99998980
_symmetry_Int_Tables_number   1
_chemical_formula_structural   NdGaCo4
_chemical_formula_sum   'Nd1 Ga1 Co4'
_cell_volume   88.80628767
_cell_formula_units_Z   1
loop_
 _symmetry_equiv_pos_site_id
 _symmetry_equiv_pos_as_xyz
  1  'x, y, z'
loop_
 _atom_site_type_symbol
 _atom_site_label
 _atom_site_symmetry_multiplicity
 _atom_site_fract_x
 _atom_site_fract_y
 _atom_site_fract_z
 _atom_site_occupancy
  Nd  Nd0  1  0.00000000  0.00000000  0.00000000  1
  Ga  Ga0  1  0.33333300  0.66666700  0.00000000  1
  Co  Co0  1  0.66666700  0.33333300  0.00000000  1
  Co  Co1  1  0.50454900  0.00909900  0.50000000  1
  Co  Co2  1  0.99090100  0.49545100  0.50000000  1
  Co  Co3  1  0.50454900  0.49545100  0.50000000  1
loop_
_geom_bond_atom_site_label_1
_geom_bond_atom_site_label_2
_geom_bond_distance
_geom_bond_site_symmetry_2
Ga0 Nd0 2.967571 1_565
Ga0 Nd0 2.967576 1_555
Ga0 Nd0 2.967576 1_665
Co0 Co2 2.418550 1_555
Co0 Co2 2.418550 1_554
Co0 Co1 2.418550 1_554
Co0 Co1 2.418550 1_555
Co0 Co3 2.418555 1_555
Co0 Co3 2.418555 1_554
Co0 Nd0 2.967571 1_655
Co0 Ga0 2.967571 1_545
Co0 Ga0 2.967571 1_655
Co0 Nd0 2.967576 1_555
Co0 Nd0 2.967576 1_665
Co0 Ga0 2.967580 1_555
Co1 Ga0 2.467747 1_546
Co1 Ga0 2.467747 1_545
Co1 Co3 2.499844 1_555
Co1 Co2 2.499844 1_555
Co1 Co3 2.640145 1_545
Co1 Co2 2.640146 1_445
Co1 Nd0 3.220686 1_555
Co1 Nd0 3.220686 1_556
Co1 Nd0 3.220690 1_655
Co1 Nd0 3.220690 1_656
Co2 Ga0 2.467747 1_655
Co2 Ga0 2.467747 1_656
Co2 Co3 2.499844 1_555
Co2 Co3 2.640145 1_655
Co2 Nd0 3.220686 1_665
Co2 Nd0 3.220686 1_666
Co2 Nd0 3.220690 1_655
Co2 Nd0 3.220690 1_656
Co3 Ga0 2.467747 1_556
Co3 Ga0 2.467747 1_555
Co3 Nd0 3.220689 1_665
Co3 Nd0 3.220689 1_666
Co3 Nd0 3.220689 1_555
Co3 Nd0 3.220689 1_556
