# generated using pymatgen
data_Ca3Cr2O7
_symmetry_space_group_name_H-M   'P 1'
_cell_length_a   5.40326350
_cell_length_b   10.02344880
_cell_length_c   5.41931600
_cell_angle_alpha   90.00010277
_cell_angle_beta   90.00129421
_cell_angle_gamma   105.63723789
_symmetry_Int_Tables_number   1
_chemical_formula_structural   Ca3Cr2O7
_chemical_formula_sum   'Ca6 Cr4 O14'
_cell_volume   282.64316519
_cell_formula_units_Z   2
loop_
 _symmetry_equiv_pos_site_id
 _symmetry_equiv_pos_as_xyz
  1  'x, y, z'
loop_
 _atom_site_type_symbol
 _atom_site_label
 _atom_site_symmetry_multiplicity
 _atom_site_fract_x
 _atom_site_fract_y
 _atom_site_fract_z
 _atom_site_occupancy
  Ca  Ca0  1  0.75643600  0.99997900  0.71042300  1
  Ca  Ca1  1  0.24352400  0.99996900  0.21044000  1
  Ca  Ca2  1  0.57265600  0.62822400  0.78599000  1
  Ca  Ca3  1  0.42733600  0.37179100  0.28594900  1
  Ca  Ca4  1  0.94445100  0.37180400  0.78590800  1
  Ca  Ca5  1  0.05556400  0.62822900  0.28586800  1
  Cr  Cr0  1  0.84745700  0.19735300  0.25109200  1
  Cr  Cr1  1  0.15256400  0.80264600  0.75111600  1
  Cr  Cr2  1  0.34997300  0.19744300  0.75110200  1
  Cr  Cr3  1  0.65005400  0.80255200  0.25111000  1
  O  O0  1  0.31667500  0.99987500  0.76458300  1
  O  O1  1  0.68330300  0.00011400  0.26463900  1
  O  O2  1  0.99822400  0.60728800  0.73435900  1
  O  O3  1  0.00174900  0.39275300  0.23425800  1
  O  O4  1  0.60907200  0.60717100  0.23418300  1
  O  O5  1  0.39094400  0.39281800  0.73414600  1
  O  O6  1  0.34435700  0.77868600  0.03520600  1
  O  O7  1  0.65567900  0.22135100  0.53518800  1
  O  O8  1  0.43462300  0.77879600  0.53520200  1
  O  O9  1  0.56537600  0.22118700  0.03517800  1
  O  O10  1  0.86984200  0.83192000  0.96602600  1
  O  O11  1  0.13014000  0.16807000  0.46600500  1
  O  O12  1  0.03817900  0.16817700  0.96601000  1
  O  O13  1  0.96182100  0.83180600  0.46602100  1
loop_
_geom_bond_atom_site_label_1
_geom_bond_atom_site_label_2
_geom_bond_distance
_geom_bond_site_symmetry_2
Ca0 O10 2.385018 1_555
Ca0 O12 2.386347 1_665
Ca0 O0 2.393932 1_555
Ca0 O1 2.447999 1_565
Ca0 O8 2.600409 1_555
Ca0 O7 2.602501 1_565
Ca0 O13 2.614544 1_555
Ca0 O11 2.614685 1_665
Ca1 O11 2.385185 1_565
Ca1 O13 2.386088 1_455
Ca1 O1 2.393931 1_565
Ca1 O0 2.448405 1_554
Ca1 O9 2.600850 1_565
Ca1 O6 2.601874 1_555
Ca1 O10 2.614370 1_454
Ca1 O12 2.614736 1_564
Ca2 O8 2.299573 1_555
Ca2 O5 2.315517 1_555
Ca2 O2 2.381174 1_555
Ca2 O10 2.435489 1_555
Ca2 O4 2.450544 1_556
Ca2 O6 2.573565 1_556
Ca3 O9 2.299793 1_555
Ca3 O4 2.315256 1_555
Ca3 O3 2.381393 1_555
Ca3 O11 2.435754 1_555
Ca3 O5 2.450532 1_555
Ca3 O7 2.573598 1_555
Ca4 O7 2.299207 1_555
Ca4 O2 2.316045 1_555
Ca4 O5 2.381049 1_655
Ca4 O12 2.435611 1_655
Ca4 O3 2.451234 1_656
Ca4 O9 2.575362 1_556
Ca5 O6 2.299142 1_555
Ca5 O3 2.315970 1_555
Ca5 O4 2.380900 1_455
Ca5 O13 2.435315 1_455
Ca5 O2 2.452025 1_455
Ca5 O8 2.575251 1_555
Cr0 O7 1.906950 1_555
Cr0 O3 1.912890 1_655
Cr0 O12 1.922733 1_654
Cr0 O1 1.937878 1_555
Cr0 O9 1.986326 1_555
Cr0 O11 2.004302 1_655
Cr1 O6 1.906829 1_556
Cr1 O2 1.912528 1_455
Cr1 O13 1.922771 1_455
Cr1 O0 1.937727 1_555
Cr1 O8 1.986324 1_555
Cr1 O10 2.004469 1_455
Cr2 O9 1.905754 1_556
Cr2 O5 1.912800 1_555
Cr2 O11 1.922523 1_555
Cr2 O0 1.940946 1_545
Cr2 O7 1.985383 1_555
Cr2 O12 2.003590 1_555
Cr3 O8 1.905950 1_555
Cr3 O4 1.912841 1_555
Cr3 O10 1.922371 1_554
Cr3 O1 1.940944 1_565
Cr3 O6 1.985312 1_555
Cr3 O13 2.003447 1_555
