# generated using pymatgen
data_Li12CrNi3P4(CO7)4
_symmetry_space_group_name_H-M   'P 1'
_cell_length_a   6.44219000
_cell_length_b   8.43585600
_cell_length_c   9.98064216
_cell_angle_alpha   85.28104301
_cell_angle_beta   90.00000000
_cell_angle_gamma   90.00000000
_symmetry_Int_Tables_number   1
_chemical_formula_structural   Li12CrNi3P4(CO7)4
_chemical_formula_sum   'Li12 Cr1 Ni3 P4 C4 O28'
_cell_volume   540.56324050
_cell_formula_units_Z   1
loop_
 _symmetry_equiv_pos_site_id
 _symmetry_equiv_pos_as_xyz
  1  'x, y, z'
loop_
 _atom_site_type_symbol
 _atom_site_label
 _atom_site_symmetry_multiplicity
 _atom_site_fract_x
 _atom_site_fract_y
 _atom_site_fract_z
 _atom_site_occupancy
  Li  Li0  1  0.00000000  0.89656800  0.61891700  1
  Li  Li1  1  0.00000000  0.90403300  0.11585100  1
  Li  Li2  1  0.22920800  0.72449100  0.87540300  1
  Li  Li3  1  0.77079200  0.72449100  0.87540300  1
  Li  Li4  1  0.22788100  0.72488900  0.37560300  1
  Li  Li5  1  0.77211900  0.72488900  0.37560300  1
  Li  Li6  1  0.73080900  0.27550600  0.62801200  1
  Li  Li7  1  0.26919100  0.27550600  0.62801200  1
  Li  Li8  1  0.72977600  0.27519800  0.12258400  1
  Li  Li9  1  0.27022400  0.27519800  0.12258400  1
  Li  Li10  1  0.50000000  0.09862100  0.88335700  1
  Li  Li11  1  0.50000000  0.09734900  0.38351900  1
  Cr  Cr0  1  0.00000000  0.33452400  0.39218200  1
  Ni  Ni0  1  0.50000000  0.66724100  0.60485000  1
  Ni  Ni1  1  0.50000000  0.66883200  0.10225500  1
  Ni  Ni2  1  0.00000000  0.33422100  0.89737600  1
  P  P0  1  0.00000000  0.58584800  0.64253600  1
  P  P1  1  0.00000000  0.59071700  0.13623500  1
  P  P2  1  0.50000000  0.41526000  0.86079300  1
  P  P3  1  0.50000000  0.41653400  0.35998000  1
  C  C0  1  0.50000000  0.96046800  0.64922800  1
  C  C1  1  0.50000000  0.96091500  0.14902500  1
  C  C2  1  0.00000000  0.04079800  0.85068800  1
  C  C3  1  0.00000000  0.02886900  0.35196200  1
  O  O0  1  0.50000000  0.92375300  0.52564500  1
  O  O1  1  0.00000000  0.89456600  0.82018800  1
  O  O2  1  0.50000000  0.92553300  0.02536300  1
  O  O3  1  0.50000000  0.84459700  0.74400800  1
  O  O4  1  0.00000000  0.88421300  0.31702800  1
  O  O5  1  0.50000000  0.84420200  0.24323200  1
  O  O6  1  0.18734900  0.68978700  0.59019500  1
  O  O7  1  0.81265100  0.68978700  0.59019500  1
  O  O8  1  0.18794200  0.69224300  0.08159700  1
  O  O9  1  0.81205800  0.69224300  0.08159700  1
  O  O10  1  0.50000000  0.58143200  0.91437200  1
  O  O11  1  0.00000000  0.56476500  0.79972500  1
  O  O12  1  0.50000000  0.58171300  0.41547900  1
  O  O13  1  0.00000000  0.57739600  0.29235400  1
  O  O14  1  0.50000000  0.43718000  0.70366700  1
  O  O15  1  0.00000000  0.41901600  0.58976900  1
  O  O16  1  0.50000000  0.43902800  0.20324300  1
  O  O17  1  0.00000000  0.41987000  0.08828500  1
  O  O18  1  0.31270900  0.31004700  0.91217400  1
  O  O19  1  0.68729100  0.31004700  0.91217400  1
  O  O20  1  0.68625100  0.31049000  0.41152300  1
  O  O21  1  0.31374900  0.31049000  0.41152300  1
  O  O22  1  0.00000000  0.15763300  0.75629400  1
  O  O23  1  0.50000000  0.10746600  0.67970500  1
  O  O24  1  0.00000000  0.14656900  0.25770100  1
  O  O25  1  0.00000000  0.07776100  0.97443500  1
  O  O26  1  0.50000000  0.10775600  0.18043300  1
  O  O27  1  0.00000000  0.05945100  0.47614000  1
loop_
_geom_bond_atom_site_label_1
_geom_bond_atom_site_label_2
_geom_bond_distance
_geom_bond_site_symmetry_2
Li0 O27 1.896446 1_565
Li0 O1 2.007495 1_555
Li0 O7 2.159628 1_455
Li0 O6 2.159628 1_555
Li1 O25 1.949254 1_564
Li1 O4 2.001070 1_555
Li1 O9 2.208022 1_455
Li1 O8 2.208022 1_555
Li2 O8 2.070680 1_556
Li2 O1 2.100570 1_555
Li2 O10 2.138627 1_555
Li2 O11 2.175744 1_555
Li2 O3 2.360295 1_555
Li3 O9 2.070680 1_556
Li3 O1 2.100570 1_655
Li3 O10 2.138627 1_555
Li3 O11 2.175744 1_655
Li3 O3 2.360295 1_555
Li4 O4 2.043061 1_555
Li4 O13 2.136292 1_555
Li4 O12 2.147387 1_555
Li4 O6 2.153759 1_555
Li4 O5 2.369146 1_555
Li5 O4 2.043061 1_655
Li5 O13 2.136292 1_655
Li5 O12 2.147387 1_555
Li5 O7 2.153759 1_555
Li5 O5 2.369146 1_555
Li6 O23 2.089556 1_555
Li6 O15 2.131352 1_655
Li6 O20 2.175591 1_555
Li6 O14 2.193314 1_555
Li6 O22 2.329360 1_655
Li7 O23 2.089556 1_555
Li7 O15 2.131352 1_555
Li7 O21 2.175591 1_555
Li7 O14 2.193314 1_555
Li7 O22 2.329360 1_555
Li8 O26 2.094169 1_555
Li8 O19 2.114206 1_554
Li8 O17 2.137383 1_655
Li8 O16 2.220891 1_555
Li8 O24 2.405362 1_655
Li9 O26 2.094169 1_555
Li9 O18 2.114206 1_554
Li9 O17 2.137383 1_555
Li9 O16 2.220891 1_555
Li9 O24 2.405362 1_555
Li10 O2 1.949433 1_546
Li10 O23 2.027803 1_555
Li10 O19 2.191804 1_555
Li10 O18 2.191804 1_555
Li11 O0 1.953185 1_545
Li11 O26 2.021600 1_555
Li11 O20 2.198495 1_555
Li11 O21 2.198495 1_555
Cr0 O20 2.038947 1_455
Cr0 O21 2.038947 1_555
Cr0 O15 2.151340 1_555
Cr0 O24 2.160019 1_555
Cr0 O13 2.203304 1_555
Cr0 O27 2.401425 1_555
Ni0 O7 2.027269 1_555
Ni0 O6 2.027269 1_555
Ni0 O12 2.077789 1_555
Ni0 O14 2.103407 1_555
Ni0 O3 2.123528 1_555
Ni0 O0 2.241856 1_555
Ni1 O9 2.028859 1_555
Ni1 O8 2.028859 1_555
Ni1 O10 2.070612 1_554
Ni1 O16 2.110109 1_555
Ni1 O5 2.123881 1_555
Ni1 O2 2.237157 1_555
Ni2 O19 2.028985 1_455
Ni2 O18 2.028985 1_555
Ni2 O17 2.092626 1_556
Ni2 O11 2.102474 1_555
Ni2 O22 2.132361 1_555
Ni2 O25 2.235687 1_555
C0 O0 1.296207 1_555
C0 O23 1.300893 1_565
C0 O3 1.303135 1_555
C1 O2 1.293451 1_555
C1 O26 1.302538 1_565
C1 O5 1.304274 1_555
C2 O1 1.294682 1_545
C2 O25 1.298462 1_555
C2 O22 1.306220 1_555
C3 O27 1.286553 1_555
C3 O4 1.296417 1_545
C3 O24 1.310433 1_555
O6 P0 1.556610 1_555
O7 P0 1.556610 1_655
O8 P1 1.555631 1_555
O9 P1 1.555631 1_655
O10 P2 1.540893 1_555
O11 P0 1.564290 1_555
O12 P3 1.541251 1_555
O13 P1 1.552967 1_555
O14 P2 1.563902 1_555
O15 P0 1.542726 1_555
O16 P3 1.560228 1_555
O17 P1 1.555536 1_555
O18 P2 1.559376 1_555
O19 P2 1.559376 1_555
O20 P3 1.558478 1_555
O21 P3 1.558478 1_555
