# generated using pymatgen
data_Na2PtO6
_symmetry_space_group_name_H-M   'P 1'
_cell_length_a   6.03799678
_cell_length_b   6.03799678
_cell_length_c   3.85707308
_cell_angle_alpha   81.52783701
_cell_angle_beta   81.52783701
_cell_angle_gamma   116.74433532
_symmetry_Int_Tables_number   1
_chemical_formula_structural   Na2PtO6
_chemical_formula_sum   'Na2 Pt1 O6'
_cell_volume   120.51813768
_cell_formula_units_Z   1
loop_
 _symmetry_equiv_pos_site_id
 _symmetry_equiv_pos_as_xyz
  1  'x, y, z'
loop_
 _atom_site_type_symbol
 _atom_site_label
 _atom_site_symmetry_multiplicity
 _atom_site_fract_x
 _atom_site_fract_y
 _atom_site_fract_z
 _atom_site_occupancy
  Na  Na0  1  0.65601100  0.34398900  0.50000000  1
  Na  Na1  1  0.34398900  0.65601100  0.50000000  1
  Pt  Pt0  1  0.00000000  0.00000000  0.50000000  1
  O  O0  1  0.91619100  0.21617000  0.82045400  1
  O  O1  1  0.21617000  0.91619100  0.82045400  1
  O  O2  1  0.69586200  0.69586200  0.73409800  1
  O  O3  1  0.08380900  0.78383000  0.17954600  1
  O  O4  1  0.78383000  0.08380900  0.17954600  1
  O  O5  1  0.30413800  0.30413800  0.26590200  1
loop_
_geom_bond_atom_site_label_1
_geom_bond_atom_site_label_2
_geom_bond_distance
_geom_bond_site_symmetry_2
Na0 O5 2.357184 1_555
Na0 O2 2.357184 1_555
Na0 O0 2.444089 1_555
Na0 O4 2.444089 1_555
Na0 O1 2.677841 1_545
Na0 O3 2.677841 1_655
Na1 O5 2.357184 1_555
Na1 O2 2.357184 1_555
Na1 O1 2.444089 1_555
Na1 O3 2.444089 1_555
Na1 O4 2.677841 1_565
Na1 O0 2.677841 1_455
O0 O4 1.403066 1_556
O0 Pt0 2.091165 1_655
O1 O3 1.403066 1_556
O1 Pt0 2.091165 1_565
O2 Pt0 1.883506 1_665
O3 Pt0 2.091165 1_565
O4 Pt0 2.091165 1_655
O5 Pt0 1.883506 1_555
