# generated using pymatgen
data_Ca6Ag3Ge5
_symmetry_space_group_name_H-M   'P 1'
_cell_length_a   5.89910308
_cell_length_b   5.89910308
_cell_length_c   14.36643321
_cell_angle_alpha   71.67937850
_cell_angle_beta   71.67937850
_cell_angle_gamma   45.12665017
_symmetry_Int_Tables_number   1
_chemical_formula_structural   Ca6Ag3Ge5
_chemical_formula_sum   'Ca6 Ag3 Ge5'
_cell_volume   333.13725061
_cell_formula_units_Z   1
loop_
 _symmetry_equiv_pos_site_id
 _symmetry_equiv_pos_as_xyz
  1  'x, y, z'
loop_
 _atom_site_type_symbol
 _atom_site_label
 _atom_site_symmetry_multiplicity
 _atom_site_fract_x
 _atom_site_fract_y
 _atom_site_fract_z
 _atom_site_occupancy
  Ca  Ca0  1  0.26182383  0.26182383  0.72564121  1
  Ca  Ca1  1  0.74036154  0.74036154  0.27278634  1
  Ca  Ca2  1  0.46167606  0.46167606  0.88338371  1
  Ca  Ca3  1  0.53615597  0.53615597  0.11928916  1
  Ca  Ca4  1  0.60372908  0.60372908  0.57598586  1
  Ca  Ca5  1  0.39803516  0.39803516  0.42267534  1
  Ag  Ag0  1  0.76545036  0.76545036  0.89049784  1
  Ag  Ag1  1  0.24579278  0.24579278  0.11301021  1
  Ag  Ag2  1  0.11834983  0.11834983  0.95753848  1
  Ge  Ge0  1  0.89724595  0.89724595  0.57331306  1
  Ge  Ge1  1  0.10681606  0.10681606  0.42355735  1
  Ge  Ge2  1  0.97310765  0.97310765  0.72340229  1
  Ge  Ge3  1  0.02776056  0.02776056  0.27387255  1
  Ge  Ge4  1  0.86369417  0.86369417  0.04504360  1
loop_
_geom_bond_atom_site_label_1
_geom_bond_atom_site_label_2
_geom_bond_distance
_geom_bond_site_symmetry_2
Ca0 Ge0 3.145062 1_455
Ca0 Ge0 3.145062 1_545
Ca0 Ge2 3.156692 1_445
Ca0 Ge2 3.220737 1_455
Ca0 Ge2 3.220737 1_545
Ca1 Ge4 3.085059 1_555
Ca1 Ge1 3.128371 1_565
Ca1 Ge1 3.128371 1_655
Ca1 Ge3 3.136594 1_665
Ca1 Ge3 3.234877 1_655
Ca1 Ge3 3.234877 1_565
Ca2 Ge4 3.157394 1_546
Ca2 Ge4 3.157394 1_456
Ca2 Ge2 3.197904 1_545
Ca2 Ge2 3.197904 1_455
Ca3 Ge3 3.150486 1_565
Ca3 Ge3 3.150486 1_655
Ca3 Ge4 3.340098 1_455
Ca3 Ge4 3.340098 1_545
Ca3 Ge4 3.358736 1_555
Ca4 Ge2 3.095517 1_545
Ca4 Ge2 3.095517 1_455
Ca4 Ge1 3.141645 1_655
Ca4 Ge1 3.141645 1_565
Ca4 Ge0 3.185037 1_555
Ca4 Ge0 3.200739 1_545
Ca4 Ge0 3.200739 1_455
Ca5 Ge3 3.103902 1_565
Ca5 Ge3 3.103902 1_655
Ca5 Ge0 3.129590 1_455
Ca5 Ge0 3.129590 1_545
Ca5 Ge1 3.168578 1_555
Ca5 Ge1 3.212086 1_655
Ca5 Ge1 3.212086 1_565
Ag0 Ge2 2.680297 1_555
Ag0 Ag2 2.751153 1_565
Ag0 Ag2 2.751153 1_655
Ag0 Ge4 2.773663 1_556
Ag0 Ca2 3.091247 1_655
Ag0 Ca2 3.091247 1_565
Ag0 Ca0 3.286043 1_655
Ag0 Ca0 3.286043 1_565
Ag0 Ca2 3.345829 1_555
Ag0 Ca3 3.384475 1_556
Ag1 Ge4 2.621659 1_545
Ag1 Ge4 2.621659 1_455
Ag1 Ge3 2.691917 1_555
Ag1 Ag2 3.004684 1_554
Ag1 Ca3 3.195012 1_455
Ag1 Ca3 3.195012 1_545
Ag1 Ca3 3.195374 1_555
Ag1 Ca1 3.209897 1_545
Ag1 Ca1 3.209897 1_455
Ag1 Ca2 3.336575 1_554
Ag2 Ge4 2.627502 1_446
Ag2 Ca3 3.147809 1_456
Ag2 Ca3 3.147809 1_546
Ag2 Ca0 3.161852 1_555
Ag2 Ca2 3.226487 1_455
Ag2 Ca2 3.226487 1_545
Ag2 Ca2 3.523352 1_555
Ge0 Ge1 2.549104 1_665
Ge0 Ge2 2.558479 1_555
Ge1 Ge3 2.574334 1_555
