# generated using pymatgen
data_Ac3Zr
_symmetry_space_group_name_H-M   'P 1'
_cell_length_a   6.54186951
_cell_length_b   6.54186951
_cell_length_c   6.54186951
_cell_angle_alpha   131.93648757
_cell_angle_beta   131.93648757
_cell_angle_gamma   70.32935637
_symmetry_Int_Tables_number   1
_chemical_formula_structural   Ac3Zr
_chemical_formula_sum   'Ac3 Zr1'
_cell_volume   151.83102035
_cell_formula_units_Z   1
loop_
 _symmetry_equiv_pos_site_id
 _symmetry_equiv_pos_as_xyz
  1  'x, y, z'
loop_
 _atom_site_type_symbol
 _atom_site_label
 _atom_site_symmetry_multiplicity
 _atom_site_fract_x
 _atom_site_fract_y
 _atom_site_fract_z
 _atom_site_occupancy
  Ac  Ac0  1  0.75000000  0.25000000  0.50000000  1
  Ac  Ac1  1  0.25000000  0.75000000  0.50000000  1
  Ac  Ac2  1  0.50000000  0.50000000  0.00000000  1
  Zr  Zr0  1  0.00000000  0.00000000  0.00000000  1
loop_
_geom_bond_atom_site_label_1
_geom_bond_atom_site_label_2
_geom_bond_distance
_geom_bond_site_symmetry_2
Ac0 Ac1 3.767649 1_544
Ac0 Ac1 3.767649 1_656
Ac0 Ac1 3.767649 1_555
Ac0 Ac1 3.767649 1_645
Ac0 Ac2 3.774627 1_656
Ac0 Ac2 3.774627 1_555
Ac0 Zr0 3.774627 1_656
Ac0 Zr0 3.774627 1_655
Ac0 Ac2 3.774627 1_556
Ac0 Zr0 3.774627 1_666
Ac0 Ac2 3.774627 1_545
Ac0 Zr0 3.774627 1_555
Ac1 Zr0 3.774627 1_565
Ac1 Ac2 3.774627 1_555
Ac1 Ac2 3.774627 1_556
Ac1 Zr0 3.774627 1_566
Ac1 Zr0 3.774627 1_666
Ac1 Ac2 3.774627 1_455
Ac1 Ac2 3.774627 1_566
Ac1 Zr0 3.774627 1_555
Ac2 Zr0 3.767649 1_554
Ac2 Zr0 3.767649 1_565
Ac2 Zr0 3.767649 1_655
Ac2 Zr0 3.767649 1_666
