# generated using pymatgen
data_Ag2H8C2S2N5ClO3
_symmetry_space_group_name_H-M   'P 1'
_cell_length_a   6.53473300
_cell_length_b   7.88953820
_cell_length_c   12.09124383
_cell_angle_alpha   82.47973818
_cell_angle_beta   82.76580382
_cell_angle_gamma   77.40187849
_symmetry_Int_Tables_number   1
_chemical_formula_structural   Ag2H8C2S2N5ClO3
_chemical_formula_sum   'Ag4 H16 C4 S4 N10 Cl2 O6'
_cell_volume   600.07257519
_cell_formula_units_Z   2
loop_
 _symmetry_equiv_pos_site_id
 _symmetry_equiv_pos_as_xyz
  1  'x, y, z'
loop_
 _atom_site_type_symbol
 _atom_site_label
 _atom_site_symmetry_multiplicity
 _atom_site_fract_x
 _atom_site_fract_y
 _atom_site_fract_z
 _atom_site_occupancy
  Ag  Ag0  1  0.57504600  0.66732800  0.06484600  1
  Ag  Ag1  1  0.42495400  0.33267200  0.93515400  1
  Ag  Ag2  1  0.01176100  0.62759100  0.84506700  1
  Ag  Ag3  1  0.98823900  0.37240900  0.15493300  1
  H  H0  1  0.26727700  0.58387000  0.26061700  1
  H  H1  1  0.73272300  0.41613000  0.73938300  1
  H  H2  1  0.51222800  0.02589900  0.64524400  1
  H  H3  1  0.48777200  0.97410100  0.35475600  1
  H  H4  1  0.23053300  0.00731200  0.31449800  1
  H  H5  1  0.76946700  0.99268800  0.68550200  1
  H  H6  1  0.75435600  0.29943000  0.42894200  1
  H  H7  1  0.24564400  0.70057000  0.57105800  1
  H  H8  1  0.76247400  0.02392900  0.22607800  1
  H  H9  1  0.23752600  0.97607100  0.77392200  1
  H  H10  1  0.71440100  0.11665300  0.08888300  1
  H  H11  1  0.28559900  0.88334700  0.91111700  1
  H  H12  1  0.49833200  0.25447800  0.45982600  1
  H  H13  1  0.50166800  0.74552200  0.54017400  1
  H  H14  1  0.22110700  0.42491500  0.37202600  1
  H  H15  1  0.77889300  0.57508500  0.62797400  1
  C  C0  1  0.45311000  0.07488400  0.19225000  1
  C  C1  1  0.54689000  0.92511600  0.80775000  1
  C  C2  1  0.52899400  0.45019700  0.33396000  1
  C  C3  1  0.47100600  0.54980300  0.66604000  1
  S  S0  1  0.29864200  0.42873200  0.74576500  1
  S  S1  1  0.70135800  0.57126800  0.25423500  1
  S  S2  1  0.27752600  0.13863900  0.08973200  1
  S  S3  1  0.72247400  0.86136100  0.91026800  1
  N  N0  1  0.12041100  0.16796700  0.55918300  1
  N  N1  1  0.87958900  0.83203300  0.44081700  1
  N  N2  1  0.65823200  0.07291500  0.16746200  1
  N  N3  1  0.34176800  0.92708500  0.83253800  1
  N  N4  1  0.38296300  0.01989900  0.29565200  1
  N  N5  1  0.61703700  0.98010100  0.70434800  1
  N  N6  1  0.60079200  0.32385300  0.41216000  1
  N  N7  1  0.39920800  0.67614700  0.58784000  1
  N  N8  1  0.32432200  0.48899700  0.32103200  1
  N  N9  1  0.67567800  0.51100300  0.67896800  1
  Cl  Cl0  1  0.18331600  0.65999500  0.05749200  1
  Cl  Cl1  1  0.81668400  0.34000500  0.94250800  1
  O  O0  1  0.31970900  0.11489200  0.54157700  1
  O  O1  1  0.68029100  0.88510800  0.45842300  1
  O  O2  1  0.02618300  0.28121900  0.48822300  1
  O  O3  1  0.97381700  0.71878100  0.51177700  1
  O  O4  1  0.02179100  0.10671100  0.64661300  1
  O  O5  1  0.97820900  0.89328900  0.35338700  1
loop_
_geom_bond_atom_site_label_1
_geom_bond_atom_site_label_2
_geom_bond_distance
_geom_bond_site_symmetry_2
Ag0 S3 2.491149 1_554
Ag0 S1 2.499686 1_555
Ag0 Cl0 2.585994 1_555
Ag0 Cl1 3.159622 1_554
Ag1 S2 2.491149 1_556
Ag1 S0 2.499686 1_555
Ag1 Cl1 2.585994 1_555
Ag1 Cl0 3.159622 1_556
Ag2 S0 2.461857 1_555
Ag2 S3 2.465987 1_455
Ag2 Cl1 2.888755 1_455
Ag2 Cl0 2.990207 1_556
Ag3 S1 2.461857 1_555
Ag3 S2 2.465987 1_655
Ag3 Cl0 2.888755 1_655
Ag3 Cl1 2.990207 1_554
H0 N8 1.018127 1_555
H1 N9 1.018127 1_555
H2 N5 1.028631 1_545
H3 N4 1.028631 1_565
H4 N4 1.016879 1_555
H5 N5 1.016879 1_555
H6 N6 1.020791 1_555
H7 N7 1.020791 1_555
H8 N2 1.025062 1_555
H9 N3 1.025062 1_555
H10 N2 1.018885 1_555
H11 N3 1.018885 1_555
H12 N6 1.029634 1_555
H13 N7 1.029634 1_555
H14 N8 1.026219 1_555
H15 N9 1.026219 1_555
C0 N4 1.327365 1_555
C0 N2 1.333322 1_555
C0 S2 1.746222 1_555
C1 N5 1.327365 1_555
C1 N3 1.333322 1_555
C1 S3 1.746222 1_555
C2 N8 1.329855 1_555
C2 N6 1.329955 1_555
C2 S1 1.750762 1_555
C3 N9 1.329855 1_555
C3 N7 1.329955 1_555
C3 S0 1.750762 1_555
N0 O4 1.263716 1_555
N0 O2 1.267300 1_555
N0 O0 1.277660 1_555
N1 O5 1.263716 1_555
N1 O3 1.267300 1_555
N1 O1 1.277660 1_555
