# generated using pymatgen
data_Ho2(B2Rh3)3
_symmetry_space_group_name_H-M   'P 1'
_cell_length_a   5.55871394
_cell_length_b   5.55871394
_cell_length_c   8.52515636
_cell_angle_alpha   90.00000000
_cell_angle_beta   90.00000000
_cell_angle_gamma   119.99999765
_symmetry_Int_Tables_number   1
_chemical_formula_structural   Ho2(B2Rh3)3
_chemical_formula_sum   'Ho2 B6 Rh9'
_cell_volume   228.12960360
_cell_formula_units_Z   1
loop_
 _symmetry_equiv_pos_site_id
 _symmetry_equiv_pos_as_xyz
  1  'x, y, z'
loop_
 _atom_site_type_symbol
 _atom_site_label
 _atom_site_symmetry_multiplicity
 _atom_site_fract_x
 _atom_site_fract_y
 _atom_site_fract_z
 _atom_site_occupancy
  Ho  Ho0  1  0.00000000  0.00000000  0.70542904  1
  Ho  Ho1  1  -0.00000000  0.00000000  0.29457096  1
  B  B0  1  0.66666700  0.33333300  -0.00000000  1
  B  B1  1  0.33333300  0.66666700  -0.00000000  1
  B  B2  1  0.66666700  0.33333300  0.66762769  1
  B  B3  1  0.33333300  0.66666700  0.66762769  1
  B  B4  1  0.33333300  0.66666700  0.33237231  1
  B  B5  1  0.66666700  0.33333300  0.33237231  1
  Rh  Rh0  1  0.50000000  0.50000000  0.83566178  1
  Rh  Rh1  1  0.50000000  0.00000000  0.83566178  1
  Rh  Rh2  1  0.00000000  0.50000000  0.83566178  1
  Rh  Rh3  1  0.50000000  0.50000000  0.16433822  1
  Rh  Rh4  1  0.50000000  0.00000000  0.16433822  1
  Rh  Rh5  1  -0.00000000  0.50000000  0.16433822  1
  Rh  Rh6  1  0.50000000  0.50000000  0.50000000  1
  Rh  Rh7  1  0.50000000  0.00000000  0.50000000  1
  Rh  Rh8  1  0.00000000  0.50000000  0.50000000  1
loop_
_geom_bond_atom_site_label_1
_geom_bond_atom_site_label_2
_geom_bond_distance
_geom_bond_site_symmetry_2
Ho0 Rh1 2.992907 1_555
Ho0 Rh1 2.992907 1_455
Ho0 Rh2 2.992907 1_545
Ho0 Rh2 2.992907 1_555
Ho0 Rh0 2.992907 1_445
Ho0 Rh0 2.992907 1_555
Ho1 Rh4 2.992907 1_555
Ho1 Rh4 2.992907 1_455
Ho1 Rh5 2.992907 1_545
Ho1 Rh5 2.992907 1_555
Ho1 Rh3 2.992907 1_445
Ho1 Rh3 2.992907 1_555
B0 Rh5 2.130203 1_655
B0 Rh4 2.130203 1_555
B0 Rh2 2.130203 1_654
B0 Rh1 2.130203 1_554
B0 Rh0 2.130206 1_554
B0 Rh3 2.130206 1_555
B1 Rh2 2.130203 1_554
B1 Rh1 2.130203 1_564
B1 Rh5 2.130203 1_555
B1 Rh4 2.130203 1_565
B1 Rh0 2.130206 1_554
B1 Rh3 2.130206 1_555
B2 Rh8 2.148750 1_655
B2 Rh7 2.148750 1_555
B2 Rh6 2.148754 1_555
B2 Rh1 2.151056 1_555
B2 Rh2 2.151056 1_655
B2 Rh0 2.151059 1_555
B3 Rh8 2.148750 1_555
B3 Rh7 2.148750 1_565
B3 Rh6 2.148754 1_555
B3 Rh1 2.151056 1_565
B3 Rh2 2.151056 1_555
B3 Rh0 2.151059 1_555
B4 Rh8 2.148750 1_555
B4 Rh7 2.148750 1_565
B4 Rh6 2.148754 1_555
B4 Rh5 2.151056 1_555
B4 Rh4 2.151056 1_565
B4 Rh3 2.151059 1_555
B5 Rh8 2.148750 1_655
B5 Rh7 2.148750 1_555
B5 Rh6 2.148754 1_555
B5 Rh4 2.151056 1_555
B5 Rh5 2.151056 1_655
B5 Rh3 2.151059 1_555
