# generated using pymatgen
data_Tb4MgGe4
_symmetry_space_group_name_H-M   'P 1'
_cell_length_a   7.26971700
_cell_length_b   7.82101000
_cell_length_c   14.66667300
_cell_angle_alpha   90.00000000
_cell_angle_beta   90.00000000
_cell_angle_gamma   90.00000000
_symmetry_Int_Tables_number   1
_chemical_formula_structural   Tb4MgGe4
_chemical_formula_sum   'Tb16 Mg4 Ge16'
_cell_volume   833.89612395
_cell_formula_units_Z   4
loop_
 _symmetry_equiv_pos_site_id
 _symmetry_equiv_pos_as_xyz
  1  'x, y, z'
loop_
 _atom_site_type_symbol
 _atom_site_label
 _atom_site_symmetry_multiplicity
 _atom_site_fract_x
 _atom_site_fract_y
 _atom_site_fract_z
 _atom_site_occupancy
  Tb  Tb0  1  0.32968500  0.17821600  0.62712200  1
  Tb  Tb1  1  0.67031500  0.82178400  0.37287800  1
  Tb  Tb2  1  0.17031500  0.67821600  0.37287800  1
  Tb  Tb3  1  0.67031500  0.82178400  0.12712200  1
  Tb  Tb4  1  0.82968500  0.32178400  0.62712200  1
  Tb  Tb5  1  0.32968500  0.17821600  0.87287800  1
  Tb  Tb6  1  0.82968500  0.32178400  0.87287800  1
  Tb  Tb7  1  0.17031500  0.67821600  0.12712200  1
  Tb  Tb8  1  0.01185800  0.18307400  0.09559800  1
  Tb  Tb9  1  0.98814200  0.81692600  0.90440200  1
  Tb  Tb10  1  0.48814200  0.68307400  0.90440200  1
  Tb  Tb11  1  0.98814200  0.81692600  0.59559800  1
  Tb  Tb12  1  0.51185800  0.31692600  0.09559800  1
  Tb  Tb13  1  0.01185800  0.18307400  0.40440200  1
  Tb  Tb14  1  0.51185800  0.31692600  0.40440200  1
  Tb  Tb15  1  0.48814200  0.68307400  0.59559800  1
  Mg  Mg0  1  0.15980000  0.51889600  0.75000000  1
  Mg  Mg1  1  0.84020000  0.48110400  0.25000000  1
  Mg  Mg2  1  0.34020000  0.01889600  0.25000000  1
  Mg  Mg3  1  0.65980000  0.98110400  0.75000000  1
  Ge  Ge0  1  0.28620800  0.86277900  0.75000000  1
  Ge  Ge1  1  0.71379200  0.13722100  0.25000000  1
  Ge  Ge2  1  0.21379200  0.36277900  0.25000000  1
  Ge  Ge3  1  0.78620800  0.63722100  0.75000000  1
  Ge  Ge4  1  0.02290800  0.08805600  0.75000000  1
  Ge  Ge5  1  0.97709200  0.91194400  0.25000000  1
  Ge  Ge6  1  0.47709200  0.58805600  0.25000000  1
  Ge  Ge7  1  0.52290800  0.41194400  0.75000000  1
  Ge  Ge8  1  0.16882500  0.46643900  0.53595900  1
  Ge  Ge9  1  0.83117500  0.53356100  0.46404100  1
  Ge  Ge10  1  0.33117500  0.96643900  0.46404100  1
  Ge  Ge11  1  0.83117500  0.53356100  0.03595900  1
  Ge  Ge12  1  0.66882500  0.03356100  0.53595900  1
  Ge  Ge13  1  0.16882500  0.46643900  0.96404100  1
  Ge  Ge14  1  0.66882500  0.03356100  0.96404100  1
  Ge  Ge15  1  0.33117500  0.96643900  0.03595900  1
loop_
_geom_bond_atom_site_label_1
_geom_bond_atom_site_label_2
_geom_bond_distance
_geom_bond_site_symmetry_2
Ge0 Ge4 2.601559 1_565
Ge0 Mg0 2.842173 1_555
Ge0 Mg3 2.869244 1_555
Ge0 Tb10 3.042801 1_555
Ge0 Tb15 3.042801 1_555
Ge0 Tb5 3.071503 1_565
Ge0 Tb0 3.071503 1_565
Ge0 Tb9 3.154698 1_455
Ge0 Tb11 3.154698 1_455
Ge1 Ge5 2.601559 1_545
Ge1 Mg1 2.842173 1_555
Ge1 Mg2 2.869244 1_555
Ge1 Tb14 3.042801 1_555
Ge1 Tb12 3.042801 1_555
Ge1 Tb1 3.071503 1_545
Ge1 Tb3 3.071503 1_545
Ge1 Tb13 3.154698 1_655
Ge1 Tb8 3.154698 1_655
Ge2 Ge6 2.601559 1_555
Ge2 Mg2 2.842173 1_555
Ge2 Mg1 2.869244 1_455
Ge2 Tb8 3.042801 1_555
Ge2 Tb13 3.042801 1_555
Ge2 Tb2 3.071503 1_555
Ge2 Tb7 3.071503 1_555
Ge2 Tb14 3.154698 1_555
Ge2 Tb12 3.154698 1_555
Ge3 Ge7 2.601559 1_555
Ge3 Mg3 2.842173 1_555
Ge3 Mg0 2.869244 1_655
Ge3 Tb9 3.042801 1_555
Ge3 Tb11 3.042801 1_555
Ge3 Tb6 3.071503 1_555
Ge3 Tb4 3.071503 1_555
Ge3 Tb10 3.154698 1_555
Ge3 Tb15 3.154698 1_555
Ge4 Mg3 2.769054 1_445
Ge4 Tb6 2.926197 1_455
Ge4 Tb4 2.926197 1_455
Ge4 Tb5 2.952779 1_555
Ge4 Tb0 2.952779 1_555
Ge4 Tb9 3.112666 1_445
Ge4 Tb11 3.112666 1_445
Ge5 Mg2 2.769054 1_665
Ge5 Tb2 2.926197 1_655
Ge5 Tb7 2.926197 1_655
Ge5 Tb1 2.952779 1_555
Ge5 Tb3 2.952779 1_555
Ge5 Tb13 3.112666 1_665
Ge5 Tb8 3.112666 1_665
Ge6 Mg1 2.769054 1_555
Ge6 Tb1 2.926197 1_555
Ge6 Tb3 2.926197 1_555
Ge6 Tb2 2.952779 1_555
Ge6 Tb7 2.952779 1_555
Ge6 Tb14 3.112666 1_555
Ge6 Tb12 3.112666 1_555
Ge7 Mg0 2.769054 1_555
Ge7 Tb5 2.926197 1_555
Ge7 Tb0 2.926197 1_555
Ge7 Tb6 2.952779 1_555
Ge7 Tb4 2.952779 1_555
Ge7 Tb10 3.112666 1_555
Ge7 Tb15 3.112666 1_555
Ge8 Ge9 2.722745 1_455
Ge8 Tb0 2.869953 1_555
Ge8 Tb2 2.909373 1_555
Ge8 Tb15 3.004067 1_555
Ge8 Tb4 3.024256 1_455
Ge8 Tb13 3.152245 1_555
Ge8 Tb11 3.162973 1_455
Ge8 Mg0 3.166644 1_555
Ge8 Tb14 3.362908 1_555
Ge9 Tb1 2.869953 1_555
Ge9 Tb4 2.909373 1_555
Ge9 Tb14 3.004067 1_555
Ge9 Tb2 3.024256 1_655
Ge9 Tb11 3.152245 1_555
Ge9 Tb13 3.162973 1_655
Ge9 Mg1 3.166644 1_555
Ge9 Tb15 3.362908 1_555
Ge10 Ge12 2.722745 1_565
Ge10 Tb2 2.869953 1_555
Ge10 Tb0 2.909373 1_565
Ge10 Tb13 3.004067 1_565
Ge10 Tb1 3.024256 1_555
Ge10 Tb15 3.152245 1_555
Ge10 Tb14 3.162973 1_565
Ge10 Mg2 3.166644 1_565
Ge10 Tb11 3.362908 1_455
Ge11 Ge13 2.722745 1_654
Ge11 Tb3 2.869953 1_555
Ge11 Tb6 2.909373 1_554
Ge11 Tb12 3.004067 1_555
Ge11 Tb7 3.024256 1_655
Ge11 Tb9 3.152245 1_554
Ge11 Tb8 3.162973 1_655
Ge11 Mg1 3.166644 1_555
Ge11 Tb10 3.362908 1_554
Ge12 Tb4 2.869953 1_555
Ge12 Tb1 2.909373 1_545
Ge12 Tb11 3.004067 1_545
Ge12 Tb0 3.024256 1_555
Ge12 Tb14 3.152245 1_555
Ge12 Tb15 3.162973 1_545
Ge12 Mg3 3.166644 1_545
Ge12 Tb13 3.362908 1_655
Ge13 Tb5 2.869953 1_555
Ge13 Tb7 2.909373 1_556
Ge13 Tb10 3.004067 1_555
Ge13 Tb6 3.024256 1_455
Ge13 Tb8 3.152245 1_556
Ge13 Tb9 3.162973 1_455
Ge13 Mg0 3.166644 1_555
Ge13 Tb12 3.362908 1_556
Ge14 Ge15 2.722745 1_546
Ge14 Tb6 2.869953 1_555
Ge14 Tb3 2.909373 1_546
Ge14 Tb9 3.004067 1_545
Ge14 Tb5 3.024256 1_555
Ge14 Tb12 3.152245 1_556
Ge14 Tb10 3.162973 1_545
Ge14 Mg3 3.166644 1_545
Ge14 Tb8 3.362908 1_656
Ge15 Tb7 2.869953 1_555
Ge15 Tb5 2.909373 1_564
Ge15 Tb8 3.004067 1_565
Ge15 Tb3 3.024256 1_555
Ge15 Tb10 3.152245 1_554
Ge15 Tb12 3.162973 1_565
Ge15 Mg2 3.166644 1_565
Ge15 Tb9 3.362908 1_454
