# generated using pymatgen
data_Sr3ZnRhO6
_symmetry_space_group_name_H-M   'P 1'
_cell_length_a   6.74637815
_cell_length_b   6.74637815
_cell_length_c   6.74637791
_cell_angle_alpha   91.93305495
_cell_angle_beta   91.93305495
_cell_angle_gamma   91.93306362
_symmetry_Int_Tables_number   1
_chemical_formula_structural   Sr3ZnRhO6
_chemical_formula_sum   'Sr6 Zn2 Rh2 O12'
_cell_volume   306.51575208
_cell_formula_units_Z   2
loop_
 _symmetry_equiv_pos_site_id
 _symmetry_equiv_pos_as_xyz
  1  'x, y, z'
loop_
 _atom_site_type_symbol
 _atom_site_label
 _atom_site_symmetry_multiplicity
 _atom_site_fract_x
 _atom_site_fract_y
 _atom_site_fract_z
 _atom_site_occupancy
  Sr  Sr0  1  0.61435000  0.25000000  0.88565000  1
  Sr  Sr1  1  0.88565000  0.61435000  0.25000000  1
  Sr  Sr2  1  0.75000000  0.11435000  0.38565000  1
  Sr  Sr3  1  0.38565000  0.75000000  0.11435000  1
  Sr  Sr4  1  0.11435000  0.38565000  0.75000000  1
  Sr  Sr5  1  0.25000000  0.88565000  0.61435000  1
  Zn  Zn0  1  0.25000000  0.25000000  0.25000000  1
  Zn  Zn1  1  0.75000000  0.75000000  0.75000000  1
  Rh  Rh0  1  0.00000000  0.00000000  0.00000000  1
  Rh  Rh1  1  0.50000000  0.50000000  0.50000000  1
  O  O0  1  0.59237600  0.78567500  0.45923200  1
  O  O1  1  0.45923200  0.59237600  0.78567500  1
  O  O2  1  0.78567500  0.45923200  0.59237600  1
  O  O3  1  0.90762400  0.04076800  0.71432500  1
  O  O4  1  0.71432500  0.90762400  0.04076800  1
  O  O5  1  0.04076800  0.71432500  0.90762400  1
  O  O6  1  0.40762400  0.21432500  0.54076800  1
  O  O7  1  0.54076800  0.40762400  0.21432500  1
  O  O8  1  0.21432500  0.54076800  0.40762400  1
  O  O9  1  0.09237600  0.95923200  0.28567500  1
  O  O10  1  0.95923200  0.28567500  0.09237600  1
  O  O11  1  0.28567500  0.09237600  0.95923200  1
loop_
_geom_bond_atom_site_label_1
_geom_bond_atom_site_label_2
_geom_bond_distance
_geom_bond_site_symmetry_2
O0 Rh1 2.035853 1_555
O0 Zn1 2.223761 1_555
O0 Sr2 2.498946 1_565
O0 Sr5 2.665663 1_555
O0 Sr3 2.671553 1_555
O0 Sr1 2.734165 1_555
O1 Rh1 2.035853 1_555
O1 Zn1 2.223760 1_555
O1 Sr3 2.498947 1_556
O1 Sr0 2.665663 1_555
O1 Sr4 2.671552 1_555
O1 Sr5 2.734165 1_555
O2 Rh1 2.035853 1_555
O2 Zn1 2.223761 1_555
O2 Sr4 2.498947 1_655
O2 Sr1 2.665663 1_555
O2 Sr2 2.671553 1_555
O2 Sr0 2.734165 1_555
O3 Rh0 2.035853 1_656
O3 Zn1 2.223760 1_545
O3 Sr2 2.498947 1_555
O3 Sr5 2.665663 1_645
O3 Sr4 2.671552 1_655
O3 Sr0 2.734165 1_555
O4 Rh0 2.035853 1_665
O4 Zn1 2.223761 1_554
O4 Sr3 2.498946 1_555
O4 Sr0 2.665663 1_564
O4 Sr2 2.671553 1_565
O4 Sr1 2.734165 1_555
O5 Rh0 2.035853 1_566
O5 Zn1 2.223761 1_455
O5 Sr4 2.498947 1_555
O5 Sr1 2.665663 1_456
O5 Sr3 2.671553 1_556
O5 Sr5 2.734165 1_555
O6 Rh1 2.035853 1_555
O6 Zn0 2.223761 1_555
O6 Sr5 2.498946 1_545
O6 Sr2 2.665663 1_555
O6 Sr0 2.671553 1_555
O6 Sr4 2.734165 1_555
O7 Rh1 2.035853 1_555
O7 Zn0 2.223760 1_555
O7 Sr0 2.498947 1_554
O7 Sr3 2.665663 1_555
O7 Sr1 2.671552 1_555
O7 Sr2 2.734165 1_555
O8 Rh1 2.035853 1_555
O8 Zn0 2.223761 1_555
O8 Sr1 2.498947 1_455
O8 Sr4 2.665663 1_555
O8 Sr5 2.671553 1_555
O8 Sr3 2.734165 1_555
O9 Rh0 2.035853 1_565
O9 Zn0 2.223760 1_565
O9 Sr5 2.498947 1_555
O9 Sr2 2.665663 1_465
O9 Sr1 2.671552 1_455
O9 Sr3 2.734165 1_555
O10 Rh0 2.035853 1_655
O10 Zn0 2.223761 1_655
O10 Sr1 2.498947 1_555
O10 Sr4 2.665663 1_654
O10 Sr0 2.671553 1_554
O10 Sr2 2.734165 1_555
O11 Rh0 2.035853 1_556
O11 Zn0 2.223761 1_556
O11 Sr0 2.498946 1_555
O11 Sr3 2.665663 1_546
O11 Sr5 2.671553 1_545
O11 Sr4 2.734165 1_555
