# generated using pymatgen
data_Li9Mn7O16
_symmetry_space_group_name_H-M   'P 1'
_cell_length_a   5.09404700
_cell_length_b   7.84006848
_cell_length_c   7.88336100
_cell_angle_alpha   85.76151489
_cell_angle_beta   82.43102109
_cell_angle_gamma   73.67132479
_symmetry_Int_Tables_number   1
_chemical_formula_structural   Li9Mn7O16
_chemical_formula_sum   'Li9 Mn7 O16'
_cell_volume   299.28615418
_cell_formula_units_Z   1
loop_
 _symmetry_equiv_pos_site_id
 _symmetry_equiv_pos_as_xyz
  1  'x, y, z'
loop_
 _atom_site_type_symbol
 _atom_site_label
 _atom_site_symmetry_multiplicity
 _atom_site_fract_x
 _atom_site_fract_y
 _atom_site_fract_z
 _atom_site_occupancy
  Li  Li0  1  0.50317700  0.68535200  0.94046600  1
  Li  Li1  1  0.49682300  0.31464800  0.05953400  1
  Li  Li2  1  0.47919800  0.57697300  0.29739800  1
  Li  Li3  1  0.50947200  0.18226100  0.44370600  1
  Li  Li4  1  0.52080200  0.42302700  0.70260200  1
  Li  Li5  1  0.49133300  0.05412100  0.83296700  1
  Li  Li6  1  0.50866700  0.94587900  0.16703300  1
  Li  Li7  1  0.49052800  0.81773900  0.55629400  1
  Li  Li8  1  0.00000000  0.00000000  0.00000000  1
  Mn  Mn0  1  0.98807900  0.75649400  0.74958900  1
  Mn  Mn1  1  0.01192100  0.24350600  0.25041100  1
  Mn  Mn2  1  0.00995600  0.36600700  0.88156700  1
  Mn  Mn3  1  0.99004400  0.63399300  0.11843300  1
  Mn  Mn4  1  0.99378400  0.88100500  0.36828200  1
  Mn  Mn5  1  0.00000000  0.50000000  0.50000000  1
  Mn  Mn6  1  0.00621600  0.11899500  0.63171800  1
  O  O0  1  0.21088100  0.92156700  0.76209900  1
  O  O1  1  0.23374400  0.52869200  0.91133400  1
  O  O2  1  0.22533300  0.77743300  0.16659000  1
  O  O3  1  0.23451100  0.40260500  0.29484800  1
  O  O4  1  0.20387100  0.67635000  0.51928400  1
  O  O5  1  0.23790100  0.26897000  0.66866500  1
  O  O6  1  0.24709000  0.16024900  0.04720900  1
  O  O7  1  0.23065400  0.02126200  0.42031100  1
  O  O8  1  0.76625600  0.47130800  0.08866600  1
  O  O9  1  0.78911900  0.07843300  0.23790100  1
  O  O10  1  0.79612900  0.32365000  0.48071600  1
  O  O11  1  0.76934600  0.97873800  0.57968900  1
  O  O12  1  0.77466700  0.22256700  0.83341000  1
  O  O13  1  0.75291000  0.83975100  0.95279100  1
  O  O14  1  0.76209900  0.73103000  0.33133500  1
  O  O15  1  0.76548900  0.59739500  0.70515200  1
loop_
_geom_bond_atom_site_label_1
_geom_bond_atom_site_label_2
_geom_bond_distance
_geom_bond_site_symmetry_2
Li0 O13 2.002240 1_555
Li0 O1 2.125480 1_555
Li0 O2 2.157113 1_556
Li0 O15 2.172617 1_555
Li0 O8 2.198892 1_556
Li0 O0 2.498008 1_555
Li1 O6 2.002240 1_555
Li1 O8 2.125480 1_555
Li1 O12 2.157113 1_554
Li1 O3 2.172617 1_555
Li1 O1 2.198892 1_554
Li1 O9 2.498008 1_555
Li2 O2 2.043203 1_555
Li2 O3 2.095632 1_555
Li2 O8 2.102075 1_555
Li2 O4 2.138821 1_555
Li2 O14 2.176066 1_555
Li3 O9 2.063623 1_555
Li3 O11 2.093079 1_545
Li3 O10 2.125189 1_555
Li3 O5 2.126987 1_555
Li3 O7 2.180836 1_555
Li3 O3 2.257444 1_555
Li4 O12 2.043203 1_555
Li4 O15 2.095632 1_555
Li4 O1 2.102075 1_555
Li4 O10 2.138821 1_555
Li4 O5 2.176066 1_555
Li5 O6 2.040806 1_556
Li5 O13 2.080903 1_545
Li5 O0 2.136361 1_545
Li5 O12 2.213826 1_555
Li5 O5 2.253199 1_555
Li5 O11 2.302291 1_545
Li6 O13 2.040806 1_554
Li6 O6 2.080903 1_565
Li6 O9 2.136361 1_565
Li6 O2 2.213826 1_555
Li6 O14 2.253199 1_555
Li6 O7 2.302291 1_565
Li7 O0 2.063623 1_555
Li7 O7 2.093079 1_565
Li7 O4 2.125189 1_555
Li7 O14 2.126987 1_555
Li7 O11 2.180836 1_555
Li7 O15 2.257444 1_555
Li8 O9 2.077919 1_455
Li8 O0 2.077919 1_544
Li8 O13 2.093554 1_444
Li8 O6 2.093554 1_555
Li8 O2 2.240372 1_545
Li8 O12 2.240372 1_454
Mn0 O13 1.906997 1_555
Mn0 O0 1.961392 1_655
Mn0 O15 1.982119 1_555
Mn0 O4 2.038129 1_655
Mn0 O11 2.242315 1_555
Mn0 O1 2.282253 1_655
Mn1 O6 1.906997 1_555
Mn1 O9 1.961392 1_455
Mn1 O3 1.982119 1_555
Mn1 O10 2.038129 1_455
Mn1 O7 2.242315 1_555
Mn1 O8 2.282253 1_455
Mn2 O12 1.945835 1_455
Mn2 O1 1.978316 1_555
Mn2 O5 1.980571 1_555
Mn2 O8 1.994292 1_456
Mn2 O6 2.185197 1_556
Mn2 O15 2.364102 1_455
Mn3 O2 1.945835 1_655
Mn3 O8 1.978316 1_555
Mn3 O14 1.980571 1_555
Mn3 O1 1.994292 1_654
Mn3 O13 2.185197 1_554
Mn3 O3 2.364102 1_655
Mn4 O9 1.918068 1_565
Mn4 O2 1.933130 1_655
Mn4 O7 1.943316 1_665
Mn4 O14 1.944676 1_555
Mn4 O11 1.966215 1_555
Mn4 O4 2.055376 1_655
Mn5 O3 1.945874 1_555
Mn5 O15 1.945874 1_455
Mn5 O4 1.973135 1_555
Mn5 O10 1.973135 1_455
Mn5 O5 2.313356 1_555
Mn5 O14 2.313356 1_455
Mn6 O0 1.918068 1_545
Mn6 O12 1.933130 1_455
Mn6 O11 1.943316 1_445
Mn6 O5 1.944676 1_555
Mn6 O7 1.966215 1_555
Mn6 O10 2.055376 1_455
