# generated using pymatgen
data_K2Mo2O5
_symmetry_space_group_name_H-M   'P 1'
_cell_length_a   8.99677824
_cell_length_b   8.99677824
_cell_length_c   8.99677824
_cell_angle_alpha   142.03042239
_cell_angle_beta   141.35331203
_cell_angle_gamma   55.29513150
_symmetry_Int_Tables_number   1
_chemical_formula_structural   K2Mo2O5
_chemical_formula_sum   'K4 Mo4 O10'
_cell_volume   277.75897556
_cell_formula_units_Z   2
loop_
 _symmetry_equiv_pos_site_id
 _symmetry_equiv_pos_as_xyz
  1  'x, y, z'
loop_
 _atom_site_type_symbol
 _atom_site_label
 _atom_site_symmetry_multiplicity
 _atom_site_fract_x
 _atom_site_fract_y
 _atom_site_fract_z
 _atom_site_occupancy
  K  K0  1  0.87316600  0.39044000  0.47845900  1
  K  K1  1  0.12683400  0.60529300  0.51727400  1
  K  K2  1  0.41198100  0.89044000  0.51727400  1
  K  K3  1  0.58801900  0.10529300  0.47845900  1
  Mo  Mo0  1  0.00000000  0.98284600  0.98284600  1
  Mo  Mo1  1  0.50000000  0.48284600  0.98284600  1
  Mo  Mo2  1  0.81334800  0.80339900  0.11674700  1
  Mo  Mo3  1  0.18665200  0.30339900  0.99005100  1
  O  O0  1  0.75773900  0.74821900  0.48832200  1
  O  O1  1  0.24226100  0.73058400  0.99048000  1
  O  O2  1  0.75989700  0.24821900  0.99048000  1
  O  O3  1  0.24010300  0.23058400  0.48832200  1
  O  O4  1  0.81990300  0.84050500  0.93685400  1
  O  O5  1  0.18009700  0.11695100  0.02060200  1
  O  O6  1  0.40365100  0.34050500  0.02060200  1
  O  O7  1  0.59634900  0.61695100  0.93685400  1
  O  O8  1  0.90028500  0.11776300  0.51804800  1
  O  O9  1  0.09971500  0.61776300  0.21747900  1
loop_
_geom_bond_atom_site_label_1
_geom_bond_atom_site_label_2
_geom_bond_distance
_geom_bond_site_symmetry_2
K0 O8 2.600961 1_555
K0 O1 2.657628 1_655
K0 O6 2.660232 1_555
K0 O3 2.704037 1_655
K0 O0 2.708251 1_555
K0 O2 2.754889 1_554
K0 O4 2.860386 1_555
K0 O4 3.081130 1_544
K1 O9 2.600952 1_555
K1 O0 2.657623 1_455
K1 O7 2.660232 1_555
K1 O2 2.704036 1_454
K1 O1 2.708246 1_555
K1 O3 2.754880 1_555
K1 O5 2.860386 1_566
K1 O5 3.081130 1_555
K2 O9 2.600966 1_555
K2 O3 2.657631 1_565
K2 O4 2.660232 1_555
K2 O1 2.704041 1_554
K2 O2 2.708251 1_565
K2 O0 2.754889 1_555
K2 O6 2.860386 1_566
K2 O6 3.081130 1_555
K3 O8 2.600961 1_555
K3 O2 2.657623 1_555
K3 O5 2.660232 1_555
K3 O0 2.704036 1_545
K3 O3 2.708249 1_555
K3 O1 2.754883 1_544
K3 O7 2.860386 1_555
K3 O7 3.081130 1_544
Mo0 O1 2.070094 1_555
Mo0 O0 2.070098 1_455
Mo0 O3 2.114630 1_566
Mo0 O2 2.114630 1_465
Mo0 O4 2.217334 1_455
Mo0 O5 2.217334 1_566
Mo1 O3 2.070098 1_555
Mo1 O2 2.070098 1_555
Mo1 O0 2.114630 1_556
Mo1 O1 2.114634 1_555
Mo1 O6 2.217334 1_556
Mo1 O7 2.217334 1_555
Mo2 O8 1.911582 1_565
Mo2 O7 1.938481 1_554
Mo2 O4 1.938481 1_554
Mo2 O9 2.021871 1_655
Mo3 O9 1.911584 1_556
Mo3 O5 1.938481 1_556
Mo3 O6 1.938481 1_556
Mo3 O8 2.021870 1_455
