# generated using pymatgen
data_La2MgMoO6
_symmetry_space_group_name_H-M   'P 1'
_cell_length_a   5.63819290
_cell_length_b   5.63819292
_cell_length_c   5.63819344
_cell_angle_alpha   61.29403676
_cell_angle_beta   61.29402300
_cell_angle_gamma   61.29403022
_symmetry_Int_Tables_number   1
_chemical_formula_structural   La2MgMoO6
_chemical_formula_sum   'La2 Mg1 Mo1 O6'
_cell_volume   130.42411710
_cell_formula_units_Z   1
loop_
 _symmetry_equiv_pos_site_id
 _symmetry_equiv_pos_as_xyz
  1  'x, y, z'
loop_
 _atom_site_type_symbol
 _atom_site_label
 _atom_site_symmetry_multiplicity
 _atom_site_fract_x
 _atom_site_fract_y
 _atom_site_fract_z
 _atom_site_occupancy
  La  La0  1  0.74779900  0.74779900  0.74779900  1
  La  La1  1  0.25220100  0.25220100  0.25220100  1
  Mg  Mg0  1  0.50000000  0.50000000  0.50000000  1
  Mo  Mo0  1  0.00000000  0.00000000  0.00000000  1
  O  O0  1  0.33578700  0.74850400  0.16192900  1
  O  O1  1  0.74850400  0.16192900  0.33578700  1
  O  O2  1  0.16192900  0.33578700  0.74850400  1
  O  O3  1  0.66421300  0.25149600  0.83807100  1
  O  O4  1  0.83807100  0.66421300  0.25149600  1
  O  O5  1  0.25149600  0.83807100  0.66421300  1
loop_
_geom_bond_atom_site_label_1
_geom_bond_atom_site_label_2
_geom_bond_distance
_geom_bond_site_symmetry_2
La0 O0 2.374413 1_556
La0 O2 2.374413 1_655
La0 O1 2.374413 1_565
La0 O3 2.824821 1_555
La0 O5 2.824821 1_555
La0 O4 2.824821 1_555
La0 O5 2.901523 1_655
La0 O3 2.901523 1_565
La0 O4 2.901523 1_556
La1 O3 2.374413 1_554
La1 O4 2.374413 1_455
La1 O5 2.374413 1_545
La1 O0 2.824821 1_555
La1 O1 2.824821 1_555
La1 O2 2.824821 1_555
La1 O1 2.901523 1_455
La1 O0 2.901523 1_545
La1 O2 2.901523 1_554
Mg0 O5 2.082599 1_555
Mg0 O1 2.082599 1_555
Mg0 O4 2.082599 1_555
Mg0 O2 2.082599 1_555
Mg0 O3 2.082599 1_555
Mg0 O0 2.082599 1_555
Mo0 O1 2.065547 1_455
Mo0 O5 2.065547 1_544
Mo0 O2 2.065547 1_554
Mo0 O4 2.065547 1_445
Mo0 O0 2.065547 1_545
Mo0 O3 2.065547 1_454
