# generated using pymatgen
data_Y3Ge
_symmetry_space_group_name_H-M   'P 1'
_cell_length_a   6.10516477
_cell_length_b   6.10516477
_cell_length_c   6.10516477
_cell_angle_alpha   136.43775614
_cell_angle_beta   136.43775614
_cell_angle_gamma   63.30427861
_symmetry_Int_Tables_number   1
_chemical_formula_structural   Y3Ge
_chemical_formula_sum   'Y3 Ge1'
_cell_volume   106.68463393
_cell_formula_units_Z   1
loop_
 _symmetry_equiv_pos_site_id
 _symmetry_equiv_pos_as_xyz
  1  'x, y, z'
loop_
 _atom_site_type_symbol
 _atom_site_label
 _atom_site_symmetry_multiplicity
 _atom_site_fract_x
 _atom_site_fract_y
 _atom_site_fract_z
 _atom_site_occupancy
  Y  Y0  1  0.75000000  0.25000000  0.50000000  1
  Y  Y1  1  0.25000000  0.75000000  0.50000000  1
  Y  Y2  1  0.50000000  0.50000000  0.00000000  1
  Ge  Ge0  1  0.00000000  0.00000000  0.00000000  1
loop_
_geom_bond_atom_site_label_1
_geom_bond_atom_site_label_2
_geom_bond_distance
_geom_bond_site_symmetry_2
Y0 Y1 3.203751 1_645
Y0 Y1 3.203751 1_544
Y0 Y1 3.203751 1_656
Y0 Y1 3.203751 1_555
Y0 Y2 3.447356 1_556
Y0 Y2 3.447356 1_656
Y0 Y2 3.447356 1_545
Y0 Y2 3.447356 1_555
Y1 Y2 3.447356 1_566
Y1 Y2 3.447356 1_556
Y1 Y2 3.447356 1_455
Y1 Y2 3.447356 1_555
Ge0 Y2 3.203751 1_556
Ge0 Y2 3.203751 1_455
Ge0 Y2 3.203751 1_545
Ge0 Y2 3.203751 1_444
Ge0 Y0 3.447356 1_555
Ge0 Y0 3.447356 1_454
Ge0 Y0 3.447356 1_444
Ge0 Y1 3.447356 1_544
Ge0 Y1 3.447356 1_444
Ge0 Y1 3.447356 1_545
Ge0 Y1 3.447356 1_555
Ge0 Y0 3.447356 1_455
