# generated using pymatgen
data_CeMg6Nb
_symmetry_space_group_name_H-M   'P 1'
_cell_length_a   6.64578799
_cell_length_b   6.64578742
_cell_length_c   4.88550597
_cell_angle_alpha   90.00000000
_cell_angle_beta   90.00000000
_cell_angle_gamma   121.99039950
_symmetry_Int_Tables_number   1
_chemical_formula_structural   CeMg6Nb
_chemical_formula_sum   'Ce1 Mg6 Nb1'
_cell_volume   183.00730415
_cell_formula_units_Z   1
loop_
 _symmetry_equiv_pos_site_id
 _symmetry_equiv_pos_as_xyz
  1  'x, y, z'
loop_
 _atom_site_type_symbol
 _atom_site_label
 _atom_site_symmetry_multiplicity
 _atom_site_fract_x
 _atom_site_fract_y
 _atom_site_fract_z
 _atom_site_occupancy
  Ce  Ce0  1  0.19983149  0.30016851  0.25000000  1
  Mg  Mg0  1  0.18597933  0.82980254  0.25000000  1
  Mg  Mg1  1  0.67019746  0.31402067  0.25000000  1
  Mg  Mg2  1  0.66630898  0.83369102  0.25000000  1
  Mg  Mg3  1  0.32880351  0.68292615  0.75000000  1
  Mg  Mg4  1  0.81707385  0.17119649  0.75000000  1
  Mg  Mg5  1  0.82752542  0.67247458  0.75000000  1
  Nb  Nb0  1  0.30427996  0.19572004  0.75000000  1
loop_
_geom_bond_atom_site_label_1
_geom_bond_atom_site_label_2
_geom_bond_distance
_geom_bond_site_symmetry_2
Ce0 Nb0 2.727863 1_554
Ce0 Nb0 2.727863 1_555
Ce0 Mg0 3.078172 1_545
Ce0 Mg1 3.078172 1_555
Ce0 Mg2 3.245905 1_555
Ce0 Mg2 3.245905 1_445
Ce0 Mg3 3.295772 1_555
Ce0 Mg3 3.295772 1_554
Ce0 Mg4 3.295772 1_455
Ce0 Mg4 3.295772 1_454
Ce0 Mg0 3.569460 1_555
Ce0 Mg1 3.569460 1_455
Mg0 Mg3 2.966893 1_555
Mg0 Mg3 2.966893 1_554
Mg0 Mg1 3.120717 1_565
Mg0 Mg5 3.177432 1_454
Mg0 Mg5 3.177432 1_455
Mg0 Mg2 3.178554 1_555
Mg0 Nb0 3.236217 1_565
Mg0 Nb0 3.236217 1_564
Mg0 Mg1 3.324141 1_455
Mg0 Mg2 3.467379 1_455
Mg1 Mg4 2.966893 1_554
Mg1 Mg4 2.966893 1_555
Mg1 Mg5 3.177432 1_554
Mg1 Mg5 3.177432 1_555
Mg1 Mg2 3.178554 1_545
Mg1 Nb0 3.236217 1_554
Mg1 Nb0 3.236217 1_555
Mg1 Mg2 3.467378 1_555
Mg2 Mg5 3.078825 1_554
Mg2 Mg5 3.078825 1_555
Mg2 Mg4 3.101732 1_564
Mg2 Mg4 3.101732 1_565
Mg2 Mg3 3.101733 1_554
Mg2 Mg3 3.101733 1_555
Mg3 Mg4 3.146833 1_565
Mg3 Nb0 3.154556 1_555
Mg3 Mg5 3.295117 1_455
Mg3 Mg4 3.298025 1_455
Mg3 Mg5 3.351716 1_555
Mg3 Nb0 3.496994 1_565
Mg4 Nb0 3.154556 1_655
Mg4 Mg5 3.295117 1_555
Mg4 Mg5 3.351715 1_545
Mg4 Nb0 3.496995 1_555
Mg5 Nb0 3.233738 1_665
Mg5 Nb0 3.233739 1_555
