# generated using pymatgen
data_Li3Eu2(BO3)3
_symmetry_space_group_name_H-M   'P 1'
_cell_length_a   6.75717219
_cell_length_b   6.83538113
_cell_length_c   11.15874500
_cell_angle_alpha   90.00000000
_cell_angle_beta   90.00000000
_cell_angle_gamma   105.71367592
_symmetry_Int_Tables_number   1
_chemical_formula_structural   Li3Eu2(BO3)3
_chemical_formula_sum   'Li6 Eu4 B6 O18'
_cell_volume   496.13649187
_cell_formula_units_Z   2
loop_
 _symmetry_equiv_pos_site_id
 _symmetry_equiv_pos_as_xyz
  1  'x, y, z'
loop_
 _atom_site_type_symbol
 _atom_site_label
 _atom_site_symmetry_multiplicity
 _atom_site_fract_x
 _atom_site_fract_y
 _atom_site_fract_z
 _atom_site_occupancy
  Li  Li0  1  0.32061100  0.46642400  0.78298000  1
  Li  Li1  1  0.67938900  0.53357600  0.28298000  1
  Li  Li2  1  0.06330500  0.65903500  0.84126300  1
  Li  Li3  1  0.93669500  0.34096500  0.34126300  1
  Li  Li4  1  0.64091200  0.75454600  0.90068700  1
  Li  Li5  1  0.35908800  0.24545400  0.40068700  1
  Eu  Eu0  1  0.97577300  0.98670300  0.62987100  1
  Eu  Eu1  1  0.02422700  0.01329700  0.12987100  1
  Eu  Eu2  1  0.39411800  0.79265100  0.47778000  1
  Eu  Eu3  1  0.60588200  0.20734900  0.97778000  1
  B  B0  1  0.07374100  0.45201200  0.63636900  1
  B  B1  1  0.92625900  0.54798800  0.13636900  1
  B  B2  1  0.69352900  0.52614200  0.72652100  1
  B  B3  1  0.30647100  0.47385800  0.22652100  1
  B  B4  1  0.24698900  0.59945900  0.01237400  1
  B  B5  1  0.75301100  0.40054100  0.51237400  1
  O  O0  1  0.21199200  0.63843700  0.64573400  1
  O  O1  1  0.78800800  0.36156300  0.14573400  1
  O  O2  1  0.96144000  0.39495800  0.52609900  1
  O  O3  1  0.03856000  0.60504200  0.02609900  1
  O  O4  1  0.04691500  0.31188100  0.72613500  1
  O  O5  1  0.95308500  0.68811900  0.22613500  1
  O  O6  1  0.66270000  0.48638000  0.60192100  1
  O  O7  1  0.33730000  0.51362000  0.10192100  1
  O  O8  1  0.82336100  0.70837800  0.76454600  1
  O  O9  1  0.17663900  0.29162200  0.26454600  1
  O  O10  1  0.57435000  0.39202100  0.80489100  1
  O  O11  1  0.42565000  0.60797900  0.30489100  1
  O  O12  1  0.21594500  0.01392000  0.49081900  1
  O  O13  1  0.78405500  0.98608000  0.99081900  1
  O  O14  1  0.69945800  0.94292000  0.53170500  1
  O  O15  1  0.30054200  0.05708000  0.03170500  1
  O  O16  1  0.33740000  0.66109200  0.90680600  1
  O  O17  1  0.66260000  0.33890800  0.40680600  1
loop_
_geom_bond_atom_site_label_1
_geom_bond_atom_site_label_2
_geom_bond_distance
_geom_bond_site_symmetry_2
Li0 O16 1.900235 1_555
Li0 O10 1.931438 1_555
Li0 O4 1.969865 1_555
Li0 O0 2.175786 1_555
Li1 O17 1.900235 1_555
Li1 O11 1.931438 1_555
Li1 O5 1.969865 1_555
Li1 O1 2.175786 1_555
Li2 O8 1.942051 1_455
Li2 O16 1.987789 1_555
Li2 O3 2.093992 1_556
Li2 O0 2.422061 1_555
Li3 O9 1.942051 1_655
Li3 O17 1.987789 1_555
Li3 O2 2.093992 1_555
Li3 O1 2.422061 1_555
Li4 O13 1.903324 1_555
Li4 O16 1.977174 1_555
Li4 O8 2.034225 1_555
Li5 O12 1.903324 1_555
Li5 O17 1.977174 1_555
Li5 O9 2.034225 1_555
Eu0 O14 2.114926 1_555
Eu0 O12 2.216400 1_665
Eu0 O4 2.397220 1_665
Eu0 O8 2.424280 1_555
Eu1 O15 2.114926 1_555
Eu1 O13 2.216400 1_444
Eu1 O5 2.397220 1_445
Eu1 O9 2.424280 1_555
Eu2 O14 2.127473 1_555
Eu2 O12 2.178188 1_565
Eu2 O0 2.331407 1_555
Eu2 O11 2.346571 1_555
Eu3 O15 2.127473 1_556
Eu3 O13 2.178188 1_545
Eu3 O1 2.331407 1_556
Eu3 O10 2.346571 1_555
B0 O4 1.363686 1_555
B0 O0 1.364780 1_555
B0 O2 1.442808 1_455
B1 O5 1.363686 1_555
B1 O1 1.364780 1_555
B1 O3 1.442808 1_655
B2 O10 1.361566 1_555
B2 O8 1.381814 1_555
B2 O6 1.421180 1_555
B3 O11 1.361566 1_555
B3 O9 1.381814 1_555
B3 O7 1.421180 1_555
B4 O16 1.341267 1_554
B4 O7 1.381694 1_555
B4 O3 1.427441 1_555
B5 O17 1.341267 1_555
B5 O6 1.381694 1_555
B5 O2 1.427441 1_555
