# generated using pymatgen
data_BaMgF4
_symmetry_space_group_name_H-M   'P 1'
_cell_length_a   7.40034909
_cell_length_b   7.40034909
_cell_length_c   5.76608747
_cell_angle_alpha   90.00000000
_cell_angle_beta   90.00000000
_cell_angle_gamma   147.33713926
_symmetry_Int_Tables_number   1
_chemical_formula_structural   BaMgF4
_chemical_formula_sum   'Ba2 Mg2 F8'
_cell_volume   170.42520445
_cell_formula_units_Z   2
loop_
 _symmetry_equiv_pos_site_id
 _symmetry_equiv_pos_as_xyz
  1  'x, y, z'
loop_
 _atom_site_type_symbol
 _atom_site_label
 _atom_site_symmetry_multiplicity
 _atom_site_fract_x
 _atom_site_fract_y
 _atom_site_fract_z
 _atom_site_occupancy
  Ba  Ba0  1  0.14198015  0.85801985  0.25000000  1
  Ba  Ba1  1  0.85801985  0.14198015  0.75000000  1
  Mg  Mg0  1  0.59182365  0.40817635  0.75000000  1
  Mg  Mg1  1  0.40817635  0.59182365  0.25000000  1
  F  F0  1  0.68722159  0.31277841  0.51223098  1
  F  F1  1  0.31277841  0.68722159  0.48776902  1
  F  F2  1  0.68722159  0.31277841  0.98776902  1
  F  F3  1  0.31277841  0.68722159  0.01223098  1
  F  F4  1  0.50000000  0.50000000  0.50000000  1
  F  F5  1  0.50000000  0.50000000  -0.00000000  1
  F  F6  1  0.08306159  0.91693841  0.75000000  1
  F  F7  1  0.91693841  0.08306159  0.25000000  1
loop_
_geom_bond_atom_site_label_1
_geom_bond_atom_site_label_2
_geom_bond_distance
_geom_bond_site_symmetry_2
Ba0 F0 2.651314 1_565
Ba0 F2 2.651314 1_454
Ba0 F2 2.651314 1_564
Ba0 F0 2.651314 1_455
Ba0 F3 2.786537 1_555
Ba0 F1 2.786537 1_555
Ba0 F6 3.002043 1_555
Ba0 F6 3.002043 1_554
Ba0 F7 3.196382 1_465
Ba0 F5 3.236508 1_455
Ba0 F4 3.236508 1_565
Ba0 F5 3.236508 1_565
Ba0 F4 3.236508 1_455
Ba1 F1 2.651314 1_655
Ba1 F3 2.651314 1_546
Ba1 F1 2.651314 1_545
Ba1 F3 2.651314 1_656
Ba1 F2 2.786537 1_555
Ba1 F0 2.786537 1_555
Ba1 F7 3.002043 1_555
Ba1 F7 3.002043 1_556
Ba1 F6 3.196382 1_645
Ba1 F4 3.236508 1_655
Ba1 F4 3.236508 1_545
Ba1 F5 3.236508 1_656
Ba1 F5 3.236508 1_546
F0 Mg0 1.927594 1_555
F1 Mg1 1.927594 1_555
F2 Mg0 1.927594 1_555
F3 Mg1 1.927594 1_555
F4 Mg1 1.943957 1_555
F4 Mg0 1.943957 1_555
F5 Mg0 1.943957 1_554
F5 Mg1 1.943957 1_555
F6 Mg0 2.084646 1_455
F6 Mg0 2.084646 1_565
F7 Mg1 2.084646 1_545
F7 Mg1 2.084646 1_655
