# generated using pymatgen
data_K3P3O10
_symmetry_space_group_name_H-M   'P 1'
_cell_length_a   18.68412000
_cell_length_b   7.01996000
_cell_length_c   11.06951885
_cell_angle_alpha   69.27846574
_cell_angle_beta   90.00000000
_cell_angle_gamma   90.00000000
_symmetry_Int_Tables_number   1
_chemical_formula_structural   K3P3O10
_chemical_formula_sum   'K12 P12 O40'
_cell_volume   1357.97609277
_cell_formula_units_Z   4
loop_
 _symmetry_equiv_pos_site_id
 _symmetry_equiv_pos_as_xyz
  1  'x, y, z'
loop_
 _atom_site_type_symbol
 _atom_site_label
 _atom_site_symmetry_multiplicity
 _atom_site_fract_x
 _atom_site_fract_y
 _atom_site_fract_z
 _atom_site_occupancy
  K  K0  1  0.50653200  0.14123500  0.75973400  1
  K  K1  1  0.99346800  0.14123500  0.25973400  1
  K  K2  1  0.49346800  0.85876500  0.24026600  1
  K  K3  1  0.00653200  0.85876500  0.74026600  1
  K  K4  1  0.31225600  0.59368000  0.59033900  1
  K  K5  1  0.18774400  0.59368000  0.09033900  1
  K  K6  1  0.68774400  0.40632000  0.40966100  1
  K  K7  1  0.81225600  0.40632000  0.90966100  1
  K  K8  1  0.32035700  0.15786500  0.97834800  1
  K  K9  1  0.17964300  0.15786500  0.47834800  1
  K  K10  1  0.67964300  0.84213500  0.02165200  1
  K  K11  1  0.82035700  0.84213500  0.52165200  1
  P  P0  1  0.60323700  0.33617400  0.00704300  1
  P  P1  1  0.89676300  0.33617400  0.50704300  1
  P  P2  1  0.39676300  0.66382600  0.99295700  1
  P  P3  1  0.10323700  0.66382600  0.49295700  1
  P  P4  1  0.44366700  0.61884000  0.80801200  1
  P  P5  1  0.05633300  0.61884000  0.30801200  1
  P  P6  1  0.55633300  0.38116000  0.19198800  1
  P  P7  1  0.94366700  0.38116000  0.69198800  1
  P  P8  1  0.56873300  0.60565000  0.82001100  1
  P  P9  1  0.93126700  0.60565000  0.32001100  1
  P  P10  1  0.43126700  0.39435000  0.17998900  1
  P  P11  1  0.06873300  0.39435000  0.67998900  1
  O  O0  1  0.31831800  0.61675500  0.98758600  1
  O  O1  1  0.18168200  0.61675500  0.48758600  1
  O  O2  1  0.68168200  0.38324500  0.01241400  1
  O  O3  1  0.81831800  0.38324500  0.51241400  1
  O  O4  1  0.40588100  0.20113900  0.16491500  1
  O  O5  1  0.09411900  0.20113900  0.66491500  1
  O  O6  1  0.59411900  0.79886100  0.83508500  1
  O  O7  1  0.90588100  0.79886100  0.33508500  1
  O  O8  1  0.74529600  0.12955600  0.79416600  1
  O  O9  1  0.75470400  0.12955600  0.29416600  1
  O  O10  1  0.25470400  0.87044400  0.20583400  1
  O  O11  1  0.24529600  0.87044400  0.70583400  1
  O  O12  1  0.59120300  0.53065700  0.71475900  1
  O  O13  1  0.90879700  0.53065700  0.21475900  1
  O  O14  1  0.40879700  0.46934300  0.28524100  1
  O  O15  1  0.09120300  0.46934300  0.78524100  1
  O  O16  1  0.41349400  0.42173100  0.80368400  1
  O  O17  1  0.08650600  0.42173100  0.30368400  1
  O  O18  1  0.58650600  0.57826900  0.19631600  1
  O  O19  1  0.91349400  0.57826900  0.69631600  1
  O  O20  1  0.42868200  0.82080300  0.70411100  1
  O  O21  1  0.07131800  0.82080300  0.20411100  1
  O  O22  1  0.57131800  0.17919700  0.29588900  1
  O  O23  1  0.92868200  0.17919700  0.79588900  1
  O  O24  1  0.57737600  0.13419400  0.00514100  1
  O  O25  1  0.92262400  0.13419400  0.50514100  1
  O  O26  1  0.42262400  0.86580600  0.99485900  1
  O  O27  1  0.07737600  0.86580600  0.49485900  1
  O  O28  1  0.78282200  0.98499200  0.77179100  1
  O  O29  1  0.71717800  0.98499200  0.27179100  1
  O  O30  1  0.21717800  0.01500800  0.22820900  1
  O  O31  1  0.28282200  0.01500800  0.72820900  1
  O  O32  1  0.69713600  0.82904200  0.37694000  1
  O  O33  1  0.80286400  0.82904200  0.87694000  1
  O  O34  1  0.30286400  0.17095800  0.62306000  1
  O  O35  1  0.19713600  0.17095800  0.12306000  1
  O  O36  1  0.57108200  0.23305600  0.53040700  1
  O  O37  1  0.92891800  0.23305600  0.03040700  1
  O  O38  1  0.42891800  0.76694400  0.46959300  1
  O  O39  1  0.07108200  0.76694400  0.96959300  1
loop_
_geom_bond_atom_site_label_1
_geom_bond_atom_site_label_2
_geom_bond_distance
_geom_bond_site_symmetry_2
K0 O36 2.675130 1_555
K0 O6 2.780601 1_545
K0 O16 2.795288 1_555
K0 O20 2.921446 1_545
K0 O24 3.006505 1_556
K0 O12 3.043147 1_555
K0 O26 3.067449 1_545
K1 O37 2.675130 1_555
K1 O7 2.780601 1_545
K1 O17 2.795288 1_655
K1 O21 2.921446 1_645
K1 O25 3.006505 1_555
K1 O13 3.043147 1_555
K1 O27 3.067449 1_645
K2 O38 2.675130 1_555
K2 O4 2.780601 1_565
K2 O18 2.795288 1_555
K2 O22 2.921446 1_565
K2 O26 3.006505 1_554
K2 O14 3.043147 1_555
K2 O24 3.067449 1_565
K3 O39 2.675130 1_555
K3 O5 2.780601 1_565
K3 O19 2.795288 1_455
K3 O23 2.921446 1_465
K3 O27 3.006505 1_555
K3 O15 3.043147 1_555
K3 O25 3.067449 1_465
K4 O38 2.620433 1_555
K4 O1 2.672366 1_555
K4 O34 2.864852 1_555
K4 O16 2.931717 1_555
K4 O11 2.955033 1_555
K4 O20 3.206422 1_555
K5 O39 2.620433 1_554
K5 O0 2.672366 1_554
K5 O35 2.864852 1_555
K5 O17 2.931717 1_555
K5 O10 2.955033 1_555
K5 O21 3.206422 1_555
K6 O36 2.620433 1_555
K6 O3 2.672366 1_555
K6 O32 2.864852 1_555
K6 O18 2.931717 1_555
K6 O9 2.955033 1_555
K6 O22 3.206422 1_555
K7 O37 2.620433 1_556
K7 O2 2.672366 1_556
K7 O33 2.864852 1_555
K7 O19 2.931717 1_555
K7 O8 2.955033 1_555
K7 O23 3.206422 1_555
K8 O4 2.711962 1_556
K8 O26 2.760935 1_545
K8 O16 2.768249 1_555
K8 O35 2.824743 1_556
K8 O10 2.884687 1_546
K8 O0 3.259198 1_555
K8 O31 3.336086 1_555
K9 O5 2.711962 1_555
K9 O27 2.760935 1_545
K9 O17 2.768249 1_555
K9 O34 2.824743 1_555
K9 O11 2.884687 1_545
K9 O1 3.259198 1_555
K9 O30 3.336086 1_555
K10 O6 2.711962 1_554
K10 O24 2.760935 1_565
K10 O18 2.768249 1_555
K10 O33 2.824743 1_554
K10 O8 2.884687 1_564
K10 O2 3.259198 1_555
K10 O29 3.336086 1_555
K11 O7 2.711962 1_555
K11 O25 2.760935 1_565
K11 O19 2.768249 1_555
K11 O32 2.824743 1_555
K11 O9 2.884687 1_565
K11 O3 3.259198 1_555
K11 O28 3.336086 1_555
O0 P2 1.508254 1_555
O1 P3 1.508254 1_555
O2 P0 1.508254 1_555
O3 P1 1.508254 1_555
O4 P10 1.500871 1_555
O5 P11 1.500871 1_555
O6 P8 1.500871 1_555
O7 P9 1.500871 1_555
O10 O30 1.326914 1_565
O11 O31 1.326914 1_565
O12 P8 1.498294 1_555
O13 P9 1.498294 1_555
O14 P10 1.498294 1_555
O15 P11 1.498294 1_555
O16 P4 1.510512 1_555
O17 P5 1.510512 1_555
O18 P6 1.510512 1_555
O19 P7 1.510512 1_555
O20 P4 1.502450 1_555
O21 P5 1.502450 1_555
O22 P6 1.502450 1_555
O23 P7 1.502450 1_555
O24 P0 1.505144 1_555
O25 P1 1.505144 1_555
O26 P2 1.505144 1_555
O27 P3 1.505144 1_555
O28 O8 1.326914 1_565
O28 O33 1.338575 1_555
O29 O9 1.326914 1_565
O29 O32 1.338575 1_555
O30 O35 1.338575 1_555
O31 O34 1.338575 1_555
