# generated using pymatgen
data_Li2MnCr3O8
_symmetry_space_group_name_H-M   'P 1'
_cell_length_a   8.33865900
_cell_length_b   8.33865900
_cell_length_c   8.42417500
_cell_angle_alpha   90.00000000
_cell_angle_beta   90.00000000
_cell_angle_gamma   90.00000000
_symmetry_Int_Tables_number   1
_chemical_formula_structural   Li2MnCr3O8
_chemical_formula_sum   'Li8 Mn4 Cr12 O32'
_cell_volume   585.76013084
_cell_formula_units_Z   4
loop_
 _symmetry_equiv_pos_site_id
 _symmetry_equiv_pos_as_xyz
  1  'x, y, z'
loop_
 _atom_site_type_symbol
 _atom_site_label
 _atom_site_symmetry_multiplicity
 _atom_site_fract_x
 _atom_site_fract_y
 _atom_site_fract_z
 _atom_site_occupancy
  Li  Li0  1  0.74887600  0.00149800  0.62658700  1
  Li  Li1  1  0.99850200  0.25112400  0.87341300  1
  Li  Li2  1  0.50149800  0.75112400  0.87658700  1
  Li  Li3  1  0.75112400  0.50149800  0.12341300  1
  Li  Li4  1  0.25112400  0.99850200  0.12658700  1
  Li  Li5  1  0.00149800  0.74887600  0.37341300  1
  Li  Li6  1  0.49850200  0.24887600  0.37658700  1
  Li  Li7  1  0.24887600  0.49850200  0.62341300  1
  Mn  Mn0  1  0.62202300  0.37797700  0.75000000  1
  Mn  Mn1  1  0.87797700  0.87797700  0.00000000  1
  Mn  Mn2  1  0.37797700  0.62202300  0.25000000  1
  Mn  Mn3  1  0.12202300  0.12202300  0.50000000  1
  Cr  Cr0  1  0.87154900  0.62778500  0.75063100  1
  Cr  Cr1  1  0.12497100  0.87502900  0.75000000  1
  Cr  Cr2  1  0.37221500  0.12845100  0.74936900  1
  Cr  Cr3  1  0.12778500  0.62845100  0.00063100  1
  Cr  Cr4  1  0.37502900  0.37502900  0.00000000  1
  Cr  Cr5  1  0.62845100  0.12778500  0.99936900  1
  Cr  Cr6  1  0.12845100  0.37221500  0.25063100  1
  Cr  Cr7  1  0.87502900  0.12497100  0.25000000  1
  Cr  Cr8  1  0.62778500  0.87154900  0.24936900  1
  Cr  Cr9  1  0.87221500  0.37154900  0.50063100  1
  Cr  Cr10  1  0.62497100  0.62497100  0.50000000  1
  Cr  Cr11  1  0.37154900  0.87221500  0.49936900  1
  O  O0  1  0.85419100  0.38770300  0.73991300  1
  O  O1  1  0.63113400  0.61104600  0.73648200  1
  O  O2  1  0.35394800  0.88371200  0.73893500  1
  O  O3  1  0.88998500  0.87080600  0.76797400  1
  O  O4  1  0.12919400  0.11001500  0.73202600  1
  O  O5  1  0.11628800  0.64605200  0.76106500  1
  O  O6  1  0.38895400  0.36886600  0.76351800  1
  O  O7  1  0.61229700  0.14580900  0.76008700  1
  O  O8  1  0.88770300  0.64580900  0.98991300  1
  O  O9  1  0.11104600  0.86886600  0.98648200  1
  O  O10  1  0.38371200  0.14605200  0.98893500  1
  O  O11  1  0.37080600  0.61001500  0.01797400  1
  O  O12  1  0.61001500  0.37080600  0.98202600  1
  O  O13  1  0.14605200  0.38371200  0.01106500  1
  O  O14  1  0.86886600  0.11104600  0.01351800  1
  O  O15  1  0.64580900  0.88770300  0.01008700  1
  O  O16  1  0.14580900  0.61229700  0.23991300  1
  O  O17  1  0.36886600  0.38895400  0.23648200  1
  O  O18  1  0.64605200  0.11628800  0.23893500  1
  O  O19  1  0.11001500  0.12919400  0.26797400  1
  O  O20  1  0.87080600  0.88998500  0.23202600  1
  O  O21  1  0.88371200  0.35394800  0.26106500  1
  O  O22  1  0.61104600  0.63113400  0.26351800  1
  O  O23  1  0.38770300  0.85419100  0.26008700  1
  O  O24  1  0.11229700  0.35419100  0.48991300  1
  O  O25  1  0.88895400  0.13113400  0.48648200  1
  O  O26  1  0.61628800  0.85394800  0.48893500  1
  O  O27  1  0.62919400  0.38998500  0.51797400  1
  O  O28  1  0.38998500  0.62919400  0.48202600  1
  O  O29  1  0.85394800  0.61628800  0.51106500  1
  O  O30  1  0.13113400  0.88895400  0.51351800  1
  O  O31  1  0.35419100  0.11229700  0.51008700  1
loop_
_geom_bond_atom_site_label_1
_geom_bond_atom_site_label_2
_geom_bond_distance
_geom_bond_site_symmetry_2
Li0 O25 1.981400 1_555
Li0 O3 1.997706 1_545
Li0 O7 2.002479 1_555
Li0 O26 2.020113 1_545
Li1 O14 1.981400 1_556
Li1 O4 1.997706 1_655
Li1 O0 2.002479 1_555
Li1 O13 2.020113 1_656
Li2 O1 1.981400 1_555
Li2 O11 1.997706 1_556
Li2 O15 2.002479 1_556
Li2 O2 2.020113 1_555
Li3 O22 1.981400 1_555
Li3 O12 1.997706 1_554
Li3 O8 2.002479 1_554
Li3 O21 2.020113 1_555
Li4 O9 1.981400 1_554
Li4 O19 1.997706 1_565
Li4 O23 2.002479 1_555
Li4 O10 2.020113 1_564
Li5 O30 1.981400 1_555
Li5 O20 1.997706 1_455
Li5 O16 2.002479 1_555
Li5 O29 2.020113 1_455
Li6 O17 1.981400 1_555
Li6 O27 1.997706 1_555
Li6 O31 2.002479 1_555
Li6 O18 2.020113 1_555
Li7 O6 1.981400 1_555
Li7 O28 1.997706 1_555
Li7 O24 2.002479 1_555
Li7 O5 2.020113 1_555
Mn0 O0 1.939530 1_555
Mn0 O7 1.939530 1_555
Mn0 O1 1.948298 1_555
Mn0 O6 1.948298 1_555
Mn0 O12 1.958104 1_555
Mn0 O27 1.958104 1_555
Mn1 O15 1.939530 1_555
Mn1 O8 1.939530 1_554
Mn1 O14 1.948298 1_565
Mn1 O9 1.948298 1_654
Mn1 O20 1.958104 1_555
Mn1 O3 1.958104 1_554
Mn2 O23 1.939530 1_555
Mn2 O16 1.939530 1_555
Mn2 O22 1.948298 1_555
Mn2 O17 1.948298 1_555
Mn2 O28 1.958104 1_555
Mn2 O11 1.958104 1_555
Mn3 O24 1.939530 1_555
Mn3 O31 1.939530 1_555
Mn3 O30 1.948298 1_545
Mn3 O25 1.948298 1_455
Mn3 O4 1.958104 1_555
Mn3 O19 1.958104 1_555
Cr0 O0 2.009217 1_555
Cr0 O1 2.013124 1_555
Cr0 O29 2.025746 1_555
Cr0 O8 2.025832 1_555
Cr0 O3 2.037537 1_555
Cr0 O5 2.048359 1_655
Cr1 O2 1.913006 1_555
Cr1 O5 1.913006 1_555
Cr1 O4 1.965625 1_565
Cr1 O3 1.965625 1_455
Cr1 O30 1.996208 1_555
Cr1 O9 1.996208 1_555
Cr2 O7 2.009217 1_555
Cr2 O6 2.013124 1_555
Cr2 O10 2.025746 1_555
Cr2 O31 2.025832 1_555
Cr2 O4 2.037537 1_555
Cr2 O2 2.048359 1_545
Cr3 O8 2.009217 1_454
Cr3 O9 2.013124 1_554
Cr3 O5 2.025746 1_554
Cr3 O16 2.025832 1_555
Cr3 O11 2.037537 1_555
Cr3 O13 2.048359 1_555
Cr4 O10 1.913006 1_554
Cr4 O13 1.913006 1_555
Cr4 O12 1.965625 1_554
Cr4 O11 1.965625 1_555
Cr4 O17 1.996208 1_555
Cr4 O6 1.996208 1_554
Cr5 O15 2.009217 1_546
Cr5 O14 2.013124 1_556
Cr5 O18 2.025746 1_556
Cr5 O7 2.025832 1_555
Cr5 O12 2.037537 1_555
Cr5 O10 2.048359 1_555
Cr6 O16 2.009217 1_555
Cr6 O17 2.013124 1_555
Cr6 O13 2.025746 1_555
Cr6 O24 2.025832 1_555
Cr6 O19 2.037537 1_555
Cr6 O21 2.048359 1_455
Cr7 O21 1.913006 1_555
Cr7 O18 1.913006 1_555
Cr7 O19 1.965625 1_655
Cr7 O20 1.965625 1_545
Cr7 O25 1.996208 1_555
Cr7 O14 1.996208 1_555
Cr8 O23 2.009217 1_555
Cr8 O22 2.013124 1_555
Cr8 O26 2.025746 1_555
Cr8 O15 2.025832 1_555
Cr8 O20 2.037537 1_555
Cr8 O18 2.048359 1_565
Cr9 O24 2.009217 1_655
Cr9 O25 2.013124 1_555
Cr9 O21 2.025746 1_555
Cr9 O0 2.025832 1_555
Cr9 O27 2.037537 1_555
Cr9 O29 2.048359 1_555
Cr10 O29 1.913006 1_555
Cr10 O26 1.913006 1_555
Cr10 O27 1.965625 1_555
Cr10 O28 1.965625 1_555
Cr10 O1 1.996208 1_555
Cr10 O22 1.996208 1_555
Cr11 O31 2.009217 1_565
Cr11 O30 2.013124 1_555
Cr11 O2 2.025746 1_555
Cr11 O23 2.025832 1_555
Cr11 O28 2.037537 1_555
Cr11 O26 2.048359 1_555
