# generated using pymatgen
data_Li3Mn(CoO3)2
_symmetry_space_group_name_H-M   'P 1'
_cell_length_a   3.04536510
_cell_length_b   6.02382370
_cell_length_c   12.45977980
_cell_angle_alpha   103.42057449
_cell_angle_beta   89.46694145
_cell_angle_gamma   91.14601204
_symmetry_Int_Tables_number   1
_chemical_formula_structural   Li3Mn(CoO3)2
_chemical_formula_sum   'Li6 Mn2 Co4 O12'
_cell_volume   222.28273330
_cell_formula_units_Z   2
loop_
 _symmetry_equiv_pos_site_id
 _symmetry_equiv_pos_as_xyz
  1  'x, y, z'
loop_
 _atom_site_type_symbol
 _atom_site_label
 _atom_site_symmetry_multiplicity
 _atom_site_fract_x
 _atom_site_fract_y
 _atom_site_fract_z
 _atom_site_occupancy
  Li  Li0  1  0.00000300  0.16665900  0.33333200  1
  Li  Li1  1  0.50000100  0.66667300  0.83333500  1
  Li  Li2  1  0.99874200  0.50271900  0.00225900  1
  Li  Li3  1  0.49871900  0.00271000  0.50224900  1
  Li  Li4  1  0.50128000  0.33063400  0.16441100  1
  Li  Li5  1  0.00126400  0.83062400  0.66440700  1
  Mn  Mn0  1  0.50008500  0.16666100  0.83332800  1
  Mn  Mn1  1  0.99992800  0.66662600  0.33333700  1
  Co  Co0  1  0.50586000  0.49965300  0.50052000  1
  Co  Co1  1  0.49413200  0.83368300  0.16616200  1
  Co  Co2  1  0.00589900  0.99967500  0.00050500  1
  Co  Co3  1  0.99411100  0.33368000  0.66616200  1
  O  O0  1  0.00837400  0.73548500  0.49248600  1
  O  O1  1  0.50841300  0.23549900  0.99246300  1
  O  O2  1  0.99160300  0.59784900  0.17419500  1
  O  O3  1  0.49160600  0.09783500  0.67418400  1
  O  O4  1  0.00229300  0.06972700  0.15863000  1
  O  O5  1  0.50220600  0.56970800  0.65863100  1
  O  O6  1  0.49779700  0.76363800  0.00803400  1
  O  O7  1  0.99770700  0.26361800  0.50803900  1
  O  O8  1  0.47590000  0.90302200  0.32497400  1
  O  O9  1  0.97604200  0.40304900  0.82497300  1
  O  O10  1  0.52402800  0.43027300  0.34169900  1
  O  O11  1  0.02400700  0.93029900  0.84168500  1
loop_
_geom_bond_atom_site_label_1
_geom_bond_atom_site_label_2
_geom_bond_distance
_geom_bond_site_symmetry_2
Li0 O4 2.118752 1_555
Li0 O7 2.118818 1_455
Li0 O8 2.155415 1_545
Li0 O10 2.155462 1_455
Li0 O10 2.214522 1_555
Li0 O8 2.214799 1_445
Li1 O6 2.118724 1_556
Li1 O5 2.118784 1_555
Li1 O11 2.155582 1_555
Li1 O9 2.155652 1_555
Li1 O9 2.214429 1_455
Li1 O11 2.214555 1_655
Li2 O2 2.085189 1_555
Li2 O9 2.151799 1_554
Li2 O6 2.153905 1_655
Li2 O1 2.156796 1_554
Li2 O6 2.200959 1_555
Li2 O1 2.240607 1_654
Li3 O3 2.085175 1_555
Li3 O8 2.151684 1_545
Li3 O7 2.153693 1_555
Li3 O0 2.156896 1_545
Li3 O7 2.201029 1_455
Li3 O0 2.240644 1_645
Li4 O1 2.085334 1_554
Li4 O10 2.151820 1_555
Li4 O4 2.153701 1_555
Li4 O2 2.156778 1_555
Li4 O4 2.201043 1_655
Li4 O2 2.240616 1_455
Li5 O0 2.085010 1_555
Li5 O11 2.151709 1_555
Li5 O5 2.153897 1_455
Li5 O3 2.156810 1_565
Li5 O5 2.200938 1_555
Li5 O3 2.240569 1_465
Mn0 O1 1.929480 1_555
Mn0 O3 1.929600 1_555
Mn0 O9 2.030488 1_555
Mn0 O11 2.030642 1_545
Mn0 O11 2.178662 1_645
Mn0 O9 2.179038 1_455
Mn1 O2 1.929574 1_555
Mn1 O0 1.929654 1_655
Mn1 O10 2.030238 1_555
Mn1 O8 2.030575 1_655
Mn1 O10 2.179042 1_655
Mn1 O8 2.179057 1_555
Co0 O5 1.916531 1_555
Co0 O10 1.925787 1_555
Co0 O0 2.084776 1_655
Co0 O7 2.096735 1_455
Co0 O7 2.103232 1_555
Co0 O0 2.116219 1_555
Co1 O6 1.916739 1_555
Co1 O8 1.925687 1_555
Co1 O2 2.084814 1_455
Co1 O4 2.096821 1_665
Co1 O4 2.103286 1_565
Co1 O2 2.116192 1_555
Co2 O4 1.916701 1_565
Co2 O11 1.925771 1_554
Co2 O1 2.084763 1_564
Co2 O6 2.096655 1_455
Co2 O6 2.103379 1_555
Co2 O1 2.116207 1_464
Co3 O7 1.916676 1_555
Co3 O9 1.925660 1_555
Co3 O3 2.084779 1_555
Co3 O5 2.096608 1_655
Co3 O5 2.103362 1_555
Co3 O3 2.116263 1_655
