# generated using pymatgen
data_Hf9Re4S
_symmetry_space_group_name_H-M   'P 1'
_cell_length_a   12.10499236
_cell_length_b   12.10499236
_cell_length_c   14.82583200
_cell_angle_alpha   90.00000000
_cell_angle_beta   90.00000000
_cell_angle_gamma   120.00000197
_symmetry_Int_Tables_number   1
_chemical_formula_structural   Hf9Re4S
_chemical_formula_sum   'Hf54 Re24 S6'
_cell_volume   1881.38959137
_cell_formula_units_Z   6
loop_
 _symmetry_equiv_pos_site_id
 _symmetry_equiv_pos_as_xyz
  1  'x, y, z'
loop_
 _atom_site_type_symbol
 _atom_site_label
 _atom_site_symmetry_multiplicity
 _atom_site_fract_x
 _atom_site_fract_y
 _atom_site_fract_z
 _atom_site_occupancy
  Hf  Hf0  1  0.54648400  0.70146600  0.64926700  1
  Hf  Hf1  1  0.21315000  0.03480000  0.98260000  1
  Hf  Hf2  1  0.87981700  0.36813300  0.31593300  1
  Hf  Hf3  1  0.68406700  0.56388400  0.51168400  1
  Hf  Hf4  1  0.35073300  0.89721700  0.84501700  1
  Hf  Hf5  1  0.01740000  0.23055000  0.17835100  1
  Hf  Hf6  1  0.82164900  0.83904900  0.78685000  1
  Hf  Hf7  1  0.48831600  0.17238300  0.12018300  1
  Hf  Hf8  1  0.15498300  0.50571600  0.45351600  1
  Hf  Hf9  1  0.45351600  0.29853400  0.35073300  1
  Hf  Hf10  1  0.12018300  0.63186700  0.68406700  1
  Hf  Hf11  1  0.78685000  0.96520000  0.01740000  1
  Hf  Hf12  1  0.31593300  0.43611600  0.48831600  1
  Hf  Hf13  1  0.98260000  0.76945000  0.82164900  1
  Hf  Hf14  1  0.64926700  0.10278300  0.15498300  1
  Hf  Hf15  1  0.17835100  0.16095100  0.21315000  1
  Hf  Hf16  1  0.84501700  0.49428400  0.54648400  1
  Hf  Hf17  1  0.51168400  0.82761700  0.87981700  1
  Hf  Hf18  1  0.32164900  0.03480000  0.48260000  1
  Hf  Hf19  1  0.98831600  0.36813300  0.81593300  1
  Hf  Hf20  1  0.65498300  0.70146600  0.14926700  1
  Hf  Hf21  1  0.18406700  0.17238300  0.62018300  1
  Hf  Hf22  1  0.85073300  0.50571600  0.95351600  1
  Hf  Hf23  1  0.51740000  0.83904900  0.28685000  1
  Hf  Hf24  1  0.04648400  0.89721700  0.34501700  1
  Hf  Hf25  1  0.71315000  0.23055000  0.67835100  1
  Hf  Hf26  1  0.37981700  0.56388400  0.01168400  1
  Hf  Hf27  1  0.67835100  0.96520000  0.51740000  1
  Hf  Hf28  1  0.34501700  0.29853400  0.85073300  1
  Hf  Hf29  1  0.01168400  0.63186700  0.18406700  1
  Hf  Hf30  1  0.81593300  0.82761700  0.37981700  1
  Hf  Hf31  1  0.48260000  0.16095100  0.71315000  1
  Hf  Hf32  1  0.14926700  0.49428400  0.04648400  1
  Hf  Hf33  1  0.95351600  0.10278300  0.65498300  1
  Hf  Hf34  1  0.62018300  0.43611600  0.98831600  1
  Hf  Hf35  1  0.28685000  0.76945000  0.32164900  1
  Hf  Hf36  1  0.95936400  0.83333300  0.58333300  1
  Hf  Hf37  1  0.62603100  0.16666700  0.91666700  1
  Hf  Hf38  1  0.29269800  0.50000000  0.25000000  1
  Hf  Hf39  1  0.08333300  0.70936400  0.45936400  1
  Hf  Hf40  1  0.75000000  0.04269800  0.79269800  1
  Hf  Hf41  1  0.41666700  0.37603100  0.12603100  1
  Hf  Hf42  1  0.20730200  0.95730200  0.70730200  1
  Hf  Hf43  1  0.87396900  0.29063600  0.04063600  1
  Hf  Hf44  1  0.54063600  0.62396900  0.37396900  1
  Hf  Hf45  1  0.04063600  0.16666700  0.41666700  1
  Hf  Hf46  1  0.70730200  0.50000000  0.75000000  1
  Hf  Hf47  1  0.37396900  0.83333300  0.08333300  1
  Hf  Hf48  1  0.91666700  0.29063600  0.54063600  1
  Hf  Hf49  1  0.58333300  0.62396900  0.87396900  1
  Hf  Hf50  1  0.25000000  0.95730200  0.20730200  1
  Hf  Hf51  1  0.79269800  0.04269800  0.29269800  1
  Hf  Hf52  1  0.45936400  0.37603100  0.62603100  1
  Hf  Hf53  1  0.12603100  0.70936400  0.95936400  1
  Re  Re0  1  0.30678600  0.83333300  0.58333300  1
  Re  Re1  1  0.97345300  0.16666700  0.91666700  1
  Re  Re2  1  0.64011900  0.50000000  0.25000000  1
  Re  Re3  1  0.08333300  0.05678600  0.80678600  1
  Re  Re4  1  0.75000000  0.39011900  0.14011900  1
  Re  Re5  1  0.41666700  0.72345300  0.47345300  1
  Re  Re6  1  0.85988100  0.60988100  0.35988100  1
  Re  Re7  1  0.52654700  0.94321400  0.69321400  1
  Re  Re8  1  0.19321400  0.27654700  0.02654700  1
  Re  Re9  1  0.69321400  0.16666700  0.41666700  1
  Re  Re10  1  0.35988100  0.50000000  0.75000000  1
  Re  Re11  1  0.02654700  0.83333300  0.08333300  1
  Re  Re12  1  0.91666700  0.94321400  0.19321400  1
  Re  Re13  1  0.58333300  0.27654700  0.52654700  1
  Re  Re14  1  0.25000000  0.60988100  0.85988100  1
  Re  Re15  1  0.14011900  0.39011900  0.64011900  1
  Re  Re16  1  0.80678600  0.72345300  0.97345300  1
  Re  Re17  1  0.47345300  0.05678600  0.30678600  1
  Re  Re18  1  0.00000000  0.00000000  0.00000000  1
  Re  Re19  1  0.66666700  0.33333300  0.33333300  1
  Re  Re20  1  0.33333300  0.66666700  0.66666700  1
  Re  Re21  1  0.83333300  0.66666700  0.16666700  1
  Re  Re22  1  0.50000000  0.00000000  0.50000000  1
  Re  Re23  1  0.16666700  0.33333300  0.83333300  1
  S  S0  1  0.75000000  0.83333300  0.58333300  1
  S  S1  1  0.41666700  0.16666700  0.91666700  1
  S  S2  1  0.08333300  0.50000000  0.25000000  1
  S  S3  1  0.25000000  0.16666700  0.41666700  1
  S  S4  1  0.91666700  0.50000000  0.75000000  1
  S  S5  1  0.58333300  0.83333300  0.08333300  1
loop_
_geom_bond_atom_site_label_1
_geom_bond_atom_site_label_2
_geom_bond_distance
_geom_bond_site_symmetry_2
Hf0 S0 2.374919 1_555
Hf0 Re20 2.411327 1_555
Hf0 Re10 2.787735 1_555
Hf0 Re7 3.122911 1_555
Hf0 Re5 3.122945 1_555
Hf1 S1 2.374921 1_555
Hf1 Re18 2.411310 1_556
Hf1 Re11 2.787741 1_546
Hf1 Re8 3.122892 1_556
Hf1 Re3 3.122941 1_555
Hf2 S2 2.374913 1_655
Hf2 Re19 2.411310 1_555
Hf2 Re9 2.787743 1_555
Hf2 Re6 3.122907 1_555
Hf2 Re4 3.122941 1_555
Hf3 Re6 2.952899 1_555
Hf3 Hf44 2.995833 1_555
Hf3 Hf52 3.042732 1_555
Hf3 Re13 3.064659 1_555
Hf3 S0 3.130610 1_555
Hf4 Re7 2.952899 1_555
Hf4 Hf42 2.995833 1_555
Hf4 Hf53 3.042725 1_555
Hf4 Re14 3.064651 1_555
Hf4 S1 3.130623 1_565
Hf5 Re8 2.952910 1_555
Hf5 Hf51 3.042722 1_455
Hf5 Re12 3.064650 1_445
Hf5 S2 3.130621 1_555
Hf6 Re3 2.952869 1_665
Hf6 Re16 3.064701 1_555
Hf6 S0 3.130680 1_555
Hf7 Re4 2.952865 1_555
Hf7 Re17 3.064706 1_555
Hf7 S1 3.130666 1_554
Hf8 Re5 2.952871 1_555
Hf8 Re15 3.064704 1_555
Hf8 S2 3.130669 1_555
Hf9 S3 2.374919 1_555
Hf9 Re19 2.411327 1_555
Hf9 Re2 2.787735 1_555
Hf9 Re17 3.122911 1_555
Hf9 Re13 3.122945 1_555
Hf10 S4 2.374913 1_455
Hf10 Re20 2.411310 1_555
Hf10 Re0 2.787743 1_555
Hf10 Re15 3.122907 1_555
Hf10 Re14 3.122941 1_555
Hf11 S5 2.374921 1_555
Hf11 Re18 2.411310 1_665
Hf11 Re1 2.787741 1_564
Hf11 Re16 3.122892 1_554
Hf11 Re12 3.122941 1_555
Hf12 Hf8 2.532456 1_555
Hf12 Re15 2.952899 1_555
Hf12 Hf52 2.995833 1_555
Hf12 Hf44 3.042732 1_555
Hf12 Re5 3.064659 1_555
Hf12 S3 3.130610 1_555
Hf13 Hf6 2.532456 1_555
Hf13 Re16 2.952910 1_555
Hf13 Hf53 2.995840 1_655
Hf13 Hf42 3.042722 1_655
Hf13 Re3 3.064650 1_665
Hf13 S4 3.130621 1_555
Hf14 Hf7 2.532468 1_555
Hf14 Re17 2.952899 1_555
Hf14 Hf51 2.995833 1_555
Hf14 Hf43 3.042725 1_555
Hf14 Re4 3.064651 1_555
Hf14 S5 3.130623 1_545
Hf15 Hf5 2.532456 1_555
Hf15 Re12 2.952869 1_445
Hf15 Hf50 2.995809 1_545
Hf15 Hf41 3.042714 1_555
Hf15 Re8 3.064701 1_555
Hf15 S3 3.130680 1_555
Hf16 Hf3 2.532456 1_555
Hf16 Re13 2.952871 1_555
Hf16 Hf48 2.995806 1_555
Hf16 Hf39 3.042720 1_655
Hf16 Re6 3.064704 1_555
Hf16 S4 3.130669 1_555
Hf17 Hf4 2.532468 1_555
Hf17 Re14 2.952865 1_555
Hf17 Hf49 2.995798 1_555
Hf17 Hf40 3.042718 1_565
Hf17 Re7 3.064706 1_555
Hf17 S5 3.130666 1_556
Hf18 S3 2.374913 1_555
Hf18 Re22 2.411322 1_555
Hf18 Re0 2.787746 1_545
Hf18 Re13 3.122899 1_555
Hf18 Re17 3.122948 1_555
Hf19 S4 2.374913 1_555
Hf19 Re23 2.411322 1_655
Hf19 Re1 2.787743 1_555
Hf19 Re14 3.122907 1_655
Hf19 Re15 3.122941 1_655
Hf20 S5 2.374927 1_555
Hf20 Re21 2.411303 1_555
Hf20 Re2 2.787731 1_555
Hf20 Re12 3.122904 1_555
Hf20 Re16 3.122939 1_554
Hf21 Hf33 2.532468 1_455
Hf21 Re15 2.952865 1_555
Hf21 Hf52 2.995798 1_555
Hf21 Hf42 3.042718 1_545
Hf21 Re3 3.064706 1_555
Hf21 S3 3.130666 1_555
Hf22 Hf34 2.532456 1_555
Hf22 Re16 2.952871 1_555
Hf22 Hf53 2.995806 1_655
Hf22 Hf43 3.042720 1_556
Hf22 Re4 3.064704 1_556
Hf22 S4 3.130669 1_555
Hf23 Hf35 2.532456 1_555
Hf23 Re17 2.952869 1_565
Hf23 Hf51 2.995809 1_565
Hf23 Hf44 3.042714 1_555
Hf23 Re5 3.064701 1_555
Hf23 S5 3.130680 1_555
Hf24 Hf30 2.532468 1_455
Hf24 Re12 2.952899 1_455
Hf24 Hf50 2.995833 1_555
Hf24 Hf39 3.042725 1_555
Hf24 Re6 3.064651 1_455
Hf24 S3 3.130623 1_565
Hf25 Hf31 2.532456 1_555
Hf25 Re13 2.952910 1_555
Hf25 Hf48 2.995839 1_555
Hf25 Hf40 3.042722 1_555
Hf25 Re7 3.064650 1_545
Hf25 S4 3.130621 1_555
Hf26 Hf32 2.532456 1_555
Hf26 Re14 2.952899 1_554
Hf26 Hf49 2.995833 1_554
Hf26 Hf41 3.042732 1_555
Hf26 Re8 3.064659 1_555
Hf26 S5 3.130610 1_555
Hf27 S0 2.374913 1_555
Hf27 Re22 2.411322 1_565
Hf27 Re9 2.787746 1_565
Hf27 Re5 3.122899 1_555
Hf27 Re7 3.122948 1_555
Hf28 S1 2.374927 1_555
Hf28 Re23 2.411303 1_555
Hf28 Re10 2.787731 1_555
Hf28 Re3 3.122904 1_555
Hf28 Re8 3.122939 1_556
Hf29 S2 2.374913 1_555
Hf29 Re21 2.411322 1_455
Hf29 Re11 2.787743 1_555
Hf29 Re4 3.122907 1_455
Hf29 Re6 3.122941 1_455
Hf30 Re6 2.952865 1_555
Hf30 Hf44 2.995798 1_555
Hf30 Hf51 3.042718 1_565
Hf30 Re12 3.064706 1_555
Hf30 S0 3.130666 1_555
Hf31 Re7 2.952869 1_545
Hf31 Hf42 2.995809 1_545
Hf31 Hf52 3.042714 1_555
Hf31 Re13 3.064701 1_555
Hf31 S1 3.130680 1_555
Hf32 Re8 2.952871 1_555
Hf32 Hf43 2.995806 1_455
Hf32 Hf53 3.042720 1_554
Hf32 Re14 3.064704 1_554
Hf32 S2 3.130669 1_555
Hf33 Re3 2.952899 1_655
Hf33 Hf40 2.995833 1_555
Hf33 Hf48 3.042725 1_555
Hf33 Re15 3.064651 1_655
Hf33 S0 3.130623 1_545
Hf34 Re4 2.952899 1_556
Hf34 Hf41 2.995833 1_556
Hf34 Hf49 3.042732 1_555
Hf34 Re16 3.064659 1_555
Hf34 S1 3.130610 1_555
Hf35 Re5 2.952910 1_555
Hf35 Hf39 2.995839 1_555
Hf35 Hf50 3.042722 1_555
Hf35 Re17 3.064650 1_565
Hf35 S2 3.130621 1_555
Hf36 S0 2.534350 1_555
Hf37 S1 2.534350 1_555
Hf38 S2 2.534362 1_555
Hf39 Re6 2.772120 1_455
Hf39 Re0 2.981166 1_555
Hf39 Hf8 2.995806 1_555
Hf40 Re7 2.772136 1_545
Hf40 Re1 2.981166 1_555
Hf40 Hf6 2.995809 1_545
Hf41 Re8 2.772136 1_555
Hf41 Re2 2.981158 1_555
Hf41 Hf7 2.995798 1_555
Hf42 Re3 2.772136 1_565
Hf42 Re0 2.981166 1_555
Hf43 Re4 2.772120 1_555
Hf43 Re1 2.981166 1_554
Hf43 Hf5 2.995840 1_655
Hf44 Re5 2.772136 1_555
Hf44 Re2 2.981158 1_555
Hf45 S3 2.534350 1_555
Hf46 S4 2.534362 1_555
Hf47 S5 2.534350 1_555
Hf48 Re15 2.772120 1_655
Hf48 Re9 2.981166 1_555
Hf48 Hf8 3.042720 1_655
Hf49 Re16 2.772136 1_555
Hf49 Re10 2.981158 1_555
Hf49 Hf6 3.042714 1_555
Hf50 Re17 2.772136 1_565
Hf50 Re11 2.981166 1_555
Hf50 Hf7 3.042718 1_565
Hf51 Re12 2.772136 1_545
Hf51 Re9 2.981166 1_555
Hf52 Re13 2.772136 1_555
Hf52 Re10 2.981158 1_555
Hf53 Re14 2.772120 1_555
Hf53 Re11 2.981166 1_556
Re0 Re20 2.519585 1_555
Re0 Re22 2.519588 1_565
Re0 Re5 2.821589 1_555
Re0 Re7 2.821597 1_555
Re1 Re18 2.519588 1_656
Re1 Re23 2.519591 1_655
Re1 Re8 2.821589 1_656
Re1 Re3 2.821597 1_655
Re2 Re21 2.519588 1_555
Re2 Re6 2.821606 1_555
Re2 Re4 2.821606 1_555
Re10 Re23 2.519588 1_555
Re10 Re20 2.519595 1_555
Re10 Re15 2.821606 1_555
Re10 Re14 2.821606 1_555
Re11 Re18 2.519588 1_565
Re11 Re21 2.519591 1_455
Re11 Re16 2.821589 1_454
Re11 Re12 2.821597 1_455
Re12 Re21 3.000334 1_555
Re12 Re18 3.000394 1_665
Re13 Re9 2.821589 1_555
Re13 Re22 3.000337 1_555
Re13 Re19 3.000397 1_555
Re14 Re23 3.000350 1_555
Re14 Re20 3.000394 1_555
Re15 Re20 3.000347 1_555
Re15 Re23 3.000397 1_555
Re16 Re18 3.000336 1_666
Re16 Re21 3.000394 1_556
Re17 Re9 2.821597 1_555
Re17 Re19 3.000336 1_555
Re17 Re22 3.000394 1_555
Re18 Re8 3.000336 1_555
Re18 Re3 3.000394 1_554
Re19 Re9 2.519585 1_555
Re19 Re2 2.519595 1_555
Re19 Re6 3.000347 1_555
Re19 Re4 3.000394 1_555
Re20 Re7 3.000336 1_555
Re20 Re5 3.000397 1_555
Re21 Re4 3.000350 1_555
Re21 Re6 3.000397 1_555
Re22 Re9 2.519588 1_555
Re22 Re5 3.000337 1_545
Re22 Re7 3.000394 1_545
Re23 Re3 3.000334 1_555
Re23 Re8 3.000394 1_556
