# generated using pymatgen
data_La2CuSnO6
_symmetry_space_group_name_H-M   'P 1'
_cell_length_a   7.84485600
_cell_length_b   7.85643600
_cell_length_c   8.71626571
_cell_angle_alpha   88.09077464
_cell_angle_beta   90.00000000
_cell_angle_gamma   90.00000000
_symmetry_Int_Tables_number   1
_chemical_formula_structural   La2CuSnO6
_chemical_formula_sum   'La8 Cu4 Sn4 O24'
_cell_volume   536.90797494
_cell_formula_units_Z   4
loop_
 _symmetry_equiv_pos_site_id
 _symmetry_equiv_pos_as_xyz
  1  'x, y, z'
loop_
 _atom_site_type_symbol
 _atom_site_label
 _atom_site_symmetry_multiplicity
 _atom_site_fract_x
 _atom_site_fract_y
 _atom_site_fract_z
 _atom_site_occupancy
  La  La0  1  0.75000000  0.28465100  0.22674100  1
  La  La1  1  0.25000000  0.71534900  0.77325900  1
  La  La2  1  0.75000000  0.79695200  0.24554600  1
  La  La3  1  0.25000000  0.20304800  0.75445400  1
  La  La4  1  0.75000000  0.77073600  0.80621500  1
  La  La5  1  0.25000000  0.22926400  0.19378500  1
  La  La6  1  0.75000000  0.28552200  0.78950300  1
  La  La7  1  0.25000000  0.71447800  0.21049700  1
  Cu  Cu0  1  0.00000000  0.00000000  0.00000000  1
  Cu  Cu1  1  0.50000000  0.00000000  0.00000000  1
  Cu  Cu2  1  0.00000000  0.50000000  0.00000000  1
  Cu  Cu3  1  0.50000000  0.50000000  0.00000000  1
  Sn  Sn0  1  0.00000000  0.00000000  0.50000000  1
  Sn  Sn1  1  0.50000000  0.00000000  0.50000000  1
  Sn  Sn2  1  0.00000000  0.50000000  0.50000000  1
  Sn  Sn3  1  0.50000000  0.50000000  0.50000000  1
  O  O0  1  0.75000000  0.46967800  0.00696500  1
  O  O1  1  0.25000000  0.53032200  0.99303500  1
  O  O2  1  0.75000000  0.52245800  0.41136800  1
  O  O3  1  0.25000000  0.47754200  0.58863200  1
  O  O4  1  0.75000000  0.92023300  0.54554900  1
  O  O5  1  0.25000000  0.07976700  0.45445100  1
  O  O6  1  0.75000000  0.03551000  0.96975100  1
  O  O7  1  0.25000000  0.96449000  0.03024900  1
  O  O8  1  0.45835400  0.75229200  0.41822300  1
  O  O9  1  0.95835400  0.24770800  0.58177700  1
  O  O10  1  0.54164600  0.24770800  0.58177700  1
  O  O11  1  0.04164600  0.75229200  0.41822300  1
  O  O12  1  0.44583700  0.43809200  0.27660700  1
  O  O13  1  0.94583700  0.56190800  0.72339300  1
  O  O14  1  0.55416300  0.56190800  0.72339300  1
  O  O15  1  0.05416300  0.43809200  0.27660700  1
  O  O16  1  0.96440600  0.75125300  0.03970600  1
  O  O17  1  0.46440600  0.24874700  0.96029400  1
  O  O18  1  0.03559400  0.24874700  0.96029400  1
  O  O19  1  0.53559400  0.75125300  0.03970600  1
  O  O20  1  0.94264500  0.05611600  0.27307800  1
  O  O21  1  0.44264500  0.94388400  0.72692200  1
  O  O22  1  0.05735500  0.94388400  0.72692200  1
  O  O23  1  0.55735500  0.05611600  0.27307800  1
loop_
_geom_bond_atom_site_label_1
_geom_bond_atom_site_label_2
_geom_bond_distance
_geom_bond_site_symmetry_2
La0 O0 2.365836 1_555
La0 O20 2.371173 1_555
La0 O23 2.371173 1_555
La0 O2 2.506123 1_555
La0 O15 2.714885 1_655
La0 O12 2.714885 1_555
La1 O1 2.365836 1_555
La1 O21 2.371173 1_555
La1 O22 2.371173 1_555
La1 O3 2.506123 1_555
La1 O14 2.714885 1_555
La1 O13 2.714885 1_455
La2 O19 2.493971 1_555
La2 O16 2.493971 1_555
La2 O20 2.553393 1_565
La2 O23 2.553393 1_565
La2 O2 2.555783 1_555
La2 O8 2.754601 1_555
La2 O11 2.754601 1_655
La2 O4 2.818613 1_555
La2 O6 2.998537 1_564
La3 O18 2.493971 1_555
La3 O17 2.493971 1_555
La3 O22 2.553393 1_545
La3 O21 2.553393 1_545
La3 O3 2.555783 1_555
La3 O10 2.754601 1_555
La3 O9 2.754601 1_455
La3 O5 2.818613 1_555
La3 O7 2.998537 1_546
La4 O14 2.377399 1_555
La4 O13 2.377399 1_555
La4 O4 2.522659 1_555
La4 O6 2.560577 1_565
La4 O19 2.640769 1_556
La4 O16 2.640769 1_556
La4 O21 2.842391 1_555
La4 O22 2.842391 1_655
La4 O0 2.894887 1_556
La5 O15 2.377399 1_555
La5 O12 2.377399 1_555
La5 O5 2.522659 1_555
La5 O7 2.560577 1_545
La5 O17 2.640769 1_554
La5 O18 2.640769 1_554
La5 O20 2.842391 1_455
La5 O23 2.842391 1_555
La5 O1 2.894887 1_554
La6 O0 2.422549 1_556
La6 O9 2.464542 1_555
La6 O10 2.464542 1_555
La6 O6 2.474024 1_555
La6 O18 2.700095 1_655
La6 O17 2.700095 1_555
La6 O13 2.706279 1_555
La6 O14 2.706279 1_555
La7 O1 2.422549 1_554
La7 O11 2.464542 1_555
La7 O8 2.464542 1_555
La7 O7 2.474024 1_555
La7 O16 2.700095 1_455
La7 O19 2.700095 1_555
La7 O12 2.706279 1_555
La7 O15 2.706279 1_555
Cu0 O18 1.992945 1_554
Cu0 O16 1.992945 1_445
Cu0 O6 1.997200 1_454
Cu0 O7 1.997200 1_545
Cu0 O20 2.476325 1_455
Cu0 O22 2.476325 1_544
Cu1 O17 1.992945 1_554
Cu1 O19 1.992945 1_545
Cu1 O6 1.997200 1_554
Cu1 O7 1.997200 1_545
Cu1 O23 2.476325 1_555
Cu1 O21 2.476325 1_544
Cu2 O0 1.976318 1_455
Cu2 O1 1.976318 1_554
Cu2 O16 2.034639 1_455
Cu2 O18 2.034639 1_554
Cu2 O15 2.480281 1_555
Cu2 O13 2.480281 1_454
Cu3 O0 1.976318 1_555
Cu3 O1 1.976318 1_554
Cu3 O19 2.034639 1_555
Cu3 O17 2.034639 1_554
Cu3 O12 2.480281 1_555
Cu3 O14 2.480281 1_554
O2 Sn2 2.113108 1_655
O2 Sn3 2.113108 1_555
O3 Sn2 2.113108 1_555
O3 Sn3 2.113108 1_555
O4 Sn0 2.092878 1_665
O4 Sn1 2.092878 1_565
O5 Sn0 2.092878 1_555
O5 Sn1 2.092878 1_555
O8 Sn3 2.109372 1_555
O8 Sn1 2.120035 1_565
O9 Sn2 2.109372 1_655
O9 Sn0 2.120035 1_655
O10 Sn3 2.109372 1_555
O10 Sn1 2.120035 1_555
O11 Sn2 2.109372 1_555
O11 Sn0 2.120035 1_565
O12 Sn3 2.066787 1_555
O13 Sn2 2.066787 1_655
O14 Sn3 2.066787 1_555
O15 Sn2 2.066787 1_555
O20 Sn0 2.061759 1_655
O21 Sn1 2.061759 1_565
O22 Sn0 2.061759 1_565
O23 Sn1 2.061759 1_555
