# generated using pymatgen
data_Ba4Sr2Y3(SbO6)3
_symmetry_space_group_name_H-M   'P 1'
_cell_length_a   5.99300800
_cell_length_b   5.99971870
_cell_length_c   13.40682158
_cell_angle_alpha   102.82990592
_cell_angle_beta   102.89029570
_cell_angle_gamma   90.06362996
_symmetry_Int_Tables_number   1
_chemical_formula_structural   Ba4Sr2Y3(SbO6)3
_chemical_formula_sum   'Ba4 Sr2 Y3 Sb3 O18'
_cell_volume   457.52910901
_cell_formula_units_Z   1
loop_
 _symmetry_equiv_pos_site_id
 _symmetry_equiv_pos_as_xyz
  1  'x, y, z'
loop_
 _atom_site_type_symbol
 _atom_site_label
 _atom_site_symmetry_multiplicity
 _atom_site_fract_x
 _atom_site_fract_y
 _atom_site_fract_z
 _atom_site_occupancy
  Ba  Ba0  1  0.25078800  0.24981300  0.00041000  1
  Ba  Ba1  1  0.91715200  0.91718000  0.33436800  1
  Ba  Ba2  1  0.58260800  0.58241300  0.66487900  1
  Ba  Ba3  1  0.74936000  0.75121000  0.00083800  1
  Sr  Sr0  1  0.41088800  0.42082800  0.33573700  1
  Sr  Sr1  1  0.07811700  0.08812900  0.67056000  1
  Y  Y0  1  0.16659400  0.66655300  0.83234200  1
  Y  Y1  1  0.83309100  0.33389600  0.16795100  1
  Y  Y2  1  0.49969200  0.00021700  0.50014100  1
  Sb  Sb0  1  0.00043500  0.49999200  0.50012200  1
  Sb  Sb1  1  0.66601100  0.16576700  0.83194300  1
  Sb  Sb2  1  0.33398900  0.83410900  0.16778400  1
  O  O0  1  0.89495600  0.92103200  0.83126200  1
  O  O1  1  0.55986600  0.58650100  0.16914000  1
  O  O2  1  0.22683800  0.25293300  0.50063800  1
  O  O3  1  0.08903000  0.59063800  0.65729600  1
  O  O4  1  0.75491900  0.25456500  0.99026600  1
  O  O5  1  0.42220900  0.92422900  0.32529400  1
  O  O6  1  0.77558500  0.74805100  0.50080600  1
  O  O7  1  0.43773000  0.41066000  0.83149700  1
  O  O8  1  0.10925700  0.08266200  0.16887000  1
  O  O9  1  0.57683300  0.07788000  0.67458100  1
  O  O10  1  0.24500000  0.74571600  0.00940700  1
  O  O11  1  0.91043000  0.41166600  0.34231100  1
  O  O12  1  0.57702900  0.05699400  0.16063100  1
  O  O13  1  0.24726000  0.71581300  0.48981600  1
  O  O14  1  0.91245200  0.38379700  0.82279100  1
  O  O15  1  0.42108400  0.94291500  0.83724600  1
  O  O16  1  0.09342300  0.60788400  0.17477600  1
  O  O17  1  0.75737300  0.27595500  0.50629500  1
loop_
_geom_bond_atom_site_label_1
_geom_bond_atom_site_label_2
_geom_bond_distance
_geom_bond_site_symmetry_2
Ba0 O15 2.903209 1_544
Ba0 O4 2.944856 1_454
Ba0 O8 2.946994 1_555
Ba0 O10 2.951397 1_555
Ba0 O1 2.953229 1_555
Ba0 O12 3.001659 1_555
Ba0 O14 3.021199 1_454
Ba0 O10 3.053955 1_545
Ba0 O4 3.054862 1_554
Ba0 O7 3.068384 1_554
Ba0 O0 3.070449 1_444
Ba0 O16 3.118859 1_555
Ba1 O16 2.896033 1_655
Ba1 O6 2.928650 1_555
Ba1 O2 2.936511 1_665
Ba1 O5 2.942189 1_555
Ba1 O11 2.945606 1_565
Ba1 O13 3.000123 1_655
Ba1 O12 3.006197 1_565
Ba1 O5 3.056871 1_655
Ba1 O8 3.057749 1_665
Ba1 O1 3.057857 1_555
Ba1 O11 3.058886 1_555
Ba1 O17 3.106317 1_565
Ba2 O17 2.873965 1_555
Ba2 O3 2.937859 1_555
Ba2 O9 2.947092 1_565
Ba2 O7 2.948109 1_555
Ba2 O0 2.953512 1_555
Ba2 O13 2.986890 1_555
Ba2 O14 3.011332 1_555
Ba2 O2 3.043856 1_555
Ba2 O6 3.044196 1_555
Ba2 O9 3.059056 1_555
Ba2 O3 3.059984 1_655
Ba2 O15 3.120639 1_555
Ba3 O12 2.875385 1_565
Ba3 O10 2.947381 1_655
Ba3 O4 2.952076 1_554
Ba3 O7 2.976003 1_554
Ba3 O0 2.979938 1_554
Ba3 O16 3.029578 1_655
Ba3 O15 3.033798 1_554
Ba3 O10 3.050736 1_555
Ba3 O4 3.055080 1_564
Ba3 O1 3.080361 1_555
Ba3 O8 3.084581 1_665
Ba3 O14 3.197097 1_554
O0 Sb1 2.010670 1_565
O0 Y0 2.233004 1_655
O0 Sr1 2.977227 1_665
O1 Sb2 2.011271 1_555
O1 Y1 2.232669 1_555
O1 Sr0 2.940679 1_555
O2 Sb0 2.010734 1_555
O2 Y2 2.231322 1_555
O2 Sr1 2.977622 1_555
O2 Sr0 3.032085 1_555
O3 Sb0 2.002300 1_555
O3 Y0 2.229157 1_555
O3 Sr1 2.952094 1_565
O3 Sr1 3.060793 1_555
O4 Sb1 2.016368 1_555
O4 Y1 2.262492 1_556
O5 Sb2 2.006324 1_555
O5 Y2 2.226593 1_565
O5 Sr0 2.953097 1_565
O5 Sr0 3.055779 1_555
O6 Sb0 2.008684 1_655
O6 Y2 2.242280 1_565
O6 Sr1 2.952688 1_665
O6 Sr0 3.071111 1_555
O7 Sb1 2.008789 1_555
O7 Y0 2.236879 1_555
O7 Sr1 3.017698 1_555
O8 Sb2 2.010355 1_545
O8 Y1 2.239673 1_455
O8 Sr0 2.925867 1_555
O9 Sb1 2.004210 1_555
O9 Y2 2.221139 1_555
O9 Sr1 2.978197 1_555
O9 Sr1 3.017486 1_655
O10 Sb2 2.016987 1_555
O10 Y0 2.254499 1_554
O11 Sb0 2.010073 1_655
O11 Y1 2.220062 1_555
O11 Sr0 2.976269 1_555
O11 Sr0 3.020929 1_655
O12 Sb2 2.008454 1_545
O12 Y1 2.231443 1_555
O12 Sr0 3.168528 1_555
O13 Sb0 2.012527 1_555
O13 Y2 2.239497 1_565
O13 Sr0 2.764970 1_555
O13 Sr1 3.253657 1_565
O14 Sb1 2.013796 1_555
O14 Y0 2.241627 1_655
O14 Sr1 2.756451 1_655
O15 Sb1 2.007924 1_565
O15 Y0 2.231803 1_555
O15 Sr1 2.965982 1_565
O16 Sb2 2.010475 1_555
O16 Y1 2.237982 1_455
O16 Sr0 2.963889 1_555
O17 Sb0 2.008569 1_655
O17 Y2 2.237265 1_555
O17 Sr1 3.005509 1_655
O17 Sr0 3.010687 1_555
