# generated using pymatgen
data_Nd(AlGe)2
_symmetry_space_group_name_H-M   'P 1'
_cell_length_a   4.25442203
_cell_length_b   4.25442196
_cell_length_c   6.91078465
_cell_angle_alpha   90.00000000
_cell_angle_beta   90.00000000
_cell_angle_gamma   120.00000064
_symmetry_Int_Tables_number   1
_chemical_formula_structural   Nd(AlGe)2
_chemical_formula_sum   'Nd1 Al2 Ge2'
_cell_volume   108.32759942
_cell_formula_units_Z   1
loop_
 _symmetry_equiv_pos_site_id
 _symmetry_equiv_pos_as_xyz
  1  'x, y, z'
loop_
 _atom_site_type_symbol
 _atom_site_label
 _atom_site_symmetry_multiplicity
 _atom_site_fract_x
 _atom_site_fract_y
 _atom_site_fract_z
 _atom_site_occupancy
  Nd  Nd0  1  -0.00000000  0.00000000  0.00000000  1
  Al  Al0  1  0.66666700  0.33333300  0.36045865  1
  Al  Al1  1  0.33333300  0.66666700  0.63954135  1
  Ge  Ge0  1  0.66666700  0.33333300  0.73126048  1
  Ge  Ge1  1  0.33333300  0.66666700  0.26873952  1
loop_
_geom_bond_atom_site_label_1
_geom_bond_atom_site_label_2
_geom_bond_distance
_geom_bond_site_symmetry_2
Al0 Ge1 2.536755 1_545
Al0 Ge1 2.536755 1_655
Al0 Ge1 2.536762 1_555
Al0 Ge0 2.562532 1_555
Al1 Ge0 2.536755 1_565
Al1 Ge0 2.536755 1_455
Al1 Ge0 2.536762 1_555
Al1 Ge1 2.562532 1_555
Ge0 Nd0 3.079375 1_656
Ge0 Nd0 3.079378 1_666
Ge0 Nd0 3.079378 1_556
Ge1 Nd0 3.079375 1_565
Ge1 Nd0 3.079378 1_555
Ge1 Nd0 3.079378 1_665
