# generated using pymatgen
data_Ho2Te5
_symmetry_space_group_name_H-M   'P 1'
_cell_length_a   21.97485549
_cell_length_b   21.97485549
_cell_length_c   4.38161800
_cell_angle_alpha   90.00000000
_cell_angle_beta   90.00000000
_cell_angle_gamma   168.56177011
_symmetry_Int_Tables_number   1
_chemical_formula_structural   Ho2Te5
_chemical_formula_sum   'Ho4 Te10'
_cell_volume   419.59874646
_cell_formula_units_Z   2
loop_
 _symmetry_equiv_pos_site_id
 _symmetry_equiv_pos_as_xyz
  1  'x, y, z'
loop_
 _atom_site_type_symbol
 _atom_site_label
 _atom_site_symmetry_multiplicity
 _atom_site_fract_x
 _atom_site_fract_y
 _atom_site_fract_z
 _atom_site_occupancy
  Ho  Ho0  1  0.09966700  0.90033300  0.75000000  1
  Ho  Ho1  1  0.90033300  0.09966700  0.25000000  1
  Ho  Ho2  1  0.30639300  0.69360700  0.75000000  1
  Ho  Ho3  1  0.69360700  0.30639300  0.25000000  1
  Te  Te0  1  0.95583000  0.04417000  0.75000000  1
  Te  Te1  1  0.04417000  0.95583000  0.25000000  1
  Te  Te2  1  0.54424100  0.45575900  0.75000000  1
  Te  Te3  1  0.45575900  0.54424100  0.25000000  1
  Te  Te4  1  0.75000100  0.24999900  0.75000000  1
  Te  Te5  1  0.24999900  0.75000100  0.25000000  1
  Te  Te6  1  0.17351400  0.82648600  0.75000000  1
  Te  Te7  1  0.82648600  0.17351400  0.25000000  1
  Te  Te8  1  0.37850100  0.62149900  0.75000000  1
  Te  Te9  1  0.62149900  0.37850100  0.25000000  1
loop_
_geom_bond_atom_site_label_1
_geom_bond_atom_site_label_2
_geom_bond_distance
_geom_bond_site_symmetry_2
Ho0 Te6 3.229399 1_555
Ho0 Te9 3.241377 1_456
Ho0 Te9 3.241377 1_565
Ho0 Te9 3.241377 1_455
Ho0 Te9 3.241377 1_566
Ho0 Te2 3.266546 1_455
Ho0 Te2 3.266546 1_565
Ho0 Te1 3.269505 1_556
Ho0 Te1 3.269505 1_555
Ho1 Te7 3.229399 1_555
Ho1 Te8 3.241377 1_544
Ho1 Te8 3.241377 1_545
Ho1 Te8 3.241377 1_654
Ho1 Te8 3.241377 1_655
Ho1 Te3 3.266546 1_545
Ho1 Te3 3.266546 1_655
Ho1 Te0 3.269505 1_554
Ho1 Te0 3.269505 1_555
Ho2 Te8 3.153351 1_555
Ho2 Te7 3.219798 1_455
Ho2 Te7 3.219798 1_456
Ho2 Te7 3.219798 1_566
Ho2 Te7 3.219798 1_565
Ho2 Te4 3.298013 1_455
Ho2 Te4 3.298013 1_565
Ho2 Te5 3.298728 1_556
Ho2 Te5 3.298728 1_555
Ho3 Te9 3.153351 1_555
Ho3 Te6 3.219798 1_544
Ho3 Te6 3.219798 1_545
Ho3 Te6 3.219798 1_655
Ho3 Te6 3.219798 1_654
Ho3 Te5 3.298013 1_545
Ho3 Te5 3.298013 1_655
Ho3 Te4 3.298728 1_555
Ho3 Te4 3.298728 1_554
Te0 Te3 3.097583 1_545
Te0 Te3 3.097583 1_546
Te0 Te3 3.097583 1_655
Te0 Te3 3.097583 1_656
Te1 Te2 3.097583 1_564
Te1 Te2 3.097583 1_565
Te1 Te2 3.097583 1_455
Te1 Te2 3.097583 1_454
Te4 Te5 3.097581 1_545
Te4 Te5 3.097581 1_546
Te4 Te5 3.097581 1_655
Te4 Te5 3.097581 1_656
