# generated using pymatgen
data_TeH15C5NOF6
_symmetry_space_group_name_H-M   'P 1'
_cell_length_a   7.23328200
_cell_length_b   8.04558700
_cell_length_c   22.38590521
_cell_angle_alpha   89.69402305
_cell_angle_beta   90.00000000
_cell_angle_gamma   90.00000000
_symmetry_Int_Tables_number   1
_chemical_formula_structural   TeH15C5NOF6
_chemical_formula_sum   'Te4 H60 C20 N4 O4 F24'
_cell_volume   1302.75155450
_cell_formula_units_Z   4
loop_
 _symmetry_equiv_pos_site_id
 _symmetry_equiv_pos_as_xyz
  1  'x, y, z'
loop_
 _atom_site_type_symbol
 _atom_site_label
 _atom_site_symmetry_multiplicity
 _atom_site_fract_x
 _atom_site_fract_y
 _atom_site_fract_z
 _atom_site_occupancy
  Te  Te0  1  0.57523400  0.25274000  0.38217900  1
  Te  Te1  1  0.42476600  0.74726000  0.61782100  1
  Te  Te2  1  0.07523400  0.74726000  0.11782100  1
  Te  Te3  1  0.92476600  0.25274000  0.88217900  1
  H  H0  1  0.97631300  0.49710800  0.60768100  1
  H  H1  1  0.71250200  0.63469600  0.95405100  1
  H  H2  1  0.11292700  0.81480100  0.74916400  1
  H  H3  1  0.29702000  0.14659000  0.03235500  1
  H  H4  1  0.79702000  0.85341000  0.46764500  1
  H  H5  1  0.72328800  0.07644100  0.12001500  1
  H  H6  1  0.51377600  0.50639300  0.71694900  1
  H  H7  1  0.05331000  0.02074200  0.42509600  1
  H  H8  1  0.98622400  0.50639300  0.21694900  1
  H  H9  1  0.19747800  0.09392700  0.63784200  1
  H  H10  1  0.47822000  0.18301700  0.18455700  1
  H  H11  1  0.28749800  0.36530400  0.04594900  1
  H  H12  1  0.69747800  0.90607300  0.86215800  1
  H  H13  1  0.29979000  0.31178100  0.15421500  1
  H  H14  1  0.28168700  0.87946300  0.95831900  1
  H  H15  1  0.78168700  0.12053700  0.54168100  1
  H  H16  1  0.79853000  0.41284000  0.56053200  1
  H  H17  1  0.94669000  0.97925800  0.57490400  1
  H  H18  1  0.79979000  0.68821900  0.34578500  1
  H  H19  1  0.13858800  0.21973400  0.27107800  1
  H  H20  1  0.29853000  0.58716000  0.93946800  1
  H  H21  1  0.52178000  0.81698300  0.81544300  1
  H  H22  1  0.77671200  0.07644100  0.62001500  1
  H  H23  1  0.27671200  0.92355900  0.87998500  1
  H  H24  1  0.55331000  0.97925800  0.07490400  1
  H  H25  1  0.96564100  0.71659000  0.50106100  1
  H  H26  1  0.03435900  0.28341000  0.49893900  1
  H  H27  1  0.01377600  0.49360700  0.78305100  1
  H  H28  1  0.21831300  0.87946300  0.45831900  1
  H  H29  1  0.86141200  0.78026600  0.72892200  1
  H  H30  1  0.70298000  0.85341000  0.96764500  1
  H  H31  1  0.29403000  0.62424800  0.86069900  1
  H  H32  1  0.70147000  0.41284000  0.06053200  1
  H  H33  1  0.80252200  0.90607300  0.36215800  1
  H  H34  1  0.46564100  0.28341000  0.99893900  1
  H  H35  1  0.20021000  0.31178100  0.65421500  1
  H  H36  1  0.20597000  0.62424800  0.36069900  1
  H  H37  1  0.20298000  0.14659000  0.53235500  1
  H  H38  1  0.79403000  0.37575200  0.63930100  1
  H  H39  1  0.70597000  0.37575200  0.13930100  1
  H  H40  1  0.78749800  0.63469600  0.45405100  1
  H  H41  1  0.53435900  0.71659000  0.00106100  1
  H  H42  1  0.02368700  0.50289200  0.39231900  1
  H  H43  1  0.47631300  0.50289200  0.89231900  1
  H  H44  1  0.48622400  0.49360700  0.28305100  1
  H  H45  1  0.44669000  0.02074200  0.92509600  1
  H  H46  1  0.97822000  0.81698300  0.31544300  1
  H  H47  1  0.70021000  0.68821900  0.84578500  1
  H  H48  1  0.38707300  0.81480100  0.24916400  1
  H  H49  1  0.21250200  0.36530400  0.54594900  1
  H  H50  1  0.52368700  0.49710800  0.10768100  1
  H  H51  1  0.30252200  0.09392700  0.13784200  1
  H  H52  1  0.61292700  0.18519900  0.75083600  1
  H  H53  1  0.20147000  0.58716000  0.43946800  1
  H  H54  1  0.22328800  0.92355900  0.37998500  1
  H  H55  1  0.88707300  0.18519900  0.25083600  1
  H  H56  1  0.36141200  0.21973400  0.77107800  1
  H  H57  1  0.63858800  0.78026600  0.22892200  1
  H  H58  1  0.71831300  0.12053700  0.04168100  1
  H  H59  1  0.02178000  0.18301700  0.68455700  1
  C  C0  1  0.50666700  0.20489000  0.78598300  1
  C  C1  1  0.62050600  0.74066900  0.96175100  1
  C  C2  1  0.86646500  0.09311500  0.58105200  1
  C  C3  1  0.12050600  0.25933100  0.53824900  1
  C  C4  1  0.36646500  0.90688500  0.91894800  1
  C  C5  1  0.37949400  0.25933100  0.03824900  1
  C  C6  1  0.88342000  0.39184000  0.60033200  1
  C  C7  1  0.38342000  0.60816000  0.89966800  1
  C  C8  1  0.11220000  0.20364600  0.64603200  1
  C  C9  1  0.61658000  0.39184000  0.10033200  1
  C  C10  1  0.49333300  0.79511000  0.21401700  1
  C  C11  1  0.11658000  0.60816000  0.39966800  1
  C  C12  1  0.38780000  0.20364600  0.14603200  1
  C  C13  1  0.00666700  0.79511000  0.71401700  1
  C  C14  1  0.13353500  0.90688500  0.41894800  1
  C  C15  1  0.88780000  0.79635400  0.35396800  1
  C  C16  1  0.87949400  0.74066900  0.46175100  1
  C  C17  1  0.63353500  0.09311500  0.08105200  1
  C  C18  1  0.99333300  0.20489000  0.28598300  1
  C  C19  1  0.61220000  0.79635400  0.85396800  1
  N  N0  1  0.00415100  0.76336000  0.40844800  1
  N  N1  1  0.50415100  0.23664000  0.09155200  1
  N  N2  1  0.49584900  0.76336000  0.90844800  1
  N  N3  1  0.99584900  0.23664000  0.59155200  1
  O  O0  1  0.04638500  0.79792100  0.66094200  1
  O  O1  1  0.95361500  0.20207900  0.33905800  1
  O  O2  1  0.45361500  0.79792100  0.16094200  1
  O  O3  1  0.54638500  0.20207900  0.83905800  1
  F  F0  1  0.05766400  0.12334700  0.81759000  1
  F  F1  1  0.03263700  0.49002100  0.73911800  1
  F  F2  1  0.66571300  0.72200300  0.58453300  1
  F  F3  1  0.51435300  0.49758500  0.34612900  1
  F  F4  1  0.91352900  0.04256700  0.92771900  1
  F  F5  1  0.94233600  0.87665300  0.18241000  1
  F  F6  1  0.83428700  0.72200300  0.08453300  1
  F  F7  1  0.98564700  0.49758500  0.84612900  1
  F  F8  1  0.16571300  0.27799700  0.91546700  1
  F  F9  1  0.96736300  0.50997900  0.26088200  1
  F  F10  1  0.41352900  0.95743300  0.57228100  1
  F  F11  1  0.33381100  0.63918100  0.54279600  1
  F  F12  1  0.58647100  0.04256700  0.42771900  1
  F  F13  1  0.53263700  0.50997900  0.76088200  1
  F  F14  1  0.33428700  0.27799700  0.41546700  1
  F  F15  1  0.01435300  0.50241500  0.15387100  1
  F  F16  1  0.55766400  0.87665300  0.68241000  1
  F  F17  1  0.83381100  0.36081900  0.95720400  1
  F  F18  1  0.16618900  0.63918100  0.04279600  1
  F  F19  1  0.48564700  0.50241500  0.65387100  1
  F  F20  1  0.08647100  0.95743300  0.07228100  1
  F  F21  1  0.66618900  0.36081900  0.45720400  1
  F  F22  1  0.46736300  0.49002100  0.23911800  1
  F  F23  1  0.44233600  0.12334700  0.31759000  1
loop_
_geom_bond_atom_site_label_1
_geom_bond_atom_site_label_2
_geom_bond_distance
_geom_bond_site_symmetry_2
C0 H56 1.108637 1_555
C0 H52 1.111863 1_555
C0 O3 1.222464 1_555
C1 H30 1.094230 1_555
C1 H41 1.094705 1_556
C1 H1 1.095917 1_555
C1 N2 1.505935 1_555
C2 H17 1.093694 1_545
C2 H22 1.094984 1_555
C2 H15 1.095185 1_555
C2 N3 1.505800 1_555
C3 H37 1.094230 1_555
C3 H26 1.094705 1_555
C3 H49 1.095917 1_555
C3 N3 1.505935 1_455
C4 H45 1.093694 1_565
C4 H23 1.094984 1_555
C4 H14 1.095185 1_555
C4 N2 1.505800 1_555
C5 H3 1.094230 1_555
C5 H34 1.094705 1_554
C5 H11 1.095917 1_555
C5 N1 1.505935 1_555
C6 H38 1.092988 1_555
C6 H0 1.094232 1_555
C6 H16 1.094433 1_555
C6 N3 1.503924 1_555
C7 H31 1.092988 1_555
C7 H43 1.094232 1_555
C7 H20 1.094433 1_555
C7 N2 1.503924 1_555
C8 H9 1.093201 1_555
C8 H35 1.094274 1_555
C8 H59 1.094322 1_555
C8 N3 1.504222 1_455
C9 H39 1.092988 1_555
C9 H50 1.094232 1_555
C9 H32 1.094433 1_555
C9 N1 1.503924 1_555
C10 H57 1.108637 1_555
C10 H48 1.111863 1_555
C10 O2 1.222464 1_555
C11 H36 1.092988 1_555
C11 H42 1.094232 1_555
C11 H53 1.094433 1_555
C11 N0 1.503924 1_555
C12 H51 1.093201 1_555
C12 H13 1.094274 1_555
C12 H10 1.094322 1_555
C12 N1 1.504222 1_555
C13 H29 1.108637 1_455
C13 H2 1.111863 1_555
C13 O0 1.222464 1_555
C14 H7 1.093694 1_565
C14 H54 1.094984 1_555
C14 H28 1.095185 1_555
C14 N0 1.505800 1_555
C15 H33 1.093201 1_555
C15 H18 1.094274 1_555
C15 H46 1.094322 1_555
C15 N0 1.504222 1_655
C16 H4 1.094230 1_555
C16 H25 1.094705 1_555
C16 H40 1.095917 1_555
C16 N0 1.505935 1_655
C17 H24 1.093694 1_545
C17 H5 1.094984 1_555
C17 H58 1.095185 1_555
C17 N1 1.505800 1_555
C18 H19 1.108637 1_655
C18 H55 1.111863 1_555
C18 O1 1.222464 1_555
C19 H12 1.093201 1_555
C19 H47 1.094274 1_555
C19 H21 1.094322 1_555
C19 N2 1.504222 1_555
F0 Te3 2.028423 1_455
F1 H27 0.993469 1_555
F2 Te1 1.906748 1_555
F3 H44 1.427170 1_555
F3 Te0 2.169978 1_555
F4 Te3 1.971508 1_555
F5 Te2 2.028423 1_655
F6 Te2 1.906748 1_655
F7 H27 1.427170 1_655
F7 Te3 2.169978 1_555
F8 Te3 1.906748 1_455
F9 H8 0.993469 1_555
F10 Te1 1.971508 1_555
F11 Te1 2.006314 1_555
F12 Te0 1.971508 1_555
F13 H6 0.993469 1_555
F14 Te0 1.906748 1_555
F15 H8 1.427170 1_455
F15 Te2 2.169978 1_555
F16 Te1 2.028423 1_555
F17 Te3 2.006314 1_555
F18 Te2 2.006314 1_555
F19 H6 1.427170 1_555
F19 Te1 2.169978 1_555
F20 Te2 1.971508 1_555
F21 Te0 2.006314 1_555
F22 H44 0.993469 1_555
F23 Te0 2.028423 1_555
