# generated using pymatgen
data_HfMg6Nb
_symmetry_space_group_name_H-M   'P 1'
_cell_length_a   4.96338000
_cell_length_b   6.18131900
_cell_length_c   11.26955100
_cell_angle_alpha   90.00000000
_cell_angle_beta   90.00000000
_cell_angle_gamma   90.00000000
_symmetry_Int_Tables_number   1
_chemical_formula_structural   HfMg6Nb
_chemical_formula_sum   'Hf2 Mg12 Nb2'
_cell_volume   345.75247413
_cell_formula_units_Z   2
loop_
 _symmetry_equiv_pos_site_id
 _symmetry_equiv_pos_as_xyz
  1  'x, y, z'
loop_
 _atom_site_type_symbol
 _atom_site_label
 _atom_site_symmetry_multiplicity
 _atom_site_fract_x
 _atom_site_fract_y
 _atom_site_fract_z
 _atom_site_occupancy
  Hf  Hf0  1  0.50000000  0.50000000  0.19589400  1
  Hf  Hf1  1  0.50000000  0.00000000  0.69589400  1
  Mg  Mg0  1  0.00000000  0.74504400  0.07416300  1
  Mg  Mg1  1  0.00000000  0.25495600  0.07416300  1
  Mg  Mg2  1  0.00000000  0.00000000  0.32896400  1
  Mg  Mg3  1  0.50000000  0.25836900  0.42598500  1
  Mg  Mg4  1  0.50000000  0.74163100  0.42598500  1
  Mg  Mg5  1  0.50000000  0.00000000  0.17060300  1
  Mg  Mg6  1  0.00000000  0.24504400  0.57416300  1
  Mg  Mg7  1  0.00000000  0.75495600  0.57416300  1
  Mg  Mg8  1  0.00000000  0.50000000  0.82896400  1
  Mg  Mg9  1  0.50000000  0.75836900  0.92598500  1
  Mg  Mg10  1  0.50000000  0.24163100  0.92598500  1
  Mg  Mg11  1  0.50000000  0.50000000  0.67060300  1
  Nb  Nb0  1  0.00000000  0.50000000  0.30424400  1
  Nb  Nb1  1  0.00000000  0.00000000  0.80424400  1
loop_
_geom_bond_atom_site_label_1
_geom_bond_atom_site_label_2
_geom_bond_distance
_geom_bond_site_symmetry_2
Hf0 Nb0 2.765820 1_655
Hf0 Nb0 2.765820 1_555
Hf0 Mg3 2.992424 1_555
Hf0 Mg4 2.992424 1_555
Hf0 Mg5 3.103774 1_555
Hf0 Mg5 3.103774 1_565
Hf0 Mg0 3.214820 1_655
Hf0 Mg1 3.214820 1_555
Hf0 Mg1 3.214820 1_655
Hf0 Mg0 3.214820 1_555
Hf0 Mg9 3.435530 1_554
Hf0 Mg10 3.435530 1_554
Hf1 Nb1 2.765820 1_555
Hf1 Nb1 2.765820 1_655
Hf1 Mg9 2.992424 1_545
Hf1 Mg10 2.992424 1_555
Hf1 Mg11 3.103774 1_545
Hf1 Mg11 3.103774 1_555
Hf1 Mg6 3.214820 1_655
Hf1 Mg6 3.214820 1_555
Hf1 Mg7 3.214820 1_645
Hf1 Mg7 3.214820 1_545
Hf1 Mg4 3.435530 1_545
Hf1 Mg3 3.435530 1_555
Mg0 Mg9 2.992346 1_554
Mg0 Mg9 2.992346 1_454
Mg0 Nb0 3.002912 1_555
Mg0 Mg1 3.029390 1_555
Mg0 Mg5 3.134272 1_565
Mg0 Mg5 3.134272 1_465
Mg0 Mg8 3.151195 1_554
Mg0 Mg1 3.151929 1_565
Mg0 Mg2 3.275536 1_565
Mg0 Nb1 3.425874 1_564
Mg1 Mg10 2.992346 1_454
Mg1 Mg10 2.992346 1_554
Mg1 Nb0 3.002912 1_555
Mg1 Mg5 3.134272 1_455
Mg1 Mg5 3.134272 1_555
Mg1 Mg8 3.151195 1_554
Mg1 Mg2 3.275536 1_555
Mg1 Nb1 3.425874 1_554
Mg2 Mg5 3.056761 1_455
Mg2 Mg5 3.056761 1_555
Mg2 Nb0 3.103189 1_545
Mg2 Nb0 3.103189 1_555
Mg2 Mg4 3.147201 1_545
Mg2 Mg3 3.147201 1_455
Mg2 Mg3 3.147201 1_555
Mg2 Mg4 3.147201 1_445
Mg2 Mg6 3.151195 1_555
Mg2 Mg7 3.151195 1_545
Mg3 Mg4 2.987197 1_555
Mg3 Mg6 2.992346 1_555
Mg3 Mg6 2.992346 1_655
Mg3 Mg4 3.194122 1_545
Mg3 Nb0 3.204983 1_555
Mg3 Nb0 3.204983 1_655
Mg3 Mg5 3.291462 1_555
Mg4 Mg7 2.992346 1_555
Mg4 Mg7 2.992346 1_655
Mg4 Nb0 3.204983 1_555
Mg4 Nb0 3.204983 1_655
Mg4 Mg5 3.291462 1_565
Mg5 Mg9 3.135351 1_544
Mg6 Nb1 3.002912 1_555
Mg6 Mg7 3.029390 1_545
Mg6 Mg7 3.151929 1_555
Mg6 Mg8 3.275536 1_555
Mg6 Nb0 3.425874 1_555
Mg7 Nb1 3.002912 1_565
Mg7 Mg8 3.275536 1_555
Mg7 Nb0 3.425874 1_555
Mg8 Nb1 3.103189 1_555
Mg8 Nb1 3.103189 1_565
Mg8 Mg9 3.147201 1_455
Mg8 Mg9 3.147201 1_555
Mg9 Nb1 3.204983 1_565
Mg9 Nb1 3.204983 1_665
Mg10 Mg9 2.987197 1_545
Mg10 Mg5 3.135351 1_556
Mg10 Mg8 3.147201 1_555
Mg10 Mg8 3.147201 1_655
Mg10 Mg9 3.194122 1_555
Mg10 Nb1 3.204983 1_555
Mg10 Nb1 3.204983 1_655
Mg10 Mg11 3.291462 1_555
Mg11 Mg8 3.056761 1_555
Mg11 Mg8 3.056761 1_655
Mg11 Mg7 3.134272 1_555
Mg11 Mg6 3.134272 1_655
Mg11 Mg7 3.134272 1_655
Mg11 Mg6 3.134272 1_555
Mg11 Mg3 3.135351 1_555
Mg11 Mg4 3.135351 1_555
Mg11 Mg9 3.291462 1_555
