# generated using pymatgen
data_EuAlF5
_symmetry_space_group_name_H-M   'P 1'
_cell_length_a   14.54470383
_cell_length_b   16.05637701
_cell_length_c   16.05637701
_cell_angle_alpha   78.16218460
_cell_angle_beta   63.06842419
_cell_angle_gamma   63.06842419
_symmetry_Int_Tables_number   1
_chemical_formula_structural   EuAlF5
_chemical_formula_sum   'Eu32 Al32 F160'
_cell_volume   2980.50264415
_cell_formula_units_Z   32
loop_
 _symmetry_equiv_pos_site_id
 _symmetry_equiv_pos_as_xyz
  1  'x, y, z'
loop_
 _atom_site_type_symbol
 _atom_site_label
 _atom_site_symmetry_multiplicity
 _atom_site_fract_x
 _atom_site_fract_y
 _atom_site_fract_z
 _atom_site_occupancy
  Eu  Eu0  1  0.04716091  0.19414871  0.46708497  1
  Eu  Eu1  1  0.20839459  0.30585129  0.03291503  1
  Eu  Eu2  1  0.01424588  0.53291503  0.69414871  1
  Eu  Eu3  1  0.74130962  0.96708497  0.80585129  1
  Eu  Eu4  1  0.95283909  0.80585129  0.53291503  1
  Eu  Eu5  1  0.79160541  0.69414871  0.96708497  1
  Eu  Eu6  1  0.98575412  0.46708497  0.30585129  1
  Eu  Eu7  1  0.25869038  0.03291503  0.19414871  1
  Eu  Eu8  1  0.53902621  0.19681997  0.46673736  1
  Eu  Eu9  1  0.70258355  0.30318003  0.03326264  1
  Eu  Eu10  1  0.50576357  0.53326264  0.69681997  1
  Eu  Eu11  1  0.23584619  0.96673736  0.80318003  1
  Eu  Eu12  1  0.46097379  0.80318003  0.53326264  1
  Eu  Eu13  1  0.29741645  0.69681997  0.96673736  1
  Eu  Eu14  1  0.49423643  0.46673736  0.30318003  1
  Eu  Eu15  1  0.76415381  0.03326264  0.19681997  1
  Eu  Eu16  1  0.71387913  0.31851269  0.50349260  1
  Eu  Eu17  1  0.03588442  0.18148731  0.99650740  1
  Eu  Eu18  1  0.71737173  0.49650740  0.81851269  1
  Eu  Eu19  1  0.53239182  0.00349260  0.68148731  1
  Eu  Eu20  1  0.28612087  0.68148731  0.49650740  1
  Eu  Eu21  1  0.96411558  0.81851269  0.00349260  1
  Eu  Eu22  1  0.28262827  0.50349260  0.18148731  1
  Eu  Eu23  1  0.46760818  0.99650740  0.31851269  1
  Eu  Eu24  1  0.21426746  0.50030534  0.81931085  1
  Eu  Eu25  1  0.03388364  0.99969466  0.68068915  1
  Eu  Eu26  1  0.53357831  0.18068915  0.00030534  1
  Eu  Eu27  1  0.21457280  0.31931085  0.49969466  1
  Eu  Eu28  1  0.78573254  0.49969466  0.18068915  1
  Eu  Eu29  1  0.96611636  0.00030534  0.31931085  1
  Eu  Eu30  1  0.46642169  0.81931085  0.99969466  1
  Eu  Eu31  1  0.78542720  0.68068915  0.50030534  1
  Al  Al0  1  0.79663051  0.08485303  0.56954608  1
  Al  Al1  1  0.95102961  0.41514697  0.93045392  1
  Al  Al2  1  0.86617659  0.43045392  0.58485303  1
  Al  Al3  1  0.38148354  0.06954608  0.91514697  1
  Al  Al4  1  0.20336949  0.91514697  0.43045392  1
  Al  Al5  1  0.04897039  0.58485303  0.06954608  1
  Al  Al6  1  0.13382341  0.56954608  0.41514697  1
  Al  Al7  1  0.61851646  0.93045392  0.08485303  1
  Al  Al8  1  0.37406801  0.25316048  0.74985806  1
  Al  Al9  1  0.87708654  0.24683952  0.75014194  1
  Al  Al10  1  0.62392607  0.25014194  0.75316048  1
  Al  Al11  1  0.12722849  0.24985806  0.74683952  1
  Al  Al12  1  0.62593199  0.74683952  0.25014194  1
  Al  Al13  1  0.12291346  0.75316048  0.24985806  1
  Al  Al14  1  0.37607393  0.74985806  0.24683952  1
  Al  Al15  1  0.87277151  0.75014194  0.25316048  1
  Al  Al16  1  0.36861006  0.43292715  0.58051383  1
  Al  Al17  1  0.88205103  0.06707285  0.91948617  1
  Al  Al18  1  0.44912388  0.41948617  0.93292715  1
  Al  Al19  1  0.30153720  0.08051383  0.56707285  1
  Al  Al20  1  0.63138994  0.56707285  0.41948617  1
  Al  Al21  1  0.11794897  0.93292715  0.08051383  1
  Al  Al22  1  0.55087612  0.58051383  0.06707285  1
  Al  Al23  1  0.69846280  0.91948617  0.43292715  1
  Al  Al24  1  0.77057555  0.25000000  0.25000000  1
  Al  Al25  1  0.52057555  0.75000000  0.75000000  1
  Al  Al26  1  0.22942445  0.75000000  0.75000000  1
  Al  Al27  1  0.47942445  0.25000000  0.25000000  1
  Al  Al28  1  0.98064676  0.25000000  0.25000000  1
  Al  Al29  1  0.73064676  0.75000000  0.75000000  1
  Al  Al30  1  0.01935324  0.75000000  0.75000000  1
  Al  Al31  1  0.26935324  0.25000000  0.25000000  1
  F  F0  1  0.11266253  0.01597092  0.50561414  1
  F  F1  1  0.13424759  0.48402908  0.99438586  1
  F  F2  1  0.11827667  0.49438586  0.51597092  1
  F  F3  1  0.62863345  0.00561414  0.98402908  1
  F  F4  1  0.88733747  0.98402908  0.49438586  1
  F  F5  1  0.86575241  0.51597092  0.00561414  1
  F  F6  1  0.88172333  0.50561414  0.48402908  1
  F  F7  1  0.37136655  0.99438586  0.01597092  1
  F  F8  1  0.61261880  0.02229662  0.50557817  1
  F  F9  1  0.64049359  0.47770338  0.99442183  1
  F  F10  1  0.61819697  0.49442183  0.52229662  1
  F  F11  1  0.13491542  0.00557817  0.97770338  1
  F  F12  1  0.38738120  0.97770338  0.49442183  1
  F  F13  1  0.35950641  0.52229662  0.00557817  1
  F  F14  1  0.38180303  0.50557817  0.47770338  1
  F  F15  1  0.86508458  0.99442183  0.02229662  1
  F  F16  1  0.73610890  0.36436854  0.20045680  1
  F  F17  1  0.80093424  0.13563146  0.29954320  1
  F  F18  1  0.43656570  0.79954320  0.86436854  1
  F  F19  1  0.60047744  0.70045680  0.63563146  1
  F  F20  1  0.26389110  0.63563146  0.79954320  1
  F  F21  1  0.19906576  0.86436854  0.70045680  1
  F  F22  1  0.56343430  0.20045680  0.13563146  1
  F  F23  1  0.39952256  0.29954320  0.36436854  1
  F  F24  1  0.82128905  0.28267069  0.32595765  1
  F  F25  1  0.92991739  0.21732931  0.17404235  1
  F  F26  1  0.64724670  0.67404235  0.78267069  1
  F  F27  1  0.60395974  0.82595765  0.71732931  1
  F  F28  1  0.17871095  0.71732931  0.67404235  1
  F  F29  1  0.07008261  0.78267069  0.82595765  1
  F  F30  1  0.35275330  0.32595765  0.21732931  1
  F  F31  1  0.39604026  0.17404235  0.28267069  1
  F  F32  1  0.98790896  0.29383166  0.34107133  1
  F  F33  1  0.12281195  0.20616834  0.15892867  1
  F  F34  1  0.82898030  0.65892867  0.79383166  1
  F  F35  1  0.78174062  0.84107133  0.70616834  1
  F  F36  1  0.01209104  0.70616834  0.65892867  1
  F  F37  1  0.87718805  0.79383166  0.84107133  1
  F  F38  1  0.17101970  0.34107133  0.20616834  1
  F  F39  1  0.21825938  0.15892867  0.29383166  1
  F  F40  1  0.62836152  0.29324758  0.34095902  1
  F  F41  1  0.76256812  0.20675242  0.15904098  1
  F  F42  1  0.46932054  0.65904098  0.79324758  1
  F  F43  1  0.42160910  0.84095902  0.70675242  1
  F  F44  1  0.37163848  0.70675242  0.65904098  1
  F  F45  1  0.23743188  0.79324758  0.84095902  1
  F  F46  1  0.53067946  0.34095902  0.20675242  1
  F  F47  1  0.57839090  0.15904098  0.29324758  1
  F  F48  1  0.71408728  0.14785954  0.49947670  1
  F  F49  1  0.86142351  0.35214046  0.00052330  1
  F  F50  1  0.71356397  0.50052330  0.64785954  1
  F  F51  1  0.36194681  0.99947670  0.85214046  1
  F  F52  1  0.28591272  0.85214046  0.50052330  1
  F  F53  1  0.13857649  0.64785954  0.99947670  1
  F  F54  1  0.28643603  0.49947670  0.35214046  1
  F  F55  1  0.63805319  0.00052330  0.14785954  1
  F  F56  1  0.88571363  0.14949351  0.50125728  1
  F  F57  1  0.03646442  0.35050649  0.99874272  1
  F  F58  1  0.88697091  0.49874272  0.64949351  1
  F  F59  1  0.53520714  0.00125728  0.85050649  1
  F  F60  1  0.11428637  0.85050649  0.49874272  1
  F  F61  1  0.96353558  0.64949351  0.00125728  1
  F  F62  1  0.11302909  0.50125728  0.35050649  1
  F  F63  1  0.46479286  0.99874272  0.14949351  1
  F  F64  1  0.96362941  0.18079454  0.64146666  1
  F  F65  1  0.28589061  0.31920546  0.85853334  1
  F  F66  1  0.10509607  0.35853334  0.68079454  1
  F  F67  1  0.64442395  0.14146666  0.81920546  1
  F  F68  1  0.03637059  0.81920546  0.35853334  1
  F  F69  1  0.71410939  0.68079454  0.14146666  1
  F  F70  1  0.89490393  0.64146666  0.31920546  1
  F  F71  1  0.35557605  0.85853334  0.18079454  1
  F  F72  1  0.46324810  0.18605304  0.64157158  1
  F  F73  1  0.79087271  0.31394696  0.85842842  1
  F  F74  1  0.60481967  0.35842842  0.68605304  1
  F  F75  1  0.14930113  0.14157158  0.81394696  1
  F  F76  1  0.53675190  0.81394696  0.35842842  1
  F  F77  1  0.20912729  0.68605304  0.14157158  1
  F  F78  1  0.39518033  0.64157158  0.31394696  1
  F  F79  1  0.85069887  0.85842842  0.18605304  1
  F  F80  1  0.70455684  0.19331324  0.64109685  1
  F  F81  1  0.03896693  0.30668676  0.85890315  1
  F  F82  1  0.84565369  0.35890315  0.69331324  1
  F  F83  1  0.39787008  0.14109685  0.80668676  1
  F  F84  1  0.29544316  0.80668676  0.35890315  1
  F  F85  1  0.96103307  0.69331324  0.14109685  1
  F  F86  1  0.15434631  0.64109685  0.30668676  1
  F  F87  1  0.60212992  0.85890315  0.19331324  1
  F  F88  1  0.51925994  0.35347633  0.53212503  1
  F  F89  1  0.90486130  0.14652367  0.96787497  1
  F  F90  1  0.55138497  0.46787497  0.85347633  1
  F  F91  1  0.37273627  0.03212503  0.64652367  1
  F  F92  1  0.48074006  0.64652367  0.46787497  1
  F  F93  1  0.09513870  0.85347633  0.03212503  1
  F  F94  1  0.44861503  0.53212503  0.14652367  1
  F  F95  1  0.62726373  0.96787497  0.35347633  1
  F  F96  1  0.34733580  0.35059725  0.53583588  1
  F  F97  1  0.73376893  0.14940275  0.96416412  1
  F  F98  1  0.38317168  0.46416412  0.85059725  1
  F  F99  1  0.19793306  0.03583588  0.64940275  1
  F  F100  1  0.65266420  0.64940275  0.46416412  1
  F  F101  1  0.26623107  0.85059725  0.03583588  1
  F  F102  1  0.61682832  0.53583588  0.14940275  1
  F  F103  1  0.80206694  0.96416412  0.35059725  1
  F  F104  1  0.84515865  0.35215349  0.53291765  1
  F  F105  1  0.23022979  0.14784651  0.96708235  1
  F  F106  1  0.87807630  0.46708235  0.85215349  1
  F  F107  1  0.69731214  0.03291765  0.64784651  1
  F  F108  1  0.15484135  0.64784651  0.46708235  1
  F  F109  1  0.76977021  0.85215349  0.03291765  1
  F  F110  1  0.12192370  0.53291765  0.14784651  1
  F  F111  1  0.30268786  0.96708235  0.35215349  1
  F  F112  1  0.24916989  0.25416387  0.74808458  1
  F  F113  1  0.75141834  0.24583613  0.75191542  1
  F  F114  1  0.49725447  0.25191542  0.75416387  1
  F  F115  1  0.00333376  0.24808458  0.74583613  1
  F  F116  1  0.75083011  0.74583613  0.25191542  1
  F  F117  1  0.24858166  0.75416387  0.24808458  1
  F  F118  1  0.50274553  0.74808458  0.24583613  1
  F  F119  1  0.99666624  0.75191542  0.25416387  1
  F  F120  1  0.34982032  0.36480291  0.69209855  1
  F  F121  1  0.90672178  0.13519709  0.80790145  1
  F  F122  1  0.54191886  0.30790145  0.86480291  1
  F  F123  1  0.21462323  0.19209855  0.63519709  1
  F  F124  1  0.65017968  0.63519709  0.30790145  1
  F  F125  1  0.09327822  0.86480291  0.19209855  1
  F  F126  1  0.45808114  0.69209855  0.13519709  1
  F  F127  1  0.78537677  0.80790145  0.36480291  1
  F  F128  1  0.21621652  0.50458936  0.64081475  1
  F  F129  1  0.86162063  0.99541064  0.85918525  1
  F  F130  1  0.35703127  0.35918525  0.00458936  1
  F  F131  1  0.22080588  0.14081475  0.49541064  1
  F  F132  1  0.78378348  0.49541064  0.35918525  1
  F  F133  1  0.13837937  0.00458936  0.14081475  1
  F  F134  1  0.64296873  0.64081475  0.99541064  1
  F  F135  1  0.77919412  0.85918525  0.50458936  1
  F  F136  1  0.38842446  0.50636341  0.63891137  1
  F  F137  1  0.03369924  0.99363659  0.86108863  1
  F  F138  1  0.52733582  0.36108863  0.00636341  1
  F  F139  1  0.39478787  0.13891137  0.49363659  1
  F  F140  1  0.61157554  0.49363659  0.36108863  1
  F  F141  1  0.96630076  0.00636341  0.13891137  1
  F  F142  1  0.47266418  0.63891137  0.99363659  1
  F  F143  1  0.60521213  0.86108863  0.50636341  1
  F  F144  1  0.13518978  0.96262232  0.34952938  1
  F  F145  1  0.94734148  0.53737768  0.15047062  1
  F  F146  1  0.98471917  0.65047062  0.46262232  1
  F  F147  1  0.59781210  0.84952938  0.03737768  1
  F  F148  1  0.86481022  0.03737768  0.65047062  1
  F  F149  1  0.05265852  0.46262232  0.84952938  1
  F  F150  1  0.01528083  0.34952938  0.53737768  1
  F  F151  1  0.40218790  0.15047062  0.96262232  1
  F  F152  1  0.04875071  0.63598028  0.80064682  1
  F  F153  1  0.98537781  0.86401972  0.69935318  1
  F  F154  1  0.34939753  0.19935318  0.13598028  1
  F  F155  1  0.18473099  0.30064682  0.36401972  1
  F  F156  1  0.95124929  0.36401972  0.19935318  1
  F  F157  1  0.01462219  0.13598028  0.30064682  1
  F  F158  1  0.65060247  0.80064682  0.86401972  1
  F  F159  1  0.81526901  0.69935318  0.63598028  1
loop_
_geom_bond_atom_site_label_1
_geom_bond_atom_site_label_2
_geom_bond_distance
_geom_bond_site_symmetry_2
Eu0 F131 2.498091 1_555
Eu0 F64 2.503973 1_455
Eu0 F32 2.529755 1_455
Eu0 F56 2.554569 1_455
Eu0 F0 2.610330 1_555
Eu0 F150 2.710429 1_555
Eu0 F39 2.711263 1_555
Eu0 F104 2.778628 1_455
Eu0 F155 2.933448 1_555
Eu1 F130 2.498091 1_555
Eu1 F65 2.503973 1_554
Eu1 F33 2.529755 1_555
Eu1 F57 2.554569 1_554
Eu1 F1 2.610330 1_554
Eu1 F151 2.710429 1_554
Eu1 F38 2.711263 1_555
Eu1 F105 2.778628 1_554
Eu1 F154 2.933448 1_555
Eu2 F128 2.498091 1_555
Eu2 F66 2.503973 1_555
Eu2 F34 2.529755 1_455
Eu2 F58 2.554569 1_455
Eu2 F2 2.610330 1_555
Eu2 F149 2.710429 1_555
Eu2 F36 2.711263 1_555
Eu2 F106 2.778628 1_455
Eu2 F152 2.933449 1_555
Eu3 F129 2.498091 1_555
Eu3 F67 2.503973 1_565
Eu3 F35 2.529755 1_555
Eu3 F59 2.554569 1_565
Eu3 F3 2.610330 1_565
Eu3 F148 2.710429 1_565
Eu3 F37 2.711263 1_555
Eu3 F107 2.778628 1_565
Eu3 F153 2.933448 1_555
Eu4 F135 2.498091 1_555
Eu4 F68 2.503973 1_655
Eu4 F36 2.529755 1_655
Eu4 F60 2.554569 1_655
Eu4 F4 2.610330 1_555
Eu4 F146 2.710429 1_555
Eu4 F35 2.711263 1_555
Eu4 F108 2.778628 1_655
Eu4 F159 2.933448 1_555
Eu5 F134 2.498091 1_555
Eu5 F69 2.503973 1_556
Eu5 F37 2.529755 1_555
Eu5 F61 2.554569 1_556
Eu5 F5 2.610330 1_556
Eu5 F147 2.710429 1_556
Eu5 F34 2.711263 1_555
Eu5 F109 2.778628 1_556
Eu5 F158 2.933448 1_555
Eu6 F132 2.498091 1_555
Eu6 F70 2.503973 1_555
Eu6 F38 2.529755 1_655
Eu6 F62 2.554569 1_655
Eu6 F6 2.610330 1_555
Eu6 F145 2.710429 1_555
Eu6 F32 2.711263 1_555
Eu6 F110 2.778628 1_655
Eu6 F156 2.933449 1_555
Eu7 F133 2.498091 1_555
Eu7 F71 2.503973 1_545
Eu7 F39 2.529755 1_555
Eu7 F63 2.554569 1_545
Eu7 F7 2.610330 1_545
Eu7 F144 2.710429 1_545
Eu7 F33 2.711263 1_555
Eu7 F111 2.778628 1_545
Eu7 F157 2.933448 1_555
Eu8 F139 2.496740 1_555
Eu8 F72 2.509149 1_555
Eu8 F40 2.515248 1_555
Eu8 F8 2.560797 1_555
Eu8 F48 2.570456 1_555
Eu8 F96 2.680806 1_555
Eu8 F47 2.718337 1_555
Eu8 F88 2.768904 1_555
Eu8 F23 2.901088 1_555
Eu9 F138 2.496740 1_555
Eu9 F73 2.509149 1_554
Eu9 F41 2.515248 1_555
Eu9 F9 2.560797 1_554
Eu9 F49 2.570456 1_555
Eu9 F97 2.680806 1_554
Eu9 F46 2.718337 1_555
Eu9 F89 2.768904 1_554
Eu9 F22 2.901088 1_555
Eu10 F136 2.496740 1_555
Eu10 F74 2.509149 1_555
Eu10 F42 2.515248 1_555
Eu10 F10 2.560797 1_555
Eu10 F50 2.570456 1_555
Eu10 F98 2.680806 1_555
Eu10 F44 2.718337 1_555
Eu10 F90 2.768904 1_555
Eu10 F20 2.901088 1_555
Eu11 F137 2.496740 1_555
Eu11 F75 2.509149 1_565
Eu11 F43 2.515248 1_555
Eu11 F11 2.560797 1_565
Eu11 F51 2.570456 1_555
Eu11 F99 2.680806 1_565
Eu11 F45 2.718337 1_555
Eu11 F91 2.768904 1_565
Eu11 F21 2.901088 1_555
Eu12 F143 2.496740 1_555
Eu12 F76 2.509149 1_555
Eu12 F44 2.515248 1_555
Eu12 F12 2.560797 1_555
Eu12 F52 2.570456 1_555
Eu12 F100 2.680806 1_555
Eu12 F43 2.718337 1_555
Eu12 F92 2.768904 1_555
Eu12 F19 2.901088 1_555
Eu13 F142 2.496740 1_555
Eu13 F77 2.509149 1_556
Eu13 F45 2.515248 1_555
Eu13 F13 2.560797 1_556
Eu13 F53 2.570456 1_555
Eu13 F101 2.680806 1_556
Eu13 F42 2.718337 1_555
Eu13 F93 2.768904 1_556
Eu13 F18 2.901088 1_555
Eu14 F140 2.496740 1_555
Eu14 F78 2.509149 1_555
Eu14 F46 2.515248 1_555
Eu14 F14 2.560797 1_555
Eu14 F54 2.570456 1_555
Eu14 F102 2.680806 1_555
Eu14 F40 2.718337 1_555
Eu14 F94 2.768904 1_555
Eu14 F16 2.901088 1_555
Eu15 F141 2.496740 1_555
Eu15 F79 2.509149 1_545
Eu15 F47 2.515248 1_555
Eu15 F15 2.560797 1_545
Eu15 F55 2.570456 1_555
Eu15 F103 2.680806 1_545
Eu15 F41 2.718337 1_555
Eu15 F95 2.768904 1_545
Eu15 F17 2.901088 1_555
Eu16 F104 2.452965 1_555
Eu16 F88 2.454955 1_555
Eu16 F10 2.532608 1_555
Eu16 F24 2.592714 1_555
Eu16 F80 2.663515 1_555
Eu16 F74 2.675283 1_555
Eu16 F56 2.725296 1_555
Eu16 F48 2.752627 1_555
Eu17 F105 2.452965 1_555
Eu17 F89 2.454955 1_455
Eu17 F11 2.532608 1_555
Eu17 F25 2.592714 1_456
Eu17 F81 2.663515 1_555
Eu17 F75 2.675283 1_555
Eu17 F57 2.725296 1_555
Eu17 F49 2.752627 1_456
Eu18 F106 2.452965 1_555
Eu18 F90 2.454955 1_555
Eu18 F9 2.532608 1_555
Eu18 F26 2.592714 1_555
Eu18 F82 2.663515 1_555
Eu18 F73 2.675283 1_555
Eu18 F58 2.725296 1_555
Eu18 F50 2.752627 1_555
Eu19 F107 2.452965 1_555
Eu19 F91 2.454955 1_555
Eu19 F8 2.532608 1_555
Eu19 F27 2.592714 1_545
Eu19 F83 2.663515 1_555
Eu19 F72 2.675283 1_555
Eu19 F59 2.725296 1_555
Eu19 F51 2.752627 1_545
Eu20 F108 2.452965 1_555
Eu20 F92 2.454955 1_555
Eu20 F14 2.532608 1_555
Eu20 F28 2.592714 1_555
Eu20 F84 2.663515 1_555
Eu20 F78 2.675283 1_555
Eu20 F60 2.725296 1_555
Eu20 F52 2.752627 1_555
Eu21 F109 2.452965 1_555
Eu21 F93 2.454955 1_655
Eu21 F15 2.532608 1_555
Eu21 F29 2.592714 1_654
Eu21 F85 2.663515 1_555
Eu21 F79 2.675283 1_555
Eu21 F61 2.725296 1_555
Eu21 F53 2.752627 1_654
Eu22 F110 2.452965 1_555
Eu22 F94 2.454955 1_555
Eu22 F13 2.532608 1_555
Eu22 F30 2.592714 1_555
Eu22 F86 2.663515 1_555
Eu22 F77 2.675283 1_555
Eu22 F62 2.725296 1_555
Eu22 F54 2.752627 1_555
Eu23 F111 2.452965 1_555
Eu23 F95 2.454955 1_555
Eu23 F12 2.532608 1_555
Eu23 F31 2.592714 1_565
Eu23 F87 2.663515 1_555
Eu23 F76 2.675283 1_555
Eu23 F63 2.725296 1_555
Eu23 F55 2.752627 1_565
Eu24 F149 2.502271 1_555
Eu24 F152 2.503202 1_555
Eu24 F20 2.504616 1_555
Eu24 F98 2.516190 1_555
Eu24 F1 2.517028 1_555
Eu24 F65 2.652574 1_555
Eu24 F120 2.661289 1_555
Eu24 F128 2.840208 1_555
Eu24 F136 2.877002 1_555
Eu25 F148 2.502271 1_465
Eu25 F153 2.503202 1_455
Eu25 F21 2.504616 1_555
Eu25 F99 2.516190 1_565
Eu25 F0 2.517028 1_565
Eu25 F64 2.652574 1_465
Eu25 F121 2.661289 1_465
Eu25 F129 2.840208 1_455
Eu25 F137 2.877002 1_555
Eu26 F151 2.502271 1_554
Eu26 F154 2.503202 1_555
Eu26 F22 2.504616 1_555
Eu26 F97 2.516190 1_554
Eu26 F3 2.517028 1_554
Eu26 F67 2.652574 1_554
Eu26 F122 2.661289 1_554
Eu26 F130 2.840208 1_555
Eu26 F138 2.877002 1_555
Eu27 F150 2.502271 1_555
Eu27 F155 2.503202 1_555
Eu27 F23 2.504616 1_555
Eu27 F96 2.516190 1_555
Eu27 F2 2.517028 1_555
Eu27 F66 2.652574 1_555
Eu27 F123 2.661289 1_555
Eu27 F131 2.840208 1_555
Eu27 F139 2.877002 1_555
Eu28 F145 2.502271 1_555
Eu28 F156 2.503202 1_555
Eu28 F16 2.504616 1_555
Eu28 F102 2.516190 1_555
Eu28 F5 2.517028 1_555
Eu28 F69 2.652574 1_555
Eu28 F124 2.661289 1_555
Eu28 F132 2.840208 1_555
Eu28 F140 2.877002 1_555
Eu29 F144 2.502271 1_645
Eu29 F157 2.503202 1_655
Eu29 F17 2.504616 1_555
Eu29 F103 2.516190 1_545
Eu29 F4 2.517028 1_545
Eu29 F68 2.652574 1_645
Eu29 F125 2.661289 1_645
Eu29 F133 2.840208 1_655
Eu29 F141 2.877002 1_555
Eu30 F147 2.502271 1_556
Eu30 F158 2.503202 1_555
Eu30 F18 2.504616 1_555
Eu30 F101 2.516190 1_556
Eu30 F7 2.517028 1_556
Eu30 F71 2.652574 1_556
Eu30 F126 2.661289 1_556
Eu30 F134 2.840208 1_555
Eu30 F142 2.877002 1_555
Eu31 F146 2.502271 1_555
Eu31 F159 2.503202 1_555
Eu31 F19 2.504616 1_555
Eu31 F100 2.516190 1_555
Eu31 F6 2.517028 1_555
Eu31 F70 2.652574 1_555
Eu31 F127 2.661289 1_555
Eu31 F135 2.840208 1_555
Eu31 F143 2.877002 1_555
Al0 F4 1.800632 1_545
Al0 F148 1.824513 1_555
Al0 F107 1.838109 1_555
Al0 F48 1.840360 1_555
Al0 F56 1.850030 1_555
Al0 F80 1.860268 1_555
Al1 F5 1.800632 1_556
Al1 F149 1.824513 1_655
Al1 F106 1.838108 1_555
Al1 F49 1.840360 1_556
Al1 F57 1.850030 1_655
Al1 F81 1.860268 1_655
Al2 F6 1.800632 1_555
Al2 F150 1.824512 1_655
Al2 F104 1.838109 1_555
Al2 F50 1.840360 1_555
Al2 F58 1.850030 1_555
Al2 F82 1.860268 1_555
Al3 F7 1.800632 1_546
Al3 F151 1.824513 1_555
Al3 F105 1.838109 1_555
Al3 F51 1.840360 1_545
Al3 F59 1.850029 1_555
Al3 F83 1.860268 1_555
Al4 F0 1.800632 1_565
Al4 F144 1.824513 1_555
Al4 F111 1.838109 1_555
Al4 F52 1.840360 1_555
Al4 F60 1.850030 1_555
Al4 F84 1.860268 1_555
Al5 F1 1.800632 1_554
Al5 F145 1.824513 1_455
Al5 F110 1.838108 1_555
Al5 F53 1.840360 1_554
Al5 F61 1.850030 1_455
Al5 F85 1.860268 1_455
Al6 F2 1.800632 1_555
Al6 F146 1.824512 1_455
Al6 F108 1.838109 1_555
Al6 F54 1.840360 1_555
Al6 F62 1.850030 1_555
Al6 F86 1.860268 1_555
Al7 F3 1.800632 1_564
Al7 F147 1.824513 1_555
Al7 F109 1.838109 1_555
Al7 F55 1.840360 1_565
Al7 F63 1.850029 1_555
Al7 F87 1.860268 1_555
Al8 F83 1.799530 1_555
Al8 F120 1.799809 1_555
Al8 F114 1.815104 1_555
Al8 F65 1.820484 1_555
Al8 F112 1.822440 1_555
Al8 F72 1.823785 1_555
Al9 F82 1.799530 1_555
Al9 F121 1.799809 1_555
Al9 F115 1.815104 1_655
Al9 F64 1.820484 1_555
Al9 F113 1.822440 1_555
Al9 F73 1.823785 1_555
Al10 F80 1.799530 1_555
Al10 F122 1.799809 1_555
Al10 F113 1.815104 1_555
Al10 F67 1.820484 1_555
Al10 F114 1.822440 1_555
Al10 F74 1.823785 1_555
Al11 F81 1.799530 1_555
Al11 F123 1.799809 1_555
Al11 F112 1.815104 1_555
Al11 F66 1.820484 1_555
Al11 F115 1.822440 1_555
Al11 F75 1.823785 1_555
Al12 F87 1.799530 1_555
Al12 F124 1.799809 1_555
Al12 F118 1.815104 1_555
Al12 F69 1.820484 1_555
Al12 F116 1.822440 1_555
Al12 F76 1.823785 1_555
Al13 F86 1.799530 1_555
Al13 F125 1.799809 1_555
Al13 F119 1.815104 1_455
Al13 F68 1.820484 1_555
Al13 F117 1.822440 1_555
Al13 F77 1.823785 1_555
Al14 F84 1.799530 1_555
Al14 F126 1.799809 1_555
Al14 F117 1.815104 1_555
Al14 F71 1.820484 1_555
Al14 F118 1.822440 1_555
Al14 F78 1.823785 1_555
Al15 F85 1.799530 1_555
Al15 F127 1.799809 1_555
Al15 F116 1.815104 1_555
Al15 F70 1.820484 1_555
Al15 F119 1.822440 1_555
Al15 F79 1.823785 1_555
Al16 F14 1.802321 1_555
Al16 F96 1.821677 1_555
Al16 F136 1.832701 1_555
Al16 F88 1.834298 1_555
Al16 F128 1.837697 1_555
Al16 F120 1.871987 1_555
Al17 F15 1.802321 1_546
Al17 F97 1.821677 1_555
Al17 F137 1.832701 1_645
Al17 F89 1.834298 1_555
Al17 F129 1.837697 1_545
Al17 F121 1.871987 1_555
Al18 F13 1.802321 1_556
Al18 F98 1.821677 1_555
Al18 F138 1.832701 1_556
Al18 F90 1.834298 1_555
Al18 F130 1.837697 1_556
Al18 F122 1.871987 1_555
Al19 F12 1.802321 1_545
Al19 F99 1.821677 1_555
Al19 F139 1.832701 1_555
Al19 F91 1.834298 1_555
Al19 F131 1.837697 1_555
Al19 F123 1.871987 1_555
Al20 F10 1.802321 1_555
Al20 F100 1.821677 1_555
Al20 F140 1.832701 1_555
Al20 F92 1.834298 1_555
Al20 F132 1.837697 1_555
Al20 F124 1.871987 1_555
Al21 F11 1.802321 1_564
Al21 F101 1.821677 1_555
Al21 F141 1.832701 1_465
Al21 F93 1.834298 1_555
Al21 F133 1.837697 1_565
Al21 F125 1.871987 1_555
Al22 F9 1.802321 1_554
Al22 F102 1.821677 1_555
Al22 F142 1.832701 1_554
Al22 F94 1.834298 1_555
Al22 F134 1.837697 1_554
Al22 F126 1.871987 1_555
Al23 F8 1.802321 1_565
Al23 F103 1.821677 1_555
Al23 F143 1.832701 1_555
Al23 F95 1.834298 1_555
Al23 F135 1.837697 1_555
Al23 F127 1.871987 1_555
Al24 F16 1.784450 1_555
Al24 F17 1.784450 1_555
Al24 F40 1.808913 1_555
Al24 F41 1.808913 1_555
Al24 F25 1.932505 1_555
Al24 F24 1.932505 1_555
Al25 F18 1.784450 1_555
Al25 F19 1.784450 1_555
Al25 F43 1.808913 1_555
Al25 F42 1.808913 1_555
Al25 F26 1.932505 1_555
Al25 F27 1.932505 1_555
Al26 F20 1.784450 1_555
Al26 F21 1.784450 1_555
Al26 F44 1.808913 1_555
Al26 F45 1.808913 1_555
Al26 F29 1.932505 1_555
Al26 F28 1.932505 1_555
Al27 F22 1.784450 1_555
Al27 F23 1.784450 1_555
Al27 F47 1.808913 1_555
Al27 F46 1.808913 1_555
Al27 F30 1.932505 1_555
Al27 F31 1.932505 1_555
Al28 F157 1.786285 1_655
Al28 F156 1.786285 1_555
Al28 F33 1.809473 1_655
Al28 F32 1.809473 1_555
Al28 F24 1.932688 1_555
Al28 F25 1.932688 1_555
Al29 F159 1.786285 1_555
Al29 F158 1.786285 1_555
Al29 F35 1.809473 1_555
Al29 F34 1.809473 1_555
Al29 F27 1.932688 1_555
Al29 F26 1.932688 1_555
Al30 F153 1.786285 1_455
Al30 F152 1.786285 1_555
Al30 F37 1.809473 1_455
Al30 F36 1.809473 1_555
Al30 F28 1.932688 1_555
Al30 F29 1.932688 1_555
Al31 F155 1.786285 1_555
Al31 F154 1.786285 1_555
Al31 F39 1.809473 1_555
Al31 F38 1.809473 1_555
Al31 F31 1.932688 1_555
Al31 F30 1.932688 1_555
