# generated using pymatgen
data_LaSi
_symmetry_space_group_name_H-M   'P 1'
_cell_length_a   4.00733505
_cell_length_b   6.06953956
_cell_length_c   8.49258615
_cell_angle_alpha   90.00000000
_cell_angle_beta   90.00000000
_cell_angle_gamma   90.00000000
_symmetry_Int_Tables_number   1
_chemical_formula_structural   LaSi
_chemical_formula_sum   'La4 Si4'
_cell_volume   206.56244355
_cell_formula_units_Z   4
loop_
 _symmetry_equiv_pos_site_id
 _symmetry_equiv_pos_as_xyz
  1  'x, y, z'
loop_
 _atom_site_type_symbol
 _atom_site_label
 _atom_site_symmetry_multiplicity
 _atom_site_fract_x
 _atom_site_fract_y
 _atom_site_fract_z
 _atom_site_occupancy
  La  La0  1  0.25000000  0.38720130  0.67988549  1
  La  La1  1  0.75000000  0.61279870  0.32011451  1
  La  La2  1  0.75000000  0.88720130  0.82011451  1
  La  La3  1  0.25000000  0.11279870  0.17988549  1
  Si  Si0  1  0.25000000  0.88378638  0.53296333  1
  Si  Si1  1  0.75000000  0.11621362  0.46703667  1
  Si  Si2  1  0.75000000  0.38378638  0.96703667  1
  Si  Si3  1  0.25000000  0.61621362  0.03296333  1
loop_
_geom_bond_atom_site_label_1
_geom_bond_atom_site_label_2
_geom_bond_distance
_geom_bond_site_symmetry_2
La0 Si2 3.156288 1_555
La0 Si2 3.156288 1_455
La0 Si1 3.160301 1_555
La0 Si1 3.160301 1_455
La0 Si0 3.262105 1_555
La0 Si0 3.300445 1_545
La0 Si3 3.305051 1_556
La1 Si3 3.156288 1_655
La1 Si3 3.156288 1_555
La1 Si0 3.160301 1_655
La1 Si0 3.160301 1_555
La1 Si1 3.262105 1_555
La1 Si1 3.300445 1_565
La1 Si2 3.305051 1_554
La2 Si0 3.156288 1_555
La2 Si0 3.156288 1_655
La2 Si3 3.160301 1_656
La2 Si3 3.160301 1_556
La2 Si2 3.262105 1_565
La2 Si2 3.300445 1_555
La2 Si1 3.305051 1_565
La3 Si1 3.156288 1_455
La3 Si1 3.156288 1_555
La3 Si2 3.160301 1_554
La3 Si2 3.160301 1_454
La3 Si3 3.262105 1_545
La3 Si3 3.300445 1_555
La3 Si0 3.305051 1_545
Si0 Si1 2.513624 1_565
Si0 Si1 2.513624 1_465
Si2 Si3 2.513624 1_656
Si2 Si3 2.513624 1_556
