# generated using pymatgen
data_LiFePO4
_symmetry_space_group_name_H-M   'P 1'
_cell_length_a   4.97150400
_cell_length_b   6.32700300
_cell_length_c   9.53015300
_cell_angle_alpha   90.00000000
_cell_angle_beta   90.00000000
_cell_angle_gamma   90.00000000
_symmetry_Int_Tables_number   1
_chemical_formula_structural   LiFePO4
_chemical_formula_sum   'Li4 Fe4 P4 O16'
_cell_volume   299.76830106
_cell_formula_units_Z   4
loop_
 _symmetry_equiv_pos_site_id
 _symmetry_equiv_pos_as_xyz
  1  'x, y, z'
loop_
 _atom_site_type_symbol
 _atom_site_label
 _atom_site_symmetry_multiplicity
 _atom_site_fract_x
 _atom_site_fract_y
 _atom_site_fract_z
 _atom_site_occupancy
  Li  Li0  1  0.00000000  0.00000000  0.00000000  1
  Li  Li1  1  0.00000000  0.50000000  0.00000000  1
  Li  Li2  1  0.50000000  0.00000000  0.50000000  1
  Li  Li3  1  0.50000000  0.50000000  0.50000000  1
  Fe  Fe0  1  0.46945100  0.75000000  0.14857800  1
  Fe  Fe1  1  0.96945100  0.25000000  0.35142200  1
  Fe  Fe2  1  0.03054900  0.75000000  0.64857800  1
  Fe  Fe3  1  0.53054900  0.25000000  0.85142200  1
  P  P0  1  0.46272500  0.25000000  0.18199700  1
  P  P1  1  0.96272500  0.75000000  0.31800300  1
  P  P2  1  0.03727500  0.25000000  0.68199700  1
  P  P3  1  0.53727500  0.75000000  0.81800300  1
  O  O0  1  0.77070700  0.25000000  0.15685900  1
  O  O1  1  0.33473200  0.05214500  0.11214900  1
  O  O2  1  0.33473200  0.44785500  0.11214900  1
  O  O3  1  0.89289400  0.75000000  0.15693400  1
  O  O4  1  0.39289400  0.25000000  0.34306600  1
  O  O5  1  0.83473200  0.94785500  0.38785100  1
  O  O6  1  0.83473200  0.55214500  0.38785100  1
  O  O7  1  0.27070700  0.75000000  0.34314100  1
  O  O8  1  0.72929300  0.25000000  0.65685900  1
  O  O9  1  0.16526800  0.05214500  0.61214900  1
  O  O10  1  0.16526800  0.44785500  0.61214900  1
  O  O11  1  0.60710600  0.75000000  0.65693400  1
  O  O12  1  0.10710600  0.25000000  0.84306600  1
  O  O13  1  0.66526800  0.55214500  0.88785100  1
  O  O14  1  0.66526800  0.94785500  0.88785100  1
  O  O15  1  0.22929300  0.75000000  0.84314100  1
loop_
_geom_bond_atom_site_label_1
_geom_bond_atom_site_label_2
_geom_bond_distance
_geom_bond_site_symmetry_2
Li0 O1 2.005112 1_555
Li0 O14 2.005112 1_444
Li0 O12 2.241049 1_554
Li0 O3 2.241049 1_445
Li0 O0 2.456843 1_455
Li0 O15 2.456843 1_544
Li1 O2 2.005112 1_555
Li1 O13 2.005112 1_454
Li1 O12 2.241049 1_554
Li1 O3 2.241049 1_455
Li1 O0 2.456843 1_455
Li1 O15 2.456843 1_554
Li2 O9 2.005112 1_555
Li2 O5 2.005112 1_545
Li2 O11 2.241049 1_545
Li2 O4 2.241049 1_555
Li2 O8 2.456843 1_555
Li2 O7 2.456843 1_545
Li3 O10 2.005112 1_555
Li3 O6 2.005112 1_555
Li3 O11 2.241049 1_555
Li3 O4 2.241049 1_555
Li3 O8 2.456843 1_555
Li3 O7 2.456843 1_555
Fe0 O1 2.055138 1_565
Fe0 O2 2.055138 1_555
Fe0 O7 2.101040 1_555
Fe0 O3 2.106654 1_555
Fe1 O5 2.055138 1_545
Fe1 O6 2.055138 1_555
Fe1 O0 2.101040 1_555
Fe1 O4 2.106654 1_655
Fe2 O9 2.055138 1_565
Fe2 O10 2.055138 1_555
Fe2 O15 2.101040 1_555
Fe2 O11 2.106654 1_455
Fe3 O14 2.055138 1_545
Fe3 O13 2.055138 1_555
Fe3 O8 2.101040 1_555
Fe3 O12 2.106654 1_555
O0 P0 1.549763 1_555
O1 P0 1.554054 1_555
O2 P0 1.554054 1_555
O3 P1 1.573781 1_555
O4 P0 1.573781 1_555
O5 P1 1.554054 1_555
O6 P1 1.554054 1_555
O7 P1 1.549763 1_455
O8 P2 1.549763 1_655
O9 P2 1.554054 1_555
O10 P2 1.554054 1_555
O11 P3 1.573781 1_555
O12 P2 1.573781 1_555
O13 P3 1.554054 1_555
O14 P3 1.554054 1_555
O15 P3 1.549763 1_555
