# generated using pymatgen
data_Ca5Sn3
_symmetry_space_group_name_H-M   'P 1'
_cell_length_a   9.65460382
_cell_length_b   9.65460382
_cell_length_c   9.65460382
_cell_angle_alpha   130.06620093
_cell_angle_beta   130.06620093
_cell_angle_gamma   73.30095389
_symmetry_Int_Tables_number   1
_chemical_formula_structural   Ca5Sn3
_chemical_formula_sum   'Ca10 Sn6'
_cell_volume   514.53553531
_cell_formula_units_Z   2
loop_
 _symmetry_equiv_pos_site_id
 _symmetry_equiv_pos_as_xyz
  1  'x, y, z'
loop_
 _atom_site_type_symbol
 _atom_site_label
 _atom_site_symmetry_multiplicity
 _atom_site_fract_x
 _atom_site_fract_y
 _atom_site_fract_z
 _atom_site_occupancy
  Ca  Ca0  1  0.81775888  0.31775888  0.85397849  1
  Ca  Ca1  1  0.18224112  0.68224112  0.14602151  1
  Ca  Ca2  1  0.46377938  0.96377938  0.14602151  1
  Ca  Ca3  1  0.31775888  0.46377938  0.50000000  1
  Ca  Ca4  1  0.03622062  0.18224112  0.50000000  1
  Ca  Ca5  1  0.53622062  0.03622062  0.85397849  1
  Ca  Ca6  1  0.68224112  0.53622062  0.50000000  1
  Ca  Ca7  1  0.96377938  0.81775888  0.50000000  1
  Ca  Ca8  1  -0.00000000  -0.00000000  -0.00000000  1
  Ca  Ca9  1  0.50000000  0.50000000  -0.00000000  1
  Sn  Sn0  1  0.12443217  0.62443217  0.74886635  1
  Sn  Sn1  1  0.87556783  0.37556783  0.25113365  1
  Sn  Sn2  1  0.62443217  0.87556783  0.50000000  1
  Sn  Sn3  1  0.37556783  0.12443217  0.50000000  1
  Sn  Sn4  1  0.25000000  0.25000000  -0.00000000  1
  Sn  Sn5  1  0.75000000  0.75000000  -0.00000000  1
loop_
_geom_bond_atom_site_label_1
_geom_bond_atom_site_label_2
_geom_bond_distance
_geom_bond_site_symmetry_2
Ca0 Sn1 3.161406 1_556
Ca0 Sn2 3.312768 1_545
Ca0 Sn3 3.312768 1_555
Ca0 Sn5 3.446017 1_556
Ca0 Sn4 3.446017 1_656
Ca1 Sn0 3.161406 1_554
Ca1 Sn3 3.312768 1_565
Ca1 Sn2 3.312768 1_555
Ca1 Sn5 3.446017 1_455
Ca1 Sn4 3.446017 1_555
Ca2 Sn0 3.161417 1_554
Ca2 Sn2 3.312757 1_555
Ca2 Sn3 3.312757 1_565
Ca2 Sn4 3.446025 1_565
Ca2 Sn5 3.446025 1_555
Ca3 Sn3 3.161415 1_555
Ca3 Sn1 3.312761 1_455
Ca3 Sn0 3.312781 1_555
Ca3 Sn5 3.446019 1_556
Ca3 Sn4 3.446019 1_555
Ca4 Sn3 3.161415 1_555
Ca4 Sn0 3.312761 1_555
Ca4 Sn1 3.312781 1_455
Ca4 Sn5 3.446019 1_445
Ca4 Sn4 3.446019 1_556
Ca5 Sn1 3.161417 1_556
Ca5 Sn3 3.312757 1_555
Ca5 Sn2 3.312757 1_545
Ca5 Sn4 3.446025 1_556
Ca5 Sn5 3.446025 1_546
Ca6 Sn2 3.161415 1_555
Ca6 Sn0 3.312761 1_655
Ca6 Sn1 3.312781 1_555
Ca6 Sn4 3.446019 1_555
Ca6 Sn5 3.446019 1_556
Ca7 Sn2 3.161415 1_555
Ca7 Sn1 3.312761 1_555
Ca7 Sn0 3.312781 1_655
Ca7 Sn4 3.446019 1_666
Ca7 Sn5 3.446019 1_555
Ca8 Sn1 3.224621 1_455
Ca8 Sn0 3.224621 1_544
Ca8 Sn2 3.224626 1_444
Ca8 Sn3 3.224626 1_555
Ca9 Sn1 3.224621 1_555
Ca9 Sn0 3.224621 1_554
Ca9 Sn3 3.224626 1_554
Ca9 Sn2 3.224626 1_555
Sn0 Sn1 2.868504 1_455
Sn2 Sn3 2.868481 1_565
