# generated using pymatgen
data_Ho5Pb4
_symmetry_space_group_name_H-M   'P 1'
_cell_length_a   8.17148300
_cell_length_b   15.66877600
_cell_length_c   8.23824600
_cell_angle_alpha   90.00000000
_cell_angle_beta   90.00000000
_cell_angle_gamma   90.00000000
_symmetry_Int_Tables_number   1
_chemical_formula_structural   Ho5Pb4
_chemical_formula_sum   'Ho20 Pb16'
_cell_volume   1054.80142939
_cell_formula_units_Z   4
loop_
 _symmetry_equiv_pos_site_id
 _symmetry_equiv_pos_as_xyz
  1  'x, y, z'
loop_
 _atom_site_type_symbol
 _atom_site_label
 _atom_site_symmetry_multiplicity
 _atom_site_fract_x
 _atom_site_fract_y
 _atom_site_fract_z
 _atom_site_occupancy
  Ho  Ho0  1  0.62243800  0.61989500  0.15988200  1
  Ho  Ho1  1  0.12243800  0.88010500  0.34011800  1
  Ho  Ho2  1  0.37756200  0.11989500  0.84011800  1
  Ho  Ho3  1  0.87756200  0.38010500  0.65988200  1
  Ho  Ho4  1  0.37756200  0.38010500  0.84011800  1
  Ho  Ho5  1  0.87756200  0.11989500  0.65988200  1
  Ho  Ho6  1  0.62243800  0.88010500  0.15988200  1
  Ho  Ho7  1  0.12243800  0.61989500  0.34011800  1
  Ho  Ho8  1  0.46685500  0.60012700  0.67751900  1
  Ho  Ho9  1  0.96685500  0.89987300  0.82248100  1
  Ho  Ho10  1  0.53314500  0.10012700  0.32248100  1
  Ho  Ho11  1  0.03314500  0.39987300  0.17751900  1
  Ho  Ho12  1  0.53314500  0.39987300  0.32248100  1
  Ho  Ho13  1  0.03314500  0.10012700  0.17751900  1
  Ho  Ho14  1  0.46685500  0.89987300  0.67751900  1
  Ho  Ho15  1  0.96685500  0.60012700  0.82248100  1
  Ho  Ho16  1  0.79156100  0.75000000  0.49657300  1
  Ho  Ho17  1  0.29156100  0.75000000  0.00342700  1
  Ho  Ho18  1  0.20843900  0.25000000  0.50342700  1
  Ho  Ho19  1  0.70843900  0.25000000  0.99657300  1
  Pb  Pb0  1  0.71900900  0.45772100  0.96805100  1
  Pb  Pb1  1  0.21900900  0.04227900  0.53194900  1
  Pb  Pb2  1  0.28099100  0.95772100  0.03194900  1
  Pb  Pb3  1  0.78099100  0.54227900  0.46805100  1
  Pb  Pb4  1  0.28099100  0.54227900  0.03194900  1
  Pb  Pb5  1  0.78099100  0.95772100  0.46805100  1
  Pb  Pb6  1  0.71900900  0.04227900  0.96805100  1
  Pb  Pb7  1  0.21900900  0.45772100  0.53194900  1
  Pb  Pb8  1  0.42868800  0.75000000  0.37161200  1
  Pb  Pb9  1  0.92868800  0.75000000  0.12838800  1
  Pb  Pb10  1  0.57131200  0.25000000  0.62838800  1
  Pb  Pb11  1  0.07131200  0.25000000  0.87161200  1
  Pb  Pb12  1  0.65513200  0.75000000  0.84937300  1
  Pb  Pb13  1  0.15513200  0.75000000  0.65062700  1
  Pb  Pb14  1  0.34486800  0.25000000  0.15062700  1
  Pb  Pb15  1  0.84486800  0.25000000  0.34937300  1
loop_
_geom_bond_atom_site_label_1
_geom_bond_atom_site_label_2
_geom_bond_distance
_geom_bond_site_symmetry_2
Ho0 Pb0 3.094715 1_554
Ho0 Pb3 3.098869 1_555
Ho0 Pb8 3.115279 1_555
Ho0 Pb4 3.220967 1_555
Ho0 Pb9 3.238169 1_555
Ho0 Pb12 3.281893 1_554
Ho1 Pb1 3.094715 1_565
Ho1 Pb2 3.098869 1_555
Ho1 Pb9 3.115279 1_455
Ho1 Pb5 3.220967 1_455
Ho1 Pb8 3.238169 1_555
Ho1 Pb13 3.281893 1_555
Ho2 Pb2 3.094715 1_546
Ho2 Pb1 3.098869 1_555
Ho2 Pb10 3.115279 1_555
Ho2 Pb6 3.220967 1_555
Ho2 Pb11 3.238169 1_555
Ho2 Pb14 3.281893 1_556
Ho3 Pb3 3.094715 1_555
Ho3 Pb0 3.098869 1_555
Ho3 Pb11 3.115279 1_655
Ho3 Pb7 3.220967 1_655
Ho3 Pb10 3.238169 1_555
Ho3 Pb15 3.281893 1_555
Ho4 Pb4 3.094715 1_556
Ho4 Pb7 3.098869 1_555
Ho4 Pb10 3.115279 1_555
Ho4 Pb0 3.220967 1_555
Ho4 Pb11 3.238169 1_555
Ho4 Pb14 3.281893 1_556
Ho5 Pb5 3.094715 1_545
Ho5 Pb6 3.098869 1_555
Ho5 Pb11 3.115279 1_655
Ho5 Pb1 3.220967 1_655
Ho5 Pb10 3.238169 1_555
Ho5 Pb15 3.281893 1_555
Ho6 Pb6 3.094715 1_564
Ho6 Pb5 3.098869 1_555
Ho6 Pb8 3.115279 1_555
Ho6 Pb2 3.220967 1_555
Ho6 Pb9 3.238169 1_555
Ho6 Pb12 3.281893 1_554
Ho7 Pb7 3.094715 1_555
Ho7 Pb4 3.098869 1_555
Ho7 Pb9 3.115279 1_455
Ho7 Pb3 3.220967 1_455
Ho7 Pb8 3.238169 1_555
Ho7 Pb13 3.281893 1_555
Ho8 Pb12 3.144208 1_555
Ho8 Pb3 3.223152 1_555
Ho8 Pb7 3.243258 1_555
Ho8 Pb4 3.413794 1_556
Ho8 Pb8 3.458757 1_555
Ho8 Pb13 3.471620 1_555
Ho8 Pb0 3.866922 1_555
Ho9 Pb13 3.144208 1_655
Ho9 Pb2 3.223152 1_656
Ho9 Pb6 3.243258 1_565
Ho9 Pb5 3.413794 1_555
Ho9 Pb9 3.458757 1_556
Ho9 Pb12 3.471620 1_555
Ho9 Pb1 3.866922 1_665
Ho10 Pb14 3.144208 1_555
Ho10 Pb1 3.223152 1_555
Ho10 Pb5 3.243258 1_545
Ho10 Pb6 3.413794 1_554
Ho10 Pb10 3.458757 1_555
Ho10 Pb15 3.471620 1_555
Ho10 Pb2 3.866922 1_545
Ho11 Pb15 3.144208 1_455
Ho11 Pb0 3.223152 1_454
Ho11 Pb4 3.243258 1_555
Ho11 Pb7 3.413794 1_555
Ho11 Pb11 3.458757 1_554
Ho11 Pb14 3.471620 1_555
Ho11 Pb3 3.866922 1_455
Ho12 Pb14 3.144208 1_555
Ho12 Pb7 3.223152 1_555
Ho12 Pb3 3.243258 1_555
Ho12 Pb0 3.413794 1_554
Ho12 Pb10 3.458757 1_555
Ho12 Pb15 3.471620 1_555
Ho12 Pb4 3.866922 1_555
Ho13 Pb15 3.144208 1_455
Ho13 Pb6 3.223152 1_454
Ho13 Pb2 3.243258 1_545
Ho13 Pb1 3.413794 1_555
Ho13 Pb11 3.458757 1_554
Ho13 Pb14 3.471620 1_555
Ho13 Pb5 3.866922 1_445
Ho14 Pb12 3.144208 1_555
Ho14 Pb5 3.223152 1_555
Ho14 Pb1 3.243258 1_565
Ho14 Pb2 3.413794 1_556
Ho14 Pb8 3.458757 1_555
Ho14 Pb13 3.471620 1_555
Ho14 Pb6 3.866922 1_565
Ho15 Pb13 3.144208 1_655
Ho15 Pb4 3.223152 1_656
Ho15 Pb0 3.243258 1_555
Ho15 Pb3 3.413794 1_555
Ho15 Pb9 3.458757 1_556
Ho15 Pb12 3.471620 1_555
Ho15 Pb7 3.866922 1_655
Ho16 Pb12 3.112926 1_555
Ho16 Pb8 3.138831 1_555
Ho16 Pb13 3.230640 1_655
Ho16 Pb9 3.233556 1_555
Ho16 Pb5 3.264347 1_555
Ho16 Pb3 3.264347 1_555
Ho17 Pb13 3.112926 1_554
Ho17 Pb9 3.138831 1_455
Ho17 Pb12 3.230640 1_554
Ho17 Pb8 3.233556 1_555
Ho17 Pb2 3.264347 1_555
Ho17 Pb4 3.264347 1_555
Ho18 Pb14 3.112926 1_555
Ho18 Pb10 3.138831 1_555
Ho18 Pb15 3.230640 1_455
Ho18 Pb11 3.233556 1_555
Ho18 Pb7 3.264347 1_555
Ho18 Pb1 3.264347 1_555
Ho19 Pb15 3.112926 1_556
Ho19 Pb11 3.138831 1_655
Ho19 Pb14 3.230640 1_556
Ho19 Pb10 3.233556 1_555
Ho19 Pb0 3.264347 1_555
Ho19 Pb6 3.264347 1_555
Pb10 Pb15 3.206300 1_555
Pb11 Pb14 3.206300 1_556
Pb12 Pb9 3.206300 1_556
Pb13 Pb8 3.206300 1_555
