# generated using pymatgen
data_Lu(FeGe)6
_symmetry_space_group_name_H-M   'P 1'
_cell_length_a   5.08588837
_cell_length_b   5.08584620
_cell_length_c   8.17403217
_cell_angle_alpha   89.99999853
_cell_angle_beta   89.99996101
_cell_angle_gamma   119.99881027
_symmetry_Int_Tables_number   1
_chemical_formula_structural   Lu(FeGe)6
_chemical_formula_sum   'Lu1 Fe6 Ge6'
_cell_volume   183.10585289
_cell_formula_units_Z   1
loop_
 _symmetry_equiv_pos_site_id
 _symmetry_equiv_pos_as_xyz
  1  'x, y, z'
loop_
 _atom_site_type_symbol
 _atom_site_label
 _atom_site_symmetry_multiplicity
 _atom_site_fract_x
 _atom_site_fract_y
 _atom_site_fract_z
 _atom_site_occupancy
  Lu  Lu0  1  0.00000014  -0.00000004  0.99997165  1
  Fe  Fe0  1  0.49999891  -0.00000075  0.24939594  1
  Fe  Fe1  1  0.50000083  0.49999972  0.24939576  1
  Fe  Fe2  1  0.99999966  0.49999805  0.24939663  1
  Fe  Fe3  1  0.49999997  1.00000098  0.75060930  1
  Fe  Fe4  1  0.49999941  0.50000070  0.75060840  1
  Fe  Fe5  1  0.00000046  0.50000041  0.75060848  1
  Ge  Ge0  1  0.00000026  0.00000027  0.34569197  1
  Ge  Ge1  1  -0.00000025  -0.00000018  0.65431182  1
  Ge  Ge2  1  0.33333765  0.66665404  0.50000729  1
  Ge  Ge3  1  0.66666222  0.33334649  0.50000741  1
  Ge  Ge4  1  0.33333667  0.66665427  -0.00000236  1
  Ge  Ge5  1  0.66666407  0.33334603  -0.00000229  1
loop_
_geom_bond_atom_site_label_1
_geom_bond_atom_site_label_2
_geom_bond_distance
_geom_bond_site_symmetry_2
Fe0 Ge4 2.512278 1_545
Fe0 Ge5 2.512281 1_555
Fe0 Ge2 2.520330 1_545
Fe0 Ge3 2.520337 1_555
Fe0 Fe1 2.542921 1_555
Fe0 Fe1 2.542926 1_545
Fe0 Fe2 2.542978 1_555
Fe0 Fe2 2.542981 1_445
Fe0 Ge0 2.661975 1_555
Fe0 Ge0 2.661984 1_655
Fe0 Lu0 3.259335 1_554
Fe0 Lu0 3.259340 1_654
Fe1 Ge5 2.512191 1_555
Fe1 Ge4 2.512197 1_555
Fe1 Ge3 2.520242 1_555
Fe1 Ge2 2.520248 1_555
Fe1 Fe2 2.542942 1_555
Fe1 Fe2 2.542946 1_455
Fe1 Ge0 2.662013 1_555
Fe1 Ge0 2.662014 1_665
Fe1 Lu0 3.259362 1_664
Fe1 Lu0 3.259366 1_554
Fe2 Ge5 2.512265 1_555
Fe2 Ge4 2.512267 1_655
Fe2 Ge3 2.520313 1_555
Fe2 Ge2 2.520315 1_655
Fe2 Ge0 2.661948 1_655
Fe2 Ge0 2.661967 1_665
Fe2 Lu0 3.259318 1_654
Fe2 Lu0 3.259331 1_664
Fe3 Ge5 2.512212 1_566
Fe3 Ge4 2.512215 1_556
Fe3 Ge3 2.520268 1_565
Fe3 Ge2 2.520273 1_555
Fe3 Fe4 2.542923 1_565
Fe3 Fe4 2.542923 1_555
Fe3 Fe5 2.542979 1_665
Fe3 Fe5 2.542980 1_555
Fe3 Ge1 2.661982 1_565
Fe3 Ge1 2.661984 1_665
Fe3 Lu0 3.259017 1_565
Fe3 Lu0 3.259024 1_665
Fe4 Ge4 2.512131 1_556
Fe4 Ge5 2.512140 1_556
Fe4 Ge2 2.520174 1_555
Fe4 Ge3 2.520177 1_555
Fe4 Fe5 2.542938 1_555
Fe4 Fe5 2.542950 1_655
Fe4 Ge1 2.662012 1_665
Fe4 Ge1 2.662016 1_555
Fe4 Lu0 3.259052 1_555
Fe4 Lu0 3.259054 1_665
Fe5 Ge5 2.512201 1_456
Fe5 Ge4 2.512202 1_556
Fe5 Ge2 2.520248 1_555
Fe5 Ge3 2.520252 1_455
Fe5 Ge1 2.661960 1_565
Fe5 Ge1 2.661962 1_555
Fe5 Lu0 3.259007 1_565
Fe5 Lu0 3.259009 1_555
Ge0 Ge1 2.522669 1_555
Ge0 Lu0 2.825929 1_554
Ge1 Lu0 2.825435 1_555
Ge4 Lu0 2.936295 1_554
Ge4 Lu0 2.936360 1_664
Ge4 Lu0 2.936378 1_564
Ge5 Lu0 2.936294 1_664
Ge5 Lu0 2.936362 1_554
Ge5 Lu0 2.936377 1_654
