# generated using pymatgen
data_Ni2S3(NO6)2
_symmetry_space_group_name_H-M   'P 1'
_cell_length_a   10.00941300
_cell_length_b   10.00941300
_cell_length_c   10.00941300
_cell_angle_alpha   90.00000000
_cell_angle_beta   90.00000000
_cell_angle_gamma   90.00000000
_symmetry_Int_Tables_number   1
_chemical_formula_structural   Ni2S3(NO6)2
_chemical_formula_sum   'Ni8 S12 N8 O48'
_cell_volume   1002.82655897
_cell_formula_units_Z   4
loop_
 _symmetry_equiv_pos_site_id
 _symmetry_equiv_pos_as_xyz
  1  'x, y, z'
loop_
 _atom_site_type_symbol
 _atom_site_label
 _atom_site_symmetry_multiplicity
 _atom_site_fract_x
 _atom_site_fract_y
 _atom_site_fract_z
 _atom_site_occupancy
  Ni  Ni0  1  0.33631900  0.33631900  0.33631900  1
  Ni  Ni1  1  0.16368100  0.66368100  0.83631900  1
  Ni  Ni2  1  0.66368100  0.83631900  0.16368100  1
  Ni  Ni3  1  0.83631900  0.16368100  0.66368100  1
  Ni  Ni4  1  0.59902300  0.59902300  0.59902300  1
  Ni  Ni5  1  0.90097700  0.40097700  0.09902300  1
  Ni  Ni6  1  0.40097700  0.09902300  0.90097700  1
  Ni  Ni7  1  0.09902300  0.90097700  0.40097700  1
  S  S0  1  0.01711400  0.21624400  0.37554100  1
  S  S1  1  0.48288600  0.78375600  0.87554100  1
  S  S2  1  0.98288600  0.71624400  0.12445900  1
  S  S3  1  0.37554100  0.01711400  0.21624400  1
  S  S4  1  0.51711400  0.28375600  0.62445900  1
  S  S5  1  0.87554100  0.48288600  0.78375600  1
  S  S6  1  0.12445900  0.98288600  0.71624400  1
  S  S7  1  0.62445900  0.51711400  0.28375600  1
  S  S8  1  0.21624400  0.37554100  0.01711400  1
  S  S9  1  0.71624400  0.12445900  0.98288600  1
  S  S10  1  0.28375600  0.62445900  0.51711400  1
  S  S11  1  0.78375600  0.87554100  0.48288600  1
  N  N0  1  0.04807000  0.04807000  0.04807000  1
  N  N1  1  0.45193000  0.95193000  0.54807000  1
  N  N2  1  0.95193000  0.54807000  0.45193000  1
  N  N3  1  0.54807000  0.45193000  0.95193000  1
  N  N4  1  0.81627500  0.81627500  0.81627500  1
  N  N5  1  0.68372500  0.18372500  0.31627500  1
  N  N6  1  0.18372500  0.31627500  0.68372500  1
  N  N7  1  0.31627500  0.68372500  0.18372500  1
  O  O0  1  0.01194900  0.07424300  0.33124200  1
  O  O1  1  0.48805100  0.92575700  0.83124200  1
  O  O2  1  0.98805100  0.57424300  0.16875800  1
  O  O3  1  0.33124200  0.01194900  0.07424300  1
  O  O4  1  0.51194900  0.42575700  0.66875800  1
  O  O5  1  0.83124200  0.48805100  0.92575700  1
  O  O6  1  0.16875800  0.98805100  0.57424300  1
  O  O7  1  0.66875800  0.51194900  0.42575700  1
  O  O8  1  0.07424300  0.33124200  0.01194900  1
  O  O9  1  0.57424300  0.16875800  0.98805100  1
  O  O10  1  0.42575700  0.66875800  0.51194900  1
  O  O11  1  0.92575700  0.83124200  0.48805100  1
  O  O12  1  0.26718100  0.49950400  0.44044700  1
  O  O13  1  0.23281900  0.50049600  0.94044700  1
  O  O14  1  0.73281900  0.99950400  0.05955300  1
  O  O15  1  0.44044700  0.26718100  0.49950400  1
  O  O16  1  0.76718100  0.00049600  0.55955300  1
  O  O17  1  0.94044700  0.23281900  0.50049600  1
  O  O18  1  0.05955300  0.73281900  0.99950400  1
  O  O19  1  0.55955300  0.76718100  0.00049600  1
  O  O20  1  0.49950400  0.44044700  0.26718100  1
  O  O21  1  0.99950400  0.05955300  0.73281900  1
  O  O22  1  0.00049600  0.55955300  0.76718100  1
  O  O23  1  0.50049600  0.94044700  0.23281900  1
  O  O24  1  0.04156600  0.80350000  0.22672300  1
  O  O25  1  0.45843400  0.19650000  0.72672300  1
  O  O26  1  0.95843400  0.30350000  0.27327700  1
  O  O27  1  0.22672300  0.04156600  0.80350000  1
  O  O28  1  0.54156600  0.69650000  0.77327700  1
  O  O29  1  0.72672300  0.45843400  0.19650000  1
  O  O30  1  0.27327700  0.95843400  0.30350000  1
  O  O31  1  0.77327700  0.54156600  0.69650000  1
  O  O32  1  0.80350000  0.22672300  0.04156600  1
  O  O33  1  0.30350000  0.27327700  0.95843400  1
  O  O34  1  0.69650000  0.77327700  0.54156600  1
  O  O35  1  0.19650000  0.72672300  0.45843400  1
  O  O36  1  0.15807500  0.25285700  0.40109400  1
  O  O37  1  0.34192500  0.74714300  0.90109400  1
  O  O38  1  0.84192500  0.75285700  0.09890600  1
  O  O39  1  0.40109400  0.15807500  0.25285700  1
  O  O40  1  0.65807500  0.24714300  0.59890600  1
  O  O41  1  0.90109400  0.34192500  0.74714300  1
  O  O42  1  0.09890600  0.84192500  0.75285700  1
  O  O43  1  0.59890600  0.65807500  0.24714300  1
  O  O44  1  0.25285700  0.40109400  0.15807500  1
  O  O45  1  0.75285700  0.09890600  0.84192500  1
  O  O46  1  0.24714300  0.59890600  0.65807500  1
  O  O47  1  0.74714300  0.90109400  0.34192500  1
loop_
_geom_bond_atom_site_label_1
_geom_bond_atom_site_label_2
_geom_bond_distance
_geom_bond_site_symmetry_2
Ni0 O15 2.057465 1_555
Ni0 O12 2.057465 1_555
Ni0 O20 2.057465 1_555
Ni0 O44 2.073969 1_555
Ni0 O39 2.073969 1_555
Ni0 O36 2.073969 1_555
Ni1 O18 2.057465 1_555
Ni1 O13 2.057465 1_555
Ni1 O22 2.057465 1_555
Ni1 O37 2.073969 1_555
Ni1 O46 2.073969 1_555
Ni1 O42 2.073969 1_555
Ni2 O14 2.057465 1_555
Ni2 O23 2.057465 1_555
Ni2 O19 2.057465 1_555
Ni2 O47 2.073969 1_555
Ni2 O43 2.073969 1_555
Ni2 O38 2.073969 1_555
Ni3 O21 2.057465 1_555
Ni3 O17 2.057465 1_555
Ni3 O16 2.057465 1_555
Ni3 O41 2.073969 1_555
Ni3 O40 2.073969 1_555
Ni3 O45 2.073969 1_555
Ni4 O10 2.062667 1_555
Ni4 O7 2.062667 1_555
Ni4 O4 2.062667 1_555
Ni4 O34 2.079635 1_555
Ni4 O31 2.079635 1_555
Ni4 O28 2.079635 1_555
Ni5 O2 2.062667 1_555
Ni5 O5 2.062667 1_554
Ni5 O8 2.062667 1_655
Ni5 O32 2.079635 1_555
Ni5 O26 2.079635 1_555
Ni5 O29 2.079635 1_555
Ni6 O9 2.062667 1_555
Ni6 O1 2.062667 1_545
Ni6 O3 2.062667 1_556
Ni6 O27 2.079635 1_555
Ni6 O33 2.079635 1_555
Ni6 O25 2.079635 1_555
Ni7 O6 2.062667 1_555
Ni7 O11 2.062667 1_455
Ni7 O0 2.062667 1_565
Ni7 O24 2.079635 1_555
Ni7 O30 2.079635 1_555
Ni7 O35 2.079635 1_555
O0 S0 1.489802 1_555
O1 S1 1.489802 1_555
O2 S2 1.489802 1_555
O3 S3 1.489802 1_555
O4 S4 1.489802 1_555
O5 S5 1.489802 1_555
O6 S6 1.489802 1_555
O7 S7 1.489802 1_555
O8 S8 1.489802 1_555
O9 S9 1.489802 1_555
O10 S10 1.489802 1_555
O11 S11 1.489802 1_555
O12 S10 1.476730 1_555
O13 S8 1.476730 1_556
O14 S9 1.476730 1_564
O15 S4 1.476730 1_555
O16 S11 1.476730 1_545
O17 S0 1.476730 1_655
O18 S2 1.476730 1_456
O19 S1 1.476730 1_554
O20 S7 1.476730 1_555
O21 S6 1.476730 1_645
O22 S5 1.476730 1_455
O23 S3 1.476730 1_565
O24 S2 1.468176 1_455
O25 S4 1.468176 1_555
O26 S0 1.468176 1_655
O27 S6 1.468176 1_545
O28 S1 1.468176 1_555
O29 S7 1.468176 1_555
O30 S3 1.468176 1_565
O31 S5 1.468176 1_555
O32 S9 1.468176 1_554
O33 S8 1.468176 1_556
O34 S11 1.468176 1_555
O35 S10 1.468176 1_555
O36 S0 1.480022 1_555
O37 S1 1.480022 1_555
O38 S2 1.480022 1_555
O39 S3 1.480022 1_555
O40 S4 1.480022 1_555
O41 S5 1.480022 1_555
O42 S6 1.480022 1_555
O43 S7 1.480022 1_555
O44 S8 1.480022 1_555
O45 S9 1.480022 1_555
O46 S10 1.480022 1_555
O47 S11 1.480022 1_555
