# generated using pymatgen
data_Ba3Al2B10H4O23
_symmetry_space_group_name_H-M   'P 1'
_cell_length_a   23.96854347
_cell_length_b   23.45153438
_cell_length_c   7.15463100
_cell_angle_alpha   85.44120330
_cell_angle_beta   77.24789701
_cell_angle_gamma   17.31089968
_symmetry_Int_Tables_number   1
_chemical_formula_structural   Ba3Al2B10H4O23
_chemical_formula_sum   'Ba6 Al4 B20 H8 O46'
_cell_volume   1040.95763415
_cell_formula_units_Z   2
loop_
 _symmetry_equiv_pos_site_id
 _symmetry_equiv_pos_as_xyz
  1  'x, y, z'
loop_
 _atom_site_type_symbol
 _atom_site_label
 _atom_site_symmetry_multiplicity
 _atom_site_fract_x
 _atom_site_fract_y
 _atom_site_fract_z
 _atom_site_occupancy
  Ba  Ba0  1  0.78763800  0.52423800  0.21937200  1
  Ba  Ba1  1  0.21937200  0.46875100  0.78763800  1
  Ba  Ba2  1  0.78124900  0.03062800  0.72576200  1
  Ba  Ba3  1  0.72576200  0.46236200  0.78124900  1
  Ba  Ba4  1  0.74121800  0.75878200  0.74121800  1
  Ba  Ba5  1  0.49121800  0.50878200  0.49121800  1
  Al  Al0  1  0.45023100  0.88659100  0.90899800  1
  Al  Al1  1  0.90899800  0.75418000  0.45023100  1
  Al  Al2  1  0.49582000  0.34100200  0.36340900  1
  Al  Al3  1  0.36340900  0.79976900  0.49582000  1
  B  B0  1  0.27202400  0.05243400  0.62596400  1
  B  B1  1  0.62596400  0.04957700  0.27202400  1
  B  B2  1  0.20042300  0.62403600  0.19756600  1
  B  B3  1  0.19756600  0.97797600  0.20042300  1
  B  B4  1  0.89942600  0.43722200  0.69390600  1
  B  B5  1  0.69390600  0.96944600  0.89942600  1
  B  B6  1  0.28055400  0.55609400  0.81277800  1
  B  B7  1  0.81277800  0.35057400  0.28055400  1
  B  B8  1  0.26159600  0.18100600  0.99064400  1
  B  B9  1  0.99064400  0.56675400  0.26159600  1
  B  B10  1  0.68324600  0.25935600  0.06899400  1
  B  B11  1  0.06899400  0.98840400  0.68324600  1
  B  B12  1  0.15953700  0.37669600  0.88864500  1
  B  B13  1  0.88864500  0.57512300  0.15953700  1
  B  B14  1  0.67487700  0.36135500  0.87330400  1
  B  B15  1  0.87330400  0.09046300  0.67487700  1
  B  B16  1  0.17155100  0.13370800  0.35268700  1
  B  B17  1  0.35268700  0.34205400  0.17155100  1
  B  B18  1  0.90794600  0.89731300  0.11629200  1
  B  B19  1  0.11629200  0.07844900  0.90794600  1
  H  H0  1  0.97790900  0.42694200  0.45747500  1
  H  H1  1  0.45747500  0.13767400  0.97790900  1
  H  H2  1  0.11232600  0.79252500  0.82305800  1
  H  H3  1  0.82305800  0.27209100  0.11232600  1
  H  H4  1  0.18474000  0.38038100  0.59202900  1
  H  H5  1  0.59202900  0.84285000  0.18474000  1
  H  H6  1  0.40715000  0.65797100  0.86961900  1
  H  H7  1  0.86961900  0.06526000  0.40715000  1
  O  O0  1  0.90034600  0.49661900  0.61463000  1
  O  O1  1  0.61463000  0.98840500  0.90034600  1
  O  O2  1  0.26159500  0.63537000  0.75338100  1
  O  O3  1  0.75338100  0.34965400  0.26159500  1
  O  O4  1  0.95729900  0.54270100  0.95729900  1
  O  O5  1  0.70729900  0.29270100  0.70729900  1
  O  O6  1  0.42987300  0.89386600  0.67921900  1
  O  O7  1  0.67921900  0.99704200  0.42987300  1
  O  O8  1  0.25295800  0.57078100  0.35613400  1
  O  O9  1  0.35613400  0.82012700  0.25295800  1
  O  O10  1  0.05076900  0.37262200  0.14190100  1
  O  O11  1  0.14190100  0.43470800  0.05076900  1
  O  O12  1  0.81529200  0.10809900  0.87737800  1
  O  O13  1  0.87737800  0.19923100  0.81529200  1
  O  O14  1  0.32206000  0.17516700  0.87446500  1
  O  O15  1  0.87446500  0.62830800  0.32206000  1
  O  O16  1  0.62169200  0.37553500  0.07483300  1
  O  O17  1  0.07483300  0.92794000  0.62169200  1
  O  O18  1  0.42483700  0.98516900  0.95575100  1
  O  O19  1  0.95575100  0.63424300  0.42483700  1
  O  O20  1  0.61575700  0.29424900  0.26483100  1
  O  O21  1  0.26483100  0.82516300  0.61575700  1
  O  O22  1  0.06475800  0.26758300  0.76551000  1
  O  O23  1  0.76551000  0.90214900  0.06475700  1
  O  O24  1  0.34785100  0.48449000  0.98241700  1
  O  O25  1  0.98241700  0.18524300  0.34785100  1
  O  O26  1  0.23472000  0.34094200  0.69080800  1
  O  O27  1  0.69080800  0.73353000  0.23472000  1
  O  O28  1  0.51647000  0.55919200  0.90905800  1
  O  O29  1  0.90905800  0.01528000  0.51647000  1
  O  O30  1  0.33043100  0.98679100  0.41039200  1
  O  O31  1  0.41039200  0.27238600  0.33043100  1
  O  O32  1  0.97761400  0.83960800  0.26320900  1
  O  O33  1  0.26320900  0.91956900  0.97761400  1
  O  O34  1  0.95676500  0.34448500  0.50817700  1
  O  O35  1  0.50817700  0.19057300  0.95676500  1
  O  O36  1  0.05942700  0.74182300  0.90551500  1
  O  O37  1  0.90551500  0.29323500  0.05942700  1
  O  O38  1  0.69136000  0.62197800  0.87609800  1
  O  O39  1  0.87609800  0.81056300  0.69136000  1
  O  O40  1  0.43943700  0.37390200  0.62802200  1
  O  O41  1  0.62802200  0.55864000  0.43943700  1
  O  O42  1  0.22402700  0.07493200  0.14679400  1
  O  O43  1  0.14679400  0.55424700  0.22402700  1
  O  O44  1  0.69575300  0.10320600  0.17506800  1
  O  O45  1  0.17506800  0.02597300  0.69575300  1
loop_
_geom_bond_atom_site_label_1
_geom_bond_atom_site_label_2
_geom_bond_distance
_geom_bond_site_symmetry_2
Ba0 O27 2.776966 1_555
Ba0 O38 2.849298 1_554
Ba0 O22 2.853014 1_654
Ba0 O34 2.856039 1_555
Ba0 O30 2.897242 1_555
Ba0 O10 2.945857 1_655
Ba0 O42 2.954980 1_655
Ba0 O37 2.995480 1_555
Ba0 O41 3.068482 1_555
Ba0 O6 3.105732 1_555
Ba1 O26 2.776943 1_555
Ba1 O39 2.849298 1_455
Ba1 O23 2.853013 1_456
Ba1 O35 2.856041 1_555
Ba1 O31 2.897238 1_555
Ba1 O11 2.945838 1_556
Ba1 O43 2.954985 1_556
Ba1 O36 2.995502 1_555
Ba1 O40 3.068524 1_555
Ba1 O7 3.105727 1_545
Ba2 O29 2.776945 1_555
Ba2 O40 2.849298 1_555
Ba2 O24 2.853013 1_555
Ba2 O36 2.856035 1_645
Ba2 O32 2.897245 1_545
Ba2 O12 2.945834 1_555
Ba2 O44 2.954978 1_556
Ba2 O35 2.995501 1_555
Ba2 O39 3.068524 1_545
Ba2 O8 3.105729 1_645
Ba3 O28 2.776966 1_555
Ba3 O41 2.849298 1_555
Ba3 O25 2.853013 1_555
Ba3 O37 2.856033 1_556
Ba3 O33 2.897242 1_555
Ba3 O13 2.945856 1_555
Ba3 O45 2.954978 1_655
Ba3 O34 2.995483 1_555
Ba3 O38 3.068478 1_555
Ba3 O9 3.105727 1_556
Ba4 O4 2.658856 1_555
Ba4 O15 2.669674 1_555
Ba4 O14 2.669674 1_565
Ba4 O18 2.707676 1_555
Ba4 O19 2.707676 1_555
Ba4 O0 2.784348 1_555
Ba4 O1 2.784348 1_555
Ba5 O5 2.658856 1_555
Ba5 O16 2.669674 1_555
Ba5 O17 2.669674 1_555
Ba5 O20 2.707676 1_555
Ba5 O21 2.707676 1_555
Ba5 O3 2.784348 1_555
Ba5 O2 2.784348 1_555
Al0 O38 1.765687 1_555
Al0 O6 1.766489 1_555
Al0 O18 1.781326 1_555
Al0 O42 1.787777 1_566
Al1 O39 1.765677 1_555
Al1 O7 1.766489 1_555
Al1 O19 1.781326 1_555
Al1 O43 1.787777 1_655
Al2 O40 1.765684 1_555
Al2 O8 1.766489 1_555
Al2 O20 1.781326 1_555
Al2 O44 1.787777 1_555
Al3 O41 1.765689 1_555
Al3 O9 1.766489 1_555
Al3 O21 1.781326 1_555
Al3 O45 1.787777 1_565
B0 O6 1.354654 1_545
B0 O22 1.372855 1_555
B0 O30 1.420469 1_545
B1 O7 1.354655 1_545
B1 O23 1.372854 1_545
B1 O31 1.420474 1_555
B2 O8 1.354648 1_555
B2 O24 1.372854 1_554
B2 O32 1.420476 1_455
B3 O9 1.354649 1_555
B3 O25 1.372854 1_465
B3 O33 1.420476 1_554
B4 O38 1.453492 1_555
B4 O0 1.479878 1_555
B4 O22 1.504369 1_655
B4 O34 1.526599 1_555
B5 O39 1.453487 1_555
B5 O1 1.479878 1_555
B5 O23 1.504362 1_556
B5 O35 1.526599 1_565
B6 O40 1.453483 1_555
B6 O2 1.479878 1_555
B6 O24 1.504369 1_555
B6 O36 1.526599 1_555
B7 O41 1.453495 1_555
B7 O3 1.479878 1_555
B7 O25 1.504369 1_555
B7 O37 1.526599 1_555
B8 O10 1.378474 1_556
B8 O18 1.379745 1_545
B8 O14 1.384675 1_555
B9 O11 1.378474 1_655
B9 O19 1.379745 1_555
B9 O15 1.384675 1_555
B10 O12 1.378474 1_554
B10 O20 1.379745 1_555
B10 O16 1.384675 1_555
B11 O13 1.378474 1_465
B11 O21 1.379745 1_555
B11 O17 1.384675 1_555
B12 O4 1.454075 1_455
B12 O26 1.459938 1_555
B12 O14 1.506646 1_555
B12 O11 1.520311 1_556
B13 O4 1.454063 1_554
B13 O27 1.459950 1_555
B13 O15 1.506630 1_555
B13 O10 1.520327 1_655
B14 O5 1.454058 1_555
B14 O28 1.459949 1_555
B14 O16 1.506636 1_556
B14 O13 1.520329 1_555
B15 O5 1.454073 1_555
B15 O29 1.459932 1_555
B15 O17 1.506648 1_645
B15 O12 1.520316 1_555
B16 O42 1.358829 1_555
B16 O34 1.389521 1_455
B16 O30 1.399490 1_545
B17 O43 1.358829 1_555
B17 O35 1.389521 1_554
B17 O31 1.399490 1_555
B18 O44 1.358829 1_565
B18 O36 1.389521 1_654
B18 O32 1.399490 1_555
B19 O45 1.358829 1_555
B19 O37 1.389521 1_456
B19 O33 1.399490 1_545
H0 O0 0.979460 1_555
H1 O1 0.979460 1_545
H2 O2 0.979460 1_555
H3 O3 0.979460 1_555
H4 O26 0.971719 1_555
H5 O27 0.971719 1_555
H6 O28 0.971719 1_555
H7 O29 0.971719 1_555
