# generated using pymatgen
data_Li4Co3O7
_symmetry_space_group_name_H-M   'P 1'
_cell_length_a   16.66295512
_cell_length_b   16.66295512
_cell_length_c   5.04028624
_cell_angle_alpha   89.74776015
_cell_angle_beta   89.74776015
_cell_angle_gamma   10.33965741
_symmetry_Int_Tables_number   1
_chemical_formula_structural   Li4Co3O7
_chemical_formula_sum   'Li8 Co6 O14'
_cell_volume   251.17634715
_cell_formula_units_Z   2
loop_
 _symmetry_equiv_pos_site_id
 _symmetry_equiv_pos_as_xyz
  1  'x, y, z'
loop_
 _atom_site_type_symbol
 _atom_site_label
 _atom_site_symmetry_multiplicity
 _atom_site_fract_x
 _atom_site_fract_y
 _atom_site_fract_z
 _atom_site_occupancy
  Li  Li0  1  0.92842400  0.92842400  0.14703900  1
  Li  Li1  1  0.35730300  0.35730300  0.28670700  1
  Li  Li2  1  0.78568800  0.78568800  0.42853500  1
  Li  Li3  1  0.21431200  0.21431200  0.57146500  1
  Li  Li4  1  0.64269700  0.64269700  0.71329300  1
  Li  Li5  1  0.50000000  0.50000000  0.00000000  1
  Li  Li6  1  0.07157600  0.07157600  0.85296100  1
  Li  Li7  1  0.00000000  0.00000000  0.50000000  1
  Co  Co0  1  0.43172900  0.43172900  0.64343500  1
  Co  Co1  1  0.56827100  0.56827100  0.35656500  1
  Co  Co2  1  0.85793800  0.85793800  0.77975300  1
  Co  Co3  1  0.28611300  0.28611300  0.92928600  1
  Co  Co4  1  0.71388700  0.71388700  0.07071400  1
  Co  Co5  1  0.14206200  0.14206200  0.22024700  1
  O  O0  1  0.96163200  0.96163200  0.81246800  1
  O  O1  1  0.39405500  0.39405500  0.93098000  1
  O  O2  1  0.82235200  0.82235200  0.08680200  1
  O  O3  1  0.25019700  0.25019700  0.23028000  1
  O  O4  1  0.67880000  0.67880000  0.37501700  1
  O  O5  1  0.53976200  0.53976200  0.64471200  1
  O  O6  1  0.10713000  0.10713000  0.51699100  1
  O  O7  1  0.89287000  0.89287000  0.48300900  1
  O  O8  1  0.32120000  0.32120000  0.62498300  1
  O  O9  1  0.74980300  0.74980300  0.76972000  1
  O  O10  1  0.17764800  0.17764800  0.91319800  1
  O  O11  1  0.60594500  0.60594500  0.06902000  1
  O  O12  1  0.46023800  0.46023800  0.35528800  1
  O  O13  1  0.03836800  0.03836800  0.18753200  1
loop_
_geom_bond_atom_site_label_1
_geom_bond_atom_site_label_2
_geom_bond_distance
_geom_bond_site_symmetry_2
Li0 O0 2.010498 1_554
Li0 O7 2.059709 1_555
Li0 O12 2.116813 1_565
Li0 O12 2.116813 1_655
Li0 O1 2.180034 1_564
Li0 O1 2.180034 1_654
Li1 O8 2.079626 1_555
Li1 O2 2.150729 1_545
Li1 O2 2.150729 1_455
Li1 O7 2.153420 1_455
Li1 O7 2.153420 1_545
Li1 O1 2.164101 1_554
Li2 O9 2.087516 1_555
Li2 O2 2.104534 1_555
Li2 O8 2.152756 1_655
Li2 O8 2.152756 1_565
Li2 O3 2.156600 1_655
Li2 O3 2.156600 1_565
Li3 O3 2.087516 1_555
Li3 O10 2.104534 1_555
Li3 O4 2.152756 1_455
Li3 O4 2.152756 1_545
Li3 O9 2.156600 1_455
Li3 O9 2.156600 1_545
Li4 O4 2.079626 1_555
Li4 O10 2.150729 1_565
Li4 O10 2.150729 1_655
Li4 O6 2.153420 1_655
Li4 O6 2.153420 1_565
Li4 O11 2.164101 1_556
Li5 O0 2.186355 1_544
Li5 O0 2.186355 1_454
Li5 O13 2.186355 1_655
Li5 O13 2.186355 1_565
Li5 O5 2.219808 1_554
Li5 O12 2.219808 1_555
Li6 O13 2.010498 1_556
Li6 O6 2.059709 1_555
Li6 O5 2.116813 1_545
Li6 O5 2.116813 1_455
Li6 O11 2.180034 1_546
Li6 O11 2.180034 1_456
Li7 O0 2.020974 1_445
Li7 O13 2.020974 1_555
Li7 O5 2.129923 1_545
Li7 O5 2.129923 1_455
Li7 O12 2.129923 1_455
Li7 O12 2.129923 1_545
Co0 O12 1.729882 1_555
Co0 O1 1.909976 1_555
Co0 O0 1.993184 1_545
Co0 O0 1.993184 1_455
Co0 O7 2.140301 1_545
Co0 O7 2.140301 1_455
Co1 O5 1.729882 1_555
Co1 O11 1.909976 1_555
Co1 O13 1.993184 1_565
Co1 O13 1.993184 1_655
Co1 O6 2.140301 1_565
Co1 O6 2.140301 1_655
Co2 O7 1.888368 1_555
Co2 O2 1.942672 1_556
Co2 O1 2.068923 1_655
Co2 O1 2.068923 1_565
Co2 O8 2.087619 1_565
Co2 O8 2.087619 1_655
Co3 O8 1.921678 1_555
Co3 O3 1.925256 1_556
Co3 O2 2.083232 1_546
Co3 O2 2.083232 1_456
Co3 O9 2.088581 1_545
Co3 O9 2.088581 1_455
Co4 O4 1.921678 1_555
Co4 O9 1.925256 1_554
Co4 O10 2.083232 1_564
Co4 O10 2.083232 1_654
Co4 O3 2.088581 1_565
Co4 O3 2.088581 1_655
Co5 O6 1.888368 1_555
Co5 O10 1.942672 1_554
Co5 O11 2.068923 1_455
Co5 O11 2.068923 1_545
Co5 O4 2.087619 1_545
Co5 O4 2.087619 1_455
