# generated using pymatgen
data_LiAg4(RuO3)4
_symmetry_space_group_name_H-M   'P 1'
_cell_length_a   7.24415449
_cell_length_b   7.28663780
_cell_length_c   7.29101700
_cell_angle_alpha   60.01986667
_cell_angle_beta   90.00655376
_cell_angle_gamma   120.19418632
_symmetry_Int_Tables_number   1
_chemical_formula_structural   LiAg4(RuO3)4
_chemical_formula_sum   'Li1 Ag4 Ru4 O12'
_cell_volume   271.43337496
_cell_formula_units_Z   1
loop_
 _symmetry_equiv_pos_site_id
 _symmetry_equiv_pos_as_xyz
  1  'x, y, z'
loop_
 _atom_site_type_symbol
 _atom_site_label
 _atom_site_symmetry_multiplicity
 _atom_site_fract_x
 _atom_site_fract_y
 _atom_site_fract_z
 _atom_site_occupancy
  Li  Li0  1  0.22042400  0.98091200  0.75859900  1
  Ag  Ag0  1  0.44272900  0.46201800  0.01869200  1
  Ag  Ag1  1  0.03215100  0.05989100  0.02405900  1
  Ag  Ag2  1  0.03215100  0.44820100  0.02405900  1
  Ag  Ag3  1  0.03338200  0.06013800  0.41310600  1
  Ru  Ru0  1  0.50382900  0.99904900  0.00573100  1
  Ru  Ru1  1  0.50449100  0.99954600  0.49487800  1
  Ru  Ru2  1  0.50449100  0.51006700  0.49487800  1
  Ru  Ru3  1  0.00080700  0.50062500  0.49955600  1
  O  O0  1  0.81679200  0.25065100  0.43505500  1
  O  O1  1  0.56870100  0.13604300  0.18181400  1
  O  O2  1  0.56870100  0.75084400  0.18181400  1
  O  O3  1  0.81851900  0.25121400  0.81609100  1
  O  O4  1  0.81679200  0.63108600  0.43505500  1
  O  O5  1  0.41487900  0.23894000  0.43699900  1
  O  O6  1  0.56688900  0.74942100  0.56804600  1
  O  O7  1  0.17726300  0.75074600  0.17577200  1
  O  O8  1  0.17644900  0.35134100  0.57385700  1
  O  O9  1  0.41390800  0.23754100  0.82367000  1
  O  O10  1  0.41390800  0.85269600  0.82367000  1
  O  O11  1  0.17644900  0.75125100  0.57385700  1
loop_
_geom_bond_atom_site_label_1
_geom_bond_atom_site_label_2
_geom_bond_distance
_geom_bond_site_symmetry_2
Li0 O9 1.984070 1_565
Li0 O10 1.984070 1_555
Li0 O5 1.986996 1_565
Li0 O11 2.536263 1_555
Li0 O8 2.536269 1_565
Ag0 O5 2.588515 1_555
Ag0 O9 2.592623 1_554
Ag0 O10 2.592623 1_554
Ag0 O6 2.686929 1_554
Ag0 O1 2.691821 1_555
Ag0 O2 2.691827 1_555
Ag1 O9 2.442999 1_554
Ag1 O3 2.587410 1_454
Ag1 O4 2.629969 1_445
Ag1 O8 2.679227 1_554
Ag1 O7 2.700799 1_545
Ag1 O2 2.733707 1_445
Ag2 O10 2.442996 1_554
Ag2 O3 2.587410 1_454
Ag2 O0 2.629969 1_455
Ag2 O11 2.679227 1_554
Ag2 O7 2.700805 1_555
Ag2 O1 2.733707 1_455
Ag3 O5 2.443439 1_555
Ag3 O4 2.612940 1_445
Ag3 O0 2.612940 1_455
Ag3 O8 2.687631 1_555
Ag3 O11 2.687631 1_545
Ag3 O6 2.751539 1_445
O0 Ru1 1.922303 1_545
O0 Ru3 1.931194 1_655
O1 Ru0 1.916842 1_545
O1 Ru1 1.918769 1_545
O2 Ru0 1.916842 1_555
O2 Ru2 1.918769 1_555
O3 Ru0 1.932146 1_546
O3 Ru3 1.941099 1_655
O4 Ru2 1.922303 1_555
O4 Ru3 1.931200 1_655
O5 Ru2 2.011375 1_555
O5 Ru1 2.011375 1_545
O6 Ru2 1.915088 1_555
O6 Ru1 1.915095 1_555
O7 Ru0 1.964856 1_555
O7 Ru3 1.971299 1_555
O8 Ru2 1.971444 1_555
O8 Ru3 1.974531 1_555
O9 Ru0 2.009817 1_546
O9 Ru2 2.013152 1_555
O10 Ru0 2.009822 1_556
O10 Ru1 2.013151 1_555
O11 Ru1 1.971444 1_555
O11 Ru3 1.974537 1_555
