# generated using pymatgen
data_Ti5MnS10
_symmetry_space_group_name_H-M   'P 1'
_cell_length_a   3.43470762
_cell_length_b   3.43470803
_cell_length_c   29.96033700
_cell_angle_alpha   89.99979632
_cell_angle_beta   89.99979659
_cell_angle_gamma   59.98386814
_symmetry_Int_Tables_number   1
_chemical_formula_structural   Ti5MnS10
_chemical_formula_sum   'Ti5 Mn1 S10'
_cell_volume   306.04571698
_cell_formula_units_Z   1
loop_
 _symmetry_equiv_pos_site_id
 _symmetry_equiv_pos_as_xyz
  1  'x, y, z'
loop_
 _atom_site_type_symbol
 _atom_site_label
 _atom_site_symmetry_multiplicity
 _atom_site_fract_x
 _atom_site_fract_y
 _atom_site_fract_z
 _atom_site_occupancy
  Ti  Ti0  1  0.00001800  0.00001800  0.99814000  1
  Ti  Ti1  1  0.99998200  0.99998200  0.20186000  1
  Ti  Ti2  1  0.99996400  0.99996400  0.40017400  1
  Ti  Ti3  1  0.00000000  0.00000000  0.60000000  1
  Ti  Ti4  1  0.00003600  0.00003600  0.79982600  1
  Mn  Mn0  1  0.00000000  0.00000000  0.10000000  1
  S  S0  1  0.66669200  0.66669200  0.05024700  1
  S  S1  1  0.66668300  0.66668300  0.24769800  1
  S  S2  1  0.66673900  0.66673900  0.44724000  1
  S  S3  1  0.66679800  0.66679800  0.64716000  1
  S  S4  1  0.66665800  0.66665800  0.84711300  1
  S  S5  1  0.33330800  0.33330800  0.14975300  1
  S  S6  1  0.33334200  0.33334200  0.35288700  1
  S  S7  1  0.33320200  0.33320200  0.55284000  1
  S  S8  1  0.33326100  0.33326100  0.75276000  1
  S  S9  1  0.33331700  0.33331700  0.95230200  1
loop_
_geom_bond_atom_site_label_1
_geom_bond_atom_site_label_2
_geom_bond_distance
_geom_bond_site_symmetry_2
Mn0 S0 2.480595 1_545
Mn0 S5 2.480595 1_455
Mn0 S5 2.480595 1_545
Mn0 S0 2.480595 1_455
Mn0 S5 2.480808 1_555
Mn0 S0 2.480808 1_445
S0 Ti0 2.523568 1_564
S0 Ti0 2.523568 1_654
S0 Ti0 2.523889 1_664
S1 Ti1 2.411961 1_455
S1 Ti1 2.411961 1_545
S1 Ti1 2.412100 1_555
S2 Ti2 2.432876 1_555
S2 Ti2 2.433277 1_455
S2 Ti2 2.433277 1_545
S3 Ti3 2.434398 1_665
S3 Ti3 2.434966 1_565
S3 Ti3 2.434966 1_655
S4 Ti4 2.436750 1_565
S4 Ti4 2.436750 1_655
S4 Ti4 2.437460 1_665
S5 Ti1 2.523568 1_545
S5 Ti1 2.523568 1_455
S5 Ti1 2.523889 1_445
S6 Ti2 2.436750 1_545
S6 Ti2 2.436750 1_455
S6 Ti2 2.437460 1_445
S7 Ti3 2.434398 1_555
S7 Ti3 2.434966 1_655
S7 Ti3 2.434966 1_565
S8 Ti4 2.432876 1_555
S8 Ti4 2.433277 1_655
S8 Ti4 2.433277 1_565
S9 Ti0 2.411961 1_655
S9 Ti0 2.411961 1_565
S9 Ti0 2.412100 1_555
