# generated using pymatgen
data_Li5Ca9B7O21F2
_symmetry_space_group_name_H-M   'P 1'
_cell_length_a   3.60982500
_cell_length_b   12.96559164
_cell_length_c   12.96627602
_cell_angle_alpha   60.13107829
_cell_angle_beta   88.45754454
_cell_angle_gamma   88.46534514
_symmetry_Int_Tables_number   1
_chemical_formula_structural   Li5Ca9B7O21F2
_chemical_formula_sum   'Li5 Ca9 B7 O21 F2'
_cell_volume   526.00199802
_cell_formula_units_Z   1
loop_
 _symmetry_equiv_pos_site_id
 _symmetry_equiv_pos_as_xyz
  1  'x, y, z'
loop_
 _atom_site_type_symbol
 _atom_site_label
 _atom_site_symmetry_multiplicity
 _atom_site_fract_x
 _atom_site_fract_y
 _atom_site_fract_z
 _atom_site_occupancy
  Li  Li0  1  0.03038700  0.90747700  0.04583500  1
  Li  Li1  1  0.10043100  0.06268900  0.36644800  1
  Li  Li2  1  0.04590300  0.38633500  0.89194500  1
  Li  Li3  1  0.56272200  0.47366600  0.41489600  1
  Li  Li4  1  0.05946200  0.80922600  0.75325500  1
  Ca  Ca0  1  0.05464500  0.24031900  0.61363000  1
  Ca  Ca1  1  0.08371100  0.48619100  0.21632300  1
  Ca  Ca2  1  0.57291900  0.00780700  0.58756200  1
  Ca  Ca3  1  0.55743600  0.74619300  0.98324100  1
  Ca  Ca4  1  0.04068600  0.63682100  0.47153000  1
  Ca  Ca5  1  0.54579700  0.61037100  0.73085800  1
  Ca  Ca6  1  0.62961500  0.27341000  0.15848100  1
  Ca  Ca7  1  0.53509600  0.18178900  0.88611900  1
  Ca  Ca8  1  0.51200100  0.90731800  0.25502900  1
  B  B0  1  0.05184300  0.99787400  0.81528500  1
  B  B1  1  0.04811800  0.83434700  0.51153300  1
  B  B2  1  0.07684300  0.52794600  0.97913600  1
  B  B3  1  0.54849200  0.70664900  0.22237200  1
  B  B4  1  0.05821800  0.11677100  0.10270800  1
  B  B5  1  0.53946100  0.41283900  0.68908700  1
  B  B6  1  0.58988400  0.23949300  0.39216600  1
  O  O0  1  0.61393100  0.14111600  0.37563300  1
  O  O1  1  0.53269100  0.39651600  0.80380200  1
  O  O2  1  0.53150400  0.81961500  0.12322200  1
  O  O3  1  0.54463200  0.69376800  0.33555600  1
  O  O4  1  0.54115900  0.31231400  0.67643200  1
  O  O5  1  0.56349400  0.22184400  0.50651700  1
  O  O6  1  0.56866300  0.60691400  0.20894700  1
  O  O7  1  0.59216200  0.35241300  0.29268400  1
  O  O8  1  0.54564600  0.52677700  0.59237800  1
  O  O9  1  0.12115000  0.41032300  0.07225400  1
  O  O10  1  0.04648100  0.71663300  0.60251200  1
  O  O11  1  0.04715300  0.09196600  0.83890200  1
  O  O12  1  0.05992700  0.02364500  0.69716300  1
  O  O13  1  0.08936200  0.92504800  0.53760100  1
  O  O14  1  0.01091000  0.85915200  0.39438100  1
  O  O15  1  0.04808400  0.88085500  0.90605800  1
  O  O16  1  0.07104500  0.61831700  0.00770400  1
  O  O17  1  0.00474900  0.00467600  0.11865800  1
  O  O18  1  0.98623100  0.21685900  0.99408400  1
  O  O19  1  0.18533800  0.12872600  0.19627100  1
  O  O20  1  0.03659500  0.55228000  0.86391000  1
  F  F0  1  0.06276300  0.45425000  0.43404300  1
  F  F1  1  0.55916000  0.78874300  0.76806900  1
loop_
_geom_bond_atom_site_label_1
_geom_bond_atom_site_label_2
_geom_bond_distance
_geom_bond_site_symmetry_2
Li0 O17 1.913812 1_565
Li0 O15 2.005906 1_554
Li0 O2 2.102812 1_455
Li0 O2 2.103726 1_555
Li0 O11 2.555583 1_564
Li1 O19 1.947257 1_555
Li1 O0 2.036185 1_455
Li1 O13 2.040992 1_545
Li1 O0 2.172013 1_555
Li1 O14 2.507424 1_545
Li2 O18 1.933946 1_455
Li2 O20 1.995072 1_555
Li2 O1 2.040950 1_555
Li2 O1 2.169420 1_455
Li2 O9 2.529710 1_556
Li3 O6 2.349449 1_555
Li3 O3 2.505190 1_555
Li4 O13 2.428093 1_555
Li4 O12 2.498801 1_565
Li4 O15 2.572161 1_555
Ca0 O5 2.351765 1_555
Ca0 O4 2.353868 1_555
Ca0 O4 2.356571 1_455
Ca0 O5 2.369895 1_455
Ca0 O12 2.456260 1_555
Ca0 O11 2.575818 1_555
Ca0 F0 2.585380 1_555
Ca1 O7 2.344587 1_455
Ca1 O6 2.347842 1_555
Ca1 O7 2.361012 1_555
Ca1 O6 2.370755 1_455
Ca1 O16 2.375030 1_555
Ca1 O9 2.506988 1_555
Ca1 F0 2.640524 1_555
Ca2 O13 2.339134 1_545
Ca2 O13 2.359389 1_645
Ca2 O12 2.365768 1_655
Ca2 O12 2.370563 1_555
Ca2 O0 2.412787 1_555
Ca2 O5 2.428768 1_555
Ca2 F1 2.632040 1_545
Ca3 O15 2.348781 1_655
Ca3 O16 2.352541 1_556
Ca3 O15 2.370105 1_555
Ca3 O16 2.372801 1_656
Ca3 O2 2.432365 1_556
Ca3 F1 2.560184 1_555
Ca3 O6 2.562420 1_556
Ca4 O8 2.333116 1_455
Ca4 O3 2.359153 1_555
Ca4 O8 2.366714 1_555
Ca4 O3 2.379628 1_455
Ca4 O10 2.389399 1_555
Ca4 O14 2.537502 1_555
Ca4 F0 2.641932 1_555
Ca5 O20 2.341219 1_655
Ca5 O20 2.351912 1_555
Ca5 O10 2.371080 1_655
Ca5 O10 2.379329 1_555
Ca5 O1 2.444890 1_555
Ca5 O8 2.517396 1_555
Ca5 F1 2.588890 1_555
Ca6 O19 2.352551 1_555
Ca6 O9 2.373736 1_655
Ca6 O9 2.393591 1_555
Ca6 O7 2.418840 1_555
Ca6 O0 2.461589 1_555
Ca6 O19 2.592150 1_655
Ca6 O18 2.845531 1_554
Ca7 O18 2.369593 1_555
Ca7 O4 2.381696 1_555
Ca7 O11 2.383653 1_655
Ca7 O11 2.389924 1_555
Ca7 O1 2.435105 1_555
Ca7 O18 2.555094 1_455
Ca8 O17 2.368898 1_665
Ca8 O14 2.384822 1_555
Ca8 O3 2.424865 1_555
Ca8 O14 2.426795 1_655
Ca8 O17 2.429040 1_565
Ca8 O2 2.478661 1_555
Ca8 O19 2.810768 1_565
B0 O15 1.381672 1_555
B0 O12 1.395237 1_565
B0 O11 1.397524 1_565
B1 O13 1.388299 1_555
B1 O10 1.388462 1_555
B1 O14 1.396776 1_555
B2 O20 1.375705 1_555
B2 O16 1.393247 1_556
B2 O9 1.404442 1_556
B3 O2 1.387701 1_555
B3 O6 1.387894 1_555
B3 O3 1.391675 1_555
B4 O17 1.380516 1_555
B4 O18 1.384350 1_454
B4 O19 1.388324 1_555
B5 O8 1.382176 1_555
B5 O4 1.392215 1_555
B5 O1 1.393771 1_555
B6 O5 1.384008 1_555
B6 O7 1.387980 1_555
B6 O0 1.394937 1_555
F0 Li3 1.822127 1_555
F0 Li3 1.822303 1_455
F1 Li4 1.817521 1_555
F1 Li4 1.823534 1_655
