# generated using pymatgen
data_ZrSiW4
_symmetry_space_group_name_H-M   'P 1'
_cell_length_a   5.33331188
_cell_length_b   5.33331188
_cell_length_c   5.33331188
_cell_angle_alpha   60.00000000
_cell_angle_beta   60.00000000
_cell_angle_gamma   60.00000000
_symmetry_Int_Tables_number   1
_chemical_formula_structural   ZrSiW4
_chemical_formula_sum   'Zr1 Si1 W4'
_cell_volume   107.26942343
_cell_formula_units_Z   1
loop_
 _symmetry_equiv_pos_site_id
 _symmetry_equiv_pos_as_xyz
  1  'x, y, z'
loop_
 _atom_site_type_symbol
 _atom_site_label
 _atom_site_symmetry_multiplicity
 _atom_site_fract_x
 _atom_site_fract_y
 _atom_site_fract_z
 _atom_site_occupancy
  Zr  Zr0  1  0.75000000  0.75000000  0.75000000  1
  Si  Si0  1  0.00000000  0.00000000  0.00000000  1
  W  W0  1  0.37439100  0.37439100  0.37439100  1
  W  W1  1  0.37439100  0.87682600  0.37439100  1
  W  W2  1  0.87682600  0.37439100  0.37439100  1
  W  W3  1  0.37439100  0.37439100  0.87682600  1
loop_
_geom_bond_atom_site_label_1
_geom_bond_atom_site_label_2
_geom_bond_distance
_geom_bond_site_symmetry_2
Si0 W1 3.125554 1_545
Si0 W2 3.125554 1_455
Si0 W3 3.125554 1_554
Si0 W0 3.125556 1_545
Si0 W0 3.125556 1_554
Si0 W0 3.125556 1_455
Si0 W2 3.125558 1_454
Si0 W1 3.125558 1_445
Si0 W1 3.125558 1_544
Si0 W2 3.125558 1_445
Si0 W3 3.125558 1_544
Si0 W3 3.125558 1_454
Si0 Zr0 3.265973 1_454
Si0 Zr0 3.265973 1_544
Si0 Zr0 3.265973 1_445
Si0 Zr0 3.265973 1_444
W0 W1 2.653669 1_545
W0 W3 2.653669 1_554
W0 W2 2.653669 1_455
W0 W3 2.679643 1_555
W0 W2 2.679643 1_555
W0 W1 2.679643 1_555
W0 Zr0 3.128326 1_545
W0 Zr0 3.128326 1_554
W0 Zr0 3.128326 1_455
W1 W2 2.653669 1_465
W1 W3 2.653669 1_564
W1 W3 2.679643 1_555
W1 W2 2.679643 1_555
W1 Zr0 3.128324 1_554
W1 Zr0 3.128324 1_455
W1 Zr0 3.128328 1_555
W2 W3 2.653669 1_654
W2 W3 2.679643 1_555
W2 Zr0 3.128324 1_545
W2 Zr0 3.128324 1_554
W2 Zr0 3.128328 1_555
W3 Zr0 3.128324 1_545
W3 Zr0 3.128324 1_455
W3 Zr0 3.128328 1_555
