# generated using pymatgen
data_YBiO12
_symmetry_space_group_name_H-M   'P 1'
_cell_length_a   7.75702079
_cell_length_b   7.75702079
_cell_length_c   7.75702079
_cell_angle_alpha   60.00000000
_cell_angle_beta   60.00000000
_cell_angle_gamma   60.00000000
_symmetry_Int_Tables_number   1
_chemical_formula_structural   YBiO12
_chemical_formula_sum   'Y2 Bi2 O24'
_cell_volume   330.04249978
_cell_formula_units_Z   2
loop_
 _symmetry_equiv_pos_site_id
 _symmetry_equiv_pos_as_xyz
  1  'x, y, z'
loop_
 _atom_site_type_symbol
 _atom_site_label
 _atom_site_symmetry_multiplicity
 _atom_site_fract_x
 _atom_site_fract_y
 _atom_site_fract_z
 _atom_site_occupancy
  Y  Y0  1  0.00000000  0.00000000  0.00000000  1
  Y  Y1  1  0.25000000  0.25000000  0.25000000  1
  Bi  Bi0  1  0.50000000  0.50000000  0.50000000  1
  Bi  Bi1  1  0.75000000  0.75000000  0.75000000  1
  O  O0  1  0.91360900  0.25824200  0.25824200  1
  O  O1  1  0.25824200  0.91360900  0.56990700  1
  O  O2  1  0.25824200  0.56990700  0.91360900  1
  O  O3  1  0.25824200  0.91360900  0.25824200  1
  O  O4  1  0.33639100  0.99175800  0.68009300  1
  O  O5  1  0.33639100  0.99175800  0.99175800  1
  O  O6  1  0.56990700  0.25824200  0.25824200  1
  O  O7  1  0.56990700  0.25824200  0.91360900  1
  O  O8  1  0.99175800  0.33639100  0.99175800  1
  O  O9  1  0.99175800  0.33639100  0.68009300  1
  O  O10  1  0.91360900  0.25824200  0.56990700  1
  O  O11  1  0.99175800  0.68009300  0.99175800  1
  O  O12  1  0.99175800  0.68009300  0.33639100  1
  O  O13  1  0.25824200  0.56990700  0.25824200  1
  O  O14  1  0.68009300  0.99175800  0.33639100  1
  O  O15  1  0.68009300  0.99175800  0.99175800  1
  O  O16  1  0.25824200  0.25824200  0.91360900  1
  O  O17  1  0.56990700  0.91360900  0.25824200  1
  O  O18  1  0.25824200  0.25824200  0.56990700  1
  O  O19  1  0.91360900  0.56990700  0.25824200  1
  O  O20  1  0.68009300  0.33639100  0.99175800  1
  O  O21  1  0.99175800  0.99175800  0.33639100  1
  O  O22  1  0.33639100  0.68009300  0.99175800  1
  O  O23  1  0.99175800  0.99175800  0.68009300  1
loop_
_geom_bond_atom_site_label_1
_geom_bond_atom_site_label_2
_geom_bond_distance
_geom_bond_site_symmetry_2
O0 O8 1.693885 1_554
O0 O21 1.693885 1_545
O0 Y1 2.547064 1_655
O1 O4 1.693885 1_555
O1 O23 1.693885 1_455
O1 Y1 2.547064 1_565
O2 O22 1.693885 1_555
O2 Y1 2.547064 1_556
O3 O5 1.693885 1_554
O3 Y1 2.547064 1_565
O4 Y0 2.547064 1_566
O5 Y0 2.547064 1_566
O6 Y1 2.547064 1_555
O7 Y1 2.547064 1_556
O8 Y0 2.547064 1_656
O9 Y0 2.547064 1_656
O10 O9 1.693885 1_555
O10 O23 1.693885 1_545
O10 Y1 2.547064 1_655
O11 O2 1.693885 1_655
O11 O19 1.693885 1_556
O11 Y0 2.547064 1_666
O12 O19 1.693885 1_555
O12 O13 1.693885 1_655
O12 Y0 2.547064 1_665
O13 O22 1.693885 1_554
O13 Y1 2.547064 1_555
O14 O17 1.693885 1_555
O14 O6 1.693885 1_565
O14 Y0 2.547064 1_665
O15 O7 1.693885 1_565
O15 O17 1.693885 1_556
O15 Y0 2.547064 1_666
O16 O8 1.693885 1_455
O16 O5 1.693885 1_545
O16 Y1 2.547064 1_556
O17 Y1 2.547064 1_565
O18 O4 1.693885 1_545
O18 O9 1.693885 1_455
O18 Y1 2.547064 1_555
O19 Y1 2.547064 1_655
O20 O7 1.693885 1_555
O20 O6 1.693885 1_556
O20 Y0 2.547064 1_656
O21 O3 1.693885 1_655
O21 Y0 2.547064 1_665
O22 Y0 2.547064 1_566
O23 Y0 2.547064 1_666
