# generated using pymatgen
data_Ce(Ge2Rh3)2
_symmetry_space_group_name_H-M   'P 1'
_cell_length_a   7.16848710
_cell_length_b   7.16848710
_cell_length_c   3.83843391
_cell_angle_alpha   90.00000000
_cell_angle_beta   90.00000000
_cell_angle_gamma   119.99999960
_symmetry_Int_Tables_number   1
_chemical_formula_structural   Ce(Ge2Rh3)2
_chemical_formula_sum   'Ce1 Ge4 Rh6'
_cell_volume   170.82039292
_cell_formula_units_Z   1
loop_
 _symmetry_equiv_pos_site_id
 _symmetry_equiv_pos_as_xyz
  1  'x, y, z'
loop_
 _atom_site_type_symbol
 _atom_site_label
 _atom_site_symmetry_multiplicity
 _atom_site_fract_x
 _atom_site_fract_y
 _atom_site_fract_z
 _atom_site_occupancy
  Ce  Ce0  1  0.00000000  -0.00000000  0.00000000  1
  Ge  Ge0  1  0.66666700  0.33333300  0.00000000  1
  Ge  Ge1  1  0.19835318  0.80164682  0.50000000  1
  Ge  Ge2  1  0.19835318  0.39670736  0.50000000  1
  Ge  Ge3  1  0.60329264  0.80164682  0.50000000  1
  Rh  Rh0  1  0.46693510  0.53306490  0.00000000  1
  Rh  Rh1  1  0.46693510  0.93386820  0.00000000  1
  Rh  Rh2  1  0.06613180  0.53306490  -0.00000000  1
  Rh  Rh3  1  0.80111508  0.19888492  0.50000000  1
  Rh  Rh4  1  0.80111508  0.60223016  0.50000000  1
  Rh  Rh5  1  0.39776984  0.19888492  0.50000000  1
loop_
_geom_bond_atom_site_label_1
_geom_bond_atom_site_label_2
_geom_bond_distance
_geom_bond_site_symmetry_2
Ce0 Ge1 3.122295 1_544
Ce0 Ge1 3.122295 1_545
Ce0 Ge3 3.122300 1_444
Ce0 Ge3 3.122300 1_445
Ce0 Ge2 3.122300 1_554
Ce0 Ge2 3.122300 1_555
Ce0 Rh3 3.127505 1_455
Ce0 Rh3 3.127505 1_454
Ce0 Rh5 3.127505 1_555
Ce0 Rh4 3.127505 1_444
Ce0 Rh5 3.127505 1_554
Ce0 Rh4 3.127505 1_445
Ge0 Rh0 2.479908 1_555
Ge0 Rh2 2.479914 1_655
Ge0 Rh1 2.479914 1_545
Ge0 Rh3 2.543632 1_554
Ge0 Rh3 2.543632 1_555
Ge0 Rh4 2.543636 1_554
Ge0 Rh4 2.543636 1_555
Ge0 Rh5 2.543636 1_555
Ge0 Rh5 2.543636 1_554
Ge1 Rh4 2.466097 1_455
Ge1 Rh5 2.466097 1_565
Ge1 Rh1 2.542395 1_556
Ge1 Rh1 2.542395 1_555
Ge1 Rh2 2.542395 1_555
Ge1 Rh2 2.542395 1_556
Ge2 Rh3 2.466097 1_455
Ge2 Rh5 2.466103 1_555
Ge2 Rh2 2.542383 1_555
Ge2 Rh2 2.542383 1_556
Ge2 Rh0 2.542395 1_556
Ge2 Rh0 2.542395 1_555
Ge3 Rh3 2.466097 1_565
Ge3 Rh4 2.466103 1_555
Ge3 Rh1 2.542383 1_555
Ge3 Rh1 2.542383 1_556
Ge3 Rh0 2.542395 1_556
Ge3 Rh0 2.542395 1_555
