# generated using pymatgen
data_NaPr(SeO5)2
_symmetry_space_group_name_H-M   'P 1'
_cell_length_a   7.23947000
_cell_length_b   11.24505100
_cell_length_c   11.39193856
_cell_angle_alpha   69.15477143
_cell_angle_beta   90.00000000
_cell_angle_gamma   90.00000000
_symmetry_Int_Tables_number   1
_chemical_formula_structural   NaPr(SeO5)2
_chemical_formula_sum   'Na4 Pr4 Se8 O40'
_cell_volume   866.69459118
_cell_formula_units_Z   4
loop_
 _symmetry_equiv_pos_site_id
 _symmetry_equiv_pos_as_xyz
  1  'x, y, z'
loop_
 _atom_site_type_symbol
 _atom_site_label
 _atom_site_symmetry_multiplicity
 _atom_site_fract_x
 _atom_site_fract_y
 _atom_site_fract_z
 _atom_site_occupancy
  Na  Na0  1  0.64356600  0.96251700  0.37136800  1
  Na  Na1  1  0.35643400  0.03748300  0.62863200  1
  Na  Na2  1  0.14356600  0.53748300  0.62863200  1
  Na  Na3  1  0.85643400  0.46251700  0.37136800  1
  Pr  Pr0  1  0.38508200  0.66606000  0.24857500  1
  Pr  Pr1  1  0.61491800  0.33394000  0.75142500  1
  Pr  Pr2  1  0.88508200  0.83394000  0.75142500  1
  Pr  Pr3  1  0.11491800  0.16606000  0.24857500  1
  Se  Se0  1  0.87233200  0.72038500  0.10627700  1
  Se  Se1  1  0.12766800  0.27961500  0.89372300  1
  Se  Se2  1  0.37233200  0.77961500  0.89372300  1
  Se  Se3  1  0.62766800  0.22038500  0.10627700  1
  Se  Se4  1  0.65315700  0.64024900  0.55259000  1
  Se  Se5  1  0.34684300  0.35975100  0.44741000  1
  Se  Se6  1  0.15315700  0.85975100  0.44741000  1
  Se  Se7  1  0.84684300  0.14024900  0.55259000  1
  O  O0  1  0.83832900  0.87699700  0.08557700  1
  O  O1  1  0.16167100  0.12300300  0.91442300  1
  O  O2  1  0.33832900  0.62300300  0.91442300  1
  O  O3  1  0.66167100  0.37699700  0.08557700  1
  O  O4  1  0.56087500  0.83783600  0.80704200  1
  O  O5  1  0.43912500  0.16216400  0.19295800  1
  O  O6  1  0.06087500  0.66216400  0.19295800  1
  O  O7  1  0.93912500  0.33783600  0.80704200  1
  O  O8  1  0.82069100  0.53171400  0.57190800  1
  O  O9  1  0.17930900  0.46828600  0.42809200  1
  O  O10  1  0.32069100  0.96828600  0.42809200  1
  O  O11  1  0.67930900  0.03171400  0.57190800  1
  O  O12  1  0.53891700  0.88164900  0.20360300  1
  O  O13  1  0.46108300  0.11835100  0.79639700  1
  O  O14  1  0.03891700  0.61835100  0.79639700  1
  O  O15  1  0.96108300  0.38164900  0.20360300  1
  O  O16  1  0.60627700  0.71525000  0.40001300  1
  O  O17  1  0.39372300  0.28475000  0.59998700  1
  O  O18  1  0.10627700  0.78475000  0.59998700  1
  O  O19  1  0.89372300  0.21525000  0.40001300  1
  O  O20  1  0.70429700  0.75297100  0.61024900  1
  O  O21  1  0.29570300  0.24702900  0.38975100  1
  O  O22  1  0.20429700  0.74702900  0.38975100  1
  O  O23  1  0.79570300  0.25297100  0.61024900  1
  O  O24  1  0.97397000  0.94878300  0.37157200  1
  O  O25  1  0.02603000  0.05121700  0.62842800  1
  O  O26  1  0.47397000  0.55121700  0.62842800  1
  O  O27  1  0.52603000  0.44878300  0.37157200  1
  O  O28  1  0.39127700  0.80023000  0.03029600  1
  O  O29  1  0.60872300  0.19977000  0.96970400  1
  O  O30  1  0.89127700  0.69977000  0.96970400  1
  O  O31  1  0.10872300  0.30023000  0.03029600  1
  O  O32  1  0.30244200  0.52217300  0.11918000  1
  O  O33  1  0.69755800  0.47782700  0.88082000  1
  O  O34  1  0.80244200  0.97782700  0.88082000  1
  O  O35  1  0.19755800  0.02217300  0.11918000  1
  O  O36  1  0.70140600  0.63161100  0.19088300  1
  O  O37  1  0.29859400  0.36838900  0.80911700  1
  O  O38  1  0.20140600  0.86838900  0.80911700  1
  O  O39  1  0.79859400  0.13161100  0.19088300  1
loop_
_geom_bond_atom_site_label_1
_geom_bond_atom_site_label_2
_geom_bond_distance
_geom_bond_site_symmetry_2
Na0 O24 2.396878 1_555
Na0 O10 2.432130 1_555
Na0 O12 2.508058 1_555
Na0 O39 2.514008 1_565
Na0 O11 2.675199 1_565
Na0 O16 2.695358 1_555
Na0 O5 2.848537 1_565
Na0 O20 2.930469 1_555
Na1 O25 2.396878 1_555
Na1 O11 2.432130 1_555
Na1 O13 2.508058 1_555
Na1 O38 2.514008 1_545
Na1 O10 2.675199 1_545
Na1 O17 2.695358 1_555
Na1 O4 2.848537 1_545
Na1 O21 2.930469 1_555
Na2 O26 2.396878 1_555
Na2 O8 2.432130 1_455
Na2 O14 2.508058 1_555
Na2 O37 2.514008 1_555
Na2 O9 2.675199 1_555
Na2 O18 2.695358 1_555
Na2 O7 2.848537 1_455
Na2 O22 2.930469 1_555
Na3 O27 2.396878 1_555
Na3 O9 2.432130 1_655
Na3 O15 2.508058 1_555
Na3 O36 2.514008 1_555
Na3 O8 2.675199 1_555
Na3 O19 2.695358 1_555
Na3 O6 2.848537 1_655
Na3 O23 2.930469 1_555
O0 Se0 1.709431 1_555
O1 Se1 1.709431 1_555
O2 Se2 1.709431 1_555
O3 Se3 1.709431 1_555
O4 Se2 1.675323 1_555
O4 Pr2 2.435554 1_555
O5 Se3 1.675323 1_555
O5 Pr3 2.435554 1_555
O6 Se0 1.675323 1_455
O6 Pr0 2.435554 1_555
O7 Se1 1.675323 1_655
O7 Pr1 2.435554 1_555
O8 Se4 1.678653 1_555
O8 Pr1 2.847912 1_555
O9 Se5 1.678653 1_555
O9 Pr0 2.847912 1_555
O10 Se6 1.678653 1_555
O10 Pr3 2.847912 1_565
O11 Se7 1.678653 1_555
O11 Pr2 2.847912 1_545
O12 Pr0 2.548746 1_555
O13 Pr1 2.548746 1_555
O14 Pr2 2.548746 1_455
O15 Pr3 2.548746 1_655
O16 Se4 1.674621 1_555
O16 Pr0 2.554526 1_555
O17 Se5 1.674621 1_555
O17 Pr1 2.554526 1_555
O18 Se6 1.674621 1_555
O18 Pr2 2.554526 1_455
O19 Se7 1.674621 1_555
O19 Pr3 2.554526 1_655
O20 Se4 1.663667 1_555
O20 Pr2 2.484071 1_555
O21 Se5 1.663667 1_555
O21 Pr3 2.484071 1_555
O22 Se6 1.663667 1_555
O22 Pr0 2.484071 1_555
O23 Se7 1.663667 1_555
O23 Pr1 2.484071 1_555
O24 Se6 1.678075 1_655
O24 Pr3 2.556893 1_665
O25 Se7 1.678075 1_455
O25 Pr2 2.556893 1_445
O26 Se4 1.678075 1_555
O26 Pr1 2.556893 1_555
O27 Se5 1.678075 1_555
O27 Pr0 2.556893 1_555
O28 Se2 1.658265 1_554
O28 Pr0 2.406571 1_555
O29 Se3 1.658265 1_556
O29 Pr1 2.406571 1_555
O30 Se0 1.658265 1_556
O30 Pr2 2.406571 1_555
O31 Se1 1.658265 1_554
O31 Pr3 2.406571 1_555
O32 Pr0 2.616520 1_555
O33 Pr1 2.616520 1_555
O34 Pr2 2.616520 1_555
O35 Pr3 2.616520 1_555
O36 Se0 1.664913 1_555
O36 Pr0 2.450996 1_555
O37 Se1 1.664913 1_555
O37 Pr1 2.450996 1_555
O38 Se2 1.664913 1_555
O38 Pr2 2.450996 1_455
O39 Se3 1.664913 1_555
O39 Pr3 2.450996 1_655
