# generated using pymatgen
data_Li6FeN4
_symmetry_space_group_name_H-M   'P 1'
_cell_length_a   6.47704500
_cell_length_b   6.47704500
_cell_length_c   4.90053300
_cell_angle_alpha   90.00000000
_cell_angle_beta   90.00000000
_cell_angle_gamma   90.00000000
_symmetry_Int_Tables_number   1
_chemical_formula_structural   Li6FeN4
_chemical_formula_sum   'Li12 Fe2 N8'
_cell_volume   205.58770894
_cell_formula_units_Z   2
loop_
 _symmetry_equiv_pos_site_id
 _symmetry_equiv_pos_as_xyz
  1  'x, y, z'
loop_
 _atom_site_type_symbol
 _atom_site_label
 _atom_site_symmetry_multiplicity
 _atom_site_fract_x
 _atom_site_fract_y
 _atom_site_fract_z
 _atom_site_occupancy
  Li  Li0  1  0.00000000  0.50000000  0.61173800  1
  Li  Li1  1  0.50000000  0.00000000  0.88826200  1
  Li  Li2  1  0.50000000  0.00000000  0.38826200  1
  Li  Li3  1  0.00000000  0.50000000  0.11173800  1
  Li  Li4  1  0.21518100  0.21518100  0.50000000  1
  Li  Li5  1  0.78481900  0.78481900  0.50000000  1
  Li  Li6  1  0.71518100  0.71518100  0.00000000  1
  Li  Li7  1  0.28481900  0.28481900  0.00000000  1
  Li  Li8  1  0.78481900  0.21518100  0.50000000  1
  Li  Li9  1  0.21518100  0.78481900  0.50000000  1
  Li  Li10  1  0.28481900  0.71518100  0.00000000  1
  Li  Li11  1  0.71518100  0.28481900  0.00000000  1
  Fe  Fe0  1  0.50000000  0.50000000  0.50000000  1
  Fe  Fe1  1  0.00000000  0.00000000  0.00000000  1
  N  N0  1  0.26550800  0.50000000  0.31460600  1
  N  N1  1  0.73449200  0.50000000  0.31460600  1
  N  N2  1  0.76550800  0.00000000  0.18539400  1
  N  N3  1  0.23449200  0.00000000  0.18539400  1
  N  N4  1  0.50000000  0.26550800  0.68539400  1
  N  N5  1  0.50000000  0.73449200  0.68539400  1
  N  N6  1  0.00000000  0.76550800  0.81460600  1
  N  N7  1  0.00000000  0.23449200  0.81460600  1
loop_
_geom_bond_atom_site_label_1
_geom_bond_atom_site_label_2
_geom_bond_distance
_geom_bond_site_symmetry_2
Li0 N6 1.986391 1_555
Li0 N7 1.986391 1_555
Li0 N1 2.253361 1_455
Li0 N0 2.253361 1_555
Li1 N5 1.986391 1_545
Li1 N4 1.986391 1_555
Li1 N3 2.253361 1_556
Li1 N2 2.253361 1_556
Li2 N3 1.986391 1_555
Li2 N2 1.986391 1_555
Li2 N5 2.253361 1_545
Li2 N4 2.253361 1_555
Li3 N1 1.986391 1_455
Li3 N0 1.986391 1_555
Li3 N6 2.253361 1_554
Li3 N7 2.253361 1_554
Li4 N4 2.082046 1_555
Li4 N0 2.082046 1_555
Li4 N3 2.082090 1_555
Li4 N7 2.082090 1_555
Li5 N1 2.082046 1_555
Li5 N5 2.082046 1_555
Li5 N2 2.082090 1_565
Li5 N6 2.082090 1_655
Li6 N2 2.082046 1_565
Li6 N6 2.082046 1_654
Li6 N1 2.082090 1_555
Li6 N5 2.082090 1_554
Li7 N7 2.082046 1_554
Li7 N3 2.082046 1_555
Li7 N0 2.082090 1_555
Li7 N4 2.082090 1_554
Li8 N4 2.082046 1_555
Li8 N1 2.082046 1_555
Li8 N7 2.082090 1_655
Li8 N2 2.082090 1_555
Li9 N5 2.082046 1_555
Li9 N0 2.082046 1_555
Li9 N3 2.082090 1_565
Li9 N6 2.082090 1_555
Li10 N6 2.082046 1_554
Li10 N3 2.082046 1_565
Li10 N0 2.082090 1_555
Li10 N5 2.082090 1_554
Li11 N2 2.082046 1_555
Li11 N7 2.082046 1_654
Li11 N4 2.082090 1_554
Li11 N1 2.082090 1_555
Fe0 N4 1.769809 1_555
Fe0 N5 1.769809 1_555
Fe0 N1 1.769809 1_555
Fe0 N0 1.769809 1_555
Fe1 N7 1.769809 1_554
Fe1 N3 1.769809 1_555
Fe1 N2 1.769809 1_455
Fe1 N6 1.769809 1_544
