# generated using pymatgen
data_Ba2ErCuNi2O7
_symmetry_space_group_name_H-M   'P 1'
_cell_length_a   3.89058900
_cell_length_b   3.95663700
_cell_length_c   11.50725400
_cell_angle_alpha   90.00000000
_cell_angle_beta   90.00000000
_cell_angle_gamma   90.00000000
_symmetry_Int_Tables_number   1
_chemical_formula_structural   Ba2ErCuNi2O7
_chemical_formula_sum   'Ba2 Er1 Cu1 Ni2 O7'
_cell_volume   177.13862200
_cell_formula_units_Z   1
loop_
 _symmetry_equiv_pos_site_id
 _symmetry_equiv_pos_as_xyz
  1  'x, y, z'
loop_
 _atom_site_type_symbol
 _atom_site_label
 _atom_site_symmetry_multiplicity
 _atom_site_fract_x
 _atom_site_fract_y
 _atom_site_fract_z
 _atom_site_occupancy
  Ba  Ba0  1  0.50000000  0.50000000  0.18223800  1
  Ba  Ba1  1  0.50000000  0.50000000  0.81776200  1
  Er  Er0  1  0.50000000  0.50000000  0.50000000  1
  Cu  Cu0  1  0.00000000  0.00000000  0.00000000  1
  Ni  Ni0  1  0.00000000  0.00000000  0.34410100  1
  Ni  Ni1  1  0.00000000  0.00000000  0.65589900  1
  O  O0  1  0.50000000  0.00000000  0.37870200  1
  O  O1  1  0.50000000  0.00000000  0.62129800  1
  O  O2  1  0.00000000  0.50000000  0.37848100  1
  O  O3  1  0.00000000  0.50000000  0.62151900  1
  O  O4  1  0.00000000  0.00000000  0.16356200  1
  O  O5  1  0.00000000  0.00000000  0.83643800  1
  O  O6  1  0.00000000  0.50000000  0.00000000  1
loop_
_geom_bond_atom_site_label_1
_geom_bond_atom_site_label_2
_geom_bond_distance
_geom_bond_site_symmetry_2
Ba0 O4 2.782822 1_555
Ba0 O4 2.782822 1_565
Ba0 O4 2.782822 1_655
Ba0 O4 2.782822 1_665
Ba0 O6 2.860389 1_555
Ba0 O6 2.860389 1_655
Ba0 O2 2.980557 1_655
Ba0 O2 2.980557 1_555
Ba0 O0 3.004128 1_555
Ba0 O0 3.004128 1_565
Ba1 O5 2.782822 1_555
Ba1 O5 2.782822 1_655
Ba1 O5 2.782822 1_565
Ba1 O5 2.782822 1_665
Ba1 O6 2.860389 1_556
Ba1 O6 2.860389 1_656
Ba1 O3 2.980557 1_555
Ba1 O3 2.980557 1_655
Ba1 O1 3.004128 1_565
Ba1 O1 3.004128 1_555
Er0 O2 2.395737 1_555
Er0 O2 2.395737 1_655
Er0 O3 2.395737 1_555
Er0 O3 2.395737 1_655
Er0 O0 2.421161 1_555
Er0 O1 2.421161 1_555
Er0 O0 2.421161 1_565
Er0 O1 2.421161 1_565
Cu0 O5 1.882149 1_554
Cu0 O4 1.882149 1_555
Cu0 O6 1.978319 1_555
Cu0 O6 1.978319 1_545
Ni0 O0 1.985624 1_555
Ni0 O0 1.985624 1_455
Ni0 O2 2.017488 1_555
Ni0 O2 2.017488 1_545
Ni0 O4 2.077508 1_555
Ni1 O1 1.985624 1_555
Ni1 O1 1.985624 1_455
Ni1 O3 2.017488 1_545
Ni1 O3 2.017488 1_555
Ni1 O5 2.077508 1_555
