# generated using pymatgen
data_Li3(NiO2)4
_symmetry_space_group_name_H-M   'P 1'
_cell_length_a   5.00630758
_cell_length_b   5.74107857
_cell_length_c   5.62685282
_cell_angle_alpha   119.34676629
_cell_angle_beta   89.99517098
_cell_angle_gamma   107.86378358
_symmetry_Int_Tables_number   1
_chemical_formula_structural   Li3(NiO2)4
_chemical_formula_sum   'Li3 Ni4 O8'
_cell_volume   131.95537637
_cell_formula_units_Z   1
loop_
 _symmetry_equiv_pos_site_id
 _symmetry_equiv_pos_as_xyz
  1  'x, y, z'
loop_
 _atom_site_type_symbol
 _atom_site_label
 _atom_site_symmetry_multiplicity
 _atom_site_fract_x
 _atom_site_fract_y
 _atom_site_fract_z
 _atom_site_occupancy
  Li  Li0  1  0.99973239  -0.00039535  0.99646244  1
  Li  Li1  1  0.99750599  0.50334278  0.00110585  1
  Li  Li2  1  0.00333650  0.49795165  0.49846467  1
  Ni  Ni0  1  0.49995950  0.99976471  0.25198894  1
  Ni  Ni1  1  0.50836030  0.50397873  0.25298186  1
  Ni  Ni2  1  0.49148121  0.49573902  0.74893746  1
  Ni  Ni3  1  0.49999590  0.00003162  0.74845398  1
  O  O0  1  0.29570277  0.74208963  0.38461729  1
  O  O1  1  0.70421238  0.25778444  0.64245029  1
  O  O2  1  0.28203288  0.74749632  0.85996677  1
  O  O3  1  0.71789279  0.25249607  0.11242012  1
  O  O4  1  0.27654599  0.28668505  0.90319657  1
  O  O5  1  0.28389883  0.27734586  0.37999257  1
  O  O6  1  0.72327716  0.71319284  0.61636250  1
  O  O7  1  0.71607041  0.72249665  0.10259769  1
loop_
_geom_bond_atom_site_label_1
_geom_bond_atom_site_label_2
_geom_bond_distance
_geom_bond_site_symmetry_2
Li0 O6 2.085849 1_545
Li0 O4 2.087749 1_655
Li0 O7 2.109352 1_546
Li0 O5 2.111761 1_656
Li0 O2 2.201661 1_645
Li0 O3 2.202865 1_556
Li1 O3 2.018173 1_555
Li1 O1 2.039115 1_554
Li1 O4 2.048511 1_654
Li1 O7 2.068201 1_555
Li1 O2 2.119073 1_654
Li1 O0 2.147113 1_655
Li2 O2 2.013582 1_555
Li2 O0 2.034343 1_555
Li2 O6 2.047468 1_455
Li2 O5 2.070016 1_555
Li2 O3 2.123930 1_455
Li2 O1 2.151293 1_455
Ni0 O0 1.986187 1_555
Ni0 O1 1.986964 1_565
Ni0 O2 2.013257 1_554
Ni0 O3 2.014428 1_565
Ni0 O7 2.038605 1_555
Ni0 O5 2.039785 1_565
Ni1 O0 1.857702 1_555
Ni1 O5 1.865668 1_555
Ni1 O4 1.866108 1_554
Ni1 O6 1.892443 1_555
Ni1 O7 1.900324 1_555
Ni1 O3 1.902672 1_555
Ni2 O1 1.857329 1_555
Ni2 O7 1.866034 1_556
Ni2 O6 1.866965 1_555
Ni2 O4 1.892188 1_555
Ni2 O5 1.900373 1_555
Ni2 O2 1.903537 1_555
Ni3 O1 1.878202 1_555
Ni3 O0 1.878763 1_545
Ni3 O3 1.898894 1_556
Ni3 O2 1.899312 1_545
Ni3 O4 2.107752 1_555
Ni3 O6 2.107901 1_545
