# generated using pymatgen
data_EuAlGe
_symmetry_space_group_name_H-M   'P 1'
_cell_length_a   8.03159015
_cell_length_b   8.03159015
_cell_length_c   8.03159015
_cell_angle_alpha   148.65413369
_cell_angle_beta   148.65413369
_cell_angle_gamma   44.92065360
_symmetry_Int_Tables_number   1
_chemical_formula_structural   EuAlGe
_chemical_formula_sum   'Eu2 Al2 Ge2'
_cell_volume   139.76560239
_cell_formula_units_Z   2
loop_
 _symmetry_equiv_pos_site_id
 _symmetry_equiv_pos_as_xyz
  1  'x, y, z'
loop_
 _atom_site_type_symbol
 _atom_site_label
 _atom_site_symmetry_multiplicity
 _atom_site_fract_x
 _atom_site_fract_y
 _atom_site_fract_z
 _atom_site_occupancy
  Eu  Eu0  1  0.58254000  0.58254000  0.00000000  1
  Eu  Eu1  1  0.33254000  0.83254000  0.50000000  1
  Al  Al0  1  0.16520828  0.16520828  0.00000000  1
  Al  Al1  1  0.91520828  0.41520828  0.50000000  1
  Ge  Ge0  1  0.99925172  0.99925172  -0.00000000  1
  Ge  Ge1  1  0.74925172  0.24925172  0.50000000  1
loop_
_geom_bond_atom_site_label_1
_geom_bond_atom_site_label_2
_geom_bond_distance
_geom_bond_site_symmetry_2
Eu0 Ge1 3.291224 1_565
Eu0 Ge1 3.291224 1_554
Eu0 Ge0 3.308148 1_545
Eu0 Ge0 3.308148 1_455
Eu0 Ge0 3.308148 1_444
Eu0 Ge0 3.308148 1_556
Eu1 Ge0 3.291224 1_556
Eu1 Ge0 3.291224 1_455
Eu1 Ge1 3.308148 1_465
Eu1 Ge1 3.308148 1_454
Eu1 Ge1 3.308148 1_566
Eu1 Ge1 3.308148 1_555
Al0 Ge0 2.463575 1_445
Al0 Ge1 2.502818 1_454
Al0 Ge1 2.502818 1_555
Al0 Eu1 3.298150 1_544
Al0 Eu1 3.298150 1_555
Al0 Eu0 3.304720 1_545
Al0 Eu0 3.304720 1_455
Al0 Eu0 3.304720 1_444
Al0 Eu0 3.304720 1_556
Al1 Ge1 2.463575 1_555
Al1 Ge0 2.502818 1_556
Al1 Ge0 2.502818 1_545
Al1 Eu0 3.298150 1_656
Al1 Eu0 3.298150 1_555
Al1 Eu1 3.304720 1_645
Al1 Eu1 3.304720 1_656
Al1 Eu1 3.304720 1_544
Al1 Eu1 3.304720 1_555
