# generated using pymatgen
data_CuGe2N3
_symmetry_space_group_name_H-M   'P 1'
_cell_length_a   5.53270473
_cell_length_b   5.53642543
_cell_length_c   5.21454700
_cell_angle_alpha   90.00000000
_cell_angle_beta   90.00000000
_cell_angle_gamma   120.02224988
_symmetry_Int_Tables_number   1
_chemical_formula_structural   CuGe2N3
_chemical_formula_sum   'Cu2 Ge4 N6'
_cell_volume   138.29827143
_cell_formula_units_Z   2
loop_
 _symmetry_equiv_pos_site_id
 _symmetry_equiv_pos_as_xyz
  1  'x, y, z'
loop_
 _atom_site_type_symbol
 _atom_site_label
 _atom_site_symmetry_multiplicity
 _atom_site_fract_x
 _atom_site_fract_y
 _atom_site_fract_z
 _atom_site_occupancy
  Cu  Cu0  1  0.00000000  0.65966100  0.50339400  1
  Cu  Cu1  1  0.00000000  0.34033900  0.00339400  1
  Ge  Ge0  1  0.32886800  0.33050300  0.49175100  1
  Ge  Ge1  1  0.67113200  0.00163300  0.49175100  1
  Ge  Ge2  1  0.67113200  0.66949700  0.99175100  1
  Ge  Ge3  1  0.32886800  0.99836700  0.99175100  1
  N  N0  1  0.36997500  0.33504900  0.85514400  1
  N  N1  1  0.63002500  0.96507500  0.85514400  1
  N  N2  1  0.63002500  0.66495100  0.35514400  1
  N  N3  1  0.36997500  0.03492500  0.35514400  1
  N  N4  1  0.00000000  0.69667500  0.89081600  1
  N  N5  1  0.00000000  0.30332500  0.39081600  1
loop_
_geom_bond_atom_site_label_1
_geom_bond_atom_site_label_2
_geom_bond_distance
_geom_bond_site_symmetry_2
Cu0 N4 2.030597 1_555
Cu0 N5 2.058317 1_555
Cu0 N3 2.201933 1_565
Cu0 N2 2.201936 1_455
Cu1 N5 2.030597 1_555
Cu1 N4 2.058317 1_554
Cu1 N1 2.201933 1_444
Cu1 N0 2.201936 1_554
Ge0 N5 1.826578 1_555
Ge0 N3 1.899880 1_555
Ge0 N2 1.903938 1_555
Ge0 N0 1.907194 1_555
Ge1 N5 1.826582 1_655
Ge1 N2 1.899865 1_545
Ge1 N3 1.903941 1_555
Ge1 N1 1.907194 1_545
Ge2 N4 1.826578 1_655
Ge2 N1 1.899880 1_555
Ge2 N0 1.903938 1_555
Ge2 N2 1.907194 1_556
Ge3 N4 1.826582 1_555
Ge3 N0 1.899865 1_565
Ge3 N1 1.903941 1_555
Ge3 N3 1.907194 1_566
