# generated using pymatgen
data_Pr4C2Br5
_symmetry_space_group_name_H-M   'P 1'
_cell_length_a   3.95162613
_cell_length_b   8.31940189
_cell_length_c   9.94823203
_cell_angle_alpha   105.91525627
_cell_angle_beta   78.54357246
_cell_angle_gamma   89.99034065
_symmetry_Int_Tables_number   1
_chemical_formula_structural   Pr4C2Br5
_chemical_formula_sum   'Pr4 C2 Br5'
_cell_volume   307.72874979
_cell_formula_units_Z   1
loop_
 _symmetry_equiv_pos_site_id
 _symmetry_equiv_pos_as_xyz
  1  'x, y, z'
loop_
 _atom_site_type_symbol
 _atom_site_label
 _atom_site_symmetry_multiplicity
 _atom_site_fract_x
 _atom_site_fract_y
 _atom_site_fract_z
 _atom_site_occupancy
  Pr  Pr0  1  0.00268434  0.20168535  0.99428871  1
  Pr  Pr1  1  0.00384011  0.79377431  0.99188595  1
  Pr  Pr2  1  0.66308354  0.88746084  0.67446140  1
  Pr  Pr3  1  0.34408662  0.10785720  0.31153811  1
  C  C0  1  0.46585794  0.02293148  0.06785703  1
  C  C1  1  0.54090768  0.97249067  0.91803930  1
  Br  Br0  1  0.16679262  0.61700964  0.66747106  1
  Br  Br1  1  0.84105216  0.37795505  0.31864724  1
  Br  Br2  1  0.50217724  0.49831475  0.99460699  1
  Br  Br3  1  0.17034270  0.16112070  0.65941776  1
  Br  Br4  1  0.83677505  0.83469902  0.32658444  1
loop_
_geom_bond_atom_site_label_1
_geom_bond_atom_site_label_2
_geom_bond_distance
_geom_bond_site_symmetry_2
C0 C1 1.402415 1_544
C0 Pr3 2.281364 1_555
C0 Pr0 2.687983 1_554
C0 Pr0 2.688583 1_654
C0 Pr1 2.700998 1_644
C0 Pr1 2.701502 1_544
C1 Pr2 2.280420 1_555
C1 Pr1 2.688637 1_655
C1 Pr1 2.689828 1_555
C1 Pr0 2.701613 1_665
C1 Pr0 2.701699 1_565
Br0 Pr2 2.980484 1_555
Br0 Pr2 2.981101 1_455
Br0 Pr1 3.092620 1_555
Br1 Pr3 2.976761 1_655
Br1 Pr3 2.979991 1_555
Br1 Pr0 3.091353 1_654
Br2 Pr1 3.158588 1_555
Br2 Pr0 3.160017 1_555
Br2 Pr1 3.160600 1_655
Br2 Pr0 3.161216 1_655
Br3 Pr2 3.048433 1_445
Br3 Pr2 3.049284 1_545
Br3 Pr0 3.187078 1_555
Br3 Pr3 3.295414 1_555
Br4 Pr3 3.045398 1_665
Br4 Pr3 3.045989 1_565
Br4 Pr1 3.184865 1_654
Br4 Pr2 3.296032 1_555
