# generated using pymatgen
data_TaTiFe4
_symmetry_space_group_name_H-M   'P 1'
_cell_length_a   4.72239431
_cell_length_b   4.72239431
_cell_length_c   7.81197400
_cell_angle_alpha   90.00166294
_cell_angle_beta   89.99833706
_cell_angle_gamma   120.01322907
_symmetry_Int_Tables_number   1
_chemical_formula_structural   TaTiFe4
_chemical_formula_sum   'Ta2 Ti2 Fe8'
_cell_volume   150.85440817
_cell_formula_units_Z   2
loop_
 _symmetry_equiv_pos_site_id
 _symmetry_equiv_pos_as_xyz
  1  'x, y, z'
loop_
 _atom_site_type_symbol
 _atom_site_label
 _atom_site_symmetry_multiplicity
 _atom_site_fract_x
 _atom_site_fract_y
 _atom_site_fract_z
 _atom_site_occupancy
  Ta  Ta0  1  0.66660900  0.33339100  0.57024700  1
  Ta  Ta1  1  0.33339100  0.66660900  0.42975300  1
  Ti  Ti0  1  0.33329000  0.66671000  0.06229500  1
  Ti  Ti1  1  0.66671000  0.33329000  0.93770500  1
  Fe  Fe0  1  0.00000000  0.00000000  0.50000000  1
  Fe  Fe1  1  0.00000000  0.00000000  0.00000000  1
  Fe  Fe2  1  0.17026700  0.34061500  0.75174500  1
  Fe  Fe3  1  0.17035500  0.82964500  0.75181600  1
  Fe  Fe4  1  0.65938500  0.82973300  0.75174500  1
  Fe  Fe5  1  0.82973300  0.65938500  0.24825500  1
  Fe  Fe6  1  0.82964500  0.17035500  0.24818400  1
  Fe  Fe7  1  0.34061500  0.17026700  0.24825500  1
loop_
_geom_bond_atom_site_label_1
_geom_bond_atom_site_label_2
_geom_bond_distance
_geom_bond_site_symmetry_2
Ta0 Ti1 2.870572 1_555
Ta0 Ta1 2.938418 1_555
Ta0 Ta1 2.939174 1_545
Ta0 Ta1 2.939174 1_655
Ta1 Ti0 2.870572 1_555
Ti0 Ti1 2.894330 1_454
Ti0 Ti1 2.894330 1_564
Ti0 Ti1 2.895799 1_554
Fe0 Fe4 2.409877 1_445
Fe0 Fe2 2.409877 1_555
Fe0 Fe5 2.409877 1_445
Fe0 Fe7 2.409877 1_555
Fe0 Fe3 2.410772 1_545
Fe0 Fe6 2.410772 1_455
Fe0 Ta0 2.780575 1_445
Fe0 Ta0 2.780575 1_555
Fe0 Ta1 2.780575 1_445
Fe0 Ta1 2.780575 1_555
Fe0 Ta1 2.781776 1_545
Fe0 Ta0 2.781776 1_455
Fe1 Fe6 2.387599 1_455
Fe1 Fe3 2.387599 1_544
Fe1 Fe5 2.387718 1_445
Fe1 Fe7 2.387718 1_555
Fe1 Fe2 2.387718 1_554
Fe1 Fe4 2.387718 1_444
Fe1 Ti0 2.769374 1_445
Fe1 Ti0 2.769374 1_555
Fe1 Ti1 2.769374 1_444
Fe1 Ti1 2.769374 1_554
Fe1 Ti0 2.769412 1_545
Fe1 Ti1 2.769412 1_454
Fe2 Fe3 2.309185 1_555
Fe2 Fe4 2.309346 1_555
Fe2 Fe4 2.412104 1_445
Fe2 Fe3 2.413210 1_545
Fe2 Ta0 2.754134 1_555
Fe2 Ta0 2.754566 1_455
Fe2 Ti0 2.768306 1_556
Fe2 Ti1 2.771993 1_455
Fe2 Ti1 2.772925 1_555
Fe2 Ta1 2.846809 1_555
Fe3 Fe4 2.309185 1_555
Fe3 Fe4 2.413210 1_455
Fe3 Ta0 2.754244 1_455
Fe3 Ta0 2.754244 1_565
Fe3 Ti0 2.767564 1_556
Fe3 Ti1 2.771764 1_455
Fe3 Ti1 2.771764 1_565
Fe3 Ta1 2.847514 1_555
Fe4 Ta0 2.754134 1_555
Fe4 Ta0 2.754566 1_565
Fe4 Ti0 2.768306 1_556
Fe4 Ti1 2.771993 1_565
Fe4 Ti1 2.772925 1_555
Fe4 Ta1 2.846809 1_555
Fe5 Fe6 2.309185 1_555
Fe5 Fe7 2.309346 1_555
Fe5 Fe7 2.412104 1_665
Fe5 Fe6 2.413210 1_565
Fe5 Ta1 2.754134 1_555
Fe5 Ta1 2.754566 1_655
Fe5 Ti1 2.768306 1_554
Fe5 Ti0 2.771993 1_655
Fe5 Ti0 2.772925 1_555
Fe5 Ta0 2.846809 1_555
Fe6 Fe7 2.309185 1_555
Fe6 Fe7 2.413210 1_655
Fe6 Ta1 2.754244 1_545
Fe6 Ta1 2.754244 1_655
Fe6 Ti1 2.767564 1_554
Fe6 Ti0 2.771764 1_545
Fe6 Ti0 2.771764 1_655
Fe6 Ta0 2.847514 1_555
Fe7 Ta1 2.754134 1_555
Fe7 Ta1 2.754566 1_545
Fe7 Ti1 2.768306 1_554
Fe7 Ti0 2.771993 1_545
Fe7 Ti0 2.772925 1_555
Fe7 Ta0 2.846809 1_555
