# generated using pymatgen
data_DyVO4
_symmetry_space_group_name_H-M   'P 1'
_cell_length_a   5.01588882
_cell_length_b   5.01588882
_cell_length_c   6.60474592
_cell_angle_alpha   112.31625791
_cell_angle_beta   112.31624882
_cell_angle_gamma   90.00000000
_symmetry_Int_Tables_number   1
_chemical_formula_structural   DyVO4
_chemical_formula_sum   'Dy2 V2 O8'
_cell_volume   140.17749667
_cell_formula_units_Z   2
loop_
 _symmetry_equiv_pos_site_id
 _symmetry_equiv_pos_as_xyz
  1  'x, y, z'
loop_
 _atom_site_type_symbol
 _atom_site_label
 _atom_site_symmetry_multiplicity
 _atom_site_fract_x
 _atom_site_fract_y
 _atom_site_fract_z
 _atom_site_occupancy
  Dy  Dy0  1  0.62500000  0.87500000  0.25000000  1
  Dy  Dy1  1  0.37500000  0.12500000  0.75000000  1
  V  V0  1  0.12500000  0.37500000  0.25000000  1
  V  V1  1  0.87500000  0.62500000  0.75000000  1
  O  O0  1  0.35287664  0.71074201  0.41206002  1
  O  O1  1  0.05918339  0.20131802  0.41206002  1
  O  O2  1  0.21074201  0.55918339  0.91206002  1
  O  O3  1  0.70131802  0.85287664  0.91206002  1
  O  O4  1  0.64712336  0.28925799  0.58793998  1
  O  O5  1  0.94081661  0.79868198  0.58793998  1
  O  O6  1  0.78925799  0.44081661  0.08793998  1
  O  O7  1  0.29868198  0.14712336  0.08793998  1
loop_
_geom_bond_atom_site_label_1
_geom_bond_atom_site_label_2
_geom_bond_distance
_geom_bond_site_symmetry_2
Dy0 O6 2.338121 1_555
Dy0 O1 2.338121 1_665
Dy0 O0 2.338121 1_555
Dy0 O7 2.338121 1_565
Dy0 O4 2.366746 1_565
Dy0 O2 2.366746 1_554
Dy0 O3 2.366746 1_554
Dy0 O5 2.366746 1_555
Dy1 O2 2.338121 1_555
Dy1 O5 2.338121 1_445
Dy1 O4 2.338121 1_555
Dy1 O3 2.338121 1_545
Dy1 O0 2.366746 1_545
Dy1 O6 2.366746 1_556
Dy1 O7 2.366746 1_556
Dy1 O1 2.366746 1_555
O0 V0 1.729193 1_555
O1 V0 1.729193 1_555
O2 V1 1.729193 1_455
O3 V1 1.729193 1_555
O4 V1 1.729193 1_555
O5 V1 1.729193 1_555
O6 V0 1.729193 1_655
O7 V0 1.729193 1_555
