# generated using pymatgen
data_Mg2S2O13
_symmetry_space_group_name_H-M   'P 1'
_cell_length_a   10.87839479
_cell_length_b   10.87839479
_cell_length_c   10.59665919
_cell_angle_alpha   86.80326472
_cell_angle_beta   86.80326472
_cell_angle_gamma   61.96086908
_symmetry_Int_Tables_number   1
_chemical_formula_structural   Mg2S2O13
_chemical_formula_sum   'Mg8 S8 O52'
_cell_volume   1104.47289224
_cell_formula_units_Z   4
loop_
 _symmetry_equiv_pos_site_id
 _symmetry_equiv_pos_as_xyz
  1  'x, y, z'
loop_
 _atom_site_type_symbol
 _atom_site_label
 _atom_site_symmetry_multiplicity
 _atom_site_fract_x
 _atom_site_fract_y
 _atom_site_fract_z
 _atom_site_occupancy
  Mg  Mg0  1  0.26944500  0.02948300  0.04967900  1
  Mg  Mg1  1  0.97051700  0.73055500  0.45032100  1
  Mg  Mg2  1  0.73055500  0.97051700  0.95032100  1
  Mg  Mg3  1  0.02948300  0.26944500  0.54967900  1
  Mg  Mg4  1  0.71927200  0.45462100  0.88807500  1
  Mg  Mg5  1  0.54537900  0.28072800  0.61192500  1
  Mg  Mg6  1  0.28072800  0.54537900  0.11192500  1
  Mg  Mg7  1  0.45462100  0.71927200  0.38807500  1
  S  S0  1  0.06544000  0.28521000  0.85660400  1
  S  S1  1  0.71479000  0.93456000  0.64339600  1
  S  S2  1  0.93456000  0.71479000  0.14339600  1
  S  S3  1  0.28521000  0.06544000  0.35660400  1
  S  S4  1  0.52830100  0.29873000  0.92943500  1
  S  S5  1  0.70127000  0.47169900  0.57056500  1
  S  S6  1  0.47169900  0.70127000  0.07056500  1
  S  S7  1  0.29873000  0.52830100  0.42943500  1
  O  O0  1  0.15581000  0.14753600  0.92176600  1
  O  O1  1  0.85246400  0.84419000  0.57823400  1
  O  O2  1  0.84419000  0.85246400  0.07823400  1
  O  O3  1  0.14753600  0.15581000  0.42176600  1
  O  O4  1  0.06688700  0.25069800  0.72157600  1
  O  O5  1  0.74930200  0.93311300  0.77842400  1
  O  O6  1  0.93311300  0.74930200  0.27842400  1
  O  O7  1  0.25069800  0.06688700  0.22157600  1
  O  O8  1  0.11767400  0.38348300  0.86903100  1
  O  O9  1  0.61651700  0.88232600  0.63096900  1
  O  O10  1  0.88232600  0.61651700  0.13096900  1
  O  O11  1  0.38348300  0.11767400  0.36903100  1
  O  O12  1  0.92021700  0.33317100  0.90920200  1
  O  O13  1  0.66682900  0.07978300  0.59079800  1
  O  O14  1  0.07978300  0.66682900  0.09079800  1
  O  O15  1  0.33317100  0.92021700  0.40920200  1
  O  O16  1  0.56858400  0.14945600  0.96250800  1
  O  O17  1  0.85054400  0.43141600  0.53749200  1
  O  O18  1  0.43141600  0.85054400  0.03749200  1
  O  O19  1  0.14945600  0.56858400  0.46250800  1
  O  O20  1  0.64682400  0.32441000  0.95667200  1
  O  O21  1  0.67559000  0.35317500  0.54332800  1
  O  O22  1  0.35317500  0.67559000  0.04332800  1
  O  O23  1  0.32441000  0.64682400  0.45667200  1
  O  O24  1  0.40315800  0.38341700  0.00784300  1
  O  O25  1  0.61658300  0.59684200  0.49215700  1
  O  O26  1  0.59684200  0.61658300  0.99215700  1
  O  O27  1  0.38341700  0.40315800  0.50784300  1
  O  O28  1  0.49831800  0.32897500  0.79318400  1
  O  O29  1  0.67102500  0.50168200  0.70681600  1
  O  O30  1  0.50168200  0.67102500  0.20681600  1
  O  O31  1  0.32897500  0.49831800  0.29318400  1
  O  O32  1  0.96028500  0.01321800  0.95638400  1
  O  O33  1  0.98678200  0.03971500  0.54361600  1
  O  O34  1  0.03971500  0.98678200  0.04361600  1
  O  O35  1  0.01321800  0.96028500  0.45638400  1
  O  O36  1  0.35001700  0.87239900  0.77622100  1
  O  O37  1  0.12760100  0.64998300  0.72377900  1
  O  O38  1  0.64998300  0.12760100  0.22377900  1
  O  O39  1  0.87239900  0.35001700  0.27622100  1
  O  O40  1  0.33727700  0.11064600  0.63858400  1
  O  O41  1  0.88935400  0.66272300  0.86141600  1
  O  O42  1  0.66272300  0.88935400  0.36141600  1
  O  O43  1  0.11064600  0.33727700  0.13858400  1
  O  O44  1  0.84038000  0.61279200  0.79007700  1
  O  O45  1  0.38720800  0.15962000  0.70992300  1
  O  O46  1  0.15962000  0.38720800  0.20992300  1
  O  O47  1  0.61279200  0.84038000  0.29007700  1
  O  O48  1  0.81001400  0.34678800  0.18432500  1
  O  O49  1  0.65321200  0.18998600  0.31567500  1
  O  O50  1  0.18998600  0.65321200  0.81567500  1
  O  O51  1  0.34678800  0.81001400  0.68432500  1
loop_
_geom_bond_atom_site_label_1
_geom_bond_atom_site_label_2
_geom_bond_distance
_geom_bond_site_symmetry_2
Mg0 O7 1.867714 1_555
Mg0 O0 1.874786 1_554
Mg0 O18 1.920550 1_545
Mg0 O34 2.752818 1_545
Mg1 O6 1.867714 1_555
Mg1 O1 1.874786 1_555
Mg1 O19 1.920550 1_655
Mg1 O35 2.752818 1_655
Mg2 O5 1.867714 1_555
Mg2 O2 1.874786 1_556
Mg2 O16 1.920550 1_565
Mg2 O32 2.752818 1_565
Mg3 O4 1.867714 1_555
Mg3 O3 1.874786 1_555
Mg3 O17 1.920550 1_455
Mg3 O33 2.752818 1_455
Mg4 O12 1.969887 1_555
Mg4 O26 1.985264 1_555
Mg4 O29 1.994229 1_555
Mg4 O20 2.006679 1_555
Mg4 O44 2.748463 1_555
Mg5 O13 1.969887 1_555
Mg5 O27 1.985264 1_555
Mg5 O28 1.994229 1_555
Mg5 O21 2.006672 1_555
Mg5 O45 2.748463 1_555
Mg6 O14 1.969887 1_555
Mg6 O24 1.985264 1_555
Mg6 O31 1.994229 1_555
Mg6 O22 2.006672 1_555
Mg6 O46 2.748463 1_555
Mg7 O15 1.969887 1_555
Mg7 O25 1.985264 1_555
Mg7 O30 1.994229 1_555
Mg7 O23 2.006679 1_555
Mg7 O47 2.748463 1_555
O0 S0 1.504134 1_555
O1 S1 1.504134 1_555
O2 S2 1.504134 1_555
O3 S3 1.504134 1_555
O4 S0 1.496784 1_555
O5 S1 1.496784 1_555
O6 S2 1.496784 1_555
O7 S3 1.496784 1_555
O8 S0 1.441610 1_555
O9 S1 1.441610 1_555
O10 S2 1.441610 1_555
O11 S3 1.441610 1_555
O12 S0 1.495972 1_655
O13 S1 1.495972 1_545
O14 S2 1.495972 1_455
O15 S3 1.495972 1_565
O16 S4 1.495470 1_555
O17 S5 1.495470 1_555
O18 S6 1.495470 1_555
O19 S7 1.495470 1_555
O20 S4 1.487570 1_555
O21 S5 1.487581 1_555
O22 S6 1.487581 1_555
O23 S7 1.487570 1_555
O24 S4 1.473926 1_554
O25 S5 1.473926 1_555
O26 S6 1.473926 1_556
O27 S7 1.473926 1_555
O28 S4 1.482518 1_555
O29 S5 1.482518 1_555
O30 S6 1.482518 1_555
O31 S7 1.482518 1_555
O32 O34 1.228654 1_646
O33 O35 1.228654 1_645
O36 O51 1.228820 1_555
O37 O50 1.228820 1_555
O38 O49 1.228820 1_555
O39 O48 1.228820 1_555
O40 O45 1.230083 1_555
O41 O44 1.230083 1_555
O42 O47 1.230083 1_555
O43 O46 1.230083 1_555
