# generated using pymatgen
data_KHfMg6
_symmetry_space_group_name_H-M   'P 1'
_cell_length_a   5.20644900
_cell_length_b   6.71612400
_cell_length_c   11.45667800
_cell_angle_alpha   90.00000000
_cell_angle_beta   90.00000000
_cell_angle_gamma   90.00000000
_symmetry_Int_Tables_number   1
_chemical_formula_structural   KHfMg6
_chemical_formula_sum   'K2 Hf2 Mg12'
_cell_volume   400.60745928
_cell_formula_units_Z   2
loop_
 _symmetry_equiv_pos_site_id
 _symmetry_equiv_pos_as_xyz
  1  'x, y, z'
loop_
 _atom_site_type_symbol
 _atom_site_label
 _atom_site_symmetry_multiplicity
 _atom_site_fract_x
 _atom_site_fract_y
 _atom_site_fract_z
 _atom_site_occupancy
  K  K0  1  0.00000000  0.50000000  0.41070500  1
  K  K1  1  0.00000000  0.00000000  0.91070500  1
  Hf  Hf0  1  0.50000000  0.50000000  0.08646900  1
  Hf  Hf1  1  0.50000000  0.00000000  0.58646900  1
  Mg  Mg0  1  0.00000000  0.25742400  0.16014200  1
  Mg  Mg1  1  0.00000000  0.74257600  0.16014200  1
  Mg  Mg2  1  0.00000000  0.50000000  0.92589300  1
  Mg  Mg3  1  0.50000000  0.26941500  0.83234100  1
  Mg  Mg4  1  0.50000000  0.73058500  0.83234100  1
  Mg  Mg5  1  0.50000000  0.50000000  0.59196600  1
  Mg  Mg6  1  0.00000000  0.75742400  0.66014200  1
  Mg  Mg7  1  0.00000000  0.24257600  0.66014200  1
  Mg  Mg8  1  0.00000000  0.00000000  0.42589300  1
  Mg  Mg9  1  0.50000000  0.76941500  0.33234100  1
  Mg  Mg10  1  0.50000000  0.23058500  0.33234100  1
  Mg  Mg11  1  0.50000000  0.00000000  0.09196600  1
loop_
_geom_bond_atom_site_label_1
_geom_bond_atom_site_label_2
_geom_bond_distance
_geom_bond_site_symmetry_2
K0 Mg9 3.294969 1_455
K0 Mg9 3.294969 1_555
K0 Mg10 3.294969 1_555
K0 Mg10 3.294969 1_455
K0 Mg1 3.300705 1_555
K0 Mg0 3.300705 1_555
K0 Mg5 3.330052 1_555
K0 Mg5 3.330052 1_455
K0 Mg6 3.340004 1_555
K0 Mg7 3.340004 1_555
K0 Mg8 3.362567 1_565
K0 Mg8 3.362567 1_555
K1 Mg3 3.294969 1_455
K1 Mg3 3.294969 1_555
K1 Mg4 3.294969 1_445
K1 Mg4 3.294969 1_545
K1 Mg7 3.300705 1_555
K1 Mg6 3.300705 1_545
K1 Mg11 3.330052 1_556
K1 Mg11 3.330052 1_456
K1 Mg0 3.340004 1_556
K1 Mg1 3.340004 1_546
K1 Mg2 3.362567 1_555
K1 Mg2 3.362567 1_545
Hf0 Mg1 3.184869 1_655
Hf0 Mg0 3.184869 1_655
Hf0 Mg1 3.184869 1_555
Hf0 Mg0 3.184869 1_555
Hf0 Mg2 3.187657 1_654
Hf0 Mg2 3.187657 1_554
Hf0 Mg4 3.297710 1_554
Hf0 Mg3 3.297710 1_554
Hf0 Mg9 3.347956 1_555
Hf0 Mg10 3.347956 1_555
Hf0 Mg11 3.358652 1_565
Hf0 Mg11 3.358652 1_555
Hf1 Mg7 3.184869 1_555
Hf1 Mg7 3.184869 1_655
Hf1 Mg6 3.184869 1_545
Hf1 Mg6 3.184869 1_645
Hf1 Mg8 3.187657 1_555
Hf1 Mg8 3.187657 1_655
Hf1 Mg10 3.297710 1_555
Hf1 Mg9 3.297710 1_545
Hf1 Mg3 3.347956 1_555
Hf1 Mg4 3.347956 1_545
Hf1 Mg5 3.358652 1_545
Hf1 Mg5 3.358652 1_555
Mg0 Mg2 3.139510 1_554
Mg0 Mg11 3.221167 1_455
Mg0 Mg11 3.221167 1_555
Mg0 Mg1 3.258341 1_555
Mg0 Mg10 3.271287 1_555
Mg0 Mg10 3.271287 1_455
Mg0 Mg1 3.457783 1_545
Mg0 Mg8 3.501257 1_555
Mg1 Mg2 3.139510 1_554
Mg1 Mg11 3.221167 1_465
Mg1 Mg11 3.221167 1_565
Mg1 Mg9 3.271287 1_555
Mg1 Mg9 3.271287 1_455
Mg1 Mg8 3.501257 1_565
Mg2 Mg4 3.213067 1_455
Mg2 Mg4 3.213067 1_555
Mg2 Mg3 3.213067 1_455
Mg2 Mg3 3.213067 1_555
Mg2 Mg6 3.501257 1_555
Mg2 Mg7 3.501257 1_555
Mg3 Mg4 3.097275 1_555
Mg3 Mg5 3.159468 1_555
Mg3 Mg7 3.271287 1_555
Mg3 Mg7 3.271287 1_655
Mg4 Mg5 3.159468 1_555
Mg4 Mg6 3.271287 1_555
Mg4 Mg6 3.271287 1_655
Mg5 Mg6 3.221167 1_555
Mg5 Mg6 3.221167 1_655
Mg5 Mg7 3.221167 1_655
Mg5 Mg7 3.221167 1_555
Mg5 Mg9 3.481567 1_555
Mg6 Mg8 3.139510 1_565
Mg6 Mg7 3.258341 1_565
Mg6 Mg7 3.457783 1_555
Mg7 Mg8 3.139510 1_555
Mg8 Mg9 3.213067 1_445
Mg8 Mg9 3.213067 1_545
Mg10 Mg9 3.097275 1_545
Mg10 Mg11 3.159468 1_555
Mg10 Mg8 3.213067 1_555
Mg10 Mg8 3.213067 1_655
Mg10 Mg5 3.481567 1_555
Mg11 Mg9 3.159468 1_545
Mg11 Mg3 3.481567 1_554
Mg11 Mg4 3.481567 1_544
