# generated using pymatgen
data_CaNiWO6
_symmetry_space_group_name_H-M   'P 1'
_cell_length_a   5.33934100
_cell_length_b   5.24234600
_cell_length_c   9.11102661
_cell_angle_alpha   55.07181109
_cell_angle_beta   90.00000000
_cell_angle_gamma   90.00000000
_symmetry_Int_Tables_number   1
_chemical_formula_structural   CaNiWO6
_chemical_formula_sum   'Ca2 Ni2 W2 O12'
_cell_volume   209.08640812
_cell_formula_units_Z   2
loop_
 _symmetry_equiv_pos_site_id
 _symmetry_equiv_pos_as_xyz
  1  'x, y, z'
loop_
 _atom_site_type_symbol
 _atom_site_label
 _atom_site_symmetry_multiplicity
 _atom_site_fract_x
 _atom_site_fract_y
 _atom_site_fract_z
 _atom_site_occupancy
  Ca  Ca0  1  0.69734100  0.76318600  0.74943200  1
  Ca  Ca1  1  0.30265900  0.76318600  0.24943200  1
  Ni  Ni0  1  0.74849800  0.00127300  0.00063100  1
  Ni  Ni1  1  0.25150200  0.00127300  0.50063100  1
  W  W0  1  0.23582600  0.50147800  0.99970100  1
  W  W1  1  0.76417400  0.50147800  0.49970100  1
  O  O0  1  0.74105300  0.67171900  0.24646900  1
  O  O1  1  0.23890600  0.32353800  0.25252900  1
  O  O2  1  0.76109400  0.32353800  0.75252900  1
  O  O3  1  0.25894700  0.67171900  0.74646900  1
  O  O4  1  0.54130800  0.25034700  0.04003400  1
  O  O5  1  0.04444900  0.75700800  0.45753000  1
  O  O6  1  0.95555100  0.75700800  0.95753000  1
  O  O7  1  0.45869200  0.25034700  0.54003400  1
  O  O8  1  0.46048700  0.83256500  0.96211500  1
  O  O9  1  0.96299800  0.16449100  0.53879100  1
  O  O10  1  0.03700200  0.16449100  0.03879100  1
  O  O11  1  0.53951300  0.83256500  0.46211500  1
loop_
_geom_bond_atom_site_label_1
_geom_bond_atom_site_label_2
_geom_bond_distance
_geom_bond_site_symmetry_2
Ca0 O2 2.313923 1_555
Ca0 O6 2.329427 1_555
Ca0 O9 2.344715 1_565
Ca0 O3 2.392596 1_555
Ca0 O7 2.491264 1_565
Ca0 O8 2.508698 1_555
Ca0 O11 2.569982 1_555
Ca0 O4 2.604061 1_556
Ca1 O1 2.313923 1_555
Ca1 O5 2.329427 1_555
Ca1 O10 2.344715 1_565
Ca1 O0 2.392596 1_555
Ca1 O4 2.491264 1_565
Ca1 O11 2.508698 1_555
Ca1 O8 2.569982 1_554
Ca1 O7 2.604061 1_555
Ni0 O10 1.888533 1_655
Ni0 O0 1.889993 1_545
Ni0 O6 1.895244 1_544
Ni0 O4 1.895891 1_555
Ni0 O2 1.896148 1_554
Ni0 O8 1.904086 1_544
Ni1 O9 1.888533 1_455
Ni1 O3 1.889993 1_545
Ni1 O5 1.895244 1_545
Ni1 O7 1.895891 1_555
Ni1 O1 1.896148 1_555
Ni1 O11 1.904086 1_545
O0 W1 1.943464 1_555
O1 W0 1.927714 1_554
O2 W1 1.927714 1_555
O3 W0 1.943464 1_555
O4 W0 1.993656 1_554
O5 W1 1.895305 1_455
O6 W0 1.895305 1_655
O7 W1 1.993656 1_555
O8 W0 1.971829 1_555
O9 W1 1.911604 1_555
O10 W0 1.911604 1_554
O11 W1 1.971829 1_555
