# generated using pymatgen
data_SrCa7Mn6Al2O23
_symmetry_space_group_name_H-M   'P 1'
_cell_length_a   7.55243901
_cell_length_b   7.55243901
_cell_length_c   7.69661800
_cell_angle_alpha   90.00000000
_cell_angle_beta   90.00000000
_cell_angle_gamma   90.00499185
_symmetry_Int_Tables_number   1
_chemical_formula_structural   SrCa7Mn6Al2O23
_chemical_formula_sum   'Sr1 Ca7 Mn6 Al2 O23'
_cell_volume   439.00997047
_cell_formula_units_Z   1
loop_
 _symmetry_equiv_pos_site_id
 _symmetry_equiv_pos_as_xyz
  1  'x, y, z'
loop_
 _atom_site_type_symbol
 _atom_site_label
 _atom_site_symmetry_multiplicity
 _atom_site_fract_x
 _atom_site_fract_y
 _atom_site_fract_z
 _atom_site_occupancy
  Sr  Sr0  1  0.25355300  0.25355300  0.25000000  1
  Ca  Ca0  1  0.25869100  0.25869100  0.75000000  1
  Ca  Ca1  1  0.25871600  0.74347300  0.25000000  1
  Ca  Ca2  1  0.25893400  0.74266100  0.75000000  1
  Ca  Ca3  1  0.74347300  0.25871600  0.25000000  1
  Ca  Ca4  1  0.74266100  0.25893400  0.75000000  1
  Ca  Ca5  1  0.74308300  0.74308300  0.25000000  1
  Ca  Ca6  1  0.74154000  0.74154000  0.75000000  1
  Mn  Mn0  1  0.99921900  0.50151300  0.00418300  1
  Mn  Mn1  1  0.99921900  0.50151300  0.49581700  1
  Mn  Mn2  1  0.50151300  0.99921900  0.00418300  1
  Mn  Mn3  1  0.50151300  0.99921900  0.49581700  1
  Mn  Mn4  1  0.50060500  0.50060500  0.99980300  1
  Mn  Mn5  1  0.50060500  0.50060500  0.50019700  1
  Al  Al0  1  0.99928000  0.99928000  0.97504100  1
  Al  Al1  1  0.99928000  0.99928000  0.52495900  1
  O  O0  1  0.99714200  0.99714200  0.75000000  1
  O  O1  1  0.99566900  0.49999300  0.25000000  1
  O  O2  1  0.99792900  0.50241700  0.75000000  1
  O  O3  1  0.49999300  0.99566900  0.25000000  1
  O  O4  1  0.50241700  0.99792900  0.75000000  1
  O  O5  1  0.50362700  0.50362700  0.25000000  1
  O  O6  1  0.50123600  0.50123600  0.75000000  1
  O  O7  1  0.24206700  0.99621300  0.01862100  1
  O  O8  1  0.24206700  0.99621300  0.48137900  1
  O  O9  1  0.24975200  0.50412600  0.99281700  1
  O  O10  1  0.24975200  0.50412600  0.50718300  1
  O  O11  1  0.75841600  0.99845400  0.02508400  1
  O  O12  1  0.75841600  0.99845400  0.47491600  1
  O  O13  1  0.74985400  0.50116800  0.99580300  1
  O  O14  1  0.74985400  0.50116800  0.50419700  1
  O  O15  1  0.99621300  0.24206700  0.01862100  1
  O  O16  1  0.99621300  0.24206700  0.48137900  1
  O  O17  1  0.99845400  0.75841600  0.02508400  1
  O  O18  1  0.99845400  0.75841600  0.47491600  1
  O  O19  1  0.50412600  0.24975200  0.99281700  1
  O  O20  1  0.50412600  0.24975200  0.50718300  1
  O  O21  1  0.50116800  0.74985400  0.99580300  1
  O  O22  1  0.50116800  0.74985400  0.50419700  1
loop_
_geom_bond_atom_site_label_1
_geom_bond_atom_site_label_2
_geom_bond_distance
_geom_bond_site_symmetry_2
Ca0 O6 2.590452 1_555
Ca0 O19 2.633099 1_555
Ca0 O9 2.633099 1_555
Ca0 O20 2.633099 1_555
Ca0 O10 2.633099 1_555
Ca0 O2 2.695811 1_455
Ca0 O4 2.695811 1_545
Ca0 O0 2.793421 1_445
Ca0 O7 2.867032 1_546
Ca0 O15 2.867032 1_456
Ca0 O16 2.867032 1_455
Ca0 O8 2.867032 1_545
Ca1 O5 2.589041 1_555
Ca1 O8 2.613572 1_555
Ca1 O7 2.613572 1_555
Ca1 O17 2.621658 1_455
Ca1 O18 2.621658 1_455
Ca1 O3 2.635864 1_555
Ca1 O21 2.680107 1_554
Ca1 O22 2.680107 1_555
Ca1 O10 2.681483 1_555
Ca1 O9 2.681483 1_554
Ca1 O1 2.706947 1_455
Ca2 O6 2.583403 1_555
Ca2 O9 2.596717 1_555
Ca2 O10 2.596717 1_555
Ca2 O22 2.632290 1_555
Ca2 O21 2.632290 1_555
Ca2 O4 2.664148 1_555
Ca2 O2 2.679039 1_455
Ca2 O0 2.757491 1_455
Ca2 O7 2.820939 1_556
Ca2 O8 2.820939 1_555
Ca2 O18 2.892562 1_455
Ca2 O17 2.892562 1_456
Ca3 O5 2.589041 1_555
Ca3 O15 2.613572 1_555
Ca3 O16 2.613572 1_555
Ca3 O11 2.621658 1_545
Ca3 O12 2.621658 1_545
Ca3 O1 2.635864 1_555
Ca3 O14 2.680107 1_555
Ca3 O13 2.680107 1_554
Ca3 O20 2.681483 1_555
Ca3 O19 2.681483 1_554
Ca3 O3 2.706947 1_545
Ca4 O6 2.583403 1_555
Ca4 O19 2.596717 1_555
Ca4 O20 2.596717 1_555
Ca4 O13 2.632290 1_555
Ca4 O14 2.632290 1_555
Ca4 O2 2.664148 1_555
Ca4 O4 2.679039 1_545
Ca4 O0 2.757491 1_545
Ca4 O15 2.820939 1_556
Ca4 O16 2.820939 1_555
Ca4 O12 2.892562 1_545
Ca4 O11 2.892562 1_546
Ca5 O5 2.557461 1_555
Ca5 O11 2.594193 1_555
Ca5 O18 2.594193 1_555
Ca5 O12 2.594193 1_555
Ca5 O17 2.594193 1_555
Ca5 O3 2.647700 1_555
Ca5 O1 2.647700 1_555
Ca5 O13 2.677398 1_554
Ca5 O22 2.677398 1_555
Ca5 O14 2.677398 1_555
Ca5 O21 2.677398 1_554
Ca6 O6 2.566518 1_555
Ca6 O21 2.622732 1_555
Ca6 O14 2.622732 1_555
Ca6 O22 2.622732 1_555
Ca6 O13 2.622732 1_555
Ca6 O2 2.647944 1_555
Ca6 O4 2.647944 1_555
Ca6 O0 2.729905 1_555
Ca6 O18 2.874661 1_555
Ca6 O12 2.874661 1_555
Ca6 O11 2.874661 1_556
Ca6 O17 2.874661 1_556
Mn0 O13 1.884420 1_554
Mn0 O1 1.892184 1_555
Mn0 O9 1.894257 1_654
Mn0 O17 1.946911 1_555
Mn0 O2 1.956386 1_554
Mn0 O15 1.962728 1_555
Mn1 O14 1.884420 1_555
Mn1 O1 1.892184 1_555
Mn1 O10 1.894257 1_655
Mn1 O18 1.946911 1_555
Mn1 O2 1.956386 1_555
Mn1 O16 1.962728 1_555
Mn2 O21 1.884420 1_554
Mn2 O3 1.892184 1_555
Mn2 O19 1.894257 1_564
Mn2 O11 1.946911 1_555
Mn2 O4 1.956386 1_554
Mn2 O7 1.962728 1_555
Mn3 O22 1.884420 1_555
Mn3 O3 1.892184 1_555
Mn3 O20 1.894257 1_565
Mn3 O12 1.946911 1_555
Mn3 O4 1.956386 1_555
Mn3 O8 1.962728 1_555
Mn4 O21 1.882694 1_555
Mn4 O13 1.882694 1_555
Mn4 O19 1.895504 1_555
Mn4 O9 1.895504 1_555
Mn4 O6 1.922650 1_555
Mn4 O5 1.925941 1_556
Mn5 O14 1.882694 1_555
Mn5 O22 1.882694 1_555
Mn5 O10 1.895504 1_555
Mn5 O20 1.895504 1_555
Mn5 O6 1.922650 1_555
Mn5 O5 1.925941 1_555
Al0 O0 1.732205 1_555
Al0 O17 1.859449 1_556
Al0 O11 1.859449 1_556
Al0 O15 1.864206 1_566
Al0 O7 1.864206 1_656
Al1 O0 1.732205 1_555
Al1 O12 1.859449 1_555
Al1 O18 1.859449 1_555
Al1 O16 1.864206 1_565
Al1 O8 1.864206 1_655
O1 Sr0 2.694093 1_655
O3 Sr0 2.694093 1_565
O5 Sr0 2.670864 1_555
O7 Sr0 2.637468 1_565
O8 Sr0 2.637468 1_565
O9 Sr0 2.738673 1_556
O10 Sr0 2.738673 1_555
O15 Sr0 2.637468 1_655
O16 Sr0 2.637468 1_655
O19 Sr0 2.738673 1_556
O20 Sr0 2.738673 1_555
