# generated using pymatgen
data_Mn5H8SO12
_symmetry_space_group_name_H-M   'P 1'
_cell_length_a   7.72520632
_cell_length_b   8.69460979
_cell_length_c   8.71005066
_cell_angle_alpha   99.04606670
_cell_angle_beta   103.36140492
_cell_angle_gamma   99.08924766
_symmetry_Int_Tables_number   1
_chemical_formula_structural   Mn5H8SO12
_chemical_formula_sum   'Mn10 H16 S2 O24'
_cell_volume   550.50404771
_cell_formula_units_Z   2
loop_
 _symmetry_equiv_pos_site_id
 _symmetry_equiv_pos_as_xyz
  1  'x, y, z'
loop_
 _atom_site_type_symbol
 _atom_site_label
 _atom_site_symmetry_multiplicity
 _atom_site_fract_x
 _atom_site_fract_y
 _atom_site_fract_z
 _atom_site_occupancy
  Mn  Mn0  1  0.99413200  0.41260500  0.31427200  1
  Mn  Mn1  1  0.00586800  0.58739500  0.68572800  1
  Mn  Mn2  1  0.00503600  0.17878300  0.56367400  1
  Mn  Mn3  1  0.99496400  0.82121700  0.43632600  1
  Mn  Mn4  1  0.01421700  0.31056200  0.94598500  1
  Mn  Mn5  1  0.98578300  0.68943800  0.05401500  1
  Mn  Mn6  1  0.69529300  0.00615300  0.12643200  1
  Mn  Mn7  1  0.30470700  0.99384700  0.87356800  1
  Mn  Mn8  1  0.69440500  0.89744100  0.73618500  1
  Mn  Mn9  1  0.30559500  0.10255900  0.26381500  1
  H  H0  1  0.72335500  0.22404800  0.36858600  1
  H  H1  1  0.27664500  0.77595200  0.63141400  1
  H  H2  1  0.26792400  0.43518000  0.59537400  1
  H  H3  1  0.73207600  0.56482000  0.40462600  1
  H  H4  1  0.73485100  0.42294800  0.02987500  1
  H  H5  1  0.26514900  0.57705200  0.97012500  1
  H  H6  1  0.28584900  0.39322300  0.21731500  1
  H  H7  1  0.71415100  0.60677700  0.78268500  1
  H  H8  1  0.71817100  0.94980800  0.46601700  1
  H  H9  1  0.28182900  0.05019200  0.53398300  1
  H  H10  1  0.28280000  0.27079700  0.80848500  1
  H  H11  1  0.71720000  0.72920300  0.19151500  1
  H  H12  1  0.96420300  0.06896500  0.03375800  1
  H  H13  1  0.03579700  0.93103500  0.96624200  1
  H  H14  1  0.47774000  0.74885700  0.89302400  1
  H  H15  1  0.52226000  0.25114300  0.10697600  1
  S  S0  1  0.39712200  0.73241400  0.34844700  1
  S  S1  1  0.60287800  0.26758600  0.65155300  1
  O  O0  1  0.82779500  0.19396300  0.33277400  1
  O  O1  1  0.17220500  0.80603700  0.66722600  1
  O  O2  1  0.13556600  0.41966900  0.56197100  1
  O  O3  1  0.86443400  0.58033100  0.43802900  1
  O  O4  1  0.86510900  0.45372900  0.07855100  1
  O  O5  1  0.13489100  0.54627100  0.92144900  1
  O  O6  1  0.18019500  0.30573400  0.19520400  1
  O  O7  1  0.81980500  0.69426600  0.80479600  1
  O  O8  1  0.82528800  0.95352300  0.55428100  1
  O  O9  1  0.17471200  0.04647700  0.44571900  1
  O  O10  1  0.17830100  0.18972400  0.80672900  1
  O  O11  1  0.82169900  0.81027600  0.19327100  1
  O  O12  1  0.81020400  0.30711800  0.69934900  1
  O  O13  1  0.18979600  0.69288200  0.30065100  1
  O  O14  1  0.85354700  0.08243300  0.96016100  1
  O  O15  1  0.14645300  0.91756700  0.03983900  1
  O  O16  1  0.52178700  0.86127500  0.89914500  1
  O  O17  1  0.47821300  0.13872500  0.10085500  1
  O  O18  1  0.45803500  0.74248200  0.52639700  1
  O  O19  1  0.54196500  0.25751800  0.47360300  1
  O  O20  1  0.53855000  0.11038800  0.69172200  1
  O  O21  1  0.46145000  0.88961200  0.30827800  1
  O  O22  1  0.46564800  0.60584000  0.25945800  1
  O  O23  1  0.53435200  0.39416000  0.74054200  1
loop_
_geom_bond_atom_site_label_1
_geom_bond_atom_site_label_2
_geom_bond_distance
_geom_bond_site_symmetry_2
Mn0 O2 2.167920 1_655
Mn0 O0 2.170542 1_555
Mn0 O4 2.175851 1_555
Mn0 O3 2.181513 1_555
Mn0 O6 2.193841 1_655
Mn0 O13 2.692088 1_655
Mn1 O3 2.167920 1_455
Mn1 O1 2.170542 1_555
Mn1 O5 2.175851 1_555
Mn1 O2 2.181513 1_555
Mn1 O7 2.193841 1_455
Mn1 O12 2.692088 1_455
Mn2 O2 2.180140 1_555
Mn2 O0 2.191976 1_455
Mn2 O8 2.192861 1_445
Mn2 O9 2.196399 1_555
Mn2 O10 2.206627 1_555
Mn2 O12 2.417638 1_455
Mn3 O3 2.180140 1_555
Mn3 O1 2.191976 1_655
Mn3 O9 2.192861 1_665
Mn3 O8 2.196399 1_555
Mn3 O11 2.206627 1_555
Mn3 O13 2.417638 1_655
Mn4 O5 2.177371 1_555
Mn4 O4 2.196665 1_456
Mn4 O14 2.204563 1_455
Mn4 O10 2.216403 1_555
Mn4 O6 2.262094 1_556
Mn4 O12 2.345139 1_455
Mn5 O4 2.177371 1_555
Mn5 O5 2.196665 1_654
Mn5 O15 2.204563 1_655
Mn5 O11 2.216403 1_555
Mn5 O7 2.262094 1_554
Mn5 O13 2.345139 1_655
Mn6 O0 2.154789 1_555
Mn6 O17 2.170103 1_555
Mn6 O16 2.181386 1_544
Mn6 O11 2.183444 1_545
Mn6 O14 2.212695 1_554
Mn7 O1 2.154789 1_555
Mn7 O16 2.170103 1_555
Mn7 O17 2.181386 1_566
Mn7 O10 2.183444 1_565
Mn7 O15 2.212695 1_556
Mn8 O8 2.144287 1_555
Mn8 O16 2.185057 1_555
Mn8 O7 2.240823 1_555
Mn8 O14 2.276912 1_565
Mn8 O18 2.322685 1_555
Mn8 O20 2.396231 1_565
Mn9 O9 2.144287 1_555
Mn9 O17 2.185057 1_555
Mn9 O6 2.240823 1_555
Mn9 O15 2.276912 1_545
Mn9 O19 2.322685 1_555
Mn9 O21 2.396231 1_545
H0 O0 0.986923 1_555
H1 O1 0.986923 1_555
H2 O2 0.977204 1_555
H3 O3 0.977204 1_555
H4 O4 0.972629 1_555
H5 O5 0.972629 1_555
H6 O6 0.983377 1_555
H7 O7 0.983377 1_555
H8 O8 0.983132 1_555
H9 O9 0.983132 1_555
H10 O10 0.979758 1_555
H11 O11 0.979758 1_555
H12 O14 0.978443 1_554
H13 O15 0.978443 1_556
H14 O16 0.971672 1_555
H15 O17 0.971672 1_555
O12 S1 1.526300 1_555
O13 S0 1.526300 1_555
O18 S0 1.496220 1_555
O19 S1 1.496220 1_555
O20 S1 1.501193 1_555
O21 S0 1.501193 1_555
O22 S0 1.482437 1_555
O23 S1 1.482437 1_555
