# generated using pymatgen
data_Dy2Mn3Cu9P7
_symmetry_space_group_name_H-M   'P 1'
_cell_length_a   9.46778360
_cell_length_b   9.46778360
_cell_length_c   3.75366200
_cell_angle_alpha   90.00000000
_cell_angle_beta   90.00000000
_cell_angle_gamma   119.99999721
_symmetry_Int_Tables_number   1
_chemical_formula_structural   Dy2Mn3Cu9P7
_chemical_formula_sum   'Dy2 Mn3 Cu9 P7'
_cell_volume   291.39524030
_cell_formula_units_Z   1
loop_
 _symmetry_equiv_pos_site_id
 _symmetry_equiv_pos_as_xyz
  1  'x, y, z'
loop_
 _atom_site_type_symbol
 _atom_site_label
 _atom_site_symmetry_multiplicity
 _atom_site_fract_x
 _atom_site_fract_y
 _atom_site_fract_z
 _atom_site_occupancy
  Dy  Dy0  1  0.00000000  0.00000000  0.00000000  1
  Dy  Dy1  1  0.66666700  0.33333300  0.50000000  1
  Mn  Mn0  1  0.46697700  0.57929300  0.50000000  1
  Mn  Mn1  1  0.42070700  0.88768400  0.50000000  1
  Mn  Mn2  1  0.11231600  0.53302300  0.50000000  1
  Cu  Cu0  1  0.71395300  0.62030200  0.00000000  1
  Cu  Cu1  1  0.37969800  0.09365100  0.00000000  1
  Cu  Cu2  1  0.90634900  0.28604700  0.00000000  1
  Cu  Cu3  1  0.21999900  0.38733700  0.00000000  1
  Cu  Cu4  1  0.61266300  0.83266200  0.00000000  1
  Cu  Cu5  1  0.16733800  0.78000100  0.00000000  1
  Cu  Cu6  1  0.29323500  0.23773000  0.50000000  1
  Cu  Cu7  1  0.76227000  0.05550500  0.50000000  1
  Cu  Cu8  1  0.94449500  0.70676500  0.50000000  1
  P  P0  1  0.46326800  0.38144000  0.00000000  1
  P  P1  1  0.61856000  0.08182900  0.00000000  1
  P  P2  1  0.91817100  0.53673200  0.00000000  1
  P  P3  1  0.04365100  0.25245400  0.50000000  1
  P  P4  1  0.74754600  0.79119700  0.50000000  1
  P  P5  1  0.20880300  0.95634900  0.50000000  1
  P  P6  1  0.33333300  0.66666700  0.00000000  1
loop_
_geom_bond_atom_site_label_1
_geom_bond_atom_site_label_2
_geom_bond_distance
_geom_bond_site_symmetry_2
Dy0 P5 2.901455 1_544
Dy0 P5 2.901455 1_545
Dy0 P3 2.901455 1_555
Dy0 P3 2.901455 1_554
Dy0 P4 2.901456 1_445
Dy0 P4 2.901456 1_444
Dy1 P1 2.883650 1_556
Dy1 P1 2.883650 1_555
Dy1 P2 2.883655 1_556
Dy1 P2 2.883655 1_555
Dy1 P0 2.883664 1_556
Dy1 P0 2.883664 1_555
Mn0 P4 2.398333 1_555
Mn0 P6 2.618119 1_555
Mn0 P6 2.618119 1_556
Mn0 P0 2.639495 1_556
Mn0 P0 2.639495 1_555
Mn1 P5 2.398333 1_555
Mn1 P6 2.618113 1_556
Mn1 P6 2.618113 1_555
Mn1 P1 2.639499 1_566
Mn1 P1 2.639499 1_565
Mn2 P3 2.398333 1_555
Mn2 P6 2.618114 1_555
Mn2 P6 2.618114 1_556
Mn2 P2 2.639502 1_456
Mn2 P2 2.639502 1_455
Cu0 P0 2.319489 1_555
Cu0 P4 2.393107 1_554
Cu0 P4 2.393107 1_555
Cu0 P2 2.427807 1_555
Cu1 P1 2.319484 1_555
Cu1 P5 2.393107 1_544
Cu1 P5 2.393107 1_545
Cu1 P0 2.427816 1_555
Cu2 P2 2.319494 1_555
Cu2 P3 2.393107 1_654
Cu2 P3 2.393107 1_655
Cu2 P1 2.427814 1_555
Cu3 P6 2.303850 1_555
Cu3 P0 2.331635 1_555
Cu3 P3 2.410145 1_554
Cu3 P3 2.410145 1_555
Cu4 P6 2.303849 1_555
Cu4 P1 2.331645 1_565
Cu4 P4 2.410145 1_554
Cu4 P4 2.410145 1_555
Cu5 P6 2.303841 1_555
Cu5 P2 2.331640 1_455
Cu5 P5 2.410145 1_554
Cu5 P5 2.410145 1_555
Cu6 P5 2.367826 1_545
Cu6 P0 2.403117 1_555
Cu6 P0 2.403117 1_556
Cu6 P3 2.435703 1_555
Cu7 P3 2.367826 1_655
Cu7 P1 2.403121 1_556
Cu7 P1 2.403121 1_555
Cu7 P4 2.435703 1_545
Cu8 P4 2.367826 1_555
Cu8 P2 2.403115 1_555
Cu8 P2 2.403115 1_556
Cu8 P5 2.435703 1_655
