# generated using pymatgen
data_Ge
_symmetry_space_group_name_H-M   'P 1'
_cell_length_a   5.93505934
_cell_length_b   5.93505895
_cell_length_c   5.93506086
_cell_angle_alpha   59.99999992
_cell_angle_beta   60.00000214
_cell_angle_gamma   60.00000533
_symmetry_Int_Tables_number   1
_chemical_formula_structural   Ge
_chemical_formula_sum   Ge8
_cell_volume   147.82922680
_cell_formula_units_Z   8
loop_
 _symmetry_equiv_pos_site_id
 _symmetry_equiv_pos_as_xyz
  1  'x, y, z'
loop_
 _atom_site_type_symbol
 _atom_site_label
 _atom_site_symmetry_multiplicity
 _atom_site_fract_x
 _atom_site_fract_y
 _atom_site_fract_z
 _atom_site_occupancy
  Ge  Ge0_0  1  0.00000000  0.00000000  0.00000000  1
  Ge  Ge0_1  1  0.00000000  0.00000000  0.50000000  1
  Ge  Ge0_2  1  0.00000000  0.50000000  0.00000000  1
  Ge  Ge0_3  1  0.00000000  0.50000000  0.50000000  1
  Ge  Ge0_4  1  0.50000000  0.00000000  0.00000000  1
  Ge  Ge0_5  1  0.50000000  0.00000000  0.50000000  1
  Ge  Ge0_6  1  0.50000000  0.50000000  0.00000000  1
  Ge  Ge0_7  1  0.50000000  0.50000000  0.50000000  1
loop_
_geom_bond_atom_site_label_1
_geom_bond_atom_site_label_2
_geom_bond_distance
_geom_bond_site_symmetry_2
Ge0_0 Ge0_2 2.967529 1_545
Ge0_0 Ge0_2 2.967529 1_555
Ge0_0 Ge0_4 2.967530 1_455
Ge0_0 Ge0_4 2.967530 1_555
Ge0_0 Ge0_6 2.967530 1_545
Ge0_0 Ge0_6 2.967530 1_455
Ge0_0 Ge0_3 2.967530 1_545
Ge0_0 Ge0_3 2.967530 1_554
Ge0_0 Ge0_5 2.967530 1_554
Ge0_0 Ge0_5 2.967530 1_455
Ge0_0 Ge0_1 2.967530 1_554
Ge0_0 Ge0_1 2.967530 1_555
Ge0_1 Ge0_3 2.967529 1_545
Ge0_1 Ge0_3 2.967529 1_555
Ge0_1 Ge0_5 2.967530 1_555
Ge0_1 Ge0_5 2.967530 1_455
Ge0_1 Ge0_7 2.967530 1_545
Ge0_1 Ge0_7 2.967530 1_455
Ge0_1 Ge0_2 2.967530 1_546
Ge0_1 Ge0_2 2.967530 1_555
Ge0_1 Ge0_4 2.967530 1_555
Ge0_1 Ge0_4 2.967530 1_456
Ge0_2 Ge0_6 2.967530 1_555
Ge0_2 Ge0_6 2.967530 1_455
Ge0_2 Ge0_4 2.967530 1_465
Ge0_2 Ge0_4 2.967530 1_555
Ge0_2 Ge0_7 2.967530 1_554
Ge0_2 Ge0_7 2.967530 1_455
Ge0_2 Ge0_3 2.967530 1_555
Ge0_2 Ge0_3 2.967530 1_554
Ge0_3 Ge0_7 2.967530 1_555
Ge0_3 Ge0_7 2.967530 1_455
Ge0_3 Ge0_5 2.967530 1_465
Ge0_3 Ge0_5 2.967530 1_555
Ge0_3 Ge0_6 2.967530 1_456
Ge0_3 Ge0_6 2.967530 1_555
Ge0_4 Ge0_6 2.967529 1_555
Ge0_4 Ge0_6 2.967529 1_545
Ge0_4 Ge0_7 2.967530 1_545
Ge0_4 Ge0_7 2.967530 1_554
Ge0_4 Ge0_5 2.967530 1_555
Ge0_4 Ge0_5 2.967530 1_554
Ge0_5 Ge0_7 2.967529 1_545
Ge0_5 Ge0_7 2.967529 1_555
Ge0_5 Ge0_6 2.967530 1_546
Ge0_5 Ge0_6 2.967530 1_555
Ge0_6 Ge0_7 2.967530 1_555
Ge0_6 Ge0_7 2.967530 1_554
