# generated using pymatgen
data_MgFe8(O7F)2
_symmetry_space_group_name_H-M   'P 1'
_cell_length_a   4.85545124
_cell_length_b   4.85364159
_cell_length_c   11.83918345
_cell_angle_alpha   90.13582666
_cell_angle_beta   89.14073028
_cell_angle_gamma   90.05128947
_symmetry_Int_Tables_number   1
_chemical_formula_structural   MgFe8(O7F)2
_chemical_formula_sum   'Mg1 Fe8 O14 F2'
_cell_volume   278.97727577
_cell_formula_units_Z   1
loop_
 _symmetry_equiv_pos_site_id
 _symmetry_equiv_pos_as_xyz
  1  'x, y, z'
loop_
 _atom_site_type_symbol
 _atom_site_label
 _atom_site_symmetry_multiplicity
 _atom_site_fract_x
 _atom_site_fract_y
 _atom_site_fract_z
 _atom_site_occupancy
  Mg  Mg0  1  0.50227800  0.00605200  0.69026300  1
  Fe  Fe0  1  0.00867600  0.98923300  0.01031300  1
  Fe  Fe1  1  0.00102100  0.99248600  0.25096600  1
  Fe  Fe2  1  0.02588100  0.03031300  0.49482500  1
  Fe  Fe3  1  0.00024000  0.98321700  0.75379100  1
  Fe  Fe4  1  0.49995600  0.49337700  0.12409800  1
  Fe  Fe5  1  0.49026900  0.49915300  0.62059900  1
  Fe  Fe6  1  0.47051400  0.52278200  0.88044800  1
  Fe  Fe7  1  0.49526400  0.48726100  0.36458700  1
  O  O0  1  0.18609400  0.80236300  0.13278100  1
  O  O1  1  0.20416000  0.81316700  0.62163300  1
  O  O2  1  0.18844700  0.82345800  0.87944600  1
  O  O3  1  0.18941200  0.81129200  0.36990500  1
  O  O4  1  0.30574400  0.31222800  0.00535100  1
  O  O5  1  0.31520900  0.30279000  0.24220900  1
  O  O6  1  0.32752400  0.31122000  0.49479200  1
  O  O7  1  0.30131800  0.30953500  0.75213800  1
  O  O8  1  0.68461100  0.68394300  0.00474600  1
  O  O9  1  0.68470500  0.67553000  0.24555300  1
  O  O10  1  0.68836000  0.69721100  0.75157800  1
  O  O11  1  0.81558100  0.17411800  0.12975500  1
  O  O12  1  0.81856900  0.19012100  0.36988400  1
  O  O13  1  0.80967300  0.19440100  0.62490400  1
  F  F0  1  0.69751800  0.70553200  0.49743900  1
  F  F1  1  0.78897300  0.18922300  0.87688400  1
loop_
_geom_bond_atom_site_label_1
_geom_bond_atom_site_label_2
_geom_bond_distance
_geom_bond_site_symmetry_2
Mg0 O10 1.901989 1_545
Mg0 O13 1.904845 1_555
Mg0 O7 1.906426 1_555
Mg0 O1 1.913412 1_545
Fe0 O11 1.907795 1_465
Fe0 O0 1.926682 1_555
Fe0 O2 1.940257 1_554
Fe0 O4 2.129672 1_565
Fe0 O8 2.162013 1_455
Fe1 O0 1.890634 1_555
Fe1 O3 1.907605 1_555
Fe1 O12 1.909142 1_465
Fe1 O11 1.921822 1_465
Fe1 O5 2.144343 1_565
Fe1 O9 2.174365 1_455
Fe2 O12 1.963260 1_455
Fe2 O3 1.976529 1_545
Fe2 O6 2.000105 1_555
Fe2 O13 2.013759 1_455
Fe2 O1 2.040132 1_545
Fe3 O2 1.922751 1_555
Fe3 O1 2.014584 1_555
Fe3 O10 2.053806 1_455
Fe3 O13 2.070433 1_465
Fe3 O7 2.154323 1_565
Fe4 O5 1.892812 1_555
Fe4 O8 1.903350 1_555
Fe4 O4 1.916026 1_555
Fe4 O9 1.919687 1_555
Fe4 O0 2.140269 1_555
Fe4 O11 2.182208 1_555
Fe5 O6 1.924185 1_555
Fe5 O7 2.019005 1_555
Fe5 O1 2.063032 1_555
Fe5 O10 2.071192 1_555
Fe5 O13 2.145338 1_555
Fe6 O4 1.959939 1_556
Fe6 O8 1.974092 1_556
Fe6 O2 2.002439 1_555
Fe6 O7 2.020458 1_555
Fe6 O10 2.029655 1_555
Fe7 O9 1.906000 1_555
Fe7 O5 1.922393 1_555
Fe7 O6 1.933140 1_555
Fe7 O12 2.134382 1_555
Fe7 O3 2.164191 1_555
F0 Fe5 2.025637 1_555
F0 Fe7 2.144106 1_555
F0 Fe2 2.241006 1_665
F1 Fe3 2.031229 1_645
F1 Fe0 2.152970 1_646
F1 Fe6 2.239641 1_555
