# generated using pymatgen
data_HfMg14AlO16
_symmetry_space_group_name_H-M   'P 1'
_cell_length_a   4.29650800
_cell_length_b   8.63041800
_cell_length_c   8.64905000
_cell_angle_alpha   90.00000000
_cell_angle_beta   90.00000000
_cell_angle_gamma   90.00000000
_symmetry_Int_Tables_number   1
_chemical_formula_structural   HfMg14AlO16
_chemical_formula_sum   'Hf1 Mg14 Al1 O16'
_cell_volume   320.71248220
_cell_formula_units_Z   1
loop_
 _symmetry_equiv_pos_site_id
 _symmetry_equiv_pos_as_xyz
  1  'x, y, z'
loop_
 _atom_site_type_symbol
 _atom_site_label
 _atom_site_symmetry_multiplicity
 _atom_site_fract_x
 _atom_site_fract_y
 _atom_site_fract_z
 _atom_site_occupancy
  Hf  Hf0  1  0.00000000  0.50000000  0.00000000  1
  Mg  Mg0  1  0.00000000  0.00000000  0.50000000  1
  Mg  Mg1  1  0.00000000  0.50000000  0.50000000  1
  Mg  Mg2  1  0.50000000  0.75506700  0.00000000  1
  Mg  Mg3  1  0.50000000  0.24493300  0.00000000  1
  Mg  Mg4  1  0.50000000  0.75025300  0.50000000  1
  Mg  Mg5  1  0.50000000  0.24974700  0.50000000  1
  Mg  Mg6  1  0.50000000  0.00000000  0.74788300  1
  Mg  Mg7  1  0.50000000  0.50000000  0.74259900  1
  Mg  Mg8  1  0.50000000  0.00000000  0.25211700  1
  Mg  Mg9  1  0.50000000  0.50000000  0.25740100  1
  Mg  Mg10  1  0.00000000  0.75004200  0.74694800  1
  Mg  Mg11  1  0.00000000  0.24995800  0.74694800  1
  Mg  Mg12  1  0.00000000  0.75004200  0.25305200  1
  Mg  Mg13  1  0.00000000  0.24995800  0.25305200  1
  Al  Al0  1  0.00000000  0.00000000  0.00000000  1
  O  O0  1  0.00000000  0.00000000  0.76231400  1
  O  O1  1  0.00000000  0.50000000  0.73559400  1
  O  O2  1  0.00000000  0.00000000  0.23768600  1
  O  O3  1  0.00000000  0.50000000  0.26440600  1
  O  O4  1  0.50000000  0.75108500  0.74917100  1
  O  O5  1  0.50000000  0.24891500  0.74917100  1
  O  O6  1  0.50000000  0.75108500  0.25082900  1
  O  O7  1  0.50000000  0.24891500  0.25082900  1
  O  O8  1  0.50000000  0.00000000  0.00000000  1
  O  O9  1  0.50000000  0.50000000  0.00000000  1
  O  O10  1  0.50000000  0.00000000  0.50000000  1
  O  O11  1  0.50000000  0.50000000  0.50000000  1
  O  O12  1  0.00000000  0.78199500  0.00000000  1
  O  O13  1  0.00000000  0.21800500  0.00000000  1
  O  O14  1  0.00000000  0.75470300  0.50000000  1
  O  O15  1  0.00000000  0.24529700  0.50000000  1
loop_
_geom_bond_atom_site_label_1
_geom_bond_atom_site_label_2
_geom_bond_distance
_geom_bond_site_symmetry_2
Hf0 O9 2.148254 1_455
Hf0 O9 2.148254 1_555
Hf0 O3 2.286861 1_555
Hf0 O1 2.286861 1_554
Hf0 O12 2.433735 1_555
Hf0 O13 2.433735 1_555
Mg0 O14 2.117016 1_545
Mg0 O15 2.117016 1_555
Mg0 O10 2.148254 1_555
Mg0 O10 2.148254 1_455
Mg0 O0 2.268767 1_555
Mg0 O2 2.268767 1_555
Mg1 O1 2.037664 1_555
Mg1 O3 2.037664 1_555
Mg1 O11 2.148254 1_455
Mg1 O11 2.148254 1_555
Mg1 O14 2.198193 1_555
Mg1 O15 2.198193 1_555
Mg2 O8 2.113874 1_565
Mg2 O12 2.160788 1_655
Mg2 O12 2.160788 1_555
Mg2 O6 2.169705 1_555
Mg2 O4 2.169705 1_554
Mg2 O9 2.201335 1_555
Mg3 O8 2.113874 1_555
Mg3 O13 2.160788 1_555
Mg3 O13 2.160788 1_655
Mg3 O7 2.169705 1_555
Mg3 O5 2.169705 1_554
Mg3 O9 2.201335 1_555
Mg4 O14 2.148597 1_655
Mg4 O14 2.148597 1_555
Mg4 O4 2.155104 1_555
Mg4 O6 2.155104 1_555
Mg4 O10 2.155421 1_565
Mg4 O11 2.159788 1_555
Mg5 O15 2.148597 1_655
Mg5 O15 2.148597 1_555
Mg5 O5 2.155104 1_555
Mg5 O7 2.155104 1_555
Mg5 O10 2.155421 1_555
Mg5 O11 2.159788 1_555
Mg6 O10 2.143952 1_555
Mg6 O4 2.148269 1_545
Mg6 O5 2.148269 1_555
Mg6 O0 2.151877 1_655
Mg6 O0 2.151877 1_555
Mg6 O8 2.180573 1_556
Mg7 O11 2.098251 1_555
Mg7 O1 2.149108 1_655
Mg7 O1 2.149108 1_555
Mg7 O4 2.167714 1_555
Mg7 O5 2.167714 1_555
Mg7 O9 2.226274 1_556
Mg8 O10 2.143952 1_555
Mg8 O6 2.148269 1_545
Mg8 O7 2.148269 1_555
Mg8 O2 2.151877 1_655
Mg8 O2 2.151877 1_555
Mg8 O8 2.180573 1_555
Mg9 O11 2.098251 1_555
Mg9 O3 2.149108 1_655
Mg9 O3 2.149108 1_555
Mg9 O6 2.167714 1_555
Mg9 O7 2.167714 1_555
Mg9 O9 2.226274 1_555
Mg10 O14 2.136244 1_555
Mg10 O4 2.148359 1_455
Mg10 O4 2.148359 1_555
Mg10 O1 2.160200 1_555
Mg10 O0 2.161332 1_565
Mg10 O12 2.205964 1_556
Mg11 O15 2.136244 1_555
Mg11 O5 2.148359 1_555
Mg11 O5 2.148359 1_455
Mg11 O1 2.160200 1_555
Mg11 O0 2.161332 1_555
Mg11 O13 2.205964 1_556
Mg12 O14 2.136244 1_555
Mg12 O6 2.148359 1_555
Mg12 O6 2.148359 1_455
Mg12 O3 2.160200 1_555
Mg12 O2 2.161332 1_565
Mg12 O12 2.205964 1_555
Mg13 O15 2.136244 1_555
Mg13 O7 2.148359 1_555
Mg13 O7 2.148359 1_455
Mg13 O3 2.160200 1_555
Mg13 O2 2.161332 1_555
Mg13 O13 2.205964 1_555
Al0 O13 1.881474 1_555
Al0 O12 1.881474 1_545
Al0 O2 2.055758 1_555
Al0 O0 2.055758 1_554
Al0 O8 2.148254 1_455
Al0 O8 2.148254 1_555
