# generated using pymatgen
data_ZrVMo
_symmetry_space_group_name_H-M   'P 1'
_cell_length_a   5.27589121
_cell_length_b   5.27589121
_cell_length_c   5.27589121
_cell_angle_alpha   120.52621019
_cell_angle_beta   119.03179705
_cell_angle_gamma   90.38804476
_symmetry_Int_Tables_number   1
_chemical_formula_structural   ZrVMo
_chemical_formula_sum   'Zr2 V2 Mo2'
_cell_volume   104.16418416
_cell_formula_units_Z   2
loop_
 _symmetry_equiv_pos_site_id
 _symmetry_equiv_pos_as_xyz
  1  'x, y, z'
loop_
 _atom_site_type_symbol
 _atom_site_label
 _atom_site_symmetry_multiplicity
 _atom_site_fract_x
 _atom_site_fract_y
 _atom_site_fract_z
 _atom_site_occupancy
  Zr  Zr0  1  0.37521998  0.12521998  0.25000000  1
  Zr  Zr1  1  0.62478002  0.87478002  0.75000000  1
  V  V0  1  0.50000000  0.50000000  -0.00000000  1
  V  V1  1  0.00000000  0.50000000  0.50000000  1
  Mo  Mo0  1  0.00000000  0.50000000  -0.00000000  1
  Mo  Mo1  1  0.00000000  0.00000000  0.50000000  1
loop_
_geom_bond_atom_site_label_1
_geom_bond_atom_site_label_2
_geom_bond_distance
_geom_bond_site_symmetry_2
V0 V1 2.676456 1_554
V0 V1 2.676456 1_655
V0 Zr1 3.083214 1_555
V0 Zr1 3.083214 1_544
V0 Zr0 3.083214 1_554
V0 Zr0 3.083214 1_565
V0 Zr0 3.091491 1_555
V0 Zr1 3.091491 1_554
V1 Zr1 3.083214 1_444
V1 Zr1 3.083214 1_455
V1 Zr0 3.083214 1_555
V1 Zr0 3.083214 1_566
V1 Zr0 3.091491 1_455
V1 Zr1 3.091491 1_555
Mo0 Mo1 2.616937 1_554
Mo0 Mo1 2.616937 1_565
Mo0 V0 2.637946 1_455
Mo0 V1 2.637946 1_555
Mo0 V1 2.637946 1_554
Mo0 V0 2.637946 1_555
Mo0 Zr1 3.081687 1_444
Mo0 Zr0 3.081687 1_565
Mo0 Zr1 3.120324 1_555
Mo0 Zr1 3.120324 1_454
Mo0 Zr0 3.120324 1_454
Mo0 Zr0 3.120324 1_555
Mo1 V1 2.637946 1_545
Mo1 V1 2.637946 1_555
Mo1 V0 2.637946 1_556
Mo1 V0 2.637946 1_445
Mo1 Zr1 3.081687 1_445
Mo1 Zr0 3.081687 1_555
Mo1 Zr0 3.120324 1_556
Mo1 Zr1 3.120324 1_545
Mo1 Zr1 3.120324 1_444
Mo1 Zr0 3.120324 1_455
