# generated using pymatgen
data_PrTa7O19
_symmetry_space_group_name_H-M   'P 1'
_cell_length_a   6.24563291
_cell_length_b   6.24562383
_cell_length_c   20.01693679
_cell_angle_alpha   90.00006912
_cell_angle_beta   89.99989342
_cell_angle_gamma   119.99974016
_symmetry_Int_Tables_number   1
_chemical_formula_structural   PrTa7O19
_chemical_formula_sum   'Pr2 Ta14 O38'
_cell_volume   676.21011806
_cell_formula_units_Z   2
loop_
 _symmetry_equiv_pos_site_id
 _symmetry_equiv_pos_as_xyz
  1  'x, y, z'
loop_
 _atom_site_type_symbol
 _atom_site_label
 _atom_site_symmetry_multiplicity
 _atom_site_fract_x
 _atom_site_fract_y
 _atom_site_fract_z
 _atom_site_occupancy
  Pr  Pr0  1  0.00000139  -0.00000050  0.99999214  1
  Pr  Pr1  1  0.00000011  -0.00000196  0.50000604  1
  Ta  Ta0  1  0.69178034  0.02647933  0.15614076  1
  Ta  Ta1  1  0.97351849  0.66530345  0.15613947  1
  Ta  Ta2  1  0.69177616  0.02647951  0.34386282  1
  Ta  Ta3  1  0.69179291  0.66530175  0.65613791  1
  Ta  Ta4  1  0.33469486  0.30821456  0.15613912  1
  Ta  Ta5  1  0.97352008  0.66529819  0.34386286  1
  Ta  Ta6  1  0.97351022  0.30820612  0.65613653  1
  Ta  Ta7  1  0.69178696  0.66530365  0.84386299  1
  Ta  Ta8  1  0.33470043  0.30822038  0.34386330  1
  Ta  Ta9  1  0.97351915  0.30822108  0.84386203  1
  Ta  Ta10  1  0.33469748  0.02649135  0.65613697  1
  Ta  Ta11  1  0.33469798  0.02648945  0.84386211  1
  Ta  Ta12  1  0.66666725  0.33333357  0.00000426  1
  Ta  Ta13  1  0.66666629  0.33333376  0.49999959  1
  O  O0  1  0.75283730  0.04250730  0.24999116  1
  O  O1  1  0.95749108  0.71032986  0.24999146  1
  O  O2  1  0.75291688  0.71040000  0.75000851  1
  O  O3  1  0.28966991  0.24716086  0.24999152  1
  O  O4  1  0.95748471  0.24708397  0.75000755  1
  O  O5  1  0.28960021  0.04251567  0.75000746  1
  O  O6  1  0.08721615  0.42032606  0.15360850  1
  O  O7  1  0.57967859  0.66688957  0.15360850  1
  O  O8  1  0.08722060  0.42032788  0.34637628  1
  O  O9  1  0.08721981  0.66689143  0.65362766  1
  O  O10  1  0.33310784  0.91278736  0.15360835  1
  O  O11  1  0.57967676  0.66688911  0.34637611  1
  O  O12  1  0.57967432  0.91277959  0.65362725  1
  O  O13  1  0.08721973  0.66689545  0.84638699  1
  O  O14  1  0.33310537  0.91278287  0.34637620  1
  O  O15  1  0.57967135  0.91278050  0.84638714  1
  O  O16  1  0.33310816  0.42032301  0.65362758  1
  O  O17  1  0.33310832  0.42032507  0.84638689  1
  O  O18  1  0.66666631  0.33333301  0.16778552  1
  O  O19  1  0.66666643  0.33333161  0.33220081  1
  O  O20  1  0.66666558  0.33333028  0.66784844  1
  O  O21  1  0.66666660  0.33333512  0.83216198  1
  O  O22  1  -0.00000101  0.00000012  0.13201566  1
  O  O23  1  -0.00000141  -0.00000116  0.36797144  1
  O  O24  1  -0.00000028  -0.00000154  0.63200688  1
  O  O25  1  0.00000092  0.00000246  0.86800181  1
  O  O26  1  0.71099115  0.09752460  0.05712072  1
  O  O27  1  0.90247390  0.61346500  0.05712056  1
  O  O28  1  0.71099743  0.09753247  0.44287512  1
  O  O29  1  0.71094369  0.61343749  0.55712834  1
  O  O30  1  0.38653364  0.28900898  0.05712053  1
  O  O31  1  0.90246646  0.61346168  0.44287462  1
  O  O32  1  0.90249348  0.28905373  0.55712826  1
  O  O33  1  0.71094084  0.61343635  0.94287830  1
  O  O34  1  0.38653510  0.28900251  0.44287531  1
  O  O35  1  0.90249587  0.28905734  0.94287806  1
  O  O36  1  0.38656534  0.09750758  0.55712825  1
  O  O37  1  0.38656571  0.09750611  0.94287836  1
loop_
_geom_bond_atom_site_label_1
_geom_bond_atom_site_label_2
_geom_bond_distance
_geom_bond_site_symmetry_2
O0 Ta0 1.909554 1_555
O0 Ta2 1.909976 1_555
O1 Ta1 1.909581 1_555
O1 Ta5 1.909971 1_555
O2 Ta7 1.909711 1_555
O2 Ta3 1.910025 1_555
O3 Ta4 1.909589 1_555
O3 Ta8 1.909977 1_555
O4 Ta9 1.909719 1_555
O4 Ta6 1.910031 1_555
O5 Ta11 1.909711 1_555
O5 Ta10 1.910020 1_555
O6 Ta1 1.983515 1_455
O6 Ta4 1.991029 1_555
O6 Ta0 2.465328 1_455
O7 Ta4 1.983532 1_555
O7 Ta0 1.991043 1_565
O7 Ta1 2.465268 1_555
O8 Ta5 1.983477 1_455
O8 Ta8 1.991008 1_555
O8 Ta2 2.465353 1_455
O9 Ta6 1.983554 1_455
O9 Ta10 1.991069 1_565
O9 Ta3 2.465254 1_455
O10 Ta0 1.983516 1_565
O10 Ta1 1.991041 1_455
O10 Ta4 2.465269 1_565
O11 Ta8 1.983484 1_555
O11 Ta2 1.991040 1_565
O11 Ta5 2.465297 1_555
O12 Ta10 1.983568 1_565
O12 Ta3 1.991045 1_555
O12 Ta6 2.465256 1_565
O13 Ta9 1.983508 1_455
O13 Ta11 1.991050 1_565
O13 Ta7 2.465290 1_455
O14 Ta2 1.983490 1_565
O14 Ta5 1.991015 1_455
O14 Ta8 2.465301 1_565
O15 Ta11 1.983542 1_565
O15 Ta7 1.991032 1_555
O15 Ta9 2.465344 1_565
O16 Ta3 1.983562 1_555
O16 Ta6 1.991063 1_455
O16 Ta10 2.465214 1_555
O17 Ta7 1.983540 1_555
O17 Ta9 1.991036 1_455
O17 Ta11 2.465246 1_555
O18 Ta0 2.013078 1_555
O18 Ta1 2.013096 1_555
O18 Ta4 2.013098 1_555
O19 Ta2 2.013094 1_555
O19 Ta8 2.013120 1_555
O19 Ta5 2.013124 1_555
O20 Ta10 2.013205 1_555
O20 Ta6 2.013216 1_555
O20 Ta3 2.013219 1_555
O21 Ta7 2.013198 1_555
O21 Ta11 2.013198 1_555
O21 Ta9 2.013203 1_555
O22 Ta4 2.069913 1_555
O22 Ta1 2.069913 1_445
O22 Ta0 2.069930 1_455
O22 Pr0 2.642706 1_554
O23 Ta5 2.069870 1_445
O23 Ta8 2.069879 1_555
O23 Ta2 2.069882 1_455
O23 Pr1 2.642928 1_555
O24 Ta6 2.069917 1_455
O24 Ta10 2.069919 1_555
O24 Ta3 2.069929 1_445
O24 Pr1 2.642252 1_555
O25 Ta11 2.069974 1_555
O25 Ta7 2.069992 1_445
O25 Ta9 2.070006 1_455
O25 Pr0 2.642042 1_555
O26 Ta12 1.990110 1_555
O26 Ta0 2.021554 1_555
O26 Pr0 2.456899 1_654
O27 Ta12 1.990104 1_555
O27 Ta1 2.021533 1_555
O27 Pr0 2.456893 1_664
O28 Ta13 1.990184 1_555
O28 Ta2 2.021407 1_555
O28 Pr1 2.456920 1_655
O29 Ta13 1.990190 1_555
O29 Ta3 2.021330 1_555
O29 Pr1 2.457016 1_665
O30 Ta12 1.990111 1_555
O30 Ta4 2.021525 1_555
O30 Pr0 2.456896 1_554
O31 Ta13 1.990180 1_555
O31 Ta5 2.021399 1_555
O31 Pr1 2.456920 1_665
O32 Ta13 1.990205 1_555
O32 Ta6 2.021308 1_555
O32 Pr1 2.457011 1_655
O33 Ta12 1.990162 1_556
O33 Ta7 2.021451 1_555
O33 Pr0 2.456954 1_665
O34 Ta13 1.990181 1_555
O34 Ta8 2.021403 1_555
O34 Pr1 2.456918 1_555
O35 Ta12 1.990168 1_556
O35 Ta9 2.021463 1_555
O35 Pr0 2.456945 1_655
O36 Ta13 1.990186 1_555
O36 Ta10 2.021317 1_555
O36 Pr1 2.457032 1_555
O37 Ta12 1.990160 1_556
O37 Ta11 2.021465 1_555
O37 Pr0 2.456949 1_555
