# generated using pymatgen
data_Sm2Fe14C
_symmetry_space_group_name_H-M   'P 1'
_cell_length_a   8.72900300
_cell_length_b   8.72900300
_cell_length_c   11.82989300
_cell_angle_alpha   90.00000000
_cell_angle_beta   90.00000000
_cell_angle_gamma   90.00000000
_symmetry_Int_Tables_number   1
_chemical_formula_structural   Sm2Fe14C
_chemical_formula_sum   'Sm8 Fe56 C4'
_cell_volume   901.38453370
_cell_formula_units_Z   4
loop_
 _symmetry_equiv_pos_site_id
 _symmetry_equiv_pos_as_xyz
  1  'x, y, z'
loop_
 _atom_site_type_symbol
 _atom_site_label
 _atom_site_symmetry_multiplicity
 _atom_site_fract_x
 _atom_site_fract_y
 _atom_site_fract_z
 _atom_site_occupancy
  Sm  Sm0  1  0.23940500  0.76059500  0.50000000  1
  Sm  Sm1  1  0.76059500  0.23940500  0.50000000  1
  Sm  Sm2  1  0.26059500  0.26059500  0.00000000  1
  Sm  Sm3  1  0.73940500  0.73940500  0.00000000  1
  Sm  Sm4  1  0.64344500  0.64344500  0.50000000  1
  Sm  Sm5  1  0.35655500  0.35655500  0.50000000  1
  Sm  Sm6  1  0.85655500  0.14344500  0.00000000  1
  Sm  Sm7  1  0.14344500  0.85655500  0.00000000  1
  Fe  Fe0  1  0.00000000  0.50000000  0.50000000  1
  Fe  Fe1  1  0.50000000  0.00000000  0.00000000  1
  Fe  Fe2  1  0.50000000  0.00000000  0.50000000  1
  Fe  Fe3  1  0.00000000  0.50000000  0.00000000  1
  Fe  Fe4  1  0.50000000  0.50000000  0.10716700  1
  Fe  Fe5  1  0.00000000  0.00000000  0.60716700  1
  Fe  Fe6  1  0.50000000  0.50000000  0.89283300  1
  Fe  Fe7  1  0.00000000  0.00000000  0.39283300  1
  Fe  Fe8  1  0.18339900  0.81660100  0.25473100  1
  Fe  Fe9  1  0.81660100  0.18339900  0.25473100  1
  Fe  Fe10  1  0.31660100  0.31660100  0.75473100  1
  Fe  Fe11  1  0.68339900  0.68339900  0.75473100  1
  Fe  Fe12  1  0.81660100  0.18339900  0.74526900  1
  Fe  Fe13  1  0.18339900  0.81660100  0.74526900  1
  Fe  Fe14  1  0.68339900  0.68339900  0.24526900  1
  Fe  Fe15  1  0.31660100  0.31660100  0.24526900  1
  Fe  Fe16  1  0.40255600  0.59744400  0.29394600  1
  Fe  Fe17  1  0.59744400  0.40255600  0.29394600  1
  Fe  Fe18  1  0.09744400  0.09744400  0.79394600  1
  Fe  Fe19  1  0.90255600  0.90255600  0.79394600  1
  Fe  Fe20  1  0.59744400  0.40255600  0.70605400  1
  Fe  Fe21  1  0.40255600  0.59744400  0.70605400  1
  Fe  Fe22  1  0.90255600  0.90255600  0.20605400  1
  Fe  Fe23  1  0.09744400  0.09744400  0.20605400  1
  Fe  Fe24  1  0.14101200  0.53579900  0.32372100  1
  Fe  Fe25  1  0.85898800  0.46420100  0.32372100  1
  Fe  Fe26  1  0.35898800  0.03579900  0.82372100  1
  Fe  Fe27  1  0.64101200  0.96420100  0.82372100  1
  Fe  Fe28  1  0.85898800  0.46420100  0.67627900  1
  Fe  Fe29  1  0.14101200  0.53579900  0.67627900  1
  Fe  Fe30  1  0.64101200  0.96420100  0.17627900  1
  Fe  Fe31  1  0.35898800  0.03579900  0.17627900  1
  Fe  Fe32  1  0.53579900  0.14101200  0.32372100  1
  Fe  Fe33  1  0.46420100  0.85898800  0.32372100  1
  Fe  Fe34  1  0.03579900  0.35898800  0.82372100  1
  Fe  Fe35  1  0.96420100  0.64101200  0.82372100  1
  Fe  Fe36  1  0.46420100  0.85898800  0.67627900  1
  Fe  Fe37  1  0.53579900  0.14101200  0.67627900  1
  Fe  Fe38  1  0.96420100  0.64101200  0.17627900  1
  Fe  Fe39  1  0.03579900  0.35898800  0.17627900  1
  Fe  Fe40  1  0.93479700  0.72584900  0.37871100  1
  Fe  Fe41  1  0.06520300  0.27415100  0.37871100  1
  Fe  Fe42  1  0.56520300  0.22584900  0.87871100  1
  Fe  Fe43  1  0.43479700  0.77415100  0.87871100  1
  Fe  Fe44  1  0.06520300  0.27415100  0.62128900  1
  Fe  Fe45  1  0.93479700  0.72584900  0.62128900  1
  Fe  Fe46  1  0.43479700  0.77415100  0.12128900  1
  Fe  Fe47  1  0.56520300  0.22584900  0.12128900  1
  Fe  Fe48  1  0.72584900  0.93479700  0.37871100  1
  Fe  Fe49  1  0.27415100  0.06520300  0.37871100  1
  Fe  Fe50  1  0.22584900  0.56520300  0.87871100  1
  Fe  Fe51  1  0.77415100  0.43479700  0.87871100  1
  Fe  Fe52  1  0.27415100  0.06520300  0.62128900  1
  Fe  Fe53  1  0.72584900  0.93479700  0.62128900  1
  Fe  Fe54  1  0.77415100  0.43479700  0.12128900  1
  Fe  Fe55  1  0.22584900  0.56520300  0.12128900  1
  C  C0  1  0.87314300  0.87314300  0.50000000  1
  C  C1  1  0.12685700  0.12685700  0.50000000  1
  C  C2  1  0.62685700  0.37314300  0.00000000  1
  C  C3  1  0.37314300  0.62685700  0.00000000  1
loop_
_geom_bond_atom_site_label_1
_geom_bond_atom_site_label_2
_geom_bond_distance
_geom_bond_site_symmetry_2
Fe0 Fe29 2.441615 1_555
Fe0 Fe28 2.441615 1_455
Fe0 Fe24 2.441615 1_555
Fe0 Fe25 2.441615 1_455
Fe0 Fe45 2.503848 1_455
Fe0 Fe40 2.503848 1_455
Fe0 Fe44 2.503848 1_555
Fe0 Fe41 2.503848 1_555
Fe0 Sm1 3.088939 1_455
Fe0 Sm0 3.088939 1_555
Fe0 Sm4 3.354799 1_455
Fe0 Sm5 3.354799 1_555
Fe1 Fe31 2.441615 1_555
Fe1 Fe27 2.441615 1_544
Fe1 Fe26 2.441615 1_554
Fe1 Fe30 2.441615 1_545
Fe1 Fe42 2.503848 1_554
Fe1 Fe43 2.503848 1_544
Fe1 Fe46 2.503848 1_545
Fe1 Fe47 2.503848 1_555
Fe1 Sm2 3.088939 1_555
Fe1 Sm3 3.088939 1_545
Fe1 Sm6 3.354799 1_555
Fe1 Sm7 3.354799 1_545
Fe2 Fe37 2.441615 1_555
Fe2 Fe36 2.441615 1_545
Fe2 Fe32 2.441615 1_555
Fe2 Fe33 2.441615 1_545
Fe2 Fe53 2.503848 1_545
Fe2 Fe52 2.503848 1_555
Fe2 Fe49 2.503848 1_555
Fe2 Fe48 2.503848 1_545
Fe2 Sm0 3.088939 1_545
Fe2 Sm1 3.088939 1_555
Fe2 Sm4 3.354799 1_545
Fe2 Sm5 3.354799 1_555
Fe3 Fe34 2.441615 1_554
Fe3 Fe35 2.441615 1_454
Fe3 Fe39 2.441615 1_555
Fe3 Fe38 2.441615 1_455
Fe3 Fe51 2.503848 1_454
Fe3 Fe55 2.503848 1_555
Fe3 Fe50 2.503848 1_554
Fe3 Fe54 2.503848 1_455
Fe3 Sm2 3.088939 1_555
Fe3 Sm3 3.088939 1_455
Fe3 Sm7 3.354799 1_555
Fe3 Sm6 3.354799 1_455
Fe4 Sm2 3.215821 1_555
Fe4 Sm3 3.215821 1_555
Fe5 Sm0 3.215821 1_545
Fe5 Sm1 3.215821 1_455
Fe6 Sm2 3.215821 1_556
Fe6 Sm3 3.215821 1_556
Fe7 Fe9 2.791913 1_455
Fe7 Fe8 2.791913 1_545
Fe7 Sm0 3.215821 1_545
Fe7 Sm1 3.215821 1_455
Fe8 Sm0 2.982740 1_555
Fe8 Sm7 3.053537 1_555
Fe9 Sm1 2.982740 1_555
Fe9 Sm6 3.053537 1_555
Fe10 Fe26 2.609786 1_555
Fe10 Fe34 2.609786 1_555
Fe10 Fe29 2.621369 1_555
Fe10 Fe37 2.621369 1_555
Fe10 Fe20 2.627603 1_555
Fe10 Fe21 2.627603 1_555
Fe10 Fe44 2.728539 1_555
Fe10 Fe52 2.728539 1_555
Fe10 Fe42 2.736379 1_555
Fe10 Fe50 2.736379 1_555
Fe10 Fe18 2.744908 1_555
Fe10 Fe6 2.791913 1_555
Fe10 Sm2 2.982740 1_556
Fe10 Sm5 3.053537 1_555
Fe11 Fe27 2.609786 1_555
Fe11 Fe35 2.609786 1_555
Fe11 Fe28 2.621369 1_555
Fe11 Fe36 2.621369 1_555
Fe11 Fe20 2.627603 1_555
Fe11 Fe21 2.627603 1_555
Fe11 Fe53 2.728539 1_555
Fe11 Fe45 2.728539 1_555
Fe11 Fe51 2.736379 1_555
Fe11 Fe43 2.736379 1_555
Fe11 Fe19 2.744908 1_555
Fe11 Fe6 2.791913 1_555
Fe11 Sm3 2.982740 1_556
Fe11 Sm4 3.053537 1_555
Fe12 Fe28 2.609786 1_555
Fe12 Fe37 2.609786 1_555
Fe12 Fe34 2.621369 1_655
Fe12 Fe27 2.621369 1_545
Fe12 Fe19 2.627603 1_545
Fe12 Fe18 2.627603 1_655
Fe12 Fe51 2.728539 1_555
Fe12 Fe42 2.728539 1_555
Fe12 Fe44 2.736379 1_655
Fe12 Fe53 2.736379 1_545
Fe12 Fe20 2.744908 1_555
Fe12 Fe5 2.791913 1_655
Fe12 Sm1 2.982740 1_555
Fe12 Sm6 3.053537 1_556
Fe13 Fe29 2.609786 1_555
Fe13 Fe36 2.609786 1_555
Fe13 Fe26 2.621369 1_565
Fe13 Fe35 2.621369 1_455
Fe13 Fe19 2.627603 1_455
Fe13 Fe18 2.627603 1_565
Fe13 Fe43 2.728539 1_555
Fe13 Fe50 2.728539 1_555
Fe13 Fe52 2.736379 1_565
Fe13 Fe45 2.736379 1_455
Fe13 Fe21 2.744908 1_555
Fe13 Fe5 2.791913 1_565
Fe13 Sm0 2.982740 1_555
Fe13 Sm7 3.053537 1_556
Fe14 Fe30 2.609786 1_555
Fe14 Fe38 2.609786 1_555
Fe14 Fe33 2.621369 1_555
Fe14 Fe25 2.621369 1_555
Fe14 Fe16 2.627603 1_555
Fe14 Fe17 2.627603 1_555
Fe14 Fe48 2.728539 1_555
Fe14 Fe40 2.728539 1_555
Fe14 Fe54 2.736379 1_555
Fe14 Fe46 2.736379 1_555
Fe14 Fe22 2.744908 1_555
Fe14 Fe4 2.791913 1_555
Fe14 Sm3 2.982740 1_555
Fe14 Sm4 3.053537 1_555
Fe15 Fe31 2.609786 1_555
Fe15 Fe39 2.609786 1_555
Fe15 Fe32 2.621369 1_555
Fe15 Fe24 2.621369 1_555
Fe15 Fe16 2.627603 1_555
Fe15 Fe17 2.627603 1_555
Fe15 Fe41 2.728539 1_555
Fe15 Fe49 2.728539 1_555
Fe15 Fe55 2.736379 1_555
Fe15 Fe47 2.736379 1_555
Fe15 Fe23 2.744908 1_555
Fe15 Fe4 2.791913 1_555
Fe15 Sm2 2.982740 1_555
Fe15 Sm5 3.053537 1_555
Fe16 Fe33 2.371875 1_555
Fe16 Fe24 2.371875 1_555
Fe16 Fe17 2.405829 1_555
Fe16 Fe4 2.515796 1_555
Fe16 Fe55 2.574937 1_555
Fe16 Fe46 2.574937 1_555
Fe16 Fe8 2.744908 1_555
Fe16 Sm0 3.162002 1_555
Fe16 Sm5 3.244156 1_555
Fe16 Sm4 3.244156 1_555
Fe17 Fe25 2.371875 1_555
Fe17 Fe32 2.371875 1_555
Fe17 Fe4 2.515796 1_555
Fe17 Fe54 2.574937 1_555
Fe17 Fe47 2.574937 1_555
Fe17 Fe9 2.744908 1_555
Fe17 Sm1 3.162002 1_555
Fe17 Sm5 3.244156 1_555
Fe17 Sm4 3.244156 1_555
Fe18 Fe34 2.371875 1_555
Fe18 Fe26 2.371875 1_555
Fe18 Fe19 2.405829 1_445
Fe18 Fe5 2.515796 1_555
Fe18 Fe44 2.574937 1_555
Fe18 Fe52 2.574937 1_555
Fe18 Sm2 3.162002 1_556
Fe18 Sm7 3.244156 1_546
Fe18 Sm6 3.244156 1_456
Fe19 Fe35 2.371875 1_555
Fe19 Fe27 2.371875 1_555
Fe19 Fe5 2.515796 1_665
Fe19 Fe53 2.574937 1_555
Fe19 Fe45 2.574937 1_555
Fe19 Sm3 3.162002 1_556
Fe19 Sm7 3.244156 1_656
Fe19 Sm6 3.244156 1_566
Fe20 Fe37 2.371875 1_555
Fe20 Fe28 2.371875 1_555
Fe20 Fe21 2.405829 1_555
Fe20 Fe6 2.515796 1_555
Fe20 Fe51 2.574937 1_555
Fe20 Fe42 2.574937 1_555
Fe20 Sm1 3.162002 1_555
Fe20 Sm4 3.244156 1_555
Fe20 Sm5 3.244156 1_555
Fe21 Fe29 2.371875 1_555
Fe21 Fe36 2.371875 1_555
Fe21 Fe6 2.515796 1_555
Fe21 Fe43 2.574937 1_555
Fe21 Fe50 2.574937 1_555
Fe21 Sm0 3.162002 1_555
Fe21 Sm4 3.244156 1_555
Fe21 Sm5 3.244156 1_555
Fe22 Fe30 2.371875 1_555
Fe22 Fe38 2.371875 1_555
Fe22 Fe23 2.405829 1_665
Fe22 Fe7 2.515796 1_665
Fe22 Fe40 2.574937 1_555
Fe22 Fe48 2.574937 1_555
Fe22 Fe8 2.627603 1_655
Fe22 Fe9 2.627603 1_565
Fe22 Sm3 3.162002 1_555
Fe22 Sm7 3.244156 1_655
Fe22 Sm6 3.244156 1_565
Fe23 Fe39 2.371875 1_555
Fe23 Fe31 2.371875 1_555
Fe23 Fe7 2.515796 1_555
Fe23 Fe49 2.574937 1_555
Fe23 Fe41 2.574937 1_555
Fe23 Fe8 2.627603 1_545
Fe23 Fe9 2.627603 1_455
Fe23 Sm2 3.162002 1_555
Fe23 Sm6 3.244156 1_455
Fe23 Sm7 3.244156 1_545
Fe24 Fe41 2.465238 1_555
Fe24 Fe39 2.503560 1_555
Fe24 Fe38 2.503560 1_455
Fe24 Fe55 2.519743 1_555
Fe24 Fe40 2.532879 1_455
Fe24 Fe25 2.539882 1_455
Fe24 Fe8 2.609786 1_555
Fe24 Sm0 2.989448 1_555
Fe24 Sm5 3.215078 1_555
Fe25 Fe40 2.465238 1_555
Fe25 Fe39 2.503560 1_655
Fe25 Fe38 2.503560 1_555
Fe25 Fe54 2.519743 1_555
Fe25 Fe41 2.532879 1_655
Fe25 Fe9 2.609786 1_555
Fe25 Sm1 2.989448 1_555
Fe25 Sm4 3.215078 1_555
Fe26 Fe43 2.465238 1_545
Fe26 Fe36 2.503560 1_545
Fe26 Fe37 2.503560 1_555
Fe26 Fe52 2.519743 1_555
Fe26 Fe42 2.532879 1_555
Fe26 Fe27 2.539882 1_545
Fe26 Sm2 2.989448 1_556
Fe26 Sm7 3.215078 1_546
Fe27 Fe42 2.465238 1_565
Fe27 Fe37 2.503560 1_565
Fe27 Fe36 2.503560 1_555
Fe27 Fe53 2.519743 1_555
Fe27 Fe43 2.532879 1_555
Fe27 Sm3 2.989448 1_556
Fe27 Sm6 3.215078 1_566
Fe28 Fe45 2.465238 1_555
Fe28 Fe34 2.503560 1_655
Fe28 Fe35 2.503560 1_555
Fe28 Fe51 2.519743 1_555
Fe28 Fe44 2.532879 1_655
Fe28 Fe29 2.539882 1_655
Fe28 Sm1 2.989448 1_555
Fe28 Sm4 3.215078 1_555
Fe29 Fe44 2.465238 1_555
Fe29 Fe35 2.503560 1_455
Fe29 Fe34 2.503560 1_555
Fe29 Fe50 2.519743 1_555
Fe29 Fe45 2.532879 1_455
Fe29 Sm0 2.989448 1_555
Fe29 Sm5 3.215078 1_555
Fe30 Fe47 2.465238 1_565
Fe30 Fe32 2.503560 1_565
Fe30 Fe33 2.503560 1_555
Fe30 Fe48 2.519743 1_555
Fe30 Fe46 2.532879 1_555
Fe30 Fe31 2.539882 1_565
Fe30 Fe9 2.621369 1_565
Fe30 Sm3 2.989448 1_555
Fe30 Sm6 3.215078 1_565
Fe31 Fe46 2.465238 1_545
Fe31 Fe33 2.503560 1_545
Fe31 Fe32 2.503560 1_555
Fe31 Fe49 2.519743 1_555
Fe31 Fe47 2.532879 1_555
Fe31 Fe8 2.621369 1_545
Fe31 Sm2 2.989448 1_555
Fe31 Sm7 3.215078 1_545
Fe32 Fe49 2.465238 1_555
Fe32 Fe47 2.519743 1_555
Fe32 Fe48 2.532879 1_545
Fe32 Fe33 2.539882 1_545
Fe32 Fe9 2.609786 1_555
Fe32 Sm1 2.989448 1_555
Fe32 Sm5 3.215078 1_555
Fe33 Fe48 2.465238 1_555
Fe33 Fe46 2.519743 1_555
Fe33 Fe49 2.532879 1_565
Fe33 Fe8 2.609786 1_555
Fe33 Sm0 2.989448 1_555
Fe33 Sm4 3.215078 1_555
Fe34 Fe51 2.465238 1_455
Fe34 Fe44 2.519743 1_555
Fe34 Fe50 2.532879 1_555
Fe34 Fe35 2.539882 1_455
Fe34 Sm2 2.989448 1_556
Fe34 Sm6 3.215078 1_456
Fe35 Fe50 2.465238 1_655
Fe35 Fe45 2.519743 1_555
Fe35 Fe51 2.532879 1_555
Fe35 Sm3 2.989448 1_556
Fe35 Sm7 3.215078 1_656
Fe36 Fe53 2.465238 1_555
Fe36 Fe43 2.519743 1_555
Fe36 Fe52 2.532879 1_565
Fe36 Fe37 2.539882 1_565
Fe36 Sm0 2.989448 1_555
Fe36 Sm4 3.215078 1_555
Fe37 Fe52 2.465238 1_555
Fe37 Fe42 2.519743 1_555
Fe37 Fe53 2.532879 1_545
Fe37 Sm1 2.989448 1_555
Fe37 Sm5 3.215078 1_555
Fe38 Fe55 2.465238 1_655
Fe38 Fe40 2.519743 1_555
Fe38 Fe54 2.532879 1_555
Fe38 Fe39 2.539882 1_655
Fe38 Fe8 2.621369 1_655
Fe38 Sm3 2.989448 1_555
Fe38 Sm7 3.215078 1_655
Fe39 Fe54 2.465238 1_455
Fe39 Fe41 2.519743 1_555
Fe39 Fe55 2.532879 1_555
Fe39 Fe9 2.621369 1_455
Fe39 Sm2 2.989448 1_555
Fe39 Sm6 3.215078 1_455
Fe40 Fe8 2.736379 1_655
Fe40 Sm4 3.007338 1_555
Fe40 Sm0 3.036548 1_655
Fe41 Fe9 2.736379 1_455
Fe41 Sm5 3.007338 1_555
Fe41 Sm1 3.036548 1_455
Fe42 Sm6 3.007338 1_556
Fe42 Sm2 3.036548 1_556
Fe43 Sm7 3.007338 1_556
Fe43 Sm3 3.036548 1_556
Fe44 Sm5 3.007338 1_555
Fe44 Sm1 3.036548 1_455
Fe45 Sm4 3.007338 1_555
Fe45 Sm0 3.036548 1_655
Fe46 Fe8 2.728539 1_555
Fe46 Sm7 3.007338 1_555
Fe46 Sm3 3.036548 1_555
Fe47 Fe9 2.728539 1_555
Fe47 Sm6 3.007338 1_555
Fe47 Sm2 3.036548 1_555
Fe48 Fe9 2.736379 1_565
Fe48 Sm4 3.007338 1_555
Fe48 Sm1 3.036548 1_565
Fe49 Fe8 2.736379 1_545
Fe49 Sm5 3.007338 1_555
Fe49 Sm0 3.036548 1_545
Fe50 Sm7 3.007338 1_556
Fe50 Sm2 3.036548 1_556
Fe51 Sm6 3.007338 1_556
Fe51 Sm3 3.036548 1_556
Fe52 Sm5 3.007338 1_555
Fe52 Sm0 3.036548 1_545
Fe53 Sm4 3.007338 1_555
Fe53 Sm1 3.036548 1_565
Fe54 Fe9 2.728539 1_555
Fe54 Sm6 3.007338 1_555
Fe54 Sm3 3.036548 1_555
Fe55 Fe8 2.728539 1_555
Fe55 Sm7 3.007338 1_555
Fe55 Sm2 3.036548 1_555
C0 Fe40 2.000373 1_555
C0 Fe53 2.000373 1_555
C0 Fe48 2.000373 1_555
C0 Fe45 2.000373 1_555
C0 Fe7 2.014853 1_665
C0 Fe5 2.014853 1_665
C0 Sm4 2.835547 1_555
C1 Fe52 2.000373 1_555
C1 Fe49 2.000373 1_555
C1 Fe44 2.000373 1_555
C1 Fe41 2.000373 1_555
C1 Fe5 2.014853 1_555
C1 Fe7 2.014853 1_555
C1 Sm5 2.835547 1_555
C2 Fe47 2.000373 1_555
C2 Fe51 2.000373 1_554
C2 Fe54 2.000373 1_555
C2 Fe42 2.000373 1_554
C2 Fe4 2.014853 1_555
C2 Fe6 2.014853 1_554
C2 Sm6 2.835547 1_555
C3 Fe55 2.000373 1_555
C3 Fe43 2.000373 1_554
C3 Fe50 2.000373 1_554
C3 Fe46 2.000373 1_555
C3 Fe4 2.014853 1_555
C3 Fe6 2.014853 1_554
C3 Sm7 2.835547 1_555
