# generated using pymatgen
data_YbSnRh
_symmetry_space_group_name_H-M   'P 1'
_cell_length_a   7.30628575
_cell_length_b   7.30628575
_cell_length_c   4.13764700
_cell_angle_alpha   90.00000000
_cell_angle_beta   90.00000000
_cell_angle_gamma   119.99999778
_symmetry_Int_Tables_number   1
_chemical_formula_structural   YbSnRh
_chemical_formula_sum   'Yb3 Sn3 Rh3'
_cell_volume   191.28344530
_cell_formula_units_Z   3
loop_
 _symmetry_equiv_pos_site_id
 _symmetry_equiv_pos_as_xyz
  1  'x, y, z'
loop_
 _atom_site_type_symbol
 _atom_site_label
 _atom_site_symmetry_multiplicity
 _atom_site_fract_x
 _atom_site_fract_y
 _atom_site_fract_z
 _atom_site_occupancy
  Yb  Yb0  1  0.00000000  0.40926800  0.00000000  1
  Yb  Yb1  1  0.59073200  0.59073200  0.00000000  1
  Yb  Yb2  1  0.40926800  0.00000000  0.00000000  1
  Sn  Sn0  1  0.25774200  0.25774200  0.50000000  1
  Sn  Sn1  1  0.00000000  0.74225800  0.50000000  1
  Sn  Sn2  1  0.74225800  0.00000000  0.50000000  1
  Rh  Rh0  1  0.66666700  0.33333300  0.50000000  1
  Rh  Rh1  1  0.33333300  0.66666700  0.50000000  1
  Rh  Rh2  1  0.00000000  0.00000000  0.00000000  1
loop_
_geom_bond_atom_site_label_1
_geom_bond_atom_site_label_2
_geom_bond_distance
_geom_bond_site_symmetry_2
Sn0 Yb1 3.193608 1_556
Sn0 Yb1 3.193608 1_555
Sn0 Yb2 3.337169 1_556
Sn0 Yb2 3.337169 1_555
Sn0 Yb0 3.337169 1_555
Sn0 Yb0 3.337169 1_556
Sn1 Yb0 3.193608 1_556
Sn1 Yb0 3.193608 1_555
Sn1 Yb1 3.337169 1_455
Sn1 Yb1 3.337169 1_456
Sn1 Yb2 3.337169 1_566
Sn1 Yb2 3.337169 1_565
Sn2 Yb2 3.193608 1_556
Sn2 Yb2 3.193608 1_555
Sn2 Yb1 3.337169 1_545
Sn2 Yb1 3.337169 1_546
Sn2 Yb0 3.337169 1_655
Sn2 Yb0 3.337169 1_656
Rh0 Sn2 2.753431 1_555
Rh0 Sn1 2.753436 1_655
Rh0 Sn0 2.753439 1_555
Rh0 Yb0 3.027863 1_655
Rh0 Yb0 3.027863 1_656
Rh0 Yb2 3.027865 1_555
Rh0 Yb2 3.027865 1_556
Rh0 Yb1 3.027868 1_556
Rh0 Yb1 3.027868 1_555
Rh1 Sn1 2.753431 1_555
Rh1 Sn2 2.753436 1_565
Rh1 Sn0 2.753439 1_555
Rh1 Yb2 3.027863 1_565
Rh1 Yb2 3.027863 1_566
Rh1 Yb0 3.027865 1_555
Rh1 Yb0 3.027865 1_556
Rh1 Yb1 3.027868 1_556
Rh1 Yb1 3.027868 1_555
Rh2 Sn2 2.797541 1_455
Rh2 Sn1 2.797541 1_544
Rh2 Sn2 2.797541 1_454
Rh2 Sn1 2.797541 1_545
Rh2 Sn0 2.797541 1_555
Rh2 Sn0 2.797541 1_554
Rh2 Yb0 2.990229 1_555
Rh2 Yb2 2.990229 1_555
Rh2 Yb1 2.990229 1_445
