# generated using pymatgen
data_KFeBP2HO9
_symmetry_space_group_name_H-M   'P 1'
_cell_length_a   8.31939100
_cell_length_b   9.53207486
_cell_length_c   9.75164720
_cell_angle_alpha   102.02068616
_cell_angle_beta   90.00000000
_cell_angle_gamma   90.00000000
_symmetry_Int_Tables_number   1
_chemical_formula_structural   KFeBP2HO9
_chemical_formula_sum   'K4 Fe4 B4 P8 H4 O36'
_cell_volume   756.35903179
_cell_formula_units_Z   4
loop_
 _symmetry_equiv_pos_site_id
 _symmetry_equiv_pos_as_xyz
  1  'x, y, z'
loop_
 _atom_site_type_symbol
 _atom_site_label
 _atom_site_symmetry_multiplicity
 _atom_site_fract_x
 _atom_site_fract_y
 _atom_site_fract_z
 _atom_site_occupancy
  K  K0  1  0.41186200  0.19390400  0.07598300  1
  K  K1  1  0.91186200  0.80609600  0.42401700  1
  K  K2  1  0.58813800  0.80609600  0.92401700  1
  K  K3  1  0.08813800  0.19390400  0.57598300  1
  Fe  Fe0  1  0.65512000  0.20861500  0.43316100  1
  Fe  Fe1  1  0.15512000  0.79138500  0.06683900  1
  Fe  Fe2  1  0.34488000  0.79138500  0.56683900  1
  Fe  Fe3  1  0.84488000  0.20861500  0.93316100  1
  B  B0  1  0.06826200  0.33244800  0.19179800  1
  B  B1  1  0.56826200  0.66755200  0.30820200  1
  B  B2  1  0.93173800  0.66755200  0.80820200  1
  B  B3  1  0.43173800  0.33244800  0.69179800  1
  P  P0  1  0.55642600  0.07818100  0.71060300  1
  P  P1  1  0.05642600  0.92181900  0.78939700  1
  P  P2  1  0.44357400  0.92181900  0.28939700  1
  P  P3  1  0.94357400  0.07818100  0.21060300  1
  P  P4  1  0.74721400  0.42140000  0.21850400  1
  P  P5  1  0.24721400  0.57860000  0.28149600  1
  P  P6  1  0.25278600  0.57860000  0.78149600  1
  P  P7  1  0.75278600  0.42140000  0.71850400  1
  H  H0  1  0.40643400  0.39162100  0.49913500  1
  H  H1  1  0.90643400  0.60837900  0.00086500  1
  H  H2  1  0.59356600  0.60837900  0.50086500  1
  H  H3  1  0.09356600  0.39162100  0.99913500  1
  O  O0  1  0.63318500  0.34280100  0.30045800  1
  O  O1  1  0.13318500  0.65719900  0.19954200  1
  O  O2  1  0.36681500  0.65719900  0.69954200  1
  O  O3  1  0.86681500  0.34280100  0.80045800  1
  O  O4  1  0.92683900  0.40918700  0.26275500  1
  O  O5  1  0.42683900  0.59081300  0.23724500  1
  O  O6  1  0.07316100  0.59081300  0.73724500  1
  O  O7  1  0.57316100  0.40918700  0.76275500  1
  O  O8  1  0.77584200  0.37165900  0.56023800  1
  O  O9  1  0.27584200  0.62834100  0.93976200  1
  O  O10  1  0.22415800  0.62834100  0.43976200  1
  O  O11  1  0.72415800  0.37165900  0.06023800  1
  O  O12  1  0.71647700  0.58800400  0.26096400  1
  O  O13  1  0.21647700  0.41199600  0.23903600  1
  O  O14  1  0.28352300  0.41199600  0.73903600  1
  O  O15  1  0.78352300  0.58800400  0.76096400  1
  O  O16  1  0.66287700  0.09611500  0.58643400  1
  O  O17  1  0.16287700  0.90388500  0.91356600  1
  O  O18  1  0.33712300  0.90388500  0.41356600  1
  O  O19  1  0.83712300  0.09611500  0.08643400  1
  O  O20  1  0.51343300  0.07304900  0.30593400  1
  O  O21  1  0.01343300  0.92695100  0.19406600  1
  O  O22  1  0.48656700  0.92695100  0.69406600  1
  O  O23  1  0.98656700  0.07304900  0.80593400  1
  O  O24  1  0.85398600  0.11059200  0.35280300  1
  O  O25  1  0.35398600  0.88940800  0.14719700  1
  O  O26  1  0.14601400  0.88940800  0.64719700  1
  O  O27  1  0.64601400  0.11059200  0.85280300  1
  O  O28  1  0.41107900  0.18916800  0.72480000  1
  O  O29  1  0.91107900  0.81083200  0.77520000  1
  O  O30  1  0.58892100  0.81083200  0.27520000  1
  O  O31  1  0.08892100  0.18916800  0.22480000  1
  O  O32  1  0.44197800  0.30901200  0.53534800  1
  O  O33  1  0.94197800  0.69098800  0.96465200  1
  O  O34  1  0.55802200  0.69098800  0.46465200  1
  O  O35  1  0.05802200  0.30901200  0.03534800  1
loop_
_geom_bond_atom_site_label_1
_geom_bond_atom_site_label_2
_geom_bond_distance
_geom_bond_site_symmetry_2
K0 O13 2.848733 1_555
K0 O20 2.854032 1_555
K0 O27 2.905522 1_554
K0 O0 2.983676 1_555
K0 O31 3.058357 1_555
K0 O11 3.122984 1_555
K0 O25 3.158806 1_545
K0 O35 3.194929 1_555
K0 O28 3.415502 1_554
K1 O12 2.848733 1_555
K1 O21 2.854032 1_655
K1 O26 2.905522 1_655
K1 O1 2.983676 1_655
K1 O30 3.058357 1_555
K1 O10 3.122984 1_655
K1 O24 3.158806 1_565
K1 O34 3.194929 1_555
K1 O29 3.415502 1_555
K2 O15 2.848733 1_555
K2 O22 2.854032 1_555
K2 O25 2.905522 1_556
K2 O2 2.983676 1_555
K2 O29 3.058357 1_555
K2 O9 3.122984 1_555
K2 O27 3.158806 1_565
K2 O33 3.194929 1_555
K2 O30 3.415502 1_556
K3 O14 2.848733 1_555
K3 O23 2.854032 1_455
K3 O24 2.905522 1_455
K3 O3 2.983676 1_455
K3 O28 3.058357 1_555
K3 O8 3.122984 1_455
K3 O26 3.158806 1_545
K3 O32 3.194929 1_555
K3 O31 3.415502 1_555
Fe0 O24 1.979724 1_555
Fe0 O20 1.982618 1_555
Fe0 O0 2.008331 1_555
Fe0 O16 2.013891 1_555
Fe0 O8 2.038995 1_555
Fe0 O32 2.157751 1_555
Fe1 O25 1.979724 1_555
Fe1 O21 1.982618 1_555
Fe1 O1 2.008331 1_555
Fe1 O17 2.013891 1_554
Fe1 O9 2.038995 1_554
Fe1 O33 2.157751 1_454
Fe2 O26 1.979724 1_555
Fe2 O22 1.982618 1_555
Fe2 O2 2.008331 1_555
Fe2 O18 2.013891 1_555
Fe2 O10 2.038995 1_555
Fe2 O34 2.157751 1_555
Fe3 O27 1.979724 1_555
Fe3 O23 1.982618 1_555
Fe3 O3 2.008331 1_555
Fe3 O19 2.013891 1_556
Fe3 O11 2.038995 1_556
Fe3 O35 2.157751 1_656
B0 O13 1.470406 1_555
B0 O31 1.476982 1_555
B0 O4 1.478956 1_455
B0 O35 1.497596 1_555
B1 O12 1.470406 1_555
B1 O30 1.476982 1_555
B1 O5 1.478956 1_555
B1 O34 1.497596 1_555
B2 O15 1.470406 1_555
B2 O29 1.476982 1_555
B2 O6 1.478956 1_655
B2 O33 1.497596 1_555
B3 O14 1.470406 1_555
B3 O28 1.476982 1_555
B3 O7 1.478956 1_555
B3 O32 1.497596 1_555
H0 O32 0.973666 1_555
H1 O33 0.973666 1_554
H2 O34 0.973666 1_555
H3 O35 0.973666 1_556
O0 P4 1.532762 1_555
O1 P5 1.532762 1_555
O2 P6 1.532762 1_555
O3 P7 1.532762 1_555
O4 P4 1.566471 1_555
O5 P5 1.566471 1_555
O6 P6 1.566471 1_555
O7 P7 1.566471 1_555
O8 P7 1.529294 1_555
O9 P6 1.529294 1_555
O10 P5 1.529294 1_555
O11 P4 1.529294 1_555
O12 P4 1.576371 1_555
O13 P5 1.576371 1_555
O14 P6 1.576371 1_555
O15 P7 1.576371 1_555
O16 P0 1.538150 1_555
O17 P1 1.538150 1_555
O18 P2 1.538150 1_555
O19 P3 1.538150 1_555
O20 P2 1.531332 1_545
O21 P3 1.531332 1_465
O22 P0 1.531332 1_565
O23 P1 1.531332 1_645
O24 P3 1.547706 1_555
O25 P2 1.547706 1_555
O26 P1 1.547706 1_555
O27 P0 1.547706 1_555
O28 P0 1.593597 1_555
O29 P1 1.593597 1_655
O30 P2 1.593597 1_555
O31 P3 1.593597 1_455
