# generated using pymatgen
data_Na2CaNi2P4(H5O6)4
_symmetry_space_group_name_H-M   'P 1'
_cell_length_a   8.17733561
_cell_length_b   8.17733561
_cell_length_c   17.45378156
_cell_angle_alpha   102.49711807
_cell_angle_beta   102.49711807
_cell_angle_gamma   94.37409125
_symmetry_Int_Tables_number   1
_chemical_formula_structural   Na2CaNi2P4(H5O6)4
_chemical_formula_sum   'Na4 Ca2 Ni4 P8 H40 O48'
_cell_volume   1103.14845508
_cell_formula_units_Z   2
loop_
 _symmetry_equiv_pos_site_id
 _symmetry_equiv_pos_as_xyz
  1  'x, y, z'
loop_
 _atom_site_type_symbol
 _atom_site_label
 _atom_site_symmetry_multiplicity
 _atom_site_fract_x
 _atom_site_fract_y
 _atom_site_fract_z
 _atom_site_occupancy
  Na  Na0  1  0.92894300  0.84180500  0.69996200  1
  Na  Na1  1  0.14184300  0.22898100  0.30003800  1
  Na  Na2  1  0.09180500  0.67894300  0.19996200  1
  Na  Na3  1  0.47898100  0.89184300  0.80003800  1
  Ca  Ca0  1  0.12661400  0.62661400  0.50000000  1
  Ca  Ca1  1  0.87661400  0.87661400  0.00000000  1
  Ni  Ni0  1  0.99819500  0.25487100  0.71374500  1
  Ni  Ni1  1  0.54112600  0.28445000  0.28625500  1
  Ni  Ni2  1  0.50487100  0.74819500  0.21374500  1
  Ni  Ni3  1  0.53445000  0.29112600  0.78625500  1
  P  P0  1  0.25430200  0.03661400  0.63984800  1
  P  P1  1  0.39676600  0.61445500  0.36015200  1
  P  P2  1  0.28661400  0.00430200  0.13984800  1
  P  P3  1  0.86445500  0.14676600  0.86015200  1
  P  P4  1  0.29518800  0.38645800  0.63587200  1
  P  P5  1  0.75058600  0.65931500  0.36412800  1
  P  P6  1  0.63645800  0.04518800  0.13587200  1
  P  P7  1  0.90931500  0.50058600  0.86412800  1
  H  H0  1  0.70149700  0.28568000  0.60111400  1
  H  H1  1  0.68456600  0.10038200  0.39888600  1
  H  H2  1  0.53568000  0.45149700  0.10111400  1
  H  H3  1  0.35038200  0.43456600  0.89888600  1
  H  H4  1  0.70032800  0.09436800  0.61271800  1
  H  H5  1  0.48165000  0.08761000  0.38728200  1
  H  H6  1  0.34436800  0.45032800  0.11271800  1
  H  H7  1  0.33761000  0.23165000  0.88728200  1
  H  H8  1  0.18764000  0.80019400  0.83296200  1
  H  H9  1  0.96723100  0.35467700  0.16703800  1
  H  H10  1  0.05019400  0.93764000  0.33296200  1
  H  H11  1  0.60467700  0.71723100  0.66703800  1
  H  H12  1  0.15244300  0.63570700  0.76458400  1
  H  H13  1  0.87112200  0.38785900  0.23541600  1
  H  H14  1  0.88570700  0.90244300  0.26458400  1
  H  H15  1  0.63785900  0.62112200  0.73541600  1
  H  H16  1  0.81746900  0.54704800  0.56670900  1
  H  H17  1  0.98033900  0.25076000  0.43329100  1
  H  H18  1  0.79704800  0.56746900  0.06670900  1
  H  H19  1  0.50076000  0.73033900  0.93329100  1
  H  H20  1  0.99564800  0.52151300  0.61933800  1
  H  H21  1  0.90217500  0.37631100  0.38066200  1
  H  H22  1  0.77151300  0.74564800  0.11933800  1
  H  H23  1  0.62631100  0.65217500  0.88066200  1
  H  H24  1  0.61195600  0.81976200  0.52475300  1
  H  H25  1  0.29500900  0.08720300  0.47524700  1
  H  H26  1  0.06976200  0.36195600  0.02475300  1
  H  H27  1  0.33720300  0.04500900  0.97524700  1
  H  H28  1  0.48628600  0.87315600  0.57908900  1
  H  H29  1  0.29406700  0.90719700  0.42091100  1
  H  H30  1  0.12315600  0.23628600  0.07908900  1
  H  H31  1  0.15719700  0.04406700  0.92091100  1
  H  H32  1  0.50452600  0.44636900  0.53917100  1
  H  H33  1  0.90719800  0.96535500  0.46082900  1
  H  H34  1  0.69636900  0.25452600  0.03917100  1
  H  H35  1  0.21535500  0.65719800  0.96082900  1
  H  H36  1  0.59738700  0.36138700  0.47322500  1
  H  H37  1  0.88816200  0.12416200  0.52677500  1
  H  H38  1  0.61138700  0.34738700  0.97322500  1
  H  H39  1  0.37416200  0.63816200  0.02677500  1
  O  O0  1  0.12598400  0.40538400  0.66063500  1
  O  O1  1  0.74474900  0.46534900  0.33936500  1
  O  O2  1  0.65538400  0.87598400  0.16063500  1
  O  O3  1  0.71534900  0.49474900  0.83936500  1
  O  O4  1  0.07582100  0.04420100  0.65337100  1
  O  O5  1  0.39083100  0.42245000  0.34662900  1
  O  O6  1  0.29420100  0.82582100  0.15337100  1
  O  O7  1  0.67245000  0.14083100  0.84662900  1
  O  O8  1  0.92586000  0.10886100  0.78204400  1
  O  O9  1  0.32681700  0.14381500  0.21795600  1
  O  O10  1  0.35886100  0.67586000  0.28204400  1
  O  O11  1  0.39381500  0.07681700  0.71795600  1
  O  O12  1  0.76485600  0.21005000  0.63049700  1
  O  O13  1  0.57955300  0.13435900  0.36950300  1
  O  O14  1  0.46005000  0.51485600  0.13049700  1
  O  O15  1  0.38435900  0.32955300  0.86950300  1
  O  O16  1  0.98848900  0.47045900  0.79142300  1
  O  O17  1  0.67903600  0.19706700  0.20857700  1
  O  O18  1  0.72045900  0.73848900  0.29142300  1
  O  O19  1  0.44706700  0.42903600  0.70857700  1
  O  O20  1  0.31500200  0.47919100  0.57094800  1
  O  O21  1  0.90824300  0.74405400  0.42905200  1
  O  O22  1  0.72919100  0.06500200  0.07094800  1
  O  O23  1  0.99405400  0.65824300  0.92905200  1
  O  O24  1  0.28663400  0.18570100  0.59214400  1
  O  O25  1  0.59355700  0.69449000  0.40785600  1
  O  O26  1  0.43570100  0.03663400  0.09214400  1
  O  O27  1  0.94449000  0.34355700  0.90785600  1
  O  O28  1  0.27249800  0.87523900  0.58190500  1
  O  O29  1  0.29333400  0.69059300  0.41809500  1
  O  O30  1  0.12523900  0.02249800  0.08190500  1
  O  O31  1  0.94059300  0.04333400  0.91809500  1
  O  O32  1  0.19147100  0.75733400  0.77651600  1
  O  O33  1  0.98081900  0.41495600  0.22348400  1
  O  O34  1  0.00733400  0.94147100  0.27651600  1
  O  O35  1  0.66495600  0.73081900  0.72348400  1
  O  O36  1  0.93588800  0.60128600  0.59001800  1
  O  O37  1  0.01126800  0.34587000  0.40998200  1
  O  O38  1  0.85128600  0.68588800  0.09001800  1
  O  O39  1  0.59587000  0.76126800  0.90998200  1
  O  O40  1  0.60924400  0.87700000  0.58003600  1
  O  O41  1  0.29696400  0.02920800  0.41996400  1
  O  O42  1  0.12700000  0.35924400  0.08003600  1
  O  O43  1  0.27920800  0.04696400  0.91996400  1
  O  O44  1  0.61646900  0.41538500  0.53091400  1
  O  O45  1  0.88447100  0.08555500  0.46908600  1
  O  O46  1  0.66538500  0.36646900  0.03091400  1
  O  O47  1  0.33555500  0.63447100  0.96908600  1
loop_
_geom_bond_atom_site_label_1
_geom_bond_atom_site_label_2
_geom_bond_distance
_geom_bond_site_symmetry_2
Na0 O8 2.343530 1_565
Na0 O4 2.354786 1_665
Na0 O35 2.428626 1_555
Na0 O36 2.446361 1_555
Na0 O32 2.501067 1_655
Na1 O9 2.343532 1_555
Na1 O5 2.354792 1_555
Na1 O34 2.428636 1_545
Na1 O37 2.446361 1_555
Na1 O33 2.501069 1_455
Na2 O10 2.343530 1_555
Na2 O6 2.354786 1_555
Na2 O33 2.428626 1_455
Na2 O38 2.446361 1_455
Na2 O34 2.501067 1_555
Na3 O11 2.343532 1_565
Na3 O7 2.354792 1_565
Na3 O32 2.428636 1_555
Na3 O39 2.446361 1_555
Na3 O35 2.501069 1_555
Ca0 O29 2.287868 1_555
Ca0 O28 2.287868 1_555
Ca0 O21 2.337444 1_455
Ca0 O20 2.337444 1_555
Ca0 O37 2.468993 1_555
Ca0 O36 2.468993 1_455
Ca1 O31 2.287868 1_564
Ca1 O30 2.287868 1_665
Ca1 O22 2.337444 1_565
Ca1 O23 2.337444 1_554
Ca1 O38 2.468993 1_555
Ca1 O39 2.468993 1_554
Ni0 O16 1.996465 1_555
Ni0 O8 2.002477 1_555
Ni0 O4 2.037584 1_655
Ni0 O0 2.045214 1_655
Ni0 O12 2.085503 1_555
Ni1 O17 1.996463 1_555
Ni1 O9 2.002480 1_555
Ni1 O5 2.037578 1_555
Ni1 O1 2.045214 1_555
Ni1 O13 2.085503 1_555
Ni2 O18 1.996465 1_555
Ni2 O10 2.002477 1_555
Ni2 O6 2.037584 1_555
Ni2 O2 2.045214 1_555
Ni2 O14 2.085503 1_555
Ni3 O19 1.996463 1_555
Ni3 O11 2.002480 1_555
Ni3 O7 2.037578 1_555
Ni3 O3 2.045214 1_555
Ni3 O15 2.085503 1_555
H0 O12 0.992510 1_555
H1 O13 0.992513 1_555
H2 O14 0.992510 1_555
H3 O15 0.992513 1_555
H4 O12 0.997768 1_555
H5 O13 0.997768 1_555
H6 O14 0.997768 1_555
H7 O15 0.997768 1_555
H8 O32 0.979809 1_555
H9 O33 0.979811 1_555
H10 O34 0.979809 1_555
H11 O35 0.979811 1_555
H12 O32 0.983666 1_555
H13 O33 0.983683 1_555
H14 O34 0.983666 1_655
H15 O35 0.983683 1_555
H16 O36 0.992890 1_555
H17 O37 0.992890 1_655
H18 O38 0.992890 1_555
H19 O39 0.992890 1_555
H20 O36 1.005532 1_555
H20 O0 1.635665 1_655
H21 O37 1.005535 1_655
H21 O1 1.635661 1_555
H22 O38 1.005532 1_555
H22 O2 1.635665 1_555
H23 O39 1.005535 1_555
H23 O3 1.635661 1_555
H24 O40 0.982845 1_555
H25 O41 0.982845 1_555
H26 O42 0.982845 1_555
H27 O43 0.982845 1_555
H28 O40 0.999995 1_555
H28 O28 1.760776 1_555
H29 O41 0.999995 1_565
H29 O29 1.760776 1_555
H30 O42 0.999995 1_555
H30 O30 1.760776 1_555
H31 O43 0.999995 1_555
H31 O31 1.760776 1_455
H32 O44 0.999791 1_555
H33 O45 0.999791 1_565
H34 O46 0.999791 1_555
H35 O47 0.999791 1_555
H36 O44 0.980934 1_555
H37 O45 0.980934 1_555
H38 O46 0.980934 1_556
H39 O47 0.980934 1_554
O0 P4 1.545230 1_555
O1 P5 1.545222 1_555
O2 P6 1.545230 1_565
O3 P7 1.545222 1_555
O4 P0 1.531749 1_555
O5 P1 1.531758 1_555
O6 P2 1.531749 1_565
O7 P3 1.531758 1_555
O8 P3 1.530968 1_555
O9 P2 1.530968 1_555
O10 P1 1.530968 1_555
O11 P0 1.530968 1_555
O16 P7 1.527992 1_555
O17 P6 1.527992 1_555
O18 P5 1.527992 1_555
O19 P4 1.527992 1_555
O20 P4 1.522485 1_555
O21 P5 1.522487 1_555
O22 P6 1.522485 1_555
O23 P7 1.522487 1_555
O24 P4 1.643035 1_555
O24 P0 1.653737 1_555
O25 P5 1.643036 1_555
O25 P1 1.653735 1_555
O26 P6 1.643035 1_555
O26 P2 1.653737 1_555
O27 P7 1.643036 1_555
O27 P3 1.653735 1_555
O28 P0 1.517831 1_565
O29 P1 1.517828 1_555
O30 P2 1.517831 1_555
O31 P3 1.517828 1_555
