# generated using pymatgen
data_CdBrO
_symmetry_space_group_name_H-M   'P 1'
_cell_length_a   7.51255200
_cell_length_b   5.51513000
_cell_length_c   6.75340153
_cell_angle_alpha   65.80024037
_cell_angle_beta   90.00000000
_cell_angle_gamma   90.00000000
_symmetry_Int_Tables_number   1
_chemical_formula_structural   CdBrO
_chemical_formula_sum   'Cd4 Br4 O4'
_cell_volume   255.22233016
_cell_formula_units_Z   4
loop_
 _symmetry_equiv_pos_site_id
 _symmetry_equiv_pos_as_xyz
  1  'x, y, z'
loop_
 _atom_site_type_symbol
 _atom_site_label
 _atom_site_symmetry_multiplicity
 _atom_site_fract_x
 _atom_site_fract_y
 _atom_site_fract_z
 _atom_site_occupancy
  Cd  Cd0  1  0.87156500  0.00703200  0.21384300  1
  Cd  Cd1  1  0.37156500  0.99296800  0.28615700  1
  Cd  Cd2  1  0.12843500  0.99296800  0.78615700  1
  Cd  Cd3  1  0.62843500  0.00703200  0.71384300  1
  Br  Br0  1  0.60590900  0.63370600  0.18887400  1
  Br  Br1  1  0.10590900  0.36629400  0.31112600  1
  Br  Br2  1  0.39409100  0.36629400  0.81112600  1
  Br  Br3  1  0.89409100  0.63370600  0.68887400  1
  O  O0  1  0.63844500  0.13799400  0.34429400  1
  O  O1  1  0.13844500  0.86200600  0.15570600  1
  O  O2  1  0.36155500  0.86200600  0.65570600  1
  O  O3  1  0.86155500  0.13799400  0.84429400  1
loop_
_geom_bond_atom_site_label_1
_geom_bond_atom_site_label_2
_geom_bond_distance
_geom_bond_site_symmetry_2
Cd0 O0 2.210573 1_555
Cd0 O1 2.251927 1_645
Cd0 O3 2.297409 1_554
Cd1 O1 2.210573 1_555
Cd1 O0 2.251927 1_565
Cd1 O2 2.297409 1_555
Cd2 O2 2.210573 1_555
Cd2 O3 2.251927 1_465
Cd2 O1 2.297409 1_556
Cd3 O3 2.210573 1_555
Cd3 O2 2.251927 1_545
Cd3 O0 2.297409 1_555
Br0 O0 2.506623 1_555
Br0 Cd1 2.919614 1_555
Br0 Cd0 2.921532 1_565
Br0 Cd3 3.023970 1_564
Br1 O1 2.506623 1_555
Br1 Cd0 2.919614 1_455
Br1 Cd1 2.921532 1_545
Br1 Cd2 3.023970 1_545
Br2 O2 2.506623 1_555
Br2 Cd3 2.919614 1_555
Br2 Cd2 2.921532 1_545
Br2 Cd1 3.023970 1_546
Br3 O3 2.506623 1_555
Br3 Cd2 2.919614 1_655
Br3 Cd3 2.921532 1_565
Br3 Cd0 3.023970 1_565
