# generated using pymatgen
data_LiMg(AlH4)3
_symmetry_space_group_name_H-M   'P 1'
_cell_length_a   8.49613131
_cell_length_b   8.83974200
_cell_length_c   14.55241072
_cell_angle_alpha   90.00000000
_cell_angle_beta   124.87831650
_cell_angle_gamma   90.00000000
_symmetry_Int_Tables_number   1
_chemical_formula_structural   LiMg(AlH4)3
_chemical_formula_sum   'Li4 Mg4 Al12 H48'
_cell_volume   896.61219894
_cell_formula_units_Z   4
loop_
 _symmetry_equiv_pos_site_id
 _symmetry_equiv_pos_as_xyz
  1  'x, y, z'
loop_
 _atom_site_type_symbol
 _atom_site_label
 _atom_site_symmetry_multiplicity
 _atom_site_fract_x
 _atom_site_fract_y
 _atom_site_fract_z
 _atom_site_occupancy
  Li  Li0  1  0.12876800  0.02904600  0.88189800  1
  Li  Li1  1  0.87123200  0.52904600  0.61810200  1
  Li  Li2  1  0.87123200  0.97095400  0.11810200  1
  Li  Li3  1  0.12876800  0.47095400  0.38189800  1
  Mg  Mg0  1  0.63279200  0.96998800  0.38485600  1
  Mg  Mg1  1  0.36720800  0.46998800  0.11514400  1
  Mg  Mg2  1  0.36720800  0.03001200  0.61514400  1
  Mg  Mg3  1  0.63279200  0.53001200  0.88485600  1
  Al  Al0  1  0.76112800  0.87332900  0.65099700  1
  Al  Al1  1  0.23887200  0.37332900  0.84900300  1
  Al  Al2  1  0.23887200  0.12667100  0.34900300  1
  Al  Al3  1  0.76112800  0.62667100  0.15099700  1
  Al  Al4  1  0.47477500  0.62099700  0.35948400  1
  Al  Al5  1  0.52522500  0.12099700  0.14051600  1
  Al  Al6  1  0.52522500  0.37900300  0.64051600  1
  Al  Al7  1  0.47477500  0.87900300  0.85948400  1
  Al  Al8  1  0.96089100  0.24976500  0.99800600  1
  Al  Al9  1  0.03910900  0.74976500  0.50199400  1
  Al  Al10  1  0.03910900  0.75023500  0.00199400  1
  Al  Al11  1  0.96089100  0.25023500  0.49800600  1
  H  H0  1  0.60514000  0.92769100  0.67666700  1
  H  H1  1  0.39486000  0.42769100  0.82333300  1
  H  H2  1  0.39486000  0.07230900  0.32333300  1
  H  H3  1  0.60514000  0.57230900  0.17666700  1
  H  H4  1  0.65084800  0.90752000  0.51649500  1
  H  H5  1  0.34915200  0.40752000  0.98350500  1
  H  H6  1  0.34915200  0.09248000  0.48350500  1
  H  H7  1  0.65084800  0.59248000  0.01649500  1
  H  H8  1  0.78657200  0.69368100  0.67011200  1
  H  H9  1  0.21342800  0.19368100  0.82988800  1
  H  H10  1  0.21342800  0.30631900  0.32988800  1
  H  H11  1  0.78657200  0.80631900  0.17011200  1
  H  H12  1  0.94905200  0.97717900  0.71996500  1
  H  H13  1  0.05094800  0.47717900  0.78003500  1
  H  H14  1  0.05094800  0.02282100  0.28003500  1
  H  H15  1  0.94905200  0.52282100  0.21996500  1
  H  H16  1  0.48754600  0.78854500  0.31499000  1
  H  H17  1  0.51245400  0.28854500  0.18501000  1
  H  H18  1  0.51245400  0.21145500  0.68501000  1
  H  H19  1  0.48754600  0.71145500  0.81499000  1
  H  H20  1  0.69085600  0.56763000  0.45444900  1
  H  H21  1  0.30914400  0.06763000  0.04555100  1
  H  H22  1  0.30914400  0.43237000  0.54555100  1
  H  H23  1  0.69085600  0.93237000  0.95444900  1
  H  H24  1  0.38499000  0.51258500  0.24878600  1
  H  H25  1  0.61501000  0.01258500  0.25121400  1
  H  H26  1  0.61501000  0.48741500  0.75121400  1
  H  H27  1  0.38499000  0.98741500  0.74878600  1
  H  H28  1  0.32978100  0.62162400  0.39667400  1
  H  H29  1  0.67021900  0.12162400  0.10332600  1
  H  H30  1  0.67021900  0.37837600  0.60332600  1
  H  H31  1  0.32978100  0.87837600  0.89667400  1
  H  H32  1  0.95408900  0.18602100  0.89228100  1
  H  H33  1  0.04591100  0.68602100  0.60771900  1
  H  H34  1  0.04591100  0.81397900  0.10771900  1
  H  H35  1  0.95408900  0.31397900  0.39228100  1
  H  H36  1  0.76202100  0.34333200  0.95410700  1
  H  H37  1  0.23797900  0.84333200  0.54589300  1
  H  H38  1  0.23797900  0.65666800  0.04589300  1
  H  H39  1  0.76202100  0.15666800  0.45410700  1
  H  H40  1  0.12978900  0.37757700  0.06420600  1
  H  H41  1  0.87021100  0.87757700  0.43579400  1
  H  H42  1  0.87021100  0.62242300  0.93579400  1
  H  H43  1  0.12978900  0.12242300  0.56420600  1
  H  H44  1  0.99335000  0.12827500  0.08940500  1
  H  H45  1  0.00665000  0.62827500  0.41059500  1
  H  H46  1  0.00665000  0.87172500  0.91059500  1
  H  H47  1  0.99335000  0.37172500  0.58940500  1
loop_
_geom_bond_atom_site_label_1
_geom_bond_atom_site_label_2
_geom_bond_distance
_geom_bond_site_symmetry_2
Al0 H12 1.602057 1_555
Al0 H8 1.605371 1_555
Al0 H0 1.641062 1_555
Al0 H4 1.644067 1_555
Al1 H13 1.602057 1_555
Al1 H9 1.605371 1_555
Al1 H1 1.641062 1_555
Al1 H5 1.644067 1_555
Al2 H14 1.602057 1_555
Al2 H10 1.605371 1_555
Al2 H2 1.641062 1_555
Al2 H6 1.644067 1_555
Al3 H15 1.602057 1_555
Al3 H11 1.605371 1_555
Al3 H3 1.641062 1_555
Al3 H7 1.644067 1_555
Al4 H28 1.604048 1_555
Al4 H20 1.612806 1_555
Al4 H24 1.640115 1_555
Al4 H16 1.644680 1_555
Al5 H29 1.604048 1_555
Al5 H21 1.612806 1_555
Al5 H25 1.640115 1_555
Al5 H17 1.644680 1_555
Al6 H30 1.604048 1_555
Al6 H22 1.612806 1_555
Al6 H26 1.640115 1_555
Al6 H18 1.644680 1_555
Al7 H31 1.604048 1_555
Al7 H23 1.612806 1_555
Al7 H27 1.640115 1_555
Al7 H19 1.644680 1_555
Al8 H44 1.605926 1_556
Al8 H32 1.608201 1_555
Al8 H40 1.637902 1_656
Al8 H36 1.646992 1_555
Al9 H45 1.605926 1_555
Al9 H33 1.608201 1_555
Al9 H41 1.637902 1_455
Al9 H37 1.646992 1_555
Al10 H46 1.605926 1_554
Al10 H34 1.608201 1_555
Al10 H42 1.637902 1_454
Al10 H38 1.646992 1_555
Al11 H47 1.605926 1_555
Al11 H35 1.608201 1_555
Al11 H43 1.637902 1_655
Al11 H39 1.646992 1_555
H0 Mg2 1.906897 1_565
H1 Mg3 1.906897 1_555
H2 Mg0 1.906897 1_545
H3 Mg1 1.906897 1_555
H4 Mg0 1.913671 1_555
H5 Mg1 1.913671 1_556
H6 Mg2 1.913671 1_555
H7 Mg3 1.913671 1_554
H8 Li1 1.957250 1_555
H9 Li0 1.957250 1_555
H10 Li3 1.957250 1_555
H11 Li2 1.957250 1_555
H12 Li0 1.994915 1_665
H13 Li1 1.994915 1_455
H14 Li2 1.994915 1_445
H15 Li3 1.994915 1_655
H16 Mg0 1.922017 1_555
H17 Mg1 1.922017 1_555
H18 Mg2 1.922017 1_555
H19 Mg3 1.922017 1_555
H20 Li1 1.990620 1_555
H21 Li0 1.990620 1_554
H22 Li3 1.990620 1_555
H23 Li2 1.990620 1_556
H24 Mg1 1.900231 1_555
H25 Mg0 1.900231 1_545
H26 Mg3 1.900231 1_555
H27 Mg2 1.900231 1_565
H28 Li3 2.077704 1_555
H29 Li2 2.077704 1_545
H30 Li1 2.077704 1_555
H31 Li0 2.077704 1_565
H32 Li0 2.099361 1_655
H33 Li1 2.099361 1_455
H34 Li2 2.099361 1_455
H35 Li3 2.099361 1_655
H36 Mg3 1.918022 1_555
H37 Mg2 1.918022 1_565
H38 Mg1 1.918022 1_555
H39 Mg0 1.918022 1_545
H40 Mg1 1.890921 1_555
H41 Mg0 1.890921 1_555
H42 Mg3 1.890921 1_555
H43 Mg2 1.890921 1_555
H44 Li2 1.918433 1_545
H45 Li3 1.918433 1_555
H46 Li0 1.918433 1_565
H47 Li1 1.918433 1_555
