# generated using pymatgen
data_Rb2MnH12(SO7)2
_symmetry_space_group_name_H-M   'P 1'
_cell_length_a   12.65695100
_cell_length_b   6.24224400
_cell_length_c   9.28637798
_cell_angle_alpha   74.23202795
_cell_angle_beta   90.00000000
_cell_angle_gamma   90.00000000
_symmetry_Int_Tables_number   1
_chemical_formula_structural   Rb2MnH12(SO7)2
_chemical_formula_sum   'Rb4 Mn2 H24 S4 O28'
_cell_volume   706.08712550
_cell_formula_units_Z   2
loop_
 _symmetry_equiv_pos_site_id
 _symmetry_equiv_pos_as_xyz
  1  'x, y, z'
loop_
 _atom_site_type_symbol
 _atom_site_label
 _atom_site_symmetry_multiplicity
 _atom_site_fract_x
 _atom_site_fract_y
 _atom_site_fract_z
 _atom_site_occupancy
  Rb  Rb0  1  0.14827100  0.65164600  0.63099500  1
  Rb  Rb1  1  0.64827100  0.34835400  0.86900500  1
  Rb  Rb2  1  0.85172900  0.34835400  0.36900500  1
  Rb  Rb3  1  0.35172900  0.65164600  0.13099500  1
  Mn  Mn0  1  0.50000000  0.00000000  0.50000000  1
  Mn  Mn1  1  0.00000000  0.00000000  0.00000000  1
  H  H0  1  0.40464900  0.67854800  0.71620800  1
  H  H1  1  0.90464900  0.32145200  0.78379200  1
  H  H2  1  0.59535100  0.32145200  0.28379200  1
  H  H3  1  0.09535100  0.67854800  0.21620800  1
  H  H4  1  0.36873700  0.91560700  0.74147500  1
  H  H5  1  0.86873700  0.08439300  0.75852500  1
  H  H6  1  0.63126300  0.08439300  0.25852500  1
  H  H7  1  0.13126300  0.91560700  0.24147500  1
  H  H8  1  0.39899200  0.06778200  0.22468900  1
  H  H9  1  0.89899200  0.93221800  0.27531100  1
  H  H10  1  0.60100800  0.93221800  0.77531100  1
  H  H11  1  0.10100800  0.06778200  0.72468900  1
  H  H12  1  0.31071800  0.00812100  0.35178500  1
  H  H13  1  0.81071800  0.99187900  0.14821500  1
  H  H14  1  0.68928200  0.99187900  0.64821500  1
  H  H15  1  0.18928200  0.00812100  0.85178500  1
  H  H16  1  0.56118700  0.65024400  0.40767600  1
  H  H17  1  0.06118700  0.34975600  0.09232400  1
  H  H18  1  0.43881300  0.34975600  0.59232400  1
  H  H19  1  0.93881300  0.65024400  0.90767600  1
  H  H20  1  0.64660400  0.66814900  0.52892200  1
  H  H21  1  0.14660400  0.33185100  0.97107800  1
  H  H22  1  0.35339600  0.33185100  0.47107800  1
  H  H23  1  0.85339600  0.66814900  0.02892200  1
  S  S0  1  0.35994800  0.26919800  0.90404800  1
  S  S1  1  0.85994800  0.73080200  0.59595200  1
  S  S2  1  0.64005200  0.73080200  0.09595200  1
  S  S3  1  0.14005200  0.26919800  0.40404800  1
  O  O0  1  0.26754000  0.41415000  0.91309200  1
  O  O1  1  0.76754000  0.58585000  0.58690800  1
  O  O2  1  0.73246000  0.58585000  0.08690800  1
  O  O3  1  0.23246000  0.41415000  0.41309200  1
  O  O4  1  0.42279400  0.22245400  0.04469800  1
  O  O5  1  0.92279400  0.77754600  0.45530200  1
  O  O6  1  0.57720600  0.77754600  0.95530200  1
  O  O7  1  0.07720600  0.22245400  0.54469800  1
  O  O8  1  0.42857300  0.39140600  0.77647800  1
  O  O9  1  0.92857300  0.60859400  0.72352200  1
  O  O10  1  0.57142700  0.60859400  0.22352200  1
  O  O11  1  0.07142700  0.39140600  0.27647800  1
  O  O12  1  0.32170200  0.05571600  0.87742800  1
  O  O13  1  0.82170200  0.94428400  0.62257200  1
  O  O14  1  0.67829800  0.94428400  0.12257200  1
  O  O15  1  0.17829800  0.05571600  0.37742800  1
  O  O16  1  0.38826100  0.83691300  0.66547800  1
  O  O17  1  0.88826100  0.16308700  0.83452200  1
  O  O18  1  0.61173900  0.16308700  0.33452200  1
  O  O19  1  0.11173900  0.83691300  0.16547800  1
  O  O20  1  0.38337500  0.97032600  0.32651900  1
  O  O21  1  0.88337500  0.02967400  0.17348100  1
  O  O22  1  0.61662500  0.02967400  0.67348100  1
  O  O23  1  0.11662500  0.97032600  0.82651900  1
  O  O24  1  0.56995600  0.68948000  0.50363300  1
  O  O25  1  0.06995600  0.31052000  0.99636700  1
  O  O26  1  0.43004400  0.31052000  0.49636700  1
  O  O27  1  0.93004400  0.68948000  0.00363300  1
loop_
_geom_bond_atom_site_label_1
_geom_bond_atom_site_label_2
_geom_bond_distance
_geom_bond_site_symmetry_2
Mn0 O24 2.122911 1_545
Mn0 O26 2.122911 1_555
Mn0 O16 2.132546 1_545
Mn0 O18 2.132546 1_555
Mn0 O22 2.229522 1_555
Mn0 O20 2.229522 1_545
Mn1 O25 2.122911 1_554
Mn1 O27 2.122911 1_445
Mn1 O17 2.132546 1_454
Mn1 O19 2.132546 1_545
Mn1 O21 2.229522 1_455
Mn1 O23 2.229522 1_544
H0 O16 0.994530 1_555
H1 O17 0.994530 1_555
H2 O18 0.994530 1_555
H3 O19 0.994530 1_555
H4 O16 0.994408 1_555
H5 O17 0.994408 1_555
H6 O18 0.994408 1_555
H7 O19 0.994408 1_555
H8 O20 0.995351 1_545
H8 Rb3 3.015108 1_545
H9 O21 0.995351 1_565
H9 Rb2 3.015108 1_565
H10 O22 0.995351 1_565
H10 Rb1 3.015108 1_565
H11 O23 0.995351 1_545
H11 Rb0 3.015108 1_545
H12 O20 0.993222 1_545
H13 O21 0.993222 1_565
H14 O22 0.993222 1_565
H15 O23 0.993222 1_545
H16 O24 0.992454 1_555
H17 O25 0.992454 1_554
H18 O26 0.992454 1_555
H19 O27 0.992454 1_556
H20 O24 0.998518 1_555
H20 O1 1.657262 1_555
H21 O25 0.998518 1_555
H21 O0 1.657262 1_555
H22 O26 0.998518 1_555
H22 O3 1.657262 1_555
H23 O27 0.998518 1_555
H23 O2 1.657262 1_555
O0 S0 1.495004 1_555
O0 Rb3 3.009710 1_556
O0 Rb0 3.037856 1_555
O1 S1 1.495004 1_555
O1 Rb2 3.009710 1_555
O1 Rb1 3.037856 1_555
O2 S2 1.495004 1_555
O2 Rb1 3.009710 1_554
O2 Rb2 3.037856 1_555
O3 S3 1.495004 1_555
O3 Rb0 3.009710 1_555
O3 Rb3 3.037856 1_555
O4 S0 1.488861 1_554
O4 Rb3 3.129827 1_555
O4 Rb1 3.275239 1_554
O5 S1 1.488861 1_555
O5 Rb2 3.129827 1_555
O5 Rb0 3.275239 1_655
O6 S2 1.488861 1_556
O6 Rb1 3.129827 1_555
O6 Rb3 3.275239 1_556
O7 S3 1.488861 1_555
O7 Rb0 3.129827 1_555
O7 Rb2 3.275239 1_455
O8 S0 1.499549 1_555
O8 Rb1 2.901267 1_555
O9 S1 1.499549 1_555
O9 Rb0 2.901267 1_655
O10 S2 1.499549 1_555
O10 Rb3 2.901267 1_555
O11 S3 1.499549 1_555
O11 Rb2 2.901267 1_455
O12 S0 1.500106 1_555
O12 Rb3 2.970392 1_546
O13 S1 1.500106 1_555
O13 Rb2 2.970392 1_565
O14 S2 1.500106 1_555
O14 Rb1 2.970392 1_564
O15 S3 1.500106 1_555
O15 Rb0 2.970392 1_545
O16 Rb0 3.296653 1_555
O17 Rb1 3.296653 1_555
O18 Rb2 3.296653 1_555
O19 Rb3 3.296653 1_555
O20 Rb3 3.062271 1_555
O21 Rb2 3.062271 1_555
O22 Rb1 3.062271 1_555
O23 Rb0 3.062271 1_555
