# generated using pymatgen
data_ZnCrF5
_symmetry_space_group_name_H-M   'P 1'
_cell_length_a   9.81967100
_cell_length_b   5.22931400
_cell_length_c   7.47944877
_cell_angle_alpha   69.69167221
_cell_angle_beta   90.00000000
_cell_angle_gamma   90.00000000
_symmetry_Int_Tables_number   1
_chemical_formula_structural   ZnCrF5
_chemical_formula_sum   'Zn4 Cr4 F20'
_cell_volume   360.19634858
_cell_formula_units_Z   4
loop_
 _symmetry_equiv_pos_site_id
 _symmetry_equiv_pos_as_xyz
  1  'x, y, z'
loop_
 _atom_site_type_symbol
 _atom_site_label
 _atom_site_symmetry_multiplicity
 _atom_site_fract_x
 _atom_site_fract_y
 _atom_site_fract_z
 _atom_site_occupancy
  Zn  Zn0  1  0.00616600  0.51240400  0.75100900  1
  Zn  Zn1  1  0.50616600  0.48759600  0.74899100  1
  Zn  Zn2  1  0.99383400  0.48759600  0.24899100  1
  Zn  Zn3  1  0.49383400  0.51240400  0.25100900  1
  Cr  Cr0  1  0.75439200  0.09722900  0.60287100  1
  Cr  Cr1  1  0.25439200  0.90277100  0.89712900  1
  Cr  Cr2  1  0.24560800  0.90277100  0.39712900  1
  Cr  Cr3  1  0.74560800  0.09722900  0.10287100  1
  F  F0  1  0.88563800  0.39445800  0.56178300  1
  F  F1  1  0.38563800  0.60554200  0.93821700  1
  F  F2  1  0.11436200  0.60554200  0.43821700  1
  F  F3  1  0.61436200  0.39445800  0.06178300  1
  F  F4  1  0.60832600  0.35816300  0.50152100  1
  F  F5  1  0.10832600  0.64183700  0.99847900  1
  F  F6  1  0.39167400  0.64183700  0.49847900  1
  F  F7  1  0.89167400  0.35816300  0.00152100  1
  F  F8  1  0.40660300  0.14784800  0.80426300  1
  F  F9  1  0.90660300  0.85215200  0.69573700  1
  F  F10  1  0.59339700  0.85215200  0.19573700  1
  F  F11  1  0.09339700  0.14784800  0.30426300  1
  F  F12  1  0.12987600  0.20673300  0.84937400  1
  F  F13  1  0.62987600  0.79326700  0.65062600  1
  F  F14  1  0.87012400  0.79326700  0.15062600  1
  F  F15  1  0.37012400  0.20673300  0.34937400  1
  F  F16  1  0.69700200  0.13377100  0.84293200  1
  F  F17  1  0.19700200  0.86622900  0.65706800  1
  F  F18  1  0.30299800  0.86622900  0.15706800  1
  F  F19  1  0.80299800  0.13377100  0.34293200  1
loop_
_geom_bond_atom_site_label_1
_geom_bond_atom_site_label_2
_geom_bond_distance
_geom_bond_site_symmetry_2
Cr0 F9 1.934171 1_545
Cr0 F13 1.937793 1_545
Cr0 F4 1.943139 1_555
Cr0 F19 1.945856 1_555
Cr0 F16 1.953504 1_555
Cr0 F0 1.959521 1_555
Cr1 F8 1.934171 1_565
Cr1 F12 1.937793 1_565
Cr1 F5 1.943139 1_555
Cr1 F18 1.945856 1_556
Cr1 F17 1.953504 1_555
Cr1 F1 1.959521 1_555
Cr2 F11 1.934171 1_565
Cr2 F15 1.937793 1_565
Cr2 F6 1.943139 1_555
Cr2 F17 1.945856 1_555
Cr2 F18 1.953504 1_555
Cr2 F2 1.959521 1_555
Cr3 F10 1.934171 1_545
Cr3 F14 1.937793 1_545
Cr3 F7 1.943139 1_555
Cr3 F16 1.945856 1_554
Cr3 F19 1.953504 1_555
Cr3 F3 1.959521 1_555
F0 Zn0 2.095286 1_655
F1 Zn1 2.095286 1_555
F2 Zn2 2.095286 1_455
F3 Zn3 2.095286 1_555
F4 Zn3 2.091945 1_555
F4 Zn1 2.400018 1_555
F5 Zn2 2.091945 1_456
F5 Zn0 2.400018 1_555
F6 Zn1 2.091945 1_555
F6 Zn3 2.400018 1_555
F7 Zn0 2.091945 1_654
F7 Zn2 2.400018 1_555
F8 Zn1 1.942525 1_555
F9 Zn0 1.942525 1_655
F10 Zn3 1.942525 1_555
F11 Zn2 1.942525 1_455
F12 Zn0 1.937968 1_555
F13 Zn1 1.937968 1_555
F14 Zn2 1.937968 1_555
F15 Zn3 1.937968 1_555
