# generated using pymatgen
data_La2TiCrO6
_symmetry_space_group_name_H-M   'P 1'
_cell_length_a   5.71383780
_cell_length_b   5.70222860
_cell_length_c   9.57434813
_cell_angle_alpha   106.53715933
_cell_angle_beta   90.46655963
_cell_angle_gamma   120.75168476
_symmetry_Int_Tables_number   1
_chemical_formula_structural   La2TiCrO6
_chemical_formula_sum   'La4 Ti2 Cr2 O12'
_cell_volume   252.48472759
_cell_formula_units_Z   2
loop_
 _symmetry_equiv_pos_site_id
 _symmetry_equiv_pos_as_xyz
  1  'x, y, z'
loop_
 _atom_site_type_symbol
 _atom_site_label
 _atom_site_symmetry_multiplicity
 _atom_site_fract_x
 _atom_site_fract_y
 _atom_site_fract_z
 _atom_site_occupancy
  La  La0  1  0.12193900  0.24165300  0.37529000  1
  La  La1  1  0.61674200  0.24862200  0.87467000  1
  La  La2  1  0.37839700  0.75859100  0.12518200  1
  La  La3  1  0.88310600  0.75121000  0.62536900  1
  Ti  Ti0  1  0.99544100  0.00452200  0.00144400  1
  Ti  Ti1  1  0.50455400  0.99543400  0.49854100  1
  Cr  Cr0  1  0.74999100  0.49987500  0.24989200  1
  Cr  Cr1  1  0.25000100  0.50017400  0.75014700  1
  O  O0  1  0.19329600  0.24310200  0.87637400  1
  O  O1  1  0.69380700  0.23050900  0.36393800  1
  O  O2  1  0.01939800  0.68441900  0.88148600  1
  O  O3  1  0.55238600  0.66699400  0.37661600  1
  O  O4  1  0.61924200  0.83800900  0.88738300  1
  O  O5  1  0.12508900  0.81759500  0.37647400  1
  O  O6  1  0.48027700  0.31583700  0.61812300  1
  O  O7  1  0.94774600  0.33296600  0.12326200  1
  O  O8  1  0.88048600  0.16194800  0.61284000  1
  O  O9  1  0.37503000  0.18208800  0.12328300  1
  O  O10  1  0.30659000  0.75706900  0.62374100  1
  O  O11  1  0.80648300  0.76938300  0.13594500  1
loop_
_geom_bond_atom_site_label_1
_geom_bond_atom_site_label_2
_geom_bond_distance
_geom_bond_site_symmetry_2
La0 O3 2.411123 1_555
La0 O1 2.415138 1_455
La0 O5 2.430566 1_545
La0 O11 2.684794 1_445
La0 O8 2.698350 1_455
La0 O9 2.849709 1_555
La0 O10 2.866643 1_555
La0 O6 2.872888 1_555
La0 O7 2.879316 1_455
La1 O2 2.351880 1_655
La1 O4 2.386133 1_545
La1 O0 2.403809 1_555
La1 O11 2.947172 1_556
La2 O7 2.410855 1_455
La2 O11 2.415728 1_555
La2 O9 2.429986 1_565
La2 O1 2.680748 1_565
La2 O4 2.698745 1_554
La2 O5 2.844392 1_555
La2 O0 2.868305 1_554
La2 O3 2.874737 1_555
La2 O2 2.881595 1_554
La3 O6 2.349836 1_555
La3 O8 2.386612 1_565
La3 O10 2.403048 1_655
La3 O1 2.948200 1_555
Cr0 O9 2.019966 1_555
Cr0 O5 2.020277 1_655
Cr0 O11 2.027076 1_555
Cr0 O1 2.027515 1_555
Cr0 O7 2.029212 1_555
Cr0 O3 2.029646 1_555
Cr1 O0 2.059989 1_555
Cr1 O4 2.060654 1_555
Cr1 O10 2.060672 1_555
Cr1 O8 2.062260 1_455
Cr1 O2 2.260915 1_555
Cr1 O6 2.262511 1_555
O0 Ti0 1.984792 1_456
O1 Ti1 2.037346 1_545
O2 Ti0 1.932410 1_466
O3 Ti1 2.056451 1_555
O4 Ti0 1.999741 1_566
O5 Ti1 2.032459 1_555
O6 Ti1 1.933653 1_545
O7 Ti0 2.055681 1_555
O8 Ti1 1.999396 1_545
O9 Ti0 2.032433 1_455
O10 Ti1 1.985238 1_555
O11 Ti0 2.036412 1_565
