# generated using pymatgen
data_Ba12Sm4Al3(CoO6)5
_symmetry_space_group_name_H-M   'P 1'
_cell_length_a   7.11338100
_cell_length_b   11.76475325
_cell_length_c   11.81383887
_cell_angle_alpha   119.63621119
_cell_angle_beta   90.67744310
_cell_angle_gamma   90.62647571
_symmetry_Int_Tables_number   1
_chemical_formula_structural   Ba12Sm4Al3(CoO6)5
_chemical_formula_sum   'Ba12 Sm4 Al3 Co5 O30'
_cell_volume   859.11169868
_cell_formula_units_Z   1
loop_
 _symmetry_equiv_pos_site_id
 _symmetry_equiv_pos_as_xyz
  1  'x, y, z'
loop_
 _atom_site_type_symbol
 _atom_site_label
 _atom_site_symmetry_multiplicity
 _atom_site_fract_x
 _atom_site_fract_y
 _atom_site_fract_z
 _atom_site_occupancy
  Ba  Ba0  1  0.99883700  0.66415500  0.34004800  1
  Ba  Ba1  1  0.51589400  0.33660900  0.66547600  1
  Ba  Ba2  1  0.49994000  0.99653600  0.99716300  1
  Ba  Ba3  1  0.01163500  0.99697700  0.99852200  1
  Ba  Ba4  1  0.32080600  0.34231500  0.17433500  1
  Ba  Ba5  1  0.33115100  0.82408100  0.64946100  1
  Ba  Ba6  1  0.32500200  0.83013600  0.18349400  1
  Ba  Ba7  1  0.82729200  0.65059100  0.82358000  1
  Ba  Ba8  1  0.82375500  0.17547400  0.34454700  1
  Ba  Ba9  1  0.82628300  0.18175600  0.82769200  1
  Ba  Ba10  1  0.65976100  0.95550200  0.47931800  1
  Ba  Ba11  1  0.15723500  0.47751400  0.95303200  1
  Sm  Sm0  1  0.65543500  0.52416700  0.04194700  1
  Sm  Sm1  1  0.64915000  0.52106800  0.47878800  1
  Sm  Sm2  1  0.16372800  0.04792200  0.52282300  1
  Sm  Sm3  1  0.14453300  0.47853000  0.52078500  1
  Al  Al0  1  0.33486200  0.63576900  0.81391800  1
  Al  Al1  1  0.32218900  0.18660800  0.36100300  1
  Al  Al2  1  0.33067400  0.18296300  0.82215600  1
  Co  Co0  1  0.45949100  0.66221800  0.33569800  1
  Co  Co1  1  0.97538400  0.33969400  0.66615900  1
  Co  Co2  1  0.81479800  0.35415200  0.17987100  1
  Co  Co3  1  0.83945400  0.82531800  0.64549400  1
  Co  Co4  1  0.82965500  0.82524000  0.18193800  1
  O  O0  1  0.42933200  0.07486900  0.40000400  1
  O  O1  1  0.47687800  0.32154900  0.92829600  1
  O  O2  1  0.46095400  0.60044300  0.67053700  1
  O  O3  1  0.44560600  0.06937900  0.67992700  1
  O  O4  1  0.45762000  0.33002900  0.39972500  1
  O  O5  1  0.47468400  0.60245200  0.92085200  1
  O  O6  1  0.98495600  0.92779500  0.60384500  1
  O  O7  1  0.92691800  0.66818000  0.05799500  1
  O  O8  1  0.94895800  0.40252300  0.33869700  1
  O  O9  1  0.98158900  0.93606000  0.32855100  1
  O  O10  1  0.96108100  0.66256700  0.59547600  1
  O  O11  1  0.92061400  0.40486000  0.07155100  1
  O  O12  1  0.31257900  0.82974200  0.41718700  1
  O  O13  1  0.33731800  0.58643500  0.17611600  1
  O  O14  1  0.31914600  0.57964000  0.42160100  1
  O  O15  1  0.84346600  0.18230400  0.58766000  1
  O  O16  1  0.81324400  0.41294400  0.82721600  1
  O  O17  1  0.82301500  0.41769000  0.57985700  1
  O  O18  1  0.63715600  0.49140800  0.25788100  1
  O  O19  1  0.65046700  0.73568900  0.50250500  1
  O  O20  1  0.65622800  0.73959100  0.24039100  1
  O  O21  1  0.15313400  0.50537400  0.73838500  1
  O  O22  1  0.14816100  0.25198100  0.48627500  1
  O  O23  1  0.15851500  0.23607900  0.74312900  1
  O  O24  1  0.23978100  0.79364900  0.89566500  1
  O  O25  1  0.24319700  0.10990900  0.19754700  1
  O  O26  1  0.23261400  0.11474300  0.91231100  1
  O  O27  1  0.74621700  0.18458000  0.10521400  1
  O  O28  1  0.73638800  0.89737300  0.80352000  1
  O  O29  1  0.73904200  0.91487000  0.10483600  1
loop_
_geom_bond_atom_site_label_1
_geom_bond_atom_site_label_2
_geom_bond_distance
_geom_bond_site_symmetry_2
Ba0 O12 2.776221 1_655
Ba0 O14 2.837848 1_655
Ba0 O13 2.964974 1_655
Ba0 O19 3.015516 1_555
Ba0 O20 3.020934 1_555
Ba0 O10 3.041893 1_555
Ba0 O8 3.086721 1_555
Ba0 O18 3.093111 1_555
Ba0 O6 3.129956 1_555
Ba0 O11 3.166761 1_555
Ba0 O9 3.271746 1_555
Ba0 O7 3.388704 1_555
Ba1 O16 2.664073 1_555
Ba1 O17 2.768884 1_555
Ba1 O15 2.839525 1_555
Ba1 O2 3.103917 1_555
Ba1 O5 3.111092 1_555
Ba1 O4 3.124531 1_555
Ba1 O23 3.124976 1_555
Ba1 O21 3.133053 1_555
Ba1 O22 3.169108 1_555
Ba1 O0 3.171611 1_555
Ba1 O1 3.211271 1_555
Ba1 O3 3.265221 1_555
Ba2 O29 2.574338 1_556
Ba2 O27 2.581123 1_566
Ba2 O28 2.630175 1_555
Ba2 O24 2.753231 1_555
Ba2 O25 2.784124 1_566
Ba2 O26 2.818925 1_565
Ba3 O25 2.603439 1_566
Ba3 O26 2.610280 1_565
Ba3 O24 2.662575 1_555
Ba3 O27 2.724106 1_466
Ba3 O29 2.736241 1_456
Ba3 O28 2.772576 1_455
Ba4 O18 2.695137 1_555
Ba4 O13 2.862777 1_555
Ba4 O14 2.874767 1_555
Ba4 O4 2.894917 1_555
Ba4 O25 2.927099 1_555
Ba4 O26 2.977380 1_554
Ba4 O1 3.020079 1_554
Ba4 O8 3.173456 1_455
Ba4 O11 3.311710 1_455
Ba4 O27 3.456936 1_555
Ba5 O19 2.759389 1_555
Ba5 O12 2.779217 1_555
Ba5 O14 2.803021 1_555
Ba5 O3 2.834626 1_565
Ba5 O6 2.920332 1_455
Ba5 O2 2.921048 1_555
Ba5 O10 3.098320 1_455
Ba5 O24 3.174925 1_555
Ba5 O28 3.261126 1_555
Ba5 O26 3.380774 1_565
Ba6 O12 2.765561 1_555
Ba6 O20 2.804193 1_555
Ba6 O13 2.827359 1_555
Ba6 O0 2.829862 1_565
Ba6 O9 2.917293 1_455
Ba6 O5 3.139584 1_554
Ba6 O24 3.258258 1_554
Ba6 O25 3.271641 1_565
Ba6 O7 3.291836 1_455
Ba6 O29 3.383530 1_555
Ba7 O7 2.756435 1_556
Ba7 O21 2.783045 1_655
Ba7 O16 2.818052 1_555
Ba7 O17 2.827138 1_555
Ba7 O5 2.934840 1_555
Ba7 O10 2.936093 1_555
Ba7 O2 3.034432 1_555
Ba7 O28 3.101857 1_555
Ba7 O24 3.253116 1_655
Ba7 O29 3.313066 1_556
Ba8 O22 2.703977 1_655
Ba8 O17 2.830991 1_555
Ba8 O15 2.834970 1_555
Ba8 O8 2.839922 1_555
Ba8 O27 2.928156 1_555
Ba8 O9 2.962685 1_545
Ba8 O29 3.019149 1_545
Ba8 O4 3.079907 1_555
Ba8 O0 3.231056 1_555
Ba8 O25 3.370624 1_655
Ba9 O16 2.725244 1_555
Ba9 O23 2.765115 1_655
Ba9 O11 2.841947 1_556
Ba9 O15 2.842962 1_555
Ba9 O1 2.919067 1_555
Ba9 O6 3.086159 1_545
Ba9 O3 3.107320 1_555
Ba9 O28 3.269273 1_545
Ba9 O26 3.276615 1_655
Ba9 O27 3.318364 1_556
Ba10 O3 2.592705 1_565
Ba10 O0 2.617674 1_565
Ba10 O15 2.640482 1_565
Ba10 O20 2.706709 1_555
Ba10 O19 2.732090 1_555
Ba10 O12 2.762265 1_555
Ba10 O6 2.834052 1_555
Ba10 O9 2.858418 1_555
Ba11 O7 2.575066 1_456
Ba11 O11 2.594615 1_456
Ba11 O13 2.602512 1_556
Ba11 O23 2.693034 1_555
Ba11 O21 2.712755 1_555
Ba11 O16 2.744183 1_455
Ba11 O5 2.811506 1_555
Ba11 O1 2.863349 1_555
Al0 O24 1.763236 1_555
Al0 O2 1.787264 1_555
Al0 O5 1.790905 1_555
Al0 O21 1.842887 1_555
Al1 O25 1.760361 1_555
Al1 O0 1.770287 1_555
Al1 O4 1.781865 1_555
Al1 O22 1.803516 1_555
Al2 O3 1.764414 1_555
Al2 O26 1.765171 1_555
Al2 O1 1.795106 1_555
Al2 O23 1.824427 1_555
Co0 O13 1.840220 1_555
Co0 O14 1.987012 1_555
Co0 O12 2.023767 1_555
Co0 O19 2.168510 1_555
Co0 O18 2.176358 1_555
Co0 O20 2.253414 1_555
Co1 O15 1.847262 1_555
Co1 O17 1.994268 1_555
Co1 O16 2.035969 1_555
Co1 O21 2.098057 1_655
Co1 O22 2.238796 1_655
Co1 O23 2.261140 1_655
Co2 O27 1.795605 1_555
Co2 O11 1.824278 1_555
Co2 O8 1.909196 1_555
Co2 O18 1.911548 1_555
Co3 O28 1.795054 1_555
Co3 O6 1.827097 1_555
Co3 O10 1.921780 1_555
Co3 O19 1.981507 1_555
Co4 O29 1.818778 1_555
Co4 O7 1.847453 1_555
Co4 O9 1.886663 1_555
Co4 O20 1.922297 1_555
O0 Sm2 2.506405 1_555
O1 Sm0 2.413799 1_556
O2 Sm1 2.408877 1_555
O2 Sm3 2.752996 1_555
O3 Sm2 2.639410 1_555
O4 Sm1 2.367870 1_555
O4 Sm3 2.783344 1_555
O5 Sm0 2.415259 1_556
O6 Sm2 2.420329 1_665
O7 Sm0 2.497603 1_555
O8 Sm3 2.315635 1_655
O8 Sm1 2.664222 1_555
O9 Sm2 2.362903 1_665
O10 Sm3 2.317105 1_655
O10 Sm1 2.678127 1_555
O11 Sm0 2.485648 1_555
O12 Sm2 2.487938 1_565
O13 Sm0 2.672528 1_555
O14 Sm3 2.389841 1_555
O14 Sm1 2.626795 1_555
O15 Sm2 2.683005 1_655
O16 Sm0 2.494850 1_556
O17 Sm1 2.422519 1_555
O17 Sm3 2.593459 1_655
O18 Sm1 2.456287 1_555
O18 Sm0 2.766255 1_555
O19 Sm1 2.398704 1_555
O20 Sm0 2.458172 1_555
O21 Sm3 2.429996 1_555
O22 Sm3 2.489531 1_555
O22 Sm2 2.644218 1_555
O23 Sm2 2.445727 1_555
