# generated using pymatgen
data_Mg5Si9
_symmetry_space_group_name_H-M   'P 1'
_cell_length_a   7.39044400
_cell_length_b   7.46654444
_cell_length_c   10.44213991
_cell_angle_alpha   99.75297242
_cell_angle_beta   85.49049383
_cell_angle_gamma   119.53321448
_symmetry_Int_Tables_number   1
_chemical_formula_structural   Mg5Si9
_chemical_formula_sum   'Mg10 Si18'
_cell_volume   494.08806819
_cell_formula_units_Z   2
loop_
 _symmetry_equiv_pos_site_id
 _symmetry_equiv_pos_as_xyz
  1  'x, y, z'
loop_
 _atom_site_type_symbol
 _atom_site_label
 _atom_site_symmetry_multiplicity
 _atom_site_fract_x
 _atom_site_fract_y
 _atom_site_fract_z
 _atom_site_occupancy
  Mg  Mg0  1  0.50155700  0.48331200  0.72535100  1
  Mg  Mg1  1  0.79130500  0.94764000  0.35411200  1
  Mg  Mg2  1  0.58935400  0.18248500  0.52083700  1
  Mg  Mg3  1  0.27515700  0.75323400  0.39110500  1
  Mg  Mg4  1  0.89203300  0.66504200  0.57211300  1
  Mg  Mg5  1  0.10383100  0.36723400  0.51349600  1
  Mg  Mg6  1  0.57696100  0.58635600  0.11000100  1
  Mg  Mg7  1  0.13325900  0.32470800  0.91486100  1
  Mg  Mg8  1  0.23887000  0.04546800  0.07428000  1
  Mg  Mg9  1  0.53068200  0.88589700  0.91070900  1
  Si  Si0  1  0.15554100  0.33550300  0.22627200  1
  Si  Si1  1  0.96589700  0.60547300  0.97199500  1
  Si  Si2  1  0.23951300  0.11778400  0.34834100  1
  Si  Si3  1  0.84839600  0.05543800  0.68564200  1
  Si  Si4  1  0.52421800  0.04384400  0.23726200  1
  Si  Si5  1  0.23210600  0.95940900  0.78032700  1
  Si  Si6  1  0.72912600  0.28996900  0.08396800  1
  Si  Si7  1  0.22764700  0.63227800  0.73314400  1
  Si  Si8  1  0.96897200  0.71752100  0.23531300  1
  Si  Si9  1  0.17696900  0.07798400  0.59277200  1
  Si  Si10  1  0.88809300  0.85294300  0.87135700  1
  Si  Si11  1  0.85561600  0.04363500  0.08740100  1
  Si  Si12  1  0.54451000  0.51944700  0.39100400  1
  Si  Si13  1  0.83025900  0.38041400  0.74946000  1
  Si  Si14  1  0.52114700  0.25459800  0.89724900  1
  Si  Si15  1  0.25933200  0.68592600  0.11263400  1
  Si  Si16  1  0.53016200  0.77924700  0.57199800  1
  Si  Si17  1  0.86938300  0.40698100  0.33676300  1
loop_
_geom_bond_atom_site_label_1
_geom_bond_atom_site_label_2
_geom_bond_distance
_geom_bond_site_symmetry_2
Mg0 Si14 2.735381 1_555
Mg0 Si7 2.739481 1_555
Mg0 Si16 2.859438 1_555
Mg0 Si13 2.925167 1_555
Mg0 Si9 2.962379 1_555
Mg0 Mg7 3.081606 1_555
Mg0 Si10 3.096555 1_555
Mg1 Si8 2.731485 1_555
Mg1 Si4 2.823917 1_565
Mg1 Si12 2.873091 1_555
Mg1 Si16 2.892847 1_555
Mg1 Si2 2.904453 1_665
Mg1 Si11 2.937406 1_565
Mg1 Si17 3.220494 1_565
Mg2 Si17 2.798817 1_555
Mg2 Si13 2.816418 1_555
Mg2 Si9 2.820598 1_555
Mg2 Si16 2.958275 1_545
Mg2 Si4 2.960737 1_555
Mg2 Si2 3.060825 1_555
Mg2 Si12 3.213431 1_555
Mg2 Si3 3.223037 1_555
Mg3 Si16 2.689246 1_555
Mg3 Si4 2.730480 1_565
Mg3 Si8 2.770394 1_455
Mg3 Si17 2.850647 1_455
Mg3 Si15 2.867431 1_555
Mg3 Si2 2.968986 1_565
Mg3 Si0 3.028931 1_555
Mg3 Si12 3.230234 1_555
Mg4 Si9 2.726275 1_665
Mg4 Si17 2.814721 1_555
Mg4 Si13 2.897973 1_555
Mg4 Si12 2.944386 1_555
Mg4 Si5 3.109496 1_655
Mg4 Si3 3.114796 1_565
Mg4 Si16 3.182541 1_555
Mg4 Si10 3.205294 1_555
Mg5 Si7 2.649751 1_555
Mg5 Si9 2.732885 1_555
Mg5 Si17 2.773321 1_455
Mg5 Si2 2.815976 1_555
Mg5 Si3 2.960792 1_455
Mg5 Si0 2.977559 1_555
Mg5 Si13 3.082079 1_455
Mg5 Si12 3.118163 1_555
Mg5 Si16 3.142381 1_555
Mg6 Si15 2.786980 1_555
Mg6 Si8 2.903366 1_555
Mg6 Si6 2.904724 1_555
Mg6 Si14 2.917856 1_554
Mg6 Si0 3.017802 1_555
Mg6 Si12 3.030664 1_555
Mg6 Si11 3.036253 1_565
Mg6 Si1 3.061560 1_554
Mg6 Mg7 3.479657 1_554
Mg7 Si1 2.880442 1_455
Mg7 Si11 2.883590 1_456
Mg7 Si15 2.888815 1_556
Mg7 Si7 3.008310 1_555
Mg7 Si10 3.031874 1_445
Mg7 Si3 3.031916 1_455
Mg7 Si14 3.144760 1_555
Mg7 Si13 3.152821 1_455
Mg7 Si5 3.232854 1_545
Mg7 Si0 3.254246 1_556
Mg7 Si6 3.266202 1_456
Mg7 Mg8 3.272908 1_556
Mg8 Si14 2.714339 1_554
Mg8 Si0 2.753992 1_555
Mg8 Si4 2.817864 1_555
Mg8 Si11 2.818322 1_455
Mg8 Si2 2.820897 1_555
Mg8 Si15 2.857273 1_545
Mg8 Si1 2.935916 1_444
Mg8 Si8 2.975647 1_445
Mg8 Si5 3.026786 1_544
Mg8 Si10 3.071617 1_444
Mg8 Si6 3.153536 1_555
Mg9 Si7 2.705901 1_555
Mg9 Si10 2.764476 1_555
Mg9 Si11 2.780338 1_566
Mg9 Si14 2.815528 1_565
Mg9 Si15 2.854234 1_556
Mg9 Si6 2.955042 1_566
Mg9 Si5 2.990587 1_555
Mg9 Si3 3.138316 1_565
Si0 Si11 2.537279 1_455
Si0 Si2 2.544305 1_555
Si0 Si17 2.570783 1_455
Si0 Si15 2.787908 1_555
Si1 Si15 2.477516 1_656
Si1 Si6 2.554629 1_556
Si1 Si13 2.571202 1_555
Si1 Si10 2.578655 1_555
Si1 Si8 2.733583 1_556
Si2 Si4 2.573295 1_555
Si2 Si9 2.598588 1_555
Si2 Si8 2.758154 1_445
Si3 Si9 2.479400 1_655
Si4 Si6 2.470750 1_555
Si5 Si7 2.392761 1_555
Si5 Si9 2.419529 1_565
Si10 Si5 2.425454 1_655
Si10 Si11 2.517483 1_566
Si10 Si3 2.766389 1_565
Si11 Si6 2.445552 1_555
Si11 Si4 2.801349 1_555
Si12 Si16 2.505042 1_555
Si12 Si2 2.704501 1_555
Si12 Si17 2.898828 1_555
Si13 Si3 2.471530 1_555
Si13 Si14 2.510772 1_555
Si13 Si7 2.603032 1_655
Si14 Si5 2.401749 1_545
Si14 Si6 2.475966 1_556
Si15 Si8 2.503187 1_455
Si15 Si4 2.594688 1_565
Si16 Si3 2.453685 1_565
Si16 Si7 2.578660 1_555
Si17 Si8 2.463189 1_555
Si17 Si6 2.749908 1_555
Si17 Si4 2.753533 1_555
