# generated using pymatgen
data_YbTmSe2
_symmetry_space_group_name_H-M   'P 1'
_cell_length_a   7.11826240
_cell_length_b   7.11826240
_cell_length_c   7.11826186
_cell_angle_alpha   33.11568494
_cell_angle_beta   33.11568494
_cell_angle_gamma   33.11568541
_symmetry_Int_Tables_number   1
_chemical_formula_structural   YbTmSe2
_chemical_formula_sum   'Yb1 Tm1 Se2'
_cell_volume   95.82161662
_cell_formula_units_Z   1
loop_
 _symmetry_equiv_pos_site_id
 _symmetry_equiv_pos_as_xyz
  1  'x, y, z'
loop_
 _atom_site_type_symbol
 _atom_site_label
 _atom_site_symmetry_multiplicity
 _atom_site_fract_x
 _atom_site_fract_y
 _atom_site_fract_z
 _atom_site_occupancy
  Yb  Yb0  1  0.00000000  0.00000000  0.00000000  1
  Tm  Tm0  1  0.50000000  0.50000000  0.50000000  1
  Se  Se0  1  0.24797200  0.24797200  0.24797200  1
  Se  Se1  1  0.75202800  0.75202800  0.75202800  1
loop_
_geom_bond_atom_site_label_1
_geom_bond_atom_site_label_2
_geom_bond_distance
_geom_bond_site_symmetry_2
Se0 Tm0 2.859200 1_554
Se0 Tm0 2.859200 1_545
Se0 Tm0 2.859200 1_455
Se0 Yb0 2.906874 1_556
Se0 Yb0 2.906874 1_655
Se0 Yb0 2.906874 1_565
Se1 Tm0 2.859200 1_556
Se1 Tm0 2.859200 1_565
Se1 Tm0 2.859200 1_655
Se1 Yb0 2.906874 1_665
Se1 Yb0 2.906874 1_566
Se1 Yb0 2.906874 1_656
