# generated using pymatgen
data_Ho3Ge13Os4
_symmetry_space_group_name_H-M   'P 1'
_cell_length_a   9.00923046
_cell_length_b   9.00923046
_cell_length_c   9.00923046
_cell_angle_alpha   90.00000000
_cell_angle_beta   90.00000000
_cell_angle_gamma   90.00000000
_symmetry_Int_Tables_number   1
_chemical_formula_structural   Ho3Ge13Os4
_chemical_formula_sum   'Ho6 Ge26 Os8'
_cell_volume   731.24530300
_cell_formula_units_Z   2
loop_
 _symmetry_equiv_pos_site_id
 _symmetry_equiv_pos_as_xyz
  1  'x, y, z'
loop_
 _atom_site_type_symbol
 _atom_site_label
 _atom_site_symmetry_multiplicity
 _atom_site_fract_x
 _atom_site_fract_y
 _atom_site_fract_z
 _atom_site_occupancy
  Ho  Ho0  1  -0.00000000  0.50000000  0.75000000  1
  Ho  Ho1  1  0.50000000  0.25000000  0.00000000  1
  Ho  Ho2  1  0.75000000  -0.00000000  0.50000000  1
  Ho  Ho3  1  -0.00000000  0.50000000  0.25000000  1
  Ho  Ho4  1  0.50000000  0.75000000  0.00000000  1
  Ho  Ho5  1  0.25000000  -0.00000000  0.50000000  1
  Ge  Ge0  1  0.50000000  0.50000000  0.50000000  1
  Ge  Ge1  1  -0.00000000  -0.00000000  0.00000000  1
  Ge  Ge2  1  0.79550952  0.35627614  0.50000000  1
  Ge  Ge3  1  0.64372386  0.50000000  0.79550952  1
  Ge  Ge4  1  0.50000000  0.20449048  0.64372386  1
  Ge  Ge5  1  0.20449048  0.64372386  0.50000000  1
  Ge  Ge6  1  0.35627614  0.50000000  0.20449048  1
  Ge  Ge7  1  0.50000000  0.79550952  0.35627614  1
  Ge  Ge8  1  0.79550952  0.64372386  0.50000000  1
  Ge  Ge9  1  0.64372386  0.50000000  0.20449048  1
  Ge  Ge10  1  0.20449048  0.35627614  0.50000000  1
  Ge  Ge11  1  0.35627614  0.50000000  0.79550952  1
  Ge  Ge12  1  0.50000000  0.79550952  0.64372386  1
  Ge  Ge13  1  0.50000000  0.20449048  0.35627614  1
  Ge  Ge14  1  0.29550952  -0.00000000  0.85627614  1
  Ge  Ge15  1  0.14372386  0.29550952  0.00000000  1
  Ge  Ge16  1  -0.00000000  0.14372386  0.70449048  1
  Ge  Ge17  1  0.70449048  -0.00000000  0.14372386  1
  Ge  Ge18  1  0.85627614  0.70449048  0.00000000  1
  Ge  Ge19  1  -0.00000000  0.85627614  0.29550952  1
  Ge  Ge20  1  0.29550952  -0.00000000  0.14372386  1
  Ge  Ge21  1  0.14372386  0.70449048  0.00000000  1
  Ge  Ge22  1  0.70449048  -0.00000000  0.85627614  1
  Ge  Ge23  1  0.85627614  0.29550952  0.00000000  1
  Ge  Ge24  1  -0.00000000  0.14372386  0.29550952  1
  Ge  Ge25  1  -0.00000000  0.85627614  0.70449048  1
  Os  Os0  1  0.75000000  0.25000000  0.75000000  1
  Os  Os1  1  0.25000000  0.75000000  0.25000000  1
  Os  Os2  1  0.75000000  0.75000000  0.25000000  1
  Os  Os3  1  0.25000000  0.25000000  0.75000000  1
  Os  Os4  1  0.25000000  0.75000000  0.75000000  1
  Os  Os5  1  0.75000000  0.25000000  0.25000000  1
  Os  Os6  1  0.25000000  0.25000000  0.25000000  1
  Os  Os7  1  0.75000000  0.75000000  0.75000000  1
loop_
_geom_bond_atom_site_label_1
_geom_bond_atom_site_label_2
_geom_bond_distance
_geom_bond_site_symmetry_2
Ho0 Os4 3.185244 1_555
Ho0 Os0 3.185244 1_455
Ho0 Os7 3.185244 1_455
Ho0 Os3 3.185244 1_555
Ho1 Os5 3.185244 1_555
Ho1 Os3 3.185244 1_554
Ho1 Os0 3.185244 1_554
Ho1 Os6 3.185244 1_555
Ho2 Os7 3.185244 1_545
Ho2 Os5 3.185244 1_555
Ho2 Os2 3.185244 1_545
Ho2 Os0 3.185244 1_555
Ho3 Os2 3.185244 1_455
Ho3 Os1 3.185244 1_555
Ho3 Os6 3.185244 1_555
Ho3 Os5 3.185244 1_455
Ho4 Os1 3.185244 1_555
Ho4 Os2 3.185244 1_555
Ho4 Os7 3.185244 1_554
Ho4 Os4 3.185244 1_554
Ho5 Os1 3.185244 1_545
Ho5 Os3 3.185244 1_555
Ho5 Os6 3.185244 1_555
Ho5 Os4 3.185244 1_545
Ge0 Ge11 2.960494 1_555
Ge0 Ge3 2.960494 1_555
Ge0 Ge8 2.960494 1_555
Ge0 Ge7 2.960494 1_555
Ge0 Ge5 2.960494 1_555
Ge0 Ge12 2.960494 1_555
Ge0 Ge2 2.960494 1_555
Ge0 Ge9 2.960494 1_555
Ge0 Ge6 2.960494 1_555
Ge0 Ge4 2.960494 1_555
Ge0 Ge13 2.960494 1_555
Ge0 Ge10 2.960494 1_555
Ge1 Ge18 2.960494 1_445
Ge1 Ge16 2.960494 1_554
Ge1 Ge17 2.960494 1_455
Ge1 Ge21 2.960494 1_545
Ge1 Ge22 2.960494 1_454
Ge1 Ge25 2.960494 1_544
Ge1 Ge24 2.960494 1_555
Ge1 Ge15 2.960494 1_555
Ge1 Ge14 2.960494 1_554
Ge1 Ge23 2.960494 1_455
Ge1 Ge20 2.960494 1_555
Ge1 Ge19 2.960494 1_545
Ge2 Os0 2.481479 1_555
Ge2 Os5 2.481479 1_555
Ge2 Ho0 3.184899 1_655
Ge2 Ho3 3.184899 1_655
Ge2 Ho2 3.235854 1_555
Ge3 Os0 2.481479 1_555
Ge3 Os7 2.481479 1_555
Ge3 Ho1 3.184899 1_556
Ge3 Ho4 3.184899 1_556
Ge3 Ho0 3.235854 1_655
Ge4 Os3 2.481479 1_555
Ge4 Os0 2.481479 1_555
Ge4 Ho2 3.184899 1_555
Ge4 Ho5 3.184899 1_555
Ge4 Ho1 3.235854 1_556
Ge5 Os4 2.481479 1_555
Ge5 Os1 2.481479 1_555
Ge5 Ho0 3.184899 1_555
Ge5 Ho3 3.184899 1_555
Ge5 Ho5 3.235854 1_565
Ge6 Os1 2.481479 1_555
Ge6 Os6 2.481479 1_555
Ge6 Ho1 3.184899 1_555
Ge6 Ho4 3.184899 1_555
Ge6 Ho3 3.235854 1_555
Ge7 Os2 2.481479 1_555
Ge7 Os1 2.481479 1_555
Ge7 Ho5 3.184899 1_565
Ge7 Ho2 3.184899 1_565
Ge7 Ho4 3.235854 1_555
Ge8 Os7 2.481479 1_555
Ge8 Os2 2.481479 1_555
Ge8 Ho0 3.184899 1_655
Ge8 Ho3 3.184899 1_655
Ge8 Ho2 3.235854 1_565
Ge9 Os5 2.481479 1_555
Ge9 Os2 2.481479 1_555
Ge9 Ho1 3.184899 1_555
Ge9 Ho4 3.184899 1_555
Ge9 Ho3 3.235854 1_655
Ge10 Os6 2.481479 1_555
Ge10 Os3 2.481479 1_555
Ge10 Ho0 3.184899 1_555
Ge10 Ho3 3.184899 1_555
Ge10 Ho5 3.235854 1_555
Ge11 Os4 2.481479 1_555
Ge11 Os3 2.481479 1_555
Ge11 Ho4 3.184899 1_556
Ge11 Ho1 3.184899 1_556
Ge11 Ho0 3.235854 1_555
Ge12 Os7 2.481479 1_555
Ge12 Os4 2.481479 1_555
Ge12 Ho2 3.184899 1_565
Ge12 Ho5 3.184899 1_565
Ge12 Ho4 3.235854 1_556
Ge13 Os5 2.481479 1_555
Ge13 Os6 2.481479 1_555
Ge13 Ho2 3.184899 1_555
Ge13 Ho5 3.184899 1_555
Ge13 Ho1 3.235854 1_555
Ge14 Os3 2.481479 1_555
Ge14 Os4 2.481479 1_545
Ge14 Ho4 3.184899 1_546
Ge14 Ho1 3.184899 1_556
Ge14 Ho5 3.235854 1_555
Ge15 Os6 2.481479 1_555
Ge15 Os3 2.481479 1_554
Ge15 Ho0 3.184899 1_554
Ge15 Ho3 3.184899 1_555
Ge15 Ho1 3.235854 1_555
Ge16 Os3 2.481479 1_555
Ge16 Os0 2.481479 1_455
Ge16 Ho2 3.184899 1_455
Ge16 Ho5 3.184899 1_555
Ge16 Ho0 3.235854 1_555
Ge17 Os5 2.481479 1_555
Ge17 Os2 2.481479 1_545
Ge17 Ho1 3.184899 1_555
Ge17 Ho4 3.184899 1_545
Ge17 Ho2 3.235854 1_555
Ge18 Os7 2.481479 1_554
Ge18 Os2 2.481479 1_555
Ge18 Ho3 3.184899 1_655
Ge18 Ho0 3.184899 1_654
Ge18 Ho4 3.235854 1_555
Ge19 Os2 2.481479 1_455
Ge19 Os1 2.481479 1_555
Ge19 Ho2 3.184899 1_465
Ge19 Ho5 3.184899 1_565
Ge19 Ho3 3.235854 1_555
Ge20 Os6 2.481479 1_555
Ge20 Os1 2.481479 1_545
Ge20 Ho4 3.184899 1_545
Ge20 Ho1 3.184899 1_555
Ge20 Ho5 3.235854 1_555
Ge21 Os4 2.481479 1_554
Ge21 Os1 2.481479 1_555
Ge21 Ho0 3.184899 1_554
Ge21 Ho3 3.184899 1_555
Ge21 Ho4 3.235854 1_555
Ge22 Os0 2.481479 1_555
Ge22 Os7 2.481479 1_545
Ge22 Ho1 3.184899 1_556
Ge22 Ho4 3.184899 1_546
Ge22 Ho2 3.235854 1_555
Ge23 Os0 2.481479 1_554
Ge23 Os5 2.481479 1_555
Ge23 Ho3 3.184899 1_655
Ge23 Ho0 3.184899 1_654
Ge23 Ho1 3.235854 1_555
Ge24 Os6 2.481479 1_555
Ge24 Os5 2.481479 1_455
Ge24 Ho2 3.184899 1_455
Ge24 Ho5 3.184899 1_555
Ge24 Ho3 3.235854 1_555
Ge25 Os4 2.481479 1_555
Ge25 Os7 2.481479 1_455
Ge25 Ho5 3.184899 1_565
Ge25 Ho2 3.184899 1_465
Ge25 Ho0 3.235854 1_555
