# generated using pymatgen
data_Ba2In2(PO4)3
_symmetry_space_group_name_H-M   'P 1'
_cell_length_a   10.48593300
_cell_length_b   10.48593300
_cell_length_c   10.48593300
_cell_angle_alpha   90.00000000
_cell_angle_beta   90.00000000
_cell_angle_gamma   90.00000000
_symmetry_Int_Tables_number   1
_chemical_formula_structural   Ba2In2(PO4)3
_chemical_formula_sum   'Ba8 In8 P12 O48'
_cell_volume   1152.97857020
_cell_formula_units_Z   4
loop_
 _symmetry_equiv_pos_site_id
 _symmetry_equiv_pos_as_xyz
  1  'x, y, z'
loop_
 _atom_site_type_symbol
 _atom_site_label
 _atom_site_symmetry_multiplicity
 _atom_site_fract_x
 _atom_site_fract_y
 _atom_site_fract_z
 _atom_site_occupancy
  Ba  Ba0  1  0.05574000  0.05574000  0.05574000  1
  Ba  Ba1  1  0.44426000  0.94426000  0.55574000  1
  Ba  Ba2  1  0.94426000  0.55574000  0.44426000  1
  Ba  Ba3  1  0.55574000  0.44426000  0.94426000  1
  Ba  Ba4  1  0.80727200  0.80727200  0.80727200  1
  Ba  Ba5  1  0.69272800  0.19272800  0.30727200  1
  Ba  Ba6  1  0.19272800  0.30727200  0.69272800  1
  Ba  Ba7  1  0.30727200  0.69272800  0.19272800  1
  In  In0  1  0.33051000  0.33051000  0.33051000  1
  In  In1  1  0.16949000  0.66949000  0.83051000  1
  In  In2  1  0.66949000  0.83051000  0.16949000  1
  In  In3  1  0.83051000  0.16949000  0.66949000  1
  In  In4  1  0.58541900  0.58541900  0.58541900  1
  In  In5  1  0.91458100  0.41458100  0.08541900  1
  In  In6  1  0.41458100  0.08541900  0.91458100  1
  In  In7  1  0.08541900  0.91458100  0.41458100  1
  P  P0  1  0.01450800  0.23038400  0.37905000  1
  P  P1  1  0.48549200  0.76961600  0.87905000  1
  P  P2  1  0.98549200  0.73038400  0.12095000  1
  P  P3  1  0.37905000  0.01450800  0.23038400  1
  P  P4  1  0.51450800  0.26961600  0.62095000  1
  P  P5  1  0.87905000  0.48549200  0.76961600  1
  P  P6  1  0.12095000  0.98549200  0.73038400  1
  P  P7  1  0.62095000  0.51450800  0.26961600  1
  P  P8  1  0.23038400  0.37905000  0.01450800  1
  P  P9  1  0.73038400  0.12095000  0.98549200  1
  P  P10  1  0.26961600  0.62095000  0.51450800  1
  P  P11  1  0.76961600  0.87905000  0.48549200  1
  O  O0  1  0.00097600  0.10158800  0.30795600  1
  O  O1  1  0.49902400  0.89841200  0.80795600  1
  O  O2  1  0.99902400  0.60158800  0.19204400  1
  O  O3  1  0.30795600  0.00097600  0.10158800  1
  O  O4  1  0.50097600  0.39841200  0.69204400  1
  O  O5  1  0.80795600  0.49902400  0.89841200  1
  O  O6  1  0.19204400  0.99902400  0.60158800  1
  O  O7  1  0.69204400  0.50097600  0.39841200  1
  O  O8  1  0.10158800  0.30795600  0.00097600  1
  O  O9  1  0.60158800  0.19204400  0.99902400  1
  O  O10  1  0.39841200  0.69204400  0.50097600  1
  O  O11  1  0.89841200  0.80795600  0.49902400  1
  O  O12  1  0.04752300  0.83671500  0.20429500  1
  O  O13  1  0.45247700  0.16328500  0.70429500  1
  O  O14  1  0.95247700  0.33671500  0.29570500  1
  O  O15  1  0.20429500  0.04752300  0.83671500  1
  O  O16  1  0.54752300  0.66328500  0.79570500  1
  O  O17  1  0.70429500  0.45247700  0.16328500  1
  O  O18  1  0.29570500  0.95247700  0.33671500  1
  O  O19  1  0.79570500  0.54752300  0.66328500  1
  O  O20  1  0.83671500  0.20429500  0.04752300  1
  O  O21  1  0.33671500  0.29570500  0.95247700  1
  O  O22  1  0.66328500  0.79570500  0.54752300  1
  O  O23  1  0.16328500  0.70429500  0.45247700  1
  O  O24  1  0.15665200  0.25704600  0.41465900  1
  O  O25  1  0.34334800  0.74295400  0.91465900  1
  O  O26  1  0.84334800  0.75704600  0.08534100  1
  O  O27  1  0.41465900  0.15665200  0.25704600  1
  O  O28  1  0.65665200  0.24295400  0.58534100  1
  O  O29  1  0.91465900  0.34334800  0.74295400  1
  O  O30  1  0.08534100  0.84334800  0.75704600  1
  O  O31  1  0.58534100  0.65665200  0.24295400  1
  O  O32  1  0.25704600  0.41465900  0.15665200  1
  O  O33  1  0.75704600  0.08534100  0.84334800  1
  O  O34  1  0.24295400  0.58534100  0.65665200  1
  O  O35  1  0.74295400  0.91465900  0.34334800  1
  O  O36  1  0.26641500  0.49385500  0.43914400  1
  O  O37  1  0.23358500  0.50614500  0.93914400  1
  O  O38  1  0.73358500  0.99385500  0.06085600  1
  O  O39  1  0.43914400  0.26641500  0.49385500  1
  O  O40  1  0.76641500  0.00614500  0.56085600  1
  O  O41  1  0.93914400  0.23358500  0.50614500  1
  O  O42  1  0.06085600  0.73358500  0.99385500  1
  O  O43  1  0.56085600  0.76641500  0.00614500  1
  O  O44  1  0.49385500  0.43914400  0.26641500  1
  O  O45  1  0.99385500  0.06085600  0.73358500  1
  O  O46  1  0.00614500  0.56085600  0.76641500  1
  O  O47  1  0.50614500  0.93914400  0.23358500  1
loop_
_geom_bond_atom_site_label_1
_geom_bond_atom_site_label_2
_geom_bond_distance
_geom_bond_site_symmetry_2
Ba0 O8 2.748716 1_555
Ba0 O3 2.748716 1_555
Ba0 O0 2.748716 1_555
Ba0 O20 2.776458 1_455
Ba0 O12 2.776458 1_545
Ba0 O15 2.776458 1_554
Ba1 O1 2.748716 1_555
Ba1 O6 2.748716 1_555
Ba1 O10 2.748716 1_555
Ba1 O13 2.776458 1_565
Ba1 O22 2.776458 1_555
Ba1 O18 2.776458 1_555
Ba2 O11 2.748716 1_555
Ba2 O2 2.748716 1_555
Ba2 O7 2.748716 1_555
Ba2 O23 2.776458 1_655
Ba2 O19 2.776458 1_555
Ba2 O14 2.776458 1_555
Ba3 O5 2.748716 1_555
Ba3 O9 2.748716 1_555
Ba3 O4 2.748716 1_555
Ba3 O17 2.776458 1_556
Ba3 O16 2.776458 1_555
Ba3 O21 2.776458 1_555
Ba4 O26 2.987046 1_556
Ba4 O33 2.987046 1_565
Ba4 O30 2.987046 1_655
Ba4 O22 3.116556 1_555
Ba4 O19 3.116556 1_555
Ba4 O16 3.116556 1_555
Ba4 O43 3.347963 1_556
Ba4 O46 3.347963 1_655
Ba4 O40 3.347963 1_565
Ba4 O1 3.370600 1_555
Ba4 O11 3.370600 1_555
Ba4 O5 3.370600 1_555
Ba4 O45 3.390507 1_565
Ba4 O42 3.390507 1_655
Ba4 O38 3.390507 1_556
Ba5 O35 2.987046 1_545
Ba5 O28 2.987046 1_555
Ba5 O27 2.987046 1_555
Ba5 O14 3.116556 1_555
Ba5 O17 3.116556 1_555
Ba5 O20 3.116556 1_555
Ba5 O38 3.347963 1_545
Ba5 O41 3.347963 1_555
Ba5 O44 3.347963 1_555
Ba5 O0 3.370600 1_655
Ba5 O7 3.370600 1_555
Ba5 O9 3.370600 1_554
Ba5 O47 3.390507 1_545
Ba5 O40 3.390507 1_555
Ba5 O39 3.390507 1_555
Ba6 O29 2.987046 1_455
Ba6 O24 2.987046 1_555
Ba6 O34 2.987046 1_555
Ba6 O21 3.116556 1_555
Ba6 O13 3.116556 1_555
Ba6 O15 3.116556 1_555
Ba6 O45 3.347963 1_455
Ba6 O37 3.347963 1_555
Ba6 O39 3.347963 1_555
Ba6 O8 3.370600 1_556
Ba6 O4 3.370600 1_555
Ba6 O6 3.370600 1_545
Ba6 O41 3.390507 1_455
Ba6 O46 3.390507 1_555
Ba6 O36 3.390507 1_555
Ba7 O25 2.987046 1_554
Ba7 O31 2.987046 1_555
Ba7 O32 2.987046 1_555
Ba7 O18 3.116556 1_555
Ba7 O23 3.116556 1_555
Ba7 O12 3.116556 1_555
Ba7 O42 3.347963 1_554
Ba7 O47 3.347963 1_555
Ba7 O36 3.347963 1_555
Ba7 O3 3.370600 1_565
Ba7 O10 3.370600 1_555
Ba7 O2 3.370600 1_455
Ba7 O37 3.390507 1_554
Ba7 O43 3.390507 1_555
Ba7 O44 3.390507 1_555
In0 O39 2.164046 1_555
In0 O44 2.164046 1_555
In0 O36 2.164046 1_555
In0 O32 2.166928 1_555
In0 O24 2.166928 1_555
In0 O27 2.166928 1_555
In1 O42 2.164046 1_555
In1 O37 2.164046 1_555
In1 O46 2.164046 1_555
In1 O34 2.166928 1_555
In1 O25 2.166928 1_555
In1 O30 2.166928 1_555
In2 O38 2.164046 1_555
In2 O47 2.164046 1_555
In2 O43 2.164046 1_555
In2 O31 2.166928 1_555
In2 O35 2.166928 1_555
In2 O26 2.166928 1_555
In3 O45 2.164046 1_555
In3 O41 2.164046 1_555
In3 O40 2.164046 1_555
In3 O28 2.166928 1_555
In3 O29 2.166928 1_555
In3 O33 2.166928 1_555
In4 O22 2.384701 1_555
In4 O19 2.384701 1_555
In4 O16 2.384701 1_555
In4 O10 2.424749 1_555
In4 O7 2.424749 1_555
In4 O4 2.424749 1_555
In5 O17 2.384701 1_555
In5 O14 2.384701 1_555
In5 O20 2.384701 1_555
In5 O5 2.424749 1_554
In5 O2 2.424749 1_555
In5 O8 2.424749 1_655
In6 O13 2.384701 1_555
In6 O21 2.384701 1_555
In6 O15 2.384701 1_555
In6 O1 2.424749 1_545
In6 O9 2.424749 1_555
In6 O3 2.424749 1_556
In7 O23 2.384701 1_555
In7 O18 2.384701 1_555
In7 O12 2.384701 1_555
In7 O11 2.424749 1_455
In7 O6 2.424749 1_555
In7 O0 2.424749 1_565
O0 P0 1.549148 1_555
O1 P1 1.549148 1_555
O2 P2 1.549148 1_555
O3 P3 1.549148 1_555
O4 P4 1.549148 1_555
O5 P5 1.549148 1_555
O6 P6 1.549148 1_555
O7 P7 1.549148 1_555
O8 P8 1.549148 1_555
O9 P9 1.549148 1_555
O10 P10 1.549148 1_555
O11 P11 1.549148 1_555
O12 P2 1.558864 1_455
O13 P4 1.558864 1_555
O14 P0 1.558864 1_655
O15 P6 1.558864 1_545
O16 P1 1.558864 1_555
O17 P7 1.558864 1_555
O18 P3 1.558864 1_565
O19 P5 1.558864 1_555
O20 P9 1.558864 1_554
O21 P8 1.558864 1_556
O22 P11 1.558864 1_555
O23 P10 1.558864 1_555
O24 P0 1.561798 1_555
O25 P1 1.561798 1_555
O26 P2 1.561798 1_555
O27 P3 1.561798 1_555
O28 P4 1.561798 1_555
O29 P5 1.561798 1_555
O30 P6 1.561798 1_555
O31 P7 1.561798 1_555
O32 P8 1.561798 1_555
O33 P9 1.561798 1_555
O34 P10 1.561798 1_555
O35 P11 1.561798 1_555
O36 P10 1.549760 1_555
O37 P8 1.549760 1_556
O38 P9 1.549760 1_564
O39 P4 1.549760 1_555
O40 P11 1.549760 1_545
O41 P0 1.549760 1_655
O42 P2 1.549760 1_456
O43 P1 1.549760 1_554
O44 P7 1.549760 1_555
O45 P6 1.549760 1_645
O46 P5 1.549760 1_455
O47 P3 1.549760 1_565
