# generated using pymatgen
data_Ce2PPt8
_symmetry_space_group_name_H-M   'P 1'
_cell_length_a   9.14339486
_cell_length_b   9.14334902
_cell_length_c   4.27435817
_cell_angle_alpha   90.00000000
_cell_angle_beta   90.00000000
_cell_angle_gamma   145.48772698
_symmetry_Int_Tables_number   1
_chemical_formula_structural   Ce2PPt8
_chemical_formula_sum   'Ce2 P1 Pt8'
_cell_volume   202.46363836
_cell_formula_units_Z   1
loop_
 _symmetry_equiv_pos_site_id
 _symmetry_equiv_pos_as_xyz
  1  'x, y, z'
loop_
 _atom_site_type_symbol
 _atom_site_label
 _atom_site_symmetry_multiplicity
 _atom_site_fract_x
 _atom_site_fract_y
 _atom_site_fract_z
 _atom_site_occupancy
  Ce  Ce0  1  0.61973361  0.37117534  0.50000000  1
  Ce  Ce1  1  0.37114779  0.61970071  0.50000000  1
  P  P0  1  0.22374221  0.22374061  -0.00000000  1
  Pt  Pt0  1  0.11058996  0.89117927  0.00000000  1
  Pt  Pt1  1  0.89122654  0.11065421  0.00000000  1
  Pt  Pt2  1  0.48974446  0.98368391  -0.00000000  1
  Pt  Pt3  1  0.98379124  0.48974369  -0.00000000  1
  Pt  Pt4  1  0.19402413  0.79254680  0.50000000  1
  Pt  Pt5  1  0.79255938  0.19396481  0.50000000  1
  Pt  Pt6  1  0.00526873  0.00534047  0.50000000  1
  Pt  Pt7  1  0.63177096  0.63186919  -0.00000000  1
loop_
_geom_bond_atom_site_label_1
_geom_bond_atom_site_label_2
_geom_bond_distance
_geom_bond_site_symmetry_2
Ce0 Pt4 3.012641 1_655
Ce0 Pt4 3.033732 1_545
Ce0 Pt5 3.056474 1_555
Ce0 Pt7 3.135111 1_555
Ce0 Pt7 3.135111 1_556
Ce0 Pt3 3.297885 1_556
Ce0 Pt3 3.297885 1_555
Ce0 P0 3.383864 1_555
Ce0 P0 3.383864 1_556
Ce0 Pt2 3.404862 1_545
Ce0 Pt2 3.404862 1_546
Ce0 Pt6 3.432638 1_555
Ce0 Pt0 3.439492 1_545
Ce0 Pt0 3.439492 1_546
Ce0 Pt0 3.485637 1_656
Ce0 Pt0 3.485637 1_655
Ce0 Pt6 3.516037 1_665
Ce1 Pt5 3.012395 1_565
Ce1 Pt5 3.033464 1_455
Ce1 Pt4 3.055892 1_555
Ce1 Pt7 3.133938 1_556
Ce1 Pt7 3.133938 1_555
Ce1 Pt2 3.297237 1_555
Ce1 Pt2 3.297237 1_556
Ce1 P0 3.383764 1_555
Ce1 P0 3.383764 1_556
Ce1 Pt3 3.404099 1_456
Ce1 Pt3 3.404099 1_455
Ce1 Pt6 3.431660 1_555
Ce1 Pt1 3.439110 1_455
Ce1 Pt1 3.439110 1_456
Ce1 Pt1 3.485993 1_565
Ce1 Pt1 3.485993 1_566
Ce1 Pt6 3.515394 1_665
P0 Pt7 2.213684 1_555
P0 Pt0 2.265367 1_545
P0 Pt1 2.265372 1_455
P0 Pt6 2.443691 1_554
P0 Pt6 2.443691 1_555
Pt0 Pt4 2.663946 1_555
Pt0 Pt4 2.663946 1_554
Pt0 Pt3 2.793469 1_455
Pt0 Pt2 2.810964 1_555
Pt1 Pt5 2.663490 1_555
Pt1 Pt5 2.663490 1_554
Pt1 Pt2 2.792857 1_545
Pt1 Pt3 2.809965 1_555
Pt2 Pt4 2.673061 1_555
Pt2 Pt4 2.673061 1_554
Pt2 Pt5 2.675291 1_565
Pt2 Pt5 2.675291 1_564
Pt2 Pt3 2.714065 1_455
Pt2 Pt3 2.714641 1_565
Pt3 Pt5 2.673150 1_555
Pt3 Pt5 2.673150 1_554
Pt3 Pt4 2.675295 1_654
Pt3 Pt4 2.675295 1_655
