# generated using pymatgen
data_NbCr3(CuS4)2
_symmetry_space_group_name_H-M   'P 1'
_cell_length_a   12.11439000
_cell_length_b   5.77587600
_cell_length_c   8.88954106
_cell_angle_alpha   50.52509141
_cell_angle_beta   90.00000000
_cell_angle_gamma   90.00000000
_symmetry_Int_Tables_number   1
_chemical_formula_structural   NbCr3(CuS4)2
_chemical_formula_sum   'Nb2 Cr6 Cu4 S16'
_cell_volume   480.13295751
_cell_formula_units_Z   2
loop_
 _symmetry_equiv_pos_site_id
 _symmetry_equiv_pos_as_xyz
  1  'x, y, z'
loop_
 _atom_site_type_symbol
 _atom_site_label
 _atom_site_symmetry_multiplicity
 _atom_site_fract_x
 _atom_site_fract_y
 _atom_site_fract_z
 _atom_site_occupancy
  Nb  Nb0  1  0.50000000  0.00000000  0.00000000  1
  Nb  Nb1  1  0.00000000  0.00000000  0.50000000  1
  Cr  Cr0  1  0.00000000  0.50000000  0.00000000  1
  Cr  Cr1  1  0.50000000  0.50000000  0.50000000  1
  Cr  Cr2  1  0.75040900  0.22087400  0.77044500  1
  Cr  Cr3  1  0.24959100  0.77912600  0.22955500  1
  Cr  Cr4  1  0.74959100  0.22087400  0.27044500  1
  Cr  Cr5  1  0.25040900  0.77912600  0.72955500  1
  Cu  Cu0  1  0.91590300  0.84907400  0.26065600  1
  Cu  Cu1  1  0.08409700  0.15092600  0.73934400  1
  Cu  Cu2  1  0.58409700  0.84907400  0.76065600  1
  Cu  Cu3  1  0.41590300  0.15092600  0.23934400  1
  S  S0  1  0.82969800  0.27203500  0.00302900  1
  S  S1  1  0.17030200  0.72796500  0.99697100  1
  S  S2  1  0.67170200  0.73737200  0.02112100  1
  S  S3  1  0.32829800  0.26262800  0.97887900  1
  S  S4  1  0.32969800  0.72796500  0.49697100  1
  S  S5  1  0.67030200  0.27203500  0.50302900  1
  S  S6  1  0.17170200  0.26262800  0.47887900  1
  S  S7  1  0.82829800  0.73737200  0.52112100  1
  S  S8  1  0.91218100  0.98921900  0.76042200  1
  S  S9  1  0.08781900  0.01078100  0.23957800  1
  S  S10  1  0.58781900  0.98921900  0.26042200  1
  S  S11  1  0.41218100  0.01078100  0.73957800  1
  S  S12  1  0.91183200  0.47964900  0.24613100  1
  S  S13  1  0.08816800  0.52035100  0.75386900  1
  S  S14  1  0.58816800  0.47964900  0.74613100  1
  S  S15  1  0.41183200  0.52035100  0.25386900  1
loop_
_geom_bond_atom_site_label_1
_geom_bond_atom_site_label_2
_geom_bond_distance
_geom_bond_site_symmetry_2
Nb0 S15 2.441201 1_545
Nb0 S14 2.441201 1_554
Nb0 S3 2.510140 1_554
Nb0 S2 2.510140 1_545
Nb0 S10 2.512327 1_545
Nb0 S11 2.512327 1_554
Nb1 S13 2.441201 1_545
Nb1 S12 2.441201 1_455
Nb1 S6 2.510140 1_555
Nb1 S7 2.510140 1_445
Nb1 S8 2.512327 1_445
Nb1 S9 2.512327 1_555
Cr0 S12 2.369590 1_455
Cr0 S13 2.369590 1_554
Cr0 S1 2.438389 1_554
Cr0 S0 2.438389 1_455
Cr0 S9 2.449557 1_555
Cr0 S8 2.449557 1_454
Cr1 S15 2.369590 1_555
Cr1 S14 2.369590 1_555
Cr1 S4 2.438389 1_555
Cr1 S5 2.438389 1_555
Cr1 S10 2.449557 1_555
Cr1 S11 2.449557 1_555
Cr2 S14 2.394356 1_555
Cr2 S2 2.400247 1_546
Cr2 S5 2.405624 1_555
Cr2 S8 2.406343 1_545
Cr2 S0 2.462033 1_556
Cr2 S7 2.509052 1_555
Cr3 S15 2.394356 1_555
Cr3 S3 2.400247 1_564
Cr3 S4 2.405624 1_555
Cr3 S9 2.406343 1_565
Cr3 S1 2.462033 1_554
Cr3 S6 2.509052 1_555
Cr4 S12 2.394356 1_555
Cr4 S7 2.400247 1_545
Cr4 S0 2.405624 1_555
Cr4 S10 2.406343 1_545
Cr4 S5 2.462033 1_555
Cr4 S2 2.509052 1_555
Cr5 S13 2.394356 1_555
Cr5 S6 2.400247 1_565
Cr5 S1 2.405624 1_555
Cr5 S11 2.406343 1_565
Cr5 S4 2.462033 1_555
Cr5 S3 2.509052 1_555
Cu0 S12 2.218629 1_555
Cu0 S7 2.237032 1_555
Cu0 S9 2.241073 1_665
Cu0 S0 2.278138 1_565
Cu1 S13 2.218629 1_555
Cu1 S6 2.237032 1_555
Cu1 S8 2.241073 1_445
Cu1 S1 2.278138 1_545
Cu2 S14 2.218629 1_555
Cu2 S2 2.237032 1_556
Cu2 S11 2.241073 1_565
Cu2 S5 2.278138 1_565
Cu3 S15 2.218629 1_555
Cu3 S3 2.237032 1_554
Cu3 S10 2.241073 1_545
Cu3 S4 2.278138 1_545
