# generated using pymatgen
data_Mg2Nb2CrO8
_symmetry_space_group_name_H-M   'P 1'
_cell_length_a   10.15339134
_cell_length_b   10.15339134
_cell_length_c   5.21936116
_cell_angle_alpha   89.01614277
_cell_angle_beta   89.01614277
_cell_angle_gamma   34.82431537
_symmetry_Int_Tables_number   1
_chemical_formula_structural   Mg2Nb2CrO8
_chemical_formula_sum   'Mg4 Nb4 Cr2 O16'
_cell_volume   307.22215499
_cell_formula_units_Z   2
loop_
 _symmetry_equiv_pos_site_id
 _symmetry_equiv_pos_as_xyz
  1  'x, y, z'
loop_
 _atom_site_type_symbol
 _atom_site_label
 _atom_site_symmetry_multiplicity
 _atom_site_fract_x
 _atom_site_fract_y
 _atom_site_fract_z
 _atom_site_occupancy
  Mg  Mg0  1  0.86908300  0.58227400  0.75377000  1
  Mg  Mg1  1  0.41327800  0.12646800  0.74783100  1
  Mg  Mg2  1  0.12646800  0.41327800  0.24783100  1
  Mg  Mg3  1  0.58227400  0.86908300  0.25377000  1
  Nb  Nb0  1  0.04271900  0.71687300  0.74203200  1
  Nb  Nb1  1  0.28326900  0.94772100  0.76249400  1
  Nb  Nb2  1  0.94772100  0.28326900  0.26249400  1
  Nb  Nb3  1  0.71687300  0.04271900  0.24203200  1
  Cr  Cr0  1  0.65059100  0.34390900  0.74534500  1
  Cr  Cr1  1  0.34390900  0.65059100  0.24534500  1
  O  O0  1  0.03982600  0.81009200  0.07355200  1
  O  O1  1  0.17972900  0.96466000  0.43246800  1
  O  O2  1  0.96466000  0.17972900  0.93246800  1
  O  O3  1  0.81009200  0.03982600  0.57355200  1
  O  O4  1  0.29563800  0.58126000  0.57410600  1
  O  O5  1  0.42872900  0.68186000  0.91253600  1
  O  O6  1  0.68186000  0.42872900  0.41253600  1
  O  O7  1  0.58126000  0.29563800  0.07410600  1
  O  O8  1  0.91234300  0.70783800  0.45373000  1
  O  O9  1  0.29379200  0.07878600  0.04548200  1
  O  O10  1  0.45054700  0.16133400  0.37960400  1
  O  O11  1  0.83599500  0.54423800  0.12106400  1
  O  O12  1  0.54423800  0.83599500  0.62106400  1
  O  O13  1  0.16133400  0.45054700  0.87960400  1
  O  O14  1  0.70783800  0.91234300  0.95373000  1
  O  O15  1  0.07878600  0.29379200  0.54548200  1
loop_
_geom_bond_atom_site_label_1
_geom_bond_atom_site_label_2
_geom_bond_distance
_geom_bond_site_symmetry_2
Mg0 O12 2.015406 1_555
Mg0 O15 2.021229 1_655
Mg0 O11 2.025470 1_556
Mg0 O13 2.132162 1_655
Mg0 O8 2.257855 1_555
Mg0 O14 2.460529 1_555
Mg1 O13 2.010410 1_555
Mg1 O10 2.033186 1_555
Mg1 O14 2.044757 1_545
Mg1 O12 2.121872 1_545
Mg1 O9 2.234610 1_556
Mg1 O15 2.474786 1_555
Mg2 O10 2.010410 1_555
Mg2 O13 2.033186 1_554
Mg2 O8 2.044757 1_455
Mg2 O11 2.121872 1_455
Mg2 O15 2.234610 1_555
Mg2 O9 2.474786 1_555
Mg3 O11 2.015406 1_555
Mg3 O9 2.021229 1_565
Mg3 O12 2.025470 1_555
Mg3 O10 2.132162 1_565
Mg3 O14 2.257855 1_554
Mg3 O8 2.460529 1_555
Nb0 O4 1.848642 1_555
Nb0 O13 1.973423 1_555
Nb0 O0 1.974733 1_556
Nb0 O8 2.073054 1_455
Nb0 O3 2.088260 1_465
Nb0 O14 2.363878 1_455
Nb1 O5 1.871594 1_555
Nb1 O1 1.963931 1_555
Nb1 O12 1.969604 1_555
Nb1 O2 2.064696 1_465
Nb1 O9 2.066460 1_566
Nb1 O15 2.430387 1_565
Nb2 O6 1.871594 1_555
Nb2 O2 1.963931 1_554
Nb2 O11 1.969604 1_555
Nb2 O1 2.064696 1_645
Nb2 O15 2.066460 1_655
Nb2 O9 2.430387 1_655
Nb3 O7 1.848642 1_555
Nb3 O10 1.973423 1_555
Nb3 O3 1.974733 1_555
Nb3 O14 2.073054 1_544
Nb3 O0 2.088260 1_645
Nb3 O8 2.363878 1_545
Cr0 O7 2.043581 1_556
Cr0 O6 2.058743 1_555
Cr0 O3 2.189786 1_555
Cr0 O5 2.225934 1_555
Cr0 O2 2.285843 1_555
Cr0 O4 2.317796 1_555
Cr1 O4 2.043581 1_555
Cr1 O5 2.058743 1_554
Cr1 O0 2.189786 1_555
Cr1 O6 2.225934 1_555
Cr1 O1 2.285843 1_555
Cr1 O7 2.317796 1_555
