# generated using pymatgen
data_K3NbSe4
_symmetry_space_group_name_H-M   'P 1'
_cell_length_a   9.69491950
_cell_length_b   9.79604561
_cell_length_c   11.16916529
_cell_angle_alpha   90.00000000
_cell_angle_beta   90.00000000
_cell_angle_gamma   90.00000000
_symmetry_Int_Tables_number   1
_chemical_formula_structural   K3NbSe4
_chemical_formula_sum   'K12 Nb4 Se16'
_cell_volume   1060.75655422
_cell_formula_units_Z   4
loop_
 _symmetry_equiv_pos_site_id
 _symmetry_equiv_pos_as_xyz
  1  'x, y, z'
loop_
 _atom_site_type_symbol
 _atom_site_label
 _atom_site_symmetry_multiplicity
 _atom_site_fract_x
 _atom_site_fract_y
 _atom_site_fract_z
 _atom_site_occupancy
  K  K0  1  0.37129248  0.58469063  0.75000000  1
  K  K1  1  0.12870752  0.08469063  0.25000000  1
  K  K2  1  0.62870752  0.41530937  0.25000000  1
  K  K3  1  0.87129248  0.91530937  0.75000000  1
  K  K4  1  0.94113378  0.70797287  0.45280496  1
  K  K5  1  0.44113378  0.79202713  0.04719504  1
  K  K6  1  0.55886622  0.20797287  0.54719504  1
  K  K7  1  0.05886622  0.29202713  0.95280496  1
  K  K8  1  0.05886622  0.29202713  0.54719504  1
  K  K9  1  0.55886622  0.20797287  0.95280496  1
  K  K10  1  0.44113378  0.79202713  0.45280496  1
  K  K11  1  0.94113378  0.70797287  0.04719504  1
  Nb  Nb0  1  0.21288707  0.51382892  0.25000000  1
  Nb  Nb1  1  0.71288707  0.98617108  0.25000000  1
  Nb  Nb2  1  0.28711293  0.01382892  0.75000000  1
  Nb  Nb3  1  0.78711293  0.48617108  0.75000000  1
  Se  Se0  1  0.33551963  0.44733842  0.42790618  1
  Se  Se1  1  0.66448037  0.55266158  0.92790618  1
  Se  Se2  1  0.83551963  0.05266158  0.07209382  1
  Se  Se3  1  0.16448037  0.94733842  0.57209382  1
  Se  Se4  1  0.01452927  0.58733788  0.75000000  1
  Se  Se5  1  0.51452927  0.91266212  0.75000000  1
  Se  Se6  1  0.48547073  0.08733788  0.25000000  1
  Se  Se7  1  0.98547073  0.41266212  0.25000000  1
  Se  Se8  1  0.81058141  0.24138652  0.75000000  1
  Se  Se9  1  0.31058141  0.25861348  0.75000000  1
  Se  Se10  1  0.68941859  0.74138652  0.25000000  1
  Se  Se11  1  0.18941859  0.75861348  0.25000000  1
  Se  Se12  1  0.66448037  0.55266158  0.57209382  1
  Se  Se13  1  0.16448037  0.94733842  0.92790618  1
  Se  Se14  1  0.83551963  0.05266158  0.42790618  1
  Se  Se15  1  0.33551963  0.44733842  0.07209382  1
loop_
_geom_bond_atom_site_label_1
_geom_bond_atom_site_label_2
_geom_bond_distance
_geom_bond_site_symmetry_2
K0 Se9 3.248042 1_555
K0 Se4 3.458888 1_555
K0 Se12 3.482282 1_555
K0 Se1 3.482282 1_555
K0 Se5 3.500091 1_555
K0 Se0 3.856529 1_555
K0 Se15 3.856529 1_556
K1 Se11 3.248042 1_545
K1 Se6 3.458888 1_555
K1 Se2 3.482282 1_455
K1 Se14 3.482282 1_455
K1 Se7 3.500091 1_455
K1 Se3 3.856529 1_545
K1 Se13 3.856529 1_544
K2 Se10 3.248042 1_555
K2 Se7 3.458888 1_555
K2 Se15 3.482282 1_555
K2 Se0 3.482282 1_555
K2 Se6 3.500091 1_555
K2 Se1 3.856529 1_554
K2 Se12 3.856529 1_555
K3 Se8 3.248042 1_565
K3 Se5 3.458888 1_555
K3 Se13 3.482282 1_655
K3 Se3 3.482282 1_655
K3 Se4 3.500091 1_655
K3 Se14 3.856529 1_565
K3 Se2 3.856529 1_566
K4 Se11 3.342333 1_655
K4 Se10 3.345661 1_555
K4 Se12 3.359134 1_555
K4 Se3 3.458623 1_655
K4 Se14 3.539363 1_565
K4 Se4 3.594635 1_655
K4 Se7 3.699252 1_555
K5 Se10 3.342333 1_555
K5 Se11 3.345661 1_555
K5 Se13 3.359134 1_554
K5 Se1 3.458623 1_554
K5 Se15 3.539363 1_555
K5 Se5 3.594635 1_554
K5 Se6 3.699252 1_565
K6 Se9 3.342333 1_555
K6 Se8 3.345661 1_555
K6 Se14 3.359134 1_555
K6 Se0 3.458623 1_555
K6 Se12 3.539363 1_555
K6 Se6 3.594635 1_555
K6 Se5 3.699252 1_545
K7 Se8 3.342333 1_455
K7 Se9 3.345661 1_555
K7 Se15 3.359134 1_556
K7 Se2 3.458623 1_456
K7 Se13 3.539363 1_545
K7 Se7 3.594635 1_456
K7 Se4 3.699252 1_555
K8 Se8 3.342333 1_455
K8 Se9 3.345661 1_555
K8 Se0 3.359134 1_555
K8 Se14 3.458623 1_455
K8 Se3 3.539363 1_545
K8 Se7 3.594635 1_455
K8 Se4 3.699252 1_555
K9 Se9 3.342333 1_555
K9 Se8 3.345661 1_555
K9 Se2 3.359134 1_556
K9 Se15 3.458623 1_556
K9 Se1 3.539363 1_555
K9 Se6 3.594635 1_556
K9 Se5 3.699252 1_545
K10 Se10 3.342333 1_555
K10 Se11 3.345661 1_555
K10 Se3 3.359134 1_555
K10 Se12 3.458623 1_555
K10 Se0 3.539363 1_555
K10 Se5 3.594635 1_555
K10 Se6 3.699252 1_565
K11 Se11 3.342333 1_655
K11 Se10 3.345661 1_555
K11 Se1 3.359134 1_554
K11 Se13 3.458623 1_654
K11 Se2 3.539363 1_565
K11 Se4 3.594635 1_654
K11 Se7 3.699252 1_555
Nb0 Se0 2.405449 1_555
Nb0 Se15 2.405449 1_555
Nb0 Se11 2.408691 1_555
Nb0 Se7 2.417275 1_455
Nb1 Se2 2.405449 1_565
Nb1 Se14 2.405449 1_565
Nb1 Se10 2.408691 1_555
Nb1 Se6 2.417275 1_565
Nb2 Se13 2.405449 1_545
Nb2 Se3 2.405449 1_545
Nb2 Se9 2.408691 1_555
Nb2 Se5 2.417275 1_545
Nb3 Se12 2.405449 1_555
Nb3 Se1 2.405449 1_555
Nb3 Se8 2.408691 1_555
Nb3 Se4 2.417275 1_655
