# generated using pymatgen
data_CaMn3V4O12
_symmetry_space_group_name_H-M   'P 1'
_cell_length_a   7.51224101
_cell_length_b   7.55504637
_cell_length_c   7.56115615
_cell_angle_alpha   90.13773474
_cell_angle_beta   90.22529710
_cell_angle_gamma   90.06505764
_symmetry_Int_Tables_number   1
_chemical_formula_structural   CaMn3V4O12
_chemical_formula_sum   'Ca2 Mn6 V8 O24'
_cell_volume   429.13106714
_cell_formula_units_Z   2
loop_
 _symmetry_equiv_pos_site_id
 _symmetry_equiv_pos_as_xyz
  1  'x, y, z'
loop_
 _atom_site_type_symbol
 _atom_site_label
 _atom_site_symmetry_multiplicity
 _atom_site_fract_x
 _atom_site_fract_y
 _atom_site_fract_z
 _atom_site_occupancy
  Ca  Ca0  1  0.99927200  0.00001400  0.99929500  1
  Ca  Ca1  1  0.50071800  0.50005300  0.50051800  1
  Mn  Mn0  1  0.49131300  0.00013200  0.49952500  1
  Mn  Mn1  1  0.99863800  0.00073400  0.49970100  1
  Mn  Mn2  1  0.50164900  0.49885000  0.99988200  1
  Mn  Mn3  1  0.50007600  0.99982400  0.99812400  1
  Mn  Mn4  1  0.99989900  0.50017700  0.50065600  1
  Mn  Mn5  1  0.00526400  0.50016200  0.00091400  1
  V  V0  1  0.25016600  0.25029700  0.24993600  1
  V  V1  1  0.74996500  0.74983700  0.74989100  1
  V  V2  1  0.25015500  0.74981900  0.74999800  1
  V  V3  1  0.74980600  0.24992100  0.25000100  1
  V  V4  1  0.75044800  0.25005900  0.75009900  1
  V  V5  1  0.24979700  0.74970800  0.24963200  1
  V  V6  1  0.25047600  0.24998600  0.75023600  1
  V  V7  1  0.74916300  0.75040400  0.24998500  1
  O  O0  1  0.20211400  0.31142300  0.50047600  1
  O  O1  1  0.70143500  0.81011000  0.00019800  1
  O  O2  1  0.70320300  0.19550400  0.00849200  1
  O  O3  1  0.20403100  0.69383400  0.50879600  1
  O  O4  1  0.79771100  0.30416400  0.49169600  1
  O  O5  1  0.29529800  0.80598600  0.99123000  1
  O  O6  1  0.29788900  0.18871100  0.99969100  1
  O  O7  1  0.79862100  0.68985800  0.49968100  1
  O  O8  1  0.50737200  0.20665700  0.69321900  1
  O  O9  1  0.00815000  0.70642400  0.19243500  1
  O  O10  1  0.99526200  0.70474600  0.81129000  1
  O  O11  1  0.49584100  0.20816500  0.31119300  1
  O  O12  1  0.50435900  0.79365700  0.68939500  1
  O  O13  1  0.00494600  0.29310600  0.18824000  1
  O  O14  1  0.99202500  0.29478700  0.80902700  1
  O  O15  1  0.49261100  0.79278800  0.30666800  1
  O  O16  1  0.30173800  0.49228300  0.79556300  1
  O  O17  1  0.80293100  0.99213500  0.29222800  1
  O  O18  1  0.19199700  0.99967400  0.29966700  1
  O  O19  1  0.68859000  0.49948600  0.79535700  1
  O  O20  1  0.30933800  0.50047300  0.20073900  1
  O  O21  1  0.81177900  0.00033800  0.70466100  1
  O  O22  1  0.19773300  0.00802400  0.70528700  1
  O  O23  1  0.69821900  0.50768800  0.20637800  1
loop_
_geom_bond_atom_site_label_1
_geom_bond_atom_site_label_2
_geom_bond_distance
_geom_bond_site_symmetry_2
Ca0 O21 2.631006 1_555
Ca0 O13 2.632520 1_656
Ca0 O10 2.642393 1_545
Ca0 O14 2.654687 1_555
Ca0 O6 2.656571 1_655
Ca0 O1 2.656586 1_546
Ca0 O9 2.659352 1_646
Ca0 O5 2.665701 1_645
Ca0 O17 2.666649 1_546
Ca0 O2 2.672296 1_556
Ca0 O22 2.682316 1_655
Ca0 O18 2.688580 1_646
Ca1 O11 2.626373 1_555
Ca1 O19 2.633837 1_555
Ca1 O12 2.635337 1_555
Ca1 O8 2.655953 1_555
Ca1 O0 2.656228 1_555
Ca1 O7 2.656596 1_555
Ca1 O15 2.656794 1_555
Ca1 O3 2.668863 1_555
Ca1 O23 2.679056 1_555
Ca1 O20 2.679404 1_555
Ca1 O4 2.679669 1_555
Ca1 O16 2.690970 1_555
Mn0 O11 2.123726 1_555
Mn0 O12 2.124627 1_545
Mn0 O15 2.137656 1_545
Mn0 O8 2.140377 1_555
Mn0 O22 2.704604 1_555
Mn1 O21 2.095057 1_555
Mn1 O18 2.101157 1_645
Mn1 O17 2.146576 1_545
Mn1 O22 2.153483 1_655
Mn2 O19 2.093037 1_555
Mn2 O20 2.100228 1_556
Mn2 O23 2.145693 1_556
Mn2 O16 2.150744 1_555
Mn3 O1 2.085082 1_556
Mn3 O6 2.085326 1_565
Mn3 O5 2.123141 1_555
Mn3 O2 2.124523 1_566
Mn4 O7 2.084432 1_555
Mn4 O0 2.084745 1_655
Mn4 O3 2.118899 1_655
Mn4 O4 2.120903 1_555
Mn5 O10 2.111975 1_454
Mn5 O13 2.112808 1_555
Mn5 O14 2.123717 1_454
Mn5 O9 2.124784 1_555
O0 V6 1.978124 1_555
O0 V0 1.983373 1_555
O1 V7 1.974404 1_555
O1 V1 1.980884 1_554
O2 V3 1.901898 1_555
O2 V4 2.030265 1_554
O3 V2 1.901597 1_555
O3 V5 2.035999 1_555
O4 V3 1.904751 1_555
O4 V4 2.029668 1_555
O5 V2 1.900819 1_555
O5 V5 2.030748 1_556
O6 V6 1.974359 1_555
O6 V0 1.981590 1_556
O7 V7 1.977577 1_555
O7 V1 1.979857 1_555
O8 V4 1.902293 1_555
O8 V6 2.006165 1_555
O9 V5 1.892385 1_555
O9 V7 2.022978 1_455
O10 V1 1.929428 1_555
O10 V2 2.000879 1_655
O11 V0 1.928030 1_555
O11 V3 1.989912 1_555
O12 V1 1.928348 1_555
O12 V2 1.993131 1_555
O13 V0 1.926412 1_555
O13 V3 2.001127 1_455
O14 V4 1.896757 1_555
O14 V6 2.022209 1_655
O15 V5 1.900254 1_555
O15 V7 2.001967 1_555
O16 V6 1.900281 1_555
O16 V2 2.014566 1_555
O17 V7 1.896050 1_555
O17 V3 2.014461 1_565
O18 V5 1.974293 1_555
O18 V0 1.980001 1_565
O19 V4 1.970854 1_555
O19 V1 1.977523 1_555
O20 V5 1.970335 1_555
O20 V0 1.977671 1_555
O21 V4 1.972277 1_555
O21 V1 1.979062 1_545
O22 V6 1.899609 1_555
O22 V2 2.019572 1_545
O23 V7 1.900593 1_555
O23 V3 2.013778 1_555
