# generated using pymatgen
data_Zr9V9O2
_symmetry_space_group_name_H-M   'P 1'
_cell_length_a   8.79547139
_cell_length_b   8.79547139
_cell_length_c   21.70745042
_cell_angle_alpha   89.97215328
_cell_angle_beta   89.97215328
_cell_angle_gamma   60.06012944
_symmetry_Int_Tables_number   1
_chemical_formula_structural   Zr9V9O2
_chemical_formula_sum   'Zr36 V36 O8'
_cell_volume   1455.19248736
_cell_formula_units_Z   4
loop_
 _symmetry_equiv_pos_site_id
 _symmetry_equiv_pos_as_xyz
  1  'x, y, z'
loop_
 _atom_site_type_symbol
 _atom_site_label
 _atom_site_symmetry_multiplicity
 _atom_site_fract_x
 _atom_site_fract_y
 _atom_site_fract_z
 _atom_site_occupancy
  Zr  Zr0  1  0.54048800  0.54048800  0.64496500  1
  Zr  Zr1  1  0.20851800  0.20851800  0.98003500  1
  Zr  Zr2  1  0.87518900  0.87518900  0.31315300  1
  Zr  Zr3  1  0.12831800  0.12831800  0.43796200  1
  Zr  Zr4  1  0.79379300  0.79379300  0.77046400  1
  Zr  Zr5  1  0.46133900  0.46133900  0.10560900  1
  Zr  Zr6  1  0.91725200  0.54069200  0.64495500  1
  Zr  Zr7  1  0.58507100  0.20537100  0.97744400  1
  Zr  Zr8  1  0.25138100  0.87424200  0.31278000  1
  Zr  Zr9  1  0.74469700  0.12828600  0.43816100  1
  Zr  Zr10  1  0.41194600  0.79254300  0.77059600  1
  Zr  Zr11  1  0.07800300  0.45876800  0.10428700  1
  Zr  Zr12  1  0.12828600  0.74469700  0.43816100  1
  Zr  Zr13  1  0.79254300  0.41194600  0.77059600  1
  Zr  Zr14  1  0.45876800  0.07800300  0.10428700  1
  Zr  Zr15  1  0.54069200  0.91725200  0.64495500  1
  Zr  Zr16  1  0.20537100  0.58507100  0.97744400  1
  Zr  Zr17  1  0.87424200  0.25138100  0.31278000  1
  Zr  Zr18  1  0.45951200  0.45951200  0.35503500  1
  Zr  Zr19  1  0.12481100  0.12481100  0.68684700  1
  Zr  Zr20  1  0.79148200  0.79148200  0.01996500  1
  Zr  Zr21  1  0.87168300  0.87168300  0.56203800  1
  Zr  Zr22  1  0.53866100  0.53866100  0.89439100  1
  Zr  Zr23  1  0.20620700  0.20620700  0.22953600  1
  Zr  Zr24  1  0.08274800  0.45930800  0.35504500  1
  Zr  Zr25  1  0.74861900  0.12575800  0.68722000  1
  Zr  Zr26  1  0.41492900  0.79462900  0.02255600  1
  Zr  Zr27  1  0.25530300  0.87171400  0.56183900  1
  Zr  Zr28  1  0.92199700  0.54123200  0.89571300  1
  Zr  Zr29  1  0.58805400  0.20745700  0.22940400  1
  Zr  Zr30  1  0.87171400  0.25530300  0.56183900  1
  Zr  Zr31  1  0.54123200  0.92199700  0.89571300  1
  Zr  Zr32  1  0.20745700  0.58805400  0.22940400  1
  Zr  Zr33  1  0.45930800  0.08274800  0.35504500  1
  Zr  Zr34  1  0.12575800  0.74861900  0.68722000  1
  Zr  Zr35  1  0.79462900  0.41492900  0.02255600  1
  V  V0  1  0.33282100  0.33282100  0.45862600  1
  V  V1  1  0.00152000  0.00152000  0.79202900  1
  V  V2  1  0.66678000  0.66678000  0.12418100  1
  V  V3  1  0.22125200  0.22125200  0.56939700  1
  V  V4  1  0.88978400  0.88978400  0.90257700  1
  V  V5  1  0.55487100  0.55487100  0.23535000  1
  V  V6  1  0.55731600  0.22150200  0.56904400  1
  V  V7  1  0.22665100  0.88585900  0.90300900  1
  V  V8  1  0.89043500  0.55425500  0.23639900  1
  V  V9  1  0.22150200  0.55731600  0.56904400  1
  V  V10  1  0.88585900  0.22665100  0.90300900  1
  V  V11  1  0.55425500  0.89043500  0.23639900  1
  V  V12  1  0.66717900  0.66717900  0.54137400  1
  V  V13  1  0.33322000  0.33322000  0.87581900  1
  V  V14  1  0.99848000  0.99848000  0.20797100  1
  V  V15  1  0.77874800  0.77874800  0.43060300  1
  V  V16  1  0.44512900  0.44512900  0.76465000  1
  V  V17  1  0.11021600  0.11021600  0.09742300  1
  V  V18  1  0.44268400  0.77849800  0.43095600  1
  V  V19  1  0.10956500  0.44574500  0.76360100  1
  V  V20  1  0.77334900  0.11414100  0.09699100  1
  V  V21  1  0.77849800  0.44268400  0.43095600  1
  V  V22  1  0.44574500  0.10956500  0.76360100  1
  V  V23  1  0.11414100  0.77334900  0.09699100  1
  V  V24  1  0.66527000  0.66527000  0.33346500  1
  V  V25  1  0.33473000  0.33473000  0.66653500  1
  V  V26  1  0.00000000  0.00000000  0.00000000  1
  V  V27  1  0.50000000  0.50000000  0.50000000  1
  V  V28  1  0.16703700  0.16703700  0.83358200  1
  V  V29  1  0.83296300  0.83296300  0.16641800  1
  V  V30  1  0.00000000  0.50000000  0.50000000  1
  V  V31  1  0.66747500  0.16571400  0.83259800  1
  V  V32  1  0.33252500  0.83428600  0.16740200  1
  V  V33  1  0.50000000  0.00000000  0.50000000  1
  V  V34  1  0.16571400  0.66747500  0.83259800  1
  V  V35  1  0.83428600  0.33252500  0.16740200  1
  O  O0  1  0.16648600  0.16648600  0.33356600  1
  O  O1  1  0.83351400  0.83351400  0.66643400  1
  O  O2  1  0.00000000  0.50000000  0.00000000  1
  O  O3  1  0.66643400  0.16661100  0.33353300  1
  O  O4  1  0.33356600  0.83338900  0.66646700  1
  O  O5  1  0.83338900  0.33356600  0.66646700  1
  O  O6  1  0.50000000  0.00000000  0.00000000  1
  O  O7  1  0.16661100  0.66643400  0.33353300  1
loop_
_geom_bond_atom_site_label_1
_geom_bond_atom_site_label_2
_geom_bond_distance
_geom_bond_site_symmetry_2
Zr5 Zr7 3.398638 1_554
Zr10 Zr22 3.311013 1_555
Zr11 Zr5 3.383099 1_555
Zr13 Zr22 3.311013 1_555
Zr14 Zr5 3.383099 1_555
Zr16 Zr22 3.288079 1_555
Zr16 Zr5 3.398638 1_556
Zr22 Zr7 3.288079 1_555
Zr22 Zr28 3.383099 1_555
Zr22 Zr31 3.383099 1_555
Zr22 Zr26 3.398638 1_556
Zr22 Zr35 3.398638 1_556
Zr26 Zr5 3.288079 1_555
Zr29 Zr5 3.311013 1_555
Zr32 Zr5 3.311013 1_555
Zr35 Zr5 3.288079 1_555
V0 V30 2.690747 1_555
V0 V33 2.690747 1_555
V0 V27 2.700306 1_555
V0 V3 2.943537 1_555
V0 V9 2.945353 1_555
V0 V6 2.945353 1_555
V0 Zr33 2.948055 1_555
V0 Zr24 2.948055 1_555
V0 Zr18 2.962186 1_555
V0 Zr3 3.146881 1_555
V0 Zr9 3.170367 1_555
V0 Zr12 3.170367 1_555
V1 V28 2.677757 1_555
V1 V34 2.693854 1_545
V1 V31 2.693854 1_455
V1 V4 2.941056 1_445
V1 Zr19 2.955332 1_555
V1 V7 2.958223 1_545
V1 V10 2.958223 1_455
V1 Zr34 2.982358 1_545
V1 Zr25 2.982358 1_455
V1 Zr10 3.162642 1_545
V1 Zr13 3.162642 1_455
V1 Zr4 3.198303 1_445
V2 V29 2.692337 1_555
V2 V35 2.714626 1_555
V2 V32 2.714626 1_555
V2 Zr26 2.924695 1_555
V2 Zr35 2.924695 1_555
V2 Zr20 2.952934 1_555
V2 V5 2.953579 1_555
V2 V8 2.973565 1_555
V2 Zr5 3.154872 1_555
V2 Zr14 3.163810 1_565
V2 Zr11 3.163810 1_655
V3 V33 2.702609 1_555
V3 V30 2.702609 1_555
V3 Zr27 2.941023 1_545
V3 Zr30 2.941023 1_455
V3 Zr19 2.941631 1_555
V3 V9 2.956946 1_555
V3 V6 2.956946 1_555
V3 Zr3 3.185597 1_555
V3 Zr15 3.199207 1_545
V3 Zr6 3.199207 1_455
V4 Zr31 2.938410 1_555
V4 Zr28 2.938410 1_555
V4 V7 2.945846 1_655
V4 Zr20 2.954711 1_556
V4 Zr16 3.178560 1_655
V4 Zr7 3.178560 1_565
V4 Zr4 3.219682 1_555
V5 Zr32 2.923885 1_555
V5 Zr29 2.923885 1_555
V5 V8 2.948842 1_555
V5 Zr18 2.975697 1_555
V5 Zr5 3.156799 1_555
V5 Zr17 3.218184 1_555
V5 Zr8 3.218184 1_555
V6 Zr30 2.929122 1_555
V6 Zr21 2.939950 1_545
V6 Zr25 2.951066 1_555
V6 V9 2.956326 1_555
V6 Zr9 3.179533 1_555
V6 Zr0 3.193635 1_555
V6 Zr15 3.206848 1_545
V7 Zr22 2.920011 1_555
V7 Zr31 2.942646 1_555
V7 Zr26 2.965856 1_556
V7 Zr16 3.183503 1_555
V7 Zr10 3.202213 1_555
V7 Zr1 3.229179 1_565
V8 Zr23 2.936065 1_655
V8 Zr32 2.951834 1_655
V8 Zr24 2.963760 1_655
V8 Zr17 3.200005 1_555
V8 Zr11 3.204076 1_655
V8 Zr2 3.223121 1_555
V9 Zr27 2.929122 1_555
V9 Zr21 2.939950 1_455
V9 Zr34 2.951066 1_555
V9 Zr12 3.179533 1_555
V9 Zr0 3.193635 1_555
V9 Zr6 3.206848 1_455
V10 V31 2.710000 1_555
V10 V28 2.713889 1_655
V10 V26 2.723055 1_656
V10 Zr22 2.920011 1_555
V10 Zr28 2.942646 1_555
V10 V4 2.945846 1_545
V10 Zr35 2.965856 1_556
V10 V7 3.000150 1_645
V10 Zr7 3.183503 1_555
V10 Zr13 3.202213 1_555
V10 Zr1 3.229179 1_655
V11 V32 2.693593 1_555
V11 V29 2.707887 1_555
V11 V24 2.717152 1_555
V11 Zr23 2.936065 1_565
V11 V5 2.948842 1_555
V11 Zr29 2.951834 1_565
V11 V8 2.959549 1_555
V11 Zr33 2.963760 1_565
V11 V2 2.973565 1_555
V11 Zr8 3.200005 1_555
V11 Zr14 3.204076 1_565
V11 Zr2 3.223121 1_555
V12 V33 2.690747 1_565
V12 V30 2.690747 1_655
V12 V27 2.700306 1_555
V12 V15 2.943537 1_555
V12 V18 2.945353 1_555
V12 V21 2.945353 1_555
V12 Zr15 2.948055 1_555
V12 Zr6 2.948055 1_555
V12 Zr0 2.962186 1_555
V12 Zr21 3.146896 1_555
V12 Zr30 3.170367 1_555
V12 Zr27 3.170367 1_555
V13 V28 2.692337 1_555
V13 V34 2.714626 1_555
V13 V31 2.714626 1_555
V13 Zr16 2.924695 1_555
V13 Zr7 2.924695 1_555
V13 Zr1 2.952934 1_555
V13 V16 2.953579 1_555
V13 V22 2.973565 1_555
V13 V19 2.973565 1_555
V13 Zr22 3.154872 1_555
V13 Zr28 3.163810 1_455
V13 Zr31 3.163810 1_545
V14 V29 2.677757 1_555
V14 V35 2.693854 1_565
V14 V32 2.693854 1_655
V14 V17 2.941056 1_665
V14 Zr2 2.955332 1_555
V14 V20 2.958223 1_565
V14 V23 2.958223 1_655
V14 Zr8 2.982358 1_655
V14 Zr17 2.982358 1_565
V14 Zr32 3.162642 1_655
V14 Zr29 3.162642 1_565
V14 Zr23 3.198303 1_665
V15 V30 2.702609 1_655
V15 V33 2.702609 1_565
V15 V24 2.727108 1_555
V15 Zr9 2.941023 1_565
V15 Zr12 2.941023 1_655
V15 Zr2 2.941631 1_555
V15 V21 2.956946 1_555
V15 V18 2.956946 1_555
V15 Zr21 3.185603 1_555
V15 Zr24 3.199207 1_655
V15 Zr33 3.199207 1_565
V16 V31 2.691037 1_555
V16 V34 2.691037 1_555
V16 V25 2.714232 1_555
V16 Zr13 2.923885 1_555
V16 Zr10 2.923885 1_555
V16 V19 2.948842 1_555
V16 V22 2.948842 1_555
V16 Zr0 2.975697 1_555
V16 Zr22 3.156799 1_555
V16 Zr34 3.218184 1_555
V16 Zr25 3.218184 1_555
V17 V32 2.698765 1_545
V17 V35 2.698765 1_455
V17 V26 2.700721 1_555
V17 Zr14 2.938410 1_555
V17 Zr11 2.938410 1_555
V17 V20 2.945846 1_455
V17 V23 2.945846 1_545
V17 Zr1 2.954711 1_554
V17 Zr35 3.178560 1_455
V17 Zr26 3.178560 1_545
V17 Zr23 3.219682 1_555
V18 V27 2.695395 1_555
V18 V33 2.698131 1_565
V18 V24 2.712026 1_555
V18 Zr12 2.929122 1_555
V18 Zr3 2.939952 1_565
V18 Zr8 2.951066 1_555
V18 V21 2.956326 1_555
V18 Zr27 3.179533 1_555
V18 Zr18 3.193635 1_555
V18 Zr33 3.206848 1_565
V19 V34 2.693593 1_555
V19 V28 2.707887 1_555
V19 V25 2.717152 1_555
V19 Zr4 2.936065 1_455
V19 Zr13 2.951834 1_455
V19 V22 2.959549 1_555
V19 Zr6 2.963760 1_455
V19 Zr34 3.200005 1_555
V19 Zr28 3.204076 1_455
V19 Zr19 3.223121 1_555
V20 V35 2.710000 1_555
V20 V29 2.713889 1_545
V20 V26 2.723055 1_655
V20 Zr5 2.920011 1_555
V20 Zr14 2.942646 1_555
V20 Zr7 2.965856 1_554
V20 V23 3.000150 1_645
V20 Zr35 3.183503 1_555
V20 Zr29 3.202213 1_555
V20 Zr20 3.229179 1_545
V21 V27 2.695395 1_555
V21 V30 2.698131 1_655
V21 V24 2.712026 1_555
V21 Zr9 2.929122 1_555
V21 Zr3 2.939952 1_655
V21 Zr17 2.951066 1_555
V21 Zr30 3.179533 1_555
V21 Zr18 3.193635 1_555
V21 Zr24 3.206848 1_655
V22 V31 2.693593 1_555
V22 V28 2.707887 1_555
V22 V25 2.717152 1_555
V22 Zr4 2.936065 1_545
V22 Zr10 2.951834 1_545
V22 Zr15 2.963760 1_545
V22 Zr25 3.200005 1_555
V22 Zr31 3.204076 1_545
V22 Zr19 3.223121 1_555
V23 V32 2.710000 1_555
V23 V29 2.713889 1_455
V23 V26 2.723055 1_565
V23 Zr5 2.920011 1_555
V23 Zr11 2.942646 1_555
V23 Zr16 2.965856 1_554
V23 Zr26 3.183503 1_555
V23 Zr32 3.202213 1_555
V23 Zr20 3.229179 1_455
V24 V5 2.714232 1_555
V24 V8 2.717152 1_555
V24 Zr18 3.168138 1_555
V24 Zr8 3.186533 1_555
V24 Zr17 3.186533 1_555
V24 Zr24 3.216396 1_655
V24 Zr33 3.216396 1_565
V24 Zr2 3.226997 1_555
V25 V9 2.712026 1_555
V25 V6 2.712026 1_555
V25 V3 2.727108 1_555
V25 Zr0 3.168138 1_555
V25 Zr34 3.186533 1_555
V25 Zr25 3.186533 1_555
V25 Zr15 3.216396 1_545
V25 Zr6 3.216396 1_455
V25 Zr19 3.226997 1_555
V26 V4 2.700721 1_444
V26 V7 2.723055 1_544
V26 Zr35 3.200322 1_455
V26 Zr7 3.200322 1_454
V26 Zr26 3.200322 1_545
V26 Zr16 3.200322 1_544
V26 Zr1 3.204838 1_554
V26 Zr20 3.204838 1_445
V27 V9 2.695395 1_555
V27 V6 2.695395 1_555
V27 Zr27 3.178170 1_555
V27 Zr30 3.178170 1_555
V27 Zr12 3.178170 1_555
V27 Zr9 3.178170 1_555
V27 Zr0 3.207004 1_555
V27 Zr18 3.207004 1_555
V28 V7 2.713889 1_545
V28 Zr31 3.196439 1_545
V28 Zr28 3.196439 1_455
V28 Zr10 3.205954 1_545
V28 Zr13 3.205954 1_455
V28 Zr1 3.241629 1_555
V28 Zr19 3.249866 1_555
V29 V8 2.707887 1_555
V29 Zr11 3.196439 1_655
V29 Zr14 3.196439 1_565
V29 Zr29 3.205954 1_565
V29 Zr32 3.205954 1_655
V29 Zr20 3.241629 1_555
V29 Zr2 3.249866 1_555
V30 V9 2.698131 1_555
V30 Zr3 3.177169 1_555
V30 Zr21 3.177178 1_455
V30 Zr12 3.182279 1_555
V30 Zr30 3.182279 1_455
V30 Zr6 3.209014 1_455
V30 Zr24 3.209014 1_555
V31 V4 2.698765 1_545
V31 Zr31 3.174361 1_545
V31 Zr13 3.175794 1_555
V31 Zr4 3.182683 1_545
V31 Zr22 3.183712 1_555
V31 Zr7 3.206198 1_555
V31 Zr25 3.215647 1_555
V32 V5 2.691037 1_555
V32 Zr14 3.174361 1_565
V32 Zr32 3.175794 1_555
V32 Zr23 3.182683 1_565
V32 Zr5 3.183712 1_555
V32 Zr26 3.206198 1_555
V32 Zr8 3.215647 1_555
V33 V6 2.698131 1_555
V33 Zr3 3.177169 1_555
V33 Zr21 3.177178 1_545
V33 Zr9 3.182279 1_555
V33 Zr27 3.182279 1_545
V33 Zr15 3.209014 1_545
V33 Zr33 3.209014 1_555
V34 V4 2.698765 1_455
V34 V7 2.710000 1_555
V34 Zr28 3.174361 1_455
V34 Zr10 3.175794 1_555
V34 Zr4 3.182683 1_455
V34 Zr22 3.183712 1_555
V34 Zr16 3.206198 1_555
V34 Zr34 3.215647 1_555
V35 V5 2.691037 1_555
V35 V8 2.693593 1_555
V35 Zr11 3.174361 1_655
V35 Zr29 3.175794 1_555
V35 Zr23 3.182683 1_655
V35 Zr5 3.183712 1_555
V35 Zr35 3.206198 1_555
V35 Zr17 3.215647 1_555
O0 Zr17 2.335207 1_455
O0 Zr8 2.335207 1_545
O0 Zr23 2.337519 1_555
O0 Zr3 2.339218 1_555
O0 Zr33 2.345308 1_555
O0 Zr24 2.345308 1_555
O1 Zr34 2.335207 1_655
O1 Zr25 2.335207 1_565
O1 Zr4 2.337519 1_555
O1 Zr21 2.339222 1_555
O1 Zr6 2.345308 1_555
O1 Zr15 2.345308 1_555
O2 Zr16 2.326015 1_554
O2 Zr35 2.326015 1_455
O2 Zr20 2.330463 1_455
O2 Zr1 2.330463 1_554
O2 Zr11 2.340808 1_555
O2 Zr28 2.340808 1_454
O3 Zr33 2.328335 1_555
O3 Zr2 2.332280 1_545
O3 Zr17 2.336399 1_555
O3 Zr29 2.338189 1_555
O3 Zr18 2.342484 1_555
O3 Zr9 2.348406 1_555
O4 Zr15 2.328335 1_555
O4 Zr19 2.332280 1_565
O4 Zr34 2.336399 1_555
O4 Zr10 2.338189 1_555
O4 Zr0 2.342484 1_555
O4 Zr27 2.348406 1_555
O5 Zr6 2.328335 1_555
O5 Zr19 2.332280 1_655
O5 Zr25 2.336399 1_555
O5 Zr13 2.338189 1_555
O5 Zr0 2.342484 1_555
O5 Zr30 2.348406 1_555
O6 Zr7 2.326015 1_554
O6 Zr26 2.326015 1_545
O6 Zr20 2.330463 1_545
O6 Zr1 2.330463 1_554
O6 Zr14 2.340808 1_555
O6 Zr31 2.340808 1_544
O7 Zr24 2.328335 1_555
O7 Zr2 2.332280 1_455
O7 Zr8 2.336399 1_555
O7 Zr32 2.338189 1_555
O7 Zr18 2.342484 1_555
O7 Zr12 2.348406 1_555
