# generated using pymatgen
data_Sm2Fe17H3
_symmetry_space_group_name_H-M   'P 1'
_cell_length_a   6.42718424
_cell_length_b   6.42718424
_cell_length_c   6.42718435
_cell_angle_alpha   84.51536606
_cell_angle_beta   84.51536606
_cell_angle_gamma   84.51535972
_symmetry_Int_Tables_number   1
_chemical_formula_structural   Sm2Fe17H3
_chemical_formula_sum   'Sm2 Fe17 H3'
_cell_volume   262.07017480
_cell_formula_units_Z   1
loop_
 _symmetry_equiv_pos_site_id
 _symmetry_equiv_pos_as_xyz
  1  'x, y, z'
loop_
 _atom_site_type_symbol
 _atom_site_label
 _atom_site_symmetry_multiplicity
 _atom_site_fract_x
 _atom_site_fract_y
 _atom_site_fract_z
 _atom_site_occupancy
  Sm  Sm0  1  0.65558500  0.65558500  0.65558500  1
  Sm  Sm1  1  0.34441500  0.34441500  0.34441500  1
  Fe  Fe0  1  0.00000000  0.00000000  0.50000000  1
  Fe  Fe1  1  0.50000000  0.00000000  0.00000000  1
  Fe  Fe2  1  0.00000000  0.50000000  0.00000000  1
  Fe  Fe3  1  0.71611900  0.28388100  0.00000000  1
  Fe  Fe4  1  0.00000000  0.71611900  0.28388100  1
  Fe  Fe5  1  0.28388100  0.00000000  0.71611900  1
  Fe  Fe6  1  0.00000000  0.28388100  0.71611900  1
  Fe  Fe7  1  0.71611900  0.00000000  0.28388100  1
  Fe  Fe8  1  0.28388100  0.71611900  0.00000000  1
  Fe  Fe9  1  0.34120600  0.34120600  0.84763300  1
  Fe  Fe10  1  0.84763300  0.34120600  0.34120600  1
  Fe  Fe11  1  0.34120600  0.84763300  0.34120600  1
  Fe  Fe12  1  0.65879400  0.65879400  0.15236700  1
  Fe  Fe13  1  0.15236700  0.65879400  0.65879400  1
  Fe  Fe14  1  0.65879400  0.15236700  0.65879400  1
  Fe  Fe15  1  0.90246200  0.90246200  0.90246200  1
  Fe  Fe16  1  0.09753800  0.09753800  0.09753800  1
  H  H0  1  0.50000000  0.50000000  0.00000000  1
  H  H1  1  0.00000000  0.50000000  0.50000000  1
  H  H2  1  0.50000000  0.00000000  0.50000000  1
loop_
_geom_bond_atom_site_label_1
_geom_bond_atom_site_label_2
_geom_bond_distance
_geom_bond_site_symmetry_2
Fe0 Fe5 2.396433 1_555
Fe0 Fe6 2.396433 1_555
Fe0 Fe4 2.396433 1_545
Fe0 Fe7 2.396433 1_455
Fe0 Fe11 2.482446 1_545
Fe0 Fe10 2.482446 1_455
Fe0 Fe14 2.482446 1_455
Fe0 Fe13 2.482446 1_545
Fe0 Fe15 2.632900 1_445
Fe0 Fe16 2.632900 1_555
Fe0 Sm1 3.300088 1_555
Fe0 Sm0 3.300088 1_445
Fe1 Fe7 2.396433 1_555
Fe1 Fe5 2.396433 1_554
Fe1 Fe3 2.396433 1_555
Fe1 Fe8 2.396433 1_545
Fe1 Fe12 2.482446 1_545
Fe1 Fe9 2.482446 1_554
Fe1 Fe14 2.482446 1_554
Fe1 Fe11 2.482446 1_545
Fe1 Fe15 2.632900 1_544
Fe1 Fe16 2.632900 1_555
Fe1 Sm1 3.300087 1_555
Fe1 Sm0 3.300087 1_544
Fe2 Fe4 2.396433 1_555
Fe2 Fe6 2.396433 1_554
Fe2 Fe8 2.396433 1_555
Fe2 Fe3 2.396433 1_455
Fe2 Fe9 2.482446 1_554
Fe2 Sm0 3.300087 1_454
Fe2 Sm1 3.300087 1_555
Fe3 H0 1.868160 1_555
Fe4 H1 1.868160 1_555
Fe5 H2 1.868160 1_555
Fe6 H1 1.868160 1_555
Fe7 H2 1.868160 1_555
Fe8 H0 1.868160 1_555
Fe9 H0 1.903543 1_556
Fe10 H1 1.903543 1_655
Fe10 Fe2 2.482446 1_655
Fe10 Fe16 2.644299 1_655
Fe11 H2 1.903543 1_565
Fe11 Fe16 2.644299 1_565
Fe12 H0 1.903543 1_555
Fe12 Fe2 2.482446 1_655
Fe12 Fe15 2.644299 1_554
Fe13 H1 1.903543 1_555
Fe13 Fe2 2.482446 1_556
Fe13 Fe15 2.644299 1_455
Fe14 H2 1.903543 1_555
Fe14 Fe15 2.644299 1_545
Fe15 Fe16 2.370117 1_666
Fe15 Fe2 2.632900 1_656
Fe15 Fe3 2.725070 1_566
Fe15 Fe8 2.725070 1_656
Fe15 Fe4 2.725070 1_656
Fe15 Fe7 2.725070 1_566
Fe15 Fe5 2.725070 1_665
Fe15 Fe6 2.725070 1_665
Fe15 Sm0 2.999485 1_555
Fe16 Fe2 2.632900 1_555
Fe16 Fe9 2.644299 1_554
Fe16 Fe8 2.725070 1_545
Fe16 Fe3 2.725070 1_455
Fe16 Fe5 2.725070 1_554
Fe16 Fe6 2.725070 1_554
Fe16 Fe4 2.725070 1_545
Fe16 Fe7 2.725070 1_455
Fe16 Sm1 2.999485 1_555
H0 Sm0 2.498974 1_554
H0 Sm1 2.498974 1_555
H1 Sm0 2.498974 1_455
H1 Sm1 2.498974 1_555
H2 Sm1 2.498974 1_555
H2 Sm0 2.498974 1_545
