# generated using pymatgen
data_KGdTiO4
_symmetry_space_group_name_H-M   'P 1'
_cell_length_a   5.41075200
_cell_length_b   5.52534800
_cell_length_c   13.17142600
_cell_angle_alpha   90.00000000
_cell_angle_beta   90.00000000
_cell_angle_gamma   90.00000000
_symmetry_Int_Tables_number   1
_chemical_formula_structural   KGdTiO4
_chemical_formula_sum   'K4 Gd4 Ti4 O16'
_cell_volume   393.77674166
_cell_formula_units_Z   4
loop_
 _symmetry_equiv_pos_site_id
 _symmetry_equiv_pos_as_xyz
  1  'x, y, z'
loop_
 _atom_site_type_symbol
 _atom_site_label
 _atom_site_symmetry_multiplicity
 _atom_site_fract_x
 _atom_site_fract_y
 _atom_site_fract_z
 _atom_site_occupancy
  K  K0  1  0.25000000  0.47869900  0.59555500  1
  K  K1  1  0.75000000  0.52130100  0.40444500  1
  K  K2  1  0.25000000  0.97869900  0.40444500  1
  K  K3  1  0.75000000  0.02130100  0.59555500  1
  Gd  Gd0  1  0.25000000  0.97422200  0.10117300  1
  Gd  Gd1  1  0.75000000  0.02577800  0.89882700  1
  Gd  Gd2  1  0.25000000  0.47422200  0.89882700  1
  Gd  Gd3  1  0.75000000  0.52577800  0.10117300  1
  Ti  Ti0  1  0.25000000  0.49206000  0.24624300  1
  Ti  Ti1  1  0.75000000  0.50794000  0.75375700  1
  Ti  Ti2  1  0.25000000  0.99206000  0.75375700  1
  Ti  Ti3  1  0.75000000  0.00794000  0.24624300  1
  O  O0  1  0.00000000  0.75000000  0.79816300  1
  O  O1  1  0.00000000  0.25000000  0.20183700  1
  O  O2  1  0.50000000  0.25000000  0.20183700  1
  O  O3  1  0.50000000  0.75000000  0.79816300  1
  O  O4  1  0.25000000  0.56537500  0.06252700  1
  O  O5  1  0.75000000  0.43462500  0.93747300  1
  O  O6  1  0.25000000  0.06537500  0.93747300  1
  O  O7  1  0.75000000  0.93462500  0.06252700  1
  O  O8  1  0.00000000  0.75000000  0.22804500  1
  O  O9  1  0.00000000  0.25000000  0.77195500  1
  O  O10  1  0.50000000  0.25000000  0.77195500  1
  O  O11  1  0.50000000  0.75000000  0.22804500  1
  O  O12  1  0.25000000  0.96387500  0.62001600  1
  O  O13  1  0.75000000  0.03612500  0.37998400  1
  O  O14  1  0.25000000  0.46387500  0.37998400  1
  O  O15  1  0.75000000  0.53612500  0.62001600  1
loop_
_geom_bond_atom_site_label_1
_geom_bond_atom_site_label_2
_geom_bond_distance
_geom_bond_site_symmetry_2
K0 O12 2.700058 1_555
K0 O15 2.742908 1_455
K0 O15 2.742908 1_555
K0 O14 2.840559 1_555
K0 O12 2.862770 1_545
K0 O9 2.970678 1_555
K0 O10 2.970678 1_555
K1 O13 2.700058 1_555
K1 O14 2.742908 1_655
K1 O14 2.742908 1_555
K1 O15 2.840559 1_555
K1 O13 2.862770 1_565
K1 O11 2.970678 1_555
K1 O8 2.970678 1_655
K2 O14 2.700058 1_565
K2 O13 2.742908 1_465
K2 O13 2.742908 1_565
K2 O12 2.840559 1_555
K2 O14 2.862770 1_555
K2 O11 2.970678 1_555
K2 O8 2.970678 1_555
K3 O15 2.700058 1_545
K3 O12 2.742908 1_645
K3 O12 2.742908 1_545
K3 O13 2.840559 1_555
K3 O15 2.862770 1_555
K3 O9 2.970678 1_655
K3 O10 2.970678 1_555
Gd0 O6 2.214205 1_564
Gd0 O4 2.315661 1_555
Gd0 O2 2.430971 1_565
Gd0 O1 2.430971 1_565
Gd0 O11 2.481366 1_555
Gd0 O8 2.481366 1_555
Gd0 O7 2.761527 1_455
Gd0 O7 2.761527 1_555
Gd1 O7 2.214205 1_546
Gd1 O5 2.315661 1_555
Gd1 O3 2.430971 1_545
Gd1 O0 2.430971 1_645
Gd1 O10 2.481366 1_555
Gd1 O9 2.481366 1_655
Gd1 O6 2.761527 1_655
Gd1 O6 2.761527 1_555
Gd2 O4 2.214205 1_556
Gd2 O6 2.315661 1_555
Gd2 O3 2.430971 1_555
Gd2 O0 2.430971 1_555
Gd2 O10 2.481366 1_555
Gd2 O9 2.481366 1_555
Gd2 O5 2.761527 1_555
Gd2 O5 2.761527 1_455
Gd3 O5 2.214205 1_554
Gd3 O7 2.315661 1_555
Gd3 O2 2.430971 1_555
Gd3 O1 2.430971 1_655
Gd3 O11 2.481366 1_555
Gd3 O8 2.481366 1_655
Gd3 O4 2.761527 1_655
Gd3 O4 2.761527 1_555
O0 Ti1 1.990145 1_455
O0 Ti2 1.990145 1_555
O1 Ti0 1.990145 1_555
O1 Ti3 1.990145 1_455
O2 Ti0 1.990145 1_555
O2 Ti3 1.990145 1_555
O3 Ti2 1.990145 1_555
O3 Ti1 1.990145 1_555
O4 Ti0 2.453475 1_555
O5 Ti1 2.453475 1_555
O6 Ti2 2.453475 1_545
O7 Ti3 2.453475 1_565
O8 Ti0 1.979504 1_555
O8 Ti3 1.979504 1_465
O9 Ti2 1.979504 1_545
O9 Ti1 1.979504 1_455
O10 Ti2 1.979504 1_545
O10 Ti1 1.979504 1_555
O11 Ti0 1.979504 1_555
O11 Ti3 1.979504 1_565
O12 Ti2 1.768430 1_555
O13 Ti3 1.768430 1_555
O14 Ti0 1.768430 1_555
O15 Ti1 1.768430 1_555
