# generated using pymatgen
data_Li4Mn2Cr3Co3O16
_symmetry_space_group_name_H-M   'P 1'
_cell_length_a   5.83049100
_cell_length_b   5.84056052
_cell_length_c   9.42262262
_cell_angle_alpha   90.76380971
_cell_angle_beta   89.68604171
_cell_angle_gamma   119.51519919
_symmetry_Int_Tables_number   1
_chemical_formula_structural   Li4Mn2Cr3Co3O16
_chemical_formula_sum   'Li4 Mn2 Cr3 Co3 O16'
_cell_volume   279.20558372
_cell_formula_units_Z   1
loop_
 _symmetry_equiv_pos_site_id
 _symmetry_equiv_pos_as_xyz
  1  'x, y, z'
loop_
 _atom_site_type_symbol
 _atom_site_label
 _atom_site_symmetry_multiplicity
 _atom_site_fract_x
 _atom_site_fract_y
 _atom_site_fract_z
 _atom_site_occupancy
  Li  Li0  1  0.66722700  0.32463600  0.89549300  1
  Li  Li1  1  0.99682700  0.00789100  0.99426000  1
  Li  Li2  1  0.99402800  0.00377800  0.49540800  1
  Li  Li3  1  0.33488100  0.66476400  0.40041600  1
  Mn  Mn0  1  0.66991700  0.34101400  0.48348400  1
  Mn  Mn1  1  0.33236700  0.66485900  0.98353100  1
  Cr  Cr0  1  0.83157500  0.65905400  0.21181900  1
  Cr  Cr1  1  0.34138700  0.16823200  0.21248500  1
  Cr  Cr2  1  0.17088300  0.82938700  0.71357200  1
  Co  Co0  1  0.83178900  0.16771300  0.21152100  1
  Co  Co1  1  0.66483800  0.83323700  0.71161700  1
  Co  Co2  1  0.17325000  0.33946300  0.71197900  1
  O  O0  1  0.83047000  0.67056300  0.59735400  1
  O  O1  1  0.52136400  0.48041300  0.34392000  1
  O  O2  1  0.67054800  0.32881700  0.10568900  1
  O  O3  1  0.99795900  0.00273800  0.30666500  1
  O  O4  1  0.00449200  0.01342700  0.80609300  1
  O  O5  1  0.32603200  0.17129200  0.59997400  1
  O  O6  1  0.95919100  0.47738900  0.34652200  1
  O  O7  1  0.52362000  0.04137600  0.34797600  1
  O  O8  1  0.16401700  0.83356000  0.09238700  1
  O  O9  1  0.84047800  0.17734200  0.60604200  1
  O  O10  1  0.48080900  0.95379500  0.84514200  1
  O  O11  1  0.04233300  0.51196700  0.83935200  1
  O  O12  1  0.33140000  0.65359900  0.60837400  1
  O  O13  1  0.66396000  0.83483000  0.09695500  1
  O  O14  1  0.46992400  0.50786500  0.84061300  1
  O  O15  1  0.16473200  0.33730100  0.09919500  1
loop_
_geom_bond_atom_site_label_1
_geom_bond_atom_site_label_2
_geom_bond_distance
_geom_bond_site_symmetry_2
Li0 O10 1.938131 1_545
Li0 O11 1.976143 1_655
Li0 O2 1.980506 1_556
Li0 O14 1.992556 1_555
Li1 O4 1.773669 1_655
Li1 O15 1.934336 1_656
Li1 O13 1.948658 1_546
Li1 O8 1.963361 1_646
Li2 O3 1.778444 1_555
Li2 O9 1.942077 1_555
Li2 O5 1.950451 1_655
Li2 O0 1.957258 1_545
Li3 O1 1.938238 1_555
Li3 O12 1.961125 1_555
Li3 O6 1.972068 1_455
Li3 O7 1.982801 1_565
Mn0 O6 1.955623 1_555
Mn0 O1 1.969338 1_555
Mn0 O7 1.975377 1_555
Mn0 O0 1.978089 1_555
Mn0 O9 2.053057 1_555
Mn0 O5 2.062548 1_555
Mn1 O8 1.975179 1_556
Mn1 O10 1.975975 1_555
Mn1 O13 1.992196 1_556
Mn1 O14 1.994330 1_555
Mn1 O15 2.001159 1_556
Mn1 O11 2.001906 1_555
Cr0 O2 1.943265 1_555
Cr0 O3 1.952451 1_565
Cr0 O1 2.014913 1_555
Cr0 O6 2.028434 1_555
Cr0 O8 2.030370 1_655
Cr0 O13 2.051886 1_555
Cr1 O2 1.950887 1_555
Cr1 O3 1.956428 1_455
Cr1 O1 2.007049 1_555
Cr1 O7 2.030647 1_555
Cr1 O8 2.032963 1_545
Cr1 O15 2.053717 1_555
Cr2 O12 1.955002 1_555
Cr2 O4 1.962097 1_565
Cr2 O10 2.009241 1_555
Cr2 O11 2.020676 1_555
Cr2 O0 2.044914 1_455
Cr2 O5 2.053830 1_565
Co0 O3 1.903468 1_555
Co0 O2 1.915855 1_555
Co0 O15 1.995132 1_655
Co0 O13 1.995986 1_545
Co0 O6 2.016553 1_555
Co0 O7 2.029707 1_555
Co1 O4 1.939755 1_665
Co1 O12 1.952043 1_555
Co1 O0 1.964660 1_555
Co1 O10 1.983944 1_555
Co1 O9 2.022802 1_565
Co1 O14 2.073348 1_555
Co2 O12 1.881613 1_555
Co2 O4 1.889442 1_555
Co2 O5 1.922561 1_555
Co2 O14 1.934793 1_555
Co2 O11 1.937437 1_555
Co2 O9 1.960439 1_455
