# generated using pymatgen
data_Rb3RuF12
_symmetry_space_group_name_H-M   'P 1'
_cell_length_a   7.10092024
_cell_length_b   8.34169635
_cell_length_c   8.95929559
_cell_angle_alpha   107.71500175
_cell_angle_beta   44.36482071
_cell_angle_gamma   115.19042494
_symmetry_Int_Tables_number   1
_chemical_formula_structural   Rb3RuF12
_chemical_formula_sum   'Rb3 Ru1 F12'
_cell_volume   335.78342280
_cell_formula_units_Z   1
loop_
 _symmetry_equiv_pos_site_id
 _symmetry_equiv_pos_as_xyz
  1  'x, y, z'
loop_
 _atom_site_type_symbol
 _atom_site_label
 _atom_site_symmetry_multiplicity
 _atom_site_fract_x
 _atom_site_fract_y
 _atom_site_fract_z
 _atom_site_occupancy
  Rb  Rb0  1  0.00000000  0.00000000  0.50000000  1
  Rb  Rb1  1  0.50000000  0.50000000  0.00000000  1
  Rb  Rb2  1  0.00000000  0.50000000  0.00000000  1
  Ru  Ru0  1  0.00000000  0.00000000  0.00000000  1
  F  F0  1  0.39105700  0.82968900  0.86403200  1
  F  F1  1  0.60894300  0.17031100  0.13596800  1
  F  F2  1  0.76019500  0.28850200  0.62521700  1
  F  F3  1  0.43863100  0.82968900  0.13596800  1
  F  F4  1  0.23980500  0.71149800  0.37478300  1
  F  F5  1  0.56136900  0.17031100  0.86403200  1
  F  F6  1  0.83059500  0.82215800  0.18824000  1
  F  F7  1  0.52830600  0.28850200  0.37478300  1
  F  F8  1  0.16940500  0.17784200  0.81176000  1
  F  F9  1  0.47169400  0.71149800  0.62521700  1
  F  F10  1  0.99156300  0.82215800  0.81176000  1
  F  F11  1  0.00843700  0.17784200  0.18824000  1
loop_
_geom_bond_atom_site_label_1
_geom_bond_atom_site_label_2
_geom_bond_distance
_geom_bond_site_symmetry_2
F0 F9 1.822894 1_555
F0 Rb2 2.731232 1_556
F0 Rb0 2.962972 1_665
F1 F7 1.822894 1_555
F1 Rb2 2.731232 1_655
F1 Rb0 2.962972 1_555
F2 F5 1.822899 1_555
F2 Rb1 2.846109 1_556
F2 Rb0 3.010640 1_655
F3 F4 1.822899 1_555
F3 Rb1 2.731234 1_555
F3 Rb0 2.962969 1_565
F4 Rb1 2.846109 1_555
F4 Rb0 3.010640 1_565
F5 Rb1 2.731234 1_556
F5 Rb0 2.962969 1_655
F6 Ru0 1.896015 1_665
F6 Rb2 2.933623 1_655
F7 Rb2 2.846109 1_655
F7 Rb0 3.010635 1_555
F8 Ru0 1.896015 1_556
F8 Rb2 2.933623 1_556
F9 Rb2 2.846109 1_556
F9 Rb0 3.010635 1_665
F10 Ru0 1.896015 1_666
F10 Rb1 2.933623 1_556
F11 Ru0 1.896015 1_555
F11 Rb1 2.933623 1_555
