# generated using pymatgen
data_Al2Cr2O7
_symmetry_space_group_name_H-M   'P 1'
_cell_length_a   6.43874710
_cell_length_b   6.68509787
_cell_length_c   6.89196436
_cell_angle_alpha   62.12757122
_cell_angle_beta   61.27204067
_cell_angle_gamma   60.64562554
_symmetry_Int_Tables_number   1
_chemical_formula_structural   Al2Cr2O7
_chemical_formula_sum   'Al4 Cr4 O14'
_cell_volume   216.05286382
_cell_formula_units_Z   2
loop_
 _symmetry_equiv_pos_site_id
 _symmetry_equiv_pos_as_xyz
  1  'x, y, z'
loop_
 _atom_site_type_symbol
 _atom_site_label
 _atom_site_symmetry_multiplicity
 _atom_site_fract_x
 _atom_site_fract_y
 _atom_site_fract_z
 _atom_site_occupancy
  Al  Al0  1  0.50000000  0.00000000  0.50000000  1
  Al  Al1  1  0.00000000  0.50000000  0.50000000  1
  Al  Al2  1  0.50000000  0.50000000  0.00000000  1
  Al  Al3  1  0.50000000  0.50000000  0.50000000  1
  Cr  Cr0  1  0.00000000  0.50000000  0.00000000  1
  Cr  Cr1  1  0.50000000  0.00000000  0.00000000  1
  Cr  Cr2  1  0.00000000  0.00000000  0.50000000  1
  Cr  Cr3  1  0.00000000  0.00000000  0.00000000  1
  O  O0  1  0.62827400  0.57066600  0.67704500  1
  O  O1  1  0.37172600  0.42933400  0.32295500  1
  O  O2  1  0.22773600  0.95851300  0.09875100  1
  O  O3  1  0.12388900  0.60887100  0.65027700  1
  O  O4  1  0.83886700  0.30119200  0.01651500  1
  O  O5  1  0.85236800  0.87078700  0.35944100  1
  O  O6  1  0.33175500  0.31129800  0.01436000  1
  O  O7  1  0.42281400  0.87375300  0.35732200  1
  O  O8  1  0.87611100  0.39112900  0.34972300  1
  O  O9  1  0.66824500  0.68870200  0.98564000  1
  O  O10  1  0.14763200  0.12921300  0.64055900  1
  O  O11  1  0.77226400  0.04148700  0.90124900  1
  O  O12  1  0.57718600  0.12624700  0.64267800  1
  O  O13  1  0.16113300  0.69880800  0.98348500  1
loop_
_geom_bond_atom_site_label_1
_geom_bond_atom_site_label_2
_geom_bond_distance
_geom_bond_site_symmetry_2
Al0 O5 1.892155 1_545
Al0 O10 1.892155 1_555
Al0 O12 1.892935 1_555
Al0 O7 1.892935 1_545
Al0 O1 2.403932 1_555
Al0 O0 2.403932 1_545
Al1 O1 2.015838 1_555
Al1 O0 2.015838 1_455
Al1 O8 2.075311 1_455
Al1 O3 2.075311 1_555
Al1 O10 2.077535 1_555
Al1 O5 2.077535 1_455
Al2 O0 1.868601 1_554
Al2 O1 1.868601 1_555
Al2 O13 1.947863 1_554
Al2 O4 1.947863 1_555
Al2 O6 1.973492 1_555
Al2 O9 1.973492 1_554
Al3 O8 2.008144 1_555
Al3 O3 2.008144 1_555
Al3 O1 2.069894 1_555
Al3 O0 2.069894 1_555
Al3 O12 2.100456 1_555
Al3 O7 2.100456 1_555
Cr0 O6 1.899637 1_555
Cr0 O9 1.899637 1_454
Cr0 O4 1.988127 1_455
Cr0 O13 1.988127 1_554
Cr0 O3 2.013998 1_554
Cr0 O8 2.013998 1_455
Cr1 O11 1.663287 1_554
Cr1 O2 1.663287 1_545
Cr1 O6 1.842112 1_555
Cr1 O9 1.842112 1_544
Cr1 O7 2.077328 1_545
Cr1 O12 2.077328 1_554
Cr2 O3 2.182438 1_545
Cr2 O8 2.182438 1_455
Cr2 O12 2.245119 1_455
Cr2 O7 2.245119 1_545
Cr2 O10 2.249620 1_555
Cr2 O5 2.249620 1_445
Cr2 O2 2.508942 1_545
Cr2 O11 2.508942 1_455
Cr3 O2 1.753397 1_545
Cr3 O11 1.753397 1_454
Cr3 O13 1.787792 1_544
Cr3 O4 1.787792 1_455
Cr3 O10 2.080165 1_554
Cr3 O5 2.080165 1_445
