# generated using pymatgen
data_GaAg(SO4)2
_symmetry_space_group_name_H-M   'P 1'
_cell_length_a   4.80046705
_cell_length_b   4.80046705
_cell_length_c   7.45669988
_cell_angle_alpha   87.84630564
_cell_angle_beta   87.84630564
_cell_angle_gamma   65.45927206
_symmetry_Int_Tables_number   1
_chemical_formula_structural   GaAg(SO4)2
_chemical_formula_sum   'Ga1 Ag1 S2 O8'
_cell_volume   156.15717765
_cell_formula_units_Z   1
loop_
 _symmetry_equiv_pos_site_id
 _symmetry_equiv_pos_as_xyz
  1  'x, y, z'
loop_
 _atom_site_type_symbol
 _atom_site_label
 _atom_site_symmetry_multiplicity
 _atom_site_fract_x
 _atom_site_fract_y
 _atom_site_fract_z
 _atom_site_occupancy
  Ga  Ga0  1  0.00000000  0.00000000  0.00000000  1
  Ag  Ag0  1  0.00000000  0.00000000  0.50000000  1
  S  S0  1  0.36371900  0.36371900  0.78991000  1
  S  S1  1  0.63628100  0.63628100  0.21009000  1
  O  O0  1  0.29505700  0.29505700  0.61340300  1
  O  O1  1  0.70494300  0.70494300  0.38659700  1
  O  O2  1  0.70761200  0.23861500  0.80849700  1
  O  O3  1  0.29238800  0.76138500  0.19150300  1
  O  O4  1  0.76138500  0.29238800  0.19150300  1
  O  O5  1  0.23861500  0.70761200  0.80849700  1
  O  O6  1  0.24004200  0.24004200  0.94411500  1
  O  O7  1  0.75995800  0.75995800  0.05588500  1
loop_
_geom_bond_atom_site_label_1
_geom_bond_atom_site_label_2
_geom_bond_distance
_geom_bond_site_symmetry_2
Ga0 O6 1.964720 1_554
Ga0 O7 1.964720 1_445
Ga0 O4 2.003364 1_455
Ga0 O3 2.003364 1_545
Ga0 O2 2.003364 1_454
Ga0 O5 2.003364 1_544
Ag0 O0 2.563996 1_555
Ag0 O1 2.563996 1_445
Ag0 O2 2.682108 1_455
Ag0 O5 2.682108 1_545
Ag0 O4 2.682108 1_455
Ag0 O3 2.682108 1_545
O0 S0 1.450869 1_555
O1 S1 1.450869 1_555
O2 S0 1.514119 1_555
O3 S1 1.514119 1_555
O4 S1 1.514119 1_555
O5 S0 1.514119 1_555
O6 S0 1.489073 1_555
O7 S1 1.489073 1_555
