# generated using pymatgen
data_Zr5Co19P12
_symmetry_space_group_name_H-M   'P 1'
_cell_length_a   11.71819741
_cell_length_b   11.71804147
_cell_length_c   3.60445587
_cell_angle_alpha   89.99999997
_cell_angle_beta   90.00000059
_cell_angle_gamma   119.99967628
_symmetry_Int_Tables_number   1
_chemical_formula_structural   Zr5Co19P12
_chemical_formula_sum   'Zr5 Co19 P12'
_cell_volume   428.63497209
_cell_formula_units_Z   1
loop_
 _symmetry_equiv_pos_site_id
 _symmetry_equiv_pos_as_xyz
  1  'x, y, z'
loop_
 _atom_site_type_symbol
 _atom_site_label
 _atom_site_symmetry_multiplicity
 _atom_site_fract_x
 _atom_site_fract_y
 _atom_site_fract_z
 _atom_site_occupancy
  Zr  Zr0  1  0.33329853  0.66664470  0.50000005  1
  Zr  Zr1  1  0.66669405  0.33334004  0.49999986  1
  Zr  Zr2  1  0.81563054  0.00002267  0.00000018  1
  Zr  Zr3  1  0.00003167  0.81561410  -0.00000060  1
  Zr  Zr4  1  0.18437725  0.18439667  -0.00000060  1
  Co  Co0  1  0.62198310  0.80128264  0.50000001  1
  Co  Co1  1  0.19871624  0.82070430  0.50000000  1
  Co  Co2  1  0.17928996  0.37801113  0.50000001  1
  Co  Co3  1  0.37798886  0.17928638  0.50000011  1
  Co  Co4  1  0.80130397  0.62200259  0.50000008  1
  Co  Co5  1  0.82071111  0.19870138  0.50000004  1
  Co  Co6  1  0.28414703  -0.00002028  0.00000017  1
  Co  Co7  1  0.00002011  0.28418489  0.00000010  1
  Co  Co8  1  0.71584506  0.71584993  0.00000008  1
  Co  Co9  1  0.44802723  -0.00000432  0.49999997  1
  Co  Co10  1  0.00000019  0.44804760  0.49999982  1
  Co  Co11  1  0.55195511  0.55196403  0.50000000  1
  Co  Co12  1  0.51584724  0.87437328  0.00000004  1
  Co  Co13  1  0.12562840  0.64147899  0.00000002  1
  Co  Co14  1  0.35850782  0.48413218  0.00000006  1
  Co  Co15  1  0.48411508  0.35850728  0.00000008  1
  Co  Co16  1  0.87439793  0.51587813  -0.00000003  1
  Co  Co17  1  0.64147334  0.12561534  -0.00000010  1
  Co  Co18  1  0.00001518  0.00000171  0.50000023  1
  P  P0  1  0.17798160  -0.00000306  0.50000006  1
  P  P1  1  0.00000862  0.17797337  0.50000006  1
  P  P2  1  0.82204436  0.82203953  0.50000005  1
  P  P3  1  0.51807296  0.68585351  -0.00000002  1
  P  P4  1  0.31413156  0.83221650  0.00000003  1
  P  P5  1  0.16777435  0.48191164  0.00000004  1
  P  P6  1  0.48189921  0.16775875  -0.00000001  1
  P  P7  1  0.68584364  0.51808884  0.00000002  1
  P  P8  1  0.83224344  0.31414902  0.00000000  1
  P  P9  1  0.63730691  -0.00001430  0.50000005  1
  P  P10  1  0.00002365  0.63733434  0.50000006  1
  P  P11  1  0.36266568  0.36267653  0.50000009  1
loop_
_geom_bond_atom_site_label_1
_geom_bond_atom_site_label_2
_geom_bond_distance
_geom_bond_site_symmetry_2
Co0 P3 2.216583 1_556
Co0 P3 2.216583 1_555
Co0 P2 2.232702 1_555
Co0 P9 2.244023 1_565
Co0 Zr2 2.921685 1_565
Co0 Zr2 2.921686 1_566
Co0 Zr0 2.931861 1_555
Co1 P4 2.216512 1_555
Co1 P4 2.216512 1_556
Co1 P0 2.232383 1_565
Co1 P10 2.243935 1_555
Co1 Zr3 2.921188 1_556
Co1 Zr3 2.921190 1_555
Co1 Zr0 2.931408 1_555
Co2 P5 2.216497 1_555
Co2 P5 2.216497 1_556
Co2 P1 2.232421 1_555
Co2 P11 2.244080 1_555
Co2 Zr4 2.921334 1_556
Co2 Zr4 2.921337 1_555
Co2 Zr0 2.931301 1_555
Co3 P6 2.216619 1_556
Co3 P6 2.216620 1_555
Co3 P0 2.232259 1_555
Co3 P11 2.244147 1_555
Co3 Zr4 2.921441 1_556
Co3 Zr4 2.921445 1_555
Co3 Zr1 2.932068 1_555
Co4 P7 2.216718 1_556
Co4 P7 2.216718 1_555
Co4 P2 2.232467 1_555
Co4 P10 2.244208 1_655
Co4 Zr3 2.921467 1_656
Co4 Zr3 2.921470 1_655
Co4 Zr1 2.931605 1_555
Co5 P8 2.216663 1_556
Co5 P8 2.216663 1_555
Co5 P1 2.232421 1_655
Co5 P9 2.244257 1_555
Co5 Zr2 2.921153 1_555
Co5 Zr2 2.921153 1_556
Co5 Zr1 2.931529 1_555
Co6 P4 2.163047 1_545
Co6 P6 2.163177 1_555
Co6 P0 2.189972 1_555
Co6 P0 2.189973 1_554
Co6 Zr3 2.925596 1_545
Co6 Zr4 2.926302 1_555
Co7 P5 2.162875 1_555
Co7 P8 2.163079 1_455
Co7 P1 2.190174 1_555
Co7 P1 2.190175 1_554
Co7 Zr4 2.925826 1_555
Co7 Zr2 2.926036 1_455
Co8 P7 2.163127 1_555
Co8 P3 2.163309 1_555
Co8 P2 2.190107 1_555
Co8 P2 2.190107 1_554
Co8 Zr2 2.926113 1_565
Co8 Zr3 2.926352 1_655
Co9 P9 2.218075 1_555
Co9 P6 2.547524 1_555
Co9 P6 2.547524 1_556
Co9 P4 2.547634 1_545
Co9 P4 2.547634 1_546
Co10 P10 2.217932 1_555
Co10 P8 2.547527 1_455
Co10 P8 2.547528 1_456
Co10 P5 2.547654 1_555
Co10 P5 2.547655 1_556
Co11 P11 2.218116 1_555
Co11 P7 2.547533 1_555
Co11 P7 2.547534 1_556
Co11 P3 2.547567 1_556
Co11 P3 2.547567 1_555
Co12 P4 2.159549 1_555
Co12 P3 2.222238 1_555
Co12 P9 2.312011 1_564
Co12 P9 2.312011 1_565
Co12 Zr0 2.922697 1_554
Co12 Zr0 2.922697 1_555
Co12 Zr2 3.055522 1_565
Co13 P5 2.159531 1_555
Co13 P4 2.222120 1_555
Co13 P10 2.311985 1_554
Co13 P10 2.311986 1_555
Co13 Zr0 2.922222 1_554
Co13 Zr0 2.922223 1_555
Co13 Zr3 3.054992 1_555
Co14 P3 2.159600 1_555
Co14 P5 2.222157 1_555
Co14 P11 2.311991 1_554
Co14 P11 2.311991 1_555
Co14 Zr0 2.922509 1_555
Co14 Zr0 2.922509 1_554
Co14 Zr4 3.055025 1_555
Co15 P7 2.159731 1_555
Co15 P6 2.222330 1_555
Co15 P11 2.312001 1_554
Co15 P11 2.312001 1_555
Co15 Zr1 2.922909 1_555
Co15 Zr1 2.922910 1_554
Co15 Zr4 3.055061 1_555
Co16 P8 2.159679 1_555
Co16 P7 2.222582 1_555
Co16 P10 2.312051 1_654
Co16 P10 2.312051 1_655
Co16 Zr1 2.922529 1_555
Co16 Zr1 2.922529 1_554
Co16 Zr3 3.054991 1_655
Co17 P6 2.159609 1_555
Co17 P8 2.222491 1_555
Co17 P9 2.312079 1_554
Co17 P9 2.312080 1_555
Co17 Zr1 2.922493 1_555
Co17 Zr1 2.922493 1_554
Co17 Zr2 3.055197 1_555
Co18 P2 2.085443 1_445
Co18 P0 2.085474 1_555
Co18 P1 2.085518 1_555
Co18 Zr4 2.813560 1_556
Co18 Zr4 2.813564 1_555
Co18 Zr3 2.813697 1_546
Co18 Zr3 2.813701 1_545
Co18 Zr2 2.813714 1_456
Co18 Zr2 2.813715 1_455
P0 Zr3 2.785525 1_546
P0 Zr3 2.785528 1_545
P0 Zr4 2.785815 1_556
P0 Zr4 2.785818 1_555
P1 Zr4 2.785443 1_556
P1 Zr4 2.785446 1_555
P1 Zr2 2.785508 1_455
P1 Zr2 2.785509 1_456
P2 Zr2 2.785715 1_565
P2 Zr2 2.785716 1_566
P2 Zr3 2.785826 1_656
P2 Zr3 2.785829 1_655
P3 Zr0 2.738525 1_554
P3 Zr0 2.738525 1_555
P4 Zr0 2.738343 1_554
P4 Zr0 2.738343 1_555
P5 Zr0 2.738154 1_554
P5 Zr0 2.738154 1_555
P6 Zr1 2.738684 1_555
P6 Zr1 2.738685 1_554
P7 Zr1 2.738494 1_555
P7 Zr1 2.738495 1_554
P8 Zr1 2.738287 1_555
P8 Zr1 2.738288 1_554
P9 Zr2 2.759290 1_555
P9 Zr2 2.759290 1_556
P10 Zr3 2.759006 1_556
P10 Zr3 2.759009 1_555
P11 Zr4 2.759099 1_556
P11 Zr4 2.759102 1_555
