# generated using pymatgen
data_Zn2Cr3O8
_symmetry_space_group_name_H-M   'P 1'
_cell_length_a   5.87467400
_cell_length_b   5.87467320
_cell_length_c   9.53574100
_cell_angle_alpha   90.00000000
_cell_angle_beta   90.00000000
_cell_angle_gamma   120.00000450
_symmetry_Int_Tables_number   1
_chemical_formula_structural   Zn2Cr3O8
_chemical_formula_sum   'Zn4 Cr6 O16'
_cell_volume   285.00504171
_cell_formula_units_Z   2
loop_
 _symmetry_equiv_pos_site_id
 _symmetry_equiv_pos_as_xyz
  1  'x, y, z'
loop_
 _atom_site_type_symbol
 _atom_site_label
 _atom_site_symmetry_multiplicity
 _atom_site_fract_x
 _atom_site_fract_y
 _atom_site_fract_z
 _atom_site_occupancy
  Zn  Zn0  1  0.66666700  0.33333400  0.02664500  1
  Zn  Zn1  1  0.33333300  0.66666600  0.52664600  1
  Zn  Zn2  1  0.66666700  0.33333400  0.42550600  1
  Zn  Zn3  1  0.33333300  0.66666600  0.92550700  1
  Cr  Cr0  1  0.67317800  0.83659000  0.24311000  1
  Cr  Cr1  1  0.83659100  0.16341100  0.74311000  1
  Cr  Cr2  1  0.16341100  0.32682300  0.24311000  1
  Cr  Cr3  1  0.83658900  0.67317800  0.74311000  1
  Cr  Cr4  1  0.32682300  0.16341100  0.74311000  1
  Cr  Cr5  1  0.16341100  0.83659000  0.24311000  1
  O  O0  1  0.83773300  0.16226800  0.14741300  1
  O  O1  1  0.67546400  0.83773300  0.64741200  1
  O  O2  1  0.16226800  0.32453700  0.64741200  1
  O  O3  1  0.83773200  0.67546400  0.14741300  1
  O  O4  1  0.32453600  0.16226800  0.14741300  1
  O  O5  1  0.16226800  0.83773300  0.64741200  1
  O  O6  1  0.51846500  0.48153400  0.86198300  1
  O  O7  1  0.03693200  0.51846500  0.36198200  1
  O  O8  1  0.48153500  0.96306900  0.36198200  1
  O  O9  1  0.51846500  0.03693200  0.86198300  1
  O  O10  1  0.00000000  0.00000000  0.35093500  1
  O  O11  1  0.00000000  0.00000000  0.85093500  1
  O  O12  1  0.33333300  0.66666600  0.13290000  1
  O  O13  1  0.96306700  0.48153400  0.86198300  1
  O  O14  1  0.48153400  0.51846500  0.36198200  1
  O  O15  1  0.66666700  0.33333400  0.63290000  1
loop_
_geom_bond_atom_site_label_1
_geom_bond_atom_site_label_2
_geom_bond_distance
_geom_bond_site_symmetry_2
Cr0 O0 1.891622 1_565
Cr0 O3 1.891631 1_555
Cr0 O10 1.954968 1_665
Cr0 O8 1.985200 1_555
Cr0 O14 1.985212 1_555
Cr0 O12 2.023341 1_555
Cr1 O2 1.891622 1_655
Cr1 O1 1.891626 1_545
Cr1 O11 1.954959 1_655
Cr1 O13 1.985212 1_555
Cr1 O9 1.985223 1_555
Cr1 O15 2.023349 1_555
Cr2 O0 1.891622 1_455
Cr2 O4 1.891631 1_555
Cr2 O10 1.954972 1_555
Cr2 O7 1.985196 1_555
Cr2 O14 1.985204 1_555
Cr2 O12 2.023332 1_555
Cr3 O5 1.891631 1_655
Cr3 O1 1.891636 1_555
Cr3 O11 1.954967 1_665
Cr3 O13 1.985206 1_555
Cr3 O6 1.985214 1_555
Cr3 O15 2.023336 1_555
Cr4 O5 1.891626 1_545
Cr4 O2 1.891640 1_555
Cr4 O11 1.954972 1_555
Cr4 O9 1.985201 1_555
Cr4 O6 1.985209 1_555
Cr4 O15 2.023336 1_555
Cr5 O4 1.891622 1_565
Cr5 O3 1.891626 1_455
Cr5 O10 1.954963 1_565
Cr5 O8 1.985209 1_555
Cr5 O7 1.985213 1_555
Cr5 O12 2.023345 1_555
O0 Zn0 2.087110 1_555
O1 Zn1 2.087095 1_555
O2 Zn1 2.087086 1_555
O3 Zn0 2.087101 1_555
O4 Zn0 2.087105 1_555
O5 Zn1 2.087099 1_555
O6 Zn3 1.978759 1_555
O6 Zn0 2.177028 1_556
O7 Zn2 1.978764 1_455
O7 Zn1 2.177038 1_555
O8 Zn2 1.978764 1_565
O8 Zn1 2.177045 1_555
O9 Zn3 1.978769 1_545
O9 Zn0 2.177028 1_556
O12 Zn3 1.977646 1_554
O13 Zn3 1.978769 1_655
O13 Zn0 2.177021 1_556
O14 Zn2 1.978759 1_555
O14 Zn1 2.177042 1_555
O15 Zn2 1.977655 1_555
