# generated using pymatgen
data_LiEu2CoO4
_symmetry_space_group_name_H-M   'P 1'
_cell_length_a   3.85580383
_cell_length_b   7.26244166
_cell_length_c   5.45181214
_cell_angle_alpha   111.94632624
_cell_angle_beta   44.98980789
_cell_angle_gamma   105.41068521
_symmetry_Int_Tables_number   1
_chemical_formula_structural   LiEu2CoO4
_chemical_formula_sum   'Li1 Eu2 Co1 O4'
_cell_volume   100.10947933
_cell_formula_units_Z   1
loop_
 _symmetry_equiv_pos_site_id
 _symmetry_equiv_pos_as_xyz
  1  'x, y, z'
loop_
 _atom_site_type_symbol
 _atom_site_label
 _atom_site_symmetry_multiplicity
 _atom_site_fract_x
 _atom_site_fract_y
 _atom_site_fract_z
 _atom_site_occupancy
  Li  Li0  1  0.50040500  0.50056400  0.24899000  1
  Eu  Eu0  1  0.99530000  0.75163100  0.37981600  1
  Eu  Eu1  1  0.00008300  0.25016900  0.62492700  1
  Co  Co0  1  0.99810400  0.00082500  0.00157900  1
  O  O0  1  0.99656900  0.37100800  0.18725900  1
  O  O1  1  0.49822500  0.99247300  0.49738600  1
  O  O2  1  0.49817500  0.00937900  0.00578400  1
  O  O3  1  0.99910100  0.63083900  0.81508800  1
loop_
_geom_bond_atom_site_label_1
_geom_bond_atom_site_label_2
_geom_bond_distance
_geom_bond_site_symmetry_2
Li0 O3 2.111995 1_554
Li0 O0 2.113719 1_555
Li0 O0 2.118781 1_455
Li0 O3 2.123128 1_455
Eu0 O1 2.519537 1_655
Eu0 O1 2.519852 1_555
Eu0 O0 2.563983 1_555
Eu0 Li0 2.564540 1_655
Eu0 Li0 2.564855 1_555
Eu0 O2 2.589156 1_566
Eu0 O2 2.598702 1_665
Eu0 O3 2.830736 1_555
Eu0 O3 2.833258 1_455
Eu0 O3 2.856472 1_654
Eu0 O3 2.858831 1_554
Eu1 O2 2.518618 1_555
Eu1 O2 2.519175 1_456
Eu1 Li0 2.560838 1_555
Eu1 Li0 2.561241 1_456
Eu1 O3 2.564263 1_455
Eu1 O1 2.593052 1_545
Eu1 O1 2.595428 1_445
Eu1 O0 2.834056 1_555
Eu1 O0 2.842709 1_455
Eu1 O0 2.847026 1_456
Eu1 O0 2.855781 1_356
Co0 O1 1.927765 1_545
Co0 O1 1.928205 1_644
Co0 O2 1.928742 1_655
Co0 O2 1.928784 1_555
Co0 O3 2.492313 1_544
Co0 O0 2.493628 1_555
