# generated using pymatgen
data_Ca4Fe3As8Pt
_symmetry_space_group_name_H-M   'P 1'
_cell_length_a   3.93726100
_cell_length_b   3.93726100
_cell_length_c   20.28954800
_cell_angle_alpha   90.00000000
_cell_angle_beta   90.00000000
_cell_angle_gamma   90.00000000
_symmetry_Int_Tables_number   1
_chemical_formula_structural   Ca4Fe3As8Pt
_chemical_formula_sum   'Ca4 Fe3 As8 Pt1'
_cell_volume   314.52906374
_cell_formula_units_Z   1
loop_
 _symmetry_equiv_pos_site_id
 _symmetry_equiv_pos_as_xyz
  1  'x, y, z'
loop_
 _atom_site_type_symbol
 _atom_site_label
 _atom_site_symmetry_multiplicity
 _atom_site_fract_x
 _atom_site_fract_y
 _atom_site_fract_z
 _atom_site_occupancy
  Ca  Ca0  1  0.50000000  0.00000000  0.13569000  1
  Ca  Ca1  1  0.50000000  0.00000000  0.63144200  1
  Ca  Ca2  1  0.00000000  0.50000000  0.36855800  1
  Ca  Ca3  1  0.00000000  0.50000000  0.86431000  1
  Fe  Fe0  1  0.50000000  0.50000000  0.50000000  1
  Fe  Fe1  1  0.00000000  0.00000000  0.00000000  1
  Fe  Fe2  1  0.00000000  0.00000000  0.50000000  1
  As  As0  1  0.50000000  0.50000000  0.25082800  1
  As  As1  1  0.50000000  0.50000000  0.74917200  1
  As  As2  1  0.00000000  0.00000000  0.25167100  1
  As  As3  1  0.00000000  0.00000000  0.74832900  1
  As  As4  1  0.50000000  0.00000000  0.43809200  1
  As  As5  1  0.50000000  0.00000000  0.92754200  1
  As  As6  1  0.00000000  0.50000000  0.07245800  1
  As  As7  1  0.00000000  0.50000000  0.56190800  1
  Pt  Pt0  1  0.50000000  0.50000000  0.00000000  1
loop_
_geom_bond_atom_site_label_1
_geom_bond_atom_site_label_2
_geom_bond_distance
_geom_bond_site_symmetry_2
Ca0 Pt0 3.384524 1_545
Ca0 Fe1 3.384524 1_655
Ca0 Pt0 3.384524 1_555
Ca0 Fe1 3.384524 1_555
Ca3 Fe1 3.384524 1_566
Ca3 Pt0 3.384524 1_456
Ca3 Fe1 3.384524 1_556
Ca3 Pt0 3.384524 1_556
Fe1 Pt0 2.784064 1_445
Fe1 Pt0 2.784064 1_455
Fe1 Pt0 2.784064 1_545
Fe1 Pt0 2.784064 1_555
As0 As2 2.784116 1_665
As0 As2 2.784116 1_555
As0 As2 2.784116 1_565
As0 As2 2.784116 1_655
As0 Ca0 3.054973 1_565
As0 Ca0 3.054973 1_555
As0 Ca2 3.095374 1_555
As0 Ca2 3.095374 1_655
As1 As3 2.784116 1_565
As1 As3 2.784116 1_655
As1 As3 2.784116 1_555
As1 As3 2.784116 1_665
As1 Ca3 3.054973 1_655
As1 Ca3 3.054973 1_555
As1 Ca1 3.095374 1_565
As1 Ca1 3.095374 1_555
As2 Ca0 3.068072 1_555
As2 Ca0 3.068072 1_455
As2 Ca2 3.082194 1_555
As2 Ca2 3.082194 1_545
As3 Ca3 3.068072 1_555
As3 Ca3 3.068072 1_545
As3 Ca1 3.082194 1_455
As3 Ca1 3.082194 1_555
As4 Fe2 2.335221 1_655
As4 Fe2 2.335221 1_555
As4 Fe0 2.335221 1_555
As4 Fe0 2.335221 1_545
As4 Ca2 3.121123 1_645
As4 Ca2 3.121123 1_555
As4 Ca2 3.121123 1_545
As4 Ca2 3.121123 1_655
As5 Pt0 2.456994 1_546
As5 Fe1 2.456994 1_556
As5 Fe1 2.456994 1_656
As5 Pt0 2.456994 1_556
As5 Ca3 3.065448 1_655
As5 Ca3 3.065448 1_645
As5 Ca3 3.065448 1_555
As5 Ca3 3.065448 1_545
As6 Pt0 2.456994 1_555
As6 Fe1 2.456994 1_565
As6 Pt0 2.456994 1_455
As6 Fe1 2.456994 1_555
As6 Ca0 3.065448 1_465
As6 Ca0 3.065448 1_555
As6 Ca0 3.065448 1_565
As6 Ca0 3.065448 1_455
As7 Fe2 2.335221 1_565
As7 Fe0 2.335221 1_455
As7 Fe2 2.335221 1_555
As7 Fe0 2.335221 1_555
As7 Ca1 3.121123 1_465
As7 Ca1 3.121123 1_455
As7 Ca1 3.121123 1_555
As7 Ca1 3.121123 1_565
