# generated using pymatgen
data_Ba3Er(BO2)9
_symmetry_space_group_name_H-M   'P 1'
_cell_length_a   7.27135822
_cell_length_b   7.27135822
_cell_length_c   17.42291700
_cell_angle_alpha   90.00000000
_cell_angle_beta   90.00000000
_cell_angle_gamma   120.00000199
_symmetry_Int_Tables_number   1
_chemical_formula_structural   Ba3Er(BO2)9
_chemical_formula_sum   'Ba6 Er2 B18 O36'
_cell_volume   797.77894732
_cell_formula_units_Z   2
loop_
 _symmetry_equiv_pos_site_id
 _symmetry_equiv_pos_as_xyz
  1  'x, y, z'
loop_
 _atom_site_type_symbol
 _atom_site_label
 _atom_site_symmetry_multiplicity
 _atom_site_fract_x
 _atom_site_fract_y
 _atom_site_fract_z
 _atom_site_occupancy
  Ba  Ba0  1  0.66666700  0.33333300  0.86784900  1
  Ba  Ba1  1  0.33333300  0.66666700  0.13215100  1
  Ba  Ba2  1  0.33333300  0.66666700  0.36784900  1
  Ba  Ba3  1  0.66666700  0.33333300  0.63215100  1
  Ba  Ba4  1  0.00000000  0.00000000  0.75000000  1
  Ba  Ba5  1  0.00000000  0.00000000  0.25000000  1
  Er  Er0  1  0.00000000  0.00000000  0.00000000  1
  Er  Er1  1  0.00000000  0.00000000  0.50000000  1
  B  B0  1  0.55067200  0.83460000  0.91843900  1
  B  B1  1  0.44932800  0.16540000  0.08156100  1
  B  B2  1  0.28392800  0.44932800  0.91843900  1
  B  B3  1  0.44932800  0.16540000  0.41843900  1
  B  B4  1  0.71607200  0.55067200  0.08156100  1
  B  B5  1  0.55067200  0.83460000  0.58156100  1
  B  B6  1  0.16540000  0.71607200  0.91843900  1
  B  B7  1  0.71607200  0.55067200  0.41843900  1
  B  B8  1  0.83460000  0.28392800  0.08156100  1
  B  B9  1  0.28392800  0.44932800  0.58156100  1
  B  B10  1  0.83460000  0.28392800  0.41843900  1
  B  B11  1  0.16540000  0.71607200  0.58156100  1
  B  B12  1  0.50480400  0.62215400  0.75000000  1
  B  B13  1  0.49519600  0.37784600  0.25000000  1
  B  B14  1  0.11735000  0.49519600  0.75000000  1
  B  B15  1  0.88265000  0.50480400  0.25000000  1
  B  B16  1  0.37784600  0.88265000  0.75000000  1
  B  B17  1  0.62215400  0.11735000  0.25000000  1
  O  O0  1  0.54196000  0.83296600  0.75000000  1
  O  O1  1  0.45804000  0.16703400  0.25000000  1
  O  O2  1  0.29100600  0.45804000  0.75000000  1
  O  O3  1  0.70899400  0.54196000  0.25000000  1
  O  O4  1  0.16703400  0.70899400  0.75000000  1
  O  O5  1  0.83296600  0.29100600  0.25000000  1
  O  O6  1  0.91983400  0.33277200  0.75000000  1
  O  O7  1  0.08016600  0.66722800  0.25000000  1
  O  O8  1  0.41293800  0.08016600  0.75000000  1
  O  O9  1  0.58706200  0.91983400  0.25000000  1
  O  O10  1  0.66722800  0.58706200  0.75000000  1
  O  O11  1  0.33277200  0.41293800  0.25000000  1
  O  O12  1  0.75074800  0.99430700  0.91987500  1
  O  O13  1  0.24925200  0.00569300  0.08012500  1
  O  O14  1  0.24355900  0.24925200  0.91987500  1
  O  O15  1  0.24925200  0.00569300  0.41987500  1
  O  O16  1  0.75644100  0.75074800  0.08012500  1
  O  O17  1  0.75074800  0.99430700  0.58012500  1
  O  O18  1  0.00569300  0.75644100  0.91987500  1
  O  O19  1  0.75644100  0.75074800  0.41987500  1
  O  O20  1  0.99430700  0.24355900  0.08012500  1
  O  O21  1  0.24355900  0.24925200  0.58012500  1
  O  O22  1  0.99430700  0.24355900  0.41987500  1
  O  O23  1  0.00569300  0.75644100  0.58012500  1
  O  O24  1  0.49607300  0.61910900  0.91802700  1
  O  O25  1  0.50392700  0.38089100  0.08197300  1
  O  O26  1  0.12303600  0.50392700  0.91802700  1
  O  O27  1  0.50392700  0.38089100  0.41802700  1
  O  O28  1  0.87696400  0.49607300  0.08197300  1
  O  O29  1  0.49607300  0.61910900  0.58197300  1
  O  O30  1  0.38089100  0.87696400  0.91802700  1
  O  O31  1  0.87696400  0.49607300  0.41802700  1
  O  O32  1  0.61910900  0.12303600  0.08197300  1
  O  O33  1  0.12303600  0.50392700  0.58197300  1
  O  O34  1  0.61910900  0.12303600  0.41802700  1
  O  O35  1  0.38089100  0.87696400  0.58197300  1
loop_
_geom_bond_atom_site_label_1
_geom_bond_atom_site_label_2
_geom_bond_distance
_geom_bond_site_symmetry_2
Ba0 O6 2.759031 1_555
Ba0 O8 2.759033 1_555
Ba0 O10 2.759036 1_555
Ba0 O12 2.963058 1_545
Ba0 O18 2.963062 1_655
Ba0 O14 2.963064 1_555
Ba0 O26 3.032922 1_655
Ba0 O30 3.032923 1_545
Ba0 O24 3.032928 1_555
Ba1 O7 2.759031 1_555
Ba1 O9 2.759033 1_555
Ba1 O11 2.759036 1_555
Ba1 O13 2.963058 1_565
Ba1 O20 2.963062 1_455
Ba1 O16 2.963064 1_555
Ba1 O28 3.032922 1_455
Ba1 O32 3.032923 1_565
Ba1 O25 3.032928 1_555
Ba2 O7 2.759031 1_555
Ba2 O9 2.759033 1_555
Ba2 O11 2.759036 1_555
Ba2 O15 2.963058 1_565
Ba2 O22 2.963062 1_455
Ba2 O19 2.963064 1_555
Ba2 O31 3.032922 1_455
Ba2 O34 3.032923 1_565
Ba2 O27 3.032928 1_555
Ba3 O6 2.759031 1_555
Ba3 O8 2.759033 1_555
Ba3 O10 2.759036 1_555
Ba3 O17 2.963058 1_545
Ba3 O23 2.963062 1_655
Ba3 O21 2.963064 1_555
Ba3 O33 3.032922 1_655
Ba3 O35 3.032923 1_545
Ba3 O29 3.032928 1_555
Ba4 O10 2.757761 1_445
Ba4 O8 2.757761 1_555
Ba4 O6 2.757761 1_455
Ba4 O2 2.919364 1_555
Ba4 O0 2.919364 1_445
Ba4 O4 2.919364 1_545
Ba5 O11 2.757761 1_555
Ba5 O9 2.757761 1_445
Ba5 O7 2.757761 1_545
Ba5 O3 2.919364 1_445
Ba5 O1 2.919364 1_555
Ba5 O5 2.919364 1_455
Er0 O16 2.271636 1_445
Er0 O14 2.271636 1_554
Er0 O12 2.271636 1_444
Er0 O13 2.271636 1_555
Er0 O20 2.271636 1_455
Er0 O18 2.271636 1_544
Er1 O19 2.271636 1_445
Er1 O21 2.271636 1_555
Er1 O17 2.271636 1_445
Er1 O15 2.271636 1_555
Er1 O23 2.271636 1_545
Er1 O22 2.271636 1_455
B0 O12 1.332763 1_555
B0 O24 1.410958 1_555
B0 O30 1.413973 1_555
B1 O13 1.332763 1_555
B1 O25 1.410958 1_555
B1 O32 1.413973 1_555
B2 O14 1.332763 1_555
B2 O26 1.410958 1_555
B2 O24 1.413973 1_555
B3 O15 1.332763 1_555
B3 O27 1.410958 1_555
B3 O34 1.413973 1_555
B4 O16 1.332763 1_555
B4 O28 1.410958 1_555
B4 O25 1.413973 1_555
B5 O17 1.332763 1_555
B5 O29 1.410958 1_555
B5 O35 1.413973 1_555
B6 O18 1.332763 1_555
B6 O30 1.410958 1_555
B6 O26 1.413973 1_555
B7 O19 1.332763 1_555
B7 O31 1.410958 1_555
B7 O27 1.413973 1_555
B8 O20 1.332763 1_555
B8 O32 1.410958 1_555
B8 O28 1.413973 1_555
B9 O21 1.332763 1_555
B9 O33 1.410958 1_555
B9 O29 1.413973 1_555
B10 O22 1.332763 1_555
B10 O34 1.410958 1_555
B10 O31 1.413973 1_555
B11 O23 1.332763 1_555
B11 O35 1.410958 1_555
B11 O33 1.413973 1_555
B12 O10 1.327153 1_555
B12 O2 1.409139 1_555
B12 O0 1.417250 1_555
B13 O11 1.327153 1_555
B13 O3 1.409139 1_555
B13 O1 1.417250 1_555
B14 O6 1.327153 1_455
B14 O4 1.409139 1_555
B14 O2 1.417250 1_555
B15 O7 1.327153 1_655
B15 O5 1.409139 1_555
B15 O3 1.417250 1_555
B16 O8 1.327153 1_565
B16 O0 1.409139 1_555
B16 O4 1.417250 1_555
B17 O9 1.327153 1_545
B17 O1 1.409139 1_555
B17 O5 1.417250 1_555
