# generated using pymatgen
data_Ba2TaMnO6
_symmetry_space_group_name_H-M   'P 1'
_cell_length_a   5.89618727
_cell_length_b   11.74582853
_cell_length_c   8.04287200
_cell_angle_alpha   90.00000864
_cell_angle_beta   90.00006798
_cell_angle_gamma   90.00176721
_symmetry_Int_Tables_number   1
_chemical_formula_structural   Ba2TaMnO6
_chemical_formula_sum   'Ba8 Ta4 Mn4 O24'
_cell_volume   557.01396311
_cell_formula_units_Z   4
loop_
 _symmetry_equiv_pos_site_id
 _symmetry_equiv_pos_as_xyz
  1  'x, y, z'
loop_
 _atom_site_type_symbol
 _atom_site_label
 _atom_site_symmetry_multiplicity
 _atom_site_fract_x
 _atom_site_fract_y
 _atom_site_fract_z
 _atom_site_occupancy
  Ba  Ba0  1  0.01312600  0.50037100  0.00034200  1
  Ba  Ba1  1  0.51322300  0.74965300  0.50038700  1
  Ba  Ba2  1  0.98673900  0.00036600  0.00045100  1
  Ba  Ba3  1  0.48685600  0.24962200  0.50032400  1
  Ba  Ba4  1  0.01312200  0.50037300  0.49965700  1
  Ba  Ba5  1  0.51322100  0.74967400  0.99962000  1
  Ba  Ba6  1  0.98673900  0.00036400  0.49955600  1
  Ba  Ba7  1  0.48685100  0.24960100  0.99967300  1
  Ta  Ta0  1  0.51628300  0.49990700  0.24998000  1
  Ta  Ta1  1  0.01632100  0.74998600  0.75000700  1
  Ta  Ta2  1  0.48371600  0.00006000  0.24998000  1
  Ta  Ta3  1  0.98373700  0.25007100  0.75001200  1
  Mn  Mn0  1  0.51194900  0.50076300  0.75000100  1
  Mn  Mn1  1  0.01195000  0.74916800  0.25001500  1
  Mn  Mn2  1  0.48791500  0.00087900  0.74996400  1
  Mn  Mn3  1  0.98817400  0.24925700  0.25002500  1
  O  O0  1  0.28447900  0.38216700  0.24998500  1
  O  O1  1  0.79176900  0.62901100  0.75001900  1
  O  O2  1  0.23211000  0.87741000  0.25001800  1
  O  O3  1  0.72425900  0.12573200  0.74996600  1
  O  O4  1  0.77543500  0.62425700  0.25000400  1
  O  O5  1  0.26784600  0.87258700  0.74997800  1
  O  O6  1  0.70832600  0.12092700  0.25001500  1
  O  O7  1  0.21562300  0.36783000  0.75002000  1
  O  O8  1  0.51966500  0.50050000  0.50177100  1
  O  O9  1  0.01975100  0.74937200  0.00185600  1
  O  O10  1  0.48019900  0.00064400  0.50172600  1
  O  O11  1  0.98039100  0.24945800  0.00176600  1
  O  O12  1  0.51967300  0.50051400  0.99820800  1
  O  O13  1  0.01975000  0.74934800  0.49816900  1
  O  O14  1  0.48021900  0.00063800  0.99819300  1
  O  O15  1  0.98041100  0.24949100  0.49825800  1
  O  O16  1  0.76820400  0.37740300  0.24999300  1
  O  O17  1  0.27562700  0.62570500  0.75001400  1
  O  O18  1  0.71573300  0.88219700  0.25002400  1
  O  O19  1  0.20825300  0.12901900  0.74999100  1
  O  O20  1  0.29157400  0.62091100  0.25000400  1
  O  O21  1  0.78435800  0.86779600  0.74999700  1
  O  O22  1  0.22446100  0.12437400  0.25001600  1
  O  O23  1  0.73196500  0.37259400  0.75001700  1
loop_
_geom_bond_atom_site_label_1
_geom_bond_atom_site_label_2
_geom_bond_distance
_geom_bond_site_symmetry_2
Ba0 O7 2.811175 1_554
Ba0 O1 2.835503 1_454
Ba0 O4 2.848466 1_455
Ba0 O16 2.864124 1_455
Ba0 O12 2.909542 1_454
Ba0 O0 2.918746 1_555
Ba0 O9 2.925008 1_555
Ba0 O17 2.935344 1_554
Ba0 O11 2.953511 1_455
Ba0 O20 2.954990 1_555
Ba0 O12 2.986746 1_554
Ba0 O23 3.009005 1_454
Ba1 O18 2.811423 1_555
Ba1 O20 2.837233 1_555
Ba1 O17 2.848320 1_555
Ba1 O5 2.864983 1_555
Ba1 O13 2.909666 1_555
Ba1 O21 2.917471 1_555
Ba1 O8 2.926777 1_555
Ba1 O4 2.935163 1_555
Ba1 O10 2.954546 1_565
Ba1 O1 2.955770 1_555
Ba1 O13 2.986634 1_655
Ba1 O2 3.009020 1_555
Ba2 O21 2.811791 1_544
Ba2 O19 2.836752 1_654
Ba2 O22 2.848692 1_655
Ba2 O2 2.864958 1_645
Ba2 O14 2.909709 1_654
Ba2 O18 2.916998 1_545
Ba2 O11 2.926052 1_555
Ba2 O3 2.936379 1_554
Ba2 O6 2.954509 1_555
Ba2 O9 2.954579 1_645
Ba2 O14 2.986594 1_554
Ba2 O5 3.009692 1_644
Ba3 O0 2.810997 1_555
Ba3 O6 2.836076 1_555
Ba3 O3 2.847539 1_555
Ba3 O23 2.864938 1_555
Ba3 O15 2.910141 1_555
Ba3 O7 2.918676 1_555
Ba3 O10 2.924737 1_555
Ba3 O22 2.934395 1_555
Ba3 O8 2.953130 1_555
Ba3 O19 2.955883 1_555
Ba3 O15 2.986141 1_455
Ba3 O16 3.009671 1_555
Ba4 O7 2.811433 1_555
Ba4 O1 2.835704 1_455
Ba4 O4 2.848389 1_455
Ba4 O16 2.864195 1_455
Ba4 O8 2.909565 1_455
Ba4 O0 2.918933 1_555
Ba4 O13 2.924702 1_555
Ba4 O17 2.935502 1_555
Ba4 O15 2.953137 1_455
Ba4 O20 2.954946 1_555
Ba4 O8 2.986721 1_555
Ba4 O23 3.009195 1_455
Ba5 O18 2.811525 1_556
Ba5 O20 2.837368 1_556
Ba5 O17 2.848319 1_555
Ba5 O5 2.865138 1_555
Ba5 O9 2.909649 1_556
Ba5 O21 2.917435 1_555
Ba5 O12 2.926861 1_555
Ba5 O4 2.935296 1_556
Ba5 O14 2.954224 1_565
Ba5 O1 2.955728 1_555
Ba5 O9 2.986652 1_656
Ba5 O2 3.009049 1_556
Ba6 O21 2.811706 1_545
Ba6 O19 2.836619 1_655
Ba6 O22 2.848565 1_655
Ba6 O2 2.864785 1_645
Ba6 O10 2.909587 1_655
Ba6 O18 2.916757 1_545
Ba6 O15 2.926461 1_555
Ba6 O3 2.935979 1_555
Ba6 O6 2.954392 1_555
Ba6 O13 2.954836 1_645
Ba6 O10 2.986708 1_555
Ba6 O5 3.009403 1_645
Ba7 O0 2.810967 1_556
Ba7 O6 2.836144 1_556
Ba7 O3 2.847798 1_555
Ba7 O23 2.864871 1_555
Ba7 O11 2.910053 1_556
Ba7 O7 2.918537 1_555
Ba7 O14 2.924561 1_555
Ba7 O22 2.934452 1_556
Ba7 O12 2.953546 1_555
Ba7 O19 2.955827 1_555
Ba7 O11 2.986231 1_456
Ba7 O16 3.009748 1_556
Mn0 O23 1.987304 1_555
Mn0 O12 1.996819 1_555
Mn0 O8 1.997003 1_555
Mn0 O17 2.023705 1_555
Mn0 O1 2.234077 1_555
Mn0 O7 2.343184 1_555
Mn1 O2 1.988447 1_555
Mn1 O13 1.996402 1_555
Mn1 O9 1.996442 1_555
Mn1 O4 2.024162 1_455
Mn1 O20 2.233363 1_555
Mn1 O18 2.343529 1_455
Mn2 O5 1.988541 1_545
Mn2 O14 1.996992 1_555
Mn2 O10 1.997067 1_555
Mn2 O3 2.022974 1_555
Mn2 O19 2.232602 1_555
Mn2 O21 2.344945 1_545
Mn3 O16 1.986922 1_555
Mn3 O15 1.997033 1_555
Mn3 O11 1.997244 1_555
Mn3 O22 2.023060 1_655
Mn3 O6 2.234848 1_555
Mn3 O0 2.342912 1_655
O0 Ta0 1.944345 1_555
O1 Ta1 1.942155 1_655
O2 Ta2 2.067871 1_565
O3 Ta3 2.115067 1_555
O4 Ta0 2.113766 1_555
O5 Ta1 2.067128 1_555
O6 Ta2 1.941460 1_555
O7 Ta3 1.944843 1_455
O8 Ta0 2.025233 1_555
O9 Ta1 2.025703 1_554
O10 Ta2 2.024879 1_555
O11 Ta3 2.024934 1_554
O12 Ta0 2.025081 1_556
O13 Ta1 2.025616 1_555
O14 Ta2 2.025207 1_556
O15 Ta3 2.024932 1_555
O16 Ta0 2.068074 1_555
O17 Ta1 2.113928 1_555
O18 Ta2 1.946315 1_565
O19 Ta3 1.942732 1_455
O20 Ta0 1.943095 1_555
O21 Ta1 1.945649 1_655
O22 Ta2 2.113978 1_555
O23 Ta3 2.067599 1_555
