# generated using pymatgen
data_MoW2(Se2S)2
_symmetry_space_group_name_H-M   'P 1'
_cell_length_a   3.27502265
_cell_length_b   3.27502265
_cell_length_c   30.22038800
_cell_angle_alpha   90.00000000
_cell_angle_beta   90.00000000
_cell_angle_gamma   120.00001312
_symmetry_Int_Tables_number   1
_chemical_formula_structural   MoW2(Se2S)2
_chemical_formula_sum   'Mo1 W2 Se4 S2'
_cell_volume   280.71086724
_cell_formula_units_Z   1
loop_
 _symmetry_equiv_pos_site_id
 _symmetry_equiv_pos_as_xyz
  1  'x, y, z'
loop_
 _atom_site_type_symbol
 _atom_site_label
 _atom_site_symmetry_multiplicity
 _atom_site_fract_x
 _atom_site_fract_y
 _atom_site_fract_z
 _atom_site_occupancy
  Mo  Mo0  1  0.66666700  0.33333300  0.34697100  1
  W  W0  1  0.33333300  0.66666700  0.11563700  1
  W  W1  1  0.33333300  0.66666700  0.57833100  1
  Se  Se0  1  0.33333300  0.66666700  0.40287900  1
  Se  Se1  1  0.66666700  0.33333300  0.52202700  1
  Se  Se2  1  0.66666700  0.33333300  0.63463300  1
  Se  Se3  1  0.33333300  0.66666700  0.29107700  1
  S  S0  1  0.66666700  0.33333300  0.06452600  1
  S  S1  1  0.66666700  0.33333300  0.16676000  1
loop_
_geom_bond_atom_site_label_1
_geom_bond_atom_site_label_2
_geom_bond_distance
_geom_bond_site_symmetry_2
Mo0 Se3 2.535436 1_655
Mo0 Se3 2.535436 1_545
Mo0 Se3 2.535441 1_555
Mo0 Se0 2.535718 1_545
Mo0 Se0 2.535718 1_655
Mo0 Se0 2.535723 1_555
Se1 W1 2.543708 1_655
Se1 W1 2.543708 1_545
Se1 W1 2.543712 1_555
Se2 W1 2.543667 1_545
Se2 W1 2.543667 1_655
Se2 W1 2.543672 1_555
S0 W0 2.441520 1_655
S0 W0 2.441520 1_545
S0 W0 2.441525 1_555
S1 W0 2.441750 1_545
S1 W0 2.441750 1_655
S1 W0 2.441754 1_555
