# generated using pymatgen
data_NaMg6WO8
_symmetry_space_group_name_H-M   'P 1'
_cell_length_a   8.70921737
_cell_length_b   4.34669119
_cell_length_c   4.34669119
_cell_angle_alpha   90.00000000
_cell_angle_beta   90.00000000
_cell_angle_gamma   90.00000000
_symmetry_Int_Tables_number   1
_chemical_formula_structural   NaMg6WO8
_chemical_formula_sum   'Na1 Mg6 W1 O8'
_cell_volume   164.54955187
_cell_formula_units_Z   1
loop_
 _symmetry_equiv_pos_site_id
 _symmetry_equiv_pos_as_xyz
  1  'x, y, z'
loop_
 _atom_site_type_symbol
 _atom_site_label
 _atom_site_symmetry_multiplicity
 _atom_site_fract_x
 _atom_site_fract_y
 _atom_site_fract_z
 _atom_site_occupancy
  Na  Na0  1  0.00000000  0.00000000  0.00000000  1
  Mg  Mg0  1  0.50000000  0.00000000  0.00000000  1
  Mg  Mg1  1  0.50000000  0.50000000  0.50000000  1
  Mg  Mg2  1  0.25605329  0.00000000  0.50000000  1
  Mg  Mg3  1  0.74394671  0.00000000  0.50000000  1
  Mg  Mg4  1  0.25605329  0.50000000  0.00000000  1
  Mg  Mg5  1  0.74394671  0.50000000  0.00000000  1
  W  W0  1  0.00000000  0.50000000  0.50000000  1
  O  O0  1  0.26596235  0.00000000  0.00000000  1
  O  O1  1  0.73403765  0.00000000  0.00000000  1
  O  O2  1  0.25315904  0.50000000  0.50000000  1
  O  O3  1  0.74684096  0.50000000  0.50000000  1
  O  O4  1  0.00000000  0.00000000  0.50000000  1
  O  O5  1  0.50000000  0.00000000  0.50000000  1
  O  O6  1  0.00000000  0.50000000  0.00000000  1
  O  O7  1  0.50000000  0.50000000  0.00000000  1
loop_
_geom_bond_atom_site_label_1
_geom_bond_atom_site_label_2
_geom_bond_distance
_geom_bond_site_symmetry_2
Na0 O6 2.173346 1_555
Na0 O4 2.173346 1_555
Na0 O4 2.173346 1_554
Na0 O6 2.173346 1_545
Na0 O0 2.316324 1_555
Na0 O1 2.316324 1_455
Mg0 O0 2.038285 1_555
Mg0 O1 2.038285 1_555
Mg0 O7 2.173346 1_555
Mg0 O5 2.173346 1_554
Mg0 O5 2.173346 1_555
Mg0 O7 2.173346 1_545
Mg1 O2 2.149792 1_555
Mg1 O3 2.149792 1_555
Mg1 O7 2.173346 1_555
Mg1 O7 2.173346 1_556
Mg1 O5 2.173346 1_555
Mg1 O5 2.173346 1_565
Mg2 O5 2.124585 1_555
Mg2 O2 2.173492 1_555
Mg2 O2 2.173492 1_545
Mg2 O0 2.175058 1_556
Mg2 O0 2.175058 1_555
Mg2 O4 2.230024 1_555
Mg3 O5 2.124585 1_555
Mg3 O3 2.173492 1_545
Mg3 O3 2.173492 1_555
Mg3 O1 2.175058 1_555
Mg3 O1 2.175058 1_556
Mg3 O4 2.230024 1_655
Mg4 O7 2.124585 1_555
Mg4 O2 2.173492 1_555
Mg4 O2 2.173492 1_554
Mg4 O0 2.175058 1_565
Mg4 O0 2.175058 1_555
Mg4 O6 2.230024 1_555
Mg5 O7 2.124585 1_555
Mg5 O3 2.173492 1_555
Mg5 O3 2.173492 1_554
Mg5 O1 2.175058 1_555
Mg5 O1 2.175058 1_565
Mg5 O6 2.230024 1_655
O2 W0 2.204817 1_555
O3 W0 2.204817 1_655
O4 W0 2.173346 1_555
O4 W0 2.173346 1_545
O6 W0 2.173346 1_554
O6 W0 2.173346 1_555
