# generated using pymatgen
data_SnP2O7
_symmetry_space_group_name_H-M   'P 1'
_cell_length_a   8.83609400
_cell_length_b   7.05676200
_cell_length_c   9.54276019
_cell_angle_alpha   72.64912516
_cell_angle_beta   90.00000000
_cell_angle_gamma   90.00000000
_symmetry_Int_Tables_number   1
_chemical_formula_structural   SnP2O7
_chemical_formula_sum   'Sn4 P8 O28'
_cell_volume   567.95521398
_cell_formula_units_Z   4
loop_
 _symmetry_equiv_pos_site_id
 _symmetry_equiv_pos_as_xyz
  1  'x, y, z'
loop_
 _atom_site_type_symbol
 _atom_site_label
 _atom_site_symmetry_multiplicity
 _atom_site_fract_x
 _atom_site_fract_y
 _atom_site_fract_z
 _atom_site_occupancy
  Sn  Sn0  1  0.07155500  0.69728000  0.20039600  1
  Sn  Sn1  1  0.42844500  0.69728000  0.70039600  1
  Sn  Sn2  1  0.57155500  0.30272000  0.29960400  1
  Sn  Sn3  1  0.92844500  0.30272000  0.79960400  1
  P  P0  1  0.71672500  0.53235000  0.53001400  1
  P  P1  1  0.24037900  0.09110900  0.24463800  1
  P  P2  1  0.74037900  0.90889100  0.25536200  1
  P  P3  1  0.25962100  0.09110900  0.74463800  1
  P  P4  1  0.78327500  0.53235000  0.03001400  1
  P  P5  1  0.75962100  0.90889100  0.75536200  1
  P  P6  1  0.21672500  0.46765000  0.96998600  1
  P  P7  1  0.28327500  0.46765000  0.46998600  1
  O  O0  1  0.12725400  0.50080200  0.39255100  1
  O  O1  1  0.21455000  0.25666500  0.08198700  1
  O  O2  1  0.26409900  0.89601900  0.69927700  1
  O  O3  1  0.08774200  0.11234200  0.77915600  1
  O  O4  1  0.87274600  0.49919800  0.60744900  1
  O  O5  1  0.78545000  0.74333500  0.91801300  1
  O  O6  1  0.20294700  0.62997300  0.04777700  1
  O  O7  1  0.91177100  0.52119200  0.14092200  1
  O  O8  1  0.58774200  0.88765800  0.72084400  1
  O  O9  1  0.70294700  0.37002700  0.45222300  1
  O  O10  1  0.37274600  0.50080200  0.89255100  1
  O  O11  1  0.86991200  0.88109200  0.64809300  1
  O  O12  1  0.62725400  0.49919800  0.10744900  1
  O  O13  1  0.73590100  0.10398100  0.30072300  1
  O  O14  1  0.41177100  0.47880800  0.35907800  1
  O  O15  1  0.79705300  0.37002700  0.95222300  1
  O  O16  1  0.91225800  0.88765800  0.22084400  1
  O  O17  1  0.23590100  0.89601900  0.19927700  1
  O  O18  1  0.13008800  0.11890800  0.35190700  1
  O  O19  1  0.58822900  0.52119200  0.64092200  1
  O  O20  1  0.28545000  0.25666500  0.58198700  1
  O  O21  1  0.29705300  0.62997300  0.54777700  1
  O  O22  1  0.08822900  0.47880800  0.85907800  1
  O  O23  1  0.41225800  0.11234200  0.27915600  1
  O  O24  1  0.71455000  0.74333500  0.41801300  1
  O  O25  1  0.63008800  0.88109200  0.14809300  1
  O  O26  1  0.76409900  0.10398100  0.80072300  1
  O  O27  1  0.36991200  0.11890800  0.85190700  1
loop_
_geom_bond_atom_site_label_1
_geom_bond_atom_site_label_2
_geom_bond_distance
_geom_bond_site_symmetry_2
O0 P7 1.548626 1_555
O0 Sn0 2.002651 1_555
O1 P6 1.552518 1_554
O1 P1 1.656672 1_555
O2 P3 1.561952 1_565
O2 Sn1 2.016650 1_555
O3 P3 1.570656 1_555
O3 Sn3 1.995127 1_455
O4 P0 1.548626 1_555
O4 Sn3 2.002651 1_555
O5 P4 1.552518 1_556
O5 P5 1.656672 1_555
O6 P6 1.544403 1_554
O6 Sn0 2.026625 1_555
O7 P4 1.538109 1_555
O7 Sn0 2.068863 1_655
O8 P5 1.570656 1_555
O8 Sn1 1.995127 1_555
O9 P0 1.544403 1_555
O9 Sn2 2.026625 1_555
O10 P6 1.548626 1_555
O10 Sn1 2.002651 1_555
O11 P5 1.468274 1_555
O12 P4 1.548626 1_555
O12 Sn2 2.002651 1_555
O13 P2 1.561952 1_545
O13 Sn2 2.016650 1_555
O14 P7 1.538109 1_555
O14 Sn2 2.068863 1_555
O15 P4 1.544403 1_556
O15 Sn3 2.026625 1_555
O16 P2 1.570656 1_555
O16 Sn0 1.995127 1_655
O17 P1 1.561952 1_565
O17 Sn0 2.016650 1_555
O18 P1 1.468274 1_555
O19 P0 1.538109 1_555
O19 Sn1 2.068863 1_555
O20 P7 1.552518 1_555
O20 P3 1.656672 1_555
O21 P7 1.544403 1_555
O21 Sn1 2.026625 1_555
O22 P6 1.538109 1_555
O22 Sn3 2.068863 1_455
O23 P1 1.570656 1_555
O23 Sn2 1.995127 1_555
O24 P0 1.552518 1_555
O24 P2 1.656672 1_555
O25 P2 1.468274 1_555
O26 P5 1.561952 1_545
O26 Sn3 2.016650 1_555
O27 P3 1.468274 1_555
