# generated using pymatgen
data_AlPO4
_symmetry_space_group_name_H-M   'P 1'
_cell_length_a   10.79009400
_cell_length_b   13.04850400
_cell_length_c   21.91516105
_cell_angle_alpha   88.53289288
_cell_angle_beta   90.00000000
_cell_angle_gamma   90.00000000
_symmetry_Int_Tables_number   1
_chemical_formula_structural   AlPO4
_chemical_formula_sum   'Al12 P12 O48'
_cell_volume   3084.52452376
_cell_formula_units_Z   12
loop_
 _symmetry_equiv_pos_site_id
 _symmetry_equiv_pos_as_xyz
  1  'x, y, z'
loop_
 _atom_site_type_symbol
 _atom_site_label
 _atom_site_symmetry_multiplicity
 _atom_site_fract_x
 _atom_site_fract_y
 _atom_site_fract_z
 _atom_site_occupancy
  Al  Al0  1  0.77590500  0.36865400  0.11176800  1
  Al  Al1  1  0.22409500  0.63134600  0.88823200  1
  Al  Al2  1  0.22409500  0.36865400  0.11176800  1
  Al  Al3  1  0.77590500  0.63134600  0.88823200  1
  Al  Al4  1  0.00000000  0.54809500  0.65789800  1
  Al  Al5  1  0.00000000  0.45190500  0.34210200  1
  Al  Al6  1  0.00000000  0.86636600  0.79990500  1
  Al  Al7  1  0.00000000  0.13363400  0.20009500  1
  Al  Al8  1  0.00000000  0.87328500  0.43468300  1
  Al  Al9  1  0.00000000  0.12671500  0.56531700  1
  Al  Al10  1  0.77620300  0.50000000  0.50000000  1
  Al  Al11  1  0.22379700  0.50000000  0.50000000  1
  P  P0  1  0.22224600  0.12856500  0.11033600  1
  P  P1  1  0.77775400  0.87143500  0.88966400  1
  P  P2  1  0.77775400  0.12856500  0.11033600  1
  P  P3  1  0.22224600  0.87143500  0.88966400  1
  P  P4  1  0.00000000  0.62721700  0.79365700  1
  P  P5  1  0.00000000  0.37278300  0.20634300  1
  P  P6  1  0.00000000  0.62674200  0.43288100  1
  P  P7  1  0.00000000  0.37325800  0.56711900  1
  P  P8  1  0.00000000  0.94267100  0.66022200  1
  P  P9  1  0.00000000  0.05732900  0.33977800  1
  P  P10  1  0.21798000  0.00000000  0.50000000  1
  P  P11  1  0.78202000  0.00000000  0.50000000  1
  O  O0  1  0.00000000  0.56041700  0.73459100  1
  O  O1  1  0.00000000  0.43958300  0.26540900  1
  O  O2  1  0.00000000  0.74081100  0.77071200  1
  O  O3  1  0.00000000  0.25918900  0.22928800  1
  O  O4  1  0.00000000  0.57746600  0.36878100  1
  O  O5  1  0.00000000  0.42253400  0.63121900  1
  O  O6  1  0.00000000  0.74381600  0.42229900  1
  O  O7  1  0.00000000  0.25618400  0.57770100  1
  O  O8  1  0.81012600  0.75754100  0.90625600  1
  O  O9  1  0.18987400  0.24245900  0.09374400  1
  O  O10  1  0.18987400  0.75754100  0.90625600  1
  O  O11  1  0.81012600  0.24245900  0.09374400  1
  O  O12  1  0.00000000  0.94536900  0.72894000  1
  O  O13  1  0.00000000  0.05463100  0.27106000  1
  O  O14  1  0.00000000  0.94537100  0.36512900  1
  O  O15  1  0.00000000  0.05462900  0.63487100  1
  O  O16  1  0.78622500  0.47161500  0.05747200  1
  O  O17  1  0.21377500  0.52838500  0.94252800  1
  O  O18  1  0.21377500  0.47161500  0.05747200  1
  O  O19  1  0.78622500  0.52838500  0.94252800  1
  O  O20  1  0.88194900  0.39982300  0.17182100  1
  O  O21  1  0.11805100  0.60017700  0.82817900  1
  O  O22  1  0.11805100  0.39982300  0.17182100  1
  O  O23  1  0.88194900  0.60017700  0.82817900  1
  O  O24  1  0.62688200  0.40495600  0.13655200  1
  O  O25  1  0.37311800  0.59504400  0.86344800  1
  O  O26  1  0.37311800  0.40495600  0.13655200  1
  O  O27  1  0.62688200  0.59504400  0.86344800  1
  O  O28  1  0.11822600  0.40494800  0.53195800  1
  O  O29  1  0.88177400  0.59505200  0.46804200  1
  O  O30  1  0.88177400  0.40494800  0.53195800  1
  O  O31  1  0.11822600  0.59505200  0.46804200  1
  O  O32  1  0.19729200  0.05695500  0.05785400  1
  O  O33  1  0.80270800  0.94304500  0.94214600  1
  O  O34  1  0.80270800  0.05695500  0.05785400  1
  O  O35  1  0.19729200  0.94304500  0.94214600  1
  O  O36  1  0.13878600  0.10112000  0.16756400  1
  O  O37  1  0.86121400  0.89888000  0.83243600  1
  O  O38  1  0.86121400  0.10112000  0.16756400  1
  O  O39  1  0.13878600  0.89888000  0.83243600  1
  O  O40  1  0.35873000  0.11069200  0.12493300  1
  O  O41  1  0.64127000  0.88930800  0.87506700  1
  O  O42  1  0.64127000  0.11069200  0.12493300  1
  O  O43  1  0.35873000  0.88930800  0.87506700  1
  O  O44  1  0.86579500  0.08652200  0.52519200  1
  O  O45  1  0.13420500  0.91347800  0.47480800  1
  O  O46  1  0.13420500  0.08652200  0.52519200  1
  O  O47  1  0.86579500  0.91347800  0.47480800  1
loop_
_geom_bond_atom_site_label_1
_geom_bond_atom_site_label_2
_geom_bond_distance
_geom_bond_site_symmetry_2
Al0 O11 1.742742 1_555
Al0 O24 1.765824 1_555
Al0 O16 1.775211 1_555
Al0 O20 1.798364 1_555
Al1 O10 1.742742 1_555
Al1 O25 1.765824 1_555
Al1 O17 1.775211 1_555
Al1 O21 1.798364 1_555
Al2 O9 1.742742 1_555
Al2 O26 1.765824 1_555
Al2 O18 1.775211 1_555
Al2 O22 1.798364 1_555
Al3 O8 1.742742 1_555
Al3 O27 1.765824 1_555
Al3 O19 1.775211 1_555
Al3 O23 1.798364 1_555
Al4 O0 1.692505 1_555
Al4 O5 1.753623 1_555
Al5 O1 1.692505 1_555
Al5 O4 1.753623 1_555
Al6 O37 1.716476 1_455
Al6 O39 1.716476 1_555
Al6 O2 1.773984 1_555
Al6 O12 1.843713 1_555
Al7 O38 1.716476 1_455
Al7 O36 1.716476 1_555
Al7 O3 1.773984 1_555
Al7 O13 1.843713 1_555
Al8 O6 1.717885 1_555
Al8 O14 1.770534 1_555
Al8 O45 1.780132 1_555
Al8 O47 1.780132 1_455
Al9 O7 1.717885 1_555
Al9 O15 1.770534 1_555
Al9 O46 1.780132 1_555
Al9 O44 1.780132 1_455
Al10 O29 1.811612 1_555
Al10 O30 1.811612 1_555
Al11 O31 1.811612 1_555
Al11 O28 1.811612 1_555
O0 P4 1.578958 1_555
O1 P5 1.578958 1_555
O2 P4 1.552964 1_555
O3 P5 1.552964 1_555
O4 P6 1.559817 1_555
O5 P7 1.559817 1_555
O6 P6 1.539261 1_555
O7 P7 1.539261 1_555
O8 P1 1.560508 1_555
O9 P0 1.560508 1_555
O10 P3 1.560508 1_555
O11 P2 1.560508 1_555
O12 P8 1.507278 1_555
O13 P9 1.507278 1_555
O14 P9 1.549607 1_565
O15 P8 1.549607 1_545
O20 P5 1.518458 1_655
O21 P4 1.518458 1_555
O22 P5 1.518458 1_555
O23 P4 1.518458 1_655
O28 P7 1.541352 1_555
O29 P6 1.541352 1_655
O30 P7 1.541352 1_655
O31 P6 1.541352 1_555
O32 P0 1.524299 1_555
O33 P1 1.524299 1_555
O34 P2 1.524299 1_555
O35 P3 1.524299 1_555
O36 P0 1.577702 1_555
O37 P1 1.577702 1_555
O38 P2 1.577702 1_555
O39 P3 1.577702 1_555
O40 P0 1.523704 1_555
O41 P1 1.523704 1_555
O42 P2 1.523704 1_555
O43 P3 1.523704 1_555
O44 P11 1.558341 1_555
O45 P10 1.558341 1_565
O46 P10 1.558341 1_555
O47 P11 1.558341 1_565
