# generated using pymatgen
data_InSb3(PO4)6
_symmetry_space_group_name_H-M   'P 1'
_cell_length_a   8.74227100
_cell_length_b   8.53584600
_cell_length_c   14.63211486
_cell_angle_alpha   55.18493202
_cell_angle_beta   90.00000000
_cell_angle_gamma   90.00000000
_symmetry_Int_Tables_number   1
_chemical_formula_structural   InSb3(PO4)6
_chemical_formula_sum   'In2 Sb6 P12 O48'
_cell_volume   896.43873492
_cell_formula_units_Z   2
loop_
 _symmetry_equiv_pos_site_id
 _symmetry_equiv_pos_as_xyz
  1  'x, y, z'
loop_
 _atom_site_type_symbol
 _atom_site_label
 _atom_site_symmetry_multiplicity
 _atom_site_fract_x
 _atom_site_fract_y
 _atom_site_fract_z
 _atom_site_occupancy
  In  In0  1  0.71841600  0.87342000  0.37715200  1
  In  In1  1  0.28158400  0.87342000  0.87715200  1
  Sb  Sb0  1  0.71732200  0.63488100  0.11587800  1
  Sb  Sb1  1  0.28267800  0.63488100  0.61587800  1
  Sb  Sb2  1  0.78400400  0.36531700  0.88510500  1
  Sb  Sb3  1  0.21599600  0.36531700  0.38510500  1
  Sb  Sb4  1  0.78409900  0.13237300  0.61592300  1
  Sb  Sb5  1  0.21590100  0.13237300  0.11592300  1
  P  P0  1  0.13263200  0.52743600  0.85530200  1
  P  P1  1  0.86736800  0.52743600  0.35530200  1
  P  P2  1  0.36684400  0.46034600  0.14690700  1
  P  P3  1  0.63315600  0.46034600  0.64690700  1
  P  P4  1  0.36090500  0.75979700  0.34651200  1
  P  P5  1  0.63909500  0.75979700  0.84651200  1
  P  P6  1  0.12818800  0.25532200  0.64169500  1
  P  P7  1  0.87181200  0.25532200  0.14169500  1
  P  P8  1  0.99755300  0.96164200  0.00572500  1
  P  P9  1  0.00244700  0.96164200  0.50572500  1
  P  P10  1  0.50562500  0.04364200  0.99819700  1
  P  P11  1  0.49437500  0.04364200  0.49819700  1
  O  O0  1  0.97832800  0.50117500  0.81112300  1
  O  O1  1  0.02167200  0.50117500  0.31112300  1
  O  O2  1  0.53406400  0.46567400  0.18388800  1
  O  O3  1  0.46593600  0.46567400  0.68388800  1
  O  O4  1  0.18708700  0.32428000  0.95324900  1
  O  O5  1  0.81291300  0.32428000  0.45324900  1
  O  O6  1  0.31669800  0.65584100  0.05212700  1
  O  O7  1  0.68330200  0.65584100  0.55212700  1
  O  O8  1  0.92099000  0.76153200  0.06171900  1
  O  O9  1  0.07901000  0.76153200  0.56171900  1
  O  O10  1  0.58734900  0.23655400  0.95891600  1
  O  O11  1  0.41265100  0.23655400  0.45891600  1
  O  O12  1  0.25271300  0.59667600  0.76099100  1
  O  O13  1  0.74728700  0.59667600  0.26099100  1
  O  O14  1  0.26186600  0.37424400  0.25081100  1
  O  O15  1  0.73813400  0.37424400  0.75081100  1
  O  O16  1  0.24937500  0.93386100  0.27798000  1
  O  O17  1  0.75062500  0.93386100  0.77798000  1
  O  O18  1  0.22520300  0.07781900  0.70345400  1
  O  O19  1  0.77479700  0.07781900  0.20345400  1
  O  O20  1  0.11289600  0.99748600  0.91998700  1
  O  O21  1  0.88710400  0.99748600  0.41998700  1
  O  O22  1  0.38355700  0.01539400  0.08449200  1
  O  O23  1  0.61644300  0.01539400  0.58449200  1
  O  O24  1  0.31581100  0.61318100  0.31965700  1
  O  O25  1  0.68418900  0.61318100  0.81965700  1
  O  O26  1  0.16698200  0.39710500  0.67272100  1
  O  O27  1  0.83301800  0.39710500  0.17272100  1
  O  O28  1  0.12222800  0.66864300  0.88584200  1
  O  O29  1  0.87777200  0.66864300  0.38584200  1
  O  O30  1  0.36560100  0.30779200  0.11901500  1
  O  O31  1  0.63439900  0.30779200  0.61901500  1
  O  O32  1  0.32917100  0.67223100  0.47111600  1
  O  O33  1  0.67082900  0.67223100  0.97111600  1
  O  O34  1  0.14377600  0.36568900  0.51321600  1
  O  O35  1  0.85622400  0.36568900  0.01321600  1
  O  O36  1  0.86621700  0.10950200  0.94788700  1
  O  O37  1  0.13378300  0.10950200  0.44788700  1
  O  O38  1  0.61984700  0.87653200  0.07223400  1
  O  O39  1  0.38015300  0.87653200  0.57223400  1
  O  O40  1  0.52745600  0.80616200  0.31680400  1
  O  O41  1  0.47254400  0.80616200  0.81680400  1
  O  O42  1  0.95260600  0.21793300  0.66848000  1
  O  O43  1  0.04739400  0.21793300  0.16848000  1
  O  O44  1  0.06576000  0.96474300  0.10410000  1
  O  O45  1  0.93424000  0.96474300  0.60410000  1
  O  O46  1  0.44322300  0.04577500  0.90179700  1
  O  O47  1  0.55677700  0.04577500  0.40179700  1
loop_
_geom_bond_atom_site_label_1
_geom_bond_atom_site_label_2
_geom_bond_distance
_geom_bond_site_symmetry_2
In0 O21 2.108799 1_555
In0 O40 2.115456 1_555
In0 O7 2.160767 1_555
In0 O19 2.164069 1_565
In0 O29 2.181402 1_555
In0 O47 2.212932 1_565
In1 O20 2.108799 1_555
In1 O41 2.115456 1_555
In1 O6 2.160767 1_556
In1 O18 2.164069 1_565
In1 O28 2.181402 1_555
In1 O46 2.212932 1_565
O0 P0 1.566300 1_655
O0 Sb2 1.992299 1_555
O1 P1 1.566300 1_455
O1 Sb3 1.992299 1_555
O2 P2 1.568461 1_555
O2 Sb0 2.000468 1_555
O3 P3 1.568461 1_555
O3 Sb1 2.000468 1_555
O4 P0 1.565220 1_555
O4 Sb5 1.990036 1_556
O5 P1 1.565220 1_555
O5 Sb4 1.990036 1_555
O6 P2 1.502524 1_555
O7 P3 1.502524 1_555
O8 P8 1.561702 1_555
O8 Sb0 1.997180 1_555
O9 P9 1.561702 1_555
O9 Sb1 1.997180 1_555
O10 P10 1.572133 1_555
O10 Sb2 1.993665 1_555
O11 P11 1.572133 1_555
O11 Sb3 1.993665 1_555
O12 P0 1.557039 1_555
O12 Sb1 1.973006 1_555
O13 P1 1.557039 1_555
O13 Sb0 1.973006 1_555
O14 P2 1.554975 1_555
O14 Sb3 1.963896 1_555
O15 P3 1.554975 1_555
O15 Sb2 1.963896 1_555
O16 P4 1.569242 1_555
O16 Sb5 1.997912 1_565
O17 P5 1.569242 1_555
O17 Sb4 1.997912 1_565
O18 P6 1.506046 1_555
O19 P7 1.506046 1_555
O20 P8 1.498652 1_456
O21 P9 1.498652 1_655
O22 P10 1.563221 1_554
O22 Sb5 1.970067 1_555
O23 P11 1.563221 1_555
O23 Sb4 1.970067 1_555
O24 P4 1.561275 1_555
O24 Sb3 1.959924 1_555
O25 P5 1.561275 1_555
O25 Sb2 1.959924 1_555
O26 P6 1.553432 1_555
O26 Sb1 1.976508 1_555
O27 P7 1.553432 1_555
O27 Sb0 1.976508 1_555
O28 P0 1.508570 1_555
O29 P1 1.508570 1_555
O30 P2 1.571362 1_555
O30 Sb5 2.008532 1_555
O31 P3 1.571362 1_555
O31 Sb4 2.008532 1_555
O32 P4 1.550385 1_555
O32 Sb1 1.995597 1_555
O33 P5 1.550385 1_555
O33 Sb0 1.995597 1_556
O34 P6 1.554964 1_555
O34 Sb3 1.979725 1_555
O35 P7 1.554964 1_555
O35 Sb2 1.979725 1_554
O36 P8 1.551710 1_546
O36 Sb2 1.959100 1_555
O37 P9 1.551710 1_545
O37 Sb3 1.959100 1_555
O38 P10 1.562340 1_564
O38 Sb0 1.970935 1_555
O39 P11 1.562340 1_565
O39 Sb1 1.970935 1_555
O40 P4 1.506380 1_555
O41 P5 1.506380 1_555
O42 P6 1.571246 1_655
O42 Sb4 1.983986 1_555
O43 P7 1.571246 1_455
O43 Sb5 1.983986 1_555
O44 P8 1.572175 1_455
O44 Sb5 2.020593 1_565
O45 P9 1.572175 1_655
O45 Sb4 2.020593 1_565
O46 P10 1.502740 1_555
O47 P11 1.502740 1_555
