# generated using pymatgen
data_TbHf
_symmetry_space_group_name_H-M   'P 1'
_cell_length_a   6.75611592
_cell_length_b   6.75611592
_cell_length_c   10.76783000
_cell_angle_alpha   90.00000000
_cell_angle_beta   90.00000000
_cell_angle_gamma   119.99999926
_symmetry_Int_Tables_number   1
_chemical_formula_structural   TbHf
_chemical_formula_sum   'Tb8 Hf8'
_cell_volume   425.65036576
_cell_formula_units_Z   8
loop_
 _symmetry_equiv_pos_site_id
 _symmetry_equiv_pos_as_xyz
  1  'x, y, z'
loop_
 _atom_site_type_symbol
 _atom_site_label
 _atom_site_symmetry_multiplicity
 _atom_site_fract_x
 _atom_site_fract_y
 _atom_site_fract_z
 _atom_site_occupancy
  Tb  Tb0_0  1  0.16666650  0.33333350  0.00000000  1
  Tb  Tb0_1  1  0.16666650  0.33333350  0.50000000  1
  Tb  Tb0_2  1  0.16666650  0.83333350  0.00000000  1
  Tb  Tb0_3  1  0.16666650  0.83333350  0.50000000  1
  Tb  Tb0_4  1  0.66666650  0.33333350  0.00000000  1
  Tb  Tb0_5  1  0.66666650  0.33333350  0.50000000  1
  Tb  Tb0_6  1  0.66666650  0.83333350  0.00000000  1
  Tb  Tb0_7  1  0.66666650  0.83333350  0.50000000  1
  Hf  Hf0_0  1  0.33333350  0.16666650  0.25000000  1
  Hf  Hf0_1  1  0.33333350  0.16666650  0.75000000  1
  Hf  Hf0_2  1  0.33333350  0.66666650  0.25000000  1
  Hf  Hf0_3  1  0.33333350  0.66666650  0.75000000  1
  Hf  Hf0_4  1  0.83333350  0.16666650  0.25000000  1
  Hf  Hf0_5  1  0.83333350  0.16666650  0.75000000  1
  Hf  Hf0_6  1  0.83333350  0.66666650  0.25000000  1
  Hf  Hf0_7  1  0.83333350  0.66666650  0.75000000  1
loop_
_geom_bond_atom_site_label_1
_geom_bond_atom_site_label_2
_geom_bond_distance
_geom_bond_site_symmetry_2
Tb0_0 Tb0_2 3.378058 1_555
Tb0_0 Tb0_4 3.378058 1_455
Tb0_0 Tb0_2 3.378058 1_545
Tb0_0 Tb0_4 3.378058 1_555
Tb0_0 Tb0_6 3.378058 1_445
Tb0_0 Tb0_6 3.378058 1_555
Tb0_1 Tb0_3 3.378058 1_555
Tb0_1 Tb0_5 3.378058 1_455
Tb0_1 Tb0_5 3.378058 1_555
Tb0_1 Tb0_3 3.378058 1_545
Tb0_1 Tb0_7 3.378058 1_445
Tb0_1 Tb0_7 3.378058 1_555
Tb0_2 Tb0_6 3.378058 1_555
Tb0_2 Tb0_6 3.378058 1_455
Tb0_2 Tb0_4 3.378058 1_565
Tb0_2 Tb0_4 3.378058 1_455
Tb0_3 Tb0_7 3.378058 1_555
Tb0_3 Tb0_7 3.378058 1_455
Tb0_3 Tb0_5 3.378058 1_565
Tb0_3 Tb0_5 3.378058 1_455
Tb0_4 Tb0_6 3.378058 1_545
Tb0_4 Tb0_6 3.378058 1_555
Tb0_5 Tb0_7 3.378058 1_545
Tb0_5 Tb0_7 3.378058 1_555
Hf0_0 Tb0_5 3.324212 1_555
Hf0_0 Tb0_3 3.324212 1_545
Hf0_0 Tb0_4 3.324212 1_555
Hf0_0 Tb0_2 3.324212 1_545
Hf0_0 Tb0_0 3.324216 1_555
Hf0_0 Tb0_1 3.324216 1_555
Hf0_0 Hf0_4 3.378058 1_455
Hf0_0 Hf0_2 3.378058 1_555
Hf0_0 Hf0_2 3.378058 1_545
Hf0_0 Hf0_4 3.378058 1_555
Hf0_0 Hf0_6 3.378058 1_555
Hf0_0 Hf0_6 3.378058 1_445
Hf0_1 Tb0_3 3.324212 1_545
Hf0_1 Tb0_5 3.324212 1_555
Hf0_1 Tb0_2 3.324212 1_546
Hf0_1 Tb0_4 3.324212 1_556
Hf0_1 Tb0_1 3.324216 1_555
Hf0_1 Tb0_0 3.324216 1_556
Hf0_1 Hf0_3 3.378058 1_555
Hf0_1 Hf0_5 3.378058 1_455
Hf0_1 Hf0_3 3.378058 1_545
Hf0_1 Hf0_5 3.378058 1_555
Hf0_1 Hf0_7 3.378058 1_555
Hf0_1 Hf0_7 3.378058 1_445
Hf0_2 Tb0_1 3.324212 1_555
Hf0_2 Tb0_0 3.324212 1_555
Hf0_2 Tb0_6 3.324212 1_555
Hf0_2 Tb0_7 3.324212 1_555
Hf0_2 Tb0_3 3.324216 1_555
Hf0_2 Tb0_2 3.324216 1_555
Hf0_2 Hf0_6 3.378058 1_555
Hf0_2 Hf0_6 3.378058 1_455
Hf0_2 Hf0_4 3.378058 1_565
Hf0_2 Hf0_4 3.378058 1_455
Hf0_3 Tb0_7 3.324212 1_555
Hf0_3 Tb0_1 3.324212 1_555
Hf0_3 Tb0_6 3.324212 1_556
Hf0_3 Tb0_0 3.324212 1_556
Hf0_3 Tb0_3 3.324216 1_555
Hf0_3 Tb0_2 3.324216 1_556
Hf0_3 Hf0_7 3.378058 1_555
Hf0_3 Hf0_7 3.378058 1_455
Hf0_3 Hf0_5 3.378058 1_565
Hf0_3 Hf0_5 3.378058 1_455
Hf0_4 Tb0_7 3.324212 1_545
Hf0_4 Tb0_6 3.324212 1_545
Hf0_4 Tb0_0 3.324212 1_655
Hf0_4 Tb0_1 3.324212 1_655
Hf0_4 Tb0_4 3.324216 1_555
Hf0_4 Tb0_5 3.324216 1_555
Hf0_4 Hf0_6 3.378058 1_555
Hf0_4 Hf0_6 3.378058 1_545
Hf0_5 Tb0_7 3.324212 1_545
Hf0_5 Tb0_1 3.324212 1_655
Hf0_5 Tb0_6 3.324212 1_546
Hf0_5 Tb0_0 3.324212 1_656
Hf0_5 Tb0_5 3.324216 1_555
Hf0_5 Tb0_4 3.324216 1_556
Hf0_5 Hf0_7 3.378058 1_545
Hf0_5 Hf0_7 3.378058 1_555
Hf0_6 Tb0_5 3.324212 1_555
Hf0_6 Tb0_2 3.324212 1_655
Hf0_6 Tb0_3 3.324212 1_655
Hf0_6 Tb0_4 3.324212 1_555
Hf0_6 Tb0_7 3.324216 1_555
Hf0_6 Tb0_6 3.324216 1_555
Hf0_7 Tb0_3 3.324212 1_655
Hf0_7 Tb0_5 3.324212 1_555
Hf0_7 Tb0_2 3.324212 1_656
Hf0_7 Tb0_4 3.324212 1_556
Hf0_7 Tb0_7 3.324216 1_555
Hf0_7 Tb0_6 3.324216 1_556
