# generated using pymatgen
data_KBa2IO6
_symmetry_space_group_name_H-M   'P 1'
_cell_length_a   6.18414802
_cell_length_b   6.18414802
_cell_length_c   6.18414802
_cell_angle_alpha   60.00000000
_cell_angle_beta   60.00000000
_cell_angle_gamma   60.00000000
_symmetry_Int_Tables_number   1
_chemical_formula_structural   KBa2IO6
_chemical_formula_sum   'K1 Ba2 I1 O6'
_cell_volume   167.23402020
_cell_formula_units_Z   1
loop_
 _symmetry_equiv_pos_site_id
 _symmetry_equiv_pos_as_xyz
  1  'x, y, z'
loop_
 _atom_site_type_symbol
 _atom_site_label
 _atom_site_symmetry_multiplicity
 _atom_site_fract_x
 _atom_site_fract_y
 _atom_site_fract_z
 _atom_site_occupancy
  K  K0  1  0.50000000  0.50000000  0.50000000  1
  Ba  Ba0  1  0.25000000  0.25000000  0.25000000  1
  Ba  Ba1  1  0.75000000  0.75000000  0.75000000  1
  I  I0  1  0.00000000  0.00000000  0.00000000  1
  O  O0  1  0.78243500  0.21756500  0.21756500  1
  O  O1  1  0.21756500  0.78243500  0.78243500  1
  O  O2  1  0.21756500  0.78243500  0.21756500  1
  O  O3  1  0.78243500  0.21756500  0.78243500  1
  O  O4  1  0.21756500  0.21756500  0.78243500  1
  O  O5  1  0.78243500  0.78243500  0.21756500  1
loop_
_geom_bond_atom_site_label_1
_geom_bond_atom_site_label_2
_geom_bond_distance
_geom_bond_site_symmetry_2
K0 O5 2.470093 1_555
K0 O3 2.470093 1_555
K0 O1 2.470093 1_555
K0 O2 2.470093 1_555
K0 O4 2.470093 1_555
K0 O0 2.470093 1_555
Ba0 O0 3.105059 1_555
Ba0 O2 3.105059 1_555
Ba0 O4 3.105059 1_555
Ba0 O3 3.105059 1_554
Ba0 O5 3.105059 1_545
Ba0 O1 3.105059 1_554
Ba0 O5 3.105059 1_455
Ba0 O3 3.105059 1_455
Ba0 O1 3.105059 1_545
Ba0 O0 3.105059 1_455
Ba0 O2 3.105059 1_545
Ba0 O4 3.105059 1_554
Ba1 O5 3.105059 1_556
Ba1 O3 3.105059 1_565
Ba1 O1 3.105059 1_655
Ba1 O0 3.105059 1_565
Ba1 O4 3.105059 1_655
Ba1 O2 3.105059 1_655
Ba1 O0 3.105059 1_556
Ba1 O4 3.105059 1_565
Ba1 O2 3.105059 1_556
Ba1 O1 3.105059 1_555
Ba1 O5 3.105059 1_555
Ba1 O3 3.105059 1_555
I0 O0 1.902760 1_455
I0 O4 1.902760 1_554
I0 O2 1.902760 1_545
I0 O5 1.902760 1_445
I0 O3 1.902760 1_454
I0 O1 1.902760 1_544
