# generated using pymatgen
data_Li9Mn2Co5O16
_symmetry_space_group_name_H-M   'P 1'
_cell_length_a   5.02393100
_cell_length_b   5.09388965
_cell_length_c   11.47794583
_cell_angle_alpha   79.54395137
_cell_angle_beta   84.49201299
_cell_angle_gamma   80.53283487
_symmetry_Int_Tables_number   1
_chemical_formula_structural   Li9Mn2Co5O16
_chemical_formula_sum   'Li9 Mn2 Co5 O16'
_cell_volume   284.26122736
_cell_formula_units_Z   1
loop_
 _symmetry_equiv_pos_site_id
 _symmetry_equiv_pos_as_xyz
  1  'x, y, z'
loop_
 _atom_site_type_symbol
 _atom_site_label
 _atom_site_symmetry_multiplicity
 _atom_site_fract_x
 _atom_site_fract_y
 _atom_site_fract_z
 _atom_site_occupancy
  Li  Li0  1  0.75335100  0.56688300  0.93424500  1
  Li  Li1  1  0.74070900  0.80587200  0.67483600  1
  Li  Li2  1  0.25045700  0.69034300  0.80620200  1
  Li  Li3  1  0.24827500  0.94133300  0.56095400  1
  Li  Li4  1  0.75865600  0.05608800  0.44463500  1
  Li  Li5  1  0.74159000  0.31454800  0.19402500  1
  Li  Li6  1  0.25992100  0.43624400  0.06342300  1
  Li  Li7  1  0.24603400  0.18668100  0.32068000  1
  Li  Li8  1  0.99123400  0.49806900  0.49809400  1
  Mn  Mn0  1  0.00442700  0.00581900  0.00136400  1
  Mn  Mn1  1  0.99943100  0.74483500  0.25311100  1
  Co  Co0  1  0.00133700  0.25964100  0.74064000  1
  Co  Co1  1  0.49832300  0.37176100  0.62294600  1
  Co  Co2  1  0.48787800  0.60425700  0.38454500  1
  Co  Co3  1  0.50341400  0.87563800  0.12535500  1
  Co  Co4  1  0.50760100  0.13991800  0.86950400  1
  O  O0  1  0.87108100  0.68800600  0.09746800  1
  O  O1  1  0.88916500  0.92692300  0.85633400  1
  O  O2  1  0.37188800  0.81510000  0.97734000  1
  O  O3  1  0.37733600  0.05172100  0.72131900  1
  O  O4  1  0.85191300  0.16639600  0.60342700  1
  O  O5  1  0.87803600  0.43091100  0.33365800  1
  O  O6  1  0.36106600  0.56219500  0.21463000  1
  O  O7  1  0.38687800  0.28418700  0.46106600  1
  O  O8  1  0.62261300  0.45935500  0.79048700  1
  O  O9  1  0.60411300  0.69323200  0.53342700  1
  O  O10  1  0.13640000  0.56793500  0.66053000  1
  O  O11  1  0.11790100  0.83714300  0.38983400  1
  O  O12  1  0.63396500  0.93732600  0.27068600  1
  O  O13  1  0.64491600  0.19161500  0.03460200  1
  O  O14  1  0.12391000  0.32294900  0.91184300  1
  O  O15  1  0.13617900  0.06707800  0.14878700  1
loop_
_geom_bond_atom_site_label_1
_geom_bond_atom_site_label_2
_geom_bond_distance
_geom_bond_site_symmetry_2
Li0 O8 2.026949 1_555
Li0 O1 2.080401 1_555
Li0 O14 2.083023 1_655
Li0 O13 2.168095 1_556
Li0 O2 2.182661 1_555
Li0 O0 2.234434 1_556
Li1 O4 2.014897 1_565
Li1 O9 2.028777 1_555
Li1 O3 2.118752 1_565
Li1 O8 2.138367 1_555
Li1 O10 2.159808 1_655
Li1 O1 2.488396 1_555
Li2 O10 2.047594 1_555
Li2 O8 2.049709 1_555
Li2 O3 2.088057 1_565
Li2 O1 2.099909 1_455
Li2 O14 2.190115 1_555
Li2 O2 2.333502 1_555
Li3 O9 2.046015 1_555
Li3 O7 2.090338 1_565
Li3 O10 2.163167 1_555
Li3 O4 2.186952 1_465
Li3 O3 2.202124 1_565
Li3 O11 2.303927 1_555
Li4 O7 2.042603 1_555
Li4 O11 2.066738 1_645
Li4 O4 2.116453 1_555
Li4 O9 2.166642 1_545
Li4 O5 2.230471 1_555
Li4 O12 2.355398 1_545
Li5 O5 2.019721 1_555
Li5 O12 2.096576 1_545
Li5 O6 2.128412 1_555
Li5 O13 2.159383 1_555
Li5 O0 2.184929 1_555
Li5 O15 2.237509 1_655
Li6 O6 2.088698 1_555
Li6 O15 2.116983 1_555
Li6 O14 2.132922 1_554
Li6 O2 2.139000 1_554
Li6 O13 2.153423 1_555
Li6 O0 2.196534 1_455
Li7 O7 1.992182 1_555
Li7 O11 1.995151 1_545
Li7 O5 2.060518 1_455
Li7 O6 2.204100 1_555
Li7 O12 2.230812 1_545
Li7 O15 2.307457 1_555
Li8 O4 2.071524 1_555
Li8 O9 2.072240 1_555
Li8 O11 2.088789 1_655
Li8 O5 2.122989 1_555
Li8 O7 2.147562 1_655
Li8 O10 2.172992 1_655
Mn0 O14 1.903638 1_554
Mn0 O13 1.933887 1_455
Mn0 O1 1.942243 1_444
Mn0 O2 1.958941 1_544
Mn0 O0 1.962949 1_445
Mn0 O15 1.968085 1_555
Mn1 O5 1.860045 1_555
Mn1 O11 1.891358 1_655
Mn1 O12 1.944672 1_555
Mn1 O6 1.949502 1_655
Mn1 O15 2.024815 1_665
Mn1 O0 2.039924 1_555
Co0 O10 1.865145 1_555
Co0 O4 1.971119 1_455
Co0 O3 2.021360 1_555
Co0 O1 2.075349 1_445
Co0 O8 2.085190 1_455
Co0 O14 2.207327 1_555
Co1 O9 1.894865 1_555
Co1 O4 1.922893 1_555
Co1 O3 1.956574 1_555
Co1 O10 1.974580 1_555
Co1 O7 2.132497 1_555
Co1 O8 2.218250 1_555
Co2 O7 1.831376 1_555
Co2 O9 2.006582 1_555
Co2 O11 2.035927 1_555
Co2 O5 2.088298 1_555
Co2 O12 2.132085 1_555
Co2 O6 2.165749 1_555
Co3 O6 1.936961 1_555
Co3 O12 1.944110 1_555
Co3 O13 1.951100 1_565
Co3 O15 1.958384 1_565
Co3 O0 1.960775 1_555
Co3 O2 1.972486 1_554
Co4 O8 1.864719 1_555
Co4 O3 2.027515 1_555
Co4 O1 2.048030 1_545
Co4 O2 2.049463 1_545
Co4 O14 2.052951 1_555
Co4 O13 2.151296 1_556
