# generated using pymatgen
data_Sr15Ti23O61
_symmetry_space_group_name_H-M   'P 1'
_cell_length_a   5.64097175
_cell_length_b   23.40658862
_cell_length_c   30.11133810
_cell_angle_alpha   90.00000000
_cell_angle_beta   90.53545969
_cell_angle_gamma   90.00000000
_symmetry_Int_Tables_number   1
_chemical_formula_structural   Sr15Ti23O61
_chemical_formula_sum   'Sr30 Ti46 O122'
_cell_volume   3975.60416077
_cell_formula_units_Z   2
loop_
 _symmetry_equiv_pos_site_id
 _symmetry_equiv_pos_as_xyz
  1  'x, y, z'
loop_
 _atom_site_type_symbol
 _atom_site_label
 _atom_site_symmetry_multiplicity
 _atom_site_fract_x
 _atom_site_fract_y
 _atom_site_fract_z
 _atom_site_occupancy
  Sr  Sr0  1  0.50240392  -0.00000000  0.19011208  1
  Sr  Sr1  1  0.49759608  0.00000000  0.80988792  1
  Sr  Sr2  1  0.50941554  0.82941907  0.18896121  1
  Sr  Sr3  1  0.50941554  0.17058093  0.18896121  1
  Sr  Sr4  1  0.49058446  0.17058093  0.81103879  1
  Sr  Sr5  1  0.49058446  0.82941907  0.81103879  1
  Sr  Sr6  1  0.49232050  0.66345758  0.19507021  1
  Sr  Sr7  1  0.49232050  0.33654242  0.19507021  1
  Sr  Sr8  1  0.50767950  0.33654242  0.80492979  1
  Sr  Sr9  1  0.50767950  0.66345758  0.80492979  1
  Sr  Sr10  1  0.49133704  0.50000000  0.19491756  1
  Sr  Sr11  1  0.50866296  0.50000000  0.80508244  1
  Sr  Sr12  1  -0.00029778  0.00000000  0.09435063  1
  Sr  Sr13  1  0.00029778  -0.00000000  0.90564937  1
  Sr  Sr14  1  0.00177292  0.83597572  0.09198693  1
  Sr  Sr15  1  0.00177292  0.16402428  0.09198693  1
  Sr  Sr16  1  0.99822708  0.16402428  0.90801307  1
  Sr  Sr17  1  0.99822708  0.83597572  0.90801307  1
  Sr  Sr18  1  0.99860828  0.66726587  0.08976159  1
  Sr  Sr19  1  0.99860828  0.33273413  0.08976159  1
  Sr  Sr20  1  0.00139172  0.33273413  0.91023841  1
  Sr  Sr21  1  0.00139172  0.66726587  0.91023841  1
  Sr  Sr22  1  0.99859909  0.50000000  0.08915890  1
  Sr  Sr23  1  0.00140091  0.50000000  0.91084110  1
  Sr  Sr24  1  0.50000000  -0.00000000  -0.00000000  1
  Sr  Sr25  1  0.50000000  0.83536082  -0.00000000  1
  Sr  Sr26  1  0.50000000  0.16463918  -0.00000000  1
  Sr  Sr27  1  0.50000000  0.66713233  -0.00000000  1
  Sr  Sr28  1  0.50000000  0.33286767  -0.00000000  1
  Sr  Sr29  1  0.50000000  0.50000000  -0.00000000  1
  Ti  Ti0  1  0.34485194  0.92669548  0.28876293  1
  Ti  Ti1  1  0.34485194  0.07330452  0.28876293  1
  Ti  Ti2  1  0.65514806  0.07330452  0.71123707  1
  Ti  Ti3  1  0.65514806  0.92669548  0.71123707  1
  Ti  Ti4  1  0.84646614  0.86905886  0.29511497  1
  Ti  Ti5  1  0.84646614  0.13094114  0.29511497  1
  Ti  Ti6  1  0.15353386  0.13094114  0.70488503  1
  Ti  Ti7  1  0.15353386  0.86905886  0.70488503  1
  Ti  Ti8  1  0.97440189  0.72783777  0.27206977  1
  Ti  Ti9  1  0.97440189  0.27216223  0.27206977  1
  Ti  Ti10  1  0.02559811  0.27216223  0.72793023  1
  Ti  Ti11  1  0.02559811  0.72783777  0.72793023  1
  Ti  Ti12  1  0.97895137  0.57668930  0.27173011  1
  Ti  Ti13  1  0.97895137  0.42331070  0.27173011  1
  Ti  Ti14  1  0.02104863  0.42331070  0.72826989  1
  Ti  Ti15  1  0.02104863  0.57668930  0.72826989  1
  Ti  Ti16  1  0.00394104  0.91528862  0.18732923  1
  Ti  Ti17  1  0.00394104  0.08471138  0.18732923  1
  Ti  Ti18  1  0.99605896  0.08471138  0.81267077  1
  Ti  Ti19  1  0.99605896  0.91528862  0.81267077  1
  Ti  Ti20  1  0.01568818  0.25091284  0.17932532  1
  Ti  Ti21  1  0.01568818  0.74908716  0.17932532  1
  Ti  Ti22  1  0.98431182  0.74908716  0.82067468  1
  Ti  Ti23  1  0.98431182  0.25091284  0.82067468  1
  Ti  Ti24  1  0.01024631  0.58291192  0.17765466  1
  Ti  Ti25  1  0.01024631  0.41708808  0.17765466  1
  Ti  Ti26  1  0.98975369  0.41708808  0.82234534  1
  Ti  Ti27  1  0.98975369  0.58291192  0.82234534  1
  Ti  Ti28  1  0.49871136  0.91690936  0.09436411  1
  Ti  Ti29  1  0.49871136  0.08309064  0.09436411  1
  Ti  Ti30  1  0.50128864  0.08309064  0.90563589  1
  Ti  Ti31  1  0.50128864  0.91690936  0.90563589  1
  Ti  Ti32  1  0.50288948  0.74881590  0.09231452  1
  Ti  Ti33  1  0.50288948  0.25118410  0.09231452  1
  Ti  Ti34  1  0.49711052  0.25118410  0.90768548  1
  Ti  Ti35  1  0.49711052  0.74881590  0.90768548  1
  Ti  Ti36  1  0.50264216  0.58275929  0.09204751  1
  Ti  Ti37  1  0.50264216  0.41724071  0.09204751  1
  Ti  Ti38  1  0.49735784  0.41724071  0.90795249  1
  Ti  Ti39  1  0.49735784  0.58275929  0.90795249  1
  Ti  Ti40  1  -0.00000000  0.91736436  -0.00000000  1
  Ti  Ti41  1  -0.00000000  0.08263564  -0.00000000  1
  Ti  Ti42  1  -0.00000000  0.75169168  -0.00000000  1
  Ti  Ti43  1  -0.00000000  0.24830832  -0.00000000  1
  Ti  Ti44  1  -0.00000000  0.58366030  -0.00000000  1
  Ti  Ti45  1  -0.00000000  0.41633970  -0.00000000  1
  O  O0  1  0.46090944  -0.00000000  0.28334696  1
  O  O1  1  0.53909056  -0.00000000  0.71665304  1
  O  O2  1  0.06519162  0.91996765  0.31725389  1
  O  O3  1  0.06519162  0.08003235  0.31725389  1
  O  O4  1  0.93480838  0.08003235  0.68274611  1
  O  O5  1  0.93480838  0.91996765  0.68274611  1
  O  O6  1  0.55406268  0.87975300  0.31826792  1
  O  O7  1  0.55406268  0.12024700  0.31826792  1
  O  O8  1  0.44593732  0.12024700  0.68173208  1
  O  O9  1  0.44593732  0.87975300  0.68173208  1
  O  O10  1  0.94376023  0.79468510  0.30460983  1
  O  O11  1  0.94376023  0.20531490  0.30460983  1
  O  O12  1  0.05623977  0.20531490  0.69539017  1
  O  O13  1  0.05623977  0.79468510  0.69539017  1
  O  O14  1  0.96085958  0.65234376  0.29441975  1
  O  O15  1  0.96085958  0.34765624  0.29441975  1
  O  O16  1  0.03914042  0.34765624  0.70558025  1
  O  O17  1  0.03914042  0.65234376  0.70558025  1
  O  O18  1  0.96613881  0.50000000  0.29352970  1
  O  O19  1  0.03386119  0.50000000  0.70647030  1
  O  O20  1  0.79476972  0.89283591  0.23764701  1
  O  O21  1  0.79476972  0.10716409  0.23764701  1
  O  O22  1  0.20523028  0.10716409  0.76235299  1
  O  O23  1  0.20523028  0.89283591  0.76235299  1
  O  O24  1  0.28809979  0.90865789  0.23069115  1
  O  O25  1  0.28809979  0.09134211  0.23069115  1
  O  O26  1  0.71190021  0.09134211  0.76930885  1
  O  O27  1  0.71190021  0.90865789  0.76930885  1
  O  O28  1  0.22293825  0.73867901  0.23574975  1
  O  O29  1  0.22293825  0.26132099  0.23574975  1
  O  O30  1  0.77706175  0.26132099  0.76425025  1
  O  O31  1  0.77706175  0.73867901  0.76425025  1
  O  O32  1  0.76053450  0.74123267  0.22664903  1
  O  O33  1  0.76053450  0.25876833  0.22664903  1
  O  O34  1  0.23946550  0.25876733  0.77335097  1
  O  O35  1  0.23946550  0.74123267  0.77335097  1
  O  O36  1  0.22615829  0.57986890  0.23445531  1
  O  O37  1  0.22615829  0.42013110  0.23445531  1
  O  O38  1  0.77384171  0.42013110  0.76554469  1
  O  O39  1  0.77384171  0.57986890  0.76554469  1
  O  O40  1  0.76057839  0.57977567  0.22635231  1
  O  O41  1  0.76057839  0.42022433  0.22635231  1
  O  O42  1  0.23942161  0.42022433  0.77364769  1
  O  O43  1  0.23942161  0.57977567  0.77364769  1
  O  O44  1  0.99045707  -0.00000000  0.19325985  1
  O  O45  1  0.00954293  -0.00000000  0.80674015  1
  O  O46  1  0.03091315  0.83035188  0.17850924  1
  O  O47  1  0.03091315  0.16964812  0.17850924  1
  O  O48  1  0.96908685  0.16964812  0.82149076  1
  O  O49  1  0.96908685  0.83035188  0.82149076  1
  O  O50  1  0.01286187  0.66385058  0.17598656  1
  O  O51  1  0.01286187  0.33614942  0.17598656  1
  O  O52  1  0.98713813  0.33614942  0.82401344  1
  O  O53  1  0.98713813  0.66385058  0.82401344  1
  O  O54  1  0.01706541  0.50000000  0.17521403  1
  O  O55  1  0.98293459  0.50000000  0.82478597  1
  O  O56  1  0.24300108  0.92244307  0.13956692  1
  O  O57  1  0.24300108  0.07755693  0.13956692  1
  O  O58  1  0.75699892  0.07755693  0.86043308  1
  O  O59  1  0.75699892  0.92244307  0.86043308  1
  O  O60  1  0.74257758  0.91748737  0.14562109  1
  O  O61  1  0.74257758  0.08251263  0.14562109  1
  O  O62  1  0.25742242  0.08251263  0.85437891  1
  O  O63  1  0.25742242  0.91748737  0.85437891  1
  O  O64  1  0.30563699  0.74588210  0.14493003  1
  O  O65  1  0.30563699  0.25411790  0.14493003  1
  O  O66  1  0.69436301  0.25411790  0.85506997  1
  O  O67  1  0.69436301  0.74588210  0.85506997  1
  O  O68  1  0.78976160  0.75087261  0.13188424  1
  O  O69  1  0.78976160  0.24912739  0.13188424  1
  O  O70  1  0.21023840  0.24912739  0.86811576  1
  O  O71  1  0.21023840  0.75087261  0.86811576  1
  O  O72  1  0.30663236  0.58276463  0.14387499  1
  O  O73  1  0.30663236  0.41723537  0.14387499  1
  O  O74  1  0.69336764  0.41723537  0.85612501  1
  O  O75  1  0.69336764  0.58276463  0.85612501  1
  O  O76  1  0.78645468  0.58272655  0.13034414  1
  O  O77  1  0.78645468  0.41727345  0.13034414  1
  O  O78  1  0.21354532  0.41727345  0.86965586  1
  O  O79  1  0.21354532  0.58272655  0.86965586  1
  O  O80  1  0.51602472  -0.00000000  0.09327536  1
  O  O81  1  0.48397528  0.00000000  0.90672464  1
  O  O82  1  0.49775634  0.83506240  0.09558895  1
  O  O83  1  0.49775634  0.16493760  0.09558895  1
  O  O84  1  0.50224366  0.16493760  0.90441105  1
  O  O85  1  0.50224366  0.83506240  0.90441105  1
  O  O86  1  0.50782856  0.66740417  0.08900903  1
  O  O87  1  0.50782856  0.33259583  0.08900903  1
  O  O88  1  0.49217144  0.33259583  0.91099097  1
  O  O89  1  0.49217144  0.66740417  0.91099097  1
  O  O90  1  0.50395906  0.50000000  0.08861408  1
  O  O91  1  0.49604094  0.50000000  0.91138592  1
  O  O92  1  0.26130744  0.91786250  0.04553835  1
  O  O93  1  0.26130744  0.08213750  0.04553835  1
  O  O94  1  0.73869256  0.08213750  0.95446165  1
  O  O95  1  0.73869256  0.91786250  0.95446165  1
  O  O96  1  0.76200499  0.91651726  0.04917413  1
  O  O97  1  0.76200499  0.08348274  0.04917413  1
  O  O98  1  0.23799501  0.08348274  0.95082587  1
  O  O99  1  0.23799501  0.91651726  0.95082587  1
  O  O100  1  0.22687243  0.75279494  0.05148957  1
  O  O101  1  0.22687243  0.24720506  0.05148957  1
  O  O102  1  0.77312757  0.24720506  0.94851043  1
  O  O103  1  0.77312757  0.75279494  0.94851043  1
  O  O104  1  0.72697541  0.75329446  0.04117139  1
  O  O105  1  0.72697541  0.24670554  0.04117139  1
  O  O106  1  0.27302459  0.24670554  0.95882861  1
  O  O107  1  0.27302459  0.75329446  0.95882861  1
  O  O108  1  0.22672845  0.58424076  0.05076066  1
  O  O109  1  0.22672845  0.41575924  0.05076066  1
  O  O110  1  0.77327155  0.41575924  0.94923934  1
  O  O111  1  0.77327155  0.58424076  0.94923934  1
  O  O112  1  0.73055963  0.58398612  0.04064370  1
  O  O113  1  0.73055963  0.41601388  0.04064370  1
  O  O114  1  0.26944037  0.41601388  0.95935630  1
  O  O115  1  0.26944037  0.58398612  0.95935630  1
  O  O116  1  -0.00000000  0.00000000  -0.00000000  1
  O  O117  1  -0.00000000  0.83515607  0.00000000  1
  O  O118  1  -0.00000000  0.16484393  -0.00000000  1
  O  O119  1  -0.00000000  0.66881761  -0.00000000  1
  O  O120  1  -0.00000000  0.33118239  -0.00000000  1
  O  O121  1  -0.00000000  0.50000000  -0.00000000  1
loop_
_geom_bond_atom_site_label_1
_geom_bond_atom_site_label_2
_geom_bond_distance
_geom_bond_site_symmetry_2
O0 Ti0 1.844232 1_545
O0 Ti1 1.844232 1_555
O0 Sr0 2.819347 1_555
O1 Ti3 1.844232 1_545
O1 Ti2 1.844232 1_555
O1 Sr1 2.819347 1_555
O2 Ti0 1.809633 1_555
O2 Ti4 1.836099 1_455
O3 Ti1 1.809633 1_555
O3 Ti5 1.836099 1_455
O4 Ti2 1.809633 1_555
O4 Ti6 1.836099 1_655
O5 Ti3 1.809633 1_555
O5 Ti7 1.836099 1_655
O6 Ti4 1.814068 1_555
O6 Ti0 1.835690 1_555
O7 Ti5 1.814068 1_555
O7 Ti1 1.835690 1_555
O8 Ti6 1.814068 1_555
O8 Ti2 1.835690 1_555
O9 Ti7 1.814068 1_555
O9 Ti3 1.835690 1_555
O10 Ti4 1.846764 1_555
O10 Ti8 1.855070 1_555
O11 Ti5 1.846764 1_555
O11 Ti9 1.855070 1_555
O12 Ti6 1.846764 1_555
O12 Ti10 1.855070 1_555
O13 Ti7 1.846764 1_555
O13 Ti11 1.855070 1_555
O14 Ti8 1.892670 1_555
O14 Ti12 1.901126 1_555
O15 Ti9 1.892670 1_555
O15 Ti13 1.901126 1_555
O16 Ti10 1.892670 1_555
O16 Ti14 1.901126 1_555
O17 Ti11 1.892670 1_555
O17 Ti15 1.901126 1_555
O18 Ti12 1.912888 1_555
O18 Ti13 1.912888 1_555
O19 Ti15 1.912888 1_555
O19 Ti14 1.912888 1_555
O20 Ti4 1.838412 1_555
O20 Ti16 1.999369 1_655
O20 Sr2 2.626680 1_555
O21 Ti5 1.838412 1_555
O21 Ti17 1.999369 1_655
O21 Sr3 2.626680 1_555
O22 Ti6 1.838412 1_555
O22 Ti18 1.999369 1_455
O22 Sr4 2.626680 1_555
O23 Ti7 1.838412 1_555
O23 Ti19 1.999369 1_455
O23 Sr5 2.626680 1_555
O24 Ti0 1.824266 1_555
O24 Ti16 2.063776 1_555
O24 Sr2 2.570363 1_555
O24 Sr0 2.748290 1_565
O25 Ti1 1.824266 1_555
O25 Ti17 2.063776 1_555
O25 Sr3 2.570363 1_555
O25 Sr0 2.748290 1_555
O26 Ti2 1.824266 1_555
O26 Ti18 2.063776 1_555
O26 Sr4 2.570363 1_555
O26 Sr1 2.748290 1_555
O27 Ti3 1.824266 1_555
O27 Ti19 2.063776 1_555
O27 Sr5 2.570363 1_555
O27 Sr1 2.748290 1_565
O28 Ti8 1.804072 1_455
O28 Ti21 2.067765 1_555
O28 Sr6 2.635205 1_555
O28 Sr2 3.024890 1_555
O29 Ti9 1.804072 1_455
O29 Ti20 2.067765 1_555
O29 Sr7 2.635205 1_555
O29 Sr3 3.024890 1_555
O30 Ti10 1.804072 1_655
O30 Ti23 2.067765 1_555
O30 Sr8 2.635205 1_555
O30 Sr4 3.024890 1_555
O31 Ti11 1.804072 1_655
O31 Ti22 2.067765 1_555
O31 Sr9 2.635205 1_555
O31 Sr5 3.024890 1_555
O32 Ti8 1.842134 1_555
O32 Ti21 2.043118 1_655
O32 Sr6 2.545673 1_555
O32 Sr2 2.743193 1_555
O33 Ti9 1.842130 1_555
O33 Ti20 2.043120 1_655
O33 Sr7 2.545656 1_555
O33 Sr3 2.743211 1_555
O34 Ti10 1.842134 1_555
O34 Ti23 2.043118 1_455
O34 Sr8 2.545673 1_555
O34 Sr4 2.743193 1_555
O35 Ti11 1.842134 1_555
O35 Ti22 2.043118 1_455
O35 Sr9 2.545673 1_555
O35 Sr5 2.743193 1_555
O36 Ti12 1.799766 1_455
O36 Ti24 2.091608 1_555
O36 Sr10 2.680140 1_555
O36 Sr6 2.742620 1_555
O37 Ti13 1.799766 1_455
O37 Ti25 2.091608 1_555
O37 Sr10 2.680140 1_555
O37 Sr7 2.742620 1_555
O38 Ti14 1.799766 1_655
O38 Ti26 2.091608 1_555
O38 Sr11 2.680140 1_555
O38 Sr8 2.742620 1_555
O39 Ti15 1.799766 1_655
O39 Ti27 2.091608 1_555
O39 Sr11 2.680140 1_555
O39 Sr9 2.742620 1_555
O40 Ti12 1.832537 1_555
O40 Ti24 2.043937 1_655
O40 Sr10 2.581181 1_555
O40 Sr6 2.643301 1_555
O41 Ti13 1.832537 1_555
O41 Ti25 2.043937 1_655
O41 Sr10 2.581181 1_555
O41 Sr7 2.643301 1_555
O42 Ti14 1.832537 1_555
O42 Ti26 2.043937 1_455
O42 Sr11 2.581181 1_555
O42 Sr8 2.643301 1_555
O43 Ti15 1.832537 1_555
O43 Ti27 2.043937 1_455
O43 Sr11 2.581181 1_555
O43 Sr9 2.643301 1_555
O44 Ti16 1.992346 1_645
O44 Ti17 1.992346 1_655
O44 Sr0 2.753840 1_555
O44 Sr0 2.890318 1_655
O44 Sr12 2.979233 1_655
O45 Ti18 1.992346 1_455
O45 Ti19 1.992346 1_445
O45 Sr1 2.753840 1_555
O45 Sr1 2.890318 1_455
O45 Sr13 2.979233 1_555
O46 Ti21 1.904237 1_555
O46 Ti16 2.011690 1_555
O46 Sr14 2.612268 1_555
O46 Sr2 2.714669 1_555
O46 Sr2 2.961544 1_455
O47 Ti20 1.904237 1_555
O47 Ti17 2.011690 1_555
O47 Sr15 2.612268 1_555
O47 Sr3 2.714669 1_555
O47 Sr3 2.961544 1_455
O48 Ti23 1.904237 1_555
O48 Ti18 2.011690 1_555
O48 Sr16 2.612268 1_555
O48 Sr4 2.714669 1_555
O48 Sr4 2.961544 1_655
O49 Ti22 1.904237 1_555
O49 Ti19 2.011690 1_555
O49 Sr17 2.612268 1_555
O49 Sr5 2.714669 1_555
O49 Sr5 2.961544 1_655
O50 Ti24 1.895225 1_555
O50 Ti21 1.997685 1_555
O50 Sr18 2.598073 1_455
O50 Sr6 2.759741 1_555
O50 Sr6 2.997337 1_455
O51 Ti25 1.895225 1_555
O51 Ti20 1.997685 1_555
O51 Sr19 2.598073 1_455
O51 Sr7 2.759741 1_555
O51 Sr7 2.997337 1_455
O52 Ti26 1.895225 1_555
O52 Ti23 1.997685 1_555
O52 Sr20 2.598073 1_655
O52 Sr8 2.759741 1_555
O52 Sr8 2.997337 1_655
O53 Ti27 1.895225 1_555
O53 Ti22 1.997685 1_555
O53 Sr21 2.598073 1_655
O53 Sr9 2.759741 1_555
O53 Sr9 2.997337 1_655
O54 Ti25 1.942471 1_555
O54 Ti24 1.942471 1_555
O54 Sr22 2.592355 1_455
O54 Sr10 2.734931 1_555
O54 Sr10 3.029816 1_455
O55 Ti26 1.942471 1_555
O55 Ti27 1.942471 1_555
O55 Sr23 2.592355 1_655
O55 Sr11 2.734931 1_555
O55 Sr11 3.029816 1_655
O56 Ti16 1.987765 1_555
O56 Ti28 1.996694 1_555
O56 Sr12 2.645352 1_565
O56 Sr0 2.776954 1_565
O56 Sr14 2.822064 1_555
O56 Sr2 3.028175 1_555
O57 Ti17 1.987765 1_555
O57 Ti29 1.996694 1_555
O57 Sr12 2.645352 1_555
O57 Sr0 2.776954 1_555
O57 Sr15 2.822064 1_555
O57 Sr3 3.028175 1_555
O58 Ti18 1.987765 1_555
O58 Ti30 1.996694 1_555
O58 Sr13 2.645352 1_655
O58 Sr1 2.776954 1_555
O58 Sr16 2.822064 1_555
O58 Sr4 3.028175 1_555
O59 Ti19 1.987765 1_555
O59 Ti31 1.996694 1_555
O59 Sr13 2.645352 1_665
O59 Sr1 2.776954 1_565
O59 Sr17 2.822064 1_555
O59 Sr5 3.028175 1_555
O60 Ti16 1.928467 1_655
O60 Ti28 2.057918 1_555
O60 Sr0 2.719240 1_565
O60 Sr2 2.777476 1_555
O60 Sr12 2.873859 1_665
O60 Sr14 2.903488 1_655
O61 Ti17 1.928467 1_655
O61 Ti29 2.057918 1_555
O61 Sr0 2.719240 1_555
O61 Sr3 2.777476 1_555
O61 Sr12 2.873859 1_655
O61 Sr15 2.903488 1_655
O62 Ti18 1.928467 1_455
O62 Ti30 2.057918 1_555
O62 Sr1 2.719240 1_555
O62 Sr4 2.777476 1_555
O62 Sr13 2.873859 1_555
O62 Sr16 2.903488 1_455
O63 Ti19 1.928467 1_455
O63 Ti31 2.057918 1_555
O63 Sr1 2.719240 1_565
O63 Sr5 2.777476 1_555
O63 Sr13 2.873859 1_565
O63 Sr17 2.903488 1_455
O64 Ti21 1.945534 1_555
O64 Ti32 1.945723 1_555
O64 Sr2 2.621829 1_555
O64 Sr6 2.660981 1_555
O64 Sr18 3.015215 1_455
O64 Sr14 3.142520 1_555
O65 Ti20 1.945534 1_555
O65 Ti33 1.945723 1_555
O65 Sr3 2.621829 1_555
O65 Sr7 2.660981 1_555
O65 Sr19 3.015215 1_455
O65 Sr15 3.142520 1_555
O66 Ti23 1.945534 1_555
O66 Ti34 1.945723 1_555
O66 Sr4 2.621829 1_555
O66 Sr8 2.660981 1_555
O66 Sr20 3.015215 1_655
O66 Sr16 3.142520 1_555
O67 Ti22 1.945534 1_555
O67 Ti35 1.945723 1_555
O67 Sr5 2.621829 1_555
O67 Sr9 2.660981 1_555
O67 Sr21 3.015215 1_655
O67 Sr17 3.142520 1_555
O68 Ti21 1.905934 1_655
O68 Ti32 2.001159 1_555
O68 Sr18 2.618063 1_555
O68 Sr14 2.620759 1_655
O68 Sr2 2.980874 1_555
O68 Sr6 3.268224 1_555
O69 Ti20 1.905934 1_655
O69 Ti33 2.001159 1_555
O69 Sr19 2.618063 1_555
O69 Sr15 2.620759 1_655
O69 Sr3 2.980874 1_555
O69 Sr7 3.268224 1_555
O70 Ti23 1.905934 1_455
O70 Ti34 2.001159 1_555
O70 Sr20 2.618063 1_555
O70 Sr16 2.620759 1_455
O70 Sr4 2.980874 1_555
O70 Sr8 3.268224 1_555
O71 Ti22 1.905934 1_455
O71 Ti35 2.001159 1_555
O71 Sr21 2.618063 1_555
O71 Sr17 2.620759 1_455
O71 Sr5 2.980874 1_555
O71 Sr9 3.268224 1_555
O72 Ti36 1.921002 1_555
O72 Ti24 1.965111 1_555
O72 Sr6 2.647783 1_555
O72 Sr10 2.677833 1_555
O72 Sr22 3.071345 1_455
O72 Sr18 3.087595 1_455
O73 Ti37 1.921002 1_555
O73 Ti25 1.965111 1_555
O73 Sr7 2.647783 1_555
O73 Sr10 2.677833 1_555
O73 Sr22 3.071345 1_455
O73 Sr19 3.087595 1_455
O74 Ti38 1.921002 1_555
O74 Ti26 1.965111 1_555
O74 Sr8 2.647783 1_555
O74 Sr11 2.677833 1_555
O74 Sr23 3.071345 1_655
O74 Sr20 3.087595 1_655
O75 Ti39 1.921002 1_555
O75 Ti27 1.965111 1_555
O75 Sr9 2.647783 1_555
O75 Sr11 2.677833 1_555
O75 Sr23 3.071345 1_655
O75 Sr21 3.087595 1_655
O76 Ti24 1.894598 1_655
O76 Ti36 1.964284 1_555
O76 Sr22 2.597542 1_555
O76 Sr18 2.620760 1_555
O76 Sr6 3.191032 1_555
O76 Sr10 3.219005 1_555
O77 Ti25 1.894598 1_655
O77 Ti37 1.964284 1_555
O77 Sr22 2.597542 1_555
O77 Sr19 2.620760 1_555
O77 Sr7 3.191032 1_555
O77 Sr10 3.219005 1_555
O78 Ti26 1.894598 1_455
O78 Ti38 1.964284 1_555
O78 Sr23 2.597542 1_555
O78 Sr20 2.620760 1_555
O78 Sr8 3.191032 1_555
O78 Sr11 3.219005 1_555
O79 Ti27 1.894598 1_455
O79 Ti39 1.964284 1_555
O79 Sr23 2.597542 1_555
O79 Sr21 2.620760 1_555
O79 Sr9 3.191032 1_555
O79 Sr11 3.219005 1_555
O80 Ti28 1.947610 1_545
O80 Ti29 1.947610 1_555
O80 Sr12 2.728301 1_655
O80 Sr24 2.809256 1_555
O80 Sr12 2.913043 1_555
O80 Sr0 2.917613 1_555
O81 Ti31 1.947610 1_545
O81 Ti30 1.947610 1_555
O81 Sr13 2.728301 1_555
O81 Sr24 2.809256 1_556
O81 Sr13 2.913043 1_655
O81 Sr1 2.917613 1_555
O82 Ti28 1.916122 1_555
O82 Ti32 2.021363 1_555
O82 Sr14 2.798999 1_555
O82 Sr2 2.814819 1_555
O82 Sr14 2.846304 1_655
O82 Sr25 2.878466 1_555
O83 Ti29 1.916122 1_555
O83 Ti33 2.021363 1_555
O83 Sr15 2.798999 1_555
O83 Sr3 2.814819 1_555
O83 Sr15 2.846304 1_655
O83 Sr26 2.878466 1_555
O84 Ti30 1.916122 1_555
O84 Ti34 2.021363 1_555
O84 Sr16 2.798999 1_555
O84 Sr4 2.814819 1_555
O84 Sr16 2.846304 1_455
O84 Sr26 2.878466 1_556
O85 Ti31 1.916122 1_555
O85 Ti35 2.021363 1_555
O85 Sr17 2.798999 1_555
O85 Sr5 2.814819 1_555
O85 Sr17 2.846304 1_455
O85 Sr25 2.878466 1_556
O86 Ti32 1.908385 1_555
O86 Ti36 1.983588 1_555
O86 Sr27 2.680140 1_555
O86 Sr18 2.768357 1_555
O86 Sr18 2.872800 1_455
O86 Sr6 3.196994 1_555
O87 Ti33 1.908385 1_555
O87 Ti37 1.983588 1_555
O87 Sr28 2.680140 1_555
O87 Sr19 2.768357 1_555
O87 Sr19 2.872800 1_455
O87 Sr7 3.196994 1_555
O88 Ti34 1.908385 1_555
O88 Ti38 1.983588 1_555
O88 Sr28 2.680140 1_556
O88 Sr20 2.768357 1_555
O88 Sr20 2.872800 1_655
O88 Sr8 3.196994 1_555
O89 Ti35 1.908385 1_555
O89 Ti39 1.983588 1_555
O89 Sr27 2.680140 1_556
O89 Sr21 2.768357 1_555
O89 Sr21 2.872800 1_655
O89 Sr9 3.196994 1_555
O90 Ti37 1.939887 1_555
O90 Ti36 1.939887 1_555
O90 Sr29 2.668173 1_555
O90 Sr22 2.790145 1_555
O90 Sr22 2.850922 1_455
O90 Sr10 3.202397 1_555
O91 Ti38 1.939887 1_555
O91 Ti39 1.939887 1_555
O91 Sr29 2.668173 1_556
O91 Sr23 2.790145 1_555
O91 Sr23 2.850922 1_655
O91 Sr11 3.202397 1_555
O92 Ti28 1.979555 1_555
O92 Ti40 2.003837 1_555
O92 Sr24 2.724690 1_565
O92 Sr25 2.730711 1_555
O92 Sr14 2.794908 1_555
O92 Sr12 2.841620 1_565
O93 Ti29 1.979555 1_555
O93 Ti41 2.003837 1_555
O93 Sr24 2.724690 1_555
O93 Sr26 2.730711 1_555
O93 Sr15 2.794908 1_555
O93 Sr12 2.841620 1_555
O94 Ti30 1.979555 1_555
O94 Ti41 2.003837 1_656
O94 Sr24 2.724690 1_556
O94 Sr26 2.730711 1_556
O94 Sr16 2.794908 1_555
O94 Sr13 2.841620 1_655
O95 Ti31 1.979555 1_555
O95 Ti40 2.003837 1_656
O95 Sr24 2.724690 1_566
O95 Sr25 2.730711 1_556
O95 Sr17 2.794908 1_555
O95 Sr13 2.841620 1_665
O96 Ti40 2.008080 1_655
O96 Ti28 2.023700 1_555
O96 Sr14 2.648137 1_655
O96 Sr12 2.726270 1_665
O96 Sr25 2.818582 1_555
O96 Sr24 2.855562 1_565
O97 Ti41 2.008080 1_655
O97 Ti29 2.023700 1_555
O97 Sr15 2.648137 1_655
O97 Sr12 2.726270 1_655
O97 Sr26 2.818582 1_555
O97 Sr24 2.855562 1_555
O98 Ti41 2.008080 1_556
O98 Ti30 2.023700 1_555
O98 Sr16 2.648137 1_455
O98 Sr13 2.726270 1_555
O98 Sr26 2.818582 1_556
O98 Sr24 2.855562 1_556
O99 Ti40 2.008080 1_556
O99 Ti31 2.023700 1_555
O99 Sr17 2.648137 1_455
O99 Sr13 2.726270 1_565
O99 Sr25 2.818582 1_556
O99 Sr24 2.855562 1_566
O100 Ti32 1.976949 1_555
O100 Ti42 2.001305 1_555
O100 Sr14 2.630402 1_555
O100 Sr18 2.649827 1_455
O100 Sr25 2.925253 1_555
O100 Sr27 2.973638 1_555
O101 Ti33 1.976949 1_555
O101 Ti43 2.001305 1_555
O101 Sr15 2.630402 1_555
O101 Sr19 2.649827 1_455
O101 Sr26 2.925253 1_555
O101 Sr28 2.973638 1_555
O102 Ti34 1.976949 1_555
O102 Ti43 2.001305 1_656
O102 Sr16 2.630402 1_555
O102 Sr20 2.649827 1_655
O102 Sr26 2.925253 1_556
O102 Sr28 2.973638 1_556
O103 Ti35 1.976949 1_555
O103 Ti42 2.001305 1_656
O103 Sr17 2.630402 1_555
O103 Sr21 2.649827 1_655
O103 Sr25 2.925253 1_556
O103 Sr27 2.973638 1_556
O104 Ti42 1.986453 1_655
O104 Ti32 2.004193 1_555
O104 Sr25 2.614653 1_555
O104 Sr27 2.685871 1_555
O104 Sr14 2.906057 1_655
O104 Sr18 2.915715 1_555
O105 Ti43 1.986453 1_655
O105 Ti33 2.004193 1_555
O105 Sr26 2.614653 1_555
O105 Sr28 2.685871 1_555
O105 Sr15 2.906057 1_655
O105 Sr19 2.915715 1_555
O106 Ti43 1.986453 1_556
O106 Ti34 2.004193 1_555
O106 Sr26 2.614653 1_556
O106 Sr28 2.685871 1_556
O106 Sr16 2.906057 1_455
O106 Sr20 2.915715 1_555
O107 Ti42 1.986453 1_556
O107 Ti35 2.004193 1_555
O107 Sr25 2.614653 1_556
O107 Sr27 2.685871 1_556
O107 Sr17 2.906057 1_455
O107 Sr21 2.915715 1_555
O108 Ti36 1.983188 1_555
O108 Ti44 1.983843 1_555
O108 Sr18 2.615310 1_455
O108 Sr22 2.628431 1_455
O108 Sr27 2.919066 1_555
O108 Sr29 2.940151 1_555
O109 Ti37 1.983188 1_555
O109 Ti45 1.983843 1_555
O109 Sr19 2.615310 1_455
O109 Sr22 2.628431 1_455
O109 Sr28 2.919066 1_555
O109 Sr29 2.940151 1_555
O110 Ti38 1.983188 1_555
O110 Ti45 1.983843 1_656
O110 Sr20 2.615310 1_655
O110 Sr23 2.628431 1_655
O110 Sr28 2.919066 1_556
O110 Sr29 2.940151 1_556
O111 Ti39 1.983188 1_555
O111 Ti44 1.983843 1_656
O111 Sr21 2.615310 1_655
O111 Sr23 2.628431 1_655
O111 Sr27 2.919066 1_556
O111 Sr29 2.940151 1_556
O112 Ti44 1.960284 1_655
O112 Ti36 2.021579 1_555
O112 Sr27 2.635737 1_555
O112 Sr29 2.650286 1_555
O112 Sr18 2.869097 1_555
O112 Sr22 2.871142 1_555
O113 Ti45 1.960284 1_655
O113 Ti37 2.021579 1_555
O113 Sr28 2.635737 1_555
O113 Sr29 2.650286 1_555
O113 Sr19 2.869097 1_555
O113 Sr22 2.871142 1_555
O114 Ti45 1.960284 1_556
O114 Ti38 2.021579 1_555
O114 Sr28 2.635737 1_556
O114 Sr29 2.650286 1_556
O114 Sr20 2.869097 1_555
O114 Sr23 2.871142 1_555
O115 Ti44 1.960284 1_556
O115 Ti39 2.021579 1_555
O115 Sr27 2.635737 1_556
O115 Sr29 2.650286 1_556
O115 Sr21 2.869097 1_555
O115 Sr23 2.871142 1_555
O116 Ti41 1.934218 1_555
O116 Ti40 1.934218 1_545
O116 Sr24 2.820486 1_455
O116 Sr24 2.820486 1_555
O116 Sr13 2.841040 1_554
O116 Sr12 2.841040 1_555
O117 Ti40 1.924216 1_555
O117 Ti42 1.953617 1_555
O117 Sr14 2.769841 1_555
O117 Sr17 2.769841 1_454
O117 Sr25 2.820490 1_555
O117 Sr25 2.820490 1_455
O118 Ti41 1.924216 1_555
O118 Ti43 1.953617 1_555
O118 Sr15 2.769841 1_555
O118 Sr16 2.769841 1_454
O118 Sr26 2.820490 1_555
O118 Sr26 2.820490 1_455
O119 Ti42 1.939799 1_555
O119 Ti44 1.993242 1_555
O119 Sr21 2.703170 1_554
O119 Sr18 2.703170 1_455
O119 Sr27 2.820762 1_455
O119 Sr27 2.820762 1_555
O120 Ti43 1.939799 1_555
O120 Ti45 1.993242 1_555
O120 Sr20 2.703170 1_554
O120 Sr19 2.703170 1_455
O120 Sr28 2.820762 1_555
O120 Sr28 2.820762 1_455
O121 Ti44 1.958202 1_555
O121 Ti45 1.958202 1_555
O121 Sr22 2.684779 1_455
O121 Sr23 2.684779 1_554
O121 Sr29 2.820486 1_455
O121 Sr29 2.820486 1_555
