# generated using pymatgen
data_Li4V3P8O29
_symmetry_space_group_name_H-M   'P 1'
_cell_length_a   9.72816700
_cell_length_b   9.75932719
_cell_length_c   14.29341155
_cell_angle_alpha   90.95847869
_cell_angle_beta   90.11360223
_cell_angle_gamma   119.71860011
_symmetry_Int_Tables_number   1
_chemical_formula_structural   Li4V3P8O29
_chemical_formula_sum   'Li8 V6 P16 O58'
_cell_volume   1178.28608683
_cell_formula_units_Z   2
loop_
 _symmetry_equiv_pos_site_id
 _symmetry_equiv_pos_as_xyz
  1  'x, y, z'
loop_
 _atom_site_type_symbol
 _atom_site_label
 _atom_site_symmetry_multiplicity
 _atom_site_fract_x
 _atom_site_fract_y
 _atom_site_fract_z
 _atom_site_occupancy
  Li  Li0  1  0.68398100  0.91154900  0.55393500  1
  Li  Li1  1  0.09460800  0.32961800  0.06663100  1
  Li  Li2  1  0.76861200  0.66998400  0.43535000  1
  Li  Li3  1  0.24099400  0.34316000  0.55888700  1
  Li  Li4  1  0.89958500  0.66272200  0.94018800  1
  Li  Li5  1  0.76897800  0.08559400  0.94619600  1
  Li  Li6  1  0.04652700  0.98330400  0.01767100  1
  Li  Li7  1  0.06602500  0.02133400  0.48294800  1
  V  V0  1  0.56212500  0.56385900  0.24436000  1
  V  V1  1  0.43461700  0.43151700  0.75953500  1
  V  V2  1  0.00261400  0.56825600  0.74230100  1
  V  V3  1  0.99732800  0.43471100  0.25359800  1
  V  V4  1  0.43288800  0.00083200  0.25205200  1
  V  V5  1  0.55950900  0.00053400  0.74752000  1
  P  P0  1  0.21920500  0.91589600  0.84149300  1
  P  P1  1  0.08286800  0.78598900  0.33531900  1
  P  P2  1  0.69061900  0.91383300  0.34009700  1
  P  P3  1  0.32996600  0.66484400  0.13267200  1
  P  P4  1  0.33418600  0.65716800  0.63446800  1
  P  P5  1  0.69733700  0.78249400  0.83573800  1
  P  P6  1  0.76364500  0.67631800  0.65457900  1
  P  P7  1  0.08616400  0.32034100  0.84534900  1
  P  P8  1  0.90996400  0.68226900  0.15433400  1
  P  P9  1  0.22937600  0.31958700  0.34592900  1
  P  P10  1  0.29859300  0.21314800  0.16577300  1
  P  P11  1  0.66585400  0.33665600  0.36605600  1
  P  P12  1  0.67814100  0.34136300  0.86696800  1
  P  P13  1  0.30107700  0.08360800  0.65976400  1
  P  P14  1  0.91683000  0.21758500  0.66302700  1
  P  P15  1  0.77395700  0.08482600  0.15963600  1
  O  O0  1  0.21112600  0.00703000  0.57297300  1
  O  O1  1  0.25797100  0.92074700  0.33268600  1
  O  O2  1  0.97485400  0.75996000  0.06294800  1
  O  O3  1  0.07871600  0.74045800  0.83001300  1
  O  O4  1  0.37725000  0.91891800  0.82911900  1
  O  O5  1  0.33252800  0.81221800  0.17986700  1
  O  O6  1  0.53348600  0.91582000  0.32702200  1
  O  O7  1  0.77704200  0.00566800  0.06969900  1
  O  O8  1  0.66004800  0.91943900  0.83577400  1
  O  O9  1  0.18754200  0.66702900  0.67557600  1
  O  O10  1  0.07302800  0.62542300  0.33295800  1
  O  O11  1  0.48666500  0.81001000  0.66796100  1
  O  O12  1  0.33932700  0.66557600  0.02909700  1
  O  O13  1  0.32468800  0.62880800  0.53145800  1
  O  O14  1  0.48003200  0.66522700  0.17981900  1
  O  O15  1  0.09014100  0.47693700  0.82457200  1
  O  O16  1  0.18480000  0.51246900  0.16940700  1
  O  O17  1  0.65969800  0.74075200  0.33438600  1
  O  O18  1  0.78639700  0.79954900  0.73735300  1
  O  O19  1  0.75737900  0.74884000  0.56403600  1
  O  O20  1  0.80263600  0.79334100  0.91430300  1
  O  O21  1  0.53915700  0.62183700  0.82781600  1
  O  O22  1  0.32779600  0.51145700  0.68474300  1
  O  O23  1  0.73684500  0.64952500  0.16655600  1
  O  O24  1  0.38680900  0.47162700  0.32829200  1
  O  O25  1  0.09132000  0.35317600  0.33318200  1
  O  O26  1  0.00882600  0.80505300  0.23711100  1
  O  O27  1  0.99501100  0.81408500  0.41288100  1
  O  O28  1  0.01528000  0.20996900  0.58575800  1
  O  O29  1  0.90895200  0.65144600  0.66143400  1
  O  O30  1  0.61127600  0.52120700  0.67638300  1
  O  O31  1  0.25668900  0.34524300  0.83835600  1
  O  O32  1  0.66723500  0.48499000  0.32079100  1
  O  O33  1  0.45345900  0.37587200  0.17144800  1
  O  O34  1  0.18920500  0.19472200  0.08654500  1
  O  O35  1  0.22053900  0.24291400  0.43721600  1
  O  O36  1  0.20818400  0.19634300  0.26311700  1
  O  O37  1  0.33988600  0.25909600  0.66909600  1
  O  O38  1  0.81657200  0.48856000  0.81734400  1
  O  O39  1  0.91346700  0.52902900  0.17000500  1
  O  O40  1  0.52171600  0.33399200  0.82551500  1
  O  O41  1  0.69476800  0.36868300  0.97006600  1
  O  O42  1  0.66332300  0.35109900  0.46969700  1
  O  O43  1  0.51478700  0.18669000  0.32243700  1
  O  O44  1  0.91835700  0.37798100  0.67257400  1
  O  O45  1  0.80560200  0.32586000  0.32270500  1
  O  O46  1  0.33965700  0.07979700  0.16554000  1
  O  O47  1  0.19813800  0.00075800  0.75024600  1
  O  O48  1  0.19578100  0.98940800  0.92679500  1
  O  O49  1  0.46023500  0.08093200  0.67349600  1
  O  O50  1  0.67718300  0.19046300  0.83089800  1
  O  O51  1  0.61651100  0.08461300  0.17642100  1
  O  O52  1  0.91712400  0.25462300  0.16389600  1
  O  O53  1  0.00800900  0.24806700  0.93593800  1
  O  O54  1  0.98659200  0.19792600  0.76237100  1
  O  O55  1  0.74430600  0.07952900  0.65989900  1
  O  O56  1  0.77477000  0.98832700  0.43028600  1
  O  O57  1  0.79662700  0.99776200  0.24973600  1
loop_
_geom_bond_atom_site_label_1
_geom_bond_atom_site_label_2
_geom_bond_distance
_geom_bond_site_symmetry_2
Li0 O56 1.964545 1_555
Li0 O19 2.045393 1_555
Li0 O55 2.070131 1_565
Li0 O11 2.345924 1_555
Li1 O34 1.968181 1_555
Li1 O53 2.027806 1_554
Li1 O52 2.059181 1_455
Li1 O16 2.113552 1_555
Li2 O27 1.969420 1_555
Li2 O19 2.006058 1_555
Li2 O17 2.105947 1_555
Li2 O32 2.245593 1_555
Li3 O35 1.941614 1_555
Li3 O28 1.961827 1_555
Li3 O37 2.213551 1_555
Li3 O22 2.273067 1_555
Li3 O13 2.524973 1_555
Li4 O2 1.940565 1_556
Li4 O20 1.964131 1_555
Li4 O3 2.198240 1_655
Li4 O38 2.271079 1_555
Li4 O41 2.600485 1_555
Li5 O7 1.958824 1_556
Li5 O53 2.072755 1_655
Li5 O8 2.108906 1_545
Li5 O50 2.348947 1_555
Li6 O48 1.929581 1_554
Li6 O2 2.048941 1_455
Li6 O34 2.059134 1_565
Li7 O0 1.965184 1_555
Li7 O27 2.028621 1_445
Li7 O35 2.047284 1_555
O0 P13 1.476303 1_555
O1 P1 1.553524 1_555
O1 V4 1.885208 1_565
O2 P8 1.497141 1_555
O3 P0 1.579847 1_555
O3 V2 1.906946 1_555
O4 P0 1.533726 1_555
O4 V5 1.943580 1_565
O5 P3 1.567237 1_555
O5 V4 1.885925 1_565
O6 P2 1.549306 1_555
O6 V4 1.903927 1_565
O7 P15 1.496711 1_555
O8 P5 1.548697 1_555
O8 V5 1.992538 1_565
O9 P4 1.589710 1_555
O9 V2 1.842122 1_555
O10 P1 1.521622 1_555
O10 V3 1.964750 1_455
O11 P4 1.560127 1_555
O11 V5 1.967815 1_565
O12 P3 1.483338 1_555
O13 P4 1.487773 1_555
O14 P3 1.604980 1_555
O14 V0 1.810644 1_555
O15 P7 1.543344 1_555
O15 V2 1.919783 1_555
O16 P3 1.558302 1_555
O16 V3 2.004282 1_455
O17 P2 1.562658 1_555
O17 V0 1.957863 1_555
O18 P6 1.607040 1_555
O18 P5 1.620364 1_555
O19 P6 1.500875 1_555
O20 P5 1.485100 1_555
O21 P5 1.562141 1_555
O21 V1 1.870629 1_555
O22 P4 1.577711 1_555
O22 V1 1.912766 1_555
O23 P8 1.561528 1_555
O23 V0 1.858596 1_555
O24 P9 1.540044 1_555
O24 V0 1.918421 1_555
O25 P9 1.543347 1_555
O25 V3 1.873705 1_455
O26 P8 1.601923 1_455
O26 P1 1.631406 1_555
O27 P1 1.503553 1_655
O28 P14 1.488152 1_455
O29 P6 1.551498 1_555
O29 V2 1.893687 1_655
O30 P6 1.542297 1_555
O30 V1 1.919291 1_555
O31 P7 1.556514 1_555
O31 V1 1.889115 1_555
O32 P11 1.589505 1_555
O32 V0 1.906706 1_555
O33 P10 1.556068 1_555
O33 V0 1.891619 1_555
O34 P10 1.498611 1_555
O35 P9 1.496378 1_555
O36 P9 1.611147 1_555
O36 P10 1.614263 1_555
O37 P13 1.563507 1_555
O37 V1 1.933084 1_555
O38 P12 1.581170 1_555
O38 V2 1.915970 1_655
O39 P8 1.532846 1_555
O39 V3 1.928192 1_555
O40 P12 1.599487 1_555
O40 V1 1.827476 1_555
O41 P12 1.487268 1_555
O42 P11 1.487135 1_555
O43 P11 1.588638 1_555
O43 V4 1.854692 1_555
O44 P14 1.561722 1_555
O44 V2 1.881263 1_655
O45 P11 1.544811 1_555
O45 V3 1.913345 1_555
O46 P10 1.539024 1_555
O46 V4 1.914673 1_555
O47 P13 1.602037 1_555
O47 P0 1.622434 1_545
O48 P0 1.478899 1_555
O49 P13 1.573387 1_555
O49 V5 1.855488 1_555
O50 P12 1.547791 1_555
O50 V5 1.995838 1_555
O51 P15 1.549795 1_555
O51 V4 1.901888 1_555
O52 P15 1.548378 1_555
O52 V3 1.975510 1_555
O53 P7 1.501632 1_555
O54 P7 1.604031 1_655
O54 P14 1.627290 1_555
O55 P14 1.545899 1_555
O55 V5 2.015393 1_555
O56 P2 1.494953 1_555
O57 P2 1.614228 1_555
O57 P15 1.628005 1_565
