# generated using pymatgen
data_CeNi4B
_symmetry_space_group_name_H-M   'P 1'
_cell_length_a   4.95054862
_cell_length_b   4.95055521
_cell_length_c   6.97803978
_cell_angle_alpha   90.00000000
_cell_angle_beta   90.00000000
_cell_angle_gamma   120.00005443
_symmetry_Int_Tables_number   1
_chemical_formula_structural   CeNi4B
_chemical_formula_sum   'Ce2 Ni8 B2'
_cell_volume   148.10546105
_cell_formula_units_Z   2
loop_
 _symmetry_equiv_pos_site_id
 _symmetry_equiv_pos_as_xyz
  1  'x, y, z'
loop_
 _atom_site_type_symbol
 _atom_site_label
 _atom_site_symmetry_multiplicity
 _atom_site_fract_x
 _atom_site_fract_y
 _atom_site_fract_z
 _atom_site_occupancy
  Ce  Ce0  1  -0.00000000  -0.00000000  0.00000000  1
  Ce  Ce1  1  -0.00000000  -0.00000000  0.50000000  1
  Ni  Ni0  1  0.66666800  0.33333400  0.00000000  1
  Ni  Ni1  1  0.33333200  0.66666600  0.00000000  1
  Ni  Ni2  1  0.50000000  0.50000000  0.70900570  1
  Ni  Ni3  1  0.50000000  -0.00000000  0.70900470  1
  Ni  Ni4  1  -0.00000000  0.50000000  0.70900570  1
  Ni  Ni5  1  0.50000000  0.50000000  0.29099430  1
  Ni  Ni6  1  0.50000000  0.00000000  0.29099530  1
  Ni  Ni7  1  0.00000000  0.50000000  0.29099430  1
  B  B0  1  0.66666500  0.33333200  0.50000000  1
  B  B1  1  0.33333500  0.66666800  0.50000000  1
loop_
_geom_bond_atom_site_label_1
_geom_bond_atom_site_label_2
_geom_bond_distance
_geom_bond_site_symmetry_2
Ce0 Ni1 2.858200 1_555
Ce0 Ni0 2.858200 1_445
Ce0 Ni0 2.858200 1_455
Ce0 Ni1 2.858200 1_545
Ce0 Ni0 2.858205 1_555
Ce0 Ni1 2.858205 1_445
Ce1 Ni6 2.872984 1_455
Ce1 Ni6 2.872984 1_555
Ce1 Ni3 2.872984 1_555
Ce1 Ni3 2.872984 1_455
Ce1 Ni2 2.872988 1_555
Ce1 Ni2 2.872988 1_445
Ce1 Ni5 2.872988 1_445
Ce1 Ni5 2.872988 1_555
Ce1 Ni4 2.872991 1_545
Ce1 Ni4 2.872991 1_555
Ce1 Ni7 2.872991 1_545
Ce1 Ni7 2.872991 1_555
Ni0 Ni7 2.483047 1_655
Ni0 Ni4 2.483047 1_654
Ni0 Ni5 2.483053 1_555
Ni0 Ni2 2.483053 1_554
Ni0 Ni3 2.483059 1_554
Ni0 Ni6 2.483059 1_555
Ni0 Ni1 2.858188 1_655
Ni0 Ni1 2.858209 1_545
Ni0 Ni1 2.858209 1_555
Ni1 Ni7 2.483047 1_555
Ni1 Ni4 2.483047 1_554
Ni1 Ni5 2.483053 1_555
Ni1 Ni2 2.483053 1_554
Ni1 Ni3 2.483059 1_564
Ni1 Ni6 2.483059 1_565
B0 Ni6 2.041904 1_555
B0 Ni3 2.041904 1_555
B0 Ni2 2.041912 1_555
B0 Ni5 2.041912 1_555
B0 Ni7 2.041916 1_655
B0 Ni4 2.041916 1_655
B0 Ce1 2.858192 1_555
B0 Ce1 2.858205 1_655
B0 Ce1 2.858209 1_665
B1 Ni6 2.041904 1_565
B1 Ni3 2.041904 1_565
B1 Ni5 2.041912 1_555
B1 Ni2 2.041912 1_555
B1 Ni4 2.041916 1_555
B1 Ni7 2.041916 1_555
B1 Ce1 2.858192 1_665
B1 Ce1 2.858205 1_565
B1 Ce1 2.858209 1_555
