# generated using pymatgen
data_V2S3(NO6)2
_symmetry_space_group_name_H-M   'P 1'
_cell_length_a   9.93237100
_cell_length_b   9.93237100
_cell_length_c   9.93237100
_cell_angle_alpha   90.00000000
_cell_angle_beta   90.00000000
_cell_angle_gamma   90.00000000
_symmetry_Int_Tables_number   1
_chemical_formula_structural   V2S3(NO6)2
_chemical_formula_sum   'V8 S12 N8 O48'
_cell_volume   979.84820114
_cell_formula_units_Z   4
loop_
 _symmetry_equiv_pos_site_id
 _symmetry_equiv_pos_as_xyz
  1  'x, y, z'
loop_
 _atom_site_type_symbol
 _atom_site_label
 _atom_site_symmetry_multiplicity
 _atom_site_fract_x
 _atom_site_fract_y
 _atom_site_fract_z
 _atom_site_occupancy
  V  V0  1  0.33569700  0.33569700  0.33569700  1
  V  V1  1  0.16430300  0.66430300  0.83569700  1
  V  V2  1  0.66430300  0.83569700  0.16430300  1
  V  V3  1  0.83569700  0.16430300  0.66430300  1
  V  V4  1  0.60320500  0.60320500  0.60320500  1
  V  V5  1  0.89679500  0.39679500  0.10320500  1
  V  V6  1  0.39679500  0.10320500  0.89679500  1
  V  V7  1  0.10320500  0.89679500  0.39679500  1
  S  S0  1  0.01846600  0.21164000  0.37594700  1
  S  S1  1  0.48153400  0.78836000  0.87594700  1
  S  S2  1  0.98153400  0.71164000  0.12405300  1
  S  S3  1  0.37594700  0.01846600  0.21164000  1
  S  S4  1  0.51846600  0.28836000  0.62405300  1
  S  S5  1  0.87594700  0.48153400  0.78836000  1
  S  S6  1  0.12405300  0.98153400  0.71164000  1
  S  S7  1  0.62405300  0.51846600  0.28836000  1
  S  S8  1  0.21164000  0.37594700  0.01846600  1
  S  S9  1  0.71164000  0.12405300  0.98153400  1
  S  S10  1  0.28836000  0.62405300  0.51846600  1
  S  S11  1  0.78836000  0.87594700  0.48153400  1
  N  N0  1  0.04529300  0.04529300  0.04529300  1
  N  N1  1  0.45470700  0.95470700  0.54529300  1
  N  N2  1  0.95470700  0.54529300  0.45470700  1
  N  N3  1  0.54529300  0.45470700  0.95470700  1
  N  N4  1  0.81701400  0.81701400  0.81701400  1
  N  N5  1  0.68298600  0.18298600  0.31701400  1
  N  N6  1  0.18298600  0.31701400  0.68298600  1
  N  N7  1  0.31701400  0.68298600  0.18298600  1
  O  O0  1  0.00640700  0.06749800  0.33451300  1
  O  O1  1  0.49359300  0.93250200  0.83451300  1
  O  O2  1  0.99359300  0.56749800  0.16548700  1
  O  O3  1  0.33451300  0.00640700  0.06749800  1
  O  O4  1  0.50640700  0.43250200  0.66548700  1
  O  O5  1  0.83451300  0.49359300  0.93250200  1
  O  O6  1  0.16548700  0.99359300  0.56749800  1
  O  O7  1  0.66548700  0.50640700  0.43250200  1
  O  O8  1  0.06749800  0.33451300  0.00640700  1
  O  O9  1  0.56749800  0.16548700  0.99359300  1
  O  O10  1  0.43250200  0.66548700  0.50640700  1
  O  O11  1  0.93250200  0.83451300  0.49359300  1
  O  O12  1  0.26731600  0.49770300  0.44271600  1
  O  O13  1  0.23268400  0.50229700  0.94271600  1
  O  O14  1  0.73268400  0.99770300  0.05728400  1
  O  O15  1  0.44271600  0.26731600  0.49770300  1
  O  O16  1  0.76731600  0.00229700  0.55728400  1
  O  O17  1  0.94271600  0.23268400  0.50229700  1
  O  O18  1  0.05728400  0.73268400  0.99770300  1
  O  O19  1  0.55728400  0.76731600  0.00229700  1
  O  O20  1  0.49770300  0.44271600  0.26731600  1
  O  O21  1  0.99770300  0.05728400  0.73268400  1
  O  O22  1  0.00229700  0.55728400  0.76731600  1
  O  O23  1  0.50229700  0.94271600  0.23268400  1
  O  O24  1  0.03994100  0.79898300  0.22836000  1
  O  O25  1  0.46005900  0.20101700  0.72836000  1
  O  O26  1  0.96005900  0.29898300  0.27164000  1
  O  O27  1  0.22836000  0.03994100  0.79898300  1
  O  O28  1  0.53994100  0.70101700  0.77164000  1
  O  O29  1  0.72836000  0.46005900  0.20101700  1
  O  O30  1  0.27164000  0.96005900  0.29898300  1
  O  O31  1  0.77164000  0.53994100  0.70101700  1
  O  O32  1  0.79898300  0.22836000  0.03994100  1
  O  O33  1  0.29898300  0.27164000  0.96005900  1
  O  O34  1  0.70101700  0.77164000  0.53994100  1
  O  O35  1  0.20101700  0.72836000  0.46005900  1
  O  O36  1  0.16232800  0.24444700  0.39736300  1
  O  O37  1  0.33767200  0.75555300  0.89736300  1
  O  O38  1  0.83767200  0.74444700  0.10263700  1
  O  O39  1  0.39736300  0.16232800  0.24444700  1
  O  O40  1  0.66232800  0.25555300  0.60263700  1
  O  O41  1  0.89736300  0.33767200  0.75555300  1
  O  O42  1  0.10263700  0.83767200  0.74444700  1
  O  O43  1  0.60263700  0.66232800  0.25555300  1
  O  O44  1  0.24444700  0.39736300  0.16232800  1
  O  O45  1  0.74444700  0.10263700  0.83767200  1
  O  O46  1  0.25555300  0.60263700  0.66232800  1
  O  O47  1  0.75555300  0.89736300  0.33767200  1
loop_
_geom_bond_atom_site_label_1
_geom_bond_atom_site_label_2
_geom_bond_distance
_geom_bond_site_symmetry_2
O0 S0 1.494454 1_555
O0 V7 2.044921 1_545
O1 S1 1.494454 1_555
O1 V6 2.044921 1_565
O2 S2 1.494454 1_555
O2 V5 2.044921 1_555
O3 S3 1.494454 1_555
O3 V6 2.044921 1_554
O4 S4 1.494454 1_555
O4 V4 2.044921 1_555
O5 S5 1.494454 1_555
O5 V5 2.044921 1_556
O6 S6 1.494454 1_555
O6 V7 2.044921 1_555
O7 S7 1.494454 1_555
O7 V4 2.044921 1_555
O8 S8 1.494454 1_555
O8 V5 2.044921 1_455
O9 S9 1.494454 1_555
O9 V6 2.044921 1_555
O10 S10 1.494454 1_555
O10 V4 2.044921 1_555
O11 S11 1.494454 1_555
O11 V7 2.044921 1_655
O12 S10 1.478063 1_555
O12 V0 2.044597 1_555
O13 S8 1.478063 1_556
O13 V1 2.044597 1_555
O14 S9 1.478063 1_564
O14 V2 2.044597 1_555
O15 S4 1.478063 1_555
O15 V0 2.044597 1_555
O16 S11 1.478063 1_545
O16 V3 2.044597 1_555
O17 S0 1.478063 1_655
O17 V3 2.044597 1_555
O18 S2 1.478063 1_456
O18 V1 2.044597 1_555
O19 S1 1.478063 1_554
O19 V2 2.044597 1_555
O20 S7 1.478063 1_555
O20 V0 2.044597 1_555
O21 S6 1.478063 1_645
O21 V3 2.044597 1_555
O22 S5 1.478063 1_455
O22 V1 2.044597 1_555
O23 S3 1.478063 1_565
O23 V2 2.044597 1_555
O24 S2 1.470532 1_455
O24 V7 2.034073 1_555
O25 S4 1.470532 1_555
O25 V6 2.034073 1_555
O26 S0 1.470532 1_655
O26 V5 2.034073 1_555
O27 S6 1.470532 1_545
O27 V6 2.034073 1_555
O28 S1 1.470532 1_555
O28 V4 2.034073 1_555
O29 S7 1.470532 1_555
O29 V5 2.034073 1_555
O30 S3 1.470532 1_565
O30 V7 2.034073 1_555
O31 S5 1.470532 1_555
O31 V4 2.034073 1_555
O32 S9 1.470532 1_554
O32 V5 2.034073 1_555
O33 S8 1.470532 1_556
O33 V6 2.034073 1_555
O34 S11 1.470532 1_555
O34 V4 2.034073 1_555
O35 S10 1.470532 1_555
O35 V7 2.034073 1_555
O36 S0 1.480930 1_555
O36 V0 2.040034 1_555
O37 S1 1.480930 1_555
O37 V1 2.040034 1_555
O38 S2 1.480930 1_555
O38 V2 2.040034 1_555
O39 S3 1.480930 1_555
O39 V0 2.040034 1_555
O40 S4 1.480930 1_555
O40 V3 2.040034 1_555
O41 S5 1.480930 1_555
O41 V3 2.040034 1_555
O42 S6 1.480930 1_555
O42 V1 2.040034 1_555
O43 S7 1.480930 1_555
O43 V2 2.040034 1_555
O44 S8 1.480930 1_555
O44 V0 2.040034 1_555
O45 S9 1.480930 1_555
O45 V3 2.040034 1_555
O46 S10 1.480930 1_555
O46 V1 2.040034 1_555
O47 S11 1.480930 1_555
O47 V2 2.040034 1_555
