# generated using pymatgen
data_K7Ta(SO4)6
_symmetry_space_group_name_H-M   'P 1'
_cell_length_a   9.29280711
_cell_length_b   9.29280711
_cell_length_c   9.29280718
_cell_angle_alpha   109.62425734
_cell_angle_beta   109.62425736
_cell_angle_gamma   109.62425199
_symmetry_Int_Tables_number   1
_chemical_formula_structural   K7Ta(SO4)6
_chemical_formula_sum   'K7 Ta1 S6 O24'
_cell_volume   614.23358417
_cell_formula_units_Z   1
loop_
 _symmetry_equiv_pos_site_id
 _symmetry_equiv_pos_as_xyz
  1  'x, y, z'
loop_
 _atom_site_type_symbol
 _atom_site_label
 _atom_site_symmetry_multiplicity
 _atom_site_fract_x
 _atom_site_fract_y
 _atom_site_fract_z
 _atom_site_occupancy
  K  K0  1  0.50000000  0.50000000  0.50000000  1
  K  K1  1  0.66449862  0.16403285  0.32118840  1
  K  K2  1  0.32118840  0.66449862  0.16403285  1
  K  K3  1  0.16403285  0.32118840  0.66449862  1
  K  K4  1  0.33550138  0.83596715  0.67881160  1
  K  K5  1  0.67881160  0.33550138  0.83596715  1
  K  K6  1  0.83596715  0.67881160  0.33550138  1
  Ta  Ta0  1  0.00000000  0.00000000  0.00000000  1
  S  S0  1  0.25627834  0.03256213  0.38384320  1
  S  S1  1  0.38384320  0.25627834  0.03256213  1
  S  S2  1  0.03256213  0.38384320  0.25627834  1
  S  S3  1  0.74372166  0.96743787  0.61615680  1
  S  S4  1  0.61615680  0.74372166  0.96743787  1
  S  S5  1  0.96743787  0.61615680  0.74372166  1
  O  O0  1  0.09271202  0.57262981  0.83321277  1
  O  O1  1  0.83321277  0.09271202  0.57262981  1
  O  O2  1  0.57262981  0.83321277  0.09271202  1
  O  O3  1  0.90728798  0.42737019  0.16678723  1
  O  O4  1  0.16678723  0.90728798  0.42737019  1
  O  O5  1  0.42737019  0.16678723  0.90728798  1
  O  O6  1  0.01426482  0.68909040  0.63986483  1
  O  O7  1  0.63986483  0.01426482  0.68909040  1
  O  O8  1  0.68909040  0.63986483  0.01426482  1
  O  O9  1  0.98573518  0.31090960  0.36013517  1
  O  O10  1  0.36013517  0.98573518  0.31090960  1
  O  O11  1  0.31090960  0.36013517  0.98573518  1
  O  O12  1  0.02568748  0.23608807  0.10620409  1
  O  O13  1  0.10620409  0.02568748  0.23608807  1
  O  O14  1  0.53039880  0.35758217  0.21496149  1
  O  O15  1  0.35758217  0.21496149  0.53039880  1
  O  O16  1  0.21496149  0.53039880  0.35758217  1
  O  O17  1  0.46960120  0.64241783  0.78503851  1
  O  O18  1  0.64241783  0.78503851  0.46960120  1
  O  O19  1  0.78503851  0.46960120  0.64241783  1
  O  O20  1  0.76391193  0.89379591  0.97431252  1
  O  O21  1  0.89379591  0.97431252  0.76391193  1
  O  O22  1  0.97431252  0.76391193  0.89379591  1
  O  O23  1  0.23608807  0.10620409  0.02568748  1
loop_
_geom_bond_atom_site_label_1
_geom_bond_atom_site_label_2
_geom_bond_distance
_geom_bond_site_symmetry_2
K0 O19 2.691943 1_555
K0 O16 2.691943 1_555
K0 O17 2.691943 1_555
K0 O14 2.691943 1_555
K0 O15 2.691943 1_555
K0 O18 2.691943 1_555
K1 O9 2.666633 1_555
K1 O10 2.705293 1_545
K1 O2 2.706103 1_545
K1 O14 2.763014 1_555
K1 O1 2.763064 1_555
K1 O19 2.855297 1_555
K2 O10 2.666633 1_555
K2 O11 2.705293 1_554
K2 O0 2.706103 1_554
K2 O16 2.763014 1_555
K2 O2 2.763064 1_555
K2 O18 2.855297 1_555
K3 O11 2.666633 1_555
K3 O9 2.705293 1_455
K3 O1 2.706103 1_455
K3 O15 2.763014 1_555
K3 O0 2.763064 1_555
K3 O17 2.855297 1_555
K4 O6 2.666633 1_555
K4 O7 2.705293 1_565
K4 O5 2.706103 1_565
K4 O17 2.763014 1_555
K4 O4 2.763064 1_555
K4 O16 2.855297 1_555
K5 O7 2.666633 1_555
K5 O8 2.705293 1_556
K5 O3 2.706103 1_556
K5 O19 2.763014 1_555
K5 O5 2.763064 1_555
K5 O15 2.855297 1_555
K6 O8 2.666633 1_555
K6 O6 2.705293 1_655
K6 O4 2.706103 1_655
K6 O18 2.763014 1_555
K6 O3 2.763064 1_555
K6 O14 2.855297 1_555
O0 S5 1.449964 1_455
O1 S3 1.449964 1_545
O2 S4 1.449964 1_554
O3 S2 1.449964 1_655
O4 S0 1.449964 1_565
O5 S1 1.449964 1_556
O6 S5 1.450359 1_455
O7 S3 1.450359 1_545
O8 S4 1.450359 1_554
O9 S2 1.450359 1_655
O10 S0 1.450359 1_565
O11 S1 1.450359 1_556
O12 S2 1.558628 1_555
O12 Ta0 1.969742 1_555
O13 S0 1.558628 1_555
O13 Ta0 1.969742 1_555
O14 S1 1.459617 1_555
O15 S0 1.459617 1_555
O16 S2 1.459617 1_555
O17 S4 1.459617 1_555
O18 S3 1.459617 1_555
O19 S5 1.459617 1_555
O20 S4 1.558628 1_555
O20 Ta0 1.969742 1_666
O21 S3 1.558628 1_555
O21 Ta0 1.969742 1_666
O22 S5 1.558628 1_555
O22 Ta0 1.969742 1_666
O23 S1 1.558628 1_555
O23 Ta0 1.969742 1_555
