# generated using pymatgen
data_BaCa(MoO2)4
_symmetry_space_group_name_H-M   'P 1'
_cell_length_a   5.84037961
_cell_length_b   5.84037961
_cell_length_c   7.57988700
_cell_angle_alpha   90.00000000
_cell_angle_beta   90.00000000
_cell_angle_gamma   119.99999561
_symmetry_Int_Tables_number   1
_chemical_formula_structural   BaCa(MoO2)4
_chemical_formula_sum   'Ba1 Ca1 Mo4 O8'
_cell_volume   223.91105421
_cell_formula_units_Z   1
loop_
 _symmetry_equiv_pos_site_id
 _symmetry_equiv_pos_as_xyz
  1  'x, y, z'
loop_
 _atom_site_type_symbol
 _atom_site_label
 _atom_site_symmetry_multiplicity
 _atom_site_fract_x
 _atom_site_fract_y
 _atom_site_fract_z
 _atom_site_occupancy
  Ba  Ba0  1  0.00000000  0.00000000  0.00000000  1
  Ca  Ca0  1  0.00000000  0.00000000  0.50000000  1
  Mo  Mo0  1  0.33333300  0.66666700  0.73021100  1
  Mo  Mo1  1  0.66666700  0.33333300  0.73021100  1
  Mo  Mo2  1  0.33333300  0.66666700  0.26978900  1
  Mo  Mo3  1  0.66666700  0.33333300  0.26978900  1
  O  O0  1  0.30485000  0.30485000  0.70100500  1
  O  O1  1  0.69515000  0.00000000  0.70100500  1
  O  O2  1  0.00000000  0.69515000  0.70100500  1
  O  O3  1  0.69515000  0.69515000  0.29899500  1
  O  O4  1  0.00000000  0.30485000  0.29899500  1
  O  O5  1  0.30485000  0.00000000  0.29899500  1
  O  O6  1  0.33333300  0.66666700  0.00000000  1
  O  O7  1  0.66666700  0.33333300  0.00000000  1
loop_
_geom_bond_atom_site_label_1
_geom_bond_atom_site_label_2
_geom_bond_distance
_geom_bond_site_symmetry_2
Ba0 O2 2.882065 1_544
Ba0 O4 2.882065 1_555
Ba0 O5 2.882065 1_555
Ba0 O1 2.882065 1_454
Ba0 O0 2.882065 1_554
Ba0 O3 2.882065 1_445
Ba0 O7 3.371941 1_455
Ba0 O6 3.371941 1_545
Ba0 O7 3.371947 1_445
Ba0 O6 3.371947 1_555
Ba0 O6 3.371947 1_445
Ba0 O7 3.371947 1_555
Ca0 O2 2.343354 1_545
Ca0 O1 2.343354 1_455
Ca0 O4 2.343354 1_555
Ca0 O5 2.343354 1_555
Ca0 O3 2.343354 1_445
Ca0 O0 2.343354 1_555
Mo0 O6 2.044970 1_556
Mo0 O2 2.047078 1_555
Mo0 O1 2.047082 1_565
Mo0 O0 2.047084 1_555
Mo1 O7 2.044970 1_556
Mo1 O1 2.047078 1_555
Mo1 O2 2.047082 1_655
Mo1 O0 2.047084 1_555
Mo2 O6 2.044970 1_555
Mo2 O5 2.047078 1_565
Mo2 O4 2.047082 1_555
Mo2 O3 2.047084 1_555
Mo3 O7 2.044970 1_555
Mo3 O4 2.047078 1_655
Mo3 O5 2.047082 1_555
Mo3 O3 2.047084 1_555
