# generated using pymatgen
data_RbCoNiF6
_symmetry_space_group_name_H-M   'P 1'
_cell_length_a   7.28835659
_cell_length_b   7.28835659
_cell_length_c   7.28835659
_cell_angle_alpha   89.20475130
_cell_angle_beta   60.79331890
_cell_angle_gamma   119.87829431
_symmetry_Int_Tables_number   1
_chemical_formula_structural   RbCoNiF6
_chemical_formula_sum   'Rb2 Co2 Ni2 F12'
_cell_volume   275.61519531
_cell_formula_units_Z   2
loop_
 _symmetry_equiv_pos_site_id
 _symmetry_equiv_pos_as_xyz
  1  'x, y, z'
loop_
 _atom_site_type_symbol
 _atom_site_label
 _atom_site_symmetry_multiplicity
 _atom_site_fract_x
 _atom_site_fract_y
 _atom_site_fract_z
 _atom_site_occupancy
  Rb  Rb0  1  0.25000000  0.62039500  0.12960500  1
  Rb  Rb1  1  0.75000000  0.37960500  0.87039500  1
  Co  Co0  1  0.00000000  0.00000000  0.00000000  1
  Co  Co1  1  0.50000000  0.00000000  0.50000000  1
  Ni  Ni0  1  0.50000000  0.50000000  0.50000000  1
  Ni  Ni1  1  0.00000000  0.00000000  0.50000000  1
  F  F0  1  0.75000000  0.06941100  0.18058900  1
  F  F1  1  0.75000000  0.66938400  0.58061600  1
  F  F2  1  0.73692600  0.06850000  0.57572300  1
  F  F3  1  0.76307400  0.68735100  0.16842600  1
  F  F4  1  0.35577700  0.68735100  0.57572300  1
  F  F5  1  0.14422300  0.06850000  0.16842600  1
  F  F6  1  0.25000000  0.93058900  0.81941100  1
  F  F7  1  0.25000000  0.33061600  0.41938400  1
  F  F8  1  0.26307400  0.93150000  0.42427700  1
  F  F9  1  0.23692600  0.31264900  0.83157400  1
  F  F10  1  0.64422300  0.31264900  0.42427700  1
  F  F11  1  0.85577700  0.93150000  0.83157400  1
loop_
_geom_bond_atom_site_label_1
_geom_bond_atom_site_label_2
_geom_bond_distance
_geom_bond_site_symmetry_2
Co0 F5 1.901175 1_555
Co0 F11 1.901175 1_444
Co0 F3 1.901175 1_445
Co0 F9 1.901175 1_554
Co0 F0 1.976030 1_455
Co0 F6 1.976030 1_544
Co1 F2 1.901175 1_555
Co1 F4 1.901175 1_545
Co1 F8 1.901175 1_545
Co1 F10 1.901175 1_555
Co1 F0 1.976030 1_555
Co1 F6 1.976030 1_545
F0 Rb1 3.174995 1_554
F1 Ni1 2.003272 1_665
F1 Ni0 2.003272 1_555
F1 Rb1 2.966037 1_555
F2 Ni1 2.039324 1_655
F2 Rb1 3.143648 1_555
F3 Ni0 2.039324 1_555
F3 Rb1 3.143648 1_554
F4 Ni0 2.039324 1_555
F4 Rb1 3.143648 1_455
F5 Ni1 2.039324 1_555
F5 Rb1 3.143648 1_554
F6 Rb0 3.174995 1_556
F7 Ni0 2.003272 1_555
F7 Ni1 2.003272 1_555
F7 Rb0 2.966037 1_555
F8 Ni1 2.039324 1_565
F8 Rb0 3.143648 1_555
F9 Ni0 2.039324 1_555
F9 Rb0 3.143648 1_556
F10 Ni0 2.039324 1_555
F10 Rb0 3.143648 1_655
F11 Ni1 2.039324 1_665
F11 Rb0 3.143648 1_556
