# generated using pymatgen
data_CsPbCl3
_symmetry_space_group_name_H-M   'P 1'
_cell_length_a   5.75527897
_cell_length_b   11.13722107
_cell_length_c   7.87552861
_cell_angle_alpha   45.00235759
_cell_angle_beta   90.00000000
_cell_angle_gamma   90.00000000
_symmetry_Int_Tables_number   1
_chemical_formula_structural   CsPbCl3
_chemical_formula_sum   'Cs2 Pb2 Cl6'
_cell_volume   356.96513866
_cell_formula_units_Z   2
loop_
 _symmetry_equiv_pos_site_id
 _symmetry_equiv_pos_as_xyz
  1  'x, y, z'
loop_
 _atom_site_type_symbol
 _atom_site_label
 _atom_site_symmetry_multiplicity
 _atom_site_fract_x
 _atom_site_fract_y
 _atom_site_fract_z
 _atom_site_occupancy
  Cs  Cs0  1  0.50000000  0.49256470  0.50000000  1
  Cs  Cs1  1  0.50000000  0.99429358  0.50000000  1
  Pb  Pb0  1  0.00000000  0.99267719  0.00024590  1
  Pb  Pb1  1  -0.00000000  0.49292508  0.99975410  1
  Cl  Cl0  1  -0.00000000  0.18360954  0.11842785  1
  Cl  Cl1  1  0.50000000  0.49216286  0.00085613  1
  Cl  Cl2  1  0.50000000  0.99301898  0.99914387  1
  Cl  Cl3  1  0.00000000  0.30127665  0.50000000  1
  Cl  Cl4  1  0.00000000  0.68343302  0.50000000  1
  Cl  Cl5  1  0.00000000  0.80203739  0.88157215  1
loop_
_geom_bond_atom_site_label_1
_geom_bond_atom_site_label_2
_geom_bond_distance
_geom_bond_site_symmetry_2
Cl0 Pb0 2.861290 1_545
Cl0 Pb1 2.861437 1_554
Cl0 Cs1 3.577249 1_445
Cl0 Cs1 3.577249 1_545
Cl1 Pb1 2.877647 1_654
Cl1 Pb1 2.877647 1_554
Cl1 Cs1 3.920997 1_545
Cl1 Cs0 3.934188 1_555
Cl1 Cs0 3.941344 1_554
Cl1 Cs1 3.954557 1_554
Cl2 Pb0 2.877647 1_556
Cl2 Pb0 2.877647 1_656
Cl2 Cs1 3.920997 1_555
Cl2 Cs0 3.934188 1_565
Cl2 Cs0 3.941344 1_556
Cl2 Cs1 3.954557 1_556
Cl3 Pb1 2.861010 1_554
Cl3 Pb0 2.861015 1_546
Cl3 Cs0 3.580431 1_455
Cl3 Cs0 3.580431 1_555
Cl4 Pb0 2.860625 1_555
Cl4 Pb1 2.860630 1_555
Cl4 Cs0 3.577652 1_455
Cl4 Cs0 3.577652 1_555
Cl5 Pb1 2.861269 1_555
Cl5 Pb0 2.861416 1_556
Cl5 Cs1 3.577249 1_455
Cl5 Cs1 3.577249 1_555
