# generated using pymatgen
data_U3Fe2Ge7
_symmetry_space_group_name_H-M   'P 1'
_cell_length_a   12.52456277
_cell_length_b   12.52456277
_cell_length_c   4.22355900
_cell_angle_alpha   90.00000000
_cell_angle_beta   90.00000000
_cell_angle_gamma   160.84337593
_symmetry_Int_Tables_number   1
_chemical_formula_structural   U3Fe2Ge7
_chemical_formula_sum   'U3 Fe2 Ge7'
_cell_volume   217.40936703
_cell_formula_units_Z   1
loop_
 _symmetry_equiv_pos_site_id
 _symmetry_equiv_pos_as_xyz
  1  'x, y, z'
loop_
 _atom_site_type_symbol
 _atom_site_label
 _atom_site_symmetry_multiplicity
 _atom_site_fract_x
 _atom_site_fract_y
 _atom_site_fract_z
 _atom_site_occupancy
  U  U0  1  0.00000000  0.00000000  0.00000000  1
  U  U1  1  0.31467700  0.68532300  0.50000000  1
  U  U2  1  0.68532300  0.31467700  0.50000000  1
  Fe  Fe0  1  0.12561800  0.87438200  0.00000000  1
  Fe  Fe1  1  0.87438200  0.12561800  0.00000000  1
  Ge  Ge0  1  0.50000000  0.50000000  0.50000000  1
  Ge  Ge1  1  0.22004300  0.77995700  0.00000000  1
  Ge  Ge2  1  0.77995700  0.22004300  0.00000000  1
  Ge  Ge3  1  0.41348200  0.58651800  0.00000000  1
  Ge  Ge4  1  0.58651800  0.41348200  0.00000000  1
  Ge  Ge5  1  0.08738700  0.91261300  0.50000000  1
  Ge  Ge6  1  0.91261300  0.08738700  0.50000000  1
loop_
_geom_bond_atom_site_label_1
_geom_bond_atom_site_label_2
_geom_bond_distance
_geom_bond_site_symmetry_2
Fe0 Ge4 2.296931 1_455
Fe0 Ge4 2.296931 1_565
Fe0 Ge5 2.313292 1_555
Fe0 Ge5 2.313292 1_554
Fe0 Ge1 2.332290 1_555
Fe0 U0 3.102754 1_565
Fe0 U2 3.313241 1_564
Fe0 U2 3.313241 1_565
Fe0 U2 3.313241 1_455
Fe0 U2 3.313241 1_454
Fe1 Ge3 2.296931 1_545
Fe1 Ge3 2.296931 1_655
Fe1 Ge6 2.313292 1_555
Fe1 Ge6 2.313292 1_554
Fe1 Ge2 2.332290 1_555
Fe1 U0 3.102754 1_655
Fe1 U1 3.313241 1_654
Fe1 U1 3.313241 1_655
Fe1 U1 3.313241 1_545
Fe1 U1 3.313241 1_544
Ge0 U0 2.966951 1_665
Ge0 U0 2.966951 1_556
Ge0 U0 2.966951 1_555
Ge0 U0 2.966951 1_666
Ge1 Ge2 2.556013 1_455
Ge1 Ge2 2.556013 1_565
Ge1 U2 3.088405 1_455
Ge1 U2 3.088405 1_454
Ge1 U2 3.088405 1_564
Ge1 U2 3.088405 1_565
Ge1 U1 3.150126 1_554
Ge1 U1 3.150126 1_555
Ge2 U1 3.088405 1_545
Ge2 U1 3.088405 1_655
Ge2 U1 3.088405 1_654
Ge2 U1 3.088405 1_544
Ge2 U2 3.150126 1_554
Ge2 U2 3.150126 1_555
Ge3 U0 2.984946 1_555
Ge3 U0 2.984946 1_665
Ge3 U1 3.227310 1_554
Ge3 U1 3.227310 1_555
Ge4 U0 2.984946 1_555
Ge4 U0 2.984946 1_665
Ge4 U2 3.227310 1_555
Ge4 U2 3.227310 1_554
Ge5 U0 3.019690 1_566
Ge5 U0 3.019690 1_565
Ge5 U2 3.192930 1_565
Ge5 U2 3.192930 1_455
Ge6 U0 3.019690 1_656
Ge6 U0 3.019690 1_655
Ge6 U1 3.192930 1_655
Ge6 U1 3.192930 1_545
