# generated using pymatgen
data_Tb5Tl3
_symmetry_space_group_name_H-M   'P 1'
_cell_length_a   6.22921600
_cell_length_b   9.18106740
_cell_length_c   9.18106740
_cell_angle_alpha   83.39144602
_cell_angle_beta   70.16927190
_cell_angle_gamma   70.16927190
_symmetry_Int_Tables_number   1
_chemical_formula_structural   Tb5Tl3
_chemical_formula_sum   'Tb10 Tl6'
_cell_volume   464.64479345
_cell_formula_units_Z   2
loop_
 _symmetry_equiv_pos_site_id
 _symmetry_equiv_pos_as_xyz
  1  'x, y, z'
loop_
 _atom_site_type_symbol
 _atom_site_label
 _atom_site_symmetry_multiplicity
 _atom_site_fract_x
 _atom_site_fract_y
 _atom_site_fract_z
 _atom_site_occupancy
  Tb  Tb0  1  0.71711400  0.70006200  0.86571100  1
  Tb  Tb1  1  0.28288600  0.29993800  0.13428900  1
  Tb  Tb2  1  0.78288600  0.13428900  0.29993800  1
  Tb  Tb3  1  0.21711400  0.86571100  0.70006200  1
  Tb  Tb4  1  0.58282500  0.13428900  0.70006200  1
  Tb  Tb5  1  0.41717500  0.86571100  0.29993800  1
  Tb  Tb6  1  0.08282500  0.70006200  0.13428900  1
  Tb  Tb7  1  0.91717500  0.29993800  0.86571100  1
  Tb  Tb8  1  0.25000000  0.50000000  0.50000000  1
  Tb  Tb9  1  0.75000000  0.50000000  0.50000000  1
  Tl  Tl0  1  0.16137500  0.17725000  0.50000000  1
  Tl  Tl1  1  0.83862500  0.82275000  0.50000000  1
  Tl  Tl2  1  0.33862500  0.50000000  0.82275000  1
  Tl  Tl3  1  0.66137500  0.50000000  0.17725000  1
  Tl  Tl4  1  0.75000000  0.00000000  0.00000000  1
  Tl  Tl5  1  0.25000000  0.00000000  0.00000000  1
loop_
_geom_bond_atom_site_label_1
_geom_bond_atom_site_label_2
_geom_bond_distance
_geom_bond_site_symmetry_2
Tb0 Tl3 3.197666 1_556
Tb0 Tl4 3.237401 1_566
Tb0 Tl5 3.237404 1_566
Tb0 Tl1 3.331507 1_555
Tb0 Tl2 3.581052 1_655
Tb0 Tl2 3.581057 1_555
Tb1 Tl2 3.197666 1_554
Tb1 Tl5 3.237401 1_555
Tb1 Tl4 3.237404 1_555
Tb1 Tl0 3.331507 1_555
Tb1 Tl3 3.581052 1_455
Tb1 Tl3 3.581057 1_555
Tb2 Tl1 3.197666 1_545
Tb2 Tl4 3.237401 1_555
Tb2 Tl5 3.237404 1_655
Tb2 Tl3 3.331507 1_555
Tb2 Tl0 3.581052 1_555
Tb2 Tl0 3.581057 1_655
Tb3 Tl0 3.197666 1_565
Tb3 Tl5 3.237401 1_566
Tb3 Tl4 3.237404 1_466
Tb3 Tl2 3.331507 1_555
Tb3 Tl1 3.581052 1_555
Tb3 Tl1 3.581057 1_455
Tb4 Tl1 3.197666 1_545
Tb4 Tl4 3.237401 1_556
Tb4 Tl5 3.237404 1_556
Tb4 Tl2 3.331507 1_555
Tb4 Tl0 3.581052 1_655
Tb4 Tl0 3.581057 1_555
Tb5 Tl0 3.197666 1_565
Tb5 Tl5 3.237401 1_565
Tb5 Tl4 3.237404 1_565
Tb5 Tl3 3.331507 1_555
Tb5 Tl1 3.581052 1_455
Tb5 Tl1 3.581057 1_555
Tb6 Tl2 3.197666 1_554
Tb6 Tl5 3.237401 1_565
Tb6 Tl4 3.237404 1_465
Tb6 Tl1 3.331507 1_455
Tb6 Tl3 3.581052 1_555
Tb6 Tl3 3.581057 1_455
Tb7 Tl3 3.197666 1_556
Tb7 Tl4 3.237401 1_556
Tb7 Tl5 3.237404 1_656
Tb7 Tl0 3.331507 1_655
Tb7 Tl2 3.581052 1_555
Tb7 Tl2 3.581057 1_655
Tb8 Tl3 3.192989 1_555
Tb8 Tl0 3.192989 1_555
Tb8 Tl1 3.192989 1_455
Tb8 Tl2 3.192989 1_555
Tb9 Tl0 3.192989 1_655
Tb9 Tl1 3.192989 1_555
Tb9 Tl2 3.192989 1_555
Tb9 Tl3 3.192989 1_555
Tl4 Tl5 3.114608 1_655
Tl4 Tl5 3.114608 1_555
