# generated using pymatgen
data_Sr12Sn4N3
_symmetry_space_group_name_H-M   'P 1'
_cell_length_a   5.25096286
_cell_length_b   5.25096286
_cell_length_c   21.19078017
_cell_angle_alpha   90.00000000
_cell_angle_beta   90.00000000
_cell_angle_gamma   90.00000000
_symmetry_Int_Tables_number   1
_chemical_formula_structural   Sr12Sn4N3
_chemical_formula_sum   'Sr12 Sn4 N3'
_cell_volume   584.28513750
_cell_formula_units_Z   1
loop_
 _symmetry_equiv_pos_site_id
 _symmetry_equiv_pos_as_xyz
  1  'x, y, z'
loop_
 _atom_site_type_symbol
 _atom_site_label
 _atom_site_symmetry_multiplicity
 _atom_site_fract_x
 _atom_site_fract_y
 _atom_site_fract_z
 _atom_site_occupancy
  Sr  Sr0  1  0.50000000  0.50000000  0.86321294  1
  Sr  Sr1  1  0.50000000  0.50000000  0.13678706  1
  Sr  Sr2  1  0.50000000  0.50000000  0.37751300  1
  Sr  Sr3  1  0.50000000  0.50000000  0.62248700  1
  Sr  Sr4  1  0.50000000  -0.00000000  -0.00000000  1
  Sr  Sr5  1  0.50000000  0.00000000  0.25499361  1
  Sr  Sr6  1  0.50000000  -0.00000000  0.50000000  1
  Sr  Sr7  1  0.50000000  -0.00000000  0.74500639  1
  Sr  Sr8  1  -0.00000000  0.50000000  -0.00000000  1
  Sr  Sr9  1  -0.00000000  0.50000000  0.25499361  1
  Sr  Sr10  1  -0.00000000  0.50000000  0.50000000  1
  Sr  Sr11  1  0.00000000  0.50000000  0.74500639  1
  Sn  Sn0  1  0.00000000  -0.00000000  0.88325155  1
  Sn  Sn1  1  -0.00000000  0.00000000  0.11674845  1
  Sn  Sn2  1  -0.00000000  0.00000000  0.37498096  1
  Sn  Sn3  1  0.00000000  -0.00000000  0.62501904  1
  N  N0  1  0.50000000  0.50000000  0.24997236  1
  N  N1  1  0.50000000  0.50000000  0.50000000  1
  N  N2  1  0.50000000  0.50000000  0.75002764  1
loop_
_geom_bond_atom_site_label_1
_geom_bond_atom_site_label_2
_geom_bond_distance
_geom_bond_site_symmetry_2
Sn0 Sr8 3.607462 1_546
Sn0 Sr4 3.607462 1_556
Sn0 Sr8 3.607462 1_556
Sn0 Sr4 3.607462 1_456
Sn0 Sr0 3.737194 1_555
Sn0 Sr0 3.737194 1_455
Sn0 Sr0 3.737194 1_445
Sn0 Sr0 3.737194 1_545
Sn0 Sr11 3.933860 1_555
Sn0 Sr7 3.933860 1_455
Sn0 Sr11 3.933860 1_545
Sn0 Sr7 3.933860 1_555
Sn1 Sr4 3.607462 1_555
Sn1 Sr8 3.607462 1_555
Sn1 Sr4 3.607462 1_455
Sn1 Sr8 3.607462 1_545
Sn1 Sr1 3.737194 1_555
Sn1 Sr1 3.737194 1_545
Sn1 Sr1 3.737194 1_455
Sn1 Sr1 3.737194 1_445
Sn1 Sr9 3.933860 1_545
Sn1 Sr5 3.933860 1_455
Sn1 Sr5 3.933860 1_555
Sn1 Sr9 3.933860 1_555
Sn2 Sr9 3.654873 1_545
Sn2 Sr5 3.654873 1_455
Sn2 Sr5 3.654873 1_555
Sn2 Sr9 3.654873 1_555
Sn2 Sr2 3.713379 1_455
Sn2 Sr2 3.713379 1_555
Sn2 Sr2 3.713379 1_445
Sn2 Sr2 3.713379 1_545
Sn2 Sr10 3.729837 1_545
Sn2 Sr6 3.729837 1_455
Sn2 Sr6 3.729837 1_555
Sn2 Sr10 3.729837 1_555
Sn3 Sr11 3.654873 1_545
Sn3 Sr7 3.654873 1_455
Sn3 Sr7 3.654873 1_555
Sn3 Sr11 3.654873 1_555
Sn3 Sr3 3.713379 1_555
Sn3 Sr3 3.713379 1_545
Sn3 Sr3 3.713379 1_445
Sn3 Sr3 3.713379 1_455
Sn3 Sr10 3.729837 1_555
Sn3 Sr10 3.729837 1_545
Sn3 Sr6 3.729837 1_455
Sn3 Sr6 3.729837 1_555
N0 Sr1 2.398485 1_555
N0 Sr5 2.627637 1_565
N0 Sr5 2.627637 1_555
N0 Sr9 2.627637 1_555
N0 Sr9 2.627637 1_655
N0 Sr2 2.702686 1_555
N1 Sr2 2.595595 1_555
N1 Sr3 2.595595 1_555
N1 Sr6 2.625481 1_565
N1 Sr6 2.625481 1_555
N1 Sr10 2.625481 1_555
N1 Sr10 2.625481 1_655
N2 Sr0 2.398485 1_555
N2 Sr11 2.627637 1_555
N2 Sr11 2.627637 1_655
N2 Sr7 2.627637 1_565
N2 Sr7 2.627637 1_555
N2 Sr3 2.702686 1_555
