# generated using pymatgen
data_Ta3AlCo8
_symmetry_space_group_name_H-M   'P 1'
_cell_length_a   8.20278401
_cell_length_b   8.20278401
_cell_length_c   8.20278390
_cell_angle_alpha   33.67160495
_cell_angle_beta   33.67160495
_cell_angle_gamma   33.67160709
_symmetry_Int_Tables_number   1
_chemical_formula_structural   Ta3AlCo8
_chemical_formula_sum   'Ta3 Al1 Co8'
_cell_volume   151.14896813
_cell_formula_units_Z   1
loop_
 _symmetry_equiv_pos_site_id
 _symmetry_equiv_pos_as_xyz
  1  'x, y, z'
loop_
 _atom_site_type_symbol
 _atom_site_label
 _atom_site_symmetry_multiplicity
 _atom_site_fract_x
 _atom_site_fract_y
 _atom_site_fract_z
 _atom_site_occupancy
  Ta  Ta0  1  0.62325800  0.62325800  0.62325800  1
  Ta  Ta1  1  0.00286800  0.00286800  0.00286800  1
  Ta  Ta2  1  0.49831100  0.49831100  0.49831100  1
  Al  Al0  1  0.12579300  0.12579300  0.12579300  1
  Co  Co0  1  0.56345900  0.56345900  0.06020100  1
  Co  Co1  1  0.06407900  0.06407900  0.56051900  1
  Co  Co2  1  0.56345900  0.06020100  0.56345900  1
  Co  Co3  1  0.06407900  0.56051900  0.06407900  1
  Co  Co4  1  0.81158300  0.81158300  0.81158300  1
  Co  Co5  1  0.31239100  0.31239100  0.31239100  1
  Co  Co6  1  0.06020100  0.56345900  0.56345900  1
  Co  Co7  1  0.56051900  0.06407900  0.06407900  1
loop_
_geom_bond_atom_site_label_1
_geom_bond_atom_site_label_2
_geom_bond_distance
_geom_bond_site_symmetry_2
Ta0 Ta2 2.897692 1_555
Ta0 Ta1 2.945763 1_665
Ta0 Ta1 2.945763 1_656
Ta0 Ta1 2.945763 1_566
Al0 Co1 2.765114 1_555
Al0 Co7 2.765114 1_555
Al0 Co3 2.765114 1_555
Al0 Co4 2.778923 1_445
Al0 Co4 2.778923 1_544
Al0 Co4 2.778923 1_454
Al0 Co2 2.794211 1_554
Al0 Co6 2.794211 1_554
Al0 Co2 2.794211 1_455
Al0 Co6 2.794211 1_545
Al0 Co0 2.794211 1_455
Al0 Co0 2.794211 1_545
Al0 Ta1 2.850799 1_555
Al0 Ta2 2.889903 1_554
Al0 Ta2 2.889904 1_455
Al0 Ta2 2.889904 1_545
Co0 Co4 2.349789 1_554
Co0 Co2 2.360291 1_564
Co0 Co6 2.360291 1_654
Co0 Co5 2.374745 1_555
Co0 Co6 2.391252 1_555
Co0 Co2 2.391252 1_555
Co0 Ta1 2.747504 1_655
Co0 Ta1 2.747504 1_565
Co0 Ta2 2.751045 1_555
Co0 Ta0 2.806294 1_554
Co1 Co5 2.354767 1_555
Co1 Co7 2.358856 1_555
Co1 Co3 2.358856 1_555
Co1 Co7 2.392687 1_456
Co1 Co3 2.392687 1_546
Co1 Co4 2.400334 1_445
Co1 Ta0 2.757586 1_455
Co1 Ta0 2.757586 1_545
Co1 Ta2 2.808484 1_545
Co1 Ta2 2.808484 1_455
Co1 Ta1 2.832833 1_556
Co2 Co4 2.349789 1_545
Co2 Co6 2.360291 1_645
Co2 Co5 2.374745 1_555
Co2 Co6 2.391253 1_555
Co2 Ta1 2.747504 1_655
Co2 Ta1 2.747504 1_556
Co2 Ta2 2.751046 1_555
Co2 Ta0 2.806294 1_545
Co3 Co5 2.354767 1_555
Co3 Co7 2.358857 1_555
Co3 Co7 2.392687 1_465
Co3 Co4 2.400334 1_454
Co3 Ta0 2.757586 1_455
Co3 Ta0 2.757586 1_554
Co3 Ta2 2.808484 1_554
Co3 Ta2 2.808484 1_455
Co3 Ta1 2.832833 1_565
Co4 Co6 2.349789 1_655
Co4 Co7 2.400334 1_566
Co4 Ta2 2.782477 1_556
Co4 Ta2 2.782477 1_655
Co4 Ta2 2.782477 1_565
Co5 Co7 2.354767 1_555
Co5 Co6 2.374745 1_555
Co5 Ta0 2.792345 1_554
Co5 Ta0 2.792345 1_455
Co5 Ta0 2.792345 1_545
Co5 Ta1 2.798328 1_556
Co5 Ta1 2.798328 1_565
Co5 Ta1 2.798328 1_655
Co6 Ta1 2.747504 1_565
Co6 Ta1 2.747504 1_556
Co6 Ta2 2.751046 1_555
Co6 Ta0 2.806294 1_455
Co7 Ta0 2.757586 1_545
Co7 Ta0 2.757586 1_554
Co7 Ta2 2.808484 1_554
Co7 Ta2 2.808484 1_545
Co7 Ta1 2.832833 1_655
