# generated using pymatgen
data_BaMg
_symmetry_space_group_name_H-M   'P 1'
_cell_length_a   4.39432506
_cell_length_b   6.19973171
_cell_length_c   6.19644807
_cell_angle_alpha   90.00000000
_cell_angle_beta   90.00000000
_cell_angle_gamma   90.00000000
_symmetry_Int_Tables_number   1
_chemical_formula_structural   BaMg
_chemical_formula_sum   'Ba2 Mg2'
_cell_volume   168.81377831
_cell_formula_units_Z   2
loop_
 _symmetry_equiv_pos_site_id
 _symmetry_equiv_pos_as_xyz
  1  'x, y, z'
loop_
 _atom_site_type_symbol
 _atom_site_label
 _atom_site_symmetry_multiplicity
 _atom_site_fract_x
 _atom_site_fract_y
 _atom_site_fract_z
 _atom_site_occupancy
  Ba  Ba0  1  -0.00000000  0.24439165  0.25000000  1
  Ba  Ba1  1  0.00000000  0.75560835  0.75000000  1
  Mg  Mg0  1  0.50000000  0.25885817  0.75000000  1
  Mg  Mg1  1  0.50000000  0.74114183  0.25000000  1
loop_
_geom_bond_atom_site_label_1
_geom_bond_atom_site_label_2
_geom_bond_distance
_geom_bond_site_symmetry_2
Ba0 Mg1 3.783145 1_455
Ba0 Mg1 3.783145 1_555
Ba0 Mg0 3.799284 1_555
Ba0 Mg0 3.799284 1_554
Ba0 Mg0 3.799284 1_455
Ba0 Mg0 3.799284 1_454
Ba0 Mg1 3.816020 1_445
Ba0 Mg1 3.816020 1_545
Ba1 Mg0 3.783145 1_555
Ba1 Mg0 3.783145 1_455
Ba1 Mg1 3.799284 1_455
Ba1 Mg1 3.799284 1_556
Ba1 Mg1 3.799284 1_555
Ba1 Mg1 3.799284 1_456
Ba1 Mg0 3.816020 1_465
Ba1 Mg0 3.816020 1_565
