# generated using pymatgen
data_Gd4MgRu
_symmetry_space_group_name_H-M   'P 1'
_cell_length_a   9.79726902
_cell_length_b   9.79726902
_cell_length_c   9.79726902
_cell_angle_alpha   60.00000000
_cell_angle_beta   60.00000000
_cell_angle_gamma   60.00000000
_symmetry_Int_Tables_number   1
_chemical_formula_structural   Gd4MgRu
_chemical_formula_sum   'Gd16 Mg4 Ru4'
_cell_volume   664.96701336
_cell_formula_units_Z   4
loop_
 _symmetry_equiv_pos_site_id
 _symmetry_equiv_pos_as_xyz
  1  'x, y, z'
loop_
 _atom_site_type_symbol
 _atom_site_label
 _atom_site_symmetry_multiplicity
 _atom_site_fract_x
 _atom_site_fract_y
 _atom_site_fract_z
 _atom_site_occupancy
  Gd  Gd0  1  0.65516690  0.65516690  0.65516690  1
  Gd  Gd1  1  0.03449930  0.65516690  0.65516690  1
  Gd  Gd2  1  0.65516690  0.03449930  0.65516690  1
  Gd  Gd3  1  0.65516690  0.65516690  0.03449930  1
  Gd  Gd4  1  0.81342794  0.81342794  0.18657206  1
  Gd  Gd5  1  0.18657206  0.18657206  0.81342794  1
  Gd  Gd6  1  0.81342794  0.18657206  0.81342794  1
  Gd  Gd7  1  0.18657206  0.81342794  0.18657206  1
  Gd  Gd8  1  0.18657206  0.81342794  0.81342794  1
  Gd  Gd9  1  0.81342794  0.18657206  0.18657206  1
  Gd  Gd10  1  0.43775033  0.43775033  0.06224967  1
  Gd  Gd11  1  0.06224967  0.06224967  0.43775033  1
  Gd  Gd12  1  0.43775033  0.06224967  0.43775033  1
  Gd  Gd13  1  0.06224967  0.43775033  0.06224967  1
  Gd  Gd14  1  0.06224967  0.43775033  0.43775033  1
  Gd  Gd15  1  0.43775033  0.06224967  0.06224967  1
  Mg  Mg0  1  0.42081848  0.42081848  0.42081848  1
  Mg  Mg1  1  0.73754457  0.42081848  0.42081848  1
  Mg  Mg2  1  0.42081848  0.73754457  0.42081848  1
  Mg  Mg3  1  0.42081848  0.42081848  0.73754457  1
  Ru  Ru0  1  0.86101258  0.86101258  0.86101258  1
  Ru  Ru1  1  0.41696227  0.86101258  0.86101258  1
  Ru  Ru2  1  0.86101258  0.41696227  0.86101258  1
  Ru  Ru3  1  0.86101258  0.86101258  0.41696227  1
loop_
_geom_bond_atom_site_label_1
_geom_bond_atom_site_label_2
_geom_bond_distance
_geom_bond_site_symmetry_2
Gd0 Ru1 2.869647 1_555
Gd0 Ru2 2.869647 1_555
Gd0 Ru3 2.869647 1_555
Gd0 Gd12 3.539421 1_565
Gd0 Gd10 3.539421 1_556
Gd0 Gd14 3.539421 1_655
Gd0 Mg2 3.572088 1_555
Gd0 Mg3 3.572088 1_555
Gd0 Mg1 3.572088 1_555
Gd1 Ru2 2.869646 1_455
Gd1 Ru3 2.869646 1_455
Gd1 Ru0 2.869647 1_455
Gd1 Gd11 3.539421 1_565
Gd1 Gd13 3.539421 1_556
Gd1 Gd14 3.539421 1_555
Gd1 Mg0 3.572089 1_555
Gd1 Mg2 3.572089 1_555
Gd1 Mg3 3.572089 1_555
Gd2 Ru3 2.869646 1_545
Gd2 Ru1 2.869646 1_545
Gd2 Ru0 2.869647 1_545
Gd2 Mg0 3.572089 1_555
Gd2 Mg3 3.572089 1_555
Gd2 Mg1 3.572089 1_555
Gd3 Ru1 2.869646 1_554
Gd3 Ru2 2.869646 1_554
Gd3 Ru0 2.869647 1_554
Gd3 Mg0 3.572089 1_555
Gd3 Mg2 3.572089 1_555
Gd3 Mg1 3.572089 1_555
Gd4 Ru0 2.802064 1_554
Gd4 Ru3 2.802064 1_555
Gd4 Mg1 3.597367 1_555
Gd4 Mg2 3.597367 1_555
Gd5 Ru1 2.802064 1_545
Gd5 Ru2 2.802064 1_455
Gd5 Mg0 3.597368 1_555
Gd5 Mg3 3.597368 1_555
Gd6 Ru0 2.802064 1_545
Gd6 Ru2 2.802064 1_555
Gd6 Mg1 3.597367 1_555
Gd6 Mg3 3.597367 1_555
Gd7 Ru3 2.802064 1_455
Gd7 Ru1 2.802064 1_554
Gd7 Mg0 3.597368 1_555
Gd7 Mg2 3.597368 1_555
Gd8 Ru0 2.802064 1_455
Gd8 Ru1 2.802064 1_555
Gd8 Mg2 3.597367 1_555
Gd8 Mg3 3.597367 1_555
Gd9 Ru2 2.802064 1_554
Gd9 Ru3 2.802064 1_545
Gd9 Mg0 3.597368 1_555
Gd9 Mg1 3.597368 1_555
Gd10 Mg3 3.355320 1_554
Gd10 Mg0 3.355321 1_555
Gd10 Ru1 3.536365 1_554
Gd10 Ru2 3.536365 1_554
Gd10 Gd3 3.539421 1_555
Gd10 Gd9 3.676212 1_555
Gd10 Gd7 3.676212 1_555
Gd10 Gd8 3.676212 1_554
Gd10 Gd6 3.676212 1_554
Gd10 Gd12 3.678881 1_555
Gd10 Gd13 3.678881 1_555
Gd10 Gd14 3.678881 1_555
Gd10 Gd15 3.678881 1_555
Gd11 Mg2 3.355321 1_545
Gd11 Mg1 3.355321 1_455
Gd11 Ru3 3.536365 1_445
Gd11 Ru0 3.536365 1_445
Gd11 Gd2 3.539421 1_455
Gd11 Gd6 3.676212 1_455
Gd11 Gd8 3.676212 1_545
Gd11 Gd9 3.676212 1_455
Gd11 Gd7 3.676212 1_545
Gd11 Gd12 3.678881 1_555
Gd11 Gd13 3.678881 1_555
Gd11 Gd14 3.678881 1_555
Gd11 Gd15 3.678881 1_555
Gd12 Mg2 3.355320 1_545
Gd12 Mg0 3.355321 1_555
Gd12 Ru3 3.536365 1_545
Gd12 Ru1 3.536365 1_545
Gd12 Gd2 3.539421 1_555
Gd12 Gd5 3.676212 1_555
Gd12 Gd9 3.676212 1_555
Gd12 Gd4 3.676212 1_545
Gd12 Gd8 3.676212 1_545
Gd12 Gd14 3.678881 1_555
Gd12 Gd15 3.678881 1_555
Gd13 Mg1 3.355321 1_455
Gd13 Mg3 3.355321 1_554
Gd13 Ru2 3.536365 1_454
Gd13 Ru0 3.536365 1_454
Gd13 Gd3 3.539421 1_455
Gd13 Gd8 3.676212 1_554
Gd13 Gd4 3.676212 1_455
Gd13 Gd9 3.676212 1_455
Gd13 Gd5 3.676212 1_554
Gd13 Gd14 3.678881 1_555
Gd13 Gd15 3.678881 1_555
Gd14 Mg1 3.355320 1_455
Gd14 Mg0 3.355321 1_555
Gd14 Ru3 3.536365 1_455
Gd14 Ru2 3.536365 1_455
Gd14 Gd5 3.676212 1_555
Gd14 Gd7 3.676212 1_555
Gd14 Gd4 3.676212 1_455
Gd14 Gd6 3.676212 1_455
Gd15 Mg2 3.355321 1_545
Gd15 Mg3 3.355321 1_554
Gd15 Ru1 3.536365 1_544
Gd15 Ru0 3.536365 1_544
Gd15 Gd2 3.539421 1_554
Gd15 Gd3 3.539421 1_545
Gd15 Gd4 3.676212 1_545
Gd15 Gd6 3.676212 1_554
Gd15 Gd5 3.676212 1_554
Gd15 Gd7 3.676212 1_545
Mg0 Mg2 3.103051 1_555
Mg0 Mg3 3.103051 1_555
Mg0 Mg1 3.103051 1_555
Mg1 Mg2 3.103051 1_555
Mg1 Mg3 3.103051 1_555
Mg2 Mg3 3.103051 1_555
