# generated using pymatgen
data_ScCu4Sn
_symmetry_space_group_name_H-M   'P 1'
_cell_length_a   5.02390600
_cell_length_b   5.02390600
_cell_length_c   5.02390600
_cell_angle_alpha   60.00000000
_cell_angle_beta   60.00000000
_cell_angle_gamma   60.00000000
_symmetry_Int_Tables_number   1
_chemical_formula_structural   ScCu4Sn
_chemical_formula_sum   'Sc1 Cu4 Sn1'
_cell_volume   89.66222600
_cell_formula_units_Z   1
loop_
 _symmetry_equiv_pos_site_id
 _symmetry_equiv_pos_as_xyz
  1  'x, y, z'
loop_
 _atom_site_type_symbol
 _atom_site_label
 _atom_site_symmetry_multiplicity
 _atom_site_fract_x
 _atom_site_fract_y
 _atom_site_fract_z
 _atom_site_occupancy
  Sc  Sc0  1  0.00000000  0.00000000  0.00000000  1
  Cu  Cu0  1  0.62556200  0.62556200  0.12331400  1
  Cu  Cu1  1  0.62556200  0.12331400  0.62556200  1
  Cu  Cu2  1  0.12331400  0.62556200  0.62556200  1
  Cu  Cu3  1  0.62556200  0.62556200  0.62556200  1
  Sn  Sn0  1  0.25000000  0.25000000  0.25000000  1
loop_
_geom_bond_atom_site_label_1
_geom_bond_atom_site_label_2
_geom_bond_distance
_geom_bond_site_symmetry_2
Sc0 Sn0 3.076502 1_545
Sc0 Sn0 3.076502 1_455
Sc0 Sn0 3.076502 1_554
Sc0 Sn0 3.076502 1_555
Cu0 Cu1 2.500659 1_564
Cu0 Cu2 2.500659 1_654
Cu0 Cu3 2.500659 1_554
Cu0 Cu1 2.523247 1_555
Cu0 Cu2 2.523247 1_555
Cu0 Cu3 2.523247 1_555
Cu0 Sc0 2.944330 1_565
Cu0 Sc0 2.944330 1_655
Cu0 Sc0 2.944330 1_665
Cu0 Sn0 2.946738 1_555
Cu0 Sn0 2.946738 1_655
Cu0 Sn0 2.946738 1_565
Cu1 Cu2 2.500659 1_645
Cu1 Cu3 2.500659 1_545
Cu1 Cu2 2.523247 1_555
Cu1 Cu3 2.523247 1_555
Cu1 Sc0 2.944330 1_655
Cu1 Sc0 2.944330 1_556
Cu1 Sc0 2.944330 1_656
Cu1 Sn0 2.946738 1_555
Cu1 Sn0 2.946738 1_655
Cu1 Sn0 2.946738 1_556
Cu2 Cu3 2.500659 1_455
Cu2 Cu3 2.523247 1_555
Cu2 Sc0 2.944330 1_556
Cu2 Sc0 2.944330 1_565
Cu2 Sc0 2.944330 1_566
Cu2 Sn0 2.946738 1_555
Cu2 Sn0 2.946738 1_565
Cu2 Sn0 2.946738 1_556
Cu3 Sc0 2.944330 1_665
Cu3 Sc0 2.944330 1_656
Cu3 Sc0 2.944330 1_566
Cu3 Sn0 2.946738 1_565
Cu3 Sn0 2.946738 1_655
Cu3 Sn0 2.946738 1_556
