# generated using pymatgen
data_Tm2NiSn6
_symmetry_space_group_name_H-M   'P 1'
_cell_length_a   11.48096017
_cell_length_b   11.48096017
_cell_length_c   4.35857991
_cell_angle_alpha   90.00000000
_cell_angle_beta   90.00000000
_cell_angle_gamma   158.33893749
_symmetry_Int_Tables_number   1
_chemical_formula_structural   Tm2NiSn6
_chemical_formula_sum   'Tm2 Ni1 Sn6'
_cell_volume   212.06227508
_cell_formula_units_Z   1
loop_
 _symmetry_equiv_pos_site_id
 _symmetry_equiv_pos_as_xyz
  1  'x, y, z'
loop_
 _atom_site_type_symbol
 _atom_site_label
 _atom_site_symmetry_multiplicity
 _atom_site_fract_x
 _atom_site_fract_y
 _atom_site_fract_z
 _atom_site_occupancy
  Tm  Tm0  1  0.17714140  0.82285860  -0.00000000  1
  Tm  Tm1  1  0.82285860  0.17714140  -0.00000000  1
  Ni  Ni0  1  0.50000000  0.50000000  0.50000000  1
  Sn  Sn0  1  0.43032017  0.56967983  -0.00000000  1
  Sn  Sn1  1  0.56967983  0.43032017  -0.00000000  1
  Sn  Sn2  1  0.07018338  0.92981662  0.50000000  1
  Sn  Sn3  1  0.92981662  0.07018338  0.50000000  1
  Sn  Sn4  1  0.70574272  0.29425728  0.50000000  1
  Sn  Sn5  1  0.29425728  0.70574272  0.50000000  1
loop_
_geom_bond_atom_site_label_1
_geom_bond_atom_site_label_2
_geom_bond_distance
_geom_bond_site_symmetry_2
Ni0 Sn3 2.675713 1_565
Ni0 Sn2 2.675713 1_545
Ni0 Sn3 2.675713 1_455
Ni0 Sn2 2.675713 1_655
Ni0 Sn0 2.686794 1_555
Ni0 Sn1 2.686794 1_555
Ni0 Sn0 2.686794 1_556
Ni0 Sn1 2.686794 1_556
Sn0 Tm1 3.244650 1_455
Sn0 Tm1 3.244650 1_565
Sn1 Tm0 3.244650 1_545
Sn1 Tm0 3.244650 1_655
Sn2 Tm0 3.250859 1_555
Sn2 Tm0 3.250859 1_556
Sn3 Tm1 3.250859 1_556
Sn3 Tm1 3.250859 1_555
Sn4 Sn5 2.939237 1_545
Sn4 Sn5 2.939237 1_655
Sn4 Tm0 3.133599 1_655
Sn4 Tm0 3.133599 1_656
Sn4 Tm0 3.133599 1_545
Sn4 Tm0 3.133599 1_546
Sn4 Tm1 3.424294 1_555
Sn4 Tm1 3.424294 1_556
Sn5 Tm1 3.133599 1_566
Sn5 Tm1 3.133599 1_565
Sn5 Tm1 3.133599 1_456
Sn5 Tm1 3.133599 1_455
Sn5 Tm0 3.424294 1_555
Sn5 Tm0 3.424294 1_556
