# generated using pymatgen
data_Li9Mn2Co5O16
_symmetry_space_group_name_H-M   'P 1'
_cell_length_a   5.15756200
_cell_length_b   5.83516385
_cell_length_c   10.19098023
_cell_angle_alpha   89.69066025
_cell_angle_beta   99.08916623
_cell_angle_gamma   106.69566659
_symmetry_Int_Tables_number   1
_chemical_formula_structural   Li9Mn2Co5O16
_chemical_formula_sum   'Li9 Mn2 Co5 O16'
_cell_volume   289.82261638
_cell_formula_units_Z   1
loop_
 _symmetry_equiv_pos_site_id
 _symmetry_equiv_pos_as_xyz
  1  'x, y, z'
loop_
 _atom_site_type_symbol
 _atom_site_label
 _atom_site_symmetry_multiplicity
 _atom_site_fract_x
 _atom_site_fract_y
 _atom_site_fract_z
 _atom_site_occupancy
  Li  Li0  1  0.49504700  0.87615400  0.13507600  1
  Li  Li1  1  0.51260300  0.12996300  0.38181700  1
  Li  Li2  1  0.49195600  0.37211800  0.61775300  1
  Li  Li3  1  0.51109800  0.62535100  0.86836400  1
  Li  Li4  1  0.48890200  0.37464900  0.13163600  1
  Li  Li5  1  0.50804400  0.62788200  0.38224700  1
  Li  Li6  1  0.48739700  0.87003700  0.61818300  1
  Li  Li7  1  0.50495300  0.12384600  0.86492400  1
  Li  Li8  1  0.00000000  0.50000000  0.50000000  1
  Mn  Mn0  1  0.00000000  0.00000000  0.00000000  1
  Mn  Mn1  1  0.00000000  0.50000000  0.00000000  1
  Co  Co0  1  0.01257900  0.25618900  0.26526600  1
  Co  Co1  1  0.98742100  0.74381100  0.73473400  1
  Co  Co2  1  0.99384100  0.74328800  0.26029000  1
  Co  Co3  1  0.00000000  0.00000000  0.50000000  1
  Co  Co4  1  0.00615900  0.25671200  0.73971000  1
  O  O0  1  0.77867900  0.69447100  0.05362600  1
  O  O1  1  0.76004700  0.94335900  0.31281400  1
  O  O2  1  0.77364100  0.17421400  0.56573600  1
  O  O3  1  0.77759000  0.44241200  0.82480100  1
  O  O4  1  0.78503500  0.19441000  0.05913000  1
  O  O5  1  0.76056800  0.44820000  0.29994600  1
  O  O6  1  0.76013200  0.68896100  0.57399200  1
  O  O7  1  0.78709200  0.95318300  0.82358800  1
  O  O8  1  0.21290800  0.04681700  0.17641200  1
  O  O9  1  0.23986800  0.31103900  0.42600800  1
  O  O10  1  0.23943200  0.55180000  0.70005400  1
  O  O11  1  0.21496500  0.80559000  0.94087000  1
  O  O12  1  0.22241000  0.55758800  0.17519900  1
  O  O13  1  0.22635900  0.82578600  0.43426400  1
  O  O14  1  0.23995300  0.05664100  0.68718600  1
  O  O15  1  0.22132100  0.30552900  0.94637400  1
loop_
_geom_bond_atom_site_label_1
_geom_bond_atom_site_label_2
_geom_bond_distance
_geom_bond_site_symmetry_2
Li0 O1 2.054324 1_555
Li0 O12 2.066753 1_555
Li0 O8 2.077846 1_565
Li0 O11 2.221947 1_554
Li0 O4 2.244768 1_565
Li0 O0 2.288460 1_555
Li1 O13 2.085429 1_545
Li1 O9 2.087380 1_555
Li1 O1 2.097399 1_545
Li1 O2 2.097744 1_555
Li1 O5 2.176207 1_555
Li1 O8 2.358856 1_555
Li2 O6 2.060779 1_555
Li2 O14 2.116717 1_555
Li2 O9 2.138788 1_555
Li2 O10 2.153661 1_555
Li2 O2 2.222415 1_555
Li2 O3 2.338963 1_555
Li3 O10 1.998141 1_555
Li3 O3 2.065582 1_555
Li3 O0 2.120612 1_556
Li3 O7 2.127218 1_555
Li3 O15 2.259476 1_555
Li3 O11 2.296243 1_555
Li4 O5 1.998141 1_555
Li4 O12 2.065582 1_555
Li4 O15 2.120612 1_554
Li4 O8 2.127218 1_555
Li4 O0 2.259476 1_555
Li4 O4 2.296243 1_555
Li5 O9 2.060779 1_555
Li5 O1 2.116717 1_555
Li5 O6 2.138788 1_555
Li5 O5 2.153661 1_555
Li5 O13 2.222415 1_555
Li5 O12 2.338963 1_555
Li6 O2 2.085429 1_565
Li6 O6 2.087380 1_555
Li6 O14 2.097399 1_565
Li6 O13 2.097744 1_555
Li6 O10 2.176207 1_555
Li6 O7 2.358856 1_555
Li7 O14 2.054324 1_555
Li7 O3 2.066753 1_555
Li7 O7 2.077846 1_545
Li7 O4 2.221947 1_556
Li7 O11 2.244768 1_545
Li7 O15 2.288460 1_555
Li8 O2 2.093744 1_455
Li8 O13 2.093744 1_555
Li8 O6 2.098176 1_455
Li8 O9 2.098176 1_555
Li8 O5 2.183931 1_455
Li8 O10 2.183931 1_555
Mn0 O7 1.929189 1_444
Mn0 O8 1.929189 1_555
Mn0 O15 1.948676 1_554
Mn0 O0 1.948676 1_445
Mn0 O4 1.954568 1_455
Mn0 O11 1.954568 1_544
Mn1 O12 1.937653 1_555
Mn1 O3 1.937653 1_454
Mn1 O4 1.958457 1_455
Mn1 O11 1.958457 1_554
Mn1 O0 1.958923 1_455
Mn1 O15 1.958923 1_554
Co0 O9 1.828507 1_555
Co0 O5 2.013894 1_455
Co0 O1 2.021657 1_445
Co0 O12 2.075948 1_555
Co0 O8 2.100687 1_555
Co0 O4 2.215055 1_455
Co1 O6 1.828507 1_555
Co1 O10 2.013894 1_655
Co1 O14 2.021657 1_665
Co1 O3 2.075948 1_555
Co1 O7 2.100687 1_555
Co1 O11 2.215055 1_655
Co2 O5 1.879230 1_555
Co2 O13 1.954239 1_655
Co2 O1 2.030499 1_555
Co2 O8 2.069584 1_665
Co2 O12 2.093544 1_655
Co2 O0 2.198803 1_555
Co3 O2 1.944613 1_455
Co3 O13 1.944613 1_545
Co3 O1 2.075019 1_445
Co3 O14 2.075019 1_555
Co3 O6 2.093565 1_445
Co3 O9 2.093565 1_555
Co4 O10 1.879230 1_555
Co4 O2 1.954239 1_455
Co4 O14 2.030499 1_555
Co4 O7 2.069584 1_445
Co4 O3 2.093544 1_455
Co4 O15 2.198803 1_555
