# generated using pymatgen
data_BaMg30CuO32
_symmetry_space_group_name_H-M   'P 1'
_cell_length_a   8.68910200
_cell_length_b   8.68910200
_cell_length_c   8.58058000
_cell_angle_alpha   90.00000000
_cell_angle_beta   90.00000000
_cell_angle_gamma   90.00000000
_symmetry_Int_Tables_number   1
_chemical_formula_structural   BaMg30CuO32
_chemical_formula_sum   'Ba1 Mg30 Cu1 O32'
_cell_volume   647.83802509
_cell_formula_units_Z   1
loop_
 _symmetry_equiv_pos_site_id
 _symmetry_equiv_pos_as_xyz
  1  'x, y, z'
loop_
 _atom_site_type_symbol
 _atom_site_label
 _atom_site_symmetry_multiplicity
 _atom_site_fract_x
 _atom_site_fract_y
 _atom_site_fract_z
 _atom_site_occupancy
  Ba  Ba0  1  0.00000000  0.00000000  0.50000000  1
  Mg  Mg0  1  0.50000000  0.00000000  0.00000000  1
  Mg  Mg1  1  0.50000000  0.00000000  0.50000000  1
  Mg  Mg2  1  0.00000000  0.50000000  0.00000000  1
  Mg  Mg3  1  0.00000000  0.50000000  0.50000000  1
  Mg  Mg4  1  0.50000000  0.50000000  0.00000000  1
  Mg  Mg5  1  0.50000000  0.50000000  0.50000000  1
  Mg  Mg6  1  0.25895700  0.00000000  0.24208900  1
  Mg  Mg7  1  0.25895700  0.00000000  0.75791100  1
  Mg  Mg8  1  0.74104300  0.00000000  0.24208900  1
  Mg  Mg9  1  0.74104300  0.00000000  0.75791100  1
  Mg  Mg10  1  0.25059500  0.50000000  0.24900300  1
  Mg  Mg11  1  0.25059500  0.50000000  0.75099700  1
  Mg  Mg12  1  0.74940500  0.50000000  0.24900300  1
  Mg  Mg13  1  0.74940500  0.50000000  0.75099700  1
  Mg  Mg14  1  0.00000000  0.25895700  0.24208900  1
  Mg  Mg15  1  0.00000000  0.25895700  0.75791100  1
  Mg  Mg16  1  0.50000000  0.25059500  0.24900300  1
  Mg  Mg17  1  0.50000000  0.25059500  0.75099700  1
  Mg  Mg18  1  0.00000000  0.74104300  0.24208900  1
  Mg  Mg19  1  0.00000000  0.74104300  0.75791100  1
  Mg  Mg20  1  0.50000000  0.74940500  0.24900300  1
  Mg  Mg21  1  0.50000000  0.74940500  0.75099700  1
  Mg  Mg22  1  0.24939600  0.24939600  0.00000000  1
  Mg  Mg23  1  0.25736800  0.25736800  0.50000000  1
  Mg  Mg24  1  0.75060400  0.24939600  0.00000000  1
  Mg  Mg25  1  0.74263200  0.25736800  0.50000000  1
  Mg  Mg26  1  0.24939600  0.75060400  0.00000000  1
  Mg  Mg27  1  0.25736800  0.74263200  0.50000000  1
  Mg  Mg28  1  0.75060400  0.75060400  0.00000000  1
  Mg  Mg29  1  0.74263200  0.74263200  0.50000000  1
  Cu  Cu0  1  0.00000000  0.00000000  0.00000000  1
  O  O0  1  0.00000000  0.26297600  0.00000000  1
  O  O1  1  0.00000000  0.27836800  0.50000000  1
  O  O2  1  0.50000000  0.25196300  0.00000000  1
  O  O3  1  0.50000000  0.25565200  0.50000000  1
  O  O4  1  0.00000000  0.73702400  0.00000000  1
  O  O5  1  0.00000000  0.72163200  0.50000000  1
  O  O6  1  0.50000000  0.74803700  0.00000000  1
  O  O7  1  0.50000000  0.74434800  0.50000000  1
  O  O8  1  0.24854800  0.24854800  0.25066800  1
  O  O9  1  0.24854800  0.24854800  0.74933200  1
  O  O10  1  0.75145200  0.24854800  0.25066800  1
  O  O11  1  0.75145200  0.24854800  0.74933200  1
  O  O12  1  0.24854800  0.75145200  0.25066800  1
  O  O13  1  0.24854800  0.75145200  0.74933200  1
  O  O14  1  0.75145200  0.75145200  0.25066800  1
  O  O15  1  0.75145200  0.75145200  0.74933200  1
  O  O16  1  0.00000000  0.00000000  0.21784600  1
  O  O17  1  0.00000000  0.00000000  0.78215400  1
  O  O18  1  0.50000000  0.00000000  0.24575900  1
  O  O19  1  0.50000000  0.00000000  0.75424100  1
  O  O20  1  0.00000000  0.50000000  0.24575900  1
  O  O21  1  0.00000000  0.50000000  0.75424100  1
  O  O22  1  0.50000000  0.50000000  0.24913600  1
  O  O23  1  0.50000000  0.50000000  0.75086400  1
  O  O24  1  0.26297600  0.00000000  0.00000000  1
  O  O25  1  0.27836800  0.00000000  0.50000000  1
  O  O26  1  0.73702400  0.00000000  0.00000000  1
  O  O27  1  0.72163200  0.00000000  0.50000000  1
  O  O28  1  0.25196300  0.50000000  0.00000000  1
  O  O29  1  0.25565200  0.50000000  0.50000000  1
  O  O30  1  0.74803700  0.50000000  0.00000000  1
  O  O31  1  0.74434800  0.50000000  0.50000000  1
loop_
_geom_bond_atom_site_label_1
_geom_bond_atom_site_label_2
_geom_bond_distance
_geom_bond_site_symmetry_2
Ba0 O5 2.418768 1_545
Ba0 O27 2.418768 1_455
Ba0 O25 2.418768 1_555
Ba0 O1 2.418768 1_555
Ba0 O16 2.421045 1_555
Ba0 O17 2.421045 1_555
Mg0 O24 2.059526 1_555
Mg0 O26 2.059526 1_555
Mg0 O19 2.108755 1_554
Mg0 O18 2.108755 1_555
Mg0 O2 2.189332 1_555
Mg0 O6 2.189332 1_545
Mg1 O25 1.925783 1_555
Mg1 O27 1.925783 1_555
Mg1 O18 2.181535 1_555
Mg1 O19 2.181535 1_555
Mg1 O3 2.221386 1_555
Mg1 O7 2.221386 1_545
Mg2 O0 2.059526 1_555
Mg2 O4 2.059526 1_555
Mg2 O21 2.108755 1_554
Mg2 O20 2.108755 1_555
Mg2 O28 2.189332 1_555
Mg2 O30 2.189332 1_455
Mg3 O1 1.925783 1_555
Mg3 O5 1.925783 1_555
Mg3 O20 2.181535 1_555
Mg3 O21 2.181535 1_555
Mg3 O31 2.221386 1_455
Mg3 O29 2.221386 1_555
Mg4 O22 2.137731 1_555
Mg4 O23 2.137731 1_554
Mg4 O30 2.155219 1_555
Mg4 O6 2.155219 1_555
Mg4 O2 2.155219 1_555
Mg4 O28 2.155219 1_555
Mg5 O3 2.123165 1_555
Mg5 O29 2.123165 1_555
Mg5 O7 2.123165 1_555
Mg5 O31 2.123165 1_555
Mg5 O22 2.152559 1_555
Mg5 O23 2.152559 1_555
Mg6 O24 2.077558 1_555
Mg6 O18 2.094684 1_555
Mg6 O12 2.162805 1_545
Mg6 O8 2.162805 1_555
Mg6 O25 2.219444 1_555
Mg6 O16 2.259699 1_555
Mg7 O24 2.077558 1_556
Mg7 O19 2.094684 1_555
Mg7 O9 2.162805 1_555
Mg7 O13 2.162805 1_545
Mg7 O25 2.219444 1_555
Mg7 O17 2.259699 1_555
Mg8 O26 2.077558 1_555
Mg8 O18 2.094684 1_555
Mg8 O14 2.162805 1_545
Mg8 O10 2.162805 1_555
Mg8 O27 2.219444 1_555
Mg8 O16 2.259699 1_655
Mg9 O26 2.077558 1_556
Mg9 O19 2.094684 1_555
Mg9 O15 2.162805 1_545
Mg9 O11 2.162805 1_555
Mg9 O27 2.219444 1_555
Mg9 O17 2.259699 1_655
Mg10 O28 2.136623 1_555
Mg10 O29 2.154148 1_555
Mg10 O22 2.167106 1_555
Mg10 O20 2.177623 1_555
Mg10 O12 2.185011 1_555
Mg10 O8 2.185011 1_555
Mg11 O28 2.136623 1_556
Mg11 O29 2.154148 1_555
Mg11 O23 2.167106 1_555
Mg11 O21 2.177623 1_555
Mg11 O9 2.185011 1_555
Mg11 O13 2.185011 1_555
Mg12 O30 2.136623 1_555
Mg12 O31 2.154148 1_555
Mg12 O22 2.167106 1_555
Mg12 O20 2.177623 1_655
Mg12 O10 2.185011 1_555
Mg12 O14 2.185011 1_555
Mg13 O30 2.136623 1_556
Mg13 O31 2.154148 1_555
Mg13 O23 2.167106 1_555
Mg13 O21 2.177623 1_655
Mg13 O11 2.185011 1_555
Mg13 O15 2.185011 1_555
Mg14 O0 2.077558 1_555
Mg14 O20 2.094684 1_555
Mg14 O10 2.162805 1_455
Mg14 O8 2.162805 1_555
Mg14 O1 2.219444 1_555
Mg14 O16 2.259699 1_555
Mg15 O0 2.077558 1_556
Mg15 O21 2.094684 1_555
Mg15 O9 2.162805 1_555
Mg15 O11 2.162805 1_455
Mg15 O1 2.219444 1_555
Mg15 O17 2.259699 1_555
Mg16 O2 2.136623 1_555
Mg16 O3 2.154148 1_555
Mg16 O22 2.167106 1_555
Mg16 O18 2.177623 1_555
Mg16 O10 2.185011 1_555
Mg16 O8 2.185011 1_555
Mg17 O2 2.136623 1_556
Mg17 O3 2.154148 1_555
Mg17 O23 2.167106 1_555
Mg17 O19 2.177623 1_555
Mg17 O11 2.185011 1_555
Mg17 O9 2.185011 1_555
Mg18 O4 2.077558 1_555
Mg18 O20 2.094684 1_555
Mg18 O14 2.162805 1_455
Mg18 O12 2.162805 1_555
Mg18 O5 2.219444 1_555
Mg18 O16 2.259699 1_565
Mg19 O4 2.077558 1_556
Mg19 O21 2.094684 1_555
Mg19 O15 2.162805 1_455
Mg19 O13 2.162805 1_555
Mg19 O5 2.219444 1_555
Mg19 O17 2.259699 1_565
Mg20 O6 2.136623 1_555
Mg20 O7 2.154148 1_555
Mg20 O22 2.167106 1_555
Mg20 O18 2.177623 1_565
Mg20 O12 2.185011 1_555
Mg20 O14 2.185011 1_555
Mg21 O6 2.136623 1_556
Mg21 O7 2.154148 1_555
Mg21 O23 2.167106 1_555
Mg21 O19 2.177623 1_565
Mg21 O15 2.185011 1_555
Mg21 O13 2.185011 1_555
Mg22 O8 2.150902 1_555
Mg22 O9 2.150902 1_554
Mg22 O0 2.170237 1_555
Mg22 O24 2.170237 1_555
Mg22 O28 2.177638 1_555
Mg22 O2 2.177638 1_555
Mg23 O29 2.108307 1_555
Mg23 O3 2.108307 1_555
Mg23 O8 2.142157 1_555
Mg23 O9 2.142157 1_555
Mg23 O25 2.243729 1_555
Mg23 O1 2.243729 1_555
Mg24 O10 2.150902 1_555
Mg24 O11 2.150902 1_554
Mg24 O0 2.170237 1_655
Mg24 O26 2.170237 1_555
Mg24 O30 2.177638 1_555
Mg24 O2 2.177638 1_555
Mg25 O3 2.108307 1_555
Mg25 O31 2.108307 1_555
Mg25 O10 2.142157 1_555
Mg25 O11 2.142157 1_555
Mg25 O27 2.243729 1_555
Mg25 O1 2.243729 1_655
Mg26 O13 2.150902 1_554
Mg26 O12 2.150902 1_555
Mg26 O24 2.170237 1_565
Mg26 O4 2.170237 1_555
Mg26 O28 2.177638 1_555
Mg26 O6 2.177638 1_555
Mg27 O29 2.108307 1_555
Mg27 O7 2.108307 1_555
Mg27 O13 2.142157 1_555
Mg27 O12 2.142157 1_555
Mg27 O5 2.243729 1_555
Mg27 O25 2.243729 1_565
Mg28 O15 2.150902 1_554
Mg28 O14 2.150902 1_555
Mg28 O26 2.170237 1_565
Mg28 O4 2.170237 1_655
Mg28 O30 2.177638 1_555
Mg28 O6 2.177638 1_555
Mg29 O31 2.108307 1_555
Mg29 O7 2.108307 1_555
Mg29 O14 2.142157 1_555
Mg29 O15 2.142157 1_555
Mg29 O5 2.243729 1_655
Mg29 O27 2.243729 1_565
Cu0 O17 1.869245 1_554
Cu0 O16 1.869245 1_555
Cu0 O0 2.285025 1_555
Cu0 O26 2.285025 1_455
Cu0 O24 2.285025 1_555
Cu0 O4 2.285025 1_545
