# generated using pymatgen
data_Li9Mn2Co5O16
_symmetry_space_group_name_H-M   'P 1'
_cell_length_a   5.77771300
_cell_length_b   5.83258119
_cell_length_c   9.74946174
_cell_angle_alpha   97.33892917
_cell_angle_beta   91.32864942
_cell_angle_gamma   118.46898334
_symmetry_Int_Tables_number   1
_chemical_formula_structural   Li9Mn2Co5O16
_chemical_formula_sum   'Li9 Mn2 Co5 O16'
_cell_volume   285.11641764
_cell_formula_units_Z   1
loop_
 _symmetry_equiv_pos_site_id
 _symmetry_equiv_pos_as_xyz
  1  'x, y, z'
loop_
 _atom_site_type_symbol
 _atom_site_label
 _atom_site_symmetry_multiplicity
 _atom_site_fract_x
 _atom_site_fract_y
 _atom_site_fract_z
 _atom_site_occupancy
  Li  Li0  1  0.13332100  0.25982200  0.75422900  1
  Li  Li1  1  0.38545300  0.26272500  0.24826000  1
  Li  Li2  1  0.62326400  0.25289200  0.75192100  1
  Li  Li3  1  0.61454700  0.73727500  0.75174000  1
  Li  Li4  1  0.86667900  0.74017800  0.24577100  1
  Li  Li5  1  0.11832800  0.74893200  0.75456400  1
  Li  Li6  1  0.88167200  0.25106800  0.24543600  1
  Li  Li7  1  0.37673600  0.74710800  0.24807900  1
  Li  Li8  1  0.50000000  0.50000000  0.00000000  1
  Mn  Mn0  1  0.00000000  0.00000000  0.00000000  1
  Mn  Mn1  1  0.50000000  0.00000000  0.00000000  1
  Co  Co0  1  0.24991700  0.00009500  0.49985600  1
  Co  Co1  1  0.75008300  0.99990500  0.50014400  1
  Co  Co2  1  0.75081300  0.49988000  0.50022500  1
  Co  Co3  1  0.00000000  0.50000000  0.00000000  1
  Co  Co4  1  0.24918700  0.50012000  0.49977500  1
  O  O0  1  0.79061200  0.09269200  0.88225300  1
  O  O1  1  0.07447800  0.12877800  0.38556800  1
  O  O2  1  0.29987400  0.11103400  0.88774400  1
  O  O3  1  0.30373700  0.64384000  0.89468200  1
  O  O4  1  0.56973000  0.62471200  0.38163900  1
  O  O5  1  0.83615500  0.64512800  0.89323900  1
  O  O6  1  0.57415600  0.12815100  0.38523200  1
  O  O7  1  0.07073900  0.62681600  0.38280700  1
  O  O8  1  0.43027000  0.37528800  0.61836100  1
  O  O9  1  0.69626300  0.35616000  0.10531800  1
  O  O10  1  0.92926100  0.37318400  0.61719300  1
  O  O11  1  0.92552200  0.87122200  0.61443200  1
  O  O12  1  0.20938800  0.90730800  0.11774700  1
  O  O13  1  0.42584400  0.87184900  0.61476800  1
  O  O14  1  0.16384500  0.35487200  0.10676100  1
  O  O15  1  0.70012600  0.88896600  0.11225600  1
loop_
_geom_bond_atom_site_label_1
_geom_bond_atom_site_label_2
_geom_bond_distance
_geom_bond_site_symmetry_2
Li0 O8 2.093690 1_555
Li0 O2 2.097666 1_555
Li0 O10 2.123208 1_455
Li0 O3 2.216469 1_555
Li0 O11 2.230889 1_445
Li0 O0 2.239226 1_455
Li1 O12 2.051067 1_545
Li1 O4 2.091295 1_555
Li1 O14 2.143582 1_555
Li1 O6 2.145743 1_555
Li1 O1 2.161280 1_555
Li1 O9 2.200230 1_555
Li2 O8 2.092276 1_555
Li2 O10 2.122230 1_555
Li2 O0 2.128425 1_555
Li2 O13 2.186699 1_545
Li2 O2 2.202274 1_555
Li2 O5 2.253531 1_555
Li3 O0 2.051067 1_565
Li3 O8 2.091295 1_555
Li3 O5 2.143582 1_555
Li3 O13 2.145743 1_555
Li3 O11 2.161280 1_555
Li3 O3 2.200230 1_555
Li4 O4 2.093690 1_555
Li4 O15 2.097666 1_555
Li4 O7 2.123208 1_655
Li4 O9 2.216469 1_555
Li4 O1 2.230889 1_665
Li4 O12 2.239226 1_655
Li5 O3 2.039974 1_555
Li5 O5 2.054926 1_455
Li5 O2 2.090673 1_565
Li5 O11 2.133569 1_455
Li5 O13 2.162388 1_555
Li5 O10 2.165621 1_455
Li6 O9 2.039974 1_555
Li6 O14 2.054926 1_655
Li6 O15 2.090673 1_545
Li6 O1 2.133569 1_655
Li6 O6 2.162388 1_555
Li6 O7 2.165621 1_655
Li7 O4 2.092276 1_555
Li7 O7 2.122230 1_555
Li7 O12 2.128425 1_555
Li7 O6 2.186699 1_565
Li7 O15 2.202274 1_555
Li7 O14 2.253531 1_555
Li8 O9 2.029053 1_555
Li8 O3 2.029053 1_554
Li8 O5 2.079317 1_554
Li8 O14 2.079317 1_555
Li8 O15 2.118432 1_555
Li8 O2 2.118432 1_554
Mn0 O12 1.947151 1_545
Mn0 O0 1.947151 1_454
Mn0 O14 1.949251 1_555
Mn0 O5 1.949251 1_444
Mn0 O2 1.954056 1_554
Mn0 O15 1.954056 1_445
Mn1 O15 1.946906 1_545
Mn1 O2 1.946906 1_554
Mn1 O3 1.952125 1_544
Mn1 O9 1.952125 1_555
Mn1 O12 1.952414 1_545
Mn1 O0 1.952414 1_554
Co0 O1 1.928451 1_555
Co0 O13 1.932350 1_545
Co0 O7 2.067794 1_545
Co0 O6 2.071849 1_555
Co0 O11 2.072233 1_445
Co0 O8 2.081776 1_555
Co1 O11 1.928451 1_555
Co1 O6 1.932350 1_565
Co1 O10 2.067794 1_565
Co1 O13 2.071849 1_555
Co1 O1 2.072233 1_665
Co1 O4 2.081776 1_555
Co2 O10 1.948500 1_555
Co2 O4 1.961283 1_555
Co2 O11 2.048706 1_555
Co2 O6 2.053213 1_555
Co2 O7 2.070099 1_655
Co2 O8 2.077074 1_555
Co3 O5 1.907719 1_454
Co3 O14 1.907719 1_555
Co3 O9 1.933354 1_455
Co3 O3 1.933354 1_554
Co3 O12 2.219013 1_555
Co3 O0 2.219013 1_454
Co4 O7 1.948500 1_555
Co4 O8 1.961283 1_555
Co4 O1 2.048706 1_555
Co4 O13 2.053213 1_555
Co4 O10 2.070099 1_455
Co4 O4 2.077074 1_555
