# generated using pymatgen
data_CeSe2
_symmetry_space_group_name_H-M   'P 1'
_cell_length_a   7.06371464
_cell_length_b   7.14712243
_cell_length_c   13.52987612
_cell_angle_alpha   90.00000000
_cell_angle_beta   90.00000000
_cell_angle_gamma   90.00000000
_symmetry_Int_Tables_number   1
_chemical_formula_structural   CeSe2
_chemical_formula_sum   'Ce8 Se16'
_cell_volume   683.05895302
_cell_formula_units_Z   8
loop_
 _symmetry_equiv_pos_site_id
 _symmetry_equiv_pos_as_xyz
  1  'x, y, z'
loop_
 _atom_site_type_symbol
 _atom_site_label
 _atom_site_symmetry_multiplicity
 _atom_site_fract_x
 _atom_site_fract_y
 _atom_site_fract_z
 _atom_site_occupancy
  Ce  Ce0  1  0.86311429  0.05456375  0.64429868  1
  Ce  Ce1  1  0.13688571  0.44543625  0.14429868  1
  Ce  Ce2  1  0.63688571  0.55456375  0.35570132  1
  Ce  Ce3  1  0.36311429  0.94543625  0.85570132  1
  Ce  Ce4  1  0.13688571  0.94543625  0.35570132  1
  Ce  Ce5  1  0.86311429  0.55456375  0.85570132  1
  Ce  Ce6  1  0.36311429  0.44543625  0.64429868  1
  Ce  Ce7  1  0.63688571  0.05456375  0.14429868  1
  Se  Se0  1  0.69451730  0.34907522  0.53338598  1
  Se  Se1  1  0.30548270  0.15092478  0.03338598  1
  Se  Se2  1  0.80548270  0.84907522  0.46661402  1
  Se  Se3  1  0.19451730  0.65092478  0.96661402  1
  Se  Se4  1  0.30548270  0.65092478  0.46661402  1
  Se  Se5  1  0.69451730  0.84907522  0.96661402  1
  Se  Se6  1  0.19451730  0.15092478  0.53338598  1
  Se  Se7  1  0.80548270  0.34907522  0.03338598  1
  Se  Se8  1  0.60557014  0.74962864  0.71501259  1
  Se  Se9  1  0.39442986  0.75037136  0.21501259  1
  Se  Se10  1  0.89442986  0.24962864  0.28498741  1
  Se  Se11  1  0.10557014  0.25037136  0.78498741  1
  Se  Se12  1  0.39442986  0.25037136  0.28498741  1
  Se  Se13  1  0.60557014  0.24962864  0.78498741  1
  Se  Se14  1  0.10557014  0.75037136  0.71501259  1
  Se  Se15  1  0.89442986  0.74962864  0.21501259  1
loop_
_geom_bond_atom_site_label_1
_geom_bond_atom_site_label_2
_geom_bond_distance
_geom_bond_site_symmetry_2
Ce0 Se0 2.846198 1_555
Ce0 Se2 2.846423 1_545
Ce0 Se6 2.864647 1_655
Ce0 Se11 2.918037 1_655
Ce0 Se14 2.928347 1_645
Ce0 Se13 2.979351 1_555
Ce0 Se8 2.995788 1_545
Ce1 Se1 2.846198 1_555
Ce1 Se3 2.846423 1_554
Ce1 Se7 2.864647 1_455
Ce1 Se10 2.918037 1_455
Ce1 Se15 2.928347 1_455
Ce1 Se12 2.979351 1_555
Ce1 Se9 2.995788 1_555
Ce2 Se2 2.846198 1_555
Ce2 Se0 2.846423 1_555
Ce2 Se4 2.864647 1_555
Ce2 Se9 2.918037 1_555
Ce2 Se12 2.928347 1_555
Ce2 Se15 2.979351 1_555
Ce2 Se10 2.995788 1_555
Ce3 Se3 2.846198 1_555
Ce3 Se1 2.846423 1_566
Ce3 Se5 2.864647 1_555
Ce3 Se8 2.918037 1_555
Ce3 Se13 2.928347 1_565
Ce3 Se14 2.979351 1_555
Ce3 Se11 2.995788 1_565
Ce4 Se4 2.846198 1_555
Ce4 Se6 2.846423 1_565
Ce4 Se2 2.864647 1_455
Ce4 Se15 2.918037 1_455
Ce4 Se10 2.928347 1_465
Ce4 Se9 2.979351 1_555
Ce4 Se12 2.995788 1_565
Ce5 Se5 2.846198 1_555
Ce5 Se7 2.846423 1_556
Ce5 Se3 2.864647 1_655
Ce5 Se14 2.918037 1_655
Ce5 Se11 2.928347 1_655
Ce5 Se8 2.979351 1_555
Ce5 Se13 2.995788 1_555
Ce6 Se6 2.846198 1_555
Ce6 Se4 2.846423 1_555
Ce6 Se0 2.864647 1_555
Ce6 Se13 2.918037 1_555
Ce6 Se8 2.928347 1_555
Ce6 Se11 2.979351 1_555
Ce6 Se14 2.995788 1_555
Ce7 Se7 2.846198 1_555
Ce7 Se5 2.846423 1_544
Ce7 Se1 2.864647 1_555
Ce7 Se12 2.918037 1_555
Ce7 Se9 2.928347 1_545
Ce7 Se10 2.979351 1_555
Ce7 Se15 2.995788 1_545
