# generated using pymatgen
data_K
_symmetry_space_group_name_H-M   'P 1'
_cell_length_a   20.08363423
_cell_length_b   20.08363423
_cell_length_c   20.08363423
_cell_angle_alpha   109.47122063
_cell_angle_beta   109.47122063
_cell_angle_gamma   109.47122063
_symmetry_Int_Tables_number   1
_chemical_formula_structural   K
_chemical_formula_sum   K81
_cell_volume   6235.98438627
_cell_formula_units_Z   81
loop_
 _symmetry_equiv_pos_site_id
 _symmetry_equiv_pos_as_xyz
  1  'x, y, z'
loop_
 _atom_site_type_symbol
 _atom_site_label
 _atom_site_symmetry_multiplicity
 _atom_site_fract_x
 _atom_site_fract_y
 _atom_site_fract_z
 _atom_site_occupancy
  K  K0  1  0.00000000  0.00000000  0.00000000  1
  K  K1  1  0.09994881  0.50000000  0.59994881  1
  K  K2  1  0.90005119  0.50000000  0.40005119  1
  K  K3  1  0.50000000  0.59994881  0.09994881  1
  K  K4  1  0.50000000  0.40005119  0.90005119  1
  K  K5  1  0.59994881  0.09994881  0.50000000  1
  K  K6  1  0.40005119  0.90005119  0.50000000  1
  K  K7  1  0.30256483  0.50000000  0.80256483  1
  K  K8  1  0.69743517  0.50000000  0.19743517  1
  K  K9  1  0.50000000  0.80256483  0.30256483  1
  K  K10  1  0.50000000  0.19743517  0.69743517  1
  K  K11  1  0.80256483  0.30256483  0.50000000  1
  K  K12  1  0.19743517  0.69743517  0.50000000  1
  K  K13  1  -0.00000000  -0.00000000  0.62755547  1
  K  K14  1  0.62755547  -0.00000000  -0.00000000  1
  K  K15  1  0.00000000  0.62755547  0.00000000  1
  K  K16  1  0.37244453  0.37244453  0.37244453  1
  K  K17  1  0.00000000  0.00000000  0.37244453  1
  K  K18  1  0.37244453  0.00000000  0.00000000  1
  K  K19  1  -0.00000000  0.37244453  -0.00000000  1
  K  K20  1  0.62755547  0.62755547  0.62755547  1
  K  K21  1  0.15873395  0.06082563  0.90209168  1
  K  K22  1  0.84126605  0.93917437  0.09790832  1
  K  K23  1  0.84126605  0.74335772  0.90209168  1
  K  K24  1  0.15873395  0.25664228  0.09790832  1
  K  K25  1  0.06082563  0.90209168  0.15873395  1
  K  K26  1  0.93917437  0.09790832  0.84126605  1
  K  K27  1  0.74335772  0.90209168  0.84126605  1
  K  K28  1  0.25664228  0.09790832  0.15873395  1
  K  K29  1  0.90209168  0.15873395  0.06082563  1
  K  K30  1  0.09790832  0.84126605  0.93917437  1
  K  K31  1  0.90209168  0.84126605  0.74335772  1
  K  K32  1  0.09790832  0.15873395  0.25664228  1
  K  K33  1  0.30804519  0.12282254  0.81477735  1
  K  K34  1  0.69195481  0.87717746  0.18522265  1
  K  K35  1  0.69195481  0.50673216  0.81477735  1
  K  K36  1  0.30804519  0.49326784  0.18522265  1
  K  K37  1  0.12282254  0.81477735  0.30804519  1
  K  K38  1  0.87717746  0.18522265  0.69195481  1
  K  K39  1  0.50673216  0.81477735  0.69195481  1
  K  K40  1  0.49326784  0.18522265  0.30804519  1
  K  K41  1  0.81477735  0.30804519  0.12282254  1
  K  K42  1  0.18522265  0.69195481  0.87717746  1
  K  K43  1  0.81477735  0.69195481  0.50673216  1
  K  K44  1  0.18522265  0.30804519  0.49326784  1
  K  K45  1  0.12755715  0.82528012  0.69772297  1
  K  K46  1  0.87244285  0.17471988  0.30227703  1
  K  K47  1  0.87244285  0.57016581  0.69772297  1
  K  K48  1  0.12755715  0.42983419  0.30227703  1
  K  K49  1  0.82528012  0.69772297  0.12755715  1
  K  K50  1  0.17471988  0.30227703  0.87244285  1
  K  K51  1  0.57016581  0.69772297  0.87244285  1
  K  K52  1  0.42983419  0.30227703  0.12755715  1
  K  K53  1  0.69772297  0.12755715  0.82528012  1
  K  K54  1  0.30227703  0.87244285  0.17471988  1
  K  K55  1  0.69772297  0.87244285  0.57016581  1
  K  K56  1  0.30227703  0.12755715  0.42983419  1
  K  K57  1  0.24729535  0.21158815  0.65460592  1
  K  K58  1  0.44301778  0.78841185  0.03570720  1
  K  K59  1  0.75270465  0.40731058  0.96429280  1
  K  K60  1  0.55698222  0.59268942  0.34539408  1
  K  K61  1  0.21158815  0.65460592  0.24729535  1
  K  K62  1  0.78841185  0.03570720  0.44301778  1
  K  K63  1  0.40731058  0.96429280  0.75270465  1
  K  K64  1  0.59268942  0.34539408  0.55698222  1
  K  K65  1  0.65460592  0.24729535  0.21158815  1
  K  K66  1  0.03570720  0.44301778  0.78841185  1
  K  K67  1  0.96429280  0.75270465  0.40731058  1
  K  K68  1  0.34539408  0.55698222  0.59268942  1
  K  K69  1  0.75270465  0.78841185  0.34539408  1
  K  K70  1  0.55698222  0.21158815  0.96429280  1
  K  K71  1  0.24729535  0.59268942  0.03570720  1
  K  K72  1  0.44301778  0.40731058  0.65460592  1
  K  K73  1  0.78841185  0.34539408  0.75270465  1
  K  K74  1  0.21158815  0.96429280  0.55698222  1
  K  K75  1  0.59268942  0.03570720  0.24729535  1
  K  K76  1  0.40731058  0.65460592  0.44301778  1
  K  K77  1  0.34539408  0.75270465  0.78841185  1
  K  K78  1  0.96429280  0.55698222  0.21158815  1
  K  K79  1  0.03570720  0.24729535  0.59268942  1
  K  K80  1  0.65460592  0.44301778  0.40731058  1
loop_
_geom_bond_atom_site_label_1
_geom_bond_atom_site_label_2
_geom_bond_distance
_geom_bond_site_symmetry_2
K0 K25 4.325060 1_545
K0 K21 4.325060 1_554
K0 K26 4.325060 1_454
K0 K29 4.325060 1_455
K0 K22 4.325060 1_445
K0 K30 4.325060 1_544
K0 K24 4.325060 1_555
K0 K27 4.325060 1_444
K0 K31 4.325060 1_444
K0 K28 4.325060 1_555
K0 K32 4.325060 1_555
K0 K23 4.325060 1_444
K1 K2 4.635742 1_455
K1 K7 4.698784 1_555
K1 K79 4.739170 1_555
K1 K66 4.739170 1_555
K1 K77 4.739170 1_555
K1 K68 4.739170 1_555
K2 K8 4.698784 1_555
K2 K67 4.739170 1_555
K2 K78 4.739170 1_555
K2 K65 4.739170 1_555
K2 K80 4.739170 1_555
K3 K4 4.635742 1_554
K3 K9 4.698784 1_555
K3 K71 4.739170 1_555
K3 K58 4.739170 1_555
K3 K69 4.739170 1_555
K3 K60 4.739170 1_555
K4 K70 4.739170 1_555
K4 K59 4.739170 1_555
K4 K57 4.739170 1_555
K4 K72 4.739170 1_555
K5 K6 4.635742 1_545
K5 K75 4.739170 1_555
K5 K62 4.739170 1_555
K5 K73 4.739170 1_555
K5 K64 4.739170 1_555
K6 K63 4.739170 1_555
K6 K74 4.739170 1_555
K6 K61 4.739170 1_555
K6 K76 4.739170 1_555
K10 K4 4.698784 1_555
K11 K5 4.698784 1_555
K12 K6 4.698784 1_555
K13 K31 4.821951 1_445
K13 K26 4.821951 1_455
K13 K21 4.821951 1_555
K14 K27 4.821951 1_544
K14 K22 4.821951 1_545
K14 K29 4.821951 1_555
K15 K23 4.821951 1_454
K15 K30 4.821951 1_554
K15 K25 4.821951 1_555
K16 K32 4.821952 1_555
K16 K28 4.821952 1_555
K16 K24 4.821952 1_555
K17 K32 4.821951 1_555
K17 K25 4.821951 1_545
K17 K22 4.821951 1_445
K18 K28 4.821951 1_555
K18 K21 4.821951 1_554
K18 K30 4.821951 1_544
K19 K24 4.821951 1_555
K19 K29 4.821951 1_455
K19 K26 4.821951 1_454
K20 K23 4.821952 1_555
K20 K31 4.821952 1_555
K20 K27 4.821952 1_555
K21 K33 4.011209 1_555
K21 K24 4.541102 1_556
K21 K26 4.549273 1_455
K21 K30 4.549273 1_545
K21 K28 4.549273 1_556
K21 K31 4.549273 1_445
K22 K34 4.011209 1_555
K22 K23 4.541102 1_554
K22 K29 4.549273 1_565
K22 K25 4.549273 1_655
K22 K32 4.549273 1_665
K22 K27 4.549273 1_554
K23 K35 4.011209 1_555
K23 K30 4.549273 1_655
K23 K25 4.549273 1_656
K23 K27 4.549273 1_555
K23 K31 4.549273 1_555
K24 K36 4.011209 1_555
K24 K29 4.549273 1_455
K24 K26 4.549273 1_454
K24 K28 4.549273 1_555
K24 K32 4.549273 1_555
K25 K37 4.011209 1_555
K25 K28 4.541102 1_565
K25 K30 4.549273 1_554
K25 K32 4.549273 1_565
K26 K38 4.011209 1_555
K26 K27 4.541102 1_545
K26 K29 4.549273 1_556
K26 K31 4.549273 1_545
K27 K39 4.011209 1_555
K27 K29 4.549273 1_566
K27 K31 4.549273 1_555
K28 K40 4.011209 1_555
K28 K30 4.549273 1_544
K28 K32 4.549273 1_555
K29 K41 4.011209 1_555
K29 K32 4.541102 1_655
K30 K42 4.011209 1_555
K30 K31 4.541102 1_455
K31 K43 4.011209 1_555
K32 K44 4.011209 1_555
K33 K70 4.203736 1_555
K33 K57 4.203736 1_555
K33 K63 4.348321 1_545
K33 K74 4.348321 1_545
K34 K58 4.203736 1_555
K34 K69 4.203736 1_555
K34 K62 4.348321 1_565
K34 K75 4.348321 1_565
K35 K59 4.203736 1_555
K35 K72 4.203736 1_555
K35 K73 4.348321 1_555
K35 K64 4.348321 1_555
K36 K71 4.203736 1_555
K36 K60 4.203736 1_555
K36 K61 4.348321 1_555
K36 K76 4.348321 1_555
K37 K74 4.203736 1_555
K37 K61 4.203736 1_555
K37 K67 4.348321 1_455
K37 K78 4.348321 1_455
K38 K62 4.203736 1_555
K38 K73 4.203736 1_555
K38 K66 4.348321 1_655
K38 K79 4.348321 1_655
K39 K63 4.203736 1_555
K39 K76 4.203736 1_555
K39 K77 4.348321 1_555
K39 K68 4.348321 1_555
K40 K75 4.203736 1_555
K40 K64 4.203736 1_555
K40 K65 4.348321 1_555
K40 K80 4.348321 1_555
K41 K78 4.203736 1_555
K41 K65 4.203736 1_555
K41 K70 4.348321 1_554
K41 K59 4.348321 1_554
K42 K66 4.203736 1_555
K42 K77 4.203736 1_555
K42 K58 4.348321 1_556
K42 K71 4.348321 1_556
K43 K67 4.203736 1_555
K43 K80 4.203736 1_555
K43 K69 4.348321 1_555
K43 K60 4.348321 1_555
K44 K79 4.203736 1_555
K44 K68 4.203736 1_555
K44 K57 4.348321 1_555
K44 K72 4.348321 1_555
K57 K79 4.384265 1_555
K57 K74 4.384265 1_545
K57 K72 4.538917 1_555
K58 K77 4.384265 1_554
K58 K75 4.384265 1_565
K58 K71 4.538917 1_555
K59 K73 4.384265 1_555
K59 K78 4.384265 1_556
K59 K70 4.538917 1_555
K60 K76 4.384265 1_555
K60 K80 4.384265 1_555
K60 K69 4.538917 1_555
K61 K71 4.384265 1_555
K61 K78 4.384265 1_455
K61 K76 4.538917 1_555
K62 K69 4.384265 1_545
K62 K79 4.384265 1_655
K62 K75 4.538917 1_555
K63 K77 4.384265 1_555
K63 K70 4.384265 1_565
K63 K74 4.538917 1_555
K64 K80 4.384265 1_555
K64 K72 4.384265 1_555
K64 K73 4.538917 1_555
K65 K75 4.384265 1_555
K65 K70 4.384265 1_554
K65 K80 4.538917 1_555
K66 K73 4.384265 1_455
K66 K71 4.384265 1_556
K66 K79 4.538917 1_555
K67 K69 4.384265 1_555
K67 K74 4.384265 1_655
K67 K78 4.538917 1_555
K68 K72 4.384265 1_555
K68 K76 4.384265 1_555
K68 K77 4.538917 1_555
