# generated using pymatgen
data_ErInNi4
_symmetry_space_group_name_H-M   'P 1'
_cell_length_a   4.91309535
_cell_length_b   4.91309535
_cell_length_c   4.91309535
_cell_angle_alpha   60.00000000
_cell_angle_beta   60.00000000
_cell_angle_gamma   60.00000000
_symmetry_Int_Tables_number   1
_chemical_formula_structural   ErInNi4
_chemical_formula_sum   'Er1 In1 Ni4'
_cell_volume   83.85917409
_cell_formula_units_Z   1
loop_
 _symmetry_equiv_pos_site_id
 _symmetry_equiv_pos_as_xyz
  1  'x, y, z'
loop_
 _atom_site_type_symbol
 _atom_site_label
 _atom_site_symmetry_multiplicity
 _atom_site_fract_x
 _atom_site_fract_y
 _atom_site_fract_z
 _atom_site_occupancy
  Er  Er0  1  0.75000000  0.75000000  0.75000000  1
  In  In0  1  -0.00000000  0.00000000  -0.00000000  1
  Ni  Ni0  1  0.37403538  0.37403538  0.37403538  1
  Ni  Ni1  1  0.87789586  0.37403538  0.37403538  1
  Ni  Ni2  1  0.37403538  0.87789586  0.37403538  1
  Ni  Ni3  1  0.37403538  0.37403538  0.87789586  1
loop_
_geom_bond_atom_site_label_1
_geom_bond_atom_site_label_2
_geom_bond_distance
_geom_bond_site_symmetry_2
Er0 Ni3 2.882597 1_555
Er0 Ni1 2.882597 1_555
Er0 Ni2 2.882597 1_555
Er0 Ni0 2.882601 1_565
Er0 Ni0 2.882601 1_556
Er0 Ni0 2.882601 1_655
Er0 Ni3 2.882605 1_655
Er0 Ni3 2.882605 1_565
Er0 Ni2 2.882605 1_556
Er0 Ni1 2.882605 1_556
Er0 Ni2 2.882605 1_655
Er0 Ni1 2.882605 1_565
Er0 In0 3.008644 1_656
Er0 In0 3.008644 1_566
Er0 In0 3.008644 1_666
Er0 In0 3.008644 1_665
In0 Ni1 2.878555 1_454
In0 Ni1 2.878555 1_445
In0 Ni2 2.878555 1_544
In0 Ni2 2.878555 1_445
In0 Ni3 2.878555 1_544
In0 Ni3 2.878555 1_454
In0 Ni0 2.878559 1_554
In0 Ni0 2.878559 1_455
In0 Ni0 2.878559 1_545
In0 Ni1 2.878564 1_455
In0 Ni3 2.878564 1_554
In0 Ni2 2.878564 1_545
Ni0 Ni3 2.437581 1_554
Ni0 Ni2 2.437581 1_545
Ni0 Ni1 2.437581 1_455
Ni0 Ni3 2.475515 1_555
Ni0 Ni1 2.475515 1_555
Ni0 Ni2 2.475515 1_555
Ni1 Ni2 2.437581 1_645
Ni1 Ni3 2.437581 1_654
Ni1 Ni3 2.475515 1_555
Ni1 Ni2 2.475515 1_555
Ni2 Ni3 2.437581 1_564
Ni2 Ni3 2.475515 1_555
