# generated using pymatgen
data_Mg2Mn2O5
_symmetry_space_group_name_H-M   'P 1'
_cell_length_a   3.62635200
_cell_length_b   5.27354700
_cell_length_c   10.67796100
_cell_angle_alpha   90.00000000
_cell_angle_beta   90.00000000
_cell_angle_gamma   90.00000000
_symmetry_Int_Tables_number   1
_chemical_formula_structural   Mg2Mn2O5
_chemical_formula_sum   'Mg4 Mn4 O10'
_cell_volume   204.20252545
_cell_formula_units_Z   2
loop_
 _symmetry_equiv_pos_site_id
 _symmetry_equiv_pos_as_xyz
  1  'x, y, z'
loop_
 _atom_site_type_symbol
 _atom_site_label
 _atom_site_symmetry_multiplicity
 _atom_site_fract_x
 _atom_site_fract_y
 _atom_site_fract_z
 _atom_site_occupancy
  Mg  Mg0  1  0.50000000  0.25611800  0.90565100  1
  Mg  Mg1  1  0.50000000  0.74388200  0.09434900  1
  Mg  Mg2  1  0.50000000  0.75611800  0.59434900  1
  Mg  Mg3  1  0.50000000  0.24388200  0.40565100  1
  Mn  Mn0  1  0.00000000  0.22431200  0.63590500  1
  Mn  Mn1  1  0.00000000  0.77568800  0.36409500  1
  Mn  Mn2  1  0.00000000  0.27568800  0.13590500  1
  Mn  Mn3  1  0.00000000  0.72431200  0.86409500  1
  O  O0  1  0.00000000  0.50000000  0.50000000  1
  O  O1  1  0.00000000  0.14207300  0.31549700  1
  O  O2  1  0.00000000  0.64207300  0.18450300  1
  O  O3  1  0.00000000  0.35792700  0.81549700  1
  O  O4  1  0.50000000  0.32490200  0.09480700  1
  O  O5  1  0.50000000  0.67509800  0.90519300  1
  O  O6  1  0.00000000  0.85792700  0.68450300  1
  O  O7  1  0.50000000  0.17509800  0.59480700  1
  O  O8  1  0.00000000  0.00000000  0.00000000  1
  O  O9  1  0.50000000  0.82490200  0.40519300  1
loop_
_geom_bond_atom_site_label_1
_geom_bond_atom_site_label_2
_geom_bond_distance
_geom_bond_site_symmetry_2
Mg0 O4 2.052114 1_556
Mg0 O3 2.121928 1_555
Mg0 O3 2.121928 1_655
Mg0 O5 2.209516 1_555
Mg0 O8 2.475243 1_556
Mg0 O8 2.475243 1_656
Mg1 O5 2.052114 1_554
Mg1 O2 2.121928 1_655
Mg1 O2 2.121928 1_555
Mg1 O4 2.209516 1_555
Mg1 O8 2.475243 1_665
Mg1 O8 2.475243 1_565
Mg2 O9 2.052114 1_555
Mg2 O6 2.121928 1_655
Mg2 O6 2.121928 1_555
Mg2 O7 2.209516 1_565
Mg2 O0 2.475243 1_555
Mg2 O0 2.475243 1_655
Mg3 O7 2.052114 1_555
Mg3 O1 2.121928 1_655
Mg3 O1 2.121928 1_555
Mg3 O9 2.209516 1_545
Mg3 O0 2.475243 1_555
Mg3 O0 2.475243 1_655
Mn0 O7 1.883493 1_455
Mn0 O7 1.883493 1_555
Mn0 O6 2.000621 1_545
Mn0 O3 2.043032 1_555
Mn0 O0 2.054176 1_555
Mn1 O9 1.883493 1_555
Mn1 O9 1.883493 1_455
Mn1 O1 2.000621 1_565
Mn1 O2 2.043032 1_555
Mn1 O0 2.054176 1_555
Mn2 O4 1.883493 1_455
Mn2 O4 1.883493 1_555
Mn2 O2 2.000621 1_555
Mn2 O1 2.043032 1_555
Mn2 O8 2.054176 1_555
Mn3 O5 1.883493 1_455
Mn3 O5 1.883493 1_555
Mn3 O3 2.000621 1_555
Mn3 O6 2.043032 1_555
Mn3 O8 2.054176 1_566
