# generated using pymatgen
data_HoC2
_symmetry_space_group_name_H-M   'P 1'
_cell_length_a   3.64732000
_cell_length_b   4.02407153
_cell_length_c   3.64732000
_cell_angle_alpha   116.94839263
_cell_angle_beta   90.00000000
_cell_angle_gamma   116.94839263
_symmetry_Int_Tables_number   1
_chemical_formula_structural   HoC2
_chemical_formula_sum   'Ho1 C2'
_cell_volume   41.09227268
_cell_formula_units_Z   1
loop_
 _symmetry_equiv_pos_site_id
 _symmetry_equiv_pos_as_xyz
  1  'x, y, z'
loop_
 _atom_site_type_symbol
 _atom_site_label
 _atom_site_symmetry_multiplicity
 _atom_site_fract_x
 _atom_site_fract_y
 _atom_site_fract_z
 _atom_site_occupancy
  Ho  Ho0  1  0.00000000  0.00000000  0.00000000  1
  C  C0  1  0.60556800  0.21113600  0.60556800  1
  C  C1  1  0.39443200  0.78886400  0.39443200  1
loop_
_geom_bond_atom_site_label_1
_geom_bond_atom_site_label_2
_geom_bond_distance
_geom_bond_site_symmetry_2
C0 C1 1.304382 1_545
C0 Ho0 2.436770 1_666
C0 Ho0 2.660230 1_556
C0 Ho0 2.660230 1_655
C0 Ho0 2.660230 1_656
C0 Ho0 2.660230 1_555
C1 Ho0 2.436770 1_555
C1 Ho0 2.660230 1_666
C1 Ho0 2.660230 1_565
C1 Ho0 2.660230 1_665
C1 Ho0 2.660230 1_566
