# generated using pymatgen
data_TeMoWSe2S
_symmetry_space_group_name_H-M   'P 1'
_cell_length_a   3.34367123
_cell_length_b   3.34367123
_cell_length_c   38.09569900
_cell_angle_alpha   90.00000000
_cell_angle_beta   90.00000000
_cell_angle_gamma   119.99998468
_symmetry_Int_Tables_number   1
_chemical_formula_structural   TeMoWSe2S
_chemical_formula_sum   'Te2 Mo2 W2 Se4 S2'
_cell_volume   368.85339157
_cell_formula_units_Z   2
loop_
 _symmetry_equiv_pos_site_id
 _symmetry_equiv_pos_as_xyz
  1  'x, y, z'
loop_
 _atom_site_type_symbol
 _atom_site_label
 _atom_site_symmetry_multiplicity
 _atom_site_fract_x
 _atom_site_fract_y
 _atom_site_fract_z
 _atom_site_occupancy
  Te  Te0  1  0.33333300  0.66666700  0.70734600  1
  Te  Te1  1  0.33333300  0.66666700  0.60779300  1
  Mo  Mo0  1  0.33333300  0.66666700  0.09392100  1
  Mo  Mo1  1  0.66666700  0.33333300  0.65759900  1
  W  W0  1  0.33333300  0.66666700  0.46963100  1
  W  W1  1  0.66666700  0.33333300  0.28178800  1
  Se  Se0  1  0.33333300  0.66666700  0.32579600  1
  Se  Se1  1  0.66666700  0.33333300  0.42561800  1
  Se  Se2  1  0.66666700  0.33333300  0.51365200  1
  Se  Se3  1  0.33333300  0.66666700  0.23777000  1
  S  S0  1  0.66666700  0.33333300  0.05412700  1
  S  S1  1  0.66666700  0.33333300  0.13370800  1
loop_
_geom_bond_atom_site_label_1
_geom_bond_atom_site_label_2
_geom_bond_distance
_geom_bond_site_symmetry_2
Mo0 S1 2.454403 1_455
Mo0 S1 2.454403 1_565
Mo0 S1 2.454407 1_555
Mo0 S0 2.454568 1_455
Mo0 S0 2.454568 1_565
Mo0 S0 2.454572 1_555
Mo1 Te0 2.705233 1_545
Mo1 Te0 2.705233 1_655
Mo1 Te0 2.705237 1_555
Mo1 Te1 2.706808 1_545
Mo1 Te1 2.706808 1_655
Mo1 Te1 2.706812 1_555
Se0 W1 2.556836 1_455
Se0 W1 2.556836 1_565
Se0 W1 2.556840 1_555
Se1 W0 2.556961 1_545
Se1 W0 2.556961 1_655
Se1 W0 2.556965 1_555
Se2 W0 2.557161 1_545
Se2 W0 2.557161 1_655
Se2 W0 2.557165 1_555
Se3 W1 2.557086 1_455
Se3 W1 2.557086 1_565
Se3 W1 2.557090 1_555
