# generated using pymatgen
data_Cu3Rh
_symmetry_space_group_name_H-M   'P 1'
_cell_length_a   5.17883769
_cell_length_b   5.17883769
_cell_length_c   4.18507705
_cell_angle_alpha   90.00000000
_cell_angle_beta   90.00000000
_cell_angle_gamma   120.00003617
_symmetry_Int_Tables_number   1
_chemical_formula_structural   Cu3Rh
_chemical_formula_sum   'Cu6 Rh2'
_cell_volume   97.20722193
_cell_formula_units_Z   2
loop_
 _symmetry_equiv_pos_site_id
 _symmetry_equiv_pos_as_xyz
  1  'x, y, z'
loop_
 _atom_site_type_symbol
 _atom_site_label
 _atom_site_symmetry_multiplicity
 _atom_site_fract_x
 _atom_site_fract_y
 _atom_site_fract_z
 _atom_site_occupancy
  Cu  Cu0  1  0.16391745  0.32783389  0.25000000  1
  Cu  Cu1  1  0.67216611  0.83608255  0.25000000  1
  Cu  Cu2  1  0.16391745  0.83608255  0.25000000  1
  Cu  Cu3  1  0.83608255  0.67216611  0.75000000  1
  Cu  Cu4  1  0.32783389  0.16391745  0.75000000  1
  Cu  Cu5  1  0.83608255  0.16391745  0.75000000  1
  Rh  Rh0  1  0.33333300  0.66666700  0.75000000  1
  Rh  Rh1  1  0.66666700  0.33333300  0.25000000  1
loop_
_geom_bond_atom_site_label_1
_geom_bond_atom_site_label_2
_geom_bond_distance
_geom_bond_site_symmetry_2
Cu0 Cu1 2.546699 1_445
Cu0 Cu2 2.546700 1_545
Cu0 Cu4 2.557459 1_555
Cu0 Cu4 2.557459 1_554
Cu0 Cu5 2.557463 1_454
Cu0 Cu5 2.557463 1_455
Cu0 Rh0 2.586138 1_555
Cu0 Rh0 2.586138 1_554
Cu0 Rh1 2.589536 1_555
Cu0 Rh1 2.589536 1_455
Cu0 Cu1 2.632136 1_555
Cu0 Cu2 2.632137 1_555
Cu1 Cu2 2.546700 1_655
Cu1 Cu3 2.557459 1_554
Cu1 Cu3 2.557459 1_555
Cu1 Cu5 2.557463 1_565
Cu1 Cu5 2.557463 1_564
Cu1 Rh0 2.586138 1_554
Cu1 Rh0 2.586138 1_555
Cu1 Rh1 2.589536 1_555
Cu1 Rh1 2.589536 1_565
Cu1 Cu2 2.632137 1_555
Cu2 Cu4 2.557463 1_564
Cu2 Cu3 2.557463 1_454
Cu2 Cu3 2.557463 1_455
Cu2 Cu4 2.557463 1_565
Cu2 Rh0 2.586133 1_554
Cu2 Rh0 2.586133 1_555
Cu2 Rh1 2.589535 1_455
Cu2 Rh1 2.589535 1_565
Cu3 Cu4 2.546699 1_665
Cu3 Cu5 2.546700 1_565
Cu3 Rh1 2.586138 1_555
Cu3 Rh1 2.586138 1_556
Cu3 Rh0 2.589536 1_555
Cu3 Rh0 2.589536 1_655
Cu3 Cu4 2.632136 1_555
Cu3 Cu5 2.632137 1_555
Cu4 Cu5 2.546700 1_455
Cu4 Rh1 2.586138 1_555
Cu4 Rh1 2.586138 1_556
Cu4 Rh0 2.589536 1_555
Cu4 Rh0 2.589536 1_545
Cu4 Cu5 2.632137 1_555
Cu5 Rh1 2.586133 1_555
Cu5 Rh1 2.586133 1_556
Cu5 Rh0 2.589535 1_545
Cu5 Rh0 2.589535 1_655
