# generated using pymatgen
data_Tm2CuGe6
_symmetry_space_group_name_H-M   'P 1'
_cell_length_a   4.02189800
_cell_length_b   4.03780600
_cell_length_c   10.79551762
_cell_angle_alpha   90.00000000
_cell_angle_beta   100.73555214
_cell_angle_gamma   90.00000000
_symmetry_Int_Tables_number   1
_chemical_formula_structural   Tm2CuGe6
_chemical_formula_sum   'Tm2 Cu1 Ge6'
_cell_volume   172.24688706
_cell_formula_units_Z   1
loop_
 _symmetry_equiv_pos_site_id
 _symmetry_equiv_pos_as_xyz
  1  'x, y, z'
loop_
 _atom_site_type_symbol
 _atom_site_label
 _atom_site_symmetry_multiplicity
 _atom_site_fract_x
 _atom_site_fract_y
 _atom_site_fract_z
 _atom_site_occupancy
  Tm  Tm0  1  0.77734500  0.50000000  0.55469000  1
  Tm  Tm1  1  0.11257200  0.50000000  0.22514400  1
  Cu  Cu0  1  0.55884100  0.00000000  0.11768100  1
  Ge  Ge0  1  0.49648100  0.50000000  0.99296200  1
  Ge  Ge1  1  0.37929900  0.50000000  0.75859900  1
  Ge  Ge2  1  0.99673000  0.00000000  0.99346000  1
  Ge  Ge3  1  0.87849900  0.00000000  0.75699700  1
  Ge  Ge4  1  0.66724900  0.00000000  0.33449800  1
  Ge  Ge5  1  0.23998500  0.00000000  0.47996900  1
loop_
_geom_bond_atom_site_label_1
_geom_bond_atom_site_label_2
_geom_bond_distance
_geom_bond_site_symmetry_2
Cu0 Ge4 2.299684 1_555
Cu0 Ge2 2.404136 1_554
Cu0 Ge2 2.404139 1_454
Cu0 Ge0 2.413685 1_544
Cu0 Ge0 2.413685 1_554
Cu0 Tm1 3.069047 1_645
Cu0 Tm1 3.069047 1_655
Cu0 Tm1 3.069050 1_555
Cu0 Tm1 3.069050 1_545
Ge0 Ge1 2.485787 1_555
Ge0 Ge2 2.849546 1_555
Ge0 Ge2 2.849546 1_565
Ge0 Ge2 2.849546 1_465
Ge0 Ge2 2.849546 1_455
Ge0 Tm1 3.179400 1_556
Ge0 Tm1 3.179400 1_656
Ge1 Ge3 2.849589 1_465
Ge1 Ge3 2.849589 1_455
Ge1 Ge3 2.849595 1_555
Ge1 Ge3 2.849595 1_565
Ge1 Tm0 2.953219 1_455
Ge1 Tm0 2.953222 1_555
Ge2 Ge3 2.508061 1_555
Ge2 Tm1 3.180353 1_656
Ge2 Tm1 3.180353 1_646
Ge3 Tm0 2.946244 1_555
Ge3 Tm0 2.946244 1_545
Ge4 Ge5 2.534679 1_555
Ge4 Ge5 2.534682 1_655
Ge4 Tm1 3.076554 1_555
Ge4 Tm1 3.076554 1_545
Ge4 Tm1 3.076554 1_655
Ge4 Tm1 3.076554 1_645
Ge4 Tm0 3.087142 1_555
Ge4 Tm0 3.087142 1_545
Ge5 Tm0 2.957699 1_545
Ge5 Tm0 2.957699 1_555
Ge5 Tm0 2.957702 1_455
Ge5 Tm0 2.957702 1_445
Ge5 Tm1 3.373603 1_555
Ge5 Tm1 3.373603 1_545
