# generated using pymatgen
data_Ca(InP)2
_symmetry_space_group_name_H-M   'P 1'
_cell_length_a   4.05008952
_cell_length_b   4.05008952
_cell_length_c   17.49464145
_cell_angle_alpha   90.00000000
_cell_angle_beta   90.00000000
_cell_angle_gamma   120.00000036
_symmetry_Int_Tables_number   1
_chemical_formula_structural   Ca(InP)2
_chemical_formula_sum   'Ca2 In4 P4'
_cell_volume   248.52204689
_cell_formula_units_Z   2
loop_
 _symmetry_equiv_pos_site_id
 _symmetry_equiv_pos_as_xyz
  1  'x, y, z'
loop_
 _atom_site_type_symbol
 _atom_site_label
 _atom_site_symmetry_multiplicity
 _atom_site_fract_x
 _atom_site_fract_y
 _atom_site_fract_z
 _atom_site_occupancy
  Ca  Ca0  1  -0.00000000  0.00000000  0.00000000  1
  Ca  Ca1  1  -0.00000000  0.00000000  0.50000000  1
  In  In0  1  0.66666700  0.33333300  0.17006060  1
  In  In1  1  0.33333300  0.66666700  0.82993940  1
  In  In2  1  0.33333300  0.66666700  0.67006060  1
  In  In3  1  0.66666700  0.33333300  0.32993940  1
  P  P0  1  0.33333300  0.66666700  0.10270910  1
  P  P1  1  0.66666700  0.33333300  0.89729090  1
  P  P2  1  0.66666700  0.33333300  0.60270910  1
  P  P3  1  0.33333300  0.66666700  0.39729090  1
loop_
_geom_bond_atom_site_label_1
_geom_bond_atom_site_label_2
_geom_bond_distance
_geom_bond_site_symmetry_2
Ca0 P1 2.948971 1_454
Ca0 P0 2.948971 1_545
Ca0 P1 2.948974 1_554
Ca0 P1 2.948974 1_444
Ca0 P0 2.948974 1_555
Ca0 P0 2.948974 1_445
Ca1 P3 2.948971 1_545
Ca1 P2 2.948971 1_455
Ca1 P2 2.948974 1_445
Ca1 P3 2.948974 1_445
Ca1 P3 2.948974 1_555
Ca1 P2 2.948974 1_555
In0 P0 2.618415 1_545
In0 P0 2.618415 1_655
In0 P0 2.618422 1_555
In1 P1 2.618415 1_455
In1 P1 2.618415 1_565
In1 P1 2.618422 1_555
In2 P2 2.618415 1_565
In2 P2 2.618415 1_455
In2 P2 2.618422 1_555
In3 P3 2.618415 1_545
In3 P3 2.618415 1_655
In3 P3 2.618422 1_555
