# generated using pymatgen
data_KZnI3O2
_symmetry_space_group_name_H-M   'P 1'
_cell_length_a   7.74224900
_cell_length_b   9.79215900
_cell_length_c   14.49860500
_cell_angle_alpha   90.00000000
_cell_angle_beta   90.00000000
_cell_angle_gamma   90.00000000
_symmetry_Int_Tables_number   1
_chemical_formula_structural   KZnI3O2
_chemical_formula_sum   'K4 Zn4 I12 O8'
_cell_volume   1099.18757217
_cell_formula_units_Z   4
loop_
 _symmetry_equiv_pos_site_id
 _symmetry_equiv_pos_as_xyz
  1  'x, y, z'
loop_
 _atom_site_type_symbol
 _atom_site_label
 _atom_site_symmetry_multiplicity
 _atom_site_fract_x
 _atom_site_fract_y
 _atom_site_fract_z
 _atom_site_occupancy
  K  K0  1  0.88301200  0.46670400  0.08930500  1
  K  K1  1  0.38301200  0.03329600  0.91069500  1
  K  K2  1  0.11698800  0.96670400  0.41069500  1
  K  K3  1  0.61698800  0.53329600  0.58930500  1
  Zn  Zn0  1  0.31828900  0.46328800  0.90990700  1
  Zn  Zn1  1  0.81828900  0.03671200  0.09009300  1
  Zn  Zn2  1  0.68171100  0.96328800  0.59009300  1
  Zn  Zn3  1  0.18171100  0.53671200  0.40990700  1
  I  I0  1  0.34774000  0.33181400  0.75994000  1
  I  I1  1  0.84774000  0.16818600  0.24006000  1
  I  I2  1  0.65226000  0.83181400  0.74006000  1
  I  I3  1  0.15226000  0.66818600  0.25994000  1
  I  I4  1  0.39578000  0.34647800  0.06231200  1
  I  I5  1  0.89578000  0.15352200  0.93768800  1
  I  I6  1  0.60422000  0.84647800  0.43768800  1
  I  I7  1  0.10422000  0.65352200  0.56231200  1
  I  I8  1  0.16657900  0.69148100  0.91932000  1
  I  I9  1  0.66657900  0.80851900  0.08068000  1
  I  I10  1  0.83342100  0.19148100  0.58068000  1
  I  I11  1  0.33342100  0.30851900  0.41932000  1
  O  O0  1  0.71640400  0.52360800  0.87929100  1
  O  O1  1  0.21640400  0.97639200  0.12070900  1
  O  O2  1  0.28359600  0.02360800  0.62070900  1
  O  O3  1  0.78359600  0.47639200  0.37929100  1
  O  O4  1  0.78302700  0.48610800  0.80653100  1
  O  O5  1  0.28302700  0.01389200  0.19346900  1
  O  O6  1  0.21697300  0.98610800  0.69346900  1
  O  O7  1  0.71697300  0.51389200  0.30653100  1
loop_
_geom_bond_atom_site_label_1
_geom_bond_atom_site_label_2
_geom_bond_distance
_geom_bond_site_symmetry_2
K0 O0 3.353485 1_554
K0 O7 3.432965 1_555
K1 O1 3.353485 1_546
K1 O6 3.432965 1_545
K2 O2 3.353485 1_565
K2 O5 3.432965 1_565
K3 O3 3.353485 1_555
K3 O4 3.432965 1_555
I0 Zn0 2.537136 1_555
I0 K1 3.660156 1_555
I0 K3 3.789265 1_555
I1 Zn1 2.537136 1_555
I1 K0 3.660156 1_555
I1 K2 3.789265 1_645
I2 Zn2 2.537136 1_555
I2 K3 3.660156 1_555
I2 K1 3.789265 1_565
I3 Zn3 2.537136 1_555
I3 K2 3.660156 1_555
I3 K0 3.789265 1_455
I4 Zn0 2.559467 1_554
I4 K1 3.774497 1_554
I4 K0 3.971041 1_555
I4 K0 4.159309 1_455
I5 Zn1 2.559467 1_556
I5 K0 3.774497 1_556
I5 K1 3.971041 1_655
I5 K1 4.159309 1_555
I6 Zn2 2.559467 1_555
I6 K3 3.774497 1_555
I6 K2 3.971041 1_555
I6 K2 4.159309 1_655
I7 Zn3 2.559467 1_555
I7 K2 3.774497 1_555
I7 K3 3.971041 1_455
I7 K3 4.159309 1_555
I8 Zn0 2.528093 1_555
I8 K1 3.745218 1_565
I8 K0 3.967190 1_456
I9 Zn1 2.528093 1_565
I9 K0 3.745218 1_555
I9 K1 3.967190 1_564
I10 Zn2 2.528093 1_545
I10 K3 3.745218 1_555
I10 K2 3.967190 1_645
I11 Zn3 2.528093 1_555
I11 K2 3.745218 1_545
I11 K3 3.967190 1_555
O0 O4 1.230348 1_555
O1 O5 1.230348 1_565
O2 O6 1.230348 1_545
O3 O7 1.230348 1_555
