# generated using pymatgen
data_Mg14TiSnO16
_symmetry_space_group_name_H-M   'P 1'
_cell_length_a   8.71982849
_cell_length_b   8.71982849
_cell_length_c   4.35514322
_cell_angle_alpha   90.00000000
_cell_angle_beta   90.00000000
_cell_angle_gamma   90.00000000
_symmetry_Int_Tables_number   1
_chemical_formula_structural   Mg14TiSnO16
_chemical_formula_sum   'Mg14 Ti1 Sn1 O16'
_cell_volume   331.14509553
_cell_formula_units_Z   1
loop_
 _symmetry_equiv_pos_site_id
 _symmetry_equiv_pos_as_xyz
  1  'x, y, z'
loop_
 _atom_site_type_symbol
 _atom_site_label
 _atom_site_symmetry_multiplicity
 _atom_site_fract_x
 _atom_site_fract_y
 _atom_site_fract_z
 _atom_site_occupancy
  Mg  Mg0  1  -0.00000000  0.50000000  -0.00000000  1
  Mg  Mg1  1  0.50000000  0.00000000  -0.00000000  1
  Mg  Mg2  1  -0.00000000  0.25963194  0.50000000  1
  Mg  Mg3  1  -0.00000000  0.74036806  0.50000000  1
  Mg  Mg4  1  0.50000000  0.24861175  0.50000000  1
  Mg  Mg5  1  0.50000000  0.75138825  0.50000000  1
  Mg  Mg6  1  0.25963194  0.00000000  0.50000000  1
  Mg  Mg7  1  0.24861175  0.50000000  0.50000000  1
  Mg  Mg8  1  0.74036806  0.00000000  0.50000000  1
  Mg  Mg9  1  0.75138825  0.50000000  0.50000000  1
  Mg  Mg10  1  0.25415137  0.25415137  0.00000000  1
  Mg  Mg11  1  0.25415137  0.74584863  -0.00000000  1
  Mg  Mg12  1  0.74584863  0.25415137  0.00000000  1
  Mg  Mg13  1  0.74584863  0.74584863  -0.00000000  1
  Ti  Ti0  1  0.50000000  0.50000000  -0.00000000  1
  Sn  Sn0  1  -0.00000000  0.00000000  -0.00000000  1
  O  O0  1  0.27163341  -0.00000000  0.00000000  1
  O  O1  1  0.24700244  0.50000000  -0.00000000  1
  O  O2  1  0.72836659  0.00000000  -0.00000000  1
  O  O3  1  0.75299756  0.50000000  -0.00000000  1
  O  O4  1  0.25039480  0.25039480  0.50000000  1
  O  O5  1  0.25039480  0.74960520  0.50000000  1
  O  O6  1  0.74960520  0.25039480  0.50000000  1
  O  O7  1  0.74960520  0.74960520  0.50000000  1
  O  O8  1  -0.00000000  0.00000000  0.50000000  1
  O  O9  1  -0.00000000  0.50000000  0.50000000  1
  O  O10  1  0.50000000  0.00000000  0.50000000  1
  O  O11  1  0.50000000  0.50000000  0.50000000  1
  O  O12  1  -0.00000000  0.27163341  0.00000000  1
  O  O13  1  -0.00000000  0.72836659  -0.00000000  1
  O  O14  1  0.50000000  0.24700244  -0.00000000  1
  O  O15  1  0.50000000  0.75299756  0.00000000  1
loop_
_geom_bond_atom_site_label_1
_geom_bond_atom_site_label_2
_geom_bond_distance
_geom_bond_site_symmetry_2
Mg0 O12 1.991317 1_555
Mg0 O13 1.991317 1_555
Mg0 O3 2.153819 1_455
Mg0 O1 2.153819 1_555
Mg0 O9 2.177572 1_555
Mg0 O9 2.177572 1_554
Mg1 O0 1.991317 1_555
Mg1 O2 1.991317 1_555
Mg1 O15 2.153819 1_545
Mg1 O14 2.153819 1_555
Mg1 O10 2.177572 1_555
Mg1 O10 2.177572 1_554
Mg2 O9 2.095968 1_555
Mg2 O12 2.180085 1_556
Mg2 O12 2.180085 1_555
Mg2 O4 2.184885 1_555
Mg2 O6 2.184885 1_455
Mg2 O8 2.263946 1_555
Mg3 O9 2.095968 1_555
Mg3 O13 2.180085 1_555
Mg3 O13 2.180085 1_556
Mg3 O5 2.184885 1_555
Mg3 O7 2.184885 1_455
Mg3 O8 2.263946 1_565
Mg4 O10 2.167852 1_555
Mg4 O6 2.176570 1_555
Mg4 O4 2.176570 1_555
Mg4 O14 2.177617 1_555
Mg4 O14 2.177617 1_556
Mg4 O11 2.192062 1_555
Mg5 O10 2.167852 1_565
Mg5 O7 2.176570 1_555
Mg5 O5 2.176570 1_555
Mg5 O15 2.177617 1_556
Mg5 O15 2.177617 1_555
Mg5 O11 2.192062 1_555
Mg6 O10 2.095968 1_555
Mg6 O0 2.180085 1_555
Mg6 O0 2.180085 1_556
Mg6 O4 2.184885 1_555
Mg6 O5 2.184885 1_545
Mg6 O8 2.263946 1_555
Mg7 O9 2.167852 1_555
Mg7 O4 2.176570 1_555
Mg7 O5 2.176570 1_555
Mg7 O1 2.177617 1_555
Mg7 O1 2.177617 1_556
Mg7 O11 2.192062 1_555
Mg8 O10 2.095968 1_555
Mg8 O2 2.180085 1_555
Mg8 O2 2.180085 1_556
Mg8 O6 2.184885 1_555
Mg8 O7 2.184885 1_545
Mg8 O8 2.263946 1_655
Mg9 O9 2.167852 1_655
Mg9 O6 2.176570 1_555
Mg9 O7 2.176570 1_555
Mg9 O3 2.177617 1_556
Mg9 O3 2.177617 1_555
Mg9 O11 2.192062 1_555
Mg10 O1 2.144664 1_555
Mg10 O14 2.144664 1_555
Mg10 O4 2.178064 1_554
Mg10 O4 2.178064 1_555
Mg10 O0 2.221393 1_555
Mg10 O12 2.221393 1_555
Mg11 O1 2.144664 1_555
Mg11 O15 2.144664 1_555
Mg11 O5 2.178064 1_554
Mg11 O5 2.178064 1_555
Mg11 O0 2.221393 1_565
Mg11 O13 2.221393 1_555
Mg12 O14 2.144664 1_555
Mg12 O3 2.144664 1_555
Mg12 O6 2.178064 1_554
Mg12 O6 2.178064 1_555
Mg12 O2 2.221393 1_555
Mg12 O12 2.221393 1_655
Mg13 O15 2.144664 1_555
Mg13 O3 2.144664 1_555
Mg13 O7 2.178064 1_554
Mg13 O7 2.178064 1_555
Mg13 O13 2.221393 1_655
Mg13 O2 2.221393 1_565
O0 Sn0 2.368597 1_555
O1 Ti0 2.206095 1_555
O2 Sn0 2.368597 1_655
O3 Ti0 2.206095 1_555
O8 Sn0 2.177572 1_556
O8 Sn0 2.177572 1_555
O11 Ti0 2.177572 1_555
O11 Ti0 2.177572 1_556
O12 Sn0 2.368597 1_555
O13 Sn0 2.368597 1_565
O14 Ti0 2.206095 1_555
O15 Ti0 2.206095 1_555
