# generated using pymatgen
data_Pr11Hg45
_symmetry_space_group_name_H-M   'P 1'
_cell_length_a   15.87416681
_cell_length_b   15.87416681
_cell_length_c   15.87416681
_cell_angle_alpha   60.00000000
_cell_angle_beta   60.00000000
_cell_angle_gamma   60.00000000
_symmetry_Int_Tables_number   1
_chemical_formula_structural   Pr11Hg45
_chemical_formula_sum   'Pr22 Hg90'
_cell_volume   2828.51067111
_cell_formula_units_Z   2
loop_
 _symmetry_equiv_pos_site_id
 _symmetry_equiv_pos_as_xyz
  1  'x, y, z'
loop_
 _atom_site_type_symbol
 _atom_site_label
 _atom_site_symmetry_multiplicity
 _atom_site_fract_x
 _atom_site_fract_y
 _atom_site_fract_z
 _atom_site_occupancy
  Pr  Pr0  1  0.00000000  0.00000000  0.00000000  1
  Pr  Pr1  1  0.01597700  0.32902700  0.63901900  1
  Pr  Pr2  1  0.01597700  0.01597700  0.63901900  1
  Pr  Pr3  1  0.32902700  0.01597700  0.63901900  1
  Pr  Pr4  1  0.01597700  0.63901900  0.32902700  1
  Pr  Pr5  1  0.32902700  0.63901900  0.01597700  1
  Pr  Pr6  1  0.01597700  0.63901900  0.01597700  1
  Pr  Pr7  1  0.63901900  0.01597700  0.01597700  1
  Pr  Pr8  1  0.63901900  0.32902700  0.01597700  1
  Pr  Pr9  1  0.63901900  0.01597700  0.32902700  1
  Pr  Pr10  1  0.32902700  0.01597700  0.01597700  1
  Pr  Pr11  1  0.01597700  0.01597700  0.32902700  1
  Pr  Pr12  1  0.01597700  0.32902700  0.01597700  1
  Pr  Pr13  1  0.25000000  0.25000000  0.25000000  1
  Pr  Pr14  1  0.40577600  0.40577600  0.78267100  1
  Pr  Pr15  1  0.40577600  0.78267100  0.40577600  1
  Pr  Pr16  1  0.78267100  0.40577600  0.40577600  1
  Pr  Pr17  1  0.40577600  0.40577600  0.40577600  1
  Pr  Pr18  1  0.66161600  0.66161600  0.01515100  1
  Pr  Pr19  1  0.66161600  0.01515100  0.66161600  1
  Pr  Pr20  1  0.01515100  0.66161600  0.66161600  1
  Pr  Pr21  1  0.66161600  0.66161600  0.66161600  1
  Hg  Hg0  1  0.08290000  0.08290000  0.75130100  1
  Hg  Hg1  1  0.08290000  0.75130100  0.08290000  1
  Hg  Hg2  1  0.75130100  0.08290000  0.08290000  1
  Hg  Hg3  1  0.08290000  0.08290000  0.08290000  1
  Hg  Hg4  1  0.91457700  0.91457700  0.25626800  1
  Hg  Hg5  1  0.91457700  0.25626800  0.91457700  1
  Hg  Hg6  1  0.25626800  0.91457700  0.91457700  1
  Hg  Hg7  1  0.91457700  0.91457700  0.91457700  1
  Hg  Hg8  1  0.15361700  0.15361700  0.84638300  1
  Hg  Hg9  1  0.84638300  0.15361700  0.84638300  1
  Hg  Hg10  1  0.15361700  0.84638300  0.84638300  1
  Hg  Hg11  1  0.84638300  0.84638300  0.15361700  1
  Hg  Hg12  1  0.15361700  0.84638300  0.15361700  1
  Hg  Hg13  1  0.84638300  0.15361700  0.15361700  1
  Hg  Hg14  1  0.39176100  0.19974600  0.01673200  1
  Hg  Hg15  1  0.39176100  0.39176100  0.01673200  1
  Hg  Hg16  1  0.19974600  0.39176100  0.01673200  1
  Hg  Hg17  1  0.39176100  0.01673200  0.19974600  1
  Hg  Hg18  1  0.19974600  0.01673200  0.39176100  1
  Hg  Hg19  1  0.39176100  0.01673200  0.39176100  1
  Hg  Hg20  1  0.01673200  0.39176100  0.39176100  1
  Hg  Hg21  1  0.01673200  0.19974600  0.39176100  1
  Hg  Hg22  1  0.01673200  0.39176100  0.19974600  1
  Hg  Hg23  1  0.19974600  0.39176100  0.39176100  1
  Hg  Hg24  1  0.39176100  0.39176100  0.19974600  1
  Hg  Hg25  1  0.39176100  0.19974600  0.39176100  1
  Hg  Hg26  1  0.16248100  0.16248100  0.51255600  1
  Hg  Hg27  1  0.16248100  0.51255600  0.16248100  1
  Hg  Hg28  1  0.51255600  0.16248100  0.16248100  1
  Hg  Hg29  1  0.16248100  0.16248100  0.16248100  1
  Hg  Hg30  1  0.25836800  0.61517100  0.86809400  1
  Hg  Hg31  1  0.25836800  0.25836800  0.86809400  1
  Hg  Hg32  1  0.61517100  0.25836800  0.86809400  1
  Hg  Hg33  1  0.25836800  0.86809400  0.61517100  1
  Hg  Hg34  1  0.61517100  0.86809400  0.25836800  1
  Hg  Hg35  1  0.25836800  0.86809400  0.25836800  1
  Hg  Hg36  1  0.86809400  0.25836800  0.25836800  1
  Hg  Hg37  1  0.86809400  0.61517100  0.25836800  1
  Hg  Hg38  1  0.86809400  0.25836800  0.61517100  1
  Hg  Hg39  1  0.61517100  0.25836800  0.25836800  1
  Hg  Hg40  1  0.25836800  0.25836800  0.61517100  1
  Hg  Hg41  1  0.25836800  0.61517100  0.25836800  1
  Hg  Hg42  1  0.50000000  0.50000000  0.50000000  1
  Hg  Hg43  1  0.64204600  0.44976600  0.26614200  1
  Hg  Hg44  1  0.64204600  0.64204600  0.26614200  1
  Hg  Hg45  1  0.44976600  0.64204600  0.26614200  1
  Hg  Hg46  1  0.64204600  0.26614200  0.44976600  1
  Hg  Hg47  1  0.44976600  0.26614200  0.64204600  1
  Hg  Hg48  1  0.64204600  0.26614200  0.64204600  1
  Hg  Hg49  1  0.26614200  0.64204600  0.64204600  1
  Hg  Hg50  1  0.26614200  0.44976600  0.64204600  1
  Hg  Hg51  1  0.26614200  0.64204600  0.44976600  1
  Hg  Hg52  1  0.44976600  0.64204600  0.64204600  1
  Hg  Hg53  1  0.64204600  0.64204600  0.44976600  1
  Hg  Hg54  1  0.64204600  0.44976600  0.64204600  1
  Hg  Hg55  1  0.51176700  0.83725400  0.13921300  1
  Hg  Hg56  1  0.51176700  0.51176700  0.13921300  1
  Hg  Hg57  1  0.83725400  0.51176700  0.13921300  1
  Hg  Hg58  1  0.51176700  0.13921300  0.83725400  1
  Hg  Hg59  1  0.83725400  0.13921300  0.51176700  1
  Hg  Hg60  1  0.51176700  0.13921300  0.51176700  1
  Hg  Hg61  1  0.13921300  0.51176700  0.51176700  1
  Hg  Hg62  1  0.13921300  0.83725400  0.51176700  1
  Hg  Hg63  1  0.13921300  0.51176700  0.83725400  1
  Hg  Hg64  1  0.83725400  0.51176700  0.51176700  1
  Hg  Hg65  1  0.51176700  0.51176700  0.83725400  1
  Hg  Hg66  1  0.51176700  0.83725400  0.51176700  1
  Hg  Hg67  1  0.75000000  0.75000000  0.75000000  1
  Hg  Hg68  1  0.82786100  0.82786100  0.51641700  1
  Hg  Hg69  1  0.82786100  0.51641700  0.82786100  1
  Hg  Hg70  1  0.51641700  0.82786100  0.82786100  1
  Hg  Hg71  1  0.82786100  0.82786100  0.82786100  1
  Hg  Hg72  1  0.91151200  0.91151200  0.58848800  1
  Hg  Hg73  1  0.58848800  0.91151200  0.58848800  1
  Hg  Hg74  1  0.91151200  0.58848800  0.58848800  1
  Hg  Hg75  1  0.58848800  0.58848800  0.91151200  1
  Hg  Hg76  1  0.91151200  0.58848800  0.91151200  1
  Hg  Hg77  1  0.58848800  0.91151200  0.91151200  1
  Hg  Hg78  1  0.76460300  0.06615100  0.40464400  1
  Hg  Hg79  1  0.76460300  0.76460300  0.40464400  1
  Hg  Hg80  1  0.06615100  0.76460300  0.40464400  1
  Hg  Hg81  1  0.76460300  0.40464400  0.06615100  1
  Hg  Hg82  1  0.06615100  0.40464400  0.76460300  1
  Hg  Hg83  1  0.76460300  0.40464400  0.76460300  1
  Hg  Hg84  1  0.40464400  0.76460300  0.76460300  1
  Hg  Hg85  1  0.40464400  0.06615100  0.76460300  1
  Hg  Hg86  1  0.40464400  0.76460300  0.06615100  1
  Hg  Hg87  1  0.06615100  0.76460300  0.76460300  1
  Hg  Hg88  1  0.76460300  0.76460300  0.06615100  1
  Hg  Hg89  1  0.76460300  0.06615100  0.76460300  1
loop_
_geom_bond_atom_site_label_1
_geom_bond_atom_site_label_2
_geom_bond_distance
_geom_bond_site_symmetry_2
Hg0 Hg8 3.073654 1_555
Hg0 Hg10 3.073667 1_545
Hg0 Hg9 3.073667 1_455
Hg0 Hg26 3.094422 1_555
Hg0 Pr1 3.217075 1_555
Hg0 Pr3 3.217075 1_555
Hg0 Pr2 3.217087 1_555
Hg0 Pr0 3.223438 1_556
Hg1 Hg12 3.073654 1_555
Hg1 Hg10 3.073667 1_554
Hg1 Hg11 3.073667 1_455
Hg1 Hg27 3.094422 1_555
Hg1 Pr4 3.217075 1_555
Hg1 Pr5 3.217075 1_555
Hg1 Pr6 3.217087 1_555
Hg1 Pr0 3.223438 1_565
Hg2 Hg9 3.073667 1_554
Hg2 Hg28 3.094422 1_555
Hg2 Pr8 3.217075 1_555
Hg2 Pr9 3.217075 1_555
Hg2 Pr7 3.217087 1_555
Hg2 Pr0 3.223438 1_655
Hg3 Hg8 3.073668 1_554
Hg3 Pr10 3.217073 1_555
Hg3 Pr12 3.217073 1_555
Hg3 Pr11 3.217073 1_555
Hg3 Pr0 3.223451 1_555
Hg4 Pr0 3.321542 1_665
Hg4 Hg79 3.366931 1_555
Hg4 Hg80 3.366954 1_655
Hg4 Hg78 3.366954 1_565
Hg4 Hg68 3.371844 1_555
Hg4 Pr4 3.581196 1_655
Hg4 Pr9 3.581196 1_565
Hg4 Pr11 3.581209 1_665
Hg5 Hg9 3.114286 1_555
Hg5 Hg8 3.114298 1_655
Hg5 Pr0 3.321542 1_656
Hg5 Hg83 3.366931 1_555
Hg5 Hg81 3.366954 1_556
Hg5 Hg82 3.366954 1_655
Hg5 Hg69 3.371844 1_555
Hg5 Pr1 3.581196 1_655
Hg5 Pr8 3.581196 1_556
Hg5 Pr12 3.581209 1_656
Hg6 Hg8 3.114298 1_565
Hg6 Pr0 3.321542 1_566
Hg6 Hg84 3.366931 1_555
Hg6 Hg86 3.366954 1_556
Hg6 Hg85 3.366954 1_565
Hg6 Hg70 3.371844 1_555
Hg6 Pr3 3.581196 1_565
Hg6 Pr5 3.581196 1_556
Hg6 Pr10 3.581209 1_566
Hg7 Hg9 3.114300 1_565
Hg7 Pr0 3.321555 1_666
Hg7 Hg88 3.366931 1_556
Hg7 Hg87 3.366931 1_655
Hg7 Hg89 3.366931 1_565
Hg7 Hg71 3.371831 1_555
Hg7 Pr2 3.581197 1_665
Hg7 Pr7 3.581197 1_566
Hg7 Pr6 3.581197 1_656
Hg8 Hg85 3.254029 1_555
Hg8 Hg82 3.254029 1_555
Hg8 Pr0 3.448619 1_556
Hg9 Pr0 3.448619 1_656
Hg10 Hg33 3.091913 1_555
Hg10 Hg30 3.091913 1_555
Hg10 Hg6 3.114286 1_555
Hg10 Hg7 3.114300 1_455
Hg10 Hg87 3.254016 1_555
Hg10 Hg84 3.254029 1_555
Hg10 Pr0 3.448619 1_566
Hg11 Hg2 3.073667 1_565
Hg11 Hg37 3.091913 1_555
Hg11 Hg34 3.091913 1_555
Hg11 Hg4 3.114286 1_555
Hg11 Hg7 3.114300 1_554
Hg11 Hg88 3.254016 1_555
Hg11 Hg79 3.254029 1_555
Hg11 Pr0 3.448619 1_665
Hg12 Hg3 3.073668 1_565
Hg12 Hg41 3.091916 1_555
Hg12 Hg35 3.091927 1_555
Hg12 Hg6 3.114298 1_554
Hg12 Hg4 3.114298 1_455
Hg12 Hg80 3.254029 1_555
Hg12 Hg86 3.254029 1_555
Hg12 Pr0 3.448619 1_565
Hg13 Hg2 3.073654 1_555
Hg13 Hg3 3.073668 1_655
Hg13 Hg39 3.091916 1_555
Hg13 Hg36 3.091927 1_555
Hg13 Hg4 3.114298 1_545
Hg13 Hg5 3.114298 1_554
Hg13 Hg78 3.254029 1_555
Hg13 Hg81 3.254029 1_555
Hg13 Pr0 3.448619 1_655
Hg14 Hg58 2.854686 1_554
Hg14 Hg17 2.905195 1_555
Hg14 Hg15 3.048078 1_555
Hg14 Hg16 3.048078 1_555
Hg14 Hg28 3.363521 1_555
Hg14 Hg29 3.363534 1_555
Hg14 Hg31 3.427406 1_554
Hg14 Hg32 3.427419 1_554
Hg14 Pr13 3.498297 1_555
Hg14 Pr14 3.507181 1_554
Hg14 Pr7 3.528990 1_555
Hg14 Pr10 3.528990 1_555
Hg15 Hg65 2.854694 1_554
Hg15 Hg24 2.905195 1_555
Hg15 Hg16 3.048078 1_555
Hg15 Hg27 3.363528 1_555
Hg15 Hg28 3.363528 1_555
Hg15 Hg30 3.427412 1_554
Hg15 Hg32 3.427412 1_554
Hg15 Pr13 3.498297 1_555
Hg15 Pr14 3.507188 1_554
Hg15 Pr8 3.528990 1_555
Hg15 Pr5 3.528990 1_555
Hg16 Hg63 2.854686 1_554
Hg16 Hg22 2.905195 1_555
Hg16 Hg27 3.363521 1_555
Hg16 Hg29 3.363534 1_555
Hg16 Hg31 3.427406 1_554
Hg16 Hg30 3.427419 1_554
Hg16 Pr13 3.498297 1_555
Hg16 Pr14 3.507181 1_554
Hg16 Pr6 3.528990 1_555
Hg16 Pr12 3.528990 1_555
Hg17 Hg55 2.854686 1_545
Hg17 Hg18 3.048078 1_555
Hg17 Hg19 3.048078 1_555
Hg17 Hg28 3.363521 1_555
Hg17 Hg29 3.363534 1_555
Hg17 Hg35 3.427406 1_545
Hg17 Hg34 3.427419 1_545
Hg17 Pr13 3.498297 1_555
Hg17 Pr15 3.507181 1_545
Hg17 Pr7 3.528990 1_555
Hg17 Pr10 3.528990 1_555
Hg18 Hg62 2.854686 1_545
Hg18 Hg21 2.905195 1_555
Hg18 Hg19 3.048078 1_555
Hg18 Hg26 3.363521 1_555
Hg18 Hg29 3.363534 1_555
Hg18 Hg35 3.427406 1_545
Hg18 Hg33 3.427419 1_545
Hg18 Pr13 3.498297 1_555
Hg18 Pr15 3.507181 1_545
Hg18 Pr2 3.528990 1_555
Hg18 Pr11 3.528990 1_555
Hg19 Hg66 2.854694 1_545
Hg19 Hg25 2.905195 1_555
Hg19 Hg26 3.363528 1_555
Hg19 Hg28 3.363528 1_555
Hg19 Hg33 3.427412 1_545
Hg19 Hg34 3.427412 1_545
Hg19 Pr13 3.498297 1_555
Hg19 Pr15 3.507188 1_545
Hg19 Pr3 3.528990 1_555
Hg19 Pr9 3.528990 1_555
Hg20 Hg64 2.854694 1_455
Hg20 Hg23 2.905195 1_555
Hg20 Hg21 3.048078 1_555
Hg20 Hg22 3.048078 1_555
Hg20 Hg26 3.363528 1_555
Hg20 Hg27 3.363528 1_555
Hg20 Hg37 3.427412 1_455
Hg20 Hg38 3.427412 1_455
Hg20 Pr13 3.498297 1_555
Hg20 Pr16 3.507188 1_455
Hg20 Pr4 3.528990 1_555
Hg20 Pr1 3.528990 1_555
Hg21 Hg59 2.854686 1_455
Hg21 Hg22 3.048078 1_555
Hg21 Hg26 3.363521 1_555
Hg21 Hg29 3.363534 1_555
Hg21 Hg36 3.427406 1_455
Hg21 Hg38 3.427419 1_455
Hg21 Pr13 3.498297 1_555
Hg21 Pr16 3.507181 1_455
Hg21 Pr2 3.528990 1_555
Hg21 Pr11 3.528990 1_555
Hg22 Hg57 2.854686 1_455
Hg22 Hg27 3.363521 1_555
Hg22 Hg29 3.363534 1_555
Hg22 Hg36 3.427406 1_455
Hg22 Hg37 3.427419 1_455
Hg22 Pr13 3.498297 1_555
Hg22 Pr16 3.507181 1_455
Hg22 Pr6 3.528990 1_555
Hg22 Pr12 3.528990 1_555
Hg23 Hg61 2.854699 1_555
Hg23 Hg24 3.048078 1_555
Hg23 Hg25 3.048078 1_555
Hg23 Hg27 3.363535 1_555
Hg23 Hg26 3.363535 1_555
Hg23 Hg40 3.427420 1_555
Hg23 Hg41 3.427420 1_555
Hg23 Pr13 3.498297 1_555
Hg23 Pr17 3.507172 1_555
Hg23 Pr1 3.528990 1_555
Hg23 Pr4 3.528990 1_555
Hg24 Hg56 2.854699 1_555
Hg24 Hg25 3.048078 1_555
Hg24 Hg27 3.363535 1_555
Hg24 Hg28 3.363535 1_555
Hg24 Hg39 3.427420 1_555
Hg24 Hg41 3.427420 1_555
Hg24 Pr13 3.498297 1_555
Hg24 Pr17 3.507172 1_555
Hg24 Pr8 3.528990 1_555
Hg24 Pr5 3.528990 1_555
Hg25 Hg60 2.854699 1_555
Hg25 Hg28 3.363535 1_555
Hg25 Hg26 3.363535 1_555
Hg25 Hg39 3.427420 1_555
Hg25 Hg40 3.427420 1_555
Hg25 Pr13 3.498297 1_555
Hg25 Pr17 3.507172 1_555
Hg25 Pr3 3.528990 1_555
Hg25 Pr9 3.528990 1_555
Hg26 Pr2 3.304286 1_555
Hg26 Pr1 3.304298 1_555
Hg26 Pr3 3.304298 1_555
Hg26 Pr13 3.403042 1_555
Hg27 Pr6 3.304286 1_555
Hg27 Pr4 3.304298 1_555
Hg27 Pr5 3.304298 1_555
Hg27 Pr13 3.403042 1_555
Hg28 Pr7 3.304286 1_555
Hg28 Pr8 3.304298 1_555
Hg28 Pr9 3.304298 1_555
Hg28 Pr13 3.403042 1_555
Hg29 Hg3 3.094396 1_555
Hg29 Pr12 3.304288 1_555
Hg29 Pr11 3.304288 1_555
Hg29 Pr10 3.304288 1_555
Hg29 Pr13 3.403055 1_555
Hg30 Pr5 3.295251 1_556
Hg30 Pr6 3.295263 1_556
Hg30 Hg52 3.339496 1_555
Hg30 Hg49 3.339503 1_555
Hg30 Hg65 3.368401 1_555
Hg30 Hg63 3.368401 1_555
Hg30 Hg84 3.393219 1_555
Hg30 Hg87 3.393219 1_555
Hg30 Pr14 3.452443 1_555
Hg31 Hg8 3.091927 1_555
Hg31 Pr10 3.295262 1_556
Hg31 Pr12 3.295262 1_556
Hg31 Hg50 3.339497 1_555
Hg31 Hg47 3.339497 1_555
Hg31 Hg58 3.368401 1_555
Hg31 Hg63 3.368401 1_555
Hg31 Hg85 3.393219 1_555
Hg31 Hg82 3.393219 1_555
Hg31 Pr14 3.452417 1_555
Hg32 Hg9 3.091913 1_555
Hg32 Pr8 3.295251 1_556
Hg32 Pr7 3.295263 1_556
Hg32 Hg54 3.339496 1_555
Hg32 Hg48 3.339503 1_555
Hg32 Hg65 3.368401 1_555
Hg32 Hg58 3.368401 1_555
Hg32 Hg83 3.393219 1_555
Hg32 Hg89 3.393219 1_555
Hg32 Pr14 3.452443 1_555
Hg33 Pr3 3.295251 1_565
Hg33 Pr2 3.295263 1_565
Hg33 Hg52 3.339496 1_555
Hg33 Hg49 3.339503 1_555
Hg33 Hg66 3.368401 1_555
Hg33 Hg62 3.368401 1_555
Hg33 Hg84 3.393219 1_555
Hg33 Hg87 3.393219 1_555
Hg33 Pr15 3.452443 1_555
Hg34 Pr9 3.295251 1_565
Hg34 Pr7 3.295263 1_565
Hg34 Hg53 3.339496 1_555
Hg34 Hg44 3.339503 1_555
Hg34 Hg66 3.368401 1_555
Hg34 Hg55 3.368401 1_555
Hg34 Hg79 3.393219 1_555
Hg34 Hg88 3.393219 1_555
Hg34 Pr15 3.452443 1_555
Hg35 Pr10 3.295262 1_565
Hg35 Pr11 3.295262 1_565
Hg35 Hg51 3.339497 1_555
Hg35 Hg45 3.339497 1_555
Hg35 Hg55 3.368401 1_555
Hg35 Hg62 3.368401 1_555
Hg35 Hg86 3.393219 1_555
Hg35 Hg80 3.393219 1_555
Hg35 Pr15 3.452417 1_555
Hg36 Pr12 3.295262 1_655
Hg36 Pr11 3.295262 1_655
Hg36 Hg46 3.339497 1_555
Hg36 Hg43 3.339497 1_555
Hg36 Hg59 3.368401 1_555
Hg36 Hg57 3.368401 1_555
Hg36 Hg81 3.393219 1_555
Hg36 Hg78 3.393219 1_555
Hg36 Pr16 3.452417 1_555
Hg37 Pr4 3.295251 1_655
Hg37 Pr6 3.295263 1_655
Hg37 Hg53 3.339496 1_555
Hg37 Hg44 3.339503 1_555
Hg37 Hg64 3.368401 1_555
Hg37 Hg57 3.368401 1_555
Hg37 Hg79 3.393219 1_555
Hg37 Hg88 3.393219 1_555
Hg37 Pr16 3.452443 1_555
Hg38 Hg9 3.091913 1_555
Hg38 Pr1 3.295251 1_655
Hg38 Pr2 3.295263 1_655
Hg38 Hg54 3.339496 1_555
Hg38 Hg48 3.339503 1_555
Hg38 Hg64 3.368401 1_555
Hg38 Hg59 3.368401 1_555
Hg38 Hg83 3.393219 1_555
Hg38 Hg89 3.393219 1_555
Hg38 Pr16 3.452443 1_555
Hg39 Pr8 3.295266 1_555
Hg39 Pr9 3.295266 1_555
Hg39 Hg43 3.339487 1_555
Hg39 Hg46 3.339487 1_555
Hg39 Hg56 3.368401 1_555
Hg39 Hg60 3.368401 1_555
Hg39 Hg81 3.393219 1_555
Hg39 Hg78 3.393219 1_555
Hg39 Pr17 3.452426 1_555
Hg40 Hg8 3.091916 1_555
Hg40 Pr1 3.295266 1_555
Hg40 Pr3 3.295266 1_555
Hg40 Hg50 3.339487 1_555
Hg40 Hg47 3.339487 1_555
Hg40 Hg61 3.368401 1_555
Hg40 Hg60 3.368401 1_555
Hg40 Hg85 3.393219 1_555
Hg40 Hg82 3.393219 1_555
Hg40 Pr17 3.452426 1_555
Hg41 Pr5 3.295266 1_555
Hg41 Pr4 3.295266 1_555
Hg41 Hg51 3.339487 1_555
Hg41 Hg45 3.339487 1_555
Hg41 Hg61 3.368401 1_555
Hg41 Hg56 3.368401 1_555
Hg41 Hg86 3.393219 1_555
Hg41 Hg80 3.393219 1_555
Hg41 Pr17 3.452426 1_555
Hg42 Pr14 3.663756 1_555
Hg42 Pr16 3.663756 1_555
Hg42 Pr15 3.663756 1_555
Hg42 Pr17 3.663769 1_555
Hg43 Hg46 2.914878 1_555
Hg43 Hg81 3.013429 1_555
Hg43 Hg44 3.052285 1_555
Hg43 Hg45 3.052285 1_555
Hg43 Hg56 3.074705 1_555
Hg43 Hg57 3.074719 1_555
Hg43 Pr16 3.496485 1_555
Hg43 Pr17 3.496498 1_555
Hg43 Pr18 3.699786 1_555
Hg44 Hg53 2.914878 1_555
Hg44 Hg88 3.013436 1_555
Hg44 Hg45 3.052285 1_555
Hg44 Hg55 3.074711 1_555
Hg44 Hg57 3.074711 1_555
Hg44 Pr16 3.496492 1_555
Hg44 Pr15 3.496492 1_555
Hg44 Pr18 3.699793 1_555
Hg45 Hg51 2.914878 1_555
Hg45 Hg86 3.013429 1_555
Hg45 Hg56 3.074705 1_555
Hg45 Hg55 3.074719 1_555
Hg45 Pr15 3.496485 1_555
Hg45 Pr17 3.496498 1_555
Hg45 Pr18 3.699786 1_555
Hg46 Hg78 3.013429 1_555
Hg46 Hg47 3.052285 1_555
Hg46 Hg48 3.052285 1_555
Hg46 Hg60 3.074705 1_555
Hg46 Hg59 3.074719 1_555
Hg46 Pr16 3.496485 1_555
Hg46 Pr17 3.496498 1_555
Hg46 Pr19 3.699786 1_555
Hg47 Hg50 2.914878 1_555
Hg47 Hg85 3.013429 1_555
Hg47 Hg48 3.052285 1_555
Hg47 Hg60 3.074705 1_555
Hg47 Hg58 3.074719 1_555
Hg47 Pr14 3.496485 1_555
Hg47 Pr17 3.496498 1_555
Hg47 Pr19 3.699786 1_555
Hg48 Hg54 2.914878 1_555
Hg48 Hg89 3.013436 1_555
Hg48 Hg59 3.074711 1_555
Hg48 Hg58 3.074711 1_555
Hg48 Pr14 3.496492 1_555
Hg48 Pr16 3.496492 1_555
Hg48 Pr19 3.699793 1_555
Hg49 Hg52 2.914878 1_555
Hg49 Hg87 3.013436 1_555
Hg49 Hg50 3.052285 1_555
Hg49 Hg51 3.052285 1_555
Hg49 Hg62 3.074711 1_555
Hg49 Hg63 3.074711 1_555
Hg49 Pr15 3.496492 1_555
Hg49 Pr14 3.496492 1_555
Hg49 Pr20 3.699793 1_555
Hg50 Hg82 3.013429 1_555
Hg50 Hg51 3.052285 1_555
Hg50 Hg61 3.074705 1_555
Hg50 Hg63 3.074719 1_555
Hg50 Pr14 3.496485 1_555
Hg50 Pr17 3.496498 1_555
Hg50 Pr20 3.699786 1_555
Hg51 Hg80 3.013429 1_555
Hg51 Hg61 3.074705 1_555
Hg51 Hg62 3.074719 1_555
Hg51 Pr15 3.496485 1_555
Hg51 Pr17 3.496498 1_555
Hg51 Pr20 3.699786 1_555
Hg52 Hg84 3.013443 1_555
Hg52 Hg54 3.052285 1_555
Hg52 Hg53 3.052285 1_555
Hg52 Hg66 3.074719 1_555
Hg52 Hg65 3.074719 1_555
Hg52 Pr15 3.496498 1_555
Hg52 Pr14 3.496498 1_555
Hg52 Pr21 3.699777 1_555
Hg53 Hg79 3.013443 1_555
Hg53 Hg54 3.052285 1_555
Hg53 Hg64 3.074719 1_555
Hg53 Hg66 3.074719 1_555
Hg53 Pr16 3.496498 1_555
Hg53 Pr15 3.496498 1_555
Hg53 Pr21 3.699777 1_555
Hg54 Hg83 3.013443 1_555
Hg54 Hg64 3.074719 1_555
Hg54 Hg65 3.074719 1_555
Hg54 Pr14 3.496498 1_555
Hg54 Pr16 3.496498 1_555
Hg54 Pr21 3.699777 1_555
Hg55 Hg77 2.951365 1_554
Hg55 Hg88 3.292074 1_555
Hg55 Hg86 3.292074 1_555
Hg55 Pr18 3.388868 1_555
Hg55 Pr15 3.486953 1_555
Hg55 Pr7 3.490795 1_565
Hg55 Pr10 3.490806 1_565
Hg56 Hg75 2.951365 1_554
Hg56 Hg81 3.292074 1_555
Hg56 Hg86 3.292074 1_555
Hg56 Pr18 3.388843 1_555
Hg56 Pr17 3.486957 1_555
Hg56 Pr8 3.490808 1_555
Hg56 Pr5 3.490808 1_555
Hg57 Hg76 2.951365 1_554
Hg57 Hg88 3.292074 1_555
Hg57 Hg81 3.292074 1_555
Hg57 Pr18 3.388868 1_555
Hg57 Pr16 3.486953 1_555
Hg57 Pr6 3.490795 1_655
Hg57 Pr12 3.490806 1_655
Hg58 Hg77 2.951365 1_545
Hg58 Hg89 3.292074 1_555
Hg58 Hg85 3.292074 1_555
Hg58 Pr19 3.388868 1_555
Hg58 Pr14 3.486953 1_555
Hg58 Pr7 3.490795 1_556
Hg58 Pr10 3.490806 1_556
Hg59 Hg72 2.951365 1_545
Hg59 Hg89 3.292074 1_555
Hg59 Hg78 3.292074 1_555
Hg59 Pr19 3.388868 1_555
Hg59 Pr16 3.486953 1_555
Hg59 Pr2 3.490795 1_655
Hg59 Pr11 3.490806 1_655
Hg60 Hg73 2.951365 1_545
Hg60 Hg85 3.292074 1_555
Hg60 Hg78 3.292074 1_555
Hg60 Pr19 3.388843 1_555
Hg60 Pr17 3.486957 1_555
Hg60 Pr3 3.490808 1_555
Hg60 Pr9 3.490808 1_555
Hg61 Hg74 2.951365 1_455
Hg61 Hg80 3.292074 1_555
Hg61 Hg82 3.292074 1_555
Hg61 Pr20 3.388843 1_555
Hg61 Pr17 3.486957 1_555
Hg61 Pr4 3.490808 1_555
Hg61 Pr1 3.490808 1_555
Hg62 Hg72 2.951365 1_455
Hg62 Hg87 3.292074 1_555
Hg62 Hg80 3.292074 1_555
Hg62 Pr20 3.388868 1_555
Hg62 Pr15 3.486953 1_555
Hg62 Pr2 3.490795 1_565
Hg62 Pr11 3.490806 1_565
Hg63 Hg76 2.951365 1_455
Hg63 Hg87 3.292074 1_555
Hg63 Hg82 3.292074 1_555
Hg63 Pr20 3.388868 1_555
Hg63 Pr14 3.486953 1_555
Hg63 Pr6 3.490795 1_556
Hg63 Pr12 3.490806 1_556
Hg64 Hg74 2.951352 1_555
Hg64 Hg79 3.292074 1_555
Hg64 Hg83 3.292074 1_555
Hg64 Pr21 3.388847 1_555
Hg64 Pr16 3.486980 1_555
Hg64 Pr4 3.490797 1_655
Hg64 Pr1 3.490797 1_655
Hg65 Hg75 2.951352 1_555
Hg65 Hg84 3.292074 1_555
Hg65 Hg83 3.292074 1_555
Hg65 Pr21 3.388847 1_555
Hg65 Pr14 3.486980 1_555
Hg65 Pr5 3.490797 1_556
Hg65 Pr8 3.490797 1_556
Hg66 Hg73 2.951352 1_555
Hg66 Hg79 3.292074 1_555
Hg66 Hg84 3.292074 1_555
Hg66 Pr21 3.388847 1_555
Hg66 Pr15 3.486980 1_555
Hg66 Pr3 3.490797 1_565
Hg66 Pr9 3.490797 1_565
Hg67 Hg71 3.027517 1_555
Hg67 Hg70 3.027517 1_555
Hg67 Hg68 3.027517 1_555
Hg67 Hg69 3.027517 1_555
Hg67 Pr19 3.436676 1_565
Hg67 Pr20 3.436676 1_655
Hg67 Pr18 3.436676 1_556
Hg67 Pr21 3.436689 1_555
Hg68 Hg73 3.104377 1_555
Hg68 Hg74 3.104377 1_555
Hg68 Hg72 3.104377 1_555
Hg68 Hg79 3.120354 1_555
Hg68 Hg78 3.120366 1_565
Hg68 Hg80 3.120366 1_655
Hg68 Pr19 3.747022 1_565
Hg68 Pr20 3.747022 1_655
Hg68 Pr21 3.747034 1_555
Hg69 Hg74 3.104377 1_555
Hg69 Hg75 3.104377 1_555
Hg69 Hg76 3.104377 1_555
Hg69 Hg83 3.120354 1_555
Hg69 Hg81 3.120366 1_556
Hg69 Hg82 3.120366 1_655
Hg69 Pr20 3.747022 1_655
Hg69 Pr18 3.747022 1_556
Hg69 Pr21 3.747034 1_555
Hg70 Hg75 3.104377 1_555
Hg70 Hg73 3.104377 1_555
Hg70 Hg77 3.104377 1_555
Hg70 Hg84 3.120354 1_555
Hg70 Hg85 3.120366 1_565
Hg70 Hg86 3.120366 1_556
Hg70 Pr19 3.747022 1_565
Hg70 Pr18 3.747022 1_556
Hg70 Pr21 3.747034 1_555
Hg71 Hg72 3.104377 1_555
Hg71 Hg76 3.104377 1_555
Hg71 Hg77 3.104377 1_555
Hg71 Hg88 3.120368 1_556
Hg71 Hg89 3.120368 1_565
Hg71 Hg87 3.120368 1_655
Hg71 Pr20 3.747033 1_655
Hg71 Pr18 3.747033 1_556
Hg71 Pr19 3.747033 1_565
Hg72 Pr20 3.251001 1_655
Hg72 Pr19 3.251001 1_565
Hg72 Pr2 3.399060 1_665
Hg72 Pr11 3.399060 1_665
Hg73 Pr19 3.250988 1_565
Hg73 Pr21 3.251002 1_555
Hg73 Pr9 3.399060 1_565
Hg73 Pr3 3.399060 1_565
Hg74 Pr20 3.250988 1_655
Hg74 Pr21 3.251002 1_555
Hg74 Pr1 3.399060 1_655
Hg74 Pr4 3.399060 1_655
Hg75 Pr18 3.250988 1_556
Hg75 Pr21 3.251002 1_555
Hg75 Pr8 3.399060 1_556
Hg75 Pr5 3.399060 1_556
Hg76 Pr20 3.251001 1_655
Hg76 Pr18 3.251001 1_556
Hg76 Pr6 3.399060 1_656
Hg76 Pr12 3.399060 1_656
Hg77 Pr19 3.251001 1_565
Hg77 Pr18 3.251001 1_556
Hg77 Pr7 3.399060 1_566
Hg77 Pr10 3.399060 1_566
Hg78 Pr11 3.314535 1_655
Hg78 Pr9 3.314549 1_555
Hg78 Pr19 3.364572 1_555
Hg79 Pr9 3.314538 1_565
Hg79 Pr4 3.314538 1_655
Hg79 Pr21 3.364575 1_555
Hg80 Pr11 3.314535 1_565
Hg80 Pr4 3.314549 1_555
Hg80 Pr20 3.364572 1_555
Hg81 Pr12 3.314535 1_655
Hg81 Pr8 3.314549 1_555
Hg81 Pr18 3.364572 1_555
Hg82 Pr12 3.314535 1_556
Hg82 Pr1 3.314549 1_555
Hg82 Pr20 3.364572 1_555
Hg83 Hg9 3.254029 1_555
Hg83 Pr8 3.314538 1_556
Hg83 Pr1 3.314538 1_655
Hg83 Pr21 3.364575 1_555
Hg84 Pr3 3.314538 1_565
Hg84 Pr5 3.314538 1_556
Hg84 Pr21 3.364575 1_555
Hg85 Pr10 3.314535 1_556
Hg85 Pr3 3.314549 1_555
Hg85 Pr19 3.364572 1_555
Hg86 Pr10 3.314535 1_565
Hg86 Pr5 3.314549 1_555
Hg86 Pr18 3.364572 1_555
Hg87 Pr6 3.314537 1_556
Hg87 Pr2 3.314537 1_565
Hg87 Pr20 3.364598 1_555
Hg88 Pr7 3.314537 1_565
Hg88 Pr6 3.314537 1_655
Hg88 Pr18 3.364598 1_555
Hg89 Hg9 3.254016 1_555
Hg89 Pr2 3.314537 1_655
Hg89 Pr7 3.314537 1_556
Hg89 Pr19 3.364598 1_555
