# generated using pymatgen
data_Er5Ga3
_symmetry_space_group_name_H-M   'P 1'
_cell_length_a   8.48225523
_cell_length_b   8.48225275
_cell_length_c   6.46238353
_cell_angle_alpha   90.00000062
_cell_angle_beta   89.99999862
_cell_angle_gamma   119.99945624
_symmetry_Int_Tables_number   1
_chemical_formula_structural   Er5Ga3
_chemical_formula_sum   'Er10 Ga6'
_cell_volume   402.66908285
_cell_formula_units_Z   2
loop_
 _symmetry_equiv_pos_site_id
 _symmetry_equiv_pos_as_xyz
  1  'x, y, z'
loop_
 _atom_site_type_symbol
 _atom_site_label
 _atom_site_symmetry_multiplicity
 _atom_site_fract_x
 _atom_site_fract_y
 _atom_site_fract_z
 _atom_site_occupancy
  Er  Er0  1  0.99999865  0.74740270  0.75000017  1
  Er  Er1  1  0.99999952  0.25259776  0.24999953  1
  Er  Er2  1  0.74740332  0.74740306  0.25000008  1
  Er  Er3  1  0.74740262  0.00000143  0.75000012  1
  Er  Er4  1  0.25259811  0.25259613  0.75000033  1
  Er  Er5  1  0.25259849  -0.00000005  0.24999980  1
  Er  Er6  1  0.33333416  0.66666552  0.50000071  1
  Er  Er7  1  0.66666608  0.33333450  0.00000163  1
  Er  Er8  1  0.66666562  0.33333434  0.49999836  1
  Er  Er9  1  0.33333409  0.66666559  0.99999875  1
  Ga  Ga0  1  0.39456231  -0.00000048  0.75000006  1
  Ga  Ga1  1  0.39456116  0.39456189  0.24999968  1
  Ga  Ga2  1  1.00000084  0.60543904  0.24999996  1
  Ga  Ga3  1  1.00000036  0.39456271  0.74999991  1
  Ga  Ga4  1  0.60543733  0.60543768  0.75000014  1
  Ga  Ga5  1  0.60543833  -0.00000083  0.24999977  1
loop_
_geom_bond_atom_site_label_1
_geom_bond_atom_site_label_2
_geom_bond_distance
_geom_bond_site_symmetry_2
Er0 Ga4 2.936131 1_555
Er0 Ga0 2.936156 1_665
Er0 Ga3 2.992885 1_555
Er0 Ga2 3.448281 1_556
Er0 Ga2 3.448284 1_555
Er1 Ga1 2.936135 1_655
Er1 Ga5 2.936142 1_555
Er1 Ga2 2.992883 1_555
Er1 Ga3 3.448280 1_554
Er1 Ga3 3.448284 1_555
Er2 Ga5 2.936111 1_565
Er2 Ga2 2.936116 1_555
Er2 Ga1 2.992917 1_555
Er2 Ga4 3.448288 1_554
Er2 Ga4 3.448289 1_555
Er3 Ga3 2.936141 1_555
Er3 Ga4 2.936149 1_545
Er3 Ga0 2.992873 1_555
Er3 Ga5 3.448276 1_556
Er3 Ga5 3.448280 1_555
Er4 Ga0 2.936109 1_555
Er4 Ga3 2.936134 1_455
Er4 Ga4 2.992906 1_555
Er4 Ga1 3.448281 1_556
Er4 Ga1 3.448289 1_555
Er5 Ga2 2.936139 1_445
Er5 Ga1 2.936139 1_555
Er5 Ga5 2.992881 1_555
Er5 Ga0 3.448279 1_554
Er5 Ga0 3.448282 1_555
Er6 Ga4 3.066858 1_555
Er6 Ga1 3.066862 1_555
Er6 Ga0 3.066884 1_565
Er6 Ga2 3.066889 1_455
Er6 Ga3 3.066889 1_455
Er6 Ga5 3.066898 1_565
Er7 Ga1 3.066863 1_555
Er7 Ga4 3.066869 1_554
Er7 Ga5 3.066891 1_555
Er7 Ga3 3.066895 1_554
Er7 Ga2 3.066895 1_555
Er7 Ga0 3.066905 1_554
Er8 Ga1 3.066863 1_555
Er8 Ga4 3.066868 1_555
Er8 Ga5 3.066892 1_555
Er8 Ga3 3.066897 1_555
Er8 Ga2 3.066898 1_555
Er8 Ga0 3.066904 1_555
Er9 Ga4 3.066856 1_555
Er9 Ga1 3.066863 1_556
Er9 Ga0 3.066881 1_565
Er9 Ga3 3.066888 1_455
Er9 Ga2 3.066890 1_456
Er9 Ga5 3.066898 1_566
