# generated using pymatgen
data_TiVO3
_symmetry_space_group_name_H-M   'P 1'
_cell_length_a   5.04364651
_cell_length_b   5.54176861
_cell_length_c   5.04364467
_cell_angle_alpha   117.06824508
_cell_angle_beta   120.00119235
_cell_angle_gamma   62.93141434
_symmetry_Int_Tables_number   1
_chemical_formula_structural   TiVO3
_chemical_formula_sum   'Ti2 V2 O6'
_cell_volume   103.87320060
_cell_formula_units_Z   2
loop_
 _symmetry_equiv_pos_site_id
 _symmetry_equiv_pos_as_xyz
  1  'x, y, z'
loop_
 _atom_site_type_symbol
 _atom_site_label
 _atom_site_symmetry_multiplicity
 _atom_site_fract_x
 _atom_site_fract_y
 _atom_site_fract_z
 _atom_site_occupancy
  Ti  Ti0  1  0.85023439  0.44929893  0.14974625  1
  Ti  Ti1  1  0.35024134  0.94931883  0.64977041  1
  V  V0  1  0.65238135  0.04281640  0.34761577  1
  V  V1  1  0.15238226  0.54281432  0.84761794  1
  O  O0  1  0.06955844  0.75264501  0.26742891  1
  O  O1  1  0.73255325  0.75260037  0.55474166  1
  O  O2  1  0.44525647  0.75261584  0.93043309  1
  O  O3  1  0.23255066  0.25266120  0.43043943  1
  O  O4  1  0.56957944  0.25262318  0.05474171  1
  O  O5  1  0.94526140  0.25260593  0.76746582  1
loop_
_geom_bond_atom_site_label_1
_geom_bond_atom_site_label_2
_geom_bond_distance
_geom_bond_site_symmetry_2
O0 Ti1 1.916273 1_555
O0 V1 2.052217 1_554
O0 V0 2.087191 1_465
O0 Ti0 2.128311 1_455
O1 Ti1 1.916207 1_555
O1 V1 2.052271 1_655
O1 V0 2.087175 1_565
O1 Ti0 2.128305 1_555
O2 Ti1 1.916320 1_555
O2 V1 2.052396 1_555
O2 V0 2.087151 1_566
O2 Ti0 2.128157 1_556
O3 Ti0 1.916151 1_455
O3 V0 2.052299 1_555
O3 V1 2.087148 1_555
O3 Ti1 2.128297 1_545
O4 Ti0 1.916193 1_555
O4 V0 2.052440 1_555
O4 V1 2.087138 1_554
O4 Ti1 2.128168 1_544
O5 Ti0 1.916068 1_556
O5 V0 2.052343 1_555
O5 V1 2.087164 1_655
O5 Ti1 2.128252 1_645
