# generated using pymatgen
data_CsKZr6BCl15
_symmetry_space_group_name_H-M   'P 1'
_cell_length_a   9.90405800
_cell_length_b   14.27007600
_cell_length_c   19.00439900
_cell_angle_alpha   90.00000000
_cell_angle_beta   90.00000000
_cell_angle_gamma   90.00000000
_symmetry_Int_Tables_number   1
_chemical_formula_structural   CsKZr6BCl15
_chemical_formula_sum   'Cs4 K4 Zr24 B4 Cl60'
_cell_volume   2685.92326497
_cell_formula_units_Z   4
loop_
 _symmetry_equiv_pos_site_id
 _symmetry_equiv_pos_as_xyz
  1  'x, y, z'
loop_
 _atom_site_type_symbol
 _atom_site_label
 _atom_site_symmetry_multiplicity
 _atom_site_fract_x
 _atom_site_fract_y
 _atom_site_fract_z
 _atom_site_occupancy
  Cs  Cs0  1  0.40889800  0.50000000  0.75000000  1
  Cs  Cs1  1  0.59110200  0.50000000  0.25000000  1
  Cs  Cs2  1  0.00000000  0.00000000  0.50000000  1
  Cs  Cs3  1  0.00000000  0.00000000  0.00000000  1
  K  K0  1  0.84202600  0.25144700  0.75000000  1
  K  K1  1  0.15797400  0.74855300  0.25000000  1
  K  K2  1  0.84202600  0.74855300  0.75000000  1
  K  K3  1  0.15797400  0.25144700  0.25000000  1
  Zr  Zr0  1  0.58594900  0.00000000  0.75000000  1
  Zr  Zr1  1  0.41405100  0.00000000  0.25000000  1
  Zr  Zr2  1  0.08051100  0.50000000  0.11421300  1
  Zr  Zr3  1  0.91948900  0.50000000  0.88578700  1
  Zr  Zr4  1  0.08051100  0.50000000  0.38578700  1
  Zr  Zr5  1  0.91948900  0.50000000  0.61421300  1
  Zr  Zr6  1  0.15847600  0.38434300  0.52878000  1
  Zr  Zr7  1  0.84152400  0.61565700  0.47122000  1
  Zr  Zr8  1  0.15847600  0.61565700  0.97122000  1
  Zr  Zr9  1  0.84152400  0.38434300  0.47122000  1
  Zr  Zr10  1  0.84152400  0.38434300  0.02878000  1
  Zr  Zr11  1  0.15847600  0.61565700  0.52878000  1
  Zr  Zr12  1  0.84152400  0.61565700  0.02878000  1
  Zr  Zr13  1  0.15847600  0.38434300  0.97122000  1
  Zr  Zr14  1  0.35326700  0.11605200  0.66263000  1
  Zr  Zr15  1  0.64673300  0.88394800  0.33737000  1
  Zr  Zr16  1  0.35326700  0.88394800  0.83737000  1
  Zr  Zr17  1  0.64673300  0.11605200  0.33737000  1
  Zr  Zr18  1  0.64673300  0.11605200  0.16263000  1
  Zr  Zr19  1  0.35326700  0.88394800  0.66263000  1
  Zr  Zr20  1  0.64673300  0.88394800  0.16263000  1
  Zr  Zr21  1  0.35326700  0.11605200  0.83737000  1
  Zr  Zr22  1  0.12203700  0.00000000  0.75000000  1
  Zr  Zr23  1  0.87796300  0.00000000  0.25000000  1
  B  B0  1  0.35448700  0.00000000  0.75000000  1
  B  B1  1  0.64551300  0.00000000  0.25000000  1
  B  B2  1  0.00000000  0.50000000  0.50000000  1
  B  B3  1  0.00000000  0.50000000  0.00000000  1
  Cl  Cl0  1  0.00000000  0.24765600  0.50000000  1
  Cl  Cl1  1  0.00000000  0.75234400  0.50000000  1
  Cl  Cl2  1  0.00000000  0.75234400  0.00000000  1
  Cl  Cl3  1  0.00000000  0.24765600  0.00000000  1
  Cl  Cl4  1  0.08564100  0.37562400  0.65894900  1
  Cl  Cl5  1  0.91435900  0.62437600  0.34105100  1
  Cl  Cl6  1  0.08564100  0.62437600  0.84105100  1
  Cl  Cl7  1  0.91435900  0.37562400  0.34105100  1
  Cl  Cl8  1  0.91435900  0.37562400  0.15894900  1
  Cl  Cl9  1  0.08564100  0.62437600  0.65894900  1
  Cl  Cl10  1  0.91435900  0.62437600  0.15894900  1
  Cl  Cl11  1  0.08564100  0.37562400  0.84105100  1
  Cl  Cl12  1  0.34617900  0.50000000  0.56310900  1
  Cl  Cl13  1  0.65382100  0.50000000  0.43689100  1
  Cl  Cl14  1  0.34617900  0.50000000  0.93689100  1
  Cl  Cl15  1  0.65382100  0.50000000  0.06310900  1
  Cl  Cl16  1  0.35980700  0.25343200  0.75000000  1
  Cl  Cl17  1  0.64019300  0.74656800  0.25000000  1
  Cl  Cl18  1  0.35980700  0.74656800  0.75000000  1
  Cl  Cl19  1  0.64019300  0.25343200  0.25000000  1
  Cl  Cl20  1  0.34330400  0.25096300  0.56270800  1
  Cl  Cl21  1  0.65669600  0.74903700  0.43729200  1
  Cl  Cl22  1  0.34330400  0.74903700  0.93729200  1
  Cl  Cl23  1  0.65669600  0.25096300  0.43729200  1
  Cl  Cl24  1  0.65669600  0.25096300  0.06270800  1
  Cl  Cl25  1  0.34330400  0.74903700  0.56270800  1
  Cl  Cl26  1  0.65669600  0.74903700  0.06270800  1
  Cl  Cl27  1  0.34330400  0.25096300  0.93729200  1
  Cl  Cl28  1  0.09238600  0.12673900  0.65599000  1
  Cl  Cl29  1  0.90761400  0.87326100  0.34401000  1
  Cl  Cl30  1  0.09238600  0.87326100  0.84401000  1
  Cl  Cl31  1  0.90761400  0.12673900  0.34401000  1
  Cl  Cl32  1  0.90761400  0.12673900  0.15599000  1
  Cl  Cl33  1  0.09238600  0.87326100  0.65599000  1
  Cl  Cl34  1  0.90761400  0.87326100  0.15599000  1
  Cl  Cl35  1  0.09238600  0.12673900  0.84401000  1
  Cl  Cl36  1  0.25931500  0.37206700  0.09641300  1
  Cl  Cl37  1  0.74068500  0.62793300  0.90358700  1
  Cl  Cl38  1  0.25931500  0.62793300  0.40358700  1
  Cl  Cl39  1  0.74068500  0.37206700  0.90358700  1
  Cl  Cl40  1  0.74068500  0.37206700  0.59641300  1
  Cl  Cl41  1  0.25931500  0.62793300  0.09641300  1
  Cl  Cl42  1  0.74068500  0.62793300  0.59641300  1
  Cl  Cl43  1  0.25931500  0.37206700  0.40358700  1
  Cl  Cl44  1  0.85366100  0.00000000  0.75000000  1
  Cl  Cl45  1  0.14633900  0.00000000  0.25000000  1
  Cl  Cl46  1  0.34961500  0.00000000  0.55916700  1
  Cl  Cl47  1  0.65038500  0.00000000  0.44083300  1
  Cl  Cl48  1  0.34961500  0.00000000  0.94083300  1
  Cl  Cl49  1  0.65038500  0.00000000  0.05916700  1
  Cl  Cl50  1  0.61254800  0.12659000  0.65392400  1
  Cl  Cl51  1  0.38745200  0.87341000  0.34607600  1
  Cl  Cl52  1  0.61254800  0.87341000  0.84607600  1
  Cl  Cl53  1  0.38745200  0.12659000  0.34607600  1
  Cl  Cl54  1  0.38745200  0.12659000  0.15392400  1
  Cl  Cl55  1  0.61254800  0.87341000  0.65392400  1
  Cl  Cl56  1  0.38745200  0.87341000  0.15392400  1
  Cl  Cl57  1  0.61254800  0.12659000  0.84607600  1
  Cl  Cl58  1  0.81201100  0.50000000  0.75000000  1
  Cl  Cl59  1  0.18798900  0.50000000  0.25000000  1
loop_
_geom_bond_atom_site_label_1
_geom_bond_atom_site_label_2
_geom_bond_distance
_geom_bond_site_symmetry_2
B0 Zr0 2.292413 1_555
B0 Zr22 2.302198 1_555
B0 Zr21 2.345142 1_555
B0 Zr14 2.345142 1_555
B0 Zr16 2.345142 1_545
B0 Zr19 2.345142 1_545
B1 Zr1 2.292413 1_555
B1 Zr23 2.302198 1_555
B1 Zr17 2.345142 1_555
B1 Zr18 2.345142 1_555
B1 Zr15 2.345142 1_545
B1 Zr20 2.345142 1_545
B2 Zr4 2.312382 1_555
B2 Zr5 2.312382 1_455
B2 Zr9 2.342347 1_455
B2 Zr7 2.342347 1_455
B2 Zr6 2.342347 1_555
B2 Zr11 2.342347 1_555
B3 Zr3 2.312382 1_454
B3 Zr2 2.312382 1_555
B3 Zr12 2.342347 1_455
B3 Zr10 2.342347 1_455
B3 Zr8 2.342347 1_554
B3 Zr13 2.342347 1_554
Cl0 Zr9 2.562662 1_455
Cl0 Zr6 2.562662 1_555
Cl0 Cs2 3.534070 1_555
Cl1 Zr7 2.562662 1_455
Cl1 Zr11 2.562662 1_555
Cl1 Cs2 3.534070 1_565
Cl2 Zr12 2.562662 1_455
Cl2 Zr8 2.562662 1_554
Cl2 Cs3 3.534070 1_565
Cl3 Zr10 2.562662 1_455
Cl3 Zr13 2.562662 1_554
Cl3 Cs3 3.534070 1_555
Cl4 Zr5 2.565316 1_455
Cl4 Zr6 2.579816 1_555
Cl4 K0 3.457703 1_455
Cl4 Cs0 4.048981 1_555
Cl5 Zr4 2.565316 1_655
Cl5 Zr7 2.579816 1_555
Cl5 K1 3.457703 1_655
Cl5 Cs1 4.048981 1_555
Cl6 Zr3 2.565316 1_455
Cl6 Zr8 2.579816 1_555
Cl6 K2 3.457703 1_455
Cl6 Cs0 4.048981 1_555
Cl7 Zr4 2.565316 1_655
Cl7 Zr9 2.579816 1_555
Cl7 K3 3.457703 1_655
Cl7 Cs1 4.048981 1_555
Cl8 Zr2 2.565316 1_655
Cl8 Zr10 2.579816 1_555
Cl8 K3 3.457703 1_655
Cl8 Cs1 4.048981 1_555
Cl9 Zr5 2.565316 1_455
Cl9 Zr11 2.579816 1_555
Cl9 K2 3.457703 1_455
Cl9 Cs0 4.048981 1_555
Cl10 Zr2 2.565316 1_655
Cl10 Zr12 2.579816 1_555
Cl10 K1 3.457703 1_655
Cl10 Cs1 4.048981 1_555
Cl11 Zr3 2.565316 1_455
Cl11 Zr13 2.579816 1_555
Cl11 K0 3.457703 1_455
Cl11 Cs0 4.048981 1_555
Cl12 Zr11 2.570121 1_555
Cl12 Zr6 2.570121 1_555
Cl12 Cs0 3.605661 1_555
Cl13 Zr9 2.570121 1_555
Cl13 Zr7 2.570121 1_555
Cl13 Cs1 3.605661 1_555
Cl14 Zr13 2.570121 1_555
Cl14 Zr8 2.570121 1_555
Cl14 Cs0 3.605661 1_555
Cl15 Zr10 2.570121 1_555
Cl15 Zr12 2.570121 1_555
Cl15 Cs1 3.605661 1_555
Cl16 Zr14 2.569909 1_555
Cl16 Zr21 2.569909 1_555
Cl16 Cs0 3.551977 1_555
Cl17 Zr15 2.569909 1_555
Cl17 Zr20 2.569909 1_555
Cl17 Cs1 3.551977 1_555
Cl18 Zr16 2.569909 1_555
Cl18 Zr19 2.569909 1_555
Cl18 Cs0 3.551977 1_555
Cl19 Zr17 2.569909 1_555
Cl19 Zr18 2.569909 1_555
Cl19 Cs1 3.551977 1_555
Cl20 Zr14 2.705944 1_555
Cl20 Zr6 2.718338 1_555
Cl21 Zr15 2.705944 1_555
Cl21 Zr7 2.718338 1_555
Cl22 Zr16 2.705944 1_555
Cl22 Zr8 2.718338 1_555
Cl23 Zr17 2.705944 1_555
Cl23 Zr9 2.718338 1_555
Cl24 Zr18 2.705944 1_555
Cl24 Zr10 2.718338 1_555
Cl25 Zr19 2.705944 1_555
Cl25 Zr11 2.718338 1_555
Cl26 Zr20 2.705944 1_555
Cl26 Zr12 2.718338 1_555
Cl27 Zr21 2.705944 1_555
Cl27 Zr13 2.718338 1_555
Cl28 Zr22 2.559128 1_555
Cl28 Zr14 2.591352 1_555
Cl28 K0 3.536555 1_455
Cl28 Cs2 3.591156 1_555
Cl29 Zr23 2.559128 1_565
Cl29 Zr15 2.591352 1_555
Cl29 K1 3.536555 1_655
Cl29 Cs2 3.591156 1_665
Cl30 Zr22 2.559128 1_565
Cl30 Zr16 2.591352 1_555
Cl30 K2 3.536555 1_455
Cl30 Cs3 3.591156 1_566
Cl31 Zr23 2.559128 1_555
Cl31 Zr17 2.591352 1_555
Cl31 K3 3.536555 1_655
Cl31 Cs2 3.591156 1_655
Cl32 Zr23 2.559128 1_555
Cl32 Zr18 2.591352 1_555
Cl32 K3 3.536555 1_655
Cl32 Cs3 3.591156 1_655
Cl33 Zr22 2.559128 1_565
Cl33 Zr19 2.591352 1_555
Cl33 K2 3.536555 1_455
Cl33 Cs2 3.591156 1_565
Cl34 Zr23 2.559128 1_565
Cl34 Zr20 2.591352 1_555
Cl34 K1 3.536555 1_655
Cl34 Cs3 3.591156 1_665
Cl35 Zr22 2.559128 1_555
Cl35 Zr21 2.591352 1_555
Cl35 K0 3.536555 1_455
Cl35 Cs3 3.591156 1_556
Cl36 Zr2 2.565800 1_555
Cl36 Zr13 2.586271 1_554
Cl36 K3 3.534073 1_555
Cl37 Zr3 2.565800 1_555
Cl37 Zr12 2.586271 1_556
Cl37 K2 3.534073 1_555
Cl38 Zr4 2.565800 1_555
Cl38 Zr11 2.586271 1_555
Cl38 K1 3.534073 1_555
Cl39 Zr3 2.565800 1_555
Cl39 Zr10 2.586271 1_556
Cl39 K0 3.534073 1_555
Cl40 Zr5 2.565800 1_555
Cl40 Zr9 2.586271 1_555
Cl40 K0 3.534073 1_555
Cl41 Zr2 2.565800 1_555
Cl41 Zr8 2.586271 1_554
Cl41 K1 3.534073 1_555
Cl42 Zr5 2.565800 1_555
Cl42 Zr7 2.586271 1_555
Cl42 K2 3.534073 1_555
Cl43 Zr4 2.565800 1_555
Cl43 Zr6 2.586271 1_555
Cl43 K3 3.534073 1_555
Cl44 Zr0 2.651435 1_555
Cl44 Zr22 2.658011 1_655
Cl44 K0 3.590018 1_555
Cl44 K2 3.590018 1_545
Cl45 Zr1 2.651435 1_555
Cl45 Zr23 2.658011 1_455
Cl45 K3 3.590018 1_555
Cl45 K1 3.590018 1_545
Cl46 Zr19 2.570997 1_545
Cl46 Zr14 2.570997 1_555
Cl46 Cs2 3.640604 1_555
Cl47 Zr17 2.570997 1_555
Cl47 Zr15 2.570997 1_545
Cl47 Cs2 3.640604 1_655
Cl48 Zr16 2.570997 1_545
Cl48 Zr21 2.570997 1_555
Cl48 Cs3 3.640604 1_556
Cl49 Zr18 2.570997 1_555
Cl49 Zr20 2.570997 1_545
Cl49 Cs3 3.640604 1_655
Cl50 Zr14 2.577649 1_555
Cl50 Zr0 2.581946 1_555
Cl50 K0 3.416689 1_555
Cl51 Zr15 2.577649 1_555
Cl51 Zr1 2.581946 1_565
Cl51 K1 3.416689 1_555
Cl52 Zr16 2.577649 1_555
Cl52 Zr0 2.581946 1_565
Cl52 K2 3.416689 1_555
Cl53 Zr17 2.577649 1_555
Cl53 Zr1 2.581946 1_555
Cl53 K3 3.416689 1_555
Cl54 Zr18 2.577649 1_555
Cl54 Zr1 2.581946 1_555
Cl54 K3 3.416689 1_555
Cl55 Zr19 2.577649 1_555
Cl55 Zr0 2.581946 1_565
Cl55 K2 3.416689 1_555
Cl56 Zr20 2.577649 1_555
Cl56 Zr1 2.581946 1_565
Cl56 K1 3.416689 1_555
Cl57 Zr21 2.577649 1_555
Cl57 Zr0 2.581946 1_555
Cl57 K0 3.416689 1_555
Cl58 Zr5 2.791475 1_555
Cl58 Zr3 2.791475 1_555
Cl58 K2 3.559306 1_555
Cl58 K0 3.559306 1_555
Cl58 Cs0 3.992455 1_555
Cl59 Zr2 2.791475 1_555
Cl59 Zr4 2.791475 1_555
Cl59 K1 3.559306 1_555
Cl59 K3 3.559306 1_555
Cl59 Cs1 3.992455 1_555
