# generated using pymatgen
data_MgNiP2O7
_symmetry_space_group_name_H-M   'P 1'
_cell_length_a   8.38002700
_cell_length_b   7.01039800
_cell_length_c   9.12816972
_cell_angle_alpha   66.60331942
_cell_angle_beta   90.00000000
_cell_angle_gamma   90.00000000
_symmetry_Int_Tables_number   1
_chemical_formula_structural   MgNiP2O7
_chemical_formula_sum   'Mg4 Ni4 P8 O28'
_cell_volume   492.16334832
_cell_formula_units_Z   4
loop_
 _symmetry_equiv_pos_site_id
 _symmetry_equiv_pos_as_xyz
  1  'x, y, z'
loop_
 _atom_site_type_symbol
 _atom_site_label
 _atom_site_symmetry_multiplicity
 _atom_site_fract_x
 _atom_site_fract_y
 _atom_site_fract_z
 _atom_site_occupancy
  Mg  Mg0  1  0.94077300  0.69453000  0.18063900  1
  Mg  Mg1  1  0.44077300  0.30547000  0.31936100  1
  Mg  Mg2  1  0.55922700  0.69453000  0.68063900  1
  Mg  Mg3  1  0.05922700  0.30547000  0.81936100  1
  Ni  Ni0  1  0.07472900  0.22993500  0.38989400  1
  Ni  Ni1  1  0.92527100  0.77006500  0.61010600  1
  Ni  Ni2  1  0.57472900  0.77006500  0.11010600  1
  Ni  Ni3  1  0.42527100  0.22993500  0.88989400  1
  P  P0  1  0.73292900  0.05980600  0.75954800  1
  P  P1  1  0.22754900  0.53059500  0.03208600  1
  P  P2  1  0.76707100  0.05980600  0.25954800  1
  P  P3  1  0.27245100  0.53059500  0.53208600  1
  P  P4  1  0.23292900  0.94019400  0.74045200  1
  P  P5  1  0.72754900  0.46940500  0.46791400  1
  P  P6  1  0.77245100  0.46940500  0.96791400  1
  P  P7  1  0.26707100  0.94019400  0.24045200  1
  O  O0  1  0.17385900  0.74858200  0.89914500  1
  O  O1  1  0.61009000  0.11236300  0.31461200  1
  O  O2  1  0.88991000  0.11236300  0.81461200  1
  O  O3  1  0.39022100  0.55072100  0.10298100  1
  O  O4  1  0.82614100  0.25141800  0.10085500  1
  O  O5  1  0.09523800  0.97522600  0.62014600  1
  O  O6  1  0.60977900  0.44927900  0.89701900  1
  O  O7  1  0.09139400  0.48404300  0.15395100  1
  O  O8  1  0.26502900  0.37486300  0.45097300  1
  O  O9  1  0.90476200  0.02477400  0.37985400  1
  O  O10  1  0.40476200  0.97522600  0.12014600  1
  O  O11  1  0.76011700  0.87941900  0.20317600  1
  O  O12  1  0.26011700  0.12058100  0.29682400  1
  O  O13  1  0.32614100  0.74858200  0.39914500  1
  O  O14  1  0.59523800  0.02477400  0.87985400  1
  O  O15  1  0.11009000  0.88763700  0.18538800  1
  O  O16  1  0.23988300  0.12058100  0.79682400  1
  O  O17  1  0.90860600  0.51595700  0.84604900  1
  O  O18  1  0.23497100  0.37486300  0.95097300  1
  O  O19  1  0.76502900  0.62513700  0.04902700  1
  O  O20  1  0.89022100  0.44927900  0.39701900  1
  O  O21  1  0.40860600  0.48404300  0.65395100  1
  O  O22  1  0.59139400  0.51595700  0.34604900  1
  O  O23  1  0.38991000  0.88763700  0.68538800  1
  O  O24  1  0.73988300  0.87941900  0.70317600  1
  O  O25  1  0.10977900  0.55072100  0.60298100  1
  O  O26  1  0.73497100  0.62513700  0.54902700  1
  O  O27  1  0.67385900  0.25141800  0.60085500  1
loop_
_geom_bond_atom_site_label_1
_geom_bond_atom_site_label_2
_geom_bond_distance
_geom_bond_site_symmetry_2
Mg0 O15 1.973415 1_655
Mg0 O7 2.028644 1_655
Mg0 O11 2.055719 1_555
Mg0 O19 2.076795 1_555
Mg0 O20 2.083200 1_555
Mg1 O1 1.973415 1_555
Mg1 O22 2.028644 1_555
Mg1 O12 2.055719 1_555
Mg1 O8 2.076795 1_555
Mg1 O3 2.083200 1_555
Mg2 O23 1.973415 1_555
Mg2 O21 2.028644 1_555
Mg2 O24 2.055719 1_555
Mg2 O26 2.076795 1_555
Mg2 O6 2.083200 1_555
Mg3 O2 1.973415 1_455
Mg3 O17 2.028644 1_455
Mg3 O16 2.055719 1_555
Mg3 O18 2.076795 1_555
Mg3 O25 2.083200 1_555
Ni0 O9 2.051922 1_455
Ni0 O12 2.059182 1_555
Ni0 O8 2.082335 1_555
Ni0 O5 2.157513 1_545
Ni0 O7 2.187327 1_555
Ni0 O20 2.199732 1_455
Ni1 O5 2.051922 1_655
Ni1 O24 2.059182 1_555
Ni1 O26 2.082335 1_555
Ni1 O9 2.157513 1_565
Ni1 O17 2.187327 1_555
Ni1 O25 2.199732 1_655
Ni2 O10 2.051922 1_555
Ni2 O11 2.059182 1_555
Ni2 O19 2.082335 1_555
Ni2 O14 2.157513 1_564
Ni2 O22 2.187327 1_555
Ni2 O3 2.199732 1_555
Ni3 O14 2.051922 1_555
Ni3 O16 2.059182 1_555
Ni3 O18 2.082335 1_555
Ni3 O10 2.157513 1_546
Ni3 O21 2.187327 1_555
Ni3 O6 2.199732 1_555
O0 P1 1.592974 1_556
O0 P4 1.613206 1_555
O1 P2 1.505332 1_555
O2 P0 1.505332 1_555
O3 P1 1.539323 1_555
O4 P6 1.592974 1_554
O4 P2 1.613206 1_555
O5 P4 1.543855 1_555
O6 P6 1.539323 1_555
O7 P1 1.535406 1_555
O8 P3 1.544655 1_555
O9 P2 1.543855 1_555
O10 P7 1.543855 1_555
O11 P2 1.544070 1_565
O12 P7 1.544070 1_545
O13 P3 1.592974 1_555
O13 P7 1.613206 1_555
O14 P0 1.543855 1_555
O15 P7 1.505332 1_555
O16 P4 1.544070 1_545
O17 P6 1.535406 1_555
O18 P1 1.544655 1_556
O19 P6 1.544655 1_554
O20 P5 1.539323 1_555
O21 P3 1.535406 1_555
O22 P5 1.535406 1_555
O23 P4 1.505332 1_555
O24 P0 1.544070 1_565
O25 P3 1.539323 1_555
O26 P5 1.544655 1_555
O27 P5 1.592974 1_555
O27 P0 1.613206 1_555
