# generated using pymatgen
data_Y
_symmetry_space_group_name_H-M   'P 1'
_cell_length_a   7.28513924
_cell_length_b   7.28513833
_cell_length_c   11.75831670
_cell_angle_alpha   90.00000000
_cell_angle_beta   90.00000000
_cell_angle_gamma   119.99998494
_symmetry_Int_Tables_number   1
_chemical_formula_structural   Y
_chemical_formula_sum   Y16
_cell_volume   540.44500866
_cell_formula_units_Z   16
loop_
 _symmetry_equiv_pos_site_id
 _symmetry_equiv_pos_as_xyz
  1  'x, y, z'
loop_
 _atom_site_type_symbol
 _atom_site_label
 _atom_site_symmetry_multiplicity
 _atom_site_fract_x
 _atom_site_fract_y
 _atom_site_fract_z
 _atom_site_occupancy
  Y  Y0_0  1  0.16666650  0.33333350  0.12500000  1
  Y  Y0_1  1  0.16666650  0.33333350  0.62500000  1
  Y  Y0_2  1  0.16666650  0.83333350  0.12500000  1
  Y  Y0_3  1  0.16666650  0.83333350  0.62500000  1
  Y  Y0_4  1  0.66666650  0.33333350  0.12500000  1
  Y  Y0_5  1  0.66666650  0.33333350  0.62500000  1
  Y  Y0_6  1  0.66666650  0.83333350  0.12500000  1
  Y  Y0_7  1  0.66666650  0.83333350  0.62500000  1
  Y  Y1_0  1  0.33333350  0.16666650  0.37500000  1
  Y  Y1_1  1  0.33333350  0.16666650  0.87500000  1
  Y  Y1_2  1  0.33333350  0.66666650  0.37500000  1
  Y  Y1_3  1  0.33333350  0.66666650  0.87500000  1
  Y  Y1_4  1  0.83333350  0.16666650  0.37500000  1
  Y  Y1_5  1  0.83333350  0.16666650  0.87500000  1
  Y  Y1_6  1  0.83333350  0.66666650  0.37500000  1
  Y  Y1_7  1  0.83333350  0.66666650  0.87500000  1
loop_
_geom_bond_atom_site_label_1
_geom_bond_atom_site_label_2
_geom_bond_distance
_geom_bond_site_symmetry_2
Y0_0 Y1_3 3.614400 1_554
Y0_0 Y1_2 3.614400 1_555
Y0_0 Y1_5 3.614400 1_454
Y0_0 Y1_4 3.614400 1_455
Y0_0 Y1_0 3.614404 1_555
Y0_0 Y1_1 3.614404 1_554
Y0_0 Y0_2 3.642569 1_545
Y0_0 Y0_2 3.642569 1_555
Y0_0 Y0_4 3.642570 1_555
Y0_0 Y0_4 3.642570 1_455
Y0_0 Y0_6 3.642570 1_445
Y0_0 Y0_6 3.642570 1_555
Y0_1 Y1_3 3.614400 1_555
Y0_1 Y1_2 3.614400 1_555
Y0_1 Y1_5 3.614400 1_455
Y0_1 Y1_4 3.614400 1_455
Y0_1 Y1_1 3.614404 1_555
Y0_1 Y1_0 3.614404 1_555
Y0_1 Y0_3 3.642569 1_555
Y0_1 Y0_3 3.642569 1_545
Y0_1 Y0_5 3.642570 1_555
Y0_1 Y0_5 3.642570 1_455
Y0_1 Y0_7 3.642570 1_445
Y0_1 Y0_7 3.642570 1_555
Y0_2 Y1_1 3.614400 1_564
Y0_2 Y1_0 3.614400 1_565
Y0_2 Y1_7 3.614400 1_454
Y0_2 Y1_6 3.614400 1_455
Y0_2 Y1_2 3.614404 1_555
Y0_2 Y1_3 3.614404 1_554
Y0_2 Y0_6 3.642570 1_555
Y0_2 Y0_6 3.642570 1_455
Y0_2 Y0_4 3.642570 1_565
Y0_2 Y0_4 3.642570 1_455
Y0_3 Y1_1 3.614400 1_565
Y0_3 Y1_0 3.614400 1_565
Y0_3 Y1_7 3.614400 1_455
Y0_3 Y1_6 3.614400 1_455
Y0_3 Y1_3 3.614404 1_555
Y0_3 Y1_2 3.614404 1_555
Y0_3 Y0_7 3.642570 1_555
Y0_3 Y0_7 3.642570 1_455
Y0_3 Y0_5 3.642570 1_565
Y0_3 Y0_5 3.642570 1_455
Y0_4 Y1_6 3.614400 1_555
Y0_4 Y1_7 3.614400 1_554
Y0_4 Y1_1 3.614400 1_554
Y0_4 Y1_0 3.614400 1_555
Y0_4 Y1_4 3.614404 1_555
Y0_4 Y1_5 3.614404 1_554
Y0_4 Y0_6 3.642569 1_555
Y0_4 Y0_6 3.642569 1_545
Y0_5 Y1_7 3.614400 1_555
Y0_5 Y1_6 3.614400 1_555
Y0_5 Y1_1 3.614400 1_555
Y0_5 Y1_0 3.614400 1_555
Y0_5 Y1_5 3.614404 1_555
Y0_5 Y1_4 3.614404 1_555
Y0_5 Y0_7 3.642569 1_555
Y0_5 Y0_7 3.642569 1_545
Y0_6 Y1_4 3.614400 1_565
Y0_6 Y1_5 3.614400 1_564
Y0_6 Y1_3 3.614400 1_554
Y0_6 Y1_2 3.614400 1_555
Y0_6 Y1_7 3.614404 1_554
Y0_6 Y1_6 3.614404 1_555
Y0_7 Y1_5 3.614400 1_565
Y0_7 Y1_4 3.614400 1_565
Y0_7 Y1_3 3.614400 1_555
Y0_7 Y1_2 3.614400 1_555
Y0_7 Y1_7 3.614404 1_555
Y0_7 Y1_6 3.614404 1_555
Y1_0 Y1_2 3.642569 1_545
Y1_0 Y1_2 3.642569 1_555
Y1_0 Y1_4 3.642570 1_555
Y1_0 Y1_4 3.642570 1_455
Y1_0 Y1_6 3.642570 1_445
Y1_0 Y1_6 3.642570 1_555
Y1_1 Y1_3 3.642569 1_545
Y1_1 Y1_3 3.642569 1_555
Y1_1 Y1_5 3.642570 1_555
Y1_1 Y1_5 3.642570 1_455
Y1_1 Y1_7 3.642570 1_445
Y1_1 Y1_7 3.642570 1_555
Y1_2 Y1_6 3.642570 1_555
Y1_2 Y1_6 3.642570 1_455
Y1_2 Y1_4 3.642570 1_455
Y1_2 Y1_4 3.642570 1_565
Y1_3 Y1_7 3.642570 1_555
Y1_3 Y1_7 3.642570 1_455
Y1_3 Y1_5 3.642570 1_455
Y1_3 Y1_5 3.642570 1_565
Y1_4 Y1_6 3.642569 1_555
Y1_4 Y1_6 3.642569 1_545
Y1_5 Y1_7 3.642569 1_545
Y1_5 Y1_7 3.642569 1_555
