# generated using pymatgen
data_Nd3Ga10Ni
_symmetry_space_group_name_H-M   'P 1'
_cell_length_a   4.24769161
_cell_length_b   4.24007917
_cell_length_c   15.17944725
_cell_angle_alpha   90.00000000
_cell_angle_beta   90.00000000
_cell_angle_gamma   90.00000000
_symmetry_Int_Tables_number   1
_chemical_formula_structural   Nd3Ga10Ni
_chemical_formula_sum   'Nd3 Ga10 Ni1'
_cell_volume   273.39017418
_cell_formula_units_Z   1
loop_
 _symmetry_equiv_pos_site_id
 _symmetry_equiv_pos_as_xyz
  1  'x, y, z'
loop_
 _atom_site_type_symbol
 _atom_site_label
 _atom_site_symmetry_multiplicity
 _atom_site_fract_x
 _atom_site_fract_y
 _atom_site_fract_z
 _atom_site_occupancy
  Nd  Nd0  1  0.00000000  0.50000000  0.50000000  1
  Nd  Nd1  1  -0.00000000  -0.00000000  0.24895132  1
  Nd  Nd2  1  0.00000000  -0.00000000  0.75104868  1
  Ga  Ga0  1  0.50000000  0.50000000  0.18345018  1
  Ga  Ga1  1  0.50000000  0.50000000  0.81654982  1
  Ga  Ga2  1  0.50000000  0.50000000  0.34216285  1
  Ga  Ga3  1  0.50000000  0.50000000  0.65783715  1
  Ga  Ga4  1  0.50000000  -0.00000000  0.41955389  1
  Ga  Ga5  1  0.50000000  -0.00000000  0.58044611  1
  Ga  Ga6  1  0.50000000  -0.00000000  0.08446341  1
  Ga  Ga7  1  0.50000000  -0.00000000  0.91553659  1
  Ga  Ga8  1  0.00000000  0.50000000  0.08423591  1
  Ga  Ga9  1  -0.00000000  0.50000000  0.91576409  1
  Ni  Ni0  1  0.00000000  -0.00000000  0.00000000  1
loop_
_geom_bond_atom_site_label_1
_geom_bond_atom_site_label_2
_geom_bond_distance
_geom_bond_site_symmetry_2
Ga0 Ga2 2.409171 1_555
Ga0 Ga6 2.598513 1_565
Ga0 Ga6 2.598513 1_555
Ga0 Ga8 2.603615 1_655
Ga0 Ga8 2.603615 1_555
Ga0 Nd1 3.161307 1_555
Ga0 Nd1 3.161307 1_665
Ga0 Nd1 3.161307 1_565
Ga0 Nd1 3.161307 1_655
Ga1 Ga3 2.409171 1_555
Ga1 Ga7 2.598513 1_555
Ga1 Ga7 2.598513 1_565
Ga1 Ga9 2.603615 1_655
Ga1 Ga9 2.603615 1_555
Ga1 Nd2 3.161307 1_655
Ga1 Nd2 3.161307 1_565
Ga1 Nd2 3.161307 1_665
Ga1 Nd2 3.161307 1_555
Ga2 Ga4 2.423760 1_555
Ga2 Ga4 2.423760 1_565
Ga2 Nd0 3.201713 1_655
Ga2 Nd0 3.201713 1_555
Ga2 Nd1 3.317714 1_665
Ga2 Nd1 3.317714 1_565
Ga2 Nd1 3.317714 1_655
Ga2 Nd1 3.317714 1_555
Ga3 Ga5 2.423760 1_555
Ga3 Ga5 2.423760 1_565
Ga3 Nd0 3.201713 1_655
Ga3 Nd0 3.201713 1_555
Ga3 Nd2 3.317714 1_555
Ga3 Nd2 3.317714 1_655
Ga3 Nd2 3.317714 1_565
Ga3 Nd2 3.317714 1_665
Ga4 Ga5 2.442255 1_555
Ga4 Nd0 3.239821 1_555
Ga4 Nd0 3.239821 1_545
Ga4 Nd0 3.239821 1_655
Ga4 Nd0 3.239821 1_645
Ga4 Nd1 3.349182 1_655
Ga4 Nd1 3.349182 1_555
Ga5 Nd0 3.239821 1_555
Ga5 Nd0 3.239821 1_545
Ga5 Nd0 3.239821 1_655
Ga5 Nd0 3.239821 1_645
Ga5 Nd2 3.349182 1_655
Ga5 Nd2 3.349182 1_555
Ga6 Ni0 2.480831 1_555
Ga6 Ni0 2.480831 1_655
Ga6 Ga7 2.564216 1_554
Ga6 Ga8 3.000883 1_655
Ga6 Ga8 3.000883 1_555
Ga6 Ga8 3.000883 1_545
Ga6 Ga8 3.000883 1_645
Ga6 Nd1 3.277943 1_655
Ga6 Nd1 3.277943 1_555
Ga7 Ni0 2.480831 1_556
Ga7 Ni0 2.480831 1_656
Ga7 Ga9 3.000883 1_645
Ga7 Ga9 3.000883 1_545
Ga7 Ga9 3.000883 1_655
Ga7 Ga9 3.000883 1_555
Ga7 Nd2 3.277943 1_655
Ga7 Nd2 3.277943 1_555
Ga8 Ni0 2.475788 1_565
Ga8 Ni0 2.475788 1_555
Ga8 Ga9 2.557309 1_554
Ga8 Nd1 3.278111 1_555
Ga8 Nd1 3.278111 1_565
Ga9 Ni0 2.475788 1_556
Ga9 Ni0 2.475788 1_566
Ga9 Nd2 3.278111 1_555
Ga9 Nd2 3.278111 1_565
