# generated using pymatgen
data_MgMn5N4
_symmetry_space_group_name_H-M   'P 1'
_cell_length_a   7.10554000
_cell_length_b   6.08755200
_cell_length_c   4.73311800
_cell_angle_alpha   90.00000000
_cell_angle_beta   90.00000000
_cell_angle_gamma   90.00000000
_symmetry_Int_Tables_number   1
_chemical_formula_structural   MgMn5N4
_chemical_formula_sum   'Mg2 Mn10 N8'
_cell_volume   204.73264841
_cell_formula_units_Z   2
loop_
 _symmetry_equiv_pos_site_id
 _symmetry_equiv_pos_as_xyz
  1  'x, y, z'
loop_
 _atom_site_type_symbol
 _atom_site_label
 _atom_site_symmetry_multiplicity
 _atom_site_fract_x
 _atom_site_fract_y
 _atom_site_fract_z
 _atom_site_occupancy
  Mg  Mg0  1  0.75000000  0.25000000  0.72565200  1
  Mg  Mg1  1  0.25000000  0.75000000  0.27434800  1
  Mn  Mn0  1  0.57257400  0.47098800  0.25606500  1
  Mn  Mn1  1  0.92742600  0.47098800  0.25606500  1
  Mn  Mn2  1  0.57257400  0.02901200  0.25606500  1
  Mn  Mn3  1  0.92742600  0.02901200  0.25606500  1
  Mn  Mn4  1  0.42742600  0.52901200  0.74393500  1
  Mn  Mn5  1  0.07257400  0.52901200  0.74393500  1
  Mn  Mn6  1  0.42742600  0.97098800  0.74393500  1
  Mn  Mn7  1  0.07257400  0.97098800  0.74393500  1
  Mn  Mn8  1  0.75000000  0.75000000  0.67882100  1
  Mn  Mn9  1  0.25000000  0.25000000  0.32117900  1
  N  N0  1  0.75000000  0.96408300  0.96915300  1
  N  N1  1  0.75000000  0.53591700  0.96915300  1
  N  N2  1  0.25000000  0.03591700  0.03084700  1
  N  N3  1  0.25000000  0.46408300  0.03084700  1
  N  N4  1  0.52154900  0.75000000  0.46074200  1
  N  N5  1  0.97845100  0.75000000  0.46074200  1
  N  N6  1  0.47845100  0.25000000  0.53925800  1
  N  N7  1  0.02154900  0.25000000  0.53925800  1
loop_
_geom_bond_atom_site_label_1
_geom_bond_atom_site_label_2
_geom_bond_distance
_geom_bond_site_symmetry_2
Mg0 N1 2.087525 1_555
Mg0 N0 2.087525 1_545
Mg0 N7 2.121627 1_655
Mg0 N6 2.121627 1_555
Mg1 N2 2.087525 1_565
Mg1 N3 2.087525 1_555
Mg1 N4 2.121627 1_555
Mg1 N5 2.121627 1_455
Mn0 N1 1.894662 1_554
Mn0 N4 1.988680 1_555
Mn0 N6 2.013377 1_555
Mn1 N1 1.894662 1_554
Mn1 N5 1.988680 1_555
Mn1 N7 2.013377 1_655
Mn2 N0 1.894662 1_544
Mn2 N4 1.988680 1_545
Mn2 N6 2.013377 1_555
Mn3 N0 1.894662 1_544
Mn3 N5 1.988680 1_545
Mn3 N7 2.013377 1_655
Mn4 N3 1.894662 1_556
Mn4 N6 1.988680 1_555
Mn4 N4 2.013377 1_555
Mn5 N3 1.894662 1_556
Mn5 N7 1.988680 1_555
Mn5 N5 2.013377 1_455
Mn6 N2 1.894662 1_566
Mn6 N6 1.988680 1_565
Mn6 N4 2.013377 1_555
Mn7 N2 1.894662 1_566
Mn7 N7 1.988680 1_565
Mn7 N5 2.013377 1_455
Mn8 N0 1.893884 1_555
Mn8 N1 1.893884 1_555
Mn8 N5 1.923648 1_555
Mn8 N4 1.923648 1_555
Mn9 N3 1.893884 1_555
Mn9 N2 1.893884 1_555
Mn9 N6 1.923648 1_555
Mn9 N7 1.923648 1_555
