# generated using pymatgen
data_Mn3N4
_symmetry_space_group_name_H-M   'P 1'
_cell_length_a   7.82882136
_cell_length_b   7.82882136
_cell_length_c   2.62005600
_cell_angle_alpha   90.00000000
_cell_angle_beta   90.00000000
_cell_angle_gamma   119.99999463
_symmetry_Int_Tables_number   1
_chemical_formula_structural   Mn3N4
_chemical_formula_sum   'Mn6 N8'
_cell_volume   139.07017342
_cell_formula_units_Z   2
loop_
 _symmetry_equiv_pos_site_id
 _symmetry_equiv_pos_as_xyz
  1  'x, y, z'
loop_
 _atom_site_type_symbol
 _atom_site_label
 _atom_site_symmetry_multiplicity
 _atom_site_fract_x
 _atom_site_fract_y
 _atom_site_fract_z
 _atom_site_occupancy
  Mn  Mn0  1  0.55019300  0.72975200  0.75000000  1
  Mn  Mn1  1  0.17955900  0.44980700  0.75000000  1
  Mn  Mn2  1  0.27024800  0.82044100  0.75000000  1
  Mn  Mn3  1  0.44980700  0.27024800  0.25000000  1
  Mn  Mn4  1  0.82044100  0.55019300  0.25000000  1
  Mn  Mn5  1  0.72975200  0.17955900  0.25000000  1
  N  N0  1  0.67350600  0.99036200  0.75000000  1
  N  N1  1  0.31685700  0.32649400  0.75000000  1
  N  N2  1  0.00963800  0.68314300  0.75000000  1
  N  N3  1  0.32649400  0.00963800  0.25000000  1
  N  N4  1  0.68314300  0.67350600  0.25000000  1
  N  N5  1  0.99036200  0.31685700  0.25000000  1
  N  N6  1  0.66666700  0.33333300  0.75000000  1
  N  N7  1  0.33333300  0.66666700  0.25000000  1
loop_
_geom_bond_atom_site_label_1
_geom_bond_atom_site_label_2
_geom_bond_distance
_geom_bond_site_symmetry_2
Mn0 N0 1.767773 1_555
Mn0 N4 1.857888 1_555
Mn0 N4 1.857888 1_556
Mn0 N7 2.000996 1_556
Mn0 N7 2.000996 1_555
Mn1 N1 1.767779 1_555
Mn1 N5 1.857892 1_455
Mn1 N5 1.857892 1_456
Mn1 N7 2.000994 1_556
Mn1 N7 2.000994 1_555
Mn2 N2 1.767773 1_555
Mn2 N3 1.857893 1_565
Mn2 N3 1.857893 1_566
Mn2 N7 2.000990 1_556
Mn2 N7 2.000990 1_555
Mn3 N3 1.767773 1_555
Mn3 N1 1.857888 1_555
Mn3 N1 1.857888 1_554
Mn3 N6 2.000996 1_554
Mn3 N6 2.000996 1_555
Mn4 N4 1.767779 1_555
Mn4 N2 1.857892 1_655
Mn4 N2 1.857892 1_654
Mn4 N6 2.000994 1_555
Mn4 N6 2.000994 1_554
Mn5 N5 1.767773 1_555
Mn5 N0 1.857893 1_544
Mn5 N0 1.857893 1_545
Mn5 N6 2.000990 1_555
Mn5 N6 2.000990 1_554
