# generated using pymatgen
data_Al(C2N3)3
_symmetry_space_group_name_H-M   'P 1'
_cell_length_a   7.58312195
_cell_length_b   13.48786017
_cell_length_c   11.62301600
_cell_angle_alpha   90.00000000
_cell_angle_beta   90.00000000
_cell_angle_gamma   27.21030581
_symmetry_Int_Tables_number   1
_chemical_formula_structural   Al(C2N3)3
_chemical_formula_sum   'Al2 C12 N18'
_cell_volume   543.58961068
_cell_formula_units_Z   2
loop_
 _symmetry_equiv_pos_site_id
 _symmetry_equiv_pos_as_xyz
  1  'x, y, z'
loop_
 _atom_site_type_symbol
 _atom_site_label
 _atom_site_symmetry_multiplicity
 _atom_site_fract_x
 _atom_site_fract_y
 _atom_site_fract_z
 _atom_site_occupancy
  Al  Al0  1  0.00000000  0.27752700  0.25000000  1
  Al  Al1  1  0.00000000  0.72247300  0.75000000  1
  C  C0  1  0.67616900  0.78517800  0.25000000  1
  C  C1  1  0.67616900  0.53865300  0.75000000  1
  C  C2  1  0.32383100  0.21482200  0.75000000  1
  C  C3  1  0.32383100  0.46134700  0.25000000  1
  C  C4  1  0.67611700  0.30794600  0.90525800  1
  C  C5  1  0.67611700  0.01593700  0.09474200  1
  C  C6  1  0.67611700  0.30794600  0.59474200  1
  C  C7  1  0.67611700  0.01593700  0.40525800  1
  C  C8  1  0.32388300  0.69205400  0.09474200  1
  C  C9  1  0.32388300  0.98406300  0.90525800  1
  C  C10  1  0.32388300  0.69205400  0.40525800  1
  C  C11  1  0.32388300  0.98406300  0.59474200  1
  N  N0  1  0.00000000  0.57578000  0.25000000  1
  N  N1  1  0.00000000  0.42422000  0.75000000  1
  N  N2  1  0.37508300  0.97589800  0.25000000  1
  N  N3  1  0.37508300  0.64901800  0.75000000  1
  N  N4  1  0.62491700  0.02410200  0.75000000  1
  N  N5  1  0.62491700  0.35098200  0.25000000  1
  N  N6  1  0.00000000  0.12284900  0.95306200  1
  N  N7  1  0.00000000  0.87715100  0.04693800  1
  N  N8  1  0.00000000  0.12284900  0.54693800  1
  N  N9  1  0.00000000  0.87715100  0.45306200  1
  N  N10  1  0.37471700  0.47840200  0.86480900  1
  N  N11  1  0.37471700  0.14688100  0.13519100  1
  N  N12  1  0.37471700  0.47840200  0.63519100  1
  N  N13  1  0.37471700  0.14688100  0.36480900  1
  N  N14  1  0.62528300  0.52159800  0.13519100  1
  N  N15  1  0.62528300  0.85311900  0.86480900  1
  N  N16  1  0.62528300  0.52159800  0.36480900  1
  N  N17  1  0.62528300  0.85311900  0.63519100  1
loop_
_geom_bond_atom_site_label_1
_geom_bond_atom_site_label_2
_geom_bond_distance
_geom_bond_site_symmetry_2
Al0 N13 2.013459 1_555
Al0 N11 2.013459 1_555
Al0 N16 2.013460 1_455
Al0 N14 2.013460 1_455
Al0 N5 2.014784 1_455
Al0 N2 2.014795 1_545
Al1 N15 2.013459 1_455
Al1 N17 2.013459 1_455
Al1 N10 2.013460 1_555
Al1 N12 2.013460 1_555
Al1 N3 2.014784 1_555
Al1 N4 2.014795 1_465
C0 N2 1.176261 1_555
C0 N0 1.292667 1_655
C1 N3 1.176267 1_555
C1 N1 1.292666 1_655
C2 N4 1.176261 1_555
C2 N1 1.292667 1_555
C3 N5 1.176267 1_555
C3 N0 1.292666 1_555
C4 N10 1.176538 1_555
C4 N6 1.291315 1_655
C5 N11 1.176538 1_555
C5 N7 1.291315 1_645
C6 N12 1.176538 1_555
C6 N8 1.291315 1_655
C7 N13 1.176538 1_555
C7 N9 1.291315 1_645
C8 N14 1.176538 1_555
C8 N7 1.291315 1_555
C9 N15 1.176538 1_555
C9 N6 1.291315 1_565
C10 N16 1.176538 1_555
C10 N9 1.291315 1_555
C11 N17 1.176538 1_555
C11 N8 1.291315 1_565
