# generated using pymatgen
data_Sr3In3N5
_symmetry_space_group_name_H-M   'P 1'
_cell_length_a   6.53636146
_cell_length_b   7.54398847
_cell_length_c   9.20705191
_cell_angle_alpha   106.27709731
_cell_angle_beta   107.57470176
_cell_angle_gamma   95.16033742
_symmetry_Int_Tables_number   1
_chemical_formula_structural   Sr3In3N5
_chemical_formula_sum   'Sr6 In6 N10'
_cell_volume   407.83283037
_cell_formula_units_Z   2
loop_
 _symmetry_equiv_pos_site_id
 _symmetry_equiv_pos_as_xyz
  1  'x, y, z'
loop_
 _atom_site_type_symbol
 _atom_site_label
 _atom_site_symmetry_multiplicity
 _atom_site_fract_x
 _atom_site_fract_y
 _atom_site_fract_z
 _atom_site_occupancy
  Sr  Sr0  1  0.80622100  0.42095300  0.60059400  1
  Sr  Sr1  1  0.19377900  0.57904700  0.39940600  1
  Sr  Sr2  1  0.67166600  0.86671800  0.88739500  1
  Sr  Sr3  1  0.32833400  0.13328200  0.11260500  1
  Sr  Sr4  1  0.65286900  0.63151700  0.19240800  1
  Sr  Sr5  1  0.34713100  0.36848300  0.80759200  1
  In  In0  1  0.89912800  0.30883700  0.96493500  1
  In  In1  1  0.10087200  0.69116300  0.03506500  1
  In  In2  1  0.72427100  0.94830300  0.56160300  1
  In  In3  1  0.27572900  0.05169700  0.43839700  1
  In  In4  1  0.15141400  0.85488000  0.71927300  1
  In  In5  1  0.84858600  0.14512000  0.28072700  1
  N  N0  1  0.98933200  0.09176700  0.79580100  1
  N  N1  1  0.01066800  0.90823300  0.20419900  1
  N  N2  1  0.86308200  0.69444000  0.49782000  1
  N  N3  1  0.13691800  0.30556000  0.50218000  1
  N  N4  1  0.75522500  0.53049800  0.87666800  1
  N  N5  1  0.24477500  0.46950200  0.12333200  1
  N  N6  1  0.40826300  0.90934900  0.61363800  1
  N  N7  1  0.59173700  0.09065100  0.38636200  1
  N  N8  1  0.31862500  0.75960700  0.91648900  1
  N  N9  1  0.68137500  0.24039300  0.08351100  1
loop_
_geom_bond_atom_site_label_1
_geom_bond_atom_site_label_2
_geom_bond_distance
_geom_bond_site_symmetry_2
In0 N9 2.146274 1_556
In0 N0 2.180115 1_555
In0 N4 2.219136 1_555
In0 N5 2.286267 1_656
In1 N8 2.146274 1_554
In1 N1 2.180115 1_555
In1 N5 2.219136 1_555
In1 N4 2.286267 1_454
In2 N7 2.191213 1_565
In2 N2 2.199943 1_555
In2 N0 2.218329 1_565
In2 N6 2.269292 1_555
In3 N6 2.191213 1_545
In3 N3 2.199943 1_555
In3 N1 2.218329 1_545
In3 N7 2.269292 1_555
In4 N8 2.163930 1_555
In4 N0 2.213140 1_465
In4 N6 2.240388 1_555
In4 N2 2.249396 1_455
In5 N9 2.163930 1_555
In5 N1 2.213140 1_645
In5 N7 2.240388 1_555
In5 N3 2.249396 1_655
N0 Sr5 2.946279 1_655
N0 Sr3 2.995977 1_656
N0 Sr2 3.021727 1_545
N1 Sr4 2.946279 1_455
N1 Sr2 2.995977 1_454
N1 Sr3 3.021727 1_565
N2 Sr0 2.541468 1_555
N2 Sr4 2.611794 1_555
N2 Sr1 2.707447 1_655
N3 Sr1 2.541468 1_555
N3 Sr5 2.611794 1_555
N3 Sr0 2.707447 1_455
N4 Sr0 2.576556 1_555
N4 Sr2 2.623535 1_555
N4 Sr5 2.639494 1_555
N4 Sr4 3.082790 1_556
N5 Sr1 2.576556 1_555
N5 Sr3 2.623535 1_555
N5 Sr4 2.639494 1_555
N5 Sr5 3.082790 1_554
N6 Sr1 2.647932 1_555
N6 Sr2 2.711815 1_555
N7 Sr0 2.647932 1_555
N7 Sr3 2.711815 1_555
N8 Sr2 2.491772 1_555
N8 Sr3 2.873400 1_566
N8 Sr5 2.880897 1_555
N8 Sr4 3.250327 1_556
N9 Sr3 2.491772 1_555
N9 Sr2 2.873400 1_544
N9 Sr4 2.880897 1_555
N9 Sr5 3.250327 1_554
