# generated using pymatgen
data_Co3O4
_symmetry_space_group_name_H-M   'P 1'
_cell_length_a   5.85983539
_cell_length_b   6.11725902
_cell_length_c   5.85987439
_cell_angle_alpha   58.53516804
_cell_angle_beta   61.59675931
_cell_angle_gamma   58.53664785
_symmetry_Int_Tables_number   1
_chemical_formula_structural   Co3O4
_chemical_formula_sum   'Co6 O8'
_cell_volume   146.74220486
_cell_formula_units_Z   2
loop_
 _symmetry_equiv_pos_site_id
 _symmetry_equiv_pos_as_xyz
  1  'x, y, z'
loop_
 _atom_site_type_symbol
 _atom_site_label
 _atom_site_symmetry_multiplicity
 _atom_site_fract_x
 _atom_site_fract_y
 _atom_site_fract_z
 _atom_site_occupancy
  Co  Co0  1  0.62500000  0.62500000  0.12500100  1
  Co  Co1  1  0.12500100  0.62500000  0.62500000  1
  Co  Co2  1  0.25518300  0.24481500  0.25518300  1
  Co  Co3  1  0.99481800  0.00518500  0.99481700  1
  Co  Co4  1  0.62500000  0.12500100  0.62500000  1
  Co  Co5  1  0.62499900  0.62500000  0.62499900  1
  O  O0  1  0.38974000  0.84329400  0.38973900  1
  O  O1  1  0.40584500  0.86389300  0.86638000  1
  O  O2  1  0.38362400  0.38611400  0.84415600  1
  O  O3  1  0.84415600  0.38610800  0.38362000  1
  O  O4  1  0.38973700  0.37722700  0.38974100  1
  O  O5  1  0.86637600  0.86388700  0.40584400  1
  O  O6  1  0.86026100  0.40670600  0.86026100  1
  O  O7  1  0.86026400  0.87277300  0.86026000  1
loop_
_geom_bond_atom_site_label_1
_geom_bond_atom_site_label_2
_geom_bond_distance
_geom_bond_site_symmetry_2
Co0 O3 1.913602 1_555
Co0 O1 1.913607 1_554
Co0 O4 2.072794 1_555
Co0 O7 2.072799 1_554
Co0 O0 2.072829 1_555
Co0 O6 2.072838 1_554
Co1 O2 1.913621 1_555
Co1 O5 1.913630 1_455
Co1 O0 2.072784 1_555
Co1 O6 2.072788 1_455
Co1 O4 2.072830 1_555
Co1 O7 2.072834 1_455
Co2 O0 1.955587 1_545
Co2 O4 1.955605 1_555
Co2 O2 1.973813 1_554
Co2 O3 1.973830 1_455
Co3 O6 1.955587 1_555
Co3 O7 1.955600 1_545
Co3 O5 1.973813 1_546
Co3 O1 1.973830 1_645
Co4 O4 1.883803 1_555
Co4 O7 1.883812 1_545
Co4 O3 2.062956 1_555
Co4 O1 2.062956 1_545
Co4 O2 2.063036 1_555
Co4 O5 2.063040 1_545
Co5 O0 1.883792 1_555
Co5 O6 1.883812 1_555
Co5 O2 2.062948 1_555
Co5 O5 2.062962 1_555
Co5 O3 2.063043 1_555
Co5 O1 2.063058 1_555
