# generated using pymatgen
data_Cs
_symmetry_space_group_name_H-M   'P 1'
_cell_length_a   11.03851450
_cell_length_b   20.10336300
_cell_length_c   17.97614974
_cell_angle_alpha   90.00000000
_cell_angle_beta   90.00000000
_cell_angle_gamma   90.00000000
_symmetry_Int_Tables_number   1
_chemical_formula_structural   Cs
_chemical_formula_sum   Cs32
_cell_volume   3989.11011019
_cell_formula_units_Z   32
loop_
 _symmetry_equiv_pos_site_id
 _symmetry_equiv_pos_as_xyz
  1  'x, y, z'
loop_
 _atom_site_type_symbol
 _atom_site_label
 _atom_site_symmetry_multiplicity
 _atom_site_fract_x
 _atom_site_fract_y
 _atom_site_fract_z
 _atom_site_occupancy
  Cs  Cs0_0  1  0.36965052  0.19737180  0.37500000  1
  Cs  Cs0_1  1  0.36965052  0.19737180  0.87500000  1
  Cs  Cs0_2  1  0.36965052  0.69737180  0.37500000  1
  Cs  Cs0_3  1  0.36965052  0.69737180  0.87500000  1
  Cs  Cs0_4  1  0.86965052  0.19737180  0.37500000  1
  Cs  Cs0_5  1  0.86965052  0.19737180  0.87500000  1
  Cs  Cs0_6  1  0.86965052  0.69737180  0.37500000  1
  Cs  Cs0_7  1  0.86965052  0.69737180  0.87500000  1
  Cs  Cs1_0  1  0.13034948  0.30262820  0.12500000  1
  Cs  Cs1_1  1  0.13034948  0.30262820  0.62500000  1
  Cs  Cs1_2  1  0.13034948  0.80262820  0.12500000  1
  Cs  Cs1_3  1  0.13034948  0.80262820  0.62500000  1
  Cs  Cs1_4  1  0.63034948  0.30262820  0.12500000  1
  Cs  Cs1_5  1  0.63034948  0.30262820  0.62500000  1
  Cs  Cs1_6  1  0.63034948  0.80262820  0.12500000  1
  Cs  Cs1_7  1  0.63034948  0.80262820  0.62500000  1
  Cs  Cs2_0  1  0.36965052  0.05262820  0.12500000  1
  Cs  Cs2_1  1  0.36965052  0.05262820  0.62500000  1
  Cs  Cs2_2  1  0.36965052  0.55262820  0.12500000  1
  Cs  Cs2_3  1  0.36965052  0.55262820  0.62500000  1
  Cs  Cs2_4  1  0.86965052  0.05262820  0.12500000  1
  Cs  Cs2_5  1  0.86965052  0.05262820  0.62500000  1
  Cs  Cs2_6  1  0.86965052  0.55262820  0.12500000  1
  Cs  Cs2_7  1  0.86965052  0.55262820  0.62500000  1
  Cs  Cs3_0  1  0.13034948  0.44737180  0.37500000  1
  Cs  Cs3_1  1  0.13034948  0.44737180  0.87500000  1
  Cs  Cs3_2  1  0.13034948  0.94737180  0.37500000  1
  Cs  Cs3_3  1  0.13034948  0.94737180  0.87500000  1
  Cs  Cs3_4  1  0.63034948  0.44737180  0.37500000  1
  Cs  Cs3_5  1  0.63034948  0.44737180  0.87500000  1
  Cs  Cs3_6  1  0.63034948  0.94737180  0.37500000  1
  Cs  Cs3_7  1  0.63034948  0.94737180  0.87500000  1
loop_
_geom_bond_atom_site_label_1
_geom_bond_atom_site_label_2
_geom_bond_distance
_geom_bond_site_symmetry_2
Cs0_0 Cs2_1 5.353831 1_555
Cs0_0 Cs2_0 5.353831 1_555
Cs0_0 Cs0_4 5.519257 1_455
Cs0_0 Cs0_4 5.519257 1_555
Cs0_1 Cs2_0 5.353831 1_556
Cs0_1 Cs2_1 5.353831 1_555
Cs0_1 Cs0_5 5.519257 1_455
Cs0_1 Cs0_5 5.519257 1_555
Cs0_2 Cs2_3 5.353831 1_555
Cs0_2 Cs2_2 5.353831 1_555
Cs0_2 Cs0_6 5.519257 1_455
Cs0_2 Cs0_6 5.519257 1_555
Cs0_3 Cs2_2 5.353831 1_556
Cs0_3 Cs2_3 5.353831 1_555
Cs0_3 Cs0_7 5.519257 1_455
Cs0_3 Cs0_7 5.519257 1_555
Cs0_4 Cs2_5 5.353831 1_555
Cs0_4 Cs2_4 5.353831 1_555
Cs0_5 Cs2_4 5.353831 1_556
Cs0_5 Cs2_5 5.353831 1_555
Cs0_6 Cs2_7 5.353831 1_555
Cs0_6 Cs2_6 5.353831 1_555
Cs0_7 Cs2_6 5.353831 1_556
Cs0_7 Cs2_7 5.353831 1_555
Cs1_0 Cs3_1 5.353831 1_554
Cs1_0 Cs3_0 5.353831 1_555
Cs1_0 Cs1_4 5.519257 1_555
Cs1_0 Cs1_4 5.519257 1_455
Cs1_1 Cs3_0 5.353831 1_555
Cs1_1 Cs3_1 5.353831 1_555
Cs1_1 Cs1_5 5.519257 1_455
Cs1_1 Cs1_5 5.519257 1_555
Cs1_2 Cs3_3 5.353831 1_554
Cs1_2 Cs3_2 5.353831 1_555
Cs1_2 Cs1_6 5.519257 1_455
Cs1_2 Cs1_6 5.519257 1_555
Cs1_3 Cs3_2 5.353831 1_555
Cs1_3 Cs3_3 5.353831 1_555
Cs1_3 Cs1_7 5.519257 1_455
Cs1_3 Cs1_7 5.519257 1_555
Cs1_4 Cs3_5 5.353831 1_554
Cs1_4 Cs3_4 5.353831 1_555
Cs1_5 Cs3_4 5.353831 1_555
Cs1_5 Cs3_5 5.353831 1_555
Cs1_6 Cs3_7 5.353831 1_554
Cs1_6 Cs3_6 5.353831 1_555
Cs1_7 Cs3_6 5.353831 1_555
Cs1_7 Cs3_7 5.353831 1_555
Cs2_0 Cs2_4 5.519257 1_455
Cs2_0 Cs2_4 5.519257 1_555
Cs2_1 Cs2_5 5.519257 1_455
Cs2_1 Cs2_5 5.519257 1_555
Cs2_2 Cs2_6 5.519257 1_455
Cs2_2 Cs2_6 5.519257 1_555
Cs2_3 Cs2_7 5.519257 1_455
Cs2_3 Cs2_7 5.519257 1_555
Cs3_0 Cs3_4 5.519257 1_455
Cs3_0 Cs3_4 5.519257 1_555
Cs3_1 Cs3_5 5.519257 1_455
Cs3_1 Cs3_5 5.519257 1_555
Cs3_2 Cs3_6 5.519257 1_555
Cs3_2 Cs3_6 5.519257 1_455
Cs3_3 Cs3_7 5.519257 1_455
Cs3_3 Cs3_7 5.519257 1_555
