# generated using pymatgen
data_Li(Fe2O3)4
_symmetry_space_group_name_H-M   'P 1'
_cell_length_a   5.15064680
_cell_length_b   5.43535004
_cell_length_c   7.71712343
_cell_angle_alpha   93.07055214
_cell_angle_beta   90.03081141
_cell_angle_gamma   90.34033204
_symmetry_Int_Tables_number   1
_chemical_formula_structural   Li(Fe2O3)4
_chemical_formula_sum   'Li1 Fe8 O12'
_cell_volume   215.73120196
_cell_formula_units_Z   1
loop_
 _symmetry_equiv_pos_site_id
 _symmetry_equiv_pos_as_xyz
  1  'x, y, z'
loop_
 _atom_site_type_symbol
 _atom_site_label
 _atom_site_symmetry_multiplicity
 _atom_site_fract_x
 _atom_site_fract_y
 _atom_site_fract_z
 _atom_site_occupancy
  Li  Li0  1  0.69894600  0.75808800  0.81921000  1
  Fe  Fe0  1  0.25060700  0.53152700  0.11191500  1
  Fe  Fe1  1  0.26133400  0.04455200  0.38434500  1
  Fe  Fe2  1  0.24500600  0.48941200  0.60902400  1
  Fe  Fe3  1  0.23480900  0.95670900  0.88303300  1
  Fe  Fe4  1  0.74612100  0.39630100  0.91789400  1
  Fe  Fe5  1  0.75739500  0.00773200  0.58397600  1
  Fe  Fe6  1  0.75113700  0.54427600  0.39194900  1
  Fe  Fe7  1  0.75896500  0.02549500  0.12397300  1
  O  O0  1  0.38423500  0.59112300  0.84980800  1
  O  O1  1  0.10274900  0.13416400  0.65558900  1
  O  O2  1  0.10694100  0.40441200  0.34694700  1
  O  O3  1  0.40068800  0.88774900  0.15647700  1
  O  O4  1  0.59832200  0.38437500  0.16742600  1
  O  O5  1  0.90089700  0.90797300  0.34274200  1
  O  O6  1  0.90281700  0.64627600  0.63535900  1
  O  O7  1  0.59385000  0.07005200  0.83165600  1
  O  O8  1  0.94235300  0.73768400  0.00015100  1
  O  O9  1  0.54702800  0.27371800  0.50013500  1
  O  O10  1  0.06389200  0.22391900  0.01798500  1
  O  O11  1  0.45190700  0.77196400  0.50076500  1
loop_
_geom_bond_atom_site_label_1
_geom_bond_atom_site_label_2
_geom_bond_distance
_geom_bond_site_symmetry_2
Li0 O7 1.780710 1_565
Li0 O6 1.844395 1_555
Li0 O0 1.874235 1_555
Li0 O8 1.884199 1_556
Fe0 O4 2.020806 1_555
Fe0 O10 2.023872 1_555
Fe0 O3 2.091710 1_555
Fe0 O2 2.108153 1_555
Fe0 O8 2.154882 1_455
Fe0 O0 2.176936 1_554
Fe1 O5 2.014486 1_445
Fe1 O11 2.030952 1_545
Fe1 O3 2.044969 1_545
Fe1 O9 2.091144 1_555
Fe1 O2 2.149460 1_555
Fe1 O1 2.276697 1_555
Fe2 O6 1.968326 1_455
Fe2 O0 2.038738 1_555
Fe2 O11 2.076341 1_555
Fe2 O9 2.101910 1_555
Fe2 O1 2.110018 1_555
Fe2 O2 2.168875 1_555
Fe3 O10 1.955281 1_566
Fe3 O7 1.992495 1_565
Fe3 O0 2.137850 1_555
Fe3 O8 2.144435 1_456
Fe3 O1 2.159082 1_565
Fe3 O3 2.325943 1_556
Fe4 O7 2.014701 1_555
Fe4 O10 2.061013 1_656
Fe4 O4 2.075159 1_556
Fe4 Li0 2.161435 1_555
Fe4 O8 2.172181 1_556
Fe4 O0 2.225690 1_555
Fe5 O9 1.949576 1_555
Fe5 O1 1.971171 1_655
Fe5 O5 2.050389 1_545
Fe5 O7 2.100818 1_555
Fe5 O11 2.101697 1_545
Fe5 O6 2.163029 1_545
Fe6 O2 2.011461 1_655
Fe6 O9 2.019643 1_555
Fe6 O4 2.050882 1_555
Fe6 O6 2.080362 1_555
Fe6 O11 2.127167 1_555
Fe6 O5 2.170170 1_555
Fe7 O5 1.977992 1_545
Fe7 O3 2.008238 1_545
Fe7 O8 2.027527 1_545
Fe7 O10 2.091560 1_655
Fe7 O4 2.133413 1_555
Fe7 O7 2.435092 1_554
