# generated using pymatgen
data_CoSb(PO4)2
_symmetry_space_group_name_H-M   'P 1'
_cell_length_a   4.93989627
_cell_length_b   11.95993746
_cell_length_c   11.89861968
_cell_angle_alpha   114.44519801
_cell_angle_beta   94.89389907
_cell_angle_gamma   85.32639985
_symmetry_Int_Tables_number   1
_chemical_formula_structural   CoSb(PO4)2
_chemical_formula_sum   'Co4 Sb4 P8 O32'
_cell_volume   636.80377996
_cell_formula_units_Z   4
loop_
 _symmetry_equiv_pos_site_id
 _symmetry_equiv_pos_as_xyz
  1  'x, y, z'
loop_
 _atom_site_type_symbol
 _atom_site_label
 _atom_site_symmetry_multiplicity
 _atom_site_fract_x
 _atom_site_fract_y
 _atom_site_fract_z
 _atom_site_occupancy
  Co  Co0  1  0.42438400  0.95063800  0.73299000  1
  Co  Co1  1  0.60185000  0.99509500  0.21678900  1
  Co  Co2  1  0.39404800  0.49463900  0.27401700  1
  Co  Co3  1  0.57694800  0.54682400  0.76323800  1
  Sb  Sb0  1  0.96202600  0.27076800  0.97939800  1
  Sb  Sb1  1  0.91203000  0.76816100  0.46805000  1
  Sb  Sb2  1  0.09229200  0.72842900  0.02899600  1
  Sb  Sb3  1  0.03596800  0.23051900  0.52192200  1
  P  P0  1  0.41901400  0.18391900  0.07817100  1
  P  P1  1  0.38225200  0.66789300  0.57029700  1
  P  P2  1  0.62275000  0.82952900  0.92601000  1
  P  P3  1  0.58086100  0.31905500  0.42656100  1
  P  P4  1  0.84607500  0.56367500  0.15105500  1
  P  P5  1  0.87728500  0.09137500  0.68930300  1
  P  P6  1  0.12335100  0.40876400  0.81213800  1
  P  P7  1  0.14928300  0.93851100  0.34897200  1
  O  O0  1  0.59144600  0.38881900  0.34768300  1
  O  O1  1  0.64464600  0.90864700  0.85569000  1
  O  O2  1  0.35597700  0.58940000  0.64102200  1
  O  O3  1  0.41027800  0.11415000  0.15730300  1
  O  O4  1  0.71969600  0.19737900  0.05782300  1
  O  O5  1  0.68181000  0.68590300  0.56003400  1
  O  O6  1  0.32428500  0.81164900  0.93882800  1
  O  O7  1  0.27918600  0.30492200  0.44517600  1
  O  O8  1  0.15547700  0.56398200  0.17150300  1
  O  O9  1  0.18280700  0.07267300  0.70024700  1
  O  O10  1  0.81787100  0.42814400  0.80303200  1
  O  O11  1  0.83913000  0.94008800  0.32914800  1
  O  O12  1  0.20258100  0.34219400  0.90150400  1
  O  O13  1  0.24854400  0.85381500  0.41371200  1
  O  O14  1  0.74651100  0.64710500  0.08482200  1
  O  O15  1  0.79882800  0.15878900  0.60090600  1
  O  O16  1  0.23966300  0.12651600  0.95168700  1
  O  O17  1  0.21724200  0.61574400  0.43897600  1
  O  O18  1  0.24927700  0.31438300  0.13055200  1
  O  O19  1  0.21541100  0.79715300  0.62788700  1
  O  O20  1  0.78969900  0.70051700  0.86849000  1
  O  O21  1  0.75203000  0.18979100  0.37394700  1
  O  O22  1  0.78911900  0.88290500  0.05676900  1
  O  O23  1  0.75717000  0.37652900  0.55416600  1
  O  O24  1  0.70704800  0.59705800  0.27380300  1
  O  O25  1  0.75690600  0.17783800  0.81990500  1
  O  O26  1  0.74929500  0.42581300  0.06504900  1
  O  O27  1  0.72535600  0.97171600  0.64031500  1
  O  O28  1  0.24243600  0.32176500  0.68182900  1
  O  O29  1  0.28506000  0.90357500  0.22492000  1
  O  O30  1  0.27665500  0.52818400  0.85956300  1
  O  O31  1  0.24814500  0.07506100  0.43580300  1
loop_
_geom_bond_atom_site_label_1
_geom_bond_atom_site_label_2
_geom_bond_distance
_geom_bond_site_symmetry_2
Co0 O9 1.952844 1_565
Co0 O1 1.953035 1_555
Co0 O27 2.015160 1_555
Co0 O19 2.046421 1_555
Co1 O3 1.980977 1_565
Co1 O11 1.982162 1_555
Co1 O29 2.012214 1_555
Co1 O22 2.065251 1_555
Co1 O21 2.431107 1_565
Co2 O0 1.972839 1_555
Co2 O8 1.999314 1_555
Co2 O24 2.050130 1_555
Co2 O17 2.108712 1_555
Co2 O18 2.251717 1_555
Co3 O2 1.953707 1_555
Co3 O10 1.959627 1_555
Co3 O30 2.029606 1_555
Co3 O20 2.058332 1_555
O0 P3 1.497790 1_555
O1 P2 1.514781 1_555
O2 P1 1.516129 1_555
O3 P0 1.499245 1_555
O4 P0 1.556709 1_555
O4 Sb0 2.028272 1_554
O5 P1 1.534802 1_555
O5 Sb1 2.178300 1_555
O6 P2 1.536081 1_555
O6 Sb2 2.175894 1_556
O7 P3 1.557822 1_555
O7 Sb3 2.025640 1_555
O8 P4 1.527084 1_455
O9 P5 1.510091 1_455
O10 P6 1.509488 1_655
O11 P7 1.529937 1_655
O12 P6 1.580077 1_555
O12 Sb0 2.002369 1_455
O13 P7 1.536336 1_555
O13 Sb1 2.289084 1_455
O14 P4 1.537314 1_555
O14 Sb2 2.303034 1_655
O15 P5 1.577327 1_555
O15 Sb3 2.002592 1_655
O16 P0 1.593027 1_556
O16 Sb0 2.046205 1_455
O17 P1 1.598097 1_555
O17 Sb1 2.198870 1_455
O18 P0 1.611599 1_555
O18 Sb0 2.104526 1_454
O19 P1 1.597100 1_555
O19 Sb1 2.244063 1_455
O20 P2 1.595074 1_555
O20 Sb2 2.249381 1_656
O21 P3 1.604130 1_555
O21 Sb3 2.069983 1_655
O22 P2 1.596534 1_554
O22 Sb2 2.212176 1_655
O23 P3 1.595148 1_555
O23 Sb3 2.058437 1_655
O24 P4 1.551793 1_555
O24 Sb1 2.564916 1_555
O25 P5 1.601655 1_555
O25 Sb0 1.993286 1_555
O26 P4 1.625699 1_555
O26 Sb0 1.970426 1_554
O27 P5 1.536587 1_565
O27 Sb1 2.608675 1_555
O28 P6 1.597932 1_555
O28 Sb3 1.995775 1_555
O29 P7 1.554342 1_555
O29 Sb2 2.575648 1_555
O30 P6 1.538881 1_555
O30 Sb2 2.567333 1_556
O31 P7 1.618780 1_545
O31 Sb3 1.973405 1_555
