# generated using pymatgen
data_Ca4SN4
_symmetry_space_group_name_H-M   'P 1'
_cell_length_a   11.62952200
_cell_length_b   3.55263300
_cell_length_c   14.65412300
_cell_angle_alpha   90.00000000
_cell_angle_beta   90.00000000
_cell_angle_gamma   90.00000000
_symmetry_Int_Tables_number   1
_chemical_formula_structural   Ca4SN4
_chemical_formula_sum   'Ca16 S4 N16'
_cell_volume   605.44129969
_cell_formula_units_Z   4
loop_
 _symmetry_equiv_pos_site_id
 _symmetry_equiv_pos_as_xyz
  1  'x, y, z'
loop_
 _atom_site_type_symbol
 _atom_site_label
 _atom_site_symmetry_multiplicity
 _atom_site_fract_x
 _atom_site_fract_y
 _atom_site_fract_z
 _atom_site_occupancy
  Ca  Ca0  1  0.11081600  0.25000000  0.17140600  1
  Ca  Ca1  1  0.61081600  0.25000000  0.32859400  1
  Ca  Ca2  1  0.88918400  0.75000000  0.82859400  1
  Ca  Ca3  1  0.38918400  0.75000000  0.67140600  1
  Ca  Ca4  1  0.88069700  0.25000000  0.03833500  1
  Ca  Ca5  1  0.38069700  0.25000000  0.46166500  1
  Ca  Ca6  1  0.11930300  0.75000000  0.96166500  1
  Ca  Ca7  1  0.61930300  0.75000000  0.53833500  1
  Ca  Ca8  1  0.37710000  0.25000000  0.87450800  1
  Ca  Ca9  1  0.87710000  0.25000000  0.62549200  1
  Ca  Ca10  1  0.62290000  0.75000000  0.12549200  1
  Ca  Ca11  1  0.12290000  0.75000000  0.37450800  1
  Ca  Ca12  1  0.14123300  0.25000000  0.76672900  1
  Ca  Ca13  1  0.64123300  0.25000000  0.73327100  1
  Ca  Ca14  1  0.85876700  0.75000000  0.23327100  1
  Ca  Ca15  1  0.35876700  0.75000000  0.26672900  1
  S  S0  1  0.38686700  0.25000000  0.06381700  1
  S  S1  1  0.88686700  0.25000000  0.43618300  1
  S  S2  1  0.61313300  0.75000000  0.93618300  1
  S  S3  1  0.11313300  0.75000000  0.56381700  1
  N  N0  1  0.73083500  0.25000000  0.18433200  1
  N  N1  1  0.23083500  0.25000000  0.31566800  1
  N  N2  1  0.26916500  0.75000000  0.81566800  1
  N  N3  1  0.76916500  0.75000000  0.68433200  1
  N  N4  1  0.00103200  0.25000000  0.88688300  1
  N  N5  1  0.50103200  0.25000000  0.61311700  1
  N  N6  1  0.99896800  0.75000000  0.11311700  1
  N  N7  1  0.49896800  0.75000000  0.38688300  1
  N  N8  1  0.25612700  0.25000000  0.04884700  1
  N  N9  1  0.75612700  0.25000000  0.45115300  1
  N  N10  1  0.74387300  0.75000000  0.95115300  1
  N  N11  1  0.24387300  0.75000000  0.54884700  1
  N  N12  1  0.44936600  0.25000000  0.15655600  1
  N  N13  1  0.94936600  0.25000000  0.34344400  1
  N  N14  1  0.55063400  0.75000000  0.84344400  1
  N  N15  1  0.05063400  0.75000000  0.65655600  1
loop_
_geom_bond_atom_site_label_1
_geom_bond_atom_site_label_2
_geom_bond_distance
_geom_bond_site_symmetry_2
Ca0 N6 2.361532 1_455
Ca0 N6 2.361532 1_445
Ca0 N8 2.466039 1_555
Ca0 N1 2.533237 1_555
Ca1 N7 2.361532 1_545
Ca1 N7 2.361532 1_555
Ca1 N9 2.466039 1_555
Ca1 N0 2.533237 1_555
Ca2 N4 2.361532 1_655
Ca2 N4 2.361532 1_665
Ca2 N10 2.466039 1_555
Ca2 N3 2.533237 1_555
Ca3 N5 2.361532 1_565
Ca3 N5 2.361532 1_555
Ca3 N11 2.466039 1_555
Ca3 N2 2.533237 1_555
Ca4 N6 2.499608 1_545
Ca4 N6 2.499608 1_555
Ca4 N4 2.623766 1_654
Ca4 N10 2.705441 1_554
Ca4 N10 2.705441 1_544
Ca4 N0 2.759477 1_555
Ca5 N7 2.499608 1_545
Ca5 N7 2.499608 1_555
Ca5 N5 2.623766 1_555
Ca5 N11 2.705441 1_545
Ca5 N11 2.705441 1_555
Ca5 N1 2.759477 1_555
Ca6 N4 2.499608 1_565
Ca6 N4 2.499608 1_555
Ca6 N6 2.623766 1_456
Ca6 N8 2.705441 1_556
Ca6 N8 2.705441 1_566
Ca6 N2 2.759477 1_555
Ca7 N5 2.499608 1_565
Ca7 N5 2.499608 1_555
Ca7 N7 2.623766 1_555
Ca7 N9 2.705441 1_565
Ca7 N9 2.705441 1_555
Ca7 N3 2.759477 1_555
Ca8 N2 2.339740 1_545
Ca8 N2 2.339740 1_555
Ca8 N14 2.726778 1_555
Ca8 N14 2.726778 1_545
Ca8 S0 2.776482 1_556
Ca8 N8 2.916535 1_556
Ca9 N3 2.339740 1_545
Ca9 N3 2.339740 1_555
Ca9 N15 2.726778 1_655
Ca9 N15 2.726778 1_645
Ca9 S1 2.776482 1_555
Ca9 N9 2.916535 1_555
Ca10 N0 2.339740 1_555
Ca10 N0 2.339740 1_565
Ca10 N12 2.726778 1_555
Ca10 N12 2.726778 1_565
Ca10 S2 2.776482 1_554
Ca10 N10 2.916535 1_554
Ca11 N1 2.339740 1_565
Ca11 N1 2.339740 1_555
Ca11 N13 2.726778 1_465
Ca11 N13 2.726778 1_455
Ca11 S3 2.776482 1_555
Ca11 N11 2.916535 1_555
Ca12 N4 2.399725 1_555
Ca12 N2 2.425516 1_545
Ca12 N2 2.425516 1_555
Ca12 N15 2.621449 1_555
Ca12 N15 2.621449 1_545
Ca13 N5 2.399725 1_555
Ca13 N3 2.425516 1_545
Ca13 N3 2.425516 1_555
Ca13 N14 2.621449 1_555
Ca13 N14 2.621449 1_545
Ca14 N6 2.399725 1_555
Ca14 N0 2.425516 1_555
Ca14 N0 2.425516 1_565
Ca14 N13 2.621449 1_555
Ca14 N13 2.621449 1_565
Ca15 N7 2.399725 1_555
Ca15 N1 2.425516 1_555
Ca15 N1 2.425516 1_565
Ca15 N12 2.621449 1_565
Ca15 N12 2.621449 1_555
N8 S0 1.536188 1_555
N9 S1 1.536188 1_555
N10 S2 1.536188 1_555
N11 S3 1.536188 1_555
N12 S0 1.541166 1_555
N13 S1 1.541166 1_555
N14 S2 1.541166 1_555
N15 S3 1.541166 1_555
