# generated using pymatgen
data_Ca3MnZnO6
_symmetry_space_group_name_H-M   'P 1'
_cell_length_a   6.46117797
_cell_length_b   6.46117797
_cell_length_c   6.46117810
_cell_angle_alpha   92.02983200
_cell_angle_beta   92.02983200
_cell_angle_gamma   92.02983783
_symmetry_Int_Tables_number   1
_chemical_formula_structural   Ca3MnZnO6
_chemical_formula_sum   'Ca6 Mn2 Zn2 O12'
_cell_volume   269.21355800
_cell_formula_units_Z   2
loop_
 _symmetry_equiv_pos_site_id
 _symmetry_equiv_pos_as_xyz
  1  'x, y, z'
loop_
 _atom_site_type_symbol
 _atom_site_label
 _atom_site_symmetry_multiplicity
 _atom_site_fract_x
 _atom_site_fract_y
 _atom_site_fract_z
 _atom_site_occupancy
  Ca  Ca0  1  0.25000000  0.61318000  0.88682000  1
  Ca  Ca1  1  0.38682000  0.11318000  0.75000000  1
  Ca  Ca2  1  0.11318000  0.75000000  0.38682000  1
  Ca  Ca3  1  0.75000000  0.38682000  0.11318000  1
  Ca  Ca4  1  0.61318000  0.88682000  0.25000000  1
  Ca  Ca5  1  0.88682000  0.25000000  0.61318000  1
  Mn  Mn0  1  0.50000000  0.50000000  0.50000000  1
  Mn  Mn1  1  0.00000000  0.00000000  0.00000000  1
  Zn  Zn0  1  0.75000000  0.75000000  0.75000000  1
  Zn  Zn1  1  0.25000000  0.25000000  0.25000000  1
  O  O0  1  0.54603300  0.21535900  0.41714900  1
  O  O1  1  0.45396700  0.78464100  0.58285100  1
  O  O2  1  0.78464100  0.58285100  0.45396700  1
  O  O3  1  0.58285100  0.45396700  0.78464100  1
  O  O4  1  0.71535900  0.04603300  0.91714900  1
  O  O5  1  0.04603300  0.91714900  0.71535900  1
  O  O6  1  0.08285100  0.28464100  0.95396700  1
  O  O7  1  0.95396700  0.08285100  0.28464100  1
  O  O8  1  0.28464100  0.95396700  0.08285100  1
  O  O9  1  0.41714900  0.54603300  0.21535900  1
  O  O10  1  0.21535900  0.41714900  0.54603300  1
  O  O11  1  0.91714900  0.71535900  0.04603300  1
loop_
_geom_bond_atom_site_label_1
_geom_bond_atom_site_label_2
_geom_bond_distance
_geom_bond_site_symmetry_2
Ca0 O6 2.407628 1_555
Ca0 O9 2.407628 1_556
Ca0 O8 2.500018 1_556
Ca0 O10 2.500018 1_555
Ca0 O11 2.515632 1_456
Ca0 O3 2.515632 1_555
Ca0 O1 2.656206 1_555
Ca0 O5 2.656206 1_555
Ca1 O4 2.407628 1_555
Ca1 O1 2.407628 1_545
Ca1 O3 2.500018 1_555
Ca1 O5 2.500018 1_545
Ca1 O0 2.515632 1_555
Ca1 O8 2.515632 1_546
Ca1 O10 2.656206 1_555
Ca1 O6 2.656206 1_555
Ca2 O2 2.407628 1_455
Ca2 O5 2.407628 1_555
Ca2 O1 2.500018 1_555
Ca2 O11 2.500018 1_455
Ca2 O10 2.515632 1_555
Ca2 O7 2.515632 1_465
Ca2 O8 2.656206 1_555
Ca2 O9 2.656206 1_555
Ca3 O11 2.407628 1_555
Ca3 O3 2.407628 1_554
Ca3 O4 2.500018 1_554
Ca3 O2 2.500018 1_555
Ca3 O6 2.515632 1_654
Ca3 O9 2.515632 1_555
Ca3 O0 2.656206 1_555
Ca3 O7 2.656206 1_555
Ca4 O0 2.407628 1_565
Ca4 O8 2.407628 1_555
Ca4 O7 2.500018 1_565
Ca4 O9 2.500018 1_555
Ca4 O4 2.515632 1_564
Ca4 O1 2.515632 1_555
Ca4 O2 2.656206 1_555
Ca4 O11 2.656206 1_555
Ca5 O10 2.407628 1_655
Ca5 O7 2.407628 1_555
Ca5 O0 2.500018 1_555
Ca5 O6 2.500018 1_655
Ca5 O2 2.515632 1_555
Ca5 O5 2.515632 1_645
Ca5 O4 2.656206 1_555
Ca5 O3 2.656206 1_555
Mn0 O2 1.933303 1_555
Mn0 O10 1.933303 1_555
Mn0 O1 1.933303 1_555
Mn0 O0 1.933303 1_555
Mn0 O3 1.933303 1_555
Mn0 O9 1.933303 1_555
Mn1 O6 1.933303 1_554
Mn1 O11 1.933303 1_445
Mn1 O8 1.933303 1_545
Mn1 O4 1.933303 1_454
Mn1 O7 1.933303 1_455
Mn1 O5 1.933303 1_544
O0 Zn1 2.185423 1_555
O1 Zn0 2.185423 1_555
O2 Zn0 2.185423 1_555
O3 Zn0 2.185423 1_555
O4 Zn0 2.185423 1_545
O5 Zn0 2.185423 1_455
O6 Zn1 2.185423 1_556
O7 Zn1 2.185423 1_655
O8 Zn1 2.185423 1_565
O9 Zn1 2.185423 1_555
O10 Zn1 2.185423 1_555
O11 Zn0 2.185423 1_554
