# generated using pymatgen
data_Eu2ZnGe3
_symmetry_space_group_name_H-M   'P 1'
_cell_length_a   8.61960340
_cell_length_b   8.54422596
_cell_length_c   6.13399826
_cell_angle_alpha   69.71970416
_cell_angle_beta   68.40450351
_cell_angle_gamma   41.87579233
_symmetry_Int_Tables_number   1
_chemical_formula_structural   Eu2ZnGe3
_chemical_formula_sum   'Eu4 Zn2 Ge6'
_cell_volume   278.46465073
_cell_formula_units_Z   2
loop_
 _symmetry_equiv_pos_site_id
 _symmetry_equiv_pos_as_xyz
  1  'x, y, z'
loop_
 _atom_site_type_symbol
 _atom_site_label
 _atom_site_symmetry_multiplicity
 _atom_site_fract_x
 _atom_site_fract_y
 _atom_site_fract_z
 _atom_site_occupancy
  Eu  Eu0  1  0.24463200  0.75536800  0.24463200  1
  Eu  Eu1  1  0.75536800  0.24463200  0.75536800  1
  Eu  Eu2  1  0.25000000  0.25000000  0.25000000  1
  Eu  Eu3  1  0.75000000  0.75000000  0.75000000  1
  Zn  Zn0  1  0.33353700  0.33353700  0.66646300  1
  Zn  Zn1  1  0.66646300  0.66646300  0.33353700  1
  Ge  Ge0  1  0.16888900  0.16888900  0.83111100  1
  Ge  Ge1  1  0.83111100  0.83111100  0.16888900  1
  Ge  Ge2  1  0.83036300  0.33829300  0.16963700  1
  Ge  Ge3  1  0.66170700  0.16963700  0.33829300  1
  Ge  Ge4  1  0.33829300  0.83036300  0.66170700  1
  Ge  Ge5  1  0.16963700  0.66170700  0.83036300  1
loop_
_geom_bond_atom_site_label_1
_geom_bond_atom_site_label_2
_geom_bond_distance
_geom_bond_site_symmetry_2
Eu0 Ge2 3.302250 1_465
Eu0 Ge3 3.302250 1_465
Eu0 Ge4 3.302250 1_554
Eu0 Ge5 3.302250 1_554
Eu0 Ge0 3.303776 1_564
Eu0 Ge1 3.303776 1_455
Eu0 Ge2 3.321834 1_555
Eu0 Ge3 3.321834 1_555
Eu0 Ge5 3.321834 1_555
Eu0 Ge4 3.321834 1_555
Eu0 Zn0 3.339809 1_555
Eu0 Zn1 3.339809 1_555
Eu1 Ge2 3.302250 1_556
Eu1 Ge4 3.302250 1_645
Eu1 Ge3 3.302250 1_556
Eu1 Ge5 3.302250 1_645
Eu1 Ge0 3.303776 1_655
Eu1 Ge1 3.303776 1_546
Eu1 Ge5 3.321834 1_555
Eu1 Ge3 3.321834 1_555
Eu1 Ge2 3.321834 1_555
Eu1 Ge4 3.321834 1_555
Eu1 Zn0 3.339809 1_555
Eu1 Zn1 3.339809 1_555
Eu2 Ge0 3.293872 1_555
Eu2 Ge1 3.293872 1_545
Eu2 Ge1 3.293872 1_455
Eu2 Ge0 3.293872 1_554
Eu2 Ge3 3.299496 1_555
Eu2 Ge5 3.299496 1_554
Eu2 Ge4 3.299496 1_545
Eu2 Ge2 3.299496 1_455
Eu2 Zn0 3.307145 1_555
Eu2 Zn1 3.307145 1_545
Eu2 Zn0 3.307145 1_554
Eu2 Zn1 3.307145 1_455
Eu3 Ge1 3.293872 1_556
Eu3 Ge0 3.293872 1_655
Eu3 Ge0 3.293872 1_565
Eu3 Ge1 3.293872 1_555
Eu3 Ge5 3.299496 1_655
Eu3 Ge3 3.299496 1_565
Eu3 Ge2 3.299496 1_556
Eu3 Ge4 3.299496 1_555
Eu3 Zn1 3.307145 1_556
Eu3 Zn0 3.307145 1_655
Eu3 Zn0 3.307145 1_565
Eu3 Zn1 3.307145 1_555
Ge0 Zn0 2.438519 1_555
Ge0 Ge4 2.501040 1_545
Ge0 Ge2 2.501040 1_456
Ge1 Zn1 2.438519 1_555
Ge1 Ge5 2.501040 1_654
Ge1 Ge3 2.501040 1_565
Ge2 Zn1 2.424537 1_555
Ge2 Ge3 2.497879 1_555
Ge3 Zn0 2.424537 1_555
Ge4 Zn1 2.424537 1_555
Ge4 Ge5 2.497879 1_555
Ge5 Zn0 2.424537 1_555
