# generated using pymatgen
data_ZrUCN
_symmetry_space_group_name_H-M   'P 1'
_cell_length_a   5.93751036
_cell_length_b   5.93751036
_cell_length_c   5.93751004
_cell_angle_alpha   32.87610211
_cell_angle_beta   32.87610211
_cell_angle_gamma   32.87610774
_symmetry_Int_Tables_number   1
_chemical_formula_structural   ZrUCN
_chemical_formula_sum   'Zr1 U1 C1 N1'
_cell_volume   54.87727106
_cell_formula_units_Z   1
loop_
 _symmetry_equiv_pos_site_id
 _symmetry_equiv_pos_as_xyz
  1  'x, y, z'
loop_
 _atom_site_type_symbol
 _atom_site_label
 _atom_site_symmetry_multiplicity
 _atom_site_fract_x
 _atom_site_fract_y
 _atom_site_fract_z
 _atom_site_occupancy
  Zr  Zr0  1  0.24948900  0.24948900  0.24948900  1
  U  U0  1  0.74984900  0.74984900  0.74984900  1
  C  C0  1  0.99814300  0.99814300  0.99814300  1
  N  N0  1  0.50251800  0.50251800  0.50251800  1
loop_
_geom_bond_atom_site_label_1
_geom_bond_atom_site_label_2
_geom_bond_distance
_geom_bond_site_symmetry_2
C0 Zr0 2.380987 1_665
C0 Zr0 2.380987 1_656
C0 Zr0 2.380987 1_566
C0 U0 2.411135 1_556
C0 U0 2.411135 1_565
C0 U0 2.411135 1_655
N0 Zr0 2.364675 1_556
N0 Zr0 2.364676 1_655
N0 Zr0 2.364676 1_565
N0 U0 2.420796 1_554
N0 U0 2.420796 1_455
N0 U0 2.420796 1_545
