# generated using pymatgen
data_LaMnO3
_symmetry_space_group_name_H-M   'P 1'
_cell_length_a   5.56354300
_cell_length_b   5.56517400
_cell_length_c   8.03170200
_cell_angle_alpha   90.00000000
_cell_angle_beta   90.00000000
_cell_angle_gamma   90.00000000
_symmetry_Int_Tables_number   1
_chemical_formula_structural   LaMnO3
_chemical_formula_sum   'La4 Mn4 O12'
_cell_volume   248.67823883
_cell_formula_units_Z   4
loop_
 _symmetry_equiv_pos_site_id
 _symmetry_equiv_pos_as_xyz
  1  'x, y, z'
loop_
 _atom_site_type_symbol
 _atom_site_label
 _atom_site_symmetry_multiplicity
 _atom_site_fract_x
 _atom_site_fract_y
 _atom_site_fract_z
 _atom_site_occupancy
  La  La0  1  0.50258400  0.00651100  0.25000000  1
  La  La1  1  0.99741600  0.50651100  0.25000000  1
  La  La2  1  0.49741600  0.99348900  0.75000000  1
  La  La3  1  0.00258400  0.49348900  0.75000000  1
  Mn  Mn0  1  0.50000000  0.50000000  0.00000000  1
  Mn  Mn1  1  0.00000000  0.00000000  0.50000000  1
  Mn  Mn2  1  0.50000000  0.50000000  0.50000000  1
  Mn  Mn3  1  0.00000000  0.00000000  0.00000000  1
  O  O0  1  0.50136200  0.49557100  0.25000000  1
  O  O1  1  0.99863800  0.99557100  0.25000000  1
  O  O2  1  0.49863800  0.50442900  0.75000000  1
  O  O3  1  0.00136200  0.00442900  0.75000000  1
  O  O4  1  0.69670800  0.80346800  0.00071200  1
  O  O5  1  0.80329200  0.30346800  0.49928800  1
  O  O6  1  0.30329200  0.19653200  0.50071200  1
  O  O7  1  0.19670800  0.69653200  0.99928800  1
  O  O8  1  0.30329200  0.19653200  0.99928800  1
  O  O9  1  0.19670800  0.69653200  0.50071200  1
  O  O10  1  0.69670800  0.80346800  0.49928800  1
  O  O11  1  0.80329200  0.30346800  0.00071200  1
loop_
_geom_bond_atom_site_label_1
_geom_bond_atom_site_label_2
_geom_bond_distance
_geom_bond_site_symmetry_2
La0 O6 2.530304 1_555
La0 O8 2.530304 1_554
La0 O10 2.540099 1_545
La0 O4 2.540099 1_545
La0 O0 2.721712 1_555
La0 O1 2.760489 1_545
La0 O1 2.804386 1_445
La0 O0 2.843478 1_545
La0 O5 3.088513 1_555
La0 O11 3.088513 1_555
La0 O9 3.150660 1_545
La0 O7 3.150660 1_544
La1 O9 2.530304 1_655
La1 O7 2.530304 1_654
La1 O5 2.540099 1_555
La1 O11 2.540099 1_555
La1 O1 2.721712 1_555
La1 O0 2.760489 1_555
La1 O0 2.804386 1_655
La1 O1 2.843478 1_545
La1 O10 3.088513 1_555
La1 O4 3.088513 1_555
La1 O6 3.150660 1_655
La1 O8 3.150660 1_654
La2 O4 2.530304 1_556
La2 O10 2.530304 1_555
La2 O8 2.540099 1_565
La2 O6 2.540099 1_565
La2 O2 2.721712 1_555
La2 O3 2.760489 1_565
La2 O3 2.804386 1_665
La2 O2 2.843478 1_565
La2 O7 3.088513 1_555
La2 O9 3.088513 1_555
La2 O11 3.150660 1_566
La2 O5 3.150660 1_565
La3 O11 2.530304 1_456
La3 O5 2.530304 1_455
La3 O7 2.540099 1_555
La3 O9 2.540099 1_555
La3 O3 2.721712 1_555
La3 O2 2.760489 1_555
La3 O2 2.804386 1_455
La3 O3 2.843478 1_565
La3 O8 3.088513 1_555
La3 O6 3.088513 1_555
La3 O4 3.150660 1_456
La3 O10 3.150660 1_455
Mn0 O0 2.008091 1_555
Mn0 O2 2.008091 1_554
Mn0 O7 2.010854 1_554
Mn0 O11 2.010854 1_555
Mn0 O4 2.012449 1_555
Mn0 O8 2.012449 1_554
Mn1 O1 2.008091 1_445
Mn1 O3 2.008091 1_555
Mn1 O6 2.010854 1_555
Mn1 O10 2.010854 1_445
Mn1 O5 2.012449 1_455
Mn1 O9 2.012449 1_545
Mn2 O2 2.008091 1_555
Mn2 O0 2.008091 1_555
Mn2 O9 2.010854 1_555
Mn2 O5 2.010854 1_555
Mn2 O10 2.012449 1_555
Mn2 O6 2.012449 1_555
Mn3 O1 2.008091 1_445
Mn3 O3 2.008091 1_554
Mn3 O8 2.010854 1_554
Mn3 O4 2.010854 1_445
Mn3 O11 2.012449 1_455
Mn3 O7 2.012449 1_544
