# generated using pymatgen
data_MoW2(Se2S)2
_symmetry_space_group_name_H-M   'P 1'
_cell_length_a   3.27662346
_cell_length_b   3.27662346
_cell_length_c   30.22521200
_cell_angle_alpha   90.00000000
_cell_angle_beta   90.00000000
_cell_angle_gamma   119.99998911
_symmetry_Int_Tables_number   1
_chemical_formula_structural   MoW2(Se2S)2
_chemical_formula_sum   'Mo1 W2 Se4 S2'
_cell_volume   281.03027478
_cell_formula_units_Z   1
loop_
 _symmetry_equiv_pos_site_id
 _symmetry_equiv_pos_as_xyz
  1  'x, y, z'
loop_
 _atom_site_type_symbol
 _atom_site_label
 _atom_site_symmetry_multiplicity
 _atom_site_fract_x
 _atom_site_fract_y
 _atom_site_fract_z
 _atom_site_occupancy
  Mo  Mo0  1  0.00000000  0.00000000  0.11564300  1
  W  W0  1  0.00000000  0.00000000  0.57834200  1
  W  W1  1  0.33333300  0.66666700  0.34698600  1
  Se  Se0  1  0.00000000  0.00000000  0.40315900  1
  Se  Se1  1  0.33333300  0.66666700  0.52210900  1
  Se  Se2  1  0.33333300  0.66666700  0.63456000  1
  Se  Se3  1  0.00000000  0.00000000  0.29076100  1
  S  S0  1  0.33333300  0.66666700  0.06473900  1
  S  S1  1  0.33333300  0.66666700  0.16654300  1
loop_
_geom_bond_atom_site_label_1
_geom_bond_atom_site_label_2
_geom_bond_distance
_geom_bond_site_symmetry_2
Mo0 S1 2.438363 1_545
Mo0 S1 2.438366 1_555
Mo0 S1 2.438366 1_445
Mo0 S0 2.438440 1_545
Mo0 S0 2.438442 1_555
Mo0 S0 2.438442 1_445
Se0 W1 2.541930 1_545
Se0 W1 2.541933 1_445
Se0 W1 2.541933 1_555
Se1 W0 2.543142 1_565
Se1 W0 2.543144 1_665
Se1 W0 2.543144 1_555
Se2 W0 2.542839 1_565
Se2 W0 2.542841 1_665
Se2 W0 2.542841 1_555
Se3 W1 2.542980 1_545
Se3 W1 2.542983 1_445
Se3 W1 2.542983 1_555
