# generated using pymatgen
data_RbHfMg6O7
_symmetry_space_group_name_H-M   'P 1'
_cell_length_a   4.11135200
_cell_length_b   4.11135200
_cell_length_c   13.05773900
_cell_angle_alpha   90.00000000
_cell_angle_beta   90.00000000
_cell_angle_gamma   90.00000000
_symmetry_Int_Tables_number   1
_chemical_formula_structural   RbHfMg6O7
_chemical_formula_sum   'Rb1 Hf1 Mg6 O7'
_cell_volume   220.71777323
_cell_formula_units_Z   1
loop_
 _symmetry_equiv_pos_site_id
 _symmetry_equiv_pos_as_xyz
  1  'x, y, z'
loop_
 _atom_site_type_symbol
 _atom_site_label
 _atom_site_symmetry_multiplicity
 _atom_site_fract_x
 _atom_site_fract_y
 _atom_site_fract_z
 _atom_site_occupancy
  Rb  Rb0  1  0.00000000  0.00000000  0.09791200  1
  Hf  Hf0  1  0.50000000  0.50000000  0.94100400  1
  Mg  Mg0  1  0.00000000  0.00000000  0.55609700  1
  Mg  Mg1  1  0.50000000  0.50000000  0.56142200  1
  Mg  Mg2  1  0.00000000  0.50000000  0.36519300  1
  Mg  Mg3  1  0.00000000  0.50000000  0.75110300  1
  Mg  Mg4  1  0.50000000  0.00000000  0.36519300  1
  Mg  Mg5  1  0.50000000  0.00000000  0.75110300  1
  O  O0  1  0.00000000  0.00000000  0.70734100  1
  O  O1  1  0.50000000  0.50000000  0.08563600  1
  O  O2  1  0.50000000  0.50000000  0.71808300  1
  O  O3  1  0.00000000  0.50000000  0.90387000  1
  O  O4  1  0.00000000  0.50000000  0.52108600  1
  O  O5  1  0.50000000  0.00000000  0.90387000  1
  O  O6  1  0.50000000  0.00000000  0.52108600  1
loop_
_geom_bond_atom_site_label_1
_geom_bond_atom_site_label_2
_geom_bond_distance
_geom_bond_site_symmetry_2
Hf0 O1 1.888567 1_556
Hf0 O5 2.112089 1_565
Hf0 O3 2.112089 1_555
Hf0 O3 2.112089 1_655
Hf0 O5 2.112089 1_555
Mg0 O0 1.974905 1_555
Mg0 O6 2.105897 1_555
Mg0 O4 2.105897 1_555
Mg0 O6 2.105897 1_455
Mg0 O4 2.105897 1_545
Mg1 O2 2.045638 1_555
Mg1 O6 2.122078 1_555
Mg1 O6 2.122078 1_565
Mg1 O4 2.122078 1_555
Mg1 O4 2.122078 1_655
Mg2 O4 2.035610 1_555
Mg3 O3 1.994792 1_555
Mg3 O2 2.100407 1_455
Mg3 O2 2.100407 1_555
Mg3 O0 2.133621 1_555
Mg3 O0 2.133621 1_565
Mg4 O6 2.035610 1_555
Mg5 O5 1.994792 1_555
Mg5 O2 2.100407 1_555
Mg5 O2 2.100407 1_545
Mg5 O0 2.133621 1_555
Mg5 O0 2.133621 1_655
O1 Rb0 2.911581 1_555
O1 Rb0 2.911581 1_565
O1 Rb0 2.911581 1_655
O1 Rb0 2.911581 1_665
