# generated using pymatgen
data_Li9Mn2Co5O16
_symmetry_space_group_name_H-M   'P 1'
_cell_length_a   3.03280100
_cell_length_b   6.02646374
_cell_length_c   16.09377955
_cell_angle_alpha   90.63961634
_cell_angle_beta   90.71952976
_cell_angle_gamma   94.76694672
_symmetry_Int_Tables_number   1
_chemical_formula_structural   Li9Mn2Co5O16
_chemical_formula_sum   'Li9 Mn2 Co5 O16'
_cell_volume   293.08448704
_cell_formula_units_Z   1
loop_
 _symmetry_equiv_pos_site_id
 _symmetry_equiv_pos_as_xyz
  1  'x, y, z'
loop_
 _atom_site_type_symbol
 _atom_site_label
 _atom_site_symmetry_multiplicity
 _atom_site_fract_x
 _atom_site_fract_y
 _atom_site_fract_z
 _atom_site_occupancy
  Li  Li0  1  0.00009100  0.50118100  0.99878200  1
  Li  Li1  1  0.49983800  0.74860900  0.12625900  1
  Li  Li2  1  0.99903300  0.99832100  0.25144000  1
  Li  Li3  1  0.49927300  0.25084600  0.87439000  1
  Li  Li4  1  0.00115300  0.00095100  0.74920300  1
  Li  Li5  1  0.50248600  0.75554700  0.62281000  1
  Li  Li6  1  0.99925400  0.49987600  0.50033900  1
  Li  Li7  1  0.49839400  0.24528800  0.37629900  1
  Li  Li8  1  0.99988100  0.99981100  0.49987600  1
  Mn  Mn0  1  0.00067300  0.99653000  0.99921400  1
  Mn  Mn1  1  0.50021500  0.25333800  0.12633600  1
  Co  Co0  1  0.00153400  0.50263900  0.25265800  1
  Co  Co1  1  0.49874700  0.76142200  0.38046700  1
  Co  Co2  1  0.49825400  0.23829800  0.62026400  1
  Co  Co3  1  0.00075300  0.50121200  0.74819600  1
  Co  Co4  1  0.50358600  0.74821300  0.87323300  1
  O  O0  1  0.52200700  0.75505900  0.99312200  1
  O  O1  1  0.02673700  0.00616200  0.12143000  1
  O  O2  1  0.52899800  0.26449000  0.24729300  1
  O  O3  1  0.03219100  0.50937800  0.86901800  1
  O  O4  1  0.48953500  0.26082700  0.74028300  1
  O  O5  1  0.01854800  0.01913100  0.62488500  1
  O  O6  1  0.50283400  0.74526600  0.48780300  1
  O  O7  1  0.02420400  0.51505300  0.36968300  1
  O  O8  1  0.47329100  0.24283300  0.00409200  1
  O  O9  1  0.97668700  0.49670500  0.13213300  1
  O  O10  1  0.47211300  0.73699300  0.26036700  1
  O  O11  1  0.97176100  0.98662700  0.87760700  1
  O  O12  1  0.51459400  0.73676100  0.75537300  1
  O  O13  1  0.97066400  0.48870400  0.62972100  1
  O  O14  1  0.49592200  0.25390000  0.51247500  1
  O  O15  1  0.97674700  0.98002800  0.37494600  1
loop_
_geom_bond_atom_site_label_1
_geom_bond_atom_site_label_2
_geom_bond_distance
_geom_bond_site_symmetry_2
Li0 O3 2.092824 1_555
Li0 O0 2.111598 1_555
Li0 O8 2.139361 1_456
Li0 O9 2.148582 1_456
Li0 O0 2.195442 1_455
Li0 O8 2.205028 1_556
Li1 O9 2.106542 1_455
Li1 O1 2.135948 1_665
Li1 O0 2.145260 1_554
Li1 O10 2.162684 1_555
Li1 O9 2.183955 1_555
Li1 O1 2.200888 1_565
Li2 O15 1.993644 1_555
Li2 O1 2.095995 1_665
Li2 O10 2.155728 1_555
Li2 O2 2.176552 1_665
Li2 O10 2.221454 1_655
Li2 O2 2.233746 1_565
Li3 O8 2.090816 1_556
Li3 O3 2.152938 1_655
Li3 O4 2.159697 1_555
Li3 O11 2.162898 1_445
Li3 O3 2.192798 1_555
Li3 O11 2.229509 1_545
Li4 O5 2.006080 1_555
Li4 O4 2.071725 1_555
Li4 O11 2.071997 1_445
Li4 O12 2.083020 1_445
Li4 O4 2.298754 1_455
Li4 O12 2.319743 1_545
Li5 O5 2.135006 1_665
Li5 O12 2.137720 1_555
Li5 O6 2.172981 1_555
Li5 O13 2.185704 1_455
Li5 O13 2.234736 1_555
Li5 O5 2.250784 1_565
Li6 O6 2.049191 1_655
Li6 O14 2.050276 1_555
Li6 O13 2.086742 1_555
Li6 O7 2.107791 1_655
Li6 O6 2.205311 1_555
Li6 O14 2.207866 1_655
Li7 O2 2.083508 1_555
Li7 O15 2.153331 1_445
Li7 O7 2.185078 1_655
Li7 O14 2.191743 1_555
Li7 O15 2.246347 1_545
Li7 O7 2.260783 1_555
Li8 O15 2.012796 1_555
Li8 O5 2.013749 1_665
Li8 O14 2.061940 1_665
Li8 O6 2.065180 1_555
Li8 O6 2.259941 1_655
Li8 O14 2.260914 1_565
Mn0 O11 1.958001 1_455
Mn0 O1 1.967528 1_566
Mn0 O0 1.968964 1_455
Mn0 O8 1.976078 1_566
Mn0 O0 2.238364 1_555
Mn0 O8 2.272176 1_466
Mn1 O2 1.947675 1_555
Mn1 O8 1.968130 1_555
Mn1 O9 1.972107 1_555
Mn1 O1 1.981449 1_555
Mn1 O9 2.251315 1_455
Mn1 O1 2.273963 1_655
Co0 O7 1.884190 1_555
Co0 O10 1.924450 1_555
Co0 O9 1.940035 1_455
Co0 O2 1.942502 1_455
Co0 O10 2.228473 1_455
Co0 O2 2.237980 1_555
Co1 O6 1.731215 1_555
Co1 O15 1.879757 1_555
Co1 O10 1.936984 1_555
Co1 O7 1.984605 1_555
Co1 O15 2.143711 1_455
Co1 O7 2.273453 1_655
Co2 O14 1.738284 1_555
Co2 O5 1.884723 1_555
Co2 O4 1.935479 1_555
Co2 O13 1.995791 1_555
Co2 O5 2.141405 1_655
Co2 O13 2.294120 1_455
Co3 O13 1.908096 1_455
Co3 O3 1.945495 1_555
Co3 O12 2.020169 1_555
Co3 O4 2.033788 1_455
Co3 O12 2.133262 1_455
Co3 O4 2.160986 1_555
Co4 O12 1.898112 1_555
Co4 O0 1.929456 1_555
Co4 O11 1.934309 1_555
Co4 O3 1.942561 1_555
Co4 O3 2.242865 1_655
Co4 O11 2.248689 1_455
