# generated using pymatgen
data_FeS2
_symmetry_space_group_name_H-M   'P 1'
_cell_length_a   6.67035281
_cell_length_b   6.67035281
_cell_length_c   6.67035279
_cell_angle_alpha   58.45544754
_cell_angle_beta   58.45544754
_cell_angle_gamma   58.45544549
_symmetry_Int_Tables_number   1
_chemical_formula_structural   FeS2
_chemical_formula_sum   'Fe4 S8'
_cell_volume   202.44398501
_cell_formula_units_Z   4
loop_
 _symmetry_equiv_pos_site_id
 _symmetry_equiv_pos_as_xyz
  1  'x, y, z'
loop_
 _atom_site_type_symbol
 _atom_site_label
 _atom_site_symmetry_multiplicity
 _atom_site_fract_x
 _atom_site_fract_y
 _atom_site_fract_z
 _atom_site_occupancy
  Fe  Fe0  1  0.00000000  0.00000000  0.00000000  1
  Fe  Fe1  1  0.00000000  0.50000000  0.00000000  1
  Fe  Fe2  1  0.50000000  0.00000000  0.00000000  1
  Fe  Fe3  1  0.00000000  0.00000000  0.50000000  1
  S  S0  1  0.24395300  0.24395300  0.76861800  1
  S  S1  1  0.76861800  0.24395300  0.24395300  1
  S  S2  1  0.24374500  0.24374500  0.24374500  1
  S  S3  1  0.24395300  0.76861800  0.24395300  1
  S  S4  1  0.75604700  0.23138200  0.75604700  1
  S  S5  1  0.75625500  0.75625500  0.75625500  1
  S  S6  1  0.23138200  0.75604700  0.75604700  1
  S  S7  1  0.75604700  0.75604700  0.23138200  1
loop_
_geom_bond_atom_site_label_1
_geom_bond_atom_site_label_2
_geom_bond_distance
_geom_bond_site_symmetry_2
Fe0 S3 2.278797 1_545
Fe0 S1 2.278797 1_455
Fe0 S6 2.278797 1_544
Fe0 S4 2.278797 1_454
Fe0 S0 2.278797 1_554
Fe0 S7 2.278797 1_445
Fe1 S5 2.271303 1_454
Fe1 S2 2.271303 1_555
Fe1 S7 2.273620 1_455
Fe1 S0 2.273620 1_554
Fe1 S6 2.273620 1_554
Fe1 S1 2.273620 1_455
Fe2 S5 2.271303 1_544
Fe2 S2 2.271303 1_555
Fe2 S7 2.273620 1_545
Fe2 S0 2.273620 1_554
Fe2 S4 2.273620 1_554
Fe2 S3 2.273620 1_545
Fe3 S2 2.271303 1_555
Fe3 S5 2.271303 1_445
Fe3 S6 2.273620 1_545
Fe3 S4 2.273620 1_455
Fe3 S1 2.273620 1_455
Fe3 S3 2.273620 1_545
