# generated using pymatgen
data_In5AgTe8
_symmetry_space_group_name_H-M   'P 1'
_cell_length_a   7.72083659
_cell_length_b   7.72083659
_cell_length_c   8.96477759
_cell_angle_alpha   89.86044313
_cell_angle_beta   90.13955687
_cell_angle_gamma   70.94564855
_symmetry_Int_Tables_number   1
_chemical_formula_structural   In5AgTe8
_chemical_formula_sum   'In5 Ag1 Te8'
_cell_volume   505.11749100
_cell_formula_units_Z   1
loop_
 _symmetry_equiv_pos_site_id
 _symmetry_equiv_pos_as_xyz
  1  'x, y, z'
loop_
 _atom_site_type_symbol
 _atom_site_label
 _atom_site_symmetry_multiplicity
 _atom_site_fract_x
 _atom_site_fract_y
 _atom_site_fract_z
 _atom_site_occupancy
  In  In0  1  0.48882382  0.48882382  -0.00000000  1
  In  In1  1  0.01124228  0.01124228  0.50000000  1
  In  In2  1  0.49855441  0.49855441  0.50000000  1
  In  In3  1  0.01270574  0.48629354  0.75414036  1
  In  In4  1  0.48629354  0.01270574  0.24585964  1
  Ag  Ag0  1  0.00164838  0.00164838  -0.00000000  1
  Te  Te0  1  0.62030108  0.10892497  0.98067479  1
  Te  Te1  1  0.11124568  0.61996866  0.47827172  1
  Te  Te2  1  0.10892497  0.62030108  0.01932521  1
  Te  Te3  1  0.61996866  0.11124568  0.52172828  1
  Te  Te4  1  0.10699451  0.16375378  0.24615560  1
  Te  Te5  1  0.61918478  0.65035836  0.75184933  1
  Te  Te6  1  0.16375378  0.10699451  0.75384440  1
  Te  Te7  1  0.65035836  0.61918478  0.24815067  1
loop_
_geom_bond_atom_site_label_1
_geom_bond_atom_site_label_2
_geom_bond_distance
_geom_bond_site_symmetry_2
In0 Te0 2.779032 1_554
In0 Te2 2.779032 1_555
In0 Te7 2.886938 1_555
In0 Te5 2.886938 1_554
In1 Te4 2.770423 1_555
In1 Te6 2.770423 1_555
In1 Te1 2.870701 1_545
In1 Te3 2.870701 1_455
In2 Te3 2.832816 1_555
In2 Te1 2.832816 1_555
In2 Te5 2.837973 1_555
In2 Te7 2.837973 1_555
In3 Te6 2.776029 1_555
In3 Te2 2.789140 1_556
In3 Te1 2.875706 1_555
In3 Te5 2.884957 1_455
In4 Te4 2.776029 1_555
In4 Te0 2.789140 1_554
In4 Te3 2.875706 1_555
In4 Te7 2.884957 1_545
Ag0 Te4 2.786948 1_555
Ag0 Te6 2.786948 1_554
Ag0 Te0 2.790984 1_454
Ag0 Te2 2.790984 1_545
