# generated using pymatgen
data_CaMg6Mn
_symmetry_space_group_name_H-M   'P 1'
_cell_length_a   5.11623000
_cell_length_b   6.53492700
_cell_length_c   11.33758400
_cell_angle_alpha   90.00000000
_cell_angle_beta   90.00000000
_cell_angle_gamma   90.00000000
_symmetry_Int_Tables_number   1
_chemical_formula_structural   CaMg6Mn
_chemical_formula_sum   'Ca2 Mg12 Mn2'
_cell_volume   379.06293267
_cell_formula_units_Z   2
loop_
 _symmetry_equiv_pos_site_id
 _symmetry_equiv_pos_as_xyz
  1  'x, y, z'
loop_
 _atom_site_type_symbol
 _atom_site_label
 _atom_site_symmetry_multiplicity
 _atom_site_fract_x
 _atom_site_fract_y
 _atom_site_fract_z
 _atom_site_occupancy
  Ca  Ca0  1  0.00000000  0.50000000  0.32932100  1
  Ca  Ca1  1  0.00000000  0.00000000  0.82932100  1
  Mg  Mg0  1  0.00000000  0.26184500  0.08346700  1
  Mg  Mg1  1  0.00000000  0.73815500  0.08346700  1
  Mg  Mg2  1  0.00000000  0.00000000  0.33606900  1
  Mg  Mg3  1  0.50000000  0.75863100  0.42253900  1
  Mg  Mg4  1  0.50000000  0.24136900  0.42253900  1
  Mg  Mg5  1  0.50000000  0.00000000  0.16628000  1
  Mg  Mg6  1  0.00000000  0.76184500  0.58346700  1
  Mg  Mg7  1  0.00000000  0.23815500  0.58346700  1
  Mg  Mg8  1  0.00000000  0.50000000  0.83606900  1
  Mg  Mg9  1  0.50000000  0.25863100  0.92253900  1
  Mg  Mg10  1  0.50000000  0.74136900  0.92253900  1
  Mg  Mg11  1  0.50000000  0.50000000  0.66628000  1
  Mn  Mn0  1  0.50000000  0.50000000  0.15631700  1
  Mn  Mn1  1  0.50000000  0.00000000  0.65631700  1
loop_
_geom_bond_atom_site_label_1
_geom_bond_atom_site_label_2
_geom_bond_distance
_geom_bond_site_symmetry_2
Ca0 Mg1 3.192443 1_555
Ca0 Mg0 3.192443 1_555
Ca0 Mn0 3.223543 1_555
Ca0 Mn0 3.223543 1_455
Ca0 Mg4 3.243066 1_455
Ca0 Mg4 3.243066 1_555
Ca0 Mg3 3.243066 1_455
Ca0 Mg3 3.243066 1_555
Ca0 Mg2 3.268359 1_555
Ca0 Mg2 3.268359 1_565
Ca0 Mg7 3.351189 1_555
Ca0 Mg6 3.351189 1_555
Ca1 Mg6 3.192443 1_545
Ca1 Mg7 3.192443 1_555
Ca1 Mn1 3.223543 1_455
Ca1 Mn1 3.223543 1_555
Ca1 Mg9 3.243066 1_555
Ca1 Mg9 3.243066 1_455
Ca1 Mg10 3.243066 1_445
Ca1 Mg10 3.243066 1_545
Ca1 Mg8 3.268359 1_555
Ca1 Mg8 3.268359 1_545
Ca1 Mg0 3.351189 1_556
Ca1 Mg1 3.351189 1_546
Mg0 Mn0 3.106169 1_455
Mg0 Mn0 3.106169 1_555
Mg0 Mg1 3.112651 1_555
Mg0 Mg9 3.142184 1_554
Mg0 Mg9 3.142184 1_454
Mg0 Mg8 3.207739 1_554
Mg0 Mg5 3.217682 1_455
Mg0 Mg5 3.217682 1_555
Mg0 Mg2 3.336150 1_555
Mg0 Mg1 3.422276 1_545
Mg1 Mn0 3.106169 1_455
Mg1 Mn0 3.106169 1_555
Mg1 Mg10 3.142184 1_454
Mg1 Mg10 3.142184 1_554
Mg1 Mg8 3.207739 1_554
Mg1 Mg5 3.217682 1_565
Mg1 Mg5 3.217682 1_465
Mg1 Mg2 3.336150 1_565
Mg2 Mg3 3.161175 1_545
Mg2 Mg3 3.161175 1_445
Mg2 Mg4 3.161175 1_455
Mg2 Mg4 3.161175 1_555
Mg2 Mg5 3.201494 1_455
Mg2 Mg5 3.201494 1_555
Mg2 Mg6 3.207739 1_545
Mg2 Mg7 3.207739 1_555
Mg3 Mn1 3.084315 1_565
Mg3 Mg6 3.142184 1_555
Mg3 Mg6 3.142184 1_655
Mg3 Mg4 3.154658 1_565
Mg3 Mg5 3.305915 1_565
Mg3 Mg4 3.380269 1_555
Mg3 Mn0 3.459303 1_555
Mg4 Mn1 3.084315 1_555
Mg4 Mg7 3.142184 1_555
Mg4 Mg7 3.142184 1_655
Mg4 Mg5 3.305915 1_555
Mg4 Mn0 3.459303 1_555
Mg5 Mg9 3.239309 1_554
Mg5 Mn0 3.269415 1_545
Mg5 Mn0 3.269415 1_555
Mg6 Mn1 3.106169 1_465
Mg6 Mn1 3.106169 1_565
Mg6 Mg7 3.112651 1_565
Mg6 Mg8 3.336150 1_555
Mg6 Mg7 3.422276 1_555
Mg7 Mn1 3.106169 1_555
Mg7 Mn1 3.106169 1_455
Mg7 Mg8 3.336150 1_555
Mg8 Mg9 3.161175 1_555
Mg8 Mg9 3.161175 1_455
Mg9 Mn0 3.084315 1_556
Mg9 Mn1 3.459303 1_555
Mg10 Mn0 3.084315 1_556
Mg10 Mg9 3.154658 1_555
Mg10 Mg8 3.161175 1_555
Mg10 Mg8 3.161175 1_655
Mg10 Mg5 3.239309 1_566
Mg10 Mg11 3.305915 1_555
Mg10 Mg9 3.380269 1_565
Mg10 Mn1 3.459303 1_565
Mg11 Mg8 3.201494 1_555
Mg11 Mg8 3.201494 1_655
Mg11 Mg7 3.217682 1_555
Mg11 Mg6 3.217682 1_655
Mg11 Mg7 3.217682 1_655
Mg11 Mg6 3.217682 1_555
Mg11 Mg4 3.239309 1_555
Mg11 Mg3 3.239309 1_555
Mg11 Mn1 3.269415 1_565
Mg11 Mn1 3.269415 1_555
Mg11 Mg9 3.305915 1_555
