# generated using pymatgen
data_W
_symmetry_space_group_name_H-M   'P 1'
_cell_length_a   5.33828200
_cell_length_b   5.33828200
_cell_length_c   19.69266431
_cell_angle_alpha   82.21016430
_cell_angle_beta   82.21016430
_cell_angle_gamma   90.00000000
_symmetry_Int_Tables_number   1
_chemical_formula_structural   W
_chemical_formula_sum   W32
_cell_volume   550.78080443
_cell_formula_units_Z   32
loop_
 _symmetry_equiv_pos_site_id
 _symmetry_equiv_pos_as_xyz
  1  'x, y, z'
loop_
 _atom_site_type_symbol
 _atom_site_label
 _atom_site_symmetry_multiplicity
 _atom_site_fract_x
 _atom_site_fract_y
 _atom_site_fract_z
 _atom_site_occupancy
  W  W0_0  1  0.21765250  0.34265250  0.06469500  1
  W  W0_1  1  0.21765250  0.34265250  0.56469500  1
  W  W0_2  1  0.21765250  0.84265250  0.06469500  1
  W  W0_3  1  0.21765250  0.84265250  0.56469500  1
  W  W0_4  1  0.71765250  0.34265250  0.06469500  1
  W  W0_5  1  0.71765250  0.34265250  0.56469500  1
  W  W0_6  1  0.71765250  0.84265250  0.06469500  1
  W  W0_7  1  0.71765250  0.84265250  0.56469500  1
  W  W1_0  1  0.09265250  0.46765250  0.31469500  1
  W  W1_1  1  0.09265250  0.46765250  0.81469500  1
  W  W1_2  1  0.09265250  0.96765250  0.31469500  1
  W  W1_3  1  0.09265250  0.96765250  0.81469500  1
  W  W1_4  1  0.59265250  0.46765250  0.31469500  1
  W  W1_5  1  0.59265250  0.46765250  0.81469500  1
  W  W1_6  1  0.59265250  0.96765250  0.31469500  1
  W  W1_7  1  0.59265250  0.96765250  0.81469500  1
  W  W2_0  1  0.28234750  0.15734750  0.43530500  1
  W  W2_1  1  0.28234750  0.15734750  0.93530500  1
  W  W2_2  1  0.28234750  0.65734750  0.43530500  1
  W  W2_3  1  0.28234750  0.65734750  0.93530500  1
  W  W2_4  1  0.78234750  0.15734750  0.43530500  1
  W  W2_5  1  0.78234750  0.15734750  0.93530500  1
  W  W2_6  1  0.78234750  0.65734750  0.43530500  1
  W  W2_7  1  0.78234750  0.65734750  0.93530500  1
  W  W3_0  1  0.40734750  0.03234750  0.18530500  1
  W  W3_1  1  0.40734750  0.03234750  0.68530500  1
  W  W3_2  1  0.40734750  0.53234750  0.18530500  1
  W  W3_3  1  0.40734750  0.53234750  0.68530500  1
  W  W3_4  1  0.90734750  0.03234750  0.18530500  1
  W  W3_5  1  0.90734750  0.03234750  0.68530500  1
  W  W3_6  1  0.90734750  0.53234750  0.18530500  1
  W  W3_7  1  0.90734750  0.53234750  0.68530500  1
loop_
_geom_bond_atom_site_label_1
_geom_bond_atom_site_label_2
_geom_bond_distance
_geom_bond_site_symmetry_2
W0_0 W0_2 2.669141 1_545
W0_0 W0_4 2.669141 1_555
W0_0 W0_2 2.669141 1_555
W0_0 W0_4 2.669141 1_455
W0_0 W2_1 2.834609 1_554
W0_0 W2_3 2.834609 1_554
W0_0 W3_2 2.999356 1_555
W0_0 W3_0 2.999356 1_555
W0_0 W3_6 2.999356 1_455
W0_0 W3_4 2.999356 1_455
W0_1 W0_5 2.669141 1_555
W0_1 W0_3 2.669141 1_545
W0_1 W0_3 2.669141 1_555
W0_1 W0_5 2.669141 1_455
W0_1 W2_0 2.834609 1_555
W0_1 W2_2 2.834609 1_555
W0_1 W3_3 2.999356 1_555
W0_1 W3_1 2.999356 1_555
W0_1 W3_7 2.999356 1_455
W0_1 W3_5 2.999356 1_455
W0_2 W0_6 2.669141 1_455
W0_2 W0_6 2.669141 1_555
W0_2 W2_3 2.834609 1_554
W0_2 W2_1 2.834609 1_564
W0_2 W3_0 2.999356 1_565
W0_2 W3_2 2.999356 1_555
W0_2 W3_4 2.999356 1_465
W0_2 W3_6 2.999356 1_455
W0_3 W0_7 2.669141 1_455
W0_3 W0_7 2.669141 1_555
W0_3 W2_2 2.834609 1_555
W0_3 W2_0 2.834609 1_565
W0_3 W3_1 2.999356 1_565
W0_3 W3_3 2.999356 1_555
W0_3 W3_5 2.999356 1_465
W0_3 W3_7 2.999356 1_455
W0_4 W0_6 2.669141 1_545
W0_4 W0_6 2.669141 1_555
W0_4 W2_5 2.834609 1_554
W0_4 W2_7 2.834609 1_554
W0_4 W3_6 2.999356 1_555
W0_4 W3_4 2.999356 1_555
W0_4 W3_2 2.999356 1_555
W0_4 W3_0 2.999356 1_555
W0_5 W0_7 2.669141 1_545
W0_5 W0_7 2.669141 1_555
W0_5 W2_4 2.834609 1_555
W0_5 W2_6 2.834609 1_555
W0_5 W3_7 2.999356 1_555
W0_5 W3_5 2.999356 1_555
W0_5 W3_3 2.999356 1_555
W0_5 W3_1 2.999356 1_555
W0_6 W2_7 2.834609 1_554
W0_6 W2_5 2.834609 1_564
W0_6 W3_4 2.999356 1_565
W0_6 W3_6 2.999356 1_555
W0_6 W3_0 2.999356 1_565
W0_6 W3_2 2.999356 1_555
W0_7 W2_6 2.834609 1_555
W0_7 W2_4 2.834609 1_565
W0_7 W3_5 2.999356 1_565
W0_7 W3_7 2.999356 1_555
W0_7 W3_1 2.999356 1_565
W0_7 W3_3 2.999356 1_555
W1_0 W1_4 2.669141 1_455
W1_0 W1_2 2.669141 1_555
W1_0 W1_2 2.669141 1_545
W1_0 W1_4 2.669141 1_555
W1_0 W3_6 2.834609 1_455
W1_0 W3_2 2.834609 1_555
W1_0 W2_2 2.999356 1_555
W1_0 W2_0 2.999356 1_555
W1_0 W2_6 2.999356 1_455
W1_0 W2_4 2.999356 1_455
W1_1 W1_5 2.669141 1_455
W1_1 W1_5 2.669141 1_555
W1_1 W1_3 2.669141 1_545
W1_1 W1_3 2.669141 1_555
W1_1 W3_7 2.834609 1_455
W1_1 W3_3 2.834609 1_555
W1_1 W2_3 2.999356 1_555
W1_1 W2_1 2.999356 1_555
W1_1 W2_7 2.999356 1_455
W1_1 W2_5 2.999356 1_455
W1_2 W1_6 2.669141 1_455
W1_2 W1_6 2.669141 1_555
W1_2 W3_4 2.834609 1_465
W1_2 W3_0 2.834609 1_565
W1_2 W2_0 2.999356 1_565
W1_2 W2_2 2.999356 1_555
W1_2 W2_4 2.999356 1_465
W1_2 W2_6 2.999356 1_455
W1_3 W1_7 2.669141 1_455
W1_3 W1_7 2.669141 1_555
W1_3 W3_5 2.834609 1_465
W1_3 W3_1 2.834609 1_565
W1_3 W2_1 2.999356 1_565
W1_3 W2_3 2.999356 1_555
W1_3 W2_5 2.999356 1_465
W1_3 W2_7 2.999356 1_455
W1_4 W1_6 2.669141 1_555
W1_4 W1_6 2.669141 1_545
W1_4 W3_2 2.834609 1_555
W1_4 W3_6 2.834609 1_555
W1_4 W2_6 2.999356 1_555
W1_4 W2_4 2.999356 1_555
W1_4 W2_2 2.999356 1_555
W1_4 W2_0 2.999356 1_555
W1_5 W1_7 2.669141 1_545
W1_5 W1_7 2.669141 1_555
W1_5 W3_3 2.834609 1_555
W1_5 W3_7 2.834609 1_555
W1_5 W2_7 2.999356 1_555
W1_5 W2_5 2.999356 1_555
W1_5 W2_3 2.999356 1_555
W1_5 W2_1 2.999356 1_555
W1_6 W3_0 2.834609 1_565
W1_6 W3_4 2.834609 1_565
W1_6 W2_4 2.999356 1_565
W1_6 W2_6 2.999356 1_555
W1_6 W2_0 2.999356 1_565
W1_6 W2_2 2.999356 1_555
W1_7 W3_1 2.834609 1_565
W1_7 W3_5 2.834609 1_565
W1_7 W2_5 2.999356 1_565
W1_7 W2_7 2.999356 1_555
W1_7 W2_1 2.999356 1_565
W1_7 W2_3 2.999356 1_555
W2_0 W2_4 2.669141 1_455
W2_0 W2_2 2.669141 1_545
W2_0 W2_2 2.669141 1_555
W2_0 W2_4 2.669141 1_555
W2_1 W2_3 2.669141 1_545
W2_1 W2_5 2.669141 1_555
W2_1 W2_5 2.669141 1_455
W2_1 W2_3 2.669141 1_555
W2_2 W2_6 2.669141 1_455
W2_2 W2_6 2.669141 1_555
W2_3 W2_7 2.669141 1_455
W2_3 W2_7 2.669141 1_555
W2_4 W2_6 2.669141 1_545
W2_4 W2_6 2.669141 1_555
W2_5 W2_7 2.669141 1_545
W2_5 W2_7 2.669141 1_555
W3_0 W3_2 2.669141 1_545
W3_0 W3_4 2.669141 1_455
W3_0 W3_4 2.669141 1_555
W3_0 W3_2 2.669141 1_555
W3_1 W3_3 2.669141 1_545
W3_1 W3_5 2.669141 1_455
W3_1 W3_5 2.669141 1_555
W3_1 W3_3 2.669141 1_555
W3_2 W3_6 2.669141 1_455
W3_2 W3_6 2.669141 1_555
W3_3 W3_7 2.669141 1_455
W3_3 W3_7 2.669141 1_555
W3_4 W3_6 2.669141 1_545
W3_4 W3_6 2.669141 1_555
W3_5 W3_7 2.669141 1_545
W3_5 W3_7 2.669141 1_555
