# generated using pymatgen
data_CsTm(NbBr3)6
_symmetry_space_group_name_H-M   'P 1'
_cell_length_a   9.89430930
_cell_length_b   9.89430930
_cell_length_c   18.47373800
_cell_angle_alpha   90.00000000
_cell_angle_beta   90.00000000
_cell_angle_gamma   119.99999529
_symmetry_Int_Tables_number   1
_chemical_formula_structural   CsTm(NbBr3)6
_chemical_formula_sum   'Cs2 Tm2 Nb12 Br36'
_cell_volume   1566.23309640
_cell_formula_units_Z   2
loop_
 _symmetry_equiv_pos_site_id
 _symmetry_equiv_pos_as_xyz
  1  'x, y, z'
loop_
 _atom_site_type_symbol
 _atom_site_label
 _atom_site_symmetry_multiplicity
 _atom_site_fract_x
 _atom_site_fract_y
 _atom_site_fract_z
 _atom_site_occupancy
  Cs  Cs0  1  0.33333300  0.66666700  0.75000000  1
  Cs  Cs1  1  0.66666700  0.33333300  0.25000000  1
  Tm  Tm0  1  0.66666700  0.33333300  0.75000000  1
  Tm  Tm1  1  0.33333300  0.66666700  0.25000000  1
  Nb  Nb0  1  0.84972800  0.03921700  0.56539100  1
  Nb  Nb1  1  0.15027200  0.96078300  0.43460900  1
  Nb  Nb2  1  0.96078300  0.81051100  0.56539100  1
  Nb  Nb3  1  0.84972800  0.81051100  0.93460900  1
  Nb  Nb4  1  0.03921700  0.18948900  0.43460900  1
  Nb  Nb5  1  0.15027200  0.18948900  0.06539100  1
  Nb  Nb6  1  0.18948900  0.15027200  0.56539100  1
  Nb  Nb7  1  0.96078300  0.15027200  0.93460900  1
  Nb  Nb8  1  0.81051100  0.84972800  0.43460900  1
  Nb  Nb9  1  0.03921700  0.84972800  0.06539100  1
  Nb  Nb10  1  0.18948900  0.03921700  0.93460900  1
  Nb  Nb11  1  0.81051100  0.96078300  0.06539100  1
  Br  Br0  1  0.63622100  0.08743600  0.66223800  1
  Br  Br1  1  0.36377900  0.91256400  0.33776200  1
  Br  Br2  1  0.91256400  0.54878500  0.66223800  1
  Br  Br3  1  0.63622100  0.54878500  0.83776200  1
  Br  Br4  1  0.08743600  0.45121500  0.33776200  1
  Br  Br5  1  0.36377900  0.45121500  0.16223800  1
  Br  Br6  1  0.45121500  0.36377900  0.66223800  1
  Br  Br7  1  0.91256400  0.36377900  0.83776200  1
  Br  Br8  1  0.54878500  0.63622100  0.33776200  1
  Br  Br9  1  0.08743600  0.63622100  0.16223800  1
  Br  Br10  1  0.45121500  0.08743600  0.83776200  1
  Br  Br11  1  0.54878500  0.91256400  0.16223800  1
  Br  Br12  1  0.04700500  0.23354000  0.66014600  1
  Br  Br13  1  0.95299500  0.76646000  0.33985400  1
  Br  Br14  1  0.76646000  0.81346500  0.66014600  1
  Br  Br15  1  0.04700500  0.81346500  0.83985400  1
  Br  Br16  1  0.23354000  0.18653500  0.33985400  1
  Br  Br17  1  0.95299500  0.18653500  0.16014600  1
  Br  Br18  1  0.18653500  0.95299500  0.66014600  1
  Br  Br19  1  0.76646000  0.95299500  0.83985400  1
  Br  Br20  1  0.81346500  0.04700500  0.33985400  1
  Br  Br21  1  0.23354000  0.04700500  0.16014600  1
  Br  Br22  1  0.18653500  0.23354000  0.83985400  1
  Br  Br23  1  0.81346500  0.76646000  0.16014600  1
  Br  Br24  1  0.27795300  0.41804900  0.50125000  1
  Br  Br25  1  0.72204700  0.58195100  0.49875000  1
  Br  Br26  1  0.58195100  0.85990400  0.50125000  1
  Br  Br27  1  0.27795300  0.85990400  0.99875000  1
  Br  Br28  1  0.41804900  0.14009600  0.49875000  1
  Br  Br29  1  0.72204700  0.14009600  0.00125000  1
  Br  Br30  1  0.14009600  0.72204700  0.50125000  1
  Br  Br31  1  0.58195100  0.72204700  0.99875000  1
  Br  Br32  1  0.85990400  0.27795300  0.49875000  1
  Br  Br33  1  0.41804900  0.27795300  0.00125000  1
  Br  Br34  1  0.14009600  0.41804900  0.99875000  1
  Br  Br35  1  0.85990400  0.58195100  0.00125000  1
loop_
_geom_bond_atom_site_label_1
_geom_bond_atom_site_label_2
_geom_bond_distance
_geom_bond_site_symmetry_2
Br0 Tm0 2.811728 1_555
Br0 Nb0 2.983141 1_555
Br0 Cs0 4.057780 1_545
Br1 Tm1 2.811728 1_555
Br1 Nb1 2.983141 1_555
Br1 Cs1 4.057780 1_565
Br2 Tm0 2.811732 1_555
Br2 Nb2 2.983141 1_555
Br2 Cs0 4.057778 1_655
Br3 Tm0 2.811736 1_555
Br3 Nb3 2.983141 1_555
Br3 Cs0 4.057786 1_555
Br4 Tm1 2.811732 1_555
Br4 Nb4 2.983141 1_555
Br4 Cs1 4.057778 1_455
Br5 Tm1 2.811736 1_555
Br5 Nb5 2.983141 1_555
Br5 Cs1 4.057786 1_555
Br6 Tm0 2.811736 1_555
Br6 Nb6 2.983141 1_555
Br6 Cs0 4.057786 1_555
Br7 Tm0 2.811728 1_555
Br7 Nb7 2.983141 1_555
Br7 Cs0 4.057780 1_655
Br8 Tm1 2.811736 1_555
Br8 Nb8 2.983141 1_555
Br8 Cs1 4.057786 1_555
Br9 Tm1 2.811728 1_555
Br9 Nb9 2.983141 1_555
Br9 Cs1 4.057780 1_455
Br10 Tm0 2.811732 1_555
Br10 Nb10 2.983141 1_555
Br10 Cs0 4.057778 1_545
Br11 Tm1 2.811732 1_555
Br11 Nb11 2.983141 1_555
Br11 Cs1 4.057778 1_565
Br12 Nb0 2.611125 1_455
Br12 Nb6 2.625248 1_555
Br12 Cs0 4.123828 1_555
Br13 Nb1 2.611125 1_655
Br13 Nb8 2.625248 1_555
Br13 Cs1 4.123828 1_555
Br14 Nb2 2.611125 1_555
Br14 Nb0 2.625248 1_565
Br14 Cs0 4.123830 1_555
Br15 Nb3 2.611125 1_455
Br15 Nb10 2.625248 1_565
Br15 Cs0 4.123821 1_555
Br16 Nb4 2.611125 1_555
Br16 Nb1 2.625248 1_545
Br16 Cs1 4.123830 1_555
Br17 Nb5 2.611125 1_655
Br17 Nb11 2.625248 1_545
Br17 Cs1 4.123821 1_555
Br18 Nb6 2.611125 1_565
Br18 Nb2 2.625248 1_455
Br18 Cs0 4.123821 1_555
Br19 Nb7 2.611125 1_565
Br19 Nb3 2.625248 1_555
Br19 Cs0 4.123828 1_555
Br20 Nb8 2.611125 1_545
Br20 Nb4 2.625248 1_655
Br20 Cs1 4.123821 1_555
Br21 Nb9 2.611125 1_545
Br21 Nb5 2.625248 1_555
Br21 Cs1 4.123828 1_555
Br22 Nb10 2.611125 1_555
Br22 Nb7 2.625248 1_455
Br22 Cs0 4.123830 1_555
Br23 Nb11 2.611125 1_555
Br23 Nb9 2.625248 1_655
Br23 Cs1 4.123830 1_555
Br24 Nb4 2.620608 1_555
Br24 Nb6 2.621223 1_555
Br25 Nb2 2.620608 1_555
Br25 Nb8 2.621223 1_555
Br26 Nb8 2.620607 1_555
Br26 Nb0 2.621223 1_565
Br27 Nb9 2.620607 1_556
Br27 Nb10 2.621222 1_565
Br28 Nb6 2.620607 1_555
Br28 Nb1 2.621223 1_545
Br29 Nb7 2.620607 1_554
Br29 Nb11 2.621222 1_545
Br30 Nb1 2.620607 1_555
Br30 Nb2 2.621222 1_455
Br31 Nb11 2.620608 1_556
Br31 Nb3 2.621223 1_555
Br32 Nb0 2.620607 1_555
Br32 Nb4 2.621222 1_655
Br33 Nb10 2.620608 1_554
Br33 Nb5 2.621223 1_555
Br34 Nb5 2.620607 1_556
Br34 Nb7 2.621223 1_455
Br35 Nb3 2.620607 1_554
Br35 Nb9 2.621223 1_655
