# generated using pymatgen
data_RbMg14WO16
_symmetry_space_group_name_H-M   'P 1'
_cell_length_a   8.67497851
_cell_length_b   8.86358028
_cell_length_c   4.45738396
_cell_angle_alpha   90.00000000
_cell_angle_beta   90.00000000
_cell_angle_gamma   90.00000000
_symmetry_Int_Tables_number   1
_chemical_formula_structural   RbMg14WO16
_chemical_formula_sum   'Rb1 Mg14 W1 O16'
_cell_volume   342.73435239
_cell_formula_units_Z   1
loop_
 _symmetry_equiv_pos_site_id
 _symmetry_equiv_pos_as_xyz
  1  'x, y, z'
loop_
 _atom_site_type_symbol
 _atom_site_label
 _atom_site_symmetry_multiplicity
 _atom_site_fract_x
 _atom_site_fract_y
 _atom_site_fract_z
 _atom_site_occupancy
  Rb  Rb0  1  0.00000000  0.00000000  0.00000000  1
  Mg  Mg0  1  0.50000000  0.00000000  0.00000000  1
  Mg  Mg1  1  0.50000000  0.50000000  0.00000000  1
  Mg  Mg2  1  0.00000000  0.24054004  0.50000000  1
  Mg  Mg3  1  0.00000000  0.75945996  0.50000000  1
  Mg  Mg4  1  0.50000000  0.24866644  0.50000000  1
  Mg  Mg5  1  0.50000000  0.75133356  0.50000000  1
  Mg  Mg6  1  0.25536559  0.00000000  0.50000000  1
  Mg  Mg7  1  0.25676400  0.50000000  0.50000000  1
  Mg  Mg8  1  0.74463441  0.00000000  0.50000000  1
  Mg  Mg9  1  0.74323600  0.50000000  0.50000000  1
  Mg  Mg10  1  0.25689104  0.24496470  0.00000000  1
  Mg  Mg11  1  0.25689104  0.75503530  0.00000000  1
  Mg  Mg12  1  0.74310896  0.24496470  0.00000000  1
  Mg  Mg13  1  0.74310896  0.75503530  0.00000000  1
  W  W0  1  0.00000000  0.50000000  0.00000000  1
  O  O0  1  0.28134046  0.00000000  0.00000000  1
  O  O1  1  0.25440934  0.50000000  0.00000000  1
  O  O2  1  0.71865954  0.00000000  0.00000000  1
  O  O3  1  0.74559066  0.50000000  0.00000000  1
  O  O4  1  0.24975720  0.25202546  0.50000000  1
  O  O5  1  0.24975720  0.74797454  0.50000000  1
  O  O6  1  0.75024280  0.25202546  0.50000000  1
  O  O7  1  0.75024280  0.74797454  0.50000000  1
  O  O8  1  0.00000000  0.00000000  0.50000000  1
  O  O9  1  0.00000000  0.50000000  0.50000000  1
  O  O10  1  0.50000000  0.00000000  0.50000000  1
  O  O11  1  0.50000000  0.50000000  0.50000000  1
  O  O12  1  0.00000000  0.26842539  0.00000000  1
  O  O13  1  0.00000000  0.73157461  0.00000000  1
  O  O14  1  0.50000000  0.25991299  0.00000000  1
  O  O15  1  0.50000000  0.74008701  0.00000000  1
loop_
_geom_bond_atom_site_label_1
_geom_bond_atom_site_label_2
_geom_bond_distance
_geom_bond_site_symmetry_2
Mg0 O2 1.896867 1_555
Mg0 O0 1.896867 1_555
Mg0 O10 2.228692 1_555
Mg0 O10 2.228692 1_554
Mg0 O14 2.303760 1_555
Mg0 O15 2.303760 1_545
Mg1 O14 2.128030 1_555
Mg1 O15 2.128030 1_555
Mg1 O3 2.130494 1_555
Mg1 O1 2.130494 1_555
Mg1 O11 2.228692 1_554
Mg1 O11 2.228692 1_555
Mg2 O8 2.132046 1_555
Mg2 O4 2.169029 1_555
Mg2 O6 2.169029 1_455
Mg2 O12 2.242355 1_555
Mg2 O12 2.242355 1_556
Mg2 O9 2.299744 1_555
Mg3 O8 2.132046 1_565
Mg3 O5 2.169029 1_555
Mg3 O7 2.169029 1_455
Mg3 O13 2.242355 1_555
Mg3 O13 2.242355 1_556
Mg3 O9 2.299744 1_555
Mg4 O6 2.171055 1_555
Mg4 O4 2.171055 1_555
Mg4 O10 2.204075 1_555
Mg4 O11 2.227715 1_555
Mg4 O14 2.230920 1_556
Mg4 O14 2.230920 1_555
Mg5 O7 2.171055 1_555
Mg5 O5 2.171055 1_555
Mg5 O10 2.204075 1_565
Mg5 O11 2.227715 1_555
Mg5 O15 2.230920 1_556
Mg5 O15 2.230920 1_555
Mg6 O10 2.122198 1_555
Mg6 O8 2.215291 1_555
Mg6 O4 2.234378 1_555
Mg6 O5 2.234378 1_545
Mg6 O0 2.240054 1_555
Mg6 O0 2.240054 1_556
Mg7 O11 2.110067 1_555
Mg7 O5 2.198783 1_555
Mg7 O4 2.198783 1_555
Mg7 O9 2.227422 1_555
Mg7 O1 2.228786 1_556
Mg7 O1 2.228786 1_555
Mg8 O10 2.122198 1_555
Mg8 O8 2.215291 1_655
Mg8 O6 2.234378 1_555
Mg8 O7 2.234378 1_545
Mg8 O2 2.240054 1_556
Mg8 O2 2.240054 1_555
Mg9 O11 2.110067 1_555
Mg9 O7 2.198783 1_555
Mg9 O6 2.198783 1_555
Mg9 O9 2.227422 1_655
Mg9 O3 2.228786 1_556
Mg9 O3 2.228786 1_555
Mg10 O14 2.113123 1_555
Mg10 O0 2.181599 1_555
Mg10 O4 2.230429 1_554
Mg10 O4 2.230429 1_555
Mg10 O12 2.238205 1_555
Mg10 O1 2.260628 1_555
Mg11 O15 2.113123 1_555
Mg11 O0 2.181599 1_565
Mg11 O5 2.230429 1_555
Mg11 O5 2.230429 1_554
Mg11 O13 2.238205 1_555
Mg11 O1 2.260628 1_555
Mg12 O14 2.113123 1_555
Mg12 O2 2.181599 1_555
Mg12 O6 2.230429 1_555
Mg12 O6 2.230429 1_554
Mg12 O12 2.238205 1_655
Mg12 O3 2.260628 1_555
Mg13 O15 2.113123 1_555
Mg13 O2 2.181599 1_565
Mg13 O7 2.230429 1_554
Mg13 O7 2.230429 1_555
Mg13 O13 2.238205 1_655
Mg13 O3 2.260628 1_555
O0 Rb0 2.440622 1_555
O1 W0 2.206996 1_555
O2 Rb0 2.440622 1_655
O3 W0 2.206996 1_655
O8 Rb0 2.228692 1_555
O8 Rb0 2.228692 1_556
O9 W0 2.228692 1_556
O9 W0 2.228692 1_555
O12 W0 2.052580 1_555
O12 Rb0 2.379210 1_555
O13 W0 2.052580 1_555
O13 Rb0 2.379210 1_565
