# generated using pymatgen
data_Ba2YCo3O7
_symmetry_space_group_name_H-M   'P 1'
_cell_length_a   3.89980400
_cell_length_b   3.99051400
_cell_length_c   11.59648000
_cell_angle_alpha   90.00000000
_cell_angle_beta   90.00000000
_cell_angle_gamma   90.00000000
_symmetry_Int_Tables_number   1
_chemical_formula_structural   Ba2YCo3O7
_chemical_formula_sum   'Ba2 Y1 Co3 O7'
_cell_volume   180.46700150
_cell_formula_units_Z   1
loop_
 _symmetry_equiv_pos_site_id
 _symmetry_equiv_pos_as_xyz
  1  'x, y, z'
loop_
 _atom_site_type_symbol
 _atom_site_label
 _atom_site_symmetry_multiplicity
 _atom_site_fract_x
 _atom_site_fract_y
 _atom_site_fract_z
 _atom_site_occupancy
  Ba  Ba0  1  0.50000000  0.50000000  0.82098200  1
  Ba  Ba1  1  0.50000000  0.50000000  0.17901800  1
  Y  Y0  1  0.50000000  0.50000000  0.50000000  1
  Co  Co0  1  0.00000000  0.00000000  0.65354100  1
  Co  Co1  1  0.00000000  0.00000000  0.34645900  1
  Co  Co2  1  0.00000000  0.00000000  0.00000000  1
  O  O0  1  0.00000000  0.50000000  0.00000000  1
  O  O1  1  0.50000000  0.00000000  0.62338100  1
  O  O2  1  0.50000000  0.00000000  0.37661900  1
  O  O3  1  0.00000000  0.50000000  0.62357900  1
  O  O4  1  0.00000000  0.50000000  0.37642100  1
  O  O5  1  0.00000000  0.00000000  0.84171100  1
  O  O6  1  0.00000000  0.00000000  0.15828900  1
loop_
_geom_bond_atom_site_label_1
_geom_bond_atom_site_label_2
_geom_bond_distance
_geom_bond_site_symmetry_2
Ba0 O5 2.800170 1_655
Ba0 O5 2.800170 1_565
Ba0 O5 2.800170 1_665
Ba0 O5 2.800170 1_555
Ba0 O0 2.848123 1_656
Ba0 O0 2.848123 1_556
Ba0 O3 3.007069 1_555
Ba0 O3 3.007069 1_655
Ba0 O1 3.038406 1_555
Ba0 O1 3.038406 1_565
Ba1 O6 2.800170 1_665
Ba1 O6 2.800170 1_555
Ba1 O6 2.800170 1_565
Ba1 O6 2.800170 1_655
Ba1 O0 2.848123 1_555
Ba1 O0 2.848123 1_655
Ba1 O4 3.007069 1_555
Ba1 O4 3.007069 1_655
Ba1 O2 3.038406 1_565
Ba1 O2 3.038406 1_555
Co0 O1 1.981021 1_455
Co0 O1 1.981021 1_555
Co0 O3 2.025284 1_545
Co0 O3 2.025284 1_555
Co0 O5 2.182110 1_555
Co1 O2 1.981021 1_455
Co1 O2 1.981021 1_555
Co1 O4 2.025284 1_555
Co1 O4 2.025284 1_545
Co1 O6 2.182110 1_555
Co2 O5 1.835595 1_554
Co2 O6 1.835595 1_555
Co2 O0 1.995257 1_545
Co2 O0 1.995257 1_555
O1 Y0 2.455239 1_555
O1 Y0 2.455239 1_545
O2 Y0 2.455239 1_545
O2 Y0 2.455239 1_555
O3 Y0 2.419884 1_455
O3 Y0 2.419884 1_555
O4 Y0 2.419884 1_455
O4 Y0 2.419884 1_555
