# generated using pymatgen
data_CeB4(IrOs)2
_symmetry_space_group_name_H-M   'P 1'
_cell_length_a   7.62374700
_cell_length_b   7.62374700
_cell_length_c   4.01006300
_cell_angle_alpha   90.00000000
_cell_angle_beta   90.00000000
_cell_angle_gamma   90.00000000
_symmetry_Int_Tables_number   1
_chemical_formula_structural   CeB4(IrOs)2
_chemical_formula_sum   'Ce2 B8 Ir4 Os4'
_cell_volume   233.07095012
_cell_formula_units_Z   2
loop_
 _symmetry_equiv_pos_site_id
 _symmetry_equiv_pos_as_xyz
  1  'x, y, z'
loop_
 _atom_site_type_symbol
 _atom_site_label
 _atom_site_symmetry_multiplicity
 _atom_site_fract_x
 _atom_site_fract_y
 _atom_site_fract_z
 _atom_site_occupancy
  Ce  Ce0  1  0.00000000  0.50000000  0.24563500  1
  Ce  Ce1  1  0.50000000  0.00000000  0.74563500  1
  B  B0  1  0.78397700  0.16064800  0.36403600  1
  B  B1  1  0.21602300  0.83935200  0.36403600  1
  B  B2  1  0.83935200  0.78397700  0.86403600  1
  B  B3  1  0.16064800  0.21602300  0.86403600  1
  B  B4  1  0.72164800  0.33791700  0.64079100  1
  B  B5  1  0.27835200  0.66208300  0.64079100  1
  B  B6  1  0.66208300  0.72164800  0.14079100  1
  B  B7  1  0.33791700  0.27835200  0.14079100  1
  Ir  Ir0  1  0.39013400  0.65840800  0.13738300  1
  Ir  Ir1  1  0.60986600  0.34159200  0.13738300  1
  Ir  Ir2  1  0.34159200  0.39013400  0.63738300  1
  Ir  Ir3  1  0.65840800  0.60986600  0.63738300  1
  Os  Os0  1  0.10964300  0.85427700  0.85997300  1
  Os  Os1  1  0.89035700  0.14572300  0.85997300  1
  Os  Os2  1  0.14572300  0.10964300  0.35997300  1
  Os  Os3  1  0.85427700  0.89035700  0.35997300  1
loop_
_geom_bond_atom_site_label_1
_geom_bond_atom_site_label_2
_geom_bond_distance
_geom_bond_site_symmetry_2
B0 B4 1.812151 1_555
B0 Ir1 2.119189 1_555
B0 Os3 2.129250 1_545
B0 Os1 2.150761 1_555
B0 Os1 2.180927 1_554
B0 Ce1 2.920394 1_555
B1 B5 1.812151 1_555
B1 Ir0 2.119189 1_555
B1 Os2 2.129250 1_565
B1 Os0 2.150761 1_555
B1 Os0 2.180927 1_554
B1 Ce1 2.920394 1_565
B2 B6 1.812151 1_556
B2 Ir3 2.119189 1_555
B2 Os0 2.129250 1_655
B2 Os3 2.150761 1_556
B2 Os3 2.180927 1_555
B2 Ce0 2.920394 1_656
B3 B7 1.812151 1_556
B3 Ir2 2.119189 1_555
B3 Os1 2.129250 1_455
B3 Os2 2.150761 1_556
B3 Os2 2.180927 1_555
B3 Ce0 2.920394 1_556
B4 Ir3 2.128634 1_555
B4 Os1 2.138632 1_555
B4 Ir1 2.166232 1_556
B4 Ir1 2.191385 1_555
B4 Ce0 2.922518 1_655
B5 Ir2 2.128634 1_555
B5 Os0 2.138632 1_555
B5 Ir0 2.166232 1_556
B5 Ir0 2.191385 1_555
B5 Ce0 2.922518 1_555
B6 Ir0 2.128634 1_555
B6 Os3 2.138632 1_555
B6 Ir3 2.166232 1_555
B6 Ir3 2.191385 1_554
B6 Ce1 2.922518 1_564
B7 Ir1 2.128634 1_555
B7 Os2 2.138632 1_555
B7 Ir2 2.166232 1_555
B7 Ir2 2.191385 1_554
B7 Ce1 2.922518 1_554
