# generated using pymatgen
data_MgV8(OF)8
_symmetry_space_group_name_H-M   'P 1'
_cell_length_a   5.08196327
_cell_length_b   10.79044385
_cell_length_c   5.65554921
_cell_angle_alpha   79.86438959
_cell_angle_beta   94.74648874
_cell_angle_gamma   91.59814469
_symmetry_Int_Tables_number   1
_chemical_formula_structural   MgV8(OF)8
_chemical_formula_sum   'Mg1 V8 O8 F8'
_cell_volume   304.21635006
_cell_formula_units_Z   1
loop_
 _symmetry_equiv_pos_site_id
 _symmetry_equiv_pos_as_xyz
  1  'x, y, z'
loop_
 _atom_site_type_symbol
 _atom_site_label
 _atom_site_symmetry_multiplicity
 _atom_site_fract_x
 _atom_site_fract_y
 _atom_site_fract_z
 _atom_site_occupancy
  Mg  Mg0  1  0.24482580  0.04599646  0.84989829  1
  V  V0  1  0.53567740  0.28583087  0.71588892  1
  V  V1  1  0.53200339  0.97536025  0.49137929  1
  V  V2  1  0.53807782  0.73264556  0.21374837  1
  V  V3  1  0.49925974  0.51598916  0.97821068  1
  V  V4  1  0.97502193  0.24947232  0.26504822  1
  V  V5  1  0.02915364  0.75419730  0.72078159  1
  V  V6  1  0.01327882  0.49635338  0.48545367  1
  V  V7  1  0.97433160  0.97450364  0.27152094  1
  O  O0  1  0.83601768  0.33839147  0.50598964  1
  O  O1  1  0.72101147  0.10429312  0.30818066  1
  O  O2  1  0.73352589  0.82602685  0.46093703  1
  O  O3  1  0.71771219  0.57794041  0.24570310  1
  O  O4  1  0.32428523  0.44431393  0.71698862  1
  O  O5  1  0.31338708  0.68529033  0.94487260  1
  O  O6  1  0.18378719  0.92898092  0.61615019  1
  O  O7  1  0.13709161  0.14075082  0.07875409  1
  F  F0  1  0.81868565  0.58340569  0.74882933  1
  F  F1  1  0.82372646  0.81918517  0.97800457  1
  F  F2  1  0.62714018  0.06270407  0.79168060  1
  F  F3  1  0.72651429  0.35031737  0.01181611  1
  F  F4  1  0.33565510  0.90870325  0.15487266  1
  F  F5  1  0.24731452  0.18051594  0.54485099  1
  F  F6  1  0.20857480  0.67965218  0.44540192  1
  F  F7  1  0.22338451  0.42667953  0.21694291  1
loop_
_geom_bond_atom_site_label_1
_geom_bond_atom_site_label_2
_geom_bond_distance
_geom_bond_site_symmetry_2
Mg0 O7 1.906471 1_556
Mg0 O6 1.983908 1_545
O0 V6 1.895320 1_655
O0 V4 1.983361 1_555
O0 V0 2.018692 1_555
O1 V1 1.874697 1_545
O1 V7 1.977014 1_545
O1 V4 1.996183 1_555
O2 V1 1.973292 1_555
O2 V2 2.041177 1_555
O2 V5 2.077535 1_655
O2 V7 2.171530 1_555
O3 V2 1.898485 1_555
O3 V3 2.001136 1_554
O3 V6 2.046047 1_655
O4 V3 1.928163 1_555
O4 V6 1.994053 1_555
O4 V0 2.045948 1_555
O5 V5 1.915934 1_555
O5 V2 1.957266 1_556
O5 V3 2.051997 1_555
O6 V1 1.978111 1_555
O6 V5 2.031299 1_555
O6 V7 2.126511 1_455
O7 V4 1.948656 1_455
O7 V7 2.113968 1_445
F0 V5 2.093029 1_655
F0 V3 2.190378 1_555
F0 V6 2.206139 1_655
F1 V5 2.085451 1_655
F1 V2 2.136207 1_556
F1 V7 2.616786 1_556
F2 Mg0 1.995304 1_555
F2 V1 2.099652 1_545
F2 V0 2.421306 1_555
F3 V4 2.014685 1_555
F3 V0 2.080724 1_554
F3 V3 2.127190 1_554
F4 Mg0 2.095176 1_564
F4 V2 2.146579 1_555
F4 V7 2.179254 1_455
F4 V1 2.293987 1_555
F5 Mg0 2.050526 1_555
F5 V4 2.062336 1_455
F5 V0 2.105715 1_555
F6 V5 2.149611 1_555
F6 V6 2.172178 1_555
F6 V2 2.212109 1_555
F7 V3 2.120652 1_554
F7 V6 2.174011 1_555
F7 V4 2.250000 1_455
