# generated using pymatgen
data_Mg16Al12Re
_symmetry_space_group_name_H-M   'P 1'
_cell_length_a   9.45417344
_cell_length_b   8.92463386
_cell_length_c   8.92463329
_cell_angle_alpha   108.23820235
_cell_angle_beta   110.67774944
_cell_angle_gamma   110.67774898
_symmetry_Int_Tables_number   1
_chemical_formula_structural   Mg16Al12Re
_chemical_formula_sum   'Mg16 Al12 Re1'
_cell_volume   570.81848054
_cell_formula_units_Z   1
loop_
 _symmetry_equiv_pos_site_id
 _symmetry_equiv_pos_as_xyz
  1  'x, y, z'
loop_
 _atom_site_type_symbol
 _atom_site_label
 _atom_site_symmetry_multiplicity
 _atom_site_fract_x
 _atom_site_fract_y
 _atom_site_fract_z
 _atom_site_occupancy
  Mg  Mg0  1  0.00740300  0.35980000  0.00000000  1
  Mg  Mg1  1  0.56962900  0.25928100  0.00000000  1
  Mg  Mg2  1  0.98717800  0.00000100  0.00000100  1
  Mg  Mg3  1  0.31882200  0.59713500  0.00000100  1
  Mg  Mg4  1  0.56962900  0.00000000  0.25928100  1
  Mg  Mg5  1  0.68006300  0.67376400  0.27423100  1
  Mg  Mg6  1  0.00629900  0.60046800  0.32623600  1
  Mg  Mg7  1  0.00740300  0.00000000  0.35980000  1
  Mg  Mg8  1  0.40583300  0.72577000  0.39953300  1
  Mg  Mg9  1  0.72168800  0.40286700  0.40286700  1
  Mg  Mg10  1  0.31882200  0.00000000  0.59713500  1
  Mg  Mg11  1  0.00629900  0.32623700  0.60046700  1
  Mg  Mg12  1  0.64760300  0.64019900  0.64019800  1
  Mg  Mg13  1  0.68006300  0.27423200  0.67376400  1
  Mg  Mg14  1  0.40583300  0.39953400  0.72577000  1
  Mg  Mg15  1  0.31034800  0.74072000  0.74072000  1
  Al  Al0  1  0.65269800  0.80699500  0.00000000  1
  Al  Al1  1  0.81104700  0.61154600  0.00000100  1
  Al  Al2  1  0.36741400  0.36251600  0.18227300  1
  Al  Al3  1  0.18514000  0.81772600  0.18024100  1
  Al  Al4  1  0.84570200  0.19300600  0.19300500  1
  Al  Al5  1  0.36741400  0.18227300  0.36251600  1
  Al  Al6  1  0.19950100  0.38845600  0.38845600  1
  Al  Al7  1  0.81104700  0.00000000  0.61154600  1
  Al  Al8  1  0.00489900  0.81975900  0.63748600  1
  Al  Al9  1  0.65269800  0.00000000  0.80699500  1
  Al  Al10  1  0.00489900  0.63748600  0.81975900  1
  Al  Al11  1  0.18514000  0.18024200  0.81772600  1
  Re  Re0  1  0.26949700  0.99999900  0.00000000  1
loop_
_geom_bond_atom_site_label_1
_geom_bond_atom_site_label_2
_geom_bond_distance
_geom_bond_site_symmetry_2
Mg0 Mg3 2.958149 1_555
Mg0 Mg13 3.035366 1_454
Mg0 Mg6 3.035366 1_555
Mg0 Mg2 3.148645 1_455
Mg0 Mg11 3.479500 1_554
Mg0 Mg8 3.479504 1_555
Mg1 Re0 2.961241 1_545
Mg1 Mg10 2.966590 1_554
Mg1 Mg9 2.966603 1_555
Mg1 Mg14 3.250299 1_554
Mg1 Mg5 3.250302 1_555
Mg1 Mg13 3.446229 1_554
Mg1 Mg6 3.446230 1_655
Mg2 Re0 2.669102 1_645
Mg2 Mg7 3.148645 1_655
Mg3 Mg4 2.966589 1_565
Mg3 Mg8 3.067250 1_555
Mg3 Mg5 3.085651 1_555
Mg4 Re0 2.961232 1_545
Mg4 Mg9 2.966603 1_555
Mg4 Mg8 3.250292 1_545
Mg4 Mg5 3.446228 1_545
Mg5 Mg7 3.035362 1_665
Mg5 Mg9 3.067257 1_555
Mg5 Mg8 3.280257 1_555
Mg5 Mg6 3.280258 1_655
Mg6 Mg9 3.085656 1_455
Mg6 Mg8 3.280272 1_555
Mg6 Mg7 3.479489 1_565
Mg10 Mg7 2.958154 1_555
Mg10 Mg15 2.966588 1_545
Mg10 Mg6 3.067257 1_545
Mg10 Mg14 3.067267 1_555
Mg10 Mg8 3.085655 1_545
Mg10 Mg13 3.085657 1_555
Mg11 Mg7 3.035369 1_555
Mg11 Mg3 3.067266 1_556
Mg11 Mg9 3.085647 1_455
Mg11 Mg15 3.250299 1_555
Mg11 Mg13 3.280263 1_455
Mg11 Mg14 3.280271 1_555
Mg11 Mg4 3.446229 1_455
Mg12 Mg9 2.958126 1_555
Mg12 Mg8 3.035360 1_555
Mg12 Mg14 3.035367 1_555
Mg12 Mg2 3.148666 1_566
Mg12 Mg5 3.479483 1_555
Mg12 Mg13 3.479486 1_555
Mg13 Mg9 3.067252 1_555
Mg13 Mg4 3.250304 1_555
Mg13 Mg14 3.280257 1_555
Mg14 Mg3 3.085657 1_556
Mg14 Mg15 3.446233 1_555
Mg14 Mg7 3.479507 1_555
Mg15 Re0 2.961222 1_556
Mg15 Mg3 2.966596 1_556
Mg15 Mg6 3.250308 1_555
Mg15 Mg8 3.446242 1_555
Al0 Al1 2.669830 1_555
Al0 Al9 2.791265 1_564
Al0 Al4 2.791273 1_565
Al0 Mg4 2.946556 1_565
Al0 Mg15 2.946557 1_554
Al0 Mg14 3.010335 1_554
Al0 Mg5 3.010343 1_555
Al0 Mg2 3.019924 1_565
Al0 Mg3 3.048994 1_555
Al0 Mg7 3.062259 1_665
Al0 Mg12 3.062276 1_554
Al1 Al3 2.831152 1_655
Al1 Al10 2.831159 1_654
Al1 Mg6 2.899610 1_655
Al1 Mg13 2.899622 1_554
Al1 Mg5 3.099509 1_555
Al1 Mg14 3.099511 1_554
Al1 Mg1 3.166314 1_555
Al1 Mg7 3.170653 1_665
Al1 Mg12 3.170675 1_554
Al1 Mg2 3.273333 1_565
Al2 Al5 2.606699 1_555
Al2 Re0 2.738176 1_545
Al2 Al6 2.831174 1_555
Al2 Mg5 2.861445 1_555
Al2 Mg8 3.022899 1_555
Al2 Mg9 3.044898 1_555
Al2 Mg3 3.086293 1_555
Al2 Mg1 3.106778 1_555
Al2 Mg0 3.199725 1_555
Al2 Mg2 3.224666 1_455
Al2 Mg12 3.352540 1_555
Al3 Al5 2.636065 1_565
Al3 Re0 2.738155 1_555
Al3 Mg8 2.861452 1_555
Al3 Mg6 3.022895 1_555
Al3 Mg3 3.044884 1_555
Al3 Mg10 3.086314 1_565
Al3 Mg4 3.106780 1_565
Al3 Mg7 3.199731 1_565
Al3 Mg2 3.224666 1_465
Al3 Mg0 3.352547 1_555
Al4 Al6 2.669838 1_655
Al4 Al9 2.791265 1_554
Al4 Mg1 2.946543 1_555
Al4 Mg4 2.946552 1_555
Al4 Mg11 3.010342 1_655
Al4 Mg6 3.010343 1_655
Al4 Mg2 3.019930 1_555
Al4 Mg9 3.048989 1_555
Al4 Mg0 3.062259 1_655
Al4 Mg7 3.062271 1_655
Al5 Re0 2.738169 1_545
Al5 Al6 2.831174 1_555
Al5 Mg13 2.861442 1_555
Al5 Mg14 3.022901 1_555
Al5 Mg9 3.044898 1_555
Al5 Mg10 3.086300 1_555
Al5 Mg4 3.106778 1_555
Al5 Mg7 3.199725 1_555
Al5 Mg2 3.224666 1_455
Al5 Mg12 3.352545 1_555
Al6 Mg14 2.899623 1_555
Al6 Mg8 2.899628 1_555
Al6 Mg11 3.099503 1_555
Al6 Mg6 3.099512 1_555
Al6 Mg15 3.166309 1_555
Al6 Mg0 3.170664 1_555
Al6 Mg7 3.170664 1_555
Al6 Mg2 3.273335 1_455
Al7 Al9 2.669830 1_555
Al7 Al8 2.831152 1_645
Al7 Mg5 2.899623 1_545
Al7 Mg11 2.899630 1_655
Al7 Mg8 3.099509 1_545
Al7 Mg13 3.099525 1_555
Al7 Mg4 3.166319 1_555
Al7 Mg12 3.170655 1_545
Al7 Mg0 3.170657 1_656
Al7 Mg2 3.273329 1_556
Al8 Re0 2.738156 1_556
Al8 Mg6 2.861457 1_555
Al8 Mg5 3.022906 1_455
Al8 Mg10 3.044894 1_565
Al8 Mg9 3.086300 1_455
Al8 Mg15 3.106774 1_555
Al8 Mg12 3.199718 1_455
Al8 Mg2 3.224664 1_466
Al8 Mg7 3.352555 1_565
Al9 Mg1 2.946556 1_556
Al9 Mg15 2.946557 1_545
Al9 Mg8 3.010341 1_545
Al9 Mg13 3.010351 1_555
Al9 Mg2 3.019924 1_556
Al9 Mg10 3.048989 1_555
Al9 Mg0 3.062259 1_656
Al9 Mg12 3.062269 1_545
Al10 Al3 2.606670 1_556
Al10 Al8 2.636057 1_555
Al10 Re0 2.738150 1_556
Al10 Mg11 2.861453 1_555
Al10 Mg13 3.022901 1_455
Al10 Mg3 3.044896 1_556
Al10 Mg9 3.086300 1_455
Al10 Mg15 3.106774 1_555
Al10 Mg12 3.199724 1_455
Al10 Mg2 3.224664 1_466
Al10 Mg0 3.352555 1_556
Al11 Al8 2.606678 1_545
Al11 Al2 2.636065 1_556
Al11 Re0 2.738177 1_546
Al11 Al7 2.831151 1_455
Al11 Mg14 2.861452 1_555
Al11 Mg11 3.022901 1_555
Al11 Mg10 3.044893 1_555
Al11 Mg3 3.086306 1_556
Al11 Mg1 3.106783 1_556
Al11 Mg0 3.199726 1_556
Al11 Mg2 3.224670 1_456
Al11 Mg7 3.352546 1_555
