# generated using pymatgen
data_Na5Ni2P2(CO7)2
_symmetry_space_group_name_H-M   'P 1'
_cell_length_a   6.63903300
_cell_length_b   8.88647071
_cell_length_c   10.43526589
_cell_angle_alpha   88.49891288
_cell_angle_beta   89.91204618
_cell_angle_gamma   89.78821108
_symmetry_Int_Tables_number   1
_chemical_formula_structural   Na5Ni2P2(CO7)2
_chemical_formula_sum   'Na10 Ni4 P4 C4 O28'
_cell_volume   615.43923645
_cell_formula_units_Z   2
loop_
 _symmetry_equiv_pos_site_id
 _symmetry_equiv_pos_as_xyz
  1  'x, y, z'
loop_
 _atom_site_type_symbol
 _atom_site_label
 _atom_site_symmetry_multiplicity
 _atom_site_fract_x
 _atom_site_fract_y
 _atom_site_fract_z
 _atom_site_occupancy
  Na  Na0  1  0.25941700  0.91937700  0.61066000  1
  Na  Na1  1  0.01046400  0.73360500  0.87923800  1
  Na  Na2  1  0.48917600  0.73271700  0.88100600  1
  Na  Na3  1  0.00977000  0.72981100  0.36621400  1
  Na  Na4  1  0.48847200  0.72943600  0.36470700  1
  Na  Na5  1  0.97604700  0.27788800  0.62529200  1
  Na  Na6  1  0.50704400  0.26461800  0.13013300  1
  Na  Na7  1  0.99615500  0.26264800  0.12724500  1
  Na  Na8  1  0.74017800  0.08592900  0.88473300  1
  Na  Na9  1  0.73972500  0.08737400  0.39503500  1
  Ni  Ni0  1  0.74765100  0.65207100  0.61060300  1
  Ni  Ni1  1  0.75143600  0.65414700  0.11060400  1
  Ni  Ni2  1  0.25446100  0.34682000  0.88603600  1
  Ni  Ni3  1  0.25444400  0.34575000  0.39405500  1
  P  P0  1  0.25008600  0.57991100  0.64021200  1
  P  P1  1  0.25014800  0.57838500  0.14091000  1
  P  P2  1  0.75128400  0.42053300  0.86071800  1
  P  P3  1  0.75048800  0.41849500  0.35597500  1
  C  C0  1  0.75571100  0.93246900  0.64419700  1
  C  C1  1  0.74996200  0.93519600  0.14253700  1
  C  C2  1  0.24767600  0.06619100  0.85649900  1
  C  C3  1  0.24672800  0.06372800  0.35746500  1
  O  O0  1  0.24950400  0.92372400  0.84083100  1
  O  O1  1  0.24878400  0.92128200  0.34616000  1
  O  O2  1  0.74797700  0.87379200  0.53019600  1
  O  O3  1  0.74918500  0.87791500  0.02898200  1
  O  O4  1  0.74700200  0.83740200  0.74225100  1
  O  O5  1  0.74929000  0.84002800  0.24029300  1
  O  O6  1  0.06462600  0.68325800  0.60752100  1
  O  O7  1  0.43568200  0.67961400  0.60447300  1
  O  O8  1  0.06333600  0.67600600  0.10452300  1
  O  O9  1  0.43797500  0.67413100  0.10476600  1
  O  O10  1  0.75266700  0.57067500  0.93281800  1
  O  O11  1  0.74803600  0.56746600  0.42895100  1
  O  O12  1  0.25078400  0.54579900  0.78888000  1
  O  O13  1  0.24944800  0.54448000  0.28866100  1
  O  O14  1  0.75654400  0.46022800  0.71517600  1
  O  O15  1  0.75881500  0.45592200  0.20821900  1
  O  O16  1  0.24294800  0.43219500  0.56847500  1
  O  O17  1  0.25016700  0.42803400  0.06898100  1
  O  O18  1  0.56571600  0.32285800  0.89857900  1
  O  O19  1  0.93705200  0.31955600  0.89573000  1
  O  O20  1  0.56212200  0.31932700  0.38084600  1
  O  O21  1  0.93551100  0.31844600  0.39295000  1
  O  O22  1  0.24033800  0.16100400  0.75988100  1
  O  O23  1  0.25047600  0.15857300  0.26050800  1
  O  O24  1  0.25544000  0.12746400  0.96822400  1
  O  O25  1  0.24251800  0.12289200  0.47025200  1
  O  O26  1  0.77048000  0.07337600  0.65820100  1
  O  O27  1  0.75121000  0.07777900  0.15856800  1
loop_
_geom_bond_atom_site_label_1
_geom_bond_atom_site_label_2
_geom_bond_distance
_geom_bond_site_symmetry_2
Na0 O25 2.300074 1_565
Na0 O0 2.404014 1_555
Na0 O7 2.429363 1_555
Na0 O6 2.469819 1_555
Na0 O22 2.687726 1_565
Na0 O1 2.760746 1_555
Na1 O10 2.304611 1_455
Na1 O0 2.348604 1_555
Na1 O8 2.418706 1_556
Na1 O4 2.424952 1_455
Na1 O12 2.505624 1_555
Na1 O3 2.678720 1_456
Na1 O6 2.903676 1_555
Na2 O10 2.317219 1_555
Na2 O0 2.352347 1_555
Na2 O9 2.402911 1_556
Na2 O4 2.413613 1_555
Na2 O12 2.509174 1_555
Na2 O3 2.675474 1_556
Na3 O1 2.336063 1_555
Na3 O11 2.344127 1_455
Na3 O5 2.367187 1_455
Na3 O13 2.438415 1_555
Na3 O6 2.567439 1_555
Na3 O2 2.770421 1_455
Na3 O8 2.806529 1_555
Na4 O11 2.329250 1_555
Na4 O1 2.332326 1_555
Na4 O5 2.364023 1_555
Na4 O13 2.437391 1_555
Na4 O7 2.553309 1_555
Na4 O2 2.781666 1_555
Na4 O9 2.790293 1_555
Na5 O26 2.295131 1_555
Na5 O16 2.311675 1_655
Na5 O14 2.384743 1_555
Na5 O21 2.456883 1_555
Na5 O22 2.459232 1_655
Na5 O25 2.781077 1_655
Na5 O19 2.867078 1_555
Na6 O17 2.315383 1_555
Na6 O27 2.329864 1_555
Na6 O23 2.361787 1_555
Na6 O18 2.488234 1_554
Na6 O15 2.538852 1_555
Na6 O24 2.694810 1_554
Na6 O20 2.699215 1_555
Na7 O17 2.311268 1_655
Na7 O27 2.332433 1_555
Na7 O23 2.359737 1_655
Na7 O19 2.486728 1_554
Na7 O15 2.489716 1_555
Na7 O24 2.690808 1_654
Na7 O21 2.857091 1_555
Na8 O3 2.353742 1_546
Na8 O26 2.377652 1_555
Na8 O18 2.406825 1_555
Na8 O19 2.462688 1_555
Na8 O4 2.694704 1_545
Na8 O27 2.857606 1_556
Na9 O2 2.335364 1_545
Na9 O20 2.372242 1_555
Na9 O21 2.433895 1_555
Na9 O27 2.472349 1_555
Na9 O26 2.753626 1_555
Na9 O5 2.761790 1_545
Ni0 O14 2.000665 1_555
Ni0 O11 2.057464 1_555
Ni0 O7 2.085568 1_555
Ni0 O2 2.121226 1_555
Ni0 O6 2.123678 1_655
Ni0 O4 2.172135 1_555
Ni1 O15 2.012085 1_555
Ni1 O10 2.015994 1_554
Ni1 O8 2.081236 1_655
Ni1 O9 2.088833 1_555
Ni1 O3 2.142649 1_555
Ni1 O5 2.162671 1_555
Ni2 O12 2.015174 1_555
Ni2 O17 2.058670 1_556
Ni2 O18 2.080561 1_555
Ni2 O24 2.108961 1_555
Ni2 O19 2.124014 1_455
Ni2 O22 2.141003 1_555
Ni3 O16 1.995287 1_555
Ni3 O13 2.056063 1_555
Ni3 O20 2.060092 1_555
Ni3 O25 2.116375 1_555
Ni3 O21 2.132237 1_455
Ni3 O23 2.198045 1_555
C0 O26 1.268632 1_565
C0 O4 1.311074 1_555
C0 O2 1.312491 1_555
C1 O27 1.282451 1_565
C1 O3 1.301900 1_555
C1 O5 1.307930 1_555
C2 O0 1.280794 1_545
C2 O22 1.297747 1_555
C2 O24 1.300794 1_555
C3 O1 1.274422 1_545
C3 O23 1.300030 1_555
C3 O25 1.301789 1_555
O6 P0 1.566005 1_555
O7 P0 1.559394 1_555
O8 P1 1.552804 1_555
O9 P1 1.552664 1_555
O10 P2 1.548885 1_555
O11 P3 1.544448 1_555
O12 P0 1.572926 1_555
O13 P1 1.563222 1_555
O14 P2 1.550539 1_555
O15 P3 1.569731 1_555
O16 P0 1.528988 1_555
O17 P1 1.549540 1_555
O18 P2 1.554266 1_555
O19 P2 1.560702 1_555
O20 P3 1.550179 1_555
O21 P3 1.556809 1_555
