# generated using pymatgen
data_GaAg3
_symmetry_space_group_name_H-M   'P 1'
_cell_length_a   5.87573252
_cell_length_b   5.87573252
_cell_length_c   18.23226988
_cell_angle_alpha   90.00000000
_cell_angle_beta   90.00000000
_cell_angle_gamma   120.00000045
_symmetry_Int_Tables_number   1
_chemical_formula_structural   GaAg3
_chemical_formula_sum   'Ga8 Ag24'
_cell_volume   545.12412809
_cell_formula_units_Z   8
loop_
 _symmetry_equiv_pos_site_id
 _symmetry_equiv_pos_as_xyz
  1  'x, y, z'
loop_
 _atom_site_type_symbol
 _atom_site_label
 _atom_site_symmetry_multiplicity
 _atom_site_fract_x
 _atom_site_fract_y
 _atom_site_fract_z
 _atom_site_occupancy
  Ga  Ga0_0  1  0.33333350  0.16666650  0.00000000  1
  Ga  Ga0_1  1  0.33333350  0.16666650  0.50000000  1
  Ga  Ga0_2  1  0.33333350  0.66666650  0.00000000  1
  Ga  Ga0_3  1  0.33333350  0.66666650  0.50000000  1
  Ga  Ga0_4  1  0.83333350  0.16666650  0.00000000  1
  Ga  Ga0_5  1  0.83333350  0.16666650  0.50000000  1
  Ga  Ga0_6  1  0.83333350  0.66666650  0.00000000  1
  Ga  Ga0_7  1  0.83333350  0.66666650  0.50000000  1
  Ag  Ag0_0  1  0.33333350  0.16666650  0.25000000  1
  Ag  Ag0_1  1  0.33333350  0.16666650  0.75000000  1
  Ag  Ag0_2  1  0.33333350  0.66666650  0.25000000  1
  Ag  Ag0_3  1  0.33333350  0.66666650  0.75000000  1
  Ag  Ag0_4  1  0.83333350  0.16666650  0.25000000  1
  Ag  Ag0_5  1  0.83333350  0.16666650  0.75000000  1
  Ag  Ag0_6  1  0.83333350  0.66666650  0.25000000  1
  Ag  Ag0_7  1  0.83333350  0.66666650  0.75000000  1
  Ag  Ag1_0  1  0.16666650  0.33333350  0.12096173  1
  Ag  Ag1_1  1  0.16666650  0.33333350  0.62096173  1
  Ag  Ag1_2  1  0.16666650  0.83333350  0.12096173  1
  Ag  Ag1_3  1  0.16666650  0.83333350  0.62096173  1
  Ag  Ag1_4  1  0.66666650  0.33333350  0.12096173  1
  Ag  Ag1_5  1  0.66666650  0.33333350  0.62096173  1
  Ag  Ag1_6  1  0.66666650  0.83333350  0.12096173  1
  Ag  Ag1_7  1  0.66666650  0.83333350  0.62096173  1
  Ag  Ag2_0  1  0.16666650  0.33333350  0.37903828  1
  Ag  Ag2_1  1  0.16666650  0.33333350  0.87903827  1
  Ag  Ag2_2  1  0.16666650  0.83333350  0.37903828  1
  Ag  Ag2_3  1  0.16666650  0.83333350  0.87903827  1
  Ag  Ag2_4  1  0.66666650  0.33333350  0.37903828  1
  Ag  Ag2_5  1  0.66666650  0.33333350  0.87903827  1
  Ag  Ag2_6  1  0.66666650  0.83333350  0.37903828  1
  Ag  Ag2_7  1  0.66666650  0.83333350  0.87903827  1
loop_
_geom_bond_atom_site_label_1
_geom_bond_atom_site_label_2
_geom_bond_distance
_geom_bond_site_symmetry_2
Ga0_0 Ga0_6 2.937866 1_555
Ga0_0 Ga0_6 2.937866 1_445
Ga0_0 Ga0_4 2.937866 1_555
Ga0_0 Ga0_4 2.937866 1_455
Ga0_0 Ga0_2 2.937866 1_555
Ga0_0 Ga0_2 2.937866 1_545
Ga0_1 Ga0_7 2.937866 1_555
Ga0_1 Ga0_7 2.937866 1_445
Ga0_1 Ga0_5 2.937866 1_555
Ga0_1 Ga0_5 2.937866 1_455
Ga0_1 Ga0_3 2.937866 1_555
Ga0_1 Ga0_3 2.937866 1_545
Ga0_2 Ga0_4 2.937866 1_565
Ga0_2 Ga0_4 2.937866 1_455
Ga0_2 Ga0_6 2.937866 1_455
Ga0_2 Ga0_6 2.937866 1_555
Ga0_3 Ga0_5 2.937866 1_565
Ga0_3 Ga0_5 2.937866 1_455
Ga0_3 Ga0_7 2.937866 1_455
Ga0_3 Ga0_7 2.937866 1_555
Ga0_4 Ga0_6 2.937866 1_555
Ga0_4 Ga0_6 2.937866 1_545
Ga0_5 Ga0_7 2.937866 1_555
Ga0_5 Ga0_7 2.937866 1_545
Ag0_0 Ag1_4 2.900349 1_555
Ag0_0 Ag1_2 2.900349 1_545
Ag0_0 Ag2_2 2.900349 1_545
Ag0_0 Ag2_4 2.900349 1_555
Ag0_0 Ag1_0 2.900352 1_555
Ag0_0 Ag2_0 2.900352 1_555
Ag0_0 Ag0_6 2.937866 1_555
Ag0_0 Ag0_6 2.937866 1_445
Ag0_0 Ag0_4 2.937866 1_555
Ag0_0 Ag0_4 2.937866 1_455
Ag0_0 Ag0_2 2.937866 1_545
Ag0_0 Ag0_2 2.937866 1_555
Ag0_1 Ag2_5 2.900349 1_555
Ag0_1 Ag1_5 2.900349 1_555
Ag0_1 Ag2_3 2.900349 1_545
Ag0_1 Ag1_3 2.900349 1_545
Ag0_1 Ag1_1 2.900352 1_555
Ag0_1 Ag2_1 2.900352 1_555
Ag0_1 Ag0_7 2.937866 1_555
Ag0_1 Ag0_7 2.937866 1_445
Ag0_1 Ag0_5 2.937866 1_555
Ag0_1 Ag0_5 2.937866 1_455
Ag0_1 Ag0_3 2.937866 1_555
Ag0_1 Ag0_3 2.937866 1_545
Ag0_2 Ag1_6 2.900349 1_555
Ag0_2 Ag1_0 2.900349 1_555
Ag0_2 Ag2_0 2.900349 1_555
Ag0_2 Ag2_6 2.900349 1_555
Ag0_2 Ag1_2 2.900352 1_555
Ag0_2 Ag2_2 2.900352 1_555
Ag0_2 Ag0_4 2.937866 1_565
Ag0_2 Ag0_4 2.937866 1_455
Ag0_2 Ag0_6 2.937866 1_455
Ag0_2 Ag0_6 2.937866 1_555
Ag0_3 Ag1_7 2.900349 1_555
Ag0_3 Ag2_1 2.900349 1_555
Ag0_3 Ag2_7 2.900349 1_555
Ag0_3 Ag1_1 2.900349 1_555
Ag0_3 Ag1_3 2.900352 1_555
Ag0_3 Ag2_3 2.900352 1_555
Ag0_3 Ag0_5 2.937866 1_565
Ag0_3 Ag0_5 2.937866 1_455
Ag0_3 Ag0_7 2.937866 1_455
Ag0_3 Ag0_7 2.937866 1_555
Ag0_4 Ag1_6 2.900349 1_545
Ag0_4 Ag1_0 2.900349 1_655
Ag0_4 Ag2_0 2.900349 1_655
Ag0_4 Ag2_6 2.900349 1_545
Ag0_4 Ag1_4 2.900352 1_555
Ag0_4 Ag2_4 2.900352 1_555
Ag0_4 Ag0_6 2.937866 1_555
Ag0_4 Ag0_6 2.937866 1_545
Ag0_5 Ag1_1 2.900349 1_655
Ag0_5 Ag2_7 2.900349 1_545
Ag0_5 Ag1_7 2.900349 1_545
Ag0_5 Ag2_1 2.900349 1_655
Ag0_5 Ag2_5 2.900352 1_555
Ag0_5 Ag1_5 2.900352 1_555
Ag0_5 Ag0_7 2.937866 1_555
Ag0_5 Ag0_7 2.937866 1_545
Ag0_6 Ag1_4 2.900349 1_555
Ag0_6 Ag2_4 2.900349 1_555
Ag0_6 Ag1_2 2.900349 1_655
Ag0_6 Ag2_2 2.900349 1_655
Ag0_6 Ag1_6 2.900352 1_555
Ag0_6 Ag2_6 2.900352 1_555
Ag0_7 Ag2_5 2.900349 1_555
Ag0_7 Ag1_5 2.900349 1_555
Ag0_7 Ag1_3 2.900349 1_655
Ag0_7 Ag2_3 2.900349 1_655
Ag0_7 Ag2_7 2.900352 1_555
Ag0_7 Ag1_7 2.900352 1_555
Ag1_0 Ga0_2 2.782235 1_555
Ag1_0 Ga0_4 2.782235 1_455
Ag1_0 Ga0_0 2.782238 1_555
Ag1_0 Ag1_6 2.937866 1_555
Ag1_0 Ag1_6 2.937866 1_445
Ag1_0 Ag1_4 2.937866 1_555
Ag1_0 Ag1_2 2.937866 1_545
Ag1_0 Ag1_2 2.937866 1_555
Ag1_0 Ag1_4 2.937866 1_455
Ag1_1 Ga0_5 2.782235 1_455
Ag1_1 Ga0_3 2.782235 1_555
Ag1_1 Ga0_1 2.782238 1_555
Ag1_1 Ag1_7 2.937866 1_555
Ag1_1 Ag1_7 2.937866 1_445
Ag1_1 Ag1_5 2.937866 1_555
Ag1_1 Ag1_3 2.937866 1_555
Ag1_1 Ag1_5 2.937866 1_455
Ag1_1 Ag1_3 2.937866 1_545
Ag1_2 Ga0_6 2.782235 1_455
Ag1_2 Ga0_0 2.782235 1_565
Ag1_2 Ga0_2 2.782238 1_555
Ag1_2 Ag1_4 2.937866 1_455
Ag1_2 Ag1_4 2.937866 1_565
Ag1_2 Ag1_6 2.937866 1_455
Ag1_2 Ag1_6 2.937866 1_555
Ag1_3 Ga0_7 2.782235 1_455
Ag1_3 Ga0_1 2.782235 1_565
Ag1_3 Ga0_3 2.782238 1_555
Ag1_3 Ag1_5 2.937866 1_455
Ag1_3 Ag1_5 2.937866 1_565
Ag1_3 Ag1_7 2.937866 1_455
Ag1_3 Ag1_7 2.937866 1_555
Ag1_4 Ga0_6 2.782235 1_555
Ag1_4 Ga0_0 2.782235 1_555
Ag1_4 Ga0_4 2.782238 1_555
Ag1_4 Ag1_6 2.937866 1_555
Ag1_4 Ag1_6 2.937866 1_545
Ag1_5 Ga0_1 2.782235 1_555
Ag1_5 Ga0_7 2.782235 1_555
Ag1_5 Ga0_5 2.782238 1_555
Ag1_5 Ag1_7 2.937866 1_555
Ag1_5 Ag1_7 2.937866 1_545
Ag1_6 Ga0_2 2.782235 1_555
Ag1_6 Ga0_4 2.782235 1_565
Ag1_6 Ga0_6 2.782238 1_555
Ag1_7 Ga0_3 2.782235 1_555
Ag1_7 Ga0_5 2.782235 1_565
Ag1_7 Ga0_7 2.782238 1_555
Ag2_0 Ga0_5 2.782235 1_455
Ag2_0 Ga0_3 2.782235 1_555
Ag2_0 Ga0_1 2.782238 1_555
Ag2_0 Ag2_6 2.937866 1_555
Ag2_0 Ag2_6 2.937866 1_445
Ag2_0 Ag2_4 2.937866 1_555
Ag2_0 Ag2_2 2.937866 1_555
Ag2_0 Ag2_2 2.937866 1_545
Ag2_0 Ag2_4 2.937866 1_455
Ag2_1 Ga0_2 2.782235 1_556
Ag2_1 Ga0_4 2.782235 1_456
Ag2_1 Ga0_0 2.782238 1_556
Ag2_1 Ag2_7 2.937866 1_555
Ag2_1 Ag2_7 2.937866 1_445
Ag2_1 Ag2_5 2.937866 1_555
Ag2_1 Ag2_3 2.937866 1_555
Ag2_1 Ag2_5 2.937866 1_455
Ag2_1 Ag2_3 2.937866 1_545
Ag2_2 Ga0_7 2.782235 1_455
Ag2_2 Ga0_1 2.782235 1_565
Ag2_2 Ga0_3 2.782238 1_555
Ag2_2 Ag2_4 2.937866 1_565
Ag2_2 Ag2_4 2.937866 1_455
Ag2_2 Ag2_6 2.937866 1_455
Ag2_2 Ag2_6 2.937866 1_555
Ag2_3 Ga0_6 2.782235 1_456
Ag2_3 Ga0_0 2.782235 1_566
Ag2_3 Ga0_2 2.782238 1_556
Ag2_3 Ag2_5 2.937866 1_455
Ag2_3 Ag2_5 2.937866 1_565
Ag2_3 Ag2_7 2.937866 1_455
Ag2_3 Ag2_7 2.937866 1_555
Ag2_4 Ga0_1 2.782235 1_555
Ag2_4 Ga0_7 2.782235 1_555
Ag2_4 Ga0_5 2.782238 1_555
Ag2_4 Ag2_6 2.937866 1_555
Ag2_4 Ag2_6 2.937866 1_545
Ag2_5 Ga0_6 2.782235 1_556
Ag2_5 Ga0_0 2.782235 1_556
Ag2_5 Ga0_4 2.782238 1_556
Ag2_5 Ag2_7 2.937866 1_555
Ag2_5 Ag2_7 2.937866 1_545
Ag2_6 Ga0_3 2.782235 1_555
Ag2_6 Ga0_5 2.782235 1_565
Ag2_6 Ga0_7 2.782238 1_555
Ag2_7 Ga0_2 2.782235 1_556
Ag2_7 Ga0_4 2.782235 1_566
Ag2_7 Ga0_6 2.782238 1_556
