# generated using pymatgen
data_La4MnS6O
_symmetry_space_group_name_H-M   'P 1'
_cell_length_a   9.49823196
_cell_length_b   9.50265651
_cell_length_c   6.79736211
_cell_angle_alpha   89.93722787
_cell_angle_beta   90.04778096
_cell_angle_gamma   120.07758571
_symmetry_Int_Tables_number   1
_chemical_formula_structural   La4MnS6O
_chemical_formula_sum   'La8 Mn2 S12 O2'
_cell_volume   530.90704912
_cell_formula_units_Z   2
loop_
 _symmetry_equiv_pos_site_id
 _symmetry_equiv_pos_as_xyz
  1  'x, y, z'
loop_
 _atom_site_type_symbol
 _atom_site_label
 _atom_site_symmetry_multiplicity
 _atom_site_fract_x
 _atom_site_fract_y
 _atom_site_fract_z
 _atom_site_occupancy
  La  La0  1  0.39251200  0.19660400  0.17919700  1
  La  La1  1  0.33364900  0.66679600  0.21196300  1
  La  La2  1  0.19710200  0.80353000  0.68029200  1
  La  La3  1  0.66639700  0.33321100  0.71190100  1
  La  La4  1  0.80319100  0.60709300  0.18016700  1
  La  La5  1  0.19688700  0.39297600  0.68074400  1
  La  La6  1  0.60768900  0.80369900  0.67933000  1
  La  La7  1  0.80270100  0.19694300  0.18083700  1
  Mn  Mn0  1  0.00120000  0.00304900  0.51125800  1
  Mn  Mn1  1  0.99713200  0.99530400  0.01521400  1
  S  S0  1  0.88141200  0.11872800  0.78217500  1
  S  S1  1  0.47019000  0.93962200  0.95979200  1
  S  S2  1  0.06056900  0.53031500  0.95977500  1
  S  S3  1  0.53021100  0.46960700  0.45980800  1
  S  S4  1  0.53025900  0.06063600  0.45975900  1
  S  S5  1  0.76215500  0.88120200  0.28125600  1
  S  S6  1  0.11809800  0.23663300  0.28119300  1
  S  S7  1  0.88192700  0.76327300  0.78093700  1
  S  S8  1  0.47007300  0.53065600  0.95995000  1
  S  S9  1  0.93957800  0.46975500  0.45969100  1
  S  S10  1  0.23817000  0.11874300  0.78101800  1
  S  S11  1  0.11867200  0.88145700  0.28237700  1
  O  O0  1  0.33344200  0.66649500  0.55812500  1
  O  O1  1  0.66678300  0.33367100  0.05818300  1
loop_
_geom_bond_atom_site_label_1
_geom_bond_atom_site_label_2
_geom_bond_distance
_geom_bond_site_symmetry_2
La0 O1 2.399952 1_555
La0 S6 2.901085 1_555
La0 S11 2.901102 1_545
La0 S3 2.946979 1_555
La0 S4 2.950090 1_555
La0 S10 2.988744 1_554
La0 S8 3.238495 1_554
La0 S1 3.247728 1_544
La1 O0 2.352988 1_555
La1 S1 2.822284 1_554
La1 S2 2.823802 1_554
La1 S8 2.824179 1_554
La1 S5 3.553209 1_555
La1 S6 3.568073 1_555
La1 S11 3.569053 1_555
La2 O0 2.399322 1_555
La2 S10 2.902760 1_565
La2 S7 2.903618 1_455
La2 S1 2.940212 1_555
La2 S2 2.941072 1_555
La2 S11 2.994042 1_555
La2 S4 3.237325 1_565
La2 S9 3.243375 1_455
La3 O1 2.353809 1_556
La3 S3 2.821595 1_555
La3 S4 2.822665 1_555
La3 S9 2.825453 1_555
La3 S10 3.551084 1_555
La3 S0 3.566729 1_555
La3 S7 3.567806 1_555
La4 O1 2.397017 1_555
La4 S11 2.903258 1_655
La4 S5 2.903598 1_555
La4 S3 2.941109 1_555
La4 S9 2.945597 1_555
La4 S7 3.001364 1_554
La4 S8 3.235780 1_554
La4 S2 3.247936 1_654
La5 O0 2.398035 1_555
La5 S0 2.901373 1_455
La5 S10 2.903300 1_555
La5 S8 2.939550 1_555
La5 S2 2.946245 1_555
La5 S6 3.005723 1_555
La5 S3 3.240952 1_555
La5 S9 3.246828 1_455
La6 O0 2.399700 1_555
La6 S7 2.899801 1_555
La6 S0 2.900014 1_565
La6 S8 2.944998 1_555
La6 S1 2.951046 1_555
La6 S5 2.989277 1_555
La6 S3 3.242528 1_555
La6 S4 3.243430 1_565
La7 O1 2.393107 1_555
La7 S6 2.906291 1_655
La7 S5 2.907620 1_545
La7 S4 2.934573 1_555
La7 S9 2.938050 1_555
La7 S0 3.003231 1_554
La7 S1 3.235849 1_544
La7 S2 3.242071 1_654
Mn0 S6 2.475942 1_555
Mn0 S11 2.509893 1_545
Mn0 S5 2.510583 1_445
Mn0 S10 2.674746 1_555
Mn0 S0 2.675008 1_455
Mn0 S7 2.691148 1_445
Mn1 S7 2.486236 1_554
Mn1 S0 2.525486 1_564
Mn1 S10 2.542011 1_664
Mn1 S5 2.646495 1_555
Mn1 S11 2.654236 1_655
Mn1 S6 2.685601 1_665
