# generated using pymatgen
data_Ca6MnN5
_symmetry_space_group_name_H-M   'P 1'
_cell_length_a   6.20582384
_cell_length_b   6.20581301
_cell_length_c   12.29515924
_cell_angle_alpha   90.00000118
_cell_angle_beta   90.00000276
_cell_angle_gamma   120.00011903
_symmetry_Int_Tables_number   1
_chemical_formula_structural   Ca6MnN5
_chemical_formula_sum   'Ca12 Mn2 N10'
_cell_volume   410.07415399
_cell_formula_units_Z   2
loop_
 _symmetry_equiv_pos_site_id
 _symmetry_equiv_pos_as_xyz
  1  'x, y, z'
loop_
 _atom_site_type_symbol
 _atom_site_label
 _atom_site_symmetry_multiplicity
 _atom_site_fract_x
 _atom_site_fract_y
 _atom_site_fract_z
 _atom_site_occupancy
  Ca  Ca0  1  0.00000069  0.39464773  0.88111110  1
  Ca  Ca1  1  0.60535297  0.60535226  0.88111121  1
  Ca  Ca2  1  0.60535443  -0.00000015  0.11889090  1
  Ca  Ca3  1  0.39464546  0.00000024  0.61888706  1
  Ca  Ca4  1  0.39464559  0.39464608  0.38111070  1
  Ca  Ca5  1  0.60535481  -0.00000042  0.38111074  1
  Ca  Ca6  1  0.39464600  0.39464652  0.11889091  1
  Ca  Ca7  1  -0.00000059  0.60535496  0.11889087  1
  Ca  Ca8  1  0.00000071  0.39464720  0.61888728  1
  Ca  Ca9  1  0.60535316  0.60535292  0.61888719  1
  Ca  Ca10  1  0.39464617  0.00000028  0.88111122  1
  Ca  Ca11  1  -0.00000066  0.60535550  0.38111079  1
  Mn  Mn0  1  0.00001034  -0.00000142  0.74999825  1
  Mn  Mn1  1  -0.00000721  -0.00000815  0.25000182  1
  N  N0  1  0.71401591  0.00000022  0.74999856  1
  N  N1  1  0.28597928  0.28597834  0.74999846  1
  N  N2  1  0.28598040  -0.00000019  0.25000141  1
  N  N3  1  0.66666661  0.33333367  0.49999823  1
  N  N4  1  0.33333316  0.66666687  0.00000170  1
  N  N5  1  0.33333309  0.66666690  0.49999829  1
  N  N6  1  0.66666661  0.33333367  0.00000175  1
  N  N7  1  0.71402320  0.71402464  0.25000159  1
  N  N8  1  0.99999915  0.28598146  0.25000139  1
  N  N9  1  0.00000071  0.71402088  0.74999859  1
loop_
_geom_bond_atom_site_label_1
_geom_bond_atom_site_label_2
_geom_bond_distance
_geom_bond_site_symmetry_2
Ca0 N4 2.402826 1_556
Ca0 N6 2.402836 1_456
Ca0 N9 2.554781 1_555
Ca0 N0 2.720299 1_455
Ca0 N1 2.720299 1_555
Ca1 N6 2.402826 1_556
Ca1 N4 2.402837 1_556
Ca1 N1 2.554785 1_555
Ca1 N9 2.720298 1_655
Ca1 N0 2.720303 1_565
Ca2 N4 2.402820 1_545
Ca2 N6 2.402824 1_555
Ca2 N2 2.554773 1_555
Ca2 N7 2.720265 1_545
Ca2 N8 2.720272 1_555
Ca3 N5 2.402819 1_545
Ca3 N3 2.402819 1_555
Ca3 N0 2.554763 1_555
Ca3 N1 2.720275 1_555
Ca3 N9 2.720277 1_545
Ca4 N5 2.402811 1_555
Ca4 N3 2.402813 1_555
Ca4 N7 2.554777 1_555
Ca4 N2 2.720267 1_555
Ca4 N8 2.720272 1_455
Ca5 N5 2.402808 1_545
Ca5 N3 2.402814 1_555
Ca5 N2 2.554766 1_555
Ca5 N7 2.720251 1_545
Ca5 N8 2.720263 1_555
Ca6 N4 2.402822 1_555
Ca6 N6 2.402825 1_555
Ca6 N7 2.554787 1_555
Ca6 N2 2.720278 1_555
Ca6 N8 2.720282 1_455
Ca7 N6 2.402820 1_455
Ca7 N4 2.402827 1_555
Ca7 N8 2.554767 1_455
Ca7 N2 2.720270 1_565
Ca7 N7 2.720275 1_455
Ca8 N5 2.402815 1_555
Ca8 N3 2.402825 1_455
Ca8 N9 2.554775 1_555
Ca8 N1 2.720286 1_555
Ca8 N0 2.720288 1_455
Ca9 N3 2.402817 1_555
Ca9 N5 2.402824 1_555
Ca9 N1 2.554776 1_555
Ca9 N9 2.720289 1_655
Ca9 N0 2.720290 1_565
Ca10 N6 2.402830 1_556
Ca10 N4 2.402831 1_546
Ca10 N0 2.554769 1_555
Ca10 N1 2.720287 1_555
Ca10 N9 2.720287 1_545
Ca11 N3 2.402808 1_455
Ca11 N5 2.402816 1_555
Ca11 N8 2.554761 1_455
Ca11 N2 2.720260 1_565
Ca11 N7 2.720261 1_455
Mn0 N9 1.774694 1_545
Mn0 N1 1.774702 1_555
Mn0 N0 1.774836 1_455
Mn1 N7 1.774665 1_445
Mn1 N2 1.774764 1_555
Mn1 N8 1.774778 1_455
