# generated using pymatgen
data_BaCeEuWO6
_symmetry_space_group_name_H-M   'P 1'
_cell_length_a   8.82389686
_cell_length_b   8.80669950
_cell_length_c   8.78273480
_cell_angle_alpha   90.00000000
_cell_angle_beta   90.00000000
_cell_angle_gamma   90.00000000
_symmetry_Int_Tables_number   1
_chemical_formula_structural   BaCeEuWO6
_chemical_formula_sum   'Ba4 Ce4 Eu4 W4 O24'
_cell_volume   682.50112250
_cell_formula_units_Z   4
loop_
 _symmetry_equiv_pos_site_id
 _symmetry_equiv_pos_as_xyz
  1  'x, y, z'
loop_
 _atom_site_type_symbol
 _atom_site_label
 _atom_site_symmetry_multiplicity
 _atom_site_fract_x
 _atom_site_fract_y
 _atom_site_fract_z
 _atom_site_occupancy
  Ba  Ba0  1  0.00000000  0.00000000  0.00000000  1
  Ba  Ba1  1  0.50000000  0.50000000  0.50000000  1
  Ba  Ba2  1  0.50000000  0.00000000  0.50000000  1
  Ba  Ba3  1  0.00000000  0.00000000  0.50000000  1
  Ce  Ce0  1  0.75058049  0.74884105  0.75046237  1
  Ce  Ce1  1  0.24941951  0.25115895  0.75046237  1
  Ce  Ce2  1  0.24941951  0.74884105  0.24953763  1
  Ce  Ce3  1  0.75058049  0.25115895  0.24953763  1
  Eu  Eu0  1  0.00000000  0.50000000  0.50000000  1
  Eu  Eu1  1  0.50000000  0.50000000  0.00000000  1
  Eu  Eu2  1  0.50000000  0.00000000  0.00000000  1
  Eu  Eu3  1  0.00000000  0.50000000  0.00000000  1
  W  W0  1  0.24925726  0.25084744  0.25042292  1
  W  W1  1  0.75074274  0.74915256  0.25042292  1
  W  W2  1  0.75074274  0.25084744  0.74957708  1
  W  W3  1  0.24925726  0.74915256  0.74957708  1
  O  O0  1  0.01257269  0.21178126  0.28346551  1
  O  O1  1  0.98742731  0.78821874  0.28346551  1
  O  O2  1  0.98742731  0.21178126  0.71653449  1
  O  O3  1  0.01257269  0.78821874  0.71653449  1
  O  O4  1  0.28800394  0.01645614  0.20572418  1
  O  O5  1  0.28800394  0.98354386  0.79427582  1
  O  O6  1  0.71199606  0.98354386  0.20572418  1
  O  O7  1  0.71199606  0.01645614  0.79427582  1
  O  O8  1  0.20753146  0.28730872  0.01337519  1
  O  O9  1  0.79246854  0.28730872  0.98662481  1
  O  O10  1  0.20753146  0.71269128  0.98662481  1
  O  O11  1  0.79246854  0.71269128  0.01337519  1
  O  O12  1  0.48783502  0.29202158  0.21203161  1
  O  O13  1  0.51216498  0.70797842  0.21203161  1
  O  O14  1  0.51216498  0.29202158  0.78796839  1
  O  O15  1  0.48783502  0.70797842  0.78796839  1
  O  O16  1  0.21243102  0.48365523  0.29263421  1
  O  O17  1  0.21243102  0.51634477  0.70736579  1
  O  O18  1  0.78756898  0.51634477  0.29263421  1
  O  O19  1  0.78756898  0.48365523  0.70736579  1
  O  O20  1  0.28937075  0.21720090  0.48546907  1
  O  O21  1  0.71062925  0.21720090  0.51453093  1
  O  O22  1  0.28937075  0.78279910  0.51453093  1
  O  O23  1  0.71062925  0.78279910  0.48546907  1
loop_
_geom_bond_atom_site_label_1
_geom_bond_atom_site_label_2
_geom_bond_distance
_geom_bond_site_symmetry_2
Ba0 O1 3.112716 1_445
Ba0 O0 3.112716 1_555
Ba0 O2 3.112716 1_454
Ba0 O3 3.112716 1_544
Ba0 O6 3.121522 1_445
Ba0 O7 3.121522 1_454
Ba0 O4 3.121522 1_555
Ba0 O5 3.121522 1_544
Ba0 O11 3.125596 1_445
Ba0 O10 3.125596 1_544
Ba0 O8 3.125596 1_555
Ba0 O9 3.125596 1_454
Ba1 O22 3.110192 1_555
Ba1 O20 3.110192 1_555
Ba1 O23 3.110192 1_555
Ba1 O21 3.110192 1_555
Ba1 O14 3.124563 1_555
Ba1 O15 3.124563 1_555
Ba1 O12 3.124563 1_555
Ba1 O13 3.124563 1_555
Ba1 O16 3.126728 1_555
Ba1 O17 3.126728 1_555
Ba1 O18 3.126728 1_555
Ba1 O19 3.126728 1_555
Ba2 O20 2.670106 1_555
Ba2 O21 2.670106 1_555
Ba2 O23 2.670106 1_545
Ba2 O22 2.670106 1_545
Ba2 O5 3.193767 1_545
Ba2 O4 3.193767 1_555
Ba2 O6 3.193767 1_545
Ba2 O7 3.193767 1_555
Ba3 O0 2.666007 1_555
Ba3 O2 2.666007 1_455
Ba3 O3 2.666007 1_545
Ba3 O1 2.666007 1_445
Ba3 O23 3.192948 1_445
Ba3 O20 3.192948 1_555
Ba3 O22 3.192948 1_545
Ba3 O21 3.192948 1_455
Ce0 O3 2.356573 1_655
Ce0 O11 2.360060 1_556
Ce0 O15 2.369213 1_555
Ce0 O23 2.372834 1_555
Ce0 O19 2.388292 1_555
Ce0 O7 2.412161 1_565
Ce1 O2 2.356573 1_455
Ce1 O8 2.360060 1_556
Ce1 O14 2.369213 1_555
Ce1 O20 2.372834 1_555
Ce1 O17 2.388292 1_555
Ce1 O5 2.412161 1_545
Ce2 O1 2.356573 1_455
Ce2 O10 2.360060 1_554
Ce2 O13 2.369213 1_555
Ce2 O22 2.372834 1_555
Ce2 O16 2.388292 1_555
Ce2 O4 2.412161 1_565
Ce3 O0 2.356573 1_655
Ce3 O9 2.360060 1_554
Ce3 O12 2.369213 1_555
Ce3 O21 2.372834 1_555
Ce3 O18 2.388292 1_555
Ce3 O6 2.412161 1_545
Eu0 O17 2.617492 1_555
Eu0 O18 2.617492 1_455
Eu0 O19 2.617492 1_455
Eu0 O16 2.617492 1_555
Eu0 O0 3.173604 1_555
Eu0 O1 3.173604 1_455
Eu0 O2 3.173604 1_455
Eu0 O3 3.173604 1_555
Eu1 O15 2.614220 1_554
Eu1 O12 2.614220 1_555
Eu1 O13 2.614220 1_555
Eu1 O14 2.614220 1_554
Eu1 O8 3.190989 1_555
Eu1 O9 3.190989 1_554
Eu1 O10 3.190989 1_554
Eu1 O11 3.190989 1_555
Eu2 O4 2.604778 1_555
Eu2 O5 2.604778 1_544
Eu2 O7 2.604778 1_554
Eu2 O6 2.604778 1_545
Eu2 O13 3.176988 1_545
Eu2 O15 3.176988 1_544
Eu2 O12 3.176988 1_555
Eu2 O14 3.176988 1_554
Eu3 O8 2.622167 1_555
Eu3 O9 2.622167 1_454
Eu3 O10 2.622167 1_554
Eu3 O11 2.622167 1_455
Eu3 O17 3.184324 1_554
Eu3 O18 3.184324 1_455
Eu3 O19 3.184324 1_454
Eu3 O16 3.184324 1_555
O0 W0 2.136430 1_555
O1 W1 2.136430 1_555
O2 W2 2.136430 1_555
O3 W3 2.136430 1_555
O4 W0 2.128847 1_555
O5 W3 2.128847 1_555
O6 W1 2.128847 1_555
O7 W2 2.128847 1_555
O8 W0 2.138478 1_555
O9 W2 2.138478 1_555
O10 W3 2.138478 1_555
O11 W1 2.138478 1_555
O12 W0 2.162633 1_555
O13 W1 2.162633 1_555
O14 W2 2.162633 1_555
O15 W3 2.162633 1_555
O16 W0 2.108704 1_555
O17 W3 2.108704 1_555
O18 W1 2.108704 1_555
O19 W2 2.108704 1_555
O20 W0 2.115330 1_555
O21 W2 2.115330 1_555
O22 W3 2.115330 1_555
O23 W1 2.115330 1_555
