# generated using pymatgen
data_V3(O2F)2
_symmetry_space_group_name_H-M   'P 1'
_cell_length_a   4.66779012
_cell_length_b   9.23725332
_cell_length_c   4.67650760
_cell_angle_alpha   90.39818478
_cell_angle_beta   89.99057546
_cell_angle_gamma   90.02275318
_symmetry_Int_Tables_number   1
_chemical_formula_structural   V3(O2F)2
_chemical_formula_sum   'V6 O8 F4'
_cell_volume   201.63470814
_cell_formula_units_Z   2
loop_
 _symmetry_equiv_pos_site_id
 _symmetry_equiv_pos_as_xyz
  1  'x, y, z'
loop_
 _atom_site_type_symbol
 _atom_site_label
 _atom_site_symmetry_multiplicity
 _atom_site_fract_x
 _atom_site_fract_y
 _atom_site_fract_z
 _atom_site_occupancy
  V  V0  1  0.49813900  0.50212900  0.49291500  1
  V  V1  1  0.02243500  0.65872900  0.03019100  1
  V  V2  1  0.52751600  0.84457600  0.45726300  1
  V  V3  1  0.00164000  0.00211800  0.99332100  1
  V  V4  1  0.97278400  0.34461700  0.95689700  1
  V  V5  1  0.47738500  0.15875700  0.52979300  1
  O  O0  1  0.80808900  0.49526000  0.20085100  1
  O  O1  1  0.30303700  0.99474500  0.30317100  1
  O  O2  1  0.69171000  0.99526400  0.70147300  1
  O  O3  1  0.19721400  0.49468800  0.80302900  1
  O  O4  1  0.80650400  0.83173000  0.20144000  1
  O  O5  1  0.31752900  0.67184200  0.31526700  1
  O  O6  1  0.69353300  0.33161000  0.70073400  1
  O  O7  1  0.18264500  0.17190300  0.81528900  1
  F  F0  1  0.79248900  0.17235200  0.20326400  1
  F  F1  1  0.28632500  0.32871900  0.29581100  1
  F  F2  1  0.70778700  0.67236200  0.70322700  1
  F  F3  1  0.21323800  0.82859900  0.79606300  1
loop_
_geom_bond_atom_site_label_1
_geom_bond_atom_site_label_2
_geom_bond_distance
_geom_bond_site_symmetry_2
O0 V4 1.951252 1_554
O0 V1 1.983280 1_655
O0 V0 1.990211 1_555
O1 V2 1.885919 1_555
O1 V5 2.014386 1_565
O1 V3 2.021300 1_564
O2 V2 1.951034 1_555
O2 V5 1.986086 1_565
O2 V3 1.989736 1_665
O3 V4 1.883974 1_455
O3 V1 2.017061 1_556
O3 V0 2.020308 1_555
O4 V2 1.771684 1_555
O4 V1 2.047990 1_655
O4 V3 2.067362 1_664
O5 V1 1.920299 1_555
O5 V0 1.969245 1_555
O5 V2 1.982888 1_555
O6 V4 1.773972 1_555
O6 V5 2.046375 1_555
O6 V0 2.068843 1_555
O7 V5 1.920250 1_555
O7 V3 1.970683 1_555
O7 V4 1.982371 1_455
F0 V3 2.090269 1_654
F0 V5 2.124310 1_555
F0 V4 2.142865 1_554
F1 V0 2.090827 1_555
F1 V5 2.117268 1_555
F1 V4 2.163264 1_454
F2 V0 2.091716 1_555
F2 V1 2.124741 1_656
F2 V2 2.142092 1_555
F3 V3 2.091891 1_565
F3 V1 2.115810 1_556
F3 V2 2.164824 1_555
