# generated using pymatgen
data_SrCa7Mn6Cr2O20
_symmetry_space_group_name_H-M   'P 1'
_cell_length_a   7.86685896
_cell_length_b   7.85918304
_cell_length_c   7.64952685
_cell_angle_alpha   88.46811758
_cell_angle_beta   88.55332731
_cell_angle_gamma   90.68462307
_symmetry_Int_Tables_number   1
_chemical_formula_structural   SrCa7Mn6Cr2O20
_chemical_formula_sum   'Sr1 Ca7 Mn6 Cr2 O20'
_cell_volume   472.59050763
_cell_formula_units_Z   1
loop_
 _symmetry_equiv_pos_site_id
 _symmetry_equiv_pos_as_xyz
  1  'x, y, z'
loop_
 _atom_site_type_symbol
 _atom_site_label
 _atom_site_symmetry_multiplicity
 _atom_site_fract_x
 _atom_site_fract_y
 _atom_site_fract_z
 _atom_site_occupancy
  Sr  Sr0  1  0.24702700  0.25723900  0.25701500  1
  Ca  Ca0  1  0.27165900  0.28102600  0.70038600  1
  Ca  Ca1  1  0.25176400  0.73195100  0.26860700  1
  Ca  Ca2  1  0.25710500  0.71970200  0.70995300  1
  Ca  Ca3  1  0.73423300  0.25474400  0.26230800  1
  Ca  Ca4  1  0.72016800  0.26205400  0.71472700  1
  Ca  Ca5  1  0.74115700  0.74567500  0.27029500  1
  Ca  Ca6  1  0.72786200  0.73392000  0.72463600  1
  Mn  Mn0  1  0.00106800  0.00085800  0.52215000  1
  Mn  Mn1  1  0.99673400  0.48920100  0.00114100  1
  Mn  Mn2  1  0.99758600  0.50732700  0.49292300  1
  Mn  Mn3  1  0.50751000  0.00039900  0.49270700  1
  Mn  Mn4  1  0.50288600  0.50568600  0.99677800  1
  Mn  Mn5  1  0.50472700  0.50456800  0.48879000  1
  Cr  Cr0  1  0.02832900  0.01803500  0.98036200  1
  Cr  Cr1  1  0.47399500  0.99621500  0.00438500  1
  O  O0  1  0.93963700  0.92739800  0.79255400  1
  O  O1  1  0.01341000  0.53215600  0.24266000  1
  O  O2  1  0.00461300  0.52122200  0.74864800  1
  O  O3  1  0.54480600  0.01316900  0.24158800  1
  O  O4  1  0.52546900  0.99985500  0.75178700  1
  O  O5  1  0.50329500  0.50778100  0.74267900  1
  O  O6  1  0.23331900  0.95626600  0.06162400  1
  O  O7  1  0.25044000  0.00309600  0.51477700  1
  O  O8  1  0.25361900  0.51069800  0.00698600  1
  O  O9  1  0.26154500  0.50294800  0.48385500  1
  O  O10  1  0.76281900  0.00695200  0.47715100  1
  O  O11  1  0.74840900  0.51524000  0.02874000  1
  O  O12  1  0.74364300  0.50195200  0.47534100  1
  O  O13  1  0.95857100  0.21760600  0.05781000  1
  O  O14  1  0.00553800  0.24944200  0.51878500  1
  O  O15  1  0.00691300  0.76368200  0.46870200  1
  O  O16  1  0.50482300  0.25507900  0.00906300  1
  O  O17  1  0.50091500  0.26252100  0.48534800  1
  O  O18  1  0.52371400  0.75019100  0.03255900  1
  O  O19  1  0.50069100  0.74414800  0.47218100  1
loop_
_geom_bond_atom_site_label_1
_geom_bond_atom_site_label_2
_geom_bond_distance
_geom_bond_site_symmetry_2
Ca0 O9 2.376414 1_555
Ca0 O17 2.418458 1_555
Ca0 O14 2.554828 1_555
Ca0 O5 2.565961 1_555
Ca0 O7 2.642727 1_555
Ca0 O2 2.864640 1_555
Ca0 O8 2.999099 1_556
Ca0 O4 3.020445 1_545
Ca0 O16 3.030418 1_556
Ca1 O6 2.346139 1_555
Ca1 O9 2.409874 1_555
Ca1 O1 2.446648 1_555
Ca1 O15 2.449147 1_555
Ca1 O19 2.535056 1_555
Ca1 O8 2.685922 1_555
Ca1 O18 2.764366 1_555
Ca1 O7 2.881193 1_565
Ca2 O9 2.459752 1_555
Ca2 O2 2.517522 1_555
Ca2 O5 2.582032 1_555
Ca2 O19 2.610302 1_555
Ca2 O7 2.649789 1_565
Ca2 O15 2.750390 1_555
Ca2 O8 2.767279 1_556
Ca2 O4 3.060720 1_555
Ca2 O0 3.061697 1_455
Ca3 O13 2.354619 1_555
Ca3 O3 2.410565 1_555
Ca3 O17 2.476652 1_555
Ca3 O10 2.530223 1_555
Ca3 O12 2.570543 1_555
Ca3 O11 2.680479 1_555
Ca3 O16 2.680711 1_555
Ca3 O14 2.935200 1_655
Ca4 O17 2.491274 1_555
Ca4 O4 2.558155 1_545
Ca4 O12 2.594631 1_555
Ca4 O5 2.601636 1_555
Ca4 O14 2.672011 1_655
Ca4 O10 2.759531 1_555
Ca4 O16 2.782251 1_556
Ca4 O2 3.028529 1_655
Ca5 O19 2.411356 1_555
Ca5 O12 2.443645 1_555
Ca5 O18 2.527776 1_555
Ca5 O15 2.618971 1_655
Ca5 O11 2.621726 1_555
Ca5 O3 2.631323 1_565
Ca5 O10 2.632186 1_565
Ca5 O1 2.744058 1_655
Ca6 O0 2.320142 1_555
Ca6 O5 2.489634 1_555
Ca6 O4 2.651885 1_555
Ca6 O19 2.664404 1_555
Ca6 O12 2.674878 1_555
Ca6 O2 2.767467 1_655
Ca6 O18 2.823795 1_556
Ca6 O10 2.829580 1_565
Ca6 O11 2.864120 1_556
Ca6 O15 2.907399 1_655
Mn0 O10 1.915076 1_455
Mn0 O15 1.919805 1_545
Mn0 O14 1.953033 1_555
Mn0 O7 1.961016 1_555
Mn0 O0 2.173571 1_445
Mn1 O1 1.894461 1_655
Mn1 O2 1.940432 1_654
Mn1 O11 1.973271 1_555
Mn1 O8 2.027634 1_655
Mn1 O13 2.182394 1_555
Mn2 O1 1.919867 1_655
Mn2 O2 1.964266 1_655
Mn2 O12 2.005659 1_555
Mn2 O15 2.018592 1_655
Mn2 O14 2.032989 1_655
Mn2 O9 2.076663 1_655
Mn3 O3 1.935640 1_555
Mn3 O4 1.990318 1_545
Mn3 O10 2.008964 1_555
Mn3 O19 2.024394 1_545
Mn3 O7 2.025527 1_555
Mn3 O17 2.060638 1_555
Mn4 O5 1.943288 1_555
Mn4 O18 1.953768 1_556
Mn4 O11 1.953829 1_556
Mn4 O8 1.961440 1_556
Mn4 O16 1.969555 1_556
Mn5 O12 1.880125 1_555
Mn5 O19 1.884494 1_555
Mn5 O17 1.903066 1_555
Mn5 O9 1.914301 1_555
Mn5 O5 1.942720 1_555
Cr0 O0 1.775284 1_445
Cr0 O13 1.779342 1_456
Cr0 O6 1.809925 1_546
Cr1 O3 1.919020 1_565
Cr1 O6 1.952358 1_555
Cr1 O4 1.963584 1_554
Cr1 O18 1.984462 1_555
Cr1 O16 2.047355 1_565
O1 Sr0 2.854886 1_555
O3 Sr0 3.047395 1_555
O6 Sr0 2.834043 1_565
O7 Sr0 2.769723 1_555
O8 Sr0 2.723518 1_555
O9 Sr0 2.633811 1_555
O13 Sr0 2.784172 1_655
O14 Sr0 2.724168 1_555
O16 Sr0 2.742098 1_555
O17 Sr0 2.686955 1_555
