# generated using pymatgen
data_YbBiO3
_symmetry_space_group_name_H-M   'P 1'
_cell_length_a   5.99154982
_cell_length_b   5.99154982
_cell_length_c   5.99155007
_cell_angle_alpha   59.15225328
_cell_angle_beta   59.15225328
_cell_angle_gamma   59.15225340
_symmetry_Int_Tables_number   1
_chemical_formula_structural   YbBiO3
_chemical_formula_sum   'Yb2 Bi2 O6'
_cell_volume   149.15223543
_cell_formula_units_Z   2
loop_
 _symmetry_equiv_pos_site_id
 _symmetry_equiv_pos_as_xyz
  1  'x, y, z'
loop_
 _atom_site_type_symbol
 _atom_site_label
 _atom_site_symmetry_multiplicity
 _atom_site_fract_x
 _atom_site_fract_y
 _atom_site_fract_z
 _atom_site_occupancy
  Yb  Yb0  1  0.77708642  0.77708642  0.77708642  1
  Yb  Yb1  1  0.27708642  0.27708642  0.27708642  1
  Bi  Bi0  1  0.99215186  0.99215186  0.99215186  1
  Bi  Bi1  1  0.49215186  0.49215186  0.49215186  1
  O  O0  1  0.13362453  0.58664186  0.93208333  1
  O  O1  1  0.08664186  0.63362453  0.43208333  1
  O  O2  1  0.43208333  0.08664186  0.63362453  1
  O  O3  1  0.93208333  0.13362453  0.58664186  1
  O  O4  1  0.58664186  0.93208333  0.13362453  1
  O  O5  1  0.63362453  0.43208333  0.08664186  1
loop_
_geom_bond_atom_site_label_1
_geom_bond_atom_site_label_2
_geom_bond_distance
_geom_bond_site_symmetry_2
Bi0 O4 2.285395 1_556
Bi0 O0 2.285395 1_655
Bi0 O3 2.285395 1_565
Bi0 O5 2.521765 1_566
Bi0 O2 2.521765 1_665
Bi0 O1 2.521766 1_656
Bi1 O2 2.285395 1_555
Bi1 O1 2.285395 1_555
Bi1 O5 2.285395 1_555
Bi1 O3 2.521765 1_555
Bi1 O4 2.521765 1_555
Bi1 O0 2.521766 1_555
O0 Yb1 2.169615 1_556
O0 Yb0 2.275055 1_455
O1 Yb0 2.169615 1_455
O1 Yb1 2.275055 1_555
O2 Yb0 2.169615 1_545
O2 Yb1 2.275055 1_555
O3 Yb1 2.169615 1_655
O3 Yb0 2.275055 1_545
O4 Yb1 2.169615 1_565
O4 Yb0 2.275055 1_554
O5 Yb0 2.169615 1_554
O5 Yb1 2.275055 1_555
