# generated using pymatgen
data_Co3P4H8N2(O3F)4
_symmetry_space_group_name_H-M   'P 1'
_cell_length_a   7.65278700
_cell_length_b   9.77113600
_cell_length_c   10.66640719
_cell_angle_alpha   81.93356176
_cell_angle_beta   90.00000000
_cell_angle_gamma   90.00000000
_symmetry_Int_Tables_number   1
_chemical_formula_structural   Co3P4H8N2(O3F)4
_chemical_formula_sum   'Co6 P8 H16 N4 O24 F8'
_cell_volume   789.70437679
_cell_formula_units_Z   2
loop_
 _symmetry_equiv_pos_site_id
 _symmetry_equiv_pos_as_xyz
  1  'x, y, z'
loop_
 _atom_site_type_symbol
 _atom_site_label
 _atom_site_symmetry_multiplicity
 _atom_site_fract_x
 _atom_site_fract_y
 _atom_site_fract_z
 _atom_site_occupancy
  Co  Co0  1  0.50000000  0.50000000  0.50000000  1
  Co  Co1  1  0.00000000  0.00000000  0.50000000  1
  Co  Co2  1  0.96335700  0.42132000  0.63742200  1
  Co  Co3  1  0.46335700  0.07868000  0.36257800  1
  Co  Co4  1  0.03664300  0.57868000  0.36257800  1
  Co  Co5  1  0.53664300  0.92132000  0.63742200  1
  P  P0  1  0.92213600  0.77763900  0.76007400  1
  P  P1  1  0.42213600  0.72236100  0.23992600  1
  P  P2  1  0.07786400  0.22236100  0.23992600  1
  P  P3  1  0.57786400  0.27763900  0.76007400  1
  P  P4  1  0.69440700  0.79375400  0.40659200  1
  P  P5  1  0.19440700  0.70624600  0.59340800  1
  P  P6  1  0.30559300  0.20624600  0.59340800  1
  P  P7  1  0.80559300  0.29375400  0.40659200  1
  H  H0  1  0.79898700  0.47554700  0.97415900  1
  H  H1  1  0.29898700  0.02445300  0.02584100  1
  H  H2  1  0.20101300  0.52445300  0.02584100  1
  H  H3  1  0.70101300  0.97554700  0.97415900  1
  H  H4  1  0.91449200  0.58001300  0.14669500  1
  H  H5  1  0.41449200  0.91998700  0.85330500  1
  H  H6  1  0.08550800  0.41998700  0.85330500  1
  H  H7  1  0.58550800  0.08001300  0.14669500  1
  H  H8  1  0.63984900  0.56675600  0.02579800  1
  H  H9  1  0.13984900  0.93324400  0.97420200  1
  H  H10  1  0.36015100  0.43324400  0.97420200  1
  H  H11  1  0.86015100  0.06675600  0.02579800  1
  H  H12  1  0.69707300  0.41844300  0.10742800  1
  H  H13  1  0.19707300  0.08155700  0.89257200  1
  H  H14  1  0.30292700  0.58155700  0.89257200  1
  H  H15  1  0.80292700  0.91844300  0.10742800  1
  N  N0  1  0.74443400  0.50545400  0.05390200  1
  N  N1  1  0.24443400  0.99454600  0.94609800  1
  N  N2  1  0.25556600  0.49454600  0.94609800  1
  N  N3  1  0.75556600  0.00545400  0.05390200  1
  O  O0  1  0.60686700  0.78102300  0.26073800  1
  O  O1  1  0.10686700  0.71897700  0.73926200  1
  O  O2  1  0.39313300  0.21897700  0.73926200  1
  O  O3  1  0.89313300  0.28102300  0.26073800  1
  O  O4  1  0.69395800  0.64508900  0.47033200  1
  O  O5  1  0.19395800  0.85491100  0.52966800  1
  O  O6  1  0.30604200  0.35491100  0.52966800  1
  O  O7  1  0.80604200  0.14508900  0.47033200  1
  O  O8  1  0.63133200  0.36368100  0.38280700  1
  O  O9  1  0.13133200  0.13631900  0.61719300  1
  O  O10  1  0.36866800  0.63631900  0.61719300  1
  O  O11  1  0.86866800  0.86368100  0.38280700  1
  O  O12  1  0.64206700  0.39485800  0.66795900  1
  O  O13  1  0.14206700  0.10514200  0.33204100  1
  O  O14  1  0.35793300  0.60514200  0.33204100  1
  O  O15  1  0.85793300  0.89485800  0.66795900  1
  O  O16  1  0.05544100  0.61269500  0.54213700  1
  O  O17  1  0.55544100  0.88730500  0.45786300  1
  O  O18  1  0.94455900  0.38730500  0.45786300  1
  O  O19  1  0.44455900  0.11269500  0.54213700  1
  O  O20  1  0.98110600  0.39014900  0.80777600  1
  O  O21  1  0.48110600  0.10985100  0.19222400  1
  O  O22  1  0.01889400  0.60985100  0.19222400  1
  O  O23  1  0.51889400  0.89014900  0.80777600  1
  F  F0  1  0.79110900  0.65619000  0.77420800  1
  F  F1  1  0.29110900  0.84381000  0.22579200  1
  F  F2  1  0.20889100  0.34381000  0.22579200  1
  F  F3  1  0.70889100  0.15619000  0.77420800  1
  F  F4  1  0.93322000  0.80742800  0.89845000  1
  F  F5  1  0.43322000  0.69257200  0.10155000  1
  F  F6  1  0.06678000  0.19257200  0.10155000  1
  F  F7  1  0.56678000  0.30742800  0.89845000  1
loop_
_geom_bond_atom_site_label_1
_geom_bond_atom_site_label_2
_geom_bond_distance
_geom_bond_site_symmetry_2
Co0 O4 2.046282 1_555
Co0 O6 2.046282 1_555
Co0 O10 2.194125 1_555
Co0 O8 2.194125 1_555
Co0 O12 2.220472 1_555
Co0 O14 2.220472 1_555
Co1 O5 2.046282 1_545
Co1 O7 2.046282 1_455
Co1 O9 2.194125 1_555
Co1 O11 2.194125 1_445
Co1 O13 2.220472 1_555
Co1 O15 2.220472 1_445
Co2 O20 1.804889 1_555
Co2 O18 1.994489 1_555
Co2 O16 2.119650 1_655
Co2 O12 2.488942 1_555
Co3 O21 1.804889 1_555
Co3 O19 1.994489 1_555
Co3 O17 2.119650 1_545
Co3 O13 2.488942 1_555
Co4 O22 1.804889 1_555
Co4 O16 1.994489 1_555
Co4 O18 2.119650 1_455
Co4 O14 2.488942 1_555
Co5 O23 1.804889 1_555
Co5 O17 1.994489 1_555
Co5 O19 2.119650 1_565
Co5 O15 2.488942 1_555
H0 N0 1.026116 1_556
H1 N1 1.026116 1_544
H2 N2 1.026116 1_554
H3 N3 1.026116 1_566
H4 O22 0.999461 1_655
H5 O23 0.999461 1_555
H6 O20 0.999461 1_455
H7 O21 0.999461 1_555
H8 N0 1.019238 1_555
H9 N1 1.019238 1_555
H10 N2 1.019238 1_555
H11 N3 1.019238 1_555
H12 N0 1.021732 1_555
H13 N1 1.021732 1_545
H14 N2 1.021732 1_555
H15 N3 1.021732 1_565
O0 P1 1.553096 1_555
O0 P4 1.714324 1_555
O1 P0 1.553096 1_455
O1 P5 1.714324 1_555
O2 P3 1.553096 1_555
O2 P6 1.714324 1_555
O3 P2 1.553096 1_655
O3 P7 1.714324 1_555
O4 P4 1.514992 1_555
O5 P5 1.514992 1_555
O6 P6 1.514992 1_555
O7 P7 1.514992 1_555
O8 P7 1.503666 1_555
O9 P6 1.503666 1_555
O10 P5 1.503666 1_555
O11 P4 1.503666 1_555
O12 P3 1.484189 1_555
O13 P2 1.484189 1_555
O14 P1 1.484189 1_555
O15 P0 1.484189 1_555
O16 P5 1.551106 1_555
O17 P4 1.551106 1_555
O18 P7 1.551106 1_555
O19 P6 1.551106 1_555
F0 P0 1.544738 1_555
F1 P1 1.544738 1_555
F2 P2 1.544738 1_555
F3 P3 1.544738 1_555
F4 P0 1.546282 1_555
F5 P1 1.546282 1_555
F6 P2 1.546282 1_555
F7 P3 1.546282 1_555
