# generated using pymatgen
data_EuWO5
_symmetry_space_group_name_H-M   'P 1'
_cell_length_a   5.39752918
_cell_length_b   6.74364983
_cell_length_c   13.04386600
_cell_angle_alpha   90.00000000
_cell_angle_beta   90.00000000
_cell_angle_gamma   110.41865815
_symmetry_Int_Tables_number   1
_chemical_formula_structural   EuWO5
_chemical_formula_sum   'Eu4 W4 O20'
_cell_volume   444.95284551
_cell_formula_units_Z   4
loop_
 _symmetry_equiv_pos_site_id
 _symmetry_equiv_pos_as_xyz
  1  'x, y, z'
loop_
 _atom_site_type_symbol
 _atom_site_label
 _atom_site_symmetry_multiplicity
 _atom_site_fract_x
 _atom_site_fract_y
 _atom_site_fract_z
 _atom_site_occupancy
  Eu  Eu0  1  0.15510900  0.78918100  0.44178400  1
  Eu  Eu1  1  0.84489100  0.21081900  0.55821600  1
  Eu  Eu2  1  0.34489100  0.71081900  0.94178400  1
  Eu  Eu3  1  0.65510900  0.28918100  0.05821600  1
  W  W0  1  0.95359300  0.84633200  0.13920100  1
  W  W1  1  0.04640700  0.15366800  0.86079900  1
  W  W2  1  0.54640700  0.65366800  0.63920100  1
  W  W3  1  0.45359300  0.34633200  0.36079900  1
  O  O0  1  0.04748200  0.57787800  0.09129100  1
  O  O1  1  0.95251800  0.42212200  0.90870900  1
  O  O2  1  0.45251800  0.92212200  0.59129100  1
  O  O3  1  0.54748200  0.07787800  0.40870900  1
  O  O4  1  0.85401900  0.83984600  0.57344600  1
  O  O5  1  0.14598100  0.16015400  0.42655400  1
  O  O6  1  0.64598100  0.66015400  0.07344600  1
  O  O7  1  0.35401900  0.33984600  0.92655400  1
  O  O8  1  0.26612300  0.97422700  0.06475500  1
  O  O9  1  0.73387700  0.02577300  0.93524500  1
  O  O10  1  0.23387700  0.52577300  0.56475500  1
  O  O11  1  0.76612300  0.47422700  0.43524500  1
  O  O12  1  0.99576100  0.78863200  0.27181200  1
  O  O13  1  0.00423900  0.21136800  0.72818800  1
  O  O14  1  0.50423900  0.71136800  0.77181200  1
  O  O15  1  0.49576100  0.28863200  0.22818800  1
  O  O16  1  0.14986100  0.92581200  0.85110600  1
  O  O17  1  0.85013900  0.07418800  0.14889400  1
  O  O18  1  0.35013900  0.57418800  0.35110600  1
  O  O19  1  0.64986100  0.42581200  0.64889400  1
loop_
_geom_bond_atom_site_label_1
_geom_bond_atom_site_label_2
_geom_bond_distance
_geom_bond_site_symmetry_2
Eu0 O3 2.363206 1_565
Eu0 O12 2.377611 1_455
Eu0 O18 2.382034 1_555
Eu0 O11 2.411438 1_455
Eu0 O4 2.468736 1_455
Eu0 O2 2.485869 1_555
Eu0 O5 2.527144 1_565
Eu0 O10 2.536914 1_555
Eu1 O2 2.363206 1_545
Eu1 O13 2.377611 1_655
Eu1 O19 2.382034 1_555
Eu1 O10 2.411438 1_655
Eu1 O5 2.468736 1_655
Eu1 O3 2.485869 1_555
Eu1 O4 2.527144 1_545
Eu1 O11 2.536914 1_555
Eu2 O1 2.363206 1_455
Eu2 O14 2.377611 1_555
Eu2 O16 2.382034 1_555
Eu2 O9 2.411438 1_565
Eu2 O6 2.468736 1_556
Eu2 O0 2.485869 1_556
Eu2 O7 2.527144 1_555
Eu2 O8 2.536914 1_556
Eu3 O0 2.363206 1_655
Eu3 O15 2.377611 1_555
Eu3 O17 2.382034 1_555
Eu3 O8 2.411438 1_545
Eu3 O7 2.468736 1_554
Eu3 O1 2.485869 1_554
Eu3 O6 2.527144 1_555
Eu3 O9 2.536914 1_554
O0 W0 2.136563 1_455
O1 W1 2.136563 1_655
O2 W2 2.136563 1_555
O3 W3 2.136563 1_555
O4 W2 1.901101 1_555
O5 W3 1.901101 1_555
O6 W0 1.901101 1_555
O7 W1 1.901101 1_555
O8 W0 1.875437 1_455
O9 W1 1.875437 1_655
O10 W2 1.875437 1_555
O11 W3 1.875437 1_555
O12 W0 1.804736 1_555
O13 W1 1.804736 1_555
O14 W2 1.804736 1_555
O15 W3 1.804736 1_555
O16 W1 1.813163 1_565
O17 W0 1.813163 1_545
O18 W3 1.813163 1_555
O19 W2 1.813163 1_555
