# generated using pymatgen
data_Mg2Ti
_symmetry_space_group_name_H-M   'P 1'
_cell_length_a   4.85453900
_cell_length_b   8.34435200
_cell_length_c   12.43112883
_cell_angle_alpha   79.09029700
_cell_angle_beta   90.00000000
_cell_angle_gamma   90.00000000
_symmetry_Int_Tables_number   1
_chemical_formula_structural   Mg2Ti
_chemical_formula_sum   'Mg16 Ti8'
_cell_volume   494.45894305
_cell_formula_units_Z   8
loop_
 _symmetry_equiv_pos_site_id
 _symmetry_equiv_pos_as_xyz
  1  'x, y, z'
loop_
 _atom_site_type_symbol
 _atom_site_label
 _atom_site_symmetry_multiplicity
 _atom_site_fract_x
 _atom_site_fract_y
 _atom_site_fract_z
 _atom_site_occupancy
  Mg  Mg0  1  0.25000000  0.28218400  0.39988400  1
  Mg  Mg1  1  0.25000000  0.28619400  0.15351600  1
  Mg  Mg2  1  0.75000000  0.05872100  0.42775400  1
  Mg  Mg3  1  0.75000000  0.05642400  0.17993300  1
  Mg  Mg4  1  0.75000000  0.06409000  0.68126300  1
  Mg  Mg5  1  0.75000000  0.05995000  0.93036700  1
  Mg  Mg6  1  0.25000000  0.94127900  0.57224600  1
  Mg  Mg7  1  0.25000000  0.93591000  0.31873700  1
  Mg  Mg8  1  0.25000000  0.94357600  0.82006700  1
  Mg  Mg9  1  0.25000000  0.94005000  0.06963300  1
  Mg  Mg10  1  0.75000000  0.71380600  0.84648400  1
  Mg  Mg11  1  0.75000000  0.71781600  0.60011600  1
  Mg  Mg12  1  0.25000000  0.61137700  0.98773400  1
  Mg  Mg13  1  0.25000000  0.61034400  0.48533200  1
  Mg  Mg14  1  0.75000000  0.38862300  0.01226600  1
  Mg  Mg15  1  0.75000000  0.38965600  0.51466800  1
  Ti  Ti0  1  0.25000000  0.28934500  0.88182100  1
  Ti  Ti1  1  0.25000000  0.28992900  0.67138900  1
  Ti  Ti2  1  0.75000000  0.71065500  0.11817900  1
  Ti  Ti3  1  0.75000000  0.71007100  0.32861100  1
  Ti  Ti4  1  0.25000000  0.57786300  0.74015100  1
  Ti  Ti5  1  0.25000000  0.61288800  0.23665100  1
  Ti  Ti6  1  0.75000000  0.42213700  0.25984900  1
  Ti  Ti7  1  0.75000000  0.38711200  0.76334900  1
loop_
_geom_bond_atom_site_label_1
_geom_bond_atom_site_label_2
_geom_bond_distance
_geom_bond_site_symmetry_2
Mg0 Mg15 3.035828 1_455
Mg0 Mg15 3.035828 1_555
Mg0 Mg2 3.040406 1_455
Mg0 Mg2 3.040406 1_555
Mg0 Mg1 3.056476 1_555
Mg0 Ti6 3.084847 1_455
Mg0 Ti6 3.084847 1_555
Mg0 Ti5 3.100465 1_555
Mg0 Mg13 3.118891 1_555
Mg0 Mg6 3.221144 1_545
Mg0 Mg7 3.235688 1_545
Mg0 Ti1 3.387939 1_555
Mg1 Mg14 3.022789 1_455
Mg1 Mg14 3.022789 1_555
Mg1 Mg3 3.071990 1_555
Mg1 Mg3 3.071990 1_455
Mg1 Mg12 3.081102 1_554
Mg1 Ti6 3.081109 1_455
Mg1 Ti6 3.081109 1_555
Mg1 Ti5 3.092862 1_555
Mg1 Mg7 3.238728 1_545
Mg1 Mg9 3.251147 1_545
Mg1 Ti0 3.372598 1_554
Mg2 Mg7 3.050258 1_545
Mg2 Mg7 3.050258 1_645
Mg2 Mg6 3.067904 1_645
Mg2 Mg6 3.067904 1_545
Mg2 Mg3 3.084380 1_555
Mg2 Mg4 3.160188 1_555
Mg2 Ti6 3.340152 1_555
Mg2 Ti3 3.367485 1_545
Mg3 Mg9 3.036225 1_545
Mg3 Mg9 3.036225 1_645
Mg3 Mg7 3.037006 1_645
Mg3 Mg7 3.037006 1_545
Mg3 Mg5 3.096953 1_554
Mg3 Ti3 3.121969 1_545
Mg3 Ti2 3.122851 1_545
Mg3 Ti6 3.383338 1_555
Mg4 Mg8 3.037006 1_645
Mg4 Mg8 3.037006 1_545
Mg4 Mg6 3.050258 1_645
Mg4 Mg6 3.050258 1_545
Mg4 Ti7 3.057385 1_555
Mg4 Ti1 3.061113 1_655
Mg4 Ti1 3.061113 1_555
Mg4 Mg5 3.090292 1_555
Mg5 Mg8 3.036225 1_545
Mg5 Mg8 3.036225 1_645
Mg5 Mg9 3.038775 1_546
Mg5 Mg9 3.038775 1_646
Mg5 Ti0 3.079376 1_655
Mg5 Ti0 3.079376 1_555
Mg5 Ti7 3.101271 1_555
Mg5 Ti2 3.371977 1_546
Mg6 Mg8 3.084380 1_555
Mg6 Mg7 3.160188 1_555
Mg6 Ti4 3.340152 1_555
Mg6 Ti1 3.367485 1_565
Mg7 Ti5 3.057385 1_555
Mg7 Ti3 3.061113 1_555
Mg7 Ti3 3.061113 1_455
Mg7 Mg9 3.090292 1_555
Mg8 Mg9 3.096953 1_556
Mg8 Ti1 3.121969 1_565
Mg8 Ti0 3.122851 1_565
Mg8 Ti4 3.383338 1_555
Mg9 Ti2 3.079376 1_455
Mg9 Ti2 3.079376 1_555
Mg9 Ti5 3.101271 1_555
Mg9 Ti0 3.371977 1_564
Mg10 Mg12 3.022789 1_555
Mg10 Mg12 3.022789 1_655
Mg10 Mg11 3.056476 1_555
Mg10 Mg8 3.071990 1_655
Mg10 Mg8 3.071990 1_555
Mg10 Mg14 3.081102 1_556
Mg10 Ti4 3.081109 1_555
Mg10 Ti4 3.081109 1_655
Mg10 Ti7 3.092862 1_555
Mg10 Mg4 3.238728 1_565
Mg10 Mg5 3.251147 1_565
Mg10 Ti2 3.372598 1_556
Mg11 Mg13 3.035828 1_655
Mg11 Mg13 3.035828 1_555
Mg11 Mg6 3.040406 1_655
Mg11 Mg6 3.040406 1_555
Mg11 Ti4 3.084847 1_555
Mg11 Ti4 3.084847 1_655
Mg11 Ti7 3.100465 1_555
Mg11 Mg15 3.118891 1_555
Mg11 Mg2 3.221144 1_565
Mg11 Mg4 3.235688 1_565
Mg11 Ti3 3.387939 1_555
Mg12 Mg14 3.037265 1_456
Mg12 Mg14 3.037265 1_556
Mg12 Ti5 3.096730 1_556
Mg12 Mg9 3.100820 1_556
Mg12 Ti2 3.117034 1_456
Mg12 Ti2 3.117034 1_556
Mg12 Mg8 3.137069 1_555
Mg12 Ti4 3.142683 1_555
Mg12 Ti0 3.208340 1_555
Mg13 Mg15 3.026804 1_555
Mg13 Mg15 3.026804 1_455
Mg13 Ti5 3.087438 1_555
Mg13 Mg7 3.088594 1_555
Mg13 Ti3 3.125061 1_455
Mg13 Ti3 3.125061 1_555
Mg13 Ti4 3.127735 1_555
Mg13 Mg6 3.149959 1_555
Mg13 Ti1 3.187034 1_555
Mg14 Ti7 3.096730 1_554
Mg14 Mg5 3.100820 1_554
Mg14 Ti0 3.117034 1_654
Mg14 Ti0 3.117034 1_554
Mg14 Mg3 3.137069 1_555
Mg14 Ti6 3.142683 1_555
Mg14 Ti2 3.208340 1_555
Mg15 Ti7 3.087438 1_555
Mg15 Mg4 3.088594 1_555
Mg15 Ti1 3.125061 1_555
Mg15 Ti1 3.125061 1_655
Mg15 Ti6 3.127735 1_555
Mg15 Mg2 3.149959 1_555
Mg15 Ti3 3.187034 1_555
Ti0 Ti1 2.614989 1_555
Ti0 Ti4 2.700496 1_555
Ti0 Ti7 2.875996 1_555
Ti0 Ti7 2.875996 1_455
Ti1 Ti4 2.698268 1_555
Ti1 Ti7 2.864782 1_555
Ti1 Ti7 2.864782 1_455
Ti2 Ti3 2.614989 1_555
Ti2 Ti6 2.700496 1_555
Ti2 Ti5 2.875996 1_655
Ti2 Ti5 2.875996 1_555
Ti3 Ti6 2.698268 1_555
Ti3 Ti5 2.864782 1_555
Ti3 Ti5 2.864782 1_655
Ti4 Ti7 2.886961 1_555
Ti4 Ti7 2.886961 1_455
Ti5 Ti6 2.886961 1_455
Ti5 Ti6 2.886961 1_555
