# generated using pymatgen
data_CaLaGa3S7
_symmetry_space_group_name_H-M   'P 1'
_cell_length_a   6.25553322
_cell_length_b   9.65721270
_cell_length_c   9.66408500
_cell_angle_alpha   90.00000000
_cell_angle_beta   90.00000000
_cell_angle_gamma   89.68810571
_symmetry_Int_Tables_number   1
_chemical_formula_structural   CaLaGa3S7
_chemical_formula_sum   'Ca2 La2 Ga6 S14'
_cell_volume   583.80853225
_cell_formula_units_Z   2
loop_
 _symmetry_equiv_pos_site_id
 _symmetry_equiv_pos_as_xyz
  1  'x, y, z'
loop_
 _atom_site_type_symbol
 _atom_site_label
 _atom_site_symmetry_multiplicity
 _atom_site_fract_x
 _atom_site_fract_y
 _atom_site_fract_z
 _atom_site_occupancy
  Ca  Ca0  1  0.51372900  0.34177100  0.84453200  1
  Ca  Ca1  1  0.48627100  0.15822900  0.34453200  1
  La  La0  1  0.51357400  0.65275100  0.15569300  1
  La  La1  1  0.48642600  0.84724900  0.65569300  1
  Ga  Ga0  1  0.00026100  0.49675300  0.49982000  1
  Ga  Ga1  1  0.99973900  0.00324700  0.99982000  1
  Ga  Ga2  1  0.95662700  0.85084500  0.35033600  1
  Ga  Ga3  1  0.04337300  0.64915500  0.85033600  1
  Ga  Ga4  1  0.95894100  0.15060800  0.65022600  1
  Ga  Ga5  1  0.04105900  0.34939200  0.15022600  1
  S  S0  1  0.31326300  0.13883900  0.64209100  1
  S  S1  1  0.68673700  0.36116100  0.14209100  1
  S  S2  1  0.31193600  0.85567600  0.35847200  1
  S  S3  1  0.68806400  0.64432400  0.85847200  1
  S  S4  1  0.20799600  0.49763200  0.99764100  1
  S  S5  1  0.79200400  0.00236800  0.49764000  1
  S  S6  1  0.23868100  0.42080200  0.33915600  1
  S  S7  1  0.76131900  0.07919800  0.83915600  1
  S  S8  1  0.23499500  0.58452100  0.65764800  1
  S  S9  1  0.76500500  0.91547900  0.15764800  1
  S  S10  1  0.76202600  0.65987900  0.42045200  1
  S  S11  1  0.23797400  0.84012100  0.92045200  1
  S  S12  1  0.76453500  0.34149900  0.58393200  1
  S  S13  1  0.23546500  0.15850100  0.08393200  1
loop_
_geom_bond_atom_site_label_1
_geom_bond_atom_site_label_2
_geom_bond_distance
_geom_bond_site_symmetry_2
Ca0 S4 2.842775 1_555
Ca0 S7 2.964564 1_555
Ca0 S12 2.967176 1_555
Ca0 S0 3.044258 1_555
Ca0 S1 3.078609 1_556
Ca0 S3 3.127168 1_555
Ca0 S13 3.398333 1_556
Ca0 S8 3.428308 1_555
Ca1 S5 2.842770 1_555
Ca1 S6 2.964564 1_555
Ca1 S13 2.967176 1_555
Ca1 S1 3.044258 1_555
Ca1 S0 3.078609 1_555
Ca1 S2 3.127168 1_545
Ca1 S12 3.398333 1_555
Ca1 S9 3.428308 1_545
La0 S4 2.874422 1_554
La0 S9 2.992507 1_555
La0 S10 2.994687 1_555
La0 S1 3.014466 1_555
La0 S2 3.040527 1_555
La0 S3 3.073694 1_554
La0 S6 3.340661 1_555
La0 S11 3.373542 1_554
La1 S5 2.874427 1_565
La1 S8 2.992507 1_555
La1 S11 2.994687 1_555
La1 S0 3.014466 1_565
La1 S3 3.040527 1_555
La1 S2 3.073694 1_555
La1 S7 3.340661 1_565
La1 S10 3.373542 1_555
Ga0 S12 2.259913 1_455
Ga0 S6 2.271842 1_555
Ga0 S8 2.283539 1_555
Ga0 S10 2.294650 1_455
Ga1 S13 2.259913 1_656
Ga1 S7 2.271842 1_555
Ga1 S9 2.283539 1_546
Ga1 S11 2.294650 1_645
Ga2 S2 2.224781 1_655
Ga2 S5 2.282943 1_565
Ga2 S9 2.299120 1_555
Ga2 S10 2.316584 1_555
Ga3 S3 2.224781 1_455
Ga3 S4 2.282949 1_555
Ga3 S8 2.299120 1_555
Ga3 S11 2.316584 1_555
Ga4 S0 2.220160 1_655
Ga4 S12 2.294206 1_555
Ga4 S5 2.308829 1_555
Ga4 S7 2.312315 1_555
Ga5 S1 2.220160 1_455
Ga5 S13 2.294206 1_555
Ga5 S4 2.308823 1_554
Ga5 S6 2.312315 1_555
