# generated using pymatgen
data_Rb2V(OF2)2
_symmetry_space_group_name_H-M   'P 1'
_cell_length_a   6.11951858
_cell_length_b   6.11951858
_cell_length_c   9.29606200
_cell_angle_alpha   90.00000000
_cell_angle_beta   90.00000000
_cell_angle_gamma   88.47219637
_symmetry_Int_Tables_number   1
_chemical_formula_structural   Rb2V(OF2)2
_chemical_formula_sum   'Rb4 V2 O4 F8'
_cell_volume   347.99989294
_cell_formula_units_Z   2
loop_
 _symmetry_equiv_pos_site_id
 _symmetry_equiv_pos_as_xyz
  1  'x, y, z'
loop_
 _atom_site_type_symbol
 _atom_site_label
 _atom_site_symmetry_multiplicity
 _atom_site_fract_x
 _atom_site_fract_y
 _atom_site_fract_z
 _atom_site_occupancy
  Rb  Rb0  1  0.75224000  0.24776000  0.50000000  1
  Rb  Rb1  1  0.75224000  0.24776000  0.00000000  1
  Rb  Rb2  1  0.24776000  0.75224000  0.50000000  1
  Rb  Rb3  1  0.24776000  0.75224000  0.00000000  1
  V  V0  1  0.25364900  0.25364900  0.25000000  1
  V  V1  1  0.74635100  0.74635100  0.75000000  1
  O  O0  1  0.06247600  0.06247600  0.25000000  1
  O  O1  1  0.93752400  0.93752400  0.75000000  1
  O  O2  1  0.47959000  0.47959000  0.25000000  1
  O  O3  1  0.52041000  0.52041000  0.75000000  1
  F  F0  1  0.26267300  0.26267300  0.45437700  1
  F  F1  1  0.73732700  0.73732700  0.54562300  1
  F  F2  1  0.26267300  0.26267300  0.04562300  1
  F  F3  1  0.73732700  0.73732700  0.95437700  1
  F  F4  1  0.07426700  0.50533800  0.25000000  1
  F  F5  1  0.49466200  0.92573300  0.75000000  1
  F  F6  1  0.92573300  0.49466200  0.75000000  1
  F  F7  1  0.50533800  0.07426700  0.25000000  1
loop_
_geom_bond_atom_site_label_1
_geom_bond_atom_site_label_2
_geom_bond_distance
_geom_bond_site_symmetry_2
O0 V0 1.676380 1_555
O0 Rb2 3.190009 1_545
O0 Rb1 3.190009 1_455
O0 Rb3 3.190009 1_545
O0 Rb0 3.190009 1_455
O1 V1 1.676380 1_555
O1 Rb2 3.190009 1_655
O1 Rb1 3.190009 1_566
O1 Rb3 3.190009 1_656
O1 Rb0 3.190009 1_565
O2 V0 1.981258 1_555
O2 Rb3 3.173539 1_555
O2 Rb0 3.173539 1_555
O2 Rb2 3.173539 1_555
O2 Rb1 3.173539 1_555
O3 V1 1.981258 1_555
O3 Rb1 3.173539 1_556
O3 Rb0 3.173539 1_555
O3 Rb3 3.173539 1_556
O3 Rb2 3.173539 1_555
F0 V0 1.901548 1_555
F0 Rb0 3.024752 1_555
F0 Rb2 3.024752 1_555
F0 Rb0 3.155995 1_455
F0 Rb2 3.155995 1_545
F1 V1 1.901548 1_555
F1 Rb0 3.024752 1_555
F1 Rb2 3.024752 1_555
F1 Rb0 3.155995 1_565
F1 Rb2 3.155995 1_655
F2 V0 1.901548 1_555
F2 Rb1 3.024752 1_555
F2 Rb3 3.024752 1_555
F2 Rb1 3.155995 1_455
F2 Rb3 3.155995 1_545
F3 V1 1.901548 1_555
F3 Rb3 3.024752 1_556
F3 Rb1 3.024752 1_556
F3 Rb1 3.155995 1_566
F3 Rb3 3.155995 1_656
F4 V0 1.867383 1_555
F4 Rb3 2.982728 1_555
F4 Rb2 2.982728 1_555
F4 Rb0 3.454667 1_455
F4 Rb1 3.454667 1_455
F5 V1 1.867383 1_555
F5 Rb3 2.982728 1_556
F5 Rb2 2.982728 1_555
F5 Rb0 3.454667 1_565
F5 Rb1 3.454667 1_566
F6 V1 1.867383 1_555
F6 Rb0 2.982728 1_555
F6 Rb1 2.982728 1_556
F6 Rb2 3.454667 1_655
F6 Rb3 3.454667 1_656
F7 V0 1.867383 1_555
F7 Rb1 2.982728 1_555
F7 Rb0 2.982728 1_555
F7 Rb2 3.454667 1_545
F7 Rb3 3.454667 1_545
