# generated using pymatgen
data_CaLu2(GeO3)4
_symmetry_space_group_name_H-M   'P 1'
_cell_length_a   10.00288996
_cell_length_b   10.00288996
_cell_length_c   5.05183300
_cell_angle_alpha   90.00000000
_cell_angle_beta   90.00000000
_cell_angle_gamma   90.14059241
_symmetry_Int_Tables_number   1
_chemical_formula_structural   CaLu2(GeO3)4
_chemical_formula_sum   'Ca2 Lu4 Ge8 O24'
_cell_volume   505.47381252
_cell_formula_units_Z   2
loop_
 _symmetry_equiv_pos_site_id
 _symmetry_equiv_pos_as_xyz
  1  'x, y, z'
loop_
 _atom_site_type_symbol
 _atom_site_label
 _atom_site_symmetry_multiplicity
 _atom_site_fract_x
 _atom_site_fract_y
 _atom_site_fract_z
 _atom_site_occupancy
  Ca  Ca0  1  0.50000000  0.00000000  0.50000000  1
  Ca  Ca1  1  0.00000000  0.50000000  0.50000000  1
  Lu  Lu0  1  0.50000000  0.50000000  0.50000000  1
  Lu  Lu1  1  0.00000000  0.00000000  0.50000000  1
  Lu  Lu2  1  0.25000000  0.25000000  0.50000000  1
  Lu  Lu3  1  0.75000000  0.75000000  0.50000000  1
  Ge  Ge0  1  0.98162800  0.24937000  0.99780800  1
  Ge  Ge1  1  0.01837200  0.75063000  0.00219200  1
  Ge  Ge2  1  0.48162800  0.74937000  0.00219200  1
  Ge  Ge3  1  0.51837200  0.25063000  0.99780800  1
  Ge  Ge4  1  0.25063000  0.51837200  0.00219200  1
  Ge  Ge5  1  0.74937000  0.48162800  0.99780800  1
  Ge  Ge6  1  0.75063000  0.01837200  0.99780800  1
  Ge  Ge7  1  0.24937000  0.98162800  0.00219200  1
  O  O0  1  0.32303400  0.07397700  0.25224700  1
  O  O1  1  0.67029900  0.55822200  0.26509400  1
  O  O2  1  0.82970100  0.94177800  0.26509400  1
  O  O3  1  0.17696600  0.42602300  0.25224700  1
  O  O4  1  0.67696600  0.92602300  0.74775300  1
  O  O5  1  0.32970100  0.44177800  0.73490600  1
  O  O6  1  0.17029900  0.05822200  0.73490600  1
  O  O7  1  0.82303400  0.57397700  0.74775300  1
  O  O8  1  0.42602300  0.17696600  0.74775300  1
  O  O9  1  0.94177800  0.82970100  0.73490600  1
  O  O10  1  0.55822200  0.67029900  0.73490600  1
  O  O11  1  0.07397700  0.32303400  0.74775300  1
  O  O12  1  0.57397700  0.82303400  0.25224700  1
  O  O13  1  0.05822200  0.17029900  0.26509400  1
  O  O14  1  0.44177800  0.32970100  0.26509400  1
  O  O15  1  0.92602300  0.67696600  0.25224700  1
  O  O16  1  0.86987500  0.36987500  0.15052600  1
  O  O17  1  0.12191400  0.87808600  0.17096500  1
  O  O18  1  0.37808600  0.62191400  0.17096500  1
  O  O19  1  0.63012500  0.13012500  0.15052600  1
  O  O20  1  0.13012500  0.63012500  0.84947400  1
  O  O21  1  0.87808600  0.12191400  0.82903500  1
  O  O22  1  0.62191400  0.37808600  0.82903500  1
  O  O23  1  0.36987500  0.86987500  0.84947400  1
loop_
_geom_bond_atom_site_label_1
_geom_bond_atom_site_label_2
_geom_bond_distance
_geom_bond_site_symmetry_2
Ca0 O4 2.292167 1_545
Ca0 O12 2.292167 1_545
Ca0 O8 2.292167 1_555
Ca0 O0 2.292167 1_555
Ca0 O23 2.548937 1_545
Ca0 O19 2.548937 1_555
Ca1 O7 2.292167 1_455
Ca1 O15 2.292167 1_455
Ca1 O3 2.292167 1_555
Ca1 O11 2.292167 1_555
Ca1 O20 2.548937 1_555
Ca1 O16 2.548937 1_455
Lu0 O10 2.155094 1_555
Lu0 O1 2.155094 1_555
Lu0 O14 2.155094 1_555
Lu0 O5 2.155094 1_555
Lu0 O18 2.396796 1_555
Lu0 O22 2.396796 1_555
Lu1 O6 2.155094 1_555
Lu1 O2 2.155094 1_445
Lu1 O9 2.155094 1_445
Lu1 O13 2.155094 1_555
Lu1 O17 2.396796 1_545
Lu1 O21 2.396796 1_455
Lu2 O3 2.281828 1_555
Lu2 O0 2.281828 1_555
Lu2 O8 2.281828 1_555
Lu2 O11 2.281828 1_555
Lu2 O5 2.390892 1_555
Lu2 O13 2.390892 1_555
Lu2 O6 2.390892 1_555
Lu2 O14 2.390892 1_555
Lu3 O7 2.281828 1_555
Lu3 O15 2.281828 1_555
Lu3 O12 2.281828 1_555
Lu3 O4 2.281828 1_555
Lu3 O10 2.390892 1_555
Lu3 O9 2.390892 1_555
Lu3 O1 2.390892 1_555
Lu3 O2 2.390892 1_555
Ge0 O11 1.728787 1_655
Ge0 O13 1.743224 1_656
Ge0 O16 1.817805 1_556
Ge0 O21 1.848952 1_555
Ge1 O15 1.728787 1_455
Ge1 O9 1.743224 1_454
Ge1 O20 1.817805 1_554
Ge1 O17 1.848952 1_555
Ge2 O12 1.728787 1_555
Ge2 O10 1.743224 1_554
Ge2 O23 1.817805 1_554
Ge2 O18 1.848952 1_555
Ge3 O8 1.728787 1_555
Ge3 O14 1.743224 1_556
Ge3 O19 1.817805 1_556
Ge3 O22 1.848952 1_555
Ge4 O3 1.728787 1_555
Ge4 O5 1.743224 1_554
Ge4 O20 1.817805 1_554
Ge4 O18 1.848952 1_555
Ge5 O7 1.728787 1_555
Ge5 O1 1.743224 1_556
Ge5 O16 1.817805 1_556
Ge5 O22 1.848952 1_555
Ge6 O4 1.728787 1_545
Ge6 O2 1.743224 1_546
Ge6 O19 1.817805 1_556
Ge6 O21 1.848952 1_555
Ge7 O0 1.728787 1_565
Ge7 O6 1.743224 1_564
Ge7 O23 1.817805 1_554
Ge7 O17 1.848952 1_555
