# generated using pymatgen
data_Rb2MnH12(SeO7)2
_symmetry_space_group_name_H-M   'P 1'
_cell_length_a   13.06221200
_cell_length_b   7.00377400
_cell_length_c   9.52042636
_cell_angle_alpha   72.04462215
_cell_angle_beta   90.00000000
_cell_angle_gamma   90.00000000
_symmetry_Int_Tables_number   1
_chemical_formula_structural   Rb2MnH12(SeO7)2
_chemical_formula_sum   'Rb4 Mn2 H24 Se4 O28'
_cell_volume   828.55497137
_cell_formula_units_Z   2
loop_
 _symmetry_equiv_pos_site_id
 _symmetry_equiv_pos_as_xyz
  1  'x, y, z'
loop_
 _atom_site_type_symbol
 _atom_site_label
 _atom_site_symmetry_multiplicity
 _atom_site_fract_x
 _atom_site_fract_y
 _atom_site_fract_z
 _atom_site_occupancy
  Rb  Rb0  1  0.12288900  0.68185600  0.57924000  1
  Rb  Rb1  1  0.62288900  0.31814400  0.92076000  1
  Rb  Rb2  1  0.87711100  0.31814400  0.42076000  1
  Rb  Rb3  1  0.37711100  0.68185600  0.07924000  1
  Mn  Mn0  1  0.50000000  0.00000000  0.50000000  1
  Mn  Mn1  1  0.00000000  0.00000000  0.00000000  1
  H  H0  1  0.43363800  0.54300600  0.70375000  1
  H  H1  1  0.93363800  0.45699400  0.79625000  1
  H  H2  1  0.56636200  0.45699400  0.29625000  1
  H  H3  1  0.06636200  0.54300600  0.20375000  1
  H  H4  1  0.23399400  0.14347100  0.11772500  1
  H  H5  1  0.73399400  0.85652900  0.38227500  1
  H  H6  1  0.76600600  0.85652900  0.88227500  1
  H  H7  1  0.26600600  0.14347100  0.61772500  1
  H  H8  1  0.41735400  0.07346600  0.24559500  1
  H  H9  1  0.91735400  0.92653400  0.25440500  1
  H  H10  1  0.58264600  0.92653400  0.75440500  1
  H  H11  1  0.08264600  0.07346600  0.74559500  1
  H  H12  1  0.32839400  0.00233700  0.36974800  1
  H  H13  1  0.82839400  0.99766300  0.13025200  1
  H  H14  1  0.67160600  0.99766300  0.63025200  1
  H  H15  1  0.17160600  0.00233700  0.86974800  1
  H  H16  1  0.55309200  0.65228300  0.34627300  1
  H  H17  1  0.05309200  0.34771700  0.15372700  1
  H  H18  1  0.44690800  0.34771700  0.65372700  1
  H  H19  1  0.94690800  0.65228300  0.84627300  1
  H  H20  1  0.60524900  0.67683400  0.56469600  1
  H  H21  1  0.10524900  0.32316600  0.93530400  1
  H  H22  1  0.39475100  0.32316600  0.43530400  1
  H  H23  1  0.89475100  0.67683400  0.06469600  1
  Se  Se0  1  0.30353200  0.22728500  0.98555300  1
  Se  Se1  1  0.80353200  0.77271500  0.51444700  1
  Se  Se2  1  0.69646800  0.77271500  0.01444700  1
  Se  Se3  1  0.19646800  0.22728500  0.48555300  1
  O  O0  1  0.25724800  0.45490300  0.90334800  1
  O  O1  1  0.75724800  0.54509700  0.59665200  1
  O  O2  1  0.74275200  0.54509700  0.09665200  1
  O  O3  1  0.24275200  0.45490300  0.40334800  1
  O  O4  1  0.41865200  0.22008300  0.06455500  1
  O  O5  1  0.91865200  0.77991700  0.43544500  1
  O  O6  1  0.58134800  0.77991700  0.93544500  1
  O  O7  1  0.08134800  0.22008300  0.56455500  1
  O  O8  1  0.45143100  0.39829900  0.73983400  1
  O  O9  1  0.95143100  0.60170100  0.76016600  1
  O  O10  1  0.54856900  0.60170100  0.26016600  1
  O  O11  1  0.04856900  0.39829900  0.23983400  1
  O  O12  1  0.29026000  0.06323800  0.89006000  1
  O  O13  1  0.79026000  0.93676200  0.60994000  1
  O  O14  1  0.70974000  0.93676200  0.10994000  1
  O  O15  1  0.20974000  0.06323800  0.39006000  1
  O  O16  1  0.43680600  0.23641300  0.51517300  1
  O  O17  1  0.93680600  0.76358700  0.98482700  1
  O  O18  1  0.56319400  0.76358700  0.48482700  1
  O  O19  1  0.06319400  0.23641300  0.01517300  1
  O  O20  1  0.40144200  0.97483800  0.34518300  1
  O  O21  1  0.90144200  0.02516200  0.15481700  1
  O  O22  1  0.59855800  0.02516200  0.65481700  1
  O  O23  1  0.09855800  0.97483800  0.84518300  1
  O  O24  1  0.42717200  0.80678400  0.64367900  1
  O  O25  1  0.92717200  0.19321600  0.85632100  1
  O  O26  1  0.57282800  0.19321600  0.35632100  1
  O  O27  1  0.07282800  0.80678400  0.14367900  1
loop_
_geom_bond_atom_site_label_1
_geom_bond_atom_site_label_2
_geom_bond_distance
_geom_bond_site_symmetry_2
Mn0 O26 1.861732 1_555
Mn0 O24 1.861732 1_545
Mn0 O16 1.895080 1_555
Mn0 O18 1.895080 1_545
Mn0 O22 2.005248 1_555
Mn0 O20 2.005248 1_545
Mn1 O27 1.861732 1_545
Mn1 O25 1.861732 1_454
Mn1 O19 1.895080 1_555
Mn1 O17 1.895080 1_444
Mn1 O21 2.005248 1_455
Mn1 O23 2.005248 1_544
H0 O8 0.992240 1_555
H1 O9 0.992240 1_555
H2 O10 0.992240 1_555
H3 O11 0.992240 1_555
H4 Se0 1.515788 1_554
H5 Se1 1.515788 1_555
H6 Se2 1.515788 1_556
H7 Se3 1.515788 1_555
H8 O20 1.007717 1_545
H9 O21 1.007717 1_565
H10 O22 1.007717 1_565
H11 O23 1.007717 1_545
H12 O20 1.014888 1_545
H12 O15 1.634724 1_555
H13 O21 1.014888 1_565
H13 O14 1.634724 1_555
H14 O22 1.014888 1_565
H14 O13 1.634724 1_555
H15 O23 1.014888 1_545
H15 O12 1.634724 1_555
H16 O10 0.989992 1_555
H17 O11 0.989992 1_555
H18 O8 0.989992 1_555
H19 O9 0.989992 1_555
H20 O18 0.981975 1_555
H21 O19 0.981975 1_556
H22 O16 0.981975 1_555
H23 O17 0.981975 1_554
O0 Se0 1.658371 1_555
O0 Rb3 3.069729 1_556
O0 Rb0 3.479067 1_555
O1 Se1 1.658371 1_555
O1 Rb2 3.069729 1_555
O1 Rb1 3.479067 1_555
O2 Se2 1.658371 1_555
O2 Rb1 3.069729 1_554
O2 Rb2 3.479067 1_555
O3 Se3 1.658371 1_555
O3 Rb0 3.069729 1_555
O3 Rb3 3.479067 1_555
O4 Se0 1.675123 1_554
O4 Rb1 2.980473 1_554
O4 Rb3 3.324531 1_555
O5 Se1 1.675123 1_555
O5 Rb0 2.980473 1_655
O5 Rb2 3.324531 1_555
O6 Se2 1.675123 1_556
O6 Rb3 2.980473 1_556
O6 Rb1 3.324531 1_555
O7 Se3 1.675123 1_555
O7 Rb2 2.980473 1_455
O7 Rb0 3.324531 1_555
O8 Rb1 2.775219 1_555
O9 Rb0 2.775219 1_655
O10 Rb3 2.775219 1_555
O11 Rb2 2.775219 1_455
O12 Se0 1.679488 1_555
O12 Rb3 2.949504 1_546
O13 Se1 1.679488 1_555
O13 Rb2 2.949504 1_565
O14 Se2 1.679488 1_555
O14 Rb1 2.949504 1_564
O15 Se3 1.679488 1_555
O15 Rb0 2.949504 1_545
