# generated using pymatgen
data_CaTiAg(PO4)3
_symmetry_space_group_name_H-M   'P 1'
_cell_length_a   8.90133471
_cell_length_b   8.90133418
_cell_length_c   8.90133497
_cell_angle_alpha   59.63220990
_cell_angle_beta   59.63221420
_cell_angle_gamma   59.63221405
_symmetry_Int_Tables_number   1
_chemical_formula_structural   CaTiAg(PO4)3
_chemical_formula_sum   'Ca2 Ti2 Ag2 P6 O24'
_cell_volume   494.54454465
_cell_formula_units_Z   2
loop_
 _symmetry_equiv_pos_site_id
 _symmetry_equiv_pos_as_xyz
  1  'x, y, z'
loop_
 _atom_site_type_symbol
 _atom_site_label
 _atom_site_symmetry_multiplicity
 _atom_site_fract_x
 _atom_site_fract_y
 _atom_site_fract_z
 _atom_site_occupancy
  Ca  Ca0  1  0.99508600  0.99508600  0.99508600  1
  Ca  Ca1  1  0.49508600  0.49508600  0.49508600  1
  Ti  Ti0  1  0.14772400  0.14772400  0.14772400  1
  Ti  Ti1  1  0.64772400  0.64772400  0.64772400  1
  Ag  Ag0  1  0.34940900  0.34940900  0.34940900  1
  Ag  Ag1  1  0.84940900  0.84940900  0.84940900  1
  P  P0  1  0.04084300  0.45054500  0.75824500  1
  P  P1  1  0.45054500  0.75824500  0.04084300  1
  P  P2  1  0.75824500  0.04084300  0.45054500  1
  P  P3  1  0.25824500  0.95054500  0.54084300  1
  P  P4  1  0.54084300  0.25824500  0.95054500  1
  P  P5  1  0.95054500  0.54084300  0.25824500  1
  O  O0  1  0.10258400  0.53412700  0.29672300  1
  O  O1  1  0.29672300  0.10258400  0.53412700  1
  O  O2  1  0.04712300  0.26829200  0.92884900  1
  O  O3  1  0.53412700  0.29672300  0.10258400  1
  O  O4  1  0.03412700  0.60258400  0.79672300  1
  O  O5  1  0.22609300  0.42461200  0.59736800  1
  O  O6  1  0.26829200  0.92884900  0.04712300  1
  O  O7  1  0.42461200  0.59736800  0.22609300  1
  O  O8  1  0.20949000  0.00311700  0.36976700  1
  O  O9  1  0.59736800  0.22609300  0.42461200  1
  O  O10  1  0.09736800  0.92461200  0.72609300  1
  O  O11  1  0.36976700  0.20949000  0.00311700  1
  O  O12  1  0.60258400  0.79672300  0.03412700  1
  O  O13  1  0.92884900  0.04712300  0.26829200  1
  O  O14  1  0.42884900  0.76829200  0.54712300  1
  O  O15  1  0.79672300  0.03412700  0.60258400  1
  O  O16  1  0.54712300  0.42884900  0.76829200  1
  O  O17  1  0.72609300  0.09736800  0.92461200  1
  O  O18  1  0.76829200  0.54712300  0.42884900  1
  O  O19  1  0.00311700  0.36976700  0.20949000  1
  O  O20  1  0.50311700  0.70949000  0.86976700  1
  O  O21  1  0.92461200  0.72609300  0.09736800  1
  O  O22  1  0.70949000  0.86976700  0.50311700  1
  O  O23  1  0.86976700  0.50311700  0.70949000  1
loop_
_geom_bond_atom_site_label_1
_geom_bond_atom_site_label_2
_geom_bond_distance
_geom_bond_site_symmetry_2
Ca0 O21 2.385925 1_556
Ca0 O17 2.385925 1_565
Ca0 O10 2.385925 1_655
Ca0 O2 2.426803 1_665
Ca0 O6 2.426803 1_656
Ca0 O13 2.426803 1_566
Ca1 O9 2.385925 1_555
Ca1 O5 2.385925 1_555
Ca1 O7 2.385925 1_555
Ca1 O14 2.426803 1_555
Ca1 O18 2.426803 1_555
Ca1 O16 2.426803 1_555
Ag0 O1 2.088091 1_555
Ag0 O0 2.088091 1_555
Ag0 O3 2.088091 1_555
Ag0 O7 2.196789 1_555
Ag0 O9 2.196789 1_555
Ag0 O5 2.196789 1_555
Ag1 O15 2.088091 1_565
Ag1 O4 2.088091 1_655
Ag1 O12 2.088091 1_556
Ag1 O17 2.196789 1_565
Ag1 O10 2.196789 1_655
Ag1 O21 2.196789 1_556
O0 P5 1.522698 1_455
O1 P3 1.522698 1_545
O2 P0 1.563425 1_555
O2 Ti0 2.104198 1_556
O3 P4 1.522698 1_554
O4 P0 1.522698 1_555
O5 P0 1.544304 1_555
O6 P1 1.563425 1_555
O6 Ti0 2.104198 1_565
O7 P1 1.544304 1_555
O8 P3 1.571181 1_545
O8 Ti0 1.917406 1_555
O9 P2 1.544304 1_555
O10 P3 1.544304 1_555
O11 P4 1.571181 1_554
O11 Ti0 1.917406 1_555
O12 P1 1.522698 1_555
O13 P2 1.563425 1_555
O13 Ti0 2.104198 1_655
O14 P3 1.563425 1_555
O14 Ti1 2.104198 1_555
O15 P2 1.522698 1_555
O16 P4 1.563425 1_555
O16 Ti1 2.104198 1_555
O17 P4 1.544304 1_555
O18 P5 1.563425 1_555
O18 Ti1 2.104198 1_555
O19 P5 1.571181 1_455
O19 Ti0 1.917406 1_555
O20 P1 1.571181 1_556
O20 Ti1 1.917406 1_555
O21 P5 1.544304 1_555
O22 P2 1.571181 1_565
O22 Ti1 1.917406 1_555
O23 P0 1.571181 1_655
O23 Ti1 1.917406 1_555
