# generated using pymatgen
data_Na(MoO2)3
_symmetry_space_group_name_H-M   'P 1'
_cell_length_a   8.04740278
_cell_length_b   8.09539320
_cell_length_c   43.97406100
_cell_angle_alpha   90.00000000
_cell_angle_beta   90.00000000
_cell_angle_gamma   119.80409899
_symmetry_Int_Tables_number   1
_chemical_formula_structural   Na(MoO2)3
_chemical_formula_sum   'Na1 Mo3 O6'
_cell_volume   2485.84944386
_cell_formula_units_Z   1
loop_
 _symmetry_equiv_pos_site_id
 _symmetry_equiv_pos_as_xyz
  1  'x, y, z'
loop_
 _atom_site_type_symbol
 _atom_site_label
 _atom_site_symmetry_multiplicity
 _atom_site_fract_x
 _atom_site_fract_y
 _atom_site_fract_z
 _atom_site_occupancy
  Na  Na0  1  0.00000000  0.00000000  0.00000000  1
  Mo  Mo0  1  0.00000000  0.00000000  0.50000000  1
  Mo  Mo1  1  0.50000000  0.50000000  0.00000000  1
  Mo  Mo2  1  0.00000000  0.50000000  0.00000000  1
  O  O0  1  0.00000000  0.00000000  0.75475087  1
  O  O1  1  0.00000000  0.00000000  0.24524913  1
  O  O2  1  0.68251054  0.74965167  0.00000000  1
  O  O3  1  0.31748946  0.25034833  0.00000000  1
  O  O4  1  0.93285887  0.25034833  -0.00000000  1
  O  O5  1  0.06714113  0.74965167  -0.00000000  1
loop_
_geom_bond_atom_site_label_1
_geom_bond_atom_site_label_2
_geom_bond_distance
_geom_bond_site_symmetry_2
Na0 O3 2.342618 1_555
Na0 O2 2.342618 1_445
Na0 O5 2.342619 1_545
Na0 O4 2.342619 1_455
Mo1 O3 1.814106 1_555
Mo1 O2 1.814106 1_555
Mo2 O4 1.814106 1_455
Mo2 O5 1.814106 1_555
