# generated using pymatgen
data_Lu2(Al3Rh)3
_symmetry_space_group_name_H-M   'P 1'
_cell_length_a   7.45751402
_cell_length_b   7.45751402
_cell_length_c   9.33812068
_cell_angle_alpha   90.00000000
_cell_angle_beta   90.00000000
_cell_angle_gamma   119.37850741
_symmetry_Int_Tables_number   1
_chemical_formula_structural   Lu2(Al3Rh)3
_chemical_formula_sum   'Lu4 Al18 Rh6'
_cell_volume   452.54747530
_cell_formula_units_Z   2
loop_
 _symmetry_equiv_pos_site_id
 _symmetry_equiv_pos_as_xyz
  1  'x, y, z'
loop_
 _atom_site_type_symbol
 _atom_site_label
 _atom_site_symmetry_multiplicity
 _atom_site_fract_x
 _atom_site_fract_y
 _atom_site_fract_z
 _atom_site_occupancy
  Lu  Lu0  1  0.99453169  0.67321345  0.25000000  1
  Lu  Lu1  1  0.00546831  0.32678655  0.75000000  1
  Lu  Lu2  1  0.67321345  0.99453169  0.25000000  1
  Lu  Lu3  1  0.32678655  0.00546831  0.75000000  1
  Al  Al0  1  0.12884912  0.12884912  0.25000000  1
  Al  Al1  1  0.87115088  0.87115088  0.75000000  1
  Al  Al2  1  0.00075617  0.33595698  0.07539882  1
  Al  Al3  1  -0.00075617  0.66404302  0.92460118  1
  Al  Al4  1  -0.00075617  0.66404302  0.57539882  1
  Al  Al5  1  0.33595698  0.00075617  0.42460118  1
  Al  Al6  1  0.00075617  0.33595698  0.42460118  1
  Al  Al7  1  0.66404302  -0.00075617  0.57539882  1
  Al  Al8  1  0.66404302  -0.00075617  0.92460118  1
  Al  Al9  1  0.33595698  0.00075617  0.07539882  1
  Al  Al10  1  0.33281511  0.33281511  0.55052774  1
  Al  Al11  1  0.66718489  0.66718489  0.44947226  1
  Al  Al12  1  0.66718489  0.66718489  0.05052774  1
  Al  Al13  1  0.33281511  0.33281511  0.94947226  1
  Al  Al14  1  0.34011428  0.55129630  0.25000000  1
  Al  Al15  1  0.65988572  0.44870370  0.75000000  1
  Al  Al16  1  0.55129630  0.34011428  0.25000000  1
  Al  Al17  1  0.44870370  0.65988572  0.75000000  1
  Rh  Rh0  1  0.67266374  0.32733626  -0.00000000  1
  Rh  Rh1  1  0.32733626  0.67266374  -0.00000000  1
  Rh  Rh2  1  0.32733626  0.67266374  0.50000000  1
  Rh  Rh3  1  0.67266374  0.32733626  0.50000000  1
  Rh  Rh4  1  0.00000000  0.00000000  -0.00000000  1
  Rh  Rh5  1  0.00000000  0.00000000  0.50000000  1
loop_
_geom_bond_atom_site_label_1
_geom_bond_atom_site_label_2
_geom_bond_distance
_geom_bond_site_symmetry_2
Lu0 Rh4 3.360540 1_665
Lu0 Rh5 3.360540 1_665
Lu0 Rh1 3.408787 1_655
Lu0 Rh2 3.408787 1_655
Lu0 Rh0 3.433680 1_555
Lu0 Rh3 3.433680 1_555
Lu1 Rh5 3.360540 1_555
Lu1 Rh4 3.360540 1_556
Lu1 Rh3 3.408787 1_455
Lu1 Rh0 3.408787 1_456
Lu1 Rh1 3.433680 1_556
Lu1 Rh2 3.433680 1_555
Lu2 Rh4 3.360540 1_665
Lu2 Rh5 3.360540 1_665
Lu2 Rh0 3.408787 1_565
Lu2 Rh3 3.408787 1_565
Lu2 Rh2 3.433680 1_555
Lu2 Rh1 3.433680 1_555
Lu3 Rh4 3.360540 1_556
Lu3 Rh5 3.360540 1_555
Lu3 Rh1 3.408787 1_546
Lu3 Rh2 3.408787 1_545
Lu3 Rh3 3.433680 1_555
Lu3 Rh0 3.433680 1_556
Al0 Rh4 2.527993 1_555
Al0 Rh5 2.527993 1_555
Al0 Lu2 3.034746 1_445
Al0 Lu0 3.034746 1_445
Al1 Rh5 2.527993 1_665
Al1 Rh4 2.527993 1_666
Al1 Lu3 3.034746 1_665
Al1 Lu1 3.034746 1_665
Al2 Rh0 2.516374 1_455
Al2 Rh1 2.594640 1_555
Al2 Rh4 2.599798 1_555
Al2 Lu2 3.000956 1_445
Al2 Lu0 3.016747 1_455
Al2 Lu1 3.039974 1_554
Al3 Rh1 2.516374 1_556
Al3 Rh0 2.594640 1_456
Al3 Rh4 2.599798 1_566
Al3 Lu3 3.000956 1_565
Al3 Lu1 3.016747 1_555
Al3 Lu0 3.039974 1_456
Al4 Rh2 2.516374 1_555
Al4 Rh3 2.594640 1_455
Al4 Rh5 2.599798 1_565
Al4 Lu3 3.000956 1_565
Al4 Lu1 3.016747 1_555
Al4 Lu0 3.039974 1_455
Al5 Rh2 2.516374 1_545
Al5 Rh3 2.594640 1_555
Al5 Rh5 2.599798 1_555
Al5 Lu0 3.000956 1_445
Al5 Lu2 3.016747 1_545
Al5 Lu3 3.039974 1_555
Al6 Rh3 2.516374 1_455
Al6 Rh2 2.594640 1_555
Al6 Rh5 2.599798 1_555
Al6 Lu2 3.000956 1_445
Al6 Lu0 3.016747 1_455
Al6 Lu1 3.039974 1_555
Al7 Rh3 2.516374 1_555
Al7 Rh2 2.594640 1_545
Al7 Rh5 2.599798 1_655
Al7 Lu1 3.000956 1_655
Al7 Lu3 3.016747 1_555
Al7 Lu2 3.039974 1_545
Al8 Rh0 2.516374 1_556
Al8 Rh1 2.594640 1_546
Al8 Rh4 2.599798 1_656
Al8 Lu1 3.000956 1_655
Al8 Lu3 3.016747 1_555
Al8 Lu2 3.039974 1_546
Al9 Rh1 2.516374 1_545
Al9 Rh0 2.594640 1_555
Al9 Rh4 2.599798 1_555
Al9 Lu0 3.000956 1_445
Al9 Lu2 3.016747 1_545
Al9 Lu3 3.039974 1_554
Al10 Rh5 2.549297 1_555
Al10 Rh3 2.597925 1_555
Al10 Rh2 2.597925 1_555
Al10 Lu3 3.053424 1_555
Al10 Lu1 3.053424 1_555
Al11 Rh5 2.549297 1_665
Al11 Rh2 2.597925 1_555
Al11 Rh3 2.597925 1_555
Al11 Lu2 3.053424 1_555
Al11 Lu0 3.053424 1_555
Al12 Rh4 2.549297 1_665
Al12 Rh1 2.597925 1_555
Al12 Rh0 2.597925 1_555
Al12 Lu2 3.053424 1_555
Al12 Lu0 3.053424 1_555
Al13 Rh4 2.549297 1_556
Al13 Rh0 2.597925 1_556
Al13 Rh1 2.597925 1_556
Al13 Lu1 3.053424 1_555
Al13 Lu3 3.053424 1_555
Al14 Rh1 2.522487 1_555
Al14 Rh2 2.522487 1_555
Al14 Lu2 3.006718 1_555
Al14 Lu0 3.125308 1_455
Al15 Rh0 2.522487 1_556
Al15 Rh3 2.522487 1_555
Al15 Lu3 3.006718 1_555
Al15 Lu1 3.125308 1_655
Al16 Rh3 2.522487 1_555
Al16 Rh0 2.522487 1_555
Al16 Lu0 3.006718 1_555
Al16 Lu2 3.125308 1_545
Al17 Rh2 2.522487 1_555
Al17 Rh1 2.522487 1_556
Al17 Lu1 3.006718 1_555
Al17 Lu3 3.125308 1_565
