# generated using pymatgen
data_UH2(SO5)2
_symmetry_space_group_name_H-M   'P 1'
_cell_length_a   8.13767300
_cell_length_b   8.34407400
_cell_length_c   13.53136700
_cell_angle_alpha   90.00000000
_cell_angle_beta   110.23372640
_cell_angle_gamma   90.00000000
_symmetry_Int_Tables_number   1
_chemical_formula_structural   UH2(SO5)2
_chemical_formula_sum   'U4 H8 S8 O40'
_cell_volume   862.09863936
_cell_formula_units_Z   4
loop_
 _symmetry_equiv_pos_site_id
 _symmetry_equiv_pos_as_xyz
  1  'x, y, z'
loop_
 _atom_site_type_symbol
 _atom_site_label
 _atom_site_symmetry_multiplicity
 _atom_site_fract_x
 _atom_site_fract_y
 _atom_site_fract_z
 _atom_site_occupancy
  U  U0  1  0.18278100  0.27742700  0.91548700  1
  U  U1  1  0.18278100  0.22257300  0.41548700  1
  U  U2  1  0.81721900  0.72257300  0.08451300  1
  U  U3  1  0.81721900  0.77742700  0.58451300  1
  H  H0  1  0.47733900  0.55425700  0.26858200  1
  H  H1  1  0.47733900  0.94574300  0.76858200  1
  H  H2  1  0.52266100  0.44574300  0.73141800  1
  H  H3  1  0.52266100  0.05425700  0.23141800  1
  H  H4  1  0.24412000  0.80326300  0.89463300  1
  H  H5  1  0.24412000  0.69673700  0.39463300  1
  H  H6  1  0.75588000  0.19673700  0.10536700  1
  H  H7  1  0.75588000  0.30326300  0.60536700  1
  S  S0  1  0.53522000  0.39826500  0.15501900  1
  S  S1  1  0.53522000  0.10173500  0.65501900  1
  S  S2  1  0.46478000  0.60173500  0.84498100  1
  S  S3  1  0.46478000  0.89826500  0.34498100  1
  S  S4  1  0.97772300  0.87371300  0.87089500  1
  S  S5  1  0.97772300  0.62628700  0.37089500  1
  S  S6  1  0.02227700  0.12628700  0.12910500  1
  S  S7  1  0.02227700  0.37371300  0.62910500  1
  O  O0  1  0.99733800  0.40320700  0.89675700  1
  O  O1  1  0.99733800  0.09679300  0.39675700  1
  O  O2  1  0.00266200  0.59679300  0.10324300  1
  O  O3  1  0.00266200  0.90320700  0.60324300  1
  O  O4  1  0.36687200  0.14889600  0.93381600  1
  O  O5  1  0.36687200  0.35110400  0.43381600  1
  O  O6  1  0.63312800  0.85110400  0.06618400  1
  O  O7  1  0.63312800  0.64889600  0.56618400  1
  O  O8  1  0.65226400  0.51230000  0.12974300  1
  O  O9  1  0.65226400  0.98770000  0.62974300  1
  O  O10  1  0.34773600  0.48770000  0.87025700  1
  O  O11  1  0.34773600  0.01230000  0.37025700  1
  O  O12  1  0.35624800  0.40886000  0.07704700  1
  O  O13  1  0.35624800  0.09114000  0.57704700  1
  O  O14  1  0.64375200  0.59114000  0.92295300  1
  O  O15  1  0.64375200  0.90886000  0.42295300  1
  O  O16  1  0.60670500  0.23555300  0.17179200  1
  O  O17  1  0.60670500  0.26444700  0.67179200  1
  O  O18  1  0.39329500  0.76444700  0.82820800  1
  O  O19  1  0.39329500  0.73555300  0.32820800  1
  O  O20  1  0.52430700  0.44503500  0.26484400  1
  O  O21  1  0.52430700  0.05496500  0.76484400  1
  O  O22  1  0.47569300  0.55496500  0.73515600  1
  O  O23  1  0.47569300  0.94503500  0.23515600  1
  O  O24  1  0.87807700  0.85766000  0.94187300  1
  O  O25  1  0.87807700  0.64234000  0.44187300  1
  O  O26  1  0.12192300  0.14234000  0.05812700  1
  O  O27  1  0.12192300  0.35766000  0.55812700  1
  O  O28  1  0.89859700  0.77926000  0.77435000  1
  O  O29  1  0.89859700  0.72074000  0.27435000  1
  O  O30  1  0.10140300  0.22074000  0.22565000  1
  O  O31  1  0.10140300  0.27926000  0.72565000  1
  O  O32  1  0.00015500  0.04203000  0.84588900  1
  O  O33  1  0.00015500  0.45797000  0.34588900  1
  O  O34  1  0.99984500  0.95797000  0.15411100  1
  O  O35  1  0.99984500  0.54203000  0.65411100  1
  O  O36  1  0.16064500  0.80139100  0.93474300  1
  O  O37  1  0.16064500  0.69860900  0.43474300  1
  O  O38  1  0.83935500  0.19860900  0.06525700  1
  O  O39  1  0.83935500  0.30139100  0.56525700  1
loop_
_geom_bond_atom_site_label_1
_geom_bond_atom_site_label_2
_geom_bond_distance
_geom_bond_site_symmetry_2
H0 O20 0.996286 1_555
H1 O21 0.996286 1_565
H2 O22 0.996286 1_555
H3 O23 0.996286 1_545
H4 O36 1.005619 1_555
H5 O37 1.005619 1_555
H6 O38 1.005619 1_555
H7 O39 1.005619 1_555
O0 U0 1.782828 1_655
O1 U1 1.782828 1_655
O2 U2 1.782828 1_455
O3 U3 1.782828 1_455
O4 U0 1.788555 1_555
O5 U1 1.788555 1_555
O6 U2 1.788555 1_555
O7 U3 1.788555 1_555
O8 S0 1.467951 1_555
O8 U2 2.413116 1_555
O9 S1 1.467951 1_565
O9 U3 2.413116 1_555
O10 S2 1.467951 1_555
O10 U0 2.413116 1_555
O11 S3 1.467951 1_545
O11 U1 2.413116 1_555
O12 S0 1.476228 1_555
O12 U0 2.416602 1_554
O13 S1 1.476228 1_555
O13 U1 2.416602 1_555
O14 S2 1.476228 1_555
O14 U2 2.416602 1_556
O15 S3 1.476228 1_555
O15 U3 2.416602 1_555
O16 S0 1.463518 1_555
O17 S1 1.463518 1_555
O18 S2 1.463518 1_555
O19 S3 1.463518 1_555
O20 S0 1.568410 1_555
O21 S1 1.568410 1_555
O22 S2 1.568410 1_555
O23 S3 1.568410 1_555
O24 S4 1.461711 1_555
O24 U2 2.429467 1_556
O25 S5 1.461711 1_555
O25 U3 2.429467 1_555
O26 S6 1.461711 1_555
O26 U0 2.429467 1_554
O27 S7 1.461711 1_555
O27 U1 2.429467 1_555
O28 S4 1.469879 1_555
O28 U3 2.420873 1_555
O29 S5 1.469879 1_555
O29 U2 2.420873 1_555
O30 S6 1.469879 1_555
O30 U1 2.420873 1_555
O31 S7 1.469879 1_555
O31 U0 2.420873 1_555
O32 S4 1.470720 1_445
O32 U0 2.446510 1_555
O33 S5 1.470720 1_455
O33 U1 2.446510 1_555
O34 S6 1.470720 1_665
O34 U2 2.446510 1_555
O35 S7 1.470720 1_655
O35 U3 2.446510 1_555
O36 S4 1.561034 1_455
O37 S5 1.561034 1_455
O38 S6 1.561034 1_655
O39 S7 1.561034 1_655
