# generated using pymatgen
data_Nd5Ti5O17
_symmetry_space_group_name_H-M   'P 1'
_cell_length_a   5.49498900
_cell_length_b   7.78378400
_cell_length_c   31.94629260
_cell_angle_alpha   82.94868224
_cell_angle_beta   90.00000000
_cell_angle_gamma   90.00000000
_symmetry_Int_Tables_number   1
_chemical_formula_structural   Nd5Ti5O17
_chemical_formula_sum   'Nd20 Ti20 O68'
_cell_volume   1356.06604077
_cell_formula_units_Z   4
loop_
 _symmetry_equiv_pos_site_id
 _symmetry_equiv_pos_as_xyz
  1  'x, y, z'
loop_
 _atom_site_type_symbol
 _atom_site_label
 _atom_site_symmetry_multiplicity
 _atom_site_fract_x
 _atom_site_fract_y
 _atom_site_fract_z
 _atom_site_occupancy
  Nd  Nd0  1  0.49529900  0.79068500  0.41675500  1
  Nd  Nd1  1  0.50470100  0.20931500  0.58324500  1
  Nd  Nd2  1  0.99529900  0.20931500  0.08324500  1
  Nd  Nd3  1  0.00470100  0.79068500  0.91675500  1
  Nd  Nd4  1  0.49671200  0.70008000  0.59735200  1
  Nd  Nd5  1  0.50328800  0.29992000  0.40264800  1
  Nd  Nd6  1  0.99671200  0.29992000  0.90264800  1
  Nd  Nd7  1  0.00328800  0.70008000  0.09735200  1
  Nd  Nd8  1  0.49205600  0.74572000  0.00745100  1
  Nd  Nd9  1  0.50794400  0.25428000  0.99254900  1
  Nd  Nd10  1  0.99205600  0.25428000  0.49254900  1
  Nd  Nd11  1  0.00794400  0.74572000  0.50745100  1
  Nd  Nd12  1  0.46683500  0.64266400  0.20289900  1
  Nd  Nd13  1  0.53316500  0.35733600  0.79710100  1
  Nd  Nd14  1  0.96683500  0.35733600  0.29710100  1
  Nd  Nd15  1  0.03316500  0.64266400  0.70289900  1
  Nd  Nd16  1  0.89769900  0.85837300  0.27918100  1
  Nd  Nd17  1  0.10230100  0.14162700  0.72081900  1
  Nd  Nd18  1  0.39769900  0.14162700  0.22081900  1
  Nd  Nd19  1  0.60230100  0.85837300  0.77918100  1
  Ti  Ti0  1  0.48876700  0.95252700  0.09298600  1
  Ti  Ti1  1  0.51123300  0.04747300  0.90701400  1
  Ti  Ti2  1  0.98876700  0.04747300  0.40701400  1
  Ti  Ti3  1  0.01123300  0.95252700  0.59298600  1
  Ti  Ti4  1  0.99043100  0.54534800  0.40611000  1
  Ti  Ti5  1  0.00956900  0.45465200  0.59389000  1
  Ti  Ti6  1  0.49043100  0.45465200  0.09389000  1
  Ti  Ti7  1  0.50956900  0.54534800  0.90611000  1
  Ti  Ti8  1  0.00000000  0.50000000  0.00000000  1
  Ti  Ti9  1  0.50000000  0.50000000  0.50000000  1
  Ti  Ti10  1  0.95787100  0.40521500  0.17843400  1
  Ti  Ti11  1  0.04212900  0.59478500  0.82156600  1
  Ti  Ti12  1  0.45787100  0.59478500  0.32156600  1
  Ti  Ti13  1  0.54212900  0.40521500  0.67843400  1
  Ti  Ti14  1  0.96650800  0.92029200  0.17619100  1
  Ti  Ti15  1  0.03349200  0.07970800  0.82380900  1
  Ti  Ti16  1  0.46650800  0.07970800  0.32380900  1
  Ti  Ti17  1  0.53349200  0.92029200  0.67619100  1
  Ti  Ti18  1  0.00000000  0.00000000  0.00000000  1
  Ti  Ti19  1  0.50000000  0.00000000  0.50000000  1
  O  O0  1  0.21094000  0.97661200  0.46509200  1
  O  O1  1  0.78906000  0.02338800  0.53490800  1
  O  O2  1  0.71094000  0.02338800  0.03490800  1
  O  O3  1  0.28906000  0.97661200  0.96509200  1
  O  O4  1  0.90015200  0.66286100  0.17160200  1
  O  O5  1  0.09984800  0.33713900  0.82839800  1
  O  O6  1  0.40015200  0.33713900  0.32839800  1
  O  O7  1  0.59984800  0.66286100  0.67160200  1
  O  O8  1  0.29452200  0.86981600  0.13785900  1
  O  O9  1  0.70547800  0.13018400  0.86214100  1
  O  O10  1  0.79452200  0.13018400  0.36214100  1
  O  O11  1  0.20547800  0.86981600  0.63785900  1
  O  O12  1  0.92240500  0.75183900  0.99637500  1
  O  O13  1  0.07759500  0.24816100  0.00362500  1
  O  O14  1  0.42240500  0.24816100  0.50362500  1
  O  O15  1  0.57759500  0.75183900  0.49637500  1
  O  O16  1  0.66893000  0.59591800  0.27375500  1
  O  O17  1  0.33107000  0.40408200  0.72624500  1
  O  O18  1  0.16893000  0.40408200  0.22624500  1
  O  O19  1  0.83107000  0.59591800  0.77375500  1
  O  O20  1  0.80054900  0.50612100  0.36096400  1
  O  O21  1  0.19945100  0.49387900  0.63903600  1
  O  O22  1  0.30054900  0.49387900  0.13903600  1
  O  O23  1  0.69945100  0.50612100  0.86096400  1
  O  O24  1  0.93484300  0.79461200  0.40971700  1
  O  O25  1  0.06515700  0.20538800  0.59028300  1
  O  O26  1  0.43484300  0.20538800  0.09028300  1
  O  O27  1  0.56515700  0.79461200  0.90971700  1
  O  O28  1  0.69763800  0.91814900  0.21138100  1
  O  O29  1  0.30236200  0.08185100  0.78861900  1
  O  O30  1  0.19763800  0.08185100  0.28861900  1
  O  O31  1  0.80236200  0.91814900  0.71138100  1
  O  O32  1  0.18546200  0.86907200  0.22087200  1
  O  O33  1  0.81453800  0.13092800  0.77912800  1
  O  O34  1  0.68546200  0.13092800  0.27912800  1
  O  O35  1  0.31453800  0.86907200  0.72087200  1
  O  O36  1  0.56003300  0.83422400  0.33064700  1
  O  O37  1  0.43996700  0.16577600  0.66935300  1
  O  O38  1  0.06003300  0.16577600  0.16935300  1
  O  O39  1  0.93996700  0.83422400  0.83064700  1
  O  O40  1  0.81378800  0.41918500  0.11877600  1
  O  O41  1  0.18621200  0.58081500  0.88122400  1
  O  O42  1  0.31378800  0.58081500  0.38122400  1
  O  O43  1  0.68621200  0.41918500  0.61877600  1
  O  O44  1  0.81024400  0.96273200  0.11923500  1
  O  O45  1  0.18975600  0.03726800  0.88076500  1
  O  O46  1  0.31024400  0.03726800  0.38076500  1
  O  O47  1  0.68975600  0.96273200  0.61923500  1
  O  O48  1  0.71248800  0.48802700  0.44809800  1
  O  O49  1  0.28751200  0.51197300  0.55190200  1
  O  O50  1  0.21248800  0.51197300  0.05190200  1
  O  O51  1  0.78751200  0.48802700  0.94809800  1
  O  O52  1  0.71131700  0.44225400  0.03470900  1
  O  O53  1  0.28868300  0.55774600  0.96529100  1
  O  O54  1  0.21131700  0.55774600  0.46529100  1
  O  O55  1  0.78868300  0.44225400  0.53470900  1
  O  O56  1  0.21271800  0.93604600  0.05147400  1
  O  O57  1  0.78728200  0.06395400  0.94852600  1
  O  O58  1  0.71271800  0.06395400  0.44852600  1
  O  O59  1  0.28728200  0.93604600  0.55147400  1
  O  O60  1  0.67455200  0.36800600  0.20462300  1
  O  O61  1  0.32544800  0.63199400  0.79537700  1
  O  O62  1  0.17455200  0.63199400  0.29537700  1
  O  O63  1  0.82544800  0.36800600  0.70462300  1
  O  O64  1  0.57936800  0.70981200  0.08049500  1
  O  O65  1  0.42063200  0.29018800  0.91950500  1
  O  O66  1  0.07936800  0.29018800  0.41950500  1
  O  O67  1  0.92063200  0.70981200  0.58049500  1
loop_
_geom_bond_atom_site_label_1
_geom_bond_atom_site_label_2
_geom_bond_distance
_geom_bond_site_symmetry_2
Nd0 O42 2.325310 1_555
Nd0 O46 2.344793 1_565
Nd0 O24 2.425577 1_555
Nd0 O15 2.564531 1_555
Nd0 O48 2.719868 1_555
Nd0 O54 2.727003 1_555
Nd0 O0 2.732981 1_555
Nd0 O58 2.740795 1_565
Nd0 O36 2.753103 1_555
Nd1 O43 2.325310 1_555
Nd1 O47 2.344793 1_545
Nd1 O25 2.425577 1_555
Nd1 O14 2.564531 1_555
Nd1 O49 2.719868 1_555
Nd1 O55 2.727003 1_555
Nd1 O1 2.732981 1_555
Nd1 O59 2.740795 1_545
Nd1 O37 2.753103 1_555
Nd2 O40 2.325310 1_555
Nd2 O44 2.344793 1_545
Nd2 O26 2.425577 1_655
Nd2 O13 2.564531 1_655
Nd2 O50 2.719868 1_655
Nd2 O52 2.727003 1_555
Nd2 O2 2.732981 1_555
Nd2 O56 2.740795 1_645
Nd2 O38 2.753103 1_655
Nd3 O41 2.325310 1_555
Nd3 O45 2.344793 1_565
Nd3 O27 2.425577 1_455
Nd3 O12 2.564531 1_455
Nd3 O51 2.719868 1_455
Nd3 O53 2.727003 1_555
Nd3 O3 2.732981 1_555
Nd3 O57 2.740795 1_465
Nd3 O39 2.753103 1_455
Nd4 O67 2.389978 1_555
Nd4 O7 2.421330 1_555
Nd4 O43 2.442498 1_555
Nd4 O49 2.468895 1_555
Nd4 O47 2.478817 1_555
Nd4 O59 2.486973 1_555
Nd4 O11 2.530001 1_555
Nd4 O21 2.548095 1_555
Nd5 O66 2.389978 1_555
Nd5 O6 2.421330 1_555
Nd5 O42 2.442498 1_555
Nd5 O48 2.468895 1_555
Nd5 O46 2.478817 1_555
Nd5 O58 2.486973 1_555
Nd5 O10 2.530001 1_555
Nd5 O20 2.548095 1_555
Nd6 O65 2.389978 1_655
Nd6 O5 2.421330 1_655
Nd6 O41 2.442498 1_655
Nd6 O51 2.468895 1_555
Nd6 O45 2.478817 1_655
Nd6 O57 2.486973 1_555
Nd6 O9 2.530001 1_555
Nd6 O23 2.548095 1_555
Nd7 O64 2.389978 1_455
Nd7 O4 2.421330 1_455
Nd7 O40 2.442498 1_455
Nd7 O50 2.468895 1_555
Nd7 O44 2.478817 1_455
Nd7 O56 2.486973 1_555
Nd7 O8 2.530001 1_555
Nd7 O22 2.548095 1_555
Nd8 O64 2.365023 1_555
Nd8 O53 2.384855 1_554
Nd8 O3 2.389208 1_554
Nd8 O12 2.390698 1_554
Nd8 O56 2.653342 1_555
Nd8 O50 2.655658 1_555
Nd8 O52 2.698979 1_555
Nd8 O2 2.711593 1_565
Nd9 O65 2.365023 1_555
Nd9 O52 2.384855 1_556
Nd9 O2 2.389208 1_556
Nd9 O13 2.390698 1_556
Nd9 O57 2.653342 1_555
Nd9 O51 2.655658 1_555
Nd9 O53 2.698979 1_555
Nd9 O3 2.711593 1_545
Nd10 O66 2.365023 1_655
Nd10 O55 2.384855 1_555
Nd10 O1 2.389208 1_555
Nd10 O14 2.390698 1_655
Nd10 O58 2.653342 1_555
Nd10 O48 2.655658 1_555
Nd10 O54 2.698979 1_655
Nd10 O0 2.711593 1_645
Nd11 O67 2.365023 1_455
Nd11 O54 2.384855 1_555
Nd11 O0 2.389208 1_555
Nd11 O15 2.390698 1_455
Nd11 O59 2.653342 1_555
Nd11 O49 2.655658 1_555
Nd11 O55 2.698979 1_455
Nd11 O1 2.711593 1_465
Nd12 O60 2.418150 1_555
Nd12 O32 2.464629 1_555
Nd12 O16 2.507436 1_555
Nd12 O18 2.518854 1_555
Nd12 O28 2.534295 1_555
Nd12 O4 2.579782 1_555
Nd12 O22 2.630322 1_555
Nd12 O8 2.727262 1_555
Nd13 O61 2.418150 1_555
Nd13 O33 2.464629 1_555
Nd13 O17 2.507436 1_555
Nd13 O19 2.518854 1_555
Nd13 O29 2.534295 1_555
Nd13 O5 2.579782 1_555
Nd13 O23 2.630322 1_555
Nd13 O9 2.727262 1_555
Nd14 O62 2.418150 1_655
Nd14 O34 2.464629 1_555
Nd14 O18 2.507436 1_655
Nd14 O16 2.518854 1_555
Nd14 O30 2.534295 1_655
Nd14 O6 2.579782 1_655
Nd14 O20 2.630322 1_555
Nd14 O10 2.727262 1_555
Nd15 O63 2.418150 1_455
Nd15 O35 2.464629 1_555
Nd15 O19 2.507436 1_455
Nd15 O17 2.518854 1_555
Nd15 O31 2.534295 1_455
Nd15 O7 2.579782 1_455
Nd15 O21 2.630322 1_555
Nd15 O11 2.727262 1_555
Nd16 O62 2.337344 1_655
Nd16 O34 2.420752 1_565
Nd16 O28 2.422596 1_555
Nd16 O16 2.422944 1_555
Nd16 O32 2.437022 1_655
Nd16 O30 2.441718 1_665
Nd16 O36 2.470921 1_555
Nd17 O63 2.337344 1_455
Nd17 O35 2.420752 1_545
Nd17 O29 2.422596 1_555
Nd17 O17 2.422944 1_555
Nd17 O33 2.437022 1_455
Nd17 O31 2.441718 1_445
Nd17 O37 2.470921 1_555
Nd18 O60 2.337344 1_555
Nd18 O32 2.420752 1_545
Nd18 O30 2.422596 1_555
Nd18 O18 2.422944 1_555
Nd18 O34 2.437022 1_555
Nd18 O28 2.441718 1_545
Nd18 O38 2.470921 1_555
Nd19 O61 2.337344 1_555
Nd19 O33 2.420752 1_565
Nd19 O31 2.422596 1_555
Nd19 O19 2.422944 1_555
Nd19 O35 2.437022 1_555
Nd19 O29 2.441718 1_565
Nd19 O39 2.470921 1_555
O0 Ti19 1.962032 1_565
O0 Ti2 2.232900 1_465
O1 Ti19 1.962032 1_555
O1 Ti3 2.232900 1_645
O2 Ti18 1.962032 1_655
O2 Ti0 2.232900 1_545
O3 Ti18 1.962032 1_566
O3 Ti1 2.232900 1_565
O4 Ti10 2.015599 1_555
O4 Ti14 2.059546 1_555
O5 Ti11 2.015599 1_555
O5 Ti15 2.059546 1_555
O6 Ti12 2.015599 1_555
O6 Ti16 2.059546 1_555
O7 Ti13 2.015599 1_555
O7 Ti17 2.059546 1_555
O8 Ti0 1.839070 1_555
O8 Ti14 2.240718 1_455
O9 Ti1 1.839070 1_555
O9 Ti15 2.240718 1_655
O10 Ti2 1.839070 1_555
O10 Ti16 2.240718 1_555
O11 Ti3 1.839070 1_555
O11 Ti17 2.240718 1_555
O12 Ti18 1.995328 1_666
O12 Ti8 1.995520 1_656
O13 Ti18 1.995328 1_555
O13 Ti8 1.995520 1_555
O14 Ti19 1.995328 1_555
O14 Ti9 1.995520 1_555
O15 Ti19 1.995328 1_565
O15 Ti9 1.995520 1_555
O16 Ti12 1.916959 1_555
O17 Ti13 1.916959 1_555
O18 Ti10 1.916959 1_455
O19 Ti11 1.916959 1_655
O20 Ti4 1.835785 1_555
O20 Ti12 2.322260 1_555
O21 Ti5 1.835785 1_555
O21 Ti13 2.322260 1_555
O22 Ti6 1.835785 1_555
O22 Ti10 2.322260 1_455
O23 Ti7 1.835785 1_555
O23 Ti11 2.322260 1_655
O24 Ti4 1.981392 1_555
O24 Ti2 1.981767 1_565
O25 Ti5 1.981392 1_555
O25 Ti3 1.981767 1_545
O26 Ti6 1.981392 1_555
O26 Ti0 1.981767 1_545
O27 Ti7 1.981392 1_555
O27 Ti1 1.981767 1_565
O28 Ti14 1.855344 1_555
O29 Ti15 1.855344 1_555
O30 Ti16 1.855344 1_555
O31 Ti17 1.855344 1_555
O32 Ti14 1.871964 1_455
O33 Ti15 1.871964 1_655
O34 Ti16 1.871964 1_555
O35 Ti17 1.871964 1_555
O36 Ti16 1.964812 1_565
O36 Ti12 2.001396 1_555
O37 Ti17 1.964812 1_545
O37 Ti13 2.001396 1_555
O38 Ti14 1.964812 1_445
O38 Ti10 2.001396 1_455
O39 Ti15 1.964812 1_665
O39 Ti11 2.001396 1_655
O40 Ti6 1.952319 1_555
O40 Ti10 2.054278 1_555
O41 Ti7 1.952319 1_555
O41 Ti11 2.054278 1_555
O42 Ti4 1.952319 1_455
O42 Ti12 2.054278 1_555
O43 Ti5 1.952319 1_655
O43 Ti13 2.054278 1_555
O44 Ti0 1.961227 1_555
O44 Ti14 2.002390 1_555
O45 Ti1 1.961227 1_555
O45 Ti15 2.002390 1_555
O46 Ti2 1.961227 1_455
O46 Ti16 2.002390 1_555
O47 Ti3 1.961227 1_655
O47 Ti17 2.002390 1_555
O48 Ti9 2.039406 1_555
O48 Ti4 2.045485 1_555
O49 Ti9 2.039406 1_555
O49 Ti5 2.045485 1_555
O50 Ti8 2.039406 1_555
O50 Ti6 2.045485 1_555
O51 Ti8 2.039406 1_656
O51 Ti7 2.045485 1_555
O52 Ti8 1.955899 1_655
O52 Ti6 2.258707 1_555
O53 Ti8 1.955899 1_556
O53 Ti7 2.258707 1_555
O54 Ti9 1.955899 1_555
O54 Ti4 2.258707 1_455
O55 Ti9 1.955899 1_555
O55 Ti5 2.258707 1_655
O56 Ti18 2.029084 1_565
O56 Ti0 2.029250 1_555
O57 Ti18 2.029084 1_656
O57 Ti1 2.029250 1_555
O58 Ti19 2.029084 1_555
O58 Ti2 2.029250 1_555
O59 Ti19 2.029084 1_565
O59 Ti3 2.029250 1_555
O60 Ti10 1.774287 1_555
O61 Ti11 1.774287 1_555
O62 Ti12 1.774287 1_555
O63 Ti13 1.774287 1_555
O64 Ti6 2.039098 1_555
O64 Ti0 2.039954 1_555
O65 Ti7 2.039098 1_555
O65 Ti1 2.039954 1_555
O66 Ti4 2.039098 1_455
O66 Ti2 2.039954 1_455
O67 Ti5 2.039098 1_655
O67 Ti3 2.039954 1_655
