# generated using pymatgen
data_KTi2H2F11
_symmetry_space_group_name_H-M   'P 1'
_cell_length_a   10.51369600
_cell_length_b   10.54756124
_cell_length_c   10.84156794
_cell_angle_alpha   79.08473504
_cell_angle_beta   115.13597869
_cell_angle_gamma   119.14098853
_symmetry_Int_Tables_number   1
_chemical_formula_structural   KTi2H2F11
_chemical_formula_sum   'K4 Ti8 H8 F44'
_cell_volume   950.41237364
_cell_formula_units_Z   4
loop_
 _symmetry_equiv_pos_site_id
 _symmetry_equiv_pos_as_xyz
  1  'x, y, z'
loop_
 _atom_site_type_symbol
 _atom_site_label
 _atom_site_symmetry_multiplicity
 _atom_site_fract_x
 _atom_site_fract_y
 _atom_site_fract_z
 _atom_site_occupancy
  K  K0  1  0.26062700  0.84304700  0.20116600  1
  K  K1  1  0.73937300  0.15695300  0.79883400  1
  K  K2  1  0.82134200  0.08447300  0.45177200  1
  K  K3  1  0.17865800  0.91552700  0.54822800  1
  Ti  Ti0  1  0.79698500  0.84566900  0.12066500  1
  Ti  Ti1  1  0.20301500  0.15433100  0.87933500  1
  Ti  Ti2  1  0.63905600  0.50113800  0.34067700  1
  Ti  Ti3  1  0.36094400  0.49886200  0.65932300  1
  Ti  Ti4  1  0.64814200  0.25469000  0.11493000  1
  Ti  Ti5  1  0.35185800  0.74531000  0.88507000  1
  Ti  Ti6  1  0.79951500  0.59303200  0.89023000  1
  Ti  Ti7  1  0.20048500  0.40696800  0.10977000  1
  H  H0  1  0.54927600  0.73206300  0.37538600  1
  H  H1  1  0.45072400  0.26793700  0.62461400  1
  H  H2  1  0.85902200  0.80262200  0.63222200  1
  H  H3  1  0.14097800  0.19737800  0.36777800  1
  H  H4  1  0.56660200  0.84955200  0.60281700  1
  H  H5  1  0.43339800  0.15044800  0.39718300  1
  H  H6  1  0.87303400  0.40509000  0.56845800  1
  H  H7  1  0.12696600  0.59491000  0.43154200  1
  F  F0  1  0.73081100  0.67196100  0.24250800  1
  F  F1  1  0.26918900  0.32803900  0.75749200  1
  F  F2  1  0.79031500  0.70601700  0.01246100  1
  F  F3  1  0.20968500  0.29398300  0.98753900  1
  F  F4  1  0.99898000  0.88552200  0.22777500  1
  F  F5  1  0.00102000  0.11447800  0.77222500  1
  F  F6  1  0.77720100  0.94722700  0.22127700  1
  F  F7  1  0.22279900  0.05277300  0.77872300  1
  F  F8  1  0.56250700  0.75611000  0.00965900  1
  F  F9  1  0.43749300  0.24389000  0.99034100  1
  F  F10  1  0.83175700  0.97954000  0.99342900  1
  F  F11  1  0.16824300  0.02046000  0.00657100  1
  F  F12  1  0.65630000  0.40062100  0.22041800  1
  F  F13  1  0.34370000  0.59937900  0.77958200  1
  F  F14  1  0.43405200  0.46767700  0.19408200  1
  F  F15  1  0.56594800  0.53232300  0.80591800  1
  F  F16  1  0.53911100  0.32308100  0.40899800  1
  F  F17  1  0.46088900  0.67691900  0.59100200  1
  F  F18  1  0.60321100  0.60705700  0.42659200  1
  F  F19  1  0.39678900  0.39294300  0.57340800  1
  F  F20  1  0.83429700  0.53203200  0.47189500  1
  F  F21  1  0.16570300  0.46796800  0.52810500  1
  F  F22  1  0.73799200  0.43249400  0.01515300  1
  F  F23  1  0.26200800  0.56750600  0.98484700  1
  F  F24  1  0.84325300  0.29089500  0.24005000  1
  F  F25  1  0.15674700  0.70910500  0.75995000  1
  F  F26  1  0.55154100  0.11107900  0.21403900  1
  F  F27  1  0.44845900  0.88892100  0.78596100  1
  F  F28  1  0.63697400  0.14713100  0.99780900  1
  F  F29  1  0.36302600  0.85286900  0.00219100  1
  F  F30  1  0.77272300  0.46375800  0.78360200  1
  F  F31  1  0.22727700  0.53624200  0.21639800  1
  F  F32  1  0.82381200  0.73909600  0.76539000  1
  F  F33  1  0.17618800  0.26090400  0.23461000  1
  F  F34  1  0.00523300  0.65448500  0.99510800  1
  F  F35  1  0.99476700  0.34551500  0.00489200  1
  F  F36  1  0.52999400  0.81578600  0.34850300  1
  F  F37  1  0.47000600  0.18421400  0.65149700  1
  F  F38  1  0.89044200  0.85415000  0.55830000  1
  F  F39  1  0.10955800  0.14585000  0.44170000  1
  F  F40  1  0.63380500  0.95319600  0.60920500  1
  F  F41  1  0.36619500  0.04680400  0.39079500  1
  F  F42  1  0.87084500  0.31390500  0.60661600  1
  F  F43  1  0.12915500  0.68609500  0.39338400  1
loop_
_geom_bond_atom_site_label_1
_geom_bond_atom_site_label_2
_geom_bond_distance
_geom_bond_site_symmetry_2
F0 Ti2 1.939824 1_555
F0 Ti0 2.051496 1_555
F1 Ti3 1.939824 1_555
F1 Ti1 2.051496 1_555
F2 Ti6 2.001217 1_554
F2 Ti0 2.008655 1_555
F3 Ti7 2.001217 1_556
F3 Ti1 2.008655 1_555
F4 Ti0 1.804354 1_555
F4 K0 3.126444 1_655
F4 K3 3.161885 1_655
F5 Ti1 1.804354 1_555
F5 K1 3.126444 1_455
F5 K2 3.161885 1_455
F6 Ti0 1.797997 1_555
F6 K2 2.878552 1_565
F7 Ti1 1.797997 1_555
F7 K3 2.878552 1_545
F8 Ti5 2.003388 1_554
F8 Ti0 2.014979 1_555
F9 Ti4 2.003388 1_556
F9 Ti1 2.014979 1_555
F10 Ti0 1.793962 1_556
F10 K1 2.725840 1_565
F11 Ti1 1.793962 1_554
F11 K0 2.725840 1_545
F12 Ti2 1.941212 1_555
F12 Ti4 2.034513 1_555
F13 Ti3 1.941212 1_555
F13 Ti5 2.034513 1_555
F14 Ti2 1.964049 1_555
F14 Ti7 2.014725 1_555
F15 Ti3 1.964049 1_555
F15 Ti6 2.014725 1_555
F16 H5 1.601129 1_555
F16 Ti2 1.841832 1_555
F17 H4 1.601129 1_555
F17 Ti3 1.841832 1_555
F18 H0 1.597416 1_555
F18 Ti2 1.833055 1_555
F19 H1 1.597416 1_555
F19 Ti3 1.833055 1_555
F20 H6 1.640916 1_555
F20 Ti2 1.840353 1_555
F21 H7 1.640916 1_555
F21 Ti3 1.840353 1_555
F22 Ti6 1.982148 1_554
F22 Ti4 1.988485 1_555
F23 Ti7 1.982148 1_556
F23 Ti5 1.988485 1_555
F24 Ti4 1.806434 1_555
F24 K2 2.851384 1_555
F25 Ti5 1.806434 1_555
F25 K3 2.851384 1_555
F26 Ti4 1.814637 1_555
F26 K0 2.955034 1_545
F26 K2 3.009719 1_555
F27 Ti5 1.814637 1_555
F27 K1 2.955034 1_565
F27 K3 3.009719 1_555
F28 Ti4 1.789506 1_556
F28 K1 2.757358 1_555
F29 Ti5 1.789506 1_554
F29 K0 2.757358 1_555
F30 Ti6 1.794761 1_555
F30 K1 3.060055 1_555
F31 Ti7 1.794761 1_555
F31 K0 3.060055 1_555
F32 H2 1.586355 1_555
F32 Ti6 1.841567 1_555
F33 H3 1.586355 1_555
F33 Ti7 1.841567 1_555
F34 Ti6 1.793175 1_455
F34 K0 2.746240 1_556
F35 Ti7 1.793175 1_655
F35 K1 2.746240 1_554
F36 H0 0.965685 1_555
F36 K0 2.725934 1_555
F36 K2 2.915731 1_565
F37 H1 0.965685 1_555
F37 K1 2.725934 1_555
F37 K3 2.915731 1_545
F38 H2 0.965349 1_555
F38 K2 2.776129 1_565
F38 K3 2.820819 1_655
F39 H3 0.965349 1_555
F39 K3 2.776129 1_545
F39 K2 2.820819 1_455
F40 H4 0.966400 1_555
F40 K1 2.736599 1_565
F40 K2 2.832516 1_565
F41 H5 0.966400 1_555
F41 K0 2.736599 1_545
F41 K3 2.832516 1_545
F42 H6 0.965680 1_555
F42 K1 2.811765 1_555
F42 K2 2.918023 1_555
F43 H7 0.965680 1_555
F43 K0 2.811765 1_555
F43 K3 2.918023 1_555
