# generated using pymatgen
data_Mg(PO5)2
_symmetry_space_group_name_H-M   'P 1'
_cell_length_a   9.48105400
_cell_length_b   5.43083400
_cell_length_c   8.36490010
_cell_angle_alpha   52.35031074
_cell_angle_beta   90.00000000
_cell_angle_gamma   90.00000000
_symmetry_Int_Tables_number   1
_chemical_formula_structural   Mg(PO5)2
_chemical_formula_sum   'Mg2 P4 O20'
_cell_volume   341.01821402
_cell_formula_units_Z   2
loop_
 _symmetry_equiv_pos_site_id
 _symmetry_equiv_pos_as_xyz
  1  'x, y, z'
loop_
 _atom_site_type_symbol
 _atom_site_label
 _atom_site_symmetry_multiplicity
 _atom_site_fract_x
 _atom_site_fract_y
 _atom_site_fract_z
 _atom_site_occupancy
  Mg  Mg0  1  0.00000000  0.00000000  0.00000000  1
  Mg  Mg1  1  0.50000000  0.00000000  0.50000000  1
  P  P0  1  0.82960000  0.69243300  0.63811100  1
  P  P1  1  0.17040000  0.30756700  0.36188900  1
  P  P2  1  0.32960000  0.30756700  0.86188900  1
  P  P3  1  0.67040000  0.69243300  0.13811100  1
  O  O0  1  0.37314400  0.02176300  0.85977700  1
  O  O1  1  0.62685600  0.97823700  0.14022300  1
  O  O2  1  0.87314400  0.97823700  0.64022300  1
  O  O3  1  0.12685600  0.02176300  0.35977700  1
  O  O4  1  0.41147200  0.24770800  0.06379100  1
  O  O5  1  0.58852800  0.75229200  0.93620900  1
  O  O6  1  0.91147200  0.75229200  0.43620900  1
  O  O7  1  0.08852800  0.24770800  0.56379100  1
  O  O8  1  0.38416100  0.61621000  0.68889500  1
  O  O9  1  0.61583900  0.38379000  0.31110500  1
  O  O10  1  0.88416100  0.38379000  0.81110500  1
  O  O11  1  0.11583900  0.61621000  0.18889500  1
  O  O12  1  0.03130700  0.95371700  0.70714200  1
  O  O13  1  0.96869300  0.04628300  0.29285800  1
  O  O14  1  0.53130700  0.04628300  0.79285800  1
  O  O15  1  0.46869300  0.95371700  0.20714200  1
  O  O16  1  0.67552200  0.74029100  0.59325400  1
  O  O17  1  0.32447800  0.25970900  0.40674600  1
  O  O18  1  0.17552200  0.25970900  0.90674600  1
  O  O19  1  0.82447800  0.74029100  0.09325400  1
loop_
_geom_bond_atom_site_label_1
_geom_bond_atom_site_label_2
_geom_bond_distance
_geom_bond_site_symmetry_2
Mg0 O19 2.005757 1_445
Mg0 O18 2.005757 1_554
Mg0 O11 2.005939 1_545
Mg0 O10 2.005939 1_454
Mg0 O12 2.627678 1_544
Mg0 O13 2.627678 1_455
Mg1 O16 2.005757 1_545
Mg1 O17 2.005757 1_555
Mg1 O9 2.005939 1_555
Mg1 O8 2.005939 1_545
Mg1 O14 2.627678 1_555
Mg1 O15 2.627678 1_545
O0 O14 1.577551 1_555
O0 P2 1.616612 1_555
O1 O15 1.577551 1_555
O1 P3 1.616612 1_555
O2 P0 1.616612 1_555
O3 P1 1.616612 1_555
O4 P2 1.699951 1_554
O5 P3 1.699951 1_556
O6 P0 1.699951 1_555
O7 P1 1.699951 1_555
O8 P2 1.485934 1_555
O9 P3 1.485934 1_555
O10 P0 1.485934 1_555
O11 P1 1.485934 1_555
O12 O7 1.393727 1_565
O12 O2 1.577551 1_455
O13 O6 1.393727 1_545
O13 O3 1.577551 1_655
O14 O5 1.393727 1_545
O15 O4 1.393727 1_565
O16 P0 1.491041 1_555
O17 P1 1.491041 1_555
O18 P2 1.491041 1_555
O19 P3 1.491041 1_555
