# generated using pymatgen
data_Ti2ZnO4
_symmetry_space_group_name_H-M   'P 1'
_cell_length_a   5.03588100
_cell_length_b   5.86718100
_cell_length_c   10.57480800
_cell_angle_alpha   90.00000000
_cell_angle_beta   90.00000000
_cell_angle_gamma   90.00000000
_symmetry_Int_Tables_number   1
_chemical_formula_structural   Ti2ZnO4
_chemical_formula_sum   'Ti8 Zn4 O16'
_cell_volume   312.44777486
_cell_formula_units_Z   4
loop_
 _symmetry_equiv_pos_site_id
 _symmetry_equiv_pos_as_xyz
  1  'x, y, z'
loop_
 _atom_site_type_symbol
 _atom_site_label
 _atom_site_symmetry_multiplicity
 _atom_site_fract_x
 _atom_site_fract_y
 _atom_site_fract_z
 _atom_site_occupancy
  Ti  Ti0  1  0.03017400  0.50000000  0.23871900  1
  Ti  Ti1  1  0.03017400  0.50000000  0.76128100  1
  Ti  Ti2  1  0.96982600  0.00000000  0.26128100  1
  Ti  Ti3  1  0.96982600  0.00000000  0.73871900  1
  Ti  Ti4  1  0.50000000  0.25000000  0.25000000  1
  Ti  Ti5  1  0.50000000  0.75000000  0.75000000  1
  Ti  Ti6  1  0.50000000  0.75000000  0.25000000  1
  Ti  Ti7  1  0.50000000  0.25000000  0.75000000  1
  Zn  Zn0  1  0.34445000  0.00000000  0.50000000  1
  Zn  Zn1  1  0.65555000  0.50000000  0.00000000  1
  Zn  Zn2  1  0.03569000  0.00000000  0.00000000  1
  Zn  Zn3  1  0.96431000  0.50000000  0.50000000  1
  O  O0  1  0.36241400  0.50000000  0.13438700  1
  O  O1  1  0.36241400  0.50000000  0.86561300  1
  O  O2  1  0.63758600  0.00000000  0.36561300  1
  O  O3  1  0.63758600  0.00000000  0.63438700  1
  O  O4  1  0.68527700  0.50000000  0.34969300  1
  O  O5  1  0.68527700  0.50000000  0.65030700  1
  O  O6  1  0.31472300  0.00000000  0.15030700  1
  O  O7  1  0.31472300  0.00000000  0.84969300  1
  O  O8  1  0.16088600  0.24891300  0.36501700  1
  O  O9  1  0.16088600  0.75108700  0.63498300  1
  O  O10  1  0.83911400  0.74891300  0.13498300  1
  O  O11  1  0.83911400  0.25108700  0.86501700  1
  O  O12  1  0.83911400  0.25108700  0.13498300  1
  O  O13  1  0.83911400  0.74891300  0.86501700  1
  O  O14  1  0.16088600  0.75108700  0.36501700  1
  O  O15  1  0.16088600  0.24891300  0.63498300  1
loop_
_geom_bond_atom_site_label_1
_geom_bond_atom_site_label_2
_geom_bond_distance
_geom_bond_site_symmetry_2
O0 Ti0 2.004142 1_555
O0 Ti4 2.031322 1_555
O0 Ti6 2.031322 1_555
O0 Zn1 2.049081 1_555
O1 Ti1 2.004142 1_555
O1 Ti5 2.031322 1_555
O1 Ti7 2.031322 1_555
O1 Zn1 2.049081 1_556
O2 Ti2 2.004142 1_555
O2 Ti4 2.031322 1_555
O2 Ti6 2.031322 1_545
O2 Zn0 2.049081 1_555
O3 Ti3 2.004142 1_555
O3 Ti7 2.031322 1_555
O3 Ti5 2.031322 1_545
O3 Zn0 2.049081 1_555
O4 Ti4 2.033088 1_555
O4 Ti6 2.033088 1_555
O4 Ti0 2.096152 1_655
O4 Zn3 2.121539 1_555
O5 Ti7 2.033088 1_555
O5 Ti5 2.033088 1_555
O5 Ti1 2.096152 1_655
O5 Zn3 2.121539 1_555
O6 Ti4 2.033088 1_555
O6 Ti6 2.033088 1_545
O6 Ti2 2.096152 1_455
O6 Zn2 2.121539 1_555
O7 Ti7 2.033088 1_555
O7 Ti5 2.033088 1_545
O7 Ti3 2.096152 1_455
O7 Zn2 2.121539 1_556
O8 Ti2 2.064448 1_455
O8 Ti0 2.094588 1_555
O8 Ti4 2.096605 1_555
O8 Zn0 2.241623 1_555
O8 Zn3 2.277659 1_455
O9 Ti3 2.064448 1_465
O9 Ti1 2.094588 1_555
O9 Ti5 2.096605 1_555
O9 Zn0 2.241623 1_565
O9 Zn3 2.277659 1_455
O10 Ti0 2.064448 1_655
O10 Ti2 2.094588 1_565
O10 Ti6 2.096605 1_555
O10 Zn1 2.241623 1_555
O10 Zn2 2.277659 1_665
O11 Ti1 2.064448 1_655
O11 Ti3 2.094588 1_555
O11 Ti7 2.096605 1_555
O11 Zn1 2.241623 1_556
O11 Zn2 2.277659 1_656
O12 Ti0 2.064448 1_655
O12 Ti2 2.094588 1_555
O12 Ti4 2.096605 1_555
O12 Zn1 2.241623 1_555
O12 Zn2 2.277659 1_655
O13 Ti1 2.064448 1_655
O13 Ti3 2.094588 1_565
O13 Ti5 2.096605 1_555
O13 Zn1 2.241623 1_556
O13 Zn2 2.277659 1_666
O14 Ti2 2.064448 1_465
O14 Ti0 2.094588 1_555
O14 Ti6 2.096605 1_555
O14 Zn0 2.241623 1_565
O14 Zn3 2.277659 1_455
O15 Ti3 2.064448 1_455
O15 Ti1 2.094588 1_555
O15 Ti7 2.096605 1_555
O15 Zn0 2.241623 1_555
O15 Zn3 2.277659 1_455
