# generated using pymatgen
data_Mg(WO2)2
_symmetry_space_group_name_H-M   'P 1'
_cell_length_a   7.94732094
_cell_length_b   7.94732094
_cell_length_c   10.00368990
_cell_angle_alpha   51.34012767
_cell_angle_beta   51.34012767
_cell_angle_gamma   23.29845629
_symmetry_Int_Tables_number   1
_chemical_formula_structural   Mg(WO2)2
_chemical_formula_sum   'Mg2 W4 O8'
_cell_volume   192.46856506
_cell_formula_units_Z   2
loop_
 _symmetry_equiv_pos_site_id
 _symmetry_equiv_pos_as_xyz
  1  'x, y, z'
loop_
 _atom_site_type_symbol
 _atom_site_label
 _atom_site_symmetry_multiplicity
 _atom_site_fract_x
 _atom_site_fract_y
 _atom_site_fract_z
 _atom_site_occupancy
  Mg  Mg0  1  0.68464400  0.68464400  0.29974800  1
  Mg  Mg1  1  0.31535600  0.31535600  0.70025200  1
  W  W0  1  0.36355100  0.36355100  0.95130100  1
  W  W1  1  0.85499300  0.85499300  0.31822000  1
  W  W2  1  0.14500700  0.14500700  0.68178000  1
  W  W3  1  0.63644900  0.63644900  0.04869900  1
  O  O0  1  0.14307900  0.14307900  0.90174400  1
  O  O1  1  0.53726500  0.53726500  0.74001300  1
  O  O2  1  0.46273500  0.46273500  0.25998700  1
  O  O3  1  0.85692100  0.85692100  0.09825600  1
  O  O4  1  0.82928000  0.82928000  0.82831800  1
  O  O5  1  0.21827300  0.21827300  0.40630700  1
  O  O6  1  0.17072000  0.17072000  0.17168200  1
  O  O7  1  0.78172700  0.78172700  0.59369300  1
loop_
_geom_bond_atom_site_label_1
_geom_bond_atom_site_label_2
_geom_bond_distance
_geom_bond_site_symmetry_2
Mg0 O3 2.087920 1_555
Mg0 O6 2.148873 1_655
Mg0 O6 2.148873 1_565
Mg0 O5 2.167348 1_565
Mg0 O5 2.167348 1_655
Mg1 O0 2.087920 1_555
Mg1 O4 2.148873 1_545
Mg1 O4 2.148873 1_455
Mg1 O7 2.167348 1_545
Mg1 O7 2.167348 1_455
O0 W3 2.133867 1_456
O0 W3 2.133867 1_546
O0 W2 2.181430 1_555
O1 W2 2.116889 1_565
O1 W2 2.116889 1_655
O1 W0 2.118721 1_555
O2 W1 2.116889 1_455
O2 W1 2.116889 1_545
O2 W3 2.118721 1_555
O3 W0 2.133867 1_654
O3 W0 2.133867 1_564
O3 W1 2.181430 1_555
O4 W0 2.282685 1_655
O4 W0 2.282685 1_565
O4 W3 2.330055 1_556
O5 W2 2.210313 1_555
O5 W1 2.342864 1_545
O5 W1 2.342864 1_455
O6 W3 2.282685 1_545
O6 W3 2.282685 1_455
O6 W0 2.330055 1_554
O7 W1 2.210313 1_555
O7 W2 2.342864 1_655
O7 W2 2.342864 1_565
