# generated using pymatgen
data_La3Cu3Sb4
_symmetry_space_group_name_H-M   'P 1'
_cell_length_a   8.56574815
_cell_length_b   8.56574815
_cell_length_c   8.56574815
_cell_angle_alpha   109.47122063
_cell_angle_beta   109.47122063
_cell_angle_gamma   109.47122063
_symmetry_Int_Tables_number   1
_chemical_formula_structural   La3Cu3Sb4
_chemical_formula_sum   'La6 Cu6 Sb8'
_cell_volume   483.80907750
_cell_formula_units_Z   2
loop_
 _symmetry_equiv_pos_site_id
 _symmetry_equiv_pos_as_xyz
  1  'x, y, z'
loop_
 _atom_site_type_symbol
 _atom_site_label
 _atom_site_symmetry_multiplicity
 _atom_site_fract_x
 _atom_site_fract_y
 _atom_site_fract_z
 _atom_site_occupancy
  La  La0  1  0.87500000  0.25000000  0.12500000  1
  La  La1  1  0.62500000  0.75000000  0.37500000  1
  La  La2  1  0.25000000  0.12500000  0.87500000  1
  La  La3  1  0.75000000  0.37500000  0.62500000  1
  La  La4  1  0.12500000  0.87500000  0.25000000  1
  La  La5  1  0.37500000  0.62500000  0.75000000  1
  Cu  Cu0  1  0.37500000  0.25000000  0.62500000  1
  Cu  Cu1  1  0.12500000  0.75000000  0.87500000  1
  Cu  Cu2  1  0.25000000  0.62500000  0.37500000  1
  Cu  Cu3  1  0.75000000  0.87500000  0.12500000  1
  Cu  Cu4  1  0.62500000  0.37500000  0.25000000  1
  Cu  Cu5  1  0.87500000  0.12500000  0.75000000  1
  Sb  Sb0  1  0.65942600  0.50000000  0.00000000  1
  Sb  Sb1  1  0.50000000  0.00000000  0.65942600  1
  Sb  Sb2  1  0.00000000  0.65942600  0.50000000  1
  Sb  Sb3  1  0.84057400  0.84057400  0.84057400  1
  Sb  Sb4  1  0.50000000  0.00000000  0.15942600  1
  Sb  Sb5  1  0.15942600  0.50000000  0.00000000  1
  Sb  Sb6  1  0.00000000  0.15942600  0.50000000  1
  Sb  Sb7  1  0.34057400  0.34057400  0.34057400  1
loop_
_geom_bond_atom_site_label_1
_geom_bond_atom_site_label_2
_geom_bond_distance
_geom_bond_site_symmetry_2
La0 Sb5 3.384872 1_655
La0 Sb4 3.384872 1_555
La0 Sb2 3.384872 1_655
La0 Sb3 3.384872 1_544
La0 Sb0 3.462459 1_555
La0 Sb7 3.462459 1_655
La0 Sb1 3.462459 1_554
La0 Sb6 3.462459 1_655
La1 Sb6 3.384872 1_665
La1 Sb1 3.384872 1_565
La1 Sb0 3.384872 1_555
La1 Sb7 3.384872 1_555
La1 Sb3 3.462459 1_555
La1 Sb2 3.462459 1_655
La1 Sb4 3.462459 1_565
La1 Sb5 3.462459 1_555
La2 Sb4 3.384872 1_556
La2 Sb6 3.384872 1_555
La2 Sb0 3.384872 1_556
La2 Sb3 3.384872 1_445
La2 Sb7 3.462459 1_556
La2 Sb2 3.462459 1_545
La2 Sb1 3.462459 1_555
La2 Sb5 3.462459 1_556
La3 Sb5 3.384872 1_656
La3 Sb1 3.384872 1_555
La3 Sb2 3.384872 1_655
La3 Sb7 3.384872 1_555
La3 Sb3 3.462459 1_555
La3 Sb0 3.462459 1_556
La3 Sb4 3.462459 1_555
La3 Sb6 3.462459 1_655
La4 Sb6 3.384872 1_565
La4 Sb5 3.384872 1_555
La4 Sb1 3.384872 1_565
La4 Sb3 3.384872 1_454
La4 Sb7 3.462459 1_565
La4 Sb2 3.462459 1_555
La4 Sb0 3.462459 1_455
La4 Sb4 3.462459 1_565
La5 Sb4 3.384872 1_566
La5 Sb2 3.384872 1_555
La5 Sb7 3.384872 1_555
La5 Sb0 3.384872 1_556
La5 Sb3 3.462459 1_555
La5 Sb1 3.462459 1_565
La5 Sb6 3.462459 1_555
La5 Sb5 3.462459 1_556
Cu0 Sb6 2.749222 1_555
Cu0 Sb7 2.749222 1_555
Cu0 Sb1 2.749222 1_555
Cu0 Sb0 2.749222 1_556
Cu0 La4 3.028449 1_545
Cu0 La2 3.028449 1_555
Cu0 La5 3.028449 1_555
Cu0 La3 3.028449 1_555
Cu1 Sb4 2.749222 1_566
Cu1 Sb5 2.749222 1_556
Cu1 Sb2 2.749222 1_555
Cu1 Sb3 2.749222 1_455
Cu1 La2 3.028449 1_565
Cu1 La4 3.028449 1_556
Cu1 La5 3.028449 1_555
Cu1 La3 3.028449 1_455
Cu2 Sb5 2.749222 1_555
Cu2 Sb1 2.749222 1_565
Cu2 Sb7 2.749222 1_555
Cu2 Sb2 2.749222 1_555
Cu2 La4 3.028449 1_555
Cu2 La1 3.028449 1_555
Cu2 La0 3.028449 1_455
Cu2 La5 3.028449 1_555
Cu3 Sb6 2.749222 1_665
Cu3 Sb4 2.749222 1_565
Cu3 Sb0 2.749222 1_555
Cu3 Sb3 2.749222 1_554
Cu3 La1 3.028449 1_555
Cu3 La0 3.028449 1_565
Cu3 La4 3.028449 1_655
Cu3 La5 3.028449 1_554
Cu4 Sb4 2.749222 1_555
Cu4 Sb2 2.749222 1_655
Cu4 Sb0 2.749222 1_555
Cu4 Sb7 2.749222 1_555
Cu4 La2 3.028449 1_554
Cu4 La1 3.028449 1_555
Cu4 La3 3.028449 1_555
Cu4 La0 3.028449 1_555
Cu5 Sb5 2.749222 1_656
Cu5 Sb6 2.749222 1_655
Cu5 Sb1 2.749222 1_555
Cu5 Sb3 2.749222 1_545
Cu5 La2 3.028449 1_655
Cu5 La1 3.028449 1_545
Cu5 La3 3.028449 1_555
Cu5 La0 3.028449 1_556
