# generated using pymatgen
data_Co(C4N3)2
_symmetry_space_group_name_H-M   'P 1'
_cell_length_a   12.32090764
_cell_length_b   12.93210470
_cell_length_c   5.85384896
_cell_angle_alpha   76.35496781
_cell_angle_beta   97.11171062
_cell_angle_gamma   121.65500559
_symmetry_Int_Tables_number   1
_chemical_formula_structural   Co(C4N3)2
_chemical_formula_sum   'Co3 C24 N18'
_cell_volume   771.54835730
_cell_formula_units_Z   3
loop_
 _symmetry_equiv_pos_site_id
 _symmetry_equiv_pos_as_xyz
  1  'x, y, z'
loop_
 _atom_site_type_symbol
 _atom_site_label
 _atom_site_symmetry_multiplicity
 _atom_site_fract_x
 _atom_site_fract_y
 _atom_site_fract_z
 _atom_site_occupancy
  Co  Co0  1  0.00000000  0.00840900  0.98996200  1
  Co  Co1  1  0.33532700  0.67451800  0.94749700  1
  Co  Co2  1  0.66467300  0.33919000  0.94749700  1
  C  C0  1  0.00000000  0.62716100  0.26443600  1
  C  C1  1  0.66364100  0.99491400  0.18982300  1
  C  C2  1  0.33635900  0.33127300  0.18982300  1
  C  C3  1  0.00000000  0.69427400  0.42277100  1
  C  C4  1  0.77869900  0.00178300  0.16626200  1
  C  C5  1  0.22130100  0.22308500  0.16626200  1
  C  C6  1  0.11318400  0.64947600  0.17986700  1
  C  C7  1  0.55126100  0.88723800  0.14881600  1
  C  C8  1  0.33803800  0.43778800  0.21123700  1
  C  C9  1  0.88681600  0.53629200  0.17986700  1
  C  C10  1  0.66196200  0.09975000  0.21123700  1
  C  C11  1  0.44873900  0.33597800  0.14881600  1
  C  C12  1  0.67255100  0.68266500  0.75663500  1
  C  C13  1  0.00000000  0.35041300  0.72973300  1
  C  C14  1  0.32744900  0.01011400  0.75663500  1
  C  C15  1  0.78550700  0.78411900  0.81680100  1
  C  C16  1  0.00000000  0.24503400  0.70491100  1
  C  C17  1  0.21449300  0.99861200  0.81680100  1
  C  C18  1  0.55946300  0.68101100  0.77628100  1
  C  C19  1  0.11450800  0.45914600  0.76001900  1
  C  C20  1  0.32987100  0.91022900  0.70821500  1
  C  C21  1  0.44053700  0.12154800  0.77628100  1
  C  C22  1  0.67012900  0.58035800  0.70821500  1
  C  C23  1  0.88549200  0.34463800  0.76001900  1
  N  N0  1  0.00000000  0.74997600  0.55455000  1
  N  N1  1  0.87205500  0.00261200  0.14117700  1
  N  N2  1  0.12794500  0.13055600  0.14117700  1
  N  N3  1  0.20339200  0.66158200  0.10351600  1
  N  N4  1  0.46132700  0.79672800  0.10698600  1
  N  N5  1  0.33901000  0.52796100  0.22049100  1
  N  N6  1  0.79660800  0.45818900  0.10351600  1
  N  N7  1  0.66099000  0.18895100  0.22049100  1
  N  N8  1  0.53867300  0.33540000  0.10698600  1
  N  N9  1  0.87320400  0.87126000  0.87486600  1
  N  N10  1  0.00000000  0.15517500  0.69341100  1
  N  N11  1  0.12679600  0.99805600  0.87486600  1
  N  N12  1  0.46843400  0.68515500  0.79583700  1
  N  N13  1  0.20711900  0.55097500  0.79011100  1
  N  N14  1  0.33349900  0.82566500  0.67695600  1
  N  N15  1  0.53156600  0.21672100  0.79583700  1
  N  N16  1  0.66650100  0.49216500  0.67695600  1
  N  N17  1  0.79288100  0.34385600  0.79011100  1
loop_
_geom_bond_atom_site_label_1
_geom_bond_atom_site_label_2
_geom_bond_distance
_geom_bond_site_symmetry_2
Co0 N9 1.853427 1_445
Co0 N11 1.853428 1_545
Co0 N2 1.861277 1_556
Co0 N1 1.861284 1_456
Co0 N10 2.249756 1_555
Co1 N3 1.874743 1_556
Co1 N4 1.881897 1_556
Co1 N12 1.887540 1_555
Co1 N13 1.892571 1_555
Co1 N5 2.188902 1_556
Co1 N14 2.214977 1_555
Co2 N6 1.874742 1_556
Co2 N8 1.881897 1_556
Co2 N15 1.887533 1_555
Co2 N17 1.892564 1_555
Co2 N7 2.188893 1_556
Co2 N16 2.214977 1_555
C0 C9 1.397930 1_455
C0 C6 1.397931 1_555
C0 C3 1.411348 1_555
C1 C4 1.395355 1_565
C1 C10 1.401593 1_565
C1 C7 1.401965 1_555
C2 C5 1.395348 1_555
C2 C8 1.401593 1_555
C3 N0 1.173096 1_555
C4 N1 1.171685 1_555
C5 N2 1.171698 1_555
C6 N3 1.169159 1_555
C7 N4 1.168134 1_555
C8 N5 1.173846 1_555
C9 N6 1.169165 1_555
C10 N7 1.173846 1_555
C11 N8 1.168149 1_555
C11 C2 1.401959 1_555
C12 C18 1.400833 1_555
C12 C15 1.400867 1_555
C12 C22 1.401812 1_555
C13 C16 1.404168 1_555
C13 C19 1.404485 1_555
C13 C23 1.404486 1_455
C14 C21 1.400833 1_555
C14 C17 1.400867 1_545
C14 C20 1.401812 1_545
C15 N9 1.168209 1_555
C16 N10 1.179762 1_555
C17 N11 1.168209 1_555
C18 N12 1.171173 1_555
C19 N13 1.170448 1_555
C20 N14 1.174381 1_555
C21 N15 1.171173 1_555
C22 N16 1.174394 1_555
C23 N17 1.170448 1_555
