# generated using pymatgen
data_Fe2Cu8P4O21
_symmetry_space_group_name_H-M   'P 1'
_cell_length_a   8.63190940
_cell_length_b   8.63190940
_cell_length_c   9.63836795
_cell_angle_alpha   67.47951641
_cell_angle_beta   67.47951641
_cell_angle_gamma   41.00835665
_symmetry_Int_Tables_number   1
_chemical_formula_structural   Fe2Cu8P4O21
_chemical_formula_sum   'Fe2 Cu8 P4 O21'
_cell_volume   430.03052654
_cell_formula_units_Z   1
loop_
 _symmetry_equiv_pos_site_id
 _symmetry_equiv_pos_as_xyz
  1  'x, y, z'
loop_
 _atom_site_type_symbol
 _atom_site_label
 _atom_site_symmetry_multiplicity
 _atom_site_fract_x
 _atom_site_fract_y
 _atom_site_fract_z
 _atom_site_occupancy
  Fe  Fe0  1  0.00000000  0.50000000  0.50000000  1
  Fe  Fe1  1  0.50000000  0.00000000  0.50000000  1
  Cu  Cu0  1  0.36997800  0.36997800  0.63571300  1
  Cu  Cu1  1  0.63002200  0.63002200  0.36428700  1
  Cu  Cu2  1  0.46802000  0.46802000  0.31505800  1
  Cu  Cu3  1  0.53198000  0.53198000  0.68494200  1
  Cu  Cu4  1  0.14038300  0.62682000  0.95057300  1
  Cu  Cu5  1  0.62682000  0.14038300  0.95057300  1
  Cu  Cu6  1  0.85961700  0.37318000  0.04942700  1
  Cu  Cu7  1  0.37318000  0.85961700  0.04942700  1
  P  P0  1  0.91835300  0.91835300  0.21210000  1
  P  P1  1  0.08164700  0.08164700  0.78790000  1
  P  P2  1  0.77026100  0.77026100  0.77918900  1
  P  P3  1  0.22973900  0.22973900  0.22081100  1
  O  O0  1  0.87788200  0.87788200  0.08904500  1
  O  O1  1  0.12211800  0.12211800  0.91095500  1
  O  O2  1  0.83971500  0.83971500  0.37694700  1
  O  O3  1  0.16028500  0.16028500  0.62305300  1
  O  O4  1  0.18705900  0.76211300  0.19235800  1
  O  O5  1  0.76211300  0.18705900  0.19235800  1
  O  O6  1  0.81294100  0.23788700  0.80764200  1
  O  O7  1  0.23788700  0.81294100  0.80764200  1
  O  O8  1  0.83551800  0.83551800  0.85752100  1
  O  O9  1  0.16448200  0.16448200  0.14247900  1
  O  O10  1  0.66843100  0.66843100  0.89550400  1
  O  O11  1  0.33156900  0.33156900  0.10449600  1
  O  O12  1  0.99460100  0.57614200  0.67803700  1
  O  O13  1  0.57614200  0.99460100  0.67803700  1
  O  O14  1  0.00539900  0.42385800  0.32196300  1
  O  O15  1  0.42385800  0.00539900  0.32196300  1
  O  O16  1  0.33905000  0.33905000  0.44912700  1
  O  O17  1  0.66095000  0.66095000  0.55087300  1
  O  O18  1  0.40000700  0.40000700  0.80753200  1
  O  O19  1  0.59999300  0.59999300  0.19246800  1
  O  O20  1  0.50000000  0.50000000  0.50000000  1
loop_
_geom_bond_atom_site_label_1
_geom_bond_atom_site_label_2
_geom_bond_distance
_geom_bond_site_symmetry_2
Fe0 O17 2.005467 1_455
Fe0 O16 2.005467 1_555
Fe0 O12 2.033524 1_455
Fe0 O14 2.033524 1_555
Fe0 O2 2.095114 1_455
Fe0 O3 2.095114 1_555
Fe1 O17 2.005467 1_545
Fe1 O16 2.005467 1_555
Fe1 O13 2.033524 1_545
Fe1 O15 2.033524 1_555
Fe1 O2 2.095114 1_545
Fe1 O3 2.095114 1_555
Cu0 O18 1.906817 1_555
Cu0 O20 1.970330 1_555
Cu0 O16 2.054228 1_555
Cu0 O12 2.161792 1_455
Cu0 O13 2.161792 1_545
Cu1 O19 1.906817 1_555
Cu1 O20 1.970330 1_555
Cu1 O17 2.054228 1_555
Cu1 O15 2.161792 1_565
Cu1 O14 2.161792 1_655
Cu2 O16 1.953197 1_555
Cu2 O19 1.971790 1_555
Cu2 O20 2.049081 1_555
Cu2 O5 2.080932 1_555
Cu2 O4 2.080932 1_555
Cu3 O17 1.953197 1_555
Cu3 O18 1.971790 1_555
Cu3 O20 2.049081 1_555
Cu3 O7 2.080932 1_555
Cu3 O6 2.080932 1_555
Cu4 O18 1.958360 1_555
Cu4 O11 2.012753 1_556
Cu4 O0 2.024849 1_456
Cu4 O8 2.095314 1_455
Cu4 O7 2.155096 1_555
Cu5 O18 1.958360 1_555
Cu5 O11 2.012753 1_556
Cu5 O0 2.024849 1_546
Cu5 O8 2.095314 1_545
Cu5 O6 2.155096 1_555
Cu6 O19 1.958360 1_555
Cu6 O10 2.012753 1_554
Cu6 O1 2.024849 1_654
Cu6 O9 2.095314 1_655
Cu6 O5 2.155096 1_555
Cu7 O19 1.958360 1_555
Cu7 O10 2.012753 1_554
Cu7 O1 2.024849 1_564
Cu7 O9 2.095314 1_565
Cu7 O4 2.155096 1_555
O0 P0 1.571549 1_555
O1 P1 1.571549 1_555
O2 P0 1.577674 1_555
O3 P1 1.577674 1_555
O4 P0 1.540241 1_455
O5 P0 1.540241 1_545
O6 P1 1.540241 1_655
O7 P1 1.540241 1_565
O8 P2 1.528084 1_555
O9 P3 1.528084 1_555
O10 P2 1.567932 1_555
O11 P3 1.567932 1_555
O12 P2 1.554412 1_555
O13 P2 1.554412 1_555
O14 P3 1.554412 1_555
O15 P3 1.554412 1_555
