# generated using pymatgen
data_KMgV5(H8O11)2
_symmetry_space_group_name_H-M   'P 1'
_cell_length_a   8.97803741
_cell_length_b   10.83612570
_cell_length_c   11.21788013
_cell_angle_alpha   66.22247357
_cell_angle_beta   73.28692753
_cell_angle_gamma   73.75503953
_symmetry_Int_Tables_number   1
_chemical_formula_structural   KMgV5(H8O11)2
_chemical_formula_sum   'K2 Mg2 V10 H32 O44'
_cell_volume   939.67776128
_cell_formula_units_Z   2
loop_
 _symmetry_equiv_pos_site_id
 _symmetry_equiv_pos_as_xyz
  1  'x, y, z'
loop_
 _atom_site_type_symbol
 _atom_site_label
 _atom_site_symmetry_multiplicity
 _atom_site_fract_x
 _atom_site_fract_y
 _atom_site_fract_z
 _atom_site_occupancy
  K  K0  1  0.66322400  0.10524900  0.20291600  1
  K  K1  1  0.33677600  0.89475100  0.79708400  1
  Mg  Mg0  1  0.21891500  0.26927200  0.21162200  1
  Mg  Mg1  1  0.78108500  0.73072800  0.78837800  1
  V  V0  1  0.32944000  0.48831600  0.48404400  1
  V  V1  1  0.67056000  0.51168400  0.51595600  1
  V  V2  1  0.60772300  0.22121400  0.54812200  1
  V  V3  1  0.39227700  0.77878600  0.45187800  1
  V  V4  1  0.65152900  0.45019400  0.26876900  1
  V  V5  1  0.34847100  0.54980600  0.73123100  1
  V  V6  1  0.29823800  0.25848700  0.76166700  1
  V  V7  1  0.70176200  0.74151300  0.23833300  1
  V  V8  1  0.37536400  0.71610700  0.20267100  1
  V  V9  1  0.62463600  0.28389300  0.79732900  1
  H  H0  1  0.13757700  0.49203600  0.30261800  1
  H  H1  1  0.86242300  0.50796400  0.69738200  1
  H  H2  1  0.98615300  0.47552300  0.26880800  1
  H  H3  1  0.01384700  0.52447700  0.73119200  1
  H  H4  1  0.32972100  0.01974100  0.18330700  1
  H  H5  1  0.67027900  0.98025900  0.81669300  1
  H  H6  1  0.38777700  0.13022300  0.04160100  1
  H  H7  1  0.61222300  0.86977700  0.95839900  1
  H  H8  1  0.07628400  0.83475300  0.37244400  1
  H  H9  1  0.92371600  0.16524700  0.62755600  1
  H  H10  1  0.92965000  0.76217600  0.42808300  1
  H  H11  1  0.07035000  0.23782400  0.57191700  1
  H  H12  1  0.04416100  0.11098000  0.03716200  1
  H  H13  1  0.95583900  0.88902000  0.96283800  1
  H  H14  1  0.01546100  0.97067000  0.14486500  1
  H  H15  1  0.98453900  0.02933000  0.85513500  1
  H  H16  1  0.12025800  0.38186000  0.96768400  1
  H  H17  1  0.87974200  0.61814000  0.03231600  1
  H  H18  1  0.97148200  0.34321300  0.08740700  1
  H  H19  1  0.02851800  0.65678700  0.91259300  1
  H  H20  1  0.39223200  0.24276900  0.39174000  1
  H  H21  1  0.60776800  0.75723100  0.60826000  1
  H  H22  1  0.32536100  0.10308200  0.43902100  1
  H  H23  1  0.67463900  0.89691800  0.56097900  1
  H  H24  1  0.42152900  0.44717200  0.12502300  1
  H  H25  1  0.57847100  0.55282800  0.87497700  1
  H  H26  1  0.42952800  0.40547000  0.00108700  1
  H  H27  1  0.57047200  0.59453000  0.99891300  1
  H  H28  1  0.98771900  0.11400500  0.31945200  1
  H  H29  1  0.01228100  0.88599500  0.68054800  1
  H  H30  1  0.03511200  0.14365900  0.43374000  1
  H  H31  1  0.96488800  0.85634100  0.56626000  1
  O  O0  1  0.69490000  0.10457200  0.47905800  1
  O  O1  1  0.30510000  0.89542800  0.52094200  1
  O  O2  1  0.70782500  0.17581300  0.68828600  1
  O  O3  1  0.29217500  0.82418700  0.31171400  1
  O  O4  1  0.47915900  0.35255800  0.40947200  1
  O  O5  1  0.52084100  0.64744200  0.59052800  1
  O  O6  1  0.24495800  0.58116900  0.34285900  1
  O  O7  1  0.75504200  0.41883100  0.65714100  1
  O  O8  1  0.20717000  0.37547600  0.59489500  1
  O  O9  1  0.79283000  0.62452400  0.40510500  1
  O  O10  1  0.48037000  0.40463100  0.61918600  1
  O  O11  1  0.51963000  0.59536900  0.38081400  1
  O  O12  1  0.74754500  0.33568100  0.19829400  1
  O  O13  1  0.25245500  0.66431900  0.80170600  1
  O  O14  1  0.78370800  0.57608200  0.19678900  1
  O  O15  1  0.21629200  0.42391800  0.80321100  1
  O  O16  1  0.50215700  0.55475900  0.16375100  1
  O  O17  1  0.49784300  0.44524100  0.83624900  1
  O  O18  1  0.42895000  0.15684800  0.65684800  1
  O  O19  1  0.57105000  0.84315200  0.34315200  1
  O  O20  1  0.55500000  0.79716000  0.13038900  1
  O  O21  1  0.44500000  0.20284000  0.86961100  1
  O  O22  1  0.16301500  0.16512400  0.85426200  1
  O  O23  1  0.83698500  0.83487600  0.14573800  1
  O  O24  1  0.26564400  0.62754400  0.56141100  1
  O  O25  1  0.73435600  0.37245600  0.43858900  1
  O  O26  1  0.27249300  0.79005500  0.08560300  1
  O  O27  1  0.72750700  0.20994500  0.91439700  1
  O  O28  1  0.09356100  0.42942400  0.28369000  1
  O  O29  1  0.90643900  0.57057600  0.71631000  1
  O  O30  1  0.36065800  0.11016800  0.13919300  1
  O  O31  1  0.63934200  0.88983200  0.86080700  1
  O  O32  1  0.96260600  0.84647000  0.41433200  1
  O  O33  1  0.03739400  0.15353000  0.58566800  1
  O  O34  1  0.98838400  0.06896300  0.12857800  1
  O  O35  1  0.01161600  0.93103700  0.87142200  1
  O  O36  1  0.08395400  0.34816800  0.06587700  1
  O  O37  1  0.91604600  0.65183200  0.93412300  1
  O  O38  1  0.35468700  0.18320500  0.36218400  1
  O  O39  1  0.64531300  0.81679500  0.63781600  1
  O  O40  1  0.39763900  0.37803200  0.09974300  1
  O  O41  1  0.60236100  0.62196800  0.90025700  1
  O  O42  1  0.06666300  0.14334500  0.34098700  1
  O  O43  1  0.93333700  0.85665500  0.65901300  1
loop_
_geom_bond_atom_site_label_1
_geom_bond_atom_site_label_2
_geom_bond_distance
_geom_bond_site_symmetry_2
K0 O34 2.755779 1_555
K0 O12 2.782335 1_555
K0 O19 2.861691 1_545
K0 O27 2.902866 1_554
K0 O38 2.939425 1_555
K0 O30 2.982959 1_555
K0 O23 3.132325 1_545
K0 O0 3.188110 1_555
K0 O40 3.263074 1_555
K1 O35 2.755779 1_555
K1 O13 2.782335 1_555
K1 O18 2.861691 1_565
K1 O26 2.902866 1_556
K1 O39 2.939425 1_555
K1 O31 2.982959 1_555
K1 O22 3.132325 1_565
K1 O1 3.188110 1_555
K1 O41 3.263074 1_555
Mg0 O42 2.035271 1_555
Mg0 O40 2.060544 1_555
Mg0 O36 2.074816 1_555
Mg0 O28 2.108836 1_555
Mg0 O38 2.118076 1_555
Mg0 O30 2.135270 1_555
Mg1 O43 2.035271 1_555
Mg1 O41 2.060544 1_555
Mg1 O37 2.074816 1_555
Mg1 O29 2.108836 1_555
Mg1 O39 2.118076 1_555
Mg1 O31 2.135270 1_555
H0 O28 0.987932 1_555
H1 O29 0.987932 1_555
H2 O28 0.981397 1_655
H3 O29 0.981397 1_455
H4 O30 0.982039 1_555
H5 O31 0.982039 1_555
H6 O30 0.994730 1_555
H7 O31 0.994730 1_555
H8 O32 0.989107 1_455
H9 O33 0.989107 1_655
H10 O32 0.978272 1_555
H11 O33 0.978272 1_555
H12 O34 0.982549 1_455
H13 O35 0.982549 1_655
H14 O34 0.975041 1_465
H15 O35 0.975041 1_645
H16 O36 0.994315 1_556
H16 O15 1.726874 1_555
H17 O37 0.994315 1_554
H17 O14 1.726874 1_555
H18 O36 0.980037 1_655
H19 O37 0.980037 1_455
H20 O38 0.999359 1_555
H20 O4 1.692213 1_555
H21 O39 0.999359 1_555
H21 O5 1.692213 1_555
H22 O38 0.979794 1_555
H23 O39 0.979794 1_555
H24 O40 0.991948 1_555
H24 O16 1.770130 1_555
H25 O41 0.991948 1_555
H25 O17 1.770130 1_555
H26 O40 0.997611 1_555
H26 O17 1.683501 1_554
H27 O41 0.997611 1_555
H27 O16 1.683501 1_556
H28 O42 0.973792 1_655
H29 O43 0.973792 1_455
H30 O42 0.997833 1_555
H31 O43 0.997833 1_555
O0 V2 1.642491 1_555
O1 V3 1.642491 1_555
O2 V2 1.861076 1_555
O2 V9 1.888415 1_555
O3 V3 1.861076 1_555
O3 V8 1.888415 1_555
O4 V0 1.977370 1_555
O4 V2 2.026203 1_555
O4 V4 2.042089 1_555
O5 V1 1.977370 1_555
O5 V3 2.026203 1_555
O5 V5 2.042089 1_555
O6 V0 1.753573 1_555
O6 V8 2.006612 1_555
O7 V1 1.753573 1_555
O7 V9 2.006612 1_555
O8 V0 1.728076 1_555
O8 V6 2.040340 1_555
O9 V1 1.728076 1_555
O9 V7 2.040340 1_555
O10 V0 2.083807 1_555
O10 V1 2.118980 1_555
O10 V5 2.270014 1_555
O10 V2 2.318416 1_555
O10 V6 2.375066 1_555
O10 V9 2.411473 1_555
O11 V1 2.083807 1_555
O11 V0 2.118980 1_555
O11 V4 2.270014 1_555
O11 V3 2.318416 1_555
O11 V7 2.375066 1_555
O11 V8 2.411473 1_555
O12 V4 1.645755 1_555
O13 V5 1.645755 1_555
O14 V4 1.840523 1_555
O14 V7 1.926283 1_555
O15 V5 1.840523 1_555
O15 V6 1.926283 1_555
O16 V4 1.858044 1_555
O16 V8 1.938935 1_555
O17 V5 1.858044 1_555
O17 V9 1.938935 1_555
O18 V2 1.834291 1_555
O18 V6 1.870913 1_555
O19 V3 1.834291 1_555
O19 V7 1.870913 1_555
O20 V7 1.857528 1_555
O20 V8 1.869771 1_555
O21 V6 1.857528 1_555
O21 V9 1.869771 1_555
O22 V6 1.640379 1_555
O23 V7 1.640379 1_555
O24 V0 1.908906 1_555
O24 V5 2.015431 1_555
O24 V3 2.025698 1_555
O25 V1 1.908906 1_555
O25 V4 2.015431 1_555
O25 V2 2.025698 1_555
O26 V8 1.629329 1_555
O27 V9 1.629329 1_555
