# generated using pymatgen
data_Sc2C3
_symmetry_space_group_name_H-M   'P 1'
_cell_length_a   6.67109068
_cell_length_b   6.67109068
_cell_length_c   6.67109068
_cell_angle_alpha   109.47122063
_cell_angle_beta   109.47122063
_cell_angle_gamma   109.47122063
_symmetry_Int_Tables_number   1
_chemical_formula_structural   Sc2C3
_chemical_formula_sum   'Sc8 C12'
_cell_volume   228.54337759
_cell_formula_units_Z   4
loop_
 _symmetry_equiv_pos_site_id
 _symmetry_equiv_pos_as_xyz
  1  'x, y, z'
loop_
 _atom_site_type_symbol
 _atom_site_label
 _atom_site_symmetry_multiplicity
 _atom_site_fract_x
 _atom_site_fract_y
 _atom_site_fract_z
 _atom_site_occupancy
  Sc  Sc0  1  0.50000000  0.00000000  0.59978100  1
  Sc  Sc1  1  0.09978100  0.50000000  0.00000000  1
  Sc  Sc2  1  0.40021900  0.40021900  0.40021900  1
  Sc  Sc3  1  0.00000000  0.09978100  0.50000000  1
  Sc  Sc4  1  0.90021900  0.90021900  0.90021900  1
  Sc  Sc5  1  0.00000000  0.59978100  0.50000000  1
  Sc  Sc6  1  0.59978100  0.50000000  0.00000000  1
  Sc  Sc7  1  0.50000000  0.00000000  0.09978100  1
  C  C0  1  0.78831300  0.25000000  0.03831300  1
  C  C1  1  0.96168700  0.25000000  0.21168700  1
  C  C2  1  0.75000000  0.28831300  0.53831300  1
  C  C3  1  0.21168700  0.96168700  0.25000000  1
  C  C4  1  0.25000000  0.21168700  0.96168700  1
  C  C5  1  0.28831300  0.53831300  0.75000000  1
  C  C6  1  0.71168700  0.75000000  0.46168700  1
  C  C7  1  0.03831300  0.78831300  0.25000000  1
  C  C8  1  0.53831300  0.75000000  0.28831300  1
  C  C9  1  0.75000000  0.46168700  0.71168700  1
  C  C10  1  0.25000000  0.03831300  0.78831300  1
  C  C11  1  0.46168700  0.71168700  0.75000000  1
loop_
_geom_bond_atom_site_label_1
_geom_bond_atom_site_label_2
_geom_bond_distance
_geom_bond_site_symmetry_2
C0 C1 1.335519 1_555
C0 Sc1 2.343537 1_655
C0 Sc7 2.343537 1_555
C0 Sc0 2.428352 1_554
C0 Sc6 2.428352 1_555
C1 Sc5 2.343537 1_655
C1 Sc4 2.343537 1_544
C1 Sc2 2.428352 1_655
C1 Sc3 2.428352 1_655
C2 C9 1.335519 1_555
C2 Sc0 2.343537 1_555
C2 Sc5 2.343537 1_655
C2 Sc3 2.428352 1_655
C2 Sc7 2.428352 1_555
C3 C7 1.335519 1_555
C3 Sc0 2.343537 1_565
C3 Sc4 2.343537 1_454
C3 Sc7 2.428352 1_565
C3 Sc2 2.428352 1_565
C4 Sc6 2.343537 1_556
C4 Sc4 2.343537 1_445
C4 Sc2 2.428352 1_556
C4 Sc1 2.428352 1_556
C5 Sc5 2.343537 1_555
C5 Sc6 2.343537 1_556
C5 Sc3 2.428352 1_555
C5 Sc1 2.428352 1_556
C6 C8 1.335519 1_555
C6 Sc2 2.343537 1_555
C6 Sc3 2.343537 1_665
C6 Sc4 2.428352 1_555
C6 Sc5 2.428352 1_655
C7 Sc3 2.343537 1_565
C7 Sc1 2.343537 1_555
C7 Sc6 2.428352 1_455
C7 Sc5 2.428352 1_555
C8 Sc6 2.343537 1_555
C8 Sc0 2.343537 1_565
C8 Sc1 2.428352 1_555
C8 Sc7 2.428352 1_565
C9 Sc1 2.343537 1_656
C9 Sc2 2.343537 1_555
C9 Sc4 2.428352 1_555
C9 Sc6 2.428352 1_556
C10 C4 1.335519 1_555
C10 Sc7 2.343537 1_556
C10 Sc3 2.343537 1_555
C10 Sc0 2.428352 1_555
C10 Sc5 2.428352 1_545
C11 C5 1.335519 1_555
C11 Sc2 2.343537 1_555
C11 Sc7 2.343537 1_566
C11 Sc4 2.428352 1_555
C11 Sc0 2.428352 1_565
