# generated using pymatgen
data_Ba2Tl2Zn3(WO3)4
_symmetry_space_group_name_H-M   'P 1'
_cell_length_a   3.81366951
_cell_length_b   3.81367003
_cell_length_c   23.70042197
_cell_angle_alpha   94.61476260
_cell_angle_beta   94.61476192
_cell_angle_gamma   90.00000008
_symmetry_Int_Tables_number   1
_chemical_formula_structural   Ba2Tl2Zn3(WO3)4
_chemical_formula_sum   'Ba2 Tl2 Zn3 W4 O12'
_cell_volume   342.46220459
_cell_formula_units_Z   1
loop_
 _symmetry_equiv_pos_site_id
 _symmetry_equiv_pos_as_xyz
  1  'x, y, z'
loop_
 _atom_site_type_symbol
 _atom_site_label
 _atom_site_symmetry_multiplicity
 _atom_site_fract_x
 _atom_site_fract_y
 _atom_site_fract_z
 _atom_site_occupancy
  Ba  Ba0  1  0.16559500  0.16559500  0.33118800  1
  Ba  Ba1  1  0.83440500  0.83440500  0.66881200  1
  Tl  Tl0  1  0.72509300  0.72509300  0.45018600  1
  Tl  Tl1  1  0.27490700  0.27490700  0.54981400  1
  Zn  Zn0  1  0.07254100  0.07254100  0.14508400  1
  Zn  Zn1  1  0.92745900  0.92745900  0.85491600  1
  Zn  Zn2  1  0.00000000  0.00000000  0.00000000  1
  W  W0  1  0.54710300  0.54710300  0.09420700  1
  W  W1  1  0.39336700  0.39336700  0.78673500  1
  W  W2  1  0.60663300  0.60663300  0.21326500  1
  W  W3  1  0.45289700  0.45289700  0.90579300  1
  O  O0  1  0.38162200  0.88162200  0.76324400  1
  O  O1  1  0.52845600  0.02845600  0.05691400  1
  O  O2  1  0.22733000  0.22733000  0.45465900  1
  O  O3  1  0.97154400  0.47154400  0.94308600  1
  O  O4  1  0.77267000  0.77267000  0.54534100  1
  O  O5  1  0.11837800  0.61837800  0.23675600  1
  O  O6  1  0.61837800  0.11837800  0.23675600  1
  O  O7  1  0.32155400  0.32155400  0.64310600  1
  O  O8  1  0.88162200  0.38162200  0.76324400  1
  O  O9  1  0.02845600  0.52845600  0.05691400  1
  O  O10  1  0.47154400  0.97154400  0.94308600  1
  O  O11  1  0.67844600  0.67844600  0.35689400  1
loop_
_geom_bond_atom_site_label_1
_geom_bond_atom_site_label_2
_geom_bond_distance
_geom_bond_site_symmetry_2
Ba0 O11 2.763757 1_555
Ba0 O11 2.763767 1_455
Ba0 O11 2.763767 1_545
Ba0 O11 2.763778 1_445
Ba0 O2 2.907311 1_555
Ba0 O6 2.929189 1_555
Ba0 O5 2.929190 1_555
Ba0 O6 2.929194 1_455
Ba0 O5 2.929195 1_545
Ba1 O7 2.763757 1_555
Ba1 O7 2.763767 1_655
Ba1 O7 2.763767 1_565
Ba1 O7 2.763778 1_665
Ba1 O4 2.907311 1_555
Ba1 O0 2.929189 1_555
Ba1 O8 2.929190 1_555
Ba1 O0 2.929194 1_655
Ba1 O8 2.929195 1_565
W0 Zn0 2.950791 1_665
W0 Zn0 2.950794 1_565
W0 Zn0 2.950794 1_655
W0 Zn0 2.950796 1_555
W1 Zn1 3.138373 1_445
W1 Zn1 3.138380 1_455
W1 Zn1 3.138380 1_545
W1 Zn1 3.138386 1_555
W2 Zn0 3.138373 1_665
W2 Zn0 3.138380 1_655
W2 Zn0 3.138380 1_565
W2 Zn0 3.138386 1_555
W3 Zn1 2.950791 1_445
W3 Zn1 2.950794 1_545
W3 Zn1 2.950794 1_455
W3 Zn1 2.950796 1_555
O0 W1 1.985439 1_565
O0 W1 1.985442 1_555
O1 W0 2.099311 1_545
O1 W0 2.099315 1_555
O1 Zn2 2.330653 1_555
O1 Zn2 2.330659 1_655
O2 Tl1 2.240568 1_555
O2 Tl0 2.698725 1_555
O2 Tl0 2.698728 1_545
O2 Tl0 2.698728 1_455
O2 Tl0 2.698730 1_445
O3 W3 2.099311 1_655
O3 W3 2.099314 1_555
O3 Zn2 2.330653 1_666
O3 Zn2 2.330659 1_656
O4 Tl0 2.240568 1_555
O4 Tl1 2.698725 1_555
O4 Tl1 2.698728 1_565
O4 Tl1 2.698728 1_655
O4 Tl1 2.698730 1_665
O5 W2 1.985438 1_455
O5 W2 1.985442 1_555
O6 W2 1.985439 1_545
O6 W2 1.985442 1_555
O7 Tl1 2.196701 1_555
O8 W1 1.985438 1_655
O8 W1 1.985442 1_555
O9 W0 2.099311 1_455
O9 W0 2.099314 1_555
O9 Zn2 2.330653 1_555
O9 Zn2 2.330659 1_565
O10 W3 2.099311 1_565
O10 W3 2.099315 1_555
O10 Zn2 2.330653 1_666
O10 Zn2 2.330659 1_566
O11 Tl0 2.196701 1_555
