# generated using pymatgen
data_Ca(CoO2)2
_symmetry_space_group_name_H-M   'P 1'
_cell_length_a   6.97248940
_cell_length_b   6.97248940
_cell_length_c   9.18206462
_cell_angle_alpha   56.47413984
_cell_angle_beta   56.47413984
_cell_angle_gamma   26.08468282
_symmetry_Int_Tables_number   1
_chemical_formula_structural   Ca(CoO2)2
_chemical_formula_sum   'Ca2 Co4 O8'
_cell_volume   161.68601870
_cell_formula_units_Z   2
loop_
 _symmetry_equiv_pos_site_id
 _symmetry_equiv_pos_as_xyz
  1  'x, y, z'
loop_
 _atom_site_type_symbol
 _atom_site_label
 _atom_site_symmetry_multiplicity
 _atom_site_fract_x
 _atom_site_fract_y
 _atom_site_fract_z
 _atom_site_occupancy
  Ca  Ca0  1  0.65338800  0.65338800  0.83247600  1
  Ca  Ca1  1  0.34661200  0.34661200  0.16752400  1
  Co  Co0  1  0.37243500  0.37243500  0.81512000  1
  Co  Co1  1  0.86183800  0.86183800  0.47447500  1
  Co  Co2  1  0.13816200  0.13816200  0.52552500  1
  Co  Co3  1  0.62756500  0.62756500  0.18488000  1
  O  O0  1  0.13629900  0.13629900  0.31531100  1
  O  O1  1  0.54105800  0.54105800  0.69092700  1
  O  O2  1  0.45894200  0.45894200  0.30907300  1
  O  O3  1  0.86370100  0.86370100  0.68468900  1
  O  O4  1  0.84145600  0.84145600  0.99100700  1
  O  O5  1  0.23434200  0.23434200  0.62079300  1
  O  O6  1  0.15854400  0.15854400  0.00899300  1
  O  O7  1  0.76565800  0.76565800  0.37920700  1
loop_
_geom_bond_atom_site_label_1
_geom_bond_atom_site_label_2
_geom_bond_distance
_geom_bond_site_symmetry_2
Ca0 O5 2.244882 1_565
Ca0 O5 2.244882 1_655
Ca0 O6 2.288332 1_656
Ca0 O6 2.288332 1_566
Ca0 O3 2.368241 1_555
Ca0 O1 2.503388 1_555
Ca1 O7 2.244882 1_545
Ca1 O7 2.244882 1_455
Ca1 O4 2.288332 1_454
Ca1 O4 2.288332 1_544
Ca1 O0 2.368241 1_555
Ca1 O2 2.503388 1_555
Co0 O1 1.893693 1_555
Co0 O3 2.021232 1_545
Co0 O3 2.021232 1_455
Co0 O4 2.119092 1_545
Co0 O4 2.119092 1_455
Co0 O6 2.397331 1_556
Co1 O7 1.941258 1_555
Co1 O3 1.944659 1_555
Co1 O2 2.061784 1_565
Co1 O2 2.061784 1_655
Co1 O5 2.154610 1_565
Co1 O5 2.154610 1_655
Co2 O5 1.941258 1_555
Co2 O0 1.944659 1_555
Co2 O1 2.061784 1_545
Co2 O1 2.061784 1_455
Co2 O7 2.154610 1_455
Co2 O7 2.154610 1_545
Co3 O2 1.893693 1_555
Co3 O0 2.021232 1_565
Co3 O0 2.021232 1_655
Co3 O6 2.119092 1_565
Co3 O6 2.119092 1_655
Co3 O4 2.397331 1_554
