# generated using pymatgen
data_NdCdIn
_symmetry_space_group_name_H-M   'P 1'
_cell_length_a   4.90134601
_cell_length_b   4.90134601
_cell_length_c   7.76025798
_cell_angle_alpha   90.00000000
_cell_angle_beta   90.00000000
_cell_angle_gamma   120.00001228
_symmetry_Int_Tables_number   1
_chemical_formula_structural   NdCdIn
_chemical_formula_sum   'Nd2 Cd2 In2'
_cell_volume   161.44978170
_cell_formula_units_Z   2
loop_
 _symmetry_equiv_pos_site_id
 _symmetry_equiv_pos_as_xyz
  1  'x, y, z'
loop_
 _atom_site_type_symbol
 _atom_site_label
 _atom_site_symmetry_multiplicity
 _atom_site_fract_x
 _atom_site_fract_y
 _atom_site_fract_z
 _atom_site_occupancy
  Nd  Nd0  1  0.00000000  0.00000000  0.26265786  1
  Nd  Nd1  1  0.00000000  0.00000000  0.73734214  1
  Cd  Cd0  1  0.33333300  0.66666700  0.47235673  1
  Cd  Cd1  1  0.66666700  0.33333300  0.52764327  1
  In  In0  1  0.66666700  0.33333300  0.94696706  1
  In  In1  1  0.33333300  0.66666700  0.05303294  1
loop_
_geom_bond_atom_site_label_1
_geom_bond_atom_site_label_2
_geom_bond_distance
_geom_bond_site_symmetry_2
Nd0 Nd1 3.683672 1_555
Nd0 Nd1 4.076586 1_554
Cd0 Cd1 2.862130 1_455
Cd0 Cd1 2.862130 1_565
Cd0 Cd1 2.862139 1_555
Cd0 In1 3.254061 1_555
Cd0 Nd0 3.264334 1_565
Cd0 Nd0 3.264337 1_665
Cd0 Nd0 3.264337 1_555
Cd0 Nd1 3.498044 1_565
Cd0 Nd1 3.498047 1_555
Cd0 Nd1 3.498047 1_665
Cd1 In0 3.254061 1_555
Cd1 Nd1 3.264334 1_655
Cd1 Nd1 3.264337 1_555
Cd1 Nd1 3.264337 1_665
Cd1 Nd0 3.498044 1_655
Cd1 Nd0 3.498047 1_665
Cd1 Nd0 3.498047 1_555
In0 In1 2.947067 1_546
In0 In1 2.947067 1_656
In0 In1 2.947076 1_556
In0 Nd1 3.264048 1_655
In0 Nd1 3.264051 1_555
In0 Nd1 3.264051 1_665
In0 Nd0 3.742919 1_656
In0 Nd0 3.742922 1_666
In0 Nd0 3.742922 1_556
In1 Nd0 3.264048 1_565
In1 Nd0 3.264051 1_665
In1 Nd0 3.264051 1_555
In1 Nd1 3.742919 1_564
In1 Nd1 3.742922 1_664
In1 Nd1 3.742922 1_554
