# generated using pymatgen
data_FeH10S2NO11
_symmetry_space_group_name_H-M   'P 1'
_cell_length_a   10.28872900
_cell_length_b   9.68191700
_cell_length_c   10.00612157
_cell_angle_alpha   85.55898766
_cell_angle_beta   90.00000000
_cell_angle_gamma   90.00000000
_symmetry_Int_Tables_number   1
_chemical_formula_structural   FeH10S2NO11
_chemical_formula_sum   'Fe4 H40 S8 N4 O44'
_cell_volume   993.76332080
_cell_formula_units_Z   4
loop_
 _symmetry_equiv_pos_site_id
 _symmetry_equiv_pos_as_xyz
  1  'x, y, z'
loop_
 _atom_site_type_symbol
 _atom_site_label
 _atom_site_symmetry_multiplicity
 _atom_site_fract_x
 _atom_site_fract_y
 _atom_site_fract_z
 _atom_site_occupancy
  Fe  Fe0  1  0.61374700  0.98422200  0.21470700  1
  Fe  Fe1  1  0.11374700  0.51577800  0.78529300  1
  Fe  Fe2  1  0.38625300  0.01577800  0.78529300  1
  Fe  Fe3  1  0.88625300  0.48422200  0.21470700  1
  H  H0  1  0.40458800  0.51010200  0.30011200  1
  H  H1  1  0.90458800  0.98989800  0.69988800  1
  H  H2  1  0.59541200  0.48989800  0.69988800  1
  H  H3  1  0.09541200  0.01010200  0.30011200  1
  H  H4  1  0.46073600  0.35909400  0.36994500  1
  H  H5  1  0.96073600  0.14090600  0.63005500  1
  H  H6  1  0.53926400  0.64090600  0.63005500  1
  H  H7  1  0.03926400  0.85909400  0.36994500  1
  H  H8  1  0.56493600  0.48750200  0.32853900  1
  H  H9  1  0.06493600  0.01249800  0.67146100  1
  H  H10  1  0.43506400  0.51249800  0.67146100  1
  H  H11  1  0.93506400  0.98750200  0.32853900  1
  H  H12  1  0.48819700  0.40347300  0.20378400  1
  H  H13  1  0.98819700  0.09652700  0.79621600  1
  H  H14  1  0.51180300  0.59652700  0.79621600  1
  H  H15  1  0.01180300  0.90347300  0.20378400  1
  H  H16  1  0.38319700  0.04839300  0.32188400  1
  H  H17  1  0.88319700  0.45160700  0.67811600  1
  H  H18  1  0.61680300  0.95160700  0.67811600  1
  H  H19  1  0.11680300  0.54839300  0.32188400  1
  H  H20  1  0.43348400  0.91358400  0.41067800  1
  H  H21  1  0.93348400  0.58641600  0.58932200  1
  H  H22  1  0.56651600  0.08641600  0.58932200  1
  H  H23  1  0.06651600  0.41358400  0.41067800  1
  H  H24  1  0.81674000  0.05996600  0.04464600  1
  H  H25  1  0.31674000  0.44003400  0.95535400  1
  H  H26  1  0.18326000  0.94003400  0.95535400  1
  H  H27  1  0.68326000  0.55996600  0.04464600  1
  H  H28  1  0.79354700  0.89513400  0.04094100  1
  H  H29  1  0.29354700  0.60486600  0.95905900  1
  H  H30  1  0.20645300  0.10486600  0.95905900  1
  H  H31  1  0.70645300  0.39513400  0.04094100  1
  H  H32  1  0.73113000  0.31355300  0.78976700  1
  H  H33  1  0.23113000  0.18644700  0.21023300  1
  H  H34  1  0.26887000  0.68644700  0.21023300  1
  H  H35  1  0.76887000  0.81355300  0.78976700  1
  H  H36  1  0.71807000  0.30837400  0.63074400  1
  H  H37  1  0.21807000  0.19162600  0.36925600  1
  H  H38  1  0.28193000  0.69162600  0.36925600  1
  H  H39  1  0.78193000  0.80837400  0.63074400  1
  S  S0  1  0.51495300  0.22754700  0.99014900  1
  S  S1  1  0.01495300  0.27245300  0.00985100  1
  S  S2  1  0.48504700  0.77245300  0.00985100  1
  S  S3  1  0.98504700  0.72754700  0.99014900  1
  S  S4  1  0.75591100  0.21738700  0.39426700  1
  S  S5  1  0.25591100  0.28261300  0.60573300  1
  S  S6  1  0.24408900  0.78261300  0.60573300  1
  S  S7  1  0.74408900  0.71738700  0.39426700  1
  N  N0  1  0.48093700  0.43944800  0.29923000  1
  N  N1  1  0.98093700  0.06055200  0.70077000  1
  N  N2  1  0.51906300  0.56055200  0.70077000  1
  N  N3  1  0.01906300  0.93944800  0.29923000  1
  O  O0  1  0.44389100  0.34550900  0.04084700  1
  O  O1  1  0.94389100  0.15449100  0.95915300  1
  O  O2  1  0.55610900  0.65449100  0.95915300  1
  O  O3  1  0.05610900  0.84550900  0.04084700  1
  O  O4  1  0.65306200  0.26225400  0.96399400  1
  O  O5  1  0.15306200  0.23774600  0.03600600  1
  O  O6  1  0.34693800  0.73774600  0.03600600  1
  O  O7  1  0.84693800  0.76225400  0.96399400  1
  O  O8  1  0.45284800  0.19032000  0.86190700  1
  O  O9  1  0.95284800  0.30968000  0.13809300  1
  O  O10  1  0.54715200  0.80968000  0.13809300  1
  O  O11  1  0.04715200  0.69032000  0.86190700  1
  O  O12  1  0.50195500  0.10566200  0.09149700  1
  O  O13  1  0.00195500  0.39433800  0.90850300  1
  O  O14  1  0.49804500  0.89433800  0.90850300  1
  O  O15  1  0.99804500  0.60566200  0.09149700  1
  O  O16  1  0.66096700  0.22061200  0.50593500  1
  O  O17  1  0.16096700  0.27938800  0.49406500  1
  O  O18  1  0.33903300  0.77938800  0.49406500  1
  O  O19  1  0.83903300  0.72061200  0.50593500  1
  O  O20  1  0.68985400  0.16366900  0.27501200  1
  O  O21  1  0.18985400  0.33633100  0.72498800  1
  O  O22  1  0.31014600  0.83633100  0.72498800  1
  O  O23  1  0.81014600  0.66366900  0.27501200  1
  O  O24  1  0.79116800  0.36684800  0.35657900  1
  O  O25  1  0.29116800  0.13315200  0.64342100  1
  O  O26  1  0.20883200  0.63315200  0.64342100  1
  O  O27  1  0.70883200  0.86684800  0.35657900  1
  O  O28  1  0.87226500  0.13630800  0.43281000  1
  O  O29  1  0.37226500  0.36369200  0.56719000  1
  O  O30  1  0.12773500  0.86369200  0.56719000  1
  O  O31  1  0.62773500  0.63630800  0.43281000  1
  O  O32  1  0.76685800  0.97985900  0.08598500  1
  O  O33  1  0.26685800  0.52014100  0.91401500  1
  O  O34  1  0.23314200  0.02014100  0.91401500  1
  O  O35  1  0.73314200  0.47985900  0.08598500  1
  O  O36  1  0.46229300  0.99028400  0.34577700  1
  O  O37  1  0.96229300  0.50971600  0.65422300  1
  O  O38  1  0.53770700  0.00971600  0.65422300  1
  O  O39  1  0.03770700  0.49028400  0.34577700  1
  O  O40  1  0.74477200  0.36802000  0.70338700  1
  O  O41  1  0.24477200  0.13198000  0.29661300  1
  O  O42  1  0.25522800  0.63198000  0.29661300  1
  O  O43  1  0.75522800  0.86802000  0.70338700  1
loop_
_geom_bond_atom_site_label_1
_geom_bond_atom_site_label_2
_geom_bond_distance
_geom_bond_site_symmetry_2
Fe0 O12 2.000209 1_565
Fe0 O27 2.003470 1_555
Fe0 O10 2.028189 1_555
Fe0 O32 2.037351 1_555
Fe0 O20 2.039156 1_565
Fe0 O36 2.040492 1_555
Fe1 O13 2.000209 1_555
Fe1 O26 2.003470 1_555
Fe1 O11 2.028189 1_555
Fe1 O33 2.037351 1_555
Fe1 O21 2.039156 1_555
Fe1 O37 2.040492 1_455
Fe2 O14 2.000209 1_545
Fe2 O25 2.003470 1_555
Fe2 O8 2.028189 1_555
Fe2 O34 2.037351 1_555
Fe2 O22 2.039156 1_545
Fe2 O38 2.040492 1_555
Fe3 O15 2.000209 1_555
Fe3 O24 2.003470 1_555
Fe3 O9 2.028189 1_555
Fe3 O35 2.037351 1_555
Fe3 O23 2.039156 1_555
Fe3 O39 2.040492 1_655
H0 N0 1.042124 1_555
H1 N1 1.042124 1_565
H2 N2 1.042124 1_555
H3 N3 1.042124 1_545
H4 N0 1.031443 1_555
H5 N1 1.031443 1_555
H6 N2 1.031443 1_555
H7 N3 1.031443 1_555
H8 N0 1.034657 1_555
H9 N1 1.034657 1_455
H10 N2 1.034657 1_555
H11 N3 1.034657 1_655
H12 N0 1.044281 1_555
H13 N1 1.044281 1_555
H14 N2 1.044281 1_555
H15 N3 1.044281 1_555
H16 O36 1.007531 1_545
H16 O41 1.647902 1_555
H17 O37 1.007531 1_555
H17 O40 1.647902 1_555
H18 O38 1.007531 1_565
H18 O43 1.647902 1_555
H19 O39 1.007531 1_555
H19 O42 1.647902 1_555
H20 O36 0.993158 1_555
H21 O37 0.993158 1_555
H22 O38 0.993158 1_555
H23 O39 0.993158 1_555
H24 O32 0.993153 1_545
H25 O33 0.993153 1_555
H26 O34 0.993153 1_565
H27 O35 0.993153 1_555
H28 O32 1.004339 1_555
H28 O7 1.644122 1_554
H29 O33 1.004339 1_555
H29 O6 1.644122 1_556
H30 O34 1.004339 1_555
H30 O5 1.644122 1_556
H31 O35 1.004339 1_555
H31 O4 1.644122 1_554
H32 O40 0.987051 1_555
H33 O41 0.987051 1_555
H34 O42 0.987051 1_555
H35 O43 0.987051 1_555
H36 O40 1.001160 1_555
H36 O16 1.670673 1_555
H37 O41 1.001160 1_555
H37 O17 1.670673 1_555
H38 O42 1.001160 1_555
H38 O18 1.670673 1_555
H39 O43 1.001160 1_555
H39 O19 1.670673 1_555
O0 S0 1.478519 1_554
O1 S1 1.478519 1_656
O2 S2 1.478519 1_556
O3 S3 1.478519 1_454
O4 S0 1.478829 1_555
O5 S1 1.478829 1_555
O6 S2 1.478829 1_555
O7 S3 1.478829 1_555
O8 S0 1.502148 1_555
O9 S1 1.502148 1_655
O10 S2 1.502148 1_555
O11 S3 1.502148 1_455
O12 S0 1.501181 1_554
O13 S1 1.501181 1_556
O14 S2 1.501181 1_556
O15 S3 1.501181 1_554
O16 S4 1.486311 1_555
O17 S5 1.486311 1_555
O18 S6 1.486311 1_555
O19 S7 1.486311 1_555
O20 S4 1.500813 1_555
O21 S5 1.500813 1_555
O22 S6 1.500813 1_555
O23 S7 1.500813 1_555
O24 S4 1.511058 1_555
O25 S5 1.511058 1_555
O26 S6 1.511058 1_555
O27 S7 1.511058 1_555
O28 S4 1.466700 1_555
O29 S5 1.466700 1_555
O30 S6 1.466700 1_555
O31 S7 1.466700 1_555
