# generated using pymatgen
data_Ni5Ge3
_symmetry_space_group_name_H-M   'P 1'
_cell_length_a   6.31258962
_cell_length_b   6.31258962
_cell_length_c   6.30723915
_cell_angle_alpha   64.15413081
_cell_angle_beta   64.15413081
_cell_angle_gamma   63.82498875
_symmetry_Int_Tables_number   1
_chemical_formula_structural   Ni5Ge3
_chemical_formula_sum   'Ni10 Ge6'
_cell_volume   193.54185382
_cell_formula_units_Z   2
loop_
 _symmetry_equiv_pos_site_id
 _symmetry_equiv_pos_as_xyz
  1  'x, y, z'
loop_
 _atom_site_type_symbol
 _atom_site_label
 _atom_site_symmetry_multiplicity
 _atom_site_fract_x
 _atom_site_fract_y
 _atom_site_fract_z
 _atom_site_occupancy
  Ni  Ni0  1  0.67171425  0.18228654  0.14574645  1
  Ni  Ni1  1  0.81771346  0.32828575  0.35425355  1
  Ni  Ni2  1  0.32828575  0.81771346  0.85425355  1
  Ni  Ni3  1  0.18228654  0.67171425  0.64574645  1
  Ni  Ni4  1  0.00000000  0.50000000  0.50000000  1
  Ni  Ni5  1  0.50000000  -0.00000000  0.00000000  1
  Ni  Ni6  1  0.73927863  0.91264555  0.58547177  1
  Ni  Ni7  1  0.08735445  0.26072137  0.91452823  1
  Ni  Ni8  1  0.26072137  0.08735445  0.41452823  1
  Ni  Ni9  1  0.91264555  0.73927863  0.08547177  1
  Ge  Ge0  1  0.89694719  0.10305281  0.75000000  1
  Ge  Ge1  1  0.10305281  0.89694719  0.25000000  1
  Ge  Ge2  1  0.58475383  0.71646068  0.45086446  1
  Ge  Ge3  1  0.28353932  0.41524617  0.04913554  1
  Ge  Ge4  1  0.41524617  0.28353932  0.54913554  1
  Ge  Ge5  1  0.71646068  0.58475383  0.95086446  1
loop_
_geom_bond_atom_site_label_1
_geom_bond_atom_site_label_2
_geom_bond_distance
_geom_bond_site_symmetry_2
Ni0 Ni5 2.497123 1_555
Ni0 Ni1 2.508238 1_555
Ni0 Ni7 2.537003 1_654
Ni0 Ni8 2.571991 1_555
Ni0 Ni9 2.636044 1_545
Ni0 Ni6 2.654437 1_545
Ni1 Ni4 2.497123 1_655
Ni1 Ni6 2.537003 1_545
Ni1 Ni9 2.571991 1_555
Ni1 Ni8 2.636044 1_655
Ni1 Ni7 2.654437 1_654
Ni2 Ni5 2.497123 1_566
Ni2 Ni3 2.508238 1_555
Ni2 Ni9 2.537003 1_456
Ni2 Ni6 2.571991 1_555
Ni2 Ni7 2.636044 1_565
Ni2 Ni8 2.654437 1_565
Ni3 Ni4 2.497123 1_555
Ni3 Ni8 2.537003 1_565
Ni3 Ni7 2.571991 1_555
Ni3 Ni6 2.636044 1_455
Ni3 Ni9 2.654437 1_456
Ni4 Ni6 2.540315 1_455
Ni4 Ni8 2.540315 1_555
Ni4 Ni9 2.549567 1_455
Ni4 Ni7 2.549567 1_555
Ni5 Ni9 2.540315 1_545
Ni5 Ni7 2.540315 1_554
Ni5 Ni6 2.549567 1_544
Ni5 Ni8 2.549567 1_555
Ge0 Ni8 2.346425 1_655
Ge0 Ni9 2.346425 1_546
Ge0 Ni1 2.422577 1_555
Ge0 Ni0 2.422577 1_556
Ge0 Ni4 2.507413 1_655
Ge0 Ni5 2.507413 1_556
Ge0 Ni6 2.560404 1_545
Ge0 Ni7 2.560404 1_655
Ge0 Ni3 2.700423 1_645
Ge0 Ni2 2.700423 1_645
Ge1 Ni7 2.346425 1_564
Ge1 Ni6 2.346425 1_455
Ge1 Ni3 2.422577 1_555
Ge1 Ni2 2.422577 1_554
Ge1 Ni5 2.507413 1_565
Ge1 Ni4 2.507413 1_555
Ge1 Ni9 2.560404 1_455
Ge1 Ni8 2.560404 1_565
Ge1 Ni0 2.700423 1_465
Ge1 Ni1 2.700423 1_465
Ge2 Ni9 2.330389 1_555
Ge2 Ni8 2.331100 1_565
Ge2 Ni3 2.377589 1_555
Ge2 Ni1 2.424825 1_555
Ge2 Ni6 2.431175 1_555
Ge2 Ni4 2.452221 1_655
Ge2 Ni2 2.533070 1_555
Ge2 Ni5 2.760506 1_565
Ge2 Ni0 2.867179 1_565
Ge3 Ni8 2.330389 1_555
Ge3 Ni9 2.331100 1_455
Ge3 Ni2 2.377589 1_554
Ge3 Ni0 2.424825 1_555
Ge3 Ni7 2.431175 1_554
Ge3 Ni5 2.452221 1_555
Ge3 Ni3 2.533070 1_554
Ge3 Ni4 2.760506 1_555
Ge3 Ni1 2.867179 1_455
Ge4 Ni7 2.330389 1_555
Ge4 Ni6 2.331100 1_545
Ge4 Ni1 2.377589 1_555
Ge4 Ni3 2.424825 1_555
Ge4 Ni8 2.431175 1_555
Ge4 Ni4 2.452221 1_555
Ge4 Ni0 2.533070 1_555
Ge4 Ni5 2.760506 1_556
Ge4 Ni2 2.867179 1_545
Ge5 Ni6 2.330389 1_555
Ge5 Ni7 2.331100 1_655
Ge5 Ni0 2.377589 1_556
Ge5 Ni2 2.424825 1_555
Ge5 Ni9 2.431175 1_556
Ge5 Ni5 2.452221 1_566
Ge5 Ni1 2.533070 1_556
Ge5 Ni4 2.760506 1_655
Ge5 Ni3 2.867179 1_655
