# generated using pymatgen
data_CaB8O15
_symmetry_space_group_name_H-M   'P 1'
_cell_length_a   8.41187500
_cell_length_b   7.38616700
_cell_length_c   9.91931607
_cell_angle_alpha   70.57862780
_cell_angle_beta   90.00000000
_cell_angle_gamma   90.00000000
_symmetry_Int_Tables_number   1
_chemical_formula_structural   CaB8O15
_chemical_formula_sum   'Ca2 B16 O30'
_cell_volume   581.23372316
_cell_formula_units_Z   2
loop_
 _symmetry_equiv_pos_site_id
 _symmetry_equiv_pos_as_xyz
  1  'x, y, z'
loop_
 _atom_site_type_symbol
 _atom_site_label
 _atom_site_symmetry_multiplicity
 _atom_site_fract_x
 _atom_site_fract_y
 _atom_site_fract_z
 _atom_site_occupancy
  Ca  Ca0  1  0.60924100  0.91315300  0.26634400  1
  Ca  Ca1  1  0.10924100  0.08684700  0.73365600  1
  B  B0  1  0.07505700  0.58192400  0.47843400  1
  B  B1  1  0.57505700  0.41807600  0.52156600  1
  B  B2  1  0.94156000  0.96543500  0.02134500  1
  B  B3  1  0.44156000  0.03456500  0.97865500  1
  B  B4  1  0.97996500  0.87689500  0.28126100  1
  B  B5  1  0.47996500  0.12310500  0.71873900  1
  B  B6  1  0.93111500  0.99177700  0.48449800  1
  B  B7  1  0.43111500  0.00822300  0.51550200  1
  B  B8  1  0.69186300  0.90372600  0.64503000  1
  B  B9  1  0.19186300  0.09627400  0.35497000  1
  B  B10  1  0.69221800  0.91044700  0.90624300  1
  B  B11  1  0.19221800  0.08955300  0.09375700  1
  B  B12  1  0.09571800  0.60157700  0.73244100  1
  B  B13  1  0.59571800  0.39842300  0.26755900  1
  B  B14  1  0.69181900  0.60123700  0.85614200  1
  B  B15  1  0.19181900  0.39876300  0.14385800  1
  O  O0  1  0.61978300  0.98182800  0.75662800  1
  O  O1  1  0.11978300  0.01817200  0.24337200  1
  O  O2  1  0.58420200  0.93771000  0.52369100  1
  O  O3  1  0.08420200  0.06229000  0.47630900  1
  O  O4  1  0.84527900  0.99781900  0.60053600  1
  O  O5  1  0.34527900  0.00218100  0.39946400  1
  O  O6  1  0.59510900  0.96885600  0.00494500  1
  O  O7  1  0.09510900  0.03114400  0.99505500  1
  O  O8  1  0.04279100  0.68143400  0.34089600  1
  O  O9  1  0.54279100  0.31856600  0.65910400  1
  O  O10  1  0.58284400  0.59327800  0.21159500  1
  O  O11  1  0.08284400  0.40672200  0.78840500  1
  O  O12  1  0.88203200  0.89652000  0.15665900  1
  O  O13  1  0.38203200  0.10348000  0.84334100  1
  O  O14  1  0.07214200  0.67163400  0.58336700  1
  O  O15  1  0.57214200  0.32836600  0.41663300  1
  O  O16  1  0.61316600  0.60708600  0.46237400  1
  O  O17  1  0.11316600  0.39291400  0.53762600  1
  O  O18  1  0.87263000  0.92731300  0.37981300  1
  O  O19  1  0.37263000  0.07268700  0.62018700  1
  O  O20  1  0.71423100  0.69585300  0.71245800  1
  O  O21  1  0.21423100  0.30414700  0.28754200  1
  O  O22  1  0.69732400  0.69820200  0.95286900  1
  O  O23  1  0.19732400  0.30179800  0.04713100  1
  O  O24  1  0.16724200  0.59315300  0.09551300  1
  O  O25  1  0.66724200  0.40684700  0.90448700  1
  O  O26  1  0.12248900  0.73293900  0.79699800  1
  O  O27  1  0.62248900  0.26706100  0.20300200  1
  O  O28  1  0.85518300  0.98037400  0.90031500  1
  O  O29  1  0.35518300  0.01962600  0.09968500  1
loop_
_geom_bond_atom_site_label_1
_geom_bond_atom_site_label_2
_geom_bond_distance
_geom_bond_site_symmetry_2
Ca0 O16 2.443228 1_555
Ca0 O27 2.479529 1_565
Ca0 O6 2.489394 1_555
Ca0 O18 2.502981 1_555
Ca0 O12 2.559942 1_555
Ca0 O10 2.603774 1_555
Ca0 O2 2.627068 1_555
Ca0 O29 2.655933 1_565
Ca0 O5 2.771950 1_565
Ca1 O17 2.443228 1_555
Ca1 O26 2.479529 1_545
Ca1 O7 2.489394 1_555
Ca1 O19 2.502981 1_555
Ca1 O13 2.559942 1_555
Ca1 O11 2.603774 1_555
Ca1 O3 2.627068 1_555
Ca1 O28 2.655933 1_445
Ca1 O4 2.771950 1_445
B0 O8 1.344733 1_555
B0 O17 1.360651 1_555
B0 O14 1.407734 1_555
B1 O9 1.344733 1_555
B1 O16 1.360651 1_555
B1 O15 1.407734 1_555
B2 O12 1.362735 1_555
B2 O7 1.373939 1_664
B2 O28 1.375973 1_554
B3 O13 1.362735 1_555
B3 O6 1.373939 1_546
B3 O29 1.375973 1_556
B4 O12 1.451939 1_555
B4 O8 1.464776 1_655
B4 O18 1.466842 1_555
B4 O1 1.533822 1_665
B5 O13 1.451939 1_555
B5 O9 1.464776 1_555
B5 O19 1.466842 1_555
B5 O0 1.533822 1_545
B6 O18 1.369611 1_555
B6 O4 1.371983 1_555
B6 O3 1.381309 1_665
B7 O19 1.369611 1_555
B7 O5 1.371983 1_555
B7 O2 1.381309 1_545
B8 O2 1.459764 1_555
B8 O4 1.462615 1_555
B8 O20 1.468749 1_555
B8 O0 1.533131 1_555
B9 O3 1.459764 1_555
B9 O5 1.462615 1_555
B9 O21 1.468749 1_555
B9 O1 1.533131 1_555
B10 O6 1.446666 1_556
B10 O28 1.459188 1_555
B10 O22 1.480265 1_555
B10 O0 1.526884 1_555
B11 O7 1.446666 1_554
B11 O29 1.459188 1_555
B11 O23 1.480265 1_555
B11 O1 1.526884 1_555
B12 O26 1.347359 1_555
B12 O11 1.363801 1_555
B12 O14 1.408838 1_555
B13 O27 1.347359 1_555
B13 O10 1.363801 1_555
B13 O15 1.408838 1_555
B14 O25 1.369791 1_555
B14 O22 1.375735 1_555
B14 O20 1.375818 1_555
B15 O24 1.369791 1_555
B15 O23 1.375735 1_555
B15 O21 1.375818 1_555
