# generated using pymatgen
data_Y3Ge13Pt4
_symmetry_space_group_name_H-M   'P 1'
_cell_length_a   9.13690056
_cell_length_b   9.13690056
_cell_length_c   9.13690077
_cell_angle_alpha   89.71959685
_cell_angle_beta   89.71959685
_cell_angle_gamma   89.71960287
_symmetry_Int_Tables_number   1
_chemical_formula_structural   Y3Ge13Pt4
_chemical_formula_sum   'Y6 Ge26 Pt8'
_cell_volume   762.74813220
_cell_formula_units_Z   2
loop_
 _symmetry_equiv_pos_site_id
 _symmetry_equiv_pos_as_xyz
  1  'x, y, z'
loop_
 _atom_site_type_symbol
 _atom_site_label
 _atom_site_symmetry_multiplicity
 _atom_site_fract_x
 _atom_site_fract_y
 _atom_site_fract_z
 _atom_site_occupancy
  Y  Y0  1  0.50159300  0.74922600  0.24847600  1
  Y  Y1  1  0.24847600  0.50159300  0.74922600  1
  Y  Y2  1  0.74922600  0.24847600  0.50159300  1
  Y  Y3  1  0.74847600  0.24922600  0.00159300  1
  Y  Y4  1  0.00159300  0.74847600  0.24922600  1
  Y  Y5  1  0.24922600  0.00159300  0.74847600  1
  Ge  Ge0  1  0.74785400  0.74785400  0.74785400  1
  Ge  Ge1  1  0.24785400  0.24785400  0.24785400  1
  Ge  Ge2  1  0.09504800  0.74866900  0.91591400  1
  Ge  Ge3  1  0.91591400  0.09504800  0.74866900  1
  Ge  Ge4  1  0.74866900  0.91591400  0.09504800  1
  Ge  Ge5  1  0.41591400  0.24866900  0.59504800  1
  Ge  Ge6  1  0.59504800  0.41591400  0.24866900  1
  Ge  Ge7  1  0.24866900  0.59504800  0.41591400  1
  Ge  Ge8  1  0.74935700  0.62585500  0.46156700  1
  Ge  Ge9  1  0.46156700  0.74935700  0.62585500  1
  Ge  Ge10  1  0.62585500  0.46156700  0.74935700  1
  Ge  Ge11  1  0.96156700  0.12585500  0.24935700  1
  Ge  Ge12  1  0.24935700  0.96156700  0.12585500  1
  Ge  Ge13  1  0.12585500  0.24935700  0.96156700  1
  Ge  Ge14  1  0.75227600  0.92094600  0.39818100  1
  Ge  Ge15  1  0.39818100  0.75227600  0.92094600  1
  Ge  Ge16  1  0.92094600  0.39818100  0.75227600  1
  Ge  Ge17  1  0.89818100  0.42094600  0.25227600  1
  Ge  Ge18  1  0.25227600  0.89818100  0.42094600  1
  Ge  Ge19  1  0.42094600  0.25227600  0.89818100  1
  Ge  Ge20  1  0.00789600  0.75002600  0.63629900  1
  Ge  Ge21  1  0.63629900  0.00789600  0.75002600  1
  Ge  Ge22  1  0.75002600  0.63629900  0.00789600  1
  Ge  Ge23  1  0.13629900  0.25002600  0.50789600  1
  Ge  Ge24  1  0.50789600  0.13629900  0.25002600  1
  Ge  Ge25  1  0.25002600  0.50789600  0.13629900  1
  Pt  Pt0  1  0.49958100  0.49958100  0.49958100  1
  Pt  Pt1  1  0.99958100  0.99958100  0.99958100  1
  Pt  Pt2  1  0.99969900  0.49734300  0.50379800  1
  Pt  Pt3  1  0.50379800  0.99969900  0.49734300  1
  Pt  Pt4  1  0.49734300  0.50379800  0.99969900  1
  Pt  Pt5  1  0.00379800  0.99734300  0.49969900  1
  Pt  Pt6  1  0.49969900  0.00379800  0.99734300  1
  Pt  Pt7  1  0.99734300  0.49969900  0.00379800  1
loop_
_geom_bond_atom_site_label_1
_geom_bond_atom_site_label_2
_geom_bond_distance
_geom_bond_site_symmetry_2
Ge0 Ge20 2.580916 1_655
Ge0 Ge22 2.580916 1_556
Ge0 Ge21 2.580917 1_565
Ge0 Ge10 2.848341 1_555
Ge0 Ge9 2.848342 1_555
Ge0 Ge8 2.848342 1_555
Ge1 Ge25 2.580916 1_555
Ge1 Ge23 2.580916 1_555
Ge1 Ge24 2.580917 1_555
Ge1 Ge11 2.848341 1_455
Ge1 Ge12 2.848342 1_545
Ge1 Ge13 2.848342 1_554
Ge2 Pt1 2.567514 1_455
Ge2 Pt7 2.571284 1_456
Ge2 Ge20 2.679707 1_555
Ge2 Y1 3.059884 1_555
Ge2 Y5 3.105086 1_565
Ge2 Y4 3.158850 1_556
Ge3 Pt1 2.567514 1_545
Ge3 Pt5 2.571284 1_645
Ge3 Y2 3.059884 1_555
Ge3 Y3 3.105087 1_556
Ge3 Y5 3.158850 1_655
Ge4 Pt1 2.567514 1_554
Ge4 Pt6 2.571284 1_564
Ge4 Y0 3.059884 1_555
Ge4 Y4 3.105087 1_655
Ge4 Y3 3.158850 1_565
Ge5 Pt0 2.567514 1_555
Ge5 Pt3 2.571284 1_545
Ge5 Y5 3.059884 1_555
Ge5 Y1 3.105087 1_555
Ge5 Y2 3.158850 1_555
Ge6 Pt0 2.567514 1_555
Ge6 Pt4 2.571284 1_554
Ge6 Y3 3.059884 1_555
Ge6 Y2 3.105087 1_555
Ge6 Y0 3.158850 1_555
Ge7 Pt0 2.567514 1_555
Ge7 Pt2 2.571284 1_455
Ge7 Y4 3.059884 1_555
Ge7 Y0 3.105086 1_555
Ge7 Y1 3.158850 1_555
Ge8 Pt0 2.583450 1_555
Ge8 Pt2 2.595674 1_555
Ge8 Y0 3.191061 1_555
Ge8 Y4 3.207966 1_655
Ge8 Y2 3.465640 1_555
Ge9 Pt0 2.583450 1_555
Ge9 Pt3 2.595674 1_555
Ge9 Y1 3.191061 1_555
Ge9 Y5 3.207966 1_565
Ge9 Y0 3.465640 1_555
Ge10 Pt0 2.583450 1_555
Ge10 Pt4 2.595674 1_555
Ge10 Ge16 2.755174 1_555
Ge10 Ge19 2.999290 1_555
Ge10 Y2 3.191061 1_555
Ge10 Y3 3.207966 1_556
Ge10 Y1 3.465640 1_555
Ge11 Pt1 2.583450 1_544
Ge11 Pt5 2.595674 1_645
Ge11 Ge17 2.755174 1_555
Ge11 Ge14 2.999290 1_545
Ge11 Y3 3.191061 1_555
Ge11 Y2 3.207966 1_555
Ge11 Y4 3.465640 1_645
Ge12 Pt1 2.583450 1_454
Ge12 Pt6 2.595674 1_564
Ge12 Ge18 2.755174 1_555
Ge12 Ge15 2.999290 1_554
Ge12 Y4 3.191061 1_555
Ge12 Y0 3.207966 1_555
Ge12 Y5 3.465640 1_564
Ge13 Pt1 2.583450 1_445
Ge13 Pt7 2.595674 1_456
Ge13 Ge19 2.755174 1_555
Ge13 Ge16 2.999290 1_455
Ge13 Y5 3.191061 1_555
Ge13 Y1 3.207966 1_555
Ge13 Y3 3.465640 1_456
Ge14 Pt3 2.542295 1_555
Ge14 Pt5 2.583007 1_655
Ge14 Ge8 2.755174 1_555
Ge14 Ge4 2.770663 1_555
Ge14 Y4 3.079007 1_655
Ge14 Y0 3.108985 1_555
Ge14 Y2 3.142588 1_565
Ge15 Pt4 2.542295 1_555
Ge15 Pt6 2.583007 1_565
Ge15 Ge9 2.755174 1_555
Ge15 Ge2 2.770663 1_555
Ge15 Y5 3.079007 1_565
Ge15 Y1 3.108985 1_555
Ge15 Y0 3.142588 1_556
Ge16 Pt2 2.542295 1_555
Ge16 Pt7 2.583007 1_556
Ge16 Ge3 2.770663 1_555
Ge16 Y3 3.079007 1_556
Ge16 Y2 3.108985 1_555
Ge16 Y1 3.142588 1_655
Ge17 Pt7 2.542295 1_555
Ge17 Pt2 2.583007 1_555
Ge17 Ge6 2.770663 1_555
Ge17 Ge8 2.999290 1_555
Ge17 Y2 3.079007 1_555
Ge17 Y3 3.108985 1_555
Ge17 Y4 3.142588 1_655
Ge18 Pt5 2.542295 1_555
Ge18 Pt3 2.583007 1_555
Ge18 Ge7 2.770663 1_555
Ge18 Ge9 2.999290 1_555
Ge18 Y0 3.079007 1_555
Ge18 Y4 3.108985 1_555
Ge18 Y5 3.142588 1_565
Ge19 Pt6 2.542295 1_555
Ge19 Pt4 2.583007 1_555
Ge19 Ge5 2.770663 1_555
Ge19 Y1 3.079007 1_555
Ge19 Y5 3.108985 1_555
Ge19 Y3 3.142588 1_556
Ge20 Pt5 2.576330 1_555
Ge20 Pt2 2.613713 1_455
Ge20 Y1 3.316538 1_555
Ge20 Y5 3.360159 1_565
Ge20 Y4 3.537497 1_555
Ge21 Pt6 2.576330 1_555
Ge21 Pt3 2.613713 1_545
Ge21 Ge3 2.679707 1_555
Ge21 Y2 3.316538 1_555
Ge21 Y3 3.360159 1_556
Ge21 Y5 3.537497 1_555
Ge22 Pt7 2.576330 1_555
Ge22 Pt4 2.613713 1_554
Ge22 Ge4 2.679707 1_555
Ge22 Y0 3.316538 1_555
Ge22 Y4 3.360159 1_655
Ge22 Y3 3.537497 1_555
Ge23 Pt2 2.576330 1_455
Ge23 Pt5 2.613713 1_545
Ge23 Ge5 2.679707 1_555
Ge23 Y5 3.316538 1_555
Ge23 Y1 3.360159 1_555
Ge23 Y2 3.537497 1_455
Ge24 Pt3 2.576330 1_545
Ge24 Pt6 2.613713 1_554
Ge24 Ge6 2.679707 1_555
Ge24 Y3 3.316538 1_555
Ge24 Y2 3.360159 1_555
Ge24 Y0 3.537497 1_545
Ge25 Pt4 2.576330 1_554
Ge25 Pt7 2.613713 1_455
Ge25 Ge7 2.679707 1_555
Ge25 Y4 3.316538 1_555
Ge25 Y0 3.360159 1_555
Ge25 Y1 3.537497 1_554
Pt0 Y0 3.227367 1_555
Pt0 Y1 3.227367 1_555
Pt0 Y2 3.227368 1_555
Pt1 Y5 3.227367 1_665
Pt1 Y4 3.227367 1_656
Pt1 Y3 3.227368 1_566
Pt2 Y1 3.201322 1_655
Pt2 Y2 3.234221 1_555
Pt2 Y4 3.259357 1_655
Pt3 Y2 3.201322 1_565
Pt3 Y0 3.234221 1_555
Pt3 Y5 3.259357 1_565
Pt4 Y0 3.201322 1_556
Pt4 Y1 3.234221 1_555
Pt4 Y3 3.259358 1_556
Pt5 Y5 3.201322 1_565
Pt5 Y4 3.234221 1_555
Pt5 Y2 3.259358 1_465
Pt6 Y3 3.201322 1_556
Pt6 Y5 3.234221 1_555
Pt6 Y0 3.259357 1_546
Pt7 Y4 3.201322 1_655
Pt7 Y3 3.234221 1_555
Pt7 Y1 3.259357 1_654
