# generated using pymatgen
data_Mo3O8
_symmetry_space_group_name_H-M   'P 1'
_cell_length_a   6.14638564
_cell_length_b   6.14638564
_cell_length_c   9.87561900
_cell_angle_alpha   90.00000000
_cell_angle_beta   90.00000000
_cell_angle_gamma   119.99999611
_symmetry_Int_Tables_number   1
_chemical_formula_structural   Mo3O8
_chemical_formula_sum   'Mo6 O16'
_cell_volume   323.09823540
_cell_formula_units_Z   2
loop_
 _symmetry_equiv_pos_site_id
 _symmetry_equiv_pos_as_xyz
  1  'x, y, z'
loop_
 _atom_site_type_symbol
 _atom_site_label
 _atom_site_symmetry_multiplicity
 _atom_site_fract_x
 _atom_site_fract_y
 _atom_site_fract_z
 _atom_site_occupancy
  Mo  Mo0  1  0.66315100  0.83157500  0.24845300  1
  Mo  Mo1  1  0.83157500  0.16842500  0.74845300  1
  Mo  Mo2  1  0.16842500  0.33684900  0.24845300  1
  Mo  Mo3  1  0.83157500  0.66315100  0.74845300  1
  Mo  Mo4  1  0.33684900  0.16842500  0.74845300  1
  Mo  Mo5  1  0.16842500  0.83157500  0.24845300  1
  O  O0  1  0.85061300  0.14938700  0.15208400  1
  O  O1  1  0.70122700  0.85061300  0.65208400  1
  O  O2  1  0.14938700  0.29877300  0.65208400  1
  O  O3  1  0.85061300  0.70122700  0.15208400  1
  O  O4  1  0.29877300  0.14938700  0.15208400  1
  O  O5  1  0.14938700  0.85061300  0.65208400  1
  O  O6  1  0.52013700  0.47986300  0.85320000  1
  O  O7  1  0.04027300  0.52013700  0.35320000  1
  O  O8  1  0.47986300  0.95972700  0.35320000  1
  O  O9  1  0.52013700  0.04027300  0.85320000  1
  O  O10  1  0.00000000  0.00000000  0.35873800  1
  O  O11  1  0.00000000  0.00000000  0.85873800  1
  O  O12  1  0.33333300  0.66666700  0.13519600  1
  O  O13  1  0.95972700  0.47986300  0.85320000  1
  O  O14  1  0.47986300  0.52013700  0.35320000  1
  O  O15  1  0.66666700  0.33333300  0.63519600  1
loop_
_geom_bond_atom_site_label_1
_geom_bond_atom_site_label_2
_geom_bond_distance
_geom_bond_site_symmetry_2
Mo0 O3 1.948929 1_555
Mo0 O0 1.948938 1_565
Mo0 O14 1.961366 1_555
Mo0 O8 1.961374 1_555
Mo0 O12 2.081616 1_555
Mo0 O10 2.097889 1_665
Mo1 O1 1.948939 1_545
Mo1 O2 1.948939 1_655
Mo1 O9 1.961365 1_555
Mo1 O13 1.961365 1_555
Mo1 O15 2.081607 1_555
Mo1 O11 2.097894 1_655
Mo2 O4 1.948929 1_555
Mo2 O0 1.948938 1_455
Mo2 O14 1.961366 1_555
Mo2 O7 1.961374 1_555
Mo2 O12 2.081616 1_555
Mo2 O10 2.097889 1_555
Mo3 O1 1.948929 1_555
Mo3 O5 1.948938 1_655
Mo3 O6 1.961366 1_555
Mo3 O13 1.961374 1_555
Mo3 O15 2.081616 1_555
Mo3 O11 2.097889 1_665
Mo4 O2 1.948929 1_555
Mo4 O5 1.948938 1_545
Mo4 O6 1.961366 1_555
Mo4 O9 1.961374 1_555
Mo4 O15 2.081616 1_555
Mo4 O11 2.097889 1_555
Mo5 O3 1.948939 1_455
Mo5 O4 1.948939 1_565
Mo5 O7 1.961365 1_555
Mo5 O8 1.961365 1_555
Mo5 O12 2.081607 1_555
Mo5 O10 2.097894 1_565
