# generated using pymatgen
data_PH8NO4
_symmetry_space_group_name_H-M   'P 1'
_cell_length_a   7.39063897
_cell_length_b   7.39063897
_cell_length_c   7.39063897
_cell_angle_alpha   106.04952875
_cell_angle_beta   106.04952875
_cell_angle_gamma   116.55544236
_symmetry_Int_Tables_number   1
_chemical_formula_structural   PH8NO4
_chemical_formula_sum   'P2 H16 N2 O8'
_cell_volume   307.15399999
_cell_formula_units_Z   2
loop_
 _symmetry_equiv_pos_site_id
 _symmetry_equiv_pos_as_xyz
  1  'x, y, z'
loop_
 _atom_site_type_symbol
 _atom_site_label
 _atom_site_symmetry_multiplicity
 _atom_site_fract_x
 _atom_site_fract_y
 _atom_site_fract_z
 _atom_site_occupancy
  P  P0  1  0.25000000  0.75000000  0.50000000  1
  P  P1  1  0.00000000  0.00000000  0.00000000  1
  H  H0  1  0.73248700  0.31463100  0.39275200  1
  H  H1  1  0.51751300  0.41026500  0.08214400  1
  H  H2  1  0.92187900  0.33973500  0.60724800  1
  H  H3  1  0.32812100  0.43536900  0.91785600  1
  H  H4  1  0.68536900  0.07812100  0.41785600  1
  H  H5  1  0.56463100  0.48248700  0.89275200  1
  H  H6  1  0.66026500  0.26751300  0.58214400  1
  H  H7  1  0.58973500  0.67187900  0.10724800  1
  H  H8  1  0.19179700  0.64188100  0.15437000  1
  H  H9  1  0.05820300  0.71257300  0.95008500  1
  H  H10  1  0.48751100  0.03742700  0.84563000  1
  H  H11  1  0.76248900  0.10811900  0.04991500  1
  H  H12  1  0.35811900  0.51248900  0.54991500  1
  H  H13  1  0.89188100  0.94179700  0.65437000  1
  H  H14  1  0.96257300  0.80820300  0.45008500  1
  H  H15  1  0.28742700  0.23751100  0.34563000  1
  N  N0  1  0.75000000  0.25000000  0.50000000  1
  N  N1  1  0.50000000  0.50000000  0.00000000  1
  O  O0  1  0.31544700  0.75364900  0.31529200  1
  O  O1  1  0.93455300  0.74984500  0.93820100  1
  O  O2  1  0.43835600  0.00015500  0.68470800  1
  O  O3  1  0.81164400  0.99635100  0.06179900  1
  O  O4  1  0.24635100  0.56164400  0.56179900  1
  O  O5  1  0.00364900  0.06544700  0.81529200  1
  O  O6  1  0.99984500  0.68455300  0.43820100  1
  O  O7  1  0.25015500  0.18835600  0.18470800  1
loop_
_geom_bond_atom_site_label_1
_geom_bond_atom_site_label_2
_geom_bond_distance
_geom_bond_site_symmetry_2
H0 N0 1.039751 1_555
H1 N1 1.039751 1_555
H2 N0 1.039751 1_555
H3 N1 1.039751 1_556
H4 N0 1.039751 1_555
H5 N1 1.039751 1_556
H6 N0 1.039751 1_555
H7 N1 1.039751 1_555
H8 O0 1.054894 1_555
H9 O1 1.054893 1_455
H10 O2 1.054894 1_555
H11 O3 1.054902 1_545
H12 O4 1.054902 1_555
H13 O5 1.054894 1_665
H14 O6 1.054893 1_555
H15 O7 1.054894 1_555
O0 P0 1.572262 1_555
O1 P1 1.572262 1_666
O2 P0 1.572262 1_545
O3 P1 1.572259 1_665
O4 P0 1.572259 1_555
O5 P1 1.572262 1_556
O6 P0 1.572262 1_655
O7 P1 1.572262 1_555
