# generated using pymatgen
data_Y2ZnS4
_symmetry_space_group_name_H-M   'P 1'
_cell_length_a   7.80102404
_cell_length_b   7.80102404
_cell_length_c   7.80102404
_cell_angle_alpha   60.00000000
_cell_angle_beta   60.00000000
_cell_angle_gamma   60.00000000
_symmetry_Int_Tables_number   1
_chemical_formula_structural   Y2ZnS4
_chemical_formula_sum   'Y4 Zn2 S8'
_cell_volume   335.69111854
_cell_formula_units_Z   2
loop_
 _symmetry_equiv_pos_site_id
 _symmetry_equiv_pos_as_xyz
  1  'x, y, z'
loop_
 _atom_site_type_symbol
 _atom_site_label
 _atom_site_symmetry_multiplicity
 _atom_site_fract_x
 _atom_site_fract_y
 _atom_site_fract_z
 _atom_site_occupancy
  Y  Y0  1  0.12500000  0.62500000  0.62500000  1
  Y  Y1  1  0.62500000  0.12500000  0.62500000  1
  Y  Y2  1  0.62500000  0.62500000  0.12500000  1
  Y  Y3  1  0.62500000  0.62500000  0.62500000  1
  Zn  Zn0  1  0.25000000  0.25000000  0.25000000  1
  Zn  Zn1  1  0.00000000  0.00000000  0.00000000  1
  S  S0  1  0.87046300  0.37651200  0.37651200  1
  S  S1  1  0.37651200  0.87046300  0.37651200  1
  S  S2  1  0.37651200  0.37651200  0.87046300  1
  S  S3  1  0.37651200  0.37651200  0.37651200  1
  S  S4  1  0.37953700  0.87348800  0.87348800  1
  S  S5  1  0.87348800  0.37953700  0.87348800  1
  S  S6  1  0.87348800  0.87348800  0.37953700  1
  S  S7  1  0.87348800  0.87348800  0.87348800  1
loop_
_geom_bond_atom_site_label_1
_geom_bond_atom_site_label_2
_geom_bond_distance
_geom_bond_site_symmetry_2
S0 Zn0 2.417465 1_655
S0 Y1 2.741494 1_555
S0 Y2 2.741494 1_555
S0 Y3 2.741499 1_555
S1 Zn0 2.417465 1_565
S1 Y2 2.741494 1_555
S1 Y0 2.741494 1_555
S1 Y3 2.741499 1_555
S2 Zn0 2.417465 1_556
S2 Y1 2.741494 1_555
S2 Y0 2.741494 1_555
S2 Y3 2.741499 1_555
S3 Zn0 2.417458 1_555
S3 Y0 2.741499 1_555
S3 Y2 2.741499 1_555
S3 Y1 2.741499 1_555
S4 Zn1 2.417465 1_566
S4 Y1 2.741494 1_565
S4 Y2 2.741494 1_556
S4 Y3 2.741499 1_555
S5 Zn1 2.417465 1_656
S5 Y0 2.741494 1_655
S5 Y2 2.741494 1_556
S5 Y3 2.741499 1_555
S6 Zn1 2.417465 1_665
S6 Y1 2.741494 1_565
S6 Y0 2.741494 1_655
S6 Y3 2.741499 1_555
S7 Zn1 2.417458 1_666
S7 Y0 2.741499 1_655
S7 Y1 2.741499 1_565
S7 Y2 2.741499 1_556
