# generated using pymatgen
data_Ba2NdCu2HgO7
_symmetry_space_group_name_H-M   'P 1'
_cell_length_a   3.90805400
_cell_length_b   3.90805400
_cell_length_c   12.94754700
_cell_angle_alpha   90.00000000
_cell_angle_beta   90.00000000
_cell_angle_gamma   90.00000000
_symmetry_Int_Tables_number   1
_chemical_formula_structural   Ba2NdCu2HgO7
_chemical_formula_sum   'Ba2 Nd1 Cu2 Hg1 O7'
_cell_volume   197.74641018
_cell_formula_units_Z   1
loop_
 _symmetry_equiv_pos_site_id
 _symmetry_equiv_pos_as_xyz
  1  'x, y, z'
loop_
 _atom_site_type_symbol
 _atom_site_label
 _atom_site_symmetry_multiplicity
 _atom_site_fract_x
 _atom_site_fract_y
 _atom_site_fract_z
 _atom_site_occupancy
  Ba  Ba0  1  0.50000000  0.50000000  0.19981500  1
  Ba  Ba1  1  0.50000000  0.50000000  0.80018500  1
  Nd  Nd0  1  0.50000000  0.50000000  0.50000000  1
  Cu  Cu0  1  0.00000000  0.00000000  0.36499100  1
  Cu  Cu1  1  0.00000000  0.00000000  0.63500900  1
  Hg  Hg0  1  0.00000000  0.00000000  0.00000000  1
  O  O0  1  0.00000000  0.00000000  0.16256200  1
  O  O1  1  0.00000000  0.00000000  0.83743800  1
  O  O2  1  0.00000000  0.50000000  0.38150000  1
  O  O3  1  0.00000000  0.50000000  0.61850000  1
  O  O4  1  0.50000000  0.00000000  0.38150000  1
  O  O5  1  0.50000000  0.00000000  0.61850000  1
  O  O6  1  0.50000000  0.50000000  0.00000000  1
loop_
_geom_bond_atom_site_label_1
_geom_bond_atom_site_label_2
_geom_bond_distance
_geom_bond_site_symmetry_2
Ba0 O6 2.587114 1_555
Ba0 O0 2.805190 1_655
Ba0 O0 2.805190 1_555
Ba0 O0 2.805190 1_565
Ba0 O0 2.805190 1_665
Ba0 O2 3.058086 1_555
Ba0 O2 3.058086 1_655
Ba0 O4 3.058086 1_565
Ba0 O4 3.058086 1_555
Ba1 O6 2.587114 1_556
Ba1 O1 2.805190 1_555
Ba1 O1 2.805190 1_565
Ba1 O1 2.805190 1_665
Ba1 O1 2.805190 1_655
Ba1 O5 3.058086 1_565
Ba1 O3 3.058086 1_555
Ba1 O3 3.058086 1_655
Ba1 O5 3.058086 1_555
Nd0 O4 2.484401 1_555
Nd0 O2 2.484401 1_555
Nd0 O2 2.484401 1_655
Nd0 O4 2.484401 1_565
Nd0 O5 2.484401 1_555
Nd0 O5 2.484401 1_565
Nd0 O3 2.484401 1_555
Nd0 O3 2.484401 1_655
Cu0 O2 1.965683 1_555
Cu0 O4 1.965683 1_455
Cu0 O2 1.965683 1_545
Cu0 O4 1.965683 1_555
Cu0 O0 2.620959 1_555
Cu1 O5 1.965683 1_455
Cu1 O5 1.965683 1_555
Cu1 O3 1.965683 1_545
Cu1 O3 1.965683 1_555
Cu1 O1 2.620959 1_555
Hg0 O1 2.104779 1_554
Hg0 O0 2.104779 1_555
