# generated using pymatgen
data_LiZnGe
_symmetry_space_group_name_H-M   'P 1'
_cell_length_a   4.28762150
_cell_length_b   4.28762150
_cell_length_c   9.44088200
_cell_angle_alpha   90.00066799
_cell_angle_beta   89.99925550
_cell_angle_gamma   119.99261645
_symmetry_Int_Tables_number   1
_chemical_formula_structural   LiZnGe
_chemical_formula_sum   'Li3 Zn3 Ge3'
_cell_volume   150.31710003
_cell_formula_units_Z   3
loop_
 _symmetry_equiv_pos_site_id
 _symmetry_equiv_pos_as_xyz
  1  'x, y, z'
loop_
 _atom_site_type_symbol
 _atom_site_label
 _atom_site_symmetry_multiplicity
 _atom_site_fract_x
 _atom_site_fract_y
 _atom_site_fract_z
 _atom_site_occupancy
  Li  Li0  1  0.66669000  0.33330900  0.16807900  1
  Li  Li1  1  0.66669200  0.33330600  0.83250800  1
  Li  Li2  1  0.66670300  0.33329900  0.50017700  1
  Zn  Zn0  1  0.99998300  0.00001700  0.29406800  1
  Zn  Zn1  1  0.99998200  0.00001700  0.70643300  1
  Zn  Zn2  1  0.33334500  0.66667000  0.01913400  1
  Ge  Ge0  1  0.99997100  0.00002300  0.99895400  1
  Ge  Ge1  1  0.33331800  0.66667900  0.36455100  1
  Ge  Ge2  1  0.33331700  0.66668000  0.63599500  1
loop_
_geom_bond_atom_site_label_1
_geom_bond_atom_site_label_2
_geom_bond_distance
_geom_bond_site_symmetry_2
Li0 Zn0 2.746054 1_555
Li0 Zn0 2.746687 1_455
Li0 Zn0 2.746693 1_565
Li0 Zn2 2.847030 1_545
Li0 Zn2 2.847031 1_555
Li0 Zn2 2.847079 1_655
Li1 Zn1 2.746355 1_555
Li1 Zn1 2.747066 1_455
Li1 Zn1 2.747067 1_565
Li1 Zn2 3.038499 1_556
Li1 Zn2 3.038526 1_546
Li1 Zn2 3.038581 1_656
Ge0 Zn2 2.482811 1_546
Ge0 Zn2 2.482890 1_656
Ge0 Zn2 2.482914 1_646
Ge0 Zn1 2.761656 1_555
Ge0 Zn0 2.786136 1_556
Ge0 Li1 2.931709 1_555
Ge0 Li1 2.932402 1_545
Ge0 Li1 2.932411 1_655
Ge0 Li0 2.945321 1_556
Ge0 Li0 2.946039 1_546
Ge0 Li0 2.946058 1_656
Ge1 Ge2 2.562671 1_555
Ge1 Zn0 2.563278 1_465
Ge1 Zn0 2.563492 1_455
Ge1 Zn0 2.563501 1_565
Ge1 Li2 2.786989 1_455
Ge1 Li2 2.787008 1_565
Ge1 Li2 2.787264 1_555
Ge1 Li0 3.093334 1_455
Ge1 Li0 3.093337 1_565
Ge1 Li0 3.093418 1_555
Ge2 Zn1 2.563146 1_465
Ge2 Zn1 2.563393 1_455
Ge2 Zn1 2.563402 1_565
Ge2 Li2 2.787838 1_455
Ge2 Li2 2.787852 1_565
Ge2 Li2 2.788071 1_555
Ge2 Li1 3.093533 1_455
Ge2 Li1 3.093539 1_565
Ge2 Li1 3.093713 1_555
