# generated using pymatgen
data_K2PH3SO8
_symmetry_space_group_name_H-M   'P 1'
_cell_length_a   7.51126000
_cell_length_b   9.63808836
_cell_length_c   11.26460102
_cell_angle_alpha   88.57241342
_cell_angle_beta   88.11181116
_cell_angle_gamma   88.54691792
_symmetry_Int_Tables_number   1
_chemical_formula_structural   K2PH3SO8
_chemical_formula_sum   'K8 P4 H12 S4 O32'
_cell_volume   814.55012339
_cell_formula_units_Z   4
loop_
 _symmetry_equiv_pos_site_id
 _symmetry_equiv_pos_as_xyz
  1  'x, y, z'
loop_
 _atom_site_type_symbol
 _atom_site_label
 _atom_site_symmetry_multiplicity
 _atom_site_fract_x
 _atom_site_fract_y
 _atom_site_fract_z
 _atom_site_occupancy
  K  K0  1  0.70090300  0.40932700  0.80030500  1
  K  K1  1  0.19804700  0.09933600  0.19654200  1
  K  K2  1  0.29909700  0.59067300  0.19969500  1
  K  K3  1  0.80195300  0.90066400  0.80345800  1
  K  K4  1  0.81072700  0.39572500  0.30337900  1
  K  K5  1  0.30361400  0.09168200  0.69857400  1
  K  K6  1  0.18927300  0.60427500  0.69662100  1
  K  K7  1  0.69638600  0.90831800  0.30142600  1
  P  P0  1  0.69531900  0.66623100  0.57664300  1
  P  P1  1  0.30468100  0.33376900  0.42335700  1
  P  P2  1  0.71045800  0.16230100  0.07618900  1
  P  P3  1  0.28954200  0.83769900  0.92381100  1
  H  H0  1  0.49708900  0.32631500  0.06301300  1
  H  H1  1  0.93738700  0.16819900  0.94290000  1
  H  H2  1  0.50291100  0.67368500  0.93698700  1
  H  H3  1  0.06261300  0.83180100  0.05710000  1
  H  H4  1  0.92138000  0.66571500  0.44488000  1
  H  H5  1  0.47867100  0.82766400  0.55838900  1
  H  H6  1  0.07862000  0.33428500  0.55512000  1
  H  H7  1  0.52132900  0.17233600  0.44161100  1
  H  H8  1  0.50000000  0.50000000  0.50000000  1
  H  H9  1  0.00000000  0.00000000  0.50000000  1
  H  H10  1  0.50000000  0.00000000  0.00000000  1
  H  H11  1  0.00000000  0.50000000  0.00000000  1
  S  S0  1  0.19845600  0.82993900  0.42737700  1
  S  S1  1  0.80154400  0.17006100  0.57262300  1
  S  S2  1  0.20889800  0.33342100  0.92703700  1
  S  S3  1  0.79110200  0.66657900  0.07296300  1
  O  O0  1  0.78791300  0.64694700  0.44821700  1
  O  O1  1  0.27370100  0.85281800  0.54564700  1
  O  O2  1  0.21208700  0.35305300  0.55178300  1
  O  O3  1  0.72629900  0.14718200  0.45435300  1
  O  O4  1  0.55252400  0.06229700  0.08315600  1
  O  O5  1  0.05127600  0.43761100  0.91285600  1
  O  O6  1  0.44747600  0.93770300  0.91684400  1
  O  O7  1  0.94872400  0.56238900  0.08714400  1
  O  O8  1  0.54015500  0.56352700  0.58600800  1
  O  O9  1  0.04380000  0.93615700  0.41179700  1
  O  O10  1  0.45984500  0.43647300  0.41399200  1
  O  O11  1  0.95620000  0.06384300  0.58820300  1
  O  O12  1  0.82644700  0.65366900  0.67428700  1
  O  O13  1  0.32879200  0.85074000  0.32900900  1
  O  O14  1  0.17355300  0.34633100  0.32571300  1
  O  O15  1  0.67120800  0.14926000  0.67099100  1
  O  O16  1  0.80329700  0.14791000  0.94760000  1
  O  O17  1  0.28455500  0.35309000  0.04563400  1
  O  O18  1  0.19670300  0.85209000  0.05240000  1
  O  O19  1  0.71544500  0.64691000  0.95436600  1
  O  O20  1  0.62810600  0.31735500  0.08033000  1
  O  O21  1  0.13608100  0.19131800  0.91963600  1
  O  O22  1  0.37189400  0.68264500  0.91967000  1
  O  O23  1  0.86391900  0.80868200  0.08036400  1
  O  O24  1  0.84083700  0.14447700  0.17395300  1
  O  O25  1  0.33828600  0.35821800  0.82901500  1
  O  O26  1  0.15916300  0.85552300  0.82604700  1
  O  O27  1  0.66171400  0.64178200  0.17098500  1
  O  O28  1  0.61096900  0.82032600  0.57536500  1
  O  O29  1  0.12390400  0.68826400  0.42371400  1
  O  O30  1  0.38903100  0.17967400  0.42463500  1
  O  O31  1  0.87609600  0.31173600  0.57628600  1
loop_
_geom_bond_atom_site_label_1
_geom_bond_atom_site_label_2
_geom_bond_distance
_geom_bond_site_symmetry_2
K0 O25 2.787095 1_555
K0 O12 2.882388 1_555
K0 O19 2.913803 1_555
K0 O15 2.947222 1_555
K0 O31 2.970016 1_555
K0 O5 2.980149 1_655
K0 O8 3.068581 1_555
K0 O16 3.077374 1_555
K0 O20 3.287309 1_556
K1 O24 2.726411 1_455
K1 O14 2.819725 1_555
K1 O18 2.917223 1_545
K1 O4 2.932317 1_555
K1 O13 2.954813 1_545
K1 O17 3.015636 1_555
K1 O9 3.067989 1_545
K1 O30 3.107648 1_555
K1 O21 3.266369 1_554
K2 O27 2.787095 1_555
K2 O14 2.882388 1_555
K2 O17 2.913803 1_555
K2 O13 2.947222 1_555
K2 O29 2.970016 1_555
K2 O7 2.980149 1_455
K2 O10 3.068581 1_555
K2 O18 3.077374 1_555
K2 O22 3.287309 1_554
K3 O26 2.726411 1_655
K3 O12 2.819725 1_555
K3 O16 2.917223 1_565
K3 O6 2.932317 1_555
K3 O15 2.954813 1_565
K3 O19 3.015636 1_555
K3 O11 3.067989 1_565
K3 O28 3.107648 1_555
K3 O23 3.266369 1_556
K4 O14 2.773175 1_655
K4 O24 2.857802 1_555
K4 O10 2.899737 1_555
K4 O0 2.951501 1_555
K4 O3 2.972493 1_555
K4 O27 2.983321 1_555
K4 O20 3.023129 1_555
K4 O7 3.051377 1_555
K4 O31 3.209722 1_555
K5 O15 2.835618 1_555
K5 O26 2.877430 1_545
K5 O21 2.925414 1_555
K5 O1 2.927027 1_545
K5 O11 2.948434 1_455
K5 O25 3.012195 1_555
K5 O6 3.054074 1_545
K5 O2 3.054883 1_555
K5 O30 3.227978 1_555
K6 O12 2.773175 1_455
K6 O26 2.857802 1_555
K6 O8 2.899737 1_555
K6 O2 2.951501 1_555
K6 O1 2.972493 1_555
K6 O25 2.983321 1_555
K6 O22 3.023129 1_555
K6 O5 3.051377 1_555
K6 O29 3.209722 1_555
K7 O13 2.835618 1_555
K7 O24 2.877430 1_565
K7 O23 2.925414 1_555
K7 O3 2.927027 1_565
K7 O9 2.948434 1_655
K7 O27 3.012195 1_555
K7 O4 3.054074 1_565
K7 O0 3.054883 1_555
K7 O28 3.227978 1_555
H0 O20 1.010677 1_555
H0 O17 1.628063 1_555
H1 O16 1.030253 1_555
H1 O21 1.527708 1_655
H2 O22 1.010677 1_555
H2 O19 1.628063 1_555
H3 O18 1.030253 1_555
H3 O23 1.527708 1_455
H4 O0 1.022509 1_555
H4 O29 1.551916 1_655
H5 O28 1.018500 1_555
H5 O1 1.563199 1_555
H6 O2 1.022509 1_555
H6 O31 1.551916 1_455
H7 O30 1.018500 1_555
H7 O3 1.563199 1_555
H8 O8 1.209421 1_555
H8 O10 1.209421 1_555
H9 O11 1.213549 1_455
H9 O9 1.213549 1_545
H10 O4 1.207473 1_555
H10 O6 1.207473 1_544
H11 O7 1.210903 1_455
H11 O5 1.210903 1_554
O0 P0 1.597387 1_555
O1 S0 1.487806 1_555
O2 P1 1.597387 1_555
O3 S1 1.487806 1_555
O4 P2 1.546129 1_555
O5 S2 1.542662 1_555
O6 P3 1.546129 1_555
O7 S3 1.542662 1_555
O8 P0 1.547422 1_555
O9 S0 1.540282 1_555
O10 P1 1.547422 1_555
O11 S1 1.540282 1_555
O12 P0 1.501097 1_555
O13 S0 1.467597 1_555
O14 P1 1.501097 1_555
O15 S1 1.467597 1_555
O16 P2 1.594435 1_556
O17 S2 1.487195 1_554
O18 P3 1.594435 1_554
O19 S3 1.487195 1_556
O20 P2 1.603993 1_555
O21 S2 1.492848 1_555
O22 P3 1.603993 1_555
O23 S3 1.492848 1_555
O24 P2 1.501490 1_555
O25 S2 1.465868 1_555
O26 P3 1.501490 1_555
O27 S3 1.465868 1_555
O28 P0 1.599750 1_555
O29 S0 1.490944 1_555
O30 P1 1.599750 1_555
O31 S1 1.490944 1_555
