# generated using pymatgen
data_Mo3W(SeS3)2
_symmetry_space_group_name_H-M   'P 1'
_cell_length_a   3.22057545
_cell_length_b   3.22057545
_cell_length_c   36.36268400
_cell_angle_alpha   90.00000000
_cell_angle_beta   90.00000000
_cell_angle_gamma   119.99998878
_symmetry_Int_Tables_number   1
_chemical_formula_structural   Mo3W(SeS3)2
_chemical_formula_sum   'Mo3 W1 Se2 S6'
_cell_volume   326.62811890
_cell_formula_units_Z   1
loop_
 _symmetry_equiv_pos_site_id
 _symmetry_equiv_pos_as_xyz
  1  'x, y, z'
loop_
 _atom_site_type_symbol
 _atom_site_label
 _atom_site_symmetry_multiplicity
 _atom_site_fract_x
 _atom_site_fract_y
 _atom_site_fract_z
 _atom_site_occupancy
  Mo  Mo0  1  0.00000000  0.00000000  0.09391500  1
  Mo  Mo1  1  0.33333300  0.66666700  0.28180400  1
  Mo  Mo2  1  0.33333300  0.66666700  0.65753700  1
  W  W0  1  0.00000000  0.00000000  0.46966800  1
  Se  Se0  1  0.00000000  0.00000000  0.32882600  1
  Se  Se1  1  0.00000000  0.00000000  0.23473900  1
  S  S0  1  0.00000000  0.00000000  0.70034300  1
  S  S1  1  0.33333300  0.66666700  0.05111500  1
  S  S2  1  0.33333300  0.66666700  0.42673700  1
  S  S3  1  0.33333300  0.66666700  0.13670900  1
  S  S4  1  0.33333300  0.66666700  0.51261200  1
  S  S5  1  0.00000000  0.00000000  0.61474200  1
loop_
_geom_bond_atom_site_label_1
_geom_bond_atom_site_label_2
_geom_bond_distance
_geom_bond_site_symmetry_2
Mo0 S3 2.424628 1_545
Mo0 S3 2.424631 1_445
Mo0 S3 2.424631 1_555
Mo0 S1 2.424769 1_545
Mo0 S1 2.424771 1_555
Mo0 S1 2.424771 1_445
Mo1 Se0 2.526051 1_565
Mo1 Se0 2.526054 1_555
Mo1 Se0 2.526054 1_665
Mo1 Se1 2.527110 1_565
Mo1 Se1 2.527112 1_665
Mo1 Se1 2.527112 1_555
Mo2 S5 2.424652 1_565
Mo2 S5 2.424654 1_665
Mo2 S5 2.424654 1_555
Mo2 S0 2.424909 1_565
Mo2 S0 2.424911 1_555
Mo2 S0 2.424911 1_665
S2 W0 2.427829 1_565
S2 W0 2.427831 1_555
S2 W0 2.427831 1_665
S4 W0 2.428133 1_565
S4 W0 2.428135 1_665
S4 W0 2.428135 1_555
