# generated using pymatgen
data_La3HfGa5O14
_symmetry_space_group_name_H-M   'P 1'
_cell_length_a   8.35313156
_cell_length_b   8.35313156
_cell_length_c   5.20430700
_cell_angle_alpha   90.00000000
_cell_angle_beta   90.00000000
_cell_angle_gamma   119.99999648
_symmetry_Int_Tables_number   1
_chemical_formula_structural   La3HfGa5O14
_chemical_formula_sum   'La3 Hf1 Ga5 O14'
_cell_volume   314.47939633
_cell_formula_units_Z   1
loop_
 _symmetry_equiv_pos_site_id
 _symmetry_equiv_pos_as_xyz
  1  'x, y, z'
loop_
 _atom_site_type_symbol
 _atom_site_label
 _atom_site_symmetry_multiplicity
 _atom_site_fract_x
 _atom_site_fract_y
 _atom_site_fract_z
 _atom_site_occupancy
  La  La0  1  0.57405000  0.00000000  0.00000000  1
  La  La1  1  0.00000000  0.57405000  0.00000000  1
  La  La2  1  0.42595000  0.42595000  0.00000000  1
  Hf  Hf0  1  0.00000000  0.00000000  0.00000000  1
  Ga  Ga0  1  0.33333300  0.66666700  0.52971800  1
  Ga  Ga1  1  0.66666700  0.33333300  0.47028200  1
  Ga  Ga2  1  0.24414200  0.00000000  0.50000000  1
  Ga  Ga3  1  0.00000000  0.24414200  0.50000000  1
  Ga  Ga4  1  0.75585800  0.75585800  0.50000000  1
  O  O0  1  0.14735800  0.22678200  0.24254100  1
  O  O1  1  0.77321800  0.92057600  0.24254100  1
  O  O2  1  0.22678200  0.14735800  0.75745900  1
  O  O3  1  0.07942400  0.85264200  0.24254100  1
  O  O4  1  0.92057600  0.77321800  0.75745900  1
  O  O5  1  0.85264200  0.07942400  0.75745900  1
  O  O6  1  0.33333300  0.66666700  0.18021700  1
  O  O7  1  0.66666700  0.33333300  0.81978300  1
  O  O8  1  0.45763200  0.14653000  0.30164900  1
  O  O9  1  0.85347000  0.31110200  0.30164900  1
  O  O10  1  0.14653000  0.45763200  0.69835100  1
  O  O11  1  0.68889800  0.54236800  0.30164900  1
  O  O12  1  0.31110200  0.85347000  0.69835100  1
  O  O13  1  0.54236800  0.68889800  0.69835100  1
loop_
_geom_bond_atom_site_label_1
_geom_bond_atom_site_label_2
_geom_bond_distance
_geom_bond_site_symmetry_2
La0 O1 2.430023 1_545
La0 O5 2.430023 1_554
La0 O8 2.469530 1_555
La0 O12 2.469530 1_544
La0 O7 2.660229 1_554
La0 O6 2.660231 1_545
La0 O13 2.932564 1_544
La0 O9 2.932564 1_555
La1 O4 2.430023 1_454
La1 O3 2.430023 1_555
La1 O10 2.469530 1_554
La1 O9 2.469530 1_455
La1 O6 2.660229 1_555
La1 O7 2.660231 1_454
La1 O11 2.932564 1_455
La1 O12 2.932564 1_554
La2 O0 2.430024 1_555
La2 O2 2.430024 1_554
La2 O11 2.469530 1_555
La2 O13 2.469530 1_554
La2 O6 2.660237 1_555
La2 O7 2.660237 1_554
La2 O8 2.932564 1_555
La2 O10 2.932564 1_554
Hf0 O3 2.089304 1_545
Hf0 O5 2.089304 1_454
Hf0 O1 2.089304 1_445
Hf0 O4 2.089304 1_444
Hf0 O0 2.089304 1_555
Hf0 O2 2.089304 1_554
Ga0 O6 1.818911 1_555
Ga0 O12 1.878637 1_555
Ga0 O10 1.878641 1_555
Ga0 O13 1.878644 1_555
Ga1 O7 1.818911 1_555
Ga1 O9 1.878637 1_555
Ga1 O8 1.878641 1_555
Ga1 O11 1.878644 1_555
Ga2 O2 1.873488 1_555
Ga2 O3 1.873488 1_545
Ga2 O12 1.887111 1_545
Ga2 O8 1.887112 1_555
Ga3 O0 1.873488 1_555
Ga3 O5 1.873488 1_455
Ga3 O9 1.887111 1_455
Ga3 O10 1.887112 1_555
Ga4 O4 1.873488 1_555
Ga4 O1 1.873488 1_555
Ga4 O13 1.887112 1_555
Ga4 O11 1.887112 1_555
