# generated using pymatgen
data_Sr4Fe3O10
_symmetry_space_group_name_H-M   'P 1'
_cell_length_a   10.97172808
_cell_length_b   7.71426375
_cell_length_c   8.95070472
_cell_angle_alpha   90.43208261
_cell_angle_beta   71.27598723
_cell_angle_gamma   46.64662134
_symmetry_Int_Tables_number   1
_chemical_formula_structural   Sr4Fe3O10
_chemical_formula_sum   'Sr8 Fe6 O20'
_cell_volume   492.30562519
_cell_formula_units_Z   2
loop_
 _symmetry_equiv_pos_site_id
 _symmetry_equiv_pos_as_xyz
  1  'x, y, z'
loop_
 _atom_site_type_symbol
 _atom_site_label
 _atom_site_symmetry_multiplicity
 _atom_site_fract_x
 _atom_site_fract_y
 _atom_site_fract_z
 _atom_site_occupancy
  Sr  Sr0  1  0.13590700  0.10826100  0.23317900  1
  Sr  Sr1  1  0.15600700  0.58545700  0.22177200  1
  Sr  Sr2  1  0.62152300  0.13266500  0.22280900  1
  Sr  Sr3  1  0.34399300  0.41454300  0.77822800  1
  Sr  Sr4  1  0.62967200  0.62689100  0.23404900  1
  Sr  Sr5  1  0.36409300  0.89173900  0.76682100  1
  Sr  Sr6  1  0.87032800  0.37310900  0.76595100  1
  Sr  Sr7  1  0.87847700  0.86733500  0.77719100  1
  Fe  Fe0  1  0.99448500  0.00670500  0.00957200  1
  Fe  Fe1  1  0.50551500  0.99329500  0.99042800  1
  Fe  Fe2  1  0.49902300  0.50226300  0.00060200  1
  Fe  Fe3  1  0.77420500  0.17477500  0.50063200  1
  Fe  Fe4  1  0.00097700  0.49773700  0.99939800  1
  Fe  Fe5  1  0.72579500  0.82522500  0.49936800  1
  O  O0  1  0.95953300  0.12527400  0.50075400  1
  O  O1  1  0.99594500  0.24644800  0.01084600  1
  O  O2  1  0.37829000  0.12646500  0.22418900  1
  O  O3  1  0.10377200  0.40241300  0.76671700  1
  O  O4  1  0.25274000  0.74652600  0.01357500  1
  O  O5  1  0.24726000  0.25347400  0.98642500  1
  O  O6  1  0.39622800  0.59758700  0.23328300  1
  O  O7  1  0.12171000  0.87353500  0.77581100  1
  O  O8  1  0.59735200  0.17643300  0.49962300  1
  O  O9  1  0.50405500  0.75355200  0.98915400  1
  O  O10  1  0.51534200  0.22605300  0.97098100  1
  O  O11  1  0.83331900  0.18178800  0.27122700  1
  O  O12  1  0.60401300  0.40849500  0.72433400  1
  O  O13  1  0.54046700  0.87472600  0.49924600  1
  O  O14  1  0.75513100  0.74357900  0.01707800  1
  O  O15  1  0.74486900  0.25642100  0.98292200  1
  O  O16  1  0.89598700  0.59150500  0.27566600  1
  O  O17  1  0.66668100  0.81821200  0.72877300  1
  O  O18  1  0.98465800  0.77394700  0.02901900  1
  O  O19  1  0.90264800  0.82356700  0.50037700  1
loop_
_geom_bond_atom_site_label_1
_geom_bond_atom_site_label_2
_geom_bond_distance
_geom_bond_site_symmetry_2
Fe0 O1 1.860455 1_555
Fe0 O7 1.872238 1_644
Fe0 O18 1.877343 1_545
Fe0 O4 2.077586 1_645
Fe0 O11 2.109585 1_555
Fe0 O15 2.109768 1_554
Fe1 O9 1.860455 1_555
Fe1 O2 1.872238 1_566
Fe1 O10 1.877343 1_565
Fe1 O5 2.077586 1_565
Fe1 O17 2.109585 1_555
Fe1 O14 2.109768 1_556
Fe2 O6 1.865579 1_555
Fe2 O15 1.896132 1_554
Fe2 O4 1.915758 1_555
Fe2 O9 1.979312 1_554
Fe2 O10 2.019820 1_554
Fe2 O12 2.228246 1_554
Fe3 O0 1.793252 1_555
Fe3 O12 1.915560 1_555
Fe3 O8 1.934557 1_555
Fe3 O11 1.958217 1_555
Fe3 O19 2.020394 1_545
Fe4 O3 1.865579 1_555
Fe4 O14 1.896132 1_456
Fe4 O5 1.915758 1_555
Fe4 O1 1.979312 1_456
Fe4 O18 2.019820 1_456
Fe4 O16 2.228246 1_456
Fe5 O13 1.793252 1_555
Fe5 O16 1.915560 1_555
Fe5 O19 1.934557 1_555
Fe5 O17 1.958217 1_555
Fe5 O8 2.020394 1_565
O0 Sr6 2.473550 1_555
O0 Sr0 2.483737 1_655
O1 Sr0 2.683499 1_655
O1 Sr4 2.705181 1_555
O1 Sr5 2.764778 1_644
O1 Sr6 2.789617 1_554
O2 Sr1 2.581521 1_555
O2 Sr2 2.697855 1_555
O2 Sr0 2.733849 1_555
O2 Sr4 2.834520 1_545
O3 Sr7 2.579943 1_455
O3 Sr6 2.723516 1_455
O3 Sr3 2.734736 1_555
O3 Sr5 2.868847 1_545
O4 Sr0 2.584982 1_565
O4 Sr1 2.592047 1_555
O4 Sr3 2.653807 1_554
O4 Sr5 2.794552 1_554
O5 Sr5 2.584982 1_545
O5 Sr3 2.592047 1_555
O5 Sr1 2.653807 1_556
O5 Sr0 2.794552 1_556
O6 Sr2 2.579943 1_555
O6 Sr4 2.723516 1_555
O6 Sr1 2.734736 1_555
O6 Sr0 2.868847 1_565
O7 Sr3 2.581521 1_555
O7 Sr7 2.697855 1_455
O7 Sr5 2.733849 1_555
O7 Sr6 2.834520 1_465
O8 Sr2 2.401212 1_555
O8 Sr3 2.406180 1_555
O9 Sr5 2.683499 1_555
O9 Sr6 2.705181 1_555
O9 Sr0 2.764778 1_566
O9 Sr4 2.789617 1_556
O10 Sr7 2.625522 1_545
O10 Sr3 2.644283 1_555
O10 Sr1 2.736010 1_556
O10 Sr2 2.741342 1_556
O11 Sr4 2.618015 1_555
O11 Sr2 2.753984 1_555
O11 Sr0 2.853994 1_655
O12 Sr5 2.614111 1_555
O12 Sr3 2.703166 1_555
O12 Sr6 2.890706 1_555
O13 Sr4 2.473550 1_555
O13 Sr5 2.483737 1_555
O14 Sr4 2.547140 1_555
O14 Sr2 2.586764 1_565
O14 Sr7 2.700449 1_554
O14 Sr6 2.817311 1_554
O15 Sr6 2.547140 1_555
O15 Sr7 2.586764 1_545
O15 Sr2 2.700449 1_556
O15 Sr4 2.817311 1_556
O16 Sr0 2.614111 1_655
O16 Sr1 2.703166 1_655
O16 Sr4 2.890706 1_555
O17 Sr6 2.618015 1_555
O17 Sr7 2.753984 1_555
O17 Sr5 2.853994 1_555
O18 Sr2 2.625522 1_565
O18 Sr1 2.644283 1_655
O18 Sr3 2.736010 1_654
O18 Sr7 2.741342 1_554
O19 Sr7 2.401212 1_555
O19 Sr1 2.406180 1_655
