# generated using pymatgen
data_LiC2N3
_symmetry_space_group_name_H-M   'P 1'
_cell_length_a   5.31646400
_cell_length_b   5.36964200
_cell_length_c   11.94359350
_cell_angle_alpha   78.65514191
_cell_angle_beta   90.00000000
_cell_angle_gamma   90.00000000
_symmetry_Int_Tables_number   1
_chemical_formula_structural   LiC2N3
_chemical_formula_sum   'Li4 C8 N12'
_cell_volume   334.29780348
_cell_formula_units_Z   4
loop_
 _symmetry_equiv_pos_site_id
 _symmetry_equiv_pos_as_xyz
  1  'x, y, z'
loop_
 _atom_site_type_symbol
 _atom_site_label
 _atom_site_symmetry_multiplicity
 _atom_site_fract_x
 _atom_site_fract_y
 _atom_site_fract_z
 _atom_site_occupancy
  Li  Li0  1  0.50000000  0.00000000  0.00000000  1
  Li  Li1  1  0.50000000  0.00000000  0.50000000  1
  Li  Li2  1  0.41334500  0.00000000  0.25000000  1
  Li  Li3  1  0.58665500  0.00000000  0.75000000  1
  C  C0  1  0.29795800  0.45565900  0.60968400  1
  C  C1  1  0.29795800  0.54434100  0.89031600  1
  C  C2  1  0.70204200  0.54434100  0.39031600  1
  C  C3  1  0.70204200  0.45565900  0.10968400  1
  C  C4  1  0.00300000  0.75897300  0.11675100  1
  C  C5  1  0.00300000  0.24102700  0.38324900  1
  C  C6  1  0.99700000  0.24102700  0.88324900  1
  C  C7  1  0.99700000  0.75897300  0.61675100  1
  N  N0  1  0.61127400  0.74894800  0.37581000  1
  N  N1  1  0.61127400  0.25105200  0.12419000  1
  N  N2  1  0.38872600  0.25105200  0.62419000  1
  N  N3  1  0.38872600  0.74894800  0.87581000  1
  N  N4  1  0.21921900  0.68919200  0.58942300  1
  N  N5  1  0.21921900  0.31080800  0.91057700  1
  N  N6  1  0.78078100  0.31080800  0.41057700  1
  N  N7  1  0.78078100  0.68919200  0.08942300  1
  N  N8  1  0.19897900  0.84298500  0.13744000  1
  N  N9  1  0.19897900  0.15701500  0.36256000  1
  N  N10  1  0.80102100  0.15701500  0.86256000  1
  N  N11  1  0.80102100  0.84298500  0.63744000  1
loop_
_geom_bond_atom_site_label_1
_geom_bond_atom_site_label_2
_geom_bond_distance
_geom_bond_site_symmetry_2
Li0 N1 2.270246 1_555
Li0 N3 2.270246 1_544
Li0 N10 2.328546 1_554
Li0 N8 2.328546 1_545
Li0 N5 2.335183 1_554
Li0 N7 2.335183 1_545
Li1 N2 2.270246 1_555
Li1 N0 2.270246 1_545
Li1 N11 2.328546 1_545
Li1 N9 2.328546 1_555
Li1 N6 2.335183 1_555
Li1 N4 2.335183 1_545
Li2 N8 2.064692 1_545
Li2 N9 2.064692 1_555
Li2 N0 2.094159 1_545
Li2 N1 2.094159 1_555
Li3 N10 2.064692 1_555
Li3 N11 2.064692 1_545
Li3 N2 2.094159 1_555
Li3 N3 2.094159 1_545
C0 N2 1.181129 1_555
C0 N4 1.298806 1_555
C1 N3 1.181129 1_555
C1 N5 1.298806 1_555
C2 N0 1.181129 1_555
C2 N6 1.298806 1_555
C3 N1 1.181129 1_555
C3 N7 1.298806 1_555
C4 N8 1.180680 1_555
C4 N7 1.300308 1_455
C5 N9 1.180680 1_555
C5 N6 1.300308 1_455
C6 N10 1.180680 1_555
C6 N5 1.300308 1_655
C7 N11 1.180680 1_555
C7 N4 1.300308 1_655
