# generated using pymatgen
data_LaMg7
_symmetry_space_group_name_H-M   'P 1'
_cell_length_a   6.75588249
_cell_length_b   6.75588249
_cell_length_c   5.21845000
_cell_angle_alpha   90.00000000
_cell_angle_beta   90.00000000
_cell_angle_gamma   120.00000477
_symmetry_Int_Tables_number   1
_chemical_formula_structural   LaMg7
_chemical_formula_sum   'La1 Mg7'
_cell_volume   206.27011518
_cell_formula_units_Z   1
loop_
 _symmetry_equiv_pos_site_id
 _symmetry_equiv_pos_as_xyz
  1  'x, y, z'
loop_
 _atom_site_type_symbol
 _atom_site_label
 _atom_site_symmetry_multiplicity
 _atom_site_fract_x
 _atom_site_fract_y
 _atom_site_fract_z
 _atom_site_occupancy
  La  La0  1  0.66666700  0.33333300  0.50000000  1
  Mg  Mg0  1  0.16239700  0.32479500  0.50000000  1
  Mg  Mg1  1  0.67520500  0.83760300  0.50000000  1
  Mg  Mg2  1  0.16239700  0.83760300  0.50000000  1
  Mg  Mg3  1  0.83893500  0.16106500  0.00000000  1
  Mg  Mg4  1  0.32213100  0.16106500  0.00000000  1
  Mg  Mg5  1  0.83893500  0.67786900  0.00000000  1
  Mg  Mg6  1  0.33333300  0.66666700  0.00000000  1
loop_
_geom_bond_atom_site_label_1
_geom_bond_atom_site_label_2
_geom_bond_distance
_geom_bond_site_symmetry_2
La0 Mg5 3.297196 1_556
La0 Mg5 3.297196 1_555
La0 Mg4 3.297196 1_556
La0 Mg4 3.297196 1_555
La0 Mg3 3.297196 1_555
La0 Mg3 3.297196 1_556
La0 Mg0 3.378304 1_655
La0 Mg1 3.378304 1_545
La0 Mg2 3.378311 1_655
La0 Mg2 3.378311 1_545
La0 Mg1 3.378317 1_555
La0 Mg0 3.378317 1_555
Mg0 Mg3 3.223320 1_456
Mg0 Mg3 3.223320 1_455
Mg0 Mg4 3.223327 1_556
Mg0 Mg4 3.223327 1_555
Mg0 Mg6 3.287690 1_555
Mg0 Mg6 3.287690 1_556
Mg0 Mg1 3.291412 1_445
Mg0 Mg2 3.291412 1_545
Mg0 Mg1 3.464470 1_555
Mg0 Mg2 3.464471 1_555
Mg1 Mg3 3.223320 1_566
Mg1 Mg3 3.223320 1_565
Mg1 Mg5 3.223327 1_556
Mg1 Mg5 3.223327 1_555
Mg1 Mg6 3.287690 1_555
Mg1 Mg6 3.287690 1_556
Mg1 Mg2 3.291412 1_655
Mg1 Mg2 3.464471 1_555
Mg2 Mg4 3.223320 1_566
Mg2 Mg4 3.223320 1_565
Mg2 Mg5 3.223320 1_456
Mg2 Mg5 3.223320 1_455
Mg2 Mg6 3.287690 1_555
Mg2 Mg6 3.287690 1_556
Mg3 Mg4 3.264415 1_655
Mg3 Mg5 3.264415 1_545
Mg3 Mg6 3.378577 1_545
Mg3 Mg6 3.378577 1_655
Mg3 Mg5 3.491467 1_555
Mg3 Mg4 3.491467 1_555
Mg4 Mg5 3.264415 1_445
Mg4 Mg6 3.378570 1_545
Mg4 Mg6 3.378584 1_555
Mg4 Mg5 3.491467 1_555
Mg5 Mg6 3.378570 1_655
Mg5 Mg6 3.378584 1_555
