# generated using pymatgen
data_Tb7FeI12
_symmetry_space_group_name_H-M   'P 1'
_cell_length_a   9.71432853
_cell_length_b   9.71432853
_cell_length_c   9.71432847
_cell_angle_alpha   106.89174563
_cell_angle_beta   106.89174563
_cell_angle_gamma   106.89173774
_symmetry_Int_Tables_number   1
_chemical_formula_structural   Tb7FeI12
_chemical_formula_sum   'Tb7 Fe1 I12'
_cell_volume   765.69948873
_cell_formula_units_Z   1
loop_
 _symmetry_equiv_pos_site_id
 _symmetry_equiv_pos_as_xyz
  1  'x, y, z'
loop_
 _atom_site_type_symbol
 _atom_site_label
 _atom_site_symmetry_multiplicity
 _atom_site_fract_x
 _atom_site_fract_y
 _atom_site_fract_z
 _atom_site_occupancy
  Tb  Tb0  1  0.50000000  0.50000000  0.50000000  1
  Tb  Tb1  1  0.09288200  0.29056700  0.02370200  1
  Tb  Tb2  1  0.02370200  0.09288200  0.29056700  1
  Tb  Tb3  1  0.29056700  0.02370200  0.09288200  1
  Tb  Tb4  1  0.90711800  0.70943300  0.97629800  1
  Tb  Tb5  1  0.97629800  0.90711800  0.70943300  1
  Tb  Tb6  1  0.70943300  0.97629800  0.90711800  1
  Fe  Fe0  1  0.00000000  0.00000000  0.00000000  1
  I  I0  1  0.46659900  0.38869400  0.15987500  1
  I  I1  1  0.15987500  0.46659900  0.38869400  1
  I  I2  1  0.38869400  0.15987500  0.46659900  1
  I  I3  1  0.53340100  0.61130600  0.84012500  1
  I  I4  1  0.84012500  0.53340100  0.61130600  1
  I  I5  1  0.61130600  0.84012500  0.53340100  1
  I  I6  1  0.77332500  0.32007300  0.92725700  1
  I  I7  1  0.92725700  0.77332500  0.32007300  1
  I  I8  1  0.32007300  0.92725700  0.77332500  1
  I  I9  1  0.22667500  0.67992700  0.07274300  1
  I  I10  1  0.07274300  0.22667500  0.67992700  1
  I  I11  1  0.67992700  0.07274300  0.22667500  1
loop_
_geom_bond_atom_site_label_1
_geom_bond_atom_site_label_2
_geom_bond_distance
_geom_bond_site_symmetry_2
Fe0 Tb5 2.618416 1_444
Fe0 Tb2 2.618416 1_555
Fe0 Tb3 2.618416 1_555
Fe0 Tb6 2.618416 1_444
Fe0 Tb1 2.618416 1_555
Fe0 Tb4 2.618416 1_444
I0 Tb0 3.047683 1_555
I0 Tb1 3.209942 1_555
I0 Tb3 3.226180 1_555
I1 Tb0 3.047683 1_555
I1 Tb2 3.209942 1_555
I1 Tb1 3.226180 1_555
I2 Tb0 3.047683 1_555
I2 Tb3 3.209942 1_555
I2 Tb2 3.226180 1_555
I3 Tb0 3.047683 1_555
I3 Tb4 3.209942 1_555
I3 Tb6 3.226180 1_555
I4 Tb0 3.047683 1_555
I4 Tb5 3.209942 1_555
I4 Tb4 3.226180 1_555
I5 Tb0 3.047683 1_555
I5 Tb6 3.209942 1_555
I5 Tb5 3.226180 1_555
I6 Tb1 3.095074 1_656
I6 Tb6 3.149807 1_545
I6 Tb4 3.458141 1_555
I7 Tb2 3.095074 1_665
I7 Tb4 3.149807 1_554
I7 Tb5 3.458141 1_555
I8 Tb3 3.095074 1_566
I8 Tb5 3.149807 1_455
I8 Tb6 3.458141 1_555
I9 Tb4 3.095074 1_454
I9 Tb3 3.149807 1_565
I9 Tb1 3.458141 1_555
I10 Tb5 3.095074 1_445
I10 Tb1 3.149807 1_556
I10 Tb2 3.458141 1_555
I11 Tb6 3.095074 1_544
I11 Tb2 3.149807 1_655
I11 Tb3 3.458141 1_555
