# generated using pymatgen
data_Co2TeSO8
_symmetry_space_group_name_H-M   'P 1'
_cell_length_a   7.30338400
_cell_length_b   8.45607000
_cell_length_c   10.13901900
_cell_angle_alpha   90.00000000
_cell_angle_beta   90.00000000
_cell_angle_gamma   90.00000000
_symmetry_Int_Tables_number   1
_chemical_formula_structural   Co2TeSO8
_chemical_formula_sum   'Co8 Te4 S4 O32'
_cell_volume   626.16478857
_cell_formula_units_Z   4
loop_
 _symmetry_equiv_pos_site_id
 _symmetry_equiv_pos_as_xyz
  1  'x, y, z'
loop_
 _atom_site_type_symbol
 _atom_site_label
 _atom_site_symmetry_multiplicity
 _atom_site_fract_x
 _atom_site_fract_y
 _atom_site_fract_z
 _atom_site_occupancy
  Co  Co0  1  0.68648600  0.04918700  0.91840400  1
  Co  Co1  1  0.31351400  0.54918700  0.08159600  1
  Co  Co2  1  0.68648600  0.95081300  0.58159600  1
  Co  Co3  1  0.31351400  0.45081300  0.41840400  1
  Co  Co4  1  0.31351400  0.95081300  0.08159600  1
  Co  Co5  1  0.68648600  0.45081300  0.91840400  1
  Co  Co6  1  0.31351400  0.04918700  0.41840400  1
  Co  Co7  1  0.68648600  0.54918700  0.58159600  1
  Te  Te0  1  0.62928000  0.25000000  0.21394700  1
  Te  Te1  1  0.37072000  0.75000000  0.78605300  1
  Te  Te2  1  0.62928000  0.75000000  0.28605300  1
  Te  Te3  1  0.37072000  0.25000000  0.71394700  1
  S  S0  1  0.05632500  0.25000000  0.03015700  1
  S  S1  1  0.94367500  0.75000000  0.96984300  1
  S  S2  1  0.05632500  0.75000000  0.46984300  1
  S  S3  1  0.94367500  0.25000000  0.53015700  1
  O  O0  1  0.43629300  0.25000000  0.33948000  1
  O  O1  1  0.56370700  0.75000000  0.66052000  1
  O  O2  1  0.43629300  0.75000000  0.16052000  1
  O  O3  1  0.56370700  0.25000000  0.83948000  1
  O  O4  1  0.03513300  0.25000000  0.17236000  1
  O  O5  1  0.96486700  0.75000000  0.82764000  1
  O  O6  1  0.03513300  0.75000000  0.32764000  1
  O  O7  1  0.96486700  0.25000000  0.67236000  1
  O  O8  1  0.86542000  0.25000000  0.96648700  1
  O  O9  1  0.13458000  0.75000000  0.03351300  1
  O  O10  1  0.86542000  0.75000000  0.53351300  1
  O  O11  1  0.13458000  0.25000000  0.46648700  1
  O  O12  1  0.75702700  0.00000000  0.75000000  1
  O  O13  1  0.24297300  0.50000000  0.25000000  1
  O  O14  1  0.24297300  0.00000000  0.25000000  1
  O  O15  1  0.75702700  0.50000000  0.75000000  1
  O  O16  1  0.55058700  0.41808500  0.10027000  1
  O  O17  1  0.44941300  0.91808500  0.89973000  1
  O  O18  1  0.55058700  0.58191500  0.39973000  1
  O  O19  1  0.44941300  0.08191500  0.60027000  1
  O  O20  1  0.44941300  0.58191500  0.89973000  1
  O  O21  1  0.55058700  0.08191500  0.10027000  1
  O  O22  1  0.44941300  0.41808500  0.60027000  1
  O  O23  1  0.55058700  0.91808500  0.39973000  1
  O  O24  1  0.84501800  0.89301500  0.02142400  1
  O  O25  1  0.15498200  0.39301500  0.97857600  1
  O  O26  1  0.84501800  0.10698500  0.47857600  1
  O  O27  1  0.15498200  0.60698500  0.52142400  1
  O  O28  1  0.15498200  0.10698500  0.97857600  1
  O  O29  1  0.84501800  0.60698500  0.02142400  1
  O  O30  1  0.15498200  0.89301500  0.52142400  1
  O  O31  1  0.84501800  0.39301500  0.47857600  1
loop_
_geom_bond_atom_site_label_1
_geom_bond_atom_site_label_2
_geom_bond_distance
_geom_bond_site_symmetry_2
Co0 O12 1.831340 1_555
Co0 O24 2.043419 1_546
Co0 O17 2.064637 1_545
Co0 O3 2.080365 1_555
Co0 O21 2.112301 1_556
Co0 O8 2.197490 1_555
Co1 O13 1.831340 1_555
Co1 O25 2.043419 1_554
Co1 O16 2.064637 1_555
Co1 O2 2.080365 1_555
Co1 O20 2.112301 1_554
Co1 O9 2.197490 1_555
Co2 O12 1.831340 1_565
Co2 O26 2.043419 1_565
Co2 O19 2.064637 1_565
Co2 O1 2.080365 1_555
Co2 O23 2.112301 1_555
Co2 O10 2.197490 1_555
Co3 O13 1.831340 1_555
Co3 O27 2.043419 1_555
Co3 O18 2.064637 1_555
Co3 O0 2.080365 1_555
Co3 O22 2.112301 1_555
Co3 O11 2.197490 1_555
Co4 O14 1.831340 1_565
Co4 O28 2.043419 1_564
Co4 O21 2.064637 1_565
Co4 O2 2.080365 1_555
Co4 O17 2.112301 1_554
Co4 O9 2.197490 1_555
Co5 O15 1.831340 1_555
Co5 O29 2.043419 1_556
Co5 O20 2.064637 1_555
Co5 O3 2.080365 1_555
Co5 O16 2.112301 1_556
Co5 O8 2.197490 1_555
Co6 O14 1.831340 1_555
Co6 O30 2.043419 1_545
Co6 O23 2.064637 1_545
Co6 O0 2.080365 1_555
Co6 O19 2.112301 1_555
Co6 O11 2.197490 1_555
Co7 O15 1.831340 1_555
Co7 O31 2.043419 1_555
Co7 O22 2.064637 1_555
Co7 O1 2.080365 1_555
Co7 O18 2.112301 1_555
Co7 O10 2.197490 1_555
O0 Te0 1.899091 1_555
O1 Te1 1.899091 1_555
O2 Te2 1.899091 1_555
O3 Te3 1.899091 1_555
O4 S0 1.450082 1_555
O5 S1 1.450082 1_555
O6 S2 1.450082 1_555
O7 S3 1.450082 1_555
O8 S0 1.536449 1_656
O9 S1 1.536449 1_454
O10 S2 1.536449 1_655
O11 S3 1.536449 1_455
O16 Te0 1.918056 1_555
O17 Te1 1.918056 1_555
O18 Te2 1.918056 1_555
O19 Te3 1.918056 1_555
O20 Te1 1.918056 1_555
O21 Te0 1.918056 1_555
O22 Te3 1.918056 1_555
O23 Te2 1.918056 1_555
O24 S1 1.501728 1_554
O25 S0 1.501728 1_556
O26 S3 1.501728 1_555
O27 S2 1.501728 1_555
O28 S0 1.501728 1_556
O29 S1 1.501728 1_554
O30 S2 1.501728 1_555
O31 S3 1.501728 1_555
