# generated using pymatgen
data_Ba16Ca2HC12N25O4
_symmetry_space_group_name_H-M   'P 1'
_cell_length_a   13.72129073
_cell_length_b   13.72129073
_cell_length_c   13.72129040
_cell_angle_alpha   43.23679199
_cell_angle_beta   43.23679199
_cell_angle_gamma   43.23679301
_symmetry_Int_Tables_number   1
_chemical_formula_structural   Ba16Ca2HC12N25O4
_chemical_formula_sum   'Ba16 Ca2 H1 C12 N25 O4'
_cell_volume   1099.29988350
_cell_formula_units_Z   1
loop_
 _symmetry_equiv_pos_site_id
 _symmetry_equiv_pos_as_xyz
  1  'x, y, z'
loop_
 _atom_site_type_symbol
 _atom_site_label
 _atom_site_symmetry_multiplicity
 _atom_site_fract_x
 _atom_site_fract_y
 _atom_site_fract_z
 _atom_site_occupancy
  Ba  Ba0  1  0.84951000  0.84951000  0.84951000  1
  Ba  Ba1  1  0.35127000  0.35127000  0.35127000  1
  Ba  Ba2  1  0.64873000  0.64873000  0.64873000  1
  Ba  Ba3  1  0.15049000  0.15049000  0.15049000  1
  Ba  Ba4  1  0.99983200  0.13946600  0.72605200  1
  Ba  Ba5  1  0.49744400  0.64924400  0.20615500  1
  Ba  Ba6  1  0.72605200  0.99983200  0.13946600  1
  Ba  Ba7  1  0.20615500  0.49744400  0.64924400  1
  Ba  Ba8  1  0.13946600  0.72605200  0.99983200  1
  Ba  Ba9  1  0.64924400  0.20615500  0.49744400  1
  Ba  Ba10  1  0.50255600  0.35075600  0.79384500  1
  Ba  Ba11  1  0.00016800  0.86053400  0.27394800  1
  Ba  Ba12  1  0.79384500  0.50255600  0.35075600  1
  Ba  Ba13  1  0.27394800  0.00016800  0.86053400  1
  Ba  Ba14  1  0.35075600  0.79384500  0.50255600  1
  Ba  Ba15  1  0.86053400  0.27394800  0.00016800  1
  Ca  Ca0  1  0.74953400  0.74953400  0.74953400  1
  Ca  Ca1  1  0.25046600  0.25046600  0.25046600  1
  H  H0  1  0.50000000  0.50000000  0.50000000  1
  C  C0  1  0.85267500  0.47031900  0.06692800  1
  C  C1  1  0.35759200  0.96869100  0.56137300  1
  C  C2  1  0.06692800  0.85267500  0.47031900  1
  C  C3  1  0.56137300  0.35759200  0.96869100  1
  C  C4  1  0.47031900  0.06692800  0.85267500  1
  C  C5  1  0.96869100  0.56137300  0.35759200  1
  C  C6  1  0.64240800  0.03130900  0.43862700  1
  C  C7  1  0.14732500  0.52968100  0.93307200  1
  C  C8  1  0.43862700  0.64240800  0.03130900  1
  C  C9  1  0.93307200  0.14732500  0.52968100  1
  C  C10  1  0.03130900  0.43862700  0.64240800  1
  C  C11  1  0.52968100  0.93307200  0.14732500  1
  N  N0  1  0.55430100  0.92503900  0.88438700  1
  N  N1  1  0.05808400  0.42156400  0.38184200  1
  N  N2  1  0.88438700  0.55430100  0.92503900  1
  N  N3  1  0.38184200  0.05808400  0.42156400  1
  N  N4  1  0.92503900  0.88438700  0.55430100  1
  N  N5  1  0.42156400  0.38184200  0.05808400  1
  N  N6  1  0.94191600  0.57843600  0.61815800  1
  N  N7  1  0.44569900  0.07496100  0.11561300  1
  N  N8  1  0.61815800  0.94191600  0.57843600  1
  N  N9  1  0.11561300  0.44569900  0.07496100  1
  N  N10  1  0.57843600  0.61815800  0.94191600  1
  N  N11  1  0.07496100  0.11561300  0.44569900  1
  N  N12  1  0.70243400  0.32914200  0.87765900  1
  N  N13  1  0.21066800  0.81512300  0.38856800  1
  N  N14  1  0.87765900  0.70243400  0.32914200  1
  N  N15  1  0.38856800  0.21066800  0.81512300  1
  N  N16  1  0.32914200  0.87765900  0.70243400  1
  N  N17  1  0.81512300  0.38856800  0.21066800  1
  N  N18  1  0.78933200  0.18487700  0.61143200  1
  N  N19  1  0.29756600  0.67085800  0.12234100  1
  N  N20  1  0.61143200  0.78933200  0.18487700  1
  N  N21  1  0.12234100  0.29756600  0.67085800  1
  N  N22  1  0.18487700  0.61143200  0.78933200  1
  N  N23  1  0.67085800  0.12234100  0.29756600  1
  N  N24  1  0.00000000  0.00000000  0.00000000  1
  O  O0  1  0.91506500  0.91506500  0.91506500  1
  O  O1  1  0.41931700  0.41931700  0.41931700  1
  O  O2  1  0.58068300  0.58068300  0.58068300  1
  O  O3  1  0.08493500  0.08493500  0.08493500  1
loop_
_geom_bond_atom_site_label_1
_geom_bond_atom_site_label_2
_geom_bond_distance
_geom_bond_site_symmetry_2
Ba0 O0 2.442132 1_555
Ba1 O1 2.534967 1_555
Ba1 N21 2.869436 1_555
Ba1 N19 2.869436 1_555
Ba1 N23 2.869436 1_555
Ba1 N5 3.125213 1_555
Ba1 N3 3.125213 1_555
Ba1 N1 3.125213 1_555
Ba2 O2 2.534967 1_555
Ba2 N14 2.869436 1_555
Ba2 N12 2.869436 1_555
Ba2 N16 2.869436 1_555
Ba2 N10 3.125213 1_555
Ba2 N8 3.125213 1_555
Ba2 N6 3.125213 1_555
Ba3 O3 2.442132 1_555
Ba4 O0 2.597541 1_545
Ba4 N24 2.704948 1_656
Ba4 N12 2.792540 1_555
Ba4 N21 3.028177 1_655
Ba4 N16 3.055927 1_645
Ba4 C1 3.080054 1_645
Ba4 N1 3.209126 1_655
Ba4 C9 3.337653 1_555
Ba4 N11 3.395964 1_655
Ba5 O1 2.563491 1_555
Ba5 N13 2.798122 1_555
Ba5 H0 2.919284 1_555
Ba5 N20 3.020563 1_555
Ba5 N17 3.025110 1_555
Ba5 C0 3.043884 1_555
Ba5 N0 3.059553 1_554
Ba5 C8 3.110497 1_555
Ba5 N10 3.202252 1_554
Ba6 O0 2.597541 1_554
Ba6 N24 2.704948 1_665
Ba6 N14 2.792540 1_555
Ba6 N23 3.028177 1_565
Ba6 N12 3.055926 1_564
Ba6 C3 3.080054 1_564
Ba6 N3 3.209127 1_565
Ba6 C11 3.337653 1_555
Ba6 N7 3.395964 1_565
Ba7 O1 2.563491 1_555
Ba7 N15 2.798122 1_555
Ba7 H0 2.919284 1_555
Ba7 N22 3.020563 1_555
Ba7 N13 3.025110 1_555
Ba7 C2 3.043884 1_555
Ba7 N2 3.059553 1_455
Ba7 C10 3.110497 1_555
Ba7 N6 3.202252 1_455
Ba8 O0 2.597541 1_455
Ba8 N24 2.704948 1_566
Ba8 N16 2.792540 1_555
Ba8 N19 3.028177 1_556
Ba8 N14 3.055926 1_456
Ba8 C5 3.080054 1_456
Ba8 N5 3.209127 1_556
Ba8 C7 3.337653 1_555
Ba8 N9 3.395964 1_556
Ba9 O1 2.563491 1_555
Ba9 N17 2.798122 1_555
Ba9 H0 2.919284 1_555
Ba9 N18 3.020563 1_555
Ba9 N15 3.025110 1_555
Ba9 C4 3.043884 1_555
Ba9 N4 3.059553 1_545
Ba9 C6 3.110497 1_555
Ba9 N8 3.202252 1_545
Ba10 O2 2.563491 1_555
Ba10 N18 2.798122 1_555
Ba10 H0 2.919284 1_555
Ba10 N15 3.020563 1_555
Ba10 N22 3.025110 1_555
Ba10 C7 3.043884 1_555
Ba10 N7 3.059553 1_556
Ba10 C3 3.110497 1_555
Ba10 N5 3.202252 1_556
Ba11 O3 2.597541 1_565
Ba11 N24 2.704948 1_565
Ba11 N19 2.792540 1_555
Ba11 N14 3.028177 1_455
Ba11 N23 3.055927 1_465
Ba11 C6 3.080054 1_465
Ba11 N6 3.209126 1_455
Ba11 C2 3.337653 1_555
Ba11 N4 3.395964 1_455
Ba12 O2 2.563491 1_555
Ba12 N20 2.798122 1_555
Ba12 H0 2.919284 1_555
Ba12 N17 3.020563 1_555
Ba12 N18 3.025110 1_555
Ba12 C9 3.043884 1_555
Ba12 N9 3.059553 1_655
Ba12 C5 3.110497 1_555
Ba12 N1 3.202252 1_655
Ba13 O3 2.597541 1_556
Ba13 N24 2.704948 1_556
Ba13 N21 2.792540 1_555
Ba13 N16 3.028177 1_545
Ba13 N19 3.055926 1_546
Ba13 C8 3.080054 1_546
Ba13 N8 3.209127 1_545
Ba13 C4 3.337653 1_555
Ba13 N0 3.395964 1_545
Ba14 O2 2.563491 1_555
Ba14 N22 2.798122 1_555
Ba14 H0 2.919284 1_555
Ba14 N13 3.020563 1_555
Ba14 N20 3.025110 1_555
Ba14 C11 3.043884 1_555
Ba14 N11 3.059553 1_565
Ba14 C1 3.110497 1_555
Ba14 N3 3.202252 1_565
Ba15 O3 2.597541 1_655
Ba15 N24 2.704948 1_655
Ba15 N23 2.792540 1_555
Ba15 N12 3.028177 1_554
Ba15 N21 3.055926 1_654
Ba15 C10 3.080054 1_654
Ba15 N10 3.209127 1_554
Ba15 C0 3.337653 1_555
Ba15 N2 3.395964 1_554
Ca0 N8 2.435674 1_555
Ca0 N10 2.435674 1_555
Ca0 N6 2.435674 1_555
Ca0 N2 2.503967 1_555
Ca0 N4 2.503967 1_555
Ca0 N0 2.503967 1_555
Ca1 N3 2.435674 1_555
Ca1 N5 2.435674 1_555
Ca1 N1 2.435674 1_555
Ca1 N9 2.503967 1_555
Ca1 N11 2.503967 1_555
Ca1 N7 2.503967 1_555
C0 N2 1.238948 1_554
C0 N17 1.245625 1_555
C1 N3 1.237514 1_565
C1 N16 1.243303 1_555
C2 N4 1.238948 1_455
C2 N13 1.245625 1_555
C3 N5 1.237514 1_556
C3 N12 1.243303 1_555
C4 N0 1.238948 1_545
C4 N15 1.245625 1_555
C5 N1 1.237514 1_655
C5 N14 1.243303 1_555
C6 N8 1.237514 1_545
C6 N23 1.243303 1_555
C7 N9 1.238948 1_556
C7 N22 1.245625 1_555
C8 N10 1.237514 1_554
C8 N19 1.243303 1_555
C9 N11 1.238948 1_655
C9 N18 1.245625 1_555
C10 N6 1.237514 1_455
C10 N21 1.243303 1_555
C11 N7 1.238948 1_565
C11 N20 1.245625 1_555
