# generated using pymatgen
data_NiP
_symmetry_space_group_name_H-M   'P 1'
_cell_length_a   4.89552493
_cell_length_b   5.91757852
_cell_length_c   16.98935825
_cell_angle_alpha   90.00000000
_cell_angle_beta   90.00000000
_cell_angle_gamma   89.99998074
_symmetry_Int_Tables_number   1
_chemical_formula_structural   NiP
_chemical_formula_sum   'Ni20 P20'
_cell_volume   492.17581608
_cell_formula_units_Z   20
loop_
 _symmetry_equiv_pos_site_id
 _symmetry_equiv_pos_as_xyz
  1  'x, y, z'
loop_
 _atom_site_type_symbol
 _atom_site_label
 _atom_site_symmetry_multiplicity
 _atom_site_fract_x
 _atom_site_fract_y
 _atom_site_fract_z
 _atom_site_occupancy
  Ni  Ni0  1  0.52843513  0.19535774  0.33726634  1
  Ni  Ni1  1  0.02843494  0.30464111  0.16273352  1
  Ni  Ni2  1  0.47151056  0.80462239  0.83723786  1
  Ni  Ni3  1  0.97150964  0.69537765  0.66276213  1
  Ni  Ni4  1  0.47151056  0.80462239  0.66276214  1
  Ni  Ni5  1  0.97150964  0.69537765  0.83723787  1
  Ni  Ni6  1  0.52843513  0.19535774  0.16273366  1
  Ni  Ni7  1  0.02843494  0.30464111  0.33726648  1
  Ni  Ni8  1  0.99933569  0.30064910  0.75000000  1
  Ni  Ni9  1  0.49933652  0.19935047  0.75000000  1
  Ni  Ni10  1  0.00065933  0.69939481  0.25000000  1
  Ni  Ni11  1  0.50065855  0.80060604  0.25000000  1
  Ni  Ni12  1  0.98356179  0.19324742  0.95920620  1
  Ni  Ni13  1  0.48356185  0.30675316  0.54079372  1
  Ni  Ni14  1  0.01650016  0.80671279  0.45922535  1
  Ni  Ni15  1  0.51650032  0.69328701  0.04077446  1
  Ni  Ni16  1  0.01650016  0.80671279  0.04077465  1
  Ni  Ni17  1  0.51650032  0.69328701  0.45922554  1
  Ni  Ni18  1  0.98356179  0.19324742  0.54079380  1
  Ni  Ni19  1  0.48356185  0.30675316  0.95920628  1
  P  P0  1  0.82722146  0.55745591  0.95443245  1
  P  P1  1  0.32722173  0.94254427  0.54556751  1
  P  P2  1  0.17281059  0.44256172  0.45443392  1
  P  P3  1  0.67281040  0.05743824  0.04556603  1
  P  P4  1  0.17281059  0.44256172  0.04556608  1
  P  P5  1  0.67281040  0.05743824  0.45443397  1
  P  P6  1  0.82722146  0.55745591  0.54556755  1
  P  P7  1  0.32722173  0.94254427  0.95443249  1
  P  P8  1  0.80305552  0.06378155  0.84597794  1
  P  P9  1  0.30305580  0.43621842  0.65402198  1
  P  P10  1  0.19696462  0.93620649  0.34597695  1
  P  P11  1  0.69696468  0.56379337  0.15402298  1
  P  P12  1  0.19696462  0.93620649  0.15402305  1
  P  P13  1  0.69696468  0.56379337  0.34597702  1
  P  P14  1  0.80305552  0.06378155  0.65402206  1
  P  P15  1  0.30305580  0.43621842  0.84597802  1
  P  P16  1  0.83915631  0.06259403  0.25000000  1
  P  P17  1  0.33915689  0.43740648  0.25000000  1
  P  P18  1  0.16072937  0.93740517  0.75000000  1
  P  P19  1  0.66072898  0.56259540  0.75000000  1
loop_
_geom_bond_atom_site_label_1
_geom_bond_atom_site_label_2
_geom_bond_distance
_geom_bond_site_symmetry_2
Ni0 P10 2.237610 1_545
Ni0 P17 2.260160 1_555
Ni0 P5 2.264543 1_555
Ni0 P16 2.264775 1_555
Ni0 P13 2.335823 1_555
Ni1 P11 2.237612 1_455
Ni1 P16 2.260156 1_455
Ni1 P4 2.264543 1_555
Ni1 P17 2.264783 1_555
Ni1 P12 2.335817 1_545
Ni2 P8 2.237940 1_565
Ni2 P19 2.259641 1_555
Ni2 P18 2.264695 1_555
Ni2 P7 2.264819 1_555
Ni2 P15 2.335551 1_555
Ni3 P9 2.237943 1_655
Ni3 P18 2.259646 1_655
Ni3 P19 2.264692 1_555
Ni3 P6 2.264817 1_555
Ni3 P14 2.335549 1_565
Ni4 P14 2.237940 1_565
Ni4 P19 2.259641 1_555
Ni4 P18 2.264695 1_555
Ni4 P1 2.264819 1_555
Ni4 P9 2.335551 1_555
Ni5 P15 2.237943 1_655
Ni5 P18 2.259646 1_655
Ni5 P19 2.264692 1_555
Ni5 P0 2.264817 1_555
Ni5 P8 2.335549 1_565
Ni6 P12 2.237610 1_545
Ni6 P17 2.260160 1_555
Ni6 P3 2.264543 1_555
Ni6 P16 2.264775 1_555
Ni6 P11 2.335823 1_555
Ni7 P13 2.237612 1_455
Ni7 P16 2.260156 1_455
Ni7 P2 2.264543 1_555
Ni7 P17 2.264783 1_555
Ni7 P10 2.335817 1_545
Ni8 P19 2.269493 1_555
Ni8 P18 2.290136 1_645
Ni8 P9 2.348030 1_655
Ni8 P15 2.348030 1_655
Ni8 P14 2.355186 1_555
Ni8 P8 2.355186 1_555
Ni9 P18 2.269491 1_545
Ni9 P19 2.290140 1_555
Ni9 P8 2.348025 1_555
Ni9 P14 2.348025 1_555
Ni9 P9 2.355189 1_555
Ni9 P15 2.355189 1_555
Ni10 P17 2.269273 1_555
Ni10 P16 2.290072 1_465
Ni10 P11 2.348005 1_455
Ni10 P13 2.348005 1_455
Ni10 P12 2.355028 1_555
Ni10 P10 2.355028 1_555
Ni11 P16 2.269273 1_565
Ni11 P17 2.290073 1_555
Ni11 P12 2.347999 1_555
Ni11 P10 2.347999 1_555
Ni11 P11 2.355033 1_555
Ni11 P13 2.355033 1_555
Ni12 P7 2.244542 1_645
Ni12 P8 2.251300 1_555
Ni12 P3 2.261166 1_556
Ni12 P4 2.277640 1_656
Ni12 P0 2.288535 1_555
Ni13 P6 2.244540 1_555
Ni13 P9 2.251298 1_555
Ni13 P2 2.261163 1_555
Ni13 P5 2.277640 1_555
Ni13 P1 2.288537 1_545
Ni14 P5 2.244749 1_465
Ni14 P10 2.251568 1_555
Ni14 P1 2.260919 1_555
Ni14 P6 2.277286 1_455
Ni14 P2 2.288176 1_555
Ni15 P4 2.244750 1_555
Ni15 P11 2.251569 1_555
Ni15 P0 2.260915 1_554
Ni15 P7 2.277284 1_554
Ni15 P3 2.288177 1_565
Ni16 P3 2.244749 1_465
Ni16 P12 2.251568 1_555
Ni16 P7 2.260919 1_554
Ni16 P0 2.277286 1_454
Ni16 P4 2.288176 1_555
Ni17 P2 2.244750 1_555
Ni17 P13 2.251569 1_555
Ni17 P6 2.260915 1_555
Ni17 P1 2.277284 1_555
Ni17 P5 2.288177 1_565
Ni18 P1 2.244542 1_645
Ni18 P14 2.251300 1_555
Ni18 P5 2.261166 1_555
Ni18 P2 2.277640 1_655
Ni18 P6 2.288535 1_555
Ni19 P0 2.244540 1_555
Ni19 P15 2.251298 1_555
Ni19 P4 2.261163 1_556
Ni19 P3 2.277640 1_556
Ni19 P7 2.288537 1_545
