# generated using pymatgen
data_Ba5Sb4
_symmetry_space_group_name_H-M   'P 1'
_cell_length_a   9.14393886
_cell_length_b   9.18840753
_cell_length_c   10.10416762
_cell_angle_alpha   90.00000000
_cell_angle_beta   116.90313687
_cell_angle_gamma   90.00000000
_symmetry_Int_Tables_number   1
_chemical_formula_structural   Ba5Sb4
_chemical_formula_sum   'Ba10 Sb8'
_cell_volume   757.05652381
_cell_formula_units_Z   2
loop_
 _symmetry_equiv_pos_site_id
 _symmetry_equiv_pos_as_xyz
  1  'x, y, z'
loop_
 _atom_site_type_symbol
 _atom_site_label
 _atom_site_symmetry_multiplicity
 _atom_site_fract_x
 _atom_site_fract_y
 _atom_site_fract_z
 _atom_site_occupancy
  Ba  Ba0  1  0.50000000  0.50000000  0.00000000  1
  Ba  Ba1  1  0.00000000  -0.00000000  0.00000000  1
  Ba  Ba2  1  0.31468299  0.33560930  0.29228660  1
  Ba  Ba3  1  0.52239739  0.16439070  0.70771340  1
  Ba  Ba4  1  0.18531701  0.83560930  0.70771340  1
  Ba  Ba5  1  0.97760261  0.66439070  0.29228660  1
  Ba  Ba6  1  0.68531701  0.66439070  0.70771340  1
  Ba  Ba7  1  0.47760261  0.83560930  0.29228660  1
  Ba  Ba8  1  0.81468299  0.16439070  0.29228660  1
  Ba  Ba9  1  0.02239739  0.33560930  0.70771340  1
  Sb  Sb0  1  0.88761272  0.38752203  0.00000000  1
  Sb  Sb1  1  0.38761272  0.11247797  0.00000000  1
  Sb  Sb2  1  0.61238728  0.88752203  -0.00000000  1
  Sb  Sb3  1  0.11238728  0.61247797  -0.00000000  1
  Sb  Sb4  1  0.19823405  -0.00000000  0.39646611  1
  Sb  Sb5  1  0.30176595  0.50000000  0.60353389  1
  Sb  Sb6  1  0.80176595  -0.00000000  0.60353389  1
  Sb  Sb7  1  0.69823405  0.50000000  0.39646611  1
loop_
_geom_bond_atom_site_label_1
_geom_bond_atom_site_label_2
_geom_bond_distance
_geom_bond_site_symmetry_2
Ba0 Sb7 3.572406 1_555
Ba0 Sb5 3.572406 1_554
Ba0 Sb3 3.691913 1_555
Ba0 Sb0 3.691913 1_555
Ba0 Sb1 3.706042 1_555
Ba0 Sb2 3.706042 1_555
Ba1 Sb4 3.572406 1_555
Ba1 Sb6 3.572406 1_454
Ba1 Sb2 3.691913 1_445
Ba1 Sb1 3.691913 1_555
Ba1 Sb3 3.706042 1_545
Ba1 Sb0 3.706042 1_455
Ba2 Sb7 3.514100 1_555
Ba2 Sb5 3.538650 1_555
Ba2 Sb4 3.572885 1_555
Ba2 Sb3 3.697536 1_555
Ba2 Sb0 3.709776 1_455
Ba2 Sb1 3.892618 1_555
Ba3 Sb6 3.514077 1_555
Ba3 Sb4 3.538646 1_555
Ba3 Sb5 3.572897 1_555
Ba3 Sb2 3.697537 1_546
Ba3 Sb1 3.709783 1_556
Ba3 Sb0 3.892613 1_556
Ba4 Sb6 3.514100 1_465
Ba4 Sb4 3.538650 1_565
Ba4 Sb5 3.572885 1_555
Ba4 Sb1 3.697536 1_566
Ba4 Sb2 3.709776 1_556
Ba4 Sb3 3.892618 1_556
Ba5 Sb7 3.514077 1_555
Ba5 Sb5 3.538646 1_655
Ba5 Sb4 3.572897 1_665
Ba5 Sb0 3.697537 1_555
Ba5 Sb3 3.709783 1_655
Ba5 Sb2 3.892613 1_555
Ba6 Sb5 3.514100 1_555
Ba6 Sb7 3.538650 1_555
Ba6 Sb6 3.572885 1_565
Ba6 Sb0 3.697536 1_556
Ba6 Sb3 3.709776 1_656
Ba6 Sb2 3.892618 1_556
Ba7 Sb4 3.514077 1_565
Ba7 Sb6 3.538646 1_565
Ba7 Sb7 3.572897 1_555
Ba7 Sb1 3.697537 1_565
Ba7 Sb2 3.709783 1_555
Ba7 Sb3 3.892613 1_555
Ba8 Sb4 3.514100 1_655
Ba8 Sb6 3.538650 1_555
Ba8 Sb7 3.572885 1_555
Ba8 Sb2 3.697536 1_545
Ba8 Sb1 3.709776 1_555
Ba8 Sb0 3.892618 1_555
Ba9 Sb5 3.514077 1_555
Ba9 Sb7 3.538646 1_455
Ba9 Sb6 3.572897 1_455
Ba9 Sb3 3.697537 1_556
Ba9 Sb0 3.709783 1_456
Ba9 Sb1 3.892613 1_556
Sb0 Sb3 2.914926 1_655
Sb1 Sb2 2.914926 1_545
