# generated using pymatgen
data_Li4ZnIn2F12
_symmetry_space_group_name_H-M   'P 1'
_cell_length_a   4.87250400
_cell_length_b   5.08586600
_cell_length_c   18.05927300
_cell_angle_alpha   90.00000000
_cell_angle_beta   90.00000000
_cell_angle_gamma   90.00000000
_symmetry_Int_Tables_number   1
_chemical_formula_structural   Li4ZnIn2F12
_chemical_formula_sum   'Li8 Zn2 In4 F24'
_cell_volume   447.52508214
_cell_formula_units_Z   2
loop_
 _symmetry_equiv_pos_site_id
 _symmetry_equiv_pos_as_xyz
  1  'x, y, z'
loop_
 _atom_site_type_symbol
 _atom_site_label
 _atom_site_symmetry_multiplicity
 _atom_site_fract_x
 _atom_site_fract_y
 _atom_site_fract_z
 _atom_site_occupancy
  Li  Li0  1  0.00000000  0.00000000  0.70388300  1
  Li  Li1  1  0.50000000  0.50000000  0.79211900  1
  Li  Li2  1  0.00000000  0.50000000  0.29211900  1
  Li  Li3  1  0.50000000  0.00000000  0.20388300  1
  Li  Li4  1  0.00000000  0.00000000  0.22526400  1
  Li  Li5  1  0.50000000  0.00000000  0.72526400  1
  Li  Li6  1  0.00000000  0.00000000  0.54854100  1
  Li  Li7  1  0.50000000  0.00000000  0.04854100  1
  Zn  Zn0  1  0.50000000  0.50000000  0.95703200  1
  Zn  Zn1  1  0.00000000  0.50000000  0.45703200  1
  In  In0  1  0.00000000  0.00000000  0.87902000  1
  In  In1  1  0.50000000  0.50000000  0.61803100  1
  In  In2  1  0.00000000  0.50000000  0.11803100  1
  In  In3  1  0.50000000  0.00000000  0.37902000  1
  F  F0  1  0.70469500  0.69072500  0.70746700  1
  F  F1  1  0.76725100  0.15984200  0.79056300  1
  F  F2  1  0.23274900  0.84015800  0.79056300  1
  F  F3  1  0.29530500  0.30927500  0.70746700  1
  F  F4  1  0.26725100  0.84015800  0.29056300  1
  F  F5  1  0.20469500  0.30927500  0.20746700  1
  F  F6  1  0.79530500  0.69072500  0.20746700  1
  F  F7  1  0.73274900  0.15984200  0.29056300  1
  F  F8  1  0.76373900  0.67190700  0.53847900  1
  F  F9  1  0.74012000  0.16730000  0.96078200  1
  F  F10  1  0.25988000  0.83270000  0.96078200  1
  F  F11  1  0.23626100  0.32809300  0.53847900  1
  F  F12  1  0.24012000  0.83270000  0.46078200  1
  F  F13  1  0.26373900  0.32809300  0.03847900  1
  F  F14  1  0.73626100  0.67190700  0.03847900  1
  F  F15  1  0.75988000  0.16730000  0.46078200  1
  F  F16  1  0.76837200  0.66718500  0.37496400  1
  F  F17  1  0.74298800  0.16513600  0.12824900  1
  F  F18  1  0.25701200  0.83486400  0.12824900  1
  F  F19  1  0.23162800  0.33281500  0.37496400  1
  F  F20  1  0.24298800  0.83486400  0.62824900  1
  F  F21  1  0.26837200  0.33281500  0.87496400  1
  F  F22  1  0.73162800  0.66718500  0.87496400  1
  F  F23  1  0.75701200  0.16513600  0.62824900  1
loop_
_geom_bond_atom_site_label_1
_geom_bond_atom_site_label_2
_geom_bond_distance
_geom_bond_site_symmetry_2
F0 Li5 1.890019 1_565
F0 Li1 2.067064 1_555
F0 In1 2.131753 1_555
F0 Li0 2.132759 1_665
F1 Li5 1.935763 1_555
F1 Li0 2.096995 1_655
F1 In0 2.121058 1_655
F1 Li1 2.165493 1_555
F2 Li5 1.935763 1_565
F2 Li0 2.096995 1_565
F2 In0 2.121058 1_565
F2 Li1 2.165493 1_555
F3 Li5 1.890019 1_555
F3 Li1 2.067064 1_555
F3 In1 2.131753 1_555
F3 Li0 2.132759 1_555
F4 Li4 1.935763 1_565
F4 Li3 2.096995 1_565
F4 In3 2.121058 1_565
F4 Li2 2.165493 1_555
F5 Li4 1.890019 1_555
F5 Li2 2.067064 1_555
F5 In2 2.131753 1_555
F5 Li3 2.132759 1_555
F6 Li4 1.890019 1_665
F6 Li2 2.067064 1_655
F6 In2 2.131753 1_655
F6 Li3 2.132759 1_565
F7 Li4 1.935763 1_655
F7 Li3 2.096995 1_555
F7 In3 2.121058 1_555
F7 Li2 2.165493 1_655
F8 Li6 2.035335 1_665
F8 Zn1 2.062301 1_655
F8 In1 2.116545 1_555
F9 Zn0 2.058287 1_555
F9 In0 2.123120 1_655
F9 Li7 2.145840 1_556
F10 Zn0 2.058287 1_555
F10 In0 2.123120 1_565
F10 Li7 2.145840 1_566
F11 Li6 2.035335 1_555
F11 Zn1 2.062301 1_555
F11 In1 2.116545 1_555
F12 Zn1 2.058287 1_555
F12 In3 2.123120 1_565
F12 Li6 2.145840 1_565
F13 Li7 2.035335 1_555
F13 Zn0 2.062301 1_554
F13 In2 2.116545 1_555
F14 Li7 2.035335 1_565
F14 Zn0 2.062301 1_554
F14 In2 2.116545 1_655
F15 Zn1 2.058287 1_655
F15 In3 2.123120 1_555
F15 Li6 2.145840 1_655
F16 Zn1 2.047760 1_655
F16 Li2 2.057938 1_655
F16 In3 2.140180 1_565
F17 Li3 1.993187 1_555
F17 Li7 2.044308 1_555
F17 In2 2.121967 1_655
F17 Li4 2.311531 1_655
F18 Li3 1.993187 1_565
F18 Li7 2.044308 1_565
F18 In2 2.121967 1_555
F18 Li4 2.311531 1_565
F19 Zn1 2.047760 1_555
F19 Li2 2.057938 1_555
F19 In3 2.140180 1_555
F20 Li0 1.993187 1_565
F20 Li6 2.044308 1_565
F20 In1 2.121967 1_555
F20 Li5 2.311531 1_565
F21 Zn0 2.047760 1_555
F21 Li1 2.057938 1_555
F21 In0 2.140180 1_555
F22 Zn0 2.047760 1_555
F22 Li1 2.057938 1_555
F22 In0 2.140180 1_665
F23 Li0 1.993187 1_655
F23 Li6 2.044308 1_655
F23 In1 2.121967 1_555
F23 Li5 2.311531 1_555
