# generated using pymatgen
data_Hf15Mo11As2
_symmetry_space_group_name_H-M   'P 1'
_cell_length_a   8.39515463
_cell_length_b   8.39787300
_cell_length_c   8.90094000
_cell_angle_alpha   90.00000000
_cell_angle_beta   90.00000000
_cell_angle_gamma   59.98928421
_symmetry_Int_Tables_number   1
_chemical_formula_structural   Hf15Mo11As2
_chemical_formula_sum   'Hf15 Mo11 As2'
_cell_volume   543.39745848
_cell_formula_units_Z   1
loop_
 _symmetry_equiv_pos_site_id
 _symmetry_equiv_pos_as_xyz
  1  'x, y, z'
loop_
 _atom_site_type_symbol
 _atom_site_label
 _atom_site_symmetry_multiplicity
 _atom_site_fract_x
 _atom_site_fract_y
 _atom_site_fract_z
 _atom_site_occupancy
  Hf  Hf0  1  0.20243700  0.59489700  0.53563000  1
  Hf  Hf1  1  0.59484100  0.20257900  0.53537600  1
  Hf  Hf2  1  0.20243700  0.20266600  0.53563000  1
  Hf  Hf3  1  0.80136200  0.39748500  0.45206000  1
  Hf  Hf4  1  0.39737800  0.80131100  0.45224800  1
  Hf  Hf5  1  0.80136200  0.80115300  0.45206000  1
  Hf  Hf6  1  0.80136200  0.39748500  0.04794000  1
  Hf  Hf7  1  0.39737800  0.80131100  0.04775200  1
  Hf  Hf8  1  0.80136200  0.80115300  0.04794000  1
  Hf  Hf9  1  0.20243700  0.59489700  0.96437000  1
  Hf  Hf10  1  0.59484100  0.20257900  0.96462400  1
  Hf  Hf11  1  0.20243700  0.20266600  0.96437000  1
  Hf  Hf12  1  0.53428100  0.93131700  0.75000000  1
  Hf  Hf13  1  0.93101400  0.53449300  0.75000000  1
  Hf  Hf14  1  0.53428100  0.53440300  0.75000000  1
  Mo  Mo0  1  0.99996200  0.00001900  0.49326000  1
  Mo  Mo1  1  0.99996200  0.00001900  0.00674000  1
  Mo  Mo2  1  0.89063600  0.21853500  0.75000000  1
  Mo  Mo3  1  0.21819300  0.89090300  0.75000000  1
  Mo  Mo4  1  0.89063600  0.89082900  0.75000000  1
  Mo  Mo5  1  0.11479500  0.77054100  0.25000000  1
  Mo  Mo6  1  0.77048600  0.11475700  0.25000000  1
  Mo  Mo7  1  0.11479500  0.11466400  0.25000000  1
  Mo  Mo8  1  0.46410700  0.07176300  0.25000000  1
  Mo  Mo9  1  0.07317700  0.46341100  0.25000000  1
  Mo  Mo10  1  0.46410700  0.46412900  0.25000000  1
  As  As0  1  0.33348800  0.33325600  0.75000000  1
  As  As1  1  0.66644600  0.66677700  0.25000000  1
loop_
_geom_bond_atom_site_label_1
_geom_bond_atom_site_label_2
_geom_bond_distance
_geom_bond_site_symmetry_2
Hf0 Mo5 2.845193 1_555
Hf0 Mo0 2.970083 1_465
Hf0 Mo9 3.171613 1_555
Hf0 Mo10 3.175249 1_555
Hf0 Mo4 3.187719 1_455
Hf0 Mo3 3.188502 1_555
Hf1 Mo6 2.842990 1_555
Hf1 Mo0 2.968843 1_555
Hf1 Mo10 3.173286 1_555
Hf1 Mo8 3.173286 1_555
Hf1 Mo4 3.188534 1_545
Hf1 Mo2 3.188537 1_555
Hf2 Mo7 2.845193 1_555
Hf2 Mo0 2.970083 1_455
Hf2 Mo9 3.171608 1_555
Hf2 Mo8 3.175249 1_555
Hf2 Mo2 3.187719 1_455
Hf2 Mo3 3.188508 1_545
Hf3 Mo0 2.913539 1_555
Hf3 Mo2 2.954025 1_555
Hf3 Mo7 3.089975 1_655
Hf3 Mo6 3.091098 1_555
Hf3 Mo10 3.158974 1_555
Hf3 Mo9 3.164202 1_655
Hf4 Mo0 2.912039 1_465
Hf4 Mo3 2.953089 1_555
Hf4 Mo7 3.090087 1_565
Hf4 Mo5 3.090087 1_555
Hf4 Mo8 3.160021 1_565
Hf4 Mo10 3.160028 1_555
Hf5 Mo0 2.913539 1_565
Hf5 Mo4 2.954025 1_555
Hf5 Mo5 3.089975 1_655
Hf5 Mo6 3.091098 1_565
Hf5 Mo8 3.158971 1_565
Hf5 Mo9 3.164207 1_655
Hf6 Mo1 2.913539 1_555
Hf6 Mo2 2.954025 1_554
Hf6 Mo7 3.089975 1_655
Hf6 Mo6 3.091098 1_555
Hf6 Mo10 3.158974 1_555
Hf6 Mo9 3.164202 1_655
Hf7 Mo1 2.912039 1_465
Hf7 Mo3 2.953089 1_554
Hf7 Mo7 3.090087 1_565
Hf7 Mo5 3.090087 1_555
Hf7 Mo8 3.160021 1_565
Hf7 Mo10 3.160028 1_555
Hf8 Mo1 2.913539 1_565
Hf8 Mo4 2.954025 1_554
Hf8 Mo5 3.089975 1_655
Hf8 Mo6 3.091098 1_565
Hf8 Mo8 3.158971 1_565
Hf8 Mo9 3.164207 1_655
Hf9 Mo5 2.845193 1_556
Hf9 Mo1 2.970083 1_466
Hf9 Mo9 3.171613 1_556
Hf9 Mo10 3.175249 1_556
Hf9 Mo4 3.187719 1_455
Hf9 Mo3 3.188502 1_555
Hf10 Mo6 2.842990 1_556
Hf10 Mo1 2.968843 1_556
Hf10 Mo10 3.173286 1_556
Hf10 Mo8 3.173286 1_556
Hf10 Mo4 3.188534 1_545
Hf10 Mo2 3.188537 1_555
Hf11 Mo7 2.845193 1_556
Hf11 Mo1 2.970083 1_456
Hf11 Mo9 3.171608 1_556
Hf11 Mo8 3.175249 1_556
Hf11 Mo2 3.187719 1_455
Hf11 Mo3 3.188508 1_545
Hf12 Mo4 2.836914 1_555
Hf12 Mo3 2.838613 1_555
Hf13 Mo4 2.838140 1_555
Hf13 Mo2 2.838140 1_555
Hf14 Mo2 2.836917 1_555
Hf14 Mo3 2.838603 1_555
Mo0 Mo6 2.733347 1_555
Mo0 Mo5 2.733686 1_645
Mo0 Mo7 2.733686 1_655
Mo0 Mo3 2.781927 1_645
Mo0 Mo2 2.783402 1_555
Mo0 Mo4 2.783402 1_545
Mo1 Mo6 2.733347 1_555
Mo1 Mo5 2.733686 1_645
Mo1 Mo7 2.733686 1_655
Mo1 Mo3 2.781927 1_644
Mo1 Mo2 2.783402 1_554
Mo1 Mo4 2.783402 1_544
Mo2 Mo3 2.750207 1_645
Mo2 Mo4 2.752033 1_545
Mo3 Mo4 2.750203 1_455
Mo5 Mo9 2.770559 1_555
Mo5 Mo7 2.889901 1_565
Mo5 Mo6 2.890137 1_465
Mo6 Mo8 2.770385 1_555
Mo6 Mo7 2.890137 1_655
Mo7 Mo8 2.769956 1_555
Mo7 Mo9 2.770550 1_555
Mo8 Mo9 3.284938 1_555
Mo10 Mo5 2.769959 1_555
Mo10 Mo6 2.770380 1_555
Mo10 Mo9 3.284938 1_555
Mo10 Mo8 3.295040 1_555
As0 Hf10 2.694296 1_555
As0 Hf1 2.694296 1_555
As0 Hf0 2.694606 1_555
As0 Hf9 2.694606 1_555
As0 Hf2 2.694606 1_555
As0 Hf11 2.694606 1_555
As0 Hf12 2.922896 1_545
As0 Hf14 2.922903 1_555
As0 Hf13 2.925838 1_455
As1 Hf4 2.658335 1_555
As1 Hf7 2.658335 1_555
As1 Hf6 2.658868 1_555
As1 Hf3 2.658868 1_555
As1 Hf8 2.658868 1_555
As1 Hf5 2.658868 1_555
As1 Mo8 2.945053 1_565
As1 Mo10 2.945061 1_555
As1 Mo9 2.956785 1_655
