# generated using pymatgen
data_LaP3Au2
_symmetry_space_group_name_H-M   'P 1'
_cell_length_a   4.07974300
_cell_length_b   9.48619500
_cell_length_c   13.71316400
_cell_angle_alpha   90.00000000
_cell_angle_beta   90.00000000
_cell_angle_gamma   90.00000000
_symmetry_Int_Tables_number   1
_chemical_formula_structural   LaP3Au2
_chemical_formula_sum   'La4 P12 Au8'
_cell_volume   530.71641887
_cell_formula_units_Z   4
loop_
 _symmetry_equiv_pos_site_id
 _symmetry_equiv_pos_as_xyz
  1  'x, y, z'
loop_
 _atom_site_type_symbol
 _atom_site_label
 _atom_site_symmetry_multiplicity
 _atom_site_fract_x
 _atom_site_fract_y
 _atom_site_fract_z
 _atom_site_occupancy
  La  La0  1  0.75000000  0.97968300  0.64065000  1
  La  La1  1  0.25000000  0.02031700  0.35935000  1
  La  La2  1  0.25000000  0.52031700  0.14065000  1
  La  La3  1  0.75000000  0.47968300  0.85935000  1
  P  P0  1  0.75000000  0.79979400  0.83146300  1
  P  P1  1  0.25000000  0.20020600  0.16853700  1
  P  P2  1  0.25000000  0.70020600  0.33146300  1
  P  P3  1  0.75000000  0.29979400  0.66853700  1
  P  P4  1  0.75000000  0.02330400  0.85652100  1
  P  P5  1  0.25000000  0.97669600  0.14347900  1
  P  P6  1  0.25000000  0.47669600  0.35652100  1
  P  P7  1  0.75000000  0.52330400  0.64347900  1
  P  P8  1  0.75000000  0.67620800  0.04204800  1
  P  P9  1  0.25000000  0.32379200  0.95795200  1
  P  P10  1  0.25000000  0.82379200  0.54204800  1
  P  P11  1  0.75000000  0.17620800  0.45795200  1
  Au  Au0  1  0.75000000  0.76215300  0.44053200  1
  Au  Au1  1  0.25000000  0.23784700  0.55946800  1
  Au  Au2  1  0.25000000  0.73784700  0.94053200  1
  Au  Au3  1  0.75000000  0.26215300  0.05946800  1
  Au  Au4  1  0.75000000  0.84314200  0.18582500  1
  Au  Au5  1  0.25000000  0.15685800  0.81417500  1
  Au  Au6  1  0.25000000  0.65685800  0.68582500  1
  Au  Au7  1  0.75000000  0.34314200  0.31417500  1
loop_
_geom_bond_atom_site_label_1
_geom_bond_atom_site_label_2
_geom_bond_distance
_geom_bond_site_symmetry_2
La0 P10 2.859416 1_655
La0 P10 2.859416 1_555
La0 P4 2.989056 1_565
La0 P3 3.060621 1_565
La0 P11 3.122881 1_565
La0 P0 3.123919 1_555
La1 P11 2.859416 1_555
La1 P11 2.859416 1_455
La1 P5 2.989056 1_545
La1 P2 3.060621 1_545
La1 P10 3.122881 1_545
La1 P1 3.123919 1_555
La2 P8 2.859416 1_455
La2 P8 2.859416 1_555
La2 P6 2.989056 1_555
La2 P1 3.060621 1_555
La2 P9 3.122881 1_554
La2 P2 3.123919 1_555
La3 P9 2.859416 1_555
La3 P9 2.859416 1_655
La3 P7 2.989056 1_555
La3 P0 3.060621 1_555
La3 P8 3.122881 1_556
La3 P3 3.123919 1_555
P0 P4 2.147924 1_565
P1 P5 2.147924 1_545
P2 P6 2.147924 1_555
P3 P7 2.147924 1_555
Au0 P10 2.537899 1_655
Au0 P10 2.537899 1_555
Au0 P2 2.596817 1_555
Au0 P2 2.596817 1_655
Au1 P11 2.537899 1_555
Au1 P11 2.537899 1_455
Au1 P3 2.596817 1_555
Au1 P3 2.596817 1_455
Au2 P8 2.537899 1_456
Au2 P8 2.537899 1_556
Au2 P0 2.596817 1_455
Au2 P0 2.596817 1_555
Au3 P9 2.537899 1_554
Au3 P9 2.537899 1_654
Au3 P1 2.596817 1_655
Au3 P1 2.596817 1_555
Au4 P5 2.470500 1_655
Au4 P5 2.470500 1_555
Au4 P8 2.528842 1_555
Au5 P4 2.470500 1_455
Au5 P4 2.470500 1_555
Au5 P9 2.528842 1_555
Au6 P7 2.470500 1_555
Au6 P7 2.470500 1_455
Au6 P10 2.528842 1_555
Au7 P6 2.470500 1_655
Au7 P6 2.470500 1_555
Au7 P11 2.528842 1_555
