# generated using pymatgen
data_Cd2PtAu
_symmetry_space_group_name_H-M   'P 1'
_cell_length_a   11.25580773
_cell_length_b   11.25580773
_cell_length_c   11.25580773
_cell_angle_alpha   124.38553673
_cell_angle_beta   118.63389406
_cell_angle_gamma   87.47990029
_symmetry_Int_Tables_number   1
_chemical_formula_structural   Cd2PtAu
_chemical_formula_sum   'Cd2 Pt1 Au1'
_cell_volume   981.03581039
_cell_formula_units_Z   1
loop_
 _symmetry_equiv_pos_site_id
 _symmetry_equiv_pos_as_xyz
  1  'x, y, z'
loop_
 _atom_site_type_symbol
 _atom_site_label
 _atom_site_symmetry_multiplicity
 _atom_site_fract_x
 _atom_site_fract_y
 _atom_site_fract_z
 _atom_site_occupancy
  Cd  Cd0  1  0.00000000  0.24624000  0.24624000  1
  Cd  Cd1  1  0.00000000  0.75376000  0.75376000  1
  Pt  Pt0  1  0.00000000  0.00000000  0.00000000  1
  Au  Au0  1  0.00000000  0.50000000  0.50000000  1
loop_
_geom_bond_atom_site_label_1
_geom_bond_atom_site_label_2
_geom_bond_distance
_geom_bond_site_symmetry_2
Cd0 Pt0 2.585921 1_555
Cd1 Pt0 2.585921 1_566
Au0 Cd1 2.664894 1_555
Au0 Cd0 2.664894 1_555
