# generated using pymatgen
data_TlCu3Te2
_symmetry_space_group_name_H-M   'P 1'
_cell_length_a   8.57107200
_cell_length_b   8.57050300
_cell_length_c   16.78716712
_cell_angle_alpha   59.37431484
_cell_angle_beta   90.00000000
_cell_angle_gamma   90.00000000
_symmetry_Int_Tables_number   1
_chemical_formula_structural   TlCu3Te2
_chemical_formula_sum   'Tl8 Cu24 Te16'
_cell_volume   1061.14975683
_cell_formula_units_Z   8
loop_
 _symmetry_equiv_pos_site_id
 _symmetry_equiv_pos_as_xyz
  1  'x, y, z'
loop_
 _atom_site_type_symbol
 _atom_site_label
 _atom_site_symmetry_multiplicity
 _atom_site_fract_x
 _atom_site_fract_y
 _atom_site_fract_z
 _atom_site_occupancy
  Tl  Tl0  1  0.75162600  0.24740600  0.00124100  1
  Tl  Tl1  1  0.24837400  0.24740600  0.50124100  1
  Tl  Tl2  1  0.24627000  0.74804500  0.00126700  1
  Tl  Tl3  1  0.75373000  0.74804500  0.50126700  1
  Tl  Tl4  1  0.75414100  0.99859000  0.24872300  1
  Tl  Tl5  1  0.24585900  0.99859000  0.74872300  1
  Tl  Tl6  1  0.24640200  0.50496200  0.24866100  1
  Tl  Tl7  1  0.75359800  0.50496200  0.74866100  1
  Cu  Cu0  1  0.86940300  0.44278900  0.42447200  1
  Cu  Cu1  1  0.13059700  0.44278900  0.92447200  1
  Cu  Cu2  1  0.36520900  0.20835000  0.92401600  1
  Cu  Cu3  1  0.63479100  0.20835000  0.42401600  1
  Cu  Cu4  1  0.12734300  0.56301300  0.57290300  1
  Cu  Cu5  1  0.87265700  0.56301300  0.07290300  1
  Cu  Cu6  1  0.63782100  0.79263100  0.07836700  1
  Cu  Cu7  1  0.36217900  0.79263100  0.57836700  1
  Cu  Cu8  1  0.62358400  0.65824200  0.96692800  1
  Cu  Cu9  1  0.37641600  0.65824200  0.46692800  1
  Cu  Cu10  1  0.12663900  0.90816000  0.46716000  1
  Cu  Cu11  1  0.87336100  0.90816000  0.96716000  1
  Cu  Cu12  1  0.37307200  0.34181600  0.03197300  1
  Cu  Cu13  1  0.62692800  0.34181600  0.53197300  1
  Cu  Cu14  1  0.87484400  0.08772900  0.53828400  1
  Cu  Cu15  1  0.12515600  0.08772900  0.03828400  1
  Cu  Cu16  1  0.75314500  0.50315300  0.24785100  1
  Cu  Cu17  1  0.24685500  0.50315300  0.74785100  1
  Cu  Cu18  1  0.62457600  0.17078800  0.70490800  1
  Cu  Cu19  1  0.37542400  0.17078800  0.20490800  1
  Cu  Cu20  1  0.87861600  0.06553500  0.79278700  1
  Cu  Cu21  1  0.12138400  0.06553500  0.29278700  1
  Cu  Cu22  1  0.35883700  0.82878300  0.29229700  1
  Cu  Cu23  1  0.64116300  0.82878300  0.79229700  1
  Te  Te0  1  0.41673400  0.03239200  0.38370100  1
  Te  Te1  1  0.58326600  0.03239200  0.88370100  1
  Te  Te2  1  0.91397300  0.70371800  0.88186900  1
  Te  Te3  1  0.08602700  0.70371800  0.38186900  1
  Te  Te4  1  0.58705800  0.96386900  0.61668800  1
  Te  Te5  1  0.41294200  0.96386900  0.11668800  1
  Te  Te6  1  0.08157100  0.29457800  0.11810300  1
  Te  Te7  1  0.91842900  0.29457800  0.61810300  1
  Te  Te8  1  0.57638400  0.43625800  0.14047400  1
  Te  Te9  1  0.42361600  0.43625800  0.64047400  1
  Te  Te10  1  0.06807300  0.79182400  0.64080900  1
  Te  Te11  1  0.93192700  0.79182400  0.14080900  1
  Te  Te12  1  0.42317100  0.56660700  0.85862200  1
  Te  Te13  1  0.57682900  0.56660700  0.35862200  1
  Te  Te14  1  0.92553900  0.21676100  0.35989500  1
  Te  Te15  1  0.07446100  0.21676100  0.85989500  1
loop_
_geom_bond_atom_site_label_1
_geom_bond_atom_site_label_2
_geom_bond_distance
_geom_bond_site_symmetry_2
Cu0 Cu13 2.594930 1_555
Cu0 Cu14 2.643673 1_555
Cu0 Te14 2.701658 1_555
Cu0 Te3 2.707455 1_655
Cu0 Te13 2.727880 1_555
Cu0 Cu3 2.845431 1_555
Cu0 Te7 2.854672 1_555
Cu0 Cu16 2.913547 1_555
Cu1 Cu12 2.594930 1_556
Cu1 Cu15 2.643673 1_556
Cu1 Te15 2.701658 1_555
Cu1 Te2 2.707455 1_455
Cu1 Te12 2.727880 1_555
Cu1 Cu2 2.845431 1_555
Cu1 Te6 2.854672 1_556
Cu1 Cu17 2.913547 1_555
Cu2 Te1 2.695400 1_555
Cu2 Te15 2.700920 1_555
Cu2 Te12 2.728612 1_555
Cu2 Te5 2.848559 1_546
Cu3 Te0 2.695400 1_555
Cu3 Te14 2.700920 1_555
Cu3 Te13 2.728612 1_555
Cu3 Te4 2.848559 1_545
Cu4 Cu9 2.628527 1_555
Cu4 Te7 2.701174 1_455
Cu4 Te9 2.767631 1_555
Cu4 Te10 2.771425 1_555
Cu4 Te3 2.814921 1_555
Cu4 Cu7 2.848942 1_555
Cu5 Cu8 2.628527 1_554
Cu5 Te6 2.701174 1_655
Cu5 Te8 2.767631 1_555
Cu5 Te11 2.771425 1_555
Cu5 Te2 2.814921 1_554
Cu5 Cu6 2.848942 1_555
Cu6 Cu8 2.652639 1_554
Cu6 Te5 2.691591 1_555
Cu6 Te11 2.728715 1_555
Cu6 Te8 2.729208 1_555
Cu6 Te1 2.877246 1_564
Cu7 Cu9 2.652639 1_555
Cu7 Te4 2.691591 1_555
Cu7 Te10 2.728715 1_555
Cu7 Te9 2.729208 1_555
Cu7 Te0 2.877246 1_565
Cu8 Te8 2.573640 1_556
Cu8 Te1 2.790955 1_565
Cu8 Te2 2.796182 1_555
Cu8 Te12 2.885821 1_555
Cu8 Tl2 3.440257 1_556
Cu8 Tl0 3.444954 1_556
Cu9 Te9 2.573640 1_555
Cu9 Te0 2.790955 1_565
Cu9 Te3 2.796182 1_555
Cu9 Te13 2.885821 1_555
Cu9 Tl3 3.440257 1_555
Cu9 Tl1 3.444954 1_555
Cu10 Cu21 2.523346 1_565
Cu10 Cu4 2.559568 1_555
Cu10 Cu7 2.580289 1_555
Cu10 Te10 2.604316 1_555
Cu10 Te0 2.785502 1_565
Cu10 Te3 2.792374 1_555
Cu10 Te14 2.890735 1_465
Cu10 Cu9 3.029788 1_555
Cu10 Cu14 3.213077 1_465
Cu10 Tl1 3.400652 1_565
Cu10 Tl3 3.409737 1_455
Cu11 Cu20 2.523346 1_565
Cu11 Cu5 2.559568 1_556
Cu11 Cu6 2.580289 1_556
Cu11 Te11 2.604316 1_556
Cu11 Te1 2.785502 1_565
Cu11 Te2 2.792374 1_555
Cu11 Te15 2.890735 1_665
Cu11 Cu8 3.029788 1_555
Cu11 Cu15 3.213077 1_666
Cu11 Tl0 3.400652 1_566
Cu11 Tl2 3.409737 1_656
Cu12 Cu19 2.498264 1_555
Cu12 Te12 2.579228 1_554
Cu12 Cu2 2.590270 1_554
Cu12 Te6 2.810774 1_555
Cu12 Te5 2.817483 1_545
Cu12 Te8 2.917445 1_555
Cu12 Cu15 3.005589 1_555
Cu12 Cu8 3.184351 1_554
Cu12 Tl2 3.426350 1_555
Cu12 Tl0 3.445822 1_555
Cu13 Cu18 2.498264 1_555
Cu13 Te13 2.579228 1_555
Cu13 Cu3 2.590270 1_555
Cu13 Te7 2.810774 1_555
Cu13 Te4 2.817483 1_545
Cu13 Te9 2.917445 1_555
Cu13 Cu14 3.005589 1_555
Cu13 Cu9 3.184351 1_555
Cu13 Tl3 3.426350 1_555
Cu13 Tl1 3.445822 1_555
Cu14 Cu3 2.638420 1_555
Cu14 Te14 2.646795 1_555
Cu14 Te7 2.738252 1_555
Cu14 Te4 2.742256 1_545
Cu14 Te10 2.773012 1_645
Cu14 Tl1 3.412097 1_655
Cu14 Tl3 3.432551 1_545
Cu15 Cu2 2.638420 1_554
Cu15 Te15 2.646795 1_554
Cu15 Te6 2.738252 1_555
Cu15 Te5 2.742256 1_545
Cu15 Te11 2.773012 1_445
Cu15 Tl0 3.412097 1_455
Cu15 Tl2 3.432551 1_545
Cu16 Te8 2.631760 1_555
Cu16 Te14 2.653680 1_555
Cu16 Te13 2.658520 1_555
Cu16 Te11 2.677404 1_555
Cu16 Cu6 2.834665 1_555
Cu16 Cu3 2.923294 1_555
Cu17 Te9 2.631760 1_555
Cu17 Te15 2.653680 1_555
Cu17 Te12 2.658520 1_555
Cu17 Te10 2.677404 1_555
Cu17 Cu7 2.834665 1_555
Cu17 Cu2 2.923294 1_555
Cu18 Cu20 2.524926 1_555
Cu18 Cu23 2.526438 1_545
Cu18 Te9 2.608827 1_555
Cu18 Te1 2.629380 1_555
Cu18 Te7 2.831505 1_555
Cu18 Te4 2.849117 1_545
Cu19 Cu21 2.524926 1_555
Cu19 Cu22 2.526438 1_545
Cu19 Te8 2.608827 1_555
Cu19 Te0 2.629380 1_555
Cu19 Te6 2.831505 1_555
Cu19 Te5 2.849117 1_545
Cu20 Te7 2.589238 1_555
Cu20 Te2 2.686888 1_545
Cu20 Te15 2.693379 1_655
Cu20 Cu23 2.876874 1_545
Cu20 Te1 2.894230 1_555
Cu20 Tl5 3.349116 1_645
Cu21 Te6 2.589238 1_555
Cu21 Te3 2.686888 1_545
Cu21 Te14 2.693379 1_455
Cu21 Cu22 2.876874 1_545
Cu21 Te0 2.894230 1_555
Cu21 Tl4 3.349116 1_445
Cu22 Cu9 2.527343 1_555
Cu22 Te5 2.601660 1_555
Cu22 Te13 2.688984 1_555
Cu22 Te3 2.689853 1_555
Cu22 Te0 2.893769 1_565
Cu22 Tl6 3.352453 1_555
Cu23 Cu8 2.527343 1_555
Cu23 Te4 2.601660 1_555
Cu23 Te12 2.688984 1_555
Cu23 Te2 2.689853 1_555
Cu23 Te1 2.893769 1_565
Cu23 Tl7 3.352453 1_555
Te10 Tl5 3.466251 1_555
Te10 Tl7 3.471657 1_455
Te11 Tl4 3.466251 1_555
Te11 Tl6 3.471657 1_655
