# generated using pymatgen
data_Mg149Sn
_symmetry_space_group_name_H-M   'P 1'
_cell_length_a   15.93335383
_cell_length_b   15.93335997
_cell_length_c   15.54793397
_cell_angle_alpha   90.00000000
_cell_angle_beta   90.00000000
_cell_angle_gamma   120.00001516
_symmetry_Int_Tables_number   1
_chemical_formula_structural   Mg149Sn
_chemical_formula_sum   'Mg149 Sn1'
_cell_volume   3418.36018453
_cell_formula_units_Z   1
loop_
 _symmetry_equiv_pos_site_id
 _symmetry_equiv_pos_as_xyz
  1  'x, y, z'
loop_
 _atom_site_type_symbol
 _atom_site_label
 _atom_site_symmetry_multiplicity
 _atom_site_fract_x
 _atom_site_fract_y
 _atom_site_fract_z
 _atom_site_occupancy
  Mg  Mg0  1  0.20159709  0.00096005  -0.00000000  1
  Mg  Mg1  1  0.79936396  0.00096005  -0.00000000  1
  Mg  Mg2  1  0.40001218  0.20000659  -0.00000000  1
  Mg  Mg3  1  0.79999341  0.20000659  -0.00000000  1
  Mg  Mg4  1  0.60000358  0.20000717  -0.00000000  1
  Mg  Mg5  1  0.99903895  0.20063604  -0.00000000  1
  Mg  Mg6  1  0.20159709  0.20063704  -0.00000000  1
  Mg  Mg7  1  0.19955849  0.39911798  -0.00000000  1
  Mg  Mg8  1  0.79999283  0.39999642  -0.00000000  1
  Mg  Mg9  1  0.60000358  0.39999642  -0.00000000  1
  Mg  Mg10  1  0.40034767  0.40045105  -0.00000000  1
  Mg  Mg11  1  0.00010439  0.40045105  -0.00000000  1
  Mg  Mg12  1  0.59954895  0.59965333  -0.00000000  1
  Mg  Mg13  1  0.00010439  0.59965333  -0.00000000  1
  Mg  Mg14  1  0.19990888  0.59995444  -0.00000000  1
  Mg  Mg15  1  0.40004556  0.59995444  -0.00000000  1
  Mg  Mg16  1  0.79999341  0.59998782  -0.00000000  1
  Mg  Mg17  1  0.99903895  0.79840291  -0.00000000  1
  Mg  Mg18  1  0.79936396  0.79840391  -0.00000000  1
  Mg  Mg19  1  0.40004556  0.80009112  -0.00000000  1
  Mg  Mg20  1  0.60088102  0.80044051  -0.00000000  1
  Mg  Mg21  1  0.19955849  0.80044051  -0.00000000  1
  Mg  Mg22  1  0.59954895  0.99989661  -0.00000000  1
  Mg  Mg23  1  0.40034767  0.99989661  -0.00000000  1
  Mg  Mg24  1  0.06634051  0.33289672  0.16625854  1
  Mg  Mg25  1  0.26655621  0.33289672  0.16625854  1
  Mg  Mg26  1  0.06634051  0.73344379  0.16625854  1
  Mg  Mg27  1  0.66710328  0.73344379  0.16625854  1
  Mg  Mg28  1  0.66710328  0.93365949  0.16625854  1
  Mg  Mg29  1  0.26655621  0.93365949  0.16625854  1
  Mg  Mg30  1  0.46679688  0.13332207  0.16642123  1
  Mg  Mg31  1  0.66652419  0.13332207  0.16642123  1
  Mg  Mg32  1  0.46679688  0.33347581  0.16642123  1
  Mg  Mg33  1  0.86667793  0.33347581  0.16642123  1
  Mg  Mg34  1  0.66652419  0.53320312  0.16642123  1
  Mg  Mg35  1  0.86667793  0.53320312  0.16642123  1
  Mg  Mg36  1  0.66666700  0.33333300  0.16660276  1
  Mg  Mg37  1  0.26654102  0.53308104  0.16652083  1
  Mg  Mg38  1  0.46691896  0.73345898  0.16652083  1
  Mg  Mg39  1  0.26654102  0.73345998  0.16652083  1
  Mg  Mg40  1  0.46661146  0.53338854  0.16646450  1
  Mg  Mg41  1  0.06677709  0.53338854  0.16646450  1
  Mg  Mg42  1  0.46661146  0.93322291  0.16646450  1
  Mg  Mg43  1  0.86630259  0.13369741  0.16724938  1
  Mg  Mg44  1  0.26739483  0.13369741  0.16724938  1
  Mg  Mg45  1  0.86630259  0.73260517  0.16724938  1
  Mg  Mg46  1  0.06683811  0.13367622  0.16782409  1
  Mg  Mg47  1  0.86632378  0.93316189  0.16782409  1
  Mg  Mg48  1  0.06683811  0.93316189  0.16782409  1
  Mg  Mg49  1  0.19991377  0.39982654  0.33293380  1
  Mg  Mg50  1  0.60017346  0.80008623  0.33293380  1
  Mg  Mg51  1  0.19991377  0.80008623  0.33293380  1
  Mg  Mg52  1  0.39989238  0.99999386  0.33314789  1
  Mg  Mg53  1  0.60010248  0.99999486  0.33314789  1
  Mg  Mg54  1  0.00000514  0.39989752  0.33314789  1
  Mg  Mg55  1  0.39989238  0.39989752  0.33314789  1
  Mg  Mg56  1  0.00000514  0.60010762  0.33314789  1
  Mg  Mg57  1  0.60010248  0.60010762  0.33314789  1
  Mg  Mg58  1  0.60002377  0.20004654  0.33306253  1
  Mg  Mg59  1  0.60002377  0.39997623  0.33306253  1
  Mg  Mg60  1  0.79995346  0.39997723  0.33306253  1
  Mg  Mg61  1  -0.00000000  0.00000000  0.33351652  1
  Mg  Mg62  1  0.40011849  0.20005875  0.33322631  1
  Mg  Mg63  1  0.79994025  0.20005975  0.33322631  1
  Mg  Mg64  1  0.79994025  0.59988051  0.33322631  1
  Mg  Mg65  1  0.20004225  0.60002162  0.33310125  1
  Mg  Mg66  1  0.39997838  0.60002162  0.33310125  1
  Mg  Mg67  1  0.39997838  0.79995675  0.33310125  1
  Mg  Mg68  1  0.19982985  0.00006228  0.33379332  1
  Mg  Mg69  1  0.80023243  0.00006228  0.33379332  1
  Mg  Mg70  1  0.19982985  0.19976757  0.33379332  1
  Mg  Mg71  1  0.99993772  0.19976757  0.33379332  1
  Mg  Mg72  1  0.99993772  0.80017015  0.33379332  1
  Mg  Mg73  1  0.80023243  0.80017015  0.33379332  1
  Mg  Mg74  1  0.06656069  0.13312138  0.50000000  1
  Mg  Mg75  1  0.66649479  0.13313397  0.50000000  1
  Mg  Mg76  1  0.46663918  0.13313397  0.50000000  1
  Mg  Mg77  1  0.86674594  0.13325406  0.50000000  1
  Mg  Mg78  1  0.26650813  0.13325406  0.50000000  1
  Mg  Mg79  1  0.26661942  0.33322568  0.50000000  1
  Mg  Mg80  1  0.06660627  0.33322668  0.50000000  1
  Mg  Mg81  1  0.66666700  0.33333300  0.50000000  1
  Mg  Mg82  1  0.46663918  0.33350521  0.50000000  1
  Mg  Mg83  1  0.86686603  0.33350521  0.50000000  1
  Mg  Mg84  1  0.66649479  0.53336082  0.50000000  1
  Mg  Mg85  1  0.86686603  0.53336082  0.50000000  1
  Mg  Mg86  1  0.26650694  0.53301489  0.50000000  1
  Mg  Mg87  1  0.46669180  0.53330820  0.50000000  1
  Mg  Mg88  1  0.06661639  0.53330820  0.50000000  1
  Mg  Mg89  1  0.26650694  0.73349206  0.50000000  1
  Mg  Mg90  1  0.46698511  0.73349306  0.50000000  1
  Mg  Mg91  1  0.86674594  0.73349187  0.50000000  1
  Mg  Mg92  1  0.66677432  0.73337958  0.50000000  1
  Mg  Mg93  1  0.06660627  0.73337958  0.50000000  1
  Mg  Mg94  1  0.46669180  0.93338361  0.50000000  1
  Mg  Mg95  1  0.26661942  0.93339373  0.50000000  1
  Mg  Mg96  1  0.66677432  0.93339473  0.50000000  1
  Mg  Mg97  1  0.06656069  0.93343931  0.50000000  1
  Mg  Mg98  1  0.86687862  0.93343931  0.50000000  1
  Mg  Mg99  1  0.19982985  0.00006228  0.66620768  1
  Mg  Mg100  1  0.80023243  0.00006228  0.66620768  1
  Mg  Mg101  1  0.19982985  0.19976757  0.66620768  1
  Mg  Mg102  1  0.99993772  0.19976757  0.66620768  1
  Mg  Mg103  1  0.99993772  0.80017015  0.66620768  1
  Mg  Mg104  1  0.80023243  0.80017015  0.66620768  1
  Mg  Mg105  1  0.20004225  0.60002162  0.66689975  1
  Mg  Mg106  1  0.39997838  0.60002162  0.66689975  1
  Mg  Mg107  1  0.39997838  0.79995675  0.66689975  1
  Mg  Mg108  1  0.40011849  0.20005875  0.66677469  1
  Mg  Mg109  1  0.79994025  0.20005975  0.66677469  1
  Mg  Mg110  1  0.79994025  0.59988051  0.66677469  1
  Mg  Mg111  1  -0.00000000  0.00000000  0.66648348  1
  Mg  Mg112  1  0.60002377  0.20004654  0.66693747  1
  Mg  Mg113  1  0.60002377  0.39997623  0.66693747  1
  Mg  Mg114  1  0.79995346  0.39997723  0.66693747  1
  Mg  Mg115  1  0.39989238  0.99999386  0.66685211  1
  Mg  Mg116  1  0.60010248  0.99999486  0.66685211  1
  Mg  Mg117  1  0.00000514  0.39989752  0.66685211  1
  Mg  Mg118  1  0.39989238  0.39989752  0.66685211  1
  Mg  Mg119  1  0.00000514  0.60010762  0.66685211  1
  Mg  Mg120  1  0.60010248  0.60010762  0.66685211  1
  Mg  Mg121  1  0.19991377  0.39982654  0.66706620  1
  Mg  Mg122  1  0.60017346  0.80008623  0.66706620  1
  Mg  Mg123  1  0.19991377  0.80008623  0.66706620  1
  Mg  Mg124  1  0.06683811  0.13367622  0.83217591  1
  Mg  Mg125  1  0.86632378  0.93316189  0.83217591  1
  Mg  Mg126  1  0.06683811  0.93316189  0.83217591  1
  Mg  Mg127  1  0.86630259  0.13369741  0.83275062  1
  Mg  Mg128  1  0.26739483  0.13369741  0.83275062  1
  Mg  Mg129  1  0.86630259  0.73260517  0.83275062  1
  Mg  Mg130  1  0.46661146  0.53338854  0.83353550  1
  Mg  Mg131  1  0.06677709  0.53338854  0.83353550  1
  Mg  Mg132  1  0.46661146  0.93322291  0.83353550  1
  Mg  Mg133  1  0.26654102  0.53308104  0.83347917  1
  Mg  Mg134  1  0.46691896  0.73345898  0.83347917  1
  Mg  Mg135  1  0.26654102  0.73345998  0.83347917  1
  Mg  Mg136  1  0.66666700  0.33333300  0.83339724  1
  Mg  Mg137  1  0.46679688  0.13332207  0.83357877  1
  Mg  Mg138  1  0.66652419  0.13332207  0.83357877  1
  Mg  Mg139  1  0.46679688  0.33347581  0.83357877  1
  Mg  Mg140  1  0.86667793  0.33347581  0.83357877  1
  Mg  Mg141  1  0.66652419  0.53320312  0.83357877  1
  Mg  Mg142  1  0.86667793  0.53320312  0.83357877  1
  Mg  Mg143  1  0.06634051  0.33289672  0.83374046  1
  Mg  Mg144  1  0.26655621  0.33289672  0.83374046  1
  Mg  Mg145  1  0.06634051  0.73344379  0.83374046  1
  Mg  Mg146  1  0.66710328  0.73344379  0.83374046  1
  Mg  Mg147  1  0.66710328  0.93365949  0.83374046  1
  Mg  Mg148  1  0.26655621  0.93365949  0.83374046  1
  Sn  Sn0  1  -0.00000000  0.00000000  -0.00000000  1
loop_
_geom_bond_atom_site_label_1
_geom_bond_atom_site_label_2
_geom_bond_distance
_geom_bond_site_symmetry_2
Mg0 Mg29 3.164351 1_545
Mg0 Mg148 3.164364 1_544
Mg0 Mg2 3.166460 1_555
Mg0 Mg23 3.175269 1_545
Mg0 Mg21 3.178834 1_545
Mg0 Mg44 3.180698 1_555
Mg0 Mg128 3.180698 1_554
Mg0 Mg6 3.181525 1_555
Mg0 Mg126 3.204109 1_544
Mg0 Mg48 3.204109 1_545
Mg0 Sn0 3.204497 1_555
Mg0 Mg17 3.227422 1_445
Mg1 Mg28 3.164358 1_545
Mg1 Mg147 3.164371 1_544
Mg1 Mg3 3.166477 1_555
Mg1 Mg22 3.175285 1_545
Mg1 Mg20 3.178848 1_545
Mg1 Mg43 3.180697 1_555
Mg1 Mg127 3.180697 1_554
Mg1 Mg5 3.181500 1_555
Mg1 Mg125 3.204101 1_544
Mg1 Mg47 3.204101 1_545
Mg1 Sn0 3.204481 1_655
Mg1 Mg18 3.227400 1_545
Mg2 Mg6 3.166452 1_555
Mg2 Mg32 3.176012 1_555
Mg2 Mg30 3.176012 1_555
Mg2 Mg44 3.179731 1_555
Mg2 Mg9 3.186521 1_555
Mg2 Mg4 3.186529 1_555
Mg2 Mg23 3.191100 1_545
Mg3 Mg5 3.166460 1_555
Mg3 Mg31 3.176011 1_555
Mg3 Mg33 3.176012 1_555
Mg3 Mg43 3.179739 1_555
Mg3 Mg4 3.186513 1_555
Mg3 Mg8 3.186515 1_555
Mg4 Mg8 3.186499 1_555
Mg4 Mg9 3.186501 1_555
Mg5 Mg7 3.178840 1_655
Mg5 Sn0 3.204490 1_655
Mg5 Mg6 3.227423 1_655
Mg6 Mg7 3.178834 1_555
Mg6 Sn0 3.204497 1_555
Mg8 Mg9 3.186499 1_555
Mg10 Mg40 3.172313 1_555
Mg10 Mg130 3.172313 1_554
Mg10 Mg12 3.173952 1_555
Mg10 Mg6 3.175269 1_555
Mg10 Mg139 3.175656 1_554
Mg10 Mg32 3.175656 1_555
Mg10 Mg25 3.176550 1_555
Mg10 Mg144 3.176563 1_554
Mg10 Mg15 3.181169 1_555
Mg10 Mg9 3.184816 1_555
Mg10 Mg7 3.188678 1_555
Mg10 Mg2 3.191084 1_555
Mg11 Mg41 3.172313 1_555
Mg11 Mg131 3.172313 1_554
Mg11 Mg13 3.173962 1_555
Mg11 Mg5 3.175270 1_455
Mg11 Mg140 3.175672 1_454
Mg11 Mg33 3.175672 1_455
Mg11 Mg24 3.176543 1_555
Mg11 Mg143 3.176555 1_554
Mg11 Mg14 3.181159 1_555
Mg11 Mg8 3.184833 1_455
Mg11 Mg7 3.188646 1_555
Mg11 Mg3 3.191099 1_455
Mg12 Mg130 3.172313 1_554
Mg12 Mg40 3.172313 1_555
Mg12 Mg18 3.175277 1_555
Mg12 Mg141 3.175664 1_554
Mg12 Mg34 3.175664 1_555
Mg12 Mg27 3.176543 1_555
Mg12 Mg146 3.176555 1_554
Mg12 Mg15 3.181160 1_555
Mg12 Mg9 3.184833 1_555
Mg12 Mg20 3.188655 1_555
Mg12 Mg16 3.191091 1_555
Mg13 Mg41 3.172313 1_555
Mg13 Mg131 3.172313 1_554
Mg13 Mg17 3.175271 1_455
Mg13 Mg142 3.175672 1_454
Mg13 Mg35 3.175672 1_455
Mg13 Mg26 3.176543 1_555
Mg13 Mg145 3.176555 1_554
Mg13 Mg14 3.181160 1_555
Mg13 Mg8 3.184832 1_455
Mg13 Mg21 3.188646 1_555
Mg13 Mg16 3.191107 1_455
Mg14 Mg41 3.173862 1_555
Mg14 Mg39 3.177565 1_555
Mg14 Mg37 3.177565 1_555
Mg14 Mg19 3.188848 1_555
Mg14 Mg15 3.188849 1_555
Mg14 Mg7 3.197212 1_555
Mg14 Mg21 3.197212 1_555
Mg15 Mg40 3.173863 1_555
Mg15 Mg37 3.177556 1_555
Mg15 Mg38 3.177557 1_555
Mg15 Mg19 3.188850 1_555
Mg15 Mg20 3.197202 1_555
Mg15 Mg7 3.197218 1_555
Mg16 Mg17 3.166452 1_555
Mg16 Mg18 3.166462 1_555
Mg16 Mg34 3.176011 1_555
Mg16 Mg35 3.176012 1_555
Mg16 Mg45 3.179731 1_555
Mg16 Mg9 3.186521 1_555
Mg16 Mg8 3.186530 1_555
Mg17 Mg26 3.164359 1_655
Mg17 Mg21 3.178840 1_655
Mg17 Mg45 3.180689 1_555
Mg17 Mg18 3.181500 1_555
Mg17 Mg48 3.204109 1_655
Mg17 Sn0 3.204490 1_665
Mg18 Mg27 3.164358 1_555
Mg18 Mg20 3.178848 1_555
Mg18 Mg45 3.180698 1_555
Mg18 Mg47 3.204101 1_555
Mg18 Sn0 3.204481 1_665
Mg19 Mg42 3.173863 1_555
Mg19 Mg39 3.177556 1_555
Mg19 Mg38 3.177565 1_555
Mg19 Mg22 3.181167 1_555
Mg19 Mg23 3.181169 1_555
Mg19 Mg20 3.197203 1_555
Mg19 Mg21 3.197219 1_555
Mg20 Mg28 3.171955 1_555
Mg20 Mg27 3.171955 1_555
Mg20 Mg38 3.181220 1_555
Mg20 Mg22 3.188671 1_555
Mg21 Mg26 3.171946 1_555
Mg21 Mg29 3.171955 1_555
Mg21 Mg39 3.181228 1_555
Mg21 Mg23 3.188678 1_555
Mg22 Mg42 3.172313 1_555
Mg22 Mg23 3.173944 1_555
Mg22 Mg31 3.175664 1_565
Mg22 Mg28 3.176551 1_555
Mg22 Mg4 3.184818 1_565
Mg22 Mg3 3.191091 1_565
Mg23 Mg42 3.172313 1_555
Mg23 Mg30 3.175664 1_565
Mg23 Mg29 3.176550 1_555
Mg23 Mg4 3.184816 1_565
Mg24 Mg5 3.164359 1_455
Mg24 Mg7 3.171947 1_555
Mg24 Mg46 3.178317 1_555
Mg24 Mg49 3.180063 1_555
Mg24 Mg43 3.180652 1_455
Mg24 Mg54 3.180886 1_555
Mg24 Mg33 3.185919 1_455
Mg24 Mg71 3.187427 1_455
Mg24 Mg37 3.189739 1_555
Mg24 Mg25 3.190108 1_555
Mg24 Mg41 3.191038 1_555
Mg25 Mg6 3.164351 1_555
Mg25 Mg7 3.171955 1_555
Mg25 Mg46 3.178315 1_555
Mg25 Mg49 3.180055 1_555
Mg25 Mg44 3.180654 1_555
Mg25 Mg55 3.180886 1_555
Mg25 Mg32 3.185903 1_555
Mg25 Mg70 3.187427 1_555
Mg25 Mg37 3.189732 1_555
Mg25 Mg40 3.191036 1_555
Mg26 Mg48 3.178317 1_555
Mg26 Mg51 3.180063 1_555
Mg26 Mg45 3.180652 1_455
Mg26 Mg56 3.180886 1_555
Mg26 Mg35 3.185911 1_455
Mg26 Mg72 3.187427 1_455
Mg26 Mg39 3.189739 1_555
Mg26 Mg29 3.190107 1_555
Mg26 Mg41 3.191038 1_555
Mg27 Mg47 3.178315 1_555
Mg27 Mg50 3.180055 1_555
Mg27 Mg45 3.180652 1_555
Mg27 Mg57 3.180886 1_555
Mg27 Mg34 3.185904 1_555
Mg27 Mg73 3.187427 1_555
Mg27 Mg38 3.189731 1_555
Mg27 Mg28 3.190109 1_555
Mg27 Mg40 3.191036 1_555
Mg28 Mg47 3.178316 1_555
Mg28 Mg50 3.180063 1_555
Mg28 Mg43 3.180652 1_565
Mg28 Mg53 3.180886 1_555
Mg28 Mg31 3.185920 1_565
Mg28 Mg69 3.187427 1_565
Mg28 Mg38 3.189739 1_555
Mg28 Mg42 3.191036 1_555
Mg29 Mg48 3.178316 1_555
Mg29 Mg51 3.180063 1_555
Mg29 Mg44 3.180654 1_565
Mg29 Mg52 3.180886 1_555
Mg29 Mg30 3.185911 1_565
Mg29 Mg68 3.187427 1_565
Mg29 Mg39 3.189732 1_555
Mg29 Mg42 3.191036 1_555
Mg30 Mg4 3.173912 1_555
Mg30 Mg58 3.176864 1_555
Mg30 Mg52 3.178758 1_545
Mg30 Mg44 3.180164 1_555
Mg30 Mg62 3.180443 1_555
Mg30 Mg31 3.182326 1_555
Mg30 Mg36 3.185725 1_555
Mg30 Mg42 3.186776 1_545
Mg30 Mg32 3.189122 1_555
Mg31 Mg4 3.173905 1_555
Mg31 Mg58 3.176848 1_555
Mg31 Mg53 3.178750 1_545
Mg31 Mg43 3.180180 1_555
Mg31 Mg63 3.180451 1_555
Mg31 Mg36 3.185710 1_555
Mg31 Mg42 3.186766 1_545
Mg31 Mg33 3.189120 1_555
Mg32 Mg9 3.173912 1_555
Mg32 Mg59 3.176864 1_555
Mg32 Mg55 3.178742 1_555
Mg32 Mg44 3.180172 1_555
Mg32 Mg62 3.180459 1_555
Mg32 Mg34 3.182326 1_555
Mg32 Mg36 3.185741 1_555
Mg32 Mg40 3.186760 1_555
Mg33 Mg8 3.173905 1_555
Mg33 Mg60 3.176856 1_555
Mg33 Mg54 3.178749 1_655
Mg33 Mg43 3.180181 1_555
Mg33 Mg63 3.180451 1_555
Mg33 Mg35 3.182327 1_555
Mg33 Mg36 3.185709 1_555
Mg33 Mg41 3.186766 1_655
Mg34 Mg9 3.173913 1_555
Mg34 Mg59 3.176864 1_555
Mg34 Mg57 3.178742 1_555
Mg34 Mg45 3.180172 1_555
Mg34 Mg64 3.180451 1_555
Mg34 Mg36 3.185742 1_555
Mg34 Mg40 3.186759 1_555
Mg34 Mg35 3.189120 1_555
Mg35 Mg8 3.173913 1_555
Mg35 Mg60 3.176856 1_555
Mg35 Mg56 3.178749 1_655
Mg35 Mg45 3.180165 1_555
Mg35 Mg64 3.180443 1_555
Mg35 Mg36 3.185725 1_555
Mg35 Mg41 3.186775 1_655
Mg36 Mg60 3.175038 1_555
Mg36 Mg58 3.175038 1_555
Mg36 Mg59 3.175038 1_555
Mg36 Mg8 3.177165 1_555
Mg36 Mg4 3.177165 1_555
Mg36 Mg9 3.177174 1_555
Mg37 Mg49 3.174190 1_555
Mg37 Mg66 3.177775 1_555
Mg37 Mg65 3.177792 1_555
Mg37 Mg7 3.181228 1_555
Mg37 Mg40 3.185346 1_555
Mg37 Mg41 3.185362 1_555
Mg37 Mg38 3.192693 1_555
Mg37 Mg39 3.192710 1_555
Mg38 Mg50 3.174189 1_555
Mg38 Mg66 3.177776 1_555
Mg38 Mg67 3.177784 1_555
Mg38 Mg40 3.185348 1_555
Mg38 Mg42 3.185363 1_555
Mg38 Mg39 3.192701 1_555
Mg39 Mg51 3.174182 1_555
Mg39 Mg67 3.177775 1_555
Mg39 Mg65 3.177784 1_555
Mg39 Mg42 3.185346 1_555
Mg39 Mg41 3.185362 1_555
Mg40 Mg66 3.177120 1_555
Mg40 Mg57 3.179507 1_555
Mg40 Mg55 3.179508 1_555
Mg41 Mg65 3.177111 1_555
Mg41 Mg54 3.179508 1_555
Mg41 Mg56 3.179508 1_555
Mg42 Mg67 3.177120 1_555
Mg42 Mg52 3.179500 1_555
Mg42 Mg53 3.179507 1_555
Mg43 Mg63 3.164429 1_555
Mg43 Mg71 3.178916 1_555
Mg43 Mg69 3.178916 1_555
Mg43 Mg5 3.180689 1_555
Mg43 Mg46 3.195385 1_655
Mg43 Mg47 3.195386 1_545
Mg44 Mg62 3.164421 1_555
Mg44 Mg68 3.178916 1_555
Mg44 Mg70 3.178916 1_555
Mg44 Mg6 3.180698 1_555
Mg44 Mg48 3.195385 1_545
Mg44 Mg46 3.195385 1_555
Mg45 Mg64 3.164429 1_555
Mg45 Mg72 3.178916 1_555
Mg45 Mg73 3.178916 1_555
Mg45 Mg48 3.195385 1_655
Mg45 Mg47 3.195386 1_555
Mg46 Mg70 3.166472 1_555
Mg46 Mg71 3.166473 1_455
Mg46 Mg61 3.168449 1_555
Mg46 Mg47 3.194866 1_445
Mg46 Mg48 3.194867 1_545
Mg46 Sn0 3.195455 1_555
Mg46 Mg6 3.204109 1_555
Mg46 Mg5 3.204109 1_455
Mg47 Mg73 3.166472 1_555
Mg47 Mg69 3.166473 1_565
Mg47 Mg61 3.168448 1_665
Mg47 Mg48 3.194866 1_655
Mg47 Sn0 3.195454 1_665
Mg48 Mg68 3.166472 1_565
Mg48 Mg72 3.166472 1_455
Mg48 Mg61 3.168449 1_565
Mg48 Sn0 3.195455 1_565
Mg49 Mg86 3.181947 1_555
Mg49 Mg79 3.182889 1_555
Mg49 Mg80 3.182896 1_555
Mg49 Mg55 3.185766 1_555
Mg49 Mg54 3.185782 1_555
Mg49 Mg70 3.186971 1_555
Mg49 Mg71 3.186978 1_455
Mg49 Mg66 3.188741 1_555
Mg49 Mg65 3.188758 1_555
Mg50 Mg90 3.181946 1_555
Mg50 Mg92 3.182897 1_555
Mg50 Mg96 3.182905 1_555
Mg50 Mg57 3.185768 1_555
Mg50 Mg53 3.185784 1_555
Mg50 Mg73 3.186970 1_555
Mg50 Mg69 3.186978 1_565
Mg50 Mg66 3.188741 1_555
Mg50 Mg67 3.188749 1_555
Mg51 Mg89 3.181939 1_555
Mg51 Mg93 3.182896 1_555
Mg51 Mg95 3.182897 1_555
Mg51 Mg52 3.185766 1_555
Mg51 Mg56 3.185774 1_555
Mg51 Mg72 3.186986 1_455
Mg51 Mg68 3.186987 1_565
Mg51 Mg65 3.188727 1_555
Mg51 Mg67 3.188733 1_555
Mg52 Mg76 3.178847 1_565
Mg52 Mg95 3.179905 1_555
Mg52 Mg94 3.180997 1_555
Mg52 Mg62 3.185906 1_565
Mg52 Mg67 3.187949 1_555
Mg52 Mg58 3.188138 1_565
Mg52 Mg68 3.188228 1_565
Mg52 Mg53 3.190010 1_555
Mg53 Mg75 3.178839 1_565
Mg53 Mg96 3.179897 1_555
Mg53 Mg94 3.181004 1_555
Mg53 Mg63 3.185897 1_565
Mg53 Mg67 3.187963 1_555
Mg53 Mg58 3.188123 1_565
Mg53 Mg69 3.188220 1_565
Mg54 Mg83 3.178838 1_455
Mg54 Mg80 3.179897 1_555
Mg54 Mg88 3.181005 1_555
Mg54 Mg63 3.185897 1_455
Mg54 Mg65 3.187955 1_555
Mg54 Mg60 3.188130 1_455
Mg54 Mg71 3.188221 1_455
Mg54 Mg56 3.190020 1_555
Mg55 Mg82 3.178839 1_555
Mg55 Mg79 3.179905 1_555
Mg55 Mg87 3.181005 1_555
Mg55 Mg62 3.185906 1_555
Mg55 Mg66 3.187964 1_555
Mg55 Mg59 3.188138 1_555
Mg55 Mg70 3.188220 1_555
Mg55 Mg57 3.190018 1_555
Mg56 Mg85 3.178838 1_455
Mg56 Mg93 3.179897 1_555
Mg56 Mg88 3.181005 1_555
Mg56 Mg64 3.185897 1_455
Mg56 Mg65 3.187947 1_555
Mg56 Mg60 3.188122 1_455
Mg56 Mg72 3.188221 1_455
Mg57 Mg84 3.178839 1_555
Mg57 Mg92 3.179897 1_555
Mg57 Mg87 3.181004 1_555
Mg57 Mg64 3.185897 1_555
Mg57 Mg66 3.187963 1_555
Mg57 Mg59 3.188139 1_555
Mg57 Mg73 3.188220 1_555
Mg58 Mg81 3.181096 1_555
Mg58 Mg75 3.181873 1_555
Mg58 Mg76 3.181880 1_555
Mg58 Mg63 3.185236 1_555
Mg58 Mg62 3.185260 1_555
Mg58 Mg59 3.185552 1_555
Mg58 Mg60 3.185558 1_555
Mg59 Mg81 3.181096 1_555
Mg59 Mg82 3.181880 1_555
Mg59 Mg84 3.181881 1_555
Mg59 Mg64 3.185244 1_555
Mg59 Mg62 3.185260 1_555
Mg59 Mg60 3.185543 1_555
Mg60 Mg81 3.181095 1_555
Mg60 Mg85 3.181873 1_555
Mg60 Mg83 3.181881 1_555
Mg60 Mg64 3.185237 1_555
Mg60 Mg63 3.185253 1_555
Mg61 Mg98 3.174020 1_445
Mg61 Mg74 3.174020 1_555
Mg61 Mg97 3.174020 1_545
Mg61 Mg70 3.183466 1_555
Mg61 Mg73 3.183466 1_445
Mg61 Mg68 3.183467 1_555
Mg61 Mg69 3.183467 1_455
Mg61 Mg72 3.183468 1_445
Mg61 Mg71 3.183468 1_455
Mg62 Mg76 3.180290 1_555
Mg62 Mg82 3.180298 1_555
Mg62 Mg78 3.181606 1_555
Mg62 Mg68 3.188957 1_555
Mg62 Mg70 3.188965 1_555
Mg63 Mg75 3.180289 1_555
Mg63 Mg83 3.180290 1_555
Mg63 Mg77 3.181614 1_555
Mg63 Mg71 3.188973 1_555
Mg63 Mg69 3.188974 1_555
Mg64 Mg84 3.180289 1_555
Mg64 Mg85 3.180290 1_555
Mg64 Mg91 3.181614 1_555
Mg64 Mg72 3.188973 1_555
Mg64 Mg73 3.188974 1_555
Mg65 Mg88 3.181717 1_555
Mg65 Mg89 3.182076 1_555
Mg65 Mg86 3.182084 1_555
Mg65 Mg67 3.185645 1_555
Mg65 Mg66 3.185653 1_555
Mg66 Mg87 3.181725 1_555
Mg66 Mg86 3.182084 1_555
Mg66 Mg90 3.182084 1_555
Mg66 Mg67 3.185638 1_555
Mg67 Mg94 3.181725 1_555
Mg67 Mg90 3.182076 1_555
Mg67 Mg89 3.182084 1_555
Mg68 Mg78 3.171075 1_555
Mg68 Mg97 3.171693 1_545
Mg68 Mg95 3.173206 1_545
Mg68 Mg70 3.181976 1_555
Mg68 Mg72 3.184952 1_445
Mg69 Mg77 3.171075 1_555
Mg69 Mg98 3.171693 1_545
Mg69 Mg96 3.173205 1_545
Mg69 Mg71 3.181975 1_555
Mg69 Mg73 3.184953 1_545
Mg70 Mg78 3.171075 1_555
Mg70 Mg74 3.171693 1_555
Mg70 Mg79 3.173206 1_555
Mg70 Mg71 3.184952 1_455
Mg71 Mg77 3.171074 1_555
Mg71 Mg74 3.171693 1_655
Mg71 Mg80 3.173214 1_655
Mg72 Mg91 3.171074 1_555
Mg72 Mg97 3.171693 1_655
Mg72 Mg93 3.173214 1_655
Mg72 Mg73 3.181975 1_555
Mg73 Mg91 3.171075 1_555
Mg73 Mg98 3.171693 1_555
Mg73 Mg92 3.173205 1_555
Mg74 Mg98 3.181605 1_445
Mg74 Mg97 3.181606 1_545
Mg74 Mg77 3.184777 1_455
Mg74 Mg78 3.184777 1_555
Mg74 Mg79 3.187970 1_555
Mg74 Mg80 3.187987 1_555
Mg75 Mg94 3.183112 1_545
Mg75 Mg76 3.184370 1_555
Mg75 Mg96 3.184746 1_545
Mg75 Mg81 3.188472 1_555
Mg75 Mg77 3.189716 1_555
Mg75 Mg83 3.192586 1_555
Mg76 Mg94 3.183114 1_545
Mg76 Mg95 3.184761 1_545
Mg76 Mg81 3.188479 1_555
Mg76 Mg78 3.189716 1_555
Mg76 Mg82 3.192587 1_555
Mg77 Mg98 3.184778 1_545
Mg77 Mg96 3.185324 1_545
Mg77 Mg80 3.185340 1_655
Mg77 Mg83 3.189717 1_555
Mg78 Mg99 3.171087 1_555
Mg78 Mg97 3.184777 1_545
Mg78 Mg79 3.185334 1_555
Mg78 Mg95 3.185334 1_545
Mg78 Mg82 3.189716 1_555
Mg79 Mg86 3.184210 1_555
Mg79 Mg82 3.184761 1_555
Mg79 Mg80 3.186888 1_555
Mg79 Mg87 3.187905 1_555
Mg80 Mg86 3.184192 1_555
Mg80 Mg83 3.184753 1_455
Mg80 Mg88 3.187890 1_555
Mg81 Mg83 3.188471 1_555
Mg81 Mg85 3.188479 1_555
Mg81 Mg82 3.188487 1_555
Mg81 Mg84 3.188488 1_555
Mg82 Mg87 3.183114 1_555
Mg82 Mg84 3.184370 1_555
Mg83 Mg88 3.183112 1_655
Mg83 Mg85 3.184371 1_555
Mg84 Mg87 3.183113 1_555
Mg84 Mg92 3.184746 1_555
Mg84 Mg91 3.189716 1_555
Mg84 Mg85 3.192586 1_555
Mg85 Mg88 3.183112 1_655
Mg85 Mg93 3.184753 1_655
Mg85 Mg91 3.189717 1_555
Mg86 Mg88 3.187266 1_555
Mg86 Mg87 3.187282 1_555
Mg86 Mg89 3.194275 1_555
Mg86 Mg90 3.194290 1_555
Mg87 Mg90 3.187283 1_555
Mg87 Mg92 3.187897 1_555
Mg88 Mg89 3.187266 1_555
Mg88 Mg93 3.187890 1_555
Mg89 Mg93 3.184192 1_555
Mg89 Mg95 3.184210 1_555
Mg89 Mg94 3.187282 1_555
Mg89 Mg90 3.194282 1_555
Mg90 Mg96 3.184208 1_555
Mg90 Mg92 3.184217 1_555
Mg90 Mg94 3.187267 1_555
Mg91 Mg97 3.184777 1_655
Mg91 Mg98 3.184778 1_555
Mg91 Mg92 3.185324 1_555
Mg91 Mg93 3.185340 1_655
Mg92 Mg96 3.186913 1_555
Mg92 Mg98 3.187977 1_555
Mg93 Mg95 3.186888 1_555
Mg93 Mg97 3.187987 1_555
Mg94 Mg96 3.187897 1_555
Mg94 Mg95 3.187905 1_555
Mg95 Mg99 3.173219 1_565
Mg95 Mg97 3.187970 1_555
Mg96 Mg98 3.187978 1_555
Mg97 Mg99 3.171705 1_565
Mg97 Mg98 3.181605 1_455
Mg100 Mg125 3.166460 1_545
Mg100 Mg77 3.171087 1_555
Mg100 Mg98 3.171706 1_545
Mg100 Mg96 3.173218 1_545
Mg100 Mg127 3.178903 1_555
Mg100 Mg102 3.181975 1_555
Mg100 Mg111 3.183467 1_655
Mg100 Mg104 3.184953 1_545
Mg100 Mg122 3.186978 1_545
Mg100 Mg147 3.187401 1_545
Mg100 Mg116 3.188220 1_545
Mg100 Mg109 3.188974 1_555
Mg101 Mg124 3.166459 1_555
Mg101 Mg78 3.171087 1_555
Mg101 Mg74 3.171705 1_555
Mg101 Mg79 3.173218 1_555
Mg101 Mg128 3.178903 1_555
Mg101 Mg99 3.181976 1_555
Mg101 Mg111 3.183466 1_555
Mg101 Mg102 3.184952 1_455
Mg101 Mg121 3.186971 1_555
Mg101 Mg144 3.187402 1_555
Mg101 Mg118 3.188220 1_555
Mg101 Mg108 3.188965 1_555
Mg102 Mg124 3.166460 1_655
Mg102 Mg77 3.171087 1_555
Mg102 Mg74 3.171706 1_655
Mg102 Mg80 3.173226 1_655
Mg102 Mg127 3.178903 1_555
Mg102 Mg111 3.183468 1_655
Mg102 Mg121 3.186978 1_655
Mg102 Mg143 3.187402 1_655
Mg102 Mg117 3.188221 1_655
Mg102 Mg109 3.188973 1_555
Mg103 Mg126 3.166460 1_655
Mg103 Mg91 3.171087 1_555
Mg103 Mg97 3.171706 1_655
Mg103 Mg93 3.173227 1_655
Mg103 Mg129 3.178903 1_555
Mg103 Mg104 3.181975 1_555
Mg103 Mg111 3.183468 1_665
Mg103 Mg99 3.184952 1_665
Mg103 Mg123 3.186986 1_655
Mg103 Mg145 3.187402 1_655
Mg103 Mg119 3.188221 1_655
Mg103 Mg110 3.188973 1_555
Mg104 Mg125 3.166460 1_555
Mg104 Mg91 3.171087 1_555
Mg104 Mg98 3.171706 1_555
Mg104 Mg92 3.173218 1_555
Mg104 Mg129 3.178903 1_555
Mg104 Mg111 3.183466 1_665
Mg104 Mg122 3.186970 1_555
Mg104 Mg146 3.187401 1_555
Mg104 Mg120 3.188220 1_555
Mg104 Mg110 3.188974 1_555
Mg105 Mg131 3.177099 1_555
Mg105 Mg135 3.177771 1_555
Mg105 Mg133 3.177779 1_555
Mg105 Mg88 3.181729 1_555
Mg105 Mg89 3.182089 1_555
Mg105 Mg86 3.182097 1_555
Mg105 Mg107 3.185645 1_555
Mg105 Mg106 3.185653 1_555
Mg105 Mg119 3.187947 1_555
Mg105 Mg117 3.187955 1_555
Mg105 Mg123 3.188727 1_555
Mg105 Mg121 3.188758 1_555
Mg106 Mg130 3.177107 1_555
Mg106 Mg133 3.177763 1_555
Mg106 Mg134 3.177763 1_555
Mg106 Mg87 3.181738 1_555
Mg106 Mg86 3.182096 1_555
Mg106 Mg90 3.182097 1_555
Mg106 Mg107 3.185638 1_555
Mg106 Mg120 3.187963 1_555
Mg106 Mg118 3.187964 1_555
Mg106 Mg122 3.188741 1_555
Mg106 Mg121 3.188741 1_555
Mg107 Mg132 3.177107 1_555
Mg107 Mg135 3.177763 1_555
Mg107 Mg134 3.177771 1_555
Mg107 Mg94 3.181738 1_555
Mg107 Mg90 3.182089 1_555
Mg107 Mg89 3.182096 1_555
Mg107 Mg115 3.187949 1_555
Mg107 Mg116 3.187963 1_555
Mg107 Mg123 3.188733 1_555
Mg107 Mg122 3.188749 1_555
Mg108 Mg128 3.164408 1_555
Mg108 Mg76 3.180302 1_555
Mg108 Mg82 3.180310 1_555
Mg108 Mg137 3.180431 1_555
Mg108 Mg139 3.180446 1_555
Mg108 Mg78 3.181618 1_555
Mg108 Mg113 3.185260 1_555
Mg108 Mg112 3.185260 1_555
Mg108 Mg118 3.185906 1_555
Mg108 Mg115 3.185906 1_545
Mg108 Mg99 3.188957 1_555
Mg109 Mg127 3.164417 1_555
Mg109 Mg75 3.180302 1_555
Mg109 Mg83 3.180302 1_555
Mg109 Mg138 3.180438 1_555
Mg109 Mg140 3.180438 1_555
Mg109 Mg77 3.181627 1_555
Mg109 Mg112 3.185236 1_555
Mg109 Mg114 3.185253 1_555
Mg109 Mg117 3.185897 1_655
Mg109 Mg116 3.185897 1_545
Mg110 Mg129 3.164416 1_555
Mg110 Mg84 3.180302 1_555
Mg110 Mg85 3.180302 1_555
Mg110 Mg142 3.180431 1_555
Mg110 Mg141 3.180438 1_555
Mg110 Mg91 3.181627 1_555
Mg110 Mg114 3.185237 1_555
Mg110 Mg113 3.185244 1_555
Mg110 Mg120 3.185897 1_555
Mg110 Mg119 3.185897 1_655
Mg111 Mg125 3.168448 1_445
Mg111 Mg124 3.168449 1_555
Mg111 Mg126 3.168449 1_545
Mg111 Mg98 3.174020 1_445
Mg111 Mg74 3.174020 1_555
Mg111 Mg97 3.174020 1_545
Mg111 Mg99 3.183467 1_555
Mg112 Mg136 3.175038 1_555
Mg112 Mg138 3.176848 1_555
Mg112 Mg137 3.176864 1_555
Mg112 Mg81 3.181096 1_555
Mg112 Mg75 3.181873 1_555
Mg112 Mg76 3.181880 1_555
Mg112 Mg113 3.185552 1_555
Mg112 Mg114 3.185558 1_555
Mg112 Mg116 3.188123 1_545
Mg112 Mg115 3.188138 1_545
Mg113 Mg136 3.175038 1_555
Mg113 Mg139 3.176864 1_555
Mg113 Mg141 3.176864 1_555
Mg113 Mg81 3.181096 1_555
Mg113 Mg82 3.181880 1_555
Mg113 Mg84 3.181881 1_555
Mg113 Mg114 3.185543 1_555
Mg113 Mg118 3.188138 1_555
Mg113 Mg120 3.188139 1_555
Mg114 Mg136 3.175038 1_555
Mg114 Mg142 3.176856 1_555
Mg114 Mg140 3.176856 1_555
Mg114 Mg81 3.181095 1_555
Mg114 Mg85 3.181873 1_555
Mg114 Mg83 3.181881 1_555
Mg114 Mg119 3.188122 1_655
Mg114 Mg117 3.188130 1_655
Mg115 Mg137 3.178758 1_565
Mg115 Mg76 3.178847 1_565
Mg115 Mg132 3.179500 1_555
Mg115 Mg95 3.179905 1_555
Mg115 Mg148 3.180873 1_555
Mg115 Mg94 3.180997 1_555
Mg115 Mg123 3.185766 1_555
Mg115 Mg99 3.188228 1_565
Mg115 Mg116 3.190010 1_555
Mg116 Mg138 3.178750 1_565
Mg116 Mg75 3.178839 1_565
Mg116 Mg132 3.179507 1_555
Mg116 Mg96 3.179897 1_555
Mg116 Mg147 3.180874 1_555
Mg116 Mg94 3.181004 1_555
Mg116 Mg122 3.185784 1_555
Mg117 Mg140 3.178749 1_455
Mg117 Mg83 3.178838 1_455
Mg117 Mg131 3.179508 1_555
Mg117 Mg80 3.179897 1_555
Mg117 Mg143 3.180874 1_555
Mg117 Mg88 3.181005 1_555
Mg117 Mg121 3.185782 1_555
Mg117 Mg119 3.190020 1_555
Mg118 Mg139 3.178742 1_555
Mg118 Mg82 3.178839 1_555
Mg118 Mg130 3.179508 1_555
Mg118 Mg79 3.179905 1_555
Mg118 Mg144 3.180873 1_555
Mg118 Mg87 3.181005 1_555
Mg118 Mg121 3.185766 1_555
Mg118 Mg120 3.190018 1_555
Mg119 Mg142 3.178749 1_455
Mg119 Mg85 3.178838 1_455
Mg119 Mg131 3.179508 1_555
Mg119 Mg93 3.179897 1_555
Mg119 Mg145 3.180874 1_555
Mg119 Mg88 3.181005 1_555
Mg119 Mg123 3.185774 1_555
Mg120 Mg141 3.178742 1_555
Mg120 Mg84 3.178839 1_555
Mg120 Mg130 3.179507 1_555
Mg120 Mg92 3.179897 1_555
Mg120 Mg146 3.180874 1_555
Mg120 Mg87 3.181004 1_555
Mg120 Mg122 3.185768 1_555
Mg121 Mg133 3.174190 1_555
Mg121 Mg144 3.180042 1_555
Mg121 Mg143 3.180050 1_555
Mg121 Mg86 3.181947 1_555
Mg121 Mg79 3.182889 1_555
Mg121 Mg80 3.182896 1_555
Mg122 Mg134 3.174189 1_555
Mg122 Mg146 3.180042 1_555
Mg122 Mg147 3.180050 1_555
Mg122 Mg90 3.181946 1_555
Mg122 Mg92 3.182897 1_555
Mg122 Mg96 3.182905 1_555
Mg123 Mg135 3.174182 1_555
Mg123 Mg145 3.180050 1_555
Mg123 Mg148 3.180050 1_555
Mg123 Mg89 3.181939 1_555
Mg123 Mg93 3.182896 1_555
Mg123 Mg95 3.182897 1_555
Mg123 Mg99 3.186987 1_565
Mg124 Mg144 3.178315 1_555
Mg124 Mg143 3.178317 1_555
Mg124 Mg125 3.194866 1_445
Mg124 Mg126 3.194867 1_545
Mg124 Mg127 3.195385 1_455
Mg124 Mg128 3.195385 1_555
Mg124 Sn0 3.195455 1_556
Mg124 Mg6 3.204109 1_556
Mg124 Mg5 3.204109 1_456
Mg125 Mg146 3.178315 1_555
Mg125 Mg147 3.178315 1_555
Mg125 Mg126 3.194866 1_655
Mg125 Mg127 3.195386 1_565
Mg125 Mg129 3.195386 1_555
Mg125 Sn0 3.195454 1_666
Mg125 Mg18 3.204101 1_556
Mg126 Mg99 3.166459 1_565
Mg126 Mg148 3.178315 1_555
Mg126 Mg145 3.178317 1_555
Mg126 Mg128 3.195385 1_565
Mg126 Mg129 3.195385 1_455
Mg126 Sn0 3.195455 1_566
Mg126 Mg17 3.204109 1_456
Mg127 Mg3 3.179739 1_556
Mg127 Mg138 3.180180 1_555
Mg127 Mg140 3.180181 1_555
Mg127 Mg143 3.180652 1_655
Mg127 Mg147 3.180652 1_545
Mg127 Mg5 3.180689 1_556
Mg128 Mg99 3.178903 1_555
Mg128 Mg2 3.179731 1_556
Mg128 Mg137 3.180164 1_555
Mg128 Mg139 3.180172 1_555
Mg128 Mg148 3.180653 1_545
Mg128 Mg144 3.180654 1_555
Mg128 Mg6 3.180698 1_556
Mg129 Mg16 3.179731 1_556
Mg129 Mg142 3.180165 1_555
Mg129 Mg141 3.180172 1_555
Mg129 Mg145 3.180652 1_655
Mg129 Mg146 3.180652 1_555
Mg129 Mg17 3.180689 1_556
Mg129 Mg18 3.180698 1_556
Mg130 Mg15 3.173863 1_556
Mg130 Mg133 3.185346 1_555
Mg130 Mg134 3.185348 1_555
Mg130 Mg141 3.186759 1_555
Mg130 Mg139 3.186760 1_555
Mg130 Mg146 3.191036 1_555
Mg130 Mg144 3.191036 1_555
Mg131 Mg14 3.173862 1_556
Mg131 Mg135 3.185362 1_555
Mg131 Mg133 3.185362 1_555
Mg131 Mg140 3.186766 1_455
Mg131 Mg142 3.186775 1_455
Mg131 Mg143 3.191038 1_555
Mg131 Mg145 3.191038 1_555
Mg132 Mg22 3.172313 1_556
Mg132 Mg23 3.172313 1_556
Mg132 Mg19 3.173863 1_556
Mg132 Mg135 3.185346 1_555
Mg132 Mg134 3.185363 1_555
Mg132 Mg138 3.186766 1_565
Mg132 Mg137 3.186776 1_565
Mg132 Mg147 3.191036 1_555
Mg132 Mg148 3.191036 1_555
Mg133 Mg15 3.177556 1_556
Mg133 Mg14 3.177565 1_556
Mg133 Mg7 3.181228 1_556
Mg133 Mg144 3.189732 1_555
Mg133 Mg143 3.189739 1_555
Mg133 Mg134 3.192693 1_555
Mg133 Mg135 3.192710 1_555
Mg134 Mg15 3.177557 1_556
Mg134 Mg19 3.177565 1_556
Mg134 Mg20 3.181220 1_556
Mg134 Mg146 3.189731 1_555
Mg134 Mg147 3.189739 1_555
Mg134 Mg135 3.192701 1_555
Mg135 Mg19 3.177556 1_556
Mg135 Mg14 3.177565 1_556
Mg135 Mg21 3.181228 1_556
Mg135 Mg148 3.189732 1_555
Mg135 Mg145 3.189739 1_555
Mg136 Mg8 3.177165 1_556
Mg136 Mg4 3.177165 1_556
Mg136 Mg9 3.177174 1_556
Mg136 Mg140 3.185709 1_555
Mg136 Mg138 3.185710 1_555
Mg136 Mg142 3.185725 1_555
Mg136 Mg137 3.185725 1_555
Mg136 Mg139 3.185741 1_555
Mg136 Mg141 3.185742 1_555
Mg137 Mg4 3.173912 1_556
Mg137 Mg23 3.175664 1_546
Mg137 Mg2 3.176012 1_556
Mg137 Mg138 3.182326 1_555
Mg137 Mg148 3.185911 1_545
Mg137 Mg139 3.189122 1_555
Mg138 Mg4 3.173905 1_556
Mg138 Mg22 3.175664 1_546
Mg138 Mg3 3.176011 1_556
Mg138 Mg147 3.185920 1_545
Mg138 Mg140 3.189120 1_555
Mg139 Mg9 3.173912 1_556
Mg139 Mg2 3.176012 1_556
Mg139 Mg141 3.182326 1_555
Mg139 Mg144 3.185903 1_555
Mg140 Mg8 3.173905 1_556
Mg140 Mg3 3.176012 1_556
Mg140 Mg142 3.182327 1_555
Mg140 Mg143 3.185919 1_655
Mg141 Mg9 3.173913 1_556
Mg141 Mg16 3.176011 1_556
Mg141 Mg146 3.185904 1_555
Mg141 Mg142 3.189120 1_555
Mg142 Mg8 3.173913 1_556
Mg142 Mg16 3.176012 1_556
Mg142 Mg145 3.185911 1_655
Mg143 Mg5 3.164372 1_456
Mg143 Mg7 3.171959 1_556
Mg143 Mg144 3.190108 1_555
Mg144 Mg6 3.164364 1_556
Mg144 Mg7 3.171968 1_556
Mg145 Mg17 3.164372 1_456
Mg145 Mg21 3.171959 1_556
Mg145 Mg148 3.190107 1_555
Mg146 Mg18 3.164371 1_556
Mg146 Mg20 3.171968 1_556
Mg146 Mg147 3.190109 1_555
Mg147 Mg20 3.171968 1_556
Mg147 Mg22 3.176563 1_556
Mg148 Mg21 3.171968 1_556
Mg148 Mg23 3.176563 1_556
Mg148 Mg99 3.187402 1_565
