# generated using pymatgen
data_Sr3Cr3N5
_symmetry_space_group_name_H-M   'P 1'
_cell_length_a   5.68794587
_cell_length_b   7.19475100
_cell_length_c   8.63791797
_cell_angle_alpha   107.87871921
_cell_angle_beta   103.16157069
_cell_angle_gamma   95.34112570
_symmetry_Int_Tables_number   1
_chemical_formula_structural   Sr3Cr3N5
_chemical_formula_sum   'Sr6 Cr6 N10'
_cell_volume   322.47820996
_cell_formula_units_Z   2
loop_
 _symmetry_equiv_pos_site_id
 _symmetry_equiv_pos_as_xyz
  1  'x, y, z'
loop_
 _atom_site_type_symbol
 _atom_site_label
 _atom_site_symmetry_multiplicity
 _atom_site_fract_x
 _atom_site_fract_y
 _atom_site_fract_z
 _atom_site_occupancy
  Sr  Sr0  1  0.81340100  0.42061300  0.61132100  1
  Sr  Sr1  1  0.18659900  0.57938700  0.38867900  1
  Sr  Sr2  1  0.66188500  0.86847500  0.88240200  1
  Sr  Sr3  1  0.33811500  0.13152500  0.11759800  1
  Sr  Sr4  1  0.65233700  0.67958000  0.20861400  1
  Sr  Sr5  1  0.34766300  0.32042000  0.79138600  1
  Cr  Cr0  1  0.91399900  0.32324600  0.97295200  1
  Cr  Cr1  1  0.08600100  0.67675400  0.02704800  1
  Cr  Cr2  1  0.69099100  0.96095300  0.57230700  1
  Cr  Cr3  1  0.30900900  0.03904700  0.42769300  1
  Cr  Cr4  1  0.09722900  0.88735900  0.69970000  1
  Cr  Cr5  1  0.90277100  0.11264100  0.30030000  1
  N  N0  1  0.92749400  0.11373700  0.78225200  1
  N  N1  1  0.07250600  0.88626300  0.21774800  1
  N  N2  1  0.82171400  0.72839500  0.52024200  1
  N  N3  1  0.17828600  0.27160500  0.47975800  1
  N  N4  1  0.76830700  0.53045900  0.92196600  1
  N  N5  1  0.23169300  0.46954100  0.07803400  1
  N  N6  1  0.37257700  0.93842600  0.61597500  1
  N  N7  1  0.62742300  0.06157400  0.38402500  1
  N  N8  1  0.16242100  0.78514000  0.87093000  1
  N  N9  1  0.83757900  0.21486000  0.12907000  1
loop_
_geom_bond_atom_site_label_1
_geom_bond_atom_site_label_2
_geom_bond_distance
_geom_bond_site_symmetry_2
Cr0 N9 1.861482 1_556
Cr0 N5 1.873354 1_656
Cr0 N0 1.883087 1_555
Cr0 N4 1.889513 1_555
Cr1 N8 1.861482 1_554
Cr1 N4 1.873354 1_454
Cr1 N1 1.883087 1_555
Cr1 N5 1.889513 1_555
Cr2 N2 1.864556 1_555
Cr2 N0 1.922611 1_565
Cr2 N6 1.934607 1_555
Cr2 N7 1.950322 1_565
Cr3 N3 1.864556 1_555
Cr3 N1 1.922611 1_545
Cr3 N7 1.934607 1_555
Cr3 N6 1.950322 1_545
Cr4 N8 1.826178 1_555
Cr4 N2 1.907441 1_455
Cr4 N6 1.919044 1_555
Cr4 N0 1.996615 1_465
Cr5 N9 1.826178 1_555
Cr5 N3 1.907441 1_655
Cr5 N7 1.919044 1_555
Cr5 N1 1.996615 1_645
N0 Sr5 2.666379 1_655
N0 Sr2 2.679697 1_545
N0 Sr0 3.050899 1_555
N1 Sr4 2.666379 1_455
N1 Sr3 2.679697 1_565
N1 Sr1 3.050899 1_555
N2 Sr4 2.544194 1_555
N2 Sr0 2.567481 1_555
N2 Sr1 2.736523 1_655
N3 Sr5 2.544194 1_555
N3 Sr1 2.567481 1_555
N3 Sr0 2.736523 1_455
N4 Sr5 2.516297 1_555
N4 Sr0 2.634328 1_555
N4 Sr4 2.638448 1_556
N4 Sr2 2.662276 1_555
N5 Sr4 2.516297 1_555
N5 Sr1 2.634328 1_555
N5 Sr5 2.638448 1_554
N5 Sr3 2.662276 1_555
N6 Sr1 2.660466 1_555
N6 Sr2 2.719971 1_555
N6 Sr5 2.735454 1_565
N7 Sr0 2.660466 1_555
N7 Sr3 2.719971 1_555
N7 Sr4 2.735454 1_545
N8 Sr3 2.656250 1_566
N8 Sr2 2.821057 1_555
N8 Sr2 2.980710 1_455
N8 Sr0 3.039807 1_455
N9 Sr2 2.656250 1_544
N9 Sr3 2.821057 1_555
N9 Sr3 2.980710 1_655
N9 Sr1 3.039807 1_655
