# generated using pymatgen
data_ZnNi2O5
_symmetry_space_group_name_H-M   'P 1'
_cell_length_a   3.83143700
_cell_length_b   5.56847300
_cell_length_c   10.75647100
_cell_angle_alpha   90.00000000
_cell_angle_beta   90.00000000
_cell_angle_gamma   90.00000000
_symmetry_Int_Tables_number   1
_chemical_formula_structural   ZnNi2O5
_chemical_formula_sum   'Zn2 Ni4 O10'
_cell_volume   229.49203540
_cell_formula_units_Z   2
loop_
 _symmetry_equiv_pos_site_id
 _symmetry_equiv_pos_as_xyz
  1  'x, y, z'
loop_
 _atom_site_type_symbol
 _atom_site_label
 _atom_site_symmetry_multiplicity
 _atom_site_fract_x
 _atom_site_fract_y
 _atom_site_fract_z
 _atom_site_occupancy
  Zn  Zn0  1  0.00000000  0.72944400  0.50000000  1
  Zn  Zn1  1  0.50000000  0.27055600  0.00000000  1
  Ni  Ni0  1  0.50000000  0.99321400  0.65278300  1
  Ni  Ni1  1  0.00000000  0.00678600  0.84721700  1
  Ni  Ni2  1  0.00000000  0.00678600  0.15278300  1
  Ni  Ni3  1  0.50000000  0.99321400  0.34721700  1
  O  O0  1  0.00000000  0.20036300  0.00000000  1
  O  O1  1  0.50000000  0.79963700  0.50000000  1
  O  O2  1  0.00000000  0.91506800  0.67096600  1
  O  O3  1  0.50000000  0.08493200  0.82903400  1
  O  O4  1  0.00000000  0.91506800  0.32903400  1
  O  O5  1  0.50000000  0.08493200  0.17096600  1
  O  O6  1  0.50000000  0.31374300  0.43871200  1
  O  O7  1  0.00000000  0.68625700  0.06128800  1
  O  O8  1  0.00000000  0.68625700  0.93871200  1
  O  O9  1  0.50000000  0.31374300  0.56128800  1
loop_
_geom_bond_atom_site_label_1
_geom_bond_atom_site_label_2
_geom_bond_distance
_geom_bond_site_symmetry_2
Ni0 O3 1.963428 1_565
Ni0 O1 1.965378 1_555
Ni0 O2 1.974231 1_555
Ni0 O2 1.974231 1_655
Ni0 O9 2.038208 1_565
Ni1 O2 1.963428 1_545
Ni1 O0 1.965378 1_556
Ni1 O3 1.974231 1_455
Ni1 O3 1.974231 1_555
Ni1 O8 2.038208 1_545
Ni2 O4 1.963428 1_545
Ni2 O0 1.965378 1_555
Ni2 O5 1.974231 1_555
Ni2 O5 1.974231 1_455
Ni2 O7 2.038208 1_545
Ni3 O5 1.963428 1_565
Ni3 O1 1.965378 1_555
Ni3 O4 1.974231 1_655
Ni3 O4 1.974231 1_555
Ni3 O6 2.038208 1_565
O0 Zn1 1.955187 1_555
O0 Zn1 1.955187 1_455
O1 Zn0 1.955187 1_555
O1 Zn0 1.955187 1_655
O2 Zn0 2.109574 1_555
O3 Zn1 2.109574 1_556
O4 Zn0 2.109574 1_555
O5 Zn1 2.109574 1_555
O6 O9 1.318485 1_555
O7 O8 1.318485 1_554
