# generated using pymatgen
data_TaCo3
_symmetry_space_group_name_H-M   'P 1'
_cell_length_a   4.69910002
_cell_length_b   4.69910002
_cell_length_c   7.66576800
_cell_angle_alpha   90.00000000
_cell_angle_beta   90.00000000
_cell_angle_gamma   120.00000031
_symmetry_Int_Tables_number   1
_chemical_formula_structural   TaCo3
_chemical_formula_sum   'Ta3 Co9'
_cell_volume   146.59382615
_cell_formula_units_Z   3
loop_
 _symmetry_equiv_pos_site_id
 _symmetry_equiv_pos_as_xyz
  1  'x, y, z'
loop_
 _atom_site_type_symbol
 _atom_site_label
 _atom_site_symmetry_multiplicity
 _atom_site_fract_x
 _atom_site_fract_y
 _atom_site_fract_z
 _atom_site_occupancy
  Ta  Ta0  1  0.00000000  0.00000000  0.45312900  1
  Ta  Ta1  1  0.00000000  0.00000000  0.06999800  1
  Ta  Ta2  1  0.33333300  0.66666700  0.90606000  1
  Co  Co0  1  0.66666700  0.33333300  0.50091000  1
  Co  Co1  1  0.66666700  0.33333300  0.00498400  1
  Co  Co2  1  0.83510800  0.67021600  0.75022400  1
  Co  Co3  1  0.83510800  0.16489200  0.75022400  1
  Co  Co4  1  0.32978400  0.16489200  0.75022400  1
  Co  Co5  1  0.49570900  0.99141700  0.25172000  1
  Co  Co6  1  0.49570900  0.50429100  0.25172000  1
  Co  Co7  1  0.00858300  0.50429100  0.25172000  1
  Co  Co8  1  0.33333300  0.66666700  0.55918200  1
loop_
_geom_bond_atom_site_label_1
_geom_bond_atom_site_label_2
_geom_bond_distance
_geom_bond_site_symmetry_2
Ta1 Ta2 2.989953 1_544
Ta1 Ta2 2.989957 1_554
Ta1 Ta2 2.989957 1_444
Co0 Co3 2.352050 1_555
Co0 Co2 2.352052 1_555
Co0 Co4 2.352052 1_555
Co0 Co7 2.363281 1_655
Co0 Co5 2.363281 1_545
Co0 Co6 2.363281 1_555
Co0 Ta0 2.737637 1_655
Co0 Ta0 2.737641 1_665
Co0 Ta0 2.737641 1_555
Co0 Co8 2.749553 1_545
Co0 Co8 2.749553 1_655
Co0 Co8 2.749561 1_555
Co1 Co7 2.348102 1_655
Co1 Co5 2.348102 1_545
Co1 Co6 2.348102 1_555
Co1 Co3 2.386097 1_554
Co1 Co4 2.386099 1_554
Co1 Co2 2.386099 1_554
Co1 Ta1 2.758421 1_655
Co1 Ta1 2.758425 1_665
Co1 Ta1 2.758425 1_555
Co1 Ta2 2.817013 1_544
Co1 Ta2 2.817013 1_654
Co1 Ta2 2.817021 1_554
Co2 Co4 2.324532 1_665
Co2 Co3 2.324532 1_565
Co2 Co4 2.374568 1_555
Co2 Co3 2.374568 1_555
Co2 Ta2 2.635841 1_655
Co2 Ta2 2.635845 1_555
Co2 Ta0 2.643479 1_665
Co2 Co8 2.768627 1_655
Co2 Co8 2.768631 1_555
Co2 Ta1 2.794653 1_666
Co3 Co4 2.324532 1_655
Co3 Co4 2.374568 1_555
Co3 Ta2 2.635843 1_545
Co3 Ta2 2.635843 1_655
Co3 Ta0 2.643479 1_655
Co3 Co8 2.768629 1_545
Co3 Co8 2.768629 1_655
Co3 Ta1 2.794653 1_656
Co4 Ta2 2.635841 1_545
Co4 Ta2 2.635845 1_555
Co4 Ta0 2.643479 1_555
Co4 Co8 2.768627 1_545
Co4 Co8 2.768631 1_555
Co4 Ta1 2.794653 1_556
Co5 Co7 2.289054 1_555
Co5 Co6 2.289054 1_555
Co5 Co7 2.410046 1_665
Co5 Co6 2.410046 1_565
Co5 Co8 2.702168 1_555
Co5 Ta1 2.731694 1_665
Co5 Ta1 2.731698 1_565
Co5 Ta0 2.811653 1_665
Co5 Ta0 2.811657 1_565
Co5 Ta2 2.961039 1_554
Co6 Co7 2.289054 1_555
Co6 Co7 2.410046 1_655
Co6 Co8 2.702172 1_555
Co6 Ta1 2.731696 1_665
Co6 Ta1 2.731696 1_555
Co6 Ta0 2.811654 1_555
Co6 Ta0 2.811654 1_665
Co6 Ta2 2.961043 1_554
Co7 Co8 2.702168 1_555
Co7 Ta1 2.731694 1_555
Co7 Ta1 2.731698 1_565
Co7 Ta0 2.811653 1_555
Co7 Ta0 2.811657 1_565
Co7 Ta2 2.961039 1_554
Co8 Ta2 2.659086 1_555
Co8 Ta0 2.832213 1_565
Co8 Ta0 2.832217 1_555
Co8 Ta0 2.832217 1_665
