# generated using pymatgen
data_CaBiWO5
_symmetry_space_group_name_H-M   'P 1'
_cell_length_a   12.10962400
_cell_length_b   5.82186600
_cell_length_c   8.85196431
_cell_angle_alpha   69.30569245
_cell_angle_beta   90.00000000
_cell_angle_gamma   90.00000000
_symmetry_Int_Tables_number   1
_chemical_formula_structural   CaBiWO5
_chemical_formula_sum   'Ca4 Bi4 W4 O20'
_cell_volume   583.80341072
_cell_formula_units_Z   4
loop_
 _symmetry_equiv_pos_site_id
 _symmetry_equiv_pos_as_xyz
  1  'x, y, z'
loop_
 _atom_site_type_symbol
 _atom_site_label
 _atom_site_symmetry_multiplicity
 _atom_site_fract_x
 _atom_site_fract_y
 _atom_site_fract_z
 _atom_site_occupancy
  Ca  Ca0  1  0.08511900  0.56441700  0.81558200  1
  Ca  Ca1  1  0.91488100  0.43558300  0.18441800  1
  Ca  Ca2  1  0.58511900  0.43558300  0.68441800  1
  Ca  Ca3  1  0.41488100  0.56441700  0.31558200  1
  Bi  Bi0  1  0.89816200  0.03453400  0.85706600  1
  Bi  Bi1  1  0.10183800  0.96546600  0.14293400  1
  Bi  Bi2  1  0.60183800  0.03453400  0.35706600  1
  Bi  Bi3  1  0.39816200  0.96546600  0.64293400  1
  W  W0  1  0.36073200  0.19040400  0.02211800  1
  W  W1  1  0.63926800  0.80959600  0.97788200  1
  W  W2  1  0.86073200  0.80959600  0.47788200  1
  W  W3  1  0.13926800  0.19040400  0.52211800  1
  O  O0  1  0.92837200  0.78425200  0.67172300  1
  O  O1  1  0.06728100  0.30646900  0.66271200  1
  O  O2  1  0.80509800  0.13247500  0.36454100  1
  O  O3  1  0.47049800  0.77260500  0.48774000  1
  O  O4  1  0.70686400  0.71173700  0.51084600  1
  O  O5  1  0.79313600  0.71173700  0.01084600  1
  O  O6  1  0.43271900  0.30646900  0.16271200  1
  O  O7  1  0.56728100  0.69353100  0.83728800  1
  O  O8  1  0.52950200  0.22739500  0.51226000  1
  O  O9  1  0.42837200  0.21574800  0.82827700  1
  O  O10  1  0.29313600  0.28826300  0.48915400  1
  O  O11  1  0.07162800  0.21574800  0.32827700  1
  O  O12  1  0.57162800  0.78425200  0.17172300  1
  O  O13  1  0.20686400  0.28826300  0.98915400  1
  O  O14  1  0.97049800  0.22739500  0.01226000  1
  O  O15  1  0.02950200  0.77260500  0.98774000  1
  O  O16  1  0.19490200  0.86752500  0.63545900  1
  O  O17  1  0.93271900  0.69353100  0.33728800  1
  O  O18  1  0.30509800  0.86752500  0.13545900  1
  O  O19  1  0.69490200  0.13247500  0.86454100  1
loop_
_geom_bond_atom_site_label_1
_geom_bond_atom_site_label_2
_geom_bond_distance
_geom_bond_site_symmetry_2
Ca0 O13 2.318007 1_555
Ca0 O16 2.331321 1_555
Ca0 O15 2.355946 1_555
Ca0 O1 2.359933 1_555
Ca0 O0 2.389713 1_455
Ca0 O14 2.528469 1_456
Ca1 O5 2.318007 1_555
Ca1 O2 2.331321 1_555
Ca1 O14 2.355946 1_555
Ca1 O17 2.359933 1_555
Ca1 O11 2.389713 1_655
Ca1 O15 2.528469 1_654
Ca2 O4 2.318007 1_555
Ca2 O19 2.331321 1_555
Ca2 O8 2.355946 1_555
Ca2 O7 2.359933 1_555
Ca2 O9 2.389713 1_555
Ca2 O3 2.528469 1_555
Ca3 O10 2.318007 1_555
Ca3 O18 2.331321 1_555
Ca3 O3 2.355946 1_555
Ca3 O6 2.359933 1_555
Ca3 O12 2.389713 1_555
Ca3 O8 2.528469 1_555
Bi0 O15 2.224035 1_645
Bi0 O14 2.237283 1_556
Bi0 O5 2.279084 1_546
Bi0 O19 2.532720 1_555
Bi0 O0 2.576494 1_545
Bi0 O1 2.781259 1_655
Bi1 O14 2.224035 1_465
Bi1 O15 2.237283 1_554
Bi1 O13 2.279084 1_564
Bi1 O18 2.532720 1_555
Bi1 O11 2.576494 1_565
Bi1 O17 2.781259 1_455
Bi2 O3 2.224035 1_545
Bi2 O8 2.237283 1_555
Bi2 O4 2.279084 1_545
Bi2 O2 2.532720 1_555
Bi2 O12 2.576494 1_545
Bi2 O6 2.781259 1_555
Bi3 O8 2.224035 1_565
Bi3 O3 2.237283 1_555
Bi3 O10 2.279084 1_565
Bi3 O16 2.532720 1_555
Bi3 O9 2.576494 1_565
Bi3 O7 2.781259 1_555
O0 W2 1.859563 1_555
O1 W3 1.832956 1_555
O2 W2 1.913386 1_545
O4 W2 1.940118 1_555
O5 W1 1.940118 1_554
O6 W0 1.832956 1_555
O7 W1 1.832956 1_555
O9 W0 1.859563 1_556
O10 W3 1.940118 1_555
O11 W3 1.859563 1_555
O12 W1 1.859563 1_554
O13 W0 1.940118 1_556
O16 W3 1.913386 1_565
O17 W2 1.832956 1_555
O18 W0 1.913386 1_565
O19 W1 1.913386 1_545
