# generated using pymatgen
data_Mg4Si3
_symmetry_space_group_name_H-M   'P 1'
_cell_length_a   5.41296000
_cell_length_b   6.42734412
_cell_length_c   8.04920272
_cell_angle_alpha   72.38420686
_cell_angle_beta   83.12971042
_cell_angle_gamma   82.64625284
_symmetry_Int_Tables_number   1
_chemical_formula_structural   Mg4Si3
_chemical_formula_sum   'Mg8 Si6'
_cell_volume   263.74136431
_cell_formula_units_Z   2
loop_
 _symmetry_equiv_pos_site_id
 _symmetry_equiv_pos_as_xyz
  1  'x, y, z'
loop_
 _atom_site_type_symbol
 _atom_site_label
 _atom_site_symmetry_multiplicity
 _atom_site_fract_x
 _atom_site_fract_y
 _atom_site_fract_z
 _atom_site_occupancy
  Mg  Mg0  1  0.79305300  0.24635200  0.25809500  1
  Mg  Mg1  1  0.57286700  0.06013300  0.00162100  1
  Mg  Mg2  1  0.14309300  0.43017900  0.45645800  1
  Mg  Mg3  1  0.59974900  0.44337200  0.60796800  1
  Mg  Mg4  1  0.66371900  0.61306800  0.90452300  1
  Mg  Mg5  1  0.30017700  0.94278300  0.39495500  1
  Mg  Mg6  1  0.87751100  0.00470100  0.65951700  1
  Mg  Mg7  1  0.07723100  0.79041300  0.08579200  1
  Si  Si0  1  0.55047100  0.64363700  0.23805700  1
  Si  Si1  1  0.26755500  0.36511100  0.10585600  1
  Si  Si2  1  0.03609800  0.23879500  0.88693600  1
  Si  Si3  1  0.81375200  0.80841900  0.40561300  1
  Si  Si4  1  0.19351700  0.62596300  0.78125600  1
  Si  Si5  1  0.36104400  0.03719500  0.71325400  1
loop_
_geom_bond_atom_site_label_1
_geom_bond_atom_site_label_2
_geom_bond_distance
_geom_bond_site_symmetry_2
Mg0 Si0 2.685810 1_555
Mg0 Si3 2.696930 1_545
Mg0 Si1 2.804278 1_655
Mg0 Si2 3.128842 1_654
Mg0 Si1 3.144423 1_555
Mg1 Si1 2.666826 1_555
Mg1 Si5 2.758829 1_554
Mg1 Si0 2.783344 1_545
Mg1 Si2 2.828395 1_654
Mg1 Si2 3.123902 1_554
Mg2 Si3 2.778237 1_455
Mg2 Si0 2.867486 1_555
Mg2 Si5 2.950384 1_555
Mg2 Si1 2.963142 1_555
Mg2 Si4 3.277616 1_555
Mg3 Si3 2.726014 1_555
Mg3 Si4 2.784682 1_555
Mg3 Si0 2.894100 1_555
Mg3 Si5 2.909568 1_555
Mg4 Si0 2.741643 1_556
Mg4 Si4 2.823065 1_555
Mg4 Si1 2.871394 1_556
Mg4 Si4 2.923319 1_655
Mg4 Si2 2.960808 1_655
Mg4 Si5 3.066851 1_565
Mg5 Si0 2.742415 1_555
Mg5 Si3 2.806954 1_555
Mg5 Si3 2.858157 1_455
Mg5 Si5 2.869675 1_565
Mg5 Si1 2.994465 1_565
Mg5 Si4 3.191776 1_555
Mg6 Si5 2.747119 1_655
Mg6 Si5 2.768048 1_555
Mg6 Si4 2.775455 1_645
Mg6 Si3 2.779973 1_545
Mg6 Si2 2.953850 1_655
Mg7 Si1 2.758891 1_555
Mg7 Si3 2.816767 1_455
Mg7 Si2 2.836542 1_564
Mg7 Si0 2.895983 1_555
Mg7 Si4 2.924191 1_554
Mg7 Si0 3.110446 1_455
Mg7 Si5 3.242013 1_564
Si0 Si3 2.585048 1_555
Si1 Si2 2.643560 1_554
Si1 Si4 2.687982 1_554
Si2 Si5 2.579122 1_555
Si2 Si4 2.594280 1_555
Si4 Si5 2.779785 1_565
