# generated using pymatgen
data_Mn8Sn5
_symmetry_space_group_name_H-M   'P 1'
_cell_length_a   5.45640000
_cell_length_b   7.51006800
_cell_length_c   21.53213000
_cell_angle_alpha   90.00000000
_cell_angle_beta   90.00000000
_cell_angle_gamma   90.00000000
_symmetry_Int_Tables_number   1
_chemical_formula_structural   Mn8Sn5
_chemical_formula_sum   'Mn32 Sn20'
_cell_volume   882.34222431
_cell_formula_units_Z   4
loop_
 _symmetry_equiv_pos_site_id
 _symmetry_equiv_pos_as_xyz
  1  'x, y, z'
loop_
 _atom_site_type_symbol
 _atom_site_label
 _atom_site_symmetry_multiplicity
 _atom_site_fract_x
 _atom_site_fract_y
 _atom_site_fract_z
 _atom_site_occupancy
  Mn  Mn0  1  0.25000000  0.83892700  0.69891000  1
  Mn  Mn1  1  0.75000000  0.16107300  0.30109000  1
  Mn  Mn2  1  0.75000000  0.66107300  0.19891000  1
  Mn  Mn3  1  0.25000000  0.33892700  0.80109000  1
  Mn  Mn4  1  0.00644800  0.51240900  0.70355100  1
  Mn  Mn5  1  0.99355200  0.48759100  0.29644900  1
  Mn  Mn6  1  0.99355200  0.98759100  0.20355100  1
  Mn  Mn7  1  0.50644800  0.48759100  0.29644900  1
  Mn  Mn8  1  0.00644800  0.01240900  0.79644900  1
  Mn  Mn9  1  0.49355200  0.51240900  0.70355100  1
  Mn  Mn10  1  0.49355200  0.01240900  0.79644900  1
  Mn  Mn11  1  0.50644800  0.98759100  0.20355100  1
  Mn  Mn12  1  0.25000000  0.84035600  0.10273300  1
  Mn  Mn13  1  0.75000000  0.15964400  0.89726700  1
  Mn  Mn14  1  0.75000000  0.65964400  0.60273300  1
  Mn  Mn15  1  0.25000000  0.34035600  0.39726700  1
  Mn  Mn16  1  0.00000000  0.50000000  0.50000000  1
  Mn  Mn17  1  0.00000000  0.00000000  0.00000000  1
  Mn  Mn18  1  0.50000000  0.50000000  0.50000000  1
  Mn  Mn19  1  0.50000000  0.00000000  0.00000000  1
  Mn  Mn20  1  0.25000000  0.33496400  0.00268900  1
  Mn  Mn21  1  0.75000000  0.66503600  0.99731100  1
  Mn  Mn22  1  0.75000000  0.16503600  0.50268900  1
  Mn  Mn23  1  0.25000000  0.83496400  0.49731100  1
  Mn  Mn24  1  0.99976400  0.97913000  0.59775700  1
  Mn  Mn25  1  0.00023600  0.02087000  0.40224300  1
  Mn  Mn26  1  0.00023600  0.52087000  0.09775700  1
  Mn  Mn27  1  0.49976400  0.02087000  0.40224300  1
  Mn  Mn28  1  0.99976400  0.47913000  0.90224300  1
  Mn  Mn29  1  0.50023600  0.97913000  0.59775700  1
  Mn  Mn30  1  0.50023600  0.47913000  0.90224300  1
  Mn  Mn31  1  0.49976400  0.52087000  0.09775700  1
  Sn  Sn0  1  0.25000000  0.68602500  0.98950900  1
  Sn  Sn1  1  0.75000000  0.31397500  0.01049100  1
  Sn  Sn2  1  0.75000000  0.81397500  0.48950900  1
  Sn  Sn3  1  0.25000000  0.18602500  0.51049100  1
  Sn  Sn4  1  0.25000000  0.65392000  0.20663800  1
  Sn  Sn5  1  0.75000000  0.34608000  0.79336200  1
  Sn  Sn6  1  0.75000000  0.84608000  0.70663800  1
  Sn  Sn7  1  0.25000000  0.15392000  0.29336200  1
  Sn  Sn8  1  0.25000000  0.69009200  0.38586700  1
  Sn  Sn9  1  0.75000000  0.30990800  0.61413300  1
  Sn  Sn10  1  0.75000000  0.80990800  0.88586700  1
  Sn  Sn11  1  0.25000000  0.19009200  0.11413300  1
  Sn  Sn12  1  0.25000000  0.68697300  0.81071600  1
  Sn  Sn13  1  0.75000000  0.31302700  0.18928400  1
  Sn  Sn14  1  0.75000000  0.81302700  0.31071600  1
  Sn  Sn15  1  0.25000000  0.18697300  0.68928400  1
  Sn  Sn16  1  0.25000000  0.63116700  0.59948600  1
  Sn  Sn17  1  0.75000000  0.36883300  0.40051400  1
  Sn  Sn18  1  0.75000000  0.86883300  0.09948600  1
  Sn  Sn19  1  0.25000000  0.13116700  0.90051400  1
loop_
_geom_bond_atom_site_label_1
_geom_bond_atom_site_label_2
_geom_bond_distance
_geom_bond_site_symmetry_2
Mn0 Sn15 2.622054 1_565
Mn0 Sn16 2.649072 1_555
Mn0 Sn12 2.664204 1_555
Mn0 Sn6 2.733798 1_455
Mn0 Sn6 2.733798 1_555
Mn0 Mn29 2.777915 1_555
Mn0 Mn24 2.777915 1_455
Mn0 Mn9 2.790906 1_555
Mn0 Mn4 2.790906 1_555
Mn0 Mn8 2.806137 1_565
Mn0 Mn10 2.806137 1_565
Mn1 Sn14 2.622054 1_545
Mn1 Sn17 2.649072 1_555
Mn1 Sn13 2.664204 1_555
Mn1 Sn7 2.733798 1_555
Mn1 Sn7 2.733798 1_655
Mn1 Mn25 2.777915 1_655
Mn1 Mn27 2.777915 1_555
Mn1 Mn7 2.790906 1_555
Mn1 Mn5 2.790906 1_555
Mn1 Mn11 2.806137 1_545
Mn1 Mn6 2.806137 1_545
Mn2 Sn13 2.622054 1_555
Mn2 Sn18 2.649072 1_555
Mn2 Sn14 2.664204 1_555
Mn2 Sn4 2.733798 1_555
Mn2 Sn4 2.733798 1_655
Mn2 Mn26 2.777915 1_655
Mn2 Mn31 2.777915 1_555
Mn2 Mn6 2.790906 1_555
Mn2 Mn7 2.806137 1_555
Mn2 Mn5 2.806137 1_555
Mn3 Sn12 2.622054 1_555
Mn3 Sn19 2.649072 1_555
Mn3 Sn15 2.664204 1_555
Mn3 Sn5 2.733798 1_455
Mn3 Sn5 2.733798 1_555
Mn3 Mn30 2.777915 1_555
Mn3 Mn8 2.790906 1_555
Mn3 Mn4 2.806137 1_555
Mn3 Mn9 2.806137 1_555
Mn4 Mn9 2.657834 1_555
Mn4 Sn5 2.694071 1_455
Mn4 Sn16 2.753614 1_555
Mn4 Mn9 2.798566 1_455
Mn4 Sn15 2.798885 1_555
Mn4 Sn9 2.824504 1_455
Mn4 Sn6 2.870872 1_455
Mn4 Sn12 2.968033 1_555
Mn5 Mn7 2.657834 1_555
Mn5 Sn4 2.694071 1_655
Mn5 Sn17 2.753614 1_555
Mn5 Mn7 2.798566 1_655
Mn5 Sn14 2.798885 1_555
Mn5 Sn8 2.824504 1_655
Mn5 Sn7 2.870872 1_655
Mn5 Sn13 2.968033 1_555
Mn6 Sn7 2.694071 1_665
Mn6 Sn18 2.753614 1_555
Mn6 Sn13 2.798885 1_565
Mn6 Sn11 2.824504 1_665
Mn6 Sn4 2.870872 1_655
Mn6 Sn14 2.968033 1_555
Mn7 Sn4 2.694071 1_555
Mn7 Sn17 2.753614 1_555
Mn7 Sn14 2.798885 1_555
Mn7 Sn8 2.824504 1_555
Mn7 Sn7 2.870872 1_555
Mn7 Sn13 2.968033 1_555
Mn8 Sn6 2.694071 1_445
Mn8 Sn19 2.753614 1_555
Mn8 Sn12 2.798885 1_545
Mn8 Sn10 2.824504 1_445
Mn8 Sn5 2.870872 1_455
Mn8 Sn15 2.968033 1_555
Mn9 Sn5 2.694071 1_555
Mn9 Sn16 2.753614 1_555
Mn9 Sn15 2.798885 1_555
Mn9 Sn9 2.824504 1_555
Mn9 Sn6 2.870872 1_555
Mn9 Sn12 2.968033 1_555
Mn10 Mn8 2.657834 1_555
Mn10 Sn6 2.694071 1_545
Mn10 Sn19 2.753614 1_555
Mn10 Mn3 2.790906 1_555
Mn10 Mn8 2.798566 1_655
Mn10 Sn12 2.798885 1_545
Mn10 Mn13 2.809475 1_555
Mn10 Sn10 2.824504 1_545
Mn10 Sn5 2.870872 1_555
Mn10 Sn15 2.968033 1_555
Mn11 Mn6 2.657834 1_555
Mn11 Sn7 2.694071 1_565
Mn11 Sn18 2.753614 1_555
Mn11 Mn2 2.790906 1_555
Mn11 Mn6 2.798566 1_455
Mn11 Sn13 2.798885 1_565
Mn11 Mn12 2.809475 1_555
Mn11 Sn11 2.824504 1_565
Mn11 Sn4 2.870872 1_555
Mn11 Sn14 2.968033 1_555
Mn12 Sn11 2.637986 1_565
Mn12 Sn4 2.639300 1_555
Mn12 Sn0 2.699441 1_554
Mn12 Sn18 2.737463 1_455
Mn12 Sn18 2.737463 1_555
Mn12 Mn26 2.761462 1_555
Mn12 Mn31 2.761462 1_555
Mn12 Mn6 2.809475 1_455
Mn12 Mn17 2.862067 1_565
Mn12 Mn19 2.862067 1_565
Mn13 Sn10 2.637986 1_545
Mn13 Sn5 2.639300 1_555
Mn13 Sn1 2.699441 1_556
Mn13 Sn19 2.737463 1_555
Mn13 Sn19 2.737463 1_655
Mn13 Mn28 2.761462 1_555
Mn13 Mn30 2.761462 1_555
Mn13 Mn8 2.809475 1_655
Mn13 Mn19 2.862067 1_556
Mn13 Mn17 2.862067 1_656
Mn14 Sn9 2.637986 1_555
Mn14 Sn6 2.639300 1_555
Mn14 Sn2 2.699441 1_555
Mn14 Sn16 2.737463 1_555
Mn14 Sn16 2.737463 1_655
Mn14 Mn29 2.761462 1_555
Mn14 Mn24 2.761462 1_555
Mn14 Mn4 2.809475 1_655
Mn14 Mn9 2.809475 1_555
Mn14 Mn16 2.862067 1_655
Mn14 Mn18 2.862067 1_555
Mn15 Sn8 2.637986 1_555
Mn15 Sn7 2.639300 1_555
Mn15 Sn3 2.699441 1_555
Mn15 Sn17 2.737463 1_455
Mn15 Sn17 2.737463 1_555
Mn15 Mn27 2.761462 1_555
Mn15 Mn25 2.761462 1_555
Mn15 Mn5 2.809475 1_455
Mn15 Mn7 2.809475 1_555
Mn15 Mn18 2.862067 1_555
Mn15 Mn16 2.862067 1_555
Mn16 Sn16 2.723954 1_555
Mn16 Sn17 2.723954 1_455
Mn16 Mn18 2.728200 1_555
Mn16 Mn18 2.728200 1_455
Mn16 Sn3 2.733466 1_555
Mn16 Sn2 2.733466 1_455
Mn16 Mn23 2.862233 1_555
Mn16 Mn22 2.862233 1_455
Mn16 Sn8 3.152500 1_555
Mn16 Sn9 3.152500 1_455
Mn17 Sn19 2.723954 1_554
Mn17 Sn18 2.723954 1_445
Mn17 Mn19 2.728200 1_555
Mn17 Mn19 2.728200 1_455
Mn17 Sn0 2.733466 1_544
Mn17 Sn1 2.733466 1_455
Mn17 Mn20 2.862233 1_555
Mn17 Mn21 2.862233 1_444
Mn17 Sn11 3.152500 1_555
Mn17 Sn10 3.152500 1_444
Mn18 Sn16 2.723954 1_555
Mn18 Sn17 2.723954 1_555
Mn18 Sn3 2.733466 1_555
Mn18 Sn2 2.733466 1_555
Mn18 Mn22 2.862233 1_555
Mn18 Mn23 2.862233 1_555
Mn18 Sn8 3.152500 1_555
Mn18 Sn9 3.152500 1_555
Mn19 Sn19 2.723954 1_554
Mn19 Sn18 2.723954 1_545
Mn19 Sn0 2.733466 1_544
Mn19 Sn1 2.733466 1_555
Mn19 Mn20 2.862233 1_555
Mn19 Mn21 2.862233 1_544
Mn19 Sn11 3.152500 1_555
Mn19 Sn10 3.152500 1_544
Mn20 Sn11 2.634758 1_555
Mn20 Sn0 2.651722 1_554
Mn20 Sn19 2.680060 1_554
Mn20 Sn1 2.737909 1_455
Mn20 Sn1 2.737909 1_555
Mn20 Mn30 2.777461 1_554
Mn20 Mn28 2.777461 1_454
Mn20 Mn31 2.827864 1_555
Mn20 Mn26 2.827864 1_555
Mn21 Sn10 2.634758 1_555
Mn21 Sn1 2.651722 1_556
Mn21 Sn18 2.680060 1_556
Mn21 Sn0 2.737909 1_655
Mn21 Sn0 2.737909 1_555
Mn21 Mn31 2.777461 1_556
Mn21 Mn26 2.777461 1_656
Mn21 Mn28 2.827864 1_555
Mn21 Mn30 2.827864 1_555
Mn22 Sn9 2.634758 1_555
Mn22 Sn2 2.651722 1_545
Mn22 Sn17 2.680060 1_555
Mn22 Sn3 2.737909 1_655
Mn22 Sn3 2.737909 1_555
Mn22 Mn25 2.777461 1_655
Mn22 Mn27 2.777461 1_555
Mn22 Mn29 2.827864 1_545
Mn22 Mn24 2.827864 1_545
Mn23 Sn8 2.634758 1_555
Mn23 Sn3 2.651722 1_565
Mn23 Sn16 2.680060 1_555
Mn23 Sn2 2.737909 1_555
Mn23 Sn2 2.737909 1_455
Mn23 Mn29 2.777461 1_555
Mn23 Mn24 2.777461 1_455
Mn23 Mn27 2.827864 1_565
Mn23 Mn25 2.827864 1_565
Mn24 Mn29 2.725625 1_555
Mn24 Mn29 2.730775 1_655
Mn24 Sn3 2.794511 1_665
Mn24 Sn9 2.855288 1_565
Mn24 Sn15 2.860888 1_665
Mn24 Sn6 2.889997 1_555
Mn24 Sn16 2.948664 1_655
Mn24 Sn2 2.971252 1_555
Mn25 Mn27 2.725625 1_555
Mn25 Mn27 2.730775 1_455
Mn25 Sn2 2.794511 1_445
Mn25 Sn8 2.855288 1_545
Mn25 Sn14 2.860888 1_445
Mn25 Sn7 2.889997 1_555
Mn25 Sn17 2.948664 1_455
Mn25 Sn3 2.971252 1_555
Mn26 Mn31 2.725625 1_555
Mn26 Mn31 2.730775 1_455
Mn26 Sn1 2.794511 1_455
Mn26 Sn11 2.855288 1_555
Mn26 Sn13 2.860888 1_455
Mn26 Sn4 2.889997 1_555
Mn26 Sn18 2.948664 1_455
Mn26 Sn0 2.971252 1_554
Mn27 Sn2 2.794511 1_545
Mn27 Sn8 2.855288 1_545
Mn27 Sn14 2.860888 1_545
Mn27 Sn7 2.889997 1_555
Mn27 Sn17 2.948664 1_555
Mn27 Sn3 2.971252 1_555
Mn28 Mn30 2.725625 1_555
Mn28 Mn30 2.730775 1_655
Mn28 Mn3 2.777915 1_655
Mn28 Sn0 2.794511 1_655
Mn28 Sn10 2.855288 1_555
Mn28 Sn12 2.860888 1_655
Mn28 Sn5 2.889997 1_555
Mn28 Sn19 2.948664 1_655
Mn28 Sn1 2.971252 1_556
Mn29 Sn3 2.794511 1_565
Mn29 Sn9 2.855288 1_565
Mn29 Sn15 2.860888 1_565
Mn29 Sn6 2.889997 1_555
Mn29 Sn16 2.948664 1_555
Mn29 Sn2 2.971252 1_555
Mn30 Sn0 2.794511 1_555
Mn30 Sn10 2.855288 1_555
Mn30 Sn12 2.860888 1_555
Mn30 Sn5 2.889997 1_555
Mn30 Sn19 2.948664 1_555
Mn30 Sn1 2.971252 1_556
Mn31 Sn1 2.794511 1_555
Mn31 Sn11 2.855288 1_555
Mn31 Sn13 2.860888 1_555
Mn31 Sn4 2.889997 1_555
Mn31 Sn18 2.948664 1_555
Mn31 Sn0 2.971252 1_554
