# generated using pymatgen
data_RbLaTiNbO6F
_symmetry_space_group_name_H-M   'P 1'
_cell_length_a   3.87243400
_cell_length_b   3.91595800
_cell_length_c   11.28940500
_cell_angle_alpha   90.00000000
_cell_angle_beta   90.00000000
_cell_angle_gamma   90.00000000
_symmetry_Int_Tables_number   1
_chemical_formula_structural   RbLaTiNbO6F
_chemical_formula_sum   'Rb1 La1 Ti1 Nb1 O6 F1'
_cell_volume   171.19579895
_cell_formula_units_Z   1
loop_
 _symmetry_equiv_pos_site_id
 _symmetry_equiv_pos_as_xyz
  1  'x, y, z'
loop_
 _atom_site_type_symbol
 _atom_site_label
 _atom_site_symmetry_multiplicity
 _atom_site_fract_x
 _atom_site_fract_y
 _atom_site_fract_z
 _atom_site_occupancy
  Rb  Rb0  1  0.50000000  0.50000000  0.50207200  1
  La  La0  1  0.50000000  0.50000000  0.00025400  1
  Ti  Ti0  1  0.00000000  0.00000000  0.79403000  1
  Nb  Nb0  1  0.00000000  0.00000000  0.20512400  1
  O  O0  1  0.00000000  0.00000000  0.64312700  1
  O  O1  1  0.00000000  0.00000000  0.36540000  1
  O  O2  1  0.50000000  0.00000000  0.83406300  1
  O  O3  1  0.50000000  0.00000000  0.16465500  1
  O  O4  1  0.00000000  0.50000000  0.16331900  1
  O  O5  1  0.00000000  0.00000000  0.99767600  1
  F  F0  1  0.00000000  0.50000000  0.83027900  1
loop_
_geom_bond_atom_site_label_1
_geom_bond_atom_site_label_2
_geom_bond_distance
_geom_bond_site_symmetry_2
La0 O4 2.671680 1_555
La0 O4 2.671680 1_655
La0 O3 2.697847 1_555
La0 O3 2.697847 1_565
La0 O2 2.711789 1_564
La0 O2 2.711789 1_554
La0 O5 2.753809 1_654
La0 O5 2.753809 1_554
La0 O5 2.753809 1_664
La0 O5 2.753809 1_564
Nb0 O1 1.809421 1_555
Nb0 O3 1.989389 1_455
Nb0 O3 1.989389 1_555
Nb0 O4 2.014056 1_555
Nb0 O4 2.014056 1_545
Nb0 O5 2.341964 1_554
O0 Ti0 1.703605 1_555
O0 Rb0 3.180950 1_455
O0 Rb0 3.180950 1_555
O0 Rb0 3.180950 1_545
O0 Rb0 3.180950 1_445
O1 Rb0 3.156469 1_445
O1 Rb0 3.156469 1_455
O1 Rb0 3.156469 1_555
O1 Rb0 3.156469 1_545
O2 Ti0 1.988264 1_655
O2 Ti0 1.988264 1_555
O5 Ti0 2.299042 1_555
F0 Ti0 2.000288 1_565
F0 Ti0 2.000288 1_555
F0 La0 2.726019 1_556
F0 La0 2.726019 1_456
