# generated using pymatgen
data_Yb2SiO5
_symmetry_space_group_name_H-M   'P 1'
_cell_length_a   8.53402900
_cell_length_b   8.53402900
_cell_length_c   11.20812966
_cell_angle_alpha   54.90160292
_cell_angle_beta   54.90160292
_cell_angle_gamma   43.82916892
_symmetry_Int_Tables_number   1
_chemical_formula_structural   Yb2SiO5
_chemical_formula_sum   'Yb8 Si4 O20'
_cell_volume   443.62849605
_cell_formula_units_Z   4
loop_
 _symmetry_equiv_pos_site_id
 _symmetry_equiv_pos_as_xyz
  1  'x, y, z'
loop_
 _atom_site_type_symbol
 _atom_site_label
 _atom_site_symmetry_multiplicity
 _atom_site_fract_x
 _atom_site_fract_y
 _atom_site_fract_z
 _atom_site_occupancy
  Yb  Yb0  1  0.24137200  0.89163300  0.54696700  1
  Yb  Yb1  1  0.10836700  0.75862800  0.95303300  1
  Yb  Yb2  1  0.75862800  0.10836700  0.45303300  1
  Yb  Yb3  1  0.89163300  0.24137200  0.04696700  1
  Yb  Yb4  1  0.20608900  0.45137300  0.31303200  1
  Yb  Yb5  1  0.54862700  0.79391100  0.18696800  1
  Yb  Yb6  1  0.79391100  0.54862700  0.68696800  1
  Yb  Yb7  1  0.45137300  0.20608900  0.81303200  1
  Si  Si0  1  0.74563800  0.91411700  0.31261700  1
  Si  Si1  1  0.08588300  0.25436200  0.18738300  1
  Si  Si2  1  0.25436200  0.08588300  0.68738300  1
  Si  Si3  1  0.91411700  0.74563800  0.81261700  1
  O  O0  1  0.46403300  0.57290300  0.02751900  1
  O  O1  1  0.42709700  0.53596700  0.47248100  1
  O  O2  1  0.53596700  0.42709700  0.97248100  1
  O  O3  1  0.57290300  0.46403300  0.52751900  1
  O  O4  1  0.87286400  0.76271900  0.44813700  1
  O  O5  1  0.23728100  0.12713600  0.05186300  1
  O  O6  1  0.12713600  0.23728100  0.55186300  1
  O  O7  1  0.76271900  0.87286400  0.94813700  1
  O  O8  1  0.59013900  0.84198900  0.34391800  1
  O  O9  1  0.15801100  0.40986100  0.15608200  1
  O  O10  1  0.40986100  0.15801100  0.65608200  1
  O  O11  1  0.84198900  0.59013900  0.84391800  1
  O  O12  1  0.97282900  0.85617600  0.15893600  1
  O  O13  1  0.14382400  0.02717100  0.34106400  1
  O  O14  1  0.02717100  0.14382400  0.84106400  1
  O  O15  1  0.85617600  0.97282900  0.65893600  1
  O  O16  1  0.59679600  0.19527100  0.28935100  1
  O  O17  1  0.80472900  0.40320400  0.21064900  1
  O  O18  1  0.40320400  0.80472900  0.71064900  1
  O  O19  1  0.19527100  0.59679600  0.78935100  1
loop_
_geom_bond_atom_site_label_1
_geom_bond_atom_site_label_2
_geom_bond_distance
_geom_bond_site_symmetry_2
O0 O2 1.284833 1_554
O0 Yb3 2.584154 1_555
O0 Yb1 2.621670 1_554
O0 Yb4 2.745633 1_555
O1 O3 1.284833 1_555
O1 Yb2 2.584154 1_555
O1 Yb0 2.621670 1_555
O1 Yb5 2.745633 1_555
O2 Yb1 2.584154 1_555
O2 Yb3 2.621670 1_556
O2 Yb6 2.745633 1_555
O3 Yb0 2.584154 1_555
O3 Yb2 2.621670 1_555
O3 Yb7 2.745633 1_555
O4 Si0 1.664633 1_555
O4 Yb6 2.243999 1_555
O4 Yb2 2.372778 1_565
O4 Yb4 2.492550 1_655
O5 Si1 1.664633 1_555
O5 Yb7 2.243999 1_554
O5 Yb3 2.372778 1_455
O5 Yb5 2.492550 1_545
O6 Si2 1.664633 1_555
O6 Yb4 2.243999 1_555
O6 Yb0 2.372778 1_545
O6 Yb6 2.492550 1_455
O7 Si3 1.664633 1_555
O7 Yb5 2.243999 1_556
O7 Yb1 2.372778 1_655
O7 Yb7 2.492550 1_565
O8 Si0 1.630288 1_555
O8 Yb5 2.268195 1_555
O8 Yb0 2.391142 1_555
O9 Si1 1.630288 1_555
O9 Yb4 2.268195 1_555
O9 Yb1 2.391142 1_554
O10 Si2 1.630288 1_555
O10 Yb7 2.268195 1_555
O10 Yb2 2.391142 1_555
O11 Si3 1.630288 1_555
O11 Yb6 2.268195 1_555
O11 Yb3 2.391142 1_556
O12 Si0 1.651160 1_555
O12 Yb1 2.259891 1_654
O12 Yb3 2.414679 1_565
O12 Yb4 2.459719 1_655
O13 Si1 1.651160 1_555
O13 Yb0 2.259891 1_545
O13 Yb2 2.414679 1_455
O13 Yb5 2.459719 1_545
O14 Si2 1.651160 1_555
O14 Yb3 2.259891 1_456
O14 Yb1 2.414679 1_545
O14 Yb6 2.459719 1_455
O15 Si3 1.651160 1_555
O15 Yb2 2.259891 1_565
O15 Yb0 2.414679 1_655
O15 Yb7 2.459719 1_565
O16 Si0 1.643940 1_545
O16 Yb4 2.258278 1_555
O16 Yb2 2.386262 1_555
O16 Yb3 2.490909 1_555
O17 Si1 1.643940 1_655
O17 Yb5 2.258278 1_555
O17 Yb3 2.386262 1_555
O17 Yb2 2.490909 1_555
O18 Si2 1.643940 1_565
O18 Yb6 2.258278 1_555
O18 Yb0 2.386262 1_555
O18 Yb1 2.490909 1_555
O19 Si3 1.643940 1_455
O19 Yb7 2.258278 1_555
O19 Yb1 2.386262 1_555
O19 Yb0 2.490909 1_555
