# generated using pymatgen
data_Li7Mn2(CoO4)3
_symmetry_space_group_name_H-M   'P 1'
_cell_length_a   5.13548800
_cell_length_b   5.87680262
_cell_length_c   7.65960481
_cell_angle_alpha   100.56435093
_cell_angle_beta   96.49770467
_cell_angle_gamma   107.34481899
_symmetry_Int_Tables_number   1
_chemical_formula_structural   Li7Mn2(CoO4)3
_chemical_formula_sum   'Li7 Mn2 Co3 O12'
_cell_volume   213.41944814
_cell_formula_units_Z   1
loop_
 _symmetry_equiv_pos_site_id
 _symmetry_equiv_pos_as_xyz
  1  'x, y, z'
loop_
 _atom_site_type_symbol
 _atom_site_label
 _atom_site_symmetry_multiplicity
 _atom_site_fract_x
 _atom_site_fract_y
 _atom_site_fract_z
 _atom_site_occupancy
  Li  Li0  1  0.50495100  0.92387800  0.17198900  1
  Li  Li1  1  0.50208700  0.25299900  0.49401200  1
  Li  Li2  1  0.49921100  0.58374300  0.83307700  1
  Li  Li3  1  0.49753500  0.41677400  0.17366600  1
  Li  Li4  1  0.49478300  0.74221100  0.49409400  1
  Li  Li5  1  0.50196500  0.08313800  0.83453400  1
  Li  Li6  1  0.00039300  0.33140700  0.33303700  1
  Mn  Mn0  1  0.99532200  0.00179600  0.00053800  1
  Mn  Mn1  1  0.00179700  0.16863100  0.66402200  1
  Co  Co0  1  0.00024500  0.65811200  0.65845300  1
  Co  Co1  1  0.00415900  0.50111300  0.01379500  1
  Co  Co2  1  0.99772200  0.83796700  0.33405000  1
  O  O0  1  0.76462100  0.72077900  0.07647200  1
  O  O1  1  0.77015700  0.04467500  0.43370600  1
  O  O2  1  0.78216400  0.37003300  0.75118300  1
  O  O3  1  0.77056800  0.19720900  0.07470600  1
  O  O4  1  0.77075200  0.56376800  0.42490000  1
  O  O5  1  0.77723300  0.89316900  0.75619900  1
  O  O6  1  0.22539800  0.10136700  0.23606800  1
  O  O7  1  0.23567700  0.44660300  0.59581600  1
  O  O8  1  0.21401200  0.79427700  0.90896000  1
  O  O9  1  0.23481500  0.62507600  0.23863800  1
  O  O10  1  0.22954400  0.96849500  0.58469500  1
  O  O11  1  0.22488800  0.27277900  0.91338800  1
loop_
_geom_bond_atom_site_label_1
_geom_bond_atom_site_label_2
_geom_bond_distance
_geom_bond_site_symmetry_2
Li0 O6 2.062661 1_565
Li0 O9 2.074900 1_555
Li0 O3 2.087745 1_565
Li0 O0 2.141922 1_555
Li0 O1 2.159000 1_565
Li0 O8 2.224640 1_554
Li1 O10 2.118377 1_545
Li1 O4 2.129960 1_555
Li1 O1 2.132823 1_555
Li1 O7 2.149110 1_555
Li1 O6 2.163510 1_555
Li1 O2 2.166610 1_555
Li2 O7 2.009919 1_555
Li2 O0 2.049850 1_556
Li2 O5 2.174142 1_555
Li2 O11 2.185418 1_555
Li2 O8 2.241267 1_555
Li2 O2 2.255639 1_555
Li3 O4 2.115357 1_555
Li3 O9 2.116573 1_555
Li3 O6 2.132813 1_555
Li3 O11 2.166630 1_554
Li3 O0 2.210235 1_555
Li3 O3 2.272938 1_555
Li4 O4 2.059496 1_555
Li4 O1 2.079463 1_565
Li4 O9 2.109930 1_555
Li4 O7 2.179064 1_555
Li4 O5 2.200490 1_555
Li4 O10 2.249670 1_555
Li5 O3 2.039239 1_556
Li5 O10 2.105372 1_545
Li5 O8 2.107705 1_545
Li5 O2 2.115880 1_555
Li5 O5 2.119455 1_545
Li5 O11 2.127162 1_555
Li6 O3 2.067495 1_455
Li6 O1 2.080113 1_455
Li6 O9 2.089594 1_555
Li6 O7 2.105179 1_555
Li6 O6 2.114704 1_555
Li6 O4 2.132199 1_455
Mn0 O3 1.916586 1_555
Mn0 O6 1.926490 1_655
Mn0 O0 1.952151 1_545
Mn0 O11 1.954501 1_654
Mn0 O5 1.955959 1_544
Mn0 O8 1.980380 1_644
Mn1 O1 1.896062 1_455
Mn1 O7 1.915523 1_555
Mn1 O2 1.948205 1_455
Mn1 O10 1.959463 1_545
Mn1 O5 1.984778 1_445
Mn1 O11 1.998357 1_555
Co0 O4 1.914726 1_455
Co0 O8 1.990903 1_555
Co0 O7 2.011399 1_555
Co0 O2 2.028651 1_455
Co0 O10 2.069001 1_555
Co0 O5 2.130388 1_455
Co1 O9 1.861063 1_555
Co1 O3 2.000309 1_455
Co1 O0 2.064827 1_455
Co1 O2 2.080493 1_454
Co1 O8 2.090594 1_554
Co1 O11 2.098303 1_554
Co2 O6 1.967725 1_665
Co2 O4 1.978476 1_555
Co2 O10 2.022312 1_655
Co2 O1 2.032848 1_565
Co2 O0 2.067731 1_555
Co2 O9 2.087181 1_655
