# generated using pymatgen
data_K2LiP3HO9
_symmetry_space_group_name_H-M   'P 1'
_cell_length_a   14.69637700
_cell_length_b   7.81724900
_cell_length_c   8.72255039
_cell_angle_alpha   80.52870393
_cell_angle_beta   90.00000000
_cell_angle_gamma   90.00000000
_symmetry_Int_Tables_number   1
_chemical_formula_structural   K2LiP3HO9
_chemical_formula_sum   'K8 Li4 P12 H4 O36'
_cell_volume   988.43192188
_cell_formula_units_Z   4
loop_
 _symmetry_equiv_pos_site_id
 _symmetry_equiv_pos_as_xyz
  1  'x, y, z'
loop_
 _atom_site_type_symbol
 _atom_site_label
 _atom_site_symmetry_multiplicity
 _atom_site_fract_x
 _atom_site_fract_y
 _atom_site_fract_z
 _atom_site_occupancy
  K  K0  1  0.90531400  0.82709100  0.46081000  1
  K  K1  1  0.09468600  0.17290900  0.53919000  1
  K  K2  1  0.40531400  0.67290900  0.53919000  1
  K  K3  1  0.59468600  0.32709100  0.46081000  1
  K  K4  1  0.28837600  0.94896300  0.17805800  1
  K  K5  1  0.71162400  0.05103700  0.82194200  1
  K  K6  1  0.78837600  0.55103700  0.82194200  1
  K  K7  1  0.21162400  0.44896300  0.17805800  1
  Li  Li0  1  0.87782200  0.84822700  0.09612400  1
  Li  Li1  1  0.12217800  0.15177300  0.90387600  1
  Li  Li2  1  0.37782200  0.65177300  0.90387600  1
  Li  Li3  1  0.62217800  0.34822700  0.09612400  1
  P  P0  1  0.67875900  0.72683000  0.16768600  1
  P  P1  1  0.32124100  0.27317000  0.83231400  1
  P  P2  1  0.17875900  0.77317000  0.83231400  1
  P  P3  1  0.82124100  0.22683000  0.16768600  1
  P  P4  1  0.54319900  0.98248700  0.24207400  1
  P  P5  1  0.45680100  0.01751300  0.75792600  1
  P  P6  1  0.04319900  0.51751300  0.75792600  1
  P  P7  1  0.95680100  0.48248700  0.24207400  1
  P  P8  1  0.65590100  0.78556700  0.48918400  1
  P  P9  1  0.34409900  0.21443300  0.51081600  1
  P  P10  1  0.15590100  0.71443300  0.51081600  1
  P  P11  1  0.84409900  0.28556700  0.48918400  1
  H  H0  1  0.41175800  0.56977900  0.15854700  1
  H  H1  1  0.58824200  0.43022100  0.84145300  1
  H  H2  1  0.91175800  0.93022100  0.84145300  1
  H  H3  1  0.08824200  0.06977900  0.15854700  1
  O  O0  1  0.59034500  0.64221900  0.54126900  1
  O  O1  1  0.40965500  0.35778100  0.45873100  1
  O  O2  1  0.09034500  0.85778100  0.45873100  1
  O  O3  1  0.90965500  0.14221900  0.54126900  1
  O  O4  1  0.72410800  0.83917200  0.59992300  1
  O  O5  1  0.27589200  0.16082800  0.40007700  1
  O  O6  1  0.22410800  0.66082800  0.40007700  1
  O  O7  1  0.77589200  0.33917200  0.59992300  1
  O  O8  1  0.62618100  0.56193700  0.17142700  1
  O  O9  1  0.37381900  0.43806300  0.82857300  1
  O  O10  1  0.12618100  0.93806300  0.82857300  1
  O  O11  1  0.87381900  0.06193700  0.17142700  1
  O  O12  1  0.61339700  0.89573300  0.13005100  1
  O  O13  1  0.38660300  0.10426700  0.86994900  1
  O  O14  1  0.11339700  0.60426700  0.86994900  1
  O  O15  1  0.88660300  0.39573300  0.13005100  1
  O  O16  1  0.95861200  0.67373800  0.18377500  1
  O  O17  1  0.04138800  0.32626200  0.81622500  1
  O  O18  1  0.45861200  0.82626200  0.81622500  1
  O  O19  1  0.54138800  0.17373800  0.18377500  1
  O  O20  1  0.60224700  0.95941900  0.40434100  1
  O  O21  1  0.39775300  0.04058100  0.59565900  1
  O  O22  1  0.10224700  0.54058100  0.59565900  1
  O  O23  1  0.89775300  0.45941900  0.40434100  1
  O  O24  1  0.71662800  0.74180200  0.34001700  1
  O  O25  1  0.28337200  0.25819800  0.65998300  1
  O  O26  1  0.21662800  0.75819800  0.65998300  1
  O  O27  1  0.78337200  0.24180200  0.34001700  1
  O  O28  1  0.75749100  0.76146100  0.05589100  1
  O  O29  1  0.24250900  0.23853900  0.94410900  1
  O  O30  1  0.25749100  0.73853900  0.94410900  1
  O  O31  1  0.74250900  0.26146100  0.05589100  1
  O  O32  1  0.45724700  0.88005600  0.26416200  1
  O  O33  1  0.54275300  0.11994400  0.73583800  1
  O  O34  1  0.95724700  0.61994400  0.73583800  1
  O  O35  1  0.04275300  0.38005600  0.26416200  1
loop_
_geom_bond_atom_site_label_1
_geom_bond_atom_site_label_2
_geom_bond_distance
_geom_bond_site_symmetry_2
K0 O3 2.670972 1_565
K0 O2 2.729646 1_655
K0 O34 2.771495 1_555
K0 O11 2.903599 1_565
K0 O4 2.934446 1_555
K0 O16 2.973763 1_555
K0 O23 2.996965 1_555
K0 O24 3.078208 1_555
K1 O2 2.670972 1_545
K1 O3 2.729646 1_455
K1 O35 2.771495 1_555
K1 O10 2.903599 1_545
K1 O5 2.934446 1_555
K1 O17 2.973763 1_555
K1 O22 2.996965 1_555
K1 O25 3.078208 1_555
K2 O1 2.670972 1_555
K2 O0 2.729646 1_555
K2 O32 2.771495 1_555
K2 O9 2.903599 1_555
K2 O6 2.934446 1_555
K2 O18 2.973763 1_555
K2 O21 2.996965 1_565
K2 O26 3.078208 1_555
K3 O0 2.670972 1_555
K3 O1 2.729646 1_555
K3 O33 2.771495 1_555
K3 O8 2.903599 1_555
K3 O7 2.934446 1_555
K3 O19 2.973763 1_555
K3 O20 2.996965 1_545
K3 O27 3.078208 1_555
K4 O32 2.623047 1_555
K4 O5 2.753641 1_565
K4 O30 2.860199 1_554
K4 O29 2.867504 1_564
K4 O6 2.877543 1_555
K4 O13 3.115555 1_564
K5 O33 2.623047 1_555
K5 O4 2.753641 1_545
K5 O31 2.860199 1_556
K5 O28 2.867504 1_546
K5 O7 2.877543 1_555
K5 O12 3.115555 1_546
K6 O34 2.623047 1_555
K6 O7 2.753641 1_555
K6 O28 2.860199 1_556
K6 O31 2.867504 1_556
K6 O4 2.877543 1_555
K6 O15 3.115555 1_556
K7 O35 2.623047 1_555
K7 O6 2.753641 1_555
K7 O29 2.860199 1_554
K7 O30 2.867504 1_554
K7 O5 2.877543 1_555
K7 O14 3.115555 1_554
Li0 O16 1.873927 1_555
Li0 O11 1.893941 1_565
Li0 O28 1.946507 1_555
Li1 O17 1.873927 1_555
Li1 O10 1.893941 1_545
Li1 O29 1.946507 1_555
Li2 O18 1.873927 1_555
Li2 O9 1.893941 1_555
Li2 O30 1.946507 1_555
Li3 O19 1.873927 1_555
Li3 O8 1.893941 1_555
Li3 O31 1.946507 1_555
H0 Li2 2.263960 1_554
H1 Li3 2.263960 1_556
H2 Li0 2.263960 1_556
H3 Li1 2.263960 1_554
O0 P8 1.490898 1_555
O1 P9 1.490898 1_555
O2 P10 1.490898 1_555
O3 P11 1.490898 1_555
O4 P8 1.498873 1_555
O5 P9 1.498873 1_555
O6 P10 1.498873 1_555
O7 P11 1.498873 1_555
O8 P0 1.498614 1_555
O9 P1 1.498614 1_555
O10 P2 1.498614 1_555
O11 P3 1.498614 1_555
O12 P0 1.622091 1_555
O12 P4 1.642286 1_555
O13 P1 1.622091 1_555
O13 P5 1.642286 1_555
O14 P2 1.622091 1_555
O14 P6 1.642286 1_555
O15 P3 1.622091 1_555
O15 P7 1.642286 1_555
O16 P7 1.498094 1_555
O17 P6 1.498094 1_555
O18 P5 1.498094 1_565
O19 P4 1.498094 1_545
O20 P8 1.638729 1_555
O20 P4 1.644654 1_555
O21 P9 1.638729 1_555
O21 P5 1.644654 1_555
O22 P10 1.638729 1_555
O22 P6 1.644654 1_555
O23 P11 1.638729 1_555
O23 P7 1.644654 1_555
O24 P0 1.625066 1_555
O24 P8 1.659201 1_555
O25 P1 1.625066 1_555
O25 P9 1.659201 1_555
O26 P2 1.625066 1_555
O26 P10 1.659201 1_555
O27 P3 1.625066 1_555
O27 P11 1.659201 1_555
O28 P0 1.508683 1_555
O29 P1 1.508683 1_555
O30 P2 1.508683 1_555
O31 P3 1.508683 1_555
O32 P4 1.491022 1_555
O33 P5 1.491022 1_555
O34 P6 1.491022 1_655
O35 P7 1.491022 1_455
