# generated using pymatgen
data_MoW3(SeS3)2
_symmetry_space_group_name_H-M   'P 1'
_cell_length_a   3.22249789
_cell_length_b   3.22249789
_cell_length_c   36.37688900
_cell_angle_alpha   90.00000000
_cell_angle_beta   90.00000000
_cell_angle_gamma   119.99999766
_symmetry_Int_Tables_number   1
_chemical_formula_structural   MoW3(SeS3)2
_chemical_formula_sum   'Mo1 W3 Se2 S6'
_cell_volume   327.14589792
_cell_formula_units_Z   1
loop_
 _symmetry_equiv_pos_site_id
 _symmetry_equiv_pos_as_xyz
  1  'x, y, z'
loop_
 _atom_site_type_symbol
 _atom_site_label
 _atom_site_symmetry_multiplicity
 _atom_site_fract_x
 _atom_site_fract_y
 _atom_site_fract_z
 _atom_site_occupancy
  Mo  Mo0  1  0.00000000  0.00000000  0.09390800  1
  W  W0  1  0.00000000  0.00000000  0.46965400  1
  W  W1  1  0.33333300  0.66666700  0.28180000  1
  W  W2  1  0.33333300  0.66666700  0.65756700  1
  Se  Se0  1  0.00000000  0.00000000  0.70485800  1
  Se  Se1  1  0.00000000  0.00000000  0.61026700  1
  S  S0  1  0.00000000  0.00000000  0.32469300  1
  S  S1  1  0.33333300  0.66666700  0.05118500  1
  S  S2  1  0.33333300  0.66666700  0.42676400  1
  S  S3  1  0.33333300  0.66666700  0.13663400  1
  S  S4  1  0.33333300  0.66666700  0.51252900  1
  S  S5  1  0.00000000  0.00000000  0.23888900  1
loop_
_geom_bond_atom_site_label_1
_geom_bond_atom_site_label_2
_geom_bond_distance
_geom_bond_site_symmetry_2
Mo0 S1 2.424213 1_545
Mo0 S1 2.424215 1_445
Mo0 S1 2.424215 1_555
Mo0 S3 2.424283 1_545
Mo0 S3 2.424285 1_445
Mo0 S3 2.424285 1_555
Se0 W2 2.533954 1_545
Se0 W2 2.533956 1_555
Se0 W2 2.533956 1_445
Se1 W2 2.534176 1_545
Se1 W2 2.534178 1_445
Se1 W2 2.534178 1_555
S0 W1 2.428182 1_545
S0 W1 2.428185 1_445
S0 W1 2.428185 1_555
S2 W0 2.428112 1_565
S2 W0 2.428115 1_555
S2 W0 2.428115 1_665
S4 W0 2.427762 1_565
S4 W0 2.427764 1_665
S4 W0 2.427764 1_555
S5 W1 2.428603 1_545
S5 W1 2.428605 1_555
S5 W1 2.428605 1_445
