# generated using pymatgen
data_Pu3Pd4
_symmetry_space_group_name_H-M   'P 1'
_cell_length_a   7.97749117
_cell_length_b   7.97749117
_cell_length_c   7.97749155
_cell_angle_alpha   114.37986427
_cell_angle_beta   114.37986427
_cell_angle_gamma   114.37985901
_symmetry_Int_Tables_number   1
_chemical_formula_structural   Pu3Pd4
_chemical_formula_sum   'Pu6 Pd8'
_cell_volume   299.56229170
_cell_formula_units_Z   2
loop_
 _symmetry_equiv_pos_site_id
 _symmetry_equiv_pos_as_xyz
  1  'x, y, z'
loop_
 _atom_site_type_symbol
 _atom_site_label
 _atom_site_symmetry_multiplicity
 _atom_site_fract_x
 _atom_site_fract_y
 _atom_site_fract_z
 _atom_site_occupancy
  Pu  Pu0  1  0.40487900  0.28774200  0.02764500  1
  Pu  Pu1  1  0.28774200  0.02764500  0.40487900  1
  Pu  Pu2  1  0.02764500  0.40487900  0.28774200  1
  Pu  Pu3  1  0.59512100  0.71225800  0.97235500  1
  Pu  Pu4  1  0.71225800  0.97235500  0.59512100  1
  Pu  Pu5  1  0.97235500  0.59512100  0.71225800  1
  Pd  Pd0  1  0.00000000  0.00000000  0.00000000  1
  Pd  Pd1  1  0.50000000  0.50000000  0.50000000  1
  Pd  Pd2  1  0.21986100  0.54859900  0.05765000  1
  Pd  Pd3  1  0.54859900  0.05765000  0.21986100  1
  Pd  Pd4  1  0.05765000  0.21986100  0.54859900  1
  Pd  Pd5  1  0.78013900  0.45140100  0.94235000  1
  Pd  Pd6  1  0.45140100  0.94235000  0.78013900  1
  Pd  Pd7  1  0.94235000  0.78013900  0.45140100  1
loop_
_geom_bond_atom_site_label_1
_geom_bond_atom_site_label_2
_geom_bond_distance
_geom_bond_site_symmetry_2
Pd0 Pu5 2.936538 1_444
Pd0 Pu2 2.936538 1_555
Pd0 Pu1 2.936538 1_555
Pd0 Pu4 2.936538 1_444
Pd0 Pu3 2.936538 1_444
Pd0 Pu0 2.936538 1_555
Pd1 Pu5 2.992212 1_555
Pd1 Pu2 2.992212 1_555
Pd1 Pu1 2.992212 1_555
Pd1 Pu4 2.992212 1_555
Pd1 Pu3 2.992212 1_555
Pd1 Pu0 2.992212 1_555
Pd2 Pd5 2.873046 1_454
Pd2 Pu4 2.899731 1_555
Pd2 Pu5 2.930201 1_454
Pd2 Pu0 2.997078 1_555
Pd2 Pd4 3.018467 1_554
Pd2 Pd3 3.018467 1_565
Pd2 Pu4 3.072144 1_444
Pd2 Pu2 3.105607 1_555
Pd2 Pu3 3.212132 1_554
Pd2 Pu1 3.299173 1_565
Pd3 Pd6 2.873046 1_544
Pd3 Pu5 2.899731 1_555
Pd3 Pu3 2.930201 1_544
Pd3 Pu1 2.997078 1_555
Pd3 Pd4 3.018467 1_655
Pd3 Pu5 3.072144 1_444
Pd3 Pu0 3.105607 1_555
Pd3 Pu4 3.212132 1_545
Pd3 Pu2 3.299173 1_655
Pd4 Pd7 2.873046 1_445
Pd4 Pu3 2.899731 1_555
Pd4 Pu4 2.930201 1_445
Pd4 Pu2 2.997078 1_555
Pd4 Pu3 3.072144 1_444
Pd4 Pu1 3.105607 1_555
Pd4 Pu5 3.212132 1_455
Pd4 Pu0 3.299173 1_556
Pd5 Pu1 2.899731 1_555
Pd5 Pu2 2.930201 1_656
Pd5 Pu3 2.997078 1_555
Pd5 Pd7 3.018467 1_556
Pd5 Pd6 3.018467 1_545
Pd5 Pu1 3.072144 1_666
Pd5 Pu5 3.105607 1_555
Pd5 Pu0 3.212132 1_556
Pd5 Pu4 3.299173 1_545
Pd6 Pu2 2.899731 1_555
Pd6 Pu0 2.930201 1_566
Pd6 Pu4 2.997078 1_555
Pd6 Pd7 3.018467 1_455
Pd6 Pu2 3.072144 1_666
Pd6 Pu3 3.105607 1_555
Pd6 Pu1 3.212132 1_565
Pd6 Pu5 3.299173 1_455
Pd7 Pu0 2.899731 1_555
Pd7 Pu1 2.930201 1_665
Pd7 Pu5 2.997078 1_555
Pd7 Pu0 3.072144 1_666
Pd7 Pu4 3.105607 1_555
Pd7 Pu2 3.212132 1_655
Pd7 Pu3 3.299173 1_554
