# generated using pymatgen
data_Y2Cr3O9
_symmetry_space_group_name_H-M   'P 1'
_cell_length_a   5.25416487
_cell_length_b   16.32470503
_cell_length_c   7.55172796
_cell_angle_alpha   89.88536860
_cell_angle_beta   89.89322552
_cell_angle_gamma   90.16524700
_symmetry_Int_Tables_number   1
_chemical_formula_structural   Y2Cr3O9
_chemical_formula_sum   'Y8 Cr12 O36'
_cell_volume   647.72691213
_cell_formula_units_Z   4
loop_
 _symmetry_equiv_pos_site_id
 _symmetry_equiv_pos_as_xyz
  1  'x, y, z'
loop_
 _atom_site_type_symbol
 _atom_site_label
 _atom_site_symmetry_multiplicity
 _atom_site_fract_x
 _atom_site_fract_y
 _atom_site_fract_z
 _atom_site_occupancy
  Y  Y0  1  0.01175000  0.64983800  0.75231600  1
  Y  Y1  1  0.01911900  0.97875200  0.75482800  1
  Y  Y2  1  0.51077600  0.18398900  0.25050900  1
  Y  Y3  1  0.51707500  0.85359600  0.24492000  1
  Y  Y4  1  0.48887600  0.14946600  0.74979300  1
  Y  Y5  1  0.48302800  0.47987200  0.75142400  1
  Y  Y6  1  0.97995700  0.35454800  0.24788100  1
  Y  Y7  1  0.98830000  0.68340900  0.24747900  1
  Cr  Cr0  1  0.00047700  0.16636300  0.49991500  1
  Cr  Cr1  1  0.99052200  0.50162800  0.49615900  1
  Cr  Cr2  1  0.01167400  0.83080200  0.50374600  1
  Cr  Cr3  1  0.51156900  0.00079300  0.49477900  1
  Cr  Cr4  1  0.49236200  0.33285200  0.50868900  1
  Cr  Cr5  1  0.50042100  0.66656900  0.49981500  1
  Cr  Cr6  1  0.50533000  0.00076200  0.00955300  1
  Cr  Cr7  1  0.49034800  0.33275200  0.99413300  1
  Cr  Cr8  1  0.49955300  0.66665100  0.99977500  1
  Cr  Cr9  1  0.99919900  0.16672300  0.99982200  1
  Cr  Cr10  1  0.99436200  0.50163200  0.00951700  1
  Cr  Cr11  1  0.00394300  0.83204400  0.98985900  1
  O  O0  1  0.69201100  0.10328200  0.46600800  1
  O  O1  1  0.72322500  0.42907200  0.45906100  1
  O  O2  1  0.71449400  0.76468900  0.43514600  1
  O  O3  1  0.21637000  0.06913500  0.56345600  1
  O  O4  1  0.21989500  0.40637000  0.53502100  1
  O  O5  1  0.18326400  0.73157400  0.53383300  1
  O  O6  1  0.78284300  0.26382400  0.06255200  1
  O  O7  1  0.81153800  0.60425700  0.03326300  1
  O  O8  1  0.78472600  0.93058500  0.03489300  1
  O  O9  1  0.30616700  0.22931600  0.96686900  1
  O  O10  1  0.28407400  0.56887100  0.93849000  1
  O  O11  1  0.28676700  0.90287000  0.96439900  1
  O  O12  1  0.30624600  0.22833100  0.53362000  1
  O  O13  1  0.28616100  0.56936800  0.56467800  1
  O  O14  1  0.27477400  0.90584700  0.54074700  1
  O  O15  1  0.78244800  0.26413800  0.43775600  1
  O  O16  1  0.81888200  0.60206800  0.46681000  1
  O  O17  1  0.77450500  0.92697800  0.46370100  1
  O  O18  1  0.21736500  0.06962600  0.93805300  1
  O  O19  1  0.22098900  0.40357000  0.96426000  1
  O  O20  1  0.18877600  0.72881500  0.96708500  1
  O  O21  1  0.69564100  0.10528100  0.03349200  1
  O  O22  1  0.71400200  0.42902000  0.03590500  1
  O  O23  1  0.71645400  0.76410100  0.06133600  1
  O  O24  1  0.08273900  0.15894300  0.25090900  1
  O  O25  1  0.07836500  0.49306500  0.24353100  1
  O  O26  1  0.10279200  0.82184000  0.24806100  1
  O  O27  1  0.60286700  0.01211600  0.75097500  1
  O  O28  1  0.57224000  0.33807000  0.74631500  1
  O  O29  1  0.58331900  0.67337400  0.75562000  1
  O  O30  1  0.39687100  0.32136200  0.25114900  1
  O  O31  1  0.41711600  0.65987400  0.24445400  1
  O  O32  1  0.42694400  0.99495700  0.24660700  1
  O  O33  1  0.91661800  0.17442200  0.74908500  1
  O  O34  1  0.89751900  0.51136900  0.75249000  1
  O  O35  1  0.92235300  0.83991100  0.75545700  1
loop_
_geom_bond_atom_site_label_1
_geom_bond_atom_site_label_2
_geom_bond_distance
_geom_bond_site_symmetry_2
Cr0 O12 1.913728 1_555
Cr0 O24 1.932788 1_555
Cr0 O0 1.935395 1_455
Cr0 O33 1.936579 1_455
Cr0 O3 2.011368 1_555
Cr0 O15 2.022349 1_455
Cr1 O1 1.856616 1_555
Cr1 O16 1.886450 1_555
Cr1 O25 1.967317 1_655
Cr1 O13 1.974549 1_655
Cr1 O4 1.991747 1_655
Cr1 O34 2.002329 1_555
Cr2 O14 1.866254 1_555
Cr2 O5 1.869793 1_555
Cr2 O35 1.963113 1_455
Cr2 O2 1.966421 1_455
Cr2 O26 1.994224 1_555
Cr2 O17 2.029805 1_455
Cr3 O17 1.850734 1_545
Cr3 O32 1.929431 1_545
Cr3 O0 1.932343 1_555
Cr3 O3 1.982084 1_555
Cr3 O27 2.002949 1_555
Cr3 O14 2.013938 1_545
Cr4 O28 1.845750 1_555
Cr4 O4 1.881268 1_555
Cr4 O15 1.969141 1_555
Cr4 O12 1.972684 1_555
Cr4 O1 2.015953 1_555
Cr4 O30 2.018413 1_555
Cr5 O31 1.981421 1_555
Cr5 O29 1.984314 1_555
Cr5 O5 1.994663 1_555
Cr5 O16 1.995059 1_555
Cr5 O13 2.002412 1_555
Cr5 O2 2.013392 1_555
Cr6 O32 1.838383 1_545
Cr6 O8 1.874549 1_545
Cr6 O18 1.963410 1_554
Cr6 O21 1.983900 1_555
Cr6 O11 1.995461 1_544
Cr6 O27 2.025917 1_554
Cr7 O19 1.843897 1_555
Cr7 O28 1.921236 1_555
Cr7 O9 1.955203 1_555
Cr7 O6 1.976238 1_556
Cr7 O22 1.985668 1_556
Cr7 O30 2.009334 1_556
Cr8 O29 1.897685 1_555
Cr8 O31 1.899986 1_556
Cr8 O20 1.940906 1_555
Cr8 O7 1.949004 1_556
Cr8 O10 2.009581 1_555
Cr8 O23 2.010011 1_556
Cr9 O21 1.898102 1_556
Cr9 O9 1.922323 1_655
Cr9 O33 1.947259 1_555
Cr9 O24 1.951052 1_656
Cr9 O6 2.010158 1_556
Cr9 O18 2.013820 1_655
Cr10 O25 1.827476 1_655
Cr10 O22 1.898051 1_555
Cr10 O7 1.942018 1_555
Cr10 O10 1.947971 1_654
Cr10 O34 2.013594 1_554
Cr10 O19 2.027065 1_654
Cr11 O35 1.826444 1_455
Cr11 O11 1.889481 1_555
Cr11 O23 1.946311 1_456
Cr11 O20 1.955126 1_555
Cr11 O8 2.010345 1_456
Cr11 O26 2.025454 1_556
O0 Y2 2.301183 1_555
O0 Y4 2.510554 1_555
O1 Y6 2.419122 1_555
O1 Y5 2.675448 1_555
O2 Y3 2.291717 1_555
O2 Y7 2.418604 1_555
O3 Y1 2.305812 1_545
O3 Y4 2.398734 1_555
O4 Y5 2.455310 1_555
O4 Y6 2.649213 1_455
O5 Y0 2.300751 1_555
O5 Y7 2.520765 1_455
O6 Y6 2.286854 1_555
O6 Y2 2.393942 1_555
O7 Y7 2.270717 1_555
O7 Y0 2.478398 1_654
O8 Y3 2.458934 1_555
O8 Y1 2.566349 1_654
O9 Y4 2.306069 1_555
O9 Y2 2.509608 1_556
O10 Y5 2.282697 1_555
O10 Y0 2.404573 1_555
O11 Y1 2.455053 1_555
O11 Y3 2.570479 1_556
O12 Y4 2.290816 1_555
O12 Y2 2.500378 1_555
O13 Y5 2.280167 1_555
O13 Y0 2.413107 1_555
O14 Y1 2.417288 1_555
O14 Y3 2.709687 1_555
O15 Y6 2.299656 1_555
O15 Y2 2.398560 1_555
O16 Y7 2.297370 1_555
O16 Y0 2.508776 1_655
O17 Y3 2.449717 1_555
O17 Y1 2.685397 1_655
O18 Y1 2.281428 1_545
O18 Y4 2.393604 1_555
O19 Y5 2.450368 1_555
O19 Y6 2.609381 1_456
O20 Y0 2.272646 1_555
O20 Y7 2.474568 1_456
O21 Y2 2.299980 1_555
O21 Y4 2.509475 1_554
O22 Y6 2.450207 1_555
O22 Y5 2.604916 1_554
O23 Y3 2.272757 1_555
O23 Y7 2.400467 1_555
O24 Y2 2.284676 1_555
O25 Y6 2.318311 1_455
O26 Y3 2.236209 1_555
O26 Y7 2.336879 1_455
O27 Y1 2.255606 1_645
O27 Y4 2.322484 1_555
O28 Y5 2.363557 1_555
O29 Y0 2.284793 1_655
O30 Y6 2.258216 1_455
O30 Y2 2.322737 1_555
O31 Y7 2.286765 1_455
O32 Y3 2.357158 1_555
O33 Y4 2.282892 1_555
O34 Y5 2.236269 1_555
O34 Y0 2.337112 1_655
O35 Y1 2.321425 1_655
