# generated using pymatgen
data_UCuSi
_symmetry_space_group_name_H-M   'P 1'
_cell_length_a   4.23056992
_cell_length_b   4.23056992
_cell_length_c   7.66753000
_cell_angle_alpha   90.00000000
_cell_angle_beta   90.00000000
_cell_angle_gamma   119.99999875
_symmetry_Int_Tables_number   1
_chemical_formula_structural   UCuSi
_chemical_formula_sum   'U2 Cu2 Si2'
_cell_volume   118.84581012
_cell_formula_units_Z   2
loop_
 _symmetry_equiv_pos_site_id
 _symmetry_equiv_pos_as_xyz
  1  'x, y, z'
loop_
 _atom_site_type_symbol
 _atom_site_label
 _atom_site_symmetry_multiplicity
 _atom_site_fract_x
 _atom_site_fract_y
 _atom_site_fract_z
 _atom_site_occupancy
  U  U0  1  0.00000000  0.00000000  0.00000000  1
  U  U1  1  0.00000000  0.00000000  0.50000000  1
  Cu  Cu0  1  0.33333300  0.66666700  0.25000000  1
  Cu  Cu1  1  0.66666700  0.33333300  0.75000000  1
  Si  Si0  1  0.33333300  0.66666700  0.75000000  1
  Si  Si1  1  0.66666700  0.33333300  0.25000000  1
loop_
_geom_bond_atom_site_label_1
_geom_bond_atom_site_label_2
_geom_bond_distance
_geom_bond_site_symmetry_2
Cu0 Si1 2.442518 1_455
Cu0 Si1 2.442518 1_565
Cu0 Si1 2.442526 1_555
Cu0 U0 3.104889 1_565
Cu0 U1 3.104889 1_565
Cu0 U0 3.104892 1_555
Cu0 U0 3.104892 1_665
Cu0 U1 3.104892 1_555
Cu0 U1 3.104892 1_665
Cu1 Si0 2.442518 1_545
Cu1 Si0 2.442518 1_655
Cu1 Si0 2.442526 1_555
Cu1 U1 3.104889 1_655
Cu1 U0 3.104889 1_656
Cu1 U1 3.104892 1_555
Cu1 U0 3.104892 1_666
Cu1 U1 3.104892 1_665
Cu1 U0 3.104892 1_556
Si0 U1 3.104889 1_565
Si0 U0 3.104889 1_566
Si0 U1 3.104892 1_555
Si0 U0 3.104892 1_666
Si0 U1 3.104892 1_665
Si0 U0 3.104892 1_556
Si1 U1 3.104889 1_655
Si1 U0 3.104889 1_655
Si1 U0 3.104892 1_555
Si1 U1 3.104892 1_555
Si1 U0 3.104892 1_665
Si1 U1 3.104892 1_665
