# generated using pymatgen
data_MgHg2
_symmetry_space_group_name_H-M   'P 1'
_cell_length_a   5.17764710
_cell_length_b   5.17764710
_cell_length_c   6.80361370
_cell_angle_alpha   61.49867333
_cell_angle_beta   61.49867333
_cell_angle_gamma   59.37605843
_symmetry_Int_Tables_number   1
_chemical_formula_structural   MgHg2
_chemical_formula_sum   'Mg2 Hg4'
_cell_volume   131.15607513
_cell_formula_units_Z   2
loop_
 _symmetry_equiv_pos_site_id
 _symmetry_equiv_pos_as_xyz
  1  'x, y, z'
loop_
 _atom_site_type_symbol
 _atom_site_label
 _atom_site_symmetry_multiplicity
 _atom_site_fract_x
 _atom_site_fract_y
 _atom_site_fract_z
 _atom_site_occupancy
  Mg  Mg0  1  0.89433824  0.10566176  0.75000000  1
  Mg  Mg1  1  0.10566176  0.89433824  0.25000000  1
  Hg  Hg0  1  0.22837977  0.44007586  0.74561000  1
  Hg  Hg1  1  0.77162023  0.55992414  0.25439000  1
  Hg  Hg2  1  0.44007586  0.22837977  0.24561000  1
  Hg  Hg3  1  0.55992414  0.77162023  0.75439000  1
loop_
_geom_bond_atom_site_label_1
_geom_bond_atom_site_label_2
_geom_bond_distance
_geom_bond_site_symmetry_2
Hg0 Hg3 2.962539 1_545
Hg0 Hg3 2.962539 1_455
Hg0 Mg0 2.974031 1_465
Hg0 Mg0 2.975678 1_555
Hg0 Mg0 2.990414 1_455
Hg0 Hg3 3.015800 1_555
Hg0 Mg1 3.202960 1_555
Hg0 Hg1 3.208361 1_555
Hg0 Mg1 3.264728 1_546
Hg0 Hg1 3.271456 1_456
Hg1 Hg2 2.962539 1_655
Hg1 Hg2 2.962539 1_565
Hg1 Mg1 2.974031 1_645
Hg1 Mg1 2.975678 1_555
Hg1 Mg1 2.990414 1_655
Hg1 Hg2 3.015800 1_555
Hg1 Mg0 3.202960 1_555
Hg1 Mg0 3.264728 1_564
Hg2 Mg1 2.974031 1_645
Hg2 Mg1 2.975678 1_555
Hg2 Mg1 2.990414 1_545
Hg2 Mg0 3.202960 1_554
Hg2 Hg3 3.208361 1_554
Hg2 Mg0 3.264728 1_455
Hg2 Hg3 3.271456 1_545
Hg3 Mg0 2.974031 1_465
Hg3 Mg0 2.975678 1_555
Hg3 Mg0 2.990414 1_565
Hg3 Mg1 3.202960 1_556
Hg3 Mg1 3.264728 1_655
