# generated using pymatgen
data_NaFeBP2O11
_symmetry_space_group_name_H-M   'P 1'
_cell_length_a   9.38960098
_cell_length_b   9.38960098
_cell_length_c   15.91883092
_cell_angle_alpha   90.00000000
_cell_angle_beta   90.00000000
_cell_angle_gamma   119.99999830
_symmetry_Int_Tables_number   1
_chemical_formula_structural   NaFeBP2O11
_chemical_formula_sum   'Na6 Fe6 B6 P12 O66'
_cell_volume   1215.44715893
_cell_formula_units_Z   6
loop_
 _symmetry_equiv_pos_site_id
 _symmetry_equiv_pos_as_xyz
  1  'x, y, z'
loop_
 _atom_site_type_symbol
 _atom_site_label
 _atom_site_symmetry_multiplicity
 _atom_site_fract_x
 _atom_site_fract_y
 _atom_site_fract_z
 _atom_site_occupancy
  Na  Na0  1  0.80726763  0.19273237  0.75000000  1
  Na  Na1  1  0.38546473  0.19273237  0.41666700  1
  Na  Na2  1  0.19273237  0.80726763  0.25000000  1
  Na  Na3  1  0.61453527  0.80726763  0.91666700  1
  Na  Na4  1  0.80726763  0.61453527  0.08333300  1
  Na  Na5  1  0.19273237  0.38546473  0.58333300  1
  Fe  Fe0  1  0.44839318  0.55160682  0.75000000  1
  Fe  Fe1  1  0.10321364  0.55160682  0.41666700  1
  Fe  Fe2  1  0.55160682  0.44839318  0.25000000  1
  Fe  Fe3  1  0.89678636  0.44839318  0.91666700  1
  Fe  Fe4  1  0.44839318  0.89678636  0.08333300  1
  Fe  Fe5  1  0.55160682  0.10321364  0.58333300  1
  B  B0  1  0.15573105  0.84426895  0.75000000  1
  B  B1  1  0.68853790  0.84426895  0.41666700  1
  B  B2  1  0.84426895  0.15573105  0.25000000  1
  B  B3  1  0.31146210  0.15573105  0.91666700  1
  B  B4  1  0.15573105  0.31146210  0.08333300  1
  B  B5  1  0.84426895  0.68853790  0.58333300  1
  P  P0  1  0.60891274  0.77989178  0.58447734  1
  P  P1  1  0.17097904  0.39108726  0.25114434  1
  P  P2  1  0.39108726  0.22010822  0.08447734  1
  P  P3  1  0.82902096  0.22010822  0.08218966  1
  P  P4  1  0.22010822  0.82902096  0.91781034  1
  P  P5  1  0.82902096  0.60891274  0.75114434  1
  P  P6  1  0.77989178  0.60891274  0.41552266  1
  P  P7  1  0.17097904  0.77989178  0.58218966  1
  P  P8  1  0.77989178  0.17097904  0.41781034  1
  P  P9  1  0.22010822  0.39108726  0.91552266  1
  P  P10  1  0.39108726  0.17097904  0.74885566  1
  P  P11  1  0.60891274  0.82902096  0.24885566  1
  O  O0  1  0.57807480  0.75984526  0.48819568  1
  O  O1  1  0.18177046  0.42192520  0.15486268  1
  O  O2  1  0.42192520  0.24015474  0.98819568  1
  O  O3  1  0.81822954  0.24015474  0.17847132  1
  O  O4  1  0.24015474  0.81822954  0.82152868  1
  O  O5  1  0.81822954  0.57807480  0.65486268  1
  O  O6  1  0.75984526  0.57807480  0.51180432  1
  O  O7  1  0.18177046  0.75984526  0.67847132  1
  O  O8  1  0.75984526  0.18177046  0.32152868  1
  O  O9  1  0.24015474  0.42192520  0.01180432  1
  O  O10  1  0.42192520  0.18177046  0.84513732  1
  O  O11  1  0.57807480  0.81822954  0.34513732  1
  O  O12  1  0.85646227  0.85646227  -0.00000000  1
  O  O13  1  1.00000000  0.14353773  0.66666700  1
  O  O14  1  0.14353773  0.14353773  0.50000000  1
  O  O15  1  0.14353773  1.00000000  0.33333300  1
  O  O16  1  0.00000000  0.85646227  0.16666700  1
  O  O17  1  0.85646227  0.00000000  0.83333300  1
  O  O18  1  0.37897082  0.52493071  0.87320537  1
  O  O19  1  0.14595989  0.62102918  0.53987237  1
  O  O20  1  0.62102918  0.47506929  0.37320537  1
  O  O21  1  0.85404011  0.47506929  0.79346163  1
  O  O22  1  0.47506929  0.85404011  0.20653837  1
  O  O23  1  0.85404011  0.37897082  0.03987237  1
  O  O24  1  0.52493071  0.37897082  0.12679463  1
  O  O25  1  0.14595989  0.52493071  0.29346163  1
  O  O26  1  0.52493071  0.14595989  0.70653837  1
  O  O27  1  0.47506929  0.62102918  0.62679463  1
  O  O28  1  0.62102918  0.14595989  0.46012763  1
  O  O29  1  0.37897082  0.85404011  0.96012763  1
  O  O30  1  0.61122755  0.93370341  0.61792115  1
  O  O31  1  0.32247586  0.38877245  0.28458815  1
  O  O32  1  0.38877245  0.06629659  0.11792115  1
  O  O33  1  0.67752414  0.06629659  0.04874585  1
  O  O34  1  0.06629659  0.67752414  0.95125415  1
  O  O35  1  0.67752414  0.61122755  0.78458815  1
  O  O36  1  0.93370341  0.61122755  0.38207885  1
  O  O37  1  0.32247586  0.93370341  0.54874585  1
  O  O38  1  0.93370341  0.32247586  0.45125415  1
  O  O39  1  0.06629659  0.38877245  0.88207885  1
  O  O40  1  0.38877245  0.32247586  0.71541185  1
  O  O41  1  0.61122755  0.67752414  0.21541185  1
  O  O42  1  0.78123956  0.80073876  0.60317197  1
  O  O43  1  0.01949920  0.21876044  0.26983897  1
  O  O44  1  0.21876044  0.19926124  0.10317197  1
  O  O45  1  0.98050080  0.19926124  0.06349503  1
  O  O46  1  0.19926124  0.98050080  0.93650497  1
  O  O47  1  0.98050080  0.78123956  0.76983897  1
  O  O48  1  0.80073876  0.78123956  0.39682803  1
  O  O49  1  0.01949920  0.80073876  0.56349503  1
  O  O50  1  0.80073876  0.01949920  0.43650497  1
  O  O51  1  0.19926124  0.21876044  0.89682803  1
  O  O52  1  0.21876044  0.01949920  0.73016103  1
  O  O53  1  0.78123956  0.98050080  0.23016103  1
  O  O54  1  0.72293515  0.21175608  0.89137723  1
  O  O55  1  0.48882094  0.27706485  0.55804423  1
  O  O56  1  0.27706485  0.78824392  0.39137723  1
  O  O57  1  0.51117906  0.78824392  0.77528977  1
  O  O58  1  0.78824392  0.51117906  0.22471023  1
  O  O59  1  0.51117906  0.72293515  0.05804423  1
  O  O60  1  0.21175608  0.72293515  0.10862277  1
  O  O61  1  0.48882094  0.21175608  0.27528977  1
  O  O62  1  0.21175608  0.48882094  0.72471023  1
  O  O63  1  0.78824392  0.27706485  0.60862277  1
  O  O64  1  0.27706485  0.48882094  0.44195577  1
  O  O65  1  0.72293515  0.51117906  0.94195577  1
loop_
_geom_bond_atom_site_label_1
_geom_bond_atom_site_label_2
_geom_bond_distance
_geom_bond_site_symmetry_2
Na0 O63 2.421858 1_555
Na0 O54 2.421858 1_555
Na0 O17 2.466578 1_555
Na0 O13 2.466578 1_555
Na0 O26 2.556412 1_555
Na0 O21 2.556412 1_555
Na1 O55 2.421858 1_555
Na1 O61 2.421858 1_555
Na1 O14 2.466578 1_555
Na1 O15 2.466586 1_545
Na1 O28 2.556408 1_555
Na1 O20 2.556412 1_555
Na2 O60 2.421858 1_555
Na2 O56 2.421858 1_555
Na2 O16 2.466578 1_555
Na2 O15 2.466578 1_555
Na2 O25 2.556412 1_555
Na2 O22 2.556412 1_555
Na3 O59 2.421858 1_556
Na3 O57 2.421858 1_555
Na3 O12 2.466578 1_556
Na3 O17 2.466586 1_565
Na3 O29 2.556408 1_555
Na3 O18 2.556412 1_555
Na4 O65 2.421858 1_554
Na4 O58 2.421858 1_555
Na4 O12 2.466578 1_555
Na4 O16 2.466586 1_655
Na4 O23 2.556408 1_555
Na4 O24 2.556412 1_555
Na5 O64 2.421858 1_555
Na5 O62 2.421858 1_555
Na5 O14 2.466578 1_555
Na5 O13 2.466586 1_455
Na5 O19 2.556408 1_555
Na5 O27 2.556412 1_555
Fe0 O40 2.010192 1_555
Fe0 O35 2.010192 1_555
Fe0 O57 2.033884 1_555
Fe0 O62 2.033884 1_555
Fe0 O27 2.042306 1_555
Fe0 O18 2.042306 1_555
Fe1 O38 2.010188 1_455
Fe1 O36 2.010192 1_455
Fe1 O64 2.033881 1_555
Fe1 O56 2.033884 1_555
Fe1 O25 2.042306 1_555
Fe1 O19 2.042306 1_555
Fe2 O31 2.010192 1_555
Fe2 O41 2.010192 1_555
Fe2 O58 2.033884 1_555
Fe2 O61 2.033884 1_555
Fe2 O20 2.042306 1_555
Fe2 O24 2.042306 1_555
Fe3 O34 2.010188 1_655
Fe3 O39 2.010192 1_655
Fe3 O65 2.033881 1_555
Fe3 O54 2.033884 1_555
Fe3 O21 2.042306 1_555
Fe3 O23 2.042306 1_556
Fe4 O33 2.010188 1_565
Fe4 O32 2.010192 1_565
Fe4 O59 2.033881 1_555
Fe4 O60 2.033884 1_555
Fe4 O22 2.042306 1_555
Fe4 O29 2.042306 1_554
Fe5 O37 2.010188 1_545
Fe5 O30 2.010192 1_545
Fe5 O55 2.033881 1_555
Fe5 O63 2.033884 1_555
Fe5 O26 2.042306 1_555
Fe5 O28 2.042306 1_555
B0 O4 1.475977 1_555
B0 O7 1.475977 1_555
B0 O47 1.477631 1_455
B0 O52 1.477631 1_565
B1 O0 1.475977 1_555
B1 O11 1.475989 1_555
B1 O50 1.477627 1_565
B1 O48 1.477631 1_555
B2 O3 1.475977 1_555
B2 O8 1.475977 1_555
B2 O43 1.477631 1_655
B2 O53 1.477631 1_545
B3 O2 1.475977 1_555
B3 O10 1.475989 1_555
B3 O46 1.477627 1_545
B3 O51 1.477631 1_555
B4 O9 1.475977 1_555
B4 O1 1.475989 1_555
B4 O45 1.477627 1_455
B4 O44 1.477631 1_555
B5 O6 1.475977 1_555
B5 O5 1.475989 1_555
B5 O49 1.477627 1_655
B5 O42 1.477631 1_555
O0 P0 1.553677 1_555
O1 P1 1.553677 1_555
O2 P2 1.553677 1_556
O3 P3 1.553677 1_555
O4 P4 1.553677 1_555
O5 P5 1.553677 1_555
O6 P6 1.553677 1_555
O7 P7 1.553677 1_555
O8 P8 1.553677 1_555
O9 P9 1.553677 1_554
O10 P10 1.553677 1_555
O11 P11 1.553677 1_555
O18 P9 1.543891 1_555
O19 P7 1.543891 1_555
O20 P6 1.543891 1_555
O21 P5 1.543891 1_555
O22 P11 1.543891 1_555
O23 P3 1.543891 1_555
O24 P2 1.543891 1_555
O25 P1 1.543891 1_555
O26 P10 1.543891 1_555
O27 P0 1.543891 1_555
O28 P8 1.543891 1_555
O29 P4 1.543891 1_555
O30 P0 1.529156 1_555
O31 P1 1.529156 1_555
O32 P2 1.529156 1_555
O33 P3 1.529156 1_555
O34 P4 1.529156 1_555
O35 P5 1.529156 1_555
O36 P6 1.529156 1_555
O37 P7 1.529156 1_555
O38 P8 1.529156 1_555
O39 P9 1.529156 1_555
O40 P10 1.529156 1_555
O41 P11 1.529156 1_555
O42 P0 1.558311 1_555
O43 P1 1.558311 1_555
O44 P2 1.558311 1_555
O45 P3 1.558311 1_555
O46 P4 1.558311 1_555
O47 P5 1.558311 1_555
O48 P6 1.558311 1_555
O49 P7 1.558311 1_555
O50 P8 1.558311 1_555
O51 P9 1.558311 1_555
O52 P10 1.558311 1_555
O53 P11 1.558311 1_555
