# generated using pymatgen
data_Li9Mn2Co5O16
_symmetry_space_group_name_H-M   'P 1'
_cell_length_a   3.01943300
_cell_length_b   9.91483764
_cell_length_c   9.96598023
_cell_angle_alpha   77.83621274
_cell_angle_beta   86.98313815
_cell_angle_gamma   86.76283668
_symmetry_Int_Tables_number   1
_chemical_formula_structural   Li9Mn2Co5O16
_chemical_formula_sum   'Li9 Mn2 Co5 O16'
_cell_volume   290.93609838
_cell_formula_units_Z   1
loop_
 _symmetry_equiv_pos_site_id
 _symmetry_equiv_pos_as_xyz
  1  'x, y, z'
loop_
 _atom_site_type_symbol
 _atom_site_label
 _atom_site_symmetry_multiplicity
 _atom_site_fract_x
 _atom_site_fract_y
 _atom_site_fract_z
 _atom_site_occupancy
  Li  Li0  1  0.99908300  0.25125100  0.87445700  1
  Li  Li1  1  0.49663400  0.74728300  0.87593800  1
  Li  Li2  1  0.50336600  0.25271700  0.12406200  1
  Li  Li3  1  0.00091700  0.74874900  0.12554300  1
  Li  Li4  1  0.00838700  0.25346400  0.37225000  1
  Li  Li5  1  0.50082600  0.73965000  0.37939700  1
  Li  Li6  1  0.49917400  0.26035000  0.62060300  1
  Li  Li7  1  0.99161300  0.74653600  0.62775000  1
  Li  Li8  1  0.00000000  0.50000000  0.50000000  1
  Mn  Mn0  1  0.00035500  0.00143500  0.74957800  1
  Mn  Mn1  1  0.99964500  0.99856500  0.25042200  1
  Co  Co0  1  0.50057300  0.49818400  0.74165300  1
  Co  Co1  1  0.50000000  0.00000000  0.00000000  1
  Co  Co2  1  0.00000000  0.50000000  0.00000000  1
  Co  Co3  1  0.49942700  0.50181600  0.25834700  1
  Co  Co4  1  0.50000000  0.00000000  0.50000000  1
  O  O0  1  0.52694000  0.11510200  0.81933000  1
  O  O1  1  0.03015700  0.61474300  0.82094300  1
  O  O2  1  0.03495700  0.11538500  0.06524700  1
  O  O3  1  0.48842400  0.60920300  0.07364100  1
  O  O4  1  0.53044200  0.11439800  0.31883900  1
  O  O5  1  0.01534100  0.61513000  0.30756800  1
  O  O6  1  0.03997500  0.11728600  0.56441100  1
  O  O7  1  0.50171000  0.61425900  0.58379700  1
  O  O8  1  0.51157600  0.39079700  0.92635900  1
  O  O9  1  0.96504300  0.88461500  0.93475300  1
  O  O10  1  0.96984300  0.38525700  0.17905700  1
  O  O11  1  0.47306000  0.88489800  0.18067000  1
  O  O12  1  0.49829000  0.38574100  0.41620300  1
  O  O13  1  0.96002500  0.88271400  0.43558900  1
  O  O14  1  0.98465900  0.38487000  0.69243200  1
  O  O15  1  0.46955800  0.88560200  0.68116100  1
loop_
_geom_bond_atom_site_label_1
_geom_bond_atom_site_label_2
_geom_bond_distance
_geom_bond_site_symmetry_2
Li0 O14 2.009191 1_555
Li0 O8 2.083275 1_555
Li0 O2 2.089867 1_656
Li0 O0 2.154464 1_655
Li0 O0 2.183738 1_555
Li0 O8 2.281237 1_655
Li1 O15 2.130184 1_555
Li1 O1 2.143338 1_655
Li1 O1 2.145917 1_555
Li1 O3 2.149173 1_556
Li1 O9 2.182756 1_455
Li1 O9 2.199776 1_555
Li2 O4 2.130184 1_555
Li2 O10 2.143338 1_455
Li2 O10 2.145917 1_555
Li2 O8 2.149173 1_554
Li2 O2 2.182756 1_655
Li2 O2 2.199776 1_555
Li3 O5 2.009191 1_555
Li3 O3 2.083275 1_555
Li3 O9 2.089867 1_454
Li3 O11 2.154464 1_455
Li3 O11 2.183738 1_555
Li3 O3 2.281237 1_455
Li4 O12 2.055990 1_455
Li4 O10 2.091462 1_455
Li4 O6 2.101101 1_555
Li4 O12 2.151613 1_555
Li4 O4 2.155164 1_555
Li4 O4 2.209513 1_455
Li5 O5 2.118708 1_655
Li5 O7 2.151313 1_555
Li5 O11 2.192092 1_555
Li5 O5 2.207437 1_555
Li5 O13 2.210580 1_555
Li5 O13 2.229111 1_455
Li6 O14 2.118708 1_455
Li6 O12 2.151313 1_555
Li6 O0 2.192092 1_555
Li6 O14 2.207437 1_555
Li6 O6 2.210580 1_555
Li6 O6 2.229111 1_655
Li7 O7 2.055990 1_655
Li7 O1 2.091462 1_655
Li7 O13 2.101101 1_555
Li7 O7 2.151613 1_555
Li7 O15 2.155164 1_555
Li7 O15 2.209513 1_655
Li8 O14 2.014225 1_455
Li8 O5 2.014225 1_555
Li8 O12 2.078078 1_555
Li8 O7 2.078078 1_455
Li8 O12 2.236365 1_455
Li8 O7 2.236365 1_555
Mn0 O15 1.958458 1_545
Mn0 O6 1.959109 1_555
Mn0 O0 1.959658 1_455
Mn0 O9 1.962414 1_445
Mn0 O0 2.220419 1_555
Mn0 O15 2.237287 1_445
Mn1 O4 1.958458 1_565
Mn1 O13 1.959109 1_555
Mn1 O11 1.959658 1_655
Mn1 O2 1.962414 1_665
Mn1 O11 2.220419 1_555
Mn1 O4 2.237287 1_665
Co0 O7 1.742505 1_555
Co0 O14 1.900166 1_555
Co0 O8 1.923462 1_555
Co0 O1 2.014645 1_555
Co0 O14 2.107091 1_455
Co0 O1 2.289861 1_655
Co1 O0 1.918365 1_554
Co1 O11 1.918365 1_545
Co1 O2 1.933716 1_555
Co1 O9 1.933716 1_544
Co1 O2 2.230123 1_655
Co1 O9 2.230123 1_444
Co2 O1 1.904204 1_554
Co2 O10 1.904204 1_455
Co2 O3 2.030659 1_455
Co2 O8 2.030659 1_554
Co2 O3 2.124847 1_555
Co2 O8 2.124847 1_454
Co3 O12 1.742505 1_555
Co3 O5 1.900166 1_555
Co3 O3 1.923462 1_555
Co3 O10 2.014645 1_555
Co3 O5 2.107091 1_655
Co3 O10 2.289861 1_455
Co4 O15 1.919874 1_545
Co4 O4 1.919874 1_555
Co4 O13 1.931835 1_545
Co4 O6 1.931835 1_555
Co4 O6 2.249768 1_655
Co4 O13 2.249768 1_445
