# generated using pymatgen
data_Zn2Cd(BO3)2
_symmetry_space_group_name_H-M   'P 1'
_cell_length_a   6.32457163
_cell_length_b   6.42773899
_cell_length_c   6.56637283
_cell_angle_alpha   80.25868903
_cell_angle_beta   81.58853351
_cell_angle_gamma   82.93062789
_symmetry_Int_Tables_number   1
_chemical_formula_structural   Zn2Cd(BO3)2
_chemical_formula_sum   'Zn4 Cd2 B4 O12'
_cell_volume   258.93514014
_cell_formula_units_Z   2
loop_
 _symmetry_equiv_pos_site_id
 _symmetry_equiv_pos_as_xyz
  1  'x, y, z'
loop_
 _atom_site_type_symbol
 _atom_site_label
 _atom_site_symmetry_multiplicity
 _atom_site_fract_x
 _atom_site_fract_y
 _atom_site_fract_z
 _atom_site_occupancy
  Zn  Zn0  1  0.04652500  0.33583900  0.72537400  1
  Zn  Zn1  1  0.22219400  0.84066100  0.54457800  1
  Zn  Zn2  1  0.83837500  0.54539700  0.22373200  1
  Zn  Zn3  1  0.54023800  0.22987700  0.83829600  1
  Cd  Cd0  1  0.34573000  0.72623200  0.04047000  1
  Cd  Cd1  1  0.70837300  0.04703800  0.33868500  1
  B  B0  1  0.40854300  0.41605600  0.43392000  1
  B  B1  1  0.90648800  0.91623000  0.90233900  1
  B  B2  1  0.16301500  0.16980000  0.16013200  1
  B  B3  1  0.66844100  0.64331900  0.64905200  1
  O  O0  1  0.52481700  0.48516000  0.24281500  1
  O  O1  1  0.48289000  0.22601200  0.54745100  1
  O  O2  1  0.21974100  0.52703500  0.50939400  1
  O  O3  1  0.01212700  0.01857300  0.71852300  1
  O  O4  1  0.99780900  0.72371400  0.99632000  1
  O  O5  1  0.71291300  0.00434900  0.99594400  1
  O  O6  1  0.27182400  0.98207600  0.24951200  1
  O  O7  1  0.97735200  0.25536300  0.26697300  1
  O  O8  1  0.23736100  0.26733800  0.96133600  1
  O  O9  1  0.47650300  0.75773900  0.71073900  1
  O  O10  1  0.78660700  0.71304700  0.46034500  1
  O  O11  1  0.74233600  0.45934400  0.77407200  1
loop_
_geom_bond_atom_site_label_1
_geom_bond_atom_site_label_2
_geom_bond_distance
_geom_bond_site_symmetry_2
Cd0 O0 2.181956 1_555
Cd0 O9 2.186742 1_554
Cd0 O4 2.263466 1_454
Cd0 O6 2.279031 1_555
Cd1 O10 2.183028 1_545
Cd1 O1 2.189573 1_555
Cd1 O7 2.240934 1_555
Cd1 O5 2.308526 1_554
B0 O2 1.384616 1_555
B0 O1 1.386381 1_555
B0 O0 1.390891 1_555
B1 O4 1.384058 1_555
B1 O5 1.387241 1_565
B1 O3 1.392678 1_665
B2 O7 1.379888 1_455
B2 O8 1.390751 1_554
B2 O6 1.395758 1_545
B3 O9 1.384122 1_555
B3 O10 1.385067 1_555
B3 O11 1.392282 1_555
O0 Zn2 2.048966 1_555
O1 Zn3 2.000105 1_555
O2 Zn0 2.002210 1_555
O2 Zn1 2.069745 1_555
O3 Zn1 2.000390 1_545
O3 Zn0 2.085958 1_555
O4 Zn2 1.955791 1_556
O5 Zn3 1.949092 1_555
O6 Zn1 1.993754 1_555
O7 Zn2 1.954287 1_555
O8 Zn3 1.969681 1_555
O8 Zn0 2.058334 1_555
O9 Zn1 2.041342 1_555
O10 Zn2 2.003321 1_555
O11 Zn0 1.990908 1_655
O11 Zn3 2.020628 1_555
