# generated using pymatgen
data_Rb3Bi2I9
_symmetry_space_group_name_H-M   'P 1'
_cell_length_a   8.85491600
_cell_length_b   14.95499900
_cell_length_c   20.75444929
_cell_angle_alpha   86.66206212
_cell_angle_beta   90.00000000
_cell_angle_gamma   90.00000000
_symmetry_Int_Tables_number   1
_chemical_formula_structural   Rb3Bi2I9
_chemical_formula_sum   'Rb12 Bi8 I36'
_cell_volume   2743.75061002
_cell_formula_units_Z   4
loop_
 _symmetry_equiv_pos_site_id
 _symmetry_equiv_pos_as_xyz
  1  'x, y, z'
loop_
 _atom_site_type_symbol
 _atom_site_label
 _atom_site_symmetry_multiplicity
 _atom_site_fract_x
 _atom_site_fract_y
 _atom_site_fract_z
 _atom_site_occupancy
  Rb  Rb0  1  0.57224300  0.50460200  0.73839500  1
  Rb  Rb1  1  0.07224300  0.99539800  0.26160500  1
  Rb  Rb2  1  0.42775700  0.49539800  0.26160500  1
  Rb  Rb3  1  0.92775700  0.00460200  0.73839500  1
  Rb  Rb4  1  0.56504000  0.17746700  0.07865300  1
  Rb  Rb5  1  0.06504000  0.32253300  0.92134700  1
  Rb  Rb6  1  0.43496000  0.82253300  0.92134700  1
  Rb  Rb7  1  0.93496000  0.67746700  0.07865300  1
  Rb  Rb8  1  0.42604700  0.16031900  0.58388900  1
  Rb  Rb9  1  0.92604700  0.33968100  0.41611100  1
  Rb  Rb10  1  0.57395300  0.83968100  0.41611100  1
  Rb  Rb11  1  0.07395300  0.66031900  0.58388900  1
  Bi  Bi0  1  0.50658300  0.16352300  0.34057100  1
  Bi  Bi1  1  0.00658300  0.33647700  0.65942900  1
  Bi  Bi2  1  0.49341700  0.83647700  0.65942900  1
  Bi  Bi3  1  0.99341700  0.66352300  0.34057100  1
  Bi  Bi4  1  0.50503900  0.16913200  0.84050000  1
  Bi  Bi5  1  0.00503900  0.33086800  0.15950000  1
  Bi  Bi6  1  0.49496100  0.83086800  0.15950000  1
  Bi  Bi7  1  0.99496100  0.66913200  0.84050000  1
  I  I0  1  0.99039200  0.47800000  0.77037900  1
  I  I1  1  0.49039200  0.02200000  0.22962100  1
  I  I2  1  0.00960800  0.52200000  0.22962100  1
  I  I3  1  0.50960800  0.97800000  0.77037900  1
  I  I4  1  0.99192200  0.15740100  0.09740400  1
  I  I5  1  0.49192200  0.34259900  0.90259600  1
  I  I6  1  0.00807800  0.84259900  0.90259600  1
  I  I7  1  0.50807800  0.65740100  0.09740400  1
  I  I8  1  0.00728800  0.18832600  0.56827800  1
  I  I9  1  0.50728800  0.31167400  0.43172200  1
  I  I10  1  0.99271200  0.81167400  0.43172200  1
  I  I11  1  0.49271200  0.68832600  0.56827800  1
  I  I12  1  0.82137700  0.42025400  0.05356200  1
  I  I13  1  0.32137700  0.07974600  0.94643800  1
  I  I14  1  0.17862300  0.57974600  0.94643800  1
  I  I15  1  0.67862300  0.92025400  0.05356200  1
  I  I16  1  0.81906500  0.45885400  0.57267900  1
  I  I17  1  0.31906500  0.04114600  0.42732100  1
  I  I18  1  0.18093500  0.54114600  0.42732100  1
  I  I19  1  0.68093500  0.95885400  0.57267900  1
  I  I20  1  0.79800400  0.08539500  0.38881600  1
  I  I21  1  0.29800400  0.41460500  0.61118400  1
  I  I22  1  0.20199600  0.91460500  0.61118400  1
  I  I23  1  0.70199600  0.58539500  0.38881600  1
  I  I24  1  0.80063200  0.11849200  0.89950100  1
  I  I25  1  0.30063200  0.38150800  0.10049900  1
  I  I26  1  0.19936800  0.88150800  0.10049900  1
  I  I27  1  0.69936800  0.61849200  0.89950100  1
  I  I28  1  0.82373500  0.75787800  0.71219800  1
  I  I29  1  0.32373500  0.74212200  0.28780200  1
  I  I30  1  0.17626500  0.24212200  0.28780200  1
  I  I31  1  0.67626500  0.25787800  0.71219800  1
  I  I32  1  0.82175600  0.79689200  0.23511100  1
  I  I33  1  0.32175600  0.70310800  0.76488900  1
  I  I34  1  0.17824400  0.20310800  0.76488900  1
  I  I35  1  0.67824400  0.29689200  0.23511100  1
loop_
_geom_bond_atom_site_label_1
_geom_bond_atom_site_label_2
_geom_bond_distance
_geom_bond_site_symmetry_2
Bi0 I20 2.981703 1_555
Bi0 I17 2.994070 1_555
Bi0 I9 2.995976 1_555
Bi0 I1 3.220251 1_555
Bi0 I35 3.251310 1_555
Bi0 I30 3.314585 1_555
Bi1 I21 2.981703 1_555
Bi1 I16 2.994070 1_455
Bi1 I8 2.995976 1_555
Bi1 I0 3.220251 1_455
Bi1 I34 3.251310 1_555
Bi1 I31 3.314585 1_455
Bi2 I22 2.981703 1_555
Bi2 I19 2.994070 1_555
Bi2 I11 2.995976 1_555
Bi2 I3 3.220251 1_555
Bi2 I33 3.251310 1_555
Bi2 I28 3.314585 1_555
Bi3 I23 2.981703 1_555
Bi3 I18 2.994070 1_655
Bi3 I10 2.995976 1_555
Bi3 I2 3.220251 1_655
Bi3 I32 3.251310 1_555
Bi3 I29 3.314585 1_655
Bi4 I5 2.965403 1_555
Bi4 I24 2.969188 1_555
Bi4 I13 2.987271 1_555
Bi4 I31 3.277109 1_555
Bi4 I3 3.282430 1_545
Bi4 I34 3.316875 1_555
Bi5 I4 2.965403 1_455
Bi5 I25 2.969188 1_555
Bi5 I12 2.987271 1_455
Bi5 I30 3.277109 1_555
Bi5 I2 3.282430 1_555
Bi5 I35 3.316875 1_455
Bi6 I7 2.965403 1_555
Bi6 I26 2.969188 1_555
Bi6 I15 2.987271 1_555
Bi6 I29 3.277109 1_555
Bi6 I1 3.282430 1_565
Bi6 I32 3.316875 1_555
Bi7 I6 2.965403 1_655
Bi7 I27 2.969188 1_555
Bi7 I14 2.987271 1_655
Bi7 I28 3.277109 1_555
Bi7 I0 3.282430 1_555
Bi7 I33 3.316875 1_655
I0 Rb0 3.778619 1_555
I0 Rb5 3.848580 1_655
I1 Rb1 3.778619 1_545
I1 Rb4 3.848580 1_555
I2 Rb2 3.778619 1_555
I2 Rb7 3.848580 1_455
I3 Rb3 3.778619 1_565
I3 Rb6 3.848580 1_555
I4 Rb4 3.810031 1_555
I4 Rb1 4.126490 1_645
I5 Rb5 3.810031 1_555
I5 Rb0 4.126490 1_555
I6 Rb6 3.810031 1_555
I6 Rb3 4.126490 1_465
I7 Rb7 3.810031 1_555
I7 Rb2 4.126490 1_555
I8 Rb8 3.743585 1_555
I8 Rb9 3.844792 1_455
I9 Rb9 3.743585 1_555
I9 Rb8 3.844792 1_555
I10 Rb10 3.743585 1_555
I10 Rb11 3.844792 1_655
I11 Rb11 3.743585 1_555
I11 Rb10 3.844792 1_555
I12 Rb5 3.845496 1_654
I12 Rb7 4.038874 1_555
I12 Rb4 4.287945 1_555
I13 Rb4 3.845496 1_556
I13 Rb6 4.038874 1_545
I13 Rb5 4.287945 1_555
I14 Rb7 3.845496 1_456
I14 Rb5 4.038874 1_555
I14 Rb6 4.287945 1_555
I15 Rb6 3.845496 1_554
I15 Rb4 4.038874 1_565
I15 Rb7 4.287945 1_555
I16 Rb11 3.782523 1_655
I16 Rb9 3.912454 1_555
I16 Rb0 4.165090 1_555
I17 Rb10 3.782523 1_545
I17 Rb8 3.912454 1_555
I17 Rb1 4.165090 1_545
I18 Rb9 3.782523 1_455
I18 Rb11 3.912454 1_555
I18 Rb2 4.165090 1_555
I19 Rb8 3.782523 1_565
I19 Rb10 3.912454 1_555
I19 Rb3 4.165090 1_565
I20 Rb1 3.884950 1_645
I20 Rb9 4.039672 1_555
I20 Rb10 4.185409 1_545
I21 Rb0 3.884950 1_555
I21 Rb8 4.039672 1_555
I21 Rb11 4.185409 1_555
I22 Rb3 3.884950 1_465
I22 Rb11 4.039672 1_555
I22 Rb8 4.185409 1_565
I23 Rb2 3.884950 1_555
I23 Rb10 4.039672 1_555
I23 Rb9 4.185409 1_555
I24 Rb5 3.893541 1_655
I24 Rb3 4.001428 1_555
I25 Rb4 3.893541 1_555
I25 Rb2 4.001428 1_555
I26 Rb7 3.893541 1_455
I26 Rb1 4.001428 1_555
I27 Rb6 3.893541 1_555
I27 Rb0 4.001428 1_555
I28 Rb11 3.818603 1_655
I28 Rb3 3.871947 1_565
I29 Rb10 3.818603 1_555
I29 Rb2 3.871947 1_555
I30 Rb9 3.818603 1_455
I30 Rb1 3.871947 1_545
I31 Rb8 3.818603 1_555
I31 Rb0 3.871947 1_555
I32 Rb1 3.771615 1_655
I32 Rb7 3.926103 1_555
I33 Rb0 3.771615 1_555
I33 Rb6 3.926103 1_555
I34 Rb3 3.771615 1_455
I34 Rb5 3.926103 1_555
I35 Rb2 3.771615 1_555
I35 Rb4 3.926103 1_555
