# generated using pymatgen
data_MgF2
_symmetry_space_group_name_H-M   'P 1'
_cell_length_a   5.01233900
_cell_length_b   5.01233900
_cell_length_c   5.01233900
_cell_angle_alpha   90.00000000
_cell_angle_beta   90.00000000
_cell_angle_gamma   90.00000000
_symmetry_Int_Tables_number   1
_chemical_formula_structural   MgF2
_chemical_formula_sum   'Mg4 F8'
_cell_volume   125.92771064
_cell_formula_units_Z   4
loop_
 _symmetry_equiv_pos_site_id
 _symmetry_equiv_pos_as_xyz
  1  'x, y, z'
loop_
 _atom_site_type_symbol
 _atom_site_label
 _atom_site_symmetry_multiplicity
 _atom_site_fract_x
 _atom_site_fract_y
 _atom_site_fract_z
 _atom_site_occupancy
  Mg  Mg0  1  0.00000000  0.50000000  0.50000000  1
  Mg  Mg1  1  0.50000000  0.50000000  0.00000000  1
  Mg  Mg2  1  0.50000000  0.00000000  0.50000000  1
  Mg  Mg3  1  0.00000000  0.00000000  0.00000000  1
  F  F0  1  0.33992700  0.16007300  0.83992700  1
  F  F1  1  0.16007300  0.83992700  0.33992700  1
  F  F2  1  0.83992700  0.33992700  0.16007300  1
  F  F3  1  0.66007300  0.66007300  0.66007300  1
  F  F4  1  0.33992700  0.33992700  0.33992700  1
  F  F5  1  0.16007300  0.66007300  0.83992700  1
  F  F6  1  0.83992700  0.16007300  0.66007300  1
  F  F7  1  0.66007300  0.83992700  0.16007300  1
loop_
_geom_bond_atom_site_label_1
_geom_bond_atom_site_label_2
_geom_bond_distance
_geom_bond_site_symmetry_2
F0 Mg2 2.047079 1_555
F0 Mg1 2.047079 1_556
F0 Mg3 2.047079 1_556
F1 Mg0 2.047079 1_555
F1 Mg2 2.047079 1_565
F1 Mg3 2.047079 1_565
F2 Mg0 2.047079 1_655
F2 Mg1 2.047079 1_555
F2 Mg3 2.047079 1_655
F3 Mg0 2.047079 1_655
F3 Mg1 2.047079 1_556
F3 Mg2 2.047079 1_565
F4 Mg0 2.047079 1_555
F4 Mg2 2.047079 1_555
F4 Mg1 2.047079 1_555
F5 Mg0 2.047079 1_555
F5 Mg1 2.047079 1_556
F5 Mg3 2.047079 1_566
F6 Mg0 2.047079 1_655
F6 Mg2 2.047079 1_555
F6 Mg3 2.047079 1_656
F7 Mg3 2.047079 1_665
F7 Mg2 2.047079 1_565
F7 Mg1 2.047079 1_555
