# generated using pymatgen
data_AsSClOF8
_symmetry_space_group_name_H-M   'P 1'
_cell_length_a   9.34304800
_cell_length_b   8.62469800
_cell_length_c   10.04766061
_cell_angle_alpha   84.62802210
_cell_angle_beta   90.00000000
_cell_angle_gamma   90.00000000
_symmetry_Int_Tables_number   1
_chemical_formula_structural   AsSClOF8
_chemical_formula_sum   'As4 S4 Cl4 O4 F32'
_cell_volume   806.09412481
_cell_formula_units_Z   4
loop_
 _symmetry_equiv_pos_site_id
 _symmetry_equiv_pos_as_xyz
  1  'x, y, z'
loop_
 _atom_site_type_symbol
 _atom_site_label
 _atom_site_symmetry_multiplicity
 _atom_site_fract_x
 _atom_site_fract_y
 _atom_site_fract_z
 _atom_site_occupancy
  As  As0  1  0.31392800  0.99641200  0.80802800  1
  As  As1  1  0.18792900  0.49620500  0.30842500  1
  As  As2  1  0.68792900  0.50379500  0.69157500  1
  As  As3  1  0.81392800  0.00358800  0.19197200  1
  S  S0  1  0.82290500  0.00391400  0.63004800  1
  S  S1  1  0.65233100  0.49394900  0.13707500  1
  S  S2  1  0.15233100  0.50605100  0.86292500  1
  S  S3  1  0.32290500  0.99608600  0.36995200  1
  Cl  Cl0  1  0.80178800  0.03330300  0.81545500  1
  Cl  Cl1  1  0.70519500  0.53665700  0.31407800  1
  Cl  Cl2  1  0.20519500  0.46334300  0.68592200  1
  Cl  Cl3  1  0.30178800  0.96669700  0.18454500  1
  O  O0  1  0.69944800  0.97414500  0.55775800  1
  O  O1  1  0.19944800  0.02585500  0.44224200  1
  O  O2  1  0.55766600  0.37161400  0.12008600  1
  O  O3  1  0.05766600  0.62838600  0.87991400  1
  F  F0  1  0.35149100  0.16459800  0.89060600  1
  F  F1  1  0.15127700  0.66522400  0.39026000  1
  F  F2  1  0.65127700  0.33477600  0.60974000  1
  F  F3  1  0.85149100  0.83540200  0.10939400  1
  F  F4  1  0.22138600  0.91479100  0.95544200  1
  F  F5  1  0.28190900  0.41489000  0.45528100  1
  F  F6  1  0.78190900  0.58511000  0.54471900  1
  F  F7  1  0.72138600  0.08520900  0.04455800  1
  F  F8  1  0.15048100  0.08395400  0.74808700  1
  F  F9  1  0.35096000  0.58462300  0.24698600  1
  F  F10  1  0.85096000  0.41537700  0.75301400  1
  F  F11  1  0.65048100  0.91604600  0.25191300  1
  F  F12  1  0.47286400  0.90667700  0.87135100  1
  F  F13  1  0.02890100  0.40770700  0.37226400  1
  F  F14  1  0.52890100  0.59229300  0.62773600  1
  F  F15  1  0.97286400  0.09332300  0.12864900  1
  F  F16  1  0.26932000  0.82756200  0.72784200  1
  F  F17  1  0.23297400  0.32731700  0.22879100  1
  F  F18  1  0.73297400  0.67268300  0.77120900  1
  F  F19  1  0.76932000  0.17243800  0.27215800  1
  F  F20  1  0.40403800  0.07608600  0.66285500  1
  F  F21  1  0.09759800  0.57439100  0.16290300  1
  F  F22  1  0.59759800  0.42560900  0.83709700  1
  F  F23  1  0.90403800  0.92391400  0.33714500  1
  F  F24  1  0.79572500  0.48089800  0.06398700  1
  F  F25  1  0.29572500  0.51910200  0.93601300  1
  F  F26  1  0.90834400  0.14485200  0.56853100  1
  F  F27  1  0.60167900  0.64997100  0.06630800  1
  F  F28  1  0.10167900  0.35002900  0.93369200  1
  F  F29  1  0.40834400  0.85514800  0.43146900  1
  F  F30  1  0.93986200  0.87988600  0.62355300  1
  F  F31  1  0.43986200  0.12011400  0.37644700  1
loop_
_geom_bond_atom_site_label_1
_geom_bond_atom_site_label_2
_geom_bond_distance
_geom_bond_site_symmetry_2
As0 F12 1.765405 1_555
As0 F20 1.766627 1_565
As0 F0 1.772303 1_565
As0 F16 1.778558 1_555
As0 F8 1.783159 1_565
As0 F4 1.800486 1_555
As1 F13 1.763509 1_555
As1 F21 1.766433 1_555
As1 F1 1.772793 1_555
As1 F17 1.776872 1_555
As1 F9 1.787350 1_555
As1 F5 1.801761 1_555
As2 F14 1.763509 1_555
As2 F22 1.766433 1_555
As2 F2 1.772793 1_555
As2 F18 1.776872 1_555
As2 F10 1.787350 1_555
As2 F6 1.801761 1_555
As3 F15 1.765405 1_555
As3 F23 1.766627 1_545
As3 F3 1.772303 1_545
As3 F19 1.778558 1_555
As3 F11 1.783159 1_545
As3 F7 1.800486 1_555
Cl0 S0 1.913638 1_555
Cl1 S1 1.914478 1_555
Cl2 S2 1.914478 1_555
Cl3 S3 1.913638 1_555
O0 S0 1.399606 1_565
O1 S3 1.399606 1_545
O2 S1 1.399418 1_555
O3 S2 1.399418 1_555
F24 S1 1.536988 1_555
F25 S2 1.536988 1_555
F26 S0 1.534974 1_555
F27 S1 1.536600 1_555
F28 S2 1.536600 1_555
F29 S3 1.534974 1_555
F30 S0 1.534818 1_565
F31 S3 1.534818 1_545
