# generated using pymatgen
data_Ti3O7
_symmetry_space_group_name_H-M   'P 1'
_cell_length_a   17.49623271
_cell_length_b   17.49623271
_cell_length_c   9.49702401
_cell_angle_alpha   81.81629375
_cell_angle_beta   81.81629375
_cell_angle_gamma   12.16271992
_symmetry_Int_Tables_number   1
_chemical_formula_structural   Ti3O7
_chemical_formula_sum   'Ti6 O14'
_cell_volume   606.20828375
_cell_formula_units_Z   2
loop_
 _symmetry_equiv_pos_site_id
 _symmetry_equiv_pos_as_xyz
  1  'x, y, z'
loop_
 _atom_site_type_symbol
 _atom_site_label
 _atom_site_symmetry_multiplicity
 _atom_site_fract_x
 _atom_site_fract_y
 _atom_site_fract_z
 _atom_site_occupancy
  Ti  Ti0  1  0.23307000  0.23307000  0.77748100  1
  Ti  Ti1  1  0.76693000  0.76693000  0.22251900  1
  Ti  Ti2  1  0.21383900  0.21383900  0.47056300  1
  Ti  Ti3  1  0.78616100  0.78616100  0.52943700  1
  Ti  Ti4  1  0.19374000  0.19374000  0.15902700  1
  Ti  Ti5  1  0.80626000  0.80626000  0.84097300  1
  O  O0  1  0.20623600  0.20623600  0.95735300  1
  O  O1  1  0.79376400  0.79376400  0.04264700  1
  O  O2  1  0.19535000  0.19535000  0.65951300  1
  O  O3  1  0.80465000  0.80465000  0.34048700  1
  O  O4  1  0.17509000  0.17509000  0.35878600  1
  O  O5  1  0.82491000  0.82491000  0.64121400  1
  O  O6  1  0.14013400  0.14013400  0.13347400  1
  O  O7  1  0.85986600  0.85986600  0.86652600  1
  O  O8  1  0.29033600  0.29033600  0.84014400  1
  O  O9  1  0.70966400  0.70966400  0.15985600  1
  O  O10  1  0.26995400  0.26995400  0.55382600  1
  O  O11  1  0.73004600  0.73004600  0.44617400  1
  O  O12  1  0.25098000  0.25098000  0.24396500  1
  O  O13  1  0.74902000  0.74902000  0.75603500  1
loop_
_geom_bond_atom_site_label_1
_geom_bond_atom_site_label_2
_geom_bond_distance
_geom_bond_site_symmetry_2
O0 Ti0 1.825721 1_555
O0 Ti4 1.902369 1_556
O1 Ti1 1.825721 1_555
O1 Ti5 1.902369 1_554
O2 Ti2 1.817540 1_555
O2 Ti0 1.843582 1_555
O3 Ti3 1.817540 1_555
O3 Ti1 1.843582 1_555
O4 Ti2 1.831546 1_555
O4 Ti4 1.915123 1_555
O5 Ti3 1.831546 1_555
O5 Ti5 1.915123 1_555
O6 Ti4 1.915110 1_555
O7 Ti5 1.915110 1_555
O8 Ti5 1.934944 1_545
O8 Ti5 1.934944 1_455
O8 Ti0 2.159659 1_555
O9 Ti4 1.934944 1_655
O9 Ti4 1.934944 1_565
O9 Ti1 2.159659 1_555
O10 Ti3 1.941638 1_455
O10 Ti3 1.941638 1_545
O10 Ti2 2.209026 1_555
O10 Ti0 2.319107 1_555
O11 Ti2 1.941638 1_655
O11 Ti2 1.941638 1_565
O11 Ti3 2.209026 1_555
O11 Ti1 2.319107 1_555
O12 Ti1 1.937220 1_455
O12 Ti1 1.937220 1_545
O12 Ti4 2.253340 1_555
O12 Ti2 2.346279 1_555
O13 Ti0 1.937220 1_655
O13 Ti0 1.937220 1_565
O13 Ti5 2.253340 1_555
O13 Ti3 2.346279 1_555
