# generated using pymatgen
data_Fe(BMo)2
_symmetry_space_group_name_H-M   'P 1'
_cell_length_a   5.77591900
_cell_length_b   5.77591900
_cell_length_c   3.16644300
_cell_angle_alpha   90.00000000
_cell_angle_beta   90.00000000
_cell_angle_gamma   90.00000000
_symmetry_Int_Tables_number   1
_chemical_formula_structural   Fe(BMo)2
_chemical_formula_sum   'Fe2 B4 Mo4'
_cell_volume   105.63646580
_cell_formula_units_Z   2
loop_
 _symmetry_equiv_pos_site_id
 _symmetry_equiv_pos_as_xyz
  1  'x, y, z'
loop_
 _atom_site_type_symbol
 _atom_site_label
 _atom_site_symmetry_multiplicity
 _atom_site_fract_x
 _atom_site_fract_y
 _atom_site_fract_z
 _atom_site_occupancy
  Fe  Fe0  1  0.50000000  0.50000000  0.00000000  1
  Fe  Fe1  1  0.00000000  0.00000000  0.00000000  1
  B  B0  1  0.11307800  0.61307800  0.00000000  1
  B  B1  1  0.88692200  0.38692200  0.00000000  1
  B  B2  1  0.61307800  0.88692200  0.00000000  1
  B  B3  1  0.38692200  0.11307800  0.00000000  1
  Mo  Mo0  1  0.67760500  0.17760500  0.50000000  1
  Mo  Mo1  1  0.32239500  0.82239500  0.50000000  1
  Mo  Mo2  1  0.17760500  0.32239500  0.50000000  1
  Mo  Mo3  1  0.82239500  0.67760500  0.50000000  1
loop_
_geom_bond_atom_site_label_1
_geom_bond_atom_site_label_2
_geom_bond_distance
_geom_bond_site_symmetry_2
Fe0 Mo3 2.650743 1_554
Fe0 Mo0 2.650743 1_554
Fe0 Mo1 2.650743 1_555
Fe0 Mo1 2.650743 1_554
Fe0 Mo2 2.650743 1_555
Fe0 Mo3 2.650743 1_555
Fe0 Mo0 2.650743 1_555
Fe0 Mo2 2.650743 1_554
Fe1 Mo2 2.650743 1_555
Fe1 Mo3 2.650743 1_445
Fe1 Mo3 2.650743 1_444
Fe1 Mo0 2.650743 1_455
Fe1 Mo0 2.650743 1_454
Fe1 Mo1 2.650743 1_545
Fe1 Mo2 2.650743 1_554
Fe1 Mo1 2.650743 1_544
B0 B1 1.847329 1_455
B0 Fe0 2.328313 1_555
B0 Fe1 2.328313 1_565
B0 Mo1 2.330224 1_555
B0 Mo1 2.330224 1_554
B0 Mo3 2.337608 1_455
B0 Mo2 2.337608 1_554
B0 Mo3 2.337608 1_454
B0 Mo2 2.337608 1_555
B1 Fe0 2.328313 1_555
B1 Fe1 2.328313 1_655
B1 Mo0 2.330224 1_554
B1 Mo0 2.330224 1_555
B1 Mo2 2.337608 1_654
B1 Mo3 2.337608 1_555
B1 Mo3 2.337608 1_554
B1 Mo2 2.337608 1_655
B2 B3 1.847329 1_565
B2 Fe0 2.328313 1_555
B2 Fe1 2.328313 1_665
B2 Mo3 2.330224 1_555
B2 Mo3 2.330224 1_554
B2 Mo0 2.337608 1_565
B2 Mo0 2.337608 1_564
B2 Mo1 2.337608 1_555
B2 Mo1 2.337608 1_554
B3 Fe1 2.328313 1_555
B3 Fe0 2.328313 1_555
B3 Mo2 2.330224 1_555
B3 Mo2 2.330224 1_554
B3 Mo0 2.337608 1_555
B3 Mo1 2.337608 1_545
B3 Mo1 2.337608 1_544
B3 Mo0 2.337608 1_554
