# generated using pymatgen
data_Tb6Fe23
_symmetry_space_group_name_H-M   'P 1'
_cell_length_a   8.54380436
_cell_length_b   8.54380436
_cell_length_c   8.54380436
_cell_angle_alpha   60.00000000
_cell_angle_beta   60.00000000
_cell_angle_gamma   60.00000000
_symmetry_Int_Tables_number   1
_chemical_formula_structural   Tb6Fe23
_chemical_formula_sum   'Tb6 Fe23'
_cell_volume   441.00030265
_cell_formula_units_Z   1
loop_
 _symmetry_equiv_pos_site_id
 _symmetry_equiv_pos_as_xyz
  1  'x, y, z'
loop_
 _atom_site_type_symbol
 _atom_site_label
 _atom_site_symmetry_multiplicity
 _atom_site_fract_x
 _atom_site_fract_y
 _atom_site_fract_z
 _atom_site_occupancy
  Tb  Tb0  1  0.79022600  0.79022600  0.20977400  1
  Tb  Tb1  1  0.20977400  0.79022600  0.20977400  1
  Tb  Tb2  1  0.79022600  0.20977400  0.20977400  1
  Tb  Tb3  1  0.20977400  0.20977400  0.79022600  1
  Tb  Tb4  1  0.79022600  0.20977400  0.79022600  1
  Tb  Tb5  1  0.20977400  0.79022600  0.79022600  1
  Fe  Fe0  1  0.50000000  0.50000000  0.50000000  1
  Fe  Fe1  1  0.00000000  0.00000000  0.50000000  1
  Fe  Fe2  1  0.50000000  0.00000000  0.50000000  1
  Fe  Fe3  1  0.00000000  0.50000000  0.50000000  1
  Fe  Fe4  1  0.50000000  0.50000000  0.00000000  1
  Fe  Fe5  1  0.00000000  0.50000000  0.00000000  1
  Fe  Fe6  1  0.50000000  0.00000000  0.00000000  1
  Fe  Fe7  1  0.62157900  0.62157900  0.13526200  1
  Fe  Fe8  1  0.62157900  0.13526200  0.62157900  1
  Fe  Fe9  1  0.13526200  0.62157900  0.62157900  1
  Fe  Fe10  1  0.62157900  0.62157900  0.62157900  1
  Fe  Fe11  1  0.37842100  0.37842100  0.86473800  1
  Fe  Fe12  1  0.37842100  0.86473800  0.37842100  1
  Fe  Fe13  1  0.86473800  0.37842100  0.37842100  1
  Fe  Fe14  1  0.37842100  0.37842100  0.37842100  1
  Fe  Fe15  1  0.82391800  0.82391800  0.52824500  1
  Fe  Fe16  1  0.82391800  0.52824500  0.82391800  1
  Fe  Fe17  1  0.52824500  0.82391800  0.82391800  1
  Fe  Fe18  1  0.82391800  0.82391800  0.82391800  1
  Fe  Fe19  1  0.17608200  0.17608200  0.47175500  1
  Fe  Fe20  1  0.17608200  0.47175500  0.17608200  1
  Fe  Fe21  1  0.47175500  0.17608200  0.17608200  1
  Fe  Fe22  1  0.17608200  0.17608200  0.17608200  1
loop_
_geom_bond_atom_site_label_1
_geom_bond_atom_site_label_2
_geom_bond_distance
_geom_bond_site_symmetry_2
Fe0 Fe10 2.544401 1_555
Fe0 Fe14 2.544401 1_555
Fe0 Fe9 2.544408 1_555
Fe0 Fe8 2.544408 1_555
Fe0 Fe12 2.544408 1_555
Fe0 Fe13 2.544408 1_555
Fe0 Fe7 2.544408 1_555
Fe0 Fe11 2.544408 1_555
Fe1 Fe18 2.474242 1_445
Fe1 Fe22 2.474242 1_555
Fe1 Fe15 2.474247 1_445
Fe1 Fe19 2.474247 1_555
Fe1 Fe13 2.640723 1_455
Fe1 Fe9 2.640723 1_545
Fe1 Fe12 2.640723 1_545
Fe1 Fe8 2.640723 1_455
Fe1 Tb5 3.059544 1_545
Fe1 Tb2 3.059544 1_455
Fe1 Tb1 3.059544 1_545
Fe1 Tb4 3.059544 1_455
Fe2 Fe21 2.474239 1_555
Fe2 Fe8 2.640716 1_555
Fe2 Tb0 3.059544 1_545
Fe2 Tb3 3.059544 1_555
Fe2 Tb5 3.059544 1_545
Fe2 Tb2 3.059544 1_555
Fe3 Fe9 2.640716 1_555
Fe3 Tb3 3.059544 1_555
Fe3 Tb0 3.059544 1_455
Fe3 Tb1 3.059544 1_555
Fe3 Tb4 3.059544 1_455
Fe4 Fe7 2.640716 1_555
Fe4 Tb5 3.059544 1_554
Fe4 Tb1 3.059544 1_555
Fe4 Tb4 3.059544 1_554
Fe4 Tb2 3.059544 1_555
Fe5 Fe9 2.640723 1_554
Fe5 Fe7 2.640723 1_455
Fe5 Tb0 3.059544 1_455
Fe5 Tb5 3.059544 1_554
Fe5 Tb3 3.059544 1_554
Fe5 Tb2 3.059544 1_455
Fe6 Fe7 2.640723 1_545
Fe6 Fe8 2.640723 1_554
Fe6 Tb0 3.059544 1_545
Fe6 Tb4 3.059544 1_554
Fe6 Tb3 3.059544 1_554
Fe6 Tb1 3.059544 1_545
Fe7 Tb2 2.910032 1_555
Fe7 Tb1 2.910032 1_555
Fe7 Tb0 2.910039 1_555
Fe8 Tb2 2.910032 1_555
Fe8 Tb3 2.910032 1_555
Fe8 Tb4 2.910039 1_555
Fe9 Tb1 2.910032 1_555
Fe9 Tb3 2.910032 1_555
Fe9 Tb5 2.910039 1_555
Fe10 Fe15 2.616194 1_555
Fe10 Fe16 2.616194 1_555
Fe10 Fe17 2.616194 1_555
Fe10 Fe2 2.640723 1_565
Fe10 Fe4 2.640723 1_556
Fe10 Fe3 2.640723 1_655
Fe10 Tb0 2.910033 1_555
Fe10 Tb4 2.910033 1_555
Fe10 Tb5 2.910033 1_555
Fe10 Fe12 2.938021 1_555
Fe10 Fe11 2.938021 1_555
Fe10 Fe13 2.938021 1_555
Fe11 Fe21 2.616194 1_556
Fe11 Fe22 2.616194 1_556
Fe11 Fe20 2.616194 1_556
Fe11 Fe4 2.640716 1_556
Fe11 Fe6 2.640723 1_556
Fe11 Fe5 2.640723 1_556
Fe11 Tb5 2.910032 1_555
Fe11 Tb4 2.910032 1_555
Fe11 Tb3 2.910039 1_555
Fe11 Fe9 2.938033 1_555
Fe11 Fe8 2.938033 1_555
Fe12 Fe21 2.616194 1_565
Fe12 Fe22 2.616194 1_565
Fe12 Fe19 2.616194 1_565
Fe12 Fe2 2.640716 1_565
Fe12 Fe6 2.640723 1_565
Fe12 Tb5 2.910032 1_555
Fe12 Tb0 2.910032 1_555
Fe12 Tb1 2.910039 1_555
Fe12 Fe9 2.938033 1_555
Fe12 Fe7 2.938033 1_555
Fe13 Fe22 2.616194 1_655
Fe13 Fe20 2.616194 1_655
Fe13 Fe19 2.616194 1_655
Fe13 Fe3 2.640716 1_655
Fe13 Fe5 2.640723 1_655
Fe13 Tb0 2.910032 1_555
Fe13 Tb4 2.910032 1_555
Fe13 Tb2 2.910039 1_555
Fe13 Fe8 2.938033 1_555
Fe13 Fe7 2.938033 1_555
Fe14 Fe20 2.616194 1_555
Fe14 Fe19 2.616194 1_555
Fe14 Fe21 2.616194 1_555
Fe14 Fe4 2.640723 1_555
Fe14 Fe2 2.640723 1_555
Fe14 Fe3 2.640723 1_555
Fe14 Tb2 2.910033 1_555
Fe14 Tb3 2.910033 1_555
Fe14 Tb1 2.910033 1_555
Fe14 Fe8 2.938021 1_555
Fe14 Fe7 2.938021 1_555
Fe14 Fe9 2.938021 1_555
Fe15 Fe2 2.474239 1_565
Fe15 Fe3 2.474239 1_655
Fe15 Fe17 2.526172 1_555
Fe15 Fe18 2.526172 1_555
Fe15 Fe16 2.526172 1_555
Fe15 Fe8 2.616194 1_565
Fe15 Fe9 2.616194 1_655
Fe15 Tb0 3.036227 1_555
Fe15 Tb2 3.036232 1_565
Fe15 Tb1 3.036232 1_655
Fe16 Fe4 2.474239 1_556
Fe16 Fe3 2.474239 1_655
Fe16 Fe5 2.474247 1_656
Fe16 Fe17 2.526172 1_555
Fe16 Fe18 2.526172 1_555
Fe16 Fe7 2.616194 1_556
Fe16 Fe9 2.616194 1_655
Fe16 Tb4 3.036227 1_555
Fe16 Tb2 3.036232 1_556
Fe16 Tb3 3.036232 1_655
Fe17 Fe2 2.474239 1_565
Fe17 Fe4 2.474239 1_556
Fe17 Fe6 2.474247 1_566
Fe17 Fe18 2.526172 1_555
Fe17 Fe8 2.616194 1_565
Fe17 Fe7 2.616194 1_556
Fe17 Tb5 3.036227 1_555
Fe17 Tb1 3.036232 1_556
Fe17 Tb3 3.036232 1_565
Fe18 Fe5 2.474242 1_656
Fe18 Fe6 2.474242 1_566
Fe18 Fe7 2.616194 1_556
Fe18 Fe8 2.616194 1_565
Fe18 Fe9 2.616194 1_655
Fe18 Tb5 3.036235 1_655
Fe18 Tb4 3.036235 1_565
Fe18 Tb0 3.036235 1_556
Fe19 Fe2 2.474239 1_555
Fe19 Fe3 2.474239 1_555
Fe19 Fe21 2.526172 1_555
Fe19 Fe22 2.526172 1_555
Fe19 Fe20 2.526172 1_555
Fe19 Tb3 3.036227 1_555
Fe19 Tb4 3.036232 1_455
Fe19 Tb5 3.036232 1_545
Fe20 Fe4 2.474239 1_555
Fe20 Fe3 2.474239 1_555
Fe20 Fe5 2.474247 1_555
Fe20 Fe21 2.526172 1_555
Fe20 Fe22 2.526172 1_555
Fe20 Tb1 3.036227 1_555
Fe20 Tb0 3.036232 1_455
Fe20 Tb5 3.036232 1_554
Fe21 Fe4 2.474239 1_555
Fe21 Fe6 2.474247 1_555
Fe21 Fe22 2.526172 1_555
Fe21 Tb2 3.036227 1_555
Fe21 Tb0 3.036232 1_545
Fe21 Tb4 3.036232 1_554
Fe22 Fe5 2.474242 1_555
Fe22 Fe6 2.474242 1_555
Fe22 Tb2 3.036235 1_455
Fe22 Tb3 3.036235 1_554
Fe22 Tb1 3.036235 1_545
