# generated using pymatgen
data_Gd2Hf2O7
_symmetry_space_group_name_H-M   'P 1'
_cell_length_a   7.43303013
_cell_length_b   7.43303084
_cell_length_c   7.43303135
_cell_angle_alpha   60.00029124
_cell_angle_beta   60.00028910
_cell_angle_gamma   60.00029058
_symmetry_Int_Tables_number   1
_chemical_formula_structural   Gd2Hf2O7
_chemical_formula_sum   'Gd4 Hf4 O14'
_cell_volume   290.39267230
_cell_formula_units_Z   2
loop_
 _symmetry_equiv_pos_site_id
 _symmetry_equiv_pos_as_xyz
  1  'x, y, z'
loop_
 _atom_site_type_symbol
 _atom_site_label
 _atom_site_symmetry_multiplicity
 _atom_site_fract_x
 _atom_site_fract_y
 _atom_site_fract_z
 _atom_site_occupancy
  Gd  Gd0  1  0.62500004  0.12500045  0.12499997  1
  Gd  Gd1  1  0.12499966  0.62499971  0.12500029  1
  Gd  Gd2  1  0.12499998  0.12499996  0.62500008  1
  Gd  Gd3  1  0.12500013  0.12499980  0.12499999  1
  Hf  Hf0  1  0.12499987  0.62500015  0.62499998  1
  Hf  Hf1  1  0.62499993  0.12499994  0.62500000  1
  Hf  Hf2  1  0.62500000  0.62500008  0.12499993  1
  Hf  Hf3  1  0.62499973  0.62500014  0.62500016  1
  O  O0  1  0.71045429  0.71045464  0.28954567  1
  O  O1  1  0.28954546  0.28954603  0.71045373  1
  O  O2  1  0.71045452  0.28954588  0.71045461  1
  O  O3  1  0.28954552  0.71045390  0.28954571  1
  O  O4  1  0.28954563  0.71045475  0.71045446  1
  O  O5  1  0.71045427  0.28954574  0.28954538  1
  O  O6  1  0.53954547  0.53954552  0.96045448  1
  O  O7  1  0.96045435  0.96045419  0.53954661  1
  O  O8  1  0.53954561  0.96045426  0.53954542  1
  O  O9  1  0.96045429  0.53954602  0.96045445  1
  O  O10  1  0.96045422  0.53954584  0.53954561  1
  O  O11  1  0.53954592  0.96045404  0.96045445  1
  O  O12  1  0.24999942  0.24999891  0.24999966  1
  O  O13  1  0.00000069  0.00000103  0.00000033  1
loop_
_geom_bond_atom_site_label_1
_geom_bond_atom_site_label_2
_geom_bond_distance
_geom_bond_site_symmetry_2
Gd0 O12 2.275903 1_555
Gd0 O13 2.275904 1_655
Gd0 O5 2.538678 1_555
Gd0 O11 2.538685 1_544
Gd0 O6 2.538693 1_554
Gd0 O2 2.538695 1_554
Gd0 O8 2.538695 1_545
Gd0 O0 2.538698 1_545
Gd1 O12 2.275905 1_555
Gd1 O13 2.275908 1_565
Gd1 O9 2.538678 1_454
Gd1 O3 2.538682 1_555
Gd1 O0 2.538694 1_455
Gd1 O10 2.538695 1_455
Gd1 O4 2.538697 1_554
Gd1 O6 2.538697 1_554
Gd2 O13 2.275902 1_556
Gd2 O12 2.275903 1_555
Gd2 O7 2.538678 1_445
Gd2 O1 2.538680 1_555
Gd2 O4 2.538694 1_545
Gd2 O2 2.538695 1_455
Gd2 O8 2.538696 1_545
Gd2 O10 2.538698 1_455
Gd3 O13 2.275874 1_555
Gd3 O12 2.275875 1_555
Gd3 O11 2.538699 1_544
Gd3 O5 2.538699 1_455
Gd3 O3 2.538700 1_545
Gd3 O9 2.538702 1_454
Gd3 O1 2.538702 1_554
Gd3 O7 2.538704 1_445
Hf0 O10 2.063982 1_455
Hf0 O4 2.063985 1_555
Hf0 O7 2.063993 1_455
Hf0 O1 2.063994 1_555
Hf0 O3 2.063995 1_555
Hf0 O9 2.063996 1_455
Hf1 O8 2.063984 1_545
Hf1 O2 2.063987 1_555
Hf1 O7 2.063995 1_545
Hf1 O1 2.063996 1_555
Hf1 O11 2.063996 1_545
Hf1 O5 2.063997 1_555
Hf2 O6 2.063983 1_554
Hf2 O0 2.063984 1_555
Hf2 O11 2.063993 1_554
Hf2 O9 2.063994 1_554
Hf2 O5 2.063995 1_555
Hf2 O3 2.063996 1_555
Hf3 O4 2.063990 1_555
Hf3 O8 2.063991 1_555
Hf3 O2 2.063991 1_555
Hf3 O6 2.063992 1_555
Hf3 O10 2.063993 1_555
Hf3 O0 2.063993 1_555
