# generated using pymatgen
data_Nd2Fe17C
_symmetry_space_group_name_H-M   'P 1'
_cell_length_a   6.49663527
_cell_length_b   6.49663527
_cell_length_c   6.50862433
_cell_angle_alpha   83.84017095
_cell_angle_beta   83.84017095
_cell_angle_gamma   83.47760512
_symmetry_Int_Tables_number   1
_chemical_formula_structural   Nd2Fe17C
_chemical_formula_sum   'Nd2 Fe17 C1'
_cell_volume   270.09011727
_cell_formula_units_Z   1
loop_
 _symmetry_equiv_pos_site_id
 _symmetry_equiv_pos_as_xyz
  1  'x, y, z'
loop_
 _atom_site_type_symbol
 _atom_site_label
 _atom_site_symmetry_multiplicity
 _atom_site_fract_x
 _atom_site_fract_y
 _atom_site_fract_z
 _atom_site_occupancy
  Nd  Nd0  1  0.33852900  0.33852900  0.35246800  1
  Nd  Nd1  1  0.66147100  0.66147100  0.64753200  1
  Fe  Fe0  1  0.09634700  0.09634700  0.09706300  1
  Fe  Fe1  1  0.90365300  0.90365300  0.90293700  1
  Fe  Fe2  1  0.65743000  0.65743000  0.14790800  1
  Fe  Fe3  1  0.65900600  0.14993100  0.65794200  1
  Fe  Fe4  1  0.14993100  0.65900600  0.65794200  1
  Fe  Fe5  1  0.34257000  0.34257000  0.85209200  1
  Fe  Fe6  1  0.34099400  0.85006900  0.34205800  1
  Fe  Fe7  1  0.85006900  0.34099400  0.34205800  1
  Fe  Fe8  1  0.71426900  0.28573100  0.00000000  1
  Fe  Fe9  1  0.28596000  0.99940700  0.71399800  1
  Fe  Fe10  1  0.00059300  0.71404000  0.28600200  1
  Fe  Fe11  1  0.71404000  0.00059300  0.28600200  1
  Fe  Fe12  1  0.99940700  0.28596000  0.71399800  1
  Fe  Fe13  1  0.28573100  0.71426900  0.00000000  1
  Fe  Fe14  1  0.00000000  0.00000000  0.50000000  1
  Fe  Fe15  1  0.00000000  0.50000000  0.00000000  1
  Fe  Fe16  1  0.50000000  0.00000000  0.00000000  1
  C  C0  1  0.50000000  0.50000000  0.00000000  1
loop_
_geom_bond_atom_site_label_1
_geom_bond_atom_site_label_2
_geom_bond_distance
_geom_bond_site_symmetry_2
Fe0 Fe1 2.401178 1_444
Fe0 Fe16 2.650326 1_555
Fe0 Fe15 2.650326 1_555
Fe0 Fe14 2.654406 1_555
Fe0 Fe7 2.654695 1_455
Fe0 Fe6 2.654695 1_545
Fe0 Fe5 2.673273 1_554
Fe0 Fe13 2.747764 1_545
Fe0 Fe8 2.747764 1_455
Fe0 Fe11 2.756703 1_455
Fe0 Fe10 2.756703 1_545
Fe0 Fe12 2.762583 1_454
Fe0 Fe9 2.762583 1_544
Fe0 Nd0 3.065828 1_555
Fe1 Fe15 2.650326 1_656
Fe1 Fe16 2.650326 1_566
Fe1 Fe14 2.654406 1_665
Fe1 Fe4 2.654695 1_655
Fe1 Fe3 2.654695 1_565
Fe1 Fe2 2.673273 1_556
Fe1 Fe8 2.747764 1_566
Fe1 Fe13 2.747764 1_656
Fe1 Fe9 2.756703 1_655
Fe1 Fe12 2.756703 1_565
Fe1 Fe10 2.762583 1_656
Fe1 Fe11 2.762583 1_566
Fe1 Nd1 3.065828 1_555
Fe2 Fe7 2.566449 1_555
Fe2 Fe6 2.566449 1_555
Fe3 Fe8 2.555151 1_556
Fe3 Fe7 2.561871 1_555
Fe3 Fe5 2.566449 1_555
Fe3 Fe9 2.689807 1_545
Fe3 Nd0 3.094363 1_555
Fe3 Nd1 3.179519 1_545
Fe3 Nd1 3.318528 1_555
Fe4 Fe9 2.547743 1_555
Fe4 Fe6 2.561871 1_555
Fe4 Fe5 2.566449 1_555
Fe4 Nd0 3.094363 1_555
Fe4 Nd1 3.179519 1_455
Fe4 Nd1 3.318528 1_555
Fe5 Fe9 2.569160 1_545
Fe6 Fe9 2.677490 1_555
Fe6 Nd1 3.094363 1_555
Fe6 Nd0 3.179519 1_565
Fe6 Nd0 3.318528 1_555
Fe7 Fe8 2.555151 1_555
Fe7 Nd1 3.094363 1_555
Fe7 Nd0 3.179519 1_655
Fe7 Nd0 3.318528 1_555
Fe9 Nd0 3.064858 1_565
Fe9 Nd1 3.117553 1_555
Fe10 Fe14 2.438004 1_565
Fe10 Fe15 2.440691 1_555
Fe10 Fe11 2.478708 1_465
Fe10 Fe13 2.481260 1_555
Fe10 Fe6 2.547743 1_555
Fe10 Fe2 2.569160 1_455
Fe10 Fe4 2.677490 1_555
Fe10 Fe7 2.689807 1_455
Fe10 Nd1 3.064858 1_455
Fe10 Nd0 3.117553 1_555
Fe11 Fe14 2.438004 1_655
Fe11 Fe16 2.440691 1_555
Fe11 Fe8 2.481260 1_555
Fe11 Fe7 2.547743 1_555
Fe11 Fe2 2.569160 1_545
Fe11 Fe3 2.677490 1_555
Fe11 Fe6 2.689807 1_545
Fe11 Nd1 3.064858 1_545
Fe11 Nd0 3.117553 1_555
Fe12 Fe14 2.438004 1_655
Fe12 Fe15 2.440691 1_656
Fe12 Fe9 2.478708 1_645
Fe12 Fe8 2.481260 1_556
Fe12 Fe3 2.547743 1_555
Fe12 Fe5 2.569160 1_655
Fe12 Fe7 2.677490 1_555
Fe12 Fe4 2.689807 1_655
Fe12 Nd0 3.064858 1_655
Fe12 Nd1 3.117553 1_555
Fe13 Fe15 2.443480 1_555
Fe13 Fe16 2.443480 1_565
Fe13 Fe9 2.481260 1_554
Fe13 Fe6 2.555151 1_555
Fe13 Fe4 2.555151 1_554
Fe14 Fe9 2.438004 1_545
Fe14 Fe7 2.479734 1_455
Fe14 Fe6 2.479734 1_545
Fe14 Fe4 2.479734 1_545
Fe14 Fe3 2.479734 1_455
Fe14 Nd0 3.284559 1_555
Fe14 Nd1 3.284559 1_445
Fe15 Fe8 2.443480 1_455
Fe15 Fe2 2.481990 1_455
Fe15 Fe5 2.481990 1_554
Fe15 Fe7 2.498411 1_455
Fe15 Fe4 2.498411 1_554
Fe15 Nd0 3.352960 1_555
Fe15 Nd1 3.352960 1_454
Fe16 Fe9 2.440691 1_544
Fe16 Fe8 2.443480 1_555
Fe16 Fe2 2.481990 1_545
Fe16 Fe5 2.481990 1_554
Fe16 Fe6 2.498411 1_545
Fe16 Fe3 2.498411 1_554
Fe16 Nd0 3.352960 1_555
Fe16 Nd1 3.352960 1_544
C0 Fe8 1.853445 1_555
C0 Fe13 1.853445 1_555
C0 Fe2 1.918095 1_555
C0 Fe5 1.918095 1_554
C0 Nd1 2.584721 1_554
C0 Nd0 2.584721 1_555
