# generated using pymatgen
data_Sm2Ga3(Fe7C)2
_symmetry_space_group_name_H-M   'P 1'
_cell_length_a   6.51717589
_cell_length_b   6.51717589
_cell_length_c   6.51311034
_cell_angle_alpha   83.85341772
_cell_angle_beta   83.85341772
_cell_angle_gamma   83.37248090
_symmetry_Int_Tables_number   1
_chemical_formula_structural   Sm2Ga3(Fe7C)2
_chemical_formula_sum   'Sm2 Ga3 Fe14 C2'
_cell_volume   271.94750360
_cell_formula_units_Z   1
loop_
 _symmetry_equiv_pos_site_id
 _symmetry_equiv_pos_as_xyz
  1  'x, y, z'
loop_
 _atom_site_type_symbol
 _atom_site_label
 _atom_site_symmetry_multiplicity
 _atom_site_fract_x
 _atom_site_fract_y
 _atom_site_fract_z
 _atom_site_occupancy
  Sm  Sm0  1  0.65181091  0.65181091  0.66318234  1
  Sm  Sm1  1  0.34818909  0.34818909  0.33681766  1
  Ga  Ga0  1  0.00000000  0.00000000  0.50000000  1
  Ga  Ga1  1  0.00000000  0.50000000  -0.00000000  1
  Ga  Ga2  1  0.50000000  0.00000000  -0.00000000  1
  Fe  Fe0  1  0.90819500  0.90819500  0.90546090  1
  Fe  Fe1  1  0.09180500  0.09180500  0.09453910  1
  Fe  Fe2  1  0.34413836  0.34413836  0.84841080  1
  Fe  Fe3  1  0.34558013  0.85061935  0.34327095  1
  Fe  Fe4  1  0.85061935  0.34558013  0.34327095  1
  Fe  Fe5  1  0.65586164  0.65586164  0.15158920  1
  Fe  Fe6  1  0.65441987  0.14938065  0.65672905  1
  Fe  Fe7  1  0.14938065  0.65441987  0.65672905  1
  Fe  Fe8  1  0.28780654  0.71219346  -0.00000000  1
  Fe  Fe9  1  0.71405563  0.99948315  0.28623421  1
  Fe  Fe10  1  0.00051685  0.28594437  0.71376579  1
  Fe  Fe11  1  0.28594437  0.00051685  0.71376579  1
  Fe  Fe12  1  0.99948315  0.71405563  0.28623421  1
  Fe  Fe13  1  0.71219346  0.28780654  -0.00000000  1
  C  C0  1  0.50000000  0.00000000  0.50000000  1
  C  C1  1  0.00000000  0.50000000  0.50000000  1
loop_
_geom_bond_atom_site_label_1
_geom_bond_atom_site_label_2
_geom_bond_distance
_geom_bond_site_symmetry_2
Ga0 Sm0 3.403512 1_445
Ga0 Sm1 3.403512 1_555
Ga1 Sm0 3.320186 1_454
Ga1 Sm1 3.320186 1_555
Ga2 Sm0 3.320186 1_544
Ga2 Sm1 3.320186 1_555
Fe0 Fe1 2.311279 1_666
Fe0 Ga0 2.663786 1_665
Fe0 Ga2 2.678601 1_566
Fe0 Ga1 2.678601 1_656
Fe0 Fe7 2.694240 1_655
Fe0 Fe6 2.694240 1_565
Fe0 Fe5 2.733815 1_556
Fe0 Fe10 2.739420 1_665
Fe0 Fe11 2.739420 1_665
Fe0 Fe13 2.749509 1_566
Fe0 Fe8 2.749509 1_656
Fe0 Fe9 2.752370 1_556
Fe0 Fe12 2.752370 1_556
Fe0 Sm0 3.138083 1_555
Fe1 Ga0 2.663786 1_555
Fe1 Ga2 2.678601 1_555
Fe1 Ga1 2.678601 1_555
Fe1 Fe4 2.694240 1_455
Fe1 Fe3 2.694240 1_545
Fe1 Fe2 2.733815 1_554
Fe1 Fe12 2.739420 1_445
Fe1 Fe9 2.739420 1_445
Fe1 Fe8 2.749509 1_545
Fe1 Fe13 2.749509 1_455
Fe1 Fe11 2.752370 1_554
Fe1 Fe10 2.752370 1_554
Fe1 Sm1 3.138083 1_555
Fe2 Ga1 2.500299 1_556
Fe2 Ga2 2.500299 1_556
Fe2 Fe7 2.542645 1_555
Fe2 Fe6 2.542645 1_555
Fe2 Fe8 2.662611 1_556
Fe2 Sm0 3.064109 1_555
Fe2 Sm1 3.186940 1_556
Fe2 Sm1 3.326638 1_555
Fe3 Ga2 2.497484 1_565
Fe3 Ga0 2.505315 1_565
Fe3 Fe5 2.542645 1_555
Fe3 Fe8 2.577764 1_555
Fe4 Ga1 2.497484 1_655
Fe4 Ga0 2.505315 1_655
Fe4 Fe5 2.542645 1_555
Fe5 Ga2 2.500299 1_565
Fe5 Ga1 2.500299 1_655
Fe5 Fe9 2.572125 1_555
Fe5 Fe8 2.662611 1_555
Fe5 Sm1 3.064109 1_555
Fe5 Sm0 3.186940 1_554
Fe5 Sm0 3.326638 1_555
Fe6 Ga2 2.497484 1_556
Fe6 Ga0 2.505315 1_655
Fe7 Ga1 2.497484 1_556
Fe7 Ga0 2.505315 1_565
Fe7 Fe8 2.577764 1_556
Fe8 Ga2 2.455475 1_565
Fe8 Ga1 2.455475 1_555
Fe8 Sm0 3.074080 1_554
Fe8 Sm1 3.074080 1_555
Fe9 Ga0 2.443224 1_665
Fe9 Ga2 2.444620 1_565
Fe10 Ga0 2.443224 1_555
Fe10 Ga1 2.444620 1_556
Fe10 Fe13 2.501186 1_456
Fe10 Fe2 2.572125 1_555
Fe11 Ga0 2.443224 1_555
Fe11 Ga2 2.444620 1_556
Fe11 Fe8 2.501186 1_546
Fe11 Fe2 2.572125 1_555
Fe12 Ga0 2.443224 1_665
Fe12 Ga1 2.444620 1_655
Fe12 Fe8 2.501186 1_655
Fe12 Fe5 2.572125 1_555
Fe13 Ga1 2.455475 1_655
Fe13 Ga2 2.455475 1_555
Fe13 Fe9 2.501186 1_545
Fe13 Fe6 2.577764 1_554
Fe13 Fe4 2.577764 1_555
Fe13 Fe5 2.662611 1_555
Fe13 Fe2 2.662611 1_554
Fe13 Sm0 3.074080 1_554
Fe13 Sm1 3.074080 1_555
C0 Fe9 1.862411 1_545
C0 Fe11 1.862411 1_555
C0 Fe3 1.913521 1_545
C0 Fe6 1.913521 1_555
C0 Sm0 2.539342 1_545
C0 Sm1 2.539342 1_555
C1 Fe10 1.862411 1_555
C1 Fe12 1.862411 1_455
C1 Fe4 1.913521 1_455
C1 Fe7 1.913521 1_555
C1 Sm0 2.539342 1_455
C1 Sm1 2.539342 1_555
