# generated using pymatgen
data_Y10Cd3Ni
_symmetry_space_group_name_H-M   'P 1'
_cell_length_a   9.64336519
_cell_length_b   9.64336519
_cell_length_c   9.76741400
_cell_angle_alpha   90.00000000
_cell_angle_beta   90.00000000
_cell_angle_gamma   119.99999445
_symmetry_Int_Tables_number   1
_chemical_formula_structural   Y10Cd3Ni
_chemical_formula_sum   'Y20 Cd6 Ni2'
_cell_volume   786.62451929
_cell_formula_units_Z   2
loop_
 _symmetry_equiv_pos_site_id
 _symmetry_equiv_pos_as_xyz
  1  'x, y, z'
loop_
 _atom_site_type_symbol
 _atom_site_label
 _atom_site_symmetry_multiplicity
 _atom_site_fract_x
 _atom_site_fract_y
 _atom_site_fract_z
 _atom_site_occupancy
  Y  Y0  1  0.00000000  0.00000000  0.50000000  1
  Y  Y1  1  0.00000000  0.00000000  0.00000000  1
  Y  Y2  1  0.54353200  0.45646800  0.25000000  1
  Y  Y3  1  0.54353200  0.08706400  0.25000000  1
  Y  Y4  1  0.91293600  0.45646800  0.25000000  1
  Y  Y5  1  0.45646800  0.54353200  0.75000000  1
  Y  Y6  1  0.45646800  0.91293600  0.75000000  1
  Y  Y7  1  0.08706400  0.54353200  0.75000000  1
  Y  Y8  1  0.21009200  0.78990800  0.43651200  1
  Y  Y9  1  0.21009200  0.42018500  0.43651200  1
  Y  Y10  1  0.57981500  0.78990800  0.43651200  1
  Y  Y11  1  0.78990800  0.21009200  0.56348800  1
  Y  Y12  1  0.78990800  0.57981500  0.56348800  1
  Y  Y13  1  0.42018500  0.21009200  0.56348800  1
  Y  Y14  1  0.78990800  0.21009200  0.93651200  1
  Y  Y15  1  0.78990800  0.57981500  0.93651200  1
  Y  Y16  1  0.42018500  0.21009200  0.93651200  1
  Y  Y17  1  0.21009200  0.78990800  0.06348800  1
  Y  Y18  1  0.21009200  0.42018500  0.06348800  1
  Y  Y19  1  0.57981500  0.78990800  0.06348800  1
  Cd  Cd0  1  0.88381400  0.11618600  0.25000000  1
  Cd  Cd1  1  0.88381400  0.76762800  0.25000000  1
  Cd  Cd2  1  0.23237200  0.11618600  0.25000000  1
  Cd  Cd3  1  0.11618600  0.88381400  0.75000000  1
  Cd  Cd4  1  0.11618600  0.23237200  0.75000000  1
  Cd  Cd5  1  0.76762800  0.88381400  0.75000000  1
  Ni  Ni0  1  0.33333300  0.66666700  0.25000000  1
  Ni  Ni1  1  0.66666700  0.33333300  0.75000000  1
loop_
_geom_bond_atom_site_label_1
_geom_bond_atom_site_label_2
_geom_bond_distance
_geom_bond_site_symmetry_2
Cd0 Y0 3.119086 1_655
Cd0 Y1 3.119086 1_655
Cd0 Y3 3.150448 1_555
Cd0 Y4 3.150448 1_555
Cd0 Cd1 3.361272 1_545
Cd0 Cd2 3.361272 1_655
Cd0 Y11 3.440322 1_555
Cd0 Y14 3.440322 1_554
Cd0 Y9 3.548077 1_655
Cd0 Y10 3.548077 1_545
Cd0 Y18 3.548077 1_655
Cd0 Y19 3.548077 1_545
Cd1 Y0 3.119086 1_665
Cd1 Y1 3.119086 1_665
Cd1 Y4 3.150448 1_555
Cd1 Y2 3.150449 1_555
Cd1 Cd2 3.361272 1_665
Cd1 Y15 3.440325 1_554
Cd1 Y12 3.440325 1_555
Cd1 Y8 3.548073 1_655
Cd1 Y17 3.548073 1_655
Cd1 Y10 3.548081 1_555
Cd1 Y19 3.548081 1_555
Cd2 Y0 3.119086 1_555
Cd2 Y1 3.119086 1_555
Cd2 Y3 3.150448 1_555
Cd2 Y2 3.150449 1_555
Cd2 Y13 3.440325 1_555
Cd2 Y16 3.440325 1_554
Cd2 Y8 3.548073 1_545
Cd2 Y17 3.548073 1_545
Cd2 Y9 3.548081 1_555
Cd2 Y18 3.548081 1_555
Cd3 Y0 3.119086 1_565
Cd3 Y1 3.119086 1_566
Cd3 Y7 3.150448 1_555
Cd3 Y6 3.150448 1_555
Cd3 Cd4 3.361272 1_565
Cd3 Cd5 3.361272 1_455
Cd3 Y17 3.440322 1_556
Cd3 Y8 3.440322 1_555
Cd3 Y16 3.548077 1_565
Cd3 Y13 3.548077 1_565
Cd3 Y15 3.548077 1_455
Cd3 Y12 3.548077 1_455
Cd4 Y0 3.119086 1_555
Cd4 Y1 3.119086 1_556
Cd4 Y7 3.150448 1_555
Cd4 Y5 3.150449 1_555
Cd4 Cd5 3.361272 1_445
Cd4 Y18 3.440325 1_556
Cd4 Y9 3.440325 1_555
Cd4 Y14 3.548073 1_455
Cd4 Y11 3.548073 1_455
Cd4 Y13 3.548081 1_555
Cd4 Y16 3.548081 1_555
Cd5 Y0 3.119086 1_665
Cd5 Y1 3.119086 1_666
Cd5 Y6 3.150448 1_555
Cd5 Y5 3.150449 1_555
Cd5 Y19 3.440325 1_556
Cd5 Y10 3.440325 1_555
Cd5 Y11 3.548073 1_565
Cd5 Y14 3.548073 1_565
Cd5 Y12 3.548081 1_555
Cd5 Y15 3.548081 1_555
Ni0 Y8 2.748824 1_555
Ni0 Y17 2.748824 1_555
Ni0 Y10 2.748824 1_555
Ni0 Y9 2.748824 1_555
Ni0 Y19 2.748824 1_555
Ni0 Y18 2.748824 1_555
Ni1 Y14 2.748824 1_555
Ni1 Y11 2.748824 1_555
Ni1 Y12 2.748824 1_555
Ni1 Y15 2.748824 1_555
Ni1 Y13 2.748824 1_555
Ni1 Y16 2.748824 1_555
