# generated using pymatgen
data_RbTb2Ag3Te5
_symmetry_space_group_name_H-M   'P 1'
_cell_length_a   4.58961700
_cell_length_b   8.47271457
_cell_length_c   18.54327500
_cell_angle_alpha   90.00000000
_cell_angle_beta   90.00000000
_cell_angle_gamma   105.71467223
_symmetry_Int_Tables_number   1
_chemical_formula_structural   RbTb2Ag3Te5
_chemical_formula_sum   'Rb2 Tb4 Ag6 Te10'
_cell_volume   694.13098778
_cell_formula_units_Z   2
loop_
 _symmetry_equiv_pos_site_id
 _symmetry_equiv_pos_as_xyz
  1  'x, y, z'
loop_
 _atom_site_type_symbol
 _atom_site_label
 _atom_site_symmetry_multiplicity
 _atom_site_fract_x
 _atom_site_fract_y
 _atom_site_fract_z
 _atom_site_occupancy
  Rb  Rb0  1  0.44230200  0.88460400  0.25000000  1
  Rb  Rb1  1  0.55769800  0.11539600  0.75000000  1
  Tb  Tb0  1  0.30919100  0.61838100  0.90555100  1
  Tb  Tb1  1  0.69080900  0.38161900  0.09444900  1
  Tb  Tb2  1  0.30919100  0.61838100  0.59444900  1
  Tb  Tb3  1  0.69080900  0.38161900  0.40555100  1
  Ag  Ag0  1  0.16377400  0.32754700  0.25000000  1
  Ag  Ag1  1  0.83622600  0.67245300  0.75000000  1
  Ag  Ag2  1  0.91520600  0.83041200  0.46901500  1
  Ag  Ag3  1  0.08479400  0.16958800  0.53098500  1
  Ag  Ag4  1  0.91520600  0.83041200  0.03098500  1
  Ag  Ag5  1  0.08479400  0.16958800  0.96901500  1
  Te  Te0  1  0.93781100  0.87562100  0.87837900  1
  Te  Te1  1  0.06218900  0.12437900  0.12162100  1
  Te  Te2  1  0.93781100  0.87562100  0.62162100  1
  Te  Te3  1  0.06218900  0.12437900  0.37837900  1
  Te  Te4  1  0.67611800  0.35223700  0.92755500  1
  Te  Te5  1  0.32388200  0.64776300  0.07244500  1
  Te  Te6  1  0.67611800  0.35223700  0.57244500  1
  Te  Te7  1  0.32388200  0.64776300  0.42755500  1
  Te  Te8  1  0.76055300  0.52110700  0.25000000  1
  Te  Te9  1  0.23944700  0.47889300  0.75000000  1
loop_
_geom_bond_atom_site_label_1
_geom_bond_atom_site_label_2
_geom_bond_distance
_geom_bond_site_symmetry_2
Rb0 Te8 3.749070 1_555
Rb0 Te8 3.749073 1_455
Rb0 Te7 3.817280 1_555
Rb0 Te5 3.817280 1_555
Rb0 Te1 3.841569 1_665
Rb0 Te3 3.841569 1_665
Rb0 Te1 3.841571 1_565
Rb0 Te3 3.841571 1_565
Rb1 Te9 3.749070 1_555
Rb1 Te9 3.749073 1_655
Rb1 Te6 3.817280 1_555
Rb1 Te4 3.817280 1_555
Rb1 Te2 3.841569 1_445
Rb1 Te0 3.841569 1_445
Rb1 Te2 3.841571 1_545
Rb1 Te0 3.841571 1_545
Tb0 Te9 3.100677 1_555
Tb0 Te5 3.104026 1_556
Tb0 Te0 3.149898 1_555
Tb0 Te0 3.149898 1_455
Tb0 Te4 3.185035 1_555
Tb0 Te4 3.185042 1_455
Tb1 Te8 3.100677 1_555
Tb1 Te4 3.104026 1_554
Tb1 Te1 3.149898 1_555
Tb1 Te1 3.149898 1_655
Tb1 Te5 3.185035 1_555
Tb1 Te5 3.185042 1_655
Tb2 Te9 3.100677 1_555
Tb2 Te7 3.104026 1_555
Tb2 Te2 3.149898 1_555
Tb2 Te2 3.149898 1_455
Tb2 Te6 3.185035 1_555
Tb2 Te6 3.185042 1_455
Tb3 Te8 3.100677 1_555
Tb3 Te6 3.104026 1_555
Tb3 Te3 3.149898 1_555
Tb3 Te3 3.149898 1_655
Tb3 Te7 3.185035 1_555
Tb3 Te7 3.185042 1_655
Ag0 Te8 2.785383 1_555
Ag0 Te8 2.785390 1_455
Ag0 Te1 2.900499 1_555
Ag0 Te3 2.900499 1_555
Ag1 Te9 2.785383 1_555
Ag1 Te9 2.785390 1_655
Ag1 Te0 2.900499 1_555
Ag1 Te2 2.900499 1_555
Ag2 Te7 2.841896 1_555
Ag2 Te7 2.841899 1_655
Ag2 Te2 2.853736 1_555
Ag2 Te3 2.928004 1_665
Ag3 Te6 2.841896 1_555
Ag3 Te6 2.841899 1_455
Ag3 Te3 2.853736 1_555
Ag3 Te2 2.928004 1_445
Ag4 Te5 2.841896 1_555
Ag4 Te5 2.841899 1_655
Ag4 Te0 2.853736 1_554
Ag4 Te1 2.928004 1_665
Ag5 Te4 2.841896 1_555
Ag5 Te4 2.841899 1_455
Ag5 Te1 2.853736 1_556
Ag5 Te0 2.928004 1_445
