# generated using pymatgen
data_VPt2
_symmetry_space_group_name_H-M   'P 1'
_cell_length_a   5.44444706
_cell_length_b   7.60957769
_cell_length_c   9.58792129
_cell_angle_alpha   113.38024975
_cell_angle_beta   106.49440680
_cell_angle_gamma   90.00000575
_symmetry_Int_Tables_number   1
_chemical_formula_structural   VPt2
_chemical_formula_sum   'V8 Pt16'
_cell_volume   346.73009272
_cell_formula_units_Z   8
loop_
 _symmetry_equiv_pos_site_id
 _symmetry_equiv_pos_as_xyz
  1  'x, y, z'
loop_
 _atom_site_type_symbol
 _atom_site_label
 _atom_site_symmetry_multiplicity
 _atom_site_fract_x
 _atom_site_fract_y
 _atom_site_fract_z
 _atom_site_occupancy
  V  V0_0  1  0.00000000  0.00000000  0.00000000  1
  V  V0_1  1  0.00000000  0.00000000  0.50000000  1
  V  V0_2  1  0.00000000  0.50000000  0.00000000  1
  V  V0_3  1  0.00000000  0.50000000  0.50000000  1
  V  V0_4  1  0.50000000  0.00000000  0.00000000  1
  V  V0_5  1  0.50000000  0.00000000  0.50000000  1
  V  V0_6  1  0.50000000  0.50000000  0.00000000  1
  V  V0_7  1  0.50000000  0.50000000  0.50000000  1
  Pt  Pt0_0  1  0.33033531  0.33033531  0.16067012  1
  Pt  Pt0_1  1  0.33033531  0.33033531  0.66067011  1
  Pt  Pt0_2  1  0.33033531  0.83033531  0.16067012  1
  Pt  Pt0_3  1  0.33033531  0.83033531  0.66067011  1
  Pt  Pt0_4  1  0.83033531  0.33033531  0.16067011  1
  Pt  Pt0_5  1  0.83033531  0.33033531  0.66067011  1
  Pt  Pt0_6  1  0.83033531  0.83033531  0.16067012  1
  Pt  Pt0_7  1  0.83033531  0.83033531  0.66067011  1
  Pt  Pt1_0  1  0.16966469  0.16966469  0.33932988  1
  Pt  Pt1_1  1  0.16966469  0.16966469  0.83932988  1
  Pt  Pt1_2  1  0.16966469  0.66966469  0.33932988  1
  Pt  Pt1_3  1  0.16966469  0.66966469  0.83932988  1
  Pt  Pt1_4  1  0.66966469  0.16966469  0.33932988  1
  Pt  Pt1_5  1  0.66966469  0.16966469  0.83932988  1
  Pt  Pt1_6  1  0.66966469  0.66966469  0.33932988  1
  Pt  Pt1_7  1  0.66966469  0.66966469  0.83932988  1
loop_
_geom_bond_atom_site_label_1
_geom_bond_atom_site_label_2
_geom_bond_distance
_geom_bond_site_symmetry_2
V0_0 V0_4 2.722224 1_555
V0_0 V0_4 2.722224 1_455
V0_1 V0_5 2.722224 1_455
V0_1 V0_5 2.722224 1_555
V0_2 V0_6 2.722224 1_455
V0_2 V0_6 2.722224 1_555
V0_3 V0_7 2.722224 1_455
V0_3 V0_7 2.722224 1_555
Pt0_0 Pt1_1 2.689319 1_554
Pt0_0 V0_6 2.698115 1_555
Pt0_0 V0_2 2.698117 1_555
Pt0_0 V0_4 2.698118 1_555
Pt0_0 V0_0 2.698120 1_555
Pt0_0 Pt0_4 2.722224 1_555
Pt0_0 Pt0_4 2.722224 1_455
Pt0_0 Pt1_6 2.776217 1_555
Pt0_0 Pt1_2 2.776219 1_555
Pt0_0 Pt1_4 2.776222 1_555
Pt0_0 Pt1_0 2.776224 1_555
Pt0_0 V0_7 2.839876 1_555
Pt0_1 Pt1_0 2.689319 1_555
Pt0_1 V0_7 2.698115 1_555
Pt0_1 V0_3 2.698117 1_555
Pt0_1 V0_5 2.698118 1_555
Pt0_1 V0_1 2.698120 1_555
Pt0_1 Pt0_5 2.722224 1_455
Pt0_1 Pt0_5 2.722224 1_555
Pt0_1 Pt1_7 2.776217 1_555
Pt0_1 Pt1_3 2.776219 1_555
Pt0_1 Pt1_5 2.776222 1_555
Pt0_1 Pt1_1 2.776224 1_555
Pt0_1 V0_6 2.839876 1_556
Pt0_2 Pt1_3 2.689319 1_554
Pt0_2 V0_4 2.698115 1_565
Pt0_2 V0_0 2.698117 1_565
Pt0_2 V0_6 2.698118 1_555
Pt0_2 V0_2 2.698120 1_555
Pt0_2 Pt0_6 2.722224 1_455
Pt0_2 Pt0_6 2.722224 1_555
Pt0_2 Pt1_4 2.776217 1_565
Pt0_2 Pt1_0 2.776219 1_565
Pt0_2 Pt1_6 2.776222 1_555
Pt0_2 Pt1_2 2.776224 1_555
Pt0_2 V0_5 2.839876 1_565
Pt0_3 Pt1_2 2.689319 1_555
Pt0_3 V0_5 2.698115 1_565
Pt0_3 V0_1 2.698117 1_565
Pt0_3 V0_7 2.698118 1_555
Pt0_3 V0_3 2.698120 1_555
Pt0_3 Pt0_7 2.722224 1_455
Pt0_3 Pt0_7 2.722224 1_555
Pt0_3 Pt1_5 2.776217 1_565
Pt0_3 Pt1_1 2.776219 1_565
Pt0_3 Pt1_7 2.776222 1_555
Pt0_3 Pt1_3 2.776224 1_555
Pt0_3 V0_4 2.839876 1_566
Pt0_4 Pt1_5 2.689319 1_554
Pt0_4 V0_2 2.698115 1_655
Pt0_4 V0_6 2.698117 1_555
Pt0_4 V0_0 2.698118 1_655
Pt0_4 V0_4 2.698120 1_555
Pt0_4 Pt1_2 2.776217 1_655
Pt0_4 Pt1_6 2.776219 1_555
Pt0_4 Pt1_0 2.776222 1_655
Pt0_4 Pt1_4 2.776224 1_555
Pt0_4 V0_3 2.839876 1_655
Pt0_5 Pt1_4 2.689319 1_555
Pt0_5 V0_3 2.698115 1_655
Pt0_5 V0_7 2.698117 1_555
Pt0_5 V0_1 2.698118 1_655
Pt0_5 V0_5 2.698120 1_555
Pt0_5 Pt1_3 2.776217 1_655
Pt0_5 Pt1_7 2.776219 1_555
Pt0_5 Pt1_1 2.776222 1_655
Pt0_5 Pt1_5 2.776224 1_555
Pt0_5 V0_2 2.839876 1_656
Pt0_6 Pt1_7 2.689319 1_554
Pt0_6 V0_0 2.698115 1_665
Pt0_6 V0_4 2.698117 1_565
Pt0_6 V0_2 2.698118 1_655
Pt0_6 V0_6 2.698120 1_555
Pt0_6 Pt1_0 2.776217 1_665
Pt0_6 Pt1_4 2.776219 1_565
Pt0_6 Pt1_2 2.776222 1_655
Pt0_6 Pt1_6 2.776224 1_555
Pt0_6 V0_1 2.839876 1_665
Pt0_7 Pt1_6 2.689319 1_555
Pt0_7 V0_1 2.698115 1_665
Pt0_7 V0_5 2.698117 1_565
Pt0_7 V0_3 2.698118 1_655
Pt0_7 V0_7 2.698120 1_555
Pt0_7 Pt1_1 2.776217 1_665
Pt0_7 Pt1_5 2.776219 1_565
Pt0_7 Pt1_3 2.776222 1_655
Pt0_7 Pt1_7 2.776224 1_555
Pt0_7 V0_0 2.839876 1_666
Pt1_0 V0_1 2.698115 1_555
Pt1_0 V0_5 2.698117 1_555
Pt1_0 V0_3 2.698118 1_555
Pt1_0 V0_7 2.698120 1_555
Pt1_0 Pt1_4 2.722224 1_555
Pt1_0 Pt1_4 2.722224 1_455
Pt1_0 V0_0 2.839876 1_555
Pt1_1 V0_0 2.698115 1_556
Pt1_1 V0_4 2.698117 1_556
Pt1_1 V0_2 2.698118 1_556
Pt1_1 V0_6 2.698120 1_556
Pt1_1 Pt1_5 2.722224 1_455
Pt1_1 Pt1_5 2.722224 1_555
Pt1_1 V0_1 2.839876 1_555
Pt1_2 V0_3 2.698115 1_555
Pt1_2 V0_7 2.698117 1_555
Pt1_2 V0_1 2.698118 1_565
Pt1_2 V0_5 2.698120 1_565
Pt1_2 Pt1_6 2.722224 1_455
Pt1_2 Pt1_6 2.722224 1_555
Pt1_2 V0_2 2.839876 1_555
Pt1_3 V0_2 2.698115 1_556
Pt1_3 V0_6 2.698117 1_556
Pt1_3 V0_0 2.698118 1_566
Pt1_3 V0_4 2.698120 1_566
Pt1_3 Pt1_7 2.722224 1_455
Pt1_3 Pt1_7 2.722224 1_555
Pt1_3 V0_3 2.839876 1_555
Pt1_4 V0_5 2.698115 1_555
Pt1_4 V0_1 2.698117 1_655
Pt1_4 V0_7 2.698118 1_555
Pt1_4 V0_3 2.698120 1_655
Pt1_4 V0_4 2.839876 1_555
Pt1_5 V0_4 2.698115 1_556
Pt1_5 V0_0 2.698117 1_656
Pt1_5 V0_6 2.698118 1_556
Pt1_5 V0_2 2.698120 1_656
Pt1_5 V0_5 2.839876 1_555
Pt1_6 V0_7 2.698115 1_555
Pt1_6 V0_3 2.698117 1_655
Pt1_6 V0_5 2.698118 1_565
Pt1_6 V0_1 2.698120 1_665
Pt1_6 V0_6 2.839876 1_555
Pt1_7 V0_6 2.698115 1_556
Pt1_7 V0_2 2.698117 1_656
Pt1_7 V0_4 2.698118 1_566
Pt1_7 V0_0 2.698120 1_666
Pt1_7 V0_7 2.839876 1_555
