# generated using pymatgen
data_SrMg30SnO32
_symmetry_space_group_name_H-M   'P 1'
_cell_length_a   8.67618200
_cell_length_b   8.67618200
_cell_length_c   8.66833900
_cell_angle_alpha   90.00000000
_cell_angle_beta   90.00000000
_cell_angle_gamma   90.00000000
_symmetry_Int_Tables_number   1
_chemical_formula_structural   SrMg30SnO32
_chemical_formula_sum   'Sr1 Mg30 Sn1 O32'
_cell_volume   652.51904896
_cell_formula_units_Z   1
loop_
 _symmetry_equiv_pos_site_id
 _symmetry_equiv_pos_as_xyz
  1  'x, y, z'
loop_
 _atom_site_type_symbol
 _atom_site_label
 _atom_site_symmetry_multiplicity
 _atom_site_fract_x
 _atom_site_fract_y
 _atom_site_fract_z
 _atom_site_occupancy
  Sr  Sr0  1  0.50000000  0.50000000  0.00000000  1
  Mg  Mg0  1  0.50000000  0.00000000  0.00000000  1
  Mg  Mg1  1  0.00000000  0.50000000  0.00000000  1
  Mg  Mg2  1  0.00000000  0.00000000  0.50000000  1
  Mg  Mg3  1  0.50000000  0.00000000  0.50000000  1
  Mg  Mg4  1  0.00000000  0.50000000  0.50000000  1
  Mg  Mg5  1  0.50000000  0.50000000  0.50000000  1
  Mg  Mg6  1  0.24934200  0.24934200  0.00000000  1
  Mg  Mg7  1  0.75065800  0.24934200  0.00000000  1
  Mg  Mg8  1  0.24934200  0.75065800  0.00000000  1
  Mg  Mg9  1  0.75065800  0.75065800  0.00000000  1
  Mg  Mg10  1  0.24997400  0.24997400  0.50000000  1
  Mg  Mg11  1  0.75002600  0.24997400  0.50000000  1
  Mg  Mg12  1  0.24997400  0.75002600  0.50000000  1
  Mg  Mg13  1  0.75002600  0.75002600  0.50000000  1
  Mg  Mg14  1  0.25409100  0.00000000  0.25460500  1
  Mg  Mg15  1  0.74590900  0.00000000  0.25460500  1
  Mg  Mg16  1  0.24519900  0.50000000  0.25524400  1
  Mg  Mg17  1  0.75480100  0.50000000  0.25524400  1
  Mg  Mg18  1  0.25409100  0.00000000  0.74539500  1
  Mg  Mg19  1  0.74590900  0.00000000  0.74539500  1
  Mg  Mg20  1  0.24519900  0.50000000  0.74475600  1
  Mg  Mg21  1  0.75480100  0.50000000  0.74475600  1
  Mg  Mg22  1  0.00000000  0.25409100  0.25460500  1
  Mg  Mg23  1  0.50000000  0.24519900  0.25524400  1
  Mg  Mg24  1  0.00000000  0.74590900  0.25460500  1
  Mg  Mg25  1  0.50000000  0.75480100  0.25524400  1
  Mg  Mg26  1  0.00000000  0.25409100  0.74539500  1
  Mg  Mg27  1  0.50000000  0.24519900  0.74475600  1
  Mg  Mg28  1  0.00000000  0.74590900  0.74539500  1
  Mg  Mg29  1  0.50000000  0.75480100  0.74475600  1
  Sn  Sn0  1  0.00000000  0.00000000  0.00000000  1
  O  O0  1  0.00000000  0.00000000  0.27002300  1
  O  O1  1  0.50000000  0.00000000  0.25665300  1
  O  O2  1  0.00000000  0.50000000  0.25665300  1
  O  O3  1  0.50000000  0.50000000  0.27030000  1
  O  O4  1  0.00000000  0.00000000  0.72997700  1
  O  O5  1  0.50000000  0.00000000  0.74334700  1
  O  O6  1  0.00000000  0.50000000  0.74334700  1
  O  O7  1  0.50000000  0.50000000  0.72970000  1
  O  O8  1  0.24990100  0.24990100  0.24943100  1
  O  O9  1  0.75009900  0.24990100  0.24943100  1
  O  O10  1  0.24990100  0.75009900  0.24943100  1
  O  O11  1  0.75009900  0.75009900  0.24943100  1
  O  O12  1  0.24990100  0.24990100  0.75056900  1
  O  O13  1  0.75009900  0.24990100  0.75056900  1
  O  O14  1  0.24990100  0.75009900  0.75056900  1
  O  O15  1  0.75009900  0.75009900  0.75056900  1
  O  O16  1  0.26724500  0.00000000  0.00000000  1
  O  O17  1  0.73275500  0.00000000  0.00000000  1
  O  O18  1  0.23193500  0.50000000  0.00000000  1
  O  O19  1  0.76806500  0.50000000  0.00000000  1
  O  O20  1  0.25260900  0.00000000  0.50000000  1
  O  O21  1  0.74739100  0.00000000  0.50000000  1
  O  O22  1  0.24702500  0.50000000  0.50000000  1
  O  O23  1  0.75297500  0.50000000  0.50000000  1
  O  O24  1  0.00000000  0.26724500  0.00000000  1
  O  O25  1  0.50000000  0.23193500  0.00000000  1
  O  O26  1  0.00000000  0.73275500  0.00000000  1
  O  O27  1  0.50000000  0.76806500  0.00000000  1
  O  O28  1  0.00000000  0.25260900  0.50000000  1
  O  O29  1  0.50000000  0.24702500  0.50000000  1
  O  O30  1  0.00000000  0.74739100  0.50000000  1
  O  O31  1  0.50000000  0.75297500  0.50000000  1
loop_
_geom_bond_atom_site_label_1
_geom_bond_atom_site_label_2
_geom_bond_distance
_geom_bond_site_symmetry_2
Mg0 O25 2.012310 1_555
Mg0 O27 2.012310 1_545
Mg0 O16 2.019425 1_555
Mg0 O17 2.019425 1_555
Mg0 O1 2.224755 1_555
Mg0 O5 2.224755 1_554
Mg1 O19 2.012310 1_455
Mg1 O18 2.012310 1_555
Mg1 O24 2.019425 1_555
Mg1 O26 2.019425 1_555
Mg1 O2 2.224755 1_555
Mg1 O6 2.224755 1_554
Mg2 O0 1.993519 1_555
Mg2 O4 1.993519 1_555
Mg2 O20 2.191682 1_555
Mg2 O28 2.191682 1_555
Mg2 O30 2.191682 1_545
Mg2 O21 2.191682 1_455
Mg3 O5 2.109414 1_555
Mg3 O1 2.109414 1_555
Mg3 O29 2.143234 1_555
Mg3 O31 2.143234 1_545
Mg3 O21 2.146409 1_555
Mg3 O20 2.146409 1_555
Mg4 O2 2.109414 1_555
Mg4 O6 2.109414 1_555
Mg4 O22 2.143234 1_555
Mg4 O23 2.143234 1_455
Mg4 O30 2.146409 1_555
Mg4 O28 2.146409 1_555
Mg5 O3 1.991117 1_555
Mg5 O7 1.991117 1_555
Mg5 O31 2.194857 1_555
Mg5 O23 2.194857 1_555
Mg5 O22 2.194857 1_555
Mg5 O29 2.194857 1_555
Mg6 O12 2.162163 1_554
Mg6 O8 2.162163 1_555
Mg6 O24 2.168906 1_555
Mg6 O16 2.168906 1_555
Mg6 O25 2.179992 1_555
Mg6 O18 2.179992 1_555
Mg7 O13 2.162163 1_554
Mg7 O9 2.162163 1_555
Mg7 O24 2.168906 1_655
Mg7 O17 2.168906 1_555
Mg7 O19 2.179992 1_555
Mg7 O25 2.179992 1_555
Mg8 O14 2.162163 1_554
Mg8 O10 2.162163 1_555
Mg8 O16 2.168906 1_565
Mg8 O26 2.168906 1_555
Mg8 O27 2.179992 1_555
Mg8 O18 2.179992 1_555
Mg9 O15 2.162163 1_554
Mg9 O11 2.162163 1_555
Mg9 O17 2.168906 1_565
Mg9 O26 2.168906 1_655
Mg9 O27 2.179992 1_555
Mg9 O19 2.179992 1_555
Mg10 O20 2.168940 1_555
Mg10 O28 2.168940 1_555
Mg10 O22 2.169422 1_555
Mg10 O29 2.169422 1_555
Mg10 O8 2.172017 1_555
Mg10 O12 2.172017 1_555
Mg11 O21 2.168940 1_555
Mg11 O28 2.168940 1_655
Mg11 O23 2.169422 1_555
Mg11 O29 2.169422 1_555
Mg11 O9 2.172017 1_555
Mg11 O13 2.172017 1_555
Mg12 O30 2.168940 1_555
Mg12 O20 2.168940 1_565
Mg12 O31 2.169422 1_555
Mg12 O22 2.169422 1_555
Mg12 O10 2.172017 1_555
Mg12 O14 2.172017 1_555
Mg13 O21 2.168940 1_565
Mg13 O30 2.168940 1_655
Mg13 O31 2.169422 1_555
Mg13 O23 2.169422 1_555
Mg13 O11 2.172017 1_555
Mg13 O15 2.172017 1_555
Mg14 O20 2.127206 1_555
Mg14 O1 2.133625 1_555
Mg14 O8 2.168955 1_555
Mg14 O10 2.168955 1_545
Mg14 O0 2.208587 1_555
Mg14 O16 2.209951 1_555
Mg15 O21 2.127206 1_555
Mg15 O1 2.133625 1_555
Mg15 O9 2.168955 1_555
Mg15 O11 2.168955 1_545
Mg15 O0 2.208587 1_655
Mg15 O17 2.209951 1_555
Mg16 O22 2.121687 1_555
Mg16 O2 2.127426 1_555
Mg16 O10 2.170873 1_555
Mg16 O8 2.170873 1_555
Mg16 O3 2.214549 1_555
Mg16 O18 2.215532 1_555
Mg17 O23 2.121687 1_555
Mg17 O2 2.127426 1_655
Mg17 O11 2.170873 1_555
Mg17 O9 2.170873 1_555
Mg17 O3 2.214549 1_555
Mg17 O19 2.215532 1_555
Mg18 O20 2.127206 1_555
Mg18 O5 2.133625 1_555
Mg18 O12 2.168955 1_555
Mg18 O14 2.168955 1_545
Mg18 O4 2.208587 1_555
Mg18 O16 2.209951 1_556
Mg19 O21 2.127206 1_555
Mg19 O5 2.133625 1_555
Mg19 O13 2.168955 1_555
Mg19 O15 2.168955 1_545
Mg19 O4 2.208587 1_655
Mg19 O17 2.209951 1_556
Mg20 O22 2.121687 1_555
Mg20 O6 2.127426 1_555
Mg20 O12 2.170873 1_555
Mg20 O14 2.170873 1_555
Mg20 O7 2.214549 1_555
Mg20 O18 2.215532 1_556
Mg21 O23 2.121687 1_555
Mg21 O6 2.127426 1_655
Mg21 O13 2.170873 1_555
Mg21 O15 2.170873 1_555
Mg21 O7 2.214549 1_555
Mg21 O19 2.215532 1_556
Mg22 O28 2.127206 1_555
Mg22 O2 2.133625 1_555
Mg22 O8 2.168955 1_555
Mg22 O9 2.168955 1_455
Mg22 O0 2.208587 1_555
Mg22 O24 2.209951 1_555
Mg23 O29 2.121687 1_555
Mg23 O1 2.127426 1_555
Mg23 O8 2.170873 1_555
Mg23 O9 2.170873 1_555
Mg23 O3 2.214549 1_555
Mg23 O25 2.215532 1_555
Mg24 O30 2.127206 1_555
Mg24 O2 2.133625 1_555
Mg24 O10 2.168955 1_555
Mg24 O11 2.168955 1_455
Mg24 O0 2.208587 1_565
Mg24 O26 2.209951 1_555
Mg25 O31 2.121687 1_555
Mg25 O1 2.127426 1_565
Mg25 O10 2.170873 1_555
Mg25 O11 2.170873 1_555
Mg25 O3 2.214549 1_555
Mg25 O27 2.215532 1_555
Mg26 O28 2.127206 1_555
Mg26 O6 2.133625 1_555
Mg26 O12 2.168955 1_555
Mg26 O13 2.168955 1_455
Mg26 O4 2.208587 1_555
Mg26 O24 2.209951 1_556
Mg27 O29 2.121687 1_555
Mg27 O5 2.127426 1_555
Mg27 O13 2.170873 1_555
Mg27 O12 2.170873 1_555
Mg27 O7 2.214549 1_555
Mg27 O25 2.215532 1_556
Mg28 O30 2.127206 1_555
Mg28 O6 2.133625 1_555
Mg28 O14 2.168955 1_555
Mg28 O15 2.168955 1_455
Mg28 O4 2.208587 1_565
Mg28 O26 2.209951 1_556
Mg29 O31 2.121687 1_555
Mg29 O5 2.127426 1_565
Mg29 O14 2.170873 1_555
Mg29 O15 2.170873 1_555
Mg29 O7 2.214549 1_555
Mg29 O27 2.215532 1_556
O0 Sn0 2.340651 1_555
O3 Sr0 2.343052 1_555
O4 Sn0 2.340651 1_556
O7 Sr0 2.343052 1_556
O16 Sn0 2.318666 1_555
O17 Sn0 2.318666 1_655
O18 Sr0 2.325781 1_555
O19 Sr0 2.325781 1_555
O24 Sn0 2.318666 1_555
O25 Sr0 2.325781 1_555
O26 Sn0 2.318666 1_565
O27 Sr0 2.325781 1_555
