# generated using pymatgen
data_V(WO4)2
_symmetry_space_group_name_H-M   'P 1'
_cell_length_a   5.84204500
_cell_length_b   5.02613600
_cell_length_c   10.39728815
_cell_angle_alpha   63.22976437
_cell_angle_beta   90.00000000
_cell_angle_gamma   90.00000000
_symmetry_Int_Tables_number   1
_chemical_formula_structural   V(WO4)2
_chemical_formula_sum   'V2 W4 O16'
_cell_volume   272.57315837
_cell_formula_units_Z   2
loop_
 _symmetry_equiv_pos_site_id
 _symmetry_equiv_pos_as_xyz
  1  'x, y, z'
loop_
 _atom_site_type_symbol
 _atom_site_label
 _atom_site_symmetry_multiplicity
 _atom_site_fract_x
 _atom_site_fract_y
 _atom_site_fract_z
 _atom_site_occupancy
  V  V0  1  0.35609800  0.50000000  0.75000000  1
  V  V1  1  0.64390200  0.50000000  0.25000000  1
  W  W0  1  0.16442000  0.26788000  0.49072700  1
  W  W1  1  0.16442000  0.73212000  0.00927300  1
  W  W2  1  0.83558000  0.73212000  0.50927300  1
  W  W3  1  0.83558000  0.26788000  0.99072700  1
  O  O0  1  0.33320400  0.70489300  0.85920600  1
  O  O1  1  0.33320400  0.29510700  0.64079400  1
  O  O2  1  0.66679600  0.29510700  0.14079400  1
  O  O3  1  0.66679600  0.70489300  0.35920600  1
  O  O4  1  0.88982100  0.18347000  0.39209300  1
  O  O5  1  0.88982100  0.81653000  0.10790700  1
  O  O6  1  0.11017900  0.81653000  0.60790700  1
  O  O7  1  0.11017900  0.18347000  0.89209300  1
  O  O8  1  0.59792100  0.25269200  0.87978900  1
  O  O9  1  0.59792100  0.74730800  0.62021100  1
  O  O10  1  0.40207900  0.74730800  0.12021100  1
  O  O11  1  0.40207900  0.25269200  0.37978900  1
  O  O12  1  0.88972700  0.67227200  0.88858300  1
  O  O13  1  0.11027300  0.32772800  0.11141700  1
  O  O14  1  0.88972700  0.32772800  0.61141700  1
  O  O15  1  0.11027300  0.67227200  0.38858300  1
loop_
_geom_bond_atom_site_label_1
_geom_bond_atom_site_label_2
_geom_bond_distance
_geom_bond_site_symmetry_2
O0 V0 1.849594 1_555
O0 W1 1.902067 1_556
O1 V0 1.849594 1_555
O1 W0 1.902067 1_555
O2 V1 1.849594 1_555
O2 W3 1.902067 1_554
O3 V1 1.849594 1_555
O3 W2 1.902067 1_555
O4 W0 2.048696 1_655
O4 W2 2.059444 1_545
O4 V1 2.158798 1_555
O5 W1 2.048696 1_655
O5 W3 2.059444 1_564
O5 V1 2.158798 1_555
O6 W2 2.048696 1_455
O6 W0 2.059444 1_565
O6 V0 2.158798 1_555
O7 W3 2.048696 1_455
O7 W1 2.059444 1_546
O7 V0 2.158798 1_555
O8 W3 1.828469 1_555
O8 V0 1.962369 1_555
O9 W2 1.828469 1_555
O9 V0 1.962369 1_555
O10 W1 1.828469 1_555
O10 V1 1.962369 1_555
O11 W0 1.828469 1_555
O11 V1 1.962369 1_555
O12 W3 1.847867 1_555
O12 W1 2.140197 1_656
O13 W1 1.847867 1_555
O13 W3 2.140197 1_454
O14 W2 1.847867 1_555
O14 W0 2.140197 1_655
O15 W0 1.847867 1_555
O15 W2 2.140197 1_455
