# generated using pymatgen
data_Fe2H2Se3O10
_symmetry_space_group_name_H-M   'P 1'
_cell_length_a   10.16561500
_cell_length_b   8.01407800
_cell_length_c   12.93070066
_cell_angle_alpha   63.36164156
_cell_angle_beta   90.00000000
_cell_angle_gamma   90.00000000
_symmetry_Int_Tables_number   1
_chemical_formula_structural   Fe2H2Se3O10
_chemical_formula_sum   'Fe8 H8 Se12 O40'
_cell_volume   941.62070622
_cell_formula_units_Z   4
loop_
 _symmetry_equiv_pos_site_id
 _symmetry_equiv_pos_as_xyz
  1  'x, y, z'
loop_
 _atom_site_type_symbol
 _atom_site_label
 _atom_site_symmetry_multiplicity
 _atom_site_fract_x
 _atom_site_fract_y
 _atom_site_fract_z
 _atom_site_occupancy
  Fe  Fe0  1  0.76407000  0.96620800  0.72722600  1
  Fe  Fe1  1  0.23593000  0.03379200  0.27277400  1
  Fe  Fe2  1  0.26407000  0.03379200  0.77277400  1
  Fe  Fe3  1  0.73593000  0.96620800  0.22722600  1
  Fe  Fe4  1  0.25951600  0.46416600  0.73055600  1
  Fe  Fe5  1  0.74048400  0.53583400  0.26944400  1
  Fe  Fe6  1  0.75951600  0.53583400  0.76944400  1
  Fe  Fe7  1  0.24048400  0.46416600  0.23055600  1
  H  H0  1  0.19490800  0.53236700  0.50008800  1
  H  H1  1  0.80509200  0.46763300  0.49991200  1
  H  H2  1  0.69490800  0.46763300  0.99991200  1
  H  H3  1  0.30509200  0.53236700  0.00008800  1
  H  H4  1  0.22394500  0.72157100  0.50934700  1
  H  H5  1  0.77605500  0.27842900  0.49065300  1
  H  H6  1  0.72394500  0.27842900  0.99065300  1
  H  H7  1  0.27605500  0.72157100  0.00934700  1
  Se  Se0  1  0.47679800  0.82260900  0.69061300  1
  Se  Se1  1  0.52320200  0.17739100  0.30938700  1
  Se  Se2  1  0.97679800  0.17739100  0.80938700  1
  Se  Se3  1  0.02320200  0.82260900  0.19061300  1
  Se  Se4  1  0.83674300  0.86290500  0.50548800  1
  Se  Se5  1  0.16325700  0.13709500  0.49451200  1
  Se  Se6  1  0.33674300  0.13709500  0.99451200  1
  Se  Se7  1  0.66325700  0.86290500  0.00548800  1
  Se  Se8  1  0.04837700  0.66660800  0.83175500  1
  Se  Se9  1  0.95162300  0.33339200  0.16824500  1
  Se  Se10  1  0.54837700  0.33339200  0.66824500  1
  Se  Se11  1  0.45162300  0.66660800  0.33175500  1
  O  O0  1  0.77007700  0.91941200  0.89186900  1
  O  O1  1  0.22992300  0.08058800  0.10813100  1
  O  O2  1  0.27007700  0.08058800  0.60813100  1
  O  O3  1  0.72992300  0.91941200  0.39186900  1
  O  O4  1  0.13510100  0.66043800  0.71928000  1
  O  O5  1  0.86489900  0.33956200  0.28072000  1
  O  O6  1  0.63510100  0.33956200  0.78072000  1
  O  O7  1  0.36489900  0.66043800  0.21928000  1
  O  O8  1  0.27386100  0.35738400  0.90255400  1
  O  O9  1  0.72613900  0.64261600  0.09744600  1
  O  O10  1  0.77386100  0.64261600  0.59744600  1
  O  O11  1  0.22613900  0.35738400  0.40255400  1
  O  O12  1  0.42157900  0.61995600  0.69142700  1
  O  O13  1  0.57842100  0.38004400  0.30857300  1
  O  O14  1  0.92157900  0.38004400  0.80857300  1
  O  O15  1  0.07842100  0.61995600  0.19142700  1
  O  O16  1  0.10104200  0.87515300  0.82402800  1
  O  O17  1  0.89895800  0.12484700  0.17597200  1
  O  O18  1  0.60104200  0.12484700  0.67597200  1
  O  O19  1  0.39895800  0.87515300  0.32402800  1
  O  O20  1  0.24051200  0.58544500  0.54530900  1
  O  O21  1  0.75948800  0.41455500  0.45469100  1
  O  O22  1  0.74051200  0.41455500  0.95469100  1
  O  O23  1  0.25948800  0.58544500  0.04530900  1
  O  O24  1  0.27681500  0.98904400  0.94014100  1
  O  O25  1  0.72318500  0.01095600  0.05985900  1
  O  O26  1  0.77681500  0.01095600  0.55985900  1
  O  O27  1  0.22318500  0.98904400  0.44014100  1
  O  O28  1  0.13330100  0.25692600  0.73846800  1
  O  O29  1  0.86669900  0.74307400  0.26153200  1
  O  O30  1  0.63330100  0.74307400  0.76153200  1
  O  O31  1  0.36669900  0.25692600  0.23846800  1
  O  O32  1  0.89054000  0.73851800  0.76726200  1
  O  O33  1  0.10946000  0.26148200  0.23273800  1
  O  O34  1  0.39054000  0.26148200  0.73273800  1
  O  O35  1  0.60946000  0.73851800  0.26726200  1
  O  O36  1  0.39354700  0.82900200  0.80537100  1
  O  O37  1  0.60645300  0.17099800  0.19462900  1
  O  O38  1  0.89354700  0.17099800  0.69462900  1
  O  O39  1  0.10645300  0.82900200  0.30537100  1
loop_
_geom_bond_atom_site_label_1
_geom_bond_atom_site_label_2
_geom_bond_distance
_geom_bond_site_symmetry_2
Fe0 O0 1.990188 1_555
Fe0 O38 1.995823 1_565
Fe0 O18 2.011610 1_565
Fe0 O26 2.033000 1_565
Fe0 O32 2.098436 1_555
Fe0 O30 2.109581 1_555
Fe1 O1 1.990188 1_555
Fe1 O39 1.995823 1_545
Fe1 O19 2.011610 1_545
Fe1 O27 2.033000 1_545
Fe1 O33 2.098436 1_555
Fe1 O31 2.109581 1_555
Fe2 O2 1.990188 1_555
Fe2 O36 1.995823 1_545
Fe2 O16 2.011610 1_545
Fe2 O24 2.033000 1_545
Fe2 O34 2.098436 1_555
Fe2 O28 2.109581 1_555
Fe3 O3 1.990188 1_555
Fe3 O37 1.995823 1_565
Fe3 O17 2.011610 1_565
Fe3 O25 2.033000 1_565
Fe3 O35 2.098436 1_555
Fe3 O29 2.109581 1_555
Fe4 O4 1.972142 1_555
Fe4 O12 1.990599 1_555
Fe4 O8 1.998332 1_555
Fe4 O28 2.064632 1_555
Fe4 O34 2.090980 1_555
Fe4 O20 2.152233 1_555
Fe5 O5 1.972142 1_555
Fe5 O13 1.990599 1_555
Fe5 O9 1.998332 1_555
Fe5 O29 2.064632 1_555
Fe5 O35 2.090980 1_555
Fe5 O21 2.152233 1_555
Fe6 O6 1.972142 1_555
Fe6 O14 1.990599 1_555
Fe6 O10 1.998332 1_555
Fe6 O30 2.064632 1_555
Fe6 O32 2.090980 1_555
Fe6 O22 2.152233 1_555
Fe7 O7 1.972142 1_555
Fe7 O15 1.990599 1_555
Fe7 O11 1.998332 1_555
Fe7 O31 2.064632 1_555
Fe7 O33 2.090980 1_555
Fe7 O23 2.152233 1_555
H0 O20 0.980214 1_555
H1 O21 0.980214 1_555
H2 O22 0.980214 1_555
H3 O23 0.980214 1_555
H4 O20 0.989858 1_555
H5 O21 0.989858 1_555
H6 O22 0.989858 1_555
H7 O23 0.989858 1_555
O0 Se7 1.716422 1_556
O1 Se6 1.716422 1_554
O2 Se5 1.716422 1_555
O3 Se4 1.716422 1_555
O4 Se8 1.720284 1_555
O5 Se9 1.720284 1_555
O6 Se10 1.720284 1_555
O7 Se11 1.720284 1_555
O8 Se6 1.748375 1_555
O9 Se7 1.748375 1_555
O10 Se4 1.748375 1_555
O11 Se5 1.748375 1_555
O12 Se0 1.713915 1_555
O13 Se1 1.713915 1_555
O14 Se2 1.713915 1_555
O15 Se3 1.713915 1_555
O16 Se8 1.714671 1_555
O17 Se9 1.714671 1_555
O18 Se10 1.714671 1_555
O19 Se11 1.714671 1_555
O24 Se6 1.738158 1_565
O25 Se7 1.738158 1_545
O26 Se4 1.738158 1_545
O27 Se5 1.738158 1_565
O28 Se2 1.803941 1_455
O29 Se3 1.803941 1_655
O30 Se0 1.803941 1_555
O31 Se1 1.803941 1_555
O32 Se8 1.780749 1_655
O33 Se9 1.780749 1_455
O34 Se10 1.780749 1_555
O35 Se11 1.780749 1_555
O36 Se0 1.728867 1_555
O37 Se1 1.728867 1_555
O38 Se2 1.728867 1_555
O39 Se3 1.728867 1_555
