# generated using pymatgen
data_K2CeAgBr6
_symmetry_space_group_name_H-M   'P 1'
_cell_length_a   8.11884026
_cell_length_b   8.11884026
_cell_length_c   8.11884026
_cell_angle_alpha   60.00000000
_cell_angle_beta   60.00000000
_cell_angle_gamma   60.00000000
_symmetry_Int_Tables_number   1
_chemical_formula_structural   K2CeAgBr6
_chemical_formula_sum   'K2 Ce1 Ag1 Br6'
_cell_volume   378.41382222
_cell_formula_units_Z   1
loop_
 _symmetry_equiv_pos_site_id
 _symmetry_equiv_pos_as_xyz
  1  'x, y, z'
loop_
 _atom_site_type_symbol
 _atom_site_label
 _atom_site_symmetry_multiplicity
 _atom_site_fract_x
 _atom_site_fract_y
 _atom_site_fract_z
 _atom_site_occupancy
  K  K0  1  0.75000000  0.75000000  0.75000000  1
  K  K1  1  0.25000000  0.25000000  0.25000000  1
  Ce  Ce0  1  0.50000000  0.50000000  0.50000000  1
  Ag  Ag0  1  0.00000000  0.00000000  0.00000000  1
  Br  Br0  1  0.75155800  0.24844200  0.24844200  1
  Br  Br1  1  0.24844200  0.24844200  0.75155800  1
  Br  Br2  1  0.24844200  0.75155800  0.75155800  1
  Br  Br3  1  0.24844200  0.75155800  0.24844200  1
  Br  Br4  1  0.75155800  0.24844200  0.75155800  1
  Br  Br5  1  0.75155800  0.75155800  0.24844200  1
loop_
_geom_bond_atom_site_label_1
_geom_bond_atom_site_label_2
_geom_bond_distance
_geom_bond_site_symmetry_2
Ag0 Br0 2.852555 1_455
Ag0 Br3 2.852555 1_545
Ag0 Br1 2.852555 1_554
Ag0 Br4 2.852555 1_454
Ag0 Br2 2.852555 1_544
Ag0 Br5 2.852555 1_445
Br0 Ce0 2.888332 1_555
Br1 Ce0 2.888332 1_555
Br2 Ce0 2.888332 1_555
Br3 Ce0 2.888332 1_555
Br4 Ce0 2.888332 1_555
Br5 Ce0 2.888332 1_555
