# generated using pymatgen
data_Gd2Fe17
_symmetry_space_group_name_H-M   'P 1'
_cell_length_a   8.52575302
_cell_length_b   8.52575302
_cell_length_c   8.27977200
_cell_angle_alpha   90.00000000
_cell_angle_beta   90.00000000
_cell_angle_gamma   120.00000794
_symmetry_Int_Tables_number   1
_chemical_formula_structural   Gd2Fe17
_chemical_formula_sum   'Gd4 Fe34'
_cell_volume   521.21207697
_cell_formula_units_Z   2
loop_
 _symmetry_equiv_pos_site_id
 _symmetry_equiv_pos_as_xyz
  1  'x, y, z'
loop_
 _atom_site_type_symbol
 _atom_site_label
 _atom_site_symmetry_multiplicity
 _atom_site_fract_x
 _atom_site_fract_y
 _atom_site_fract_z
 _atom_site_occupancy
  Gd  Gd0  1  0.00000000  0.00000000  0.25000000  1
  Gd  Gd1  1  0.00000000  0.00000000  0.75000000  1
  Gd  Gd2  1  0.33333300  0.66666700  0.75000000  1
  Gd  Gd3  1  0.66666700  0.33333300  0.25000000  1
  Fe  Fe0  1  0.33333300  0.66666700  0.39226600  1
  Fe  Fe1  1  0.66666700  0.33333300  0.60773400  1
  Fe  Fe2  1  0.66666700  0.33333300  0.89226600  1
  Fe  Fe3  1  0.33333300  0.66666700  0.10773400  1
  Fe  Fe4  1  0.50000000  0.50000000  0.50000000  1
  Fe  Fe5  1  0.50000000  0.00000000  0.50000000  1
  Fe  Fe6  1  0.00000000  0.50000000  0.50000000  1
  Fe  Fe7  1  0.50000000  0.50000000  0.00000000  1
  Fe  Fe8  1  0.50000000  0.00000000  0.00000000  1
  Fe  Fe9  1  0.00000000  0.50000000  0.00000000  1
  Fe  Fe10  1  0.32912800  0.36770800  0.25000000  1
  Fe  Fe11  1  0.63229200  0.96142000  0.25000000  1
  Fe  Fe12  1  0.03858000  0.67087200  0.25000000  1
  Fe  Fe13  1  0.63229200  0.67087200  0.25000000  1
  Fe  Fe14  1  0.03858000  0.36770800  0.25000000  1
  Fe  Fe15  1  0.32912800  0.96142000  0.25000000  1
  Fe  Fe16  1  0.67087200  0.63229200  0.75000000  1
  Fe  Fe17  1  0.36770800  0.03858000  0.75000000  1
  Fe  Fe18  1  0.96142000  0.32912800  0.75000000  1
  Fe  Fe19  1  0.36770800  0.32912800  0.75000000  1
  Fe  Fe20  1  0.96142000  0.63229200  0.75000000  1
  Fe  Fe21  1  0.67087200  0.03858000  0.75000000  1
  Fe  Fe22  1  0.16588500  0.83411500  0.51321400  1
  Fe  Fe23  1  0.16588500  0.33176900  0.51321400  1
  Fe  Fe24  1  0.66823100  0.83411500  0.51321400  1
  Fe  Fe25  1  0.83411500  0.16588500  0.48678600  1
  Fe  Fe26  1  0.83411500  0.66823100  0.48678600  1
  Fe  Fe27  1  0.33176900  0.16588500  0.48678600  1
  Fe  Fe28  1  0.83411500  0.16588500  0.01321400  1
  Fe  Fe29  1  0.83411500  0.66823100  0.01321400  1
  Fe  Fe30  1  0.33176900  0.16588500  0.01321400  1
  Fe  Fe31  1  0.16588500  0.83411500  0.98678600  1
  Fe  Fe32  1  0.16588500  0.33176900  0.98678600  1
  Fe  Fe33  1  0.66823100  0.83411500  0.98678600  1
loop_
_geom_bond_atom_site_label_1
_geom_bond_atom_site_label_2
_geom_bond_distance
_geom_bond_site_symmetry_2
Fe0 Fe3 2.355860 1_555
Fe0 Fe5 2.617832 1_565
Fe0 Fe6 2.617832 1_555
Fe0 Fe4 2.617840 1_555
Fe0 Fe22 2.667798 1_555
Fe0 Fe24 2.667811 1_555
Fe0 Fe23 2.667811 1_555
Fe0 Fe12 2.791778 1_555
Fe0 Fe15 2.791778 1_555
Fe0 Fe11 2.791781 1_555
Fe0 Fe14 2.791781 1_555
Fe0 Fe13 2.791785 1_555
Fe0 Fe10 2.791785 1_555
Fe0 Gd2 2.961956 1_555
Fe1 Fe2 2.355860 1_555
Fe1 Fe6 2.617832 1_655
Fe1 Fe5 2.617832 1_555
Fe1 Fe4 2.617840 1_555
Fe1 Fe25 2.667798 1_555
Fe1 Fe26 2.667811 1_555
Fe1 Fe27 2.667811 1_555
Fe1 Fe21 2.791778 1_555
Fe1 Fe18 2.791778 1_555
Fe1 Fe17 2.791781 1_555
Fe1 Fe20 2.791781 1_555
Fe1 Fe16 2.791785 1_555
Fe1 Fe19 2.791785 1_555
Fe1 Gd3 2.961956 1_555
Fe2 Fe9 2.617832 1_656
Fe2 Fe8 2.617832 1_556
Fe2 Fe7 2.617840 1_556
Fe2 Fe28 2.667798 1_556
Fe2 Fe29 2.667811 1_556
Fe2 Fe30 2.667811 1_556
Fe2 Fe21 2.791778 1_555
Fe2 Fe20 2.791781 1_555
Fe2 Gd3 2.961956 1_556
Fe3 Fe8 2.617832 1_565
Fe3 Fe9 2.617832 1_555
Fe3 Fe7 2.617840 1_555
Fe3 Fe31 2.667798 1_554
Fe3 Fe33 2.667811 1_554
Fe3 Fe32 2.667811 1_554
Fe3 Gd2 2.961956 1_554
Fe4 Gd3 3.215907 1_555
Fe4 Gd2 3.215907 1_555
Fe5 Gd2 3.215902 1_545
Fe5 Gd3 3.215902 1_555
Fe6 Gd3 3.215902 1_455
Fe6 Gd2 3.215902 1_555
Fe7 Gd3 3.215907 1_555
Fe7 Gd2 3.215907 1_554
Fe8 Gd2 3.215902 1_544
Fe8 Gd3 3.215902 1_555
Fe9 Gd3 3.215902 1_455
Fe9 Gd2 3.215902 1_554
Fe10 Fe4 2.456823 1_555
Fe10 Fe7 2.456823 1_555
Fe10 Fe14 2.477140 1_555
Fe10 Fe23 2.520721 1_555
Fe10 Fe32 2.520721 1_554
Fe10 Fe13 2.584701 1_555
Fe10 Fe30 2.616052 1_555
Fe10 Fe27 2.616052 1_555
Fe10 Fe3 2.791785 1_555
Fe10 Gd0 2.984152 1_555
Fe10 Gd3 3.034942 1_555
Fe11 Fe8 2.456823 1_565
Fe11 Fe5 2.456823 1_565
Fe11 Fe13 2.477140 1_555
Fe11 Fe24 2.520725 1_555
Fe11 Fe33 2.520725 1_554
Fe11 Fe15 2.584701 1_555
Fe11 Fe28 2.616055 1_565
Fe11 Fe25 2.616055 1_565
Fe11 Fe3 2.791781 1_555
Fe11 Gd0 2.984153 1_665
Fe11 Gd3 3.034933 1_565
Fe12 Fe6 2.456823 1_555
Fe12 Fe9 2.456823 1_555
Fe12 Fe15 2.477140 1_555
Fe12 Fe22 2.520722 1_555
Fe12 Fe31 2.520722 1_554
Fe12 Fe14 2.584701 1_555
Fe12 Fe26 2.616058 1_455
Fe12 Fe29 2.616058 1_455
Fe12 Fe3 2.791778 1_555
Fe12 Gd0 2.984153 1_565
Fe12 Gd3 3.034937 1_455
Fe13 Fe7 2.456823 1_555
Fe13 Fe4 2.456823 1_555
Fe13 Fe24 2.520721 1_555
Fe13 Fe33 2.520721 1_554
Fe13 Fe26 2.616052 1_555
Fe13 Fe29 2.616052 1_555
Fe13 Fe3 2.791785 1_555
Fe13 Gd0 2.984152 1_665
Fe13 Gd3 3.034942 1_555
Fe14 Fe9 2.456823 1_555
Fe14 Fe6 2.456823 1_555
Fe14 Fe23 2.520725 1_555
Fe14 Fe32 2.520725 1_554
Fe14 Fe25 2.616055 1_455
Fe14 Fe28 2.616055 1_455
Fe14 Fe3 2.791781 1_555
Fe14 Gd0 2.984153 1_555
Fe14 Gd3 3.034933 1_455
Fe15 Fe5 2.456823 1_565
Fe15 Fe8 2.456823 1_565
Fe15 Fe22 2.520722 1_555
Fe15 Fe31 2.520722 1_554
Fe15 Fe27 2.616058 1_565
Fe15 Fe30 2.616058 1_565
Fe15 Fe3 2.791778 1_555
Fe15 Gd0 2.984153 1_565
Fe15 Gd3 3.034937 1_565
Fe16 Fe7 2.456823 1_556
Fe16 Fe4 2.456823 1_555
Fe16 Fe20 2.477140 1_555
Fe16 Fe26 2.520721 1_555
Fe16 Fe29 2.520721 1_556
Fe16 Fe19 2.584701 1_555
Fe16 Fe33 2.616052 1_555
Fe16 Fe24 2.616052 1_555
Fe16 Fe2 2.791785 1_555
Fe16 Gd1 2.984152 1_665
Fe16 Gd2 3.034942 1_555
Fe17 Fe5 2.456823 1_555
Fe17 Fe8 2.456823 1_556
Fe17 Fe19 2.477140 1_555
Fe17 Fe27 2.520725 1_555
Fe17 Fe30 2.520725 1_556
Fe17 Fe21 2.584701 1_555
Fe17 Fe31 2.616055 1_545
Fe17 Fe22 2.616055 1_545
Fe17 Fe2 2.791781 1_555
Fe17 Gd1 2.984153 1_555
Fe17 Gd2 3.034933 1_545
Fe18 Fe9 2.456823 1_656
Fe18 Fe6 2.456823 1_655
Fe18 Fe21 2.477140 1_555
Fe18 Fe25 2.520722 1_555
Fe18 Fe28 2.520722 1_556
Fe18 Fe20 2.584701 1_555
Fe18 Fe32 2.616058 1_655
Fe18 Fe23 2.616058 1_655
Fe18 Fe2 2.791778 1_555
Fe18 Gd1 2.984153 1_655
Fe18 Gd2 3.034937 1_655
Fe19 Fe7 2.456823 1_556
Fe19 Fe4 2.456823 1_555
Fe19 Fe27 2.520721 1_555
Fe19 Fe30 2.520721 1_556
Fe19 Fe32 2.616052 1_555
Fe19 Fe23 2.616052 1_555
Fe19 Fe2 2.791785 1_555
Fe19 Gd1 2.984152 1_555
Fe19 Gd2 3.034942 1_555
Fe20 Fe6 2.456823 1_655
Fe20 Fe9 2.456823 1_656
Fe20 Fe26 2.520725 1_555
Fe20 Fe29 2.520725 1_556
Fe20 Fe31 2.616055 1_655
Fe20 Fe22 2.616055 1_655
Fe20 Gd1 2.984153 1_665
Fe20 Gd2 3.034933 1_655
Fe21 Fe8 2.456823 1_556
Fe21 Fe5 2.456823 1_555
Fe21 Fe25 2.520722 1_555
Fe21 Fe28 2.520722 1_556
Fe21 Fe33 2.616058 1_545
Fe21 Fe24 2.616058 1_545
Fe21 Gd1 2.984153 1_655
Fe21 Gd2 3.034937 1_545
Fe22 Fe26 2.459384 1_455
Fe22 Fe27 2.459384 1_565
Fe22 Fe6 2.469389 1_555
Fe22 Fe5 2.469389 1_565
Fe22 Gd1 3.137576 1_565
Fe22 Gd2 3.155629 1_555
Fe22 Gd0 3.278759 1_565
Fe23 Fe27 2.459369 1_555
Fe23 Fe25 2.459384 1_455
Fe23 Fe4 2.469389 1_555
Fe23 Fe6 2.469397 1_555
Fe23 Gd1 3.137570 1_555
Fe23 Gd2 3.155640 1_555
Fe23 Gd0 3.278754 1_555
Fe24 Fe26 2.459369 1_555
Fe24 Fe25 2.459384 1_565
Fe24 Fe4 2.469389 1_555
Fe24 Fe5 2.469397 1_565
Fe24 Gd1 3.137570 1_665
Fe24 Gd2 3.155640 1_555
Fe24 Gd0 3.278754 1_665
Fe25 Fe5 2.469389 1_555
Fe25 Fe6 2.469389 1_655
Fe25 Gd0 3.137576 1_655
Fe25 Gd3 3.155629 1_555
Fe25 Gd1 3.278759 1_655
Fe26 Fe4 2.469389 1_555
Fe26 Fe6 2.469397 1_655
Fe26 Gd0 3.137570 1_665
Fe26 Gd3 3.155640 1_555
Fe26 Gd1 3.278754 1_665
Fe27 Fe4 2.469389 1_555
Fe27 Fe5 2.469397 1_555
Fe27 Gd0 3.137570 1_555
Fe27 Gd3 3.155640 1_555
Fe27 Gd1 3.278754 1_555
Fe28 Fe33 2.459384 1_544
Fe28 Fe32 2.459384 1_654
Fe28 Fe8 2.469389 1_555
Fe28 Fe9 2.469389 1_655
Fe28 Gd0 3.137576 1_655
Fe28 Gd3 3.155629 1_555
Fe28 Gd1 3.278759 1_654
Fe29 Fe33 2.459369 1_554
Fe29 Fe31 2.459384 1_654
Fe29 Fe7 2.469389 1_555
Fe29 Fe9 2.469397 1_655
Fe29 Gd0 3.137570 1_665
Fe29 Gd3 3.155640 1_555
Fe29 Gd1 3.278754 1_664
Fe30 Fe32 2.459369 1_554
Fe30 Fe31 2.459384 1_544
Fe30 Fe7 2.469389 1_555
Fe30 Fe8 2.469397 1_555
Fe30 Gd0 3.137570 1_555
Fe30 Gd3 3.155640 1_555
Fe30 Gd1 3.278754 1_554
Fe31 Fe9 2.469389 1_556
Fe31 Fe8 2.469389 1_566
Fe31 Gd1 3.137576 1_565
Fe31 Gd2 3.155629 1_555
Fe31 Gd0 3.278759 1_566
Fe32 Fe7 2.469389 1_556
Fe32 Fe9 2.469397 1_556
Fe32 Gd1 3.137570 1_555
Fe32 Gd2 3.155640 1_555
Fe32 Gd0 3.278754 1_556
Fe33 Fe7 2.469389 1_556
Fe33 Fe8 2.469397 1_566
Fe33 Gd1 3.137570 1_665
Fe33 Gd2 3.155640 1_555
Fe33 Gd0 3.278754 1_666
