# generated using pymatgen
data_CaMn2P2O9
_symmetry_space_group_name_H-M   'P 1'
_cell_length_a   6.58057900
_cell_length_b   7.41232200
_cell_length_c   14.35953000
_cell_angle_alpha   90.00000000
_cell_angle_beta   90.00000000
_cell_angle_gamma   90.00000000
_symmetry_Int_Tables_number   1
_chemical_formula_structural   CaMn2P2O9
_chemical_formula_sum   'Ca4 Mn8 P8 O36'
_cell_volume   700.42011494
_cell_formula_units_Z   4
loop_
 _symmetry_equiv_pos_site_id
 _symmetry_equiv_pos_as_xyz
  1  'x, y, z'
loop_
 _atom_site_type_symbol
 _atom_site_label
 _atom_site_symmetry_multiplicity
 _atom_site_fract_x
 _atom_site_fract_y
 _atom_site_fract_z
 _atom_site_occupancy
  Ca  Ca0  1  0.25000000  0.88484300  0.78008800  1
  Ca  Ca1  1  0.25000000  0.61515700  0.28008800  1
  Ca  Ca2  1  0.75000000  0.38484300  0.71991200  1
  Ca  Ca3  1  0.75000000  0.11515700  0.21991200  1
  Mn  Mn0  1  0.25000000  0.35112800  0.87997600  1
  Mn  Mn1  1  0.75000000  0.64887200  0.12002400  1
  Mn  Mn2  1  0.75000000  0.85112800  0.62002400  1
  Mn  Mn3  1  0.25000000  0.14887200  0.37997600  1
  Mn  Mn4  1  0.00000000  0.00000000  0.00000000  1
  Mn  Mn5  1  0.00000000  0.50000000  0.50000000  1
  Mn  Mn6  1  0.50000000  0.50000000  0.50000000  1
  Mn  Mn7  1  0.50000000  0.00000000  0.00000000  1
  P  P0  1  0.75000000  0.36456500  0.93436400  1
  P  P1  1  0.25000000  0.63543500  0.06563600  1
  P  P2  1  0.25000000  0.86456500  0.56563600  1
  P  P3  1  0.75000000  0.13543500  0.43436400  1
  P  P4  1  0.25000000  0.39002300  0.69452000  1
  P  P5  1  0.25000000  0.10997700  0.19452000  1
  P  P6  1  0.75000000  0.89002300  0.80548000  1
  P  P7  1  0.75000000  0.60997700  0.30548000  1
  O  O0  1  0.55540500  0.60722700  0.36477600  1
  O  O1  1  0.05540500  0.39277300  0.63522400  1
  O  O2  1  0.44459500  0.10722700  0.13522400  1
  O  O3  1  0.94459500  0.89277300  0.86477600  1
  O  O4  1  0.44459500  0.39277300  0.63522400  1
  O  O5  1  0.94459500  0.60722700  0.36477600  1
  O  O6  1  0.55540500  0.89277300  0.86477600  1
  O  O7  1  0.05540500  0.10722700  0.13522400  1
  O  O8  1  0.75000000  0.32097700  0.48466100  1
  O  O9  1  0.25000000  0.67902300  0.51533900  1
  O  O10  1  0.25000000  0.82097700  0.01533900  1
  O  O11  1  0.75000000  0.17902300  0.98466100  1
  O  O12  1  0.25000000  0.12382400  0.94593200  1
  O  O13  1  0.75000000  0.87617600  0.05406800  1
  O  O14  1  0.75000000  0.62382400  0.55406800  1
  O  O15  1  0.25000000  0.37617600  0.44593200  1
  O  O16  1  0.25000000  0.21736200  0.75896600  1
  O  O17  1  0.75000000  0.78263800  0.24103400  1
  O  O18  1  0.75000000  0.71736200  0.74103400  1
  O  O19  1  0.25000000  0.28263800  0.25896600  1
  O  O20  1  0.93319500  0.12643000  0.36681900  1
  O  O21  1  0.43319500  0.87357000  0.63318100  1
  O  O22  1  0.06680500  0.62643000  0.13318100  1
  O  O23  1  0.56680500  0.37357000  0.86681900  1
  O  O24  1  0.06680500  0.87357000  0.63318100  1
  O  O25  1  0.56680500  0.12643000  0.36681900  1
  O  O26  1  0.93319500  0.37357000  0.86681900  1
  O  O27  1  0.43319500  0.62643000  0.13318100  1
  O  O28  1  0.25000000  0.48674200  0.99316600  1
  O  O29  1  0.75000000  0.04313200  0.73066100  1
  O  O30  1  0.75000000  0.45686800  0.23066100  1
  O  O31  1  0.25000000  0.54313200  0.76933900  1
  O  O32  1  0.25000000  0.01325800  0.49316600  1
  O  O33  1  0.75000000  0.98674200  0.50683400  1
  O  O34  1  0.75000000  0.51325800  0.00683400  1
  O  O35  1  0.25000000  0.95686800  0.26933900  1
loop_
_geom_bond_atom_site_label_1
_geom_bond_atom_site_label_2
_geom_bond_distance
_geom_bond_site_symmetry_2
Ca0 O6 2.349759 1_555
Ca0 O3 2.349759 1_455
Ca0 O21 2.431119 1_555
Ca0 O24 2.431119 1_555
Ca0 O16 2.483329 1_565
Ca0 O31 2.537571 1_555
Ca1 O0 2.349759 1_555
Ca1 O5 2.349759 1_455
Ca1 O27 2.431119 1_555
Ca1 O22 2.431119 1_555
Ca1 O19 2.483329 1_555
Ca1 O35 2.537571 1_555
Ca2 O1 2.349759 1_655
Ca2 O4 2.349759 1_555
Ca2 O26 2.431119 1_555
Ca2 O23 2.431119 1_555
Ca2 O18 2.483329 1_555
Ca2 O29 2.537571 1_555
Ca3 O7 2.349759 1_655
Ca3 O2 2.349759 1_555
Ca3 O25 2.431119 1_555
Ca3 O20 2.431119 1_555
Ca3 O17 2.483329 1_545
Ca3 O30 2.537571 1_555
Mn0 O28 1.911082 1_555
Mn0 O12 1.932800 1_555
Mn0 O16 2.000630 1_555
Mn0 O23 2.099903 1_555
Mn0 O26 2.099903 1_455
Mn0 O31 2.132941 1_555
Mn1 O34 1.911082 1_555
Mn1 O13 1.932800 1_555
Mn1 O17 2.000630 1_555
Mn1 O27 2.099903 1_555
Mn1 O22 2.099903 1_655
Mn1 O30 2.132941 1_555
Mn2 O33 1.911082 1_555
Mn2 O14 1.932800 1_555
Mn2 O18 2.000630 1_555
Mn2 O21 2.099903 1_555
Mn2 O24 2.099903 1_655
Mn2 O29 2.132941 1_565
Mn3 O32 1.911082 1_555
Mn3 O15 1.932800 1_555
Mn3 O19 2.000630 1_555
Mn3 O20 2.099903 1_455
Mn3 O25 2.099903 1_555
Mn3 O35 2.132941 1_545
Mn4 O12 2.037568 1_554
Mn4 O13 2.037568 1_445
Mn4 O10 2.125060 1_545
Mn4 O11 2.125060 1_454
Mn4 O7 2.129564 1_555
Mn4 O3 2.129564 1_444
Mn5 O14 2.037568 1_455
Mn5 O15 2.037568 1_555
Mn5 O9 2.125060 1_555
Mn5 O8 2.125060 1_455
Mn5 O1 2.129564 1_555
Mn5 O5 2.129564 1_455
Mn6 O14 2.037568 1_555
Mn6 O15 2.037568 1_555
Mn6 O9 2.125060 1_555
Mn6 O8 2.125060 1_555
Mn6 O0 2.129564 1_555
Mn6 O4 2.129564 1_555
Mn7 O12 2.037568 1_554
Mn7 O13 2.037568 1_545
Mn7 O10 2.125060 1_545
Mn7 O11 2.125060 1_554
Mn7 O2 2.129564 1_555
Mn7 O6 2.129564 1_544
O0 P7 1.537923 1_555
O1 P4 1.537923 1_555
O2 P5 1.537923 1_555
O3 P6 1.537923 1_555
O4 P4 1.537923 1_555
O5 P7 1.537923 1_555
O6 P6 1.537923 1_555
O7 P5 1.537923 1_555
O8 P3 1.553407 1_555
O9 P2 1.553407 1_555
O10 P1 1.553407 1_555
O11 P0 1.553407 1_555
O16 P4 1.579344 1_555
O17 P7 1.579344 1_555
O18 P6 1.579344 1_555
O19 P5 1.579344 1_555
O20 P3 1.548706 1_555
O21 P2 1.548706 1_555
O22 P1 1.548706 1_555
O23 P0 1.548706 1_555
O24 P2 1.548706 1_555
O25 P3 1.548706 1_555
O26 P0 1.548706 1_555
O27 P1 1.548706 1_555
O28 P1 1.515810 1_556
O29 P6 1.562768 1_545
O30 P7 1.562768 1_555
O31 P4 1.562768 1_555
O32 P2 1.515810 1_545
O33 P3 1.515810 1_565
O34 P0 1.515810 1_554
O35 P5 1.562768 1_565
