# generated using pymatgen
data_Na2(ReSe2)3
_symmetry_space_group_name_H-M   'P 1'
_cell_length_a   9.84301192
_cell_length_b   9.84301192
_cell_length_c   12.22418222
_cell_angle_alpha   87.77992245
_cell_angle_beta   87.77992245
_cell_angle_gamma   61.95767130
_symmetry_Int_Tables_number   1
_chemical_formula_structural   Na2(ReSe2)3
_chemical_formula_sum   'Na8 Re12 Se24'
_cell_volume   1044.23021460
_cell_formula_units_Z   4
loop_
 _symmetry_equiv_pos_site_id
 _symmetry_equiv_pos_as_xyz
  1  'x, y, z'
loop_
 _atom_site_type_symbol
 _atom_site_label
 _atom_site_symmetry_multiplicity
 _atom_site_fract_x
 _atom_site_fract_y
 _atom_site_fract_z
 _atom_site_occupancy
  Na  Na0  1  0.42827800  0.57172200  0.75000000  1
  Na  Na1  1  0.57172200  0.42827800  0.25000000  1
  Na  Na2  1  0.78623400  0.21376600  0.75000000  1
  Na  Na3  1  0.21376600  0.78623400  0.25000000  1
  Na  Na4  1  0.89425200  0.34960300  0.49245900  1
  Na  Na5  1  0.65039700  0.10574800  0.00754100  1
  Na  Na6  1  0.10574800  0.65039700  0.50754100  1
  Na  Na7  1  0.34960300  0.89425200  0.99245900  1
  Re  Re0  1  0.98977500  0.69175300  0.96918300  1
  Re  Re1  1  0.30824700  0.01022500  0.53081700  1
  Re  Re2  1  0.01022500  0.30824700  0.03081700  1
  Re  Re3  1  0.69175300  0.98977500  0.46918300  1
  Re  Re4  1  0.88909100  0.52110700  0.87184200  1
  Re  Re5  1  0.47889300  0.11090900  0.62815800  1
  Re  Re6  1  0.11090900  0.47889300  0.12815800  1
  Re  Re7  1  0.52110700  0.88909100  0.37184200  1
  Re  Re8  1  0.18700100  0.40364500  0.91834800  1
  Re  Re9  1  0.59635500  0.81299900  0.58165200  1
  Re  Re10  1  0.81299900  0.59635500  0.08165200  1
  Re  Re11  1  0.40364500  0.18700100  0.41834800  1
  Se  Se0  1  0.91846800  0.75574900  0.16882500  1
  Se  Se1  1  0.24425100  0.08153200  0.33117500  1
  Se  Se2  1  0.08153200  0.24425100  0.83117500  1
  Se  Se3  1  0.75574900  0.91846800  0.66882500  1
  Se  Se4  1  0.20513600  0.29568800  0.57405900  1
  Se  Se5  1  0.70431200  0.79486400  0.92594100  1
  Se  Se6  1  0.79486400  0.70431200  0.42594100  1
  Se  Se7  1  0.29568800  0.20513600  0.07405900  1
  Se  Se8  1  0.93421300  0.38824400  0.22908900  1
  Se  Se9  1  0.61175600  0.06578700  0.27091100  1
  Se  Se10  1  0.06578700  0.61175600  0.77091100  1
  Se  Se11  1  0.38824400  0.93421300  0.72908900  1
  Se  Se12  1  0.72479400  0.42462100  0.98486400  1
  Se  Se13  1  0.57537900  0.27520600  0.51513600  1
  Se  Se14  1  0.27520600  0.57537900  0.01513600  1
  Se  Se15  1  0.42462100  0.72479400  0.48486400  1
  Se  Se16  1  0.95301800  0.97892100  0.41522500  1
  Se  Se17  1  0.02107900  0.04698200  0.08477500  1
  Se  Se18  1  0.04698200  0.02107900  0.58477500  1
  Se  Se19  1  0.97892100  0.95301800  0.91522500  1
  Se  Se20  1  0.73303500  0.54250100  0.69218100  1
  Se  Se21  1  0.45749900  0.26696500  0.80781900  1
  Se  Se22  1  0.26696500  0.45749900  0.30781900  1
  Se  Se23  1  0.54250100  0.73303500  0.19218100  1
loop_
_geom_bond_atom_site_label_1
_geom_bond_atom_site_label_2
_geom_bond_distance
_geom_bond_site_symmetry_2
Na0 Se21 2.936135 1_555
Na0 Se20 2.936135 1_555
Na0 Se11 3.400946 1_555
Na0 Se10 3.400946 1_555
Na0 Se14 3.515061 1_556
Na0 Se15 3.515061 1_555
Na1 Se22 2.936135 1_555
Na1 Se23 2.936135 1_555
Na1 Se9 3.400946 1_555
Na1 Se8 3.400946 1_555
Na1 Se13 3.515061 1_555
Na1 Se12 3.515061 1_554
Na2 Se20 3.082556 1_555
Na2 Se21 3.082556 1_555
Na2 Se19 3.095472 1_545
Na2 Se18 3.095472 1_655
Na2 Se2 3.254187 1_655
Na2 Se3 3.254187 1_545
Na2 Se12 3.473178 1_555
Na2 Se13 3.473178 1_555
Na3 Se22 3.082556 1_555
Na3 Se23 3.082556 1_555
Na3 Se16 3.095472 1_455
Na3 Se17 3.095472 1_565
Na3 Se1 3.254187 1_565
Na3 Se0 3.254187 1_455
Na3 Se14 3.473178 1_555
Na3 Se15 3.473178 1_555
Na4 Se18 3.044339 1_655
Na4 Se4 3.051069 1_655
Na4 Se20 3.051204 1_555
Na4 Se6 3.230838 1_555
Na4 Se8 3.257626 1_555
Na4 Se13 3.541510 1_555
Na5 Se19 3.044339 1_544
Na5 Se5 3.051069 1_544
Na5 Se21 3.051204 1_554
Na5 Se7 3.230838 1_555
Na5 Se9 3.257626 1_555
Na5 Se12 3.541510 1_554
Na6 Se16 3.044339 1_455
Na6 Se6 3.051069 1_455
Na6 Se22 3.051204 1_555
Na6 Se4 3.230838 1_555
Na6 Se10 3.257626 1_555
Na6 Se15 3.541510 1_555
Na7 Se17 3.044339 1_566
Na7 Se7 3.051069 1_566
Na7 Se23 3.051204 1_556
Na7 Se5 3.230838 1_555
Na7 Se11 3.257626 1_555
Na7 Se14 3.541510 1_556
Re0 Se0 2.532974 1_556
Re0 Se10 2.551004 1_655
Re0 Se14 2.562706 1_656
Re0 Se5 2.568406 1_555
Re0 Se19 2.583698 1_555
Re1 Se1 2.532974 1_555
Re1 Se11 2.551004 1_545
Re1 Se15 2.562706 1_545
Re1 Se4 2.568406 1_555
Re1 Se18 2.583698 1_555
Re2 Se2 2.532974 1_554
Re2 Se8 2.551004 1_455
Re2 Se12 2.562706 1_454
Re2 Se7 2.568406 1_555
Re2 Se17 2.583698 1_555
Re3 Se3 2.532974 1_555
Re3 Se9 2.551004 1_565
Re3 Se13 2.562706 1_565
Re3 Se6 2.568406 1_555
Re3 Se16 2.583698 1_555
Re4 Se2 2.537683 1_655
Re4 Se5 2.538302 1_555
Re4 Se10 2.559461 1_655
Re4 Se12 2.568143 1_555
Re4 Se20 2.673679 1_555
Re5 Se3 2.537683 1_545
Re5 Se4 2.538302 1_555
Re5 Se11 2.559461 1_545
Re5 Se13 2.568143 1_555
Re5 Se21 2.673679 1_555
Re6 Se0 2.537683 1_455
Re6 Se7 2.538302 1_555
Re6 Se8 2.559461 1_455
Re6 Se14 2.568143 1_555
Re6 Se22 2.673679 1_555
Re7 Se1 2.537683 1_565
Re7 Se6 2.538302 1_555
Re7 Se9 2.559461 1_565
Re7 Se15 2.568143 1_555
Re7 Se23 2.673679 1_555
Re8 Se2 2.534053 1_555
Re8 Se10 2.539779 1_555
Re8 Se7 2.547468 1_556
Re8 Se14 2.573995 1_556
Re8 Se21 2.686751 1_555
Re9 Se3 2.534053 1_555
Re9 Se11 2.539779 1_555
Re9 Se6 2.547468 1_555
Re9 Se15 2.573995 1_555
Re9 Se20 2.686751 1_555
Re10 Se0 2.534053 1_555
Re10 Se8 2.539779 1_555
Re10 Se5 2.547468 1_554
Re10 Se12 2.573995 1_554
Re10 Se23 2.686751 1_555
Re11 Se1 2.534053 1_555
Re11 Se9 2.539779 1_555
Re11 Se4 2.547468 1_555
Re11 Se13 2.573995 1_555
Re11 Se22 2.686751 1_555
Se16 Se18 2.428855 1_665
Se17 Se19 2.428855 1_444
