# generated using pymatgen
data_KSm
_symmetry_space_group_name_H-M   'P 1'
_cell_length_a   7.36884427
_cell_length_b   7.36880418
_cell_length_c   14.34689002
_cell_angle_alpha   90.00549873
_cell_angle_beta   89.99459320
_cell_angle_gamma   120.03078112
_symmetry_Int_Tables_number   1
_chemical_formula_structural   KSm
_chemical_formula_sum   'K8 Sm8'
_cell_volume   674.45037970
_cell_formula_units_Z   8
loop_
 _symmetry_equiv_pos_site_id
 _symmetry_equiv_pos_as_xyz
  1  'x, y, z'
loop_
 _atom_site_type_symbol
 _atom_site_label
 _atom_site_symmetry_multiplicity
 _atom_site_fract_x
 _atom_site_fract_y
 _atom_site_fract_z
 _atom_site_occupancy
  K  K0_0  1  0.33333450  0.16666750  0.37499950  1
  K  K0_1  1  0.33333450  0.16666750  0.87499950  1
  K  K0_2  1  0.33333450  0.66666750  0.37499950  1
  K  K0_3  1  0.33333450  0.66666750  0.87499950  1
  K  K0_4  1  0.83333450  0.16666750  0.37499950  1
  K  K0_5  1  0.83333450  0.16666750  0.87499950  1
  K  K0_6  1  0.83333450  0.66666750  0.37499950  1
  K  K0_7  1  0.83333450  0.66666750  0.87499950  1
  Sm  Sm0_0  1  0.16666550  0.33333350  0.12500050  1
  Sm  Sm0_1  1  0.16666550  0.33333350  0.62500050  1
  Sm  Sm0_2  1  0.16666550  0.83333350  0.12500050  1
  Sm  Sm0_3  1  0.16666550  0.83333350  0.62500050  1
  Sm  Sm0_4  1  0.66666550  0.33333350  0.12500050  1
  Sm  Sm0_5  1  0.66666550  0.33333350  0.62500050  1
  Sm  Sm0_6  1  0.66666550  0.83333350  0.12500050  1
  Sm  Sm0_7  1  0.66666550  0.83333350  0.62500050  1
loop_
_geom_bond_atom_site_label_1
_geom_bond_atom_site_label_2
_geom_bond_distance
_geom_bond_site_symmetry_2
K0_0 K0_6 3.682698 1_445
K0_0 K0_6 3.682698 1_555
K0_0 K0_2 3.684402 1_545
K0_0 K0_2 3.684402 1_555
K0_0 K0_4 3.684422 1_455
K0_0 K0_4 3.684422 1_555
K0_0 Sm0_2 4.169624 1_545
K0_0 Sm0_4 4.169626 1_555
K0_0 Sm0_5 4.169846 1_555
K0_0 Sm0_3 4.169855 1_545
K0_0 Sm0_1 4.170062 1_555
K0_0 Sm0_0 4.170439 1_555
K0_1 K0_7 3.682698 1_555
K0_1 K0_7 3.682698 1_445
K0_1 K0_3 3.684402 1_545
K0_1 K0_3 3.684402 1_555
K0_1 K0_5 3.684422 1_455
K0_1 K0_5 3.684422 1_555
K0_1 Sm0_3 4.169624 1_545
K0_1 Sm0_5 4.169626 1_555
K0_1 Sm0_4 4.169846 1_556
K0_1 Sm0_2 4.169855 1_546
K0_1 Sm0_0 4.170062 1_556
K0_1 Sm0_1 4.170439 1_555
K0_2 K0_4 3.682698 1_455
K0_2 K0_4 3.682698 1_565
K0_2 K0_6 3.684422 1_455
K0_2 K0_6 3.684422 1_555
K0_2 Sm0_0 4.169624 1_555
K0_2 Sm0_6 4.169626 1_555
K0_2 Sm0_7 4.169846 1_555
K0_2 Sm0_1 4.169855 1_555
K0_2 Sm0_3 4.170062 1_555
K0_2 Sm0_2 4.170439 1_555
K0_3 K0_5 3.682698 1_455
K0_3 K0_5 3.682698 1_565
K0_3 K0_7 3.684422 1_455
K0_3 K0_7 3.684422 1_555
K0_3 Sm0_1 4.169624 1_555
K0_3 Sm0_7 4.169626 1_555
K0_3 Sm0_6 4.169846 1_556
K0_3 Sm0_0 4.169855 1_556
K0_3 Sm0_2 4.170062 1_556
K0_3 Sm0_3 4.170439 1_555
K0_4 K0_6 3.684402 1_545
K0_4 K0_6 3.684402 1_555
K0_4 Sm0_6 4.169624 1_545
K0_4 Sm0_0 4.169626 1_655
K0_4 Sm0_1 4.169846 1_655
K0_4 Sm0_7 4.169855 1_545
K0_4 Sm0_5 4.170062 1_555
K0_4 Sm0_4 4.170439 1_555
K0_5 K0_7 3.684402 1_555
K0_5 K0_7 3.684402 1_545
K0_5 Sm0_7 4.169624 1_545
K0_5 Sm0_1 4.169626 1_655
K0_5 Sm0_0 4.169846 1_656
K0_5 Sm0_6 4.169855 1_546
K0_5 Sm0_4 4.170062 1_556
K0_5 Sm0_5 4.170439 1_555
K0_6 Sm0_4 4.169624 1_555
K0_6 Sm0_2 4.169626 1_655
K0_6 Sm0_3 4.169846 1_655
K0_6 Sm0_5 4.169855 1_555
K0_6 Sm0_7 4.170062 1_555
K0_6 Sm0_6 4.170439 1_555
K0_7 Sm0_5 4.169624 1_555
K0_7 Sm0_3 4.169626 1_655
K0_7 Sm0_2 4.169846 1_656
K0_7 Sm0_4 4.169855 1_556
K0_7 Sm0_6 4.170062 1_556
K0_7 Sm0_7 4.170439 1_555
Sm0_0 Sm0_6 3.682698 1_555
Sm0_0 Sm0_6 3.682698 1_445
Sm0_0 Sm0_2 3.684402 1_545
Sm0_0 Sm0_2 3.684402 1_555
Sm0_0 Sm0_4 3.684422 1_455
Sm0_0 Sm0_4 3.684422 1_555
Sm0_1 Sm0_7 3.682698 1_555
Sm0_1 Sm0_7 3.682698 1_445
Sm0_1 Sm0_3 3.684402 1_555
Sm0_1 Sm0_3 3.684402 1_545
Sm0_1 Sm0_5 3.684422 1_455
Sm0_1 Sm0_5 3.684422 1_555
Sm0_2 Sm0_4 3.682698 1_455
Sm0_2 Sm0_4 3.682698 1_565
Sm0_2 Sm0_6 3.684422 1_555
Sm0_2 Sm0_6 3.684422 1_455
Sm0_3 Sm0_5 3.682698 1_455
Sm0_3 Sm0_5 3.682698 1_565
Sm0_3 Sm0_7 3.684422 1_455
Sm0_3 Sm0_7 3.684422 1_555
Sm0_4 Sm0_6 3.684402 1_545
Sm0_4 Sm0_6 3.684402 1_555
Sm0_5 Sm0_7 3.684402 1_545
Sm0_5 Sm0_7 3.684402 1_555
