# generated using pymatgen
data_Na3CoF6
_symmetry_space_group_name_H-M   'P 1'
_cell_length_a   5.79103625
_cell_length_b   5.79103625
_cell_length_c   5.79103625
_cell_angle_alpha   60.00000000
_cell_angle_beta   60.00000000
_cell_angle_gamma   60.00000000
_symmetry_Int_Tables_number   1
_chemical_formula_structural   Na3CoF6
_chemical_formula_sum   'Na3 Co1 F6'
_cell_volume   137.32634201
_cell_formula_units_Z   1
loop_
 _symmetry_equiv_pos_site_id
 _symmetry_equiv_pos_as_xyz
  1  'x, y, z'
loop_
 _atom_site_type_symbol
 _atom_site_label
 _atom_site_symmetry_multiplicity
 _atom_site_fract_x
 _atom_site_fract_y
 _atom_site_fract_z
 _atom_site_occupancy
  Na  Na0  1  0.25000000  0.25000000  0.25000000  1
  Na  Na1  1  0.75000000  0.75000000  0.75000000  1
  Na  Na2  1  0.50000000  0.50000000  0.50000000  1
  Co  Co0  1  0.00000000  0.00000000  0.00000000  1
  F  F0  1  0.76608800  0.23391200  0.23391200  1
  F  F1  1  0.23391200  0.76608800  0.76608800  1
  F  F2  1  0.23391200  0.76608800  0.23391200  1
  F  F3  1  0.76608800  0.23391200  0.76608800  1
  F  F4  1  0.23391200  0.23391200  0.76608800  1
  F  F5  1  0.76608800  0.76608800  0.23391200  1
loop_
_geom_bond_atom_site_label_1
_geom_bond_atom_site_label_2
_geom_bond_distance
_geom_bond_site_symmetry_2
Co0 F2 1.915684 1_545
Co0 F0 1.915684 1_455
Co0 F4 1.915684 1_554
Co0 F1 1.915684 1_544
Co0 F3 1.915684 1_454
Co0 F5 1.915684 1_445
F0 Na2 2.179197 1_555
F0 Na0 2.898514 1_555
F0 Na1 2.898514 1_554
F0 Na1 2.898514 1_545
F0 Na0 2.898514 1_655
F1 Na2 2.179197 1_555
F1 Na1 2.898514 1_455
F1 Na0 2.898514 1_565
F1 Na0 2.898514 1_556
F1 Na1 2.898514 1_555
F2 Na2 2.179197 1_555
F2 Na0 2.898514 1_555
F2 Na1 2.898514 1_455
F2 Na1 2.898514 1_554
F2 Na0 2.898514 1_565
F3 Na2 2.179197 1_555
F3 Na1 2.898514 1_545
F3 Na0 2.898514 1_655
F3 Na0 2.898514 1_556
F3 Na1 2.898514 1_555
F4 Na2 2.179197 1_555
F4 Na0 2.898514 1_555
F4 Na1 2.898514 1_455
F4 Na1 2.898514 1_545
F4 Na0 2.898514 1_556
F5 Na2 2.179197 1_555
F5 Na1 2.898514 1_554
F5 Na0 2.898514 1_565
F5 Na0 2.898514 1_655
F5 Na1 2.898514 1_555
