# generated using pymatgen
data_Dy2Fe3Ni
_symmetry_space_group_name_H-M   'P 1'
_cell_length_a   5.20556463
_cell_length_b   5.20556463
_cell_length_c   5.20556509
_cell_angle_alpha   58.33505387
_cell_angle_beta   58.33505387
_cell_angle_gamma   58.33504929
_symmetry_Int_Tables_number   1
_chemical_formula_structural   Dy2Fe3Ni
_chemical_formula_sum   'Dy2 Fe3 Ni1'
_cell_volume   95.94193932
_cell_formula_units_Z   1
loop_
 _symmetry_equiv_pos_site_id
 _symmetry_equiv_pos_as_xyz
  1  'x, y, z'
loop_
 _atom_site_type_symbol
 _atom_site_label
 _atom_site_symmetry_multiplicity
 _atom_site_fract_x
 _atom_site_fract_y
 _atom_site_fract_z
 _atom_site_occupancy
  Dy  Dy0  1  0.12461700  0.12461700  0.12461700  1
  Dy  Dy1  1  0.87538300  0.87538300  0.87538300  1
  Fe  Fe0  1  0.50000000  0.00000000  0.50000000  1
  Fe  Fe1  1  0.00000000  0.50000000  0.50000000  1
  Fe  Fe2  1  0.50000000  0.50000000  0.00000000  1
  Ni  Ni0  1  0.50000000  0.50000000  0.50000000  1
loop_
_geom_bond_atom_site_label_1
_geom_bond_atom_site_label_2
_geom_bond_distance
_geom_bond_site_symmetry_2
Dy0 Ni0 2.979353 1_545
Dy0 Ni0 2.979353 1_455
Dy0 Ni0 2.979353 1_554
Dy0 Fe2 3.004047 1_545
Dy0 Fe2 3.004047 1_455
Dy0 Fe1 3.004047 1_545
Dy0 Fe0 3.004047 1_455
Dy0 Fe0 3.004047 1_554
Dy0 Fe1 3.004047 1_554
Dy0 Fe2 3.066742 1_555
Dy0 Fe0 3.066742 1_555
Dy0 Fe1 3.066742 1_555
Dy1 Ni0 2.979353 1_655
Dy1 Ni0 2.979353 1_565
Dy1 Ni0 2.979353 1_556
Dy1 Fe2 3.004047 1_566
Dy1 Fe2 3.004047 1_656
Dy1 Fe1 3.004047 1_665
Dy1 Fe0 3.004047 1_665
Dy1 Fe0 3.004047 1_566
Dy1 Fe1 3.004047 1_656
Dy1 Fe2 3.066742 1_556
Dy1 Fe0 3.066742 1_565
Dy1 Fe1 3.066742 1_655
Fe0 Fe1 2.537009 1_645
Fe0 Fe1 2.537009 1_555
Fe0 Fe2 2.537009 1_555
Fe0 Fe2 2.537009 1_546
Fe0 Ni0 2.602782 1_555
Fe0 Ni0 2.602782 1_545
Fe1 Fe2 2.537009 1_555
Fe1 Fe2 2.537009 1_456
Fe1 Ni0 2.602782 1_555
Fe1 Ni0 2.602782 1_455
Fe2 Ni0 2.602783 1_555
Fe2 Ni0 2.602783 1_554
