# generated using pymatgen
data_CePbAu
_symmetry_space_group_name_H-M   'P 1'
_cell_length_a   4.94602722
_cell_length_b   4.94602722
_cell_length_c   7.47591300
_cell_angle_alpha   90.00000000
_cell_angle_beta   90.00000000
_cell_angle_gamma   119.99998962
_symmetry_Int_Tables_number   1
_chemical_formula_structural   CePbAu
_chemical_formula_sum   'Ce2 Pb2 Au2'
_cell_volume   158.38276511
_cell_formula_units_Z   2
loop_
 _symmetry_equiv_pos_site_id
 _symmetry_equiv_pos_as_xyz
  1  'x, y, z'
loop_
 _atom_site_type_symbol
 _atom_site_label
 _atom_site_symmetry_multiplicity
 _atom_site_fract_x
 _atom_site_fract_y
 _atom_site_fract_z
 _atom_site_occupancy
  Ce  Ce0  1  0.00000000  0.00000000  0.50000000  1
  Ce  Ce1  1  0.00000000  0.00000000  0.00000000  1
  Pb  Pb0  1  0.33333300  0.66666700  0.75000000  1
  Pb  Pb1  1  0.66666700  0.33333300  0.25000000  1
  Au  Au0  1  0.33333300  0.66666700  0.25000000  1
  Au  Au1  1  0.66666700  0.33333300  0.75000000  1
loop_
_geom_bond_atom_site_label_1
_geom_bond_atom_site_label_2
_geom_bond_distance
_geom_bond_site_symmetry_2
Ce0 Pb1 3.412837 1_455
Ce0 Pb0 3.412837 1_545
Ce0 Pb0 3.412841 1_445
Ce0 Pb0 3.412841 1_555
Ce0 Pb1 3.412841 1_445
Ce0 Pb1 3.412841 1_555
Ce0 Ce1 3.737957 1_555
Ce0 Ce1 3.737957 1_556
Ce1 Pb1 3.412837 1_455
Ce1 Pb0 3.412837 1_544
Ce1 Pb0 3.412841 1_554
Ce1 Pb0 3.412841 1_444
Ce1 Pb1 3.412841 1_445
Ce1 Pb1 3.412841 1_555
Au0 Pb1 2.855588 1_455
Au0 Pb1 2.855588 1_565
Au0 Pb1 2.855596 1_555
Au0 Ce0 3.412837 1_565
Au0 Ce1 3.412837 1_565
Au0 Ce0 3.412841 1_555
Au0 Ce1 3.412841 1_555
Au0 Ce0 3.412841 1_665
Au0 Ce1 3.412841 1_665
Au1 Pb0 2.855588 1_545
Au1 Pb0 2.855588 1_655
Au1 Pb0 2.855596 1_555
Au1 Ce1 3.412837 1_656
Au1 Ce0 3.412837 1_655
Au1 Ce0 3.412841 1_555
Au1 Ce1 3.412841 1_666
Au1 Ce1 3.412841 1_556
Au1 Ce0 3.412841 1_665
