# generated using pymatgen
data_CuNi3O4
_symmetry_space_group_name_H-M   'P 1'
_cell_length_a   9.93505605
_cell_length_b   9.93505605
_cell_length_c   9.93505638
_cell_angle_alpha   17.29278300
_cell_angle_beta   17.29278300
_cell_angle_gamma   17.29277898
_symmetry_Int_Tables_number   1
_chemical_formula_structural   CuNi3O4
_chemical_formula_sum   'Cu1 Ni3 O4'
_cell_volume   75.61057679
_cell_formula_units_Z   1
loop_
 _symmetry_equiv_pos_site_id
 _symmetry_equiv_pos_as_xyz
  1  'x, y, z'
loop_
 _atom_site_type_symbol
 _atom_site_label
 _atom_site_symmetry_multiplicity
 _atom_site_fract_x
 _atom_site_fract_y
 _atom_site_fract_z
 _atom_site_occupancy
  Cu  Cu0  1  0.00000000  0.00000000  0.00000000  1
  Ni  Ni0  1  0.25006200  0.25006200  0.25006200  1
  Ni  Ni1  1  0.50000000  0.50000000  0.50000000  1
  Ni  Ni2  1  0.74993800  0.74993800  0.74993800  1
  O  O0  1  0.12505300  0.12505300  0.12505300  1
  O  O1  1  0.37643000  0.37643000  0.37643000  1
  O  O2  1  0.62357000  0.62357000  0.62357000  1
  O  O3  1  0.87494700  0.87494700  0.87494700  1
loop_
_geom_bond_atom_site_label_1
_geom_bond_atom_site_label_2
_geom_bond_distance
_geom_bond_site_symmetry_2
Cu0 O2 2.138846 1_544
Cu0 O2 2.138846 1_454
Cu0 O1 2.138846 1_545
Cu0 O1 2.138846 1_455
Cu0 O2 2.138847 1_445
Cu0 O1 2.138847 1_554
Ni0 O2 2.089264 1_455
Ni0 O2 2.089264 1_545
Ni0 O2 2.089265 1_554
Ni0 O3 2.116246 1_544
Ni0 O3 2.116246 1_454
Ni0 O3 2.116247 1_445
Ni1 O3 2.113393 1_455
Ni1 O3 2.113393 1_545
Ni1 O0 2.113393 1_655
Ni1 O0 2.113393 1_565
Ni1 O3 2.113393 1_554
Ni1 O0 2.113393 1_556
Ni2 O1 2.089264 1_565
Ni2 O1 2.089264 1_655
Ni2 O1 2.089265 1_556
Ni2 O0 2.116246 1_656
Ni2 O0 2.116246 1_566
Ni2 O0 2.116247 1_665
