# generated using pymatgen
data_V9InS12
_symmetry_space_group_name_H-M   'P 1'
_cell_length_a   9.71928336
_cell_length_b   9.71928336
_cell_length_c   9.71928420
_cell_angle_alpha   109.59359065
_cell_angle_beta   109.59359063
_cell_angle_gamma   109.59359286
_symmetry_Int_Tables_number   1
_chemical_formula_structural   V9InS12
_chemical_formula_sum   'V18 In2 S24'
_cell_volume   703.55414176
_cell_formula_units_Z   2
loop_
 _symmetry_equiv_pos_site_id
 _symmetry_equiv_pos_as_xyz
  1  'x, y, z'
loop_
 _atom_site_type_symbol
 _atom_site_label
 _atom_site_symmetry_multiplicity
 _atom_site_fract_x
 _atom_site_fract_y
 _atom_site_fract_z
 _atom_site_occupancy
  V  V0  1  0.66250699  0.55028437  0.03876812  1
  V  V1  1  0.99445093  0.88286254  0.37278942  1
  V  V2  1  0.32784613  0.21597444  0.70455467  1
  V  V3  1  0.70455467  0.32784613  0.21597444  1
  V  V4  1  0.03876812  0.66250699  0.55028437  1
  V  V5  1  0.37278942  0.99445093  0.88286254  1
  V  V6  1  0.88286254  0.37278942  0.99445093  1
  V  V7  1  0.21597444  0.70455467  0.32784613  1
  V  V8  1  0.55028437  0.03876812  0.66250699  1
  V  V9  1  0.00554907  0.11713746  0.62721058  1
  V  V10  1  0.33749301  0.44971563  0.96123188  1
  V  V11  1  0.67215387  0.78402556  0.29544533  1
  V  V12  1  0.96123188  0.33749301  0.44971563  1
  V  V13  1  0.29544533  0.67215387  0.78402556  1
  V  V14  1  0.62721058  0.00554907  0.11713746  1
  V  V15  1  0.78402556  0.29544533  0.67215387  1
  V  V16  1  0.11713746  0.62721058  0.00554907  1
  V  V17  1  0.44971563  0.96123188  0.33749301  1
  In  In0  1  0.50000000  0.50000000  0.50000000  1
  In  In1  1  0.00000000  -0.00000000  -0.00000000  1
  S  S0  1  0.58339616  0.25014534  0.91646340  1
  S  S1  1  0.91646340  0.58339616  0.25014534  1
  S  S2  1  0.25014534  0.91646340  0.58339616  1
  S  S3  1  0.41660384  0.74985466  0.08353660  1
  S  S4  1  0.74985466  0.08353660  0.41660384  1
  S  S5  1  0.08353660  0.41660384  0.74985466  1
  S  S6  1  0.49629198  0.20309068  0.54903428  1
  S  S7  1  0.83027509  0.53859583  0.88233261  1
  S  S8  1  0.16349519  0.87051635  0.21625272  1
  S  S9  1  0.21625272  0.16349519  0.87051635  1
  S  S10  1  0.54903428  0.49629198  0.20309068  1
  S  S11  1  0.88233261  0.83027509  0.53859583  1
  S  S12  1  0.53859583  0.88233261  0.83027509  1
  S  S13  1  0.87051635  0.21625272  0.16349519  1
  S  S14  1  0.20309068  0.54903428  0.49629198  1
  S  S15  1  0.50370802  0.79690932  0.45096572  1
  S  S16  1  0.83650481  0.12948365  0.78374728  1
  S  S17  1  0.16972491  0.46140417  0.11766739  1
  S  S18  1  0.78374728  0.83650481  0.12948365  1
  S  S19  1  0.11766739  0.16972491  0.46140417  1
  S  S20  1  0.45096572  0.50370802  0.79690932  1
  S  S21  1  0.46140417  0.11766739  0.16972491  1
  S  S22  1  0.79690932  0.45096572  0.50370802  1
  S  S23  1  0.12948365  0.78374728  0.83650481  1
loop_
_geom_bond_atom_site_label_1
_geom_bond_atom_site_label_2
_geom_bond_distance
_geom_bond_site_symmetry_2
In0 S22 3.069220 1_555
In0 S14 3.069220 1_555
In0 S6 3.069220 1_555
In0 S15 3.069220 1_555
In0 S20 3.069221 1_555
In0 S10 3.069221 1_555
In1 S18 3.066237 1_445
In1 S9 3.066237 1_554
In1 S23 3.066237 1_544
In1 S13 3.066237 1_455
In1 S16 3.066237 1_454
In1 S8 3.066237 1_545
S0 V8 2.457526 1_555
S0 V6 2.460571 1_555
S0 V3 2.461933 1_556
S0 V5 2.463372 1_545
S0 V0 2.463908 1_556
S0 V2 2.465430 1_555
S1 V0 2.457525 1_555
S1 V1 2.460571 1_555
S1 V7 2.461933 1_655
S1 V6 2.463372 1_554
S1 V4 2.463908 1_655
S1 V3 2.465430 1_555
S2 V4 2.457525 1_555
S2 V5 2.460571 1_555
S2 V2 2.461933 1_565
S2 V1 2.463372 1_455
S2 V8 2.463908 1_565
S2 V7 2.465430 1_555
S3 V17 2.457526 1_555
S3 V16 2.460571 1_555
S3 V13 2.461933 1_554
S3 V14 2.463372 1_565
S3 V10 2.463908 1_554
S3 V11 2.465430 1_555
S4 V12 2.457525 1_555
S4 V14 2.460571 1_555
S4 V11 2.461933 1_545
S4 V9 2.463372 1_655
S4 V17 2.463908 1_545
S4 V15 2.465430 1_555
S5 V10 2.457525 1_555
S5 V9 2.460571 1_555
S5 V15 2.461933 1_455
S5 V16 2.463372 1_556
S5 V12 2.463908 1_455
S5 V13 2.465430 1_555
S6 V17 2.319155 1_545
S6 V8 2.323302 1_555
S6 V15 2.325933 1_555
S6 V2 2.578968 1_555
S7 V15 2.322453 1_555
S7 V6 2.324300 1_555
S7 V16 2.325452 1_656
S7 V0 2.579658 1_556
S8 V17 2.316084 1_555
S8 V7 2.322186 1_555
S8 V16 2.325398 1_555
S8 V1 2.591302 1_455
S9 V10 2.316084 1_555
S9 V2 2.322186 1_555
S9 V9 2.325398 1_555
S9 V5 2.591302 1_545
S10 V10 2.319155 1_554
S10 V0 2.323302 1_555
S10 V11 2.325933 1_555
S10 V3 2.578968 1_555
S11 V11 2.322453 1_555
S11 V1 2.324300 1_555
S11 V9 2.325452 1_665
S11 V4 2.579658 1_655
S12 V13 2.322453 1_555
S12 V5 2.324300 1_555
S12 V14 2.325453 1_566
S12 V8 2.579658 1_565
S13 V12 2.316084 1_555
S13 V3 2.322186 1_555
S13 V14 2.325398 1_555
S13 V6 2.591302 1_554
S14 V12 2.319155 1_455
S14 V4 2.323302 1_555
S14 V13 2.325933 1_555
S14 V7 2.578968 1_555
S15 V8 2.319155 1_565
S15 V17 2.323302 1_555
S15 V7 2.325933 1_555
S15 V11 2.578968 1_555
S16 V8 2.316084 1_555
S16 V15 2.322186 1_555
S16 V6 2.325398 1_555
S16 V9 2.591302 1_655
S17 V7 2.322453 1_555
S17 V16 2.324300 1_555
S17 V6 2.325452 1_454
S17 V10 2.579658 1_554
S18 V0 2.316084 1_555
S18 V11 2.322186 1_555
S18 V1 2.325398 1_555
S18 V14 2.591302 1_565
S19 V2 2.322453 1_555
S19 V9 2.324300 1_555
S19 V1 2.325452 1_445
S19 V12 2.579658 1_455
S20 V0 2.319155 1_556
S20 V10 2.323302 1_555
S20 V2 2.325933 1_555
S20 V13 2.578968 1_555
S21 V3 2.322453 1_555
S21 V14 2.324300 1_555
S21 V5 2.325453 1_544
S21 V17 2.579658 1_545
S22 V4 2.319155 1_655
S22 V12 2.323302 1_555
S22 V3 2.325933 1_555
S22 V15 2.578968 1_555
S23 V4 2.316084 1_555
S23 V13 2.322186 1_555
S23 V5 2.325398 1_555
S23 V16 2.591302 1_556
