# generated using pymatgen
data_RbMgCu2H3(SO5)2
_symmetry_space_group_name_H-M   'P 1'
_cell_length_a   5.91262771
_cell_length_b   6.80413176
_cell_length_c   7.81693733
_cell_angle_alpha   71.89571667
_cell_angle_beta   84.27361844
_cell_angle_gamma   119.91517302
_symmetry_Int_Tables_number   1
_chemical_formula_structural   RbMgCu2H3(SO5)2
_chemical_formula_sum   'Rb1 Mg1 Cu2 H3 S2 O10'
_cell_volume   246.38586411
_cell_formula_units_Z   1
loop_
 _symmetry_equiv_pos_site_id
 _symmetry_equiv_pos_as_xyz
  1  'x, y, z'
loop_
 _atom_site_type_symbol
 _atom_site_label
 _atom_site_symmetry_multiplicity
 _atom_site_fract_x
 _atom_site_fract_y
 _atom_site_fract_z
 _atom_site_occupancy
  Rb  Rb0  1  0.48419700  0.99327800  0.49668800  1
  Mg  Mg0  1  0.23830800  0.23177900  0.01338900  1
  Cu  Cu0  1  0.96616800  0.51651000  0.03115400  1
  Cu  Cu1  1  0.51132600  0.81178400  0.98195100  1
  H  H0  1  0.75766400  0.54071700  0.74724200  1
  H  H1  1  0.21150600  0.42620100  0.26021800  1
  H  H2  1  0.69653200  0.64971700  0.88119500  1
  S  S0  1  0.07483000  0.23703100  0.70395100  1
  S  S1  1  0.91495100  0.77496300  0.30642800  1
  O  O0  1  0.76474000  0.10764600  0.76639400  1
  O  O1  1  0.19615300  0.44677200  0.76631700  1
  O  O2  1  0.22521600  0.94121500  0.20918900  1
  O  O3  1  0.79299100  0.54212100  0.27818500  1
  O  O4  1  0.69252000  0.49962200  0.88552300  1
  O  O5  1  0.24231700  0.46980100  0.12297800  1
  O  O6  1  0.14810800  0.06383300  0.81319900  1
  O  O7  1  0.81900700  0.93423300  0.20540700  1
  O  O8  1  0.17155700  0.32118500  0.50035100  1
  O  O9  1  0.85770000  0.72298700  0.50924200  1
loop_
_geom_bond_atom_site_label_1
_geom_bond_atom_site_label_2
_geom_bond_distance
_geom_bond_site_symmetry_2
Mg0 O5 2.045802 1_555
Mg0 O2 2.049477 1_545
Mg0 O1 2.153133 1_554
Mg0 O6 2.170051 1_554
Mg0 O7 2.204660 1_445
Mg0 O4 2.232303 1_554
Cu0 O5 1.972771 1_655
Cu0 O4 2.047047 1_554
Cu0 O3 2.190936 1_555
Cu1 O0 1.875165 1_565
Cu1 O5 1.877202 1_556
H0 O4 1.008270 1_555
H1 O5 0.990650 1_555
H2 O4 0.999447 1_555
O0 S0 1.522896 1_655
O0 Rb0 2.869116 1_545
O1 S0 1.506638 1_555
O1 Rb0 3.044032 1_555
O2 S1 1.529776 1_455
O2 Rb0 2.856806 1_555
O3 S1 1.479305 1_555
O3 Rb0 2.968060 1_545
O6 S0 1.504470 1_555
O6 Rb0 3.318024 1_545
O7 S1 1.513443 1_555
O7 Rb0 3.118804 1_555
O8 S0 1.453709 1_555
O9 S1 1.475853 1_555
O9 Rb0 3.183337 1_655
