# generated using pymatgen
data_Sr3(CoO3)2
_symmetry_space_group_name_H-M   'P 1'
_cell_length_a   6.59276213
_cell_length_b   6.59255845
_cell_length_c   6.59281858
_cell_angle_alpha   93.46354088
_cell_angle_beta   93.46492119
_cell_angle_gamma   93.46306114
_symmetry_Int_Tables_number   1
_chemical_formula_structural   Sr3(CoO3)2
_chemical_formula_sum   'Sr6 Co4 O12'
_cell_volume   284.90791120
_cell_formula_units_Z   2
loop_
 _symmetry_equiv_pos_site_id
 _symmetry_equiv_pos_as_xyz
  1  'x, y, z'
loop_
 _atom_site_type_symbol
 _atom_site_label
 _atom_site_symmetry_multiplicity
 _atom_site_fract_x
 _atom_site_fract_y
 _atom_site_fract_z
 _atom_site_occupancy
  Sr  Sr0  1  0.61941400  0.88059000  0.25000600  1
  Sr  Sr1  1  0.88058200  0.24999800  0.61941300  1
  Sr  Sr2  1  0.24999500  0.61941500  0.88058500  1
  Sr  Sr3  1  0.11941400  0.74999600  0.38058200  1
  Sr  Sr4  1  0.75000400  0.38058900  0.11941100  1
  Sr  Sr5  1  0.38059100  0.11941400  0.75000000  1
  Co  Co0  1  0.49999300  0.50000200  0.50001100  1
  Co  Co1  1  0.00000500  0.99998800  0.00000000  1
  Co  Co2  1  0.24999600  0.25000900  0.24999400  1
  Co  Co3  1  0.75000600  0.75000600  0.74998900  1
  O  O0  1  0.52963000  0.21715200  0.40453000  1
  O  O1  1  0.21715200  0.40451700  0.52964300  1
  O  O2  1  0.40451500  0.52962500  0.21712800  1
  O  O3  1  0.02964300  0.90451100  0.71713000  1
  O  O4  1  0.90453200  0.71716200  0.02965100  1
  O  O5  1  0.71713300  0.02962700  0.90453100  1
  O  O6  1  0.47034700  0.78285300  0.59548100  1
  O  O7  1  0.78287600  0.59548400  0.47037100  1
  O  O8  1  0.59546000  0.47036100  0.78284400  1
  O  O9  1  0.97037600  0.09547500  0.28285900  1
  O  O10  1  0.09549100  0.28286700  0.97036600  1
  O  O11  1  0.28284300  0.97035900  0.09547400  1
loop_
_geom_bond_atom_site_label_1
_geom_bond_atom_site_label_2
_geom_bond_distance
_geom_bond_site_symmetry_2
Co0 O8 1.956611 1_555
Co0 O6 1.956682 1_555
Co0 O0 1.956685 1_555
Co0 O1 1.956687 1_555
Co0 O2 1.956919 1_555
Co0 O7 1.956952 1_555
Co1 O4 1.956543 1_455
Co1 O11 1.956626 1_555
Co1 O9 1.956808 1_465
Co1 O5 1.956839 1_464
Co1 O3 1.956869 1_554
Co1 O10 1.956875 1_564
Co2 O2 2.081071 1_555
Co2 O10 2.081117 1_554
Co2 O9 2.081174 1_455
Co2 O0 2.081230 1_555
Co2 O11 2.081239 1_545
Co2 O1 2.081242 1_555
Co3 O7 2.081139 1_555
Co3 O5 2.081170 1_565
Co3 O3 2.081179 1_655
Co3 O6 2.081278 1_555
Co3 O8 2.081301 1_555
Co3 O4 2.081355 1_556
O0 Sr0 2.503949 1_545
O0 Sr1 2.629351 1_555
O0 Sr5 2.634301 1_555
O0 Sr4 2.681586 1_555
O1 Sr1 2.504019 1_455
O1 Sr2 2.629358 1_555
O1 Sr3 2.634309 1_555
O1 Sr5 2.681363 1_555
O2 Sr2 2.503884 1_554
O2 Sr0 2.629444 1_555
O2 Sr4 2.634329 1_555
O2 Sr3 2.681491 1_555
O3 Sr3 2.503890 1_555
O3 Sr5 2.629399 1_565
O3 Sr1 2.634314 1_465
O3 Sr2 2.681348 1_555
O4 Sr4 2.503982 1_555
O4 Sr3 2.629242 1_655
O4 Sr2 2.634328 1_654
O4 Sr0 2.681470 1_555
O5 Sr5 2.503883 1_555
O5 Sr4 2.629364 1_556
O5 Sr0 2.634277 1_546
O5 Sr1 2.681585 1_555
O6 Sr5 2.503873 1_565
O6 Sr3 2.629296 1_555
O6 Sr0 2.634405 1_555
O6 Sr2 2.681432 1_555
O7 Sr3 2.503857 1_655
O7 Sr4 2.629448 1_555
O7 Sr1 2.634242 1_555
O7 Sr0 2.681470 1_555
O8 Sr4 2.504044 1_556
O8 Sr5 2.629249 1_555
O8 Sr2 2.634278 1_555
O8 Sr1 2.681504 1_555
O9 Sr1 2.503992 1_555
O9 Sr0 2.629420 1_545
O9 Sr3 2.634215 1_645
O9 Sr4 2.681493 1_555
O10 Sr2 2.503823 1_555
O10 Sr1 2.629449 1_455
O10 Sr4 2.634369 1_456
O10 Sr5 2.681488 1_555
O11 Sr0 2.504016 1_555
O11 Sr2 2.629293 1_554
O11 Sr5 2.634372 1_564
O11 Sr3 2.681451 1_555
