# generated using pymatgen
data_FeO2
_symmetry_space_group_name_H-M   'P 1'
_cell_length_a   2.94173800
_cell_length_b   10.16485300
_cell_length_c   10.35579865
_cell_angle_alpha   89.71329856
_cell_angle_beta   90.00000000
_cell_angle_gamma   90.00000000
_symmetry_Int_Tables_number   1
_chemical_formula_structural   FeO2
_chemical_formula_sum   'Fe8 O16'
_cell_volume   309.65867670
_cell_formula_units_Z   8
loop_
 _symmetry_equiv_pos_site_id
 _symmetry_equiv_pos_as_xyz
  1  'x, y, z'
loop_
 _atom_site_type_symbol
 _atom_site_label
 _atom_site_symmetry_multiplicity
 _atom_site_fract_x
 _atom_site_fract_y
 _atom_site_fract_z
 _atom_site_occupancy
  Fe  Fe0  1  0.00000000  0.83615100  0.65856400  1
  Fe  Fe1  1  0.00000000  0.64477100  0.17531000  1
  Fe  Fe2  1  0.50000000  0.32780400  0.13744500  1
  Fe  Fe3  1  0.50000000  0.15709900  0.65612300  1
  Fe  Fe4  1  0.00000000  0.16384900  0.34143600  1
  Fe  Fe5  1  0.00000000  0.35522900  0.82469000  1
  Fe  Fe6  1  0.50000000  0.67219600  0.86255500  1
  Fe  Fe7  1  0.50000000  0.84290100  0.34387700  1
  O  O0  1  0.00000000  0.79435100  0.85782100  1
  O  O1  1  0.00000000  0.54917800  0.84849600  1
  O  O2  1  0.00000000  0.84058500  0.22376200  1
  O  O3  1  0.00000000  0.83376600  0.46415800  1
  O  O4  1  0.50000000  0.28573600  0.33400300  1
  O  O5  1  0.50000000  0.04143200  0.33559700  1
  O  O6  1  0.50000000  0.35713300  0.70442000  1
  O  O7  1  0.50000000  0.33449700  0.94517300  1
  O  O8  1  0.00000000  0.20564900  0.14217900  1
  O  O9  1  0.00000000  0.45082200  0.15150400  1
  O  O10  1  0.00000000  0.15941500  0.77623800  1
  O  O11  1  0.00000000  0.16623400  0.53584200  1
  O  O12  1  0.50000000  0.71426400  0.66599700  1
  O  O13  1  0.50000000  0.95856800  0.66440300  1
  O  O14  1  0.50000000  0.64286700  0.29558000  1
  O  O15  1  0.50000000  0.66550300  0.05482700  1
loop_
_geom_bond_atom_site_label_1
_geom_bond_atom_site_label_2
_geom_bond_distance
_geom_bond_site_symmetry_2
Fe0 O12 1.924437 1_455
Fe0 O12 1.924437 1_555
Fe0 O13 1.927764 1_555
Fe0 O13 1.927764 1_455
Fe0 O3 2.013497 1_555
Fe0 O0 2.104673 1_555
Fe1 O14 1.927392 1_455
Fe1 O14 1.927392 1_555
Fe1 O15 1.939583 1_555
Fe1 O15 1.939583 1_455
Fe1 O9 1.988041 1_555
Fe1 O2 2.055123 1_555
Fe2 O8 1.925367 1_555
Fe2 O8 1.925367 1_655
Fe2 O9 1.936524 1_555
Fe2 O9 1.936524 1_655
Fe2 O7 1.991952 1_554
Fe2 O4 2.077851 1_555
Fe3 O10 1.926540 1_655
Fe3 O10 1.926540 1_555
Fe3 O11 1.929366 1_655
Fe3 O11 1.929366 1_555
Fe3 O13 2.019431 1_545
Fe3 O6 2.096356 1_555
Fe4 O4 1.924437 1_455
Fe4 O4 1.924437 1_555
Fe4 O5 1.927764 1_455
Fe4 O5 1.927764 1_555
Fe4 O11 2.013497 1_555
Fe4 O8 2.104673 1_555
Fe5 O6 1.927392 1_455
Fe5 O6 1.927392 1_555
Fe5 O7 1.939583 1_455
Fe5 O7 1.939583 1_555
Fe5 O1 1.988041 1_555
Fe5 O10 2.055123 1_555
Fe6 O0 1.925367 1_555
Fe6 O0 1.925367 1_655
Fe6 O1 1.936524 1_555
Fe6 O1 1.936524 1_655
Fe6 O15 1.991952 1_556
Fe6 O12 2.077851 1_555
Fe7 O2 1.926540 1_655
Fe7 O2 1.926540 1_555
Fe7 O3 1.929366 1_555
Fe7 O3 1.929366 1_655
Fe7 O5 2.019431 1_565
Fe7 O14 2.096356 1_555
