# generated using pymatgen
data_Mg14SnBi
_symmetry_space_group_name_H-M   'P 1'
_cell_length_a   6.43715092
_cell_length_b   6.43715039
_cell_length_c   10.40851813
_cell_angle_alpha   90.00000000
_cell_angle_beta   90.00000000
_cell_angle_gamma   120.00000274
_symmetry_Int_Tables_number   1
_chemical_formula_structural   Mg14SnBi
_chemical_formula_sum   'Mg14 Sn1 Bi1'
_cell_volume   373.51398702
_cell_formula_units_Z   1
loop_
 _symmetry_equiv_pos_site_id
 _symmetry_equiv_pos_as_xyz
  1  'x, y, z'
loop_
 _atom_site_type_symbol
 _atom_site_label
 _atom_site_symmetry_multiplicity
 _atom_site_fract_x
 _atom_site_fract_y
 _atom_site_fract_z
 _atom_site_occupancy
  Mg  Mg0  1  0.16582903  0.83291401  0.12500000  1
  Mg  Mg1  1  0.16543790  0.83271845  0.62500000  1
  Mg  Mg2  1  0.66708599  0.33417097  0.12500000  1
  Mg  Mg3  1  0.66728155  0.33456210  0.62500000  1
  Mg  Mg4  1  0.66708599  0.83291401  0.12500000  1
  Mg  Mg5  1  0.66728155  0.83271845  0.62500000  1
  Mg  Mg6  1  0.33730406  0.16269594  0.37331032  1
  Mg  Mg7  1  0.33730406  0.16269594  0.87668968  1
  Mg  Mg8  1  0.33730406  0.67460911  0.37331032  1
  Mg  Mg9  1  0.33730406  0.67460911  0.87668968  1
  Mg  Mg10  1  0.82539089  0.16269594  0.37331032  1
  Mg  Mg11  1  0.82539089  0.16269594  0.87668968  1
  Mg  Mg12  1  0.83333300  0.66666700  0.37627298  1
  Mg  Mg13  1  0.83333300  0.66666700  0.87372702  1
  Sn  Sn0  1  0.16666700  0.33333300  0.12500000  1
  Bi  Bi0  1  0.16666700  0.33333300  0.62500000  1
loop_
_geom_bond_atom_site_label_1
_geom_bond_atom_site_label_2
_geom_bond_distance
_geom_bond_site_symmetry_2
Mg0 Mg9 3.171987 1_554
Mg0 Mg8 3.171987 1_555
Mg0 Mg7 3.171994 1_564
Mg0 Mg6 3.171994 1_565
Mg0 Mg13 3.205614 1_454
Mg0 Mg12 3.205614 1_455
Mg0 Mg2 3.210484 1_455
Mg0 Mg4 3.210484 1_455
Mg0 Sn0 3.218579 1_555
Mg0 Sn0 3.218579 1_565
Mg0 Mg2 3.226666 1_565
Mg0 Mg4 3.226667 1_555
Mg1 Mg12 3.182761 1_455
Mg1 Mg13 3.182761 1_455
Mg1 Mg8 3.201364 1_555
Mg1 Mg9 3.201364 1_555
Mg1 Mg6 3.201370 1_565
Mg1 Mg7 3.201370 1_565
Mg1 Mg3 3.206707 1_455
Mg1 Mg5 3.206708 1_455
Mg1 Mg3 3.230443 1_565
Mg1 Mg5 3.230443 1_555
Mg2 Mg7 3.171994 1_554
Mg2 Mg6 3.171994 1_555
Mg2 Mg4 3.210484 1_555
Mg2 Sn0 3.218579 1_655
Mg2 Sn0 3.218579 1_555
Mg2 Mg4 3.226666 1_545
Mg3 Mg6 3.201370 1_555
Mg3 Mg7 3.201370 1_555
Mg3 Mg5 3.206707 1_555
Mg3 Mg5 3.230443 1_545
Mg4 Mg9 3.171994 1_554
Mg4 Mg8 3.171994 1_555
Mg4 Sn0 3.218579 1_665
Mg4 Sn0 3.218579 1_555
Mg5 Mg8 3.201371 1_555
Mg5 Mg9 3.201371 1_555
Mg6 Mg8 3.141888 1_545
Mg6 Sn0 3.209270 1_555
Mg6 Mg8 3.295262 1_555
Mg7 Mg9 3.141888 1_545
Mg7 Sn0 3.209270 1_556
Mg7 Mg9 3.295262 1_555
Mg8 Sn0 3.209277 1_555
Mg9 Sn0 3.209277 1_556
Mg10 Mg8 3.141888 1_545
Mg10 Mg6 3.141889 1_555
Mg10 Mg2 3.171987 1_555
Mg10 Mg4 3.171994 1_545
Mg10 Mg3 3.201364 1_555
Mg10 Mg5 3.201371 1_545
Mg10 Sn0 3.209277 1_655
Mg10 Mg12 3.219027 1_545
Mg10 Mg12 3.219027 1_555
Mg10 Mg8 3.295262 1_655
Mg10 Mg6 3.295262 1_655
Mg11 Mg9 3.141888 1_545
Mg11 Mg7 3.141889 1_555
Mg11 Mg2 3.171987 1_556
Mg11 Mg4 3.171994 1_546
Mg11 Mg3 3.201364 1_555
Mg11 Mg5 3.201371 1_545
Mg11 Sn0 3.209277 1_656
Mg11 Mg13 3.219027 1_545
Mg11 Mg13 3.219027 1_555
Mg11 Mg9 3.295262 1_655
Mg11 Mg7 3.295262 1_655
Mg12 Mg5 3.182755 1_555
Mg12 Mg3 3.182761 1_555
Mg12 Mg4 3.205607 1_555
Mg12 Mg2 3.205614 1_555
Mg12 Mg6 3.219027 1_555
Mg12 Mg6 3.219027 1_665
Mg12 Mg8 3.219028 1_555
Mg12 Mg8 3.219028 1_655
Mg13 Mg5 3.182755 1_555
Mg13 Mg3 3.182761 1_555
Mg13 Mg4 3.205607 1_556
Mg13 Mg2 3.205614 1_556
Mg13 Mg7 3.219027 1_555
Mg13 Mg7 3.219027 1_665
Mg13 Mg9 3.219028 1_555
Mg13 Mg9 3.219028 1_655
Bi0 Mg5 3.218582 1_445
Bi0 Mg1 3.218582 1_545
Bi0 Mg1 3.218582 1_555
Bi0 Mg5 3.218582 1_555
Bi0 Mg3 3.218583 1_455
Bi0 Mg3 3.218583 1_555
Bi0 Mg7 3.237664 1_555
Bi0 Mg6 3.237664 1_555
Bi0 Mg9 3.237671 1_555
Bi0 Mg8 3.237671 1_555
Bi0 Mg10 3.237671 1_455
Bi0 Mg11 3.237671 1_455
