# generated using pymatgen
data_Na2EuMnO6
_symmetry_space_group_name_H-M   'P 1'
_cell_length_a   5.83238497
_cell_length_b   5.83238497
_cell_length_c   5.83238497
_cell_angle_alpha   60.00000000
_cell_angle_beta   60.00000000
_cell_angle_gamma   60.00000000
_symmetry_Int_Tables_number   1
_chemical_formula_structural   Na2EuMnO6
_chemical_formula_sum   'Na2 Eu1 Mn1 O6'
_cell_volume   140.28897678
_cell_formula_units_Z   1
loop_
 _symmetry_equiv_pos_site_id
 _symmetry_equiv_pos_as_xyz
  1  'x, y, z'
loop_
 _atom_site_type_symbol
 _atom_site_label
 _atom_site_symmetry_multiplicity
 _atom_site_fract_x
 _atom_site_fract_y
 _atom_site_fract_z
 _atom_site_occupancy
  Na  Na0  1  0.25000000  0.25000000  0.25000000  1
  Na  Na1  1  0.75000000  0.75000000  0.75000000  1
  Eu  Eu0  1  -0.00000000  0.00000000  0.00000000  1
  Mn  Mn0  1  0.50000000  0.50000000  0.50000000  1
  O  O0  1  0.72860489  0.27139511  0.27139511  1
  O  O1  1  0.27139511  0.72860489  0.72860489  1
  O  O2  1  0.72860489  0.27139511  0.72860489  1
  O  O3  1  0.27139511  0.72860489  0.27139511  1
  O  O4  1  0.72860489  0.72860489  0.27139511  1
  O  O5  1  0.27139511  0.27139511  0.72860489  1
loop_
_geom_bond_atom_site_label_1
_geom_bond_atom_site_label_2
_geom_bond_distance
_geom_bond_site_symmetry_2
Na0 O3 2.921527 1_555
Na0 O5 2.921527 1_555
Na0 O1 2.921527 1_554
Na0 O0 2.921527 1_555
Na0 O1 2.921527 1_545
Na0 O2 2.921527 1_455
Na0 O4 2.921527 1_455
Na0 O2 2.921527 1_554
Na0 O3 2.921527 1_545
Na0 O0 2.921527 1_455
Na0 O4 2.921527 1_545
Na0 O5 2.921527 1_554
Na1 O2 2.921527 1_565
Na1 O1 2.921527 1_655
Na1 O3 2.921527 1_556
Na1 O0 2.921527 1_556
Na1 O1 2.921527 1_555
Na1 O3 2.921527 1_655
Na1 O4 2.921527 1_556
Na1 O0 2.921527 1_565
Na1 O5 2.921527 1_655
Na1 O5 2.921527 1_565
Na1 O2 2.921527 1_555
Na1 O4 2.921527 1_555
Eu0 O3 2.238531 1_545
Eu0 O5 2.238531 1_554
Eu0 O0 2.238531 1_455
Eu0 O2 2.238531 1_454
Eu0 O4 2.238531 1_445
Eu0 O1 2.238531 1_544
Mn0 O2 1.885588 1_555
Mn0 O1 1.885588 1_555
Mn0 O4 1.885588 1_555
Mn0 O5 1.885588 1_555
Mn0 O3 1.885588 1_555
Mn0 O0 1.885588 1_555
