# generated using pymatgen
data_Mg(WO2)2
_symmetry_space_group_name_H-M   'P 1'
_cell_length_a   2.86238500
_cell_length_b   9.82663300
_cell_length_c   10.62676700
_cell_angle_alpha   90.00000000
_cell_angle_beta   90.00000000
_cell_angle_gamma   90.00000000
_symmetry_Int_Tables_number   1
_chemical_formula_structural   Mg(WO2)2
_chemical_formula_sum   'Mg4 W8 O16'
_cell_volume   298.90552479
_cell_formula_units_Z   4
loop_
 _symmetry_equiv_pos_site_id
 _symmetry_equiv_pos_as_xyz
  1  'x, y, z'
loop_
 _atom_site_type_symbol
 _atom_site_label
 _atom_site_symmetry_multiplicity
 _atom_site_fract_x
 _atom_site_fract_y
 _atom_site_fract_z
 _atom_site_occupancy
  Mg  Mg0  1  0.74173400  0.33183200  0.75000000  1
  Mg  Mg1  1  0.74173400  0.16816800  0.25000000  1
  Mg  Mg2  1  0.25826600  0.83183200  0.75000000  1
  Mg  Mg3  1  0.25826600  0.66816800  0.25000000  1
  W  W0  1  0.24546600  0.09045800  0.93667000  1
  W  W1  1  0.24546600  0.40954200  0.43667000  1
  W  W2  1  0.75453400  0.90954200  0.43667000  1
  W  W3  1  0.24546600  0.40954200  0.06333000  1
  W  W4  1  0.75453400  0.90954200  0.06333000  1
  W  W5  1  0.24546600  0.09045800  0.56333000  1
  W  W6  1  0.75453400  0.59045800  0.56333000  1
  W  W7  1  0.75453400  0.59045800  0.93667000  1
  O  O0  1  0.74603400  0.94303200  0.63435100  1
  O  O1  1  0.25396600  0.05696800  0.36564900  1
  O  O2  1  0.74790700  0.25000000  0.50000000  1
  O  O3  1  0.25396600  0.44303200  0.63435100  1
  O  O4  1  0.25396600  0.44303200  0.86564900  1
  O  O5  1  0.24064100  0.32013500  0.25000000  1
  O  O6  1  0.74603400  0.55696800  0.36564900  1
  O  O7  1  0.75935900  0.82013500  0.25000000  1
  O  O8  1  0.74790700  0.25000000  0.00000000  1
  O  O9  1  0.25209300  0.75000000  0.50000000  1
  O  O10  1  0.74603400  0.94303200  0.86564900  1
  O  O11  1  0.75935900  0.67986500  0.75000000  1
  O  O12  1  0.24064100  0.17986500  0.75000000  1
  O  O13  1  0.25209300  0.75000000  0.00000000  1
  O  O14  1  0.74603400  0.55696800  0.13435100  1
  O  O15  1  0.25396600  0.05696800  0.13435100  1
loop_
_geom_bond_atom_site_label_1
_geom_bond_atom_site_label_2
_geom_bond_distance
_geom_bond_site_symmetry_2
Mg0 O12 2.066249 1_655
Mg0 O12 2.070578 1_555
Mg0 O4 2.157252 1_555
Mg0 O3 2.157252 1_555
Mg0 O3 2.203220 1_655
Mg0 O4 2.203220 1_655
Mg1 O5 2.066249 1_655
Mg1 O5 2.070578 1_555
Mg1 O1 2.157252 1_555
Mg1 O15 2.157252 1_555
Mg1 O15 2.203220 1_655
Mg1 O1 2.203220 1_655
Mg2 O11 2.066249 1_455
Mg2 O11 2.070578 1_555
Mg2 O10 2.157252 1_555
Mg2 O0 2.157252 1_555
Mg2 O10 2.203220 1_455
Mg2 O0 2.203220 1_455
Mg3 O7 2.066249 1_455
Mg3 O7 2.070578 1_555
Mg3 O14 2.157252 1_555
Mg3 O6 2.157252 1_555
Mg3 O14 2.203220 1_455
Mg3 O6 2.203220 1_455
O0 W2 2.126471 1_555
O0 W5 2.170715 1_665
O0 W5 2.172858 1_565
O1 W5 2.126471 1_555
O1 W2 2.170715 1_445
O1 W2 2.172858 1_545
O2 W1 2.222421 1_655
O2 W5 2.222421 1_655
O2 W1 2.231402 1_555
O2 W5 2.231402 1_555
O3 W1 2.126471 1_555
O3 W6 2.170715 1_455
O3 W6 2.172858 1_555
O4 W3 2.126471 1_556
O4 W7 2.170715 1_455
O4 W7 2.172858 1_555
O5 W3 2.169593 1_555
O5 W1 2.169593 1_555
O6 W6 2.126471 1_555
O6 W1 2.170715 1_655
O6 W1 2.172858 1_555
O7 W4 2.169593 1_555
O7 W2 2.169593 1_555
O8 W3 2.222421 1_655
O8 W0 2.222421 1_654
O8 W3 2.231402 1_555
O8 W0 2.231402 1_554
O9 W2 2.222421 1_455
O9 W6 2.222421 1_455
O9 W2 2.231402 1_555
O9 W6 2.231402 1_555
O10 W4 2.126471 1_556
O10 W0 2.170715 1_665
O10 W0 2.172858 1_565
O11 W6 2.169593 1_555
O11 W7 2.169593 1_555
O12 W5 2.169593 1_555
O12 W0 2.169593 1_555
O13 W4 2.222421 1_455
O13 W7 2.222421 1_454
O13 W4 2.231402 1_555
O13 W7 2.231402 1_554
O14 W7 2.126471 1_554
O14 W3 2.170715 1_655
O14 W3 2.172858 1_555
O15 W0 2.126471 1_554
O15 W4 2.170715 1_445
O15 W4 2.172858 1_545
