# generated using pymatgen
data_Ta3MnS6
_symmetry_space_group_name_H-M   'P 1'
_cell_length_a   5.73975060
_cell_length_b   5.73975060
_cell_length_c   11.94226300
_cell_angle_alpha   90.00000000
_cell_angle_beta   90.00000000
_cell_angle_gamma   120.00000687
_symmetry_Int_Tables_number   1
_chemical_formula_structural   Ta3MnS6
_chemical_formula_sum   'Ta6 Mn2 S12'
_cell_volume   340.72443226
_cell_formula_units_Z   2
loop_
 _symmetry_equiv_pos_site_id
 _symmetry_equiv_pos_as_xyz
  1  'x, y, z'
loop_
 _atom_site_type_symbol
 _atom_site_label
 _atom_site_symmetry_multiplicity
 _atom_site_fract_x
 _atom_site_fract_y
 _atom_site_fract_z
 _atom_site_occupancy
  Ta  Ta0  1  0.00000000  0.00000000  0.00000000  1
  Ta  Ta1  1  0.00000000  0.00000000  0.50000000  1
  Ta  Ta2  1  0.33333300  0.66666700  0.50398500  1
  Ta  Ta3  1  0.66666700  0.33333300  0.00398500  1
  Ta  Ta4  1  0.66666700  0.33333300  0.49601500  1
  Ta  Ta5  1  0.33333300  0.66666700  0.99601500  1
  Mn  Mn0  1  0.33333300  0.66666700  0.25000000  1
  Mn  Mn1  1  0.66666700  0.33333300  0.75000000  1
  S  S0  1  0.33168600  0.99605000  0.13333900  1
  S  S1  1  0.00395000  0.33563500  0.13333900  1
  S  S2  1  0.66831400  0.00395000  0.63333900  1
  S  S3  1  0.99605000  0.33168600  0.86666100  1
  S  S4  1  0.66436500  0.66831400  0.13333900  1
  S  S5  1  0.99605000  0.66436500  0.63333900  1
  S  S6  1  0.33563500  0.00395000  0.86666100  1
  S  S7  1  0.00395000  0.66831400  0.36666100  1
  S  S8  1  0.33563500  0.33168600  0.63333900  1
  S  S9  1  0.66436500  0.99605000  0.36666100  1
  S  S10  1  0.66831400  0.66436500  0.86666100  1
  S  S11  1  0.33168600  0.33563500  0.36666100  1
loop_
_geom_bond_atom_site_label_1
_geom_bond_atom_site_label_2
_geom_bond_distance
_geom_bond_site_symmetry_2
Mn0 S0 2.352283 1_555
Mn0 S7 2.352283 1_555
Mn0 S1 2.352288 1_555
Mn0 S9 2.352288 1_555
Mn0 S4 2.352292 1_555
Mn0 S11 2.352292 1_555
Mn1 S2 2.352283 1_555
Mn1 S3 2.352283 1_555
Mn1 S5 2.352288 1_555
Mn1 S6 2.352288 1_555
Mn1 S8 2.352292 1_555
Mn1 S10 2.352292 1_555
S0 Ta3 2.471584 1_565
S0 Ta0 2.490733 1_565
S0 Ta5 2.506333 1_554
S1 Ta3 2.471584 1_455
S1 Ta0 2.490729 1_555
S1 Ta5 2.506338 1_554
S2 Ta2 2.471584 1_545
S2 Ta1 2.490733 1_655
S2 Ta4 2.506333 1_555
S3 Ta5 2.471584 1_655
S3 Ta0 2.490733 1_656
S3 Ta3 2.506333 1_556
S4 Ta3 2.471584 1_555
S4 Ta0 2.490731 1_665
S4 Ta5 2.506342 1_554
S5 Ta2 2.471584 1_655
S5 Ta1 2.490729 1_665
S5 Ta4 2.506338 1_555
S6 Ta5 2.471584 1_545
S6 Ta0 2.490729 1_556
S6 Ta3 2.506338 1_556
S7 Ta4 2.471584 1_455
S7 Ta1 2.490733 1_565
S7 Ta2 2.506333 1_555
S8 Ta2 2.471584 1_555
S8 Ta1 2.490731 1_555
S8 Ta4 2.506342 1_555
S9 Ta4 2.471584 1_565
S9 Ta1 2.490729 1_665
S9 Ta2 2.506338 1_555
S10 Ta5 2.471584 1_555
S10 Ta0 2.490731 1_666
S10 Ta3 2.506342 1_556
S11 Ta4 2.471584 1_555
S11 Ta1 2.490731 1_555
S11 Ta2 2.506342 1_555
