# generated using pymatgen
data_Na7YbC4(O3F)4
_symmetry_space_group_name_H-M   'P 1'
_cell_length_a   15.73061103
_cell_length_b   15.73061103
_cell_length_c   7.10178527
_cell_angle_alpha   85.01098366
_cell_angle_beta   85.01098366
_cell_angle_gamma   152.98271814
_symmetry_Int_Tables_number   1
_chemical_formula_structural   Na7YbC4(O3F)4
_chemical_formula_sum   'Na14 Yb2 C8 O24 F8'
_cell_volume   740.90804434
_cell_formula_units_Z   2
loop_
 _symmetry_equiv_pos_site_id
 _symmetry_equiv_pos_as_xyz
  1  'x, y, z'
loop_
 _atom_site_type_symbol
 _atom_site_label
 _atom_site_symmetry_multiplicity
 _atom_site_fract_x
 _atom_site_fract_y
 _atom_site_fract_z
 _atom_site_occupancy
  Na  Na0  1  0.23896300  0.48028900  0.27752300  1
  Na  Na1  1  0.48028900  0.23896300  0.77752300  1
  Na  Na2  1  0.21219400  0.27376100  0.02536500  1
  Na  Na3  1  0.27376100  0.21219400  0.52536500  1
  Na  Na4  1  0.23466100  0.97937500  0.29118600  1
  Na  Na5  1  0.97937500  0.23466100  0.79118600  1
  Na  Na6  1  0.70068400  0.26773200  0.03654000  1
  Na  Na7  1  0.26773200  0.70068400  0.53654000  1
  Na  Na8  1  0.48707200  0.74535000  0.78302700  1
  Na  Na9  1  0.74535000  0.48707200  0.28302700  1
  Na  Na10  1  0.75408600  0.99391700  0.27013000  1
  Na  Na11  1  0.99391700  0.75408600  0.77013000  1
  Na  Na12  1  0.70373700  0.76795400  0.02719700  1
  Na  Na13  1  0.76795400  0.70373600  0.52719700  1
  Yb  Yb0  1  0.75980800  0.20663200  0.52705600  1
  Yb  Yb1  1  0.20663200  0.75980800  0.02705600  1
  C  C0  1  0.44775700  0.05681200  0.54518300  1
  C  C1  1  0.05681200  0.44775700  0.04518300  1
  C  C2  1  0.94036300  0.05242700  0.53813100  1
  C  C3  1  0.05242700  0.94036300  0.03813100  1
  C  C4  1  0.53904300  0.92675500  0.04204600  1
  C  C5  1  0.92675500  0.53904300  0.54204600  1
  C  C6  1  0.55742700  0.44175400  0.03935400  1
  C  C7  1  0.44175400  0.55742700  0.53935400  1
  O  O0  1  0.56083200  0.86508900  0.06621500  1
  O  O1  1  0.86508900  0.56083200  0.56621500  1
  O  O2  1  0.60472300  0.70419300  0.38410400  1
  O  O3  1  0.70419300  0.60472300  0.88410400  1
  O  O4  1  0.07610500  0.65728600  0.38115400  1
  O  O5  1  0.65728600  0.07610500  0.88115400  1
  O  O6  1  0.43758600  0.38536700  0.15373800  1
  O  O7  1  0.38536700  0.43758600  0.65373800  1
  O  O8  1  0.02925400  0.34156000  0.07586100  1
  O  O9  1  0.34156000  0.02925400  0.57586100  1
  O  O10  1  0.10772100  0.19829900  0.39001300  1
  O  O11  1  0.19829900  0.10772100  0.89001300  1
  O  O12  1  0.40067000  0.84153600  0.17474300  1
  O  O13  1  0.84153600  0.40067000  0.67474300  1
  O  O14  1  0.61485600  0.20625200  0.39225200  1
  O  O15  1  0.20625200  0.61485600  0.89225200  1
  O  O16  1  0.53485700  0.34011900  0.07709800  1
  O  O17  1  0.34011900  0.53485700  0.57709800  1
  O  O18  1  0.86751400  0.91976100  0.65538600  1
  O  O19  1  0.91976100  0.86751400  0.15538600  1
  O  O20  1  0.84909400  0.04180900  0.56798900  1
  O  O21  1  0.04180900  0.84909400  0.06798900  1
  O  O22  1  0.39116800  0.93767600  0.66883600  1
  O  O23  1  0.93767600  0.39116800  0.16883600  1
  F  F0  1  0.92705600  0.07210100  0.00881200  1
  F  F1  1  0.07210100  0.92705600  0.50881200  1
  F  F2  1  0.41797500  0.56870400  0.01154500  1
  F  F3  1  0.56870400  0.41797500  0.51154500  1
  F  F4  1  0.58746600  0.94259400  0.50641800  1
  F  F5  1  0.94259400  0.58746600  0.00641800  1
  F  F6  1  0.39523000  0.03859500  0.02459900  1
  F  F7  1  0.03859500  0.39523000  0.52459900  1
loop_
_geom_bond_atom_site_label_1
_geom_bond_atom_site_label_2
_geom_bond_distance
_geom_bond_site_symmetry_2
Na0 O8 2.496875 1_555
Na0 O17 2.503596 1_555
Na0 O0 2.649494 1_555
Na0 O10 2.712406 1_555
Na1 O9 2.496875 1_555
Na1 O16 2.503596 1_556
Na1 O1 2.649494 1_555
Na1 O11 2.712406 1_555
Na2 O10 2.462815 1_555
Na2 O7 2.466958 1_554
Na2 O6 2.496834 1_555
Na2 O11 2.692557 1_554
Na2 O19 2.951133 1_445
Na3 O11 2.462815 1_555
Na3 O6 2.466958 1_555
Na3 O7 2.496834 1_555
Na3 O10 2.692557 1_555
Na3 O18 2.951133 1_445
Na4 O9 2.459063 1_565
Na4 O21 2.497939 1_555
Na4 O16 2.513613 1_565
Na5 O8 2.459063 1_656
Na5 O20 2.497939 1_555
Na5 O17 2.513613 1_655
Na6 O13 2.388286 1_554
Na6 O14 2.407317 1_555
Na6 O23 2.565166 1_555
Na6 O5 2.795260 1_554
Na7 O12 2.388286 1_555
Na7 O15 2.407317 1_555
Na7 O22 2.565166 1_555
Na7 O4 2.795260 1_555
Na8 O0 2.471751 1_556
Na8 O17 2.497748 1_555
Na8 O20 2.537921 1_565
Na8 O15 2.701823 1_555
Na9 O1 2.471751 1_555
Na9 O16 2.497748 1_555
Na9 O21 2.537921 1_655
Na9 O14 2.701823 1_555
Na10 O0 2.396886 1_555
Na10 O8 2.453321 1_665
Na10 O20 2.469158 1_565
Na10 O2 2.625845 1_555
Na11 O1 2.396886 1_555
Na11 O9 2.453321 1_665
Na11 O21 2.469158 1_656
Na11 O3 2.625845 1_555
Na12 O2 2.438084 1_555
Na12 O18 2.463873 1_554
Na12 O19 2.476455 1_555
Na12 O6 2.840216 1_555
Na12 O3 2.848042 1_554
Na13 O3 2.438081 1_555
Na13 O19 2.463875 1_555
Na13 O18 2.476468 1_555
Na13 O7 2.840223 1_555
Na13 O2 2.848054 1_555
C0 O9 1.286882 1_555
C0 O14 1.290275 1_555
C0 O22 1.296586 1_545
C1 O8 1.286882 1_555
C1 O15 1.290275 1_554
C1 O23 1.296586 1_455
C2 O18 1.277720 1_545
C2 O10 1.279753 1_655
C2 O20 1.283653 1_555
C3 O19 1.277720 1_455
C3 O11 1.279753 1_564
C3 O21 1.283653 1_555
C4 O12 1.283588 1_555
C4 O0 1.289032 1_555
C4 O5 1.289282 1_564
C5 O13 1.283588 1_555
C5 O1 1.289032 1_555
C5 O4 1.289282 1_655
C6 O6 1.276524 1_555
C6 O3 1.279862 1_554
C6 O16 1.285124 1_555
C7 O7 1.276524 1_555
C7 O2 1.279862 1_555
C7 O17 1.285124 1_555
O4 Yb1 2.374282 1_555
O5 Yb0 2.374282 1_555
O12 Yb1 2.422635 1_555
O13 Yb0 2.422635 1_555
O14 Yb0 2.544047 1_555
O15 Yb1 2.544047 1_556
O22 Yb1 2.394410 1_556
O22 Yb0 2.659161 1_565
O23 Yb0 2.394410 1_555
O23 Yb1 2.659161 1_655
F0 Na5 2.224114 1_554
F0 Na2 2.236147 1_655
F0 Na12 2.261341 1_545
F0 Na10 2.263278 1_545
F1 Na4 2.224114 1_555
F1 Na3 2.236147 1_565
F1 Na13 2.261336 1_455
F1 Na11 2.263278 1_455
F2 Na8 2.250343 1_554
F2 Na0 2.252062 1_555
F2 Na12 2.255449 1_555
F2 Na2 2.262829 1_555
F3 Na9 2.250343 1_555
F3 Na1 2.252062 1_555
F3 Na13 2.255437 1_555
F3 Na3 2.262829 1_555
F4 Yb0 2.175952 1_565
F4 Na7 2.322323 1_555
F4 Na10 2.359368 1_555
F4 Na8 2.376932 1_555
F5 Yb1 2.175952 1_655
F5 Na6 2.322323 1_555
F5 Na11 2.359368 1_554
F5 Na9 2.376932 1_555
F6 Yb1 2.197842 1_545
F6 Na6 2.313569 1_555
F6 Na4 2.345459 1_545
F6 Na1 2.432954 1_554
F7 Yb0 2.197842 1_455
F7 Na7 2.313569 1_555
F7 Na5 2.345459 1_455
F7 Na0 2.432954 1_555
