# generated using pymatgen
data_NaNbSe2O7
_symmetry_space_group_name_H-M   'P 1'
_cell_length_a   6.88792600
_cell_length_b   6.88792600
_cell_length_c   7.51635100
_cell_angle_alpha   90.00000000
_cell_angle_beta   90.00000000
_cell_angle_gamma   110.33691454
_symmetry_Int_Tables_number   1
_chemical_formula_structural   NaNbSe2O7
_chemical_formula_sum   'Na2 Nb2 Se4 O14'
_cell_volume   334.37346335
_cell_formula_units_Z   2
loop_
 _symmetry_equiv_pos_site_id
 _symmetry_equiv_pos_as_xyz
  1  'x, y, z'
loop_
 _atom_site_type_symbol
 _atom_site_label
 _atom_site_symmetry_multiplicity
 _atom_site_fract_x
 _atom_site_fract_y
 _atom_site_fract_z
 _atom_site_occupancy
  Na  Na0  1  0.97996600  0.97996600  0.36459100  1
  Na  Na1  1  0.02003400  0.02003400  0.86459100  1
  Nb  Nb0  1  0.51187500  0.51187500  0.90039000  1
  Nb  Nb1  1  0.48812500  0.48812500  0.40039000  1
  Se  Se0  1  0.56468000  0.96581300  0.62624300  1
  Se  Se1  1  0.96581300  0.56468000  0.62624300  1
  Se  Se2  1  0.43532000  0.03418700  0.12624300  1
  Se  Se3  1  0.03418700  0.43532000  0.12624300  1
  O  O0  1  0.54658500  0.79894100  0.81035900  1
  O  O1  1  0.79894100  0.54658500  0.81035900  1
  O  O2  1  0.45341500  0.20105900  0.31035900  1
  O  O3  1  0.20105900  0.45341500  0.31035900  1
  O  O4  1  0.54374200  0.79375800  0.44446800  1
  O  O5  1  0.79375800  0.54374200  0.44446800  1
  O  O6  1  0.45625800  0.20624200  0.94446800  1
  O  O7  1  0.20624200  0.45625800  0.94446800  1
  O  O8  1  0.81920500  0.09851500  0.62220800  1
  O  O9  1  0.09851500  0.81920500  0.62220800  1
  O  O10  1  0.18079500  0.90148500  0.12220800  1
  O  O11  1  0.90148500  0.18079500  0.12220800  1
  O  O12  1  0.41287000  0.41287000  0.63140200  1
  O  O13  1  0.58713000  0.58713000  0.13140200  1
loop_
_geom_bond_atom_site_label_1
_geom_bond_atom_site_label_2
_geom_bond_distance
_geom_bond_site_symmetry_2
Na0 O10 2.458570 1_655
Na0 O11 2.458570 1_565
Na0 O8 2.504155 1_565
Na0 O9 2.504155 1_655
Na0 O4 2.890486 1_555
Na0 O5 2.890486 1_555
Na1 O9 2.458570 1_545
Na1 O8 2.458570 1_455
Na1 O11 2.504155 1_456
Na1 O10 2.504155 1_546
Na1 O7 2.890486 1_555
Na1 O6 2.890486 1_555
Nb0 O13 1.834554 1_556
Nb0 O0 2.023901 1_555
Nb0 O1 2.023901 1_555
Nb0 O6 2.031683 1_555
Nb0 O7 2.031683 1_555
Nb0 O12 2.166691 1_555
Nb1 O12 1.834554 1_555
Nb1 O2 2.023901 1_555
Nb1 O3 2.023901 1_555
Nb1 O4 2.031683 1_555
Nb1 O5 2.031683 1_555
Nb1 O13 2.166691 1_555
O0 Se0 1.775446 1_555
O1 Se1 1.775446 1_555
O2 Se2 1.775446 1_555
O3 Se3 1.775446 1_555
O4 Se0 1.781348 1_555
O5 Se1 1.781348 1_555
O6 Se2 1.781348 1_556
O7 Se3 1.781348 1_556
O8 Se0 1.672152 1_545
O9 Se1 1.672152 1_455
O10 Se2 1.672152 1_565
O11 Se3 1.672152 1_655
