# generated using pymatgen
data_Sr7TeN6
_symmetry_space_group_name_H-M   'P 1'
_cell_length_a   6.91327000
_cell_length_b   9.88167631
_cell_length_c   9.88167631
_cell_angle_alpha   79.73715312
_cell_angle_beta   69.52476487
_cell_angle_gamma   69.52476487
_symmetry_Int_Tables_number   1
_chemical_formula_structural   Sr7TeN6
_chemical_formula_sum   'Sr14 Te2 N12'
_cell_volume   591.26292246
_cell_formula_units_Z   2
loop_
 _symmetry_equiv_pos_site_id
 _symmetry_equiv_pos_as_xyz
  1  'x, y, z'
loop_
 _atom_site_type_symbol
 _atom_site_label
 _atom_site_symmetry_multiplicity
 _atom_site_fract_x
 _atom_site_fract_y
 _atom_site_fract_z
 _atom_site_occupancy
  Sr  Sr0  1  0.28362600  0.94982700  0.05017300  1
  Sr  Sr1  1  0.71637400  0.05017300  0.94982700  1
  Sr  Sr2  1  0.21637400  0.44982700  0.55017300  1
  Sr  Sr3  1  0.78362600  0.55017300  0.44982700  1
  Sr  Sr4  1  0.76469200  0.15381700  0.58644900  1
  Sr  Sr5  1  0.49504100  0.58644900  0.15381700  1
  Sr  Sr6  1  0.73530800  0.91355100  0.34618300  1
  Sr  Sr7  1  0.00495900  0.34618300  0.91355100  1
  Sr  Sr8  1  0.23530800  0.84618300  0.41355100  1
  Sr  Sr9  1  0.50495900  0.41355100  0.84618300  1
  Sr  Sr10  1  0.26469200  0.08644900  0.65381700  1
  Sr  Sr11  1  0.99504100  0.65381700  0.08644900  1
  Sr  Sr12  1  0.25000000  0.25000000  0.25000000  1
  Sr  Sr13  1  0.75000000  0.75000000  0.75000000  1
  Te  Te0  1  0.75000000  0.25000000  0.25000000  1
  Te  Te1  1  0.25000000  0.75000000  0.75000000  1
  N  N0  1  0.01765700  0.07021200  0.30168500  1
  N  N1  1  0.61044600  0.30168500  0.07021200  1
  N  N2  1  0.48234300  0.19831500  0.42978800  1
  N  N3  1  0.88955400  0.42978800  0.19831500  1
  N  N4  1  0.98234300  0.92978800  0.69831500  1
  N  N5  1  0.38955400  0.69831500  0.92978800  1
  N  N6  1  0.51765700  0.80168500  0.57021200  1
  N  N7  1  0.11044600  0.57021200  0.80168500  1
  N  N8  1  0.88553900  0.35189000  0.64811000  1
  N  N9  1  0.11446100  0.64811000  0.35189000  1
  N  N10  1  0.61446100  0.85189000  0.14811000  1
  N  N11  1  0.38553900  0.14811000  0.85189000  1
loop_
_geom_bond_atom_site_label_1
_geom_bond_atom_site_label_2
_geom_bond_distance
_geom_bond_site_symmetry_2
N0 Te0 2.208860 1_455
N0 Sr8 2.519546 1_545
N0 Sr12 2.663909 1_555
N0 Sr0 2.701701 1_545
N0 Sr6 2.769661 1_445
N0 Sr4 2.834425 1_455
N1 Te0 2.208860 1_555
N1 Sr9 2.519543 1_554
N1 Sr12 2.663909 1_555
N1 Sr1 2.701701 1_554
N1 Sr7 2.769667 1_654
N1 Sr5 2.834424 1_555
N2 Te0 2.208860 1_555
N2 Sr10 2.519546 1_555
N2 Sr12 2.663909 1_555
N2 Sr2 2.701701 1_555
N2 Sr4 2.769661 1_555
N2 Sr6 2.834425 1_545
N3 Te0 2.208860 1_555
N3 Sr11 2.519543 1_555
N3 Sr12 2.663909 1_655
N3 Sr3 2.701701 1_555
N3 Sr5 2.769667 1_555
N3 Sr7 2.834424 1_654
N4 Te1 2.208860 1_655
N4 Sr4 2.519546 1_565
N4 Sr13 2.663909 1_555
N4 Sr1 2.701701 1_565
N4 Sr10 2.769661 1_665
N4 Sr8 2.834425 1_655
N5 Te1 2.208860 1_555
N5 Sr5 2.519543 1_556
N5 Sr13 2.663909 1_555
N5 Sr0 2.701701 1_556
N5 Sr11 2.769667 1_456
N5 Sr9 2.834424 1_555
N6 Te1 2.208860 1_555
N6 Sr6 2.519546 1_555
N6 Sr13 2.663909 1_555
N6 Sr3 2.701701 1_555
N6 Sr8 2.769661 1_555
N6 Sr10 2.834425 1_565
N7 Te1 2.208860 1_555
N7 Sr7 2.519543 1_555
N7 Sr13 2.663909 1_455
N7 Sr2 2.701701 1_555
N7 Sr9 2.769667 1_555
N7 Sr11 2.834424 1_456
N8 Sr2 2.602024 1_655
N8 Sr3 2.608956 1_555
N8 Sr9 2.612529 1_555
N8 Sr4 2.612534 1_555
N8 Sr10 2.999100 1_655
N8 Sr7 2.999104 1_655
N9 Sr3 2.602024 1_455
N9 Sr2 2.608956 1_555
N9 Sr5 2.612529 1_555
N9 Sr8 2.612534 1_555
N9 Sr6 2.999100 1_455
N9 Sr11 2.999104 1_455
N10 Sr0 2.602024 1_555
N10 Sr1 2.608956 1_564
N10 Sr11 2.612529 1_555
N10 Sr6 2.612534 1_555
N10 Sr8 2.999100 1_555
N10 Sr5 2.999104 1_555
N11 Sr1 2.602024 1_555
N11 Sr0 2.608956 1_546
N11 Sr7 2.612529 1_555
N11 Sr10 2.612534 1_555
N11 Sr4 2.999100 1_555
N11 Sr9 2.999104 1_555
