# generated using pymatgen
data_Ba4PrY(Cu3O7)2
_symmetry_space_group_name_H-M   'P 1'
_cell_length_a   3.90420000
_cell_length_b   3.90420000
_cell_length_c   23.91609800
_cell_angle_alpha   90.00000000
_cell_angle_beta   90.00000000
_cell_angle_gamma   90.00000000
_symmetry_Int_Tables_number   1
_chemical_formula_structural   Ba4PrY(Cu3O7)2
_chemical_formula_sum   'Ba4 Pr1 Y1 Cu6 O14'
_cell_volume   364.54776383
_cell_formula_units_Z   1
loop_
 _symmetry_equiv_pos_site_id
 _symmetry_equiv_pos_as_xyz
  1  'x, y, z'
loop_
 _atom_site_type_symbol
 _atom_site_label
 _atom_site_symmetry_multiplicity
 _atom_site_fract_x
 _atom_site_fract_y
 _atom_site_fract_z
 _atom_site_occupancy
  Ba  Ba0  1  0.50000000  0.50000000  0.15888300  1
  Ba  Ba1  1  0.50000000  0.50000000  0.66022800  1
  Ba  Ba2  1  0.50000000  0.50000000  0.84111700  1
  Ba  Ba3  1  0.50000000  0.50000000  0.33977200  1
  Pr  Pr0  1  0.50000000  0.50000000  0.50000000  1
  Y  Y0  1  0.50000000  0.50000000  0.00000000  1
  Cu  Cu0  1  0.00000000  0.00000000  0.07309700  1
  Cu  Cu1  1  0.00000000  0.00000000  0.57786200  1
  Cu  Cu2  1  0.00000000  0.00000000  0.92690300  1
  Cu  Cu3  1  0.00000000  0.00000000  0.42213800  1
  Cu  Cu4  1  0.00000000  0.00000000  0.75054000  1
  Cu  Cu5  1  0.00000000  0.00000000  0.24946000  1
  O  O0  1  0.00000000  0.00000000  0.17093300  1
  O  O1  1  0.00000000  0.00000000  0.67208400  1
  O  O2  1  0.00000000  0.00000000  0.82906700  1
  O  O3  1  0.00000000  0.00000000  0.32791600  1
  O  O4  1  0.00000000  0.50000000  0.06108700  1
  O  O5  1  0.00000000  0.50000000  0.56425400  1
  O  O6  1  0.50000000  0.00000000  0.05964400  1
  O  O7  1  0.50000000  0.00000000  0.56579500  1
  O  O8  1  0.00000000  0.50000000  0.94035600  1
  O  O9  1  0.00000000  0.50000000  0.43420500  1
  O  O10  1  0.50000000  0.00000000  0.93891300  1
  O  O11  1  0.50000000  0.00000000  0.43574600  1
  O  O12  1  0.00000000  0.50000000  0.75097900  1
  O  O13  1  0.50000000  0.00000000  0.24902100  1
loop_
_geom_bond_atom_site_label_1
_geom_bond_atom_site_label_2
_geom_bond_distance
_geom_bond_site_symmetry_2
Ba0 O0 2.775688 1_665
Ba0 O0 2.775688 1_555
Ba0 O0 2.775688 1_655
Ba0 O0 2.775688 1_565
Ba0 O13 2.908255 1_565
Ba0 O13 2.908255 1_555
Ba0 O4 3.046497 1_655
Ba0 O4 3.046497 1_555
Ba0 O6 3.073071 1_555
Ba0 O6 3.073071 1_565
Ba1 O1 2.775210 1_655
Ba1 O1 2.775210 1_555
Ba1 O1 2.775210 1_565
Ba1 O1 2.775210 1_665
Ba1 O12 2.919139 1_555
Ba1 O12 2.919139 1_655
Ba1 O7 2.985193 1_555
Ba1 O7 2.985193 1_565
Ba1 O5 3.013172 1_655
Ba1 O5 3.013172 1_555
Ba2 O2 2.775688 1_555
Ba2 O2 2.775688 1_665
Ba2 O2 2.775688 1_565
Ba2 O2 2.775688 1_655
Ba2 O12 2.908255 1_655
Ba2 O12 2.908255 1_555
Ba2 O10 3.046497 1_565
Ba2 O10 3.046497 1_555
Ba2 O8 3.073071 1_555
Ba2 O8 3.073071 1_655
Ba3 O3 2.775210 1_565
Ba3 O3 2.775210 1_665
Ba3 O3 2.775210 1_555
Ba3 O3 2.775210 1_655
Ba3 O13 2.919139 1_555
Ba3 O13 2.919139 1_565
Ba3 O9 2.985193 1_555
Ba3 O9 2.985193 1_655
Ba3 O11 3.013172 1_565
Ba3 O11 3.013172 1_555
Cu0 O4 1.973119 1_555
Cu0 O4 1.973119 1_545
Cu0 O6 1.978437 1_555
Cu0 O6 1.978437 1_455
Cu0 O0 2.339855 1_555
Cu1 O7 1.973317 1_455
Cu1 O7 1.973317 1_555
Cu1 O5 1.979043 1_555
Cu1 O5 1.979043 1_545
Cu1 O1 2.253423 1_555
Cu2 O10 1.973119 1_555
Cu2 O10 1.973119 1_455
Cu2 O8 1.978437 1_555
Cu2 O8 1.978437 1_545
Cu2 O2 2.339855 1_555
Cu3 O9 1.973317 1_555
Cu3 O9 1.973317 1_545
Cu3 O11 1.979043 1_555
Cu3 O11 1.979043 1_455
Cu3 O3 2.253423 1_555
Cu4 O1 1.876361 1_555
Cu4 O2 1.878059 1_555
Cu4 O12 1.952128 1_545
Cu4 O12 1.952128 1_555
Cu5 O3 1.876361 1_555
Cu5 O0 1.878059 1_555
Cu5 O13 1.952128 1_555
Cu5 O13 1.952128 1_455
O4 Y0 2.438259 1_555
O4 Y0 2.438259 1_455
O5 Pr0 2.484383 1_455
O5 Pr0 2.484383 1_555
O6 Y0 2.417738 1_545
O6 Y0 2.417738 1_555
O7 Pr0 2.507346 1_555
O7 Pr0 2.507346 1_545
O8 Y0 2.417738 1_556
O8 Y0 2.417738 1_456
O9 Pr0 2.507346 1_555
O9 Pr0 2.507346 1_455
O10 Y0 2.438259 1_546
O10 Y0 2.438259 1_556
O11 Pr0 2.484383 1_545
O11 Pr0 2.484383 1_555
