# generated using pymatgen
data_KMg3AlSi3O11F
_symmetry_space_group_name_H-M   'P 1'
_cell_length_a   5.37204300
_cell_length_b   5.40331454
_cell_length_c   10.27904900
_cell_angle_alpha   94.52253464
_cell_angle_beta   95.77404528
_cell_angle_gamma   119.77367458
_symmetry_Int_Tables_number   1
_chemical_formula_structural   KMg3AlSi3O11F
_chemical_formula_sum   'K1 Mg3 Al1 Si3 O11 F1'
_cell_volume   254.78547607
_cell_formula_units_Z   1
loop_
 _symmetry_equiv_pos_site_id
 _symmetry_equiv_pos_as_xyz
  1  'x, y, z'
loop_
 _atom_site_type_symbol
 _atom_site_label
 _atom_site_symmetry_multiplicity
 _atom_site_fract_x
 _atom_site_fract_y
 _atom_site_fract_z
 _atom_site_occupancy
  K  K0  1  0.93813200  0.93870000  0.81322900  1
  Mg  Mg0  1  0.44802700  0.44822000  0.34098100  1
  Mg  Mg1  1  0.78129700  0.11639700  0.34313300  1
  Mg  Mg2  1  0.11558600  0.77450700  0.33992700  1
  Al  Al0  1  0.53038400  0.20114000  0.61400700  1
  Si  Si0  1  0.20378100  0.53955600  0.61916500  1
  Si  Si1  1  0.35635700  0.68997700  0.06687000  1
  Si  Si2  1  0.69008600  0.35654200  0.06702200  1
  O  O0  1  0.47574700  0.14395000  0.43850200  1
  O  O1  1  0.15114900  0.48870500  0.45393900  1
  O  O2  1  0.50506900  0.00472700  0.00987500  1
  O  O3  1  0.00226800  0.50532000  0.00784000  1
  O  O4  1  0.41169100  0.73994300  0.22741400  1
  O  O5  1  0.74929500  0.41137600  0.22750000  1
  O  O6  1  0.37954600  0.87975400  0.67917700  1
  O  O7  1  0.89912400  0.39046900  0.67602200  1
  O  O8  1  0.38811700  0.40006400  0.67938500  1
  O  O9  1  0.50122100  0.50279000  0.00852900  1
  O  O10  1  0.08560400  0.08329800  0.24837300  1
  F  F0  1  0.80751700  0.80456400  0.43910900  1
loop_
_geom_bond_atom_site_label_1
_geom_bond_atom_site_label_2
_geom_bond_distance
_geom_bond_site_symmetry_2
K0 O6 2.993577 1_655
K0 O7 2.997204 1_565
K0 O8 3.017233 1_555
K0 O6 3.025596 1_555
K0 O8 3.029192 1_665
K0 O7 3.077858 1_555
K0 O3 3.317411 1_656
K0 O2 3.325247 1_666
K0 O9 3.335686 1_666
K0 O2 3.358889 1_566
K0 O9 3.360060 1_556
K0 O3 3.367753 1_666
Mg0 O10 2.025617 1_555
Mg0 O0 2.050120 1_555
Mg0 O4 2.106034 1_555
Mg0 O1 2.149083 1_555
Mg0 O5 2.163983 1_555
Mg1 O0 2.054481 1_555
Mg1 O10 2.058260 1_655
Mg1 O1 2.122629 1_655
Mg1 O5 2.124265 1_555
Mg1 O4 2.151022 1_545
Mg2 O10 2.044379 1_565
Mg2 O0 2.050793 1_565
Mg2 O1 2.080406 1_555
Mg2 O5 2.099464 1_455
Mg2 O4 2.129288 1_555
Al0 O8 1.730979 1_555
Al0 O7 1.734160 1_555
Al0 O6 1.736699 1_545
Al0 O0 1.775277 1_555
O1 Si0 1.671083 1_555
O2 Si1 1.666058 1_545
O2 Si2 1.666304 1_555
O3 Si1 1.664139 1_555
O3 Si2 1.665020 1_455
O4 Si1 1.623537 1_555
O5 Si2 1.622888 1_555
O6 Si0 1.622113 1_555
O7 Si0 1.620612 1_655
O8 Si0 1.619685 1_555
O9 Si2 1.662468 1_555
O9 Si1 1.663793 1_555
F0 Mg0 2.015709 1_555
F0 Mg1 2.074123 1_565
F0 Mg2 2.094029 1_655
