# generated using pymatgen
data_KMnSn3O8
_symmetry_space_group_name_H-M   'P 1'
_cell_length_a   6.40026708
_cell_length_b   7.52676865
_cell_length_c   7.46958046
_cell_angle_alpha   91.97258399
_cell_angle_beta   76.57842114
_cell_angle_gamma   100.26877048
_symmetry_Int_Tables_number   1
_chemical_formula_structural   KMnSn3O8
_chemical_formula_sum   'K2 Mn2 Sn6 O16'
_cell_volume   344.39156342
_cell_formula_units_Z   2
loop_
 _symmetry_equiv_pos_site_id
 _symmetry_equiv_pos_as_xyz
  1  'x, y, z'
loop_
 _atom_site_type_symbol
 _atom_site_label
 _atom_site_symmetry_multiplicity
 _atom_site_fract_x
 _atom_site_fract_y
 _atom_site_fract_z
 _atom_site_occupancy
  K  K0  1  0.25843888  0.99127210  0.98176122  1
  K  K1  1  0.75844175  0.99118593  0.98163629  1
  Mn  Mn0  1  0.32117895  0.81700476  0.51463406  1
  Mn  Mn1  1  0.82117855  0.81700522  0.51460800  1
  Sn  Sn0  1  0.17601872  0.16989098  0.48645489  1
  Sn  Sn1  1  0.67602253  0.16988615  0.48644574  1
  Sn  Sn2  1  0.91986958  0.49368501  0.80923639  1
  Sn  Sn3  1  0.41987885  0.49369346  0.80922513  1
  Sn  Sn4  1  0.57182058  0.52182389  0.19377832  1
  Sn  Sn5  1  0.07182272  0.52182265  0.19377430  1
  O  O0  1  0.22789339  0.62778582  0.70080547  1
  O  O1  1  0.72790569  0.62780147  0.70081442  1
  O  O2  1  0.26466315  0.37243410  0.29360765  1
  O  O3  1  0.76466039  0.37242453  0.29360096  1
  O  O4  1  0.91935811  0.29264558  0.62163899  1
  O  O5  1  0.41937118  0.29265134  0.62162586  1
  O  O6  1  0.56098210  0.70903925  0.38671143  1
  O  O7  1  0.06097725  0.70904713  0.38669772  1
  O  O8  1  0.93268264  0.04072570  0.35525331  1
  O  O9  1  0.43265885  0.04069793  0.35527697  1
  O  O10  1  0.60678774  0.95005926  0.65426654  1
  O  O11  1  0.10677346  0.95005582  0.65427300  1
  O  O12  1  0.38710538  0.65007107  0.04937131  1
  O  O13  1  0.88710261  0.65006171  0.04937153  1
  O  O14  1  0.10321211  0.36361326  0.95256044  1
  O  O15  1  0.60319685  0.36361188  0.95256904  1
loop_
_geom_bond_atom_site_label_1
_geom_bond_atom_site_label_2
_geom_bond_distance
_geom_bond_site_symmetry_2
K0 O11 2.822252 1_555
K0 O12 2.926587 1_556
K0 O10 2.951878 1_555
K0 O8 3.126275 1_466
K0 O13 3.139290 1_456
K0 O14 3.166089 1_565
K0 O15 3.222489 1_565
K0 O9 3.223468 1_566
K1 O10 2.821366 1_555
K1 O13 2.926281 1_556
K1 O11 2.951045 1_655
K1 O9 3.127262 1_566
K1 O12 3.138808 1_556
K1 O15 3.166576 1_565
K1 O14 3.223077 1_665
K1 O8 3.224271 1_566
Mn0 O6 1.907731 1_555
Mn0 O11 1.930673 1_555
Mn0 O0 1.940724 1_555
Mn0 O9 2.018952 1_565
Mn0 O7 2.133028 1_555
Mn0 O10 2.364900 1_555
Mn1 O7 1.907650 1_655
Mn1 O10 1.930676 1_555
Mn1 O1 1.940818 1_555
Mn1 O8 2.019115 1_565
Mn1 O6 2.132832 1_555
Mn1 O11 2.364969 1_655
O0 Sn3 2.035863 1_555
O0 Sn2 2.041301 1_455
O1 Sn2 2.035876 1_555
O1 Sn3 2.041306 1_555
O2 Sn0 2.045578 1_555
O2 Sn4 2.067408 1_555
O2 Sn5 2.079302 1_555
O3 Sn1 2.045541 1_555
O3 Sn5 2.067453 1_655
O3 Sn4 2.079312 1_555
O4 Sn2 2.026740 1_555
O4 Sn0 2.068484 1_655
O4 Sn1 2.109944 1_555
O5 Sn3 2.026763 1_555
O5 Sn1 2.068476 1_555
O5 Sn0 2.109923 1_555
O6 Sn4 1.978875 1_555
O7 Sn5 1.978872 1_555
O8 Sn1 2.088141 1_555
O8 Sn0 2.105774 1_655
O9 Sn0 2.088159 1_555
O9 Sn1 2.105811 1_555
O10 Sn1 2.031974 1_565
O11 Sn0 2.032007 1_565
O12 Sn3 2.101204 1_554
O12 Sn5 2.129299 1_555
O12 Sn4 2.136232 1_555
O13 Sn2 2.101134 1_554
O13 Sn4 2.129280 1_555
O13 Sn5 2.136201 1_655
O14 Sn5 2.115252 1_556
O14 Sn2 2.132252 1_455
O14 Sn3 2.137745 1_555
O15 Sn4 2.115235 1_556
O15 Sn3 2.132273 1_555
O15 Sn2 2.137751 1_555
