# generated using pymatgen
data_Zr4Si3Sb5
_symmetry_space_group_name_H-M   'P 1'
_cell_length_a   3.84972600
_cell_length_b   3.84972600
_cell_length_c   17.43562000
_cell_angle_alpha   90.00000000
_cell_angle_beta   90.00000000
_cell_angle_gamma   90.00000000
_symmetry_Int_Tables_number   1
_chemical_formula_structural   Zr4Si3Sb5
_chemical_formula_sum   'Zr4 Si3 Sb5'
_cell_volume   258.40269309
_cell_formula_units_Z   1
loop_
 _symmetry_equiv_pos_site_id
 _symmetry_equiv_pos_as_xyz
  1  'x, y, z'
loop_
 _atom_site_type_symbol
 _atom_site_label
 _atom_site_symmetry_multiplicity
 _atom_site_fract_x
 _atom_site_fract_y
 _atom_site_fract_z
 _atom_site_occupancy
  Zr  Zr0  1  0.50000000  0.00000000  0.37943000  1
  Zr  Zr1  1  0.50000000  0.00000000  0.87218600  1
  Zr  Zr2  1  0.00000000  0.50000000  0.12781400  1
  Zr  Zr3  1  0.00000000  0.50000000  0.62057000  1
  Si  Si0  1  0.50000000  0.50000000  0.50000000  1
  Si  Si1  1  0.00000000  0.00000000  0.00000000  1
  Si  Si2  1  0.00000000  0.00000000  0.50000000  1
  Sb  Sb0  1  0.50000000  0.00000000  0.19957900  1
  Sb  Sb1  1  0.50000000  0.00000000  0.69014100  1
  Sb  Sb2  1  0.00000000  0.50000000  0.30985900  1
  Sb  Sb3  1  0.00000000  0.50000000  0.80042100  1
  Sb  Sb4  1  0.50000000  0.50000000  0.00000000  1
loop_
_geom_bond_atom_site_label_1
_geom_bond_atom_site_label_2
_geom_bond_distance
_geom_bond_site_symmetry_2
Si0 Si2 2.722167 1_655
Si0 Si2 2.722167 1_665
Si0 Si2 2.722167 1_565
Si0 Si2 2.722167 1_555
Si0 Zr0 2.850333 1_555
Si0 Zr0 2.850333 1_565
Si0 Zr3 2.850333 1_655
Si0 Zr3 2.850333 1_555
Si1 Zr2 2.944721 1_545
Si1 Zr2 2.944721 1_555
Si1 Zr1 2.944721 1_454
Si1 Zr1 2.944721 1_554
Si2 Zr0 2.850333 1_455
Si2 Zr0 2.850333 1_555
Si2 Zr3 2.850333 1_555
Si2 Zr3 2.850333 1_545
Sb0 Zr2 2.995975 1_655
Sb0 Zr2 2.995975 1_645
Sb0 Zr2 2.995975 1_555
Sb0 Zr2 2.995975 1_545
Sb0 Zr0 3.135814 1_555
Sb1 Zr3 2.980201 1_645
Sb1 Zr3 2.980201 1_555
Sb1 Zr3 2.980201 1_545
Sb1 Zr3 2.980201 1_655
Sb1 Zr1 3.174067 1_555
Sb2 Zr0 2.980201 1_555
Sb2 Zr0 2.980201 1_565
Sb2 Zr0 2.980201 1_465
Sb2 Zr0 2.980201 1_455
Sb2 Zr2 3.174067 1_555
Sb3 Zr1 2.995975 1_465
Sb3 Zr1 2.995975 1_555
Sb3 Zr1 2.995975 1_455
Sb3 Zr1 2.995975 1_565
Sb3 Zr3 3.135814 1_555
Sb4 Si1 2.722167 1_655
Sb4 Si1 2.722167 1_565
Sb4 Si1 2.722167 1_555
Sb4 Si1 2.722167 1_665
Sb4 Zr2 2.944721 1_555
Sb4 Zr2 2.944721 1_655
Sb4 Zr1 2.944721 1_554
Sb4 Zr1 2.944721 1_564
