# generated using pymatgen
data_SmGaSb2
_symmetry_space_group_name_H-M   'P 1'
_cell_length_a   4.33543200
_cell_length_b   4.37271100
_cell_length_c   11.43215476
_cell_angle_alpha   90.00000000
_cell_angle_beta   100.93035761
_cell_angle_gamma   90.00000000
_symmetry_Int_Tables_number   1
_chemical_formula_structural   SmGaSb2
_chemical_formula_sum   'Sm2 Ga2 Sb4'
_cell_volume   212.79435448
_cell_formula_units_Z   2
loop_
 _symmetry_equiv_pos_site_id
 _symmetry_equiv_pos_as_xyz
  1  'x, y, z'
loop_
 _atom_site_type_symbol
 _atom_site_label
 _atom_site_symmetry_multiplicity
 _atom_site_fract_x
 _atom_site_fract_y
 _atom_site_fract_z
 _atom_site_occupancy
  Sm  Sm0  1  0.86272400  0.75000000  0.72544800  1
  Sm  Sm1  1  0.13727600  0.25000000  0.27455200  1
  Ga  Ga0  1  0.84163000  0.00000000  0.00000000  1
  Ga  Ga1  1  0.15837000  0.50000000  0.00000000  1
  Sb  Sb0  1  0.24977800  0.75000000  0.49955600  1
  Sb  Sb1  1  0.75022200  0.25000000  0.50044400  1
  Sb  Sb2  1  0.40767700  0.25000000  0.81535400  1
  Sb  Sb3  1  0.59232300  0.75000000  0.18464600  1
loop_
_geom_bond_atom_site_label_1
_geom_bond_atom_site_label_2
_geom_bond_distance
_geom_bond_site_symmetry_2
Ga0 Ga1 2.581829 1_655
Ga0 Ga1 2.581829 1_645
Ga0 Sb3 2.772081 1_545
Ga0 Sb2 2.772081 1_554
Ga0 Sm1 3.341231 1_655
Ga0 Sm0 3.341231 1_544
Ga1 Sb3 2.772081 1_555
Ga1 Sb2 2.772081 1_554
Ga1 Sm1 3.341231 1_555
Ga1 Sm0 3.341231 1_454
Sb0 Sb1 3.078838 1_555
Sb0 Sb1 3.078838 1_565
Sb0 Sb1 3.078838 1_455
Sb0 Sb1 3.078838 1_465
Sb0 Sm0 3.335892 1_555
Sb0 Sm0 3.335892 1_455
Sb0 Sm1 3.340491 1_565
Sb0 Sm1 3.340491 1_555
Sb1 Sm1 3.335892 1_555
Sb1 Sm1 3.335892 1_655
Sb1 Sm0 3.340491 1_555
Sb1 Sm0 3.340491 1_545
Sb2 Sm0 3.239996 1_555
Sb2 Sm0 3.239996 1_545
Sb2 Sm0 3.239996 1_445
Sb2 Sm0 3.239996 1_455
Sb3 Sm1 3.239996 1_565
Sb3 Sm1 3.239996 1_555
Sb3 Sm1 3.239996 1_655
Sb3 Sm1 3.239996 1_665
