# generated using pymatgen
data_NaIn(TeO3)2
_symmetry_space_group_name_H-M   'P 1'
_cell_length_a   8.42070400
_cell_length_b   10.86227200
_cell_length_c   13.83018200
_cell_angle_alpha   90.00000000
_cell_angle_beta   90.00000000
_cell_angle_gamma   90.00000000
_symmetry_Int_Tables_number   1
_chemical_formula_structural   NaIn(TeO3)2
_chemical_formula_sum   'Na8 In8 Te16 O48'
_cell_volume   1265.01877295
_cell_formula_units_Z   8
loop_
 _symmetry_equiv_pos_site_id
 _symmetry_equiv_pos_as_xyz
  1  'x, y, z'
loop_
 _atom_site_type_symbol
 _atom_site_label
 _atom_site_symmetry_multiplicity
 _atom_site_fract_x
 _atom_site_fract_y
 _atom_site_fract_z
 _atom_site_occupancy
  Na  Na0  1  0.12157200  0.76548400  0.14521300  1
  Na  Na1  1  0.37842800  0.26548400  0.85478700  1
  Na  Na2  1  0.62157200  0.23451600  0.35478700  1
  Na  Na3  1  0.87842800  0.73451600  0.64521300  1
  Na  Na4  1  0.87842800  0.23451600  0.85478700  1
  Na  Na5  1  0.62157200  0.73451600  0.14521300  1
  Na  Na6  1  0.37842800  0.76548400  0.64521300  1
  Na  Na7  1  0.12157200  0.26548400  0.35478700  1
  In  In0  1  0.70526500  0.99722700  0.01297700  1
  In  In1  1  0.79473500  0.49722700  0.98702300  1
  In  In2  1  0.20526500  0.00277300  0.48702300  1
  In  In3  1  0.29473500  0.50277300  0.51297700  1
  In  In4  1  0.29473500  0.00277300  0.98702300  1
  In  In5  1  0.20526500  0.50277300  0.01297700  1
  In  In6  1  0.79473500  0.99722700  0.51297700  1
  In  In7  1  0.70526500  0.49722700  0.48702300  1
  Te  Te0  1  0.84949200  0.98033100  0.24493500  1
  Te  Te1  1  0.65050800  0.48033100  0.75506500  1
  Te  Te2  1  0.34949200  0.01966900  0.25506500  1
  Te  Te3  1  0.15050800  0.51966900  0.74493500  1
  Te  Te4  1  0.15050800  0.01966900  0.75506500  1
  Te  Te5  1  0.34949200  0.51966900  0.24493500  1
  Te  Te6  1  0.65050800  0.98033100  0.74493500  1
  Te  Te7  1  0.84949200  0.48033100  0.25506500  1
  Te  Te8  1  0.96933900  0.78085900  0.91987900  1
  Te  Te9  1  0.53066100  0.28085900  0.08012100  1
  Te  Te10  1  0.46933900  0.21914100  0.58012100  1
  Te  Te11  1  0.03066100  0.71914100  0.41987900  1
  Te  Te12  1  0.03066100  0.21914100  0.08012100  1
  Te  Te13  1  0.46933900  0.71914100  0.91987900  1
  Te  Te14  1  0.53066100  0.78085900  0.41987900  1
  Te  Te15  1  0.96933900  0.28085900  0.58012100  1
  O  O0  1  0.66048400  0.95693700  0.16819200  1
  O  O1  1  0.83951600  0.45693700  0.83180800  1
  O  O2  1  0.16048400  0.04306300  0.33180800  1
  O  O3  1  0.33951600  0.54306300  0.66819200  1
  O  O4  1  0.33951600  0.04306300  0.83180800  1
  O  O5  1  0.16048400  0.54306300  0.16819200  1
  O  O6  1  0.83951600  0.95693700  0.66819200  1
  O  O7  1  0.66048400  0.45693700  0.33180800  1
  O  O8  1  0.73746300  0.02413800  0.36103000  1
  O  O9  1  0.76253700  0.52413800  0.63897000  1
  O  O10  1  0.23746300  0.97586200  0.13897000  1
  O  O11  1  0.26253700  0.47586200  0.86103000  1
  O  O12  1  0.26253700  0.97586200  0.63897000  1
  O  O13  1  0.23746300  0.47586200  0.36103000  1
  O  O14  1  0.76253700  0.02413800  0.86103000  1
  O  O15  1  0.73746300  0.52413800  0.13897000  1
  O  O16  1  0.89571300  0.81352100  0.26611300  1
  O  O17  1  0.60428700  0.31352100  0.73388700  1
  O  O18  1  0.39571300  0.18647900  0.23388700  1
  O  O19  1  0.10428700  0.68647900  0.76611300  1
  O  O20  1  0.10428700  0.18647900  0.73388700  1
  O  O21  1  0.39571300  0.68647900  0.26611300  1
  O  O22  1  0.60428700  0.81352100  0.76611300  1
  O  O23  1  0.89571300  0.31352100  0.23388700  1
  O  O24  1  0.89246100  0.86529200  0.03234700  1
  O  O25  1  0.60753900  0.36529200  0.96765300  1
  O  O26  1  0.39246100  0.13470800  0.46765300  1
  O  O27  1  0.10753900  0.63470800  0.53234700  1
  O  O28  1  0.10753900  0.13470800  0.96765300  1
  O  O29  1  0.39246100  0.63470800  0.03234700  1
  O  O30  1  0.60753900  0.86529200  0.53234700  1
  O  O31  1  0.89246100  0.36529200  0.46765300  1
  O  O32  1  0.00089100  0.62656900  0.98783300  1
  O  O33  1  0.49910900  0.12656900  0.01216700  1
  O  O34  1  0.50089100  0.37343100  0.51216700  1
  O  O35  1  0.99910900  0.87343100  0.48783300  1
  O  O36  1  0.99910900  0.37343100  0.01216700  1
  O  O37  1  0.50089100  0.87343100  0.98783300  1
  O  O38  1  0.49910900  0.62656900  0.48783300  1
  O  O39  1  0.00089100  0.12656900  0.51216700  1
  O  O40  1  0.18303300  0.83097800  0.94582700  1
  O  O41  1  0.31696700  0.33097800  0.05417300  1
  O  O42  1  0.68303300  0.16902200  0.55417300  1
  O  O43  1  0.81696700  0.66902200  0.44582700  1
  O  O44  1  0.81696700  0.16902200  0.05417300  1
  O  O45  1  0.68303300  0.66902200  0.94582700  1
  O  O46  1  0.31696700  0.83097800  0.44582700  1
  O  O47  1  0.18303300  0.33097800  0.55417300  1
loop_
_geom_bond_atom_site_label_1
_geom_bond_atom_site_label_2
_geom_bond_distance
_geom_bond_site_symmetry_2
Na0 O5 2.458741 1_555
Na0 O10 2.486336 1_555
Na0 O16 2.585589 1_455
Na0 O24 2.708146 1_455
Na0 O32 2.836748 1_554
Na0 O40 2.894480 1_554
Na0 O21 2.976788 1_555
Na1 O4 2.458741 1_555
Na1 O11 2.486336 1_555
Na1 O17 2.585589 1_555
Na1 O25 2.708146 1_555
Na1 O33 2.836748 1_556
Na1 O41 2.894480 1_556
Na1 O20 2.976788 1_555
Na2 O7 2.458741 1_555
Na2 O8 2.486336 1_555
Na2 O18 2.585589 1_555
Na2 O26 2.708146 1_555
Na2 O34 2.836748 1_555
Na2 O42 2.894480 1_555
Na2 O23 2.976788 1_555
Na3 O6 2.458741 1_555
Na3 O9 2.486336 1_555
Na3 O19 2.585589 1_655
Na3 O27 2.708146 1_655
Na3 O35 2.836748 1_555
Na3 O43 2.894480 1_555
Na3 O22 2.976788 1_555
Na4 O1 2.458741 1_555
Na4 O14 2.486336 1_555
Na4 O20 2.585589 1_655
Na4 O28 2.708146 1_655
Na4 O36 2.836748 1_556
Na4 O44 2.894480 1_556
Na4 O17 2.976788 1_555
Na5 O0 2.458741 1_555
Na5 O15 2.486336 1_555
Na5 O21 2.585589 1_555
Na5 O29 2.708146 1_555
Na5 O37 2.836748 1_554
Na5 O45 2.894480 1_554
Na5 O16 2.976788 1_555
Na6 O3 2.458741 1_555
Na6 O12 2.486336 1_555
Na6 O22 2.585589 1_555
Na6 O30 2.708146 1_555
Na6 O38 2.836748 1_555
Na6 O46 2.894480 1_555
Na6 O19 2.976788 1_555
Na7 O2 2.458741 1_555
Na7 O13 2.486336 1_555
Na7 O23 2.585589 1_455
Na7 O31 2.708146 1_455
Na7 O39 2.836748 1_555
Na7 O47 2.894480 1_555
Na7 O18 2.976788 1_555
In0 O24 2.147178 1_555
In0 O44 2.166017 1_565
In0 O14 2.175809 1_564
In0 O37 2.211540 1_554
In0 O0 2.223025 1_555
In0 O33 2.233299 1_565
In1 O25 2.147178 1_555
In1 O45 2.166017 1_555
In1 O15 2.175809 1_556
In1 O36 2.211540 1_556
In1 O1 2.223025 1_555
In1 O32 2.233299 1_655
In2 O26 2.147178 1_555
In2 O46 2.166017 1_545
In2 O12 2.175809 1_545
In2 O39 2.211540 1_555
In2 O2 2.223025 1_555
In2 O35 2.233299 1_445
In3 O27 2.147178 1_555
In3 O47 2.166017 1_555
In3 O13 2.175809 1_555
In3 O38 2.211540 1_555
In3 O3 2.223025 1_555
In3 O34 2.233299 1_555
In4 O28 2.147178 1_555
In4 O40 2.166017 1_545
In4 O10 2.175809 1_546
In4 O33 2.211540 1_556
In4 O4 2.223025 1_555
In4 O37 2.233299 1_545
In5 O29 2.147178 1_555
In5 O41 2.166017 1_555
In5 O11 2.175809 1_554
In5 O32 2.211540 1_554
In5 O5 2.223025 1_555
In5 O36 2.233299 1_455
In6 O30 2.147178 1_555
In6 O42 2.166017 1_565
In6 O8 2.175809 1_565
In6 O35 2.211540 1_555
In6 O6 2.223025 1_555
In6 O39 2.233299 1_665
In7 O31 2.147178 1_555
In7 O43 2.166017 1_555
In7 O9 2.175809 1_555
In7 O34 2.211540 1_555
In7 O7 2.223025 1_555
In7 O38 2.233299 1_555
O0 Te0 1.929820 1_555
O1 Te1 1.929820 1_555
O2 Te2 1.929820 1_555
O3 Te3 1.929820 1_555
O4 Te4 1.929820 1_555
O5 Te5 1.929820 1_555
O6 Te6 1.929820 1_555
O7 Te7 1.929820 1_555
O8 Te0 1.922072 1_545
O9 Te1 1.922072 1_555
O10 Te2 1.922072 1_565
O11 Te3 1.922072 1_555
O12 Te4 1.922072 1_565
O13 Te5 1.922072 1_555
O14 Te6 1.922072 1_545
O15 Te7 1.922072 1_555
O16 Te0 1.876269 1_555
O16 Te11 2.620073 1_655
O17 Te1 1.876269 1_555
O17 Te10 2.620073 1_555
O18 Te2 1.876269 1_555
O18 Te9 2.620073 1_555
O19 Te3 1.876269 1_555
O19 Te8 2.620073 1_455
O20 Te4 1.876269 1_555
O20 Te15 2.620073 1_455
O21 Te5 1.876269 1_555
O21 Te14 2.620073 1_555
O22 Te6 1.876269 1_555
O22 Te13 2.620073 1_555
O23 Te7 1.876269 1_555
O23 Te12 2.620073 1_655
O24 Te8 1.918242 1_554
O25 Te9 1.918242 1_556
O26 Te10 1.918242 1_555
O27 Te11 1.918242 1_555
O28 Te12 1.918242 1_556
O29 Te13 1.918242 1_554
O30 Te14 1.918242 1_555
O31 Te15 1.918242 1_555
O32 Te8 1.939748 1_455
O33 Te9 1.939748 1_555
O34 Te10 1.939748 1_555
O35 Te11 1.939748 1_655
O36 Te12 1.939748 1_655
O37 Te13 1.939748 1_555
O38 Te14 1.939748 1_555
O39 Te15 1.939748 1_455
O40 Te8 1.913948 1_455
O41 Te9 1.913948 1_555
O42 Te10 1.913948 1_555
O43 Te11 1.913948 1_655
O44 Te12 1.913948 1_655
O45 Te13 1.913948 1_555
O46 Te14 1.913948 1_555
O47 Te15 1.913948 1_455
