# generated using pymatgen
data_CaIn2Rh
_symmetry_space_group_name_H-M   'P 1'
_cell_length_a   5.73312720
_cell_length_b   7.83231400
_cell_length_c   15.94599809
_cell_angle_alpha   90.00000000
_cell_angle_beta   90.00000000
_cell_angle_gamma   90.00000000
_symmetry_Int_Tables_number   1
_chemical_formula_structural   CaIn2Rh
_chemical_formula_sum   'Ca8 In16 Rh8'
_cell_volume   716.03355592
_cell_formula_units_Z   8
loop_
 _symmetry_equiv_pos_site_id
 _symmetry_equiv_pos_as_xyz
  1  'x, y, z'
loop_
 _atom_site_type_symbol
 _atom_site_label
 _atom_site_symmetry_multiplicity
 _atom_site_fract_x
 _atom_site_fract_y
 _atom_site_fract_z
 _atom_site_occupancy
  Ca  Ca0  1  0.75260446  0.75000000  0.89661641  1
  Ca  Ca1  1  0.24739554  0.25000000  0.10338359  1
  Ca  Ca2  1  0.25260446  0.25000000  0.60338359  1
  Ca  Ca3  1  0.74739554  0.75000000  0.39661641  1
  Ca  Ca4  1  0.04252498  0.75000000  0.63816298  1
  Ca  Ca5  1  0.95747502  0.25000000  0.36183702  1
  Ca  Ca6  1  0.54252498  0.25000000  0.86183702  1
  Ca  Ca7  1  0.45747502  0.75000000  0.13816298  1
  In  In0  1  0.54213906  0.55096096  0.71247357  1
  In  In1  1  0.45786094  0.44903904  0.28752643  1
  In  In2  1  0.04213906  0.44903904  0.78752643  1
  In  In3  1  0.45786094  0.05096096  0.28752643  1
  In  In4  1  0.95786094  0.55096096  0.21247357  1
  In  In5  1  0.54213906  0.94903904  0.71247357  1
  In  In6  1  0.95786094  0.94903904  0.21247357  1
  In  In7  1  0.04213906  0.05096096  0.78752643  1
  In  In8  1  0.74650970  0.05473731  0.53942142  1
  In  In9  1  0.25349030  0.94526269  0.46057858  1
  In  In10  1  0.24650970  0.94526269  0.96057858  1
  In  In11  1  0.25349030  0.55473731  0.46057858  1
  In  In12  1  0.75349030  0.05473731  0.03942142  1
  In  In13  1  0.74650970  0.44526269  0.53942142  1
  In  In14  1  0.75349030  0.44526269  0.03942142  1
  In  In15  1  0.24650970  0.55473731  0.96057858  1
  Rh  Rh0  1  0.27451762  0.75000000  0.81403685  1
  Rh  Rh1  1  0.72548238  0.25000000  0.18596315  1
  Rh  Rh2  1  0.77451762  0.25000000  0.68596315  1
  Rh  Rh3  1  0.22548238  0.75000000  0.31403685  1
  Rh  Rh4  1  0.51880024  0.75000000  0.57104087  1
  Rh  Rh5  1  0.48119976  0.25000000  0.42895913  1
  Rh  Rh6  1  0.01880024  0.25000000  0.92895913  1
  Rh  Rh7  1  0.98119976  0.75000000  0.07104087  1
loop_
_geom_bond_atom_site_label_1
_geom_bond_atom_site_label_2
_geom_bond_distance
_geom_bond_site_symmetry_2
Ca0 Rh0 3.040840 1_555
Ca0 Rh7 3.074673 1_556
Ca0 Rh0 3.269132 1_655
Ca0 In14 3.298837 1_556
Ca0 In12 3.298837 1_566
Ca0 In2 3.367182 1_655
Ca0 In7 3.367182 1_665
Ca0 In15 3.375988 1_655
Ca0 In10 3.375988 1_655
Ca0 In10 3.434815 1_555
Ca0 In15 3.434815 1_555
Ca0 In0 3.536711 1_555
Ca0 In5 3.536711 1_555
Ca1 Rh1 3.040840 1_555
Ca1 Rh6 3.074673 1_554
Ca1 Rh1 3.269132 1_455
Ca1 In10 3.298837 1_544
Ca1 In15 3.298837 1_554
Ca1 In6 3.367182 1_445
Ca1 In4 3.367182 1_455
Ca1 In12 3.375988 1_455
Ca1 In14 3.375988 1_455
Ca1 In12 3.434815 1_555
Ca1 In14 3.434815 1_555
Ca1 In1 3.536711 1_555
Ca1 In3 3.536711 1_555
Ca2 Rh2 3.040840 1_455
Ca2 Rh5 3.074673 1_555
Ca2 Rh2 3.269132 1_555
Ca2 In9 3.298837 1_545
Ca2 In11 3.298837 1_555
Ca2 In5 3.367182 1_545
Ca2 In0 3.367182 1_555
Ca2 In8 3.375988 1_555
Ca2 In13 3.375988 1_555
Ca2 In8 3.434815 1_455
Ca2 In13 3.434815 1_455
Ca2 In7 3.536711 1_555
Ca2 In2 3.536711 1_555
Ca3 Rh3 3.040840 1_655
Ca3 Rh4 3.074673 1_555
Ca3 Rh3 3.269132 1_555
Ca3 In8 3.298837 1_565
Ca3 In13 3.298837 1_555
Ca3 In1 3.367182 1_555
Ca3 In3 3.367182 1_565
Ca3 In11 3.375988 1_555
Ca3 In9 3.375988 1_555
Ca3 In11 3.434815 1_655
Ca3 In9 3.434815 1_655
Ca3 In4 3.536711 1_555
Ca3 In6 3.536711 1_555
Ca4 Rh4 2.932830 1_555
Ca4 Rh0 3.103892 1_555
Ca4 Rh4 3.187647 1_455
Ca4 In13 3.325069 1_455
Ca4 In8 3.325069 1_465
Ca4 In2 3.351003 1_555
Ca4 In7 3.351003 1_565
Ca4 In11 3.438121 1_555
Ca4 In9 3.438121 1_555
Ca4 In0 3.469713 1_555
Ca4 In5 3.469713 1_555
Ca4 In0 3.473367 1_455
Ca4 In5 3.473367 1_455
Ca5 Rh5 2.932830 1_555
Ca5 Rh1 3.103892 1_555
Ca5 Rh5 3.187647 1_655
Ca5 In9 3.325069 1_645
Ca5 In11 3.325069 1_655
Ca5 In6 3.351003 1_545
Ca5 In4 3.351003 1_555
Ca5 In8 3.438121 1_555
Ca5 In13 3.438121 1_555
Ca5 In1 3.469713 1_555
Ca5 In3 3.469713 1_555
Ca5 In1 3.473367 1_655
Ca5 In3 3.473367 1_655
Ca6 Rh6 2.932830 1_655
Ca6 Rh2 3.103892 1_555
Ca6 Rh6 3.187647 1_555
Ca6 In10 3.325069 1_545
Ca6 In15 3.325069 1_555
Ca6 In5 3.351003 1_545
Ca6 In0 3.351003 1_555
Ca6 In12 3.438121 1_556
Ca6 In14 3.438121 1_556
Ca6 In7 3.469713 1_655
Ca6 In2 3.469713 1_655
Ca6 In2 3.473367 1_555
Ca6 In7 3.473367 1_555
Ca7 Rh7 2.932830 1_455
Ca7 Rh3 3.103892 1_555
Ca7 Rh7 3.187647 1_555
Ca7 In12 3.325069 1_565
Ca7 In14 3.325069 1_555
Ca7 In1 3.351003 1_555
Ca7 In3 3.351003 1_565
Ca7 In10 3.438121 1_554
Ca7 In15 3.438121 1_554
Ca7 In4 3.469713 1_455
Ca7 In6 3.469713 1_455
Ca7 In4 3.473367 1_555
Ca7 In6 3.473367 1_555
In0 Rh0 2.721627 1_555
In0 Rh2 2.740456 1_555
In0 Rh4 2.744904 1_555
In0 In13 3.110141 1_555
In0 In5 3.117873 1_555
In0 In2 3.207298 1_555
In0 In2 3.207298 1_655
In1 Rh1 2.721627 1_555
In1 Rh3 2.740456 1_555
In1 Rh5 2.744904 1_555
In1 In11 3.110141 1_555
In1 In3 3.117873 1_555
In1 In4 3.207298 1_455
In1 In4 3.207298 1_555
In2 Rh2 2.721627 1_455
In2 Rh0 2.740456 1_555
In2 Rh6 2.744904 1_555
In2 In7 3.117873 1_555
In3 Rh1 2.721627 1_555
In3 Rh3 2.740456 1_545
In3 Rh5 2.744904 1_555
In3 In9 3.110141 1_545
In3 In6 3.207298 1_445
In3 In6 3.207298 1_545
In4 Rh3 2.721627 1_655
In4 Rh1 2.740456 1_555
In4 Rh7 2.744904 1_555
In4 In6 3.117873 1_555
In5 Rh0 2.721627 1_555
In5 Rh2 2.740456 1_565
In5 Rh4 2.744904 1_555
In5 In8 3.110141 1_565
In5 In7 3.207298 1_665
In5 In7 3.207298 1_565
In6 Rh3 2.721627 1_655
In6 Rh1 2.740456 1_565
In6 Rh7 2.744904 1_555
In7 Rh2 2.721627 1_455
In7 Rh0 2.740456 1_545
In7 Rh6 2.744904 1_555
In8 Rh4 2.766826 1_545
In8 Rh5 2.784814 1_555
In8 Rh2 2.797345 1_555
In8 In9 3.210167 1_545
In8 In9 3.280862 1_645
In9 Rh5 2.766826 1_565
In9 Rh4 2.784814 1_555
In9 Rh3 2.797345 1_555
In10 Rh6 2.766826 1_565
In10 Rh7 2.784814 1_456
In10 Rh0 2.797345 1_555
In10 In15 3.058717 1_555
In10 In7 3.110141 1_565
In10 In12 3.210167 1_466
In10 In12 3.280862 1_566
In11 Rh5 2.766826 1_555
In11 Rh4 2.784814 1_555
In11 Rh3 2.797345 1_555
In11 In9 3.058717 1_555
In11 In13 3.210167 1_555
In11 In13 3.280862 1_455
In12 Rh7 2.766826 1_545
In12 Rh6 2.784814 1_654
In12 Rh1 2.797345 1_555
In12 In14 3.058717 1_555
In12 In6 3.110141 1_545
In13 Rh4 2.766826 1_555
In13 Rh5 2.784814 1_555
In13 Rh2 2.797345 1_555
In13 In8 3.058717 1_555
In14 Rh7 2.766826 1_555
In14 Rh6 2.784814 1_654
In14 Rh1 2.797345 1_555
In14 In4 3.110141 1_555
In14 In15 3.210167 1_654
In14 In15 3.280862 1_554
In15 Rh6 2.766826 1_555
In15 Rh7 2.784814 1_456
In15 Rh0 2.797345 1_555
In15 In2 3.110141 1_555
