# generated using pymatgen
data_Bi12Br5O16
_symmetry_space_group_name_H-M   'P 1'
_cell_length_a   15.81103239
_cell_length_b   15.81103239
_cell_length_c   10.23275306
_cell_angle_alpha   89.51013876
_cell_angle_beta   89.51013876
_cell_angle_gamma   14.52137034
_symmetry_Int_Tables_number   1
_chemical_formula_structural   Bi12Br5O16
_chemical_formula_sum   'Bi12 Br5 O16'
_cell_volume   641.39021078
_cell_formula_units_Z   1
loop_
 _symmetry_equiv_pos_site_id
 _symmetry_equiv_pos_as_xyz
  1  'x, y, z'
loop_
 _atom_site_type_symbol
 _atom_site_label
 _atom_site_symmetry_multiplicity
 _atom_site_fract_x
 _atom_site_fract_y
 _atom_site_fract_z
 _atom_site_occupancy
  Bi  Bi0  1  0.53128100  0.53128100  0.23165200  1
  Bi  Bi1  1  0.46871900  0.46871900  0.76834800  1
  Bi  Bi2  1  0.82732200  0.82732200  0.23795000  1
  Bi  Bi3  1  0.17267800  0.17267800  0.76205000  1
  Bi  Bi4  1  0.41310200  0.41310200  0.39520600  1
  Bi  Bi5  1  0.58689800  0.58689800  0.60479400  1
  Bi  Bi6  1  0.64867900  0.64867900  0.06746300  1
  Bi  Bi7  1  0.35132100  0.35132100  0.93253700  1
  Bi  Bi8  1  0.70489300  0.70489300  0.44085400  1
  Bi  Bi9  1  0.29510700  0.29510700  0.55914600  1
  Bi  Bi10  1  0.94152700  0.94152700  0.07567000  1
  Bi  Bi11  1  0.05847300  0.05847300  0.92433000  1
  Br  Br0  1  0.22217300  0.22217300  0.18744000  1
  Br  Br1  1  0.77782700  0.77782700  0.81256000  1
  Br  Br2  1  0.00000000  0.00000000  0.50000000  1
  Br  Br3  1  0.88745200  0.88745200  0.65349900  1
  Br  Br4  1  0.11254800  0.11254800  0.34650100  1
  O  O0  1  0.57356500  0.57356500  0.05130600  1
  O  O1  1  0.42643500  0.42643500  0.94869400  1
  O  O2  1  0.86724000  0.86724000  0.02877600  1
  O  O3  1  0.13276000  0.13276000  0.97122400  1
  O  O4  1  0.98138500  0.98138500  0.86789900  1
  O  O5  1  0.01861500  0.01861500  0.13210100  1
  O  O6  1  0.45812500  0.45812500  0.21586700  1
  O  O7  1  0.54187500  0.54187500  0.78413300  1
  O  O8  1  0.77717100  0.77717100  0.46239900  1
  O  O9  1  0.22282900  0.22282900  0.53760100  1
  O  O10  1  0.65860800  0.65860800  0.61407200  1
  O  O11  1  0.34139200  0.34139200  0.38592800  1
  O  O12  1  0.32326100  0.32326100  0.12518100  1
  O  O13  1  0.67673900  0.67673900  0.87481900  1
  O  O14  1  0.89705100  0.89705100  0.29485900  1
  O  O15  1  0.10294900  0.10294900  0.70514100  1
loop_
_geom_bond_atom_site_label_1
_geom_bond_atom_site_label_2
_geom_bond_distance
_geom_bond_site_symmetry_2
Bi0 O0 2.263347 1_555
Bi0 O5 2.279384 1_655
Bi0 O5 2.279384 1_565
Bi0 O6 2.301860 1_555
Bi0 Br4 3.453169 1_565
Bi0 Br4 3.453169 1_655
Bi1 O1 2.263347 1_555
Bi1 O4 2.279384 1_455
Bi1 O4 2.279384 1_545
Bi1 O7 2.301860 1_555
Bi1 Br3 3.453169 1_545
Bi1 Br3 3.453169 1_455
Bi2 O14 2.268331 1_555
Bi2 O12 2.311575 1_655
Bi2 O12 2.311575 1_565
Bi2 O2 2.470455 1_555
Bi2 O11 2.547986 1_655
Bi2 O11 2.547986 1_565
Bi2 O8 2.772640 1_555
Bi3 O15 2.268331 1_555
Bi3 O13 2.311575 1_545
Bi3 O13 2.311575 1_455
Bi3 O3 2.470455 1_555
Bi3 O10 2.547986 1_545
Bi3 O10 2.547986 1_455
Bi3 O9 2.772640 1_555
Bi4 O11 2.252255 1_555
Bi4 O14 2.304309 1_545
Bi4 O14 2.304309 1_455
Bi4 O6 2.306000 1_555
Bi4 Br3 3.404332 1_455
Bi4 Br3 3.404332 1_545
Bi5 O10 2.252255 1_555
Bi5 O15 2.304309 1_655
Bi5 O15 2.304309 1_565
Bi5 O7 2.306000 1_555
Bi5 Br4 3.404332 1_565
Bi5 Br4 3.404332 1_655
Bi6 O13 2.151925 1_554
Bi6 O3 2.284883 1_654
Bi6 O3 2.284883 1_564
Bi6 O0 2.363428 1_555
Bi6 Br0 3.296047 1_655
Bi6 Br0 3.296047 1_565
Bi7 O12 2.151925 1_556
Bi7 O2 2.284883 1_456
Bi7 O2 2.284883 1_546
Bi7 O1 2.363428 1_555
Bi7 Br1 3.296047 1_545
Bi7 Br1 3.296047 1_455
Bi8 O8 2.279836 1_555
Bi8 O10 2.281529 1_555
Bi8 O9 2.302015 1_655
Bi8 O9 2.302015 1_565
Bi8 Br0 3.314652 1_655
Bi8 Br0 3.314652 1_565
Bi9 O9 2.279836 1_555
Bi9 O11 2.281529 1_555
Bi9 O8 2.302015 1_545
Bi9 O8 2.302015 1_455
Bi9 Br1 3.314652 1_545
Bi9 Br1 3.314652 1_455
Bi10 O2 2.383212 1_555
Bi10 O1 2.432280 1_564
Bi10 O1 2.432280 1_654
Bi10 O4 2.457146 1_554
Bi10 O5 2.490961 1_665
Bi10 O6 2.516959 1_565
Bi10 O6 2.516959 1_655
Bi10 O14 2.631183 1_555
Bi11 O3 2.383212 1_555
Bi11 O0 2.432280 1_456
Bi11 O0 2.432280 1_546
Bi11 O5 2.457146 1_556
Bi11 O4 2.490961 1_445
Bi11 O7 2.516959 1_455
Bi11 O7 2.516959 1_545
Bi11 O15 2.631183 1_555
