# generated using pymatgen
data_FeTe2
_symmetry_space_group_name_H-M   'P 1'
_cell_length_a   6.27132600
_cell_length_b   6.27132600
_cell_length_c   6.27132600
_cell_angle_alpha   90.00000000
_cell_angle_beta   90.00000000
_cell_angle_gamma   90.00000000
_symmetry_Int_Tables_number   1
_chemical_formula_structural   FeTe2
_chemical_formula_sum   'Fe4 Te8'
_cell_volume   246.64830279
_cell_formula_units_Z   4
loop_
 _symmetry_equiv_pos_site_id
 _symmetry_equiv_pos_as_xyz
  1  'x, y, z'
loop_
 _atom_site_type_symbol
 _atom_site_label
 _atom_site_symmetry_multiplicity
 _atom_site_fract_x
 _atom_site_fract_y
 _atom_site_fract_z
 _atom_site_occupancy
  Fe  Fe0  1  0.50000000  0.50000000  0.00000000  1
  Fe  Fe1  1  0.50000000  0.00000000  0.50000000  1
  Fe  Fe2  1  0.00000000  0.50000000  0.50000000  1
  Fe  Fe3  1  0.00000000  0.00000000  0.00000000  1
  Te  Te0  1  0.13192900  0.86807100  0.36807100  1
  Te  Te1  1  0.86807100  0.36807100  0.13192900  1
  Te  Te2  1  0.36807100  0.13192900  0.86807100  1
  Te  Te3  1  0.63192900  0.63192900  0.63192900  1
  Te  Te4  1  0.86807100  0.13192900  0.63192900  1
  Te  Te5  1  0.13192900  0.63192900  0.86807100  1
  Te  Te6  1  0.63192900  0.86807100  0.13192900  1
  Te  Te7  1  0.36807100  0.36807100  0.36807100  1
loop_
_geom_bond_atom_site_label_1
_geom_bond_atom_site_label_2
_geom_bond_distance
_geom_bond_site_symmetry_2
Fe0 Te2 2.587914 1_554
Fe0 Te1 2.587914 1_555
Fe0 Te5 2.587914 1_554
Fe0 Te7 2.587914 1_555
Fe0 Te3 2.587914 1_554
Fe0 Te6 2.587914 1_555
Fe1 Te3 2.587914 1_545
Fe1 Te0 2.587914 1_545
Fe1 Te7 2.587914 1_555
Fe1 Te4 2.587914 1_555
Fe1 Te2 2.587914 1_555
Fe1 Te6 2.587914 1_545
Fe2 Te7 2.587914 1_555
Fe2 Te5 2.587914 1_555
Fe2 Te1 2.587914 1_455
Fe2 Te3 2.587914 1_455
Fe2 Te0 2.587914 1_555
Fe2 Te4 2.587914 1_455
Fe3 Te2 2.587914 1_554
Fe3 Te0 2.587914 1_545
Fe3 Te5 2.587914 1_544
Fe3 Te1 2.587914 1_455
Fe3 Te6 2.587914 1_445
Fe3 Te4 2.587914 1_454
