# generated using pymatgen
data_Tm2SnAu2
_symmetry_space_group_name_H-M   'P 1'
_cell_length_a   8.29856400
_cell_length_b   8.29856400
_cell_length_c   3.52040100
_cell_angle_alpha   90.00000000
_cell_angle_beta   90.00000000
_cell_angle_gamma   90.00000000
_symmetry_Int_Tables_number   1
_chemical_formula_structural   Tm2SnAu2
_chemical_formula_sum   'Tm4 Sn2 Au4'
_cell_volume   242.43651424
_cell_formula_units_Z   2
loop_
 _symmetry_equiv_pos_site_id
 _symmetry_equiv_pos_as_xyz
  1  'x, y, z'
loop_
 _atom_site_type_symbol
 _atom_site_label
 _atom_site_symmetry_multiplicity
 _atom_site_fract_x
 _atom_site_fract_y
 _atom_site_fract_z
 _atom_site_occupancy
  Tm  Tm0  1  0.83692400  0.33692400  0.50000000  1
  Tm  Tm1  1  0.16307600  0.66307600  0.50000000  1
  Tm  Tm2  1  0.33692400  0.16307600  0.50000000  1
  Tm  Tm3  1  0.66307600  0.83692400  0.50000000  1
  Sn  Sn0  1  0.00000000  0.00000000  0.50000000  1
  Sn  Sn1  1  0.50000000  0.50000000  0.50000000  1
  Au  Au0  1  0.62866300  0.12866300  0.00000000  1
  Au  Au1  1  0.37133700  0.87133700  0.00000000  1
  Au  Au2  1  0.12866300  0.37133700  0.00000000  1
  Au  Au3  1  0.87133700  0.62866300  0.00000000  1
loop_
_geom_bond_atom_site_label_1
_geom_bond_atom_site_label_2
_geom_bond_distance
_geom_bond_site_symmetry_2
Sn0 Tm0 3.106275 1_455
Sn0 Tm1 3.106275 1_545
Sn0 Tm2 3.106275 1_555
Sn0 Tm3 3.106275 1_445
Sn1 Tm1 3.106275 1_555
Sn1 Tm0 3.106275 1_555
Sn1 Tm3 3.106275 1_555
Sn1 Tm2 3.106275 1_555
Au0 Tm3 3.006854 1_544
Au0 Tm3 3.006854 1_545
Au0 Tm2 3.006854 1_554
Au0 Tm2 3.006854 1_555
Au0 Tm0 3.011996 1_555
Au0 Tm0 3.011996 1_554
Au1 Tm3 3.006854 1_554
Au1 Tm3 3.006854 1_555
Au1 Tm2 3.006854 1_565
Au1 Tm2 3.006854 1_564
Au1 Tm1 3.011996 1_554
Au1 Tm1 3.011996 1_555
Au2 Tm1 3.006854 1_554
Au2 Tm0 3.006854 1_454
Au2 Tm1 3.006854 1_555
Au2 Tm0 3.006854 1_455
Au2 Tm2 3.011996 1_554
Au2 Tm2 3.011996 1_555
Au3 Tm0 3.006854 1_555
Au3 Tm0 3.006854 1_554
Au3 Tm1 3.006854 1_655
Au3 Tm1 3.006854 1_654
Au3 Tm3 3.011996 1_554
Au3 Tm3 3.011996 1_555
