# generated using pymatgen
data_Dy3AlNiS7
_symmetry_space_group_name_H-M   'P 1'
_cell_length_a   9.55393302
_cell_length_b   9.55393302
_cell_length_c   6.19706300
_cell_angle_alpha   90.00000000
_cell_angle_beta   90.00000000
_cell_angle_gamma   120.00000709
_symmetry_Int_Tables_number   1
_chemical_formula_structural   Dy3AlNiS7
_chemical_formula_sum   'Dy6 Al2 Ni2 S14'
_cell_volume   489.87005976
_cell_formula_units_Z   2
loop_
 _symmetry_equiv_pos_site_id
 _symmetry_equiv_pos_as_xyz
  1  'x, y, z'
loop_
 _atom_site_type_symbol
 _atom_site_label
 _atom_site_symmetry_multiplicity
 _atom_site_fract_x
 _atom_site_fract_y
 _atom_site_fract_z
 _atom_site_occupancy
  Dy  Dy0  1  0.77842000  0.15436900  0.72803500  1
  Dy  Dy1  1  0.37594900  0.22158000  0.72803500  1
  Dy  Dy2  1  0.84563100  0.62405100  0.72803500  1
  Dy  Dy3  1  0.22158000  0.84563100  0.22803500  1
  Dy  Dy4  1  0.62405100  0.77842000  0.22803500  1
  Dy  Dy5  1  0.15436900  0.37594900  0.22803500  1
  Al  Al0  1  0.66666700  0.33333300  0.15440400  1
  Al  Al1  1  0.33333300  0.66666700  0.65440400  1
  Ni  Ni0  1  0.00000000  0.00000000  0.55874200  1
  Ni  Ni1  1  0.00000000  0.00000000  0.05874200  1
  S  S0  1  0.86862800  0.09923100  0.32376900  1
  S  S1  1  0.23060300  0.13137200  0.32376900  1
  S  S2  1  0.90076900  0.76939700  0.32376900  1
  S  S3  1  0.13137200  0.90076900  0.82376900  1
  S  S4  1  0.76939700  0.86862800  0.82376900  1
  S  S5  1  0.09923100  0.23060300  0.82376900  1
  S  S6  1  0.91100300  0.43169100  0.99940200  1
  S  S7  1  0.52068800  0.08899700  0.99940200  1
  S  S8  1  0.56830900  0.47931200  0.99940200  1
  S  S9  1  0.08899700  0.56830900  0.49940200  1
  S  S10  1  0.47931200  0.91100300  0.49940200  1
  S  S11  1  0.43169100  0.52068800  0.49940200  1
  S  S12  1  0.66666700  0.33333300  0.51621500  1
  S  S13  1  0.33333300  0.66666700  0.01621500  1
loop_
_geom_bond_atom_site_label_1
_geom_bond_atom_site_label_2
_geom_bond_distance
_geom_bond_site_symmetry_2
Dy0 S4 2.752579 1_545
Dy0 S12 2.758986 1_555
Dy0 S7 2.782700 1_555
Dy0 S0 2.783993 1_555
Dy0 S5 2.836257 1_655
Dy0 S6 2.845411 1_555
Dy0 S10 2.989220 1_545
Dy1 S5 2.752579 1_555
Dy1 S12 2.758994 1_555
Dy1 S8 2.782700 1_555
Dy1 S1 2.783992 1_555
Dy1 S3 2.836257 1_545
Dy1 S7 2.845411 1_555
Dy1 S11 2.989220 1_555
Dy2 S3 2.752579 1_655
Dy2 S12 2.758993 1_555
Dy2 S6 2.782700 1_555
Dy2 S2 2.783992 1_555
Dy2 S4 2.836258 1_555
Dy2 S8 2.845411 1_555
Dy2 S9 2.989220 1_655
Dy3 S1 2.752579 1_565
Dy3 S13 2.758986 1_555
Dy3 S10 2.782700 1_555
Dy3 S3 2.783993 1_554
Dy3 S2 2.836257 1_455
Dy3 S9 2.845411 1_555
Dy3 S7 2.989220 1_564
Dy4 S2 2.752579 1_555
Dy4 S13 2.758994 1_555
Dy4 S11 2.782700 1_555
Dy4 S4 2.783992 1_554
Dy4 S0 2.836257 1_565
Dy4 S10 2.845411 1_555
Dy4 S8 2.989220 1_554
Dy5 S0 2.752579 1_455
Dy5 S13 2.758993 1_555
Dy5 S9 2.782700 1_555
Dy5 S5 2.783992 1_554
Dy5 S1 2.836258 1_555
Dy5 S11 2.845411 1_555
Dy5 S6 2.989220 1_454
Al0 S12 2.242166 1_555
Al0 S6 2.249751 1_554
Al0 S7 2.249752 1_554
Al0 S8 2.249759 1_554
Al1 S13 2.242166 1_556
Al1 S9 2.249751 1_555
Al1 S10 2.249752 1_555
Al1 S11 2.249759 1_555
Ni0 S1 2.405073 1_555
Ni0 S2 2.405073 1_445
Ni0 S0 2.405074 1_455
Ni0 S4 2.522195 1_445
Ni0 S5 2.522195 1_555
Ni0 S3 2.522195 1_545
Ni1 S4 2.405073 1_444
Ni1 S5 2.405073 1_554
Ni1 S3 2.405074 1_544
Ni1 S1 2.522195 1_555
Ni1 S2 2.522195 1_445
Ni1 S0 2.522195 1_455
