# generated using pymatgen
data_Ti(CrTe2)2
_symmetry_space_group_name_H-M   'P 1'
_cell_length_a   7.41259598
_cell_length_b   7.41259598
_cell_length_c   7.07828012
_cell_angle_alpha   62.18007529
_cell_angle_beta   62.18007529
_cell_angle_gamma   30.97819703
_symmetry_Int_Tables_number   1
_chemical_formula_structural   Ti(CrTe2)2
_chemical_formula_sum   'Ti1 Cr2 Te4'
_cell_volume   175.14458935
_cell_formula_units_Z   1
loop_
 _symmetry_equiv_pos_site_id
 _symmetry_equiv_pos_as_xyz
  1  'x, y, z'
loop_
 _atom_site_type_symbol
 _atom_site_label
 _atom_site_symmetry_multiplicity
 _atom_site_fract_x
 _atom_site_fract_y
 _atom_site_fract_z
 _atom_site_occupancy
  Ti  Ti0  1  0.00000000  0.00000000  0.00000000  1
  Cr  Cr0  1  0.74121000  0.74121000  0.27552600  1
  Cr  Cr1  1  0.25879000  0.25879000  0.72447400  1
  Te  Te0  1  0.87762700  0.87762700  0.44869000  1
  Te  Te1  1  0.12237300  0.12237300  0.55131000  1
  Te  Te2  1  0.63393400  0.63393400  0.03058000  1
  Te  Te3  1  0.36606600  0.36606600  0.96942000  1
loop_
_geom_bond_atom_site_label_1
_geom_bond_atom_site_label_2
_geom_bond_distance
_geom_bond_site_symmetry_2
Cr0 Te1 2.720619 1_565
Cr0 Te1 2.720619 1_655
Cr0 Te0 2.759444 1_555
Cr0 Te2 2.815799 1_555
Cr0 Te3 2.837562 1_654
Cr0 Te3 2.837562 1_564
Cr1 Te0 2.720619 1_455
Cr1 Te0 2.720619 1_545
Cr1 Te1 2.759444 1_555
Cr1 Te3 2.815799 1_555
Cr1 Te2 2.837562 1_546
Cr1 Te2 2.837562 1_456
Te0 Ti0 2.786622 1_665
Te1 Ti0 2.786622 1_556
Te2 Ti0 2.833396 1_565
Te2 Ti0 2.833396 1_655
Te3 Ti0 2.833396 1_566
Te3 Ti0 2.833396 1_656
