# generated using pymatgen
data_Eu2Sc2O5
_symmetry_space_group_name_H-M   'P 1'
_cell_length_a   8.84783662
_cell_length_b   8.84783662
_cell_length_c   8.84783662
_cell_angle_alpha   142.01053113
_cell_angle_beta   140.45213504
_cell_angle_gamma   55.99834609
_symmetry_Int_Tables_number   1
_chemical_formula_structural   Eu2Sc2O5
_chemical_formula_sum   'Eu4 Sc4 O10'
_cell_volume   269.37055664
_cell_formula_units_Z   2
loop_
 _symmetry_equiv_pos_site_id
 _symmetry_equiv_pos_as_xyz
  1  'x, y, z'
loop_
 _atom_site_type_symbol
 _atom_site_label
 _atom_site_symmetry_multiplicity
 _atom_site_fract_x
 _atom_site_fract_y
 _atom_site_fract_z
 _atom_site_occupancy
  Eu  Eu0  1  0.13513800  0.61201000  0.53312400  1
  Eu  Eu1  1  0.86486200  0.39798700  0.47687200  1
  Eu  Eu2  1  0.57888500  0.11201000  0.47687200  1
  Eu  Eu3  1  0.42111500  0.89798700  0.53312400  1
  Sc  Sc0  1  0.00000000  0.99842800  0.99842800  1
  Sc  Sc1  1  0.50000000  0.49842800  0.99842800  1
  Sc  Sc2  1  0.18054100  0.29537600  0.97591700  1
  Sc  Sc3  1  0.81945900  0.79537600  0.11483600  1
  O  O0  1  0.24175700  0.73883500  0.00649400  1
  O  O1  1  0.75824300  0.76473700  0.49707800  1
  O  O2  1  0.23234100  0.23883500  0.49707800  1
  O  O3  1  0.76765900  0.26473700  0.00649400  1
  O  O4  1  0.20766100  0.11453200  0.04553600  1
  O  O5  1  0.79233900  0.83787500  0.90687100  1
  O  O6  1  0.56899600  0.61453200  0.90687100  1
  O  O7  1  0.43100400  0.33787500  0.04553600  1
  O  O8  1  0.12791400  0.64704200  0.27495600  1
  O  O9  1  0.87208600  0.14704200  0.51912800  1
loop_
_geom_bond_atom_site_label_1
_geom_bond_atom_site_label_2
_geom_bond_distance
_geom_bond_site_symmetry_2
Eu0 O6 2.464622 1_555
Eu0 O8 2.487277 1_555
Eu0 O3 2.639336 1_455
Eu0 O1 2.654668 1_455
Eu0 O2 2.707470 1_555
Eu0 O0 2.715436 1_556
Eu0 O4 2.768727 1_566
Eu0 O4 3.094553 1_555
Eu1 O7 2.464621 1_555
Eu1 O9 2.487285 1_555
Eu1 O2 2.639335 1_655
Eu1 O0 2.654664 1_656
Eu1 O3 2.707464 1_555
Eu1 O1 2.715427 1_555
Eu1 O5 2.768726 1_555
Eu1 O5 3.094557 1_544
Eu2 O4 2.464621 1_555
Eu2 O9 2.487285 1_555
Eu2 O1 2.639335 1_545
Eu2 O3 2.654664 1_556
Eu2 O0 2.707464 1_545
Eu2 O2 2.715427 1_555
Eu2 O6 2.768726 1_555
Eu2 O6 3.094557 1_544
Eu3 O5 2.464625 1_555
Eu3 O8 2.487291 1_555
Eu3 O0 2.639328 1_555
Eu3 O2 2.654659 1_565
Eu3 O1 2.707459 1_555
Eu3 O3 2.715425 1_566
Eu3 O7 2.768730 1_566
Eu3 O7 3.094555 1_555
O0 Sc1 2.080082 1_554
O0 Sc0 2.093819 1_554
O1 Sc1 2.080082 1_554
O1 Sc0 2.093819 1_655
O2 Sc0 2.080082 1_544
O2 Sc1 2.093819 1_555
O3 Sc0 2.080082 1_644
O3 Sc1 2.093819 1_554
O4 Sc2 1.973187 1_554
O4 Sc0 2.204524 1_544
O5 Sc3 1.973195 1_556
O5 Sc0 2.204524 1_655
O6 Sc3 1.973181 1_556
O6 Sc1 2.204524 1_555
O7 Sc2 1.973187 1_554
O7 Sc1 2.204524 1_554
O8 Sc3 2.034660 1_455
O8 Sc2 2.049816 1_554
O9 Sc2 2.034662 1_655
O9 Sc3 2.049813 1_545
