# generated using pymatgen
data_Cr2CoSe3S
_symmetry_space_group_name_H-M   'P 1'
_cell_length_a   3.63464100
_cell_length_b   6.25847848
_cell_length_c   6.54021361
_cell_angle_alpha   118.35949899
_cell_angle_beta   73.86695369
_cell_angle_gamma   90.00000000
_symmetry_Int_Tables_number   1
_chemical_formula_structural   Cr2CoSe3S
_chemical_formula_sum   'Cr2 Co1 Se3 S1'
_cell_volume   124.21927889
_cell_formula_units_Z   1
loop_
 _symmetry_equiv_pos_site_id
 _symmetry_equiv_pos_as_xyz
  1  'x, y, z'
loop_
 _atom_site_type_symbol
 _atom_site_label
 _atom_site_symmetry_multiplicity
 _atom_site_fract_x
 _atom_site_fract_y
 _atom_site_fract_z
 _atom_site_occupancy
  Cr  Cr0  1  0.25776400  0.71671300  0.48447100  1
  Cr  Cr1  1  0.73387700  0.29508100  0.53224600  1
  Co  Co0  1  0.00244000  0.98716700  0.99512100  1
  Se  Se0  1  0.88736200  0.43975300  0.22527700  1
  Se  Se1  1  0.37026300  0.97030800  0.25947400  1
  Se  Se2  1  0.62625400  0.03114800  0.74749200  1
  S  S0  1  0.12204000  0.55983000  0.75592000  1
loop_
_geom_bond_atom_site_label_1
_geom_bond_atom_site_label_2
_geom_bond_distance
_geom_bond_site_symmetry_2
Cr0 S0 2.351265 1_555
Cr0 Se0 2.483439 1_455
Cr0 Se0 2.483444 1_555
Cr0 Se2 2.586491 1_465
Cr0 Se2 2.586494 1_565
Cr0 Se1 2.595357 1_555
Cr1 S0 2.391681 1_555
Cr1 S0 2.391681 1_655
Cr1 Se0 2.503220 1_555
Cr1 Se2 2.601224 1_555
Cr1 Se1 2.631751 1_645
Cr1 Se1 2.631752 1_545
Co0 S0 2.331621 1_555
Co0 Se0 2.462404 1_466
Co0 Se2 2.494458 1_565
Co0 Se2 2.494461 1_465
Co0 Se1 2.499093 1_556
Co0 Se1 2.499095 1_456
