# generated using pymatgen
data_Mg30TiFeO32
_symmetry_space_group_name_H-M   'P 1'
_cell_length_a   8.51455500
_cell_length_b   8.55440200
_cell_length_c   8.55440200
_cell_angle_alpha   90.00000000
_cell_angle_beta   90.00000000
_cell_angle_gamma   90.00000000
_symmetry_Int_Tables_number   1
_chemical_formula_structural   Mg30TiFeO32
_chemical_formula_sum   'Mg30 Ti1 Fe1 O32'
_cell_volume   623.07634820
_cell_formula_units_Z   1
loop_
 _symmetry_equiv_pos_site_id
 _symmetry_equiv_pos_as_xyz
  1  'x, y, z'
loop_
 _atom_site_type_symbol
 _atom_site_label
 _atom_site_symmetry_multiplicity
 _atom_site_fract_x
 _atom_site_fract_y
 _atom_site_fract_z
 _atom_site_occupancy
  Mg  Mg0  1  0.00000000  0.00000000  0.50000000  1
  Mg  Mg1  1  0.00000000  0.50000000  0.00000000  1
  Mg  Mg2  1  0.50000000  0.00000000  0.00000000  1
  Mg  Mg3  1  0.50000000  0.00000000  0.50000000  1
  Mg  Mg4  1  0.50000000  0.50000000  0.00000000  1
  Mg  Mg5  1  0.50000000  0.50000000  0.50000000  1
  Mg  Mg6  1  0.00000000  0.24942600  0.24942600  1
  Mg  Mg7  1  0.00000000  0.24942600  0.75057400  1
  Mg  Mg8  1  0.00000000  0.75057400  0.24942600  1
  Mg  Mg9  1  0.00000000  0.75057400  0.75057400  1
  Mg  Mg10  1  0.50000000  0.24992800  0.24992800  1
  Mg  Mg11  1  0.50000000  0.24992800  0.75007200  1
  Mg  Mg12  1  0.50000000  0.75007200  0.24992800  1
  Mg  Mg13  1  0.50000000  0.75007200  0.75007200  1
  Mg  Mg14  1  0.25012900  0.00000000  0.25105800  1
  Mg  Mg15  1  0.25012900  0.00000000  0.74894200  1
  Mg  Mg16  1  0.25050200  0.50000000  0.24866800  1
  Mg  Mg17  1  0.25050200  0.50000000  0.75133200  1
  Mg  Mg18  1  0.74987100  0.00000000  0.25105800  1
  Mg  Mg19  1  0.74987100  0.00000000  0.74894200  1
  Mg  Mg20  1  0.74949800  0.50000000  0.24866800  1
  Mg  Mg21  1  0.74949800  0.50000000  0.75133200  1
  Mg  Mg22  1  0.25012900  0.25105800  0.00000000  1
  Mg  Mg23  1  0.25050200  0.24866800  0.50000000  1
  Mg  Mg24  1  0.25012900  0.74894200  0.00000000  1
  Mg  Mg25  1  0.25050200  0.75133200  0.50000000  1
  Mg  Mg26  1  0.74987100  0.25105800  0.00000000  1
  Mg  Mg27  1  0.74949800  0.24866800  0.50000000  1
  Mg  Mg28  1  0.74987100  0.74894200  0.00000000  1
  Mg  Mg29  1  0.74949800  0.75133200  0.50000000  1
  Ti  Ti0  1  0.00000000  0.50000000  0.50000000  1
  Fe  Fe0  1  0.00000000  0.00000000  0.00000000  1
  O  O0  1  0.25179000  0.00000000  0.00000000  1
  O  O1  1  0.25146200  0.00000000  0.50000000  1
  O  O2  1  0.25146200  0.50000000  0.00000000  1
  O  O3  1  0.25331900  0.50000000  0.50000000  1
  O  O4  1  0.74821000  0.00000000  0.00000000  1
  O  O5  1  0.74853800  0.00000000  0.50000000  1
  O  O6  1  0.74853800  0.50000000  0.00000000  1
  O  O7  1  0.74668100  0.50000000  0.50000000  1
  O  O8  1  0.24996100  0.24989300  0.24989300  1
  O  O9  1  0.24996100  0.24989300  0.75010700  1
  O  O10  1  0.24996100  0.75010700  0.24989300  1
  O  O11  1  0.24996100  0.75010700  0.75010700  1
  O  O12  1  0.75003900  0.24989300  0.24989300  1
  O  O13  1  0.75003900  0.24989300  0.75010700  1
  O  O14  1  0.75003900  0.75010700  0.24989300  1
  O  O15  1  0.75003900  0.75010700  0.75010700  1
  O  O16  1  0.00000000  0.00000000  0.25528500  1
  O  O17  1  0.00000000  0.00000000  0.74471500  1
  O  O18  1  0.00000000  0.50000000  0.24454700  1
  O  O19  1  0.00000000  0.50000000  0.75545300  1
  O  O20  1  0.50000000  0.00000000  0.24996100  1
  O  O21  1  0.50000000  0.00000000  0.75003900  1
  O  O22  1  0.50000000  0.50000000  0.24992300  1
  O  O23  1  0.50000000  0.50000000  0.75007700  1
  O  O24  1  0.00000000  0.25528500  0.00000000  1
  O  O25  1  0.00000000  0.24454700  0.50000000  1
  O  O26  1  0.00000000  0.74471500  0.00000000  1
  O  O27  1  0.00000000  0.75545300  0.50000000  1
  O  O28  1  0.50000000  0.24996100  0.00000000  1
  O  O29  1  0.50000000  0.24992300  0.50000000  1
  O  O30  1  0.50000000  0.75003900  0.00000000  1
  O  O31  1  0.50000000  0.75007700  0.50000000  1
loop_
_geom_bond_atom_site_label_1
_geom_bond_atom_site_label_2
_geom_bond_distance
_geom_bond_site_symmetry_2
Mg0 O27 2.091953 1_545
Mg0 O25 2.091953 1_555
Mg0 O16 2.093390 1_555
Mg0 O17 2.093390 1_555
Mg0 O5 2.141087 1_455
Mg0 O1 2.141087 1_555
Mg1 O19 2.091953 1_554
Mg1 O18 2.091953 1_555
Mg1 O24 2.093390 1_555
Mg1 O26 2.093390 1_555
Mg1 O6 2.141087 1_455
Mg1 O2 2.141087 1_555
Mg2 O0 2.113398 1_555
Mg2 O4 2.113398 1_555
Mg2 O21 2.138267 1_554
Mg2 O20 2.138267 1_555
Mg2 O28 2.138267 1_555
Mg2 O30 2.138267 1_545
Mg3 O1 2.116190 1_555
Mg3 O5 2.116190 1_555
Mg3 O31 2.137942 1_545
Mg3 O29 2.137942 1_555
Mg3 O21 2.138934 1_555
Mg3 O20 2.138934 1_555
Mg4 O2 2.116190 1_555
Mg4 O6 2.116190 1_555
Mg4 O23 2.137942 1_554
Mg4 O22 2.137942 1_555
Mg4 O28 2.138934 1_555
Mg4 O30 2.138934 1_555
Mg5 O3 2.100379 1_555
Mg5 O7 2.100379 1_555
Mg5 O31 2.139259 1_555
Mg5 O23 2.139259 1_555
Mg5 O22 2.139259 1_555
Mg5 O29 2.139259 1_555
Mg6 O8 2.128314 1_555
Mg6 O12 2.128314 1_455
Mg6 O24 2.134279 1_555
Mg6 O16 2.134279 1_555
Mg6 O25 2.143917 1_555
Mg6 O18 2.143917 1_555
Mg7 O9 2.128314 1_555
Mg7 O13 2.128314 1_455
Mg7 O17 2.134279 1_555
Mg7 O24 2.134279 1_556
Mg7 O25 2.143917 1_555
Mg7 O19 2.143917 1_555
Mg8 O10 2.128314 1_555
Mg8 O14 2.128314 1_455
Mg8 O26 2.134279 1_555
Mg8 O16 2.134279 1_565
Mg8 O27 2.143917 1_555
Mg8 O18 2.143917 1_555
Mg9 O15 2.128314 1_455
Mg9 O11 2.128314 1_555
Mg9 O17 2.134279 1_565
Mg9 O26 2.134279 1_556
Mg9 O27 2.143917 1_555
Mg9 O19 2.143917 1_555
Mg10 O8 2.128971 1_555
Mg10 O12 2.128971 1_555
Mg10 O20 2.137985 1_555
Mg10 O28 2.137985 1_555
Mg10 O22 2.139216 1_555
Mg10 O29 2.139216 1_555
Mg11 O9 2.128971 1_555
Mg11 O13 2.128971 1_555
Mg11 O21 2.137985 1_555
Mg11 O28 2.137985 1_556
Mg11 O23 2.139216 1_555
Mg11 O29 2.139216 1_555
Mg12 O14 2.128971 1_555
Mg12 O10 2.128971 1_555
Mg12 O30 2.137985 1_555
Mg12 O20 2.137985 1_565
Mg12 O22 2.139216 1_555
Mg12 O31 2.139216 1_555
Mg13 O11 2.128971 1_555
Mg13 O15 2.128971 1_555
Mg13 O21 2.137985 1_565
Mg13 O30 2.137985 1_556
Mg13 O23 2.139216 1_555
Mg13 O31 2.139216 1_555
Mg14 O20 2.127561 1_555
Mg14 O1 2.129580 1_555
Mg14 O16 2.130044 1_555
Mg14 O8 2.137709 1_555
Mg14 O10 2.137709 1_545
Mg14 O0 2.147698 1_555
Mg15 O21 2.127561 1_555
Mg15 O1 2.129580 1_555
Mg15 O17 2.130044 1_555
Mg15 O9 2.137709 1_555
Mg15 O11 2.137709 1_545
Mg15 O0 2.147698 1_556
Mg16 O22 2.124392 1_555
Mg16 O2 2.127222 1_555
Mg16 O18 2.133204 1_555
Mg16 O10 2.139546 1_555
Mg16 O8 2.139546 1_555
Mg16 O3 2.150129 1_555
Mg17 O23 2.124392 1_555
Mg17 O2 2.127222 1_556
Mg17 O19 2.133204 1_555
Mg17 O11 2.139546 1_555
Mg17 O9 2.139546 1_555
Mg17 O3 2.150129 1_555
Mg18 O20 2.127561 1_555
Mg18 O5 2.129580 1_555
Mg18 O16 2.130044 1_655
Mg18 O14 2.137709 1_545
Mg18 O12 2.137709 1_555
Mg18 O4 2.147698 1_555
Mg19 O21 2.127561 1_555
Mg19 O5 2.129580 1_555
Mg19 O17 2.130044 1_655
Mg19 O15 2.137709 1_545
Mg19 O13 2.137709 1_555
Mg19 O4 2.147698 1_556
Mg20 O22 2.124392 1_555
Mg20 O6 2.127222 1_555
Mg20 O18 2.133204 1_655
Mg20 O12 2.139546 1_555
Mg20 O14 2.139546 1_555
Mg20 O7 2.150129 1_555
Mg21 O23 2.124392 1_555
Mg21 O6 2.127222 1_556
Mg21 O19 2.133204 1_655
Mg21 O15 2.139546 1_555
Mg21 O13 2.139546 1_555
Mg21 O7 2.150129 1_555
Mg22 O28 2.127561 1_555
Mg22 O2 2.129580 1_555
Mg22 O24 2.130044 1_555
Mg22 O9 2.137709 1_554
Mg22 O8 2.137709 1_555
Mg22 O0 2.147698 1_555
Mg23 O29 2.124392 1_555
Mg23 O1 2.127222 1_555
Mg23 O25 2.133204 1_555
Mg23 O8 2.139546 1_555
Mg23 O9 2.139546 1_555
Mg23 O3 2.150129 1_555
Mg24 O30 2.127561 1_555
Mg24 O2 2.129580 1_555
Mg24 O26 2.130044 1_555
Mg24 O10 2.137709 1_555
Mg24 O11 2.137709 1_554
Mg24 O0 2.147698 1_565
Mg25 O31 2.124392 1_555
Mg25 O1 2.127222 1_565
Mg25 O27 2.133204 1_555
Mg25 O10 2.139546 1_555
Mg25 O11 2.139546 1_555
Mg25 O3 2.150129 1_555
Mg26 O28 2.127561 1_555
Mg26 O6 2.129580 1_555
Mg26 O24 2.130044 1_655
Mg26 O13 2.137709 1_554
Mg26 O12 2.137709 1_555
Mg26 O4 2.147698 1_555
Mg27 O29 2.124392 1_555
Mg27 O5 2.127222 1_555
Mg27 O25 2.133204 1_655
Mg27 O12 2.139546 1_555
Mg27 O13 2.139546 1_555
Mg27 O7 2.150129 1_555
Mg28 O30 2.127561 1_555
Mg28 O6 2.129580 1_555
Mg28 O26 2.130044 1_655
Mg28 O15 2.137709 1_554
Mg28 O14 2.137709 1_555
Mg28 O4 2.147698 1_565
Mg29 O31 2.124392 1_555
Mg29 O5 2.127222 1_565
Mg29 O27 2.133204 1_655
Mg29 O14 2.139546 1_555
Mg29 O15 2.139546 1_555
Mg29 O7 2.150129 1_555
Fe0 O4 2.143880 1_455
Fe0 O0 2.143880 1_555
Fe0 O17 2.183811 1_554
Fe0 O26 2.183811 1_545
Fe0 O24 2.183811 1_555
Fe0 O16 2.183811 1_555
O3 Ti0 2.156899 1_555
O7 Ti0 2.156899 1_655
O18 Ti0 2.185248 1_555
O19 Ti0 2.185248 1_555
O25 Ti0 2.185248 1_555
O27 Ti0 2.185248 1_555
