# generated using pymatgen
data_Li7Mn4CoO12
_symmetry_space_group_name_H-M   'P 1'
_cell_length_a   7.96959290
_cell_length_b   7.96959290
_cell_length_c   11.73099963
_cell_angle_alpha   56.12537782
_cell_angle_beta   56.12537782
_cell_angle_gamma   20.80798046
_symmetry_Int_Tables_number   1
_chemical_formula_structural   Li7Mn4CoO12
_chemical_formula_sum   'Li7 Mn4 Co1 O12'
_cell_volume   218.07955507
_cell_formula_units_Z   1
loop_
 _symmetry_equiv_pos_site_id
 _symmetry_equiv_pos_as_xyz
  1  'x, y, z'
loop_
 _atom_site_type_symbol
 _atom_site_label
 _atom_site_symmetry_multiplicity
 _atom_site_fract_x
 _atom_site_fract_y
 _atom_site_fract_z
 _atom_site_occupancy
  Li  Li0  1  0.66573700  0.66573700  0.75009400  1
  Li  Li1  1  0.00071500  0.00071500  0.25028200  1
  Li  Li2  1  0.33316000  0.33316000  0.75578400  1
  Li  Li3  1  0.67352600  0.67352600  0.24332700  1
  Li  Li4  1  0.99562800  0.99562800  0.75381600  1
  Li  Li5  1  0.33206000  0.33206000  0.24621800  1
  Li  Li6  1  0.33348200  0.33348200  0.99971400  1
  Mn  Mn0  1  0.99417100  0.99417100  0.00329500  1
  Mn  Mn1  1  0.67221200  0.67221200  0.99708600  1
  Mn  Mn2  1  0.33107100  0.33107100  0.50101800  1
  Mn  Mn3  1  0.00177900  0.00177900  0.49963500  1
  Co  Co0  1  0.66711500  0.66711500  0.49926800  1
  O  O0  1  0.50262500  0.50262500  0.88658800  1
  O  O1  1  0.83606400  0.83606400  0.38359900  1
  O  O2  1  0.15694500  0.15694500  0.89328900  1
  O  O3  1  0.50635600  0.50635600  0.38145500  1
  O  O4  1  0.81325900  0.81325900  0.88688800  1
  O  O5  1  0.17163500  0.17163500  0.38434100  1
  O  O6  1  0.82746400  0.82746400  0.61768100  1
  O  O7  1  0.16434200  0.16434200  0.11332600  1
  O  O8  1  0.49717700  0.49717700  0.61796100  1
  O  O9  1  0.85297600  0.85297600  0.11330400  1
  O  O10  1  0.16114700  0.16114700  0.61497400  1
  O  O11  1  0.50936400  0.50936400  0.10705700  1
loop_
_geom_bond_atom_site_label_1
_geom_bond_atom_site_label_2
_geom_bond_distance
_geom_bond_site_symmetry_2
Li0 O6 2.092247 1_555
Li0 O0 2.112372 1_555
Li0 O2 2.156317 1_565
Li0 O2 2.156317 1_655
Li0 O10 2.172164 1_655
Li0 O10 2.172164 1_565
Li1 O7 2.119068 1_555
Li1 O1 2.129173 1_445
Li1 O3 2.145054 1_455
Li1 O3 2.145054 1_545
Li1 O11 2.157425 1_545
Li1 O11 2.157425 1_455
Li2 O4 1.997551 1_545
Li2 O4 1.997551 1_455
Li2 O8 2.124586 1_555
Li2 O6 2.206342 1_545
Li2 O6 2.206342 1_455
Li2 O2 2.276635 1_555
Li3 O7 2.160248 1_565
Li3 O7 2.160248 1_655
Li3 O3 2.163535 1_555
Li3 O5 2.180164 1_655
Li3 O5 2.180164 1_565
Li3 O9 2.318950 1_555
Li4 O8 2.137283 1_565
Li4 O8 2.137283 1_655
Li4 O10 2.143829 1_665
Li4 O0 2.168630 1_655
Li4 O0 2.168630 1_565
Li4 O4 2.356370 1_555
Li5 O9 2.007617 1_545
Li5 O9 2.007617 1_455
Li5 O5 2.081344 1_555
Li5 O1 2.187974 1_545
Li5 O1 2.187974 1_455
Li5 O11 2.290921 1_555
Li6 O4 2.097438 1_455
Li6 O4 2.097438 1_545
Li6 O9 2.098070 1_546
Li6 O9 2.098070 1_456
Li6 O7 2.191347 1_556
Li6 O0 2.191837 1_555
Mn0 O9 1.824149 1_555
Mn0 O0 1.938464 1_564
Mn0 O0 1.938464 1_654
Mn0 O11 1.984517 1_565
Mn0 O11 1.984517 1_655
Mn0 O2 2.108275 1_664
Mn1 O4 1.822311 1_555
Mn1 O7 1.937860 1_656
Mn1 O7 1.937860 1_566
Mn1 O2 1.985339 1_565
Mn1 O2 1.985339 1_655
Mn1 O11 2.109307 1_556
Mn2 O1 1.962803 1_455
Mn2 O1 1.962803 1_545
Mn2 O6 1.964639 1_545
Mn2 O6 1.964639 1_455
Mn2 O10 2.201671 1_555
Mn2 O3 2.269402 1_555
Mn3 O3 1.971230 1_455
Mn3 O3 1.971230 1_545
Mn3 O8 1.972258 1_545
Mn3 O8 1.972258 1_455
Mn3 O5 2.199576 1_555
Mn3 O6 2.257550 1_445
Co0 O10 1.943846 1_565
Co0 O10 1.943846 1_655
Co0 O5 1.945696 1_655
Co0 O5 1.945696 1_565
Co0 O1 2.187034 1_555
Co0 O8 2.198195 1_555
