# generated using pymatgen
data_Ho2CdPd2
_symmetry_space_group_name_H-M   'P 1'
_cell_length_a   7.67014499
_cell_length_b   7.67014499
_cell_length_c   3.65393564
_cell_angle_alpha   90.00000000
_cell_angle_beta   90.00000000
_cell_angle_gamma   90.00000000
_symmetry_Int_Tables_number   1
_chemical_formula_structural   Ho2CdPd2
_chemical_formula_sum   'Ho4 Cd2 Pd4'
_cell_volume   214.96514134
_cell_formula_units_Z   2
loop_
 _symmetry_equiv_pos_site_id
 _symmetry_equiv_pos_as_xyz
  1  'x, y, z'
loop_
 _atom_site_type_symbol
 _atom_site_label
 _atom_site_symmetry_multiplicity
 _atom_site_fract_x
 _atom_site_fract_y
 _atom_site_fract_z
 _atom_site_occupancy
  Ho  Ho0  1  0.67254813  0.17254813  0.50000000  1
  Ho  Ho1  1  0.32745187  0.82745187  0.50000000  1
  Ho  Ho2  1  0.17254813  0.32745187  0.50000000  1
  Ho  Ho3  1  0.82745187  0.67254813  0.50000000  1
  Cd  Cd0  1  0.00000000  0.00000000  0.00000000  1
  Cd  Cd1  1  0.50000000  0.50000000  0.00000000  1
  Pd  Pd0  1  0.12844545  0.62844545  -0.00000000  1
  Pd  Pd1  1  0.87155455  0.37155455  0.00000000  1
  Pd  Pd2  1  0.62844545  0.87155455  -0.00000000  1
  Pd  Pd3  1  0.37155455  0.12844545  0.00000000  1
loop_
_geom_bond_atom_site_label_1
_geom_bond_atom_site_label_2
_geom_bond_distance
_geom_bond_site_symmetry_2
Ho0 Pd1 2.828013 1_556
Ho0 Pd1 2.828013 1_555
Ho0 Pd2 2.963473 1_545
Ho0 Pd2 2.963473 1_546
Ho0 Pd3 2.963473 1_555
Ho0 Pd3 2.963473 1_556
Ho1 Pd0 2.828013 1_556
Ho1 Pd0 2.828013 1_555
Ho1 Pd2 2.963473 1_556
Ho1 Pd2 2.963473 1_555
Ho1 Pd3 2.963473 1_566
Ho1 Pd3 2.963473 1_565
Ho2 Pd3 2.828013 1_555
Ho2 Pd3 2.828013 1_556
Ho2 Pd1 2.963473 1_455
Ho2 Pd0 2.963473 1_555
Ho2 Pd0 2.963473 1_556
Ho2 Pd1 2.963473 1_456
Ho3 Pd2 2.828013 1_556
Ho3 Pd2 2.828013 1_555
Ho3 Pd1 2.963473 1_556
Ho3 Pd1 2.963473 1_555
Ho3 Pd0 2.963473 1_655
Ho3 Pd0 2.963473 1_656
Cd0 Pd3 3.015362 1_555
Cd0 Pd1 3.015362 1_455
Cd0 Pd2 3.015362 1_445
Cd0 Pd0 3.015362 1_545
Cd0 Ho3 3.376023 1_444
Cd0 Ho0 3.376023 1_454
Cd0 Ho3 3.376023 1_445
Cd0 Ho2 3.376023 1_554
Cd0 Ho2 3.376023 1_555
Cd0 Ho0 3.376023 1_455
Cd0 Ho1 3.376023 1_544
Cd0 Ho1 3.376023 1_545
Cd1 Pd0 3.015362 1_555
Cd1 Pd3 3.015362 1_555
Cd1 Pd2 3.015362 1_555
Cd1 Pd1 3.015362 1_555
Cd1 Ho1 3.376023 1_555
Cd1 Ho1 3.376023 1_554
Cd1 Ho3 3.376023 1_554
Cd1 Ho0 3.376023 1_555
Cd1 Ho2 3.376023 1_554
Cd1 Ho2 3.376023 1_555
Cd1 Ho3 3.376023 1_555
Cd1 Ho0 3.376023 1_554
Pd0 Pd1 2.786553 1_455
Pd2 Pd3 2.786553 1_565
