# generated using pymatgen
data_NiSO5
_symmetry_space_group_name_H-M   'P 1'
_cell_length_a   5.20537529
_cell_length_b   5.20537529
_cell_length_c   7.30810600
_cell_angle_alpha   107.55286515
_cell_angle_beta   107.55286515
_cell_angle_gamma   97.83291521
_symmetry_Int_Tables_number   1
_chemical_formula_structural   NiSO5
_chemical_formula_sum   'Ni2 S2 O10'
_cell_volume   174.29438517
_cell_formula_units_Z   2
loop_
 _symmetry_equiv_pos_site_id
 _symmetry_equiv_pos_as_xyz
  1  'x, y, z'
loop_
 _atom_site_type_symbol
 _atom_site_label
 _atom_site_symmetry_multiplicity
 _atom_site_fract_x
 _atom_site_fract_y
 _atom_site_fract_z
 _atom_site_occupancy
  Ni  Ni0  1  0.00000000  0.00000000  0.50000000  1
  Ni  Ni1  1  0.00000000  0.00000000  0.00000000  1
  S  S0  1  0.65922400  0.34077600  0.75000000  1
  S  S1  1  0.34077600  0.65922400  0.25000000  1
  O  O0  1  0.07933900  0.92066100  0.75000000  1
  O  O1  1  0.92066100  0.07933900  0.25000000  1
  O  O2  1  0.66724900  0.13384700  0.85425300  1
  O  O3  1  0.86615300  0.33275100  0.64574700  1
  O  O4  1  0.33275100  0.86615300  0.14574700  1
  O  O5  1  0.13384700  0.66724900  0.35425300  1
  O  O6  1  0.37494000  0.27722600  0.59822600  1
  O  O7  1  0.72277400  0.62506000  0.90177400  1
  O  O8  1  0.62506000  0.72277400  0.40177400  1
  O  O9  1  0.27722600  0.37494000  0.09822600  1
loop_
_geom_bond_atom_site_label_1
_geom_bond_atom_site_label_2
_geom_bond_distance
_geom_bond_site_symmetry_2
Ni0 O1 1.930191 1_455
Ni0 O0 1.930191 1_545
Ni0 O8 2.041894 1_445
Ni0 O6 2.041894 1_555
Ni0 O3 2.069743 1_455
Ni0 O5 2.069743 1_545
Ni1 O0 1.930191 1_544
Ni1 O1 1.930191 1_455
Ni1 O9 2.041894 1_555
Ni1 O7 2.041894 1_444
Ni1 O4 2.069743 1_545
Ni1 O2 2.069743 1_454
O2 S0 1.493496 1_555
O3 S0 1.493496 1_555
O4 S1 1.493496 1_555
O5 S1 1.493496 1_555
O6 S0 1.478094 1_555
O7 S0 1.478094 1_555
O8 S1 1.478094 1_555
O9 S1 1.478094 1_555
