# generated using pymatgen
data_CsCeMg30O32
_symmetry_space_group_name_H-M   'P 1'
_cell_length_a   8.75179500
_cell_length_b   8.75179500
_cell_length_c   8.84399100
_cell_angle_alpha   90.00000000
_cell_angle_beta   90.00000000
_cell_angle_gamma   90.00000000
_symmetry_Int_Tables_number   1
_chemical_formula_structural   CsCeMg30O32
_chemical_formula_sum   'Cs1 Ce1 Mg30 O32'
_cell_volume   677.39590130
_cell_formula_units_Z   1
loop_
 _symmetry_equiv_pos_site_id
 _symmetry_equiv_pos_as_xyz
  1  'x, y, z'
loop_
 _atom_site_type_symbol
 _atom_site_label
 _atom_site_symmetry_multiplicity
 _atom_site_fract_x
 _atom_site_fract_y
 _atom_site_fract_z
 _atom_site_occupancy
  Cs  Cs0  1  0.00000000  0.00000000  0.50000000  1
  Ce  Ce0  1  0.00000000  0.00000000  0.00000000  1
  Mg  Mg0  1  0.00000000  0.50000000  0.00000000  1
  Mg  Mg1  1  0.00000000  0.50000000  0.50000000  1
  Mg  Mg2  1  0.50000000  0.00000000  0.00000000  1
  Mg  Mg3  1  0.50000000  0.00000000  0.50000000  1
  Mg  Mg4  1  0.50000000  0.50000000  0.00000000  1
  Mg  Mg5  1  0.50000000  0.50000000  0.50000000  1
  Mg  Mg6  1  0.00000000  0.26484700  0.25474300  1
  Mg  Mg7  1  0.00000000  0.26484700  0.74525700  1
  Mg  Mg8  1  0.00000000  0.73515300  0.25474300  1
  Mg  Mg9  1  0.00000000  0.73515300  0.74525700  1
  Mg  Mg10  1  0.50000000  0.25227700  0.25136000  1
  Mg  Mg11  1  0.50000000  0.25227700  0.74864000  1
  Mg  Mg12  1  0.50000000  0.74772300  0.25136000  1
  Mg  Mg13  1  0.50000000  0.74772300  0.74864000  1
  Mg  Mg14  1  0.26484700  0.00000000  0.25474300  1
  Mg  Mg15  1  0.26484700  0.00000000  0.74525700  1
  Mg  Mg16  1  0.25227700  0.50000000  0.25136000  1
  Mg  Mg17  1  0.25227700  0.50000000  0.74864000  1
  Mg  Mg18  1  0.73515300  0.00000000  0.25474300  1
  Mg  Mg19  1  0.73515300  0.00000000  0.74525700  1
  Mg  Mg20  1  0.74772300  0.50000000  0.25136000  1
  Mg  Mg21  1  0.74772300  0.50000000  0.74864000  1
  Mg  Mg22  1  0.25827500  0.25827500  0.00000000  1
  Mg  Mg23  1  0.25612200  0.25612200  0.50000000  1
  Mg  Mg24  1  0.25827500  0.74172500  0.00000000  1
  Mg  Mg25  1  0.25612200  0.74387800  0.50000000  1
  Mg  Mg26  1  0.74172500  0.25827500  0.00000000  1
  Mg  Mg27  1  0.74387800  0.25612200  0.50000000  1
  Mg  Mg28  1  0.74172500  0.74172500  0.00000000  1
  Mg  Mg29  1  0.74387800  0.74387800  0.50000000  1
  O  O0  1  0.26852400  0.00000000  0.00000000  1
  O  O1  1  0.28617500  0.00000000  0.50000000  1
  O  O2  1  0.25463100  0.50000000  0.00000000  1
  O  O3  1  0.25796900  0.50000000  0.50000000  1
  O  O4  1  0.73147600  0.00000000  0.00000000  1
  O  O5  1  0.71382500  0.00000000  0.50000000  1
  O  O6  1  0.74536900  0.50000000  0.00000000  1
  O  O7  1  0.74203100  0.50000000  0.50000000  1
  O  O8  1  0.24915300  0.24915300  0.25023200  1
  O  O9  1  0.24915300  0.24915300  0.74976800  1
  O  O10  1  0.24915300  0.75084700  0.25023200  1
  O  O11  1  0.24915300  0.75084700  0.74976800  1
  O  O12  1  0.75084700  0.24915300  0.25023200  1
  O  O13  1  0.75084700  0.24915300  0.74976800  1
  O  O14  1  0.75084700  0.75084700  0.25023200  1
  O  O15  1  0.75084700  0.75084700  0.74976800  1
  O  O16  1  0.00000000  0.00000000  0.23133100  1
  O  O17  1  0.00000000  0.00000000  0.76866900  1
  O  O18  1  0.00000000  0.50000000  0.24445400  1
  O  O19  1  0.00000000  0.50000000  0.75554600  1
  O  O20  1  0.50000000  0.00000000  0.24445400  1
  O  O21  1  0.50000000  0.00000000  0.75554600  1
  O  O22  1  0.50000000  0.50000000  0.24776100  1
  O  O23  1  0.50000000  0.50000000  0.75223900  1
  O  O24  1  0.00000000  0.26852400  0.00000000  1
  O  O25  1  0.00000000  0.28617500  0.50000000  1
  O  O26  1  0.00000000  0.73147600  0.00000000  1
  O  O27  1  0.00000000  0.71382500  0.50000000  1
  O  O28  1  0.50000000  0.25463100  0.00000000  1
  O  O29  1  0.50000000  0.25796900  0.50000000  1
  O  O30  1  0.50000000  0.74536900  0.00000000  1
  O  O31  1  0.50000000  0.74203100  0.50000000  1
loop_
_geom_bond_atom_site_label_1
_geom_bond_atom_site_label_2
_geom_bond_distance
_geom_bond_site_symmetry_2
Cs0 O16 2.376106 1_555
Cs0 O17 2.376106 1_555
Cs0 O5 2.504545 1_455
Cs0 O27 2.504545 1_545
Cs0 O1 2.504545 1_555
Cs0 O25 2.504545 1_555
Ce0 O17 2.045889 1_554
Ce0 O16 2.045889 1_555
Ce0 O26 2.350067 1_545
Ce0 O24 2.350067 1_555
Ce0 O0 2.350067 1_555
Ce0 O4 2.350067 1_455
Mg0 O26 2.025830 1_555
Mg0 O24 2.025830 1_555
Mg0 O19 2.161949 1_554
Mg0 O18 2.161949 1_555
Mg0 O2 2.228478 1_555
Mg0 O6 2.228478 1_455
Mg1 O25 1.871353 1_555
Mg1 O27 1.871353 1_555
Mg1 O3 2.257692 1_555
Mg1 O7 2.257692 1_455
Mg1 O18 2.260047 1_555
Mg1 O19 2.260047 1_555
Mg2 O0 2.025830 1_555
Mg2 O4 2.025830 1_555
Mg2 O21 2.161949 1_554
Mg2 O20 2.161949 1_555
Mg2 O28 2.228478 1_555
Mg2 O30 2.228478 1_545
Mg3 O1 1.871353 1_555
Mg3 O5 1.871353 1_555
Mg3 O31 2.257692 1_545
Mg3 O29 2.257692 1_555
Mg3 O20 2.260047 1_555
Mg3 O21 2.260047 1_555
Mg4 O6 2.147419 1_555
Mg4 O30 2.147419 1_555
Mg4 O2 2.147419 1_555
Mg4 O28 2.147419 1_555
Mg4 O22 2.191196 1_555
Mg4 O23 2.191196 1_554
Mg5 O29 2.118206 1_555
Mg5 O7 2.118206 1_555
Mg5 O31 2.118206 1_555
Mg5 O3 2.118206 1_555
Mg5 O23 2.230799 1_555
Mg5 O22 2.230799 1_555
Mg6 O18 2.060022 1_555
Mg6 O25 2.177067 1_555
Mg6 O12 2.185222 1_455
Mg6 O8 2.185222 1_555
Mg6 O24 2.253175 1_555
Mg6 O16 2.327116 1_555
Mg7 O19 2.060022 1_555
Mg7 O25 2.177067 1_555
Mg7 O13 2.185222 1_455
Mg7 O9 2.185222 1_555
Mg7 O24 2.253175 1_556
Mg7 O17 2.327116 1_555
Mg8 O18 2.060022 1_555
Mg8 O27 2.177067 1_555
Mg8 O14 2.185222 1_455
Mg8 O10 2.185222 1_555
Mg8 O26 2.253175 1_555
Mg8 O16 2.327116 1_565
Mg9 O19 2.060022 1_555
Mg9 O27 2.177067 1_555
Mg9 O15 2.185222 1_455
Mg9 O11 2.185222 1_555
Mg9 O26 2.253175 1_556
Mg9 O17 2.327116 1_565
Mg10 O22 2.168255 1_555
Mg10 O8 2.195554 1_555
Mg10 O12 2.195554 1_555
Mg10 O29 2.199534 1_555
Mg10 O20 2.208721 1_555
Mg10 O28 2.223121 1_555
Mg11 O23 2.168255 1_555
Mg11 O9 2.195554 1_555
Mg11 O13 2.195554 1_555
Mg11 O29 2.199534 1_555
Mg11 O21 2.208721 1_555
Mg11 O28 2.223121 1_556
Mg12 O22 2.168255 1_555
Mg12 O10 2.195554 1_555
Mg12 O14 2.195554 1_555
Mg12 O31 2.199534 1_555
Mg12 O20 2.208721 1_565
Mg12 O30 2.223121 1_555
Mg13 O23 2.168255 1_555
Mg13 O11 2.195554 1_555
Mg13 O15 2.195554 1_555
Mg13 O31 2.199534 1_555
Mg13 O21 2.208721 1_565
Mg13 O30 2.223121 1_556
Mg14 O20 2.060022 1_555
Mg14 O1 2.177067 1_555
Mg14 O10 2.185222 1_545
Mg14 O8 2.185222 1_555
Mg14 O0 2.253175 1_555
Mg14 O16 2.327116 1_555
Mg15 O21 2.060022 1_555
Mg15 O1 2.177067 1_555
Mg15 O11 2.185222 1_545
Mg15 O9 2.185222 1_555
Mg15 O0 2.253175 1_556
Mg15 O17 2.327116 1_555
Mg16 O22 2.168255 1_555
Mg16 O8 2.195554 1_555
Mg16 O10 2.195554 1_555
Mg16 O3 2.199534 1_555
Mg16 O18 2.208721 1_555
Mg16 O2 2.223121 1_555
Mg17 O23 2.168255 1_555
Mg17 O9 2.195554 1_555
Mg17 O11 2.195554 1_555
Mg17 O3 2.199534 1_555
Mg17 O19 2.208721 1_555
Mg17 O2 2.223121 1_556
Mg18 O20 2.060022 1_555
Mg18 O5 2.177067 1_555
Mg18 O14 2.185222 1_545
Mg18 O12 2.185222 1_555
Mg18 O4 2.253175 1_555
Mg18 O16 2.327116 1_655
Mg19 O21 2.060022 1_555
Mg19 O5 2.177067 1_555
Mg19 O15 2.185222 1_545
Mg19 O13 2.185222 1_555
Mg19 O4 2.253175 1_556
Mg19 O17 2.327116 1_655
Mg20 O22 2.168255 1_555
Mg20 O12 2.195554 1_555
Mg20 O14 2.195554 1_555
Mg20 O7 2.199534 1_555
Mg20 O18 2.208721 1_655
Mg20 O6 2.223121 1_555
Mg21 O23 2.168255 1_555
Mg21 O13 2.195554 1_555
Mg21 O15 2.195554 1_555
Mg21 O7 2.199534 1_555
Mg21 O19 2.208721 1_655
Mg21 O6 2.223121 1_556
Mg22 O2 2.115768 1_555
Mg22 O28 2.115768 1_555
Mg22 O8 2.215928 1_555
Mg22 O9 2.215928 1_554
Mg22 O0 2.262149 1_555
Mg22 O24 2.262149 1_555
Mg23 O3 2.134431 1_555
Mg23 O29 2.134431 1_555
Mg23 O8 2.210629 1_555
Mg23 O9 2.210629 1_555
Mg23 O25 2.256906 1_555
Mg23 O1 2.256906 1_555
Mg24 O2 2.115768 1_555
Mg24 O30 2.115768 1_555
Mg24 O11 2.215928 1_554
Mg24 O10 2.215928 1_555
Mg24 O26 2.262149 1_555
Mg24 O0 2.262149 1_565
Mg25 O31 2.134431 1_555
Mg25 O3 2.134431 1_555
Mg25 O11 2.210629 1_555
Mg25 O10 2.210629 1_555
Mg25 O1 2.256906 1_565
Mg25 O27 2.256906 1_555
Mg26 O28 2.115768 1_555
Mg26 O6 2.115768 1_555
Mg26 O12 2.215928 1_555
Mg26 O13 2.215928 1_554
Mg26 O4 2.262149 1_555
Mg26 O24 2.262149 1_655
Mg27 O7 2.134431 1_555
Mg27 O29 2.134431 1_555
Mg27 O13 2.210629 1_555
Mg27 O12 2.210629 1_555
Mg27 O25 2.256906 1_655
Mg27 O5 2.256906 1_555
Mg28 O6 2.115768 1_555
Mg28 O30 2.115768 1_555
Mg28 O14 2.215928 1_555
Mg28 O15 2.215928 1_554
Mg28 O26 2.262149 1_655
Mg28 O4 2.262149 1_565
Mg29 O31 2.134431 1_555
Mg29 O7 2.134431 1_555
Mg29 O14 2.210629 1_555
Mg29 O15 2.210629 1_555
Mg29 O27 2.256906 1_655
Mg29 O5 2.256906 1_565
