# generated using pymatgen
data_YbCu
_symmetry_space_group_name_H-M   'P 1'
_cell_length_a   4.40516725
_cell_length_b   5.19729545
_cell_length_c   6.95872181
_cell_angle_alpha   90.00000000
_cell_angle_beta   90.00000000
_cell_angle_gamma   90.00000000
_symmetry_Int_Tables_number   1
_chemical_formula_structural   YbCu
_chemical_formula_sum   'Yb4 Cu4'
_cell_volume   159.31962751
_cell_formula_units_Z   4
loop_
 _symmetry_equiv_pos_site_id
 _symmetry_equiv_pos_as_xyz
  1  'x, y, z'
loop_
 _atom_site_type_symbol
 _atom_site_label
 _atom_site_symmetry_multiplicity
 _atom_site_fract_x
 _atom_site_fract_y
 _atom_site_fract_z
 _atom_site_occupancy
  Yb  Yb0  1  0.25000000  0.14023801  0.18246316  1
  Yb  Yb1  1  0.75000000  0.85976199  0.81753684  1
  Yb  Yb2  1  0.75000000  0.64023801  0.31753684  1
  Yb  Yb3  1  0.25000000  0.35976199  0.68246316  1
  Cu  Cu0  1  0.25000000  0.63067453  0.02938428  1
  Cu  Cu1  1  0.75000000  0.36932547  0.97061572  1
  Cu  Cu2  1  0.75000000  0.13067453  0.47061572  1
  Cu  Cu3  1  0.25000000  0.86932547  0.52938428  1
loop_
_geom_bond_atom_site_label_1
_geom_bond_atom_site_label_2
_geom_bond_distance
_geom_bond_site_symmetry_2
Cu0 Cu1 2.619851 1_454
Cu0 Cu1 2.619851 1_554
Cu0 Yb0 2.762578 1_555
Cu0 Yb3 2.794729 1_554
Cu0 Yb0 2.854556 1_565
Cu0 Yb1 2.905549 1_554
Cu0 Yb1 2.905549 1_454
Cu0 Yb2 2.979021 1_455
Cu0 Yb2 2.979021 1_555
Cu1 Yb1 2.762578 1_555
Cu1 Yb2 2.794729 1_556
Cu1 Yb1 2.854556 1_545
Cu1 Yb0 2.905549 1_656
Cu1 Yb0 2.905549 1_556
Cu1 Yb3 2.979021 1_655
Cu1 Yb3 2.979021 1_555
Cu2 Cu3 2.619851 1_645
Cu2 Cu3 2.619851 1_545
Cu2 Yb2 2.762578 1_545
Cu2 Yb1 2.794729 1_545
Cu2 Yb2 2.854556 1_555
Cu2 Yb3 2.905549 1_555
Cu2 Yb3 2.905549 1_655
Cu2 Yb0 2.979021 1_655
Cu2 Yb0 2.979021 1_555
Cu3 Yb3 2.762578 1_565
Cu3 Yb0 2.794729 1_565
Cu3 Yb3 2.854556 1_555
Cu3 Yb2 2.905549 1_455
Cu3 Yb2 2.905549 1_555
Cu3 Yb1 2.979021 1_555
Cu3 Yb1 2.979021 1_455
