# generated using pymatgen
data_Li3CrPCO7
_symmetry_space_group_name_H-M   'P 1'
_cell_length_a   6.45293400
_cell_length_b   8.68386840
_cell_length_c   9.97601032
_cell_angle_alpha   94.63690460
_cell_angle_beta   90.10049155
_cell_angle_gamma   90.20833091
_symmetry_Int_Tables_number   1
_chemical_formula_structural   Li3CrPCO7
_chemical_formula_sum   'Li12 Cr4 P4 C4 O28'
_cell_volume   557.18547733
_cell_formula_units_Z   4
loop_
 _symmetry_equiv_pos_site_id
 _symmetry_equiv_pos_as_xyz
  1  'x, y, z'
loop_
 _atom_site_type_symbol
 _atom_site_label
 _atom_site_symmetry_multiplicity
 _atom_site_fract_x
 _atom_site_fract_y
 _atom_site_fract_z
 _atom_site_occupancy
  Li  Li0  1  0.74072300  0.11354800  0.60648900  1
  Li  Li1  1  0.74656600  0.10645500  0.12090700  1
  Li  Li2  1  0.51436500  0.27525300  0.86256500  1
  Li  Li3  1  0.98268500  0.27457700  0.38641500  1
  Li  Li4  1  0.51699400  0.27457000  0.38440200  1
  Li  Li5  1  0.25290200  0.35019400  0.59646100  1
  Li  Li6  1  0.47046300  0.72154600  0.62447900  1
  Li  Li7  1  0.03056600  0.71924900  0.62371800  1
  Li  Li8  1  0.47468300  0.72665400  0.13060600  1
  Li  Li9  1  0.02476200  0.72694800  0.12979700  1
  Li  Li10  1  0.25142000  0.89584700  0.88139900  1
  Li  Li11  1  0.25017000  0.89863100  0.38797400  1
  Cr  Cr0  1  0.00504600  0.26200200  0.85327200  1
  Cr  Cr1  1  0.25287300  0.33676900  0.11792000  1
  Cr  Cr2  1  0.74737400  0.66373900  0.89380300  1
  Cr  Cr3  1  0.74983100  0.66592900  0.39669600  1
  P  P0  1  0.74877200  0.40993300  0.63808900  1
  P  P1  1  0.74984100  0.41280700  0.14079900  1
  P  P2  1  0.24708800  0.58766900  0.85596700  1
  P  P3  1  0.24980100  0.58606000  0.35876000  1
  C  C0  1  0.24700800  0.03442800  0.64959300  1
  C  C1  1  0.24894600  0.02979100  0.14748500  1
  C  C2  1  0.75363200  0.96681100  0.85180100  1
  C  C3  1  0.75006000  0.96781500  0.35352300  1
  O  O0  1  0.24917200  0.06748800  0.52737100  1
  O  O1  1  0.76445200  0.10697600  0.80768600  1
  O  O2  1  0.24571200  0.05708000  0.02249500  1
  O  O3  1  0.24856300  0.14534700  0.74846400  1
  O  O4  1  0.75021000  0.10830600  0.31711700  1
  O  O5  1  0.25192600  0.14642000  0.23923400  1
  O  O6  1  0.94130600  0.31489600  0.58950700  1
  O  O7  1  0.55896800  0.31385800  0.58605300  1
  O  O8  1  0.93881500  0.31412100  0.08426900  1
  O  O9  1  0.56319800  0.31328100  0.08232100  1
  O  O10  1  0.24272200  0.42099700  0.90589600  1
  O  O11  1  0.74827600  0.42012700  0.79741800  1
  O  O12  1  0.24911100  0.42064200  0.40168500  1
  O  O13  1  0.75018100  0.42030700  0.29597400  1
  O  O14  1  0.25006700  0.57461700  0.70162100  1
  O  O15  1  0.74980100  0.57823500  0.59530300  1
  O  O16  1  0.25035500  0.58130500  0.20204700  1
  O  O17  1  0.75159100  0.57772700  0.09306800  1
  O  O18  1  0.06115900  0.68667500  0.91293900  1
  O  O19  1  0.43519500  0.68200800  0.91702200  1
  O  O20  1  0.43676100  0.68657300  0.41571300  1
  O  O21  1  0.06357000  0.68630700  0.41503900  1
  O  O22  1  0.74233800  0.84877800  0.76419600  1
  O  O23  1  0.24718200  0.89107700  0.68182500  1
  O  O24  1  0.75000600  0.84994200  0.26198900  1
  O  O25  1  0.75310800  0.94926900  0.97756000  1
  O  O26  1  0.24986100  0.88976600  0.18487100  1
  O  O27  1  0.74982600  0.94064300  0.47839800  1
loop_
_geom_bond_atom_site_label_1
_geom_bond_atom_site_label_2
_geom_bond_distance
_geom_bond_site_symmetry_2
Li0 O27 1.892476 1_545
Li0 O1 2.018126 1_555
Li0 O7 2.124670 1_555
Li0 O6 2.189389 1_555
Li1 O25 1.896044 1_544
Li1 O4 1.956259 1_555
Li1 O9 2.213530 1_555
Li1 O8 2.239765 1_555
Li2 O11 2.098872 1_555
Li2 O10 2.188979 1_555
Li2 O9 2.212294 1_556
Li2 O1 2.220438 1_555
Li2 O3 2.298181 1_555
Li3 O6 2.046128 1_555
Li3 O12 2.130681 1_655
Li3 O4 2.152291 1_555
Li3 O13 2.204584 1_555
Li3 O5 2.484299 1_655
Li4 O7 2.030526 1_555
Li4 O12 2.146751 1_555
Li4 O4 2.159309 1_555
Li4 O13 2.194403 1_555
Li4 O5 2.445052 1_555
Li5 O7 2.002752 1_555
Li5 O6 2.033054 1_455
Li5 O12 2.083884 1_555
Li5 O14 2.137456 1_555
Li5 O3 2.429089 1_555
Li5 O0 2.495697 1_555
Li6 O20 2.091085 1_555
Li6 O14 2.095768 1_555
Li6 O23 2.110145 1_555
Li6 O15 2.200512 1_555
Li6 O22 2.443294 1_555
Li7 O14 2.086763 1_555
Li7 O23 2.087701 1_555
Li7 O21 2.089671 1_555
Li7 O15 2.188214 1_455
Li7 O22 2.541247 1_455
Li8 O26 2.073114 1_555
Li8 O16 2.081420 1_555
Li8 O19 2.149188 1_554
Li8 O17 2.224076 1_555
Li8 O24 2.402431 1_555
Li9 O26 2.065796 1_555
Li9 O16 2.096509 1_555
Li9 O18 2.176632 1_554
Li9 O17 2.196600 1_455
Li9 O24 2.411963 1_455
Li10 O2 1.903916 1_566
Li10 O23 1.988170 1_555
Li10 O18 2.232327 1_555
Li10 O19 2.258786 1_555
Li11 O0 1.937633 1_565
Li11 O26 2.021388 1_555
Li11 O21 2.233352 1_555
Li11 O20 2.239362 1_555
Cr0 O1 2.076739 1_455
Cr0 O10 2.097321 1_555
Cr0 O3 2.105895 1_555
Cr0 O11 2.253524 1_455
Cr0 O8 2.352471 1_456
Cr1 O9 2.042428 1_555
Cr1 O8 2.059734 1_455
Cr1 O5 2.126119 1_555
Cr1 O16 2.219480 1_555
Cr1 O10 2.294154 1_554
Cr1 O2 2.536248 1_555
Cr2 O19 2.033453 1_555
Cr2 O18 2.040987 1_655
Cr2 O22 2.142645 1_555
Cr2 O17 2.179511 1_556
Cr2 O11 2.251918 1_555
Cr2 O25 2.551809 1_555
Cr3 O20 2.036639 1_555
Cr3 O21 2.038237 1_655
Cr3 O24 2.169450 1_555
Cr3 O15 2.179320 1_555
Cr3 O13 2.283120 1_555
Cr3 O27 2.457833 1_555
C0 O0 1.275110 1_555
C0 O23 1.310629 1_545
C0 O3 1.321748 1_555
C1 O2 1.288051 1_555
C1 O26 1.300408 1_545
C1 O5 1.309117 1_555
C2 O25 1.275963 1_555
C2 O22 1.293866 1_555
C2 O1 1.328972 1_565
C3 O27 1.286512 1_555
C3 O4 1.300750 1_565
C3 O24 1.315466 1_555
O6 P0 1.550636 1_555
O7 P0 1.544659 1_555
O8 P1 1.572050 1_555
O9 P1 1.564067 1_555
O10 P2 1.568453 1_555
O11 P0 1.584779 1_555
O12 P3 1.531747 1_555
O13 P1 1.544125 1_555
O14 P2 1.534917 1_555
O15 P0 1.555329 1_555
O16 P3 1.560586 1_555
O17 P1 1.545333 1_555
O18 P2 1.559674 1_555
O19 P2 1.557251 1_555
O20 P3 1.565222 1_555
O21 P3 1.564661 1_555
