# generated using pymatgen
data_Mn3Cd3(TeO6)2
_symmetry_space_group_name_H-M   'P 1'
_cell_length_a   6.45677533
_cell_length_b   12.91512465
_cell_length_c   6.45657555
_cell_angle_alpha   90.21503789
_cell_angle_beta   90.21129379
_cell_angle_gamma   90.21601562
_symmetry_Int_Tables_number   1
_chemical_formula_structural   Mn3Cd3(TeO6)2
_chemical_formula_sum   'Mn6 Cd6 Te4 O24'
_cell_volume   538.40290294
_cell_formula_units_Z   2
loop_
 _symmetry_equiv_pos_site_id
 _symmetry_equiv_pos_as_xyz
  1  'x, y, z'
loop_
 _atom_site_type_symbol
 _atom_site_label
 _atom_site_symmetry_multiplicity
 _atom_site_fract_x
 _atom_site_fract_y
 _atom_site_fract_z
 _atom_site_occupancy
  Mn  Mn0  1  0.74795500  0.78204500  0.04767000  1
  Mn  Mn1  1  0.56416800  0.02388600  0.74778700  1
  Mn  Mn2  1  0.04760300  0.37394300  0.56424300  1
  Mn  Mn3  1  0.74802500  0.28205100  0.04768500  1
  Mn  Mn4  1  0.56407700  0.52388200  0.74782000  1
  Mn  Mn5  1  0.04757000  0.87396500  0.56422500  1
  Cd  Cd0  1  0.25338000  0.21866400  0.95433000  1
  Cd  Cd1  1  0.25337400  0.71866500  0.95433000  1
  Cd  Cd2  1  0.43733900  0.47715600  0.25339200  1
  Cd  Cd3  1  0.43733800  0.97715600  0.25338900  1
  Cd  Cd4  1  0.95435700  0.12668600  0.43736500  1
  Cd  Cd5  1  0.95435600  0.62668500  0.43736900  1
  Te  Te0  1  0.50686200  0.25343800  0.50687200  1
  Te  Te1  1  0.50685800  0.75343200  0.50687000  1
  Te  Te2  1  0.99564900  0.49783100  0.99563700  1
  Te  Te3  1  0.99566200  0.99782800  0.99564400  1
  O  O0  1  0.57346800  0.21824000  0.79560500  1
  O  O1  1  0.57345700  0.71823400  0.79559600  1
  O  O2  1  0.43651800  0.39778300  0.57346400  1
  O  O3  1  0.43651400  0.89778400  0.57345700  1
  O  O4  1  0.79555900  0.28673800  0.43644800  1
  O  O5  1  0.79556400  0.78673900  0.43645500  1
  O  O6  1  0.45211900  0.28355400  0.21339100  1
  O  O7  1  0.45210600  0.78355200  0.21339600  1
  O  O8  1  0.56710400  0.10667500  0.45213400  1
  O  O9  1  0.56709800  0.60667400  0.45214000  1
  O  O10  1  0.21336500  0.22607500  0.56713600  1
  O  O11  1  0.21335700  0.72607700  0.56713500  1
  O  O12  1  0.70434700  0.45755600  0.03273900  1
  O  O13  1  0.70435100  0.95756200  0.03274200  1
  O  O14  1  0.91518000  0.01635300  0.70431200  1
  O  O15  1  0.91517700  0.51635300  0.70431900  1
  O  O16  1  0.03275000  0.35216900  0.91514400  1
  O  O17  1  0.03275400  0.85217300  0.91513200  1
  O  O18  1  0.28610400  0.03629800  0.94363700  1
  O  O19  1  0.28610800  0.53629300  0.94363200  1
  O  O20  1  0.07259200  0.47182800  0.28611600  1
  O  O21  1  0.07258700  0.97182800  0.28611700  1
  O  O22  1  0.94362300  0.14307500  0.07256100  1
  O  O23  1  0.94362700  0.64307500  0.07256600  1
loop_
_geom_bond_atom_site_label_1
_geom_bond_atom_site_label_2
_geom_bond_distance
_geom_bond_site_symmetry_2
Mn0 O1 2.137031 1_554
Mn0 O7 2.193059 1_555
Mn0 O23 2.204806 1_555
Mn0 O17 2.222378 1_654
Mn0 O13 2.287640 1_555
Mn0 O5 2.528319 1_555
Mn1 O3 2.137280 1_545
Mn1 O8 2.191568 1_555
Mn1 O18 2.205800 1_555
Mn1 O13 2.223370 1_546
Mn1 O14 2.287138 1_555
Mn1 O0 2.528333 1_555
Mn2 O4 2.137052 1_455
Mn2 O10 2.192825 1_555
Mn2 O20 2.206032 1_555
Mn2 O15 2.221925 1_455
Mn2 O16 2.286370 1_555
Mn2 O2 2.529245 1_555
Mn3 O0 2.137259 1_554
Mn3 O6 2.193316 1_555
Mn3 O22 2.204585 1_555
Mn3 O16 2.221938 1_654
Mn3 O12 2.287552 1_555
Mn3 O4 2.528120 1_555
Mn4 O2 2.137105 1_555
Mn4 O9 2.191745 1_555
Mn4 O19 2.205157 1_555
Mn4 O12 2.223416 1_556
Mn4 O15 2.287721 1_555
Mn4 O1 2.528286 1_555
Mn5 O5 2.136947 1_455
Mn5 O11 2.193131 1_555
Mn5 O21 2.205782 1_555
Mn5 O14 2.221628 1_465
Mn5 O17 2.286427 1_555
Mn5 O3 2.529401 1_555
Cd0 O16 2.255105 1_555
Cd0 O6 2.261033 1_556
Cd0 O0 2.310270 1_555
Cd0 O22 2.353303 1_456
Cd0 O18 2.366303 1_555
Cd0 O10 2.514532 1_555
Cd1 O17 2.255103 1_555
Cd1 O7 2.261017 1_556
Cd1 O1 2.310268 1_555
Cd1 O23 2.353264 1_456
Cd1 O19 2.366387 1_555
Cd1 O11 2.514540 1_555
Cd2 O12 2.254918 1_555
Cd2 O9 2.260992 1_555
Cd2 O2 2.310310 1_555
Cd2 O19 2.353605 1_554
Cd2 O20 2.366090 1_555
Cd2 O6 2.514938 1_555
Cd3 O13 2.254909 1_555
Cd3 O8 2.261008 1_565
Cd3 O3 2.310281 1_555
Cd3 O18 2.353590 1_564
Cd3 O21 2.366118 1_555
Cd3 O7 2.514955 1_555
Cd4 O14 2.254798 1_555
Cd4 O10 2.260952 1_655
Cd4 O4 2.310891 1_555
Cd4 O21 2.353463 1_645
Cd4 O22 2.366451 1_555
Cd4 O8 2.514952 1_555
Cd5 O15 2.254806 1_555
Cd5 O11 2.260928 1_655
Cd5 O5 2.310897 1_555
Cd5 O20 2.353478 1_655
Cd5 O23 2.366445 1_555
Cd5 O9 2.514985 1_555
O0 Te0 1.966943 1_555
O1 Te1 1.966890 1_555
O2 Te0 1.966807 1_555
O3 Te1 1.966886 1_555
O4 Te0 1.966743 1_555
O5 Te1 1.966804 1_555
O6 Te0 1.966832 1_555
O7 Te1 1.966809 1_555
O8 Te0 1.967365 1_555
O9 Te1 1.967291 1_555
O10 Te0 1.966952 1_555
O11 Te1 1.966960 1_555
O12 Te2 1.965326 1_554
O13 Te3 1.965348 1_554
O14 Te3 1.965344 1_545
O15 Te2 1.965236 1_555
O16 Te2 1.965588 1_455
O17 Te3 1.965526 1_455
O18 Te3 1.968578 1_445
O19 Te2 1.968654 1_455
O20 Te2 1.968809 1_454
O21 Te3 1.968736 1_454
O22 Te3 1.969126 1_544
O23 Te2 1.969090 1_554
