# generated using pymatgen
data_Li6V3P8O29
_symmetry_space_group_name_H-M   'P 1'
_cell_length_a   9.84950200
_cell_length_b   9.85434312
_cell_length_c   13.94599040
_cell_angle_alpha   90.20354899
_cell_angle_beta   90.01937113
_cell_angle_gamma   119.94136906
_symmetry_Int_Tables_number   1
_chemical_formula_structural   Li6V3P8O29
_chemical_formula_sum   'Li12 V6 P16 O58'
_cell_volume   1172.93567765
_cell_formula_units_Z   2
loop_
 _symmetry_equiv_pos_site_id
 _symmetry_equiv_pos_as_xyz
  1  'x, y, z'
loop_
 _atom_site_type_symbol
 _atom_site_label
 _atom_site_symmetry_multiplicity
 _atom_site_fract_x
 _atom_site_fract_y
 _atom_site_fract_z
 _atom_site_occupancy
  Li  Li0  1  0.67788700  0.90497000  0.56087000  1
  Li  Li1  1  0.22706100  0.31957000  0.56044800  1
  Li  Li2  1  0.33807500  0.66984200  0.88541700  1
  Li  Li3  1  0.08506500  0.31163400  0.06056700  1
  Li  Li4  1  0.22372600  0.90764300  0.06052500  1
  Li  Li5  1  0.90411500  0.22646700  0.44007200  1
  Li  Li6  1  0.09218000  0.77244700  0.56024800  1
  Li  Li7  1  0.90735300  0.68741300  0.94106200  1
  Li  Li8  1  0.66712400  0.33169600  0.11523500  1
  Li  Li9  1  0.77072500  0.67611700  0.43863400  1
  Li  Li10  1  0.32218100  0.09326200  0.43982000  1
  Li  Li11  1  0.31335900  0.22584500  0.93923800  1
  V  V0  1  0.99948200  0.42989300  0.25128600  1
  V  V1  1  0.99961500  0.56453800  0.75082000  1
  V  V2  1  0.57198300  0.00087700  0.75239300  1
  V  V3  1  0.43636200  0.99894300  0.24828700  1
  V  V4  1  0.56976700  0.57240100  0.24718000  1
  V  V5  1  0.43752300  0.43618500  0.75032900  1
  P  P0  1  0.68351600  0.77157600  0.84125200  1
  P  P1  1  0.68204800  0.91444900  0.34191100  1
  P  P2  1  0.23527400  0.32072900  0.34129600  1
  P  P3  1  0.33288500  0.66596300  0.12687200  1
  P  P4  1  0.33309200  0.66540700  0.62731100  1
  P  P5  1  0.09024100  0.31938300  0.84369200  1
  P  P6  1  0.91276800  0.23166700  0.65963200  1
  P  P7  1  0.23076700  0.91050000  0.84275900  1
  P  P8  1  0.77085100  0.08576900  0.15625300  1
  P  P9  1  0.08753600  0.76817900  0.34149800  1
  P  P10  1  0.90887300  0.67794800  0.15852700  1
  P  P11  1  0.66580200  0.33293600  0.37276100  1
  P  P12  1  0.66869900  0.33548900  0.87257500  1
  P  P13  1  0.76911600  0.68171600  0.65674600  1
  P  P14  1  0.32022100  0.08606200  0.65886600  1
  P  P15  1  0.32044900  0.23059600  0.15714200  1
  O  O0  1  0.75594100  0.75661000  0.56602700  1
  O  O1  1  0.66710900  0.75033800  0.33981800  1
  O  O2  1  0.76697600  0.00066000  0.06910800  1
  O  O3  1  0.65770100  0.91472200  0.83587000  1
  O  O4  1  0.51574300  0.62613900  0.82646400  1
  O  O5  1  0.47986700  0.67032400  0.17009200  1
  O  O6  1  0.38563500  0.47733900  0.32263000  1
  O  O7  1  0.24189100  0.24484500  0.06853100  1
  O  O8  1  0.25503400  0.33527100  0.84027500  1
  O  O9  1  0.48487500  0.81282800  0.66578700  1
  O  O10  1  0.52180200  0.90254300  0.32545600  1
  O  O11  1  0.33120700  0.51373000  0.66910200  1
  O  O12  1  0.32848800  0.66868600  0.01933800  1
  O  O13  1  0.32521700  0.65945900  0.52070300  1
  O  O14  1  0.18474900  0.51605100  0.16521700  1
  O  O15  1  0.37238400  0.88637100  0.82638400  1
  O  O16  1  0.33155700  0.81858600  0.16625200  1
  O  O17  1  0.08719200  0.33738700  0.34161600  1
  O  O18  1  0.00150400  0.21223100  0.75106300  1
  O  O19  1  0.00161900  0.24278900  0.56939900  1
  O  O20  1  0.00620800  0.24869300  0.93395600  1
  O  O21  1  0.11245200  0.48614200  0.82503600  1
  O  O22  1  0.18309000  0.66662700  0.67024100  1
  O  O23  1  0.91828600  0.25672200  0.16323900  1
  O  O24  1  0.09346900  0.61653300  0.32107900  1
  O  O25  1  0.25096500  0.91403000  0.34132300  1
  O  O26  1  0.79261300  0.00709400  0.25322500  1
  O  O27  1  0.75782600  0.00062700  0.43342800  1
  O  O28  1  0.24266600  0.99658900  0.56864300  1
  O  O29  1  0.74928300  0.08223200  0.65991800  1
  O  O30  1  0.89990600  0.37953100  0.67543600  1
  O  O31  1  0.08077800  0.74850500  0.84363000  1
  O  O32  1  0.81395700  0.32603100  0.33413200  1
  O  O33  1  0.88784600  0.51301900  0.17356800  1
  O  O34  1  0.99943900  0.75695200  0.06977400  1
  O  O35  1  0.99770300  0.75435400  0.43143800  1
  O  O36  1  0.99912000  0.78761800  0.24963700  1
  O  O37  1  0.91771800  0.66716500  0.65876900  1
  O  O38  1  0.66837700  0.19173000  0.82959600  1
  O  O39  1  0.62673100  0.11059200  0.17367800  1
  O  O40  1  0.81996800  0.48760400  0.83388200  1
  O  O41  1  0.66618300  0.34177000  0.97996300  1
  O  O42  1  0.66150200  0.32791300  0.47954400  1
  O  O43  1  0.67126200  0.48494800  0.33298800  1
  O  O44  1  0.47618900  0.09005000  0.67897100  1
  O  O45  1  0.51389300  0.18305900  0.32947400  1
  O  O46  1  0.74381200  0.65934800  0.16260300  1
  O  O47  1  0.78639700  0.79301300  0.74600300  1
  O  O48  1  0.76693200  0.76133300  0.92615700  1
  O  O49  1  0.62117400  0.52219900  0.67479400  1
  O  O50  1  0.51818200  0.33840100  0.83317200  1
  O  O51  1  0.48605900  0.37241700  0.17397900  1
  O  O52  1  0.33282100  0.08071100  0.15641500  1
  O  O53  1  0.24560300  0.00399200  0.93168400  1
  O  O54  1  0.21160700  0.99904700  0.75084400  1
  O  O55  1  0.33821100  0.25008800  0.65869100  1
  O  O56  1  0.24498100  0.24216400  0.43117500  1
  O  O57  1  0.21277300  0.21166500  0.24925700  1
loop_
_geom_bond_atom_site_label_1
_geom_bond_atom_site_label_2
_geom_bond_distance
_geom_bond_site_symmetry_2
Li0 O0 1.963750 1_555
Li0 O27 1.984763 1_565
Li0 O29 2.051798 1_565
Li0 O9 2.206268 1_555
Li1 O19 1.960205 1_555
Li1 O56 1.997014 1_555
Li1 O55 2.073262 1_555
Li1 O11 2.242386 1_555
Li2 O12 1.869866 1_556
Li2 O15 2.153547 1_555
Li2 O4 2.162052 1_555
Li2 O21 2.212860 1_555
Li3 O20 1.901610 1_554
Li3 O7 1.961305 1_555
Li3 O23 2.039914 1_455
Li3 O14 2.270599 1_555
Li4 O34 1.956746 1_455
Li4 O53 1.996147 1_564
Li4 O52 2.001265 1_565
Li4 O16 2.238485 1_555
Li5 O27 1.958324 1_555
Li5 O19 2.010894 1_655
Li5 O17 2.092005 1_655
Li5 O32 2.193889 1_555
Li6 O28 1.954307 1_555
Li6 O35 1.988890 1_455
Li6 O37 2.036924 1_455
Li6 O22 2.276999 1_555
Li7 O48 1.869037 1_555
Li7 O34 1.970798 1_556
Li7 O31 2.026664 1_655
Li7 O40 2.266815 1_555
Li8 O41 1.889727 1_554
Li8 O33 2.166015 1_555
Li8 O39 2.171964 1_555
Li8 O51 2.173873 1_555
Li9 O35 1.970437 1_555
Li9 O0 1.977934 1_555
Li9 O1 2.055955 1_555
Li9 O43 2.194625 1_555
Li10 O56 1.964873 1_555
Li10 O28 2.004219 1_545
Li10 O25 2.060054 1_545
Li10 O45 2.249543 1_555
Li11 O53 1.943686 1_555
Li11 O7 1.977834 1_556
Li11 O8 2.006484 1_555
Li11 O50 2.295255 1_555
O0 P13 1.504759 1_555
O1 P1 1.549188 1_555
O1 V4 1.991935 1_555
O2 P8 1.463778 1_555
O3 P0 1.555274 1_555
O3 V2 1.873708 1_565
O4 P0 1.568695 1_555
O4 V5 1.941797 1_555
O5 P3 1.548582 1_555
O5 V4 1.931490 1_555
O6 P2 1.537659 1_555
O6 V4 1.893743 1_555
O7 P15 1.501526 1_555
O8 P5 1.551696 1_555
O8 V5 2.004809 1_555
O9 P4 1.568216 1_555
O9 V2 2.006290 1_565
O10 P1 1.540229 1_555
O10 V3 1.890365 1_555
O11 P4 1.597678 1_555
O11 V5 1.941086 1_555
O12 P3 1.501000 1_555
O13 P4 1.488171 1_555
O14 P3 1.565796 1_555
O14 V0 1.988375 1_455
O15 P7 1.544415 1_555
O15 V2 1.999553 1_565
O16 P3 1.605482 1_555
O16 V3 1.920053 1_555
O17 P2 1.547025 1_555
O17 V0 1.989424 1_455
O18 P6 1.610752 1_455
O18 P5 1.617377 1_555
O19 P6 1.505789 1_455
O20 P5 1.478626 1_555
O21 P5 1.568503 1_555
O21 V1 1.940421 1_455
O22 P4 1.599909 1_555
O22 V1 1.932681 1_455
O23 P8 1.585233 1_555
O23 V0 1.918736 1_555
O24 P9 1.549778 1_555
O24 V0 1.863903 1_455
O25 P9 1.532131 1_555
O25 V3 2.049924 1_555
O26 P1 1.601755 1_545
O26 P8 1.627594 1_555
O27 P1 1.505367 1_545
O28 P14 1.504408 1_565
O29 P6 1.547397 1_555
O29 V2 1.991704 1_555
O30 P6 1.539408 1_555
O30 V1 1.895232 1_555
O31 P7 1.541742 1_555
O31 V1 2.033917 1_455
O32 P11 1.588602 1_555
O32 V0 1.965816 1_555
O33 P10 1.547524 1_555
O33 V0 1.989822 1_555
O34 P10 1.499401 1_555
O35 P9 1.502118 1_655
O36 P10 1.613413 1_555
O36 P9 1.613627 1_655
O37 P13 1.540502 1_555
O37 V1 2.035755 1_555
O38 P12 1.534813 1_555
O38 V2 1.949424 1_555
O39 P8 1.574905 1_555
O39 V3 1.938826 1_545
O40 P12 1.592137 1_555
O40 V1 1.927705 1_555
O41 P12 1.499415 1_555
O42 P11 1.490107 1_555
O43 P11 1.574802 1_555
O43 V4 2.010118 1_555
O44 P14 1.542549 1_555
O44 V2 1.882621 1_555
O45 P11 1.603625 1_555
O45 V3 1.938738 1_545
O46 P10 1.543576 1_555
O46 V4 1.899053 1_555
O47 P13 1.607834 1_555
O47 P0 1.620237 1_555
O48 P0 1.473179 1_555
O49 P13 1.540844 1_555
O49 V5 1.891366 1_555
O50 P12 1.594577 1_555
O50 V5 1.914658 1_555
O51 P15 1.546228 1_555
O51 V4 1.992192 1_555
O52 P15 1.541459 1_555
O52 V3 2.039030 1_545
O53 P7 1.505153 1_545
O54 P7 1.616257 1_555
O54 P14 1.618070 1_565
O55 P14 1.535636 1_555
O55 V5 2.035919 1_555
O56 P2 1.503457 1_555
O57 P2 1.613696 1_555
O57 P15 1.617093 1_555
