# generated using pymatgen
data_Ba(YbSe2)2
_symmetry_space_group_name_H-M   'P 1'
_cell_length_a   4.61648300
_cell_length_b   10.71304800
_cell_length_c   16.88086100
_cell_angle_alpha   90.00000000
_cell_angle_beta   90.00000000
_cell_angle_gamma   90.00000000
_symmetry_Int_Tables_number   1
_chemical_formula_structural   Ba(YbSe2)2
_chemical_formula_sum   'Ba4 Yb8 Se16'
_cell_volume   834.87005715
_cell_formula_units_Z   4
loop_
 _symmetry_equiv_pos_site_id
 _symmetry_equiv_pos_as_xyz
  1  'x, y, z'
loop_
 _atom_site_type_symbol
 _atom_site_label
 _atom_site_symmetry_multiplicity
 _atom_site_fract_x
 _atom_site_fract_y
 _atom_site_fract_z
 _atom_site_occupancy
  Ba  Ba0  1  0.75000000  0.72803800  0.17998600  1
  Ba  Ba1  1  0.75000000  0.22803800  0.32001400  1
  Ba  Ba2  1  0.25000000  0.27196200  0.82001400  1
  Ba  Ba3  1  0.25000000  0.77196200  0.67998600  1
  Yb  Yb0  1  0.75000000  0.11666200  0.07012100  1
  Yb  Yb1  1  0.75000000  0.61666200  0.42987900  1
  Yb  Yb2  1  0.25000000  0.88333800  0.92987900  1
  Yb  Yb3  1  0.25000000  0.38333800  0.57012100  1
  Yb  Yb4  1  0.75000000  0.09028800  0.58191100  1
  Yb  Yb5  1  0.75000000  0.59028800  0.91808900  1
  Yb  Yb6  1  0.25000000  0.90971200  0.41808900  1
  Yb  Yb7  1  0.25000000  0.40971200  0.08191100  1
  Se  Se0  1  0.75000000  0.34233800  0.66370500  1
  Se  Se1  1  0.75000000  0.84233800  0.83629500  1
  Se  Se2  1  0.25000000  0.65766200  0.33629500  1
  Se  Se3  1  0.25000000  0.15766200  0.16370500  1
  Se  Se4  1  0.75000000  0.32723700  0.96345300  1
  Se  Se5  1  0.75000000  0.82723700  0.53654700  1
  Se  Se6  1  0.25000000  0.67276300  0.03654700  1
  Se  Se7  1  0.25000000  0.17276300  0.46345300  1
  Se  Se8  1  0.75000000  0.43070500  0.17986500  1
  Se  Se9  1  0.75000000  0.93070500  0.32013500  1
  Se  Se10  1  0.25000000  0.56929500  0.82013500  1
  Se  Se11  1  0.25000000  0.06929500  0.67986500  1
  Se  Se12  1  0.75000000  0.06174800  0.89610700  1
  Se  Se13  1  0.75000000  0.56174800  0.60389300  1
  Se  Se14  1  0.25000000  0.93825200  0.10389300  1
  Se  Se15  1  0.25000000  0.43825200  0.39610700  1
loop_
_geom_bond_atom_site_label_1
_geom_bond_atom_site_label_2
_geom_bond_distance
_geom_bond_site_symmetry_2
Ba0 Se8 3.185343 1_555
Ba0 Se9 3.211107 1_555
Ba0 Se6 3.397306 1_655
Ba0 Se6 3.397306 1_555
Ba0 Se14 3.471255 1_655
Ba0 Se14 3.471255 1_555
Ba0 Se2 3.585914 1_555
Ba0 Se2 3.585914 1_655
Ba1 Se9 3.185343 1_545
Ba1 Se8 3.211107 1_555
Ba1 Se7 3.397306 1_655
Ba1 Se7 3.397306 1_555
Ba1 Se15 3.471255 1_655
Ba1 Se15 3.471255 1_555
Ba1 Se3 3.585914 1_555
Ba1 Se3 3.585914 1_655
Ba2 Se10 3.185343 1_555
Ba2 Se11 3.211107 1_555
Ba2 Se4 3.397306 1_455
Ba2 Se4 3.397306 1_555
Ba2 Se12 3.471255 1_555
Ba2 Se12 3.471255 1_455
Ba2 Se0 3.585914 1_455
Ba2 Se0 3.585914 1_555
Ba3 Se11 3.185343 1_565
Ba3 Se10 3.211107 1_555
Ba3 Se5 3.397306 1_455
Ba3 Se5 3.397306 1_555
Ba3 Se13 3.471255 1_455
Ba3 Se13 3.471255 1_555
Ba3 Se1 3.585914 1_455
Ba3 Se1 3.585914 1_555
Se0 Se13 2.558229 1_555
Se0 Yb3 2.831361 1_555
Se0 Yb3 2.831361 1_655
Se0 Yb4 3.032769 1_555
Se1 Se12 2.558229 1_565
Se1 Yb2 2.831361 1_555
Se1 Yb2 2.831361 1_655
Se1 Yb5 3.032769 1_555
Se2 Yb1 2.831361 1_555
Se2 Yb1 2.831361 1_455
Se2 Yb6 3.032769 1_555
Se3 Yb0 2.831361 1_455
Se3 Yb0 2.831361 1_555
Se3 Yb7 3.032769 1_555
Se4 Yb0 2.886419 1_556
Se4 Yb5 2.920272 1_555
Se4 Yb7 3.179205 1_556
Se4 Yb7 3.179205 1_656
Se5 Yb1 2.886419 1_555
Se5 Yb4 2.920272 1_565
Se5 Yb6 3.179205 1_655
Se5 Yb6 3.179205 1_555
Se6 Yb2 2.886419 1_554
Se6 Yb7 2.920272 1_555
Se6 Yb5 3.179205 1_454
Se6 Yb5 3.179205 1_554
Se7 Yb3 2.886419 1_555
Se7 Yb6 2.920272 1_545
Se7 Yb4 3.179205 1_455
Se7 Yb4 3.179205 1_555
Se8 Yb7 2.848294 1_555
Se8 Yb7 2.848294 1_655
Se9 Yb6 2.848294 1_655
Se9 Yb6 2.848294 1_555
Se10 Yb5 2.848294 1_555
Se10 Yb5 2.848294 1_455
Se11 Yb4 2.848294 1_455
Se11 Yb4 2.848294 1_555
Se12 Yb0 2.995836 1_556
Se12 Yb2 3.050593 1_645
Se12 Yb2 3.050593 1_545
Se13 Yb1 2.995836 1_555
Se13 Yb3 3.050593 1_555
Se13 Yb3 3.050593 1_655
Se14 Se3 2.558229 1_565
Se14 Yb2 2.995836 1_554
Se14 Yb0 3.050593 1_465
Se14 Yb0 3.050593 1_565
Se15 Se2 2.558229 1_555
Se15 Yb3 2.995836 1_555
Se15 Yb1 3.050593 1_555
Se15 Yb1 3.050593 1_455
