# generated using pymatgen
data_Ca2Al3Si3O14
_symmetry_space_group_name_H-M   'P 1'
_cell_length_a   10.38980880
_cell_length_b   10.38980880
_cell_length_c   8.66952107
_cell_angle_alpha   82.48733133
_cell_angle_beta   82.48733133
_cell_angle_gamma   33.03608487
_symmetry_Int_Tables_number   1
_chemical_formula_structural   Ca2Al3Si3O14
_chemical_formula_sum   'Ca4 Al6 Si6 O28'
_cell_volume   505.43277661
_cell_formula_units_Z   2
loop_
 _symmetry_equiv_pos_site_id
 _symmetry_equiv_pos_as_xyz
  1  'x, y, z'
loop_
 _atom_site_type_symbol
 _atom_site_label
 _atom_site_symmetry_multiplicity
 _atom_site_fract_x
 _atom_site_fract_y
 _atom_site_fract_z
 _atom_site_occupancy
  Ca  Ca0  1  0.83928000  0.83928000  0.25169100  1
  Ca  Ca1  1  0.16072000  0.16072000  0.74830900  1
  Ca  Ca2  1  0.65272100  0.65272100  0.33654200  1
  Ca  Ca3  1  0.34727900  0.34727900  0.66345800  1
  Al  Al0  1  0.73793200  0.24968600  0.24414500  1
  Al  Al1  1  0.26206800  0.75031400  0.75585500  1
  Al  Al2  1  0.75031400  0.26206800  0.75585500  1
  Al  Al3  1  0.24968600  0.73793200  0.24414500  1
  Al  Al4  1  0.50000000  0.00000000  0.00000000  1
  Al  Al5  1  0.00000000  0.50000000  0.00000000  1
  Si  Si0  1  0.91396700  0.91396700  0.55768700  1
  Si  Si1  1  0.08603300  0.08603300  0.44231300  1
  Si  Si2  1  0.40246100  0.40246100  0.03354100  1
  Si  Si3  1  0.59753900  0.59753900  0.96645900  1
  Si  Si4  1  0.75726000  0.75726000  0.66778200  1
  Si  Si5  1  0.24274000  0.24274000  0.33221800  1
  O  O0  1  0.97648300  0.97648300  0.87854500  1
  O  O1  1  0.02351700  0.02351700  0.12145500  1
  O  O2  1  0.63593000  0.19594200  0.14278400  1
  O  O3  1  0.36407000  0.80405800  0.85721600  1
  O  O4  1  0.80405800  0.36407000  0.85721600  1
  O  O5  1  0.19594200  0.63593000  0.14278400  1
  O  O6  1  0.80376100  0.80376100  0.01025100  1
  O  O7  1  0.19623900  0.19623900  0.98974900  1
  O  O8  1  0.83122500  0.83122500  0.54671900  1
  O  O9  1  0.16877500  0.16877500  0.45328100  1
  O  O10  1  0.67461800  0.67461800  0.01885300  1
  O  O11  1  0.32538200  0.32538200  0.98114700  1
  O  O12  1  0.47385800  0.01009700  0.22436300  1
  O  O13  1  0.52614200  0.98990300  0.77563700  1
  O  O14  1  0.98990300  0.52614200  0.77563700  1
  O  O15  1  0.01009700  0.47385800  0.22436300  1
  O  O16  1  0.69854600  0.69854600  0.55886600  1
  O  O17  1  0.30145400  0.30145400  0.44113400  1
  O  O18  1  0.54150000  0.54150000  0.12513000  1
  O  O19  1  0.45850000  0.45850000  0.87487000  1
  O  O20  1  0.29468700  0.84096700  0.35155100  1
  O  O21  1  0.70531300  0.15903300  0.64844900  1
  O  O22  1  0.15903300  0.70531300  0.64844900  1
  O  O23  1  0.84096700  0.29468700  0.35155100  1
  O  O24  1  0.94641400  0.94641400  0.37217900  1
  O  O25  1  0.05358600  0.05358600  0.62782100  1
  O  O26  1  0.45486900  0.45486900  0.36633300  1
  O  O27  1  0.54513100  0.54513100  0.63366700  1
loop_
_geom_bond_atom_site_label_1
_geom_bond_atom_site_label_2
_geom_bond_distance
_geom_bond_site_symmetry_2
Ca0 O6 2.299141 1_555
Ca0 O2 2.359447 1_565
Ca0 O5 2.359447 1_655
Ca0 O24 2.500914 1_555
Ca0 O15 2.539342 1_655
Ca0 O12 2.539342 1_565
Ca0 O8 2.540845 1_555
Ca1 O7 2.299141 1_555
Ca1 O4 2.359447 1_455
Ca1 O3 2.359447 1_545
Ca1 O25 2.500914 1_555
Ca1 O13 2.539342 1_545
Ca1 O14 2.539342 1_455
Ca1 O9 2.540845 1_555
Ca2 O16 2.242410 1_555
Ca2 O20 2.328378 1_555
Ca2 O23 2.328378 1_555
Ca2 O12 2.478966 1_565
Ca2 O15 2.478966 1_655
Ca2 O10 2.729154 1_555
Ca3 O17 2.242410 1_555
Ca3 O21 2.328378 1_555
Ca3 O22 2.328378 1_555
Ca3 O14 2.478966 1_455
Ca3 O13 2.478966 1_545
Ca3 O11 2.729154 1_555
Al0 O23 1.856169 1_555
Al0 O2 1.889753 1_555
Al0 O26 1.892085 1_555
Al0 O1 1.896118 1_655
Al0 O18 1.944249 1_555
Al0 O24 2.030531 1_545
Al1 O22 1.856169 1_555
Al1 O3 1.889753 1_555
Al1 O27 1.892085 1_555
Al1 O0 1.896118 1_455
Al1 O19 1.944249 1_555
Al1 O25 2.030531 1_565
Al2 O21 1.856169 1_555
Al2 O4 1.889753 1_555
Al2 O27 1.892085 1_555
Al2 O0 1.896118 1_545
Al2 O19 1.944249 1_555
Al2 O25 2.030531 1_655
Al3 O20 1.856169 1_555
Al3 O5 1.889753 1_555
Al3 O26 1.892085 1_555
Al3 O1 1.896118 1_565
Al3 O18 1.944249 1_555
Al3 O24 2.030531 1_455
Al4 O6 1.833711 1_545
Al4 O7 1.833711 1_554
Al4 O13 1.932797 1_544
Al4 O12 1.932797 1_555
Al4 O10 2.096806 1_545
Al4 O11 2.096806 1_554
Al5 O6 1.833711 1_455
Al5 O7 1.833711 1_554
Al5 O14 1.932797 1_454
Al5 O15 1.932797 1_555
Al5 O10 2.096806 1_455
Al5 O11 2.096806 1_554
O2 Si2 1.651564 1_555
O3 Si3 1.651564 1_555
O4 Si3 1.651564 1_555
O5 Si2 1.651564 1_555
O8 Si0 1.664026 1_555
O8 Si4 1.688507 1_555
O9 Si1 1.664026 1_555
O9 Si5 1.688507 1_555
O10 Si3 1.659683 1_554
O11 Si2 1.659683 1_556
O12 Si5 1.659877 1_555
O13 Si4 1.659877 1_555
O14 Si4 1.659877 1_555
O15 Si5 1.659877 1_555
O16 Si4 1.600331 1_555
O17 Si5 1.600331 1_555
O18 Si3 1.649178 1_554
O19 Si2 1.649178 1_556
O20 Si1 1.620161 1_565
O21 Si0 1.620161 1_545
O22 Si0 1.620161 1_455
O23 Si1 1.620161 1_655
O24 Si0 1.649490 1_555
O25 Si1 1.649490 1_555
