# generated using pymatgen
data_NdEuNiSbO6
_symmetry_space_group_name_H-M   'P 1'
_cell_length_a   5.58541993
_cell_length_b   5.58542697
_cell_length_c   5.58543884
_cell_angle_alpha   59.99984744
_cell_angle_beta   59.99996792
_cell_angle_gamma   59.99998095
_symmetry_Int_Tables_number   1
_chemical_formula_structural   NdEuNiSbO6
_chemical_formula_sum   'Nd1 Eu1 Ni1 Sb1 O6'
_cell_volume   123.21223698
_cell_formula_units_Z   1
loop_
 _symmetry_equiv_pos_site_id
 _symmetry_equiv_pos_as_xyz
  1  'x, y, z'
loop_
 _atom_site_type_symbol
 _atom_site_label
 _atom_site_symmetry_multiplicity
 _atom_site_fract_x
 _atom_site_fract_y
 _atom_site_fract_z
 _atom_site_occupancy
  Nd  Nd0  1  0.25000012  0.24999928  0.25000048  1
  Eu  Eu0  1  0.74999887  0.74999912  0.75000091  1
  Ni  Ni0  1  0.99999835  0.00000053  0.00000098  1
  Sb  Sb0  1  0.50000057  0.50000029  0.49999954  1
  O  O0  1  0.74719278  0.25280722  0.25280688  1
  O  O1  1  0.25280773  0.74719338  0.74719210  1
  O  O2  1  0.74719388  0.25280716  0.74719287  1
  O  O3  1  0.25280736  0.74719335  0.25280654  1
  O  O4  1  0.74719480  0.74719383  0.25280569  1
  O  O5  1  0.25280553  0.25280584  0.74719401  1
loop_
_geom_bond_atom_site_label_1
_geom_bond_atom_site_label_2
_geom_bond_distance
_geom_bond_site_symmetry_2
Nd0 O1 2.792791 1_545
Nd0 O0 2.792797 1_555
Nd0 O3 2.792797 1_545
Nd0 O2 2.792797 1_455
Nd0 O4 2.792798 1_455
Nd0 O0 2.792799 1_455
Nd0 O4 2.792799 1_545
Nd0 O5 2.792805 1_555
Nd0 O1 2.792805 1_554
Nd0 O2 2.792805 1_554
Nd0 O3 2.792806 1_555
Nd0 O5 2.792810 1_554
Eu0 O1 2.792789 1_555
Eu0 O0 2.792792 1_556
Eu0 O2 2.792793 1_555
Eu0 O3 2.792793 1_556
Eu0 O5 2.792799 1_655
Eu0 O5 2.792799 1_565
Eu0 O0 2.792804 1_565
Eu0 O4 2.792807 1_555
Eu0 O1 2.792807 1_655
Eu0 O4 2.792808 1_556
Eu0 O3 2.792809 1_655
Eu0 O2 2.792810 1_565
Ni0 O4 1.996901 1_545
Ni0 O5 1.996909 1_654
Ni0 O2 1.996912 1_554
Ni0 O0 1.996917 1_555
Ni0 O3 1.996920 1_645
Ni0 O1 1.996931 1_644
O0 Sb0 1.952577 1_555
O1 Sb0 1.952576 1_555
O2 Sb0 1.952576 1_555
O3 Sb0 1.952574 1_555
O4 Sb0 1.952578 1_555
O5 Sb0 1.952584 1_555
