# generated using pymatgen
data_AlCrGe
_symmetry_space_group_name_H-M   'P 1'
_cell_length_a   5.95066436
_cell_length_b   4.92155793
_cell_length_c   4.74763599
_cell_angle_alpha   75.94187597
_cell_angle_beta   53.34930580
_cell_angle_gamma   50.70881823
_symmetry_Int_Tables_number   1
_chemical_formula_structural   AlCrGe
_chemical_formula_sum   'Al2 Cr2 Ge2'
_cell_volume   84.26550152
_cell_formula_units_Z   2
loop_
 _symmetry_equiv_pos_site_id
 _symmetry_equiv_pos_as_xyz
  1  'x, y, z'
loop_
 _atom_site_type_symbol
 _atom_site_label
 _atom_site_symmetry_multiplicity
 _atom_site_fract_x
 _atom_site_fract_y
 _atom_site_fract_z
 _atom_site_occupancy
  Al  Al0  1  0.07786100  0.42213900  0.07786100  1
  Al  Al1  1  0.42213900  0.07786100  0.42213900  1
  Cr  Cr0  1  0.75000000  0.75000000  0.75000000  1
  Cr  Cr1  1  0.00000000  0.00000000  0.00000000  1
  Ge  Ge0  1  0.66934300  0.33065700  0.66934300  1
  Ge  Ge1  1  0.33065700  0.66934300  0.33065700  1
loop_
_geom_bond_atom_site_label_1
_geom_bond_atom_site_label_2
_geom_bond_distance
_geom_bond_site_symmetry_2
Al0 Cr1 2.542515 1_565
Al0 Cr1 2.542515 1_555
Al0 Ge0 2.572932 1_455
Al0 Ge0 2.572932 1_554
Al0 Cr0 2.692804 1_454
Al0 Al1 2.703976 1_465
Al0 Al1 2.703976 1_554
Al0 Cr0 2.770302 1_455
Al0 Cr0 2.770302 1_544
Al0 Al1 2.827641 1_555
Al1 Cr1 2.542515 1_655
Al1 Cr1 2.542515 1_556
Al1 Ge1 2.572932 1_545
Al1 Ge1 2.572932 1_555
Al1 Cr0 2.692804 1_545
Al1 Cr0 2.770302 1_455
Al1 Cr0 2.770302 1_544
Cr0 Ge0 2.548388 1_565
Cr0 Ge0 2.548388 1_555
Cr0 Ge1 2.548388 1_556
Cr0 Ge1 2.548388 1_655
Cr1 Ge1 2.715768 1_545
Cr1 Ge0 2.715768 1_454
Cr1 Ge1 2.758653 1_455
Cr1 Ge0 2.758653 1_544
Cr1 Ge1 2.758653 1_544
Cr1 Ge0 2.758653 1_455
Ge0 Ge1 2.726000 1_556
Ge0 Ge1 2.726000 1_645
Ge0 Ge1 2.781712 1_555
