# generated using pymatgen
data_YZnGe
_symmetry_space_group_name_H-M   'P 1'
_cell_length_a   4.18564944
_cell_length_b   4.18564944
_cell_length_c   15.90867869
_cell_angle_alpha   90.00000000
_cell_angle_beta   90.00000000
_cell_angle_gamma   119.99999998
_symmetry_Int_Tables_number   1
_chemical_formula_structural   YZnGe
_chemical_formula_sum   'Y4 Zn4 Ge4'
_cell_volume   241.37397737
_cell_formula_units_Z   4
loop_
 _symmetry_equiv_pos_site_id
 _symmetry_equiv_pos_as_xyz
  1  'x, y, z'
loop_
 _atom_site_type_symbol
 _atom_site_label
 _atom_site_symmetry_multiplicity
 _atom_site_fract_x
 _atom_site_fract_y
 _atom_site_fract_z
 _atom_site_occupancy
  Y  Y0  1  0.00000000  -0.00000000  0.75000000  1
  Y  Y1  1  -0.00000000  -0.00000000  0.25000000  1
  Y  Y2  1  -0.00000000  -0.00000000  0.50000000  1
  Y  Y3  1  -0.00000000  -0.00000000  0.00000000  1
  Zn  Zn0  1  0.66666700  0.33333300  0.85462532  1
  Zn  Zn1  1  0.66666700  0.33333300  0.64537468  1
  Zn  Zn2  1  0.33333300  0.66666700  0.14537468  1
  Zn  Zn3  1  0.33333300  0.66666700  0.35462532  1
  Ge  Ge0  1  0.66666700  0.33333300  0.11486405  1
  Ge  Ge1  1  0.66666700  0.33333300  0.38513595  1
  Ge  Ge2  1  0.33333300  0.66666700  0.88513595  1
  Ge  Ge3  1  0.33333300  0.66666700  0.61486405  1
loop_
_geom_bond_atom_site_label_1
_geom_bond_atom_site_label_2
_geom_bond_distance
_geom_bond_site_symmetry_2
Y0 Zn0 2.934326 1_455
Y0 Zn1 2.934326 1_455
Y0 Zn0 2.934329 1_555
Y0 Zn1 2.934329 1_555
Y0 Zn0 2.934329 1_445
Y0 Zn1 2.934329 1_445
Y1 Zn2 2.934326 1_545
Y1 Zn3 2.934326 1_545
Y1 Zn2 2.934329 1_445
Y1 Zn3 2.934329 1_445
Y1 Zn2 2.934329 1_555
Y1 Zn3 2.934329 1_555
Ge0 Zn2 2.464847 1_655
Ge0 Zn2 2.464847 1_545
Ge0 Zn2 2.464855 1_555
Ge0 Y3 3.029691 1_655
Ge0 Y3 3.029694 1_555
Ge0 Y3 3.029694 1_665
Ge0 Y1 3.234449 1_655
Ge0 Y1 3.234452 1_555
Ge0 Y1 3.234452 1_665
Ge1 Zn3 2.464847 1_655
Ge1 Zn3 2.464847 1_545
Ge1 Zn3 2.464855 1_555
Ge1 Y2 3.029691 1_655
Ge1 Y2 3.029694 1_555
Ge1 Y2 3.029694 1_665
Ge1 Y1 3.234449 1_655
Ge1 Y1 3.234452 1_555
Ge1 Y1 3.234452 1_665
Ge2 Zn0 2.464847 1_455
Ge2 Zn0 2.464847 1_565
Ge2 Zn0 2.464855 1_555
Ge2 Y3 3.029691 1_566
Ge2 Y3 3.029694 1_666
Ge2 Y3 3.029694 1_556
Ge2 Y0 3.234449 1_565
Ge2 Y0 3.234452 1_665
Ge2 Y0 3.234452 1_555
Ge3 Zn1 2.464847 1_455
Ge3 Zn1 2.464847 1_565
Ge3 Zn1 2.464855 1_555
Ge3 Y2 3.029691 1_565
Ge3 Y2 3.029694 1_665
Ge3 Y2 3.029694 1_555
Ge3 Y0 3.234449 1_565
Ge3 Y0 3.234452 1_665
Ge3 Y0 3.234452 1_555
