# generated using pymatgen
data_Ca2SnSbO6
_symmetry_space_group_name_H-M   'P 1'
_cell_length_a   8.10462900
_cell_length_b   5.62206900
_cell_length_c   5.82373797
_cell_angle_alpha   89.96701212
_cell_angle_beta   90.00000000
_cell_angle_gamma   90.00000000
_symmetry_Int_Tables_number   1
_chemical_formula_structural   Ca2SnSbO6
_chemical_formula_sum   'Ca4 Sn2 Sb2 O12'
_cell_volume   265.35731532
_cell_formula_units_Z   2
loop_
 _symmetry_equiv_pos_site_id
 _symmetry_equiv_pos_as_xyz
  1  'x, y, z'
loop_
 _atom_site_type_symbol
 _atom_site_label
 _atom_site_symmetry_multiplicity
 _atom_site_fract_x
 _atom_site_fract_y
 _atom_site_fract_z
 _atom_site_occupancy
  Ca  Ca0  1  0.25000000  0.48573200  0.44361000  1
  Ca  Ca1  1  0.75000000  0.51426800  0.55639000  1
  Ca  Ca2  1  0.25000000  0.01232600  0.94902600  1
  Ca  Ca3  1  0.75000000  0.98767400  0.05097400  1
  Sn  Sn0  1  0.50000000  0.50000000  0.00000000  1
  Sn  Sn1  1  0.00000000  0.50000000  0.00000000  1
  Sb  Sb0  1  0.50000000  0.00000000  0.50000000  1
  Sb  Sb1  1  0.00000000  0.00000000  0.50000000  1
  O  O0  1  0.55665400  0.69178100  0.30062700  1
  O  O1  1  0.94347600  0.80326700  0.80350900  1
  O  O2  1  0.05665400  0.30821900  0.69937300  1
  O  O3  1  0.44347600  0.19673300  0.19649100  1
  O  O4  1  0.55652400  0.80326700  0.80350900  1
  O  O5  1  0.05652400  0.19673300  0.19649100  1
  O  O6  1  0.75000000  0.10023100  0.46180200  1
  O  O7  1  0.94334600  0.69178100  0.30062700  1
  O  O8  1  0.25000000  0.60944200  0.04530800  1
  O  O9  1  0.44334600  0.30821900  0.69937300  1
  O  O10  1  0.25000000  0.89976900  0.53819800  1
  O  O11  1  0.75000000  0.39055800  0.95469200  1
loop_
_geom_bond_atom_site_label_1
_geom_bond_atom_site_label_2
_geom_bond_distance
_geom_bond_site_symmetry_2
Ca0 O9 2.380831 1_555
Ca0 O2 2.380831 1_555
Ca0 O10 2.392345 1_555
Ca0 O8 2.421249 1_555
Ca0 O3 2.678159 1_555
Ca0 O5 2.678159 1_555
Ca0 O0 2.865486 1_555
Ca0 O7 2.865486 1_455
Ca1 O7 2.380831 1_555
Ca1 O0 2.380831 1_555
Ca1 O6 2.392345 1_555
Ca1 O11 2.421249 1_555
Ca1 O4 2.678159 1_555
Ca1 O1 2.678159 1_555
Ca1 O2 2.865486 1_655
Ca1 O9 2.865486 1_555
Ca2 O8 2.333101 1_546
Ca2 O3 2.369035 1_556
Ca2 O5 2.369035 1_556
Ca2 O10 2.475177 1_545
Ca2 O9 2.708117 1_555
Ca2 O2 2.708117 1_555
Ca2 O1 2.876164 1_445
Ca2 O4 2.876164 1_545
Ca3 O11 2.333101 1_564
Ca3 O4 2.369035 1_554
Ca3 O1 2.369035 1_554
Ca3 O6 2.475177 1_565
Ca3 O7 2.708117 1_555
Ca3 O0 2.708117 1_555
Ca3 O5 2.876164 1_665
Ca3 O3 2.876164 1_565
O0 Sn0 2.107305 1_555
O0 Sb0 2.136348 1_565
O1 Sn1 2.103342 1_656
O1 Sb1 2.134293 1_665
O2 Sn1 2.107305 1_556
O2 Sb1 2.136348 1_555
O3 Sn0 2.103342 1_555
O3 Sb0 2.134293 1_555
O4 Sn0 2.103342 1_556
O4 Sb0 2.134293 1_565
O5 Sn1 2.103342 1_555
O5 Sb1 2.134293 1_555
O6 Sb1 2.114756 1_655
O6 Sb0 2.114756 1_555
O7 Sn1 2.107305 1_655
O7 Sb1 2.136348 1_665
O8 Sn1 2.133941 1_555
O8 Sn0 2.133941 1_555
O9 Sn0 2.107305 1_556
O9 Sb0 2.136348 1_555
O10 Sb1 2.114756 1_565
O10 Sb0 2.114756 1_565
O11 Sn0 2.133941 1_556
O11 Sn1 2.133941 1_656
