# generated using pymatgen
data_MgNiB2P2(H3O4)4
_symmetry_space_group_name_H-M   'P 1'
_cell_length_a   9.92115295
_cell_length_b   9.92115295
_cell_length_c   9.92115271
_cell_angle_alpha   99.24912679
_cell_angle_beta   99.24912679
_cell_angle_gamma   99.24912696
_symmetry_Int_Tables_number   1
_chemical_formula_structural   MgNiB2P2(H3O4)4
_chemical_formula_sum   'Mg3 Ni3 B6 P6 H36 O48'
_cell_volume   933.69711999
_cell_formula_units_Z   3
loop_
 _symmetry_equiv_pos_site_id
 _symmetry_equiv_pos_as_xyz
  1  'x, y, z'
loop_
 _atom_site_type_symbol
 _atom_site_label
 _atom_site_symmetry_multiplicity
 _atom_site_fract_x
 _atom_site_fract_y
 _atom_site_fract_z
 _atom_site_occupancy
  Mg  Mg0  1  0.50000000  0.99912600  0.00087400  1
  Mg  Mg1  1  0.00087400  0.50000000  0.99912600  1
  Mg  Mg2  1  0.99912600  0.00087400  0.50000000  1
  Ni  Ni0  1  0.50105900  0.49894000  0.00000000  1
  Ni  Ni1  1  0.00000000  0.50106000  0.49894100  1
  Ni  Ni2  1  0.49894000  0.00000000  0.50106000  1
  B  B0  1  0.81050200  0.18949800  0.00000000  1
  B  B1  1  0.00000000  0.81050200  0.18949800  1
  B  B2  1  0.18949800  0.00000000  0.81050200  1
  B  B3  1  0.50000000  0.69012400  0.30987600  1
  B  B4  1  0.30987600  0.50000000  0.69012400  1
  B  B5  1  0.69012400  0.30987600  0.50000000  1
  P  P0  1  0.18881900  0.81118100  0.00000000  1
  P  P1  1  0.00000000  0.18881900  0.81118100  1
  P  P2  1  0.81118100  0.00000000  0.18881900  1
  P  P3  1  0.50000000  0.30940300  0.69059700  1
  P  P4  1  0.69059700  0.50000000  0.30940300  1
  P  P5  1  0.30940300  0.69059700  0.50000000  1
  H  H0  1  0.95152000  0.27737000  0.29645200  1
  H  H1  1  0.29645200  0.95152000  0.27737000  1
  H  H2  1  0.27737000  0.29645200  0.95152000  1
  H  H3  1  0.79316700  0.77149900  0.45285700  1
  H  H4  1  0.45285700  0.79316700  0.77149900  1
  H  H5  1  0.77149900  0.45285700  0.79316700  1
  H  H6  1  0.54714300  0.22850100  0.20683300  1
  H  H7  1  0.20683300  0.54714300  0.22850100  1
  H  H8  1  0.22850100  0.20683300  0.54714300  1
  H  H9  1  0.70354800  0.72263000  0.04848000  1
  H  H10  1  0.04848000  0.70354800  0.72263000  1
  H  H11  1  0.72263000  0.04848000  0.70354800  1
  H  H12  1  0.08501400  0.77963500  0.37853200  1
  H  H13  1  0.37853200  0.08501400  0.77963500  1
  H  H14  1  0.77963500  0.37853200  0.08501400  1
  H  H15  1  0.87833100  0.27707700  0.58771200  1
  H  H16  1  0.58771200  0.87833100  0.27707700  1
  H  H17  1  0.27707700  0.58771200  0.87833100  1
  H  H18  1  0.41228800  0.72292300  0.12166900  1
  H  H19  1  0.12166900  0.41228800  0.72292300  1
  H  H20  1  0.72292300  0.12166900  0.41228800  1
  H  H21  1  0.62146800  0.22036500  0.91498600  1
  H  H22  1  0.91498600  0.62146800  0.22036500  1
  H  H23  1  0.22036500  0.91498600  0.62146800  1
  H  H24  1  0.08024400  0.38329100  0.27588400  1
  H  H25  1  0.27588400  0.08024400  0.38329100  1
  H  H26  1  0.38329100  0.27588400  0.08024400  1
  H  H27  1  0.77335900  0.87685000  0.58078700  1
  H  H28  1  0.58078700  0.77335900  0.87685000  1
  H  H29  1  0.87685000  0.58078700  0.77335900  1
  H  H30  1  0.41921300  0.12315000  0.22664100  1
  H  H31  1  0.22664100  0.41921300  0.12315000  1
  H  H32  1  0.12315000  0.22664100  0.41921300  1
  H  H33  1  0.72411600  0.61670900  0.91975600  1
  H  H34  1  0.91975600  0.72411600  0.61670900  1
  H  H35  1  0.61670900  0.91975600  0.72411600  1
  O  O0  1  0.03919700  0.85217600  0.34129600  1
  O  O1  1  0.34129600  0.03919700  0.85217600  1
  O  O2  1  0.85217600  0.34129600  0.03919700  1
  O  O3  1  0.84113300  0.35035200  0.54396900  1
  O  O4  1  0.54396900  0.84113300  0.35035200  1
  O  O5  1  0.35035200  0.54396900  0.84113300  1
  O  O6  1  0.45603100  0.64964800  0.15886700  1
  O  O7  1  0.15886700  0.45603100  0.64964800  1
  O  O8  1  0.64964800  0.15886700  0.45603100  1
  O  O9  1  0.65870400  0.14782400  0.96080300  1
  O  O10  1  0.96080300  0.65870400  0.14782400  1
  O  O11  1  0.14782400  0.96080300  0.65870400  1
  O  O12  1  0.85717400  0.04887500  0.34644400  1
  O  O13  1  0.34644400  0.85717400  0.04887500  1
  O  O14  1  0.04887500  0.34644400  0.85717400  1
  O  O15  1  0.84728700  0.55641600  0.35302200  1
  O  O16  1  0.35302200  0.84728700  0.55641600  1
  O  O17  1  0.55641600  0.35302200  0.84728700  1
  O  O18  1  0.64697800  0.44358400  0.15271300  1
  O  O19  1  0.15271300  0.64697800  0.44358400  1
  O  O20  1  0.44358400  0.15271300  0.64697800  1
  O  O21  1  0.65355600  0.95112500  0.14282600  1
  O  O22  1  0.14282600  0.65355600  0.95112500  1
  O  O23  1  0.95112500  0.14282600  0.65355600  1
  O  O24  1  0.03573900  0.34298100  0.34900100  1
  O  O25  1  0.34900100  0.03573900  0.34298100  1
  O  O26  1  0.34298100  0.34900100  0.03573900  1
  O  O27  1  0.84603500  0.83651900  0.53724400  1
  O  O28  1  0.53724400  0.84603500  0.83651900  1
  O  O29  1  0.83651900  0.53724400  0.84603500  1
  O  O30  1  0.46275600  0.16348100  0.15396500  1
  O  O31  1  0.15396500  0.46275600  0.16348100  1
  O  O32  1  0.16348100  0.15396500  0.46275600  1
  O  O33  1  0.65099900  0.65701900  0.96426100  1
  O  O34  1  0.96426100  0.65099900  0.65701900  1
  O  O35  1  0.65701900  0.96426100  0.65099900  1
  O  O36  1  0.86474900  0.12711600  0.12176100  1
  O  O37  1  0.12176100  0.86474900  0.12711600  1
  O  O38  1  0.12711600  0.12176100  0.86474900  1
  O  O39  1  0.61916400  0.62412000  0.36019400  1
  O  O40  1  0.36019400  0.61916400  0.62412000  1
  O  O41  1  0.62412000  0.36019400  0.61916400  1
  O  O42  1  0.63980600  0.37588000  0.38083600  1
  O  O43  1  0.38083600  0.63980600  0.37588000  1
  O  O44  1  0.37588000  0.38083600  0.63980600  1
  O  O45  1  0.87823900  0.87288400  0.13525100  1
  O  O46  1  0.13525100  0.87823900  0.87288400  1
  O  O47  1  0.87288400  0.13525100  0.87823900  1
loop_
_geom_bond_atom_site_label_1
_geom_bond_atom_site_label_2
_geom_bond_distance
_geom_bond_site_symmetry_2
Mg0 O21 2.071282 1_555
Mg0 O13 2.071282 1_555
Mg0 O1 2.111071 1_564
Mg0 O9 2.111071 1_564
Mg0 O28 2.163377 1_554
Mg0 O30 2.163377 1_565
Mg1 O14 2.071282 1_555
Mg1 O22 2.071282 1_555
Mg1 O10 2.111071 1_456
Mg1 O2 2.111071 1_456
Mg1 O31 2.163377 1_556
Mg1 O29 2.163377 1_455
Mg2 O23 2.071282 1_555
Mg2 O12 2.071282 1_555
Mg2 O11 2.111071 1_645
Mg2 O0 2.111071 1_645
Mg2 O27 2.163377 1_545
Mg2 O32 2.163377 1_655
Ni0 O26 2.096796 1_555
Ni0 O33 2.096809 1_554
Ni0 O17 2.123883 1_554
Ni0 O18 2.123884 1_555
Ni0 O5 2.145438 1_554
Ni0 O6 2.145440 1_555
Ni1 O34 2.096796 1_455
Ni1 O24 2.096809 1_555
Ni1 O19 2.123883 1_555
Ni1 O15 2.123884 1_455
Ni1 O7 2.145438 1_555
Ni1 O3 2.145440 1_455
Ni2 O25 2.096803 1_555
Ni2 O35 2.096803 1_545
Ni2 O20 2.123878 1_555
Ni2 O16 2.123878 1_545
Ni2 O4 2.145444 1_545
Ni2 O8 2.145444 1_555
B0 O2 1.466334 1_555
B0 O9 1.466334 1_554
B0 O36 1.506782 1_555
B0 O47 1.506782 1_554
B1 O0 1.466334 1_555
B1 O10 1.466334 1_455
B1 O37 1.506782 1_555
B1 O45 1.506782 1_455
B2 O11 1.466334 1_545
B2 O1 1.466334 1_555
B2 O46 1.506782 1_545
B2 O38 1.506782 1_555
B3 O6 1.461613 1_555
B3 O4 1.461613 1_555
B3 O43 1.496647 1_555
B3 O39 1.496647 1_555
B4 O5 1.461613 1_555
B4 O7 1.461613 1_555
B4 O40 1.496647 1_555
B4 O44 1.496647 1_555
B5 O3 1.461613 1_555
B5 O8 1.461613 1_555
B5 O41 1.496647 1_555
B5 O42 1.496647 1_555
H0 O24 0.984738 1_655
H1 O25 0.984738 1_565
H2 O26 0.984738 1_556
H3 O27 0.984191 1_555
H4 O28 0.984191 1_555
H5 O29 0.984191 1_555
H6 O30 0.984191 1_555
H7 O31 0.984191 1_555
H8 O32 0.984191 1_555
H9 O33 0.984738 1_554
H10 O34 0.984738 1_455
H11 O35 0.984738 1_545
H12 O0 0.998848 1_555
H12 O19 1.737139 1_555
H13 O1 0.998848 1_555
H13 O20 1.737139 1_555
H14 O2 0.998848 1_555
H14 O18 1.737139 1_555
H15 O3 0.994585 1_555
H16 O4 0.994585 1_555
H17 O5 0.994585 1_555
H18 O6 0.994585 1_555
H19 O7 0.994585 1_555
H20 O8 0.994585 1_555
H21 O9 0.998848 1_555
H21 O17 1.737139 1_555
H22 O10 0.998848 1_555
H22 O15 1.737139 1_555
H23 O11 0.998848 1_555
H23 O16 1.737139 1_555
H24 O24 1.010228 1_555
H25 O25 1.010228 1_555
H26 O26 1.010228 1_555
H27 O27 1.001955 1_555
H28 O28 1.001955 1_555
H29 O29 1.001955 1_555
H30 O30 1.001955 1_555
H31 O31 1.001955 1_555
H32 O32 1.001955 1_555
H33 O33 1.010228 1_555
H34 O34 1.010228 1_555
H35 O35 1.010228 1_555
O12 P2 1.531212 1_555
O13 P0 1.531212 1_555
O14 P1 1.531212 1_555
O15 P4 1.530801 1_555
O16 P5 1.530801 1_555
O17 P3 1.530801 1_555
O18 P4 1.530801 1_555
O19 P5 1.530801 1_555
O20 P3 1.530801 1_555
O21 P2 1.531212 1_565
O22 P0 1.531212 1_556
O23 P1 1.531212 1_655
O36 P2 1.575894 1_555
O37 P0 1.575894 1_555
O38 P1 1.575894 1_555
O39 P4 1.571119 1_555
O40 P5 1.571119 1_555
O41 P3 1.571119 1_555
O42 P4 1.571119 1_555
O43 P5 1.571119 1_555
O44 P3 1.571119 1_555
O45 P2 1.575894 1_565
O46 P0 1.575894 1_556
O47 P1 1.575894 1_655
