# generated using pymatgen
data_Nd2B8O15
_symmetry_space_group_name_H-M   'P 1'
_cell_length_a   4.23069400
_cell_length_b   9.16733800
_cell_length_c   12.55812339
_cell_angle_alpha   63.07943128
_cell_angle_beta   90.00000000
_cell_angle_gamma   90.00000000
_symmetry_Int_Tables_number   1
_chemical_formula_structural   Nd2B8O15
_chemical_formula_sum   'Nd4 B16 O30'
_cell_volume   434.27690861
_cell_formula_units_Z   2
loop_
 _symmetry_equiv_pos_site_id
 _symmetry_equiv_pos_as_xyz
  1  'x, y, z'
loop_
 _atom_site_type_symbol
 _atom_site_label
 _atom_site_symmetry_multiplicity
 _atom_site_fract_x
 _atom_site_fract_y
 _atom_site_fract_z
 _atom_site_occupancy
  Nd  Nd0  1  0.26005500  0.85917000  0.94738900  1
  Nd  Nd1  1  0.26005500  0.14083000  0.55261100  1
  Nd  Nd2  1  0.73994500  0.14083000  0.05261100  1
  Nd  Nd3  1  0.73994500  0.85917000  0.44738900  1
  B  B0  1  0.21556500  0.89372600  0.20402500  1
  B  B1  1  0.21556500  0.10627400  0.29597500  1
  B  B2  1  0.78443500  0.10627400  0.79597500  1
  B  B3  1  0.78443500  0.89372600  0.70402500  1
  B  B4  1  0.72994300  0.71698500  0.23410800  1
  B  B5  1  0.72994300  0.28301500  0.26589200  1
  B  B6  1  0.27005700  0.28301500  0.76589200  1
  B  B7  1  0.27005700  0.71698500  0.73410800  1
  B  B8  1  0.21550900  0.40622000  0.12644300  1
  B  B9  1  0.21550900  0.59378000  0.37355700  1
  B  B10  1  0.78449100  0.59378000  0.87355700  1
  B  B11  1  0.78449100  0.40622000  0.62644300  1
  B  B12  1  0.70774100  0.58831000  0.08480300  1
  B  B13  1  0.70774100  0.41169000  0.41519700  1
  B  B14  1  0.29225900  0.41169000  0.91519700  1
  B  B15  1  0.29225900  0.58831000  0.58480300  1
  O  O0  1  0.25773500  0.97442200  0.07763300  1
  O  O1  1  0.25773500  0.02557800  0.42236700  1
  O  O2  1  0.74226500  0.02557800  0.92236700  1
  O  O3  1  0.74226500  0.97442200  0.57763300  1
  O  O4  1  0.87835800  0.86048100  0.23592300  1
  O  O5  1  0.87835800  0.13951900  0.26407700  1
  O  O6  1  0.12164200  0.13951900  0.76407700  1
  O  O7  1  0.12164200  0.86048100  0.73592300  1
  O  O8  1  0.62019000  0.72277800  0.76276000  1
  O  O9  1  0.62019000  0.27722200  0.73724000  1
  O  O10  1  0.37981000  0.27722200  0.23724000  1
  O  O11  1  0.37981000  0.72277800  0.26276000  1
  O  O12  1  0.77573000  0.71560400  0.12088300  1
  O  O13  1  0.77573000  0.28439600  0.37911700  1
  O  O14  1  0.22427000  0.28439600  0.87911700  1
  O  O15  1  0.22427000  0.71560400  0.62088300  1
  O  O16  1  0.81149800  0.66341700  0.95855700  1
  O  O17  1  0.81149800  0.33658300  0.54144300  1
  O  O18  1  0.18850200  0.33658300  0.04144300  1
  O  O19  1  0.18850200  0.66341700  0.45855700  1
  O  O20  1  0.87633200  0.42839300  0.16112800  1
  O  O21  1  0.87633200  0.57160700  0.33887200  1
  O  O22  1  0.12366800  0.57160700  0.83887200  1
  O  O23  1  0.12366800  0.42839300  0.66112800  1
  O  O24  1  0.37011000  0.55960900  0.08771900  1
  O  O25  1  0.37011000  0.44039100  0.41228100  1
  O  O26  1  0.62989000  0.44039100  0.91228100  1
  O  O27  1  0.62989000  0.55960900  0.58771900  1
  O  O28  1  0.35502800  0.00000000  0.25000000  1
  O  O29  1  0.64497200  0.00000000  0.75000000  1
loop_
_geom_bond_atom_site_label_1
_geom_bond_atom_site_label_2
_geom_bond_distance
_geom_bond_site_symmetry_2
Nd0 O0 2.314408 1_556
Nd0 O2 2.480689 1_565
Nd0 O24 2.545912 1_556
Nd0 O16 2.571656 1_455
Nd0 O2 2.605889 1_465
Nd0 O6 2.624915 1_565
Nd0 O7 2.714120 1_555
Nd0 O29 2.750533 1_565
Nd0 O12 2.842733 1_456
Nd0 O16 2.907739 1_555
Nd0 O12 2.939772 1_556
Nd1 O1 2.314408 1_555
Nd1 O3 2.480689 1_545
Nd1 O25 2.545912 1_555
Nd1 O17 2.571656 1_455
Nd1 O3 2.605889 1_445
Nd1 O7 2.624915 1_545
Nd1 O6 2.714120 1_555
Nd1 O29 2.750533 1_555
Nd1 O13 2.842733 1_455
Nd1 O17 2.907739 1_555
Nd1 O13 2.939772 1_555
Nd2 O2 2.314408 1_554
Nd2 O0 2.480689 1_545
Nd2 O26 2.545912 1_554
Nd2 O18 2.571656 1_655
Nd2 O0 2.605889 1_645
Nd2 O4 2.624915 1_545
Nd2 O5 2.714120 1_555
Nd2 O28 2.750533 1_555
Nd2 O14 2.842733 1_654
Nd2 O18 2.907739 1_555
Nd2 O14 2.939772 1_554
Nd3 O3 2.314408 1_555
Nd3 O1 2.480689 1_565
Nd3 O27 2.545912 1_555
Nd3 O19 2.571656 1_655
Nd3 O1 2.605889 1_665
Nd3 O5 2.624915 1_565
Nd3 O4 2.714120 1_555
Nd3 O28 2.750533 1_565
Nd3 O15 2.842733 1_655
Nd3 O19 2.907739 1_555
Nd3 O15 2.939772 1_555
B0 O0 1.426602 1_555
B0 O28 1.462867 1_565
B0 O4 1.475819 1_455
B0 O11 1.560808 1_555
B1 O1 1.426602 1_555
B1 O28 1.462867 1_555
B1 O5 1.475819 1_455
B1 O10 1.560808 1_555
B2 O2 1.426602 1_555
B2 O29 1.462867 1_555
B2 O6 1.475819 1_655
B2 O9 1.560808 1_555
B3 O3 1.426602 1_555
B3 O29 1.462867 1_565
B3 O7 1.475819 1_655
B3 O8 1.560808 1_555
B4 O12 1.440752 1_555
B4 O4 1.467108 1_555
B4 O21 1.517540 1_555
B4 O11 1.530966 1_555
B5 O13 1.440752 1_555
B5 O5 1.467108 1_555
B5 O20 1.517540 1_555
B5 O10 1.530966 1_555
B6 O14 1.440752 1_555
B6 O6 1.467108 1_555
B6 O23 1.517540 1_555
B6 O9 1.530966 1_555
B7 O15 1.440752 1_555
B7 O7 1.467108 1_555
B7 O22 1.517540 1_555
B7 O8 1.530966 1_555
B8 O24 1.422111 1_555
B8 O18 1.475490 1_555
B8 O10 1.525677 1_555
B8 O20 1.539582 1_455
B9 O25 1.422111 1_555
B9 O19 1.475490 1_555
B9 O11 1.525677 1_555
B9 O21 1.539582 1_455
B10 O26 1.422111 1_555
B10 O16 1.475490 1_555
B10 O8 1.525677 1_555
B10 O22 1.539582 1_655
B11 O27 1.422111 1_555
B11 O17 1.475490 1_555
B11 O9 1.525677 1_555
B11 O23 1.539582 1_655
B12 O24 1.449900 1_555
B12 O12 1.458965 1_555
B12 O16 1.480486 1_554
B12 O20 1.517977 1_555
B13 O25 1.449900 1_555
B13 O13 1.458965 1_555
B13 O17 1.480486 1_555
B13 O21 1.517977 1_555
B14 O26 1.449900 1_555
B14 O14 1.458965 1_555
B14 O18 1.480486 1_556
B14 O22 1.517977 1_555
B15 O27 1.449900 1_555
B15 O15 1.458965 1_555
B15 O19 1.480486 1_555
B15 O23 1.517977 1_555
