# generated using pymatgen
data_KCo(CO)4
_symmetry_space_group_name_H-M   'P 1'
_cell_length_a   11.55773399
_cell_length_b   11.55773399
_cell_length_c   14.64097033
_cell_angle_alpha   54.78596218
_cell_angle_beta   54.78596218
_cell_angle_gamma   29.01503920
_symmetry_Int_Tables_number   1
_chemical_formula_structural   KCo(CO)4
_chemical_formula_sum   'K4 Co4 C16 O16'
_cell_volume   761.99125576
_cell_formula_units_Z   4
loop_
 _symmetry_equiv_pos_site_id
 _symmetry_equiv_pos_as_xyz
  1  'x, y, z'
loop_
 _atom_site_type_symbol
 _atom_site_label
 _atom_site_symmetry_multiplicity
 _atom_site_fract_x
 _atom_site_fract_y
 _atom_site_fract_z
 _atom_site_occupancy
  K  K0  1  0.12356100  0.22216100  0.94160100  1
  K  K1  1  0.77783900  0.87643900  0.55839900  1
  K  K2  1  0.87643900  0.77783900  0.05839900  1
  K  K3  1  0.22216100  0.12356100  0.44160100  1
  Co  Co0  1  0.82306900  0.42152500  0.74440800  1
  Co  Co1  1  0.42152500  0.82306900  0.24440800  1
  Co  Co2  1  0.57847500  0.17693100  0.75559200  1
  Co  Co3  1  0.17693100  0.57847500  0.25559200  1
  C  C0  1  0.35199300  0.36030700  0.18936600  1
  C  C1  1  0.80278700  0.12115300  0.65502600  1
  C  C2  1  0.63306200  0.57955700  0.66358600  1
  C  C3  1  0.87884700  0.19721300  0.84497400  1
  C  C4  1  0.89856000  0.72643700  0.33874400  1
  C  C5  1  0.42044300  0.36693800  0.83641400  1
  C  C6  1  0.12115300  0.80278700  0.15502600  1
  C  C7  1  0.57955700  0.63306200  0.16358600  1
  C  C8  1  0.64800700  0.63969300  0.81063400  1
  C  C9  1  0.72643700  0.89856000  0.83874400  1
  C  C10  1  0.36693800  0.42044300  0.33641400  1
  C  C11  1  0.10144000  0.27356300  0.66125600  1
  C  C12  1  0.19721300  0.87884700  0.34497400  1
  C  C13  1  0.63969300  0.64800700  0.31063400  1
  C  C14  1  0.36030700  0.35199300  0.68936600  1
  C  C15  1  0.27356300  0.10144000  0.16125600  1
  O  O0  1  0.70760000  0.83435200  0.39651400  1
  O  O1  1  0.95054300  0.08752700  0.58961700  1
  O  O2  1  0.04945700  0.91247300  0.41038300  1
  O  O3  1  0.48095300  0.20369300  0.14726500  1
  O  O4  1  0.79630700  0.51904700  0.35273500  1
  O  O5  1  0.69067700  0.49961700  0.11143800  1
  O  O6  1  0.51904700  0.79630700  0.85273500  1
  O  O7  1  0.49961700  0.69067700  0.61143800  1
  O  O8  1  0.50038300  0.30932300  0.38856200  1
  O  O9  1  0.83435200  0.70760000  0.89651400  1
  O  O10  1  0.91247300  0.04945700  0.91038300  1
  O  O11  1  0.08752700  0.95054300  0.08961700  1
  O  O12  1  0.20369300  0.48095300  0.64726500  1
  O  O13  1  0.16564800  0.29240000  0.10348600  1
  O  O14  1  0.29240000  0.16564800  0.60348600  1
  O  O15  1  0.30932300  0.50038300  0.88856200  1
loop_
_geom_bond_atom_site_label_1
_geom_bond_atom_site_label_2
_geom_bond_distance
_geom_bond_site_symmetry_2
K0 O6 2.826644 1_545
K0 O11 2.850415 1_546
K0 O5 2.878522 1_456
K0 O9 2.925815 1_455
K1 O12 2.826644 1_655
K1 O2 2.850415 1_655
K1 O8 2.878522 1_565
K1 O14 2.925815 1_565
K2 O3 2.826644 1_565
K2 O10 2.850415 1_564
K2 O15 2.878522 1_654
K2 O13 2.925815 1_655
K3 O4 2.826644 1_455
K3 O1 2.850415 1_455
K3 O7 2.878522 1_545
K3 O0 2.925815 1_545
C0 O3 1.177511 1_555
C0 Co3 1.739572 1_555
C1 O1 1.169121 1_555
C1 Co2 1.753301 1_555
C2 O7 1.172140 1_555
C2 Co0 1.745843 1_555
C3 O10 1.169121 1_555
C3 Co0 1.753301 1_555
C4 O0 1.179567 1_555
C4 Co3 1.737464 1_655
C5 O15 1.172140 1_555
C5 Co2 1.745843 1_555
C6 O11 1.169121 1_555
C6 Co3 1.753301 1_555
C7 O5 1.172140 1_555
C7 Co1 1.745843 1_555
C8 O6 1.177511 1_555
C8 Co0 1.739572 1_555
C9 O9 1.179567 1_555
C9 Co2 1.737464 1_565
C10 O8 1.172140 1_555
C10 Co3 1.745843 1_555
C11 O14 1.179567 1_555
C11 Co0 1.737464 1_455
C12 O2 1.169121 1_555
C12 Co1 1.753301 1_555
C13 O4 1.177511 1_555
C13 Co1 1.739572 1_555
C14 O12 1.177511 1_555
C14 Co2 1.739572 1_555
C15 O13 1.179567 1_555
C15 Co1 1.737464 1_545
