# generated using pymatgen
data_TiW
_symmetry_space_group_name_H-M   'P 1'
_cell_length_a   5.52207790
_cell_length_b   5.52207790
_cell_length_c   8.93623360
_cell_angle_alpha   90.00000000
_cell_angle_beta   90.00000000
_cell_angle_gamma   109.48958778
_symmetry_Int_Tables_number   1
_chemical_formula_structural   TiW
_chemical_formula_sum   'Ti8 W8'
_cell_volume   256.88222995
_cell_formula_units_Z   8
loop_
 _symmetry_equiv_pos_site_id
 _symmetry_equiv_pos_as_xyz
  1  'x, y, z'
loop_
 _atom_site_type_symbol
 _atom_site_label
 _atom_site_symmetry_multiplicity
 _atom_site_fract_x
 _atom_site_fract_y
 _atom_site_fract_z
 _atom_site_occupancy
  Ti  Ti0_0  1  0.00000000  0.00000000  0.00000000  1
  Ti  Ti0_1  1  0.00000000  0.00000000  0.50000000  1
  Ti  Ti0_2  1  0.00000000  0.50000000  0.00000000  1
  Ti  Ti0_3  1  0.00000000  0.50000000  0.50000000  1
  Ti  Ti0_4  1  0.50000000  0.00000000  0.00000000  1
  Ti  Ti0_5  1  0.50000000  0.00000000  0.50000000  1
  Ti  Ti0_6  1  0.50000000  0.50000000  0.00000000  1
  Ti  Ti0_7  1  0.50000000  0.50000000  0.50000000  1
  W  W0_0  1  0.25000000  0.25000000  0.25000000  1
  W  W0_1  1  0.25000000  0.25000000  0.75000000  1
  W  W0_2  1  0.25000000  0.75000000  0.25000000  1
  W  W0_3  1  0.25000000  0.75000000  0.75000000  1
  W  W0_4  1  0.75000000  0.25000000  0.25000000  1
  W  W0_5  1  0.75000000  0.25000000  0.75000000  1
  W  W0_6  1  0.75000000  0.75000000  0.25000000  1
  W  W0_7  1  0.75000000  0.75000000  0.75000000  1
loop_
_geom_bond_atom_site_label_1
_geom_bond_atom_site_label_2
_geom_bond_distance
_geom_bond_site_symmetry_2
Ti0_0 W0_6 2.744263 1_445
Ti0_0 W0_0 2.744263 1_555
Ti0_0 W0_1 2.744263 1_554
Ti0_0 W0_7 2.744263 1_444
Ti0_0 Ti0_4 2.761039 1_555
Ti0_0 Ti0_4 2.761039 1_455
Ti0_0 Ti0_2 2.761039 1_555
Ti0_0 Ti0_2 2.761039 1_545
Ti0_1 W0_1 2.744263 1_555
Ti0_1 W0_7 2.744263 1_445
Ti0_1 W0_0 2.744263 1_555
Ti0_1 W0_6 2.744263 1_445
Ti0_1 Ti0_3 2.761039 1_545
Ti0_1 Ti0_3 2.761039 1_555
Ti0_1 Ti0_5 2.761039 1_455
Ti0_1 Ti0_5 2.761039 1_555
Ti0_2 W0_2 2.744263 1_555
Ti0_2 W0_3 2.744263 1_554
Ti0_2 W0_4 2.744263 1_455
Ti0_2 W0_5 2.744263 1_454
Ti0_2 Ti0_6 2.761039 1_555
Ti0_2 Ti0_6 2.761039 1_455
Ti0_3 W0_4 2.744263 1_455
Ti0_3 W0_2 2.744263 1_555
Ti0_3 W0_3 2.744263 1_555
Ti0_3 W0_5 2.744263 1_455
Ti0_3 Ti0_7 2.761039 1_555
Ti0_3 Ti0_7 2.761039 1_455
Ti0_4 W0_2 2.744263 1_545
Ti0_4 W0_3 2.744263 1_544
Ti0_4 W0_5 2.744263 1_554
Ti0_4 W0_4 2.744263 1_555
Ti0_4 Ti0_6 2.761039 1_555
Ti0_4 Ti0_6 2.761039 1_545
Ti0_5 W0_4 2.744263 1_555
Ti0_5 W0_2 2.744263 1_545
Ti0_5 W0_5 2.744263 1_555
Ti0_5 W0_3 2.744263 1_545
Ti0_5 Ti0_7 2.761039 1_555
Ti0_5 Ti0_7 2.761039 1_545
Ti0_6 W0_0 2.744263 1_555
Ti0_6 W0_6 2.744263 1_555
Ti0_6 W0_1 2.744263 1_554
Ti0_6 W0_7 2.744263 1_554
Ti0_7 W0_1 2.744263 1_555
Ti0_7 W0_0 2.744263 1_555
Ti0_7 W0_7 2.744263 1_555
Ti0_7 W0_6 2.744263 1_555
W0_0 W0_2 2.761039 1_555
W0_0 W0_4 2.761039 1_555
W0_0 W0_2 2.761039 1_545
W0_0 W0_4 2.761039 1_455
W0_1 W0_5 2.761039 1_455
W0_1 W0_3 2.761039 1_545
W0_1 W0_3 2.761039 1_555
W0_1 W0_5 2.761039 1_555
W0_2 W0_6 2.761039 1_455
W0_2 W0_6 2.761039 1_555
W0_3 W0_7 2.761039 1_455
W0_3 W0_7 2.761039 1_555
W0_4 W0_6 2.761039 1_545
W0_4 W0_6 2.761039 1_555
W0_5 W0_7 2.761039 1_545
W0_5 W0_7 2.761039 1_555
