# generated using pymatgen
data_SmMnSi
_symmetry_space_group_name_H-M   'P 1'
_cell_length_a   3.97197100
_cell_length_b   3.97197100
_cell_length_c   7.33290200
_cell_angle_alpha   90.00000000
_cell_angle_beta   90.00000000
_cell_angle_gamma   90.00000000
_symmetry_Int_Tables_number   1
_chemical_formula_structural   SmMnSi
_chemical_formula_sum   'Sm2 Mn2 Si2'
_cell_volume   115.68792163
_cell_formula_units_Z   2
loop_
 _symmetry_equiv_pos_site_id
 _symmetry_equiv_pos_as_xyz
  1  'x, y, z'
loop_
 _atom_site_type_symbol
 _atom_site_label
 _atom_site_symmetry_multiplicity
 _atom_site_fract_x
 _atom_site_fract_y
 _atom_site_fract_z
 _atom_site_occupancy
  Sm  Sm0  1  0.00000000  0.50000000  0.32730400  1
  Sm  Sm1  1  0.50000000  0.00000000  0.67269600  1
  Mn  Mn0  1  0.00000000  0.00000000  0.00000000  1
  Mn  Mn1  1  0.50000000  0.50000000  0.00000000  1
  Si  Si0  1  0.00000000  0.50000000  0.80863800  1
  Si  Si1  1  0.50000000  0.00000000  0.19136200  1
loop_
_geom_bond_atom_site_label_1
_geom_bond_atom_site_label_2
_geom_bond_distance
_geom_bond_site_symmetry_2
Mn0 Si1 2.431711 1_455
Mn0 Si1 2.431711 1_555
Mn0 Si0 2.431711 1_554
Mn0 Si0 2.431711 1_544
Mn0 Sm1 3.115215 1_554
Mn0 Sm0 3.115215 1_545
Mn0 Sm1 3.115215 1_454
Mn0 Sm0 3.115215 1_555
Mn1 Si1 2.431711 1_565
Mn1 Si1 2.431711 1_555
Mn1 Si0 2.431711 1_654
Mn1 Si0 2.431711 1_554
Mn1 Sm1 3.115215 1_554
Mn1 Sm0 3.115215 1_655
Mn1 Sm1 3.115215 1_564
Mn1 Sm0 3.115215 1_555
Si0 Sm1 2.980266 1_455
Si0 Sm1 2.980266 1_565
Si0 Sm1 2.980266 1_465
Si0 Sm1 2.980266 1_555
Si0 Sm0 3.529575 1_555
Si1 Sm0 2.980266 1_645
Si1 Sm0 2.980266 1_555
Si1 Sm0 2.980266 1_655
Si1 Sm0 2.980266 1_545
Si1 Sm1 3.529575 1_555
