# generated using pymatgen
data_Cr4Ni
_symmetry_space_group_name_H-M   'P 1'
_cell_length_a   20.47532747
_cell_length_b   20.30447823
_cell_length_c   4.87348581
_cell_angle_alpha   85.13514546
_cell_angle_beta   81.14587164
_cell_angle_gamma   13.71898290
_symmetry_Int_Tables_number   1
_chemical_formula_structural   Cr4Ni
_chemical_formula_sum   'Cr32 Ni8'
_cell_volume   456.31683382
_cell_formula_units_Z   8
loop_
 _symmetry_equiv_pos_site_id
 _symmetry_equiv_pos_as_xyz
  1  'x, y, z'
loop_
 _atom_site_type_symbol
 _atom_site_label
 _atom_site_symmetry_multiplicity
 _atom_site_fract_x
 _atom_site_fract_y
 _atom_site_fract_z
 _atom_site_occupancy
  Cr  Cr0_0  1  0.20054050  0.20054050  0.29945950  1
  Cr  Cr0_1  1  0.20054050  0.20054050  0.79945950  1
  Cr  Cr0_2  1  0.20054050  0.70054050  0.29945950  1
  Cr  Cr0_3  1  0.20054050  0.70054050  0.79945950  1
  Cr  Cr0_4  1  0.70054050  0.20054050  0.29945950  1
  Cr  Cr0_5  1  0.70054050  0.20054050  0.79945950  1
  Cr  Cr0_6  1  0.70054050  0.70054050  0.29945950  1
  Cr  Cr0_7  1  0.70054050  0.70054050  0.79945950  1
  Cr  Cr1_0  1  0.40037300  0.40037300  0.09962700  1
  Cr  Cr1_1  1  0.40037300  0.40037300  0.59962700  1
  Cr  Cr1_2  1  0.40037300  0.90037300  0.09962700  1
  Cr  Cr1_3  1  0.40037300  0.90037300  0.59962700  1
  Cr  Cr1_4  1  0.90037300  0.40037300  0.09962700  1
  Cr  Cr1_5  1  0.90037300  0.40037300  0.59962700  1
  Cr  Cr1_6  1  0.90037300  0.90037300  0.09962700  1
  Cr  Cr1_7  1  0.90037300  0.90037300  0.59962700  1
  Cr  Cr2_0  1  0.09962700  0.09962700  0.40037300  1
  Cr  Cr2_1  1  0.09962700  0.09962700  0.90037300  1
  Cr  Cr2_2  1  0.09962700  0.59962700  0.40037300  1
  Cr  Cr2_3  1  0.09962700  0.59962700  0.90037300  1
  Cr  Cr2_4  1  0.59962700  0.09962700  0.40037300  1
  Cr  Cr2_5  1  0.59962700  0.09962700  0.90037300  1
  Cr  Cr2_6  1  0.59962700  0.59962700  0.40037300  1
  Cr  Cr2_7  1  0.59962700  0.59962700  0.90037300  1
  Cr  Cr3_0  1  0.29945950  0.29945950  0.20054050  1
  Cr  Cr3_1  1  0.29945950  0.29945950  0.70054050  1
  Cr  Cr3_2  1  0.29945950  0.79945950  0.20054050  1
  Cr  Cr3_3  1  0.29945950  0.79945950  0.70054050  1
  Cr  Cr3_4  1  0.79945950  0.29945950  0.20054050  1
  Cr  Cr3_5  1  0.79945950  0.29945950  0.70054050  1
  Cr  Cr3_6  1  0.79945950  0.79945950  0.20054050  1
  Cr  Cr3_7  1  0.79945950  0.79945950  0.70054050  1
  Ni  Ni0_0  1  0.00000000  0.00000000  0.00000000  1
  Ni  Ni0_1  1  0.00000000  0.00000000  0.50000000  1
  Ni  Ni0_2  1  0.00000000  0.50000000  0.00000000  1
  Ni  Ni0_3  1  0.00000000  0.50000000  0.50000000  1
  Ni  Ni0_4  1  0.50000000  0.00000000  0.00000000  1
  Ni  Ni0_5  1  0.50000000  0.00000000  0.50000000  1
  Ni  Ni0_6  1  0.50000000  0.50000000  0.00000000  1
  Ni  Ni0_7  1  0.50000000  0.50000000  0.50000000  1
loop_
_geom_bond_atom_site_label_1
_geom_bond_atom_site_label_2
_geom_bond_distance
_geom_bond_site_symmetry_2
Cr0_0 Cr0_6 2.436743 1_545
Cr0_0 Cr0_1 2.436743 1_554
Cr0_0 Cr0_6 2.436743 1_455
Cr0_0 Cr0_1 2.436743 1_555
Cr0_0 Ni0_4 2.459657 1_555
Cr0_0 Ni0_3 2.459657 1_555
Cr0_0 Cr1_2 2.482713 1_545
Cr0_0 Cr1_5 2.482713 1_455
Cr0_1 Cr0_7 2.436743 1_545
Cr0_1 Cr0_7 2.436743 1_455
Cr0_1 Ni0_5 2.459657 1_555
Cr0_1 Ni0_2 2.459657 1_556
Cr0_1 Cr1_3 2.482713 1_545
Cr0_1 Cr1_4 2.482713 1_456
Cr0_2 Cr0_3 2.436743 1_554
Cr0_2 Cr0_4 2.436743 1_555
Cr0_2 Cr0_4 2.436743 1_465
Cr0_2 Cr0_3 2.436743 1_555
Cr0_2 Ni0_6 2.459657 1_555
Cr0_2 Ni0_1 2.459657 1_565
Cr0_2 Cr1_7 2.482713 1_455
Cr0_2 Cr1_0 2.482713 1_555
Cr0_3 Cr0_5 2.436743 1_465
Cr0_3 Cr0_5 2.436743 1_555
Cr0_3 Ni0_7 2.459657 1_555
Cr0_3 Ni0_0 2.459657 1_566
Cr0_3 Cr1_6 2.482713 1_456
Cr0_3 Cr1_1 2.482713 1_555
Cr0_4 Cr0_5 2.436743 1_554
Cr0_4 Cr0_5 2.436743 1_555
Cr0_4 Ni0_0 2.459657 1_655
Cr0_4 Ni0_7 2.459657 1_555
Cr0_4 Cr1_6 2.482713 1_545
Cr0_4 Cr1_1 2.482713 1_555
Cr0_5 Ni0_1 2.459657 1_655
Cr0_5 Ni0_6 2.459657 1_556
Cr0_5 Cr1_7 2.482713 1_545
Cr0_5 Cr1_0 2.482713 1_556
Cr0_6 Cr0_7 2.436743 1_554
Cr0_6 Cr0_7 2.436743 1_555
Cr0_6 Ni0_2 2.459657 1_655
Cr0_6 Ni0_5 2.459657 1_565
Cr0_6 Cr1_4 2.482713 1_555
Cr0_6 Cr1_3 2.482713 1_555
Cr0_7 Ni0_3 2.459657 1_655
Cr0_7 Ni0_4 2.459657 1_566
Cr0_7 Cr1_5 2.482713 1_555
Cr0_7 Cr1_2 2.482713 1_556
Cr1_0 Cr1_1 2.436743 1_555
Cr1_0 Cr1_1 2.436743 1_554
Cr1_0 Cr1_6 2.436743 1_455
Cr1_0 Cr1_6 2.436743 1_545
Cr1_0 Cr2_5 2.501634 1_554
Cr1_0 Cr2_2 2.501634 1_555
Cr1_1 Cr1_7 2.436743 1_545
Cr1_1 Cr1_7 2.436743 1_455
Cr1_1 Cr2_3 2.501634 1_555
Cr1_1 Cr2_4 2.501634 1_555
Cr1_2 Cr1_3 2.436743 1_554
Cr1_2 Cr1_3 2.436743 1_555
Cr1_2 Cr1_4 2.436743 1_555
Cr1_2 Cr1_4 2.436743 1_465
Cr1_2 Cr2_7 2.501634 1_554
Cr1_2 Cr2_0 2.501634 1_565
Cr1_3 Cr1_5 2.436743 1_555
Cr1_3 Cr1_5 2.436743 1_465
Cr1_3 Cr2_6 2.501634 1_555
Cr1_3 Cr2_1 2.501634 1_565
Cr1_4 Cr1_5 2.436743 1_555
Cr1_4 Cr1_5 2.436743 1_554
Cr1_4 Cr2_6 2.501634 1_555
Cr1_4 Cr2_1 2.501634 1_654
Cr1_5 Cr2_7 2.501634 1_555
Cr1_5 Cr2_0 2.501634 1_655
Cr1_6 Cr1_7 2.436743 1_555
Cr1_6 Cr1_7 2.436743 1_554
Cr1_6 Cr2_3 2.501634 1_654
Cr1_6 Cr2_4 2.501634 1_565
Cr1_7 Cr2_5 2.501634 1_565
Cr1_7 Cr2_2 2.501634 1_655
Cr2_0 Cr2_1 2.436743 1_554
Cr2_0 Cr2_1 2.436743 1_555
Cr2_0 Cr2_6 2.436743 1_455
Cr2_0 Cr2_6 2.436743 1_545
Cr2_0 Cr3_5 2.482713 1_455
Cr2_0 Cr3_2 2.482713 1_545
Cr2_1 Cr2_7 2.436743 1_545
Cr2_1 Cr2_7 2.436743 1_455
Cr2_1 Cr3_4 2.482713 1_456
Cr2_1 Cr3_3 2.482713 1_545
Cr2_2 Cr2_4 2.436743 1_465
Cr2_2 Cr2_3 2.436743 1_555
Cr2_2 Cr2_3 2.436743 1_554
Cr2_2 Cr2_4 2.436743 1_555
Cr2_2 Cr3_0 2.482713 1_555
Cr2_2 Cr3_7 2.482713 1_455
Cr2_3 Cr2_5 2.436743 1_465
Cr2_3 Cr2_5 2.436743 1_555
Cr2_3 Cr3_6 2.482713 1_456
Cr2_3 Cr3_1 2.482713 1_555
Cr2_4 Cr2_5 2.436743 1_554
Cr2_4 Cr2_5 2.436743 1_555
Cr2_4 Cr3_1 2.482713 1_555
Cr2_4 Cr3_6 2.482713 1_545
Cr2_5 Cr3_0 2.482713 1_556
Cr2_5 Cr3_7 2.482713 1_545
Cr2_6 Cr2_7 2.436743 1_555
Cr2_6 Cr2_7 2.436743 1_554
Cr2_6 Cr3_3 2.482713 1_555
Cr2_6 Cr3_4 2.482713 1_555
Cr2_7 Cr3_2 2.482713 1_556
Cr2_7 Cr3_5 2.482713 1_555
Cr3_0 Cr3_1 2.436743 1_554
Cr3_0 Cr3_6 2.436743 1_455
Cr3_0 Cr3_1 2.436743 1_555
Cr3_0 Cr3_6 2.436743 1_545
Cr3_0 Ni0_4 2.459657 1_555
Cr3_0 Ni0_3 2.459657 1_555
Cr3_1 Cr3_7 2.436743 1_545
Cr3_1 Cr3_7 2.436743 1_455
Cr3_1 Ni0_5 2.459657 1_555
Cr3_1 Ni0_2 2.459657 1_556
Cr3_2 Cr3_3 2.436743 1_554
Cr3_2 Cr3_4 2.436743 1_465
Cr3_2 Cr3_4 2.436743 1_555
Cr3_2 Cr3_3 2.436743 1_555
Cr3_2 Ni0_6 2.459657 1_555
Cr3_2 Ni0_1 2.459657 1_565
Cr3_3 Cr3_5 2.436743 1_465
Cr3_3 Cr3_5 2.436743 1_555
Cr3_3 Ni0_7 2.459657 1_555
Cr3_3 Ni0_0 2.459657 1_566
Cr3_4 Cr3_5 2.436743 1_555
Cr3_4 Cr3_5 2.436743 1_554
Cr3_4 Ni0_0 2.459657 1_655
Cr3_4 Ni0_7 2.459657 1_555
Cr3_5 Ni0_1 2.459657 1_655
Cr3_5 Ni0_6 2.459657 1_556
Cr3_6 Cr3_7 2.436743 1_555
Cr3_6 Cr3_7 2.436743 1_554
Cr3_6 Ni0_2 2.459657 1_655
Cr3_6 Ni0_5 2.459657 1_565
Cr3_7 Ni0_3 2.459657 1_655
Cr3_7 Ni0_4 2.459657 1_566
Ni0_0 Ni0_1 2.436743 1_554
Ni0_0 Ni0_6 2.436743 1_455
Ni0_0 Ni0_6 2.436743 1_545
Ni0_0 Ni0_1 2.436743 1_555
Ni0_1 Ni0_7 2.436743 1_455
Ni0_1 Ni0_7 2.436743 1_545
Ni0_2 Ni0_4 2.436743 1_555
Ni0_2 Ni0_3 2.436743 1_555
Ni0_2 Ni0_4 2.436743 1_465
Ni0_2 Ni0_3 2.436743 1_554
Ni0_3 Ni0_5 2.436743 1_465
Ni0_3 Ni0_5 2.436743 1_555
Ni0_4 Ni0_5 2.436743 1_554
Ni0_4 Ni0_5 2.436743 1_555
Ni0_6 Ni0_7 2.436743 1_554
Ni0_6 Ni0_7 2.436743 1_555
