# generated using pymatgen
data_KCr(SO10)2
_symmetry_space_group_name_H-M   'P 1'
_cell_length_a   11.47729100
_cell_length_b   11.47729100
_cell_length_c   11.47729100
_cell_angle_alpha   90.00000000
_cell_angle_beta   90.00000000
_cell_angle_gamma   90.00000000
_symmetry_Int_Tables_number   1
_chemical_formula_structural   KCr(SO10)2
_chemical_formula_sum   'K4 Cr4 S8 O80'
_cell_volume   1511.88298414
_cell_formula_units_Z   4
loop_
 _symmetry_equiv_pos_site_id
 _symmetry_equiv_pos_as_xyz
  1  'x, y, z'
loop_
 _atom_site_type_symbol
 _atom_site_label
 _atom_site_symmetry_multiplicity
 _atom_site_fract_x
 _atom_site_fract_y
 _atom_site_fract_z
 _atom_site_occupancy
  K  K0  1  0.00000000  0.00000000  0.00000000  1
  K  K1  1  0.50000000  0.00000000  0.50000000  1
  K  K2  1  0.00000000  0.50000000  0.50000000  1
  K  K3  1  0.50000000  0.50000000  0.00000000  1
  Cr  Cr0  1  0.50000000  0.50000000  0.50000000  1
  Cr  Cr1  1  0.00000000  0.50000000  0.00000000  1
  Cr  Cr2  1  0.50000000  0.00000000  0.00000000  1
  Cr  Cr3  1  0.00000000  0.00000000  0.50000000  1
  S  S0  1  0.19633100  0.19633100  0.19633100  1
  S  S1  1  0.80366900  0.80366900  0.80366900  1
  S  S2  1  0.30366900  0.80366900  0.69633100  1
  S  S3  1  0.80366900  0.69633100  0.30366900  1
  S  S4  1  0.69633100  0.19633100  0.30366900  1
  S  S5  1  0.19633100  0.30366900  0.69633100  1
  S  S6  1  0.69633100  0.30366900  0.80366900  1
  S  S7  1  0.30366900  0.69633100  0.19633100  1
  O  O0  1  0.98733400  0.98538800  0.31644900  1
  O  O1  1  0.01266600  0.01461200  0.68355100  1
  O  O2  1  0.51266600  0.01461200  0.81644900  1
  O  O3  1  0.01266600  0.48538800  0.18355100  1
  O  O4  1  0.31644900  0.98733400  0.98538800  1
  O  O5  1  0.48733400  0.98538800  0.18355100  1
  O  O6  1  0.98733400  0.51461200  0.81644900  1
  O  O7  1  0.68355100  0.01266600  0.01461200  1
  O  O8  1  0.48733400  0.51461200  0.68355100  1
  O  O9  1  0.81644900  0.51266600  0.01461200  1
  O  O10  1  0.51266600  0.48538800  0.31644900  1
  O  O11  1  0.18355100  0.48733400  0.98538800  1
  O  O12  1  0.18355100  0.01266600  0.48538800  1
  O  O13  1  0.81644900  0.98733400  0.51461200  1
  O  O14  1  0.68355100  0.48733400  0.51461200  1
  O  O15  1  0.31644900  0.51266600  0.48538800  1
  O  O16  1  0.98538800  0.31644900  0.98733400  1
  O  O17  1  0.01461200  0.68355100  0.01266600  1
  O  O18  1  0.48538800  0.18355100  0.01266600  1
  O  O19  1  0.51461200  0.81644900  0.98733400  1
  O  O20  1  0.51461200  0.68355100  0.48733400  1
  O  O21  1  0.48538800  0.31644900  0.51266600  1
  O  O22  1  0.01461200  0.81644900  0.51266600  1
  O  O23  1  0.98538800  0.18355100  0.48733400  1
  O  O24  1  0.24711400  0.47551800  0.41024400  1
  O  O25  1  0.75288600  0.52448200  0.58975600  1
  O  O26  1  0.25288600  0.52448200  0.91024400  1
  O  O27  1  0.75288600  0.97551800  0.08975600  1
  O  O28  1  0.41024400  0.24711400  0.47551800  1
  O  O29  1  0.74711400  0.47551800  0.08975600  1
  O  O30  1  0.24711400  0.02448200  0.91024400  1
  O  O31  1  0.58975600  0.75288600  0.52448200  1
  O  O32  1  0.74711400  0.02448200  0.58975600  1
  O  O33  1  0.91024400  0.25288600  0.52448200  1
  O  O34  1  0.25288600  0.97551800  0.41024400  1
  O  O35  1  0.08975600  0.74711400  0.47551800  1
  O  O36  1  0.08975600  0.75288600  0.97551800  1
  O  O37  1  0.91024400  0.24711400  0.02448200  1
  O  O38  1  0.58975600  0.74711400  0.02448200  1
  O  O39  1  0.41024400  0.25288600  0.97551800  1
  O  O40  1  0.47551800  0.41024400  0.24711400  1
  O  O41  1  0.52448200  0.58975600  0.75288600  1
  O  O42  1  0.97551800  0.08975600  0.75288600  1
  O  O43  1  0.02448200  0.91024400  0.24711400  1
  O  O44  1  0.02448200  0.58975600  0.74711400  1
  O  O45  1  0.97551800  0.41024400  0.25288600  1
  O  O46  1  0.52448200  0.91024400  0.25288600  1
  O  O47  1  0.47551800  0.08975600  0.74711400  1
  O  O48  1  0.07085000  0.19380500  0.23359600  1
  O  O49  1  0.92915000  0.80619500  0.76640400  1
  O  O50  1  0.42915000  0.80619500  0.73359600  1
  O  O51  1  0.92915000  0.69380500  0.26640400  1
  O  O52  1  0.23359600  0.07085000  0.19380500  1
  O  O53  1  0.57085000  0.19380500  0.26640400  1
  O  O54  1  0.07085000  0.30619500  0.73359600  1
  O  O55  1  0.76640400  0.92915000  0.80619500  1
  O  O56  1  0.57085000  0.30619500  0.76640400  1
  O  O57  1  0.73359600  0.42915000  0.80619500  1
  O  O58  1  0.42915000  0.69380500  0.23359600  1
  O  O59  1  0.26640400  0.57085000  0.19380500  1
  O  O60  1  0.26640400  0.92915000  0.69380500  1
  O  O61  1  0.73359600  0.07085000  0.30619500  1
  O  O62  1  0.76640400  0.57085000  0.30619500  1
  O  O63  1  0.23359600  0.42915000  0.69380500  1
  O  O64  1  0.19380500  0.23359600  0.07085000  1
  O  O65  1  0.80619500  0.76640400  0.92915000  1
  O  O66  1  0.69380500  0.26640400  0.92915000  1
  O  O67  1  0.30619500  0.73359600  0.07085000  1
  O  O68  1  0.30619500  0.76640400  0.57085000  1
  O  O69  1  0.69380500  0.23359600  0.42915000  1
  O  O70  1  0.80619500  0.73359600  0.42915000  1
  O  O71  1  0.19380500  0.26640400  0.57085000  1
  O  O72  1  0.26948400  0.26948400  0.26948400  1
  O  O73  1  0.73051600  0.73051600  0.73051600  1
  O  O74  1  0.23051600  0.73051600  0.76948400  1
  O  O75  1  0.73051600  0.76948400  0.23051600  1
  O  O76  1  0.76948400  0.26948400  0.23051600  1
  O  O77  1  0.26948400  0.23051600  0.76948400  1
  O  O78  1  0.76948400  0.23051600  0.73051600  1
  O  O79  1  0.23051600  0.76948400  0.26948400  1
loop_
_geom_bond_atom_site_label_1
_geom_bond_atom_site_label_2
_geom_bond_distance
_geom_bond_site_symmetry_2
K0 O43 3.030545 1_545
K0 O37 3.030545 1_455
K0 O30 3.030545 1_554
K0 O42 3.030545 1_454
K0 O36 3.030545 1_544
K0 O27 3.030545 1_445
K1 O32 3.030545 1_555
K1 O47 3.030545 1_555
K1 O28 3.030545 1_555
K1 O34 3.030545 1_545
K1 O46 3.030545 1_545
K1 O31 3.030545 1_545
K2 O44 3.030545 1_555
K2 O35 3.030545 1_555
K2 O24 3.030545 1_555
K2 O45 3.030545 1_455
K2 O33 3.030545 1_455
K2 O25 3.030545 1_455
K3 O29 3.030545 1_555
K3 O38 3.030545 1_555
K3 O40 3.030545 1_555
K3 O39 3.030545 1_554
K3 O26 3.030545 1_554
K3 O41 3.030545 1_554
Cr0 O10 2.118327 1_555
Cr0 O20 2.118327 1_555
Cr0 O8 2.118327 1_555
Cr0 O15 2.118327 1_555
Cr0 O21 2.118327 1_555
Cr0 O14 2.118327 1_555
Cr1 O3 2.118327 1_555
Cr1 O17 2.118327 1_555
Cr1 O9 2.118327 1_455
Cr1 O6 2.118327 1_454
Cr1 O11 2.118327 1_554
Cr1 O16 2.118327 1_454
Cr2 O2 2.118327 1_554
Cr2 O18 2.118327 1_555
Cr2 O7 2.118327 1_555
Cr2 O19 2.118327 1_544
Cr2 O5 2.118327 1_545
Cr2 O4 2.118327 1_544
Cr3 O12 2.118327 1_555
Cr3 O1 2.118327 1_555
Cr3 O22 2.118327 1_545
Cr3 O13 2.118327 1_445
Cr3 O23 2.118327 1_455
Cr3 O0 2.118327 1_445
O0 O43 1.248544 1_655
O1 O42 1.248544 1_455
O2 O47 1.248544 1_555
O3 O45 1.248544 1_455
O10 O40 1.248544 1_555
O11 O26 1.248544 1_555
O12 O34 1.248544 1_545
O13 O32 1.248544 1_565
O14 O25 1.248544 1_555
O15 O24 1.248544 1_555
O16 O37 1.248544 1_556
O17 O36 1.248544 1_554
O18 O39 1.248544 1_554
O19 O38 1.248544 1_556
O20 O31 1.248544 1_555
O21 O28 1.248544 1_555
O22 O35 1.248544 1_555
O23 O33 1.248544 1_555
O27 O7 1.248544 1_565
O29 O9 1.248544 1_555
O30 O4 1.248544 1_545
O41 O8 1.248544 1_555
O44 O6 1.248544 1_455
O46 O5 1.248544 1_555
O48 S0 1.502629 1_555
O49 S1 1.502629 1_555
O50 S2 1.502629 1_555
O51 S3 1.502629 1_555
O52 S0 1.502629 1_555
O53 S4 1.502629 1_555
O54 S5 1.502629 1_555
O55 S1 1.502629 1_555
O56 S6 1.502629 1_555
O57 S6 1.502629 1_555
O58 S7 1.502629 1_555
O59 S7 1.502629 1_555
O60 S2 1.502629 1_555
O61 S4 1.502629 1_555
O62 S3 1.502629 1_555
O63 S5 1.502629 1_555
O64 S0 1.502629 1_555
O65 S1 1.502629 1_555
O66 S6 1.502629 1_555
O67 S7 1.502629 1_555
O68 S2 1.502629 1_555
O69 S4 1.502629 1_555
O70 S3 1.502629 1_555
O71 S5 1.502629 1_555
O72 S0 1.454227 1_555
O73 S1 1.454227 1_555
O74 S2 1.454227 1_555
O75 S3 1.454227 1_555
O76 S4 1.454227 1_555
O77 S5 1.454227 1_555
O78 S6 1.454227 1_555
O79 S7 1.454227 1_555
