# generated using pymatgen
data_Dy8Ga3Co
_symmetry_space_group_name_H-M   'P 1'
_cell_length_a   10.02619339
_cell_length_b   10.02619339
_cell_length_c   6.91805100
_cell_angle_alpha   90.00000000
_cell_angle_beta   90.00000000
_cell_angle_gamma   119.99999596
_symmetry_Int_Tables_number   1
_chemical_formula_structural   Dy8Ga3Co
_chemical_formula_sum   'Dy16 Ga6 Co2'
_cell_volume   602.26352673
_cell_formula_units_Z   2
loop_
 _symmetry_equiv_pos_site_id
 _symmetry_equiv_pos_as_xyz
  1  'x, y, z'
loop_
 _atom_site_type_symbol
 _atom_site_label
 _atom_site_symmetry_multiplicity
 _atom_site_fract_x
 _atom_site_fract_y
 _atom_site_fract_z
 _atom_site_occupancy
  Dy  Dy0  1  0.17265900  0.82734100  0.51037500  1
  Dy  Dy1  1  0.65468200  0.82734100  0.51037500  1
  Dy  Dy2  1  0.17265900  0.34531800  0.51037500  1
  Dy  Dy3  1  0.82734100  0.17265900  0.01037500  1
  Dy  Dy4  1  0.34531800  0.17265900  0.01037500  1
  Dy  Dy5  1  0.82734100  0.65468200  0.01037500  1
  Dy  Dy6  1  0.33333300  0.66666700  0.82761400  1
  Dy  Dy7  1  0.66666700  0.33333300  0.32761400  1
  Dy  Dy8  1  0.46339400  0.53660600  0.20737800  1
  Dy  Dy9  1  0.07321100  0.53660600  0.20737800  1
  Dy  Dy10  1  0.46339400  0.92678900  0.20737800  1
  Dy  Dy11  1  0.53660600  0.46339400  0.70737800  1
  Dy  Dy12  1  0.92678900  0.46339400  0.70737800  1
  Dy  Dy13  1  0.53660600  0.07321100  0.70737800  1
  Dy  Dy14  1  0.00000000  0.00000000  0.23142900  1
  Dy  Dy15  1  0.00000000  0.00000000  0.73142900  1
  Ga  Ga0  1  0.16338800  0.83661200  0.96021100  1
  Ga  Ga1  1  0.67322400  0.83661200  0.96021100  1
  Ga  Ga2  1  0.16338800  0.32677600  0.96021100  1
  Ga  Ga3  1  0.83661200  0.16338800  0.46021100  1
  Ga  Ga4  1  0.32677600  0.16338800  0.46021100  1
  Ga  Ga5  1  0.83661200  0.67322400  0.46021100  1
  Co  Co0  1  0.33333300  0.66666700  0.44448300  1
  Co  Co1  1  0.66666700  0.33333300  0.94448300  1
loop_
_geom_bond_atom_site_label_1
_geom_bond_atom_site_label_2
_geom_bond_distance
_geom_bond_site_symmetry_2
Dy0 Ga5 2.941746 1_455
Dy0 Ga4 2.941746 1_565
Dy0 Ga0 3.116150 1_555
Dy1 Ga5 2.941746 1_555
Dy1 Ga3 2.941746 1_565
Dy1 Ga1 3.116150 1_555
Dy2 Ga4 2.941746 1_555
Dy2 Ga3 2.941746 1_455
Dy2 Ga2 3.116150 1_555
Dy3 Ga1 2.941746 1_544
Dy3 Ga2 2.941746 1_654
Dy3 Ga3 3.116150 1_555
Dy4 Ga2 2.941746 1_554
Dy4 Ga0 2.941746 1_544
Dy4 Ga4 3.116150 1_555
Dy5 Ga1 2.941746 1_554
Dy5 Ga0 2.941746 1_654
Dy5 Ga5 3.116150 1_555
Dy6 Ga0 3.090518 1_555
Dy6 Ga2 3.090527 1_555
Dy6 Ga1 3.090527 1_555
Dy7 Ga3 3.090518 1_555
Dy7 Ga5 3.090527 1_555
Dy7 Ga4 3.090527 1_555
Dy8 Ga1 3.173214 1_554
Dy8 Ga2 3.173214 1_554
Dy9 Ga0 3.173212 1_554
Dy9 Ga2 3.173220 1_554
Dy10 Ga0 3.173212 1_554
Dy10 Ga1 3.173220 1_554
Dy11 Ga4 3.173214 1_555
Dy11 Ga5 3.173214 1_555
Dy12 Ga3 3.173212 1_555
Dy12 Ga5 3.173220 1_555
Dy13 Ga3 3.173212 1_555
Dy13 Ga4 3.173220 1_555
Dy14 Ga3 3.248957 1_455
Dy14 Ga5 3.248957 1_445
Dy14 Ga4 3.248957 1_555
Dy14 Ga0 3.401647 1_544
Dy14 Ga1 3.401647 1_444
Dy14 Ga2 3.401647 1_554
Dy15 Ga0 3.248957 1_545
Dy15 Ga1 3.248957 1_445
Dy15 Ga2 3.248957 1_555
Dy15 Ga3 3.401647 1_455
Dy15 Ga5 3.401647 1_445
Dy15 Ga4 3.401647 1_555
Co0 Dy6 2.650520 1_555
Co0 Dy8 2.791411 1_555
Co0 Dy10 2.791412 1_555
Co0 Dy9 2.791412 1_555
Co0 Dy0 2.827235 1_555
Co0 Dy2 2.827244 1_555
Co0 Dy1 2.827244 1_555
Co1 Dy7 2.650520 1_556
Co1 Dy11 2.791411 1_555
Co1 Dy13 2.791412 1_555
Co1 Dy12 2.791412 1_555
Co1 Dy3 2.827235 1_556
Co1 Dy5 2.827244 1_556
Co1 Dy4 2.827244 1_556
