# generated using pymatgen
data_Mg14FeSi
_symmetry_space_group_name_H-M   'P 1'
_cell_length_a   6.15604634
_cell_length_b   6.15604587
_cell_length_c   10.00266450
_cell_angle_alpha   90.00000000
_cell_angle_beta   90.00000000
_cell_angle_gamma   120.00000250
_symmetry_Int_Tables_number   1
_chemical_formula_structural   Mg14FeSi
_chemical_formula_sum   'Mg14 Fe1 Si1'
_cell_volume   328.28425285
_cell_formula_units_Z   1
loop_
 _symmetry_equiv_pos_site_id
 _symmetry_equiv_pos_as_xyz
  1  'x, y, z'
loop_
 _atom_site_type_symbol
 _atom_site_label
 _atom_site_symmetry_multiplicity
 _atom_site_fract_x
 _atom_site_fract_y
 _atom_site_fract_z
 _atom_site_occupancy
  Mg  Mg0  1  0.16595881  0.83297891  0.12500000  1
  Mg  Mg1  1  0.16657676  0.83328788  0.62500000  1
  Mg  Mg2  1  0.66702109  0.33404119  0.12500000  1
  Mg  Mg3  1  0.66671212  0.33342324  0.62500000  1
  Mg  Mg4  1  0.66702109  0.83297891  0.12500000  1
  Mg  Mg5  1  0.66671212  0.83328788  0.62500000  1
  Mg  Mg6  1  0.32633882  0.17366118  0.36814395  1
  Mg  Mg7  1  0.32633882  0.17366118  0.88185605  1
  Mg  Mg8  1  0.32633882  0.65267863  0.36814395  1
  Mg  Mg9  1  0.32633882  0.65267863  0.88185605  1
  Mg  Mg10  1  0.84732137  0.17366118  0.36814395  1
  Mg  Mg11  1  0.84732137  0.17366118  0.88185605  1
  Mg  Mg12  1  0.83333300  0.66666700  0.37456537  1
  Mg  Mg13  1  0.83333300  0.66666700  0.87543463  1
  Fe  Fe0  1  0.16666700  0.33333300  0.12500000  1
  Si  Si0  1  0.16666700  0.33333300  0.62500000  1
loop_
_geom_bond_atom_site_label_1
_geom_bond_atom_site_label_2
_geom_bond_distance
_geom_bond_site_symmetry_2
Mg0 Mg8 3.036055 1_555
Mg0 Mg9 3.036055 1_554
Mg0 Mg6 3.036062 1_565
Mg0 Mg7 3.036062 1_564
Mg0 Mg13 3.062073 1_454
Mg0 Mg12 3.062073 1_455
Mg0 Mg2 3.071483 1_455
Mg0 Mg4 3.071484 1_455
Mg0 Mg2 3.084562 1_565
Mg0 Mg4 3.084563 1_555
Mg1 Mg13 3.071070 1_455
Mg1 Mg12 3.071070 1_455
Mg1 Mg3 3.077190 1_455
Mg1 Mg5 3.077190 1_455
Mg1 Si0 3.078023 1_565
Mg1 Si0 3.078023 1_555
Mg1 Mg3 3.078856 1_565
Mg1 Mg5 3.078856 1_555
Mg1 Mg8 3.146105 1_555
Mg1 Mg9 3.146105 1_555
Mg1 Mg6 3.146112 1_565
Mg1 Mg7 3.146112 1_565
Mg2 Mg7 3.036062 1_554
Mg2 Mg6 3.036062 1_555
Mg2 Mg4 3.071483 1_555
Mg2 Mg4 3.084562 1_545
Mg3 Mg5 3.077190 1_555
Mg3 Si0 3.078023 1_655
Mg3 Si0 3.078023 1_555
Mg3 Mg5 3.078856 1_545
Mg3 Mg7 3.146112 1_555
Mg3 Mg6 3.146112 1_555
Mg4 Mg9 3.036061 1_554
Mg4 Mg8 3.036061 1_555
Mg5 Si0 3.078023 1_665
Mg5 Si0 3.078023 1_555
Mg5 Mg8 3.146111 1_555
Mg5 Mg9 3.146111 1_555
Mg6 Mg8 2.948853 1_555
Mg6 Si0 3.082138 1_555
Mg6 Mg8 3.207192 1_545
Mg7 Mg9 2.948853 1_555
Mg7 Si0 3.082138 1_555
Mg7 Mg9 3.207192 1_545
Mg8 Si0 3.082144 1_555
Mg9 Si0 3.082144 1_555
Mg10 Mg8 2.948853 1_655
Mg10 Mg6 2.948854 1_655
Mg10 Mg2 3.036055 1_555
Mg10 Mg4 3.036061 1_545
Mg10 Mg12 3.079596 1_545
Mg10 Mg12 3.079596 1_555
Mg10 Si0 3.082144 1_655
Mg10 Mg3 3.146105 1_555
Mg10 Mg5 3.146111 1_545
Mg10 Mg8 3.207192 1_545
Mg10 Mg6 3.207193 1_555
Mg11 Mg9 2.948853 1_655
Mg11 Mg7 2.948854 1_655
Mg11 Mg2 3.036055 1_556
Mg11 Mg4 3.036061 1_546
Mg11 Mg13 3.079596 1_545
Mg11 Mg13 3.079596 1_555
Mg11 Si0 3.082144 1_655
Mg11 Mg3 3.146105 1_555
Mg11 Mg5 3.146111 1_545
Mg11 Mg9 3.207192 1_545
Mg11 Mg7 3.207193 1_555
Mg12 Mg4 3.062067 1_555
Mg12 Mg2 3.062073 1_555
Mg12 Mg5 3.071064 1_555
Mg12 Mg3 3.071070 1_555
Mg12 Mg6 3.079596 1_665
Mg12 Mg6 3.079596 1_555
Mg12 Mg8 3.079596 1_555
Mg12 Mg8 3.079596 1_655
Mg13 Mg4 3.062067 1_556
Mg13 Mg2 3.062073 1_556
Mg13 Mg5 3.071064 1_555
Mg13 Mg3 3.071070 1_555
Mg13 Mg7 3.079596 1_665
Mg13 Mg7 3.079596 1_555
Mg13 Mg9 3.079596 1_555
Mg13 Mg9 3.079596 1_655
Fe0 Mg6 2.968771 1_555
Fe0 Mg7 2.968771 1_554
Fe0 Mg8 2.968777 1_555
Fe0 Mg9 2.968777 1_554
Fe0 Mg10 2.968778 1_455
Fe0 Mg11 2.968778 1_454
Fe0 Mg0 3.078025 1_545
Fe0 Mg4 3.078025 1_445
Fe0 Mg4 3.078025 1_555
Fe0 Mg0 3.078025 1_555
Fe0 Mg2 3.078025 1_555
Fe0 Mg2 3.078026 1_455
