# generated using pymatgen
data_LiCa11Sb9
_symmetry_space_group_name_H-M   'P 1'
_cell_length_a   11.96136007
_cell_length_b   11.96136007
_cell_length_c   17.29740020
_cell_angle_alpha   90.00000000
_cell_angle_beta   90.00000000
_cell_angle_gamma   90.00000000
_symmetry_Int_Tables_number   1
_chemical_formula_structural   LiCa11Sb9
_chemical_formula_sum   'Li4 Ca44 Sb36'
_cell_volume   2474.81056659
_cell_formula_units_Z   4
loop_
 _symmetry_equiv_pos_site_id
 _symmetry_equiv_pos_as_xyz
  1  'x, y, z'
loop_
 _atom_site_type_symbol
 _atom_site_label
 _atom_site_symmetry_multiplicity
 _atom_site_fract_x
 _atom_site_fract_y
 _atom_site_fract_z
 _atom_site_occupancy
  Li  Li0  1  0.09653992  0.09653992  0.00000000  1
  Li  Li1  1  0.90346008  0.90346008  0.00000000  1
  Li  Li2  1  0.40346008  0.59653992  0.50000000  1
  Li  Li3  1  0.59653992  0.40346008  0.50000000  1
  Ca  Ca0  1  0.29283436  0.29283436  0.00000000  1
  Ca  Ca1  1  0.70716564  0.70716564  0.00000000  1
  Ca  Ca2  1  0.20716564  0.79283436  0.50000000  1
  Ca  Ca3  1  0.79283436  0.20716564  0.50000000  1
  Ca  Ca4  1  0.17491835  0.82508165  0.00000000  1
  Ca  Ca5  1  0.82508165  0.17491835  0.00000000  1
  Ca  Ca6  1  0.67491835  0.67491835  0.50000000  1
  Ca  Ca7  1  0.32508165  0.32508165  0.50000000  1
  Ca  Ca8  1  0.01470493  0.24965684  0.18657342  1
  Ca  Ca9  1  0.98529507  0.75034316  0.81342658  1
  Ca  Ca10  1  0.98529507  0.75034316  0.18657342  1
  Ca  Ca11  1  0.25034316  0.51470493  0.68657342  1
  Ca  Ca12  1  0.48529507  0.74965684  0.31342658  1
  Ca  Ca13  1  0.01470493  0.24965684  0.81342658  1
  Ca  Ca14  1  0.74965684  0.48529507  0.31342658  1
  Ca  Ca15  1  0.51470493  0.25034316  0.68657342  1
  Ca  Ca16  1  0.74965684  0.48529507  0.68657342  1
  Ca  Ca17  1  0.51470493  0.25034316  0.31342658  1
  Ca  Ca18  1  0.25034316  0.51470493  0.31342658  1
  Ca  Ca19  1  0.48529507  0.74965684  0.68657342  1
  Ca  Ca20  1  0.24965684  0.01470493  0.81342658  1
  Ca  Ca21  1  0.75034316  0.98529507  0.18657342  1
  Ca  Ca22  1  0.75034316  0.98529507  0.81342658  1
  Ca  Ca23  1  0.24965684  0.01470493  0.18657342  1
  Ca  Ca24  1  -0.00000000  -0.00000000  0.34304874  1
  Ca  Ca25  1  -0.00000000  -0.00000000  0.65695126  1
  Ca  Ca26  1  0.50000000  0.50000000  0.84304874  1
  Ca  Ca27  1  0.50000000  0.50000000  0.15695126  1
  Ca  Ca28  1  0.01930749  0.34285942  0.39577499  1
  Ca  Ca29  1  0.98069251  0.65714058  0.60422501  1
  Ca  Ca30  1  0.98069251  0.65714058  0.39577499  1
  Ca  Ca31  1  0.15714058  0.51930749  0.89577499  1
  Ca  Ca32  1  0.48069251  0.84285942  0.10422501  1
  Ca  Ca33  1  0.01930749  0.34285942  0.60422501  1
  Ca  Ca34  1  0.84285942  0.48069251  0.10422501  1
  Ca  Ca35  1  0.51930749  0.15714058  0.89577499  1
  Ca  Ca36  1  0.84285942  0.48069251  0.89577499  1
  Ca  Ca37  1  0.51930749  0.15714058  0.10422501  1
  Ca  Ca38  1  0.15714058  0.51930749  0.10422501  1
  Ca  Ca39  1  0.48069251  0.84285942  0.89577499  1
  Ca  Ca40  1  0.34285942  0.01930749  0.60422501  1
  Ca  Ca41  1  0.65714058  0.98069251  0.39577499  1
  Ca  Ca42  1  0.65714058  0.98069251  0.60422501  1
  Ca  Ca43  1  0.34285942  0.01930749  0.39577499  1
  Sb  Sb0  1  0.03199982  0.33326060  0.00000000  1
  Sb  Sb1  1  0.96800018  0.66673940  0.00000000  1
  Sb  Sb2  1  0.16673940  0.53199982  0.50000000  1
  Sb  Sb3  1  0.46800018  0.83326060  0.50000000  1
  Sb  Sb4  1  0.83326060  0.46800018  0.50000000  1
  Sb  Sb5  1  0.53199982  0.16673940  0.50000000  1
  Sb  Sb6  1  0.33326060  0.03199982  0.00000000  1
  Sb  Sb7  1  0.66673940  0.96800018  0.00000000  1
  Sb  Sb8  1  0.31469440  0.31469440  0.17694406  1
  Sb  Sb9  1  0.68530560  0.68530560  0.82305594  1
  Sb  Sb10  1  0.68530560  0.68530560  0.17694406  1
  Sb  Sb11  1  0.18530560  0.81469440  0.67694406  1
  Sb  Sb12  1  0.18530560  0.81469440  0.32305594  1
  Sb  Sb13  1  0.31469440  0.31469440  0.82305594  1
  Sb  Sb14  1  0.81469440  0.18530560  0.32305594  1
  Sb  Sb15  1  0.81469440  0.18530560  0.67694406  1
  Sb  Sb16  1  0.22307905  0.22307905  0.32177192  1
  Sb  Sb17  1  0.77692095  0.77692095  0.67822808  1
  Sb  Sb18  1  0.77692095  0.77692095  0.32177192  1
  Sb  Sb19  1  0.27692095  0.72307905  0.82177192  1
  Sb  Sb20  1  0.27692095  0.72307905  0.17822808  1
  Sb  Sb21  1  0.22307905  0.22307905  0.67822808  1
  Sb  Sb22  1  0.72307905  0.27692095  0.17822808  1
  Sb  Sb23  1  0.72307905  0.27692095  0.82177192  1
  Sb  Sb24  1  -0.00000000  0.50000000  0.25000000  1
  Sb  Sb25  1  -0.00000000  0.50000000  0.75000000  1
  Sb  Sb26  1  0.50000000  -0.00000000  0.25000000  1
  Sb  Sb27  1  0.50000000  -0.00000000  0.75000000  1
  Sb  Sb28  1  -0.00000000  -0.00000000  0.13352286  1
  Sb  Sb29  1  -0.00000000  -0.00000000  0.86647714  1
  Sb  Sb30  1  0.50000000  0.50000000  0.63352286  1
  Sb  Sb31  1  0.50000000  0.50000000  0.36647714  1
  Sb  Sb32  1  0.37547169  0.62452831  0.00000000  1
  Sb  Sb33  1  0.62452831  0.37547169  0.00000000  1
  Sb  Sb34  1  0.87547169  0.87547169  0.50000000  1
  Sb  Sb35  1  0.12452831  0.12452831  0.50000000  1
loop_
_geom_bond_atom_site_label_1
_geom_bond_atom_site_label_2
_geom_bond_distance
_geom_bond_site_symmetry_2
Li0 Sb29 2.828628 1_554
Li0 Sb28 2.828628 1_555
Li0 Sb6 2.934853 1_555
Li0 Sb0 2.934853 1_555
Li1 Sb29 2.828628 1_664
Li1 Sb28 2.828628 1_665
Li1 Sb1 2.934853 1_555
Li1 Sb7 2.934853 1_555
Li2 Sb30 2.828628 1_555
Li2 Sb31 2.828628 1_555
Li2 Sb2 2.934853 1_555
Li2 Sb3 2.934853 1_555
Li3 Sb30 2.828628 1_555
Li3 Sb31 2.828628 1_555
Li3 Sb5 2.934853 1_555
Li3 Sb4 2.934853 1_555
Ca0 Sb13 3.082929 1_554
Ca0 Sb8 3.082929 1_555
Ca0 Sb6 3.157186 1_555
Ca0 Sb0 3.157186 1_555
Ca1 Sb9 3.082929 1_554
Ca1 Sb10 3.082929 1_555
Ca1 Sb1 3.157186 1_555
Ca1 Sb7 3.157186 1_555
Ca2 Sb11 3.082929 1_555
Ca2 Sb12 3.082929 1_555
Ca2 Sb3 3.157186 1_555
Ca2 Sb2 3.157186 1_555
Ca3 Sb15 3.082929 1_555
Ca3 Sb14 3.082929 1_555
Ca3 Sb4 3.157186 1_555
Ca3 Sb5 3.157186 1_555
Ca4 Sb6 3.116557 1_565
Ca4 Sb1 3.116557 1_455
Ca4 Sb32 3.392544 1_555
Ca4 Sb20 3.532903 1_555
Ca4 Sb19 3.532903 1_554
Ca5 Sb0 3.116557 1_655
Ca5 Sb7 3.116557 1_545
Ca5 Sb33 3.392544 1_555
Ca5 Sb23 3.532903 1_554
Ca5 Sb22 3.532903 1_555
Ca6 Sb3 3.116557 1_555
Ca6 Sb4 3.116557 1_555
Ca6 Sb34 3.392544 1_555
Ca6 Sb17 3.532903 1_555
Ca6 Sb18 3.532903 1_555
Ca7 Sb2 3.116557 1_555
Ca7 Sb5 3.116557 1_555
Ca7 Sb35 3.392544 1_555
Ca7 Sb16 3.532903 1_555
Ca7 Sb21 3.532903 1_555
Ca8 Sb28 3.128993 1_555
Ca8 Sb24 3.193947 1_555
Ca8 Sb0 3.384948 1_555
Ca8 Sb16 3.432533 1_555
Ca8 Sb14 3.448100 1_455
Ca8 Sb22 3.506426 1_455
Ca8 Sb8 3.675418 1_555
Ca9 Sb29 3.128993 1_665
Ca9 Sb25 3.193947 1_655
Ca9 Sb1 3.384948 1_556
Ca9 Sb17 3.432533 1_555
Ca9 Sb11 3.448100 1_655
Ca9 Sb19 3.506426 1_655
Ca9 Sb9 3.675418 1_555
Ca10 Sb28 3.128993 1_665
Ca10 Sb24 3.193947 1_655
Ca10 Sb1 3.384948 1_555
Ca10 Sb18 3.432533 1_555
Ca10 Sb12 3.448100 1_655
Ca10 Sb20 3.506426 1_655
Ca10 Sb10 3.675418 1_555
Ca11 Sb30 3.128993 1_555
Ca11 Sb25 3.193947 1_555
Ca11 Sb2 3.384948 1_555
Ca11 Sb19 3.432533 1_555
Ca11 Sb13 3.448100 1_555
Ca11 Sb21 3.506426 1_555
Ca11 Sb11 3.675418 1_555
Ca12 Sb31 3.128993 1_555
Ca12 Sb26 3.193947 1_565
Ca12 Sb3 3.384948 1_555
Ca12 Sb20 3.432533 1_555
Ca12 Sb10 3.448100 1_555
Ca12 Sb18 3.506426 1_555
Ca12 Sb12 3.675418 1_555
Ca13 Sb29 3.128993 1_555
Ca13 Sb25 3.193947 1_555
Ca13 Sb0 3.384948 1_556
Ca13 Sb21 3.432533 1_555
Ca13 Sb15 3.448100 1_455
Ca13 Sb23 3.506426 1_455
Ca13 Sb13 3.675418 1_555
Ca14 Sb31 3.128993 1_555
Ca14 Sb24 3.193947 1_655
Ca14 Sb4 3.384948 1_555
Ca14 Sb22 3.432533 1_555
Ca14 Sb10 3.448100 1_555
Ca14 Sb18 3.506426 1_555
Ca14 Sb14 3.675418 1_555
Ca15 Sb30 3.128993 1_555
Ca15 Sb27 3.193947 1_555
Ca15 Sb5 3.384948 1_555
Ca15 Sb23 3.432533 1_555
Ca15 Sb13 3.448100 1_555
Ca15 Sb21 3.506426 1_555
Ca15 Sb15 3.675418 1_555
Ca16 Sb30 3.128993 1_555
Ca16 Sb25 3.193947 1_655
Ca16 Sb4 3.384948 1_555
Ca16 Sb23 3.432533 1_555
Ca16 Sb9 3.448100 1_555
Ca16 Sb17 3.506426 1_555
Ca16 Sb15 3.675418 1_555
Ca17 Sb31 3.128993 1_555
Ca17 Sb26 3.193947 1_555
Ca17 Sb5 3.384948 1_555
Ca17 Sb22 3.432533 1_555
Ca17 Sb8 3.448100 1_555
Ca17 Sb16 3.506426 1_555
Ca17 Sb14 3.675418 1_555
Ca18 Sb31 3.128993 1_555
Ca18 Sb24 3.193947 1_555
Ca18 Sb2 3.384948 1_555
Ca18 Sb20 3.432533 1_555
Ca18 Sb8 3.448100 1_555
Ca18 Sb16 3.506426 1_555
Ca18 Sb12 3.675418 1_555
Ca19 Sb30 3.128993 1_555
Ca19 Sb27 3.193947 1_565
Ca19 Sb3 3.384948 1_555
Ca19 Sb19 3.432533 1_555
Ca19 Sb9 3.448100 1_555
Ca19 Sb17 3.506426 1_555
Ca19 Sb11 3.675418 1_555
Ca20 Sb29 3.128993 1_555
Ca20 Sb27 3.193947 1_555
Ca20 Sb6 3.384948 1_556
Ca20 Sb21 3.432533 1_555
Ca20 Sb11 3.448100 1_545
Ca20 Sb19 3.506426 1_545
Ca20 Sb13 3.675418 1_555
Ca21 Sb28 3.128993 1_665
Ca21 Sb26 3.193947 1_565
Ca21 Sb7 3.384948 1_555
Ca21 Sb18 3.432533 1_555
Ca21 Sb14 3.448100 1_565
Ca21 Sb22 3.506426 1_565
Ca21 Sb10 3.675418 1_555
Ca22 Sb29 3.128993 1_665
Ca22 Sb27 3.193947 1_565
Ca22 Sb7 3.384948 1_556
Ca22 Sb17 3.432533 1_555
Ca22 Sb15 3.448100 1_565
Ca22 Sb23 3.506426 1_565
Ca22 Sb9 3.675418 1_555
Ca23 Sb28 3.128993 1_555
Ca23 Sb26 3.193947 1_555
Ca23 Sb6 3.384948 1_555
Ca23 Sb16 3.432533 1_555
Ca23 Sb12 3.448100 1_545
Ca23 Sb20 3.506426 1_545
Ca23 Sb8 3.675418 1_555
Ca24 Sb14 3.153633 1_455
Ca24 Sb12 3.153633 1_545
Ca24 Sb34 3.436247 1_445
Ca24 Sb35 3.436247 1_555
Ca24 Sb28 3.624253 1_555
Ca24 Sb18 3.791491 1_445
Ca24 Sb16 3.791491 1_555
Ca25 Sb11 3.153633 1_545
Ca25 Sb15 3.153633 1_455
Ca25 Sb35 3.436247 1_555
Ca25 Sb34 3.436247 1_445
Ca25 Sb29 3.624253 1_555
Ca25 Sb17 3.791491 1_445
Ca25 Sb21 3.791491 1_555
Ca26 Sb9 3.153633 1_555
Ca26 Sb13 3.153633 1_555
Ca26 Sb33 3.436247 1_556
Ca26 Sb32 3.436247 1_556
Ca26 Sb30 3.624253 1_555
Ca26 Sb23 3.791491 1_555
Ca26 Sb19 3.791491 1_555
Ca27 Sb10 3.153633 1_555
Ca27 Sb8 3.153633 1_555
Ca27 Sb33 3.436247 1_555
Ca27 Sb32 3.436247 1_555
Ca27 Sb31 3.624253 1_555
Ca27 Sb20 3.791491 1_555
Ca27 Sb22 3.791491 1_555
Ca28 Sb16 3.103568 1_555
Ca28 Sb24 3.153473 1_555
Ca28 Sb4 3.231567 1_455
Ca28 Sb14 3.335230 1_455
Ca28 Sb2 3.387978 1_555
Ca28 Sb35 3.413843 1_555
Ca29 Sb17 3.103568 1_555
Ca29 Sb25 3.153473 1_655
Ca29 Sb2 3.231567 1_655
Ca29 Sb11 3.335230 1_655
Ca29 Sb4 3.387978 1_555
Ca29 Sb34 3.413843 1_555
Ca30 Sb18 3.103568 1_555
Ca30 Sb24 3.153473 1_655
Ca30 Sb2 3.231567 1_655
Ca30 Sb12 3.335230 1_655
Ca30 Sb4 3.387978 1_555
Ca30 Sb34 3.413843 1_555
Ca31 Sb19 3.103568 1_555
Ca31 Sb25 3.153473 1_555
Ca31 Sb0 3.231567 1_556
Ca31 Sb13 3.335230 1_555
Ca31 Sb1 3.387978 1_456
Ca31 Sb32 3.413843 1_556
Ca32 Sb20 3.103568 1_555
Ca32 Sb26 3.153473 1_565
Ca32 Sb7 3.231567 1_555
Ca32 Sb10 3.335230 1_555
Ca32 Sb6 3.387978 1_565
Ca32 Sb32 3.413843 1_555
Ca33 Sb21 3.103568 1_555
Ca33 Sb25 3.153473 1_555
Ca33 Sb4 3.231567 1_455
Ca33 Sb15 3.335230 1_455
Ca33 Sb2 3.387978 1_555
Ca33 Sb35 3.413843 1_555
Ca34 Sb22 3.103568 1_555
Ca34 Sb24 3.153473 1_655
Ca34 Sb1 3.231567 1_555
Ca34 Sb10 3.335230 1_555
Ca34 Sb0 3.387978 1_655
Ca34 Sb33 3.413843 1_555
Ca35 Sb23 3.103568 1_555
Ca35 Sb27 3.153473 1_555
Ca35 Sb6 3.231567 1_556
Ca35 Sb13 3.335230 1_555
Ca35 Sb7 3.387978 1_546
Ca35 Sb33 3.413843 1_556
Ca36 Sb23 3.103568 1_555
Ca36 Sb25 3.153473 1_655
Ca36 Sb1 3.231567 1_556
Ca36 Sb9 3.335230 1_555
Ca36 Sb0 3.387978 1_656
Ca36 Sb33 3.413843 1_556
Ca37 Sb22 3.103568 1_555
Ca37 Sb26 3.153473 1_555
Ca37 Sb6 3.231567 1_555
Ca37 Sb8 3.335230 1_555
Ca37 Sb7 3.387978 1_545
Ca37 Sb33 3.413843 1_555
Ca38 Sb20 3.103568 1_555
Ca38 Sb24 3.153473 1_555
Ca38 Sb0 3.231567 1_555
Ca38 Sb8 3.335230 1_555
Ca38 Sb1 3.387978 1_455
Ca38 Sb32 3.413843 1_555
Ca39 Sb19 3.103568 1_555
Ca39 Sb27 3.153473 1_565
Ca39 Sb7 3.231567 1_556
Ca39 Sb9 3.335230 1_555
Ca39 Sb6 3.387978 1_566
Ca39 Sb32 3.413843 1_556
Ca40 Sb21 3.103568 1_555
Ca40 Sb27 3.153473 1_555
Ca40 Sb3 3.231567 1_545
Ca40 Sb11 3.335230 1_545
Ca40 Sb5 3.387978 1_555
Ca40 Sb35 3.413843 1_555
Ca41 Sb18 3.103568 1_555
Ca41 Sb26 3.153473 1_565
Ca41 Sb5 3.231567 1_565
Ca41 Sb14 3.335230 1_565
Ca41 Sb3 3.387978 1_555
Ca41 Sb34 3.413843 1_555
Ca42 Sb17 3.103568 1_555
Ca42 Sb27 3.153473 1_565
Ca42 Sb5 3.231567 1_565
Ca42 Sb15 3.335230 1_565
Ca42 Sb3 3.387978 1_555
Ca42 Sb34 3.413843 1_555
Ca43 Sb16 3.103568 1_555
Ca43 Sb26 3.153473 1_555
Ca43 Sb3 3.231567 1_545
Ca43 Sb12 3.335230 1_545
Ca43 Sb5 3.387978 1_555
Ca43 Sb35 3.413843 1_555
Sb10 Sb18 2.945760 1_555
Sb11 Sb19 2.945760 1_555
Sb12 Sb20 2.945760 1_555
Sb13 Sb21 2.945760 1_555
Sb14 Sb22 2.945760 1_555
Sb15 Sb23 2.945760 1_555
Sb16 Sb8 2.945760 1_555
Sb17 Sb9 2.945760 1_555
