# generated using pymatgen
data_NaPH6
_symmetry_space_group_name_H-M   'P 1'
_cell_length_a   5.25516386
_cell_length_b   5.25516386
_cell_length_c   5.25516386
_cell_angle_alpha   60.00000000
_cell_angle_beta   60.00000000
_cell_angle_gamma   60.00000000
_symmetry_Int_Tables_number   1
_chemical_formula_structural   NaPH6
_chemical_formula_sum   'Na1 P1 H6'
_cell_volume   102.62278305
_cell_formula_units_Z   1
loop_
 _symmetry_equiv_pos_site_id
 _symmetry_equiv_pos_as_xyz
  1  'x, y, z'
loop_
 _atom_site_type_symbol
 _atom_site_label
 _atom_site_symmetry_multiplicity
 _atom_site_fract_x
 _atom_site_fract_y
 _atom_site_fract_z
 _atom_site_occupancy
  Na  Na0  1  0.50000000  0.50000000  0.50000000  1
  P  P0  1  0.00000000  0.00000000  0.00000000  1
  H  H0  1  0.79952000  0.20048000  0.79952000  1
  H  H1  1  0.20048000  0.20048000  0.79952000  1
  H  H2  1  0.20048000  0.79952000  0.20048000  1
  H  H3  1  0.20048000  0.79952000  0.79952000  1
  H  H4  1  0.79952000  0.20048000  0.20048000  1
  H  H5  1  0.79952000  0.79952000  0.20048000  1
loop_
_geom_bond_atom_site_label_1
_geom_bond_atom_site_label_2
_geom_bond_distance
_geom_bond_site_symmetry_2
H0 P0 1.489952 1_656
H0 Na0 2.226010 1_555
H1 P0 1.489952 1_556
H1 Na0 2.226010 1_555
H2 P0 1.489952 1_565
H2 Na0 2.226010 1_555
H3 P0 1.489952 1_566
H3 Na0 2.226010 1_555
H4 P0 1.489952 1_655
H4 Na0 2.226010 1_555
H5 P0 1.489952 1_665
H5 Na0 2.226010 1_555
