# generated using pymatgen
data_MgSi2
_symmetry_space_group_name_H-M   'P 1'
_cell_length_a   3.33802414
_cell_length_b   9.80997564
_cell_length_c   6.74837163
_cell_angle_alpha   89.75852510
_cell_angle_beta   90.59807338
_cell_angle_gamma   110.55166339
_symmetry_Int_Tables_number   1
_chemical_formula_structural   MgSi2
_chemical_formula_sum   'Mg4 Si8'
_cell_volume   206.90627778
_cell_formula_units_Z   4
loop_
 _symmetry_equiv_pos_site_id
 _symmetry_equiv_pos_as_xyz
  1  'x, y, z'
loop_
 _atom_site_type_symbol
 _atom_site_label
 _atom_site_symmetry_multiplicity
 _atom_site_fract_x
 _atom_site_fract_y
 _atom_site_fract_z
 _atom_site_occupancy
  Mg  Mg0  1  0.25095300  0.99987600  0.04185000  1
  Mg  Mg1  1  0.25177200  0.50019400  0.79147800  1
  Mg  Mg2  1  0.25132100  0.99985200  0.54157200  1
  Mg  Mg3  1  0.25129800  0.50007900  0.29173200  1
  Si  Si0  1  0.94946400  0.20018700  0.29291700  1
  Si  Si1  1  0.55231800  0.79975500  0.29259100  1
  Si  Si2  1  0.95046500  0.70020800  0.54094000  1
  Si  Si3  1  0.94952100  0.19922500  0.79121500  1
  Si  Si4  1  0.55320600  0.29971500  0.54014900  1
  Si  Si5  1  0.55345800  0.80079700  0.79096600  1
  Si  Si6  1  0.94962900  0.69930300  0.04262700  1
  Si  Si7  1  0.55234800  0.30081000  0.04196300  1
loop_
_geom_bond_atom_site_label_1
_geom_bond_atom_site_label_2
_geom_bond_distance
_geom_bond_site_symmetry_2
Mg0 Si6 2.761109 1_455
Mg0 Si7 2.764435 1_565
Mg0 Si5 2.975633 1_454
Mg0 Si0 2.982836 1_565
Mg0 Si3 2.995894 1_564
Mg0 Si1 2.999289 1_455
Mg0 Si3 3.002616 1_464
Mg0 Si1 3.008699 1_555
Mg0 Si5 3.024611 1_554
Mg0 Si0 3.032648 1_465
Mg1 Si5 2.761371 1_555
Mg1 Si3 2.764729 1_455
Mg1 Si6 2.977414 1_556
Mg1 Si4 2.984568 1_455
Mg1 Si7 2.997034 1_456
Mg1 Si2 2.998219 1_555
Mg1 Si7 3.000723 1_556
Mg1 Si2 3.007023 1_455
Mg1 Si6 3.025164 1_456
Mg1 Si4 3.034807 1_555
Mg2 Si2 2.752564 1_455
Mg2 Si4 2.754554 1_565
Mg2 Si3 2.973319 1_565
Mg2 Si1 2.975023 1_455
Mg2 Si5 2.988731 1_455
Mg2 Si0 2.991183 1_565
Mg2 Si5 2.997061 1_555
Mg2 Si0 3.003427 1_465
Mg2 Si3 3.020756 1_465
Mg2 Si1 3.022175 1_555
Mg3 Si1 2.752857 1_555
Mg3 Si0 2.754819 1_455
Mg3 Si7 2.974774 1_455
Mg3 Si2 2.976300 1_555
Mg3 Si6 2.989118 1_555
Mg3 Si4 2.990288 1_455
Mg3 Si6 2.996378 1_455
Mg3 Si4 3.002854 1_555
Mg3 Si7 3.019035 1_555
Mg3 Si2 3.022968 1_455
Si0 Si4 2.521978 1_655
Si0 Si4 2.540280 1_555
Si0 Si7 2.541130 1_555
Si0 Si7 2.560211 1_655
Si1 Si2 2.525810 1_555
Si1 Si6 2.532804 1_455
Si1 Si2 2.545111 1_455
Si1 Si6 2.560027 1_555
Si2 Si5 2.533892 1_655
Si2 Si5 2.560402 1_555
Si3 Si7 2.537873 1_656
Si3 Si4 2.539147 1_555
Si3 Si4 2.562336 1_655
Si3 Si7 2.569588 1_556
Si5 Si6 2.547093 1_556
Si5 Si6 2.566395 1_456
