# generated using pymatgen
data_ScAlCu2
_symmetry_space_group_name_H-M   'P 1'
_cell_length_a   6.31503000
_cell_length_b   6.31503000
_cell_length_c   12.25272200
_cell_angle_alpha   90.00000000
_cell_angle_beta   90.00000000
_cell_angle_gamma   90.00000000
_symmetry_Int_Tables_number   1
_chemical_formula_structural   ScAlCu2
_chemical_formula_sum   'Sc8 Al8 Cu16'
_cell_volume   488.63370007
_cell_formula_units_Z   8
loop_
 _symmetry_equiv_pos_site_id
 _symmetry_equiv_pos_as_xyz
  1  'x, y, z'
loop_
 _atom_site_type_symbol
 _atom_site_label
 _atom_site_symmetry_multiplicity
 _atom_site_fract_x
 _atom_site_fract_y
 _atom_site_fract_z
 _atom_site_occupancy
  Sc  Sc0_0  1  0.00000000  0.00000000  0.25000000  1
  Sc  Sc0_1  1  0.00000000  0.00000000  0.75000000  1
  Sc  Sc0_2  1  0.00000000  0.50000000  0.25000000  1
  Sc  Sc0_3  1  0.00000000  0.50000000  0.75000000  1
  Sc  Sc0_4  1  0.50000000  0.00000000  0.25000000  1
  Sc  Sc0_5  1  0.50000000  0.00000000  0.75000000  1
  Sc  Sc0_6  1  0.50000000  0.50000000  0.25000000  1
  Sc  Sc0_7  1  0.50000000  0.50000000  0.75000000  1
  Al  Al0_0  1  0.00000000  0.00000000  0.00000000  1
  Al  Al0_1  1  0.00000000  0.00000000  0.50000000  1
  Al  Al0_2  1  0.00000000  0.50000000  0.00000000  1
  Al  Al0_3  1  0.00000000  0.50000000  0.50000000  1
  Al  Al0_4  1  0.50000000  0.00000000  0.00000000  1
  Al  Al0_5  1  0.50000000  0.00000000  0.50000000  1
  Al  Al0_6  1  0.50000000  0.50000000  0.00000000  1
  Al  Al0_7  1  0.50000000  0.50000000  0.50000000  1
  Cu  Cu0_0  1  0.25000000  0.25000000  0.11465900  1
  Cu  Cu0_1  1  0.25000000  0.25000000  0.61465900  1
  Cu  Cu0_2  1  0.25000000  0.75000000  0.11465900  1
  Cu  Cu0_3  1  0.25000000  0.75000000  0.61465900  1
  Cu  Cu0_4  1  0.75000000  0.25000000  0.11465900  1
  Cu  Cu0_5  1  0.75000000  0.25000000  0.61465900  1
  Cu  Cu0_6  1  0.75000000  0.75000000  0.11465900  1
  Cu  Cu0_7  1  0.75000000  0.75000000  0.61465900  1
  Cu  Cu1_0  1  0.25000000  0.25000000  0.38534100  1
  Cu  Cu1_1  1  0.25000000  0.25000000  0.88534100  1
  Cu  Cu1_2  1  0.25000000  0.75000000  0.38534100  1
  Cu  Cu1_3  1  0.25000000  0.75000000  0.88534100  1
  Cu  Cu1_4  1  0.75000000  0.25000000  0.38534100  1
  Cu  Cu1_5  1  0.75000000  0.25000000  0.88534100  1
  Cu  Cu1_6  1  0.75000000  0.75000000  0.38534100  1
  Cu  Cu1_7  1  0.75000000  0.75000000  0.88534100  1
loop_
_geom_bond_atom_site_label_1
_geom_bond_atom_site_label_2
_geom_bond_distance
_geom_bond_site_symmetry_2
Sc0_0 Sc0_2 3.157515 1_555
Sc0_0 Sc0_4 3.157515 1_555
Sc0_0 Sc0_2 3.157515 1_545
Sc0_0 Sc0_4 3.157515 1_455
Sc0_1 Sc0_3 3.157515 1_555
Sc0_1 Sc0_5 3.157515 1_555
Sc0_1 Sc0_3 3.157515 1_545
Sc0_1 Sc0_5 3.157515 1_455
Sc0_2 Sc0_6 3.157515 1_455
Sc0_2 Sc0_6 3.157515 1_555
Sc0_3 Sc0_7 3.157515 1_555
Sc0_3 Sc0_7 3.157515 1_455
Sc0_4 Sc0_6 3.157515 1_555
Sc0_4 Sc0_6 3.157515 1_545
Sc0_5 Sc0_7 3.157515 1_555
Sc0_5 Sc0_7 3.157515 1_545
Al0_0 Cu0_2 2.637926 1_545
Al0_0 Cu0_0 2.637926 1_555
Al0_0 Cu0_6 2.637926 1_445
Al0_0 Cu0_4 2.637926 1_455
Al0_0 Cu1_3 2.637926 1_544
Al0_0 Cu1_1 2.637926 1_554
Al0_0 Cu1_7 2.637926 1_444
Al0_0 Cu1_5 2.637926 1_454
Al0_0 Sc0_0 3.063180 1_555
Al0_0 Sc0_1 3.063181 1_554
Al0_1 Cu1_6 2.637926 1_445
Al0_1 Cu1_4 2.637926 1_455
Al0_1 Cu1_0 2.637926 1_555
Al0_1 Cu1_2 2.637926 1_545
Al0_1 Cu0_3 2.637926 1_545
Al0_1 Cu0_5 2.637926 1_455
Al0_1 Cu0_7 2.637926 1_445
Al0_1 Cu0_1 2.637926 1_555
Al0_1 Sc0_0 3.063180 1_555
Al0_1 Sc0_1 3.063181 1_555
Al0_2 Cu0_6 2.637926 1_455
Al0_2 Cu0_2 2.637926 1_555
Al0_2 Cu0_0 2.637926 1_555
Al0_2 Cu0_4 2.637926 1_455
Al0_2 Cu1_1 2.637926 1_554
Al0_2 Cu1_7 2.637926 1_454
Al0_2 Cu1_5 2.637926 1_454
Al0_2 Cu1_3 2.637926 1_554
Al0_2 Sc0_2 3.063180 1_555
Al0_2 Sc0_3 3.063181 1_554
Al0_3 Cu1_2 2.637926 1_555
Al0_3 Cu1_4 2.637926 1_455
Al0_3 Cu1_0 2.637926 1_555
Al0_3 Cu1_6 2.637926 1_455
Al0_3 Cu0_5 2.637926 1_455
Al0_3 Cu0_3 2.637926 1_555
Al0_3 Cu0_7 2.637926 1_455
Al0_3 Cu0_1 2.637926 1_555
Al0_3 Sc0_2 3.063180 1_555
Al0_3 Sc0_3 3.063181 1_555
Al0_4 Cu0_2 2.637926 1_545
Al0_4 Cu0_0 2.637926 1_555
Al0_4 Cu0_6 2.637926 1_545
Al0_4 Cu0_4 2.637926 1_555
Al0_4 Cu1_3 2.637926 1_544
Al0_4 Cu1_1 2.637926 1_554
Al0_4 Cu1_5 2.637926 1_554
Al0_4 Cu1_7 2.637926 1_544
Al0_4 Sc0_4 3.063180 1_555
Al0_4 Sc0_5 3.063181 1_554
Al0_5 Cu1_4 2.637926 1_555
Al0_5 Cu1_6 2.637926 1_545
Al0_5 Cu1_0 2.637926 1_555
Al0_5 Cu1_2 2.637926 1_545
Al0_5 Cu0_3 2.637926 1_545
Al0_5 Cu0_7 2.637926 1_545
Al0_5 Cu0_1 2.637926 1_555
Al0_5 Cu0_5 2.637926 1_555
Al0_5 Sc0_4 3.063180 1_555
Al0_5 Sc0_5 3.063181 1_555
Al0_6 Cu0_2 2.637926 1_555
Al0_6 Cu0_0 2.637926 1_555
Al0_6 Cu0_6 2.637926 1_555
Al0_6 Cu0_4 2.637926 1_555
Al0_6 Cu1_7 2.637926 1_554
Al0_6 Cu1_1 2.637926 1_554
Al0_6 Cu1_5 2.637926 1_554
Al0_6 Cu1_3 2.637926 1_554
Al0_6 Sc0_6 3.063180 1_555
Al0_6 Sc0_7 3.063181 1_554
Al0_7 Cu1_2 2.637926 1_555
Al0_7 Cu1_4 2.637926 1_555
Al0_7 Cu1_6 2.637926 1_555
Al0_7 Cu1_0 2.637926 1_555
Al0_7 Cu0_3 2.637926 1_555
Al0_7 Cu0_7 2.637926 1_555
Al0_7 Cu0_1 2.637926 1_555
Al0_7 Cu0_5 2.637926 1_555
Al0_7 Sc0_6 3.063180 1_555
Al0_7 Sc0_7 3.063181 1_555
Cu0_0 Sc0_2 2.781168 1_555
Cu0_0 Sc0_0 2.781168 1_555
Cu0_0 Sc0_4 2.781168 1_555
Cu0_0 Sc0_6 2.781168 1_555
Cu0_0 Cu1_1 2.809770 1_554
Cu0_1 Sc0_7 2.781168 1_555
Cu0_1 Sc0_1 2.781168 1_555
Cu0_1 Sc0_3 2.781168 1_555
Cu0_1 Sc0_5 2.781168 1_555
Cu0_1 Cu1_0 2.809770 1_555
Cu0_2 Sc0_0 2.781168 1_565
Cu0_2 Sc0_4 2.781168 1_565
Cu0_2 Sc0_2 2.781168 1_555
Cu0_2 Sc0_6 2.781168 1_555
Cu0_2 Cu1_3 2.809770 1_554
Cu0_3 Sc0_3 2.781168 1_555
Cu0_3 Sc0_7 2.781168 1_555
Cu0_3 Sc0_1 2.781168 1_565
Cu0_3 Sc0_5 2.781168 1_565
Cu0_3 Cu1_2 2.809770 1_555
Cu0_4 Sc0_0 2.781168 1_655
Cu0_4 Sc0_6 2.781168 1_555
Cu0_4 Sc0_4 2.781168 1_555
Cu0_4 Sc0_2 2.781168 1_655
Cu0_4 Cu1_5 2.809770 1_554
Cu0_5 Sc0_1 2.781168 1_655
Cu0_5 Sc0_3 2.781168 1_655
Cu0_5 Sc0_5 2.781168 1_555
Cu0_5 Sc0_7 2.781168 1_555
Cu0_5 Cu1_4 2.809770 1_555
Cu0_6 Sc0_0 2.781168 1_665
Cu0_6 Sc0_4 2.781168 1_565
Cu0_6 Sc0_6 2.781168 1_555
Cu0_6 Sc0_2 2.781168 1_655
Cu0_6 Cu1_7 2.809770 1_554
Cu0_7 Sc0_1 2.781168 1_665
Cu0_7 Sc0_3 2.781168 1_655
Cu0_7 Sc0_7 2.781168 1_555
Cu0_7 Sc0_5 2.781168 1_565
Cu0_7 Cu1_6 2.809770 1_555
Cu1_0 Sc0_6 2.781168 1_555
Cu1_0 Sc0_2 2.781168 1_555
Cu1_0 Sc0_0 2.781168 1_555
Cu1_0 Sc0_4 2.781168 1_555
Cu1_1 Sc0_7 2.781168 1_555
Cu1_1 Sc0_1 2.781168 1_555
Cu1_1 Sc0_3 2.781168 1_555
Cu1_1 Sc0_5 2.781168 1_555
Cu1_2 Sc0_6 2.781168 1_555
Cu1_2 Sc0_2 2.781168 1_555
Cu1_2 Sc0_0 2.781168 1_565
Cu1_2 Sc0_4 2.781168 1_565
Cu1_3 Sc0_7 2.781168 1_555
Cu1_3 Sc0_3 2.781168 1_555
Cu1_3 Sc0_1 2.781168 1_565
Cu1_3 Sc0_5 2.781168 1_565
Cu1_4 Sc0_6 2.781168 1_555
Cu1_4 Sc0_4 2.781168 1_555
Cu1_4 Sc0_2 2.781168 1_655
Cu1_4 Sc0_0 2.781168 1_655
Cu1_5 Sc0_7 2.781168 1_555
Cu1_5 Sc0_1 2.781168 1_655
Cu1_5 Sc0_3 2.781168 1_655
Cu1_5 Sc0_5 2.781168 1_555
Cu1_6 Sc0_6 2.781168 1_555
Cu1_6 Sc0_2 2.781168 1_655
Cu1_6 Sc0_0 2.781168 1_665
Cu1_6 Sc0_4 2.781168 1_565
Cu1_7 Sc0_7 2.781168 1_555
Cu1_7 Sc0_1 2.781168 1_665
Cu1_7 Sc0_3 2.781168 1_655
Cu1_7 Sc0_5 2.781168 1_565
