# generated using pymatgen
data_ErNiBC
_symmetry_space_group_name_H-M   'P 1'
_cell_length_a   3.54746600
_cell_length_b   3.54746600
_cell_length_c   7.55936100
_cell_angle_alpha   90.00000000
_cell_angle_beta   90.00000000
_cell_angle_gamma   90.00000000
_symmetry_Int_Tables_number   1
_chemical_formula_structural   ErNiBC
_chemical_formula_sum   'Er2 Ni2 B2 C2'
_cell_volume   95.13089205
_cell_formula_units_Z   2
loop_
 _symmetry_equiv_pos_site_id
 _symmetry_equiv_pos_as_xyz
  1  'x, y, z'
loop_
 _atom_site_type_symbol
 _atom_site_label
 _atom_site_symmetry_multiplicity
 _atom_site_fract_x
 _atom_site_fract_y
 _atom_site_fract_z
 _atom_site_occupancy
  Er  Er0  1  0.00000000  0.50000000  0.83576000  1
  Er  Er1  1  0.50000000  0.00000000  0.16424000  1
  Ni  Ni0  1  0.00000000  0.00000000  0.50000000  1
  Ni  Ni1  1  0.50000000  0.50000000  0.50000000  1
  B  B0  1  0.50000000  0.00000000  0.64916100  1
  B  B1  1  0.00000000  0.50000000  0.35083900  1
  C  C0  1  0.50000000  0.00000000  0.84729900  1
  C  C1  1  0.00000000  0.50000000  0.15270100  1
loop_
_geom_bond_atom_site_label_1
_geom_bond_atom_site_label_2
_geom_bond_distance
_geom_bond_site_symmetry_2
B0 C0 1.497797 1_555
B0 Ni1 2.101791 1_545
B0 Ni1 2.101791 1_555
B0 Ni0 2.101791 1_655
B0 Ni0 2.101791 1_555
B1 C1 1.497797 1_555
B1 Ni0 2.101791 1_565
B1 Ni1 2.101791 1_455
B1 Ni1 2.101791 1_555
B1 Ni0 2.101791 1_555
C0 Er1 2.395871 1_556
C0 Er0 2.509953 1_645
C0 Er0 2.509953 1_655
C0 Er0 2.509953 1_545
C0 Er0 2.509953 1_555
C1 Er0 2.395871 1_554
C1 Er1 2.509953 1_555
C1 Er1 2.509953 1_565
C1 Er1 2.509953 1_455
C1 Er1 2.509953 1_465
