# generated using pymatgen
data_SrNdCoO4
_symmetry_space_group_name_H-M   'P 1'
_cell_length_a   6.81465638
_cell_length_b   6.81465638
_cell_length_c   5.41611800
_cell_angle_alpha   90.00000000
_cell_angle_beta   90.00000000
_cell_angle_gamma   133.29949769
_symmetry_Int_Tables_number   1
_chemical_formula_structural   SrNdCoO4
_chemical_formula_sum   'Sr2 Nd2 Co2 O8'
_cell_volume   183.05239900
_cell_formula_units_Z   2
loop_
 _symmetry_equiv_pos_site_id
 _symmetry_equiv_pos_as_xyz
  1  'x, y, z'
loop_
 _atom_site_type_symbol
 _atom_site_label
 _atom_site_symmetry_multiplicity
 _atom_site_fract_x
 _atom_site_fract_y
 _atom_site_fract_z
 _atom_site_occupancy
  Sr  Sr0  1  0.60552900  0.39447100  0.25000000  1
  Sr  Sr1  1  0.39447100  0.60552900  0.75000000  1
  Nd  Nd0  1  0.11298900  0.88701100  0.75000000  1
  Nd  Nd1  1  0.88701100  0.11298900  0.25000000  1
  Co  Co0  1  0.25084700  0.74915300  0.25000000  1
  Co  Co1  1  0.74915300  0.25084700  0.75000000  1
  O  O0  1  0.92569500  0.07430500  0.75000000  1
  O  O1  1  0.41162600  0.58837400  0.25000000  1
  O  O2  1  0.07430500  0.92569500  0.25000000  1
  O  O3  1  0.58837400  0.41162600  0.75000000  1
  O  O4  1  0.00000000  0.50000000  0.50000000  1
  O  O5  1  0.50000000  0.00000000  0.00000000  1
  O  O6  1  0.00000000  0.50000000  0.00000000  1
  O  O7  1  0.50000000  0.00000000  0.50000000  1
loop_
_geom_bond_atom_site_label_1
_geom_bond_atom_site_label_2
_geom_bond_distance
_geom_bond_site_symmetry_2
Nd0 O0 2.343621 1_465
Nd0 O4 2.568365 1_555
Nd0 O6 2.568365 1_556
Nd0 O7 2.568365 1_565
Nd0 O5 2.568365 1_566
Nd0 O3 2.718500 1_455
Nd0 O3 2.718500 1_565
Nd0 O2 2.750980 1_555
Nd0 O2 2.750980 1_556
Nd1 O2 2.343621 1_645
Nd1 O7 2.568365 1_555
Nd1 O5 2.568365 1_555
Nd1 O4 2.568365 1_655
Nd1 O6 2.568365 1_655
Nd1 O1 2.718500 1_545
Nd1 O1 2.718500 1_655
Nd1 O0 2.750980 1_554
Nd1 O0 2.750980 1_555
Co0 O4 1.912420 1_555
Co0 O6 1.912420 1_555
Co0 O7 1.912420 1_565
Co0 O5 1.912420 1_565
Co0 O1 2.011837 1_555
Co0 O2 2.209081 1_555
Co1 O7 1.912420 1_555
Co1 O5 1.912420 1_556
Co1 O4 1.912420 1_655
Co1 O6 1.912420 1_656
Co1 O3 2.011837 1_555
Co1 O0 2.209081 1_555
O0 Sr1 2.729107 1_545
O0 Sr1 2.729107 1_655
O1 Sr0 2.426320 1_555
O1 Sr1 2.716554 1_554
O1 Sr1 2.716554 1_555
O2 Sr0 2.729107 1_565
O2 Sr0 2.729107 1_455
O3 Sr1 2.426320 1_555
O3 Sr0 2.716554 1_555
O3 Sr0 2.716554 1_556
O4 Sr1 2.631594 1_555
O4 Sr0 2.631594 1_455
O5 Sr0 2.631594 1_555
O5 Sr1 2.631594 1_544
O6 Sr1 2.631594 1_554
O6 Sr0 2.631594 1_455
O7 Sr0 2.631594 1_555
O7 Sr1 2.631594 1_545
