# generated using pymatgen
data_SmFeH8C6(N3O2)2
_symmetry_space_group_name_H-M   'P 1'
_cell_length_a   7.81472886
_cell_length_b   7.81472886
_cell_length_c   14.40207300
_cell_angle_alpha   90.00000000
_cell_angle_beta   90.00000000
_cell_angle_gamma   120.87276971
_symmetry_Int_Tables_number   1
_chemical_formula_structural   SmFeH8C6(N3O2)2
_chemical_formula_sum   'Sm2 Fe2 H16 C12 N12 O8'
_cell_volume   754.91219135
_cell_formula_units_Z   2
loop_
 _symmetry_equiv_pos_site_id
 _symmetry_equiv_pos_as_xyz
  1  'x, y, z'
loop_
 _atom_site_type_symbol
 _atom_site_label
 _atom_site_symmetry_multiplicity
 _atom_site_fract_x
 _atom_site_fract_y
 _atom_site_fract_z
 _atom_site_occupancy
  Sm  Sm0  1  0.32168800  0.67831200  0.25000000  1
  Sm  Sm1  1  0.67831200  0.32168800  0.75000000  1
  Fe  Fe0  1  0.00000000  0.00000000  0.00000000  1
  Fe  Fe1  1  0.00000000  0.00000000  0.50000000  1
  H  H0  1  0.51861400  0.13017700  0.19515400  1
  H  H1  1  0.13017700  0.51861400  0.80484600  1
  H  H2  1  0.51861400  0.13017700  0.30484600  1
  H  H3  1  0.13017700  0.51861400  0.69515400  1
  H  H4  1  0.48138600  0.86982300  0.80484600  1
  H  H5  1  0.86982300  0.48138600  0.19515400  1
  H  H6  1  0.48138600  0.86982300  0.69515400  1
  H  H7  1  0.86982300  0.48138600  0.30484600  1
  H  H8  1  0.59583200  0.40416800  0.07941900  1
  H  H9  1  0.40416800  0.59583200  0.92058100  1
  H  H10  1  0.59583200  0.40416800  0.42058100  1
  H  H11  1  0.40416800  0.59583200  0.57941900  1
  H  H12  1  0.70720500  0.29279500  0.05521200  1
  H  H13  1  0.29279500  0.70720500  0.94478800  1
  H  H14  1  0.70720500  0.29279500  0.44478800  1
  H  H15  1  0.29279500  0.70720500  0.55521200  1
  C  C0  1  0.14489300  0.85510700  0.06239100  1
  C  C1  1  0.85510700  0.14489300  0.93760900  1
  C  C2  1  0.14489300  0.85510700  0.43760900  1
  C  C3  1  0.85510700  0.14489300  0.56239100  1
  C  C4  1  0.24777400  0.14969400  0.90468800  1
  C  C5  1  0.14969400  0.24777400  0.09531200  1
  C  C6  1  0.24777400  0.14969400  0.59531200  1
  C  C7  1  0.14969400  0.24777400  0.40468800  1
  C  C8  1  0.75222600  0.85030600  0.09531200  1
  C  C9  1  0.85030600  0.75222600  0.90468800  1
  C  C10  1  0.75222600  0.85030600  0.40468800  1
  C  C11  1  0.85030600  0.75222600  0.59531200  1
  N  N0  1  0.21956200  0.78043800  0.10331800  1
  N  N1  1  0.78043800  0.21956200  0.89668200  1
  N  N2  1  0.21956200  0.78043800  0.39668200  1
  N  N3  1  0.78043800  0.21956200  0.60331800  1
  N  N4  1  0.61349300  0.77676700  0.14450700  1
  N  N5  1  0.77676700  0.61349300  0.85549300  1
  N  N6  1  0.61349300  0.77676700  0.35549300  1
  N  N7  1  0.77676700  0.61349300  0.64450700  1
  N  N8  1  0.38650700  0.22323300  0.85549300  1
  N  N9  1  0.22323300  0.38650700  0.14450700  1
  N  N10  1  0.38650700  0.22323300  0.64450700  1
  N  N11  1  0.22323300  0.38650700  0.35549300  1
  O  O0  1  0.47492800  0.04213000  0.25000000  1
  O  O1  1  0.04213000  0.47492800  0.75000000  1
  O  O2  1  0.52507200  0.95787000  0.75000000  1
  O  O3  1  0.95787000  0.52507200  0.25000000  1
  O  O4  1  0.66122000  0.33878000  0.10749400  1
  O  O5  1  0.33878000  0.66122000  0.89250600  1
  O  O6  1  0.66122000  0.33878000  0.39250600  1
  O  O7  1  0.33878000  0.66122000  0.60749400  1
loop_
_geom_bond_atom_site_label_1
_geom_bond_atom_site_label_2
_geom_bond_distance
_geom_bond_site_symmetry_2
H0 O0 0.986330 1_555
H1 O1 0.986330 1_555
H2 O0 0.986330 1_555
H3 O1 0.986330 1_555
H4 O2 0.986330 1_555
H5 O3 0.986330 1_555
H6 O2 0.986330 1_555
H7 O3 0.986330 1_555
H8 O4 0.976565 1_555
H9 O5 0.976565 1_555
H10 O6 0.976565 1_555
H11 O7 0.976565 1_555
H12 O4 0.978659 1_555
H13 O5 0.978659 1_555
H14 O6 0.978659 1_555
H15 O7 0.978659 1_555
C0 N0 1.173821 1_555
C0 Fe0 2.165039 1_565
C1 N1 1.173821 1_555
C1 Fe0 2.165039 1_656
C2 N2 1.173821 1_555
C2 Fe1 2.165039 1_565
C3 N3 1.173821 1_555
C3 Fe1 2.165039 1_655
C4 N8 1.169717 1_555
C4 Fe0 2.162720 1_556
C5 N9 1.169717 1_555
C5 Fe0 2.162720 1_555
C6 N10 1.169717 1_555
C6 Fe1 2.162720 1_555
C7 N11 1.169717 1_555
C7 Fe1 2.162720 1_555
C8 N4 1.169717 1_555
C8 Fe0 2.162720 1_665
C9 N5 1.169717 1_555
C9 Fe0 2.162720 1_666
C10 N6 1.169717 1_555
C10 Fe1 2.162720 1_665
C11 N7 1.169717 1_555
C11 Fe1 2.162720 1_665
N0 Sm0 2.527908 1_555
N1 Sm1 2.527908 1_555
N2 Sm0 2.527908 1_555
N3 Sm1 2.527908 1_555
N4 Sm0 2.509943 1_555
N5 Sm1 2.509943 1_555
N6 Sm0 2.509943 1_555
N7 Sm1 2.509943 1_555
N8 Sm1 2.509943 1_555
N9 Sm0 2.509943 1_555
N10 Sm1 2.509943 1_555
N11 Sm0 2.509943 1_555
O0 Sm0 2.454250 1_545
O1 Sm1 2.454250 1_455
O2 Sm1 2.454250 1_565
O3 Sm0 2.454250 1_655
