# generated using pymatgen
data_Sc(MnSn)6
_symmetry_space_group_name_H-M   'P 1'
_cell_length_a   5.60754423
_cell_length_b   5.60754926
_cell_length_c   9.09417216
_cell_angle_alpha   90.00000000
_cell_angle_beta   90.00000000
_cell_angle_gamma   119.99903658
_symmetry_Int_Tables_number   1
_chemical_formula_structural   Sc(MnSn)6
_chemical_formula_sum   'Sc1 Mn6 Sn6'
_cell_volume   247.65313173
_cell_formula_units_Z   1
loop_
 _symmetry_equiv_pos_site_id
 _symmetry_equiv_pos_as_xyz
  1  'x, y, z'
loop_
 _atom_site_type_symbol
 _atom_site_label
 _atom_site_symmetry_multiplicity
 _atom_site_fract_x
 _atom_site_fract_y
 _atom_site_fract_z
 _atom_site_occupancy
  Sc  Sc0  1  0.00000000  0.00000000  0.00000000  1
  Mn  Mn0  1  0.50000000  0.00000000  0.75331223  1
  Mn  Mn1  1  0.50000000  0.50000000  0.75331013  1
  Mn  Mn2  1  0.00000000  0.50000000  0.75331238  1
  Mn  Mn3  1  0.50000000  0.00000000  0.24668777  1
  Mn  Mn4  1  0.50000000  0.50000000  0.24668987  1
  Mn  Mn5  1  0.00000000  0.50000000  0.24668762  1
  Sn  Sn0  1  0.00000000  0.00000000  0.67120056  1
  Sn  Sn1  1  0.00000000  0.00000000  0.32879944  1
  Sn  Sn2  1  0.33334238  0.66665771  0.50000000  1
  Sn  Sn3  1  0.66665762  0.33334229  0.50000000  1
  Sn  Sn4  1  0.33334365  0.66665616  0.00000000  1
  Sn  Sn5  1  0.66665635  0.33334384  0.00000000  1
loop_
_geom_bond_atom_site_label_1
_geom_bond_atom_site_label_2
_geom_bond_distance
_geom_bond_site_symmetry_2
Sc0 Sn0 2.990159 1_554
Sc0 Sn1 2.990159 1_555
Sc0 Sn5 3.237499 1_555
Sc0 Sn4 3.237499 1_445
Sc0 Sn4 3.237500 1_555
Sc0 Sn5 3.237500 1_445
Sc0 Sn4 3.237604 1_545
Sc0 Sn5 3.237604 1_455
Mn0 Sn4 2.766503 1_546
Mn0 Sn5 2.766503 1_556
Mn0 Sn2 2.815572 1_545
Mn0 Sn3 2.815572 1_555
Mn0 Sn0 2.901509 1_555
Mn0 Sn0 2.901509 1_655
Mn1 Sn5 2.766415 1_556
Mn1 Sn4 2.766415 1_556
Mn1 Sn2 2.815468 1_555
Mn1 Sn3 2.815468 1_555
Mn1 Sn0 2.901545 1_555
Mn1 Sn0 2.901545 1_665
Mn2 Sn4 2.766500 1_556
Mn2 Sn5 2.766500 1_456
Mn2 Sn3 2.815573 1_455
Mn2 Sn2 2.815573 1_555
Mn2 Sn0 2.901512 1_565
Mn2 Sn0 2.901512 1_555
Mn3 Sn4 2.766503 1_545
Mn3 Sn5 2.766503 1_555
Mn3 Sn2 2.815572 1_545
Mn3 Sn3 2.815572 1_555
Mn3 Sn1 2.901509 1_555
Mn3 Sn1 2.901509 1_655
Mn4 Sn5 2.766415 1_555
Mn4 Sn4 2.766415 1_555
Mn4 Sn2 2.815468 1_555
Mn4 Sn3 2.815468 1_555
Mn4 Sn1 2.901545 1_555
Mn4 Sn1 2.901545 1_665
Mn5 Sn4 2.766500 1_555
Mn5 Sn5 2.766500 1_455
Mn5 Sn3 2.815573 1_455
Mn5 Sn2 2.815573 1_555
Mn5 Sn1 2.901512 1_555
Mn5 Sn1 2.901512 1_565
Sn0 Sn1 3.113855 1_555
