# generated using pymatgen
data_NaMnAsO4
_symmetry_space_group_name_H-M   'P 1'
_cell_length_a   5.24512800
_cell_length_b   6.47898800
_cell_length_c   10.93253300
_cell_angle_alpha   90.00000000
_cell_angle_beta   90.00000000
_cell_angle_gamma   90.00000000
_symmetry_Int_Tables_number   1
_chemical_formula_structural   NaMnAsO4
_chemical_formula_sum   'Na4 Mn4 As4 O16'
_cell_volume   371.52159583
_cell_formula_units_Z   4
loop_
 _symmetry_equiv_pos_site_id
 _symmetry_equiv_pos_as_xyz
  1  'x, y, z'
loop_
 _atom_site_type_symbol
 _atom_site_label
 _atom_site_symmetry_multiplicity
 _atom_site_fract_x
 _atom_site_fract_y
 _atom_site_fract_z
 _atom_site_occupancy
  Na  Na0  1  0.50000000  0.50000000  0.50000000  1
  Na  Na1  1  0.00000000  0.50000000  0.00000000  1
  Na  Na2  1  0.50000000  0.00000000  0.50000000  1
  Na  Na3  1  0.00000000  0.00000000  0.00000000  1
  Mn  Mn0  1  0.49392200  0.25000000  0.21867300  1
  Mn  Mn1  1  0.99392200  0.75000000  0.28132700  1
  Mn  Mn2  1  0.50607800  0.75000000  0.78132700  1
  Mn  Mn3  1  0.00607800  0.25000000  0.71867300  1
  As  As0  1  0.94515700  0.25000000  0.39522900  1
  As  As1  1  0.44515700  0.75000000  0.10477100  1
  As  As2  1  0.05484300  0.75000000  0.60477100  1
  As  As3  1  0.55484300  0.25000000  0.89522900  1
  O  O0  1  0.29778200  0.95699000  0.17785100  1
  O  O1  1  0.79778200  0.04301000  0.32214900  1
  O  O2  1  0.70221800  0.45699000  0.82214900  1
  O  O3  1  0.20221800  0.54301000  0.67785100  1
  O  O4  1  0.70221800  0.04301000  0.82214900  1
  O  O5  1  0.20221800  0.95699000  0.67785100  1
  O  O6  1  0.29778200  0.54301000  0.17785100  1
  O  O7  1  0.79778200  0.45699000  0.32214900  1
  O  O8  1  0.22843500  0.25000000  0.88776700  1
  O  O9  1  0.72843500  0.75000000  0.61223300  1
  O  O10  1  0.77156500  0.75000000  0.11223300  1
  O  O11  1  0.27156500  0.25000000  0.38776700  1
  O  O12  1  0.83266100  0.25000000  0.54422300  1
  O  O13  1  0.33266100  0.75000000  0.95577700  1
  O  O14  1  0.16733900  0.75000000  0.45577700  1
  O  O15  1  0.66733900  0.25000000  0.04422300  1
loop_
_geom_bond_atom_site_label_1
_geom_bond_atom_site_label_2
_geom_bond_distance
_geom_bond_site_symmetry_2
Na0 O11 2.358962 1_555
Na0 O9 2.358962 1_555
Na0 O14 2.429367 1_555
Na0 O12 2.429367 1_555
Na0 O3 2.509530 1_555
Na0 O7 2.509530 1_555
Na1 O10 2.358962 1_455
Na1 O8 2.358962 1_554
Na1 O15 2.429367 1_455
Na1 O13 2.429367 1_554
Na1 O2 2.509530 1_454
Na1 O6 2.509530 1_555
Na2 O11 2.358962 1_555
Na2 O9 2.358962 1_545
Na2 O14 2.429367 1_545
Na2 O12 2.429367 1_555
Na2 O5 2.509530 1_545
Na2 O1 2.509530 1_555
Na3 O10 2.358962 1_445
Na3 O8 2.358962 1_554
Na3 O15 2.429367 1_455
Na3 O13 2.429367 1_544
Na3 O4 2.509530 1_454
Na3 O0 2.509530 1_545
Mn0 O15 2.112983 1_555
Mn0 O11 2.185784 1_555
Mn0 O6 2.204884 1_555
Mn0 O0 2.204884 1_545
Mn0 O7 2.370316 1_555
Mn0 O1 2.370316 1_555
Mn1 O14 2.112983 1_655
Mn1 O10 2.185784 1_555
Mn1 O7 2.204884 1_555
Mn1 O1 2.204884 1_565
Mn1 O6 2.370316 1_655
Mn1 O0 2.370316 1_655
Mn2 O13 2.112983 1_555
Mn2 O9 2.185784 1_555
Mn2 O2 2.204884 1_555
Mn2 O4 2.204884 1_565
Mn2 O3 2.370316 1_555
Mn2 O5 2.370316 1_555
Mn3 O12 2.112983 1_455
Mn3 O8 2.185784 1_555
Mn3 O3 2.204884 1_555
Mn3 O5 2.204884 1_545
Mn3 O4 2.370316 1_455
Mn3 O2 2.370316 1_455
As0 O11 1.713994 1_655
As0 O12 1.732461 1_555
As0 O1 1.741942 1_555
As0 O7 1.741942 1_555
As1 O10 1.713994 1_555
As1 O13 1.732461 1_554
As1 O0 1.741942 1_555
As1 O6 1.741942 1_555
As2 O9 1.713994 1_455
As2 O14 1.732461 1_555
As2 O5 1.741942 1_555
As2 O3 1.741942 1_555
As3 O8 1.713994 1_555
As3 O15 1.732461 1_556
As3 O2 1.741942 1_555
As3 O4 1.741942 1_555
