# generated using pymatgen
data_LaSb2
_symmetry_space_group_name_H-M   'P 1'
_cell_length_a   4.45219522
_cell_length_b   4.45219522
_cell_length_c   18.86488857
_cell_angle_alpha   90.00000000
_cell_angle_beta   90.00000000
_cell_angle_gamma   91.31534135
_symmetry_Int_Tables_number   1
_chemical_formula_structural   LaSb2
_chemical_formula_sum   'La4 Sb8'
_cell_volume   373.84208563
_cell_formula_units_Z   4
loop_
 _symmetry_equiv_pos_site_id
 _symmetry_equiv_pos_as_xyz
  1  'x, y, z'
loop_
 _atom_site_type_symbol
 _atom_site_label
 _atom_site_symmetry_multiplicity
 _atom_site_fract_x
 _atom_site_fract_y
 _atom_site_fract_z
 _atom_site_occupancy
  La  La0  1  0.36476839  0.36476839  0.88917017  1
  La  La1  1  0.63523161  0.63523161  0.11082983  1
  La  La2  1  0.13523161  0.13523161  0.38917017  1
  La  La3  1  0.86476839  0.86476839  0.61082983  1
  Sb  Sb0  1  0.37102203  0.37102203  0.56148721  1
  Sb  Sb1  1  0.62897797  0.62897797  0.43851279  1
  Sb  Sb2  1  0.12897797  0.12897797  0.06148721  1
  Sb  Sb3  1  0.87102203  0.87102203  0.93851279  1
  Sb  Sb4  1  0.87834435  0.37834435  0.75000000  1
  Sb  Sb5  1  0.62165565  0.12165565  0.25000000  1
  Sb  Sb6  1  0.12165565  0.62165565  0.25000000  1
  Sb  Sb7  1  0.37834435  0.87834435  0.75000000  1
loop_
_geom_bond_atom_site_label_1
_geom_bond_atom_site_label_2
_geom_bond_distance
_geom_bond_site_symmetry_2
La0 Sb3 3.210805 1_445
La0 Sb3 3.285381 1_555
La0 Sb3 3.317606 1_545
La0 Sb3 3.317606 1_455
La0 Sb7 3.404791 1_545
La0 Sb4 3.404791 1_455
La0 Sb4 3.481157 1_555
La0 Sb7 3.481157 1_555
La0 Sb2 3.566626 1_556
La1 Sb2 3.210805 1_665
La1 Sb2 3.285381 1_555
La1 Sb2 3.317606 1_565
La1 Sb2 3.317606 1_655
La1 Sb5 3.404791 1_565
La1 Sb6 3.404791 1_655
La1 Sb5 3.481157 1_555
La1 Sb6 3.481157 1_555
La1 Sb3 3.566626 1_554
La2 Sb1 3.210805 1_555
La2 Sb1 3.285381 1_445
La2 Sb1 3.317606 1_545
La2 Sb1 3.317606 1_455
La2 Sb6 3.404791 1_555
La2 Sb5 3.404791 1_555
La2 Sb6 3.481157 1_545
La2 Sb5 3.481157 1_455
La2 Sb0 3.566626 1_555
La3 Sb0 3.210805 1_555
La3 Sb0 3.285381 1_665
La3 Sb0 3.317606 1_655
La3 Sb0 3.317606 1_565
La3 Sb4 3.404791 1_555
La3 Sb7 3.404791 1_555
La3 Sb4 3.481157 1_565
La3 Sb7 3.481157 1_655
La3 Sb1 3.566626 1_555
Sb0 Sb1 2.821231 1_555
Sb2 Sb3 2.821231 1_444
Sb4 Sb7 3.111834 1_655
Sb4 Sb7 3.111834 1_545
Sb4 Sb7 3.184106 1_645
Sb4 Sb7 3.184106 1_555
Sb5 Sb6 3.111834 1_545
Sb5 Sb6 3.111834 1_655
Sb5 Sb6 3.184106 1_555
Sb5 Sb6 3.184106 1_645
