# generated using pymatgen
data_NbTlV2O8
_symmetry_space_group_name_H-M   'P 1'
_cell_length_a   5.62139632
_cell_length_b   8.83070225
_cell_length_c   15.05576891
_cell_angle_alpha   90.00000000
_cell_angle_beta   90.00000000
_cell_angle_gamma   90.00000000
_symmetry_Int_Tables_number   1
_chemical_formula_structural   NbTlV2O8
_chemical_formula_sum   'Nb4 Tl4 V8 O32'
_cell_volume   747.38157458
_cell_formula_units_Z   4
loop_
 _symmetry_equiv_pos_site_id
 _symmetry_equiv_pos_as_xyz
  1  'x, y, z'
loop_
 _atom_site_type_symbol
 _atom_site_label
 _atom_site_symmetry_multiplicity
 _atom_site_fract_x
 _atom_site_fract_y
 _atom_site_fract_z
 _atom_site_occupancy
  Nb  Nb0  1  0.25000000  0.82449845  0.62311310  1
  Nb  Nb1  1  0.25000000  0.67550155  0.12311310  1
  Nb  Nb2  1  0.75000000  0.17550155  0.37688690  1
  Nb  Nb3  1  0.75000000  0.32449845  0.87688690  1
  Tl  Tl0  1  0.25000000  0.92919606  0.88093841  1
  Tl  Tl1  1  0.25000000  0.57080394  0.38093841  1
  Tl  Tl2  1  0.75000000  0.07080394  0.11906159  1
  Tl  Tl3  1  0.75000000  0.42919606  0.61906159  1
  V  V0  1  0.25000000  0.51996132  0.78478088  1
  V  V1  1  0.25000000  0.98003868  0.28478088  1
  V  V2  1  0.75000000  0.48003868  0.21521912  1
  V  V3  1  0.75000000  0.01996132  0.71521912  1
  V  V4  1  0.25000000  0.20927567  0.52502131  1
  V  V5  1  0.25000000  0.29072433  0.02502131  1
  V  V6  1  0.75000000  0.79072433  0.47497869  1
  V  V7  1  0.75000000  0.70927567  0.97497869  1
  O  O0  1  0.00618053  0.90834108  0.70863634  1
  O  O1  1  0.49381947  0.59165892  0.20863634  1
  O  O2  1  0.50618053  0.09165892  0.29136366  1
  O  O3  1  0.99381947  0.40834108  0.79136366  1
  O  O4  1  0.99381947  0.09165892  0.29136366  1
  O  O5  1  0.50618053  0.40834108  0.79136366  1
  O  O6  1  0.49381947  0.90834108  0.70863634  1
  O  O7  1  0.00618053  0.59165892  0.20863634  1
  O  O8  1  0.99952195  0.75224043  0.54171370  1
  O  O9  1  0.50047805  0.74775957  0.04171370  1
  O  O10  1  0.49952195  0.24775957  0.45828630  1
  O  O11  1  0.00047805  0.25224043  0.95828630  1
  O  O12  1  0.00047805  0.24775957  0.45828630  1
  O  O13  1  0.49952195  0.25224043  0.95828630  1
  O  O14  1  0.50047805  0.75224043  0.54171370  1
  O  O15  1  0.99952195  0.74775957  0.04171370  1
  O  O16  1  0.25000000  0.63132765  0.68814826  1
  O  O17  1  0.25000000  0.86867235  0.18814826  1
  O  O18  1  0.75000000  0.36867235  0.31185174  1
  O  O19  1  0.75000000  0.13132765  0.81185174  1
  O  O20  1  0.25000000  0.02459495  0.56249354  1
  O  O21  1  0.25000000  0.47540405  0.06249354  1
  O  O22  1  0.75000000  0.97540505  0.43750646  1
  O  O23  1  0.75000000  0.52459495  0.93750646  1
  O  O24  1  0.25000000  0.63568901  0.86926597  1
  O  O25  1  0.25000000  0.86431099  0.36926597  1
  O  O26  1  0.75000000  0.36431099  0.13073403  1
  O  O27  1  0.75000000  0.13568901  0.63073403  1
  O  O28  1  0.75000000  0.82936157  0.89241985  1
  O  O29  1  0.75000000  0.67063843  0.39241985  1
  O  O30  1  0.25000000  0.17063843  0.10758015  1
  O  O31  1  0.25000000  0.32936157  0.60758015  1
loop_
_geom_bond_atom_site_label_1
_geom_bond_atom_site_label_2
_geom_bond_distance
_geom_bond_site_symmetry_2
Nb0 O16 1.966879 1_555
Nb0 O14 1.972726 1_555
Nb0 O8 1.972726 1_455
Nb0 O20 1.988778 1_565
Nb0 O6 2.021063 1_555
Nb0 O0 2.021063 1_555
Nb1 O17 1.966879 1_555
Nb1 O15 1.972726 1_455
Nb1 O9 1.972726 1_555
Nb1 O21 1.988786 1_555
Nb1 O1 2.021063 1_555
Nb1 O7 2.021063 1_555
Nb2 O18 1.966879 1_555
Nb2 O12 1.972726 1_655
Nb2 O10 1.972726 1_555
Nb2 O22 1.988778 1_545
Nb2 O2 2.021063 1_555
Nb2 O4 2.021063 1_555
Nb3 O19 1.966879 1_555
Nb3 O11 1.972726 1_655
Nb3 O13 1.972726 1_555
Nb3 O23 1.988778 1_555
Nb3 O3 2.021063 1_555
Nb3 O5 2.021063 1_555
O0 V3 1.747931 1_465
O1 V2 1.747931 1_555
O2 V1 1.747931 1_545
O3 V0 1.747931 1_655
O4 V1 1.747931 1_645
O5 V0 1.747931 1_555
O6 V3 1.747931 1_565
O7 V2 1.747931 1_455
O8 V6 1.758541 1_555
O9 V7 1.758541 1_554
O10 V4 1.758541 1_555
O11 V5 1.758541 1_556
O12 V4 1.758541 1_555
O13 V5 1.758541 1_556
O14 V6 1.758541 1_555
O15 V7 1.758541 1_554
O16 V0 1.756084 1_555
O17 V1 1.756084 1_555
O18 V2 1.756084 1_555
O19 V3 1.756084 1_555
O20 V4 1.725687 1_555
O21 V5 1.725679 1_555
O22 V6 1.725687 1_555
O23 V7 1.725687 1_555
O24 V0 1.631671 1_555
O24 Tl0 2.597824 1_555
O25 V1 1.631671 1_555
O25 Tl1 2.597824 1_555
O26 V2 1.631671 1_555
O26 Tl2 2.597824 1_555
O27 V3 1.631671 1_555
O27 Tl3 2.597824 1_555
O28 V7 1.633877 1_555
O29 V6 1.633877 1_555
O30 V5 1.633877 1_555
O31 V4 1.633877 1_555
