# generated using pymatgen
data_BaPr2Sc2O7
_symmetry_space_group_name_H-M   'P 1'
_cell_length_a   5.86403400
_cell_length_b   5.86403400
_cell_length_c   20.63271700
_cell_angle_alpha   90.00000000
_cell_angle_beta   90.00000000
_cell_angle_gamma   90.00000000
_symmetry_Int_Tables_number   1
_chemical_formula_structural   BaPr2Sc2O7
_chemical_formula_sum   'Ba4 Pr8 Sc8 O28'
_cell_volume   709.49506795
_cell_formula_units_Z   4
loop_
 _symmetry_equiv_pos_site_id
 _symmetry_equiv_pos_as_xyz
  1  'x, y, z'
loop_
 _atom_site_type_symbol
 _atom_site_label
 _atom_site_symmetry_multiplicity
 _atom_site_fract_x
 _atom_site_fract_y
 _atom_site_fract_z
 _atom_site_occupancy
  Ba  Ba0  1  0.23852100  0.76147900  0.50000000  1
  Ba  Ba1  1  0.76147900  0.23852100  0.50000000  1
  Ba  Ba2  1  0.26147900  0.26147900  0.00000000  1
  Ba  Ba3  1  0.73852100  0.73852100  0.00000000  1
  Pr  Pr0  1  0.22589300  0.77410700  0.31575900  1
  Pr  Pr1  1  0.77410700  0.22589300  0.31575900  1
  Pr  Pr2  1  0.27410700  0.27410700  0.81575900  1
  Pr  Pr3  1  0.72589300  0.72589300  0.81575900  1
  Pr  Pr4  1  0.77410700  0.22589300  0.68424100  1
  Pr  Pr5  1  0.22589300  0.77410700  0.68424100  1
  Pr  Pr6  1  0.72589300  0.72589300  0.18424100  1
  Pr  Pr7  1  0.27410700  0.27410700  0.18424100  1
  Sc  Sc0  1  0.24264700  0.75735300  0.10108400  1
  Sc  Sc1  1  0.75735300  0.24264700  0.10108400  1
  Sc  Sc2  1  0.25735300  0.25735300  0.60108400  1
  Sc  Sc3  1  0.74264700  0.74264700  0.60108400  1
  Sc  Sc4  1  0.75735300  0.24264700  0.89891600  1
  Sc  Sc5  1  0.24264700  0.75735300  0.89891600  1
  Sc  Sc6  1  0.74264700  0.74264700  0.39891600  1
  Sc  Sc7  1  0.25735300  0.25735300  0.39891600  1
  O  O0  1  0.28320600  0.28320600  0.50000000  1
  O  O1  1  0.71679400  0.71679400  0.50000000  1
  O  O2  1  0.21679400  0.78320600  0.00000000  1
  O  O3  1  0.78320600  0.21679400  0.00000000  1
  O  O4  1  0.31242800  0.68757200  0.20909600  1
  O  O5  1  0.68757200  0.31242800  0.20909600  1
  O  O6  1  0.18757200  0.18757200  0.70909600  1
  O  O7  1  0.81242800  0.81242800  0.70909600  1
  O  O8  1  0.68757200  0.31242800  0.79090400  1
  O  O9  1  0.31242800  0.68757200  0.79090400  1
  O  O10  1  0.81242800  0.81242800  0.29090400  1
  O  O11  1  0.18757200  0.18757200  0.29090400  1
  O  O12  1  0.00000000  0.50000000  0.38676900  1
  O  O13  1  0.50000000  0.00000000  0.88676900  1
  O  O14  1  0.00000000  0.50000000  0.61323100  1
  O  O15  1  0.50000000  0.00000000  0.11323100  1
  O  O16  1  0.50000000  0.00000000  0.38676900  1
  O  O17  1  0.00000000  0.50000000  0.88676900  1
  O  O18  1  0.50000000  0.00000000  0.61323100  1
  O  O19  1  0.00000000  0.50000000  0.11323100  1
  O  O20  1  0.50000000  0.50000000  0.37166900  1
  O  O21  1  0.00000000  0.00000000  0.87166900  1
  O  O22  1  0.50000000  0.50000000  0.62833100  1
  O  O23  1  0.00000000  0.00000000  0.12833100  1
  O  O24  1  0.50000000  0.50000000  0.09369000  1
  O  O25  1  0.00000000  0.00000000  0.59369000  1
  O  O26  1  0.50000000  0.50000000  0.90631000  1
  O  O27  1  0.00000000  0.00000000  0.40631000  1
loop_
_geom_bond_atom_site_label_1
_geom_bond_atom_site_label_2
_geom_bond_distance
_geom_bond_site_symmetry_2
Ba0 O27 2.765772 1_565
Ba0 O25 2.765772 1_565
Ba0 O1 2.816823 1_555
Ba0 O0 2.816823 1_555
Ba0 O1 3.070626 1_455
Ba0 O0 3.070626 1_565
Ba0 O18 3.124988 1_565
Ba0 O14 3.124988 1_555
Ba0 O16 3.124988 1_565
Ba0 O12 3.124988 1_555
Ba1 O27 2.765772 1_655
Ba1 O25 2.765772 1_655
Ba1 O1 2.816823 1_555
Ba1 O0 2.816823 1_555
Ba1 O1 3.070626 1_545
Ba1 O0 3.070626 1_655
Ba1 O14 3.124988 1_655
Ba1 O18 3.124988 1_555
Ba1 O16 3.124988 1_555
Ba1 O12 3.124988 1_655
Ba2 O24 2.765772 1_555
Ba2 O26 2.765772 1_554
Ba2 O2 2.816823 1_545
Ba2 O3 2.816823 1_455
Ba2 O3 3.070626 1_555
Ba2 O2 3.070626 1_555
Ba2 O13 3.124988 1_554
Ba2 O17 3.124988 1_554
Ba2 O15 3.124988 1_555
Ba2 O19 3.124988 1_555
Ba3 O24 2.765772 1_555
Ba3 O26 2.765772 1_554
Ba3 O2 2.816823 1_655
Ba3 O3 2.816823 1_565
Ba3 O2 3.070626 1_555
Ba3 O3 3.070626 1_555
Ba3 O17 3.124988 1_654
Ba3 O13 3.124988 1_564
Ba3 O15 3.124988 1_565
Ba3 O19 3.124988 1_655
O0 Sc2 2.096628 1_555
O0 Sc7 2.096628 1_555
O1 Sc3 2.096628 1_555
O1 Sc6 2.096628 1_555
O2 Sc5 2.096628 1_554
O2 Sc0 2.096628 1_555
O3 Sc4 2.096628 1_554
O3 Sc1 2.096628 1_555
O4 Sc0 2.302490 1_555
O4 Pr0 2.314798 1_555
O4 Pr7 2.488381 1_555
O4 Pr6 2.488381 1_555
O5 Sc1 2.302490 1_555
O5 Pr1 2.314798 1_555
O5 Pr7 2.488381 1_555
O5 Pr6 2.488381 1_555
O6 Sc2 2.302490 1_555
O6 Pr2 2.314798 1_555
O6 Pr4 2.488381 1_455
O6 Pr5 2.488381 1_545
O7 Sc3 2.302490 1_555
O7 Pr3 2.314798 1_555
O7 Pr5 2.488381 1_655
O7 Pr4 2.488381 1_565
O8 Sc4 2.302490 1_555
O8 Pr4 2.314798 1_555
O8 Pr2 2.488381 1_555
O8 Pr3 2.488381 1_555
O9 Sc5 2.302490 1_555
O9 Pr5 2.314798 1_555
O9 Pr2 2.488381 1_555
O9 Pr3 2.488381 1_555
O10 Sc6 2.302490 1_555
O10 Pr6 2.314798 1_555
O10 Pr1 2.488381 1_565
O10 Pr0 2.488381 1_655
O11 Sc7 2.302490 1_555
O11 Pr7 2.314798 1_555
O11 Pr1 2.488381 1_455
O11 Pr0 2.488381 1_545
O12 Sc6 2.089233 1_455
O12 Sc7 2.089233 1_555
O12 Pr1 2.546553 1_455
O12 Pr0 2.546553 1_555
O13 Sc5 2.089233 1_545
O13 Sc4 2.089233 1_555
O13 Pr2 2.546553 1_555
O13 Pr3 2.546553 1_545
O14 Sc2 2.089233 1_555
O14 Sc3 2.089233 1_455
O14 Pr5 2.546553 1_555
O14 Pr4 2.546553 1_455
O15 Sc0 2.089233 1_545
O15 Sc1 2.089233 1_555
O15 Pr6 2.546553 1_545
O15 Pr7 2.546553 1_555
O16 Sc6 2.089233 1_545
O16 Sc7 2.089233 1_555
O16 Pr1 2.546553 1_555
O16 Pr0 2.546553 1_545
O17 Sc4 2.089233 1_455
O17 Sc5 2.089233 1_555
O17 Pr2 2.546553 1_555
O17 Pr3 2.546553 1_455
O18 Sc2 2.089233 1_555
O18 Sc3 2.089233 1_545
O18 Pr4 2.546553 1_555
O18 Pr5 2.546553 1_545
O19 Sc1 2.089233 1_455
O19 Sc0 2.089233 1_555
O19 Pr6 2.546553 1_455
O19 Pr7 2.546553 1_555
O20 Sc6 2.089325 1_555
O20 Sc7 2.089325 1_555
O20 Pr1 2.549123 1_555
O20 Pr0 2.549123 1_555
O21 Sc5 2.089325 1_545
O21 Sc4 2.089325 1_455
O21 Pr3 2.549123 1_445
O21 Pr2 2.549123 1_555
O22 Sc3 2.089325 1_555
O22 Sc2 2.089325 1_555
O22 Pr4 2.549123 1_555
O22 Pr5 2.549123 1_555
O23 Sc0 2.089325 1_545
O23 Sc1 2.089325 1_455
O23 Pr6 2.549123 1_445
O23 Pr7 2.549123 1_555
O24 Sc1 2.139673 1_555
O24 Sc0 2.139673 1_555
O24 Pr6 2.645744 1_555
O24 Pr7 2.645744 1_555
O25 Sc2 2.139673 1_555
O25 Sc3 2.139673 1_445
O25 Pr4 2.645744 1_455
O25 Pr5 2.645744 1_545
O26 Sc5 2.139673 1_555
O26 Sc4 2.139673 1_555
O26 Pr2 2.645744 1_555
O26 Pr3 2.645744 1_555
O27 Sc7 2.139673 1_555
O27 Sc6 2.139673 1_445
O27 Pr1 2.645744 1_455
O27 Pr0 2.645744 1_545
