# generated using pymatgen
data_Na2HoPWO8
_symmetry_space_group_name_H-M   'P 1'
_cell_length_a   11.52258438
_cell_length_b   11.52258438
_cell_length_c   11.52258438
_cell_angle_alpha   144.99071879
_cell_angle_beta   115.87793461
_cell_angle_gamma   75.19592942
_symmetry_Int_Tables_number   1
_chemical_formula_structural   Na2HoPWO8
_chemical_formula_sum   'Na8 Ho4 P4 W4 O32'
_cell_volume   774.11960986
_cell_formula_units_Z   4
loop_
 _symmetry_equiv_pos_site_id
 _symmetry_equiv_pos_as_xyz
  1  'x, y, z'
loop_
 _atom_site_type_symbol
 _atom_site_label
 _atom_site_symmetry_multiplicity
 _atom_site_fract_x
 _atom_site_fract_y
 _atom_site_fract_z
 _atom_site_occupancy
  Na  Na0  1  0.28724000  0.33631000  0.92962500  1
  Na  Na1  1  0.90668500  0.35761500  0.57037500  1
  Na  Na2  1  0.59331500  0.16369000  0.45093000  1
  Na  Na3  1  0.21276000  0.14238500  0.04907000  1
  Na  Na4  1  0.71276000  0.66369000  0.07037500  1
  Na  Na5  1  0.09331500  0.64238500  0.42962500  1
  Na  Na6  1  0.40668500  0.83631000  0.54907000  1
  Na  Na7  1  0.78724000  0.85761500  0.95093000  1
  Ho  Ho0  1  0.32267700  0.75000000  0.07267700  1
  Ho  Ho1  1  0.17732300  0.25000000  0.42732300  1
  Ho  Ho2  1  0.67732300  0.25000000  0.92732300  1
  Ho  Ho3  1  0.82267700  0.75000000  0.57267700  1
  P  P0  1  0.93040500  0.25000000  0.18040500  1
  P  P1  1  0.56959500  0.75000000  0.31959500  1
  P  P2  1  0.06959500  0.75000000  0.81959500  1
  P  P3  1  0.43040500  0.25000000  0.68040500  1
  W  W0  1  0.92764200  0.17764200  0.75000000  1
  W  W1  1  0.57235800  0.32235800  0.25000000  1
  W  W2  1  0.07235800  0.82235800  0.25000000  1
  W  W3  1  0.42764200  0.67764200  0.75000000  1
  O  O0  1  0.93850600  0.19733700  0.27131600  1
  O  O1  1  0.42602100  0.66719000  0.22868400  1
  O  O2  1  0.07397900  0.30266300  0.24116900  1
  O  O3  1  0.56149400  0.83281000  0.25883100  1
  O  O4  1  0.06149400  0.80266300  0.72868400  1
  O  O5  1  0.57397900  0.33281000  0.77131600  1
  O  O6  1  0.92602100  0.69733700  0.75883100  1
  O  O7  1  0.43850600  0.16719000  0.74116900  1
  O  O8  1  0.84274200  0.06708200  0.92627800  1
  O  O9  1  0.64080400  0.91646400  0.57372200  1
  O  O10  1  0.85919600  0.43291800  0.27566000  1
  O  O11  1  0.65725800  0.58353600  0.22434000  1
  O  O12  1  0.15725800  0.93291800  0.07372200  1
  O  O13  1  0.35919600  0.08353600  0.42627800  1
  O  O14  1  0.14080400  0.56708200  0.72434000  1
  O  O15  1  0.34274200  0.41646400  0.77566000  1
  O  O16  1  0.84404100  0.33167900  0.93547200  1
  O  O17  1  0.89620800  0.90856900  0.56452800  1
  O  O18  1  0.60379200  0.16832100  0.01236100  1
  O  O19  1  0.65595900  0.59143100  0.48763900  1
  O  O20  1  0.15595900  0.66832100  0.06452800  1
  O  O21  1  0.10379200  0.09143100  0.43547200  1
  O  O22  1  0.39620800  0.83167900  0.98763900  1
  O  O23  1  0.34404100  0.40856900  0.51236100  1
  O  O24  1  0.86294100  0.18828600  0.58558100  1
  O  O25  1  0.10270500  0.27736100  0.91441900  1
  O  O26  1  0.39729500  0.31171400  0.17465600  1
  O  O27  1  0.63705900  0.22263900  0.32534400  1
  O  O28  1  0.13705900  0.81171400  0.41441900  1
  O  O29  1  0.89729500  0.72263900  0.08558100  1
  O  O30  1  0.60270500  0.68828600  0.82534400  1
  O  O31  1  0.36294100  0.77736100  0.67465600  1
loop_
_geom_bond_atom_site_label_1
_geom_bond_atom_site_label_2
_geom_bond_distance
_geom_bond_site_symmetry_2
Na0 O25 2.287186 1_555
Na0 O1 2.398227 1_556
Na0 O7 2.487382 1_555
Na0 O26 2.767984 1_556
Na0 O15 2.895793 1_555
Na0 O20 2.948522 1_556
Na1 O24 2.287191 1_555
Na1 O0 2.398227 1_555
Na1 O6 2.487382 1_555
Na1 O27 2.767974 1_555
Na1 O14 2.895793 1_655
Na1 O21 2.948513 1_655
Na2 O27 2.287193 1_555
Na2 O3 2.398227 1_545
Na2 O5 2.487382 1_555
Na2 O24 2.767974 1_555
Na2 O13 2.895793 1_555
Na2 O22 2.948513 1_544
Na3 O26 2.287186 1_555
Na3 O2 2.398227 1_555
Na3 O4 2.487382 1_544
Na3 O25 2.767984 1_554
Na3 O12 2.895793 1_545
Na3 O23 2.948513 1_555
Na4 O29 2.287186 1_555
Na4 O5 2.398227 1_554
Na4 O3 2.487382 1_555
Na4 O30 2.767984 1_554
Na4 O11 2.895793 1_555
Na4 O16 2.948522 1_554
Na5 O28 2.287191 1_555
Na5 O4 2.398227 1_555
Na5 O2 2.487382 1_555
Na5 O31 2.767974 1_555
Na5 O10 2.895793 1_455
Na5 O17 2.948513 1_455
Na6 O31 2.287193 1_555
Na6 O7 2.398227 1_565
Na6 O1 2.487382 1_555
Na6 O28 2.767974 1_555
Na6 O9 2.895793 1_555
Na6 O18 2.948513 1_566
Na7 O30 2.287186 1_555
Na7 O6 2.398227 1_555
Na7 O0 2.487382 1_566
Na7 O29 2.767984 1_556
Na7 O8 2.895793 1_565
Na7 O19 2.948513 1_555
Ho0 O22 2.281799 1_554
Ho0 O20 2.281802 1_555
Ho0 O15 2.286256 1_554
Ho0 O13 2.286256 1_565
Ho0 O3 2.433194 1_555
Ho0 O1 2.433194 1_555
Ho0 O12 2.449695 1_555
Ho0 O14 2.449695 1_554
Ho1 O21 2.281809 1_555
Ho1 O23 2.281809 1_555
Ho1 O14 2.286256 1_555
Ho1 O12 2.286256 1_545
Ho1 O0 2.433194 1_455
Ho1 O2 2.433194 1_555
Ho1 O13 2.449695 1_555
Ho1 O15 2.449695 1_555
Ho2 O18 2.281799 1_556
Ho2 O16 2.281802 1_555
Ho2 O11 2.286256 1_556
Ho2 O9 2.286256 1_545
Ho2 O7 2.433194 1_555
Ho2 O5 2.433194 1_555
Ho2 O8 2.449695 1_555
Ho2 O10 2.449695 1_556
Ho3 O17 2.281809 1_555
Ho3 O19 2.281809 1_555
Ho3 O8 2.286256 1_565
Ho3 O10 2.286256 1_555
Ho3 O6 2.433194 1_555
Ho3 O4 2.433194 1_655
Ho3 O11 2.449695 1_555
Ho3 O9 2.449695 1_555
O0 P0 1.549591 1_555
O1 P1 1.549591 1_555
O2 P0 1.549591 1_455
O3 P1 1.549591 1_555
O4 P2 1.549591 1_555
O5 P3 1.549591 1_555
O6 P2 1.549591 1_655
O7 P3 1.549591 1_555
O8 P0 1.559832 1_556
O9 P1 1.559832 1_555
O10 P0 1.559832 1_555
O11 P1 1.559832 1_555
O12 P2 1.559832 1_554
O13 P3 1.559832 1_555
O14 P2 1.559832 1_555
O15 P3 1.559832 1_555
O16 W0 1.831702 1_555
O17 W0 1.831701 1_565
O18 W1 1.831705 1_555
O19 W1 1.831701 1_555
O20 W2 1.831702 1_555
O21 W2 1.831701 1_545
O22 W3 1.831705 1_555
O23 W3 1.831701 1_555
O24 W0 1.805848 1_555
O25 W0 1.805849 1_455
O26 W1 1.805849 1_555
O27 W1 1.805849 1_555
O28 W2 1.805848 1_555
O29 W2 1.805849 1_655
O30 W3 1.805849 1_555
O31 W3 1.805849 1_555
