# generated using pymatgen
data_SmAl4
_symmetry_space_group_name_H-M   'P 1'
_cell_length_a   6.45074238
_cell_length_b   6.45074238
_cell_length_c   6.45074238
_cell_angle_alpha   141.71116976
_cell_angle_beta   141.71116976
_cell_angle_gamma   55.26411277
_symmetry_Int_Tables_number   1
_chemical_formula_structural   SmAl4
_chemical_formula_sum   'Sm1 Al4'
_cell_volume   102.30846690
_cell_formula_units_Z   1
loop_
 _symmetry_equiv_pos_site_id
 _symmetry_equiv_pos_as_xyz
  1  'x, y, z'
loop_
 _atom_site_type_symbol
 _atom_site_label
 _atom_site_symmetry_multiplicity
 _atom_site_fract_x
 _atom_site_fract_y
 _atom_site_fract_z
 _atom_site_occupancy
  Sm  Sm0  1  0.00000000  0.00000000  0.00000000  1
  Al  Al0  1  0.38997800  0.38997800  0.00000000  1
  Al  Al1  1  0.25000000  0.75000000  0.50000000  1
  Al  Al2  1  0.75000000  0.25000000  0.50000000  1
  Al  Al3  1  0.61002200  0.61002200  0.00000000  1
loop_
_geom_bond_atom_site_label_1
_geom_bond_atom_site_label_2
_geom_bond_distance
_geom_bond_site_symmetry_2
Al0 Al3 2.515102 1_555
Al0 Al2 2.652409 1_454
Al0 Al1 2.652409 1_544
Al0 Al1 2.652409 1_555
Al0 Al2 2.652409 1_555
Al0 Sm0 3.245352 1_655
Al0 Sm0 3.245352 1_554
Al0 Sm0 3.245352 1_565
Al0 Sm0 3.245352 1_666
Al1 Al3 2.652409 1_455
Al1 Al3 2.652409 1_556
Al1 Sm0 3.555382 1_555
Al1 Sm0 3.555382 1_565
Al1 Sm0 3.555382 1_566
Al1 Sm0 3.555382 1_666
Al2 Al3 2.652409 1_545
Al2 Al3 2.652409 1_556
Al2 Sm0 3.555382 1_555
Al2 Sm0 3.555382 1_656
Al2 Sm0 3.555382 1_655
Al2 Sm0 3.555382 1_666
Al3 Sm0 3.245352 1_565
Al3 Sm0 3.245352 1_655
Al3 Sm0 3.245352 1_666
Al3 Sm0 3.245352 1_554
