# generated using pymatgen
data_Ba6MgSc2C2(O3F7)2
_symmetry_space_group_name_H-M   'P 1'
_cell_length_a   6.27482685
_cell_length_b   9.07964137
_cell_length_c   9.09698744
_cell_angle_alpha   98.97672492
_cell_angle_beta   90.00000000
_cell_angle_gamma   90.00000000
_symmetry_Int_Tables_number   1
_chemical_formula_structural   Ba6MgSc2C2(O3F7)2
_chemical_formula_sum   'Ba6 Mg1 Sc2 C2 O6 F14'
_cell_volume   511.93623408
_cell_formula_units_Z   1
loop_
 _symmetry_equiv_pos_site_id
 _symmetry_equiv_pos_as_xyz
  1  'x, y, z'
loop_
 _atom_site_type_symbol
 _atom_site_label
 _atom_site_symmetry_multiplicity
 _atom_site_fract_x
 _atom_site_fract_y
 _atom_site_fract_z
 _atom_site_occupancy
  Ba  Ba0  1  0.25000000  0.83948802  0.60018527  1
  Ba  Ba1  1  0.75000000  0.63308242  0.86589523  1
  Ba  Ba2  1  0.25000000  0.39890621  0.16036435  1
  Ba  Ba3  1  0.75000000  0.07471427  0.92666024  1
  Ba  Ba4  1  0.25000000  0.89173869  0.10839123  1
  Ba  Ba5  1  0.75000000  0.13485472  0.36849952  1
  Mg  Mg0  1  0.75000000  0.29458301  0.70625839  1
  Sc  Sc0  1  0.25000000  0.27610897  0.72335698  1
  Sc  Sc1  1  0.75000000  0.71792297  0.28154987  1
  C  C0  1  0.25000000  0.47309008  0.52543524  1
  C  C1  1  0.75000000  0.52514790  0.47591085  1
  O  O0  1  0.25000000  0.56701865  0.43224583  1
  O  O1  1  0.75000000  0.66882618  0.52112893  1
  O  O2  1  0.25000000  0.51777259  0.66974857  1
  O  O3  1  0.25000000  0.32845906  0.48014273  1
  O  O4  1  0.75000000  0.43012349  0.57156693  1
  O  O5  1  0.75000000  0.47876524  0.33272725  1
  F  F0  1  0.49099432  0.15240378  0.15333498  1
  F  F1  1  0.25000000  0.12892873  0.87559168  1
  F  F2  1  0.75000000  0.88243305  0.11635365  1
  F  F3  1  0.48989538  0.84821454  0.84761322  1
  F  F4  1  0.54205288  0.13854507  0.64285464  1
  F  F5  1  0.50733940  0.63371751  0.11600765  1
  F  F6  1  0.95840097  0.35877875  0.86127703  1
  F  F7  1  0.54159903  0.35877875  0.86127703  1
  F  F8  1  0.95794712  0.13854507  0.64285464  1
  F  F9  1  0.99293925  0.88378672  0.36504912  1
  F  F10  1  0.01010462  0.84821454  0.84761322  1
  F  F11  1  0.00900568  0.15240378  0.15333498  1
  F  F12  1  0.99266060  0.63371751  0.11600765  1
  F  F13  1  0.50706075  0.88378672  0.36504912  1
loop_
_geom_bond_atom_site_label_1
_geom_bond_atom_site_label_2
_geom_bond_distance
_geom_bond_site_symmetry_2
Ba0 O0 2.697191 1_555
Ba0 F10 2.698681 1_555
Ba0 F3 2.698681 1_555
Ba0 F9 2.758174 1_455
Ba0 F13 2.758174 1_555
Ba0 F8 3.248558 1_465
Ba0 F4 3.248558 1_565
Ba1 F3 2.570660 1_555
Ba1 F10 2.570660 1_655
Ba1 F12 2.737017 1_556
Ba1 F5 2.737017 1_556
Ba1 F7 2.807512 1_555
Ba1 F6 2.807512 1_555
Ba1 F2 2.950795 1_556
Ba1 O4 3.004187 1_555
Ba1 O1 3.203055 1_555
Ba2 F0 2.693603 1_555
Ba2 F11 2.693603 1_555
Ba2 O0 2.696107 1_555
Ba2 F12 2.753938 1_455
Ba2 F5 2.753938 1_555
Ba2 F7 3.251774 1_554
Ba2 F6 3.251774 1_454
Ba3 F0 2.633831 1_556
Ba3 F11 2.633831 1_656
Ba3 F10 2.636043 1_645
Ba3 F3 2.636043 1_545
Ba3 F2 2.639311 1_546
Ba3 F4 3.028364 1_555
Ba3 F8 3.028364 1_555
Ba3 F7 3.032298 1_555
Ba3 F6 3.032298 1_555
Ba4 F0 2.784496 1_565
Ba4 F11 2.784496 1_565
Ba4 F10 2.785197 1_554
Ba4 F3 2.785197 1_554
Ba4 F9 2.847978 1_455
Ba4 F13 2.847978 1_555
Ba4 F12 2.855054 1_455
Ba4 F5 2.855054 1_555
Ba4 F2 3.139691 1_455
Ba4 F2 3.139691 1_555
Ba4 F1 3.247499 1_564
Ba5 F0 2.568124 1_555
Ba5 F11 2.568124 1_655
Ba5 F13 2.738442 1_545
Ba5 F9 2.738442 1_545
Ba5 F4 2.811878 1_555
Ba5 F8 2.811878 1_555
Ba5 F2 2.978860 1_545
Ba5 O4 3.009057 1_555
Ba5 O5 3.189598 1_555
Mg0 O4 1.867195 1_555
C0 O0 1.292912 1_555
C0 O2 1.312201 1_555
C0 O3 1.313546 1_555
C1 O5 1.304907 1_555
C1 O1 1.305216 1_555
C1 O4 1.317541 1_555
O1 Sc1 2.291703 1_555
O2 Sc0 2.320852 1_555
O3 Sc0 2.334384 1_555
O5 Sc1 2.290741 1_555
F1 Sc0 2.069114 1_555
F2 Sc1 2.278154 1_555
F4 Mg0 1.946147 1_555
F4 Sc0 2.273607 1_555
F5 Sc1 2.193526 1_555
F6 Mg0 1.944719 1_555
F6 Sc0 2.278512 1_655
F7 Mg0 1.944719 1_555
F7 Sc0 2.278512 1_555
F8 Mg0 1.946147 1_555
F8 Sc0 2.273607 1_655
F9 Sc1 2.193578 1_555
F12 Sc1 2.193526 1_555
F13 Sc1 2.193578 1_555
