# generated using pymatgen
data_Li9Mn2Co5O16
_symmetry_space_group_name_H-M   'P 1'
_cell_length_a   5.11584600
_cell_length_b   7.66273235
_cell_length_c   7.82437903
_cell_angle_alpha   80.05062210
_cell_angle_beta   84.86084790
_cell_angle_gamma   71.12326160
_symmetry_Int_Tables_number   1
_chemical_formula_structural   Li9Mn2Co5O16
_chemical_formula_sum   'Li9 Mn2 Co5 O16'
_cell_volume   285.67806817
_cell_formula_units_Z   1
loop_
 _symmetry_equiv_pos_site_id
 _symmetry_equiv_pos_as_xyz
  1  'x, y, z'
loop_
 _atom_site_type_symbol
 _atom_site_label
 _atom_site_symmetry_multiplicity
 _atom_site_fract_x
 _atom_site_fract_y
 _atom_site_fract_z
 _atom_site_occupancy
  Li  Li0  1  0.50435300  0.93859800  0.19554400  1
  Li  Li1  1  0.50426300  0.18443800  0.43774100  1
  Li  Li2  1  0.49634000  0.81291400  0.55426300  1
  Li  Li3  1  0.49988700  0.06394800  0.81152500  1
  Li  Li4  1  0.49767900  0.68721400  0.93871200  1
  Li  Li5  1  0.49493300  0.56437800  0.31632300  1
  Li  Li6  1  0.50514000  0.43601600  0.68364700  1
  Li  Li7  1  0.50134800  0.31244800  0.06407900  1
  Li  Li8  1  0.00398200  0.87320900  0.37439400  1
  Mn  Mn0  1  0.99245500  0.00198600  0.00256500  1
  Mn  Mn1  1  0.00364600  0.62414800  0.13055100  1
  Co  Co0  1  0.01385900  0.23330300  0.25610900  1
  Co  Co1  1  0.00424700  0.49843600  0.49884400  1
  Co  Co2  1  0.99836500  0.75511700  0.73727200  1
  Co  Co3  1  0.99988900  0.12546500  0.62475200  1
  Co  Co4  1  0.98585100  0.38351500  0.87205900  1
  O  O0  1  0.77352700  0.84238900  0.97886100  1
  O  O1  1  0.77450700  0.09005900  0.20024000  1
  O  O2  1  0.78304700  0.69616900  0.33661200  1
  O  O3  1  0.77060800  0.97141400  0.60433500  1
  O  O4  1  0.75212600  0.59084100  0.72769000  1
  O  O5  1  0.78412500  0.46881200  0.09895800  1
  O  O6  1  0.78386000  0.33561000  0.47086000  1
  O  O7  1  0.76005300  0.21200000  0.85122700  1
  O  O8  1  0.25045600  0.04059400  0.39950600  1
  O  O9  1  0.21479100  0.28670500  0.65458300  1
  O  O10  1  0.21833400  0.92337900  0.78691300  1
  O  O11  1  0.21812800  0.15620800  0.02343000  1
  O  O12  1  0.22700600  0.78331800  0.14301200  1
  O  O13  1  0.22614700  0.64512200  0.54095200  1
  O  O14  1  0.21372200  0.54694900  0.91489000  1
  O  O15  1  0.24332500  0.41530300  0.26955500  1
loop_
_geom_bond_atom_site_label_1
_geom_bond_atom_site_label_2
_geom_bond_distance
_geom_bond_site_symmetry_2
Li0 O8 2.060963 1_565
Li0 O1 2.078512 1_565
Li0 O2 2.135790 1_555
Li0 O0 2.161236 1_554
Li0 O11 2.176137 1_565
Li0 O12 2.227961 1_555
Li1 O8 2.024841 1_555
Li1 O3 2.089019 1_545
Li1 O15 2.150692 1_555
Li1 O6 2.167319 1_555
Li1 O9 2.223551 1_555
Li1 O1 2.290162 1_555
Li2 O8 2.053087 1_565
Li2 O4 2.128080 1_555
Li2 O13 2.190138 1_555
Li2 O3 2.227765 1_555
Li2 O2 2.254264 1_555
Li2 O10 2.311397 1_555
Li3 O7 2.080367 1_555
Li3 O10 2.096977 1_545
Li3 O3 2.099648 1_545
Li3 O9 2.129413 1_555
Li3 O0 2.139791 1_545
Li3 O11 2.155014 1_556
Li4 O12 2.089361 1_556
Li4 O4 2.092910 1_555
Li4 O14 2.104349 1_555
Li4 O5 2.130135 1_556
Li4 O10 2.148445 1_555
Li4 O0 2.190504 1_555
Li5 O15 2.067830 1_555
Li5 O2 2.068347 1_555
Li5 O12 2.142686 1_555
Li5 O6 2.151962 1_555
Li5 O13 2.180600 1_555
Li5 O5 2.212728 1_555
Li6 O13 2.009632 1_555
Li6 O4 2.076551 1_555
Li6 O7 2.108700 1_555
Li6 O6 2.169001 1_555
Li6 O9 2.194811 1_555
Li6 O14 2.333903 1_555
Li7 O1 2.022445 1_555
Li7 O15 2.081551 1_555
Li7 O7 2.122893 1_554
Li7 O14 2.151440 1_554
Li7 O5 2.215442 1_555
Li7 O11 2.229447 1_555
Li8 O13 2.058579 1_555
Li8 O1 2.058645 1_465
Li8 O2 2.096641 1_455
Li8 O8 2.109889 1_565
Li8 O12 2.146206 1_555
Li8 O3 2.174925 1_455
Mn0 O1 1.911998 1_555
Mn0 O11 1.933744 1_655
Mn0 O12 1.937526 1_645
Mn0 O7 1.939376 1_554
Mn0 O0 1.945839 1_544
Mn0 O10 2.024050 1_644
Mn1 O15 1.901361 1_555
Mn1 O5 1.937911 1_455
Mn1 O2 1.938091 1_455
Mn1 O12 1.940539 1_555
Mn1 O0 1.970230 1_454
Mn1 O14 1.990223 1_554
Co0 O8 1.848980 1_555
Co0 O1 2.006655 1_455
Co0 O5 2.066316 1_455
Co0 O6 2.080040 1_455
Co0 O11 2.094483 1_555
Co0 O15 2.113356 1_555
Co1 O2 1.915954 1_455
Co1 O13 1.918666 1_555
Co1 O9 1.923160 1_555
Co1 O6 1.981094 1_455
Co1 O15 2.148953 1_555
Co1 O4 2.191933 1_455
Co2 O3 1.886367 1_555
Co2 O13 1.979662 1_655
Co2 O14 2.015137 1_655
Co2 O4 2.062211 1_555
Co2 O10 2.066361 1_655
Co2 O0 2.212013 1_555
Co3 O6 1.918629 1_555
Co3 O10 1.926657 1_645
Co3 O3 1.946668 1_545
Co3 O9 1.953024 1_655
Co3 O7 2.138993 1_555
Co3 O8 2.150376 1_655
Co4 O4 1.903232 1_555
Co4 O11 2.012124 1_656
Co4 O7 2.044106 1_555
Co4 O14 2.049235 1_655
Co4 O5 2.068902 1_556
Co4 O9 2.081951 1_655
