# generated using pymatgen
data_Sr3LaTa2(CoO6)2
_symmetry_space_group_name_H-M   'P 1'
_cell_length_a   5.71068900
_cell_length_b   5.71556626
_cell_length_c   15.94583610
_cell_angle_alpha   90.00656687
_cell_angle_beta   90.02866974
_cell_angle_gamma   90.01718202
_symmetry_Int_Tables_number   1
_chemical_formula_structural   Sr3LaTa2(CoO6)2
_chemical_formula_sum   'Sr6 La2 Ta4 Co4 O24'
_cell_volume   520.46914968
_cell_formula_units_Z   2
loop_
 _symmetry_equiv_pos_site_id
 _symmetry_equiv_pos_as_xyz
  1  'x, y, z'
loop_
 _atom_site_type_symbol
 _atom_site_label
 _atom_site_symmetry_multiplicity
 _atom_site_fract_x
 _atom_site_fract_y
 _atom_site_fract_z
 _atom_site_occupancy
  Sr  Sr0  1  0.50074800  0.00478900  0.37564500  1
  Sr  Sr1  1  0.49953700  0.00225500  0.87248900  1
  Sr  Sr2  1  0.99852700  0.50240100  0.86977300  1
  Sr  Sr3  1  0.99919200  0.50381200  0.12522700  1
  Sr  Sr4  1  0.99969200  0.49950200  0.37836400  1
  Sr  Sr5  1  0.49987400  0.99945400  0.62609900  1
  La  La0  1  0.99577500  0.49277600  0.62712900  1
  La  La1  1  0.50028600  0.01884000  0.12409300  1
  Ta  Ta0  1  0.99954300  0.00049700  0.99661600  1
  Ta  Ta1  1  0.00008500  0.99997300  0.24991800  1
  Ta  Ta2  1  0.99943900  0.99884500  0.50381200  1
  Ta  Ta3  1  0.50023900  0.50148600  0.74931100  1
  Co  Co0  1  0.99980400  0.00087800  0.75056200  1
  Co  Co1  1  0.49904300  0.50369100  0.00451500  1
  Co  Co2  1  0.49946200  0.50324100  0.25352000  1
  Co  Co3  1  0.49999900  0.49911900  0.49659000  1
  O  O0  1  0.74558000  0.23643400  0.24711600  1
  O  O1  1  0.49294800  0.50290500  0.36712100  1
  O  O2  1  0.23350900  0.25632000  0.50228100  1
  O  O3  1  0.24744600  0.75739100  0.50431900  1
  O  O4  1  0.98908600  0.01237900  0.62473200  1
  O  O5  1  0.24497600  0.73578200  0.74250700  1
  O  O6  1  0.74374300  0.74747200  0.74925200  1
  O  O7  1  0.25456400  0.25711100  0.74630900  1
  O  O8  1  0.00795700  0.99592000  0.87667400  1
  O  O9  1  0.75428400  0.26603600  0.75146500  1
  O  O10  1  0.74345600  0.23636200  0.00317800  1
  O  O11  1  0.49188100  0.50596300  0.87923200  1
  O  O12  1  0.24424900  0.24678100  0.00654100  1
  O  O13  1  0.75418300  0.75496800  0.00504300  1
  O  O14  1  0.25537500  0.76653000  0.00931800  1
  O  O15  1  0.50489000  0.48636600  0.12383500  1
  O  O16  1  0.99048100  0.00461700  0.12487300  1
  O  O17  1  0.25485800  0.76652100  0.24197800  1
  O  O18  1  0.75647000  0.75491000  0.24627700  1
  O  O19  1  0.24391000  0.24629600  0.24407800  1
  O  O20  1  0.00787500  0.99784300  0.37410000  1
  O  O21  1  0.75148100  0.24021700  0.49615900  1
  O  O22  1  0.76723300  0.74247500  0.50041300  1
  O  O23  1  0.51731100  0.49418900  0.62614000  1
loop_
_geom_bond_atom_site_label_1
_geom_bond_atom_site_label_2
_geom_bond_distance
_geom_bond_site_symmetry_2
La0 O5 2.708283 1_655
La0 O23 2.732411 1_555
La0 O9 2.741252 1_555
La0 O4 2.746256 1_555
La0 O7 2.758435 1_655
La0 O2 2.763357 1_655
La0 O22 2.796806 1_555
La0 O6 2.825999 1_555
La0 O3 2.861849 1_655
La0 O21 2.895983 1_555
La0 O4 2.970333 1_565
La0 O23 2.978388 1_655
La1 O15 2.672301 1_555
La1 O10 2.682131 1_555
La1 O12 2.710678 1_555
La1 O0 2.711621 1_555
La1 O14 2.716789 1_545
La1 O19 2.738172 1_555
La1 O17 2.753137 1_545
La1 O16 2.800577 1_555
La1 O13 2.825604 1_545
La1 O18 2.865493 1_545
La1 O16 2.912481 1_455
La1 O15 3.043514 1_545
Co0 O4 2.008451 1_555
Co0 O8 2.011680 1_645
Co0 O6 2.057948 1_545
Co0 O9 2.064988 1_555
Co0 O7 2.065153 1_655
Co0 O5 2.067351 1_645
Co1 O15 1.905520 1_555
Co1 O11 1.998184 1_554
Co1 O13 2.045572 1_555
Co1 O14 2.049471 1_555
Co1 O12 2.067159 1_555
Co1 O10 2.069906 1_555
Co2 O1 1.811865 1_555
Co2 O18 2.058030 1_555
Co2 O17 2.061688 1_555
Co2 O15 2.070421 1_555
Co2 O19 2.075486 1_555
Co2 O0 2.076714 1_555
Co3 O2 2.061296 1_555
Co3 O21 2.062411 1_555
Co3 O1 2.064980 1_555
Co3 O22 2.065414 1_555
Co3 O3 2.067794 1_555
Co3 O23 2.068294 1_555
O0 Ta1 1.985464 1_645
O0 Sr0 2.812582 1_555
O0 Sr3 2.865808 1_555
O0 Sr4 2.956620 1_555
O1 Sr4 2.822682 1_455
O1 Sr0 2.850634 1_555
O1 Sr0 2.872085 1_565
O1 Sr4 2.899387 1_555
O2 Ta2 1.987933 1_445
O2 Sr4 2.760130 1_455
O2 Sr5 2.892478 1_545
O2 Sr0 2.911568 1_555
O3 Ta2 1.977786 1_455
O3 Sr5 2.785404 1_555
O3 Sr4 2.864182 1_455
O3 Sr0 2.881709 1_565
O4 Ta2 1.930648 1_545
O4 Sr5 2.794788 1_545
O4 Sr5 2.917979 1_645
O5 Ta3 1.982692 1_555
O5 Sr5 2.799579 1_555
O5 Sr2 2.807263 1_455
O5 Sr1 2.953619 1_565
O6 Ta3 1.977176 1_555
O6 Sr2 2.787724 1_555
O6 Sr5 2.805222 1_555
O6 Sr1 2.816107 1_565
O7 Ta3 1.979963 1_555
O7 Sr5 2.794422 1_545
O7 Sr2 2.825385 1_455
O7 Sr1 2.850671 1_555
O8 Ta0 1.913379 1_465
O8 Sr1 2.808310 1_565
O8 Sr2 2.823370 1_455
O8 Sr2 2.897445 1_465
O8 Sr1 2.904399 1_465
O9 Ta3 1.979404 1_555
O9 Sr2 2.706503 1_555
O9 Sr1 2.848828 1_555
O9 Sr5 2.902358 1_545
O10 Ta0 1.992070 1_554
O10 Sr1 2.840573 1_554
O10 Sr3 2.872678 1_555
O10 Sr2 2.993595 1_554
O11 Ta3 2.072428 1_555
O11 Sr2 2.821418 1_455
O11 Sr1 2.838964 1_565
O11 Sr1 2.881317 1_555
O11 Sr2 2.897379 1_555
O12 Ta0 1.989452 1_454
O12 Sr3 2.775179 1_455
O12 Sr1 2.941352 1_554
O12 Sr2 2.976371 1_454
O13 Ta0 1.987399 1_564
O13 Sr3 2.773122 1_555
O13 Sr1 2.928971 1_564
O13 Sr2 2.947383 1_554
O14 Ta0 1.991146 1_464
O14 Sr3 2.795206 1_455
O14 Sr1 2.919325 1_564
O14 Sr2 3.062100 1_454
O15 Sr3 2.824612 1_555
O15 Sr3 2.889731 1_455
O16 Ta1 1.994854 1_645
O16 Ta0 2.045979 1_554
O16 Sr3 2.853606 1_555
O16 Sr3 2.862837 1_545
O17 Ta1 1.978521 1_555
O17 Sr3 2.801339 1_455
O17 Sr0 2.892158 1_565
O17 Sr4 3.030650 1_455
O18 Ta1 1.974703 1_655
O18 Sr3 2.776703 1_555
O18 Sr0 2.903695 1_565
O18 Sr4 2.914700 1_555
O19 Ta1 1.982062 1_545
O19 Sr3 2.776742 1_455
O19 Sr0 2.908060 1_555
O19 Sr4 2.937372 1_455
O20 Ta1 1.980702 1_555
O20 Ta2 2.068959 1_455
O20 Sr0 2.815008 1_565
O20 Sr4 2.849490 1_455
O20 Sr4 2.868459 1_465
O20 Sr0 2.896446 1_465
O21 Ta2 1.980972 1_545
O21 Sr0 2.747596 1_555
O21 Sr4 2.781293 1_555
O21 Sr5 2.872946 1_545
O22 Ta2 1.976667 1_555
O22 Sr4 2.735231 1_555
O22 Sr5 2.916997 1_555
O22 Sr0 2.919073 1_565
O23 Ta3 1.966970 1_555
O23 Sr5 2.829414 1_545
O23 Sr5 2.889622 1_555
