# generated using pymatgen
data_Y2(Al3Rh)3
_symmetry_space_group_name_H-M   'P 1'
_cell_length_a   7.50228374
_cell_length_b   7.50228374
_cell_length_c   9.43391373
_cell_angle_alpha   90.00000000
_cell_angle_beta   90.00000000
_cell_angle_gamma   119.33189739
_symmetry_Int_Tables_number   1
_chemical_formula_structural   Y2(Al3Rh)3
_chemical_formula_sum   'Y4 Al18 Rh6'
_cell_volume   462.90736183
_cell_formula_units_Z   2
loop_
 _symmetry_equiv_pos_site_id
 _symmetry_equiv_pos_as_xyz
  1  'x, y, z'
loop_
 _atom_site_type_symbol
 _atom_site_label
 _atom_site_symmetry_multiplicity
 _atom_site_fract_x
 _atom_site_fract_y
 _atom_site_fract_z
 _atom_site_occupancy
  Y  Y0  1  0.99422229  0.67211772  0.25000000  1
  Y  Y1  1  0.00577771  0.32788228  0.75000000  1
  Y  Y2  1  0.67211772  0.99422229  0.25000000  1
  Y  Y3  1  0.32788228  0.00577771  0.75000000  1
  Al  Al0  1  0.13024745  0.13024745  0.25000000  1
  Al  Al1  1  0.86975255  0.86975255  0.75000000  1
  Al  Al2  1  0.00152237  0.33568778  0.07407162  1
  Al  Al3  1  0.99847763  0.66431222  0.92592838  1
  Al  Al4  1  0.99847763  0.66431222  0.57407162  1
  Al  Al5  1  0.33568778  0.00152237  0.42592838  1
  Al  Al6  1  0.00152237  0.33568778  0.42592838  1
  Al  Al7  1  0.66431222  0.99847763  0.57407162  1
  Al  Al8  1  0.66431222  0.99847763  0.92592838  1
  Al  Al9  1  0.33568778  0.00152237  0.07407162  1
  Al  Al10  1  0.33341277  0.33341277  0.54663254  1
  Al  Al11  1  0.66658723  0.66658723  0.45336746  1
  Al  Al12  1  0.66658723  0.66658723  0.04663254  1
  Al  Al13  1  0.33341277  0.33341277  0.95336746  1
  Al  Al14  1  0.34011003  0.54928438  0.25000000  1
  Al  Al15  1  0.65988997  0.45071562  0.75000000  1
  Al  Al16  1  0.54928438  0.34011003  0.25000000  1
  Al  Al17  1  0.45071562  0.65988997  0.75000000  1
  Rh  Rh0  1  0.67208455  0.32791545  0.00000000  1
  Rh  Rh1  1  0.32791545  0.67208455  0.00000000  1
  Rh  Rh2  1  0.32791545  0.67208455  0.50000000  1
  Rh  Rh3  1  0.67208455  0.32791545  0.50000000  1
  Rh  Rh4  1  0.00000000  0.00000000  0.00000000  1
  Rh  Rh5  1  0.00000000  0.00000000  0.50000000  1
loop_
_geom_bond_atom_site_label_1
_geom_bond_atom_site_label_2
_geom_bond_distance
_geom_bond_site_symmetry_2
Al0 Rh5 2.556677 1_555
Al0 Rh4 2.556677 1_555
Al0 Y2 3.068896 1_445
Al0 Y0 3.068896 1_445
Al1 Rh5 2.556677 1_665
Al1 Rh4 2.556677 1_666
Al1 Y3 3.068896 1_665
Al1 Y1 3.068896 1_665
Al2 Rh0 2.541455 1_455
Al2 Rh1 2.607497 1_555
Al2 Rh4 2.608201 1_555
Al2 Y2 3.036763 1_445
Al2 Y0 3.043608 1_455
Al2 Y1 3.058291 1_554
Al3 Rh1 2.541455 1_656
Al3 Rh0 2.607497 1_556
Al3 Rh4 2.608201 1_666
Al3 Y3 3.036763 1_665
Al3 Y1 3.043608 1_655
Al3 Y0 3.058291 1_556
Al4 Rh2 2.541455 1_655
Al4 Rh3 2.607497 1_555
Al4 Rh5 2.608201 1_665
Al4 Y3 3.036763 1_665
Al4 Y1 3.043608 1_655
Al4 Y0 3.058291 1_555
Al5 Rh2 2.541455 1_545
Al5 Rh3 2.607497 1_555
Al5 Rh5 2.608201 1_555
Al5 Y0 3.036763 1_445
Al5 Y2 3.043608 1_545
Al5 Y3 3.058291 1_555
Al6 Rh3 2.541455 1_455
Al6 Rh2 2.607497 1_555
Al6 Rh5 2.608201 1_555
Al6 Y2 3.036763 1_445
Al6 Y0 3.043608 1_455
Al6 Y1 3.058291 1_555
Al7 Rh3 2.541455 1_565
Al7 Rh2 2.607497 1_555
Al7 Rh5 2.608201 1_665
Al7 Y1 3.036763 1_665
Al7 Y3 3.043608 1_565
Al7 Y2 3.058291 1_555
Al8 Rh0 2.541455 1_566
Al8 Rh1 2.607497 1_556
Al8 Rh4 2.608201 1_666
Al8 Y1 3.036763 1_665
Al8 Y3 3.043608 1_565
Al8 Y2 3.058291 1_556
Al9 Rh1 2.541455 1_545
Al9 Rh0 2.607497 1_555
Al9 Rh4 2.608201 1_555
Al9 Y0 3.036763 1_445
Al9 Y2 3.043608 1_545
Al9 Y3 3.058291 1_554
Al10 Rh5 2.564588 1_555
Al10 Rh2 2.598774 1_555
Al10 Rh3 2.598774 1_555
Al10 Y1 3.102331 1_555
Al10 Y3 3.102331 1_555
Al11 Rh5 2.564588 1_665
Al11 Rh2 2.598774 1_555
Al11 Rh3 2.598774 1_555
Al11 Y2 3.102331 1_555
Al11 Y0 3.102331 1_555
Al12 Rh4 2.564588 1_665
Al12 Rh0 2.598774 1_555
Al12 Rh1 2.598774 1_555
Al12 Y2 3.102331 1_555
Al12 Y0 3.102331 1_555
Al13 Rh4 2.564588 1_556
Al13 Rh0 2.598774 1_556
Al13 Rh1 2.598774 1_556
Al13 Y1 3.102331 1_555
Al13 Y3 3.102331 1_555
Al14 Rh2 2.549927 1_555
Al14 Rh1 2.549927 1_555
Al14 Y2 3.033276 1_555
Al14 Y0 3.150530 1_455
Al15 Rh0 2.549927 1_556
Al15 Rh3 2.549927 1_555
Al15 Y3 3.033276 1_555
Al15 Y1 3.150530 1_655
Al16 Rh0 2.549927 1_555
Al16 Rh3 2.549927 1_555
Al16 Y0 3.033276 1_555
Al16 Y2 3.150530 1_545
Al17 Rh2 2.549927 1_555
Al17 Rh1 2.549927 1_556
Al17 Y1 3.033276 1_555
Al17 Y3 3.150530 1_565
Rh0 Y1 3.439527 1_654
Rh0 Y2 3.439527 1_545
Rh0 Y0 3.457906 1_555
Rh0 Y3 3.457906 1_554
Rh1 Y3 3.439527 1_564
Rh1 Y0 3.439527 1_455
Rh1 Y1 3.457906 1_554
Rh1 Y2 3.457906 1_555
Rh2 Y3 3.439527 1_565
Rh2 Y0 3.439527 1_455
Rh2 Y1 3.457906 1_555
Rh2 Y2 3.457906 1_555
Rh3 Y1 3.439527 1_655
Rh3 Y2 3.439527 1_545
Rh3 Y0 3.457906 1_555
Rh3 Y3 3.457906 1_555
Rh4 Y2 3.392753 1_445
Rh4 Y0 3.392753 1_445
Rh4 Y3 3.392753 1_554
Rh4 Y1 3.392753 1_554
Rh5 Y2 3.392753 1_445
Rh5 Y0 3.392753 1_445
Rh5 Y1 3.392753 1_555
Rh5 Y3 3.392753 1_555
