# generated using pymatgen
data_V2C12(NF3)3
_symmetry_space_group_name_H-M   'P 1'
_cell_length_a   17.29855300
_cell_length_b   7.51871900
_cell_length_c   7.72362638
_cell_angle_alpha   61.38575423
_cell_angle_beta   90.00000000
_cell_angle_gamma   90.00000000
_symmetry_Int_Tables_number   1
_chemical_formula_structural   V2C12(NF3)3
_chemical_formula_sum   'V4 C24 N6 F18'
_cell_volume   881.86497124
_cell_formula_units_Z   2
loop_
 _symmetry_equiv_pos_site_id
 _symmetry_equiv_pos_as_xyz
  1  'x, y, z'
loop_
 _atom_site_type_symbol
 _atom_site_label
 _atom_site_symmetry_multiplicity
 _atom_site_fract_x
 _atom_site_fract_y
 _atom_site_fract_z
 _atom_site_occupancy
  V  V0  1  0.66629900  0.33001200  0.33585200  1
  V  V1  1  0.16629900  0.66998800  0.66414800  1
  V  V2  1  0.33370400  0.67094800  0.66519800  1
  V  V3  1  0.83370400  0.32905200  0.33480200  1
  C  C0  1  0.63024600  0.66943600  0.65738200  1
  C  C1  1  0.13024600  0.33056400  0.34261800  1
  C  C2  1  0.36818000  0.33601400  0.33388200  1
  C  C3  1  0.86818000  0.66398600  0.66611800  1
  C  C4  1  0.58727900  0.79618500  0.47909100  1
  C  C5  1  0.57863700  0.48555100  0.75299200  1
  C  C6  1  0.57878700  0.70345800  0.79800800  1
  C  C7  1  0.08727900  0.20381500  0.52090900  1
  C  C8  1  0.07863700  0.51444900  0.24700800  1
  C  C9  1  0.07878700  0.29654200  0.20199200  1
  C  C10  1  0.41143600  0.20671300  0.51550800  1
  C  C11  1  0.42001600  0.51868500  0.25518300  1
  C  C12  1  0.42075300  0.28161000  0.20901300  1
  C  C13  1  0.91143600  0.79328700  0.48449200  1
  C  C14  1  0.92001600  0.48131500  0.74481700  1
  C  C15  1  0.92075300  0.71839000  0.79098700  1
  C  C16  1  0.68573400  0.99919800  0.00328500  1
  C  C17  1  0.18573400  0.00080200  0.99671500  1
  C  C18  1  0.73282700  0.88757500  0.18203500  1
  C  C19  1  0.73582100  0.18316500  0.91604100  1
  C  C20  1  0.73649500  0.92873400  0.88930600  1
  C  C21  1  0.23282700  0.11242500  0.81796500  1
  C  C22  1  0.23582100  0.81683500  0.08395900  1
  C  C23  1  0.23649500  0.07126600  0.11069400  1
  N  N0  1  0.03246800  0.31808100  0.36117800  1
  N  N1  1  0.53246800  0.68191900  0.63882200  1
  N  N2  1  0.96706800  0.67582300  0.64411200  1
  N  N3  1  0.46706800  0.32417700  0.35588800  1
  N  N4  1  0.28635900  0.00538300  0.98727000  1
  N  N5  1  0.78635900  0.99461700  0.01273000  1
  F  F0  1  0.61215500  0.56143300  0.26693800  1
  F  F1  1  0.61966700  0.26552600  0.16873600  1
  F  F2  1  0.61994200  0.18367300  0.56867400  1
  F  F3  1  0.11215500  0.43856700  0.73306200  1
  F  F4  1  0.11966700  0.73447400  0.83126400  1
  F  F5  1  0.11994200  0.81632700  0.43132600  1
  F  F6  1  0.38632400  0.43815000  0.73263200  1
  F  F7  1  0.38034400  0.73509400  0.83309000  1
  F  F8  1  0.37923700  0.82042200  0.43184000  1
  F  F9  1  0.88632400  0.56185000  0.26736800  1
  F  F10  1  0.88034400  0.26490600  0.16691000  1
  F  F11  1  0.87923700  0.17957800  0.56816000  1
  F  F12  1  0.75022100  0.47566200  0.13286000  1
  F  F13  1  0.74962600  0.11384700  0.39629200  1
  F  F14  1  0.74987500  0.40116700  0.47281300  1
  F  F15  1  0.25022100  0.52433800  0.86714000  1
  F  F16  1  0.24962600  0.88615300  0.60370800  1
  F  F17  1  0.24987500  0.59883300  0.52718700  1
loop_
_geom_bond_atom_site_label_1
_geom_bond_atom_site_label_2
_geom_bond_distance
_geom_bond_site_symmetry_2
C0 C4 1.449119 1_555
C0 C5 1.508627 1_555
C0 C6 1.517780 1_555
C0 N1 1.696280 1_555
C1 C7 1.449119 1_555
C1 C8 1.508627 1_555
C1 C9 1.517780 1_555
C1 N0 1.696280 1_555
C2 N3 1.717131 1_555
C3 N2 1.717131 1_555
C4 N1 1.464211 1_555
C5 N1 1.532411 1_555
C6 N1 1.539674 1_555
C7 N0 1.464211 1_555
C8 N0 1.532411 1_555
C9 N0 1.539674 1_555
C10 C2 1.471956 1_555
C10 N3 1.477545 1_555
C11 C2 1.503417 1_555
C11 N3 1.522073 1_555
C12 C2 1.517368 1_555
C12 N3 1.542387 1_555
C13 C3 1.471956 1_555
C13 N2 1.477545 1_555
C14 C3 1.503417 1_555
C14 N2 1.522073 1_555
C15 C3 1.517368 1_555
C15 N2 1.542387 1_555
C16 C18 1.471136 1_555
C16 C19 1.491730 1_564
C16 C20 1.507794 1_554
C16 N5 1.741845 1_555
C17 C21 1.471136 1_555
C17 C22 1.491730 1_546
C17 C23 1.507794 1_556
C17 N4 1.741845 1_555
C18 N5 1.485656 1_555
C19 N5 1.522386 1_546
C20 N5 1.533119 1_556
C21 N4 1.485656 1_555
C22 N4 1.522386 1_564
C23 N4 1.533119 1_554
F0 V0 1.816877 1_555
F1 V0 1.775170 1_555
F2 V0 1.786674 1_555
F3 V1 1.816877 1_555
F4 V1 1.775170 1_555
F5 V1 1.786674 1_555
F6 V2 1.813928 1_555
F7 V2 1.778790 1_555
F8 V2 1.786568 1_555
F9 V3 1.813928 1_555
F10 V3 1.778790 1_555
F11 V3 1.786568 1_555
F12 V3 2.021529 1_555
F12 V0 2.029865 1_555
F13 V0 2.051950 1_555
F13 V3 2.054995 1_555
F14 V0 2.009347 1_555
F14 V3 2.021552 1_555
F15 V2 2.021529 1_555
F15 V1 2.029865 1_555
F16 V1 2.051950 1_555
F16 V2 2.054995 1_555
F17 V1 2.009347 1_555
F17 V2 2.021552 1_555
