# generated using pymatgen
data_YbZnSn
_symmetry_space_group_name_H-M   'P 1'
_cell_length_a   4.66192347
_cell_length_b   4.66192347
_cell_length_c   7.45599500
_cell_angle_alpha   90.00000000
_cell_angle_beta   90.00000000
_cell_angle_gamma   119.99999245
_symmetry_Int_Tables_number   1
_chemical_formula_structural   YbZnSn
_chemical_formula_sum   'Yb2 Zn2 Sn2'
_cell_volume   140.33517877
_cell_formula_units_Z   2
loop_
 _symmetry_equiv_pos_site_id
 _symmetry_equiv_pos_as_xyz
  1  'x, y, z'
loop_
 _atom_site_type_symbol
 _atom_site_label
 _atom_site_symmetry_multiplicity
 _atom_site_fract_x
 _atom_site_fract_y
 _atom_site_fract_z
 _atom_site_occupancy
  Yb  Yb0  1  0.00000000  0.00000000  0.74816900  1
  Yb  Yb1  1  0.00000000  0.00000000  0.24816900  1
  Zn  Zn0  1  0.66666700  0.33333300  0.43389400  1
  Zn  Zn1  1  0.33333300  0.66666700  0.93389400  1
  Sn  Sn0  1  0.66666700  0.33333300  0.02823700  1
  Sn  Sn1  1  0.33333300  0.66666700  0.52823700  1
loop_
_geom_bond_atom_site_label_1
_geom_bond_atom_site_label_2
_geom_bond_distance
_geom_bond_site_symmetry_2
Yb0 Zn1 3.026891 1_545
Yb0 Zn1 3.026895 1_555
Yb0 Zn1 3.026895 1_445
Yb0 Zn0 3.568646 1_455
Yb0 Zn0 3.568649 1_555
Yb0 Zn0 3.568649 1_445
Yb1 Zn0 3.026891 1_455
Yb1 Zn0 3.026895 1_445
Yb1 Zn0 3.026895 1_555
Yb1 Zn1 3.568646 1_544
Yb1 Zn1 3.568649 1_444
Yb1 Zn1 3.568649 1_554
Sn0 Zn1 2.781959 1_544
Sn0 Zn1 2.781959 1_654
Sn0 Zn1 2.781967 1_554
Sn0 Zn0 3.024577 1_555
Sn0 Yb1 3.151742 1_655
Sn0 Yb1 3.151746 1_555
Sn0 Yb1 3.151746 1_665
Sn0 Yb0 3.406613 1_654
Sn0 Yb0 3.406617 1_664
Sn0 Yb0 3.406617 1_554
Sn1 Zn0 2.781959 1_455
Sn1 Zn0 2.781959 1_565
Sn1 Zn0 2.781967 1_555
Sn1 Zn1 3.024577 1_555
Sn1 Yb0 3.151742 1_565
Sn1 Yb0 3.151746 1_665
Sn1 Yb0 3.151746 1_555
Sn1 Yb1 3.406613 1_565
Sn1 Yb1 3.406617 1_555
Sn1 Yb1 3.406617 1_665
