# generated using pymatgen
data_MgSb2O
_symmetry_space_group_name_H-M   'P 1'
_cell_length_a   7.05965339
_cell_length_b   9.36635572
_cell_length_c   9.38879960
_cell_angle_alpha   120.07929846
_cell_angle_beta   90.81335558
_cell_angle_gamma   89.59236347
_symmetry_Int_Tables_number   1
_chemical_formula_structural   MgSb2O
_chemical_formula_sum   'Mg6 Sb12 O6'
_cell_volume   537.15965111
_cell_formula_units_Z   6
loop_
 _symmetry_equiv_pos_site_id
 _symmetry_equiv_pos_as_xyz
  1  'x, y, z'
loop_
 _atom_site_type_symbol
 _atom_site_label
 _atom_site_symmetry_multiplicity
 _atom_site_fract_x
 _atom_site_fract_y
 _atom_site_fract_z
 _atom_site_occupancy
  Mg  Mg0  1  0.96117000  0.32688000  0.32623600  1
  Mg  Mg1  1  0.96117000  0.67312000  0.99935700  1
  Mg  Mg2  1  0.96180300  0.00000000  0.67246300  1
  Mg  Mg3  1  0.03883000  0.67312000  0.67376400  1
  Mg  Mg4  1  0.03883000  0.32688000  0.00064300  1
  Mg  Mg5  1  0.03819700  0.00000000  0.32753700  1
  Sb  Sb0  1  0.00000000  0.00000000  0.00000000  1
  Sb  Sb1  1  0.50000000  0.00000000  0.00000000  1
  Sb  Sb2  1  0.00000000  0.66655600  0.33327800  1
  Sb  Sb3  1  0.00000000  0.33344400  0.66672200  1
  Sb  Sb4  1  0.50000000  0.66639600  0.33319800  1
  Sb  Sb5  1  0.50000000  0.33360400  0.66680200  1
  Sb  Sb6  1  0.54383100  0.33987200  0.34063100  1
  Sb  Sb7  1  0.54383100  0.66012800  0.00075800  1
  Sb  Sb8  1  0.54509100  0.00000000  0.65991700  1
  Sb  Sb9  1  0.45616900  0.66012800  0.65936900  1
  Sb  Sb10  1  0.45616900  0.33987200  0.99924200  1
  Sb  Sb11  1  0.45490900  0.00000000  0.34008300  1
  O  O0  1  0.15753500  0.18131700  0.18117400  1
  O  O1  1  0.15753500  0.81868300  0.99985700  1
  O  O2  1  0.15699800  0.00000000  0.82110900  1
  O  O3  1  0.84246500  0.81868300  0.81882600  1
  O  O4  1  0.84246500  0.18131700  0.00014300  1
  O  O5  1  0.84300200  0.00000000  0.17889100  1
loop_
_geom_bond_atom_site_label_1
_geom_bond_atom_site_label_2
_geom_bond_distance
_geom_bond_site_symmetry_2
Mg0 O0 1.949587 1_655
Mg0 Sb6 2.950134 1_555
Mg0 Sb2 3.162699 1_655
Mg0 Sb3 3.174353 1_655
Mg1 O1 1.949590 1_655
Mg1 Sb7 2.950133 1_556
Mg1 Sb3 3.162704 1_655
Mg1 Sb2 3.174344 1_656
Mg2 O2 1.947313 1_655
Mg2 Sb8 2.942528 1_555
Mg2 Sb3 3.163994 1_655
Mg2 Sb2 3.163994 1_645
Mg3 O3 1.949587 1_455
Mg3 Sb9 2.950134 1_555
Mg3 Sb3 3.162699 1_555
Mg3 Sb2 3.174353 1_555
Mg4 O4 1.949590 1_455
Mg4 Sb10 2.950133 1_554
Mg4 Sb2 3.162704 1_555
Mg4 Sb3 3.174344 1_554
Mg5 O5 1.947313 1_455
Mg5 Sb11 2.942528 1_555
Mg5 Sb2 3.163994 1_545
Mg5 Sb3 3.163994 1_555
Sb2 Sb4 3.529827 1_455
Sb2 Sb4 3.529827 1_555
Sb3 Sb5 3.529827 1_555
Sb3 Sb5 3.529827 1_455
Sb4 Sb8 3.106917 1_565
Sb4 Sb6 3.107077 1_555
Sb4 Sb9 3.112007 1_555
Sb4 Sb7 3.112016 1_555
Sb5 Sb8 3.106917 1_555
Sb5 Sb7 3.107072 1_556
Sb5 Sb9 3.107077 1_555
Sb5 Sb6 3.112007 1_555
Sb10 Sb4 3.107072 1_556
Sb10 Sb5 3.112016 1_555
Sb11 Sb5 3.106917 1_555
Sb11 Sb4 3.106917 1_545
O0 Sb0 2.022844 1_555
O1 Sb0 2.022844 1_566
O2 Sb0 2.025402 1_556
O3 Sb0 2.022844 1_666
O4 Sb0 2.022844 1_655
O5 Sb0 2.025402 1_655
