# generated using pymatgen
data_Sr2Cu2RuPb2ClO8
_symmetry_space_group_name_H-M   'P 1'
_cell_length_a   3.92728957
_cell_length_b   3.92728957
_cell_length_c   15.34237400
_cell_angle_alpha   90.00000000
_cell_angle_beta   90.00000000
_cell_angle_gamma   90.19654206
_symmetry_Int_Tables_number   1
_chemical_formula_structural   Sr2Cu2RuPb2ClO8
_chemical_formula_sum   'Sr2 Cu2 Ru1 Pb2 Cl1 O8'
_cell_volume   236.63329870
_cell_formula_units_Z   1
loop_
 _symmetry_equiv_pos_site_id
 _symmetry_equiv_pos_as_xyz
  1  'x, y, z'
loop_
 _atom_site_type_symbol
 _atom_site_label
 _atom_site_symmetry_multiplicity
 _atom_site_fract_x
 _atom_site_fract_y
 _atom_site_fract_z
 _atom_site_occupancy
  Sr  Sr0  1  0.49575600  0.49575600  0.64237000  1
  Sr  Sr1  1  0.49575600  0.49575600  0.35763000  1
  Cu  Cu0  1  0.99889700  0.99889700  0.76773600  1
  Cu  Cu1  1  0.99889700  0.99889700  0.23226400  1
  Ru  Ru0  1  0.97621400  0.97621400  0.50000000  1
  Pb  Pb0  1  0.49980900  0.49980900  0.87741700  1
  Pb  Pb1  1  0.49980900  0.49980900  0.12258300  1
  Cl  Cl0  1  0.99957400  0.99957400  0.00000000  1
  O  O0  1  0.99940100  0.49891200  0.78016700  1
  O  O1  1  0.49891200  0.99940100  0.78016700  1
  O  O2  1  0.99940100  0.49891200  0.21983300  1
  O  O3  1  0.49891200  0.99940100  0.21983300  1
  O  O4  1  0.01048000  0.01048000  0.62683700  1
  O  O5  1  0.01048000  0.01048000  0.37316300  1
  O  O6  1  0.95045000  0.48043700  0.50000000  1
  O  O7  1  0.48043700  0.95045000  0.50000000  1
loop_
_geom_bond_atom_site_label_1
_geom_bond_atom_site_label_2
_geom_bond_distance
_geom_bond_site_symmetry_2
Cu0 O0 1.972834 1_555
Cu0 O1 1.972834 1_555
Cu0 O1 1.972938 1_655
Cu0 O0 1.972938 1_565
Cu0 O4 2.162679 1_665
Cu1 O2 1.972834 1_555
Cu1 O3 1.972834 1_555
Cu1 O3 1.972938 1_655
Cu1 O2 1.972938 1_565
Cu1 O5 2.162679 1_665
O0 Pb0 2.464928 1_555
O0 Pb0 2.467461 1_655
O0 Sr0 2.875720 1_655
O0 Sr0 2.895146 1_555
O1 Pb0 2.464928 1_555
O1 Pb0 2.467461 1_565
O1 Sr0 2.875720 1_565
O1 Sr0 2.895146 1_555
O2 Pb1 2.464928 1_555
O2 Pb1 2.467461 1_655
O2 Sr1 2.875720 1_655
O2 Sr1 2.895146 1_555
O3 Pb1 2.464928 1_555
O3 Pb1 2.467461 1_565
O3 Sr1 2.875720 1_565
O3 Sr1 2.895146 1_555
O4 Ru0 1.955233 1_445
O4 Sr0 2.701142 1_555
O4 Sr0 2.793155 1_545
O4 Sr0 2.793155 1_455
O4 Sr0 2.863816 1_445
O5 Ru0 1.955233 1_445
O5 Sr1 2.701142 1_555
O5 Sr1 2.793155 1_545
O5 Sr1 2.793155 1_455
O5 Sr1 2.863816 1_445
O6 Ru0 1.949340 1_555
O6 Ru0 1.983160 1_545
O6 Sr0 2.822105 1_555
O6 Sr1 2.822105 1_555
O6 Sr1 3.059447 1_655
O6 Sr0 3.059447 1_655
O7 Ru0 1.949340 1_555
O7 Ru0 1.983160 1_455
O7 Sr0 2.822105 1_555
O7 Sr1 2.822105 1_555
O7 Sr0 3.059447 1_565
O7 Sr1 3.059447 1_565
