# generated using pymatgen
data_LuCuPb
_symmetry_space_group_name_H-M   'P 1'
_cell_length_a   4.51487457
_cell_length_b   4.51487457
_cell_length_c   7.22740498
_cell_angle_alpha   90.00000000
_cell_angle_beta   90.00000000
_cell_angle_gamma   119.99999394
_symmetry_Int_Tables_number   1
_chemical_formula_structural   LuCuPb
_chemical_formula_sum   'Lu2 Cu2 Pb2'
_cell_volume   127.58641281
_cell_formula_units_Z   2
loop_
 _symmetry_equiv_pos_site_id
 _symmetry_equiv_pos_as_xyz
  1  'x, y, z'
loop_
 _atom_site_type_symbol
 _atom_site_label
 _atom_site_symmetry_multiplicity
 _atom_site_fract_x
 _atom_site_fract_y
 _atom_site_fract_z
 _atom_site_occupancy
  Lu  Lu0  1  0.00000000  -0.00000000  0.99610525  1
  Lu  Lu1  1  0.00000000  -0.00000000  0.49610525  1
  Cu  Cu0  1  0.66666700  0.33333300  0.33338703  1
  Cu  Cu1  1  0.33333300  0.66666700  0.83338703  1
  Pb  Pb0  1  0.33333300  0.66666700  0.22750772  1
  Pb  Pb1  1  0.66666700  0.33333300  0.72750772  1
loop_
_geom_bond_atom_site_label_1
_geom_bond_atom_site_label_2
_geom_bond_distance
_geom_bond_site_symmetry_2
Lu0 Pb0 3.097053 1_546
Lu0 Pb0 3.097056 1_556
Lu0 Pb0 3.097056 1_446
Lu0 Pb1 3.250106 1_455
Lu0 Pb1 3.250109 1_555
Lu0 Pb1 3.250109 1_445
Lu0 Lu1 3.613702 1_556
Lu0 Lu1 3.613702 1_555
Lu1 Pb1 3.097053 1_455
Lu1 Pb1 3.097056 1_445
Lu1 Pb1 3.097056 1_555
Lu1 Pb0 3.250106 1_545
Lu1 Pb0 3.250109 1_555
Lu1 Pb0 3.250109 1_445
Cu0 Pb0 2.716664 1_545
Cu0 Pb0 2.716664 1_655
Cu0 Pb0 2.716672 1_555
Cu0 Pb1 2.848470 1_555
Cu0 Lu1 2.859673 1_655
Cu0 Lu1 2.859677 1_555
Cu0 Lu1 2.859677 1_665
Cu0 Lu0 3.568883 1_654
Cu0 Lu0 3.568886 1_664
Cu0 Lu0 3.568886 1_554
Cu1 Pb1 2.716664 1_455
Cu1 Pb1 2.716664 1_565
Cu1 Pb1 2.716672 1_555
Cu1 Pb0 2.848470 1_556
Cu1 Lu0 2.859673 1_565
Cu1 Lu0 2.859677 1_555
Cu1 Lu0 2.859677 1_665
Cu1 Lu1 3.568883 1_565
Cu1 Lu1 3.568886 1_555
Cu1 Lu1 3.568886 1_665
