# generated using pymatgen
data_Li(FeO2)8
_symmetry_space_group_name_H-M   'P 1'
_cell_length_a   2.96918690
_cell_length_b   10.22850104
_cell_length_c   10.14239500
_cell_angle_alpha   89.92738729
_cell_angle_beta   90.00000000
_cell_angle_gamma   90.00000000
_symmetry_Int_Tables_number   1
_chemical_formula_structural   Li(FeO2)8
_chemical_formula_sum   'Li1 Fe8 O16'
_cell_volume   308.02764904
_cell_formula_units_Z   1
loop_
 _symmetry_equiv_pos_site_id
 _symmetry_equiv_pos_as_xyz
  1  'x, y, z'
loop_
 _atom_site_type_symbol
 _atom_site_label
 _atom_site_symmetry_multiplicity
 _atom_site_fract_x
 _atom_site_fract_y
 _atom_site_fract_z
 _atom_site_occupancy
  Li  Li0  1  0.50000000  0.60100845  0.54722258  1
  Fe  Fe0  1  0.00000000  0.11976274  0.33405304  1
  Fe  Fe1  1  0.00000000  0.63386921  0.15282384  1
  Fe  Fe2  1  0.50000000  0.61782969  0.83477804  1
  Fe  Fe3  1  0.50000000  0.13701609  0.65103729  1
  Fe  Fe4  1  0.00000000  0.82280153  0.67269769  1
  Fe  Fe5  1  0.00000000  0.30232770  0.85122739  1
  Fe  Fe6  1  0.50000000  0.32005332  0.16824169  1
  Fe  Fe7  1  0.50000000  0.80553616  0.35093856  1
  O  O0  1  0.00000000  0.31544861  0.29327253  1
  O  O1  1  0.00000000  0.30757931  0.04459403  1
  O  O2  1  0.00000000  0.67528822  0.36121034  1
  O  O3  1  0.00000000  0.92817210  0.33875288  1
  O  O4  1  0.50000000  0.81296685  0.79478414  1
  O  O5  1  0.50000000  0.80257381  0.54579915  1
  O  O6  1  0.50000000  0.17954167  0.84780419  1
  O  O7  1  0.50000000  0.42509488  0.83672587  1
  O  O8  1  0.00000000  0.62144581  0.69133131  1
  O  O9  1  0.00000000  0.63089223  0.95734539  1
  O  O10  1  0.00000000  0.26169261  0.65459826  1
  O  O11  1  0.00000000  0.01315575  0.66370191  1
  O  O12  1  0.50000000  0.12486561  0.21062024  1
  O  O13  1  0.50000000  0.13357104  0.45768067  1
  O  O14  1  0.50000000  0.75775213  0.16136473  1
  O  O15  1  0.50000000  0.51125347  0.16864623  1
loop_
_geom_bond_atom_site_label_1
_geom_bond_atom_site_label_2
_geom_bond_distance
_geom_bond_site_symmetry_2
Li0 O5 2.061744 1_555
Li0 O8 2.093989 1_655
Li0 O8 2.093989 1_555
Li0 O2 2.517326 1_555
Li0 O2 2.517326 1_655
Fe0 O12 1.942638 1_455
Fe0 O12 1.942638 1_555
Fe0 O13 1.948494 1_555
Fe0 O13 1.948494 1_455
Fe0 O3 1.960204 1_545
Fe0 O0 2.043348 1_555
Fe1 O15 1.949927 1_555
Fe1 O15 1.949927 1_455
Fe1 O14 1.953826 1_455
Fe1 O14 1.953826 1_555
Fe1 O9 1.982892 1_554
Fe1 O2 2.156107 1_555
Fe2 O9 1.941045 1_655
Fe2 O9 1.941045 1_555
Fe2 O7 1.971462 1_555
Fe2 O4 2.036258 1_555
Fe2 O8 2.078933 1_655
Fe2 O8 2.078933 1_555
Fe3 O11 1.955800 1_555
Fe3 O11 1.955800 1_655
Fe3 O10 1.957476 1_555
Fe3 O10 1.957476 1_655
Fe3 O13 1.961460 1_555
Fe3 O6 2.043079 1_555
Fe4 O4 1.935738 1_455
Fe4 O4 1.935738 1_555
Fe4 O11 1.949059 1_565
Fe4 O5 1.975857 1_455
Fe4 O5 1.975857 1_555
Fe4 O8 2.067981 1_555
Fe5 O6 1.944906 1_455
Fe5 O6 1.944906 1_555
Fe5 O7 1.949878 1_455
Fe5 O7 1.949878 1_555
Fe5 O1 1.962004 1_556
Fe5 O10 2.037658 1_555
Fe6 O1 1.947672 1_555
Fe6 O1 1.947672 1_655
Fe6 O0 1.952996 1_655
Fe6 O0 1.952996 1_555
Fe6 O15 1.955700 1_555
Fe6 O12 2.041689 1_555
Fe7 O3 1.947402 1_555
Fe7 O3 1.947402 1_655
Fe7 O5 1.976547 1_555
Fe7 O14 1.984482 1_555
Fe7 O2 1.997345 1_555
Fe7 O2 1.997345 1_655
