# generated using pymatgen
data_CaNdFeO4
_symmetry_space_group_name_H-M   'P 1'
_cell_length_a   6.59220695
_cell_length_b   6.59220695
_cell_length_c   5.66909600
_cell_angle_alpha   90.00000000
_cell_angle_beta   90.00000000
_cell_angle_gamma   131.06182226
_symmetry_Int_Tables_number   1
_chemical_formula_structural   CaNdFeO4
_chemical_formula_sum   'Ca2 Nd2 Fe2 O8'
_cell_volume   185.75800753
_cell_formula_units_Z   2
loop_
 _symmetry_equiv_pos_site_id
 _symmetry_equiv_pos_as_xyz
  1  'x, y, z'
loop_
 _atom_site_type_symbol
 _atom_site_label
 _atom_site_symmetry_multiplicity
 _atom_site_fract_x
 _atom_site_fract_y
 _atom_site_fract_z
 _atom_site_occupancy
  Ca  Ca0  1  0.60366700  0.39633300  0.51960500  1
  Ca  Ca1  1  0.39633300  0.60366700  0.01960500  1
  Nd  Nd0  1  0.88946700  0.11053300  0.48099200  1
  Nd  Nd1  1  0.11053300  0.88946700  0.98099200  1
  Fe  Fe0  1  0.25287200  0.74712800  0.49697000  1
  Fe  Fe1  1  0.74712800  0.25287200  0.99697000  1
  O  O0  1  0.42023600  0.57976400  0.43093600  1
  O  O1  1  0.07502700  0.92497300  0.57028000  1
  O  O2  1  0.57976400  0.42023600  0.93093600  1
  O  O3  1  0.92497300  0.07502700  0.07028000  1
  O  O4  1  0.52021400  0.97698700  0.75060900  1
  O  O5  1  0.47978600  0.02301300  0.25060900  1
  O  O6  1  0.97698700  0.52021400  0.25060900  1
  O  O7  1  0.02301300  0.47978600  0.75060900  1
loop_
_geom_bond_atom_site_label_1
_geom_bond_atom_site_label_2
_geom_bond_distance
_geom_bond_site_symmetry_2
Ca0 O0 2.257885 1_555
Ca0 O2 2.349451 1_555
Ca0 O5 2.531527 1_555
Ca0 O6 2.531527 1_555
Ca0 O1 2.767006 1_655
Ca0 O1 2.767006 1_545
Ca0 O4 2.767976 1_545
Ca0 O7 2.767976 1_655
Ca1 O2 2.257885 1_554
Ca1 O0 2.349451 1_555
Ca1 O7 2.531527 1_554
Ca1 O4 2.531527 1_554
Ca1 O3 2.767006 1_455
Ca1 O3 2.767006 1_565
Ca1 O6 2.767976 1_455
Ca1 O5 2.767976 1_565
Nd0 O1 2.283574 1_645
Nd0 O3 2.367030 1_555
Nd0 O7 2.494248 1_655
Nd0 O4 2.494248 1_545
Nd0 O6 2.699153 1_555
Nd0 O5 2.699153 1_555
Nd0 O0 2.769933 1_545
Nd0 O0 2.769933 1_655
Nd1 O3 2.283574 1_466
Nd1 O1 2.367030 1_555
Nd1 O5 2.494248 1_566
Nd1 O6 2.494248 1_456
Nd1 O4 2.699153 1_555
Nd1 O7 2.699153 1_555
Nd1 O2 2.769933 1_455
Nd1 O2 2.769933 1_565
Fe0 O6 1.980353 1_455
Fe0 O5 1.980353 1_565
Fe0 O4 1.990290 1_555
Fe0 O7 1.990290 1_555
Fe0 O0 2.043001 1_555
Fe0 O1 2.174275 1_555
Fe1 O7 1.980353 1_655
Fe1 O4 1.980353 1_545
Fe1 O5 1.990290 1_556
Fe1 O6 1.990290 1_556
Fe1 O2 2.043001 1_555
Fe1 O3 2.174275 1_556
