# generated using pymatgen
data_Al6GeW
_symmetry_space_group_name_H-M   'P 1'
_cell_length_a   5.03502900
_cell_length_b   5.03502900
_cell_length_c   5.03502900
_cell_angle_alpha   90.00000000
_cell_angle_beta   90.00000000
_cell_angle_gamma   90.00000000
_symmetry_Int_Tables_number   1
_chemical_formula_structural   Al6GeW
_chemical_formula_sum   'Al6 Ge1 W1'
_cell_volume   127.64562344
_cell_formula_units_Z   1
loop_
 _symmetry_equiv_pos_site_id
 _symmetry_equiv_pos_as_xyz
  1  'x, y, z'
loop_
 _atom_site_type_symbol
 _atom_site_label
 _atom_site_symmetry_multiplicity
 _atom_site_fract_x
 _atom_site_fract_y
 _atom_site_fract_z
 _atom_site_occupancy
  Al  Al0  1  0.24545700  0.00000000  0.50000000  1
  Al  Al1  1  0.75454300  0.00000000  0.50000000  1
  Al  Al2  1  0.50000000  0.24545700  0.00000000  1
  Al  Al3  1  0.50000000  0.75454300  0.00000000  1
  Al  Al4  1  0.00000000  0.50000000  0.24545700  1
  Al  Al5  1  0.00000000  0.50000000  0.75454300  1
  Ge  Ge0  1  0.50000000  0.50000000  0.50000000  1
  W  W0  1  0.00000000  0.00000000  0.00000000  1
loop_
_geom_bond_atom_site_label_1
_geom_bond_atom_site_label_2
_geom_bond_distance
_geom_bond_site_symmetry_2
Al0 Al1 2.471766 1_455
Al0 Al1 2.563263 1_555
Al0 W0 2.804512 1_555
Al0 W0 2.804512 1_556
Al0 Ge0 2.824970 1_545
Al0 Ge0 2.824970 1_555
Al1 W0 2.804512 1_656
Al1 W0 2.804512 1_655
Al1 Ge0 2.824970 1_545
Al1 Ge0 2.824970 1_555
Al2 Al3 2.471766 1_545
Al2 Al3 2.563263 1_555
Al2 W0 2.804512 1_555
Al2 W0 2.804512 1_655
Al2 Ge0 2.824970 1_554
Al2 Ge0 2.824970 1_555
Al3 W0 2.804512 1_565
Al3 W0 2.804512 1_665
Al3 Ge0 2.824970 1_554
Al3 Ge0 2.824970 1_555
Al4 Al5 2.471766 1_554
Al4 Al5 2.563263 1_555
Al4 W0 2.804512 1_555
Al4 W0 2.804512 1_565
Al4 Ge0 2.824970 1_455
Al4 Ge0 2.824970 1_555
Al5 W0 2.804512 1_556
Al5 W0 2.804512 1_566
Al5 Ge0 2.824970 1_455
Al5 Ge0 2.824970 1_555
