# generated using pymatgen
data_H3C6SeO3F5
_symmetry_space_group_name_H-M   'P 1'
_cell_length_a   4.91976500
_cell_length_b   5.55736894
_cell_length_c   17.92903523
_cell_angle_alpha   81.12082300
_cell_angle_beta   88.82203711
_cell_angle_gamma   85.09500572
_symmetry_Int_Tables_number   1
_chemical_formula_structural   H3C6SeO3F5
_chemical_formula_sum   'H6 C12 Se2 O6 F10'
_cell_volume   482.53518442
_cell_formula_units_Z   2
loop_
 _symmetry_equiv_pos_site_id
 _symmetry_equiv_pos_as_xyz
  1  'x, y, z'
loop_
 _atom_site_type_symbol
 _atom_site_label
 _atom_site_symmetry_multiplicity
 _atom_site_fract_x
 _atom_site_fract_y
 _atom_site_fract_z
 _atom_site_occupancy
  H  H0  1  0.31479200  0.86921400  0.58447000  1
  H  H1  1  0.68520800  0.13078600  0.41553000  1
  H  H2  1  0.09485700  0.22783100  0.55854800  1
  H  H3  1  0.90514300  0.77216900  0.44145200  1
  H  H4  1  0.41472800  0.23672000  0.55544300  1
  H  H5  1  0.58527200  0.76328000  0.44455700  1
  C  C0  1  0.65934800  0.50229000  0.73630600  1
  C  C1  1  0.34065200  0.49771000  0.26369400  1
  C  C2  1  0.50467400  0.31082300  0.76593500  1
  C  C3  1  0.49532600  0.68917700  0.23406500  1
  C  C4  1  0.49360900  0.23025600  0.84348600  1
  C  C5  1  0.50639100  0.76974400  0.15651400  1
  C  C6  1  0.63962800  0.34261300  0.89278700  1
  C  C7  1  0.36037200  0.65738700  0.10721300  1
  C  C8  1  0.79355800  0.53622900  0.86399500  1
  C  C9  1  0.20644200  0.46377100  0.13600500  1
  C  C10  1  0.80041100  0.61328900  0.78625500  1
  C  C11  1  0.19958900  0.38671100  0.21374500  1
  Se  Se0  1  0.69547800  0.61791600  0.62579800  1
  Se  Se1  1  0.30452200  0.38208400  0.37420200  1
  O  O0  1  0.33694100  0.69488600  0.61379800  1
  O  O1  1  0.66305900  0.30511400  0.38620200  1
  O  O2  1  0.73849300  0.35400300  0.59187100  1
  O  O3  1  0.26150700  0.64599700  0.40812900  1
  O  O4  1  0.26502300  0.14553100  0.54093700  1
  O  O5  1  0.73497700  0.85446900  0.45906300  1
  F  F0  1  0.35897900  0.19756100  0.72077200  1
  F  F1  1  0.64102100  0.80243900  0.27922800  1
  F  F2  1  0.34416700  0.04466000  0.87169100  1
  F  F3  1  0.65583300  0.95534000  0.12830900  1
  F  F4  1  0.63121200  0.26486500  0.96721400  1
  F  F5  1  0.36878800  0.73513500  0.03278600  1
  F  F6  1  0.93261200  0.64562000  0.91134800  1
  F  F7  1  0.06738800  0.35438000  0.08865200  1
  F  F8  1  0.94921900  0.80365200  0.75998300  1
  F  F9  1  0.05078100  0.19634800  0.24001700  1
loop_
_geom_bond_atom_site_label_1
_geom_bond_atom_site_label_2
_geom_bond_distance
_geom_bond_site_symmetry_2
H0 O0 1.026640 1_555
H0 O4 1.612688 1_565
H1 O1 1.026640 1_555
H1 O5 1.612688 1_545
H2 O4 0.988931 1_555
H3 O5 0.988931 1_555
H4 O4 0.989596 1_555
H5 O5 0.989596 1_555
C0 C10 1.390480 1_555
C0 C2 1.393131 1_555
C0 Se0 1.995517 1_555
C1 C11 1.390480 1_555
C1 C3 1.393131 1_555
C1 Se1 1.995517 1_555
C2 F0 1.350552 1_555
C3 F1 1.350552 1_555
C4 F2 1.346658 1_555
C5 F3 1.346658 1_555
C6 F4 1.338596 1_555
C7 F5 1.338596 1_555
C8 F6 1.346367 1_555
C9 F7 1.346367 1_555
C10 F8 1.357007 1_555
C11 F9 1.357007 1_555
O0 Se0 1.788528 1_555
O1 Se1 1.788528 1_555
O2 Se0 1.668209 1_555
O3 Se1 1.668209 1_555
