# generated using pymatgen
data_LiY5(MoO6)2
_symmetry_space_group_name_H-M   'P 1'
_cell_length_a   5.94873000
_cell_length_b   6.92367569
_cell_length_c   7.39441861
_cell_angle_alpha   105.35887059
_cell_angle_beta   90.00000000
_cell_angle_gamma   115.44175555
_symmetry_Int_Tables_number   1
_chemical_formula_structural   LiY5(MoO6)2
_chemical_formula_sum   'Li1 Y5 Mo2 O12'
_cell_volume   262.92361018
_cell_formula_units_Z   1
loop_
 _symmetry_equiv_pos_site_id
 _symmetry_equiv_pos_as_xyz
  1  'x, y, z'
loop_
 _atom_site_type_symbol
 _atom_site_label
 _atom_site_symmetry_multiplicity
 _atom_site_fract_x
 _atom_site_fract_y
 _atom_site_fract_z
 _atom_site_occupancy
  Li  Li0  1  0.00000000  0.00000000  0.50000000  1
  Y  Y0  1  0.50000000  0.00000000  0.50000000  1
  Y  Y1  1  0.19640900  0.39281600  0.84426000  1
  Y  Y2  1  0.80359100  0.60718400  0.15574000  1
  Y  Y3  1  0.79439300  0.58878600  0.64156600  1
  Y  Y4  1  0.20560700  0.41121400  0.35843400  1
  Mo  Mo0  1  0.73143000  0.00000000  0.00000000  1
  Mo  Mo1  1  0.26857000  0.00000000  0.00000000  1
  O  O0  1  0.00186000  0.00372100  0.81062600  1
  O  O1  1  0.99814000  0.99627900  0.18937400  1
  O  O2  1  0.49323000  0.98646100  0.19837800  1
  O  O3  1  0.50677000  0.01353900  0.80162200  1
  O  O4  1  0.61744200  0.71062500  0.43443500  1
  O  O5  1  0.90681700  0.28937500  0.56556500  1
  O  O6  1  0.38255800  0.28937500  0.56556500  1
  O  O7  1  0.40420700  0.34067900  0.09482300  1
  O  O8  1  0.06352800  0.65932100  0.90517700  1
  O  O9  1  0.59579300  0.65932100  0.90517700  1
  O  O10  1  0.93647200  0.34067900  0.09482300  1
  O  O11  1  0.09318300  0.71062500  0.43443500  1
loop_
_geom_bond_atom_site_label_1
_geom_bond_atom_site_label_2
_geom_bond_distance
_geom_bond_site_symmetry_2
Li0 O4 2.235207 1_445
Li0 O6 2.235207 1_555
Li0 O5 2.235207 1_455
Li0 O11 2.235207 1_545
Li0 O0 2.290183 1_555
Li0 O1 2.290183 1_445
Mo0 O3 2.031528 1_554
Mo0 O2 2.031532 1_545
Mo0 O9 2.048186 1_544
Mo0 O10 2.048186 1_555
Mo0 O0 2.129084 1_654
Mo0 O1 2.129089 1_545
Mo1 O2 2.031528 1_545
Mo1 O3 2.031532 1_554
Mo1 O7 2.048186 1_555
Mo1 O8 2.048186 1_544
Mo1 O1 2.129084 1_445
Mo1 O0 2.129089 1_554
O0 Y1 2.371714 1_555
O0 Y3 2.527951 1_445
O1 Y2 2.371714 1_555
O1 Y4 2.527951 1_665
O2 Y0 2.206975 1_565
O3 Y0 2.206975 1_555
O4 Y0 2.329245 1_565
O4 Y3 2.369146 1_555
O4 Y4 2.373723 1_555
O4 Y2 2.426018 1_555
O5 Y0 2.329245 1_555
O5 Y4 2.369146 1_655
O5 Y3 2.373723 1_555
O5 Y1 2.426025 1_655
O6 Y0 2.329245 1_555
O6 Y4 2.369146 1_555
O6 Y3 2.373723 1_555
O6 Y1 2.426018 1_555
O7 Y2 2.246187 1_555
O7 Y4 2.329220 1_555
O7 Y1 2.414282 1_554
O8 Y1 2.246195 1_555
O8 Y3 2.329220 1_455
O8 Y2 2.414289 1_456
O9 Y1 2.246187 1_555
O9 Y3 2.329220 1_555
O9 Y2 2.414282 1_556
O10 Y2 2.246195 1_555
O10 Y4 2.329220 1_655
O10 Y1 2.414289 1_654
O11 Y0 2.329245 1_565
O11 Y3 2.369146 1_455
O11 Y4 2.373723 1_555
O11 Y2 2.426025 1_455
