# generated using pymatgen
data_HNO
_symmetry_space_group_name_H-M   'P 1'
_cell_length_a   4.91206320
_cell_length_b   4.91206320
_cell_length_c   6.72080679
_cell_angle_alpha   62.76489991
_cell_angle_beta   62.76489991
_cell_angle_gamma   75.15008211
_symmetry_Int_Tables_number   1
_chemical_formula_structural   HNO
_chemical_formula_sum   'H4 N4 O4'
_cell_volume   127.97404094
_cell_formula_units_Z   4
loop_
 _symmetry_equiv_pos_site_id
 _symmetry_equiv_pos_as_xyz
  1  'x, y, z'
loop_
 _atom_site_type_symbol
 _atom_site_label
 _atom_site_symmetry_multiplicity
 _atom_site_fract_x
 _atom_site_fract_y
 _atom_site_fract_z
 _atom_site_occupancy
  H  H0  1  0.14969300  0.27448300  0.53433100  1
  H  H1  1  0.72551700  0.85030700  0.96566900  1
  H  H2  1  0.85030700  0.72551700  0.46566900  1
  H  H3  1  0.27448300  0.14969300  0.03433100  1
  N  N0  1  0.19393700  0.80606300  0.25000000  1
  N  N1  1  0.80606300  0.19393700  0.75000000  1
  N  N2  1  0.39486700  0.60513300  0.25000000  1
  N  N3  1  0.60513300  0.39486700  0.75000000  1
  O  O0  1  0.37636600  0.30053400  0.40680200  1
  O  O1  1  0.69946600  0.62363400  0.09319800  1
  O  O2  1  0.62363400  0.69946600  0.59319800  1
  O  O3  1  0.30053400  0.37636600  0.90680200  1
loop_
_geom_bond_atom_site_label_1
_geom_bond_atom_site_label_2
_geom_bond_distance
_geom_bond_site_symmetry_2
H0 O0 1.043979 1_555
H0 N1 1.638501 1_455
H1 O1 1.043979 1_556
H1 N1 1.638501 1_565
H2 O2 1.043979 1_555
H2 N0 1.638501 1_655
H3 O3 1.043979 1_554
H3 N0 1.638501 1_545
N0 N2 1.203722 1_555
N1 N3 1.203722 1_555
N2 O1 1.377072 1_555
N2 O0 1.377072 1_555
N3 O3 1.377072 1_555
N3 O2 1.377072 1_555
