# generated using pymatgen
data_Mn3Ni4Sn
_symmetry_space_group_name_H-M   'P 1'
_cell_length_a   7.34957505
_cell_length_b   7.34957505
_cell_length_c   7.34957552
_cell_angle_alpha   33.01786873
_cell_angle_beta   33.01786873
_cell_angle_gamma   33.01787000
_symmetry_Int_Tables_number   1
_chemical_formula_structural   Mn3Ni4Sn
_chemical_formula_sum   'Mn3 Ni4 Sn1'
_cell_volume   104.90151027
_cell_formula_units_Z   1
loop_
 _symmetry_equiv_pos_site_id
 _symmetry_equiv_pos_as_xyz
  1  'x, y, z'
loop_
 _atom_site_type_symbol
 _atom_site_label
 _atom_site_symmetry_multiplicity
 _atom_site_fract_x
 _atom_site_fract_y
 _atom_site_fract_z
 _atom_site_occupancy
  Mn  Mn0  1  0.24777300  0.24777300  0.24777300  1
  Mn  Mn1  1  0.75222700  0.75222700  0.75222700  1
  Mn  Mn2  1  0.50000000  0.50000000  0.50000000  1
  Ni  Ni0  1  0.61896300  0.61896300  0.61896300  1
  Ni  Ni1  1  0.12902500  0.12902500  0.12902500  1
  Ni  Ni2  1  0.87097500  0.87097500  0.87097500  1
  Ni  Ni3  1  0.38103700  0.38103700  0.38103700  1
  Sn  Sn0  1  0.00000000  0.00000000  0.00000000  1
loop_
_geom_bond_atom_site_label_1
_geom_bond_atom_site_label_2
_geom_bond_distance
_geom_bond_site_symmetry_2
Mn0 Ni1 2.473281 1_555
Mn0 Ni0 2.537208 1_554
Mn0 Ni0 2.537208 1_455
Mn0 Ni0 2.537208 1_545
Mn0 Ni2 2.575900 1_445
Mn0 Ni2 2.575900 1_544
Mn0 Ni2 2.575900 1_454
Mn0 Ni3 2.775620 1_555
Mn1 Ni2 2.473281 1_555
Mn1 Ni3 2.537208 1_556
Mn1 Ni3 2.537208 1_655
Mn1 Ni3 2.537208 1_565
Mn1 Ni1 2.575900 1_665
Mn1 Ni1 2.575900 1_566
Mn1 Ni1 2.575900 1_656
Mn1 Ni0 2.775620 1_555
Mn2 Ni0 2.477759 1_555
Mn2 Ni3 2.477759 1_555
Mn2 Ni2 2.535820 1_554
Mn2 Ni1 2.535820 1_556
Mn2 Ni2 2.535820 1_455
Mn2 Ni2 2.535820 1_545
Mn2 Ni1 2.535820 1_655
Mn2 Ni1 2.535820 1_565
Ni0 Sn0 2.608239 1_665
Ni0 Sn0 2.608239 1_656
Ni0 Sn0 2.608239 1_566
Ni1 Sn0 2.687330 1_555
Ni2 Sn0 2.687330 1_666
Ni3 Sn0 2.608239 1_556
Ni3 Sn0 2.608239 1_655
Ni3 Sn0 2.608239 1_565
