# generated using pymatgen
data_Zn9Fe4
_symmetry_space_group_name_H-M   'P 1'
_cell_length_a   7.76358790
_cell_length_b   7.76358790
_cell_length_c   7.76863412
_cell_angle_alpha   70.91788231
_cell_angle_beta   70.91788231
_cell_angle_gamma   110.09839056
_symmetry_Int_Tables_number   1
_chemical_formula_structural   Zn9Fe4
_chemical_formula_sum   'Zn18 Fe8'
_cell_volume   361.09405313
_cell_formula_units_Z   2
loop_
 _symmetry_equiv_pos_site_id
 _symmetry_equiv_pos_as_xyz
  1  'x, y, z'
loop_
 _atom_site_type_symbol
 _atom_site_label
 _atom_site_symmetry_multiplicity
 _atom_site_fract_x
 _atom_site_fract_y
 _atom_site_fract_z
 _atom_site_occupancy
  Zn  Zn0  1  0.99153400  0.27142800  0.34690800  1
  Zn  Zn1  1  0.72555000  0.72555000  0.62044100  1
  Zn  Zn2  1  0.27142800  0.99153400  0.34690800  1
  Zn  Zn3  1  0.98784900  0.65070400  0.72960000  1
  Zn  Zn4  1  0.27158000  0.64417300  0.01641200  1
  Zn  Zn5  1  0.72986300  0.38316700  0.27435800  1
  Zn  Zn6  1  0.38316700  0.72986300  0.27435800  1
  Zn  Zn7  1  0.64417300  0.27158000  0.01641200  1
  Zn  Zn8  1  0.65070400  0.98784900  0.72960000  1
  Zn  Zn9  1  0.62429200  0.35144000  0.65774800  1
  Zn  Zn10  1  0.34793300  0.34793300  0.36430900  1
  Zn  Zn11  1  0.35144000  0.62429200  0.65774800  1
  Zn  Zn12  1  0.00163700  0.00163700  0.66157700  1
  Zn  Zn13  1  0.00079900  0.33931000  0.99808800  1
  Zn  Zn14  1  0.33931000  0.00079900  0.99808800  1
  Zn  Zn15  1  0.65996700  0.65996700  0.33974900  1
  Zn  Zn16  1  0.36332900  0.00165500  0.63562400  1
  Zn  Zn17  1  0.00165500  0.36332900  0.63562400  1
  Fe  Fe0  1  0.35152200  0.35152200  0.99416400  1
  Fe  Fe1  1  0.65711800  0.00158500  0.34172600  1
  Fe  Fe2  1  0.00158500  0.65711800  0.34172600  1
  Fe  Fe3  1  0.65121400  0.65121400  0.99754500  1
  Fe  Fe4  1  0.00224200  0.00224200  0.21544400  1
  Fe  Fe5  1  0.99831300  0.79094000  0.00304400  1
  Fe  Fe6  1  0.79094000  0.99831300  0.00304400  1
  Fe  Fe7  1  0.20085700  0.20085700  0.79975600  1
loop_
_geom_bond_atom_site_label_1
_geom_bond_atom_site_label_2
_geom_bond_distance
_geom_bond_site_symmetry_2
Zn0 Zn13 2.557139 1_654
Zn0 Zn17 2.582442 1_655
Zn0 Zn5 2.614836 1_555
Zn0 Zn4 2.619424 1_655
Zn0 Zn10 2.682270 1_655
Zn0 Zn12 2.694352 1_655
Zn0 Zn8 2.694510 1_545
Zn1 Zn15 2.558749 1_555
Zn1 Zn8 2.612238 1_555
Zn1 Zn3 2.612238 1_555
Zn1 Zn11 2.620911 1_555
Zn1 Zn9 2.620911 1_555
Zn1 Zn12 2.651211 1_665
Zn2 Zn6 2.614836 1_555
Zn2 Zn7 2.619424 1_565
Zn2 Zn3 2.694510 1_455
Zn3 Zn7 2.678527 1_556
Zn4 Zn6 2.611375 1_555
Zn4 Zn8 2.678527 1_554
Zn5 Zn7 2.611375 1_555
Zn5 Zn9 2.718242 1_555
Zn7 Zn9 2.718324 1_554
Zn8 Zn9 2.786407 1_565
Zn10 Zn12 2.588927 1_555
Zn10 Zn15 2.671289 1_555
Zn10 Zn2 2.682270 1_545
Zn10 Zn5 2.705185 1_555
Zn10 Zn6 2.705185 1_555
Zn10 Zn17 2.892195 1_555
Zn10 Zn16 2.892195 1_555
Zn11 Zn13 2.574103 1_555
Zn11 Zn15 2.672954 1_555
Zn11 Zn6 2.718242 1_555
Zn11 Zn4 2.718324 1_556
Zn11 Zn3 2.786407 1_455
Zn11 Zn16 2.845293 1_565
Zn11 Zn17 2.874076 1_555
Zn12 Zn3 2.556328 1_445
Zn12 Zn8 2.556328 1_445
Zn12 Zn2 2.694352 1_545
Zn12 Zn17 2.748673 1_555
Zn12 Zn16 2.748673 1_555
Zn13 Zn7 2.579775 1_456
Zn13 Zn4 2.652907 1_556
Zn13 Zn5 2.676747 1_456
Zn13 Zn3 2.685563 1_455
Zn13 Zn17 2.758155 1_555
Zn14 Zn2 2.557139 1_546
Zn14 Zn9 2.574103 1_555
Zn14 Zn4 2.579775 1_546
Zn14 Zn7 2.652907 1_556
Zn14 Zn6 2.676747 1_546
Zn14 Zn8 2.685563 1_545
Zn14 Zn16 2.758155 1_555
Zn15 Zn5 2.550596 1_555
Zn15 Zn6 2.550596 1_555
Zn15 Zn9 2.672954 1_555
Zn16 Zn2 2.582442 1_545
Zn16 Zn8 2.588494 1_545
Zn16 Zn9 2.874076 1_555
Zn16 Zn5 2.880527 1_555
Zn16 Zn3 2.881589 1_445
Zn16 Zn4 2.975968 1_546
Zn17 Zn3 2.588494 1_455
Zn17 Zn9 2.845293 1_455
Zn17 Zn6 2.880527 1_555
Zn17 Zn8 2.881589 1_445
Zn17 Zn7 2.975968 1_456
Fe0 Fe7 2.527288 1_555
Fe0 Fe4 2.551871 1_556
Fe0 Zn4 2.594780 1_556
Fe0 Zn7 2.594780 1_556
Fe0 Fe3 2.680866 1_555
Fe0 Zn13 2.681483 1_555
Fe0 Zn14 2.681483 1_555
Fe0 Zn9 2.774559 1_555
Fe0 Zn11 2.774559 1_555
Fe0 Zn10 2.857423 1_556
Fe0 Zn2 2.896704 1_546
Fe0 Zn0 2.896704 1_456
Fe0 Zn1 2.910943 1_555
Fe1 Fe6 2.505440 1_545
Fe1 Fe4 2.531855 1_655
Fe1 Zn11 2.636335 1_545
Fe1 Zn16 2.648005 1_555
Fe1 Zn5 2.648037 1_555
Fe1 Zn13 2.660573 1_654
Fe1 Zn15 2.664868 1_545
Fe1 Zn0 2.741614 1_555
Fe1 Zn6 2.759285 1_545
Fe1 Zn7 2.763688 1_555
Fe1 Zn1 2.839670 1_545
Fe1 Zn2 2.955050 1_545
Fe1 Zn8 2.963389 1_545
Fe2 Fe5 2.505440 1_455
Fe2 Fe4 2.531855 1_565
Fe2 Zn9 2.636335 1_455
Fe2 Zn17 2.648005 1_555
Fe2 Zn6 2.648037 1_555
Fe2 Zn14 2.660573 1_564
Fe2 Zn15 2.664868 1_455
Fe2 Zn2 2.741614 1_555
Fe2 Zn5 2.759285 1_455
Fe2 Zn4 2.763688 1_555
Fe2 Zn1 2.839670 1_455
Fe2 Zn0 2.955050 1_455
Fe2 Zn3 2.963389 1_455
Fe3 Fe6 2.556700 1_556
Fe3 Fe5 2.556700 1_556
Fe3 Zn10 2.573517 1_556
Fe3 Zn1 2.609360 1_555
Fe3 Zn12 2.691225 1_665
Fe3 Zn15 2.703646 1_556
Fe3 Zn3 2.760211 1_555
Fe3 Zn8 2.760211 1_555
Fe3 Zn5 2.851961 1_556
Fe3 Zn6 2.851961 1_556
Fe3 Zn4 2.883185 1_556
Fe3 Zn7 2.883185 1_556
Fe4 Zn14 2.615847 1_554
Fe4 Zn13 2.615847 1_554
Fe4 Zn15 2.616543 1_445
Fe4 Zn0 2.622375 1_455
Fe4 Zn2 2.622375 1_545
Fe4 Fe7 2.652946 1_554
Fe4 Zn1 2.668035 1_445
Fe4 Fe5 2.680135 1_445
Fe4 Fe6 2.680135 1_445
Fe5 Zn14 2.567583 1_664
Fe5 Zn15 2.590116 1_555
Fe5 Fe7 2.597195 1_664
Fe5 Zn12 2.608143 1_664
Fe5 Fe6 2.639186 1_555
Fe5 Zn5 2.653060 1_555
Fe5 Zn3 2.696069 1_554
Fe5 Zn16 2.706683 1_664
Fe5 Zn4 2.745553 1_655
Fe6 Zn13 2.567583 1_664
Fe6 Zn15 2.590116 1_555
Fe6 Fe7 2.597195 1_664
Fe6 Zn12 2.608143 1_664
Fe6 Zn6 2.653060 1_555
Fe6 Zn8 2.696069 1_554
Fe6 Zn17 2.706683 1_664
Fe6 Zn7 2.745553 1_565
Fe7 Zn12 2.542387 1_555
Fe7 Zn13 2.570457 1_555
Fe7 Zn14 2.570457 1_555
Fe7 Zn16 2.680861 1_555
Fe7 Zn17 2.680861 1_555
Fe7 Zn11 2.744957 1_555
Fe7 Zn9 2.744957 1_555
Fe7 Zn10 2.846738 1_555
