# generated using pymatgen
data_KMg14Si
_symmetry_space_group_name_H-M   'P 1'
_cell_length_a   6.82966160
_cell_length_b   6.82966160
_cell_length_c   10.23580600
_cell_angle_alpha   90.00000000
_cell_angle_beta   90.00000000
_cell_angle_gamma   126.16539721
_symmetry_Int_Tables_number   1
_chemical_formula_structural   KMg14Si
_chemical_formula_sum   'K1 Mg14 Si1'
_cell_volume   385.44679170
_cell_formula_units_Z   1
loop_
 _symmetry_equiv_pos_site_id
 _symmetry_equiv_pos_as_xyz
  1  'x, y, z'
loop_
 _atom_site_type_symbol
 _atom_site_label
 _atom_site_symmetry_multiplicity
 _atom_site_fract_x
 _atom_site_fract_y
 _atom_site_fract_z
 _atom_site_occupancy
  K  K0  1  0.81421900  0.18578100  0.50000000  1
  Mg  Mg0  1  0.83324900  0.16675100  0.00000000  1
  Mg  Mg1  1  0.32677200  0.67322800  0.00000000  1
  Mg  Mg2  1  0.32184100  0.19166000  0.50000000  1
  Mg  Mg3  1  0.32391800  0.16626400  0.00000000  1
  Mg  Mg4  1  0.80834000  0.67815900  0.50000000  1
  Mg  Mg5  1  0.83373600  0.67608200  0.00000000  1
  Mg  Mg6  1  0.18105300  0.33731900  0.24671800  1
  Mg  Mg7  1  0.18105300  0.33731900  0.75328200  1
  Mg  Mg8  1  0.66268100  0.81894700  0.24671800  1
  Mg  Mg9  1  0.66268100  0.81894700  0.75328200  1
  Mg  Mg10  1  0.66035300  0.33964700  0.23461100  1
  Mg  Mg11  1  0.66035300  0.33964700  0.76538900  1
  Mg  Mg12  1  0.17997500  0.82002500  0.27417900  1
  Mg  Mg13  1  0.17997500  0.82002500  0.72582100  1
  Si  Si0  1  0.36980700  0.63019300  0.50000000  1
loop_
_geom_bond_atom_site_label_1
_geom_bond_atom_site_label_2
_geom_bond_distance
_geom_bond_site_symmetry_2
K0 Si0 3.165074 1_655
K0 Si0 3.165074 1_545
K0 Mg10 3.300170 1_555
K0 Mg11 3.300170 1_555
K0 Mg7 3.317973 1_655
K0 Mg6 3.317973 1_655
K0 Mg8 3.317973 1_545
K0 Mg9 3.317973 1_545
K0 Mg2 3.386624 1_555
K0 Mg4 3.386624 1_555
K0 Mg2 3.443345 1_655
K0 Mg4 3.443345 1_545
Mg0 Mg1 3.092821 1_545
Mg0 Mg1 3.092821 1_655
Mg0 Mg7 3.179787 1_654
Mg0 Mg6 3.179787 1_655
Mg0 Mg8 3.179787 1_545
Mg0 Mg9 3.179787 1_544
Mg0 Mg10 3.193933 1_555
Mg0 Mg11 3.193933 1_554
Mg0 Mg3 3.353067 1_655
Mg0 Mg5 3.353067 1_545
Mg0 Mg5 3.476597 1_555
Mg0 Mg3 3.476597 1_555
Mg1 Mg6 3.152191 1_555
Mg1 Mg9 3.152191 1_554
Mg1 Mg8 3.152191 1_555
Mg1 Mg7 3.152191 1_554
Mg1 Mg13 3.327574 1_554
Mg1 Mg12 3.327574 1_555
Mg1 Mg3 3.378808 1_565
Mg1 Mg5 3.378808 1_455
Mg1 Mg5 3.450926 1_555
Mg1 Mg3 3.450926 1_555
Mg2 Si0 2.814169 1_555
Mg2 Mg6 3.124805 1_555
Mg2 Mg7 3.124805 1_555
Mg3 Mg5 3.031104 1_445
Mg3 Mg5 3.152526 1_555
Mg3 Mg7 3.168532 1_554
Mg3 Mg6 3.168532 1_555
Mg4 Si0 2.814169 1_555
Mg4 Mg8 3.124805 1_555
Mg4 Mg9 3.124805 1_555
Mg5 Mg9 3.168532 1_554
Mg5 Mg8 3.168532 1_555
Mg6 Mg8 2.978209 1_555
Mg6 Si0 3.056266 1_555
Mg6 Mg8 3.205421 1_445
Mg7 Mg9 2.978209 1_555
Mg7 Si0 3.056266 1_555
Mg7 Mg9 3.205421 1_445
Mg8 Si0 3.056266 1_555
Mg9 Si0 3.056266 1_555
Mg10 Mg3 3.039313 1_555
Mg10 Mg5 3.039313 1_555
Mg10 Mg12 3.127374 1_545
Mg10 Mg12 3.127374 1_655
Mg10 Mg8 3.266451 1_555
Mg10 Mg6 3.266451 1_555
Mg10 Mg2 3.314800 1_555
Mg10 Mg4 3.314800 1_555
Mg11 Mg3 3.039313 1_556
Mg11 Mg5 3.039313 1_556
Mg11 Mg13 3.127374 1_655
Mg11 Mg13 3.127374 1_545
Mg11 Mg9 3.266451 1_555
Mg11 Mg7 3.266451 1_555
Mg11 Mg2 3.314800 1_555
Mg11 Mg4 3.314800 1_555
Mg12 Si0 3.269319 1_555
Mg12 Mg6 3.313014 1_555
Mg12 Mg8 3.313014 1_555
Mg12 Mg5 3.419163 1_455
Mg12 Mg3 3.419163 1_565
Mg13 Si0 3.269319 1_555
Mg13 Mg9 3.313014 1_555
Mg13 Mg7 3.313014 1_555
Mg13 Mg3 3.419163 1_566
Mg13 Mg5 3.419163 1_456
