# generated using pymatgen
data_Pr3GaCo3
_symmetry_space_group_name_H-M   'P 1'
_cell_length_a   4.15056000
_cell_length_b   5.59542567
_cell_length_c   13.27729500
_cell_angle_alpha   90.00000000
_cell_angle_beta   90.00000000
_cell_angle_gamma   111.77043447
_symmetry_Int_Tables_number   1
_chemical_formula_structural   Pr3GaCo3
_chemical_formula_sum   'Pr6 Ga2 Co6'
_cell_volume   286.36126908
_cell_formula_units_Z   2
loop_
 _symmetry_equiv_pos_site_id
 _symmetry_equiv_pos_as_xyz
  1  'x, y, z'
loop_
 _atom_site_type_symbol
 _atom_site_label
 _atom_site_symmetry_multiplicity
 _atom_site_fract_x
 _atom_site_fract_y
 _atom_site_fract_z
 _atom_site_occupancy
  Pr  Pr0  1  0.20827200  0.41654400  0.39448200  1
  Pr  Pr1  1  0.79172800  0.58345600  0.60551800  1
  Pr  Pr2  1  0.20827200  0.41654400  0.10551800  1
  Pr  Pr3  1  0.79172800  0.58345600  0.89448200  1
  Pr  Pr4  1  0.49430500  0.98860900  0.25000000  1
  Pr  Pr5  1  0.50569500  0.01139100  0.75000000  1
  Ga  Ga0  1  0.50000000  0.00000000  0.50000000  1
  Ga  Ga1  1  0.50000000  0.00000000  0.00000000  1
  Co  Co0  1  0.91965600  0.83931300  0.40702000  1
  Co  Co1  1  0.08034400  0.16068700  0.59298000  1
  Co  Co2  1  0.91965600  0.83931300  0.09298000  1
  Co  Co3  1  0.08034400  0.16068700  0.90702000  1
  Co  Co4  1  0.80067400  0.60134700  0.25000000  1
  Co  Co5  1  0.19932600  0.39865300  0.75000000  1
loop_
_geom_bond_atom_site_label_1
_geom_bond_atom_site_label_2
_geom_bond_distance
_geom_bond_site_symmetry_2
Ga0 Pr0 3.309782 1_655
Ga0 Pr0 3.309782 1_555
Ga0 Pr1 3.309782 1_545
Ga0 Pr1 3.309782 1_445
Ga0 Pr5 3.319851 1_555
Ga0 Pr4 3.319851 1_545
Ga0 Pr1 3.339885 1_555
Ga0 Pr0 3.339885 1_545
Ga1 Pr2 3.309782 1_655
Ga1 Pr2 3.309782 1_555
Ga1 Pr3 3.309782 1_444
Ga1 Pr3 3.309782 1_544
Ga1 Pr4 3.319851 1_545
Ga1 Pr5 3.319851 1_554
Ga1 Pr3 3.339885 1_554
Ga1 Pr2 3.339885 1_545
Co0 Co4 2.423935 1_555
Co0 Ga0 2.555000 1_565
Co0 Ga0 2.555003 1_665
Co0 Pr1 2.951876 1_555
Co0 Pr0 3.004107 1_665
Co0 Pr0 3.026658 1_555
Co0 Pr0 3.026661 1_655
Co0 Pr4 3.042206 1_555
Co0 Pr4 3.042212 1_655
Co1 Co5 2.423935 1_555
Co1 Ga0 2.555000 1_555
Co1 Ga0 2.555003 1_455
Co1 Pr0 2.951876 1_555
Co1 Pr1 3.004107 1_445
Co1 Pr1 3.026658 1_555
Co1 Pr1 3.026661 1_455
Co1 Pr5 3.042206 1_555
Co1 Pr5 3.042212 1_455
Co2 Co4 2.423935 1_555
Co2 Ga1 2.555000 1_565
Co2 Ga1 2.555003 1_665
Co2 Pr3 2.951876 1_554
Co2 Pr2 3.004107 1_665
Co2 Pr2 3.026658 1_555
Co2 Pr2 3.026661 1_655
Co2 Pr4 3.042206 1_555
Co2 Pr4 3.042212 1_655
Co3 Co5 2.423935 1_555
Co3 Ga1 2.555000 1_556
Co3 Ga1 2.555003 1_456
Co3 Pr2 2.951876 1_556
Co3 Pr3 3.004107 1_445
Co3 Pr3 3.026658 1_555
Co3 Pr3 3.026661 1_455
Co3 Pr5 3.042206 1_555
Co3 Pr5 3.042212 1_455
Co4 Pr4 2.890731 1_655
Co4 Pr4 2.890731 1_555
Co4 Pr0 2.984786 1_655
Co4 Pr2 2.984786 1_655
Co4 Pr0 2.984789 1_555
Co4 Pr2 2.984789 1_555
Co4 Pr4 3.183998 1_545
Co5 Pr5 2.890731 1_555
Co5 Pr5 2.890731 1_455
Co5 Pr3 2.984786 1_455
Co5 Pr1 2.984786 1_455
Co5 Pr1 2.984789 1_555
Co5 Pr3 2.984789 1_555
Co5 Pr5 3.183998 1_565
