# generated using pymatgen
data_Sc2(WO4)3
_symmetry_space_group_name_H-M   'P 1'
_cell_length_a   5.80723800
_cell_length_b   6.97424600
_cell_length_c   11.04630859
_cell_angle_alpha   74.00159336
_cell_angle_beta   90.00000000
_cell_angle_gamma   90.00000000
_symmetry_Int_Tables_number   1
_chemical_formula_structural   Sc2(WO4)3
_chemical_formula_sum   'Sc4 W6 O24'
_cell_volume   430.06010720
_cell_formula_units_Z   2
loop_
 _symmetry_equiv_pos_site_id
 _symmetry_equiv_pos_as_xyz
  1  'x, y, z'
loop_
 _atom_site_type_symbol
 _atom_site_label
 _atom_site_symmetry_multiplicity
 _atom_site_fract_x
 _atom_site_fract_y
 _atom_site_fract_z
 _atom_site_occupancy
  Sc  Sc0  1  0.66152900  0.31999300  0.59321900  1
  Sc  Sc1  1  0.66152900  0.68000700  0.90678100  1
  Sc  Sc2  1  0.33847100  0.68000700  0.40678100  1
  Sc  Sc3  1  0.33847100  0.31999300  0.09321900  1
  W  W0  1  0.16834900  0.83820600  0.07598900  1
  W  W1  1  0.17773700  0.50000000  0.75000000  1
  W  W2  1  0.16834900  0.16179400  0.42401100  1
  W  W3  1  0.83165100  0.16179400  0.92401100  1
  W  W4  1  0.83165100  0.83820600  0.57598900  1
  W  W5  1  0.82226300  0.50000000  0.25000000  1
  O  O0  1  0.09861000  0.96838800  0.90750000  1
  O  O1  1  0.11667600  0.64364500  0.57156800  1
  O  O2  1  0.10811100  0.30787700  0.24278600  1
  O  O3  1  0.09861000  0.03161200  0.59250000  1
  O  O4  1  0.10811100  0.69212300  0.25721400  1
  O  O5  1  0.11667600  0.35635500  0.92843200  1
  O  O6  1  0.89188900  0.69212300  0.75721400  1
  O  O7  1  0.88332400  0.35635500  0.42843200  1
  O  O8  1  0.90139000  0.03161200  0.09250000  1
  O  O9  1  0.88332400  0.64364500  0.07156800  1
  O  O10  1  0.89188900  0.30787700  0.74278600  1
  O  O11  1  0.90139000  0.96838800  0.40750000  1
  O  O12  1  0.38159700  0.33150300  0.70899400  1
  O  O13  1  0.36560100  0.98097500  0.38915200  1
  O  O14  1  0.37034800  0.64462200  0.04488000  1
  O  O15  1  0.37034800  0.35537800  0.45512000  1
  O  O16  1  0.36560100  0.01902500  0.11084800  1
  O  O17  1  0.38159700  0.66849700  0.79100600  1
  O  O18  1  0.61840300  0.66849700  0.29100600  1
  O  O19  1  0.62965200  0.35537800  0.95512000  1
  O  O20  1  0.63439900  0.01902500  0.61084800  1
  O  O21  1  0.62965200  0.64462200  0.54488000  1
  O  O22  1  0.61840300  0.33150300  0.20899400  1
  O  O23  1  0.63439900  0.98097500  0.88915200  1
loop_
_geom_bond_atom_site_label_1
_geom_bond_atom_site_label_2
_geom_bond_distance
_geom_bond_site_symmetry_2
O0 W0 1.876400 1_556
O0 W3 2.095641 1_465
O1 W1 1.981372 1_555
O1 W4 2.149383 1_455
O1 Sc2 2.186845 1_555
O2 W2 2.010870 1_555
O2 Sc3 2.109364 1_555
O2 W5 2.148519 1_455
O3 W2 1.876400 1_555
O3 W4 2.095641 1_445
O4 W0 2.010870 1_555
O4 Sc2 2.109364 1_555
O4 W5 2.148519 1_455
O5 W1 1.981372 1_555
O5 W3 2.149383 1_455
O5 Sc3 2.186845 1_556
O6 W4 2.010870 1_555
O6 Sc1 2.109364 1_555
O6 W1 2.148519 1_655
O7 W5 1.981372 1_555
O7 W2 2.149383 1_655
O7 Sc0 2.186845 1_555
O8 W3 1.876400 1_554
O8 W0 2.095641 1_645
O9 W5 1.981372 1_555
O9 W0 2.149383 1_655
O9 Sc1 2.186845 1_554
O10 W3 2.010870 1_555
O10 Sc0 2.109364 1_555
O10 W1 2.148519 1_655
O11 W4 1.876400 1_555
O11 W2 2.095641 1_665
O12 W1 1.811374 1_555
O12 Sc0 2.083569 1_555
O13 W2 1.821648 1_565
O13 Sc2 2.059936 1_555
O14 W0 1.890149 1_555
O14 Sc3 2.186068 1_555
O14 Sc1 2.244956 1_554
O15 W2 1.890149 1_555
O15 Sc2 2.186068 1_555
O15 Sc0 2.244956 1_555
O16 W0 1.821648 1_545
O16 Sc3 2.059936 1_555
O17 W1 1.811374 1_555
O17 Sc1 2.083569 1_555
O18 W5 1.811374 1_555
O18 Sc2 2.083569 1_555
O19 W3 1.890149 1_555
O19 Sc1 2.186068 1_555
O19 Sc3 2.244956 1_556
O20 W4 1.821648 1_545
O20 Sc0 2.059936 1_555
O21 W4 1.890149 1_555
O21 Sc0 2.186068 1_555
O21 Sc2 2.244956 1_555
O22 W5 1.811374 1_555
O22 Sc3 2.083569 1_555
O23 W3 1.821648 1_565
O23 Sc1 2.059936 1_555
