# generated using pymatgen
data_U2Co12P7
_symmetry_space_group_name_H-M   'P 1'
_cell_length_a   8.97836749
_cell_length_b   8.94746592
_cell_length_c   3.61613910
_cell_angle_alpha   90.00000000
_cell_angle_beta   90.00000000
_cell_angle_gamma   120.05236637
_symmetry_Int_Tables_number   1
_chemical_formula_structural   U2Co12P7
_chemical_formula_sum   'U2 Co12 P7'
_cell_volume   251.44544939
_cell_formula_units_Z   1
loop_
 _symmetry_equiv_pos_site_id
 _symmetry_equiv_pos_as_xyz
  1  'x, y, z'
loop_
 _atom_site_type_symbol
 _atom_site_label
 _atom_site_symmetry_multiplicity
 _atom_site_fract_x
 _atom_site_fract_y
 _atom_site_fract_z
 _atom_site_occupancy
  U  U0  1  0.00050840  0.00086768  0.00000000  1
  U  U1  1  0.33371362  0.66721568  0.50000000  1
  Co  Co0  1  0.10201357  0.39644816  0.00000000  1
  Co  Co1  1  0.60687656  0.70719944  0.00000000  1
  Co  Co2  1  0.29264655  0.89649583  0.00000000  1
  Co  Co3  1  0.04571824  0.76968214  0.50000000  1
  Co  Co4  1  0.22954499  0.27564312  0.50000000  1
  Co  Co5  1  0.72627427  0.95538067  0.50000000  1
  Co  Co6  1  0.81524428  0.60458146  0.00000000  1
  Co  Co7  1  0.39423722  0.21065000  0.00000000  1
  Co  Co8  1  0.78887436  0.18469447  0.00000000  1
  Co  Co9  1  0.89998203  0.44089737  0.50000000  1
  Co  Co10  1  0.55902632  0.45880247  0.50000000  1
  Co  Co11  1  0.54052073  0.09911299  0.50000000  1
  P  P0  1  0.77173388  0.73164228  0.50000000  1
  P  P1  1  0.26835443  0.03923773  0.50000000  1
  P  P2  1  0.96072499  0.22931614  0.50000000  1
  P  P3  1  0.66527064  0.33229563  0.00000000  1
  P  P4  1  0.06860428  0.62868604  0.00000000  1
  P  P5  1  0.37123937  0.44283757  0.00000000  1
  P  P6  1  0.55889428  0.92831014  0.00000000  1
loop_
_geom_bond_atom_site_label_1
_geom_bond_atom_site_label_2
_geom_bond_distance
_geom_bond_site_symmetry_2
Co0 P5 2.238366 1_555
Co0 P4 2.243234 1_555
Co0 P2 2.283543 1_455
Co0 P2 2.283543 1_454
Co0 U1 2.901423 1_555
Co0 U1 2.901423 1_554
Co0 U0 3.182363 1_555
Co1 P6 2.225583 1_555
Co1 P5 2.249157 1_555
Co1 P0 2.276744 1_554
Co1 P0 2.276744 1_555
Co1 U1 2.921188 1_555
Co1 U1 2.921188 1_554
Co1 U0 3.177033 1_665
Co2 P4 2.227202 1_555
Co2 P6 2.261379 1_555
Co2 P1 2.286234 1_565
Co2 P1 2.286234 1_564
Co2 U1 2.893308 1_555
Co2 U1 2.893308 1_554
Co2 U0 3.194551 1_565
Co3 P1 2.232472 1_565
Co3 P4 2.272113 1_555
Co3 P4 2.272113 1_556
Co3 P0 2.308359 1_455
Co3 U0 2.924660 1_565
Co3 U0 2.924660 1_566
Co4 P2 2.234969 1_455
Co4 P5 2.284585 1_556
Co4 P5 2.284585 1_555
Co4 P1 2.309506 1_555
Co4 U0 2.911794 1_556
Co4 U0 2.911794 1_555
Co5 P0 2.234397 1_555
Co5 P6 2.285085 1_555
Co5 P6 2.285085 1_556
Co5 P2 2.295857 1_565
Co5 U0 2.914342 1_665
Co5 U0 2.914342 1_666
Co6 P3 2.112544 1_555
Co6 P4 2.174778 1_655
Co6 P0 2.271349 1_554
Co6 P0 2.271349 1_555
Co6 U0 3.071149 1_665
Co7 P3 2.110328 1_555
Co7 P5 2.188206 1_555
Co7 P1 2.272135 1_554
Co7 P1 2.272135 1_555
Co7 U0 3.061679 1_555
Co8 P3 2.107992 1_555
Co8 P6 2.186720 1_545
Co8 P2 2.278636 1_554
Co8 P2 2.278636 1_555
Co8 U0 3.073442 1_655
Co9 P2 2.217072 1_555
Co9 P4 2.415891 1_656
Co9 P4 2.415891 1_655
Co9 P3 2.569670 1_556
Co9 P3 2.569670 1_555
Co10 P0 2.221990 1_555
Co10 P5 2.427131 1_556
Co10 P5 2.427131 1_555
Co10 P3 2.557678 1_555
Co10 P3 2.557678 1_556
Co11 P1 2.224195 1_555
Co11 P6 2.425776 1_545
Co11 P6 2.425776 1_546
Co11 P3 2.556580 1_556
Co11 P3 2.556580 1_555
P0 U0 2.887060 1_666
P0 U0 2.887060 1_665
P1 U0 2.888464 1_556
P1 U0 2.888464 1_555
P2 U0 2.882021 1_655
P2 U0 2.882021 1_656
P4 U1 2.869090 1_554
P4 U1 2.869090 1_555
P5 U1 2.844403 1_554
P5 U1 2.844403 1_555
P6 U1 2.843161 1_555
P6 U1 2.843161 1_554
