# generated using pymatgen
data_YbTlCd
_symmetry_space_group_name_H-M   'P 1'
_cell_length_a   6.86821408
_cell_length_b   9.89595421
_cell_length_c   9.89389580
_cell_angle_alpha   120.01061093
_cell_angle_beta   90.00000000
_cell_angle_gamma   90.00000000
_symmetry_Int_Tables_number   1
_chemical_formula_structural   YbTlCd
_chemical_formula_sum   'Yb8 Tl8 Cd8'
_cell_volume   582.30835188
_cell_formula_units_Z   8
loop_
 _symmetry_equiv_pos_site_id
 _symmetry_equiv_pos_as_xyz
  1  'x, y, z'
loop_
 _atom_site_type_symbol
 _atom_site_label
 _atom_site_symmetry_multiplicity
 _atom_site_fract_x
 _atom_site_fract_y
 _atom_site_fract_z
 _atom_site_occupancy
  Yb  Yb0_0  1  0.00000000  0.00000180  0.49999040  1
  Yb  Yb0_1  1  0.00000000  0.00000180  0.99999040  1
  Yb  Yb0_2  1  0.00000000  0.50000180  0.49999040  1
  Yb  Yb0_3  1  0.00000000  0.50000180  0.99999040  1
  Yb  Yb0_4  1  0.50000000  0.00000180  0.49999040  1
  Yb  Yb0_5  1  0.50000000  0.00000180  0.99999040  1
  Yb  Yb0_6  1  0.50000000  0.50000180  0.49999040  1
  Yb  Yb0_7  1  0.50000000  0.50000180  0.99999040  1
  Tl  Tl0_0  1  0.25000000  0.33330911  0.16668742  1
  Tl  Tl0_1  1  0.25000000  0.33330911  0.66668742  1
  Tl  Tl0_2  1  0.25000000  0.83330911  0.16668742  1
  Tl  Tl0_3  1  0.25000000  0.83330911  0.66668742  1
  Tl  Tl0_4  1  0.75000000  0.33330911  0.16668742  1
  Tl  Tl0_5  1  0.75000000  0.33330911  0.66668742  1
  Tl  Tl0_6  1  0.75000000  0.83330911  0.16668742  1
  Tl  Tl0_7  1  0.75000000  0.83330911  0.66668742  1
  Cd  Cd0_0  1  0.25000000  0.16663909  0.33332218  1
  Cd  Cd0_1  1  0.25000000  0.16663909  0.83332218  1
  Cd  Cd0_2  1  0.25000000  0.66663909  0.33332218  1
  Cd  Cd0_3  1  0.25000000  0.66663909  0.83332218  1
  Cd  Cd0_4  1  0.75000000  0.16663909  0.33332218  1
  Cd  Cd0_5  1  0.75000000  0.16663909  0.83332218  1
  Cd  Cd0_6  1  0.75000000  0.66663909  0.33332218  1
  Cd  Cd0_7  1  0.75000000  0.66663909  0.83332218  1
loop_
_geom_bond_atom_site_label_1
_geom_bond_atom_site_label_2
_geom_bond_distance
_geom_bond_site_symmetry_2
Yb0_0 Yb0_4 3.434107 1_455
Yb0_0 Yb0_4 3.434107 1_555
Yb0_1 Yb0_5 3.434107 1_555
Yb0_1 Yb0_5 3.434107 1_455
Yb0_2 Yb0_6 3.434107 1_555
Yb0_2 Yb0_6 3.434107 1_455
Yb0_3 Yb0_7 3.434107 1_555
Yb0_3 Yb0_7 3.434107 1_455
Tl0_0 Yb0_2 3.332038 1_555
Tl0_0 Yb0_6 3.332038 1_555
Tl0_0 Yb0_1 3.332578 1_554
Tl0_0 Yb0_5 3.332578 1_554
Tl0_0 Yb0_7 3.333322 1_554
Tl0_0 Yb0_3 3.333322 1_554
Tl0_0 Tl0_4 3.434107 1_555
Tl0_0 Tl0_4 3.434107 1_455
Tl0_1 Yb0_3 3.332038 1_555
Tl0_1 Yb0_7 3.332038 1_555
Tl0_1 Yb0_4 3.332578 1_555
Tl0_1 Yb0_0 3.332578 1_555
Tl0_1 Yb0_2 3.333322 1_555
Tl0_1 Yb0_6 3.333322 1_555
Tl0_1 Tl0_5 3.434107 1_455
Tl0_1 Tl0_5 3.434107 1_555
Tl0_2 Yb0_0 3.332038 1_565
Tl0_2 Yb0_4 3.332038 1_565
Tl0_2 Yb0_7 3.332578 1_554
Tl0_2 Yb0_3 3.332578 1_554
Tl0_2 Yb0_5 3.333322 1_564
Tl0_2 Yb0_1 3.333322 1_564
Tl0_2 Tl0_6 3.434107 1_455
Tl0_2 Tl0_6 3.434107 1_555
Tl0_3 Yb0_1 3.332038 1_565
Tl0_3 Yb0_5 3.332038 1_565
Tl0_3 Yb0_2 3.332578 1_555
Tl0_3 Yb0_6 3.332578 1_555
Tl0_3 Yb0_4 3.333322 1_565
Tl0_3 Yb0_0 3.333322 1_565
Tl0_3 Tl0_7 3.434107 1_555
Tl0_3 Tl0_7 3.434107 1_455
Tl0_4 Yb0_2 3.332038 1_655
Tl0_4 Yb0_6 3.332038 1_555
Tl0_4 Yb0_1 3.332578 1_654
Tl0_4 Yb0_5 3.332578 1_554
Tl0_4 Yb0_7 3.333322 1_554
Tl0_4 Yb0_3 3.333322 1_654
Tl0_5 Yb0_3 3.332038 1_655
Tl0_5 Yb0_7 3.332038 1_555
Tl0_5 Yb0_0 3.332578 1_655
Tl0_5 Yb0_4 3.332578 1_555
Tl0_5 Yb0_6 3.333322 1_555
Tl0_5 Yb0_2 3.333322 1_655
Tl0_6 Yb0_4 3.332038 1_565
Tl0_6 Yb0_0 3.332038 1_665
Tl0_6 Yb0_3 3.332578 1_654
Tl0_6 Yb0_7 3.332578 1_554
Tl0_6 Yb0_1 3.333322 1_664
Tl0_6 Yb0_5 3.333322 1_564
Tl0_7 Yb0_1 3.332038 1_665
Tl0_7 Yb0_5 3.332038 1_565
Tl0_7 Yb0_2 3.332578 1_655
Tl0_7 Yb0_6 3.332578 1_555
Tl0_7 Yb0_0 3.333322 1_665
Tl0_7 Yb0_4 3.333322 1_565
Cd0_0 Tl0_1 2.856090 1_555
Cd0_0 Tl0_0 2.856327 1_555
Cd0_0 Tl0_2 2.856382 1_545
Cd0_0 Yb0_1 3.332249 1_554
Cd0_0 Yb0_5 3.332249 1_554
Cd0_0 Yb0_4 3.332703 1_555
Cd0_0 Yb0_0 3.332703 1_555
Cd0_0 Yb0_6 3.332986 1_555
Cd0_0 Yb0_2 3.332986 1_555
Cd0_0 Cd0_4 3.434107 1_455
Cd0_0 Cd0_4 3.434107 1_555
Cd0_1 Tl0_0 2.856090 1_556
Cd0_1 Tl0_1 2.856327 1_555
Cd0_1 Tl0_3 2.856382 1_545
Cd0_1 Yb0_0 3.332249 1_555
Cd0_1 Yb0_4 3.332249 1_555
Cd0_1 Yb0_1 3.332703 1_555
Cd0_1 Yb0_5 3.332703 1_555
Cd0_1 Yb0_3 3.332986 1_555
Cd0_1 Yb0_7 3.332986 1_555
Cd0_1 Cd0_5 3.434107 1_455
Cd0_1 Cd0_5 3.434107 1_555
Cd0_2 Tl0_3 2.856090 1_555
Cd0_2 Tl0_2 2.856327 1_555
Cd0_2 Tl0_0 2.856382 1_555
Cd0_2 Yb0_3 3.332249 1_554
Cd0_2 Yb0_7 3.332249 1_554
Cd0_2 Yb0_2 3.332703 1_555
Cd0_2 Yb0_6 3.332703 1_555
Cd0_2 Yb0_0 3.332986 1_565
Cd0_2 Yb0_4 3.332986 1_565
Cd0_2 Cd0_6 3.434107 1_455
Cd0_2 Cd0_6 3.434107 1_555
Cd0_3 Tl0_2 2.856090 1_556
Cd0_3 Tl0_3 2.856327 1_555
Cd0_3 Tl0_1 2.856382 1_555
Cd0_3 Yb0_2 3.332249 1_555
Cd0_3 Yb0_6 3.332249 1_555
Cd0_3 Yb0_7 3.332703 1_555
Cd0_3 Yb0_3 3.332703 1_555
Cd0_3 Yb0_5 3.332986 1_565
Cd0_3 Yb0_1 3.332986 1_565
Cd0_3 Cd0_7 3.434107 1_555
Cd0_3 Cd0_7 3.434107 1_455
Cd0_4 Tl0_5 2.856090 1_555
Cd0_4 Tl0_4 2.856327 1_555
Cd0_4 Tl0_6 2.856382 1_545
Cd0_4 Yb0_1 3.332249 1_654
Cd0_4 Yb0_5 3.332249 1_554
Cd0_4 Yb0_4 3.332703 1_555
Cd0_4 Yb0_0 3.332703 1_655
Cd0_4 Yb0_2 3.332986 1_655
Cd0_4 Yb0_6 3.332986 1_555
Cd0_5 Tl0_4 2.856090 1_556
Cd0_5 Tl0_5 2.856327 1_555
Cd0_5 Tl0_7 2.856382 1_545
Cd0_5 Yb0_4 3.332249 1_555
Cd0_5 Yb0_0 3.332249 1_655
Cd0_5 Yb0_1 3.332703 1_655
Cd0_5 Yb0_5 3.332703 1_555
Cd0_5 Yb0_3 3.332986 1_655
Cd0_5 Yb0_7 3.332986 1_555
Cd0_6 Tl0_7 2.856090 1_555
Cd0_6 Tl0_6 2.856327 1_555
Cd0_6 Tl0_4 2.856382 1_555
Cd0_6 Yb0_3 3.332249 1_654
Cd0_6 Yb0_7 3.332249 1_554
Cd0_6 Yb0_6 3.332703 1_555
Cd0_6 Yb0_2 3.332703 1_655
Cd0_6 Yb0_0 3.332986 1_665
Cd0_6 Yb0_4 3.332986 1_565
Cd0_7 Tl0_6 2.856090 1_556
Cd0_7 Tl0_7 2.856327 1_555
Cd0_7 Tl0_5 2.856382 1_555
Cd0_7 Yb0_6 3.332249 1_555
Cd0_7 Yb0_2 3.332249 1_655
Cd0_7 Yb0_7 3.332703 1_555
Cd0_7 Yb0_3 3.332703 1_655
Cd0_7 Yb0_1 3.332986 1_665
Cd0_7 Yb0_5 3.332986 1_565
