# generated using pymatgen
data_ErCo3Ge2
_symmetry_space_group_name_H-M   'P 1'
_cell_length_a   3.68396200
_cell_length_b   5.24464629
_cell_length_c   5.24504821
_cell_angle_alpha   60.00253227
_cell_angle_beta   90.00000000
_cell_angle_gamma   90.00000000
_symmetry_Int_Tables_number   1
_chemical_formula_structural   ErCo3Ge2
_chemical_formula_sum   'Er1 Co3 Ge2'
_cell_volume   87.76523953
_cell_formula_units_Z   1
loop_
 _symmetry_equiv_pos_site_id
 _symmetry_equiv_pos_as_xyz
  1  'x, y, z'
loop_
 _atom_site_type_symbol
 _atom_site_label
 _atom_site_symmetry_multiplicity
 _atom_site_fract_x
 _atom_site_fract_y
 _atom_site_fract_z
 _atom_site_occupancy
  Er  Er0  1  0.88881300  0.00000000  0.00000000  1
  Co  Co0  1  0.45951600  0.50000000  0.00000000  1
  Co  Co1  1  0.45939700  0.50000000  0.50000000  1
  Co  Co2  1  0.45939700  0.00000000  0.50000000  1
  Ge  Ge0  1  0.96313800  0.66671300  0.66657300  1
  Ge  Ge1  1  0.96313800  0.33328700  0.33342700  1
loop_
_geom_bond_atom_site_label_1
_geom_bond_atom_site_label_2
_geom_bond_distance
_geom_bond_site_symmetry_2
Er0 Ge0 3.040237 1_545
Er0 Ge1 3.040237 1_554
Er0 Ge1 3.040639 1_545
Er0 Ge0 3.040639 1_554
Er0 Ge1 3.040644 1_555
Er0 Ge0 3.040644 1_544
Co0 Ge0 2.374419 1_454
Co0 Ge1 2.374419 1_455
Co0 Ge1 2.395032 1_555
Co0 Ge0 2.395032 1_554
Co0 Co2 2.622524 1_564
Co0 Co2 2.622524 1_555
Co0 Co1 2.622524 1_554
Co0 Co1 2.622524 1_555
Co0 Er0 3.062314 1_565
Co0 Er0 3.062314 1_555
Co0 Er0 3.361081 1_465
Co0 Er0 3.361081 1_455
Co1 Ge1 2.373599 1_455
Co1 Ge0 2.373599 1_455
Co1 Ge0 2.394893 1_555
Co1 Ge1 2.394893 1_555
Co1 Co2 2.622323 1_555
Co1 Co2 2.622323 1_565
Co1 Er0 3.062712 1_565
Co1 Er0 3.062712 1_556
Co1 Er0 3.360964 1_465
Co1 Er0 3.360964 1_456
Co2 Ge0 2.373602 1_445
Co2 Ge1 2.373602 1_455
Co2 Ge1 2.394896 1_555
Co2 Ge0 2.394896 1_545
Co2 Er0 3.062712 1_556
Co2 Er0 3.062712 1_555
Co2 Er0 3.360964 1_455
Co2 Er0 3.360964 1_456
