# generated using pymatgen
data_Dy5(CoB3)2
_symmetry_space_group_name_H-M   'P 1'
_cell_length_a   5.39013042
_cell_length_b   5.39013000
_cell_length_c   8.39797964
_cell_angle_alpha   71.28153366
_cell_angle_beta   71.28153107
_cell_angle_gamma   60.00000261
_symmetry_Int_Tables_number   1
_chemical_formula_structural   Dy5(CoB3)2
_chemical_formula_sum   'Dy5 Co2 B6'
_cell_volume   196.25888503
_cell_formula_units_Z   1
loop_
 _symmetry_equiv_pos_site_id
 _symmetry_equiv_pos_as_xyz
  1  'x, y, z'
loop_
 _atom_site_type_symbol
 _atom_site_label
 _atom_site_symmetry_multiplicity
 _atom_site_fract_x
 _atom_site_fract_y
 _atom_site_fract_z
 _atom_site_occupancy
  Dy  Dy0  1  0.00000000  0.00000000  0.00000000  1
  Dy  Dy1  1  0.74924300  0.74924300  0.75227100  1
  Dy  Dy2  1  0.25075700  0.25075700  0.24772900  1
  Dy  Dy3  1  0.58310700  0.58310700  0.25068000  1
  Dy  Dy4  1  0.41689300  0.41689300  0.74932000  1
  Co  Co0  1  0.88017000  0.88017000  0.35949000  1
  Co  Co1  1  0.11983000  0.11983000  0.64051000  1
  B  B0  1  0.50000000  0.16850000  0.50000000  1
  B  B1  1  0.83150000  0.50000000  0.50000000  1
  B  B2  1  0.16850000  0.83150000  0.50000000  1
  B  B3  1  0.16850000  0.50000000  0.50000000  1
  B  B4  1  0.83150000  0.16850000  0.50000000  1
  B  B5  1  0.50000000  0.83150000  0.50000000  1
loop_
_geom_bond_atom_site_label_1
_geom_bond_atom_site_label_2
_geom_bond_distance
_geom_bond_site_symmetry_2
Co0 Dy0 2.804058 1_665
Co1 Dy0 2.804058 1_556
B0 B3 1.786828 1_555
B0 B4 1.786828 1_555
B0 B5 1.816474 1_545
B0 Co1 2.108843 1_555
B0 Co0 2.108843 1_545
B0 Dy4 2.640963 1_555
B0 Dy3 2.640966 1_555
B0 Dy2 2.667961 1_555
B0 Dy1 2.667961 1_545
B1 B4 1.786828 1_555
B1 B5 1.786828 1_555
B1 B3 1.816474 1_655
B1 Co0 2.108843 1_555
B1 Co1 2.108843 1_655
B1 Dy3 2.640963 1_555
B1 Dy4 2.640966 1_555
B1 Dy1 2.667961 1_555
B1 Dy2 2.667961 1_655
B2 B3 1.786828 1_555
B2 B5 1.786828 1_555
B2 B4 1.816474 1_465
B2 Co1 2.108843 1_565
B2 Co0 2.108843 1_455
B2 Dy3 2.640965 1_555
B2 Dy4 2.640965 1_555
B2 Dy2 2.667961 1_565
B2 Dy1 2.667961 1_455
B3 Co1 2.108843 1_555
B3 Co0 2.108843 1_455
B3 Dy4 2.640963 1_555
B3 Dy3 2.640966 1_555
B3 Dy2 2.667961 1_555
B3 Dy1 2.667961 1_455
B4 Co0 2.108843 1_545
B4 Co1 2.108843 1_655
B4 Dy4 2.640965 1_555
B4 Dy3 2.640965 1_555
B4 Dy1 2.667961 1_545
B4 Dy2 2.667961 1_655
B5 Co0 2.108843 1_555
B5 Co1 2.108843 1_565
B5 Dy3 2.640963 1_555
B5 Dy4 2.640966 1_555
B5 Dy1 2.667961 1_555
B5 Dy2 2.667961 1_565
