# generated using pymatgen
data_Rb2U6Pt4Se17
_symmetry_space_group_name_H-M   'P 1'
_cell_length_a   10.65991600
_cell_length_b   10.65991600
_cell_length_c   13.63593100
_cell_angle_alpha   90.00000000
_cell_angle_beta   90.00000000
_cell_angle_gamma   90.00000000
_symmetry_Int_Tables_number   1
_chemical_formula_structural   Rb2U6Pt4Se17
_chemical_formula_sum   'Rb4 U12 Pt8 Se34'
_cell_volume   1549.50278052
_cell_formula_units_Z   2
loop_
 _symmetry_equiv_pos_site_id
 _symmetry_equiv_pos_as_xyz
  1  'x, y, z'
loop_
 _atom_site_type_symbol
 _atom_site_label
 _atom_site_symmetry_multiplicity
 _atom_site_fract_x
 _atom_site_fract_y
 _atom_site_fract_z
 _atom_site_occupancy
  Rb  Rb0  1  0.50000000  0.50000000  0.23602000  1
  Rb  Rb1  1  0.00000000  0.00000000  0.73602000  1
  Rb  Rb2  1  0.50000000  0.50000000  0.76398000  1
  Rb  Rb3  1  0.00000000  0.00000000  0.26398000  1
  U  U0  1  0.00000000  0.50000000  0.25000000  1
  U  U1  1  0.50000000  0.00000000  0.75000000  1
  U  U2  1  0.50000000  0.00000000  0.25000000  1
  U  U3  1  0.00000000  0.50000000  0.75000000  1
  U  U4  1  0.62113400  0.74495000  0.50000000  1
  U  U5  1  0.37886600  0.25505000  0.50000000  1
  U  U6  1  0.87886600  0.24495000  0.00000000  1
  U  U7  1  0.12113400  0.75505000  0.00000000  1
  U  U8  1  0.74495000  0.37886600  0.50000000  1
  U  U9  1  0.25505000  0.62113400  0.50000000  1
  U  U10  1  0.24495000  0.12113400  0.00000000  1
  U  U11  1  0.75505000  0.87886600  0.00000000  1
  Pt  Pt0  1  0.93052800  0.63797500  0.50000000  1
  Pt  Pt1  1  0.06947200  0.36202500  0.50000000  1
  Pt  Pt2  1  0.56947200  0.13797500  0.00000000  1
  Pt  Pt3  1  0.43052800  0.86202500  0.00000000  1
  Pt  Pt4  1  0.63797500  0.06947200  0.50000000  1
  Pt  Pt5  1  0.36202500  0.93052800  0.50000000  1
  Pt  Pt6  1  0.13797500  0.43052800  0.00000000  1
  Pt  Pt7  1  0.86202500  0.56947200  0.00000000  1
  Se  Se0  1  0.77471600  0.59072100  0.36660800  1
  Se  Se1  1  0.22528400  0.40927900  0.36660800  1
  Se  Se2  1  0.72528400  0.09072100  0.86660800  1
  Se  Se3  1  0.27471600  0.90927900  0.86660800  1
  Se  Se4  1  0.59072100  0.22528400  0.36660800  1
  Se  Se5  1  0.40927900  0.77471600  0.36660800  1
  Se  Se6  1  0.09072100  0.27471600  0.86660800  1
  Se  Se7  1  0.90927900  0.72528400  0.86660800  1
  Se  Se8  1  0.22528400  0.40927900  0.63339200  1
  Se  Se9  1  0.77471600  0.59072100  0.63339200  1
  Se  Se10  1  0.27471600  0.90927900  0.13339200  1
  Se  Se11  1  0.72528400  0.09072100  0.13339200  1
  Se  Se12  1  0.40927900  0.77471600  0.63339200  1
  Se  Se13  1  0.59072100  0.22528400  0.63339200  1
  Se  Se14  1  0.90927900  0.72528400  0.13339200  1
  Se  Se15  1  0.09072100  0.27471600  0.13339200  1
  Se  Se16  1  0.57420600  0.78453800  0.13181100  1
  Se  Se17  1  0.42579400  0.21546200  0.13181100  1
  Se  Se18  1  0.92579400  0.28453800  0.63181100  1
  Se  Se19  1  0.07420600  0.71546200  0.63181100  1
  Se  Se20  1  0.78453800  0.42579400  0.13181100  1
  Se  Se21  1  0.21546200  0.57420600  0.13181100  1
  Se  Se22  1  0.28453800  0.07420600  0.63181100  1
  Se  Se23  1  0.71546200  0.92579400  0.63181100  1
  Se  Se24  1  0.42579400  0.21546200  0.86818900  1
  Se  Se25  1  0.57420600  0.78453800  0.86818900  1
  Se  Se26  1  0.07420600  0.71546200  0.36818900  1
  Se  Se27  1  0.92579400  0.28453800  0.36818900  1
  Se  Se28  1  0.21546200  0.57420600  0.86818900  1
  Se  Se29  1  0.78453800  0.42579400  0.86818900  1
  Se  Se30  1  0.71546200  0.92579400  0.36818900  1
  Se  Se31  1  0.28453800  0.07420600  0.36818900  1
  Se  Se32  1  0.50000000  0.50000000  0.50000000  1
  Se  Se33  1  0.00000000  0.00000000  0.00000000  1
loop_
_geom_bond_atom_site_label_1
_geom_bond_atom_site_label_2
_geom_bond_distance
_geom_bond_site_symmetry_2
Rb0 Se20 3.441647 1_555
Rb0 Se16 3.441647 1_555
Rb0 Se17 3.441647 1_555
Rb0 Se21 3.441647 1_555
Rb0 Se1 3.561167 1_555
Rb0 Se5 3.561167 1_555
Rb0 Se4 3.561167 1_555
Rb0 Se0 3.561167 1_555
Rb0 Se32 3.599613 1_555
Rb1 Se19 3.441647 1_545
Rb1 Se23 3.441647 1_445
Rb1 Se18 3.441647 1_455
Rb1 Se22 3.441647 1_555
Rb1 Se2 3.561167 1_455
Rb1 Se7 3.561167 1_445
Rb1 Se6 3.561167 1_555
Rb1 Se3 3.561167 1_545
Rb1 Se33 3.599613 1_556
Rb2 Se29 3.441647 1_555
Rb2 Se25 3.441647 1_555
Rb2 Se24 3.441647 1_555
Rb2 Se28 3.441647 1_555
Rb2 Se8 3.561167 1_555
Rb2 Se12 3.561167 1_555
Rb2 Se9 3.561167 1_555
Rb2 Se13 3.561167 1_555
Rb2 Se32 3.599613 1_555
Rb3 Se26 3.441647 1_545
Rb3 Se30 3.441647 1_445
Rb3 Se27 3.441647 1_455
Rb3 Se31 3.441647 1_555
Rb3 Se11 3.561167 1_455
Rb3 Se14 3.561167 1_445
Rb3 Se15 3.561167 1_555
Rb3 Se10 3.561167 1_545
Rb3 Se33 3.599613 1_555
Pt0 Se19 2.501718 1_655
Pt0 Se26 2.501718 1_655
Pt0 Se9 2.514151 1_555
Pt0 Se0 2.514151 1_555
Pt1 Se18 2.501718 1_455
Pt1 Se27 2.501718 1_455
Pt1 Se8 2.514151 1_555
Pt1 Se1 2.514151 1_555
Pt2 Se17 2.501718 1_555
Pt2 Se24 2.501718 1_554
Pt2 Se2 2.514151 1_554
Pt2 Se11 2.514151 1_555
Pt3 Se25 2.501718 1_554
Pt3 Se16 2.501718 1_555
Pt3 Se3 2.514151 1_554
Pt3 Se10 2.514151 1_555
Pt4 Se30 2.501718 1_545
Pt4 Se23 2.501718 1_545
Pt4 Se13 2.514151 1_555
Pt4 Se4 2.514151 1_555
Pt5 Se22 2.501718 1_565
Pt5 Se31 2.501718 1_565
Pt5 Se12 2.514151 1_555
Pt5 Se5 2.514151 1_555
Pt6 Se28 2.501718 1_554
Pt6 Se21 2.501718 1_555
Pt6 Se6 2.514151 1_554
Pt6 Se15 2.514151 1_555
Pt7 Se20 2.501718 1_555
Pt7 Se29 2.501718 1_554
Pt7 Se7 2.514151 1_554
Pt7 Se14 2.514151 1_555
Se0 U8 2.917077 1_555
Se0 U4 2.948182 1_555
Se0 U0 3.038218 1_655
Se1 U9 2.917077 1_555
Se1 U5 2.948182 1_555
Se1 U0 3.038218 1_555
Se2 U11 2.917077 1_546
Se2 U6 2.948182 1_556
Se2 U1 3.038218 1_555
Se3 U10 2.917077 1_566
Se3 U7 2.948182 1_556
Se3 U1 3.038218 1_565
Se4 U5 2.917077 1_555
Se4 U8 2.948182 1_555
Se4 U2 3.038218 1_555
Se5 U4 2.917077 1_555
Se5 U9 2.948182 1_555
Se5 U2 3.038218 1_565
Se6 U6 2.917077 1_456
Se6 U10 2.948182 1_556
Se6 U3 3.038218 1_555
Se7 U7 2.917077 1_656
Se7 U11 2.948182 1_556
Se7 U3 3.038218 1_655
Se8 U9 2.917077 1_555
Se8 U5 2.948182 1_555
Se8 U3 3.038218 1_555
Se9 U8 2.917077 1_555
Se9 U4 2.948182 1_555
Se9 U3 3.038218 1_655
Se10 U10 2.917077 1_565
Se10 U7 2.948182 1_555
Se10 U2 3.038218 1_565
Se11 U11 2.917077 1_545
Se11 U6 2.948182 1_555
Se11 U2 3.038218 1_555
Se12 U4 2.917077 1_555
Se12 U9 2.948182 1_555
Se12 U1 3.038218 1_565
Se13 U5 2.917077 1_555
Se13 U8 2.948182 1_555
Se13 U1 3.038218 1_555
Se14 U7 2.917077 1_655
Se14 U11 2.948182 1_555
Se14 U0 3.038218 1_655
Se15 U6 2.917077 1_455
Se15 U10 2.948182 1_555
Se15 U0 3.038218 1_555
Se16 U11 2.820985 1_555
Se16 U2 2.915195 1_565
Se17 U10 2.820985 1_555
Se17 U2 2.915195 1_555
Se18 U8 2.820985 1_555
Se18 U3 2.915195 1_655
Se19 U9 2.820985 1_555
Se19 U3 2.915195 1_555
Se20 U6 2.820985 1_555
Se20 U0 2.915195 1_655
Se21 U7 2.820985 1_555
Se21 U0 2.915195 1_555
Se22 U5 2.820985 1_555
Se22 U1 2.915195 1_555
Se23 U4 2.820985 1_555
Se23 U1 2.915195 1_565
Se24 U10 2.820985 1_556
Se24 U1 2.915195 1_555
Se25 U11 2.820985 1_556
Se25 U1 2.915195 1_565
Se26 U9 2.820985 1_555
Se26 U0 2.915195 1_555
Se27 U8 2.820985 1_555
Se27 U0 2.915195 1_655
Se28 U7 2.820985 1_556
Se28 U3 2.915195 1_555
Se29 U6 2.820985 1_556
Se29 U3 2.915195 1_655
Se30 U4 2.820985 1_555
Se30 U2 2.915195 1_565
Se31 U5 2.820985 1_555
Se31 U2 2.915195 1_555
Se32 U9 2.912986 1_555
Se32 U4 2.912986 1_555
Se32 U8 2.912986 1_555
Se32 U5 2.912986 1_555
Se33 U6 2.912986 1_455
Se33 U11 2.912986 1_445
Se33 U10 2.912986 1_555
Se33 U7 2.912986 1_545
