# generated using pymatgen
data_Ta4Te3N2
_symmetry_space_group_name_H-M   'P 1'
_cell_length_a   5.53019700
_cell_length_b   10.74746700
_cell_length_c   15.00584000
_cell_angle_alpha   90.00000000
_cell_angle_beta   90.00000000
_cell_angle_gamma   90.00000000
_symmetry_Int_Tables_number   1
_chemical_formula_structural   Ta4Te3N2
_chemical_formula_sum   'Ta16 Te12 N8'
_cell_volume   891.88125038
_cell_formula_units_Z   4
loop_
 _symmetry_equiv_pos_site_id
 _symmetry_equiv_pos_as_xyz
  1  'x, y, z'
loop_
 _atom_site_type_symbol
 _atom_site_label
 _atom_site_symmetry_multiplicity
 _atom_site_fract_x
 _atom_site_fract_y
 _atom_site_fract_z
 _atom_site_occupancy
  Ta  Ta0  1  0.63053100  0.25000000  0.90393700  1
  Ta  Ta1  1  0.13053100  0.25000000  0.59606300  1
  Ta  Ta2  1  0.36946900  0.75000000  0.09606300  1
  Ta  Ta3  1  0.86946900  0.75000000  0.40393700  1
  Ta  Ta4  1  0.62517900  0.25000000  0.53417800  1
  Ta  Ta5  1  0.12517900  0.25000000  0.96582200  1
  Ta  Ta6  1  0.37482100  0.75000000  0.46582200  1
  Ta  Ta7  1  0.87482100  0.75000000  0.03417800  1
  Ta  Ta8  1  0.75657600  0.46071300  0.01833900  1
  Ta  Ta9  1  0.25657600  0.03928700  0.48166100  1
  Ta  Ta10  1  0.24342400  0.96071300  0.98166100  1
  Ta  Ta11  1  0.74342400  0.53928700  0.51833900  1
  Ta  Ta12  1  0.24342400  0.53928700  0.98166100  1
  Ta  Ta13  1  0.74342400  0.96071300  0.51833900  1
  Ta  Ta14  1  0.75657600  0.03928700  0.01833900  1
  Ta  Ta15  1  0.25657600  0.46071300  0.48166100  1
  Te  Te0  1  0.87046000  0.25000000  0.12805900  1
  Te  Te1  1  0.37046000  0.25000000  0.37194100  1
  Te  Te2  1  0.12954000  0.75000000  0.87194100  1
  Te  Te3  1  0.62954000  0.75000000  0.62805900  1
  Te  Te4  1  0.54675800  0.56408300  0.34028400  1
  Te  Te5  1  0.04675800  0.93591700  0.15971600  1
  Te  Te6  1  0.45324200  0.06408300  0.65971600  1
  Te  Te7  1  0.95324200  0.43591700  0.84028400  1
  Te  Te8  1  0.45324200  0.43591700  0.65971600  1
  Te  Te9  1  0.95324200  0.06408300  0.84028400  1
  Te  Te10  1  0.54675800  0.93591700  0.34028400  1
  Te  Te11  1  0.04675800  0.56408300  0.15971600  1
  N  N0  1  0.57051000  0.62110000  0.03163600  1
  N  N1  1  0.07051000  0.87890000  0.46836400  1
  N  N2  1  0.42949000  0.12110000  0.96836400  1
  N  N3  1  0.92949000  0.37890000  0.53163600  1
  N  N4  1  0.42949000  0.37890000  0.96836400  1
  N  N5  1  0.92949000  0.12110000  0.53163600  1
  N  N6  1  0.57051000  0.87890000  0.03163600  1
  N  N7  1  0.07051000  0.62110000  0.46836400  1
loop_
_geom_bond_atom_site_label_1
_geom_bond_atom_site_label_2
_geom_bond_distance
_geom_bond_site_symmetry_2
Ta0 Te7 2.844273 1_555
Ta0 Te9 2.844273 1_555
Ta1 Te8 2.844273 1_555
Ta1 Te6 2.844273 1_555
Ta2 Te5 2.844273 1_555
Ta2 Te11 2.844273 1_555
Ta3 Te10 2.844273 1_555
Ta3 Te4 2.844273 1_555
Ta4 Te1 2.812665 1_555
Ta4 Te6 2.906092 1_555
Ta4 Te8 2.906092 1_555
Ta5 Te0 2.812665 1_456
Ta5 Te7 2.906092 1_455
Ta5 Te9 2.906092 1_455
Ta6 Te3 2.812665 1_555
Ta6 Te10 2.906092 1_555
Ta6 Te4 2.906092 1_555
Ta7 Te2 2.812665 1_654
Ta7 Te11 2.906092 1_655
Ta7 Te5 2.906092 1_655
Ta8 Te0 2.869838 1_555
Ta8 Te11 2.882740 1_655
Ta8 Te7 2.897026 1_554
Ta9 Te1 2.869838 1_555
Ta9 Te10 2.882740 1_545
Ta9 Te6 2.897026 1_555
Ta10 Te2 2.869838 1_555
Ta10 Te9 2.882740 1_465
Ta10 Te5 2.897026 1_556
Ta11 Te3 2.869838 1_555
Ta11 Te8 2.882740 1_555
Ta11 Te4 2.897026 1_555
Ta12 Te2 2.869838 1_555
Ta12 Te7 2.882740 1_455
Ta12 Te11 2.897026 1_556
Ta13 Te3 2.869838 1_555
Ta13 Te6 2.882740 1_565
Ta13 Te10 2.897026 1_555
Ta14 Te0 2.869838 1_555
Ta14 Te5 2.882740 1_645
Ta14 Te9 2.897026 1_554
Ta15 Te1 2.869838 1_555
Ta15 Te4 2.882740 1_555
Ta15 Te8 2.897026 1_555
N0 Ta8 2.017410 1_555
N0 Ta2 2.022362 1_555
N0 Ta12 2.146497 1_554
N0 Ta7 2.180091 1_555
N1 Ta9 2.017410 1_565
N1 Ta3 2.022362 1_455
N1 Ta13 2.146497 1_455
N1 Ta6 2.180091 1_555
N2 Ta10 2.017410 1_545
N2 Ta0 2.022362 1_555
N2 Ta14 2.146497 1_556
N2 Ta5 2.180091 1_555
N3 Ta11 2.017410 1_555
N3 Ta1 2.022362 1_655
N3 Ta15 2.146497 1_655
N3 Ta4 2.180091 1_555
N4 Ta12 2.017410 1_555
N4 Ta0 2.022362 1_555
N4 Ta8 2.146497 1_556
N4 Ta5 2.180091 1_555
N5 Ta13 2.017410 1_545
N5 Ta1 2.022362 1_655
N5 Ta9 2.146497 1_655
N5 Ta4 2.180091 1_555
N6 Ta14 2.017410 1_565
N6 Ta2 2.022362 1_555
N6 Ta10 2.146497 1_554
N6 Ta7 2.180091 1_555
N7 Ta15 2.017410 1_555
N7 Ta3 2.022362 1_455
N7 Ta11 2.146497 1_455
N7 Ta6 2.180091 1_555
