# generated using pymatgen
data_MgZn2P2(H6O5)4
_symmetry_space_group_name_H-M   'P 1'
_cell_length_a   7.25883700
_cell_length_b   10.87817800
_cell_length_c   11.73744100
_cell_angle_alpha   74.27675373
_cell_angle_beta   90.00000000
_cell_angle_gamma   90.00000000
_symmetry_Int_Tables_number   1
_chemical_formula_structural   MgZn2P2(H6O5)4
_chemical_formula_sum   'Mg2 Zn4 P4 H48 O40'
_cell_volume   892.14266380
_cell_formula_units_Z   2
loop_
 _symmetry_equiv_pos_site_id
 _symmetry_equiv_pos_as_xyz
  1  'x, y, z'
loop_
 _atom_site_type_symbol
 _atom_site_label
 _atom_site_symmetry_multiplicity
 _atom_site_fract_x
 _atom_site_fract_y
 _atom_site_fract_z
 _atom_site_occupancy
  Mg  Mg0  1  0.00000000  0.50000000  0.50000000  1
  Mg  Mg1  1  0.50000000  0.50000000  0.00000000  1
  Zn  Zn0  1  0.19357500  0.06803100  0.61300500  1
  Zn  Zn1  1  0.69357500  0.93196900  0.88699500  1
  Zn  Zn2  1  0.80642500  0.93196900  0.38699500  1
  Zn  Zn3  1  0.30642500  0.06803100  0.11300500  1
  P  P0  1  0.36862800  0.14063800  0.83582000  1
  P  P1  1  0.86862800  0.85936200  0.66418000  1
  P  P2  1  0.63137200  0.85936200  0.16418000  1
  P  P3  1  0.13137200  0.14063800  0.33582000  1
  H  H0  1  0.48407600  0.90558400  0.67621600  1
  H  H1  1  0.98407600  0.09441600  0.82378400  1
  H  H2  1  0.51592400  0.09441600  0.32378400  1
  H  H3  1  0.01592400  0.90558400  0.17621600  1
  H  H4  1  0.29319100  0.83431100  0.67145600  1
  H  H5  1  0.79319100  0.16568900  0.82854400  1
  H  H6  1  0.70680900  0.16568900  0.32854400  1
  H  H7  1  0.20680900  0.83431100  0.17145600  1
  H  H8  1  0.08713200  0.30133700  0.69816100  1
  H  H9  1  0.58713200  0.69866300  0.80183900  1
  H  H10  1  0.91286800  0.69866300  0.30183900  1
  H  H11  1  0.41286800  0.30133700  0.19816100  1
  H  H12  1  0.99356200  0.41957000  0.73470000  1
  H  H13  1  0.49356200  0.58043000  0.76530000  1
  H  H14  1  0.00643800  0.58043000  0.26530000  1
  H  H15  1  0.50643800  0.41957000  0.23470000  1
  H  H16  1  0.88719100  0.32851900  0.38344000  1
  H  H17  1  0.38719100  0.67148100  0.11656000  1
  H  H18  1  0.11280900  0.67148100  0.61656000  1
  H  H19  1  0.61280900  0.32851900  0.88344000  1
  H  H20  1  0.75991200  0.30001100  0.49934400  1
  H  H21  1  0.25991200  0.69998900  0.00065600  1
  H  H22  1  0.24008800  0.69998900  0.50065600  1
  H  H23  1  0.74008800  0.30001100  0.99934400  1
  H  H24  1  0.65920100  0.54568000  0.58661400  1
  H  H25  1  0.15920100  0.45432000  0.91338600  1
  H  H26  1  0.34079900  0.45432000  0.41338600  1
  H  H27  1  0.84079900  0.54568000  0.08661400  1
  H  H28  1  0.77379000  0.67610000  0.54975700  1
  H  H29  1  0.27379000  0.32390000  0.95024300  1
  H  H30  1  0.22621000  0.32390000  0.45024300  1
  H  H31  1  0.72621000  0.67610000  0.04975600  1
  H  H32  1  0.75471400  0.11979700  0.61037900  1
  H  H33  1  0.25471400  0.88020300  0.88962100  1
  H  H34  1  0.24528600  0.88020300  0.38962100  1
  H  H35  1  0.74528600  0.11979700  0.11037900  1
  H  H36  1  0.61441700  0.20824100  0.65737700  1
  H  H37  1  0.11441700  0.79175900  0.84262300  1
  H  H38  1  0.38558300  0.79175900  0.34262300  1
  H  H39  1  0.88558300  0.20824100  0.15737700  1
  H  H40  1  0.35420200  0.52292900  0.62626800  1
  H  H41  1  0.85420200  0.47707100  0.87373200  1
  H  H42  1  0.64579800  0.47707100  0.37373200  1
  H  H43  1  0.14579800  0.52292900  0.12626800  1
  H  H44  1  0.46985300  0.39864100  0.70118300  1
  H  H45  1  0.96985300  0.60135900  0.79881700  1
  H  H46  1  0.53014700  0.60135900  0.29881700  1
  H  H47  1  0.03014700  0.39864100  0.20118300  1
  O  O0  1  0.20588000  0.15331600  0.74379700  1
  O  O1  1  0.70588000  0.84668400  0.75620300  1
  O  O2  1  0.79412000  0.84668400  0.25620300  1
  O  O3  1  0.29412000  0.15331600  0.24379700  1
  O  O4  1  0.36012600  0.91463500  0.63941300  1
  O  O5  1  0.86012600  0.08536500  0.86058700  1
  O  O6  1  0.63987400  0.08536500  0.36058700  1
  O  O7  1  0.13987400  0.91463500  0.13941300  1
  O  O8  1  0.93961800  0.99890500  0.63539300  1
  O  O9  1  0.43961800  0.00109500  0.86460700  1
  O  O10  1  0.06038200  0.00109500  0.36460700  1
  O  O11  1  0.56038200  0.99890500  0.13539300  1
  O  O12  1  0.21343200  0.16991600  0.44843000  1
  O  O13  1  0.71343200  0.83008400  0.05157000  1
  O  O14  1  0.78656800  0.83008400  0.55157000  1
  O  O15  1  0.28656800  0.16991600  0.94843000  1
  O  O16  1  0.52278400  0.23860900  0.78412000  1
  O  O17  1  0.02278400  0.76139100  0.71588000  1
  O  O18  1  0.47721600  0.76139100  0.21588000  1
  O  O19  1  0.97721600  0.23860900  0.28412000  1
  O  O20  1  0.00062300  0.37397300  0.67156700  1
  O  O21  1  0.50062300  0.62602700  0.82843300  1
  O  O22  1  0.99937700  0.62602700  0.32843300  1
  O  O23  1  0.49937700  0.37397300  0.17156700  1
  O  O24  1  0.82893400  0.37137300  0.43904400  1
  O  O25  1  0.32893400  0.62862700  0.06095600  1
  O  O26  1  0.17106600  0.62862700  0.56095600  1
  O  O27  1  0.67106600  0.37137300  0.93904400  1
  O  O28  1  0.77220000  0.58638400  0.54421700  1
  O  O29  1  0.27220000  0.41361600  0.95578300  1
  O  O30  1  0.22780000  0.41361600  0.45578300  1
  O  O31  1  0.72780000  0.58638400  0.04421700  1
  O  O32  1  0.65759300  0.18570700  0.58526500  1
  O  O33  1  0.15759300  0.81429300  0.91473500  1
  O  O34  1  0.34240700  0.81429300  0.41473500  1
  O  O35  1  0.84240700  0.18570700  0.08526500  1
  O  O36  1  0.47312000  0.49267100  0.66609800  1
  O  O37  1  0.97312000  0.50732900  0.83390200  1
  O  O38  1  0.52688000  0.50732900  0.33390200  1
  O  O39  1  0.02688000  0.49267100  0.16609800  1
loop_
_geom_bond_atom_site_label_1
_geom_bond_atom_site_label_2
_geom_bond_distance
_geom_bond_site_symmetry_2
Mg0 O30 2.037397 1_555
Mg0 O28 2.037397 1_455
Mg0 O20 2.106763 1_555
Mg0 O22 2.106763 1_455
Mg0 O24 2.134064 1_455
Mg0 O26 2.134064 1_555
Mg1 O31 2.037397 1_555
Mg1 O29 2.037397 1_554
Mg1 O23 2.106763 1_555
Mg1 O21 2.106763 1_554
Mg1 O25 2.134064 1_555
Mg1 O27 2.134064 1_554
H0 O4 0.991344 1_555
H1 O5 0.991344 1_555
H2 O6 0.991344 1_555
H3 O7 0.991344 1_555
H4 O4 0.981275 1_555
H5 O5 0.981275 1_555
H6 O6 0.981275 1_555
H7 O7 0.981275 1_555
H8 O20 0.991171 1_555
H9 O21 0.991171 1_555
H10 O22 0.991171 1_555
H11 O23 0.991171 1_555
H12 O20 0.998486 1_655
H13 O21 0.998486 1_555
H14 O22 0.998486 1_455
H15 O23 0.998486 1_555
H16 O24 0.993474 1_555
H17 O25 0.993474 1_555
H18 O26 0.993474 1_555
H19 O27 0.993474 1_555
H20 O24 1.028006 1_555
H20 O32 1.560495 1_555
H21 O25 1.028006 1_555
H21 O33 1.560495 1_554
H22 O26 1.028006 1_555
H22 O34 1.560495 1_555
H23 O27 1.028006 1_555
H23 O35 1.560495 1_556
H24 O28 0.998534 1_555
H24 O36 1.654024 1_555
H25 O29 0.998534 1_555
H25 O37 1.654024 1_455
H26 O30 0.998534 1_555
H26 O38 1.654024 1_555
H27 O31 0.998534 1_555
H27 O39 1.654024 1_655
H28 O28 0.995604 1_555
H28 O14 1.683514 1_555
H29 O29 0.995604 1_555
H29 O15 1.683514 1_555
H30 O30 0.995604 1_555
H30 O12 1.683514 1_555
H31 O31 0.995601 1_555
H31 O13 1.683517 1_555
H32 O32 0.991671 1_555
H33 O33 0.991671 1_555
H34 O34 0.991671 1_555
H35 O35 0.991671 1_555
H36 O32 0.993566 1_555
H37 O33 0.993566 1_555
H38 O34 0.993566 1_555
H39 O35 0.993566 1_555
H40 O36 0.994296 1_555
H41 O37 0.994296 1_555
H42 O38 0.994296 1_555
H43 O39 0.994296 1_555
H44 O36 0.994044 1_555
H45 O37 0.994044 1_555
H46 O38 0.994044 1_555
H47 O39 0.994044 1_555
O0 P0 1.581312 1_555
O0 Zn0 1.999332 1_555
O1 P1 1.581312 1_555
O1 Zn1 1.999332 1_555
O2 P2 1.581312 1_555
O2 Zn2 1.999332 1_555
O3 P3 1.581312 1_555
O3 Zn3 1.999332 1_555
O4 Zn0 2.015392 1_565
O5 Zn1 2.015392 1_545
O6 Zn2 2.015392 1_545
O7 Zn3 2.015392 1_565
O8 P1 1.551118 1_555
O8 Zn0 1.981326 1_665
O9 P0 1.551118 1_555
O9 Zn1 1.981326 1_545
O10 P3 1.551118 1_555
O10 Zn2 1.981326 1_445
O11 P2 1.551118 1_555
O11 Zn3 1.981326 1_565
O12 P3 1.559306 1_555
O12 Zn0 1.954541 1_555
O13 P2 1.559306 1_555
O13 Zn1 1.954541 1_554
O14 P1 1.559306 1_555
O14 Zn2 1.954541 1_555
O15 P0 1.559306 1_555
O15 Zn3 1.954541 1_556
O16 P0 1.551027 1_555
O17 P1 1.551027 1_455
O18 P2 1.551027 1_555
O19 P3 1.551027 1_655
