# generated using pymatgen
data_LaTmS2
_symmetry_space_group_name_H-M   'P 1'
_cell_length_a   7.10162618
_cell_length_b   7.10162618
_cell_length_c   7.10162670
_cell_angle_alpha   32.12786122
_cell_angle_beta   32.12786122
_cell_angle_gamma   32.12786119
_symmetry_Int_Tables_number   1
_chemical_formula_structural   LaTmS2
_chemical_formula_sum   'La1 Tm1 S2'
_cell_volume   90.01796291
_cell_formula_units_Z   1
loop_
 _symmetry_equiv_pos_site_id
 _symmetry_equiv_pos_as_xyz
  1  'x, y, z'
loop_
 _atom_site_type_symbol
 _atom_site_label
 _atom_site_symmetry_multiplicity
 _atom_site_fract_x
 _atom_site_fract_y
 _atom_site_fract_z
 _atom_site_occupancy
  La  La0  1  -0.00000000  -0.00000000  -0.00000000  1
  Tm  Tm0  1  0.50000000  0.50000000  0.50000000  1
  S  S0  1  0.24032189  0.24032189  0.24032189  1
  S  S1  1  0.75967811  0.75967811  0.75967811  1
loop_
_geom_bond_atom_site_label_1
_geom_bond_atom_site_label_2
_geom_bond_distance
_geom_bond_site_symmetry_2
La0 S1 2.945269 1_544
La0 S1 2.945269 1_454
La0 S0 2.945269 1_545
La0 S0 2.945269 1_455
La0 S1 2.945270 1_445
La0 S0 2.945270 1_554
S0 Tm0 2.712897 1_455
S0 Tm0 2.712897 1_545
S0 Tm0 2.712898 1_554
S1 Tm0 2.712897 1_655
S1 Tm0 2.712897 1_565
S1 Tm0 2.712898 1_556
