# generated using pymatgen
data_Er5Pt3
_symmetry_space_group_name_H-M   'P 1'
_cell_length_a   6.11425400
_cell_length_b   8.35662875
_cell_length_c   8.34777619
_cell_angle_alpha   120.03509118
_cell_angle_beta   90.00000000
_cell_angle_gamma   90.00000000
_symmetry_Int_Tables_number   1
_chemical_formula_structural   Er5Pt3
_chemical_formula_sum   'Er10 Pt6'
_cell_volume   369.25155878
_cell_formula_units_Z   2
loop_
 _symmetry_equiv_pos_site_id
 _symmetry_equiv_pos_as_xyz
  1  'x, y, z'
loop_
 _atom_site_type_symbol
 _atom_site_label
 _atom_site_symmetry_multiplicity
 _atom_site_fract_x
 _atom_site_fract_y
 _atom_site_fract_z
 _atom_site_occupancy
  Er  Er0  1  0.49999000  0.33334100  0.66669600  1
  Er  Er1  1  0.49999000  0.66664400  0.33330400  1
  Er  Er2  1  0.99999000  0.66665900  0.33330400  1
  Er  Er3  1  0.99999000  0.33335600  0.66669600  1
  Er  Er4  1  0.75005400  0.24617800  0.00000000  1
  Er  Er5  1  0.74999900  0.75369500  0.75335600  1
  Er  Er6  1  0.74999900  0.00033900  0.24664400  1
  Er  Er7  1  0.25005400  0.75382200  0.00000000  1
  Er  Er8  1  0.24999900  0.24630500  0.24664400  1
  Er  Er9  1  0.24999900  0.99966100  0.75335600  1
  Pt  Pt0  1  0.75002600  0.60688100  0.00000000  1
  Pt  Pt1  1  0.74997000  0.39300300  0.39289200  1
  Pt  Pt2  1  0.74997000  0.00011100  0.60710800  1
  Pt  Pt3  1  0.25002600  0.39311900  0.00000000  1
  Pt  Pt4  1  0.24997000  0.60699700  0.60710800  1
  Pt  Pt5  1  0.24997000  0.99988900  0.39289200  1
loop_
_geom_bond_atom_site_label_1
_geom_bond_atom_site_label_2
_geom_bond_distance
_geom_bond_site_symmetry_2
Er0 Pt3 2.989224 1_556
Er0 Pt0 2.989483 1_556
Er0 Pt1 2.991605 1_555
Er0 Pt5 2.991665 1_545
Er0 Pt2 2.991883 1_555
Er0 Pt4 2.992107 1_555
Er1 Pt3 2.989221 1_555
Er1 Pt0 2.989486 1_555
Er1 Pt2 2.991609 1_565
Er1 Pt4 2.991661 1_555
Er1 Pt1 2.991876 1_555
Er1 Pt5 2.992114 1_555
Er2 Pt0 2.989224 1_555
Er2 Pt3 2.989483 1_655
Er2 Pt4 2.991605 1_655
Er2 Pt2 2.991665 1_565
Er2 Pt5 2.991883 1_655
Er2 Pt1 2.992107 1_555
Er3 Pt0 2.989221 1_556
Er3 Pt3 2.989486 1_656
Er3 Pt5 2.991609 1_645
Er3 Pt1 2.991661 1_555
Er3 Pt4 2.991876 1_655
Er3 Pt2 2.992114 1_555
Er4 Pt2 2.869482 1_554
Er4 Pt1 2.869483 1_555
Er4 Pt0 3.014261 1_555
Er4 Pt3 3.294358 1_655
Er4 Pt3 3.294676 1_555
Er5 Pt2 2.871835 1_565
Er5 Pt0 2.876302 1_556
Er5 Pt1 3.010027 1_555
Er5 Pt4 3.292418 1_655
Er5 Pt4 3.292747 1_555
Er6 Pt1 2.871835 1_555
Er6 Pt0 2.876302 1_545
Er6 Pt2 3.010027 1_555
Er6 Pt5 3.292418 1_645
Er6 Pt5 3.292747 1_545
Er7 Pt5 2.869482 1_555
Er7 Pt4 2.869483 1_554
Er7 Pt3 3.014261 1_555
Er7 Pt0 3.294358 1_555
Er7 Pt0 3.294676 1_455
Er8 Pt5 2.871835 1_545
Er8 Pt3 2.876302 1_555
Er8 Pt4 3.010027 1_555
Er8 Pt1 3.292418 1_555
Er8 Pt1 3.292747 1_455
Er9 Pt4 2.871835 1_555
Er9 Pt3 2.876302 1_566
Er9 Pt5 3.010027 1_555
Er9 Pt2 3.292418 1_565
Er9 Pt2 3.292747 1_465
