# generated using pymatgen
data_TmFe10Mo2N
_symmetry_space_group_name_H-M   'P 1'
_cell_length_a   4.74307900
_cell_length_b   6.55567635
_cell_length_c   6.55567635
_cell_angle_alpha   98.07309088
_cell_angle_beta   111.20792483
_cell_angle_gamma   68.79207517
_symmetry_Int_Tables_number   1
_chemical_formula_structural   TmFe10Mo2N
_chemical_formula_sum   'Tm1 Fe10 Mo2 N1'
_cell_volume   177.15604264
_cell_formula_units_Z   1
loop_
 _symmetry_equiv_pos_site_id
 _symmetry_equiv_pos_as_xyz
  1  'x, y, z'
loop_
 _atom_site_type_symbol
 _atom_site_label
 _atom_site_symmetry_multiplicity
 _atom_site_fract_x
 _atom_site_fract_y
 _atom_site_fract_z
 _atom_site_occupancy
  Tm  Tm0  1  0.00000000  0.00000000  0.00000000  1
  Fe  Fe0  1  0.71998700  0.78001300  0.21998700  1
  Fe  Fe1  1  0.28001300  0.21998700  0.78001300  1
  Fe  Fe2  1  0.50000000  0.77881500  0.77881500  1
  Fe  Fe3  1  0.50000000  0.22118500  0.22118500  1
  Fe  Fe4  1  0.50000000  0.00000000  0.50000000  1
  Fe  Fe5  1  0.00000000  0.00000000  0.50000000  1
  Fe  Fe6  1  0.50000000  0.50000000  0.00000000  1
  Fe  Fe7  1  0.00000000  0.50000000  0.00000000  1
  Fe  Fe8  1  0.64040300  0.35959700  0.64040300  1
  Fe  Fe9  1  0.35959700  0.64040300  0.35959700  1
  Mo  Mo0  1  0.00000000  0.35722000  0.35722000  1
  Mo  Mo1  1  0.00000000  0.64278000  0.64278000  1
  N  N0  1  0.50000000  0.00000000  0.00000000  1
loop_
_geom_bond_atom_site_label_1
_geom_bond_atom_site_label_2
_geom_bond_distance
_geom_bond_site_symmetry_2
Fe0 N0 1.911838 1_565
Fe0 Fe6 2.468148 1_555
Fe0 Fe4 2.468148 1_565
Fe0 Fe7 2.468148 1_655
Fe0 Fe5 2.468148 1_665
Fe0 Fe9 2.663890 1_555
Fe0 Fe9 2.663891 1_655
Fe0 Mo0 2.725460 1_655
Fe0 Mo1 2.725460 1_655
Fe1 N0 1.911838 1_556
Fe1 Fe6 2.468148 1_556
Fe1 Fe4 2.468148 1_555
Fe1 Fe7 2.468148 1_556
Fe1 Fe5 2.468148 1_555
Fe1 Fe8 2.663890 1_555
Fe1 Fe8 2.663891 1_455
Fe1 Mo0 2.725460 1_555
Fe1 Mo1 2.725460 1_555
Fe2 N0 1.901197 1_566
Fe2 Fe4 2.487548 1_565
Fe2 Fe6 2.487548 1_556
Fe2 Fe5 2.487548 1_565
Fe2 Fe7 2.487548 1_656
Fe2 Mo1 2.644133 1_555
Fe2 Mo1 2.644133 1_655
Fe2 Fe8 2.689306 1_555
Fe2 Fe9 2.689306 1_555
Fe3 N0 1.901197 1_555
Fe3 Fe6 2.487548 1_555
Fe3 Fe4 2.487548 1_555
Fe3 Fe5 2.487548 1_655
Fe3 Fe7 2.487548 1_555
Fe3 Mo0 2.644133 1_655
Fe3 Mo0 2.644133 1_555
Fe3 Fe8 2.689306 1_555
Fe3 Fe9 2.689306 1_555
Fe4 Fe5 2.371539 1_655
Fe4 Fe5 2.371539 1_555
Fe4 Fe8 2.632665 1_555
Fe4 Fe9 2.632665 1_545
Fe4 Mo1 2.641196 1_645
Fe4 Mo0 2.641196 1_555
Fe4 Tm0 3.277838 1_656
Fe4 Tm0 3.277838 1_555
Fe5 Fe9 2.632665 1_545
Fe5 Fe8 2.632665 1_455
Fe5 Mo1 2.641196 1_545
Fe5 Mo0 2.641196 1_555
Fe5 Tm0 3.277838 1_555
Fe5 Tm0 3.277838 1_556
Fe6 Fe7 2.371539 1_555
Fe6 Fe7 2.371539 1_655
Fe6 Fe8 2.632665 1_554
Fe6 Fe9 2.632665 1_555
Fe6 Mo1 2.641196 1_554
Fe6 Mo0 2.641196 1_655
Fe6 Tm0 3.277838 1_655
Fe6 Tm0 3.277838 1_565
Fe7 Fe8 2.632665 1_454
Fe7 Fe9 2.632665 1_555
Fe7 Mo1 2.641196 1_554
Fe7 Mo0 2.641196 1_555
Fe7 Tm0 3.277838 1_555
Fe7 Tm0 3.277838 1_565
Fe8 Fe9 2.440397 1_555
Fe8 Mo0 2.935859 1_655
Fe8 Mo1 2.935859 1_655
Fe8 Mo0 2.935859 1_555
Fe8 Mo1 2.935859 1_555
Fe8 Tm0 3.125145 1_656
Fe9 Mo1 2.935859 1_555
Fe9 Mo0 2.935859 1_555
Fe9 Mo0 2.935859 1_655
Fe9 Mo1 2.935859 1_655
Fe9 Tm0 3.125145 1_565
Mo0 Mo1 2.454533 1_555
Mo0 Tm0 3.070487 1_555
Mo1 Tm0 3.070487 1_566
N0 Tm0 2.371539 1_655
N0 Tm0 2.371539 1_555
