# generated using pymatgen
data_Mn4Fe8SiGe3
_symmetry_space_group_name_H-M   'P 1'
_cell_length_a   13.35129414
_cell_length_b   13.35129414
_cell_length_c   13.35129372
_cell_angle_alpha   17.32035725
_cell_angle_beta   17.32035725
_cell_angle_gamma   17.32036031
_symmetry_Int_Tables_number   1
_chemical_formula_structural   Mn4Fe8SiGe3
_chemical_formula_sum   'Mn4 Fe8 Si1 Ge3'
_cell_volume   184.07455727
_cell_formula_units_Z   1
loop_
 _symmetry_equiv_pos_site_id
 _symmetry_equiv_pos_as_xyz
  1  'x, y, z'
loop_
 _atom_site_type_symbol
 _atom_site_label
 _atom_site_symmetry_multiplicity
 _atom_site_fract_x
 _atom_site_fract_y
 _atom_site_fract_z
 _atom_site_occupancy
  Mn  Mn0  1  0.62436900  0.62436900  0.62436900  1
  Mn  Mn1  1  0.37563100  0.37563100  0.37563100  1
  Mn  Mn2  1  0.87468600  0.87468600  0.87468600  1
  Mn  Mn3  1  0.12531400  0.12531400  0.12531400  1
  Fe  Fe0  1  0.93728400  0.93728400  0.93728400  1
  Fe  Fe1  1  0.68713700  0.68713700  0.68713700  1
  Fe  Fe2  1  0.18610300  0.18610300  0.18610300  1
  Fe  Fe3  1  0.43916600  0.43916600  0.43916600  1
  Fe  Fe4  1  0.56083400  0.56083400  0.56083400  1
  Fe  Fe5  1  0.31286300  0.31286300  0.31286300  1
  Fe  Fe6  1  0.81389700  0.81389700  0.81389700  1
  Fe  Fe7  1  0.06271600  0.06271600  0.06271600  1
  Si  Si0  1  0.50000000  0.50000000  0.50000000  1
  Ge  Ge0  1  0.75039100  0.75039100  0.75039100  1
  Ge  Ge1  1  0.00000000  0.00000000  0.00000000  1
  Ge  Ge2  1  0.24960900  0.24960900  0.24960900  1
loop_
_geom_bond_atom_site_label_1
_geom_bond_atom_site_label_2
_geom_bond_distance
_geom_bond_site_symmetry_2
Mn2 Si0 2.837113 1_556
Mn2 Si0 2.837113 1_565
Mn2 Si0 2.837113 1_655
Mn3 Si0 2.837113 1_554
Mn3 Si0 2.837113 1_545
Mn3 Si0 2.837113 1_455
Fe0 Mn0 2.457098 1_556
Fe0 Mn0 2.457099 1_655
Fe0 Mn0 2.457099 1_565
Fe0 Ge2 2.464824 1_665
Fe0 Ge2 2.464825 1_656
Fe0 Ge2 2.464825 1_566
Fe0 Mn2 2.469104 1_555
Fe0 Ge1 2.473759 1_666
Fe1 Ge1 2.457771 1_665
Fe1 Ge1 2.457772 1_566
Fe1 Ge1 2.457772 1_656
Fe1 Mn0 2.475810 1_555
Fe1 Mn1 2.475872 1_556
Fe1 Mn1 2.475872 1_655
Fe1 Mn1 2.475872 1_565
Fe1 Ge0 2.494980 1_555
Fe2 Mn3 2.397751 1_555
Fe2 Si0 2.444676 1_554
Fe2 Si0 2.444677 1_455
Fe2 Si0 2.444677 1_545
Fe2 Mn2 2.477095 1_445
Fe2 Mn2 2.477095 1_454
Fe2 Mn2 2.477095 1_544
Fe2 Ge2 2.504919 1_555
Fe3 Si0 2.399526 1_555
Fe3 Mn3 2.445233 1_556
Fe3 Mn3 2.445234 1_655
Fe3 Mn3 2.445234 1_565
Fe3 Ge0 2.479748 1_554
Fe3 Ge0 2.479748 1_455
Fe3 Ge0 2.479748 1_545
Fe3 Mn1 2.506063 1_555
Fe4 Si0 2.399526 1_555
Fe4 Mn2 2.445233 1_554
Fe4 Mn2 2.445234 1_545
Fe4 Mn2 2.445234 1_455
Fe4 Ge2 2.479748 1_556
Fe4 Ge2 2.479748 1_655
Fe4 Ge2 2.479748 1_565
Fe4 Mn0 2.506063 1_555
Fe5 Ge1 2.457771 1_556
Fe5 Ge1 2.457772 1_655
Fe5 Ge1 2.457772 1_565
Fe5 Mn1 2.475810 1_555
Fe5 Mn0 2.475872 1_554
Fe5 Mn0 2.475872 1_455
Fe5 Mn0 2.475872 1_545
Fe5 Ge2 2.494980 1_555
Fe6 Mn2 2.397751 1_555
Fe6 Si0 2.444676 1_556
Fe6 Si0 2.444677 1_655
Fe6 Si0 2.444677 1_565
Fe6 Mn3 2.477095 1_665
Fe6 Mn3 2.477095 1_656
Fe6 Mn3 2.477095 1_566
Fe6 Ge0 2.504919 1_555
Fe7 Mn1 2.457098 1_554
Fe7 Mn1 2.457099 1_455
Fe7 Mn1 2.457099 1_545
Fe7 Ge0 2.464824 1_445
Fe7 Ge0 2.464825 1_544
Fe7 Ge0 2.464825 1_454
Fe7 Mn3 2.469104 1_555
Fe7 Ge1 2.473759 1_555
Ge0 Mn1 2.838792 1_556
Ge0 Mn1 2.838793 1_655
Ge0 Mn1 2.838793 1_565
Ge0 Mn3 2.842498 1_665
Ge0 Mn3 2.842498 1_566
Ge0 Mn3 2.842498 1_656
Ge2 Mn0 2.838792 1_554
Ge2 Mn0 2.838793 1_545
Ge2 Mn0 2.838793 1_455
Ge2 Mn2 2.842498 1_445
Ge2 Mn2 2.842498 1_454
Ge2 Mn2 2.842498 1_544
