# generated using pymatgen
data_Sm6Si3Ni2
_symmetry_space_group_name_H-M   'P 1'
_cell_length_a   4.44114900
_cell_length_b   11.53229400
_cell_length_c   11.58545560
_cell_angle_alpha   61.46578878
_cell_angle_beta   90.00000000
_cell_angle_gamma   90.00000000
_symmetry_Int_Tables_number   1
_chemical_formula_structural   Sm6Si3Ni2
_chemical_formula_sum   'Sm12 Si6 Ni4'
_cell_volume   521.29285689
_cell_formula_units_Z   2
loop_
 _symmetry_equiv_pos_site_id
 _symmetry_equiv_pos_as_xyz
  1  'x, y, z'
loop_
 _atom_site_type_symbol
 _atom_site_label
 _atom_site_symmetry_multiplicity
 _atom_site_fract_x
 _atom_site_fract_y
 _atom_site_fract_z
 _atom_site_occupancy
  Sm  Sm0  1  0.00000000  0.24018500  0.78265100  1
  Sm  Sm1  1  0.00000000  0.78258100  0.98168700  1
  Sm  Sm2  1  0.00000000  0.98009600  0.24152900  1
  Sm  Sm3  1  0.50000000  0.75013800  0.22613800  1
  Sm  Sm4  1  0.50000000  0.22849600  0.02392300  1
  Sm  Sm5  1  0.50000000  0.02008800  0.75871500  1
  Sm  Sm6  1  0.00000000  0.86144200  0.62345300  1
  Sm  Sm7  1  0.00000000  0.61753500  0.51338800  1
  Sm  Sm8  1  0.00000000  0.51675600  0.86362500  1
  Sm  Sm9  1  0.50000000  0.13310600  0.38260700  1
  Sm  Sm10  1  0.50000000  0.37433700  0.48799900  1
  Sm  Sm11  1  0.50000000  0.48018600  0.13878100  1
  Si  Si0  1  0.00000000  0.33681500  0.32744200  1
  Si  Si1  1  0.50000000  0.66598700  0.66597500  1
  Si  Si2  1  0.00000000  0.15679200  0.56191700  1
  Si  Si3  1  0.50000000  0.43794100  0.71567900  1
  Si  Si4  1  0.50000000  0.72199600  0.84173800  1
  Si  Si5  1  0.50000000  0.84252900  0.44141800  1
  Ni  Ni0  1  0.74755600  0.00055500  0.00356500  1
  Ni  Ni1  1  0.25244400  0.00055500  0.00356500  1
  Ni  Ni2  1  0.00000000  0.56736300  0.26325700  1
  Ni  Ni3  1  0.00000000  0.28452200  0.15094600  1
loop_
_geom_bond_atom_site_label_1
_geom_bond_atom_site_label_2
_geom_bond_distance
_geom_bond_site_symmetry_2
Si0 Si2 2.510283 1_555
Si0 Sm11 2.998248 1_555
Si0 Sm11 2.998248 1_455
Si0 Sm10 3.057326 1_555
Si0 Sm10 3.057326 1_455
Si0 Sm9 3.069837 1_555
Si0 Sm9 3.069837 1_455
Si1 Si3 2.408552 1_555
Si1 Si4 2.412522 1_555
Si1 Si5 2.419309 1_555
Si1 Sm6 3.032078 1_655
Si1 Sm6 3.032078 1_555
Si1 Sm7 3.051546 1_555
Si1 Sm7 3.051546 1_655
Si1 Sm8 3.061255 1_555
Si1 Sm8 3.061255 1_655
Si2 Sm5 3.029968 1_555
Si2 Sm5 3.029968 1_455
Si2 Sm6 3.128841 1_545
Si2 Sm0 3.132781 1_555
Si2 Sm9 3.140577 1_455
Si2 Sm9 3.140577 1_555
Si2 Sm10 3.147348 1_455
Si2 Sm10 3.147348 1_555
Si3 Sm0 3.007240 1_555
Si3 Sm0 3.007240 1_655
Si3 Sm10 3.056851 1_555
Si3 Sm7 3.174245 1_555
Si3 Sm7 3.174245 1_655
Si3 Sm8 3.191132 1_655
Si3 Sm8 3.191132 1_555
Si3 Sm4 3.216593 1_556
Si4 Sm1 3.021626 1_655
Si4 Sm1 3.021626 1_555
Si4 Sm5 3.095781 1_565
Si4 Sm8 3.166074 1_555
Si4 Sm8 3.166074 1_655
Si4 Sm6 3.166575 1_655
Si4 Sm6 3.166575 1_555
Si4 Sm11 3.232821 1_556
Si5 Sm2 3.049723 1_655
Si5 Sm2 3.049723 1_555
Si5 Sm9 3.084194 1_565
Si5 Sm6 3.140969 1_655
Si5 Sm6 3.140969 1_555
Si5 Sm3 3.145583 1_555
Si5 Sm7 3.208072 1_555
Si5 Sm7 3.208072 1_655
Ni0 Ni1 2.198866 1_555
Ni0 Ni1 2.242283 1_655
Ni0 Sm1 2.872073 1_644
Ni0 Sm2 2.879550 1_645
Ni0 Sm0 2.947393 1_654
Ni0 Sm5 2.948878 1_554
Ni0 Sm4 2.960857 1_555
Ni0 Sm3 3.013884 1_545
Ni1 Sm1 2.872073 1_544
Ni1 Sm2 2.879550 1_545
Ni1 Sm0 2.947393 1_554
Ni1 Sm5 2.948878 1_554
Ni1 Sm4 2.960857 1_555
Ni1 Sm3 3.013884 1_545
Ni2 Si0 2.394381 1_555
Ni2 Sm3 2.948352 1_455
Ni2 Sm3 2.948352 1_555
Ni2 Sm1 3.011055 1_554
Ni2 Sm11 3.066999 1_555
Ni2 Sm11 3.066999 1_455
Ni2 Sm7 3.214711 1_555
Ni2 Sm10 3.335913 1_455
Ni2 Sm10 3.335913 1_555
Ni3 Si0 2.392262 1_555
Ni3 Sm4 2.902147 1_455
Ni3 Sm4 2.902147 1_555
Ni3 Sm8 3.120279 1_554
Ni3 Sm11 3.120670 1_455
Ni3 Sm11 3.120670 1_555
Ni3 Sm2 3.147489 1_545
Ni3 Sm9 3.272003 1_455
Ni3 Sm9 3.272003 1_555
