# generated using pymatgen
data_La3IrBr3
_symmetry_space_group_name_H-M   'P 1'
_cell_length_a   10.61144853
_cell_length_b   10.61160906
_cell_length_c   10.61691825
_cell_angle_alpha   109.48819526
_cell_angle_beta   109.07716390
_cell_angle_gamma   109.83375631
_symmetry_Int_Tables_number   1
_chemical_formula_structural   La3IrBr3
_chemical_formula_sum   'La12 Ir4 Br12'
_cell_volume   920.44152958
_cell_formula_units_Z   4
loop_
 _symmetry_equiv_pos_site_id
 _symmetry_equiv_pos_as_xyz
  1  'x, y, z'
loop_
 _atom_site_type_symbol
 _atom_site_label
 _atom_site_symmetry_multiplicity
 _atom_site_fract_x
 _atom_site_fract_y
 _atom_site_fract_z
 _atom_site_occupancy
  La  La0  1  0.26709863  0.75085563  0.23347193  1
  La  La1  1  0.48296273  0.74847673  0.01579491  1
  La  La2  1  0.23275208  0.46727244  0.48423065  1
  La  La3  1  0.01742157  0.03369411  0.26653770  1
  La  La4  1  0.23520293  0.26617737  0.75117763  1
  La  La5  1  0.01502246  0.48401041  0.74883918  1
  La  La6  1  0.48497513  0.23407791  0.46928587  1
  La  La7  1  0.26477081  0.01565689  0.03071440  1
  La  La8  1  0.74784350  0.23266155  0.26444817  1
  La  La9  1  0.75164053  0.01651456  0.48411550  1
  La  La10  1  0.46827589  0.48343467  0.23557140  1
  La  La11  1  0.03239016  0.26751589  0.01585944  1
  Ir  Ir0  1  0.49972825  0.00005519  0.24953206  1
  Ir  Ir1  1  0.24986608  0.49953403  -0.00023694  1
  Ir  Ir2  1  -0.00020876  0.25011087  0.50025256  1
  Ir  Ir3  1  0.25055363  0.25021858  0.25044156  1
  Br  Br0  1  0.24906576  0.99366196  0.50500716  1
  Br  Br1  1  0.51117541  0.50614245  0.75529594  1
  Br  Br2  1  0.25082661  0.75586817  0.74473551  1
  Br  Br3  1  0.98861724  0.74402276  0.99496116  1
  Br  Br4  1  0.99511382  0.50587321  0.25072896  1
  Br  Br5  1  0.74485228  0.99422068  0.98965808  1
  Br  Br6  1  0.75507294  0.74441524  0.24921972  1
  Br  Br7  1  0.50460674  0.75524880  0.51036297  1
  Br  Br8  1  0.50625741  0.25040967  0.99454113  1
  Br  Br9  1  0.75594738  0.51172823  0.50548183  1
  Br  Br10  1  0.74453085  0.24942668  0.75578691  1
  Br  Br11  1  0.99363796  0.98871534  0.74418464  1
loop_
_geom_bond_atom_site_label_1
_geom_bond_atom_site_label_2
_geom_bond_distance
_geom_bond_site_symmetry_2
Ir0 La8 2.847167 1_555
Ir0 La0 2.847802 1_545
Ir0 La6 2.876053 1_555
Ir0 La1 2.878484 1_545
Ir0 La7 2.896762 1_555
Ir0 La9 2.901735 1_555
Ir1 La11 2.845986 1_555
Ir1 La1 2.848932 1_555
Ir1 La4 2.868996 1_554
Ir1 La0 2.873992 1_555
Ir1 La5 2.902303 1_554
Ir1 La10 2.903382 1_555
Ir2 La9 2.846099 1_455
Ir2 La2 2.849761 1_555
Ir2 La5 2.868860 1_555
Ir2 La3 2.873831 1_555
Ir2 La4 2.902455 1_555
Ir2 La8 2.903303 1_455
Ir3 La10 2.847187 1_555
Ir3 La3 2.847754 1_555
Ir3 La7 2.875920 1_555
Ir3 La2 2.879051 1_555
Ir3 La6 2.896935 1_555
Ir3 La11 2.901774 1_555
Br0 La6 3.138716 1_565
Br0 La3 3.160817 1_565
Br0 La4 3.272944 1_565
Br0 La0 3.274954 1_555
Br1 La4 3.137485 1_555
Br1 La2 3.162949 1_555
Br1 La1 3.266476 1_556
Br1 La6 3.269108 1_555
Br2 La5 3.137214 1_555
Br2 La1 3.162852 1_556
Br2 La2 3.266212 1_555
Br2 La7 3.268798 1_566
Br3 La7 3.138617 1_666
Br3 La0 3.160803 1_656
Br3 La5 3.272940 1_655
Br3 La3 3.275421 1_666
Br4 La11 3.144435 1_655
Br4 La2 3.156657 1_655
Br4 La8 3.268169 1_555
Br4 La0 3.270123 1_655
Br5 La8 3.142315 1_566
Br5 La3 3.159256 1_666
Br5 La1 3.266424 1_556
Br5 La11 3.271087 1_666
Br6 La9 3.143887 1_565
Br6 La1 3.155816 1_555
Br6 La10 3.267607 1_555
Br6 La3 3.270602 1_665
Br7 La10 3.142489 1_555
Br7 La0 3.159400 1_555
Br7 La2 3.265943 1_555
Br7 La9 3.270639 1_565
Br8 La7 3.141578 1_556
Br8 La10 3.154982 1_556
Br8 La8 3.271795 1_556
Br8 La4 3.276270 1_555
Br9 La6 3.141622 1_555
Br9 La8 3.154776 1_555
Br9 La10 3.272030 1_555
Br9 La5 3.276062 1_655
Br10 La5 3.138972 1_655
Br10 La9 3.153711 1_555
Br10 La11 3.275154 1_656
Br10 La6 3.279235 1_555
Br11 La4 3.139036 1_665
Br11 La11 3.153859 1_666
Br11 La9 3.275337 1_565
Br11 La7 3.279320 1_666
