# generated using pymatgen
data_Zr5Zn39
_symmetry_space_group_name_H-M   'P 1'
_cell_length_a   8.49276440
_cell_length_b   9.79023484
_cell_length_c   9.80207534
_cell_angle_alpha   78.28883829
_cell_angle_beta   64.32839210
_cell_angle_gamma   64.29508048
_symmetry_Int_Tables_number   1
_chemical_formula_structural   Zr5Zn39
_chemical_formula_sum   'Zr5 Zn39'
_cell_volume   661.75120788
_cell_formula_units_Z   1
loop_
 _symmetry_equiv_pos_site_id
 _symmetry_equiv_pos_as_xyz
  1  'x, y, z'
loop_
 _atom_site_type_symbol
 _atom_site_label
 _atom_site_symmetry_multiplicity
 _atom_site_fract_x
 _atom_site_fract_y
 _atom_site_fract_z
 _atom_site_occupancy
  Zr  Zr0  1  0.57186320  0.64650153  0.20977208  1
  Zr  Zr1  1  0.42813680  0.35349847  0.79022792  1
  Zr  Zr2  1  0.00000000  0.00000000  0.00000000  1
  Zr  Zr3  1  0.77135343  0.80376375  0.65352938  1
  Zr  Zr4  1  0.22864657  0.19623625  0.34647062  1
  Zn  Zn0  1  0.78519743  0.33833745  0.09126668  1
  Zn  Zn1  1  0.21480257  0.66166255  0.90873332  1
  Zn  Zn2  1  0.68657068  0.70797381  0.44296066  1
  Zn  Zn3  1  0.31342932  0.29202619  0.55703934  1
  Zn  Zn4  1  0.83750516  0.29202619  0.55703934  1
  Zn  Zn5  1  0.16249484  0.70797381  0.44296066  1
  Zn  Zn6  1  0.62811231  0.16234139  0.27258238  1
  Zn  Zn7  1  0.37188769  0.83765861  0.72741762  1
  Zn  Zn8  1  0.06303608  0.83765861  0.72741762  1
  Zn  Zn9  1  0.93696392  0.16234139  0.27258238  1
  Zn  Zn10  1  0.21961947  0.43881212  0.12194994  1
  Zn  Zn11  1  0.78038053  0.56118788  0.87805006  1
  Zn  Zn12  1  0.53544050  0.19639227  0.04903632  1
  Zn  Zn13  1  0.46455950  0.80360773  0.95096368  1
  Zn  Zn14  1  0.78086910  0.80360773  0.95096368  1
  Zn  Zn15  1  0.21913090  0.19639227  0.04903632  1
  Zn  Zn16  1  0.00000000  0.50000000  0.50000000  1
  Zn  Zn17  1  0.58949377  0.94559731  0.19937615  1
  Zn  Zn18  1  0.41050623  0.05440269  0.80062385  1
  Zn  Zn19  1  0.73446823  0.05440269  0.80062385  1
  Zn  Zn20  1  0.26553177  0.94559731  0.19937615  1
  Zn  Zn21  1  0.50000000  0.50000000  0.00000000  1
  Zn  Zn22  1  0.00000000  0.50000000  0.00000000  1
  Zn  Zn23  1  0.35995266  0.44828033  0.29743328  1
  Zn  Zn24  1  0.64004734  0.55171967  0.70256672  1
  Zn  Zn25  1  0.10566526  0.55171967  0.70256672  1
  Zn  Zn26  1  0.89433474  0.44828033  0.29743328  1
  Zn  Zn27  1  0.59571908  0.38755042  0.42101242  1
  Zn  Zn28  1  0.40428092  0.61244958  0.57898758  1
  Zn  Zn29  1  0.65568906  0.13002694  0.55859494  1
  Zn  Zn30  1  0.34431094  0.86997306  0.44140506  1
  Zn  Zn31  1  0.50000000  0.00000000  0.50000000  1
  Zn  Zn32  1  0.00000000  0.00000000  0.50000000  1
  Zn  Zn33  1  0.21086818  0.72196409  0.16302037  1
  Zn  Zn34  1  0.78913182  0.27803591  0.83697963  1
  Zn  Zn35  1  0.09585164  0.27803591  0.83697963  1
  Zn  Zn36  1  0.90414836  0.72196409  0.16302037  1
  Zn  Zn37  1  0.87886649  0.90226280  0.34000523  1
  Zn  Zn38  1  0.12113351  0.09773720  0.65999477  1
loop_
_geom_bond_atom_site_label_1
_geom_bond_atom_site_label_2
_geom_bond_distance
_geom_bond_site_symmetry_2
Zn0 Zn6 2.569809 1_555
Zn0 Zn9 2.569813 1_555
Zn0 Zn34 2.659042 1_554
Zn0 Zn35 2.659042 1_654
Zn0 Zn21 2.673774 1_555
Zn0 Zn22 2.673781 1_655
Zn0 Zn11 2.697271 1_554
Zn0 Zr0 2.931153 1_555
Zn0 Zn27 2.953280 1_555
Zn0 Zn23 3.077797 1_555
Zn0 Zn26 3.077809 1_555
Zn0 Zr2 3.106019 1_655
Zn1 Zn7 2.569809 1_555
Zn1 Zn8 2.569813 1_555
Zn1 Zn33 2.659042 1_556
Zn1 Zn36 2.659042 1_456
Zn1 Zn21 2.673774 1_556
Zn1 Zn22 2.673781 1_556
Zn1 Zn10 2.697271 1_556
Zn1 Zr1 2.931153 1_555
Zn1 Zn28 2.953280 1_555
Zn1 Zn24 3.077797 1_555
Zn1 Zn25 3.077809 1_555
Zn1 Zr2 3.106019 1_566
Zn2 Zn36 2.576156 1_555
Zn2 Zn31 2.636050 1_565
Zn2 Zn30 2.644653 1_555
Zn2 Zn26 2.648065 1_555
Zn2 Zn24 2.654164 1_555
Zn2 Zn28 2.658792 1_555
Zn2 Zn37 2.791263 1_555
Zn2 Zr3 2.883970 1_555
Zn2 Zn7 2.926797 1_555
Zn2 Zr0 3.087413 1_555
Zn3 Zn35 2.576156 1_555
Zn3 Zn31 2.636050 1_555
Zn3 Zn38 2.791263 1_555
Zn3 Zr4 2.883970 1_555
Zn3 Zn6 2.926797 1_555
Zn3 Zr1 3.087413 1_555
Zn4 Zr4 2.883971 1_655
Zn4 Zn9 2.926797 1_555
Zn4 Zr1 3.087414 1_555
Zn5 Zr3 2.883971 1_455
Zn5 Zn8 2.926797 1_555
Zn5 Zr0 3.087414 1_555
Zn6 Zn9 2.623004 1_555
Zn6 Zr4 3.022627 1_555
Zn6 Zr2 3.114172 1_655
Zn7 Zn8 2.623004 1_555
Zn7 Zr3 3.022627 1_555
Zn7 Zr2 3.114172 1_566
Zn8 Zr3 3.022627 1_455
Zn8 Zr2 3.114172 1_566
Zn9 Zr4 3.022627 1_655
Zn9 Zr2 3.114172 1_655
Zn10 Zn21 2.436883 1_555
Zn10 Zn22 2.436890 1_555
Zn10 Zn23 2.514864 1_555
Zn10 Zn26 2.514864 1_455
Zn10 Zn12 2.615968 1_555
Zn10 Zn15 2.615972 1_555
Zn10 Zn33 2.846165 1_555
Zn10 Zn36 2.846165 1_455
Zn10 Zr4 2.890637 1_555
Zn10 Zr1 3.039202 1_554
Zn11 Zn21 2.436883 1_556
Zn11 Zn22 2.436890 1_656
Zn11 Zn24 2.514864 1_555
Zn11 Zn25 2.514864 1_655
Zn11 Zn13 2.615968 1_555
Zn11 Zn14 2.615972 1_555
Zn11 Zn34 2.846165 1_555
Zn11 Zn35 2.846165 1_655
Zn11 Zr3 2.890637 1_555
Zn11 Zr0 3.039202 1_556
Zn12 Zn19 2.547215 1_554
Zn12 Zn6 2.549914 1_555
Zn12 Zn34 2.557485 1_554
Zn12 Zn17 2.559404 1_545
Zn12 Zn15 2.686343 1_555
Zn12 Zn21 2.815316 1_555
Zn12 Zr4 2.951058 1_555
Zn12 Zr1 2.972373 1_554
Zn12 Zr2 3.412561 1_655
Zn13 Zn20 2.547215 1_556
Zn13 Zn7 2.549914 1_555
Zn13 Zn33 2.557485 1_556
Zn13 Zn18 2.559404 1_565
Zn13 Zn14 2.686343 1_555
Zn13 Zn21 2.815316 1_556
Zn13 Zr3 2.951058 1_555
Zn13 Zr0 2.972373 1_556
Zn13 Zr2 3.412561 1_566
Zn14 Zn17 2.547215 1_556
Zn14 Zn8 2.549914 1_655
Zn14 Zn36 2.557490 1_556
Zn14 Zn19 2.559404 1_565
Zn14 Zn22 2.815316 1_656
Zn14 Zr3 2.951058 1_555
Zn14 Zr0 2.972374 1_556
Zn14 Zr2 3.412560 1_666
Zn15 Zn18 2.547215 1_554
Zn15 Zn9 2.549914 1_455
Zn15 Zn35 2.557490 1_554
Zn15 Zn20 2.559404 1_545
Zn15 Zn22 2.815316 1_555
Zn15 Zr4 2.951058 1_555
Zn15 Zr1 2.972374 1_554
Zn15 Zr2 3.412560 1_555
Zn16 Zn25 2.711152 1_555
Zn16 Zn26 2.711152 1_455
Zn16 Zn23 2.711158 1_555
Zn16 Zn24 2.711158 1_455
Zn16 Zn4 2.769420 1_455
Zn16 Zn5 2.769420 1_555
Zn16 Zn3 2.769420 1_555
Zn16 Zn2 2.769420 1_455
Zn16 Zr3 3.025728 1_455
Zn16 Zr4 3.025728 1_555
Zn17 Zn36 2.545180 1_555
Zn17 Zn6 2.559500 1_565
Zn17 Zn30 2.618485 1_555
Zn17 Zn20 2.751333 1_555
Zn17 Zn31 2.808930 1_565
Zn17 Zr4 2.928535 1_565
Zn17 Zr0 2.975442 1_555
Zn17 Zn2 3.095066 1_555
Zn17 Zr2 3.397421 1_665
Zn18 Zn35 2.545180 1_555
Zn18 Zn7 2.559500 1_545
Zn18 Zn29 2.618485 1_555
Zn18 Zn19 2.751333 1_555
Zn18 Zn31 2.808930 1_555
Zn18 Zr3 2.928535 1_545
Zn18 Zr1 2.975442 1_555
Zn18 Zn3 3.095066 1_555
Zn18 Zr2 3.397421 1_556
Zn19 Zn34 2.545169 1_555
Zn19 Zn8 2.559495 1_645
Zn19 Zn29 2.618490 1_555
Zn19 Zn32 2.808928 1_655
Zn19 Zr3 2.928539 1_545
Zn19 Zr1 2.975446 1_555
Zn19 Zn4 3.095064 1_555
Zn19 Zr2 3.397413 1_656
Zn20 Zn33 2.545169 1_555
Zn20 Zn9 2.559495 1_465
Zn20 Zn30 2.618490 1_555
Zn20 Zn32 2.808928 1_565
Zn20 Zr4 2.928539 1_565
Zn20 Zr0 2.975446 1_555
Zn20 Zn5 3.095064 1_555
Zn20 Zr2 3.397413 1_565
Zn21 Zn34 2.585810 1_554
Zn21 Zn33 2.585810 1_555
Zn21 Zn23 2.662644 1_555
Zn21 Zn24 2.662644 1_554
Zn21 Zr1 3.114727 1_554
Zn21 Zr0 3.114727 1_555
Zn22 Zn35 2.585813 1_554
Zn22 Zn36 2.585813 1_455
Zn22 Zn25 2.662644 1_554
Zn22 Zn26 2.662644 1_455
Zn22 Zr0 3.114728 1_455
Zn22 Zr1 3.114728 1_554
Zn23 Zn27 2.570302 1_555
Zn23 Zn5 2.648065 1_555
Zn23 Zn3 2.654164 1_555
Zn23 Zn6 2.710779 1_555
Zn23 Zn33 2.754564 1_555
Zn23 Zr0 2.959095 1_555
Zn23 Zr4 3.000772 1_555
Zn24 Zn28 2.570302 1_555
Zn24 Zn4 2.648065 1_555
Zn24 Zn7 2.710779 1_555
Zn24 Zn34 2.754564 1_555
Zn24 Zr1 2.959095 1_555
Zn24 Zr3 3.000772 1_555
Zn25 Zn28 2.570302 1_555
Zn25 Zn3 2.648065 1_555
Zn25 Zn5 2.654164 1_555
Zn25 Zn8 2.710781 1_555
Zn25 Zn35 2.754564 1_555
Zn25 Zr1 2.959101 1_555
Zn25 Zr3 3.000767 1_455
Zn26 Zn27 2.570302 1_555
Zn26 Zn4 2.654164 1_555
Zn26 Zn9 2.710781 1_555
Zn26 Zn36 2.754564 1_555
Zn26 Zr0 2.959101 1_555
Zn26 Zr4 3.000767 1_655
Zn27 Zn28 2.446747 1_555
Zn27 Zn29 2.556471 1_555
Zn27 Zn4 2.658784 1_555
Zn27 Zn3 2.658792 1_555
Zn27 Zn9 2.735526 1_555
Zn27 Zn6 2.735530 1_555
Zn27 Zr0 2.922756 1_555
Zn27 Zr1 3.270089 1_555
Zn28 Zn30 2.556471 1_555
Zn28 Zn5 2.658784 1_555
Zn28 Zn8 2.735526 1_555
Zn28 Zn7 2.735530 1_555
Zn28 Zr1 2.922756 1_555
Zn28 Zr0 3.270089 1_555
Zn29 Zn31 2.472572 1_555
Zn29 Zn32 2.472572 1_655
Zn29 Zn4 2.644653 1_555
Zn29 Zn3 2.644653 1_555
Zn29 Zn37 2.812515 1_545
Zn29 Zn6 2.856431 1_555
Zn29 Zn9 2.856431 1_555
Zn29 Zr1 2.867676 1_555
Zn29 Zr3 2.982820 1_545
Zn30 Zn31 2.472572 1_565
Zn30 Zn32 2.472572 1_565
Zn30 Zn5 2.644653 1_555
Zn30 Zn38 2.812515 1_565
Zn30 Zn7 2.856431 1_555
Zn30 Zn8 2.856431 1_555
Zn30 Zr0 2.867676 1_555
Zn30 Zr4 2.982820 1_565
Zn31 Zn6 2.576711 1_555
Zn31 Zn7 2.576711 1_545
Zn31 Zn38 2.700830 1_555
Zn31 Zn37 2.700830 1_545
Zn31 Zr3 3.042547 1_545
Zn31 Zr4 3.042547 1_555
Zn32 Zn8 2.576710 1_545
Zn32 Zn9 2.576710 1_455
Zn32 Zn5 2.636050 1_545
Zn32 Zn4 2.636050 1_455
Zn32 Zn38 2.700824 1_555
Zn32 Zn37 2.700824 1_445
Zn32 Zr4 3.042547 1_555
Zn32 Zr3 3.042547 1_445
Zn33 Zn5 2.576154 1_555
Zn33 Zn37 2.600604 1_455
Zn33 Zn36 2.604899 1_455
Zn33 Zr0 3.044706 1_555
Zn33 Zr2 3.107246 1_565
Zn34 Zn4 2.576154 1_555
Zn34 Zn38 2.600604 1_655
Zn34 Zn35 2.604899 1_655
Zn34 Zr1 3.044706 1_555
Zn34 Zr2 3.107246 1_656
Zn35 Zn38 2.600604 1_555
Zn35 Zr1 3.044714 1_555
Zn35 Zr2 3.107242 1_556
Zn36 Zn37 2.600604 1_555
Zn36 Zr0 3.044714 1_555
Zn36 Zr2 3.107242 1_665
Zn37 Zn9 2.699571 1_565
Zn37 Zn6 2.699575 1_565
Zn37 Zn5 2.791257 1_655
Zn37 Zr3 2.887494 1_555
Zn37 Zr2 3.109649 1_665
Zn38 Zn8 2.699571 1_545
Zn38 Zn7 2.699575 1_545
Zn38 Zn4 2.791257 1_455
Zn38 Zr4 2.887494 1_555
Zn38 Zr2 3.109649 1_556
