# generated using pymatgen
data_ReS8NO2
_symmetry_space_group_name_H-M   'P 1'
_cell_length_a   7.86038100
_cell_length_b   8.74623012
_cell_length_c   10.20727706
_cell_angle_alpha   83.87596624
_cell_angle_beta   77.61601136
_cell_angle_gamma   78.20883059
_symmetry_Int_Tables_number   1
_chemical_formula_structural   ReS8NO2
_chemical_formula_sum   'Re2 S16 N2 O4'
_cell_volume   669.49484284
_cell_formula_units_Z   2
loop_
 _symmetry_equiv_pos_site_id
 _symmetry_equiv_pos_as_xyz
  1  'x, y, z'
loop_
 _atom_site_type_symbol
 _atom_site_label
 _atom_site_symmetry_multiplicity
 _atom_site_fract_x
 _atom_site_fract_y
 _atom_site_fract_z
 _atom_site_occupancy
  Re  Re0  1  0.10482900  0.90766200  0.88747900  1
  Re  Re1  1  0.89517100  0.09233800  0.11252100  1
  S  S0  1  0.11892000  0.70920100  0.23992400  1
  S  S1  1  0.88108000  0.29079900  0.76007600  1
  S  S2  1  0.44087500  0.60644700  0.71399100  1
  S  S3  1  0.55912500  0.39355300  0.28600900  1
  S  S4  1  0.98999800  0.93324400  0.28324600  1
  S  S5  1  0.01000200  0.06675600  0.71675400  1
  S  S6  1  0.39916100  0.80214400  0.82146500  1
  S  S7  1  0.60083900  0.19785600  0.17853500  1
  S  S8  1  0.19039200  0.09344500  0.98125400  1
  S  S9  1  0.80960800  0.90655500  0.01874600  1
  S  S10  1  0.01659100  0.70024800  0.78037200  1
  S  S11  1  0.98340900  0.29975200  0.21962800  1
  S  S12  1  0.22239400  0.64180700  0.62526200  1
  S  S13  1  0.77760600  0.35819300  0.37473800  1
  S  S14  1  0.13583100  0.66031900  0.05103300  1
  S  S15  1  0.86416900  0.33968100  0.94896700  1
  N  N0  1  0.32587900  0.19265300  0.96999500  1
  N  N1  1  0.67412100  0.80734700  0.03000500  1
  O  O0  1  0.57620400  0.07741900  0.61689900  1
  O  O1  1  0.42379600  0.92258100  0.38310100  1
  O  O2  1  0.45687300  0.19324800  0.61331400  1
  O  O3  1  0.54312700  0.80675200  0.38668600  1
loop_
_geom_bond_atom_site_label_1
_geom_bond_atom_site_label_2
_geom_bond_distance
_geom_bond_site_symmetry_2
Re0 S8 2.250212 1_565
Re0 S5 2.268140 1_565
Re0 S6 2.291227 1_555
Re0 S9 2.419317 1_456
Re0 S10 2.495967 1_555
Re0 S14 2.591302 1_556
Re1 S9 2.250212 1_545
Re1 S4 2.268140 1_545
Re1 S7 2.291227 1_555
Re1 S8 2.419317 1_654
Re1 S11 2.495967 1_555
Re1 S15 2.591302 1_554
S0 S14 1.990126 1_555
S0 S4 2.059940 1_455
S1 S15 1.990126 1_555
S1 S5 2.059940 1_655
S2 S6 2.063382 1_555
S3 S7 2.063382 1_555
S10 S12 2.030033 1_555
S11 S13 2.030033 1_555
S12 S2 2.062883 1_555
S13 S3 2.062883 1_555
N0 S8 1.484646 1_555
N1 S9 1.484646 1_555
O0 O2 1.235282 1_555
O1 O3 1.235282 1_555
