# generated using pymatgen
data_Na2Zn(SO6)2
_symmetry_space_group_name_H-M   'P 1'
_cell_length_a   5.50776527
_cell_length_b   8.07479600
_cell_length_c   11.81681521
_cell_angle_alpha   90.00000000
_cell_angle_beta   92.45258540
_cell_angle_gamma   90.00000000
_symmetry_Int_Tables_number   1
_chemical_formula_structural   Na2Zn(SO6)2
_chemical_formula_sum   'Na4 Zn2 S4 O24'
_cell_volume   525.06058781
_cell_formula_units_Z   2
loop_
 _symmetry_equiv_pos_site_id
 _symmetry_equiv_pos_as_xyz
  1  'x, y, z'
loop_
 _atom_site_type_symbol
 _atom_site_label
 _atom_site_symmetry_multiplicity
 _atom_site_fract_x
 _atom_site_fract_y
 _atom_site_fract_z
 _atom_site_occupancy
  Na  Na0  1  0.84625600  0.53383800  0.12671300  1
  Na  Na1  1  0.15374400  0.03383800  0.37328700  1
  Na  Na2  1  0.15374400  0.46616200  0.87328700  1
  Na  Na3  1  0.84625600  0.96616200  0.62671300  1
  Zn  Zn0  1  0.00000000  0.50000000  0.50000000  1
  Zn  Zn1  1  0.00000000  0.00000000  0.00000000  1
  S  S0  1  0.64376700  0.78245700  0.36897300  1
  S  S1  1  0.35623300  0.28245700  0.13102700  1
  S  S2  1  0.35623300  0.21754300  0.63102700  1
  S  S3  1  0.64376700  0.71754300  0.86897300  1
  O  O0  1  0.65989100  0.81401800  0.23943700  1
  O  O1  1  0.34010900  0.31401800  0.26056300  1
  O  O2  1  0.34010900  0.18598200  0.76056300  1
  O  O3  1  0.65989100  0.68598200  0.73943700  1
  O  O4  1  0.78252200  0.91293500  0.42950400  1
  O  O5  1  0.21747800  0.41293500  0.07049600  1
  O  O6  1  0.21747800  0.08706500  0.57049600  1
  O  O7  1  0.78252200  0.58706500  0.92950400  1
  O  O8  1  0.74825000  0.61450400  0.39258500  1
  O  O9  1  0.25175000  0.11450400  0.10741500  1
  O  O10  1  0.25175000  0.38549600  0.60741500  1
  O  O11  1  0.74825000  0.88549600  0.89258500  1
  O  O12  1  0.38280500  0.78722900  0.38649600  1
  O  O13  1  0.61719500  0.28722900  0.11350400  1
  O  O14  1  0.61719500  0.21277100  0.61350400  1
  O  O15  1  0.38280500  0.71277100  0.88649600  1
  O  O16  1  0.01335000  0.33699000  0.28581700  1
  O  O17  1  0.98665000  0.83699000  0.21418300  1
  O  O18  1  0.98665000  0.66301000  0.71418300  1
  O  O19  1  0.01335000  0.16301000  0.78581700  1
  O  O20  1  0.01544300  0.80621900  0.10669100  1
  O  O21  1  0.98455700  0.30621900  0.39330900  1
  O  O22  1  0.98455700  0.19378100  0.89330900  1
  O  O23  1  0.01544300  0.69378100  0.60669100  1
loop_
_geom_bond_atom_site_label_1
_geom_bond_atom_site_label_2
_geom_bond_distance
_geom_bond_site_symmetry_2
Na0 O13 2.358925 1_555
Na0 O7 2.380886 1_554
Na0 O5 2.385592 1_655
Na0 O20 2.404294 1_655
Na0 O16 2.600041 1_655
Na0 O17 2.755005 1_555
Na0 O0 2.839611 1_555
Na1 O12 2.358925 1_545
Na1 O6 2.380886 1_555
Na1 O4 2.385592 1_445
Na1 O21 2.404294 1_455
Na1 O17 2.600041 1_445
Na1 O16 2.755005 1_555
Na1 O1 2.839611 1_555
Na2 O15 2.358925 1_555
Na2 O5 2.380886 1_556
Na2 O7 2.385592 1_455
Na2 O22 2.404294 1_455
Na2 O18 2.600041 1_455
Na2 O19 2.755005 1_555
Na2 O2 2.839611 1_555
Na3 O14 2.358925 1_565
Na3 O4 2.380886 1_555
Na3 O6 2.385592 1_665
Na3 O23 2.404294 1_655
Na3 O19 2.600041 1_665
Na3 O18 2.755005 1_555
Na3 O3 2.839611 1_555
O0 S0 1.558050 1_555
O0 O17 1.846183 1_555
O1 S1 1.558050 1_555
O1 O16 1.846183 1_555
O2 S2 1.558050 1_555
O3 S3 1.558050 1_555
O4 S0 1.469330 1_555
O5 S1 1.469330 1_555
O6 S2 1.469330 1_555
O7 S3 1.469330 1_555
O8 S0 1.494829 1_555
O8 Zn0 2.058636 1_655
O9 S1 1.494829 1_555
O9 Zn1 2.058636 1_555
O10 S2 1.494829 1_555
O10 Zn0 2.058636 1_555
O11 S3 1.494829 1_555
O11 Zn1 2.058636 1_666
O12 S0 1.461408 1_555
O13 S1 1.461408 1_555
O14 S2 1.461408 1_555
O15 S3 1.461408 1_555
O16 O21 1.310560 1_455
O17 O20 1.310560 1_655
O18 O23 1.310560 1_655
O18 O3 1.846183 1_555
O19 O22 1.310560 1_455
O19 O2 1.846183 1_555
O20 Zn1 2.008970 1_565
O21 Zn0 2.008970 1_655
O22 Zn1 2.008970 1_656
O23 Zn0 2.008970 1_555
