# generated using pymatgen
data_Li9Mn7O16
_symmetry_space_group_name_H-M   'P 1'
_cell_length_a   5.30210272
_cell_length_b   10.41891879
_cell_length_c   6.08637902
_cell_angle_alpha   103.55333227
_cell_angle_beta   69.32598526
_cell_angle_gamma   84.30094022
_symmetry_Int_Tables_number   1
_chemical_formula_structural   Li9Mn7O16
_chemical_formula_sum   'Li9 Mn7 O16'
_cell_volume   299.62552786
_cell_formula_units_Z   1
loop_
 _symmetry_equiv_pos_site_id
 _symmetry_equiv_pos_as_xyz
  1  'x, y, z'
loop_
 _atom_site_type_symbol
 _atom_site_label
 _atom_site_symmetry_multiplicity
 _atom_site_fract_x
 _atom_site_fract_y
 _atom_site_fract_z
 _atom_site_occupancy
  Li  Li0  1  0.50633700  0.11984300  0.92640800  1
  Li  Li1  1  0.50143500  0.37684600  0.31471800  1
  Li  Li2  1  0.49856500  0.62315400  0.68528200  1
  Li  Li3  1  0.49366300  0.88015700  0.07359200  1
  Li  Li4  1  0.50472500  0.12176600  0.44426400  1
  Li  Li5  1  0.50281300  0.37221000  0.81031400  1
  Li  Li6  1  0.49718700  0.62779000  0.18968600  1
  Li  Li7  1  0.49527500  0.87823400  0.55573600  1
  Li  Li8  1  0.00000000  0.00000000  0.50000000  1
  Mn  Mn0  1  0.00000000  0.00000000  0.00000000  1
  Mn  Mn1  1  0.00337300  0.75377900  0.62788400  1
  Mn  Mn2  1  0.99662700  0.24622100  0.37211600  1
  Mn  Mn3  1  0.00233200  0.49882800  0.74953600  1
  Mn  Mn4  1  0.00497100  0.75446800  0.13508200  1
  Mn  Mn5  1  0.99502900  0.24553200  0.86491800  1
  Mn  Mn6  1  0.99766800  0.50117200  0.25046400  1
  O  O0  1  0.23151000  0.06830300  0.73975600  1
  O  O1  1  0.21729300  0.31671600  0.10432100  1
  O  O2  1  0.23311500  0.56684600  0.49142800  1
  O  O3  1  0.23860600  0.82274600  0.87041900  1
  O  O4  1  0.20830500  0.06472300  0.20015100  1
  O  O5  1  0.23689800  0.31576300  0.61126200  1
  O  O6  1  0.23107100  0.57162200  0.99301300  1
  O  O7  1  0.22505000  0.80694200  0.35118100  1
  O  O8  1  0.76139300  0.17725400  0.12958100  1
  O  O9  1  0.76688500  0.43315400  0.50857200  1
  O  O10  1  0.78270700  0.68328400  0.89567900  1
  O  O11  1  0.76849000  0.93169700  0.26024400  1
  O  O12  1  0.77495000  0.19305800  0.64881900  1
  O  O13  1  0.76892900  0.42837800  0.00698600  1
  O  O14  1  0.76310200  0.68423700  0.38873800  1
  O  O15  1  0.79169500  0.93527700  0.79985000  1
loop_
_geom_bond_atom_site_label_1
_geom_bond_atom_site_label_2
_geom_bond_distance
_geom_bond_site_symmetry_2
Li0 O4 2.091035 1_556
Li0 O15 2.117860 1_545
Li0 O12 2.141383 1_555
Li0 O8 2.170372 1_556
Li0 O0 2.177292 1_555
Li0 O1 2.211677 1_556
Li1 O2 2.112310 1_555
Li1 O13 2.134174 1_555
Li1 O5 2.134961 1_555
Li1 O9 2.174690 1_555
Li1 O8 2.174798 1_555
Li1 O1 2.340014 1_555
Li2 O9 2.112310 1_555
Li2 O6 2.134170 1_555
Li2 O14 2.134961 1_555
Li2 O2 2.174690 1_555
Li2 O3 2.174800 1_555
Li2 O10 2.340014 1_555
Li3 O15 2.091032 1_554
Li3 O4 2.117860 1_565
Li3 O7 2.141383 1_555
Li3 O3 2.170377 1_554
Li3 O11 2.177292 1_555
Li3 O10 2.211677 1_554
Li4 O0 2.105582 1_555
Li4 O11 2.106251 1_545
Li4 O5 2.140776 1_555
Li4 O8 2.165485 1_555
Li4 O12 2.278599 1_555
Li4 O4 2.539932 1_555
Li5 O12 2.033696 1_555
Li5 O1 2.138721 1_556
Li5 O9 2.154960 1_555
Li5 O13 2.189617 1_556
Li5 O6 2.195546 1_555
Li5 O5 2.199614 1_555
Li6 O7 2.033696 1_555
Li6 O10 2.138721 1_554
Li6 O2 2.154960 1_555
Li6 O6 2.189621 1_554
Li6 O13 2.195547 1_555
Li6 O14 2.199614 1_555
Li7 O11 2.105582 1_555
Li7 O0 2.106251 1_565
Li7 O14 2.140776 1_555
Li7 O3 2.165487 1_555
Li7 O7 2.278599 1_555
Li7 O15 2.539937 1_555
Li8 O12 2.048516 1_455
Li8 O7 2.048516 1_545
Li8 O4 2.075251 1_555
Li8 O15 2.075256 1_445
Li8 O11 2.257012 1_445
Li8 O0 2.257012 1_555
Mn0 O3 1.944724 1_544
Mn0 O8 1.944726 1_455
Mn0 O11 1.962397 1_445
Mn0 O0 1.962397 1_554
Mn0 O15 1.967599 1_444
Mn0 O4 1.967604 1_555
Mn1 O7 1.921811 1_555
Mn1 O15 1.937115 1_455
Mn1 O10 1.987506 1_455
Mn1 O2 2.005790 1_555
Mn1 O3 2.287315 1_555
Mn1 O14 2.294516 1_455
Mn2 O12 1.921811 1_555
Mn2 O4 1.937115 1_655
Mn2 O1 1.987506 1_655
Mn2 O9 2.005790 1_555
Mn2 O8 2.287319 1_555
Mn2 O5 2.294516 1_655
Mn3 O2 1.950404 1_555
Mn3 O10 1.965597 1_455
Mn3 O13 1.968707 1_456
Mn3 O5 1.982535 1_555
Mn3 O6 2.273113 1_555
Mn3 O9 2.273672 1_455
Mn4 O11 1.941279 1_455
Mn4 O6 1.963789 1_554
Mn4 O14 1.970116 1_455
Mn4 O3 1.984570 1_554
Mn4 O7 2.064894 1_555
Mn4 O10 2.222954 1_454
Mn5 O0 1.941279 1_655
Mn5 O13 1.963789 1_556
Mn5 O5 1.970116 1_655
Mn5 O8 1.984572 1_556
Mn5 O12 2.064894 1_555
Mn5 O1 2.222954 1_656
Mn6 O9 1.950404 1_555
Mn6 O1 1.965597 1_655
Mn6 O6 1.968711 1_654
Mn6 O14 1.982535 1_555
Mn6 O13 2.273118 1_555
Mn6 O2 2.273672 1_655
