# generated using pymatgen
data_Na3PO4
_symmetry_space_group_name_H-M   'P 1'
_cell_length_a   5.25151200
_cell_length_b   5.25151200
_cell_length_c   7.89210900
_cell_angle_alpha   90.00000000
_cell_angle_beta   90.00000000
_cell_angle_gamma   90.00000000
_symmetry_Int_Tables_number   1
_chemical_formula_structural   Na3PO4
_chemical_formula_sum   'Na6 P2 O8'
_cell_volume   217.65156748
_cell_formula_units_Z   2
loop_
 _symmetry_equiv_pos_site_id
 _symmetry_equiv_pos_as_xyz
  1  'x, y, z'
loop_
 _atom_site_type_symbol
 _atom_site_label
 _atom_site_symmetry_multiplicity
 _atom_site_fract_x
 _atom_site_fract_y
 _atom_site_fract_z
 _atom_site_occupancy
  Na  Na0  1  0.00000000  0.50000000  0.75000000  1
  Na  Na1  1  0.50000000  0.50000000  0.00000000  1
  Na  Na2  1  0.50000000  0.00000000  0.75000000  1
  Na  Na3  1  0.50000000  0.00000000  0.25000000  1
  Na  Na4  1  0.00000000  0.50000000  0.25000000  1
  Na  Na5  1  0.00000000  0.00000000  0.50000000  1
  P  P0  1  0.00000000  0.00000000  0.00000000  1
  P  P1  1  0.50000000  0.50000000  0.50000000  1
  O  O0  1  0.71685300  0.28314700  0.50000000  1
  O  O1  1  0.21685300  0.21685300  0.00000000  1
  O  O2  1  0.50000000  0.50000000  0.29180500  1
  O  O3  1  0.50000000  0.50000000  0.70819500  1
  O  O4  1  0.78314700  0.78314700  0.00000000  1
  O  O5  1  0.00000000  0.00000000  0.79180500  1
  O  O6  1  0.00000000  0.00000000  0.20819500  1
  O  O7  1  0.28314700  0.71685300  0.50000000  1
loop_
_geom_bond_atom_site_label_1
_geom_bond_atom_site_label_2
_geom_bond_distance
_geom_bond_site_symmetry_2
Na0 O3 2.646403 1_455
Na0 O5 2.646403 1_555
Na0 O5 2.646403 1_565
Na0 O3 2.646403 1_555
Na0 O4 2.720429 1_456
Na0 O7 2.720429 1_555
Na0 O1 2.720429 1_556
Na0 O0 2.720429 1_455
Na1 O4 2.102865 1_555
Na1 O1 2.102865 1_555
Na1 O3 2.302957 1_554
Na1 O2 2.302957 1_555
Na2 O3 2.646403 1_545
Na2 O5 2.646403 1_655
Na2 O5 2.646403 1_555
Na2 O3 2.646403 1_555
Na2 O4 2.720429 1_546
Na2 O0 2.720429 1_555
Na2 O1 2.720429 1_556
Na2 O7 2.720429 1_545
Na3 O6 2.646403 1_655
Na3 O2 2.646403 1_555
Na3 O2 2.646403 1_545
Na3 O6 2.646403 1_555
Na3 O4 2.720429 1_545
Na3 O0 2.720429 1_555
Na3 O1 2.720429 1_555
Na3 O7 2.720429 1_545
Na4 O2 2.646403 1_455
Na4 O2 2.646403 1_555
Na4 O6 2.646403 1_555
Na4 O6 2.646403 1_565
Na4 O4 2.720429 1_455
Na4 O1 2.720429 1_555
Na4 O0 2.720429 1_455
Na4 O7 2.720429 1_555
Na5 O0 2.102865 1_455
Na5 O7 2.102865 1_545
Na5 O6 2.302957 1_555
Na5 O5 2.302957 1_555
O0 P1 1.610515 1_555
O1 P0 1.610515 1_555
O2 P1 1.643098 1_555
O3 P1 1.643098 1_555
O4 P0 1.610515 1_665
O5 P0 1.643098 1_556
O6 P0 1.643098 1_555
O7 P1 1.610515 1_555
