# generated using pymatgen
data_BaSrAl20(CuO17)2
_symmetry_space_group_name_H-M   'P 1'
_cell_length_a   5.67081178
_cell_length_b   5.67081178
_cell_length_c   22.82302500
_cell_angle_alpha   90.00000000
_cell_angle_beta   90.00000000
_cell_angle_gamma   119.99999745
_symmetry_Int_Tables_number   1
_chemical_formula_structural   BaSrAl20(CuO17)2
_chemical_formula_sum   'Ba1 Sr1 Al20 Cu2 O34'
_cell_volume   635.61525923
_cell_formula_units_Z   1
loop_
 _symmetry_equiv_pos_site_id
 _symmetry_equiv_pos_as_xyz
  1  'x, y, z'
loop_
 _atom_site_type_symbol
 _atom_site_label
 _atom_site_symmetry_multiplicity
 _atom_site_fract_x
 _atom_site_fract_y
 _atom_site_fract_z
 _atom_site_occupancy
  Ba  Ba0  1  0.00000000  0.00000000  0.24809500  1
  Sr  Sr0  1  0.66666700  0.33333300  0.74731900  1
  Al  Al0  1  0.00000000  0.00000000  0.67244800  1
  Al  Al1  1  0.66666700  0.33333300  0.32375600  1
  Al  Al2  1  0.66666700  0.33333300  0.17171800  1
  Al  Al3  1  0.00000000  0.00000000  0.82290200  1
  Al  Al4  1  0.33333300  0.66666700  0.50191400  1
  Al  Al5  1  0.33333300  0.66666700  0.00044100  1
  Al  Al6  1  0.16501400  0.33002900  0.39424200  1
  Al  Al7  1  0.16501400  0.83498600  0.39424200  1
  Al  Al8  1  0.66997100  0.83498600  0.39424200  1
  Al  Al9  1  0.49761100  0.99522100  0.60726600  1
  Al  Al10  1  0.49761100  0.50238900  0.60726600  1
  Al  Al11  1  0.00477900  0.50238900  0.60726600  1
  Al  Al12  1  0.50210200  0.00420300  0.89273100  1
  Al  Al13  1  0.50210200  0.49789800  0.89273100  1
  Al  Al14  1  0.99579700  0.49789800  0.89273100  1
  Al  Al15  1  0.16929000  0.33857900  0.10582300  1
  Al  Al16  1  0.16929000  0.83071000  0.10582300  1
  Al  Al17  1  0.66142100  0.83071000  0.10582300  1
  Al  Al18  1  0.66666700  0.33333300  0.47795100  1
  Al  Al19  1  0.00000000  0.00000000  0.97700000  1
  Cu  Cu0  1  0.00000000  0.00000000  0.52535500  1
  Cu  Cu1  1  0.66666700  0.33333300  0.02473200  1
  O  O0  1  0.18513700  0.37027400  0.55493000  1
  O  O1  1  0.18513700  0.81486300  0.55493000  1
  O  O2  1  0.62972600  0.81486300  0.55493000  1
  O  O3  1  0.49124400  0.98248800  0.45032300  1
  O  O4  1  0.49124400  0.50875600  0.45032300  1
  O  O5  1  0.01751200  0.50875600  0.45032300  1
  O  O6  1  0.48120400  0.96240900  0.05365900  1
  O  O7  1  0.48120400  0.51879600  0.05365900  1
  O  O8  1  0.03759100  0.51879600  0.05365900  1
  O  O9  1  0.17501100  0.35002300  0.94911400  1
  O  O10  1  0.17501100  0.82498900  0.94911400  1
  O  O11  1  0.64997700  0.82498900  0.94911400  1
  O  O12  1  0.00000000  0.00000000  0.43654800  1
  O  O13  1  0.66666700  0.33333300  0.55764800  1
  O  O14  1  0.66666700  0.33333300  0.93546100  1
  O  O15  1  0.00000000  0.00000000  0.05663300  1
  O  O16  1  0.82609000  0.65218100  0.64965400  1
  O  O17  1  0.82609000  0.17391000  0.64965400  1
  O  O18  1  0.34781900  0.17391000  0.64965400  1
  O  O19  1  0.83671700  0.67343300  0.35039700  1
  O  O20  1  0.83671700  0.16328300  0.35039700  1
  O  O21  1  0.32656700  0.16328300  0.35039700  1
  O  O22  1  0.83907100  0.67814200  0.14752400  1
  O  O23  1  0.83907100  0.16092900  0.14752400  1
  O  O24  1  0.32185800  0.16092900  0.14752400  1
  O  O25  1  0.82851700  0.65703400  0.84823800  1
  O  O26  1  0.82851700  0.17148300  0.84823800  1
  O  O27  1  0.34296600  0.17148300  0.84823800  1
  O  O28  1  0.33333300  0.66666700  0.64829000  1
  O  O29  1  0.33333300  0.66666700  0.35871500  1
  O  O30  1  0.33333300  0.66666700  0.14741000  1
  O  O31  1  0.33333300  0.66666700  0.85796600  1
  O  O32  1  0.00000000  0.00000000  0.74802000  1
  O  O33  1  0.66666700  0.33333300  0.24797800  1
loop_
_geom_bond_atom_site_label_1
_geom_bond_atom_site_label_2
_geom_bond_distance
_geom_bond_site_symmetry_2
Ba0 O23 2.786946 1_455
Ba0 O24 2.786946 1_555
Ba0 O22 2.786946 1_445
Ba0 O20 2.832599 1_455
Ba0 O21 2.832602 1_555
Ba0 O19 2.832602 1_445
Ba0 O33 3.274042 1_455
Ba0 O33 3.274048 1_445
Ba0 O33 3.274048 1_555
Al0 O32 1.724782 1_555
Al0 O16 1.785625 1_445
Al0 O18 1.785625 1_555
Al0 O17 1.785630 1_455
Al1 O33 1.729483 1_555
Al1 O20 1.777483 1_555
Al1 O19 1.777483 1_555
Al1 O21 1.777483 1_555
Al2 O33 1.740484 1_555
Al2 O23 1.781130 1_555
Al2 O22 1.781134 1_555
Al2 O24 1.781134 1_555
Al3 O32 1.709034 1_555
Al3 O26 1.780823 1_455
Al3 O25 1.780823 1_445
Al3 O27 1.780823 1_555
Al4 O1 1.892839 1_555
Al4 O0 1.892843 1_555
Al4 O2 1.892843 1_555
Al4 O3 1.947325 1_555
Al4 O5 1.947325 1_555
Al4 O4 1.947329 1_555
Al5 O7 1.893339 1_555
Al5 O6 1.893339 1_555
Al5 O8 1.893339 1_555
Al5 O10 1.946915 1_554
Al5 O11 1.946915 1_554
Al5 O9 1.946915 1_554
Al6 O29 1.841383 1_555
Al6 O12 1.886601 1_555
Al6 O20 1.897641 1_455
Al6 O21 1.897650 1_555
Al6 O5 2.052537 1_555
Al6 O4 2.052541 1_555
Al7 O29 1.841383 1_555
Al7 O12 1.886597 1_565
Al7 O21 1.897641 1_565
Al7 O19 1.897641 1_455
Al7 O3 2.052541 1_555
Al7 O5 2.052541 1_555
Al8 O29 1.841383 1_555
Al8 O12 1.886601 1_665
Al8 O20 1.897641 1_565
Al8 O19 1.897650 1_555
Al8 O3 2.052537 1_555
Al8 O4 2.052541 1_555
Al9 O28 1.865526 1_555
Al9 O17 1.882811 1_565
Al9 O18 1.882819 1_565
Al9 O2 1.949457 1_555
Al9 O1 1.949461 1_555
Al9 O13 2.009884 1_565
Al10 O28 1.865535 1_555
Al10 O18 1.882811 1_555
Al10 O16 1.882811 1_555
Al10 O0 1.949461 1_555
Al10 O2 1.949461 1_555
Al10 O13 2.009884 1_555
Al11 O28 1.865526 1_555
Al11 O17 1.882811 1_455
Al11 O16 1.882819 1_455
Al11 O0 1.949457 1_555
Al11 O1 1.949461 1_555
Al11 O13 2.009884 1_455
Al12 O31 1.837769 1_545
Al12 O14 1.887790 1_555
Al12 O26 1.897751 1_555
Al12 O27 1.897755 1_555
Al12 O11 2.060148 1_545
Al12 O10 2.060155 1_545
Al13 O31 1.837778 1_555
Al13 O14 1.887790 1_555
Al13 O27 1.897751 1_555
Al13 O25 1.897751 1_555
Al13 O9 2.060156 1_555
Al13 O11 2.060156 1_555
Al14 O31 1.837769 1_655
Al14 O14 1.887790 1_555
Al14 O26 1.897751 1_555
Al14 O25 1.897755 1_555
Al14 O9 2.060148 1_655
Al14 O10 2.060155 1_655
Al15 O30 1.870036 1_555
Al15 O24 1.881716 1_555
Al15 O23 1.881721 1_455
Al15 O7 1.944947 1_555
Al15 O8 1.944954 1_555
Al15 O15 2.006297 1_555
Al16 O30 1.870028 1_555
Al16 O24 1.881721 1_565
Al16 O22 1.881721 1_455
Al16 O6 1.944946 1_555
Al16 O8 1.944946 1_555
Al16 O15 2.006301 1_565
Al17 O30 1.870036 1_555
Al17 O22 1.881716 1_555
Al17 O23 1.881721 1_565
Al17 O7 1.944947 1_555
Al17 O6 1.944954 1_555
Al17 O15 2.006297 1_665
Al18 O13 1.818927 1_555
Al18 O5 1.834778 1_655
Al18 O3 1.834778 1_545
Al18 O4 1.834782 1_555
Al19 O15 1.817466 1_556
Al19 O10 1.833019 1_545
Al19 O9 1.833023 1_555
Al19 O11 1.833023 1_445
Cu0 O1 1.939675 1_545
Cu0 O2 1.939675 1_445
Cu0 O0 1.939675 1_555
Cu0 O12 2.026844 1_555
Cu1 O8 1.937579 1_655
Cu1 O6 1.937579 1_545
Cu1 O7 1.937588 1_555
Cu1 O14 2.037434 1_554
O16 Sr0 2.724056 1_555
O17 Sr0 2.724050 1_555
O18 Sr0 2.724056 1_555
O25 Sr0 2.798622 1_555
O26 Sr0 2.798619 1_555
O27 Sr0 2.798622 1_555
