# generated using pymatgen
data_Yb(CoGe)6
_symmetry_space_group_name_H-M   'P 1'
_cell_length_a   5.07457897
_cell_length_b   5.07475157
_cell_length_c   7.82961500
_cell_angle_alpha   90.00000000
_cell_angle_beta   90.00000000
_cell_angle_gamma   119.99886927
_symmetry_Int_Tables_number   1
_chemical_formula_structural   Yb(CoGe)6
_chemical_formula_sum   'Yb1 Co6 Ge6'
_cell_volume   174.61871536
_cell_formula_units_Z   1
loop_
 _symmetry_equiv_pos_site_id
 _symmetry_equiv_pos_as_xyz
  1  'x, y, z'
loop_
 _atom_site_type_symbol
 _atom_site_label
 _atom_site_symmetry_multiplicity
 _atom_site_fract_x
 _atom_site_fract_y
 _atom_site_fract_z
 _atom_site_occupancy
  Yb  Yb0  1  0.99998100  0.00000000  0.00000000  1
  Co  Co0  1  0.49999500  0.00000000  0.25075700  1
  Co  Co1  1  0.49999200  0.50000400  0.25075400  1
  Co  Co2  1  0.99998800  0.49999600  0.25075400  1
  Co  Co3  1  0.49999500  0.00000000  0.74924300  1
  Co  Co4  1  0.49999200  0.50000400  0.74924600  1
  Co  Co5  1  0.99998800  0.49999600  0.74924600  1
  Ge  Ge0  1  0.33333000  0.66670500  0.00000000  1
  Ge  Ge1  1  0.66662500  0.33329500  0.00000000  1
  Ge  Ge2  1  0.33332900  0.66672100  0.50000000  1
  Ge  Ge3  1  0.66660700  0.33327900  0.50000000  1
  Ge  Ge4  1  0.99999000  0.00000000  0.34208200  1
  Ge  Ge5  1  0.99999000  0.00000000  0.65791800  1
loop_
_geom_bond_atom_site_label_1
_geom_bond_atom_site_label_2
_geom_bond_distance
_geom_bond_site_symmetry_2
Co0 Ge2 2.440021 1_545
Co0 Ge3 2.440021 1_555
Co0 Ge1 2.449554 1_555
Co0 Ge0 2.449554 1_545
Co0 Co1 2.537348 1_545
Co0 Co2 2.537348 1_555
Co0 Co1 2.537404 1_555
Co0 Co2 2.537404 1_445
Co0 Ge4 2.636094 1_555
Co0 Ge4 2.636143 1_455
Co0 Yb0 3.208137 1_555
Co0 Yb0 3.208250 1_455
Co1 Ge3 2.440171 1_555
Co1 Ge2 2.440276 1_555
Co1 Ge1 2.449629 1_555
Co1 Ge0 2.449684 1_555
Co1 Co2 2.537289 1_555
Co1 Co2 2.537289 1_455
Co1 Ge4 2.636193 1_565
Co1 Ge4 2.636223 1_455
Co1 Yb0 3.208217 1_565
Co1 Yb0 3.208278 1_455
Co2 Ge2 2.440174 1_655
Co2 Ge3 2.440279 1_555
Co2 Ge0 2.449629 1_655
Co2 Ge1 2.449684 1_555
Co2 Ge4 2.636193 1_555
Co2 Ge4 2.636222 1_565
Co2 Yb0 3.208217 1_555
Co2 Yb0 3.208277 1_565
Co3 Ge2 2.440021 1_545
Co3 Ge3 2.440021 1_555
Co3 Ge1 2.449554 1_556
Co3 Ge0 2.449554 1_546
Co3 Co4 2.537348 1_545
Co3 Co5 2.537348 1_555
Co3 Co4 2.537404 1_555
Co3 Co5 2.537404 1_445
Co3 Ge5 2.636094 1_555
Co3 Ge5 2.636143 1_455
Co3 Yb0 3.208137 1_556
Co3 Yb0 3.208250 1_456
Co4 Ge3 2.440171 1_555
Co4 Ge2 2.440276 1_555
Co4 Ge1 2.449629 1_556
Co4 Ge0 2.449684 1_556
Co4 Co5 2.537289 1_555
Co4 Co5 2.537289 1_455
Co4 Ge5 2.636193 1_565
Co4 Ge5 2.636223 1_455
Co4 Yb0 3.208217 1_566
Co4 Yb0 3.208278 1_456
Co5 Ge2 2.440174 1_655
Co5 Ge3 2.440279 1_555
Co5 Ge0 2.449629 1_656
Co5 Ge1 2.449684 1_556
Co5 Ge5 2.636193 1_555
Co5 Ge5 2.636222 1_565
Co5 Yb0 3.208217 1_556
Co5 Yb0 3.208277 1_566
Ge0 Yb0 2.929743 1_465
Ge0 Yb0 2.929774 1_565
Ge0 Yb0 2.930111 1_455
Ge1 Yb0 2.929743 1_455
Ge1 Yb0 2.929774 1_555
Ge1 Yb0 2.930111 1_565
Ge4 Ge5 2.472874 1_555
Ge4 Yb0 2.678370 1_555
Ge5 Yb0 2.678370 1_556
