# generated using pymatgen
data_Ca(CuO2)2
_symmetry_space_group_name_H-M   'P 1'
_cell_length_a   6.33071859
_cell_length_b   6.33071859
_cell_length_c   6.33071850
_cell_angle_alpha   58.27243049
_cell_angle_beta   58.27243049
_cell_angle_gamma   58.27242615
_symmetry_Int_Tables_number   1
_chemical_formula_structural   Ca(CuO2)2
_chemical_formula_sum   'Ca2 Cu4 O8'
_cell_volume   172.30975627
_cell_formula_units_Z   2
loop_
 _symmetry_equiv_pos_site_id
 _symmetry_equiv_pos_as_xyz
  1  'x, y, z'
loop_
 _atom_site_type_symbol
 _atom_site_label
 _atom_site_symmetry_multiplicity
 _atom_site_fract_x
 _atom_site_fract_y
 _atom_site_fract_z
 _atom_site_occupancy
  Ca  Ca0  1  0.02074300  0.02074300  0.02074300  1
  Ca  Ca1  1  0.62341000  0.62341000  0.62341000  1
  Cu  Cu0  1  0.23754400  0.23754400  0.23754400  1
  Cu  Cu1  1  0.63086400  0.12080600  0.63086400  1
  Cu  Cu2  1  0.63086400  0.63086400  0.12080600  1
  Cu  Cu3  1  0.12080600  0.63086400  0.63086400  1
  O  O0  1  0.82467900  0.36348800  0.36348800  1
  O  O1  1  0.36348800  0.36348800  0.82467900  1
  O  O2  1  0.36348800  0.82467900  0.36348800  1
  O  O3  1  0.35626100  0.35626100  0.35626100  1
  O  O4  1  0.87787500  0.87787500  0.87787500  1
  O  O5  1  0.87425500  0.45145900  0.87425500  1
  O  O6  1  0.87425500  0.87425500  0.45145900  1
  O  O7  1  0.45145900  0.87425500  0.87425500  1
loop_
_geom_bond_atom_site_label_1
_geom_bond_atom_site_label_2
_geom_bond_distance
_geom_bond_site_symmetry_2
Ca0 O5 2.177270 1_454
Ca0 O7 2.177270 1_544
Ca0 O6 2.177270 1_445
Ca0 O4 2.243944 1_444
Ca1 O7 2.290132 1_555
Ca1 O5 2.290132 1_555
Ca1 O6 2.290132 1_555
Ca1 O0 2.340143 1_555
Ca1 O2 2.340143 1_555
Ca1 O1 2.340143 1_555
Cu0 O3 1.864619 1_555
Cu0 O2 2.094745 1_545
Cu0 O0 2.094745 1_455
Cu0 O1 2.094745 1_554
Cu1 O6 1.895990 1_545
Cu1 O7 1.895990 1_545
Cu1 O1 1.947855 1_555
Cu1 O0 1.947855 1_555
Cu1 O4 2.183792 1_545
Cu1 O3 2.448244 1_555
Cu2 O7 1.895990 1_554
Cu2 O5 1.895990 1_554
Cu2 O0 1.947855 1_555
Cu2 O2 1.947855 1_555
Cu2 O4 2.183792 1_554
Cu2 O3 2.448244 1_555
Cu3 O6 1.895990 1_455
Cu3 O5 1.895990 1_455
Cu3 O1 1.947855 1_555
Cu3 O2 1.947855 1_555
Cu3 O4 2.183792 1_455
Cu3 O3 2.448244 1_555
