# generated using pymatgen
data_Ce(PO4)3
_symmetry_space_group_name_H-M   'P 1'
_cell_length_a   6.76228900
_cell_length_b   6.76228870
_cell_length_c   5.90774000
_cell_angle_alpha   90.00000000
_cell_angle_beta   90.00000000
_cell_angle_gamma   119.99999659
_symmetry_Int_Tables_number   1
_chemical_formula_structural   Ce(PO4)3
_chemical_formula_sum   'Ce1 P3 O12'
_cell_volume   233.95883784
_cell_formula_units_Z   1
loop_
 _symmetry_equiv_pos_site_id
 _symmetry_equiv_pos_as_xyz
  1  'x, y, z'
loop_
 _atom_site_type_symbol
 _atom_site_label
 _atom_site_symmetry_multiplicity
 _atom_site_fract_x
 _atom_site_fract_y
 _atom_site_fract_z
 _atom_site_occupancy
  Ce  Ce0  1  0.33333300  0.66666700  0.50000000  1
  P  P0  1  0.94691200  0.54888600  0.00000000  1
  P  P1  1  0.45111400  0.39802600  0.00000000  1
  P  P2  1  0.60197400  0.05308800  0.00000000  1
  O  O0  1  0.72185400  0.57110700  0.00000000  1
  O  O1  1  0.42889300  0.15074700  0.00000000  1
  O  O2  1  0.84925300  0.27814600  0.00000000  1
  O  O3  1  0.07350400  0.64742500  0.21737300  1
  O  O4  1  0.35257500  0.42607900  0.21737300  1
  O  O5  1  0.57392100  0.92649600  0.21737300  1
  O  O6  1  0.07350400  0.64742500  0.78262700  1
  O  O7  1  0.35257500  0.42607900  0.78262700  1
  O  O8  1  0.57392100  0.92649600  0.78262700  1
  O  O9  1  0.29705600  0.00870200  0.50000000  1
  O  O10  1  0.99129800  0.28835400  0.50000000  1
  O  O11  1  0.71164600  0.70294400  0.50000000  1
loop_
_geom_bond_atom_site_label_1
_geom_bond_atom_site_label_2
_geom_bond_distance
_geom_bond_site_symmetry_2
Ce0 O3 2.379778 1_555
Ce0 O6 2.379778 1_555
Ce0 O8 2.379780 1_555
Ce0 O5 2.379780 1_555
Ce0 O7 2.379783 1_555
Ce0 O4 2.379783 1_555
Ce0 O9 2.444845 1_565
Ce0 O10 2.444849 1_455
Ce0 O11 2.444852 1_555
O0 P0 1.602333 1_555
O0 P1 1.605915 1_555
O1 P1 1.602333 1_555
O1 P2 1.605915 1_555
O2 P2 1.602333 1_555
O2 P0 1.605915 1_555
O3 P0 1.501846 1_455
O4 P1 1.501846 1_555
O5 P2 1.501846 1_565
O6 P0 1.501846 1_456
O7 P1 1.501846 1_556
O8 P2 1.501846 1_566
