# generated using pymatgen
data_Pr(AlAu)2
_symmetry_space_group_name_H-M   'P 1'
_cell_length_a   4.40875627
_cell_length_b   4.40875627
_cell_length_c   10.46218635
_cell_angle_alpha   90.00000000
_cell_angle_beta   90.00000000
_cell_angle_gamma   90.00000000
_symmetry_Int_Tables_number   1
_chemical_formula_structural   Pr(AlAu)2
_chemical_formula_sum   'Pr2 Al4 Au4'
_cell_volume   203.35489551
_cell_formula_units_Z   2
loop_
 _symmetry_equiv_pos_site_id
 _symmetry_equiv_pos_as_xyz
  1  'x, y, z'
loop_
 _atom_site_type_symbol
 _atom_site_label
 _atom_site_symmetry_multiplicity
 _atom_site_fract_x
 _atom_site_fract_y
 _atom_site_fract_z
 _atom_site_occupancy
  Pr  Pr0  1  0.00000000  0.50000000  0.24907339  1
  Pr  Pr1  1  0.50000000  -0.00000000  0.75092661  1
  Al  Al0  1  -0.00000000  -0.00000000  0.50000000  1
  Al  Al1  1  0.50000000  0.50000000  0.50000000  1
  Al  Al2  1  -0.00000000  0.50000000  0.86955722  1
  Al  Al3  1  0.50000000  -0.00000000  0.13044278  1
  Au  Au0  1  0.00000000  -0.00000000  0.00000000  1
  Au  Au1  1  0.50000000  0.50000000  0.00000000  1
  Au  Au2  1  0.00000000  0.50000000  0.62931271  1
  Au  Au3  1  0.50000000  0.00000000  0.37068729  1
loop_
_geom_bond_atom_site_label_1
_geom_bond_atom_site_label_2
_geom_bond_distance
_geom_bond_site_symmetry_2
Al0 Au2 2.586427 1_545
Al0 Au3 2.586427 1_455
Al0 Au2 2.586427 1_555
Al0 Au3 2.586427 1_555
Al0 Pr0 3.427998 1_545
Al0 Pr0 3.427998 1_555
Al0 Pr1 3.427998 1_455
Al0 Pr1 3.427998 1_555
Al1 Au3 2.586427 1_565
Al1 Au2 2.586427 1_555
Al1 Au3 2.586427 1_555
Al1 Au2 2.586427 1_655
Al1 Pr0 3.427998 1_555
Al1 Pr0 3.427998 1_655
Al1 Pr1 3.427998 1_565
Al1 Pr1 3.427998 1_555
Al2 Au2 2.513483 1_555
Al2 Au0 2.592631 1_556
Al2 Au1 2.592631 1_556
Al2 Au0 2.592631 1_566
Al2 Au1 2.592631 1_456
Al2 Pr1 3.355441 1_455
Al2 Pr1 3.355441 1_565
Al2 Pr1 3.355441 1_555
Al2 Pr1 3.355441 1_465
Al3 Au3 2.513483 1_555
Al3 Au1 2.592631 1_555
Al3 Au0 2.592631 1_555
Al3 Au0 2.592631 1_655
Al3 Au1 2.592631 1_545
Al3 Pr0 3.355441 1_645
Al3 Pr0 3.355441 1_555
Al3 Pr0 3.355441 1_655
Al3 Pr0 3.355441 1_545
Au0 Pr1 3.413173 1_554
Au0 Pr1 3.413173 1_454
Au0 Pr0 3.413173 1_545
Au0 Pr0 3.413173 1_555
Au1 Pr1 3.413173 1_564
Au1 Pr1 3.413173 1_554
Au1 Pr0 3.413173 1_555
Au1 Pr0 3.413173 1_655
Au2 Pr1 3.367111 1_565
Au2 Pr1 3.367111 1_465
Au2 Pr1 3.367111 1_555
Au2 Pr1 3.367111 1_455
Au3 Pr0 3.367111 1_555
Au3 Pr0 3.367111 1_655
Au3 Pr0 3.367111 1_545
Au3 Pr0 3.367111 1_645
