# generated using pymatgen
data_Sr7CaFe4(CoO5)4
_symmetry_space_group_name_H-M   'P 1'
_cell_length_a   10.86770013
_cell_length_b   11.30600853
_cell_length_c   17.84043013
_cell_angle_alpha   108.32236531
_cell_angle_beta   107.69794147
_cell_angle_gamma   90.30582774
_symmetry_Int_Tables_number   1
_chemical_formula_structural   Sr7CaFe4(CoO5)4
_chemical_formula_sum   'Sr28 Ca4 Fe16 Co16 O80'
_cell_volume   1970.06482114
_cell_formula_units_Z   4
loop_
 _symmetry_equiv_pos_site_id
 _symmetry_equiv_pos_as_xyz
  1  'x, y, z'
loop_
 _atom_site_type_symbol
 _atom_site_label
 _atom_site_symmetry_multiplicity
 _atom_site_fract_x
 _atom_site_fract_y
 _atom_site_fract_z
 _atom_site_occupancy
  Sr  Sr0  1  0.30616500  0.06344000  0.61038100  1
  Sr  Sr1  1  0.30926100  0.56522200  0.60982600  1
  Sr  Sr2  1  0.80866400  0.06452800  0.61013400  1
  Sr  Sr3  1  0.80629400  0.56360000  0.10843300  1
  Sr  Sr4  1  0.80686300  0.56376100  0.61055200  1
  Sr  Sr5  1  0.19810700  0.43413000  0.38849900  1
  Sr  Sr6  1  0.19747400  0.43787200  0.89335100  1
  Sr  Sr7  1  0.19538000  0.93542300  0.38744400  1
  Sr  Sr8  1  0.20108400  0.93618900  0.89294600  1
  Sr  Sr9  1  0.69597300  0.43443100  0.38941000  1
  Sr  Sr10  1  0.69957400  0.43800700  0.89381300  1
  Sr  Sr11  1  0.69680000  0.93573500  0.38847900  1
  Sr  Sr12  1  0.69982200  0.93882400  0.89313000  1
  Sr  Sr13  1  0.05564700  0.29571200  0.10984500  1
  Sr  Sr14  1  0.05541500  0.29498900  0.60999600  1
  Sr  Sr15  1  0.05951400  0.79706600  0.60973200  1
  Sr  Sr16  1  0.55706700  0.29519100  0.10883600  1
  Sr  Sr17  1  0.55893200  0.29812100  0.60963200  1
  Sr  Sr18  1  0.55844900  0.79629800  0.10889600  1
  Sr  Sr19  1  0.55577600  0.79510600  0.60973600  1
  Sr  Sr20  1  0.44693700  0.20261900  0.38589400  1
  Sr  Sr21  1  0.44941800  0.20636200  0.89365900  1
  Sr  Sr22  1  0.44412900  0.70193700  0.38688100  1
  Sr  Sr23  1  0.45024000  0.70749700  0.89303500  1
  Sr  Sr24  1  0.94337900  0.19945900  0.38702800  1
  Sr  Sr25  1  0.94846100  0.20500000  0.89350000  1
  Sr  Sr26  1  0.94774700  0.70481400  0.38808000  1
  Sr  Sr27  1  0.95031100  0.70391900  0.89280200  1
  Ca  Ca0  1  0.30675900  0.06631500  0.10512300  1
  Ca  Ca1  1  0.30172100  0.56529600  0.10575200  1
  Ca  Ca2  1  0.79886500  0.06912700  0.10546800  1
  Ca  Ca3  1  0.05498400  0.78425300  0.10627200  1
  Fe  Fe0  1  0.10367100  0.08540500  0.24451900  1
  Fe  Fe1  1  0.10853100  0.09165400  0.75152500  1
  Fe  Fe2  1  0.10973700  0.59229800  0.24865900  1
  Fe  Fe3  1  0.10861800  0.59126900  0.75013100  1
  Fe  Fe4  1  0.60402900  0.08865400  0.24607300  1
  Fe  Fe5  1  0.60838200  0.09076900  0.74969300  1
  Fe  Fe6  1  0.60389200  0.59032300  0.24761300  1
  Fe  Fe7  1  0.60945800  0.59228700  0.75167000  1
  Fe  Fe8  1  0.35657400  0.40761300  0.24690700  1
  Fe  Fe9  1  0.35768900  0.40954900  0.75057900  1
  Fe  Fe10  1  0.35064400  0.90695600  0.24529000  1
  Fe  Fe11  1  0.35890400  0.90973000  0.75124400  1
  Fe  Fe12  1  0.85797900  0.40689800  0.25037800  1
  Fe  Fe13  1  0.85862000  0.40901800  0.75141100  1
  Fe  Fe14  1  0.85761800  0.91107300  0.24636600  1
  Fe  Fe15  1  0.85867100  0.90808400  0.75069600  1
  Co  Co0  1  0.00927900  0.00527300  0.00991800  1
  Co  Co1  1  0.00458000  0.00002000  0.49944300  1
  Co  Co2  1  0.00727900  0.50128000  0.00402500  1
  Co  Co3  1  0.00449600  0.49917800  0.49897400  1
  Co  Co4  1  0.50873900  0.00315900  0.00438400  1
  Co  Co5  1  0.50426500  0.00121400  0.50019600  1
  Co  Co6  1  0.50610700  0.50235200  0.00325300  1
  Co  Co7  1  0.50446500  0.49987000  0.49897100  1
  Co  Co8  1  0.25768100  0.25284900  0.00432400  1
  Co  Co9  1  0.25486700  0.24933500  0.50030600  1
  Co  Co10  1  0.25907100  0.75278100  0.00765800  1
  Co  Co11  1  0.25402900  0.74943900  0.49838100  1
  Co  Co12  1  0.75604400  0.25122000  0.00261300  1
  Co  Co13  1  0.75374200  0.24942700  0.49945800  1
  Co  Co14  1  0.75906800  0.75304700  0.00458300  1
  Co  Co15  1  0.75428100  0.74954100  0.49970700  1
  O  O0  1  0.11770300  0.11415500  0.49195000  1
  O  O1  1  0.12417700  0.11383400  0.99597400  1
  O  O2  1  0.11900900  0.61467900  0.49264200  1
  O  O3  1  0.12604300  0.62262700  0.99607600  1
  O  O4  1  0.61830500  0.11541000  0.49254600  1
  O  O5  1  0.62768000  0.12328100  0.99422200  1
  O  O6  1  0.61804900  0.61445600  0.49222700  1
  O  O7  1  0.62373900  0.62313400  0.99303400  1
  O  O8  1  0.13691400  0.38022200  0.01327500  1
  O  O9  1  0.13918500  0.36715300  0.50561200  1
  O  O10  1  0.14431000  0.87164900  0.01532100  1
  O  O11  1  0.13605700  0.87335600  0.50653300  1
  O  O12  1  0.63366500  0.37706400  0.00926900  1
  O  O13  1  0.63591200  0.37347400  0.50690500  1
  O  O14  1  0.64095600  0.88303100  0.01190000  1
  O  O15  1  0.63872900  0.86806200  0.50568200  1
  O  O16  1  0.36764800  0.12919000  0.49180400  1
  O  O17  1  0.37477700  0.12166300  0.99542900  1
  O  O18  1  0.37059900  0.62390900  0.49112200  1
  O  O19  1  0.37036100  0.62915400  0.99579800  1
  O  O20  1  0.86985600  0.12337300  0.49131000  1
  O  O21  1  0.87384000  0.12060600  0.99518900  1
  O  O22  1  0.86781300  0.62906100  0.49204300  1
  O  O23  1  0.87930400  0.62458200  0.99583700  1
  O  O24  1  0.38262500  0.38946000  0.01331200  1
  O  O25  1  0.38850000  0.38660500  0.50521000  1
  O  O26  1  0.38594700  0.88697600  0.01427500  1
  O  O27  1  0.38820300  0.88667700  0.50491200  1
  O  O28  1  0.88412700  0.38079600  0.01033900  1
  O  O29  1  0.88806000  0.38560100  0.50545300  1
  O  O30  1  0.89544600  0.88779900  0.01412400  1
  O  O31  1  0.88891600  0.88668300  0.50566200  1
  O  O32  1  0.09305300  0.09458200  0.13911700  1
  O  O33  1  0.08272300  0.09413400  0.64181700  1
  O  O34  1  0.08940900  0.60211100  0.14255600  1
  O  O35  1  0.08178100  0.59245000  0.63982000  1
  O  O36  1  0.59199700  0.09470000  0.14061900  1
  O  O37  1  0.58057900  0.09220200  0.63903700  1
  O  O38  1  0.58514600  0.59677800  0.14121900  1
  O  O39  1  0.58317900  0.59461900  0.64207200  1
  O  O40  1  0.44121800  0.40660900  0.35640500  1
  O  O41  1  0.44004800  0.40588700  0.85857600  1
  O  O42  1  0.43700300  0.90888500  0.35581800  1
  O  O43  1  0.44172900  0.90540900  0.85914500  1
  O  O44  1  0.94183100  0.40571200  0.36036900  1
  O  O45  1  0.94275900  0.40504300  0.85912100  1
  O  O46  1  0.94118200  0.90687000  0.35531200  1
  O  O47  1  0.94298100  0.90267600  0.85815700  1
  O  O48  1  0.33388900  0.28529100  0.14273500  1
  O  O49  1  0.33174000  0.29741700  0.64031000  1
  O  O50  1  0.33374600  0.78443100  0.14160900  1
  O  O51  1  0.33367100  0.79782000  0.64252200  1
  O  O52  1  0.83567200  0.28871800  0.14525900  1
  O  O53  1  0.83307500  0.29687500  0.64252500  1
  O  O54  1  0.84015400  0.79460700  0.14128400  1
  O  O55  1  0.83243200  0.79713600  0.64037500  1
  O  O56  1  0.18894200  0.19691800  0.35420700  1
  O  O57  1  0.19135600  0.20367800  0.85979900  1
  O  O58  1  0.19114100  0.70420900  0.35746000  1
  O  O59  1  0.19205200  0.70356900  0.85820700  1
  O  O60  1  0.68496000  0.20109800  0.35507800  1
  O  O61  1  0.69263200  0.20304700  0.85681300  1
  O  O62  1  0.68688900  0.70219400  0.35731700  1
  O  O63  1  0.69405600  0.70494600  0.85954500  1
  O  O64  1  0.42205300  0.06037400  0.23974900  1
  O  O65  1  0.43157300  0.06588400  0.75094200  1
  O  O66  1  0.42266700  0.56256700  0.24118700  1
  O  O67  1  0.43162100  0.56563400  0.75085300  1
  O  O68  1  0.92317300  0.06666900  0.24089800  1
  O  O69  1  0.93128000  0.06474000  0.75095500  1
  O  O70  1  0.93337900  0.56079700  0.24862000  1
  O  O71  1  0.93157200  0.56486700  0.75053800  1
  O  O72  1  0.18154700  0.43669900  0.24917400  1
  O  O73  1  0.18054300  0.43540900  0.75024500  1
  O  O74  1  0.16991500  0.92568700  0.24127600  1
  O  O75  1  0.18154800  0.93598800  0.75085300  1
  O  O76  1  0.68139800  0.43721000  0.24985400  1
  O  O77  1  0.68148100  0.43631300  0.75105700  1
  O  O78  1  0.68136800  0.93584100  0.24914900  1
  O  O79  1  0.68118000  0.93517300  0.74993600  1
loop_
_geom_bond_atom_site_label_1
_geom_bond_atom_site_label_2
_geom_bond_distance
_geom_bond_site_symmetry_2
Ca0 O48 2.343917 1_555
Ca0 O64 2.369741 1_555
Ca0 O26 2.505834 1_545
Ca0 O1 2.517466 1_554
Ca0 O17 2.532260 1_554
Ca0 O10 2.559179 1_545
Ca0 O32 2.570282 1_555
Ca0 O36 2.963335 1_555
Ca1 O50 2.351070 1_555
Ca1 O66 2.383924 1_555
Ca1 O24 2.506778 1_555
Ca1 O8 2.510204 1_555
Ca1 O3 2.536358 1_554
Ca1 O34 2.586067 1_555
Ca1 O19 2.588446 1_554
Ca1 O38 2.945553 1_555
Ca2 O52 2.352955 1_555
Ca2 O68 2.391982 1_555
Ca2 O14 2.483931 1_545
Ca2 O36 2.506252 1_555
Ca2 O5 2.511198 1_554
Ca2 O21 2.561828 1_554
Ca2 O30 2.631097 1_545
Ca3 O34 2.344951 1_555
Ca3 O74 2.376181 1_555
Ca3 O23 2.495151 1_454
Ca3 O3 2.545574 1_554
Ca3 O10 2.550897 1_555
Ca3 O30 2.564749 1_455
Ca3 O54 2.588113 1_455
Ca3 O50 2.900562 1_555
Fe0 O32 1.884387 1_555
Fe0 O56 1.900388 1_555
Fe0 O74 1.938031 1_545
Fe0 O68 1.951109 1_455
Fe1 O57 1.880993 1_555
Fe1 O33 1.900278 1_555
Fe1 O75 1.932542 1_545
Fe1 O69 1.945059 1_455
Fe2 O34 1.876785 1_555
Fe2 O58 1.884442 1_555
Fe2 O72 1.929865 1_555
Fe2 O70 1.947298 1_455
Fe3 O59 1.880813 1_555
Fe3 O35 1.904162 1_555
Fe3 O73 1.931884 1_555
Fe3 O71 1.948070 1_455
Fe4 O36 1.868852 1_555
Fe4 O60 1.888214 1_555
Fe4 O78 1.934291 1_545
Fe4 O64 1.964945 1_555
Fe5 O61 1.870936 1_555
Fe5 O37 1.909535 1_555
Fe5 O79 1.933437 1_545
Fe5 O65 1.948345 1_555
Fe6 O38 1.871313 1_555
Fe6 O62 1.897882 1_555
Fe6 O76 1.935559 1_555
Fe6 O66 1.955518 1_555
Fe7 O63 1.882015 1_555
Fe7 O39 1.896929 1_555
Fe7 O77 1.931405 1_555
Fe7 O67 1.949400 1_555
Fe8 O48 1.878602 1_555
Fe8 O40 1.893128 1_555
Fe8 O66 1.933666 1_555
Fe8 O72 1.942423 1_555
Fe9 O41 1.875395 1_555
Fe9 O49 1.909882 1_555
Fe9 O67 1.933081 1_555
Fe9 O73 1.947287 1_555
Fe10 O50 1.885172 1_555
Fe10 O42 1.901872 1_555
Fe10 O64 1.939266 1_565
Fe10 O74 1.958611 1_555
Fe11 O43 1.877319 1_555
Fe11 O51 1.888972 1_555
Fe11 O65 1.932440 1_565
Fe11 O75 1.949997 1_555
Fe12 O52 1.872363 1_555
Fe12 O44 1.900167 1_555
Fe12 O70 1.932537 1_555
Fe12 O76 1.948932 1_555
Fe13 O45 1.875389 1_555
Fe13 O53 1.891568 1_555
Fe13 O71 1.934788 1_555
Fe13 O77 1.949726 1_555
Fe14 O54 1.874402 1_555
Fe14 O46 1.894752 1_555
Fe14 O68 1.936111 1_565
Fe14 O78 1.950530 1_555
Fe15 O47 1.877503 1_555
Fe15 O55 1.905576 1_555
Fe15 O69 1.933234 1_565
Fe15 O79 1.951340 1_555
Co0 O30 1.844350 1_445
Co0 O1 1.868701 1_554
Co0 O21 1.984094 1_454
Co0 O32 2.100550 1_555
Co0 O10 2.115273 1_545
Co0 O47 2.454701 1_444
Co1 O0 1.840071 1_555
Co1 O31 1.841550 1_445
Co1 O20 2.032145 1_455
Co1 O11 2.033291 1_545
Co1 O33 2.298842 1_555
Co1 O46 2.325557 1_445
Co2 O3 1.944981 1_554
Co2 O28 1.956576 1_455
Co2 O8 1.976506 1_555
Co2 O23 1.980969 1_454
Co2 O34 2.254080 1_555
Co2 O45 2.340899 1_454
Co3 O2 1.851393 1_555
Co3 O29 1.851593 1_455
Co3 O22 2.098556 1_455
Co3 O9 2.100897 1_555
Co3 O44 2.240674 1_455
Co3 O35 2.274380 1_555
Co4 O26 1.951304 1_545
Co4 O5 1.956195 1_554
Co4 O14 1.986317 1_545
Co4 O17 1.988497 1_554
Co4 O36 2.206471 1_555
Co4 O43 2.347203 1_544
Co5 O27 1.841337 1_545
Co5 O4 1.848813 1_555
Co5 O16 2.084294 1_555
Co5 O15 2.107241 1_545
Co5 O37 2.240837 1_555
Co5 O42 2.327051 1_545
Co6 O24 1.932437 1_555
Co6 O7 1.952401 1_554
Co6 O12 1.991437 1_555
Co6 O19 2.066999 1_554
Co6 O38 2.233508 1_555
Co6 O41 2.337112 1_554
Co7 O6 1.840594 1_555
Co7 O25 1.843427 1_555
Co7 O18 2.030805 1_555
Co7 O13 2.031967 1_555
Co7 O40 2.301417 1_555
Co7 O39 2.310838 1_555
Co8 O8 1.955735 1_555
Co8 O17 1.959440 1_554
Co8 O24 1.986090 1_555
Co8 O1 2.072329 1_554
Co8 O48 2.258728 1_555
Co8 O57 2.332646 1_554
Co9 O16 1.836214 1_555
Co9 O9 1.837069 1_555
Co9 O0 2.068199 1_555
Co9 O25 2.082961 1_555
Co9 O49 2.259401 1_555
Co9 O56 2.355230 1_555
Co10 O10 1.840201 1_555
Co10 O19 1.857127 1_554
Co10 O3 1.975511 1_554
Co10 O26 1.995791 1_555
Co10 O50 2.185781 1_555
Co10 O59 2.414811 1_554
Co11 O11 1.905819 1_555
Co11 O18 1.907698 1_555
Co11 O2 2.066804 1_555
Co11 O27 2.075139 1_555
Co11 O58 2.278711 1_555
Co11 O51 2.327761 1_555
Co12 O5 1.943230 1_554
Co12 O12 1.953786 1_555
Co12 O28 1.958924 1_555
Co12 O21 1.958926 1_554
Co12 O52 2.320287 1_555
Co12 O61 2.356453 1_554
Co13 O13 1.905213 1_555
Co13 O20 1.909209 1_555
Co13 O4 2.055687 1_555
Co13 O29 2.071261 1_555
Co13 O53 2.311275 1_555
Co13 O60 2.330702 1_555
Co14 O14 1.955967 1_555
Co14 O23 1.960373 1_554
Co14 O7 1.991294 1_554
Co14 O30 2.050897 1_555
Co14 O54 2.216650 1_555
Co14 O63 2.343062 1_554
Co15 O15 1.842146 1_555
Co15 O22 1.843881 1_555
Co15 O6 2.066381 1_555
Co15 O31 2.081826 1_555
Co15 O55 2.271355 1_555
Co15 O62 2.299074 1_555
O0 Sr7 2.622695 1_545
O0 Sr24 2.649826 1_455
O0 Sr0 2.670394 1_555
O0 Sr14 2.692187 1_555
O1 Sr8 2.596508 1_545
O1 Sr25 2.671041 1_455
O1 Sr13 2.686990 1_556
O2 Sr5 2.638760 1_555
O2 Sr1 2.660360 1_555
O2 Sr26 2.662139 1_455
O2 Sr15 2.676006 1_555
O3 Sr6 2.607675 1_555
O3 Sr27 2.613567 1_455
O4 Sr11 2.628970 1_545
O4 Sr20 2.665631 1_555
O4 Sr2 2.672899 1_555
O4 Sr17 2.677253 1_555
O5 Sr12 2.594027 1_545
O5 Sr21 2.611502 1_555
O5 Sr16 2.649314 1_556
O6 Sr9 2.615349 1_555
O6 Sr22 2.666804 1_555
O6 Sr4 2.671128 1_555
O6 Sr19 2.685103 1_555
O7 Sr23 2.586809 1_555
O7 Sr10 2.601819 1_555
O7 Sr18 2.640312 1_556
O7 Sr3 2.651375 1_556
O8 Sr13 2.571428 1_555
O8 Sr6 2.676516 1_554
O8 Sr25 2.705465 1_454
O9 Sr14 2.634503 1_555
O9 Sr1 2.671439 1_555
O9 Sr5 2.674290 1_555
O9 Sr24 2.701203 1_455
O10 Sr27 2.714449 1_454
O10 Sr8 2.737774 1_554
O11 Sr15 2.597610 1_555
O11 Sr0 2.615439 1_565
O11 Sr26 2.661236 1_455
O11 Sr7 2.680918 1_555
O12 Sr16 2.574822 1_555
O12 Sr3 2.586749 1_555
O12 Sr21 2.633101 1_554
O12 Sr10 2.648507 1_554
O13 Sr17 2.586641 1_555
O13 Sr4 2.620444 1_555
O13 Sr9 2.651464 1_555
O13 Sr20 2.692574 1_555
O14 Sr18 2.600177 1_555
O14 Sr12 2.637642 1_554
O14 Sr23 2.714623 1_554
O15 Sr19 2.628965 1_555
O15 Sr2 2.660545 1_565
O15 Sr11 2.675586 1_555
O15 Sr22 2.687361 1_555
O16 Sr20 2.640144 1_555
O16 Sr7 2.653905 1_545
O16 Sr17 2.676685 1_555
O16 Sr0 2.705010 1_555
O17 Sr8 2.598496 1_545
O17 Sr21 2.617593 1_555
O17 Sr16 2.625469 1_556
O18 Sr22 2.608222 1_555
O18 Sr5 2.621140 1_555
O18 Sr19 2.658632 1_555
O18 Sr1 2.665788 1_555
O19 Sr18 2.621907 1_556
O19 Sr23 2.622913 1_555
O19 Sr6 2.632734 1_555
O20 Sr24 2.596602 1_555
O20 Sr11 2.610727 1_545
O20 Sr14 2.663433 1_655
O20 Sr2 2.667931 1_555
O21 Sr12 2.574470 1_545
O21 Sr25 2.614169 1_555
O21 Sr13 2.638616 1_656
O22 Sr26 2.626531 1_555
O22 Sr9 2.650708 1_555
O22 Sr15 2.673479 1_655
O22 Sr4 2.698428 1_555
O23 Sr27 2.582775 1_555
O23 Sr10 2.637854 1_555
O23 Sr3 2.640838 1_556
O24 Sr16 2.614085 1_555
O24 Sr6 2.656815 1_554
O24 Sr21 2.747518 1_554
O25 Sr1 2.632338 1_555
O25 Sr17 2.644918 1_555
O25 Sr5 2.646001 1_555
O25 Sr20 2.704361 1_555
O26 Sr18 2.568983 1_555
O26 Sr8 2.675126 1_554
O26 Sr23 2.731071 1_554
O27 Sr0 2.646513 1_565
O27 Sr19 2.655640 1_555
O27 Sr7 2.674944 1_555
O27 Sr22 2.681879 1_555
O28 Sr13 2.575328 1_655
O28 Sr3 2.587340 1_555
O28 Sr25 2.660879 1_554
O28 Sr10 2.662146 1_554
O29 Sr14 2.644762 1_655
O29 Sr4 2.646135 1_555
O29 Sr9 2.655535 1_555
O29 Sr24 2.691544 1_555
O30 Sr27 2.707603 1_554
O30 Sr12 2.741887 1_554
O31 Sr2 2.632166 1_565
O31 Sr15 2.649722 1_655
O31 Sr11 2.669229 1_555
O31 Sr26 2.674837 1_555
O32 Sr13 2.497273 1_555
O33 Sr14 2.506491 1_555
O33 Sr0 2.654477 1_555
O33 Sr2 2.854678 1_455
O34 Sr3 2.950790 1_455
O35 Sr15 2.531050 1_555
O35 Sr1 2.683592 1_555
O35 Sr4 2.870370 1_455
O36 Sr16 2.508028 1_555
O37 Sr17 2.539565 1_555
O37 Sr2 2.681788 1_555
O37 Sr0 2.866892 1_555
O38 Sr18 2.495665 1_555
O38 Sr3 2.642992 1_555
O39 Sr19 2.506861 1_555
O39 Sr4 2.657854 1_555
O39 Sr1 2.851510 1_555
O40 Sr20 2.518775 1_555
O40 Sr9 2.644597 1_555
O40 Sr5 2.867341 1_555
O40 Sr22 3.208180 1_555
O41 Sr21 2.518392 1_555
O41 Sr10 2.692495 1_555
O41 Sr6 2.885973 1_555
O42 Sr22 2.564886 1_555
O42 Sr11 2.698635 1_555
O42 Sr7 2.847178 1_555
O42 Sr20 3.188878 1_565
O43 Sr23 2.489927 1_555
O43 Sr12 2.681114 1_555
O43 Sr8 2.856736 1_555
O44 Sr24 2.521327 1_555
O44 Sr5 2.674191 1_655
O44 Sr9 2.873696 1_555
O45 Sr25 2.519086 1_555
O45 Sr6 2.644270 1_655
O45 Sr10 2.892522 1_555
O46 Sr26 2.526177 1_555
O46 Sr7 2.641171 1_655
O46 Sr11 2.890259 1_555
O46 Sr24 3.174555 1_565
O47 Sr27 2.506646 1_555
O47 Sr8 2.679374 1_655
O47 Sr12 2.897104 1_555
O48 Sr16 2.681882 1_555
O48 Sr13 2.910386 1_555
O49 Sr0 2.524692 1_555
O49 Sr17 2.687002 1_555
O49 Sr14 2.883348 1_555
O50 Sr18 2.689654 1_555
O51 Sr1 2.502052 1_555
O51 Sr19 2.649012 1_555
O51 Sr15 2.855929 1_555
O52 Sr13 2.658611 1_655
O52 Sr16 2.903652 1_555
O53 Sr2 2.499989 1_555
O53 Sr14 2.649756 1_655
O53 Sr17 2.857180 1_555
O54 Sr3 2.489267 1_555
O54 Sr18 2.939212 1_555
O55 Sr4 2.518300 1_555
O55 Sr15 2.684998 1_655
O55 Sr19 2.886382 1_555
O56 Sr5 2.550571 1_555
O56 Sr20 2.682641 1_555
O56 Sr24 2.899309 1_455
O56 Sr7 3.190042 1_545
O57 Sr6 2.520119 1_555
O57 Sr21 2.681194 1_555
O57 Sr25 2.879150 1_455
O58 Sr7 2.495270 1_555
O58 Sr22 2.639540 1_555
O58 Sr26 2.858596 1_455
O59 Sr8 2.499222 1_555
O59 Sr23 2.680016 1_555
O59 Sr27 2.875304 1_455
O60 Sr9 2.506995 1_555
O60 Sr24 2.691910 1_555
O60 Sr20 2.802332 1_555
O61 Sr10 2.522558 1_555
O61 Sr25 2.653801 1_555
O61 Sr21 2.908926 1_555
O62 Sr11 2.515971 1_555
O62 Sr26 2.716948 1_555
O62 Sr22 2.843489 1_555
O63 Sr12 2.516774 1_555
O63 Sr27 2.666065 1_555
O63 Sr23 2.886408 1_555
O64 Sr20 2.527414 1_555
O65 Sr0 2.454534 1_555
O65 Sr21 2.489362 1_555
O66 Sr22 2.519082 1_555
O67 Sr1 2.461073 1_555
O67 Sr23 2.484807 1_555
O68 Sr24 2.507259 1_555
O69 Sr2 2.459294 1_555
O69 Sr25 2.487848 1_555
O70 Sr26 2.465745 1_555
O70 Sr3 2.472580 1_555
O71 Sr4 2.448739 1_555
O71 Sr27 2.475555 1_555
O72 Sr5 2.446425 1_555
O72 Sr13 2.451397 1_555
O73 Sr14 2.457826 1_555
O73 Sr6 2.494482 1_555
O74 Sr7 2.503844 1_555
O75 Sr15 2.454769 1_555
O75 Sr8 2.477993 1_555
O76 Sr9 2.456489 1_555
O76 Sr16 2.470526 1_555
O77 Sr17 2.457041 1_555
O77 Sr10 2.488008 1_555
O78 Sr11 2.440345 1_555
O78 Sr18 2.449021 1_555
O79 Sr19 2.456698 1_555
O79 Sr12 2.487546 1_555
