# generated using pymatgen
data_LaYAl2
_symmetry_space_group_name_H-M   'P 1'
_cell_length_a   11.88063889
_cell_length_b   11.88063889
_cell_length_c   11.88063889
_cell_angle_alpha   120.85887206
_cell_angle_beta   119.62781235
_cell_angle_gamma   89.58236385
_symmetry_Int_Tables_number   1
_chemical_formula_structural   LaYAl2
_chemical_formula_sum   'La1 Y1 Al2'
_cell_volume   1181.21329854
_cell_formula_units_Z   1
loop_
 _symmetry_equiv_pos_site_id
 _symmetry_equiv_pos_as_xyz
  1  'x, y, z'
loop_
 _atom_site_type_symbol
 _atom_site_label
 _atom_site_symmetry_multiplicity
 _atom_site_fract_x
 _atom_site_fract_y
 _atom_site_fract_z
 _atom_site_occupancy
  La  La0  1  0.00000000  0.50000000  0.50000000  1
  Y  Y0  1  0.00000000  0.00000000  0.00000000  1
  Al  Al0  1  0.00000000  0.25034600  0.25034600  1
  Al  Al1  1  0.00000000  0.74965400  0.74965400  1
loop_
_geom_bond_atom_site_label_1
_geom_bond_atom_site_label_2
_geom_bond_distance
_geom_bond_site_symmetry_2
Al0 La0 2.927461 1_555
Al0 Y0 2.935576 1_555
Al1 La0 2.927461 1_555
Al1 Y0 2.935576 1_566
