# generated using pymatgen
data_CaLa2Mn2(FeO6)2
_symmetry_space_group_name_H-M   'P 1'
_cell_length_a   5.45222900
_cell_length_b   5.48027793
_cell_length_c   7.71605349
_cell_angle_alpha   89.81431337
_cell_angle_beta   89.94102644
_cell_angle_gamma   89.72760691
_symmetry_Int_Tables_number   1
_chemical_formula_structural   CaLa2Mn2(FeO6)2
_chemical_formula_sum   'Ca1 La2 Mn2 Fe2 O12'
_cell_volume   230.54966223
_cell_formula_units_Z   1
loop_
 _symmetry_equiv_pos_site_id
 _symmetry_equiv_pos_as_xyz
  1  'x, y, z'
loop_
 _atom_site_type_symbol
 _atom_site_label
 _atom_site_symmetry_multiplicity
 _atom_site_fract_x
 _atom_site_fract_y
 _atom_site_fract_z
 _atom_site_occupancy
  Ca  Ca0  1  0.02572400  0.00031200  0.25003600  1
  La  La0  1  0.98346000  0.99390500  0.74910300  1
  La  La1  1  0.52270500  0.49489500  0.25068200  1
  Mn  Mn0  1  0.49906800  0.99900800  0.50362100  1
  Mn  Mn1  1  0.00481800  0.49618100  0.99609300  1
  Fe  Fe0  1  0.49914700  0.00120400  0.99464500  1
  Fe  Fe1  1  0.00764700  0.49622900  0.50499800  1
  O  O0  1  0.98739700  0.56011800  0.24786000  1
  O  O1  1  0.78192900  0.22465100  0.03447900  1
  O  O2  1  0.77653700  0.21873300  0.46589200  1
  O  O3  1  0.73980100  0.73212600  0.97484300  1
  O  O4  1  0.73147700  0.73583100  0.52597900  1
  O  O5  1  0.49961000  0.05449900  0.74667600  1
  O  O6  1  0.50150400  0.94143300  0.25186900  1
  O  O7  1  0.26813300  0.26055800  0.45712100  1
  O  O8  1  0.26504400  0.26824300  0.04424500  1
  O  O9  1  0.21824100  0.78608500  0.51468700  1
  O  O10  1  0.21215400  0.78311300  0.98432500  1
  O  O11  1  0.00995600  0.44247500  0.75266300  1
loop_
_geom_bond_atom_site_label_1
_geom_bond_atom_site_label_2
_geom_bond_distance
_geom_bond_site_symmetry_2
Ca0 O0 2.422523 1_445
Ca0 O1 2.453675 1_455
Ca0 O2 2.458774 1_455
Ca0 O7 2.524118 1_555
Ca0 O8 2.525635 1_555
Ca0 O9 2.574346 1_545
Ca0 O10 2.579445 1_544
Ca0 O6 2.612577 1_545
Ca0 O6 2.877863 1_445
La0 O11 2.463458 1_665
La0 O10 2.482090 1_655
La0 O9 2.490398 1_655
La0 O3 2.618037 1_555
La0 O4 2.625066 1_555
La0 O5 2.657390 1_565
La0 O2 2.746043 1_565
La0 O1 2.766766 1_566
La0 O5 2.835296 1_665
La0 O11 3.024792 1_655
La0 O7 3.100536 1_665
La0 O8 3.139261 1_666
La1 O6 2.449378 1_555
La1 O8 2.467322 1_555
La1 O7 2.472287 1_555
La1 O0 2.560439 1_555
La1 O2 2.632842 1_555
La1 O1 2.639169 1_555
La1 O4 2.754780 1_555
La1 O3 2.759136 1_554
La1 O0 2.938835 1_455
La1 O6 3.035860 1_545
La1 O9 3.072590 1_555
La1 O10 3.089728 1_554
Mn0 O5 1.900901 1_565
Mn0 O4 1.922775 1_555
Mn0 O9 1.931149 1_555
Mn0 O7 1.936252 1_565
Mn0 O2 1.958958 1_565
Mn0 O6 1.969021 1_555
Mn1 O11 1.902338 1_555
Mn1 O8 1.921642 1_556
Mn1 O3 1.941141 1_455
Mn1 O10 1.942824 1_555
Mn1 O1 1.947424 1_456
Mn1 O0 1.977218 1_456
Fe0 O5 1.934571 1_555
Fe0 O10 1.975334 1_545
Fe0 O3 1.975377 1_545
Fe0 O8 1.975391 1_556
Fe0 O1 1.998121 1_556
Fe0 O6 2.010599 1_546
Fe1 O11 1.932670 1_555
Fe1 O7 1.950943 1_555
Fe1 O9 1.966103 1_555
Fe1 O4 1.999935 1_455
Fe1 O2 2.003369 1_455
Fe1 O0 2.016675 1_455
