# generated using pymatgen
data_Mg2Mn3O8
_symmetry_space_group_name_H-M   'P 1'
_cell_length_a   5.73851802
_cell_length_b   5.73851861
_cell_length_c   9.24993111
_cell_angle_alpha   90.00003562
_cell_angle_beta   89.99998480
_cell_angle_gamma   120.00056040
_symmetry_Int_Tables_number   1
_chemical_formula_structural   Mg2Mn3O8
_chemical_formula_sum   'Mg4 Mn6 O16'
_cell_volume   263.79479497
_cell_formula_units_Z   2
loop_
 _symmetry_equiv_pos_site_id
 _symmetry_equiv_pos_as_xyz
  1  'x, y, z'
loop_
 _atom_site_type_symbol
 _atom_site_label
 _atom_site_symmetry_multiplicity
 _atom_site_fract_x
 _atom_site_fract_y
 _atom_site_fract_z
 _atom_site_occupancy
  Mg  Mg0  1  0.66666465  0.33333518  0.02497205  1
  Mg  Mg1  1  0.33333517  0.66666465  0.52497185  1
  Mg  Mg2  1  0.66666708  0.33333306  0.42083302  1
  Mg  Mg3  1  0.33333297  0.66666726  0.92083328  1
  Mn  Mn0  1  0.67236148  0.83617996  0.24574380  1
  Mn  Mn1  1  0.83618144  0.16381951  0.74574313  1
  Mn  Mn2  1  0.16381918  0.32763867  0.24574368  1
  Mn  Mn3  1  0.83618026  0.67236246  0.74574309  1
  Mn  Mn4  1  0.32763758  0.16381872  0.74574297  1
  Mn  Mn5  1  0.16382016  0.83618104  0.24574415  1
  O  O0  1  0.84093282  0.15906502  0.14383974  1
  O  O1  1  0.68186969  0.84093565  0.64383699  1
  O  O2  1  0.15906620  0.31813011  0.64383706  1
  O  O3  1  0.84093467  0.68186743  0.14383913  1
  O  O4  1  0.31813269  0.15906731  0.14383907  1
  O  O5  1  0.15906505  0.84093296  0.64383957  1
  O  O6  1  0.51853199  0.48146931  0.86334535  1
  O  O7  1  0.03706463  0.51853135  0.36334721  1
  O  O8  1  0.48146749  0.96293546  0.36334730  1
  O  O9  1  0.51853098  0.03706439  0.86334699  1
  O  O10  1  0.00000063  0.99999979  0.35180573  1
  O  O11  1  0.99999954  0.00000073  0.85180531  1
  O  O12  1  0.33333322  0.66666701  0.13710252  1
  O  O13  1  0.96293556  0.48146752  0.86334709  1
  O  O14  1  0.48146926  0.51853249  0.36334554  1
  O  O15  1  0.66666664  0.33333295  0.63710240  1
loop_
_geom_bond_atom_site_label_1
_geom_bond_atom_site_label_2
_geom_bond_distance
_geom_bond_site_symmetry_2
Mg0 O4 2.051600 1_555
Mg0 O3 2.051601 1_555
Mg0 O0 2.051643 1_555
Mg0 O9 2.098322 1_554
Mg0 O13 2.098323 1_554
Mg0 O6 2.098329 1_554
Mg1 O1 2.051601 1_555
Mg1 O2 2.051603 1_555
Mg1 O5 2.051643 1_555
Mg1 O7 2.098319 1_555
Mg1 O8 2.098320 1_555
Mg1 O14 2.098323 1_555
Mg2 O8 1.916018 1_545
Mg2 O7 1.916019 1_655
Mg2 O14 1.916037 1_555
Mg2 O15 2.000477 1_555
Mg3 O9 1.916018 1_565
Mg3 O13 1.916019 1_455
Mg3 O6 1.916036 1_555
Mg3 O12 2.000476 1_556
Mn0 O0 1.861459 1_565
Mn0 O3 1.861476 1_555
Mn0 O10 1.900979 1_655
Mn0 O14 1.925923 1_555
Mn0 O8 1.925952 1_555
Mn0 O12 1.961792 1_555
Mn1 O1 1.861463 1_545
Mn1 O2 1.861467 1_655
Mn1 O11 1.900982 1_555
Mn1 O13 1.925940 1_555
Mn1 O9 1.925950 1_555
Mn1 O15 1.961802 1_555
Mn2 O0 1.861463 1_455
Mn2 O4 1.861472 1_555
Mn2 O10 1.900979 1_545
Mn2 O14 1.925934 1_555
Mn2 O7 1.925943 1_555
Mn2 O12 1.961792 1_555
Mn3 O5 1.861454 1_655
Mn3 O1 1.861475 1_555
Mn3 O11 1.900976 1_565
Mn3 O6 1.925929 1_555
Mn3 O13 1.925959 1_555
Mn3 O15 1.961794 1_555
Mn4 O5 1.861458 1_545
Mn4 O2 1.861470 1_555
Mn4 O11 1.900976 1_455
Mn4 O6 1.925939 1_555
Mn4 O9 1.925949 1_555
Mn4 O15 1.961792 1_555
Mn5 O3 1.861465 1_455
Mn5 O4 1.861470 1_565
Mn5 O10 1.900985 1_555
Mn5 O8 1.925933 1_555
Mn5 O7 1.925943 1_555
Mn5 O12 1.961800 1_555
