# generated using pymatgen
data_Sr2Mn2SeO4
_symmetry_space_group_name_H-M   'P 1'
_cell_length_a   6.35441600
_cell_length_b   9.66541600
_cell_length_c   10.44861800
_cell_angle_alpha   90.00000000
_cell_angle_beta   90.00000000
_cell_angle_gamma   90.00000000
_symmetry_Int_Tables_number   1
_chemical_formula_structural   Sr2Mn2SeO4
_chemical_formula_sum   'Sr8 Mn8 Se4 O16'
_cell_volume   641.73399433
_cell_formula_units_Z   4
loop_
 _symmetry_equiv_pos_site_id
 _symmetry_equiv_pos_as_xyz
  1  'x, y, z'
loop_
 _atom_site_type_symbol
 _atom_site_label
 _atom_site_symmetry_multiplicity
 _atom_site_fract_x
 _atom_site_fract_y
 _atom_site_fract_z
 _atom_site_occupancy
  Sr  Sr0  1  0.23483400  0.87150300  0.45158800  1
  Sr  Sr1  1  0.26516600  0.37150300  0.04841200  1
  Sr  Sr2  1  0.76516600  0.12849700  0.95158800  1
  Sr  Sr3  1  0.73483400  0.62849700  0.54841200  1
  Sr  Sr4  1  0.76516600  0.12849700  0.54841200  1
  Sr  Sr5  1  0.73483400  0.62849700  0.95158800  1
  Sr  Sr6  1  0.23483400  0.87150300  0.04841200  1
  Sr  Sr7  1  0.26516600  0.37150300  0.45158800  1
  Mn  Mn0  1  0.72500400  0.87994100  0.25000000  1
  Mn  Mn1  1  0.77499600  0.37994100  0.25000000  1
  Mn  Mn2  1  0.27499600  0.12005900  0.75000000  1
  Mn  Mn3  1  0.22500400  0.62005900  0.75000000  1
  Mn  Mn4  1  0.53200300  0.62059700  0.25000000  1
  Mn  Mn5  1  0.96799700  0.12059700  0.25000000  1
  Mn  Mn6  1  0.46799700  0.37940300  0.75000000  1
  Mn  Mn7  1  0.03200300  0.87940300  0.75000000  1
  Se  Se0  1  0.40925300  0.11483600  0.25000000  1
  Se  Se1  1  0.09074700  0.61483600  0.25000000  1
  Se  Se2  1  0.59074700  0.88516400  0.75000000  1
  Se  Se3  1  0.90925300  0.38516400  0.75000000  1
  O  O0  1  0.60203600  0.47560300  0.37307400  1
  O  O1  1  0.89796400  0.97560300  0.12692600  1
  O  O2  1  0.39796400  0.52439700  0.87307400  1
  O  O3  1  0.10203600  0.02439700  0.62692600  1
  O  O4  1  0.39796400  0.52439700  0.62692600  1
  O  O5  1  0.10203600  0.02439700  0.87307400  1
  O  O6  1  0.60203600  0.47560300  0.12692600  1
  O  O7  1  0.89796400  0.97560300  0.37307400  1
  O  O8  1  0.57463500  0.76880600  0.37529600  1
  O  O9  1  0.92536500  0.26880600  0.12470400  1
  O  O10  1  0.42536500  0.23119400  0.87529600  1
  O  O11  1  0.07463500  0.73119400  0.62470400  1
  O  O12  1  0.42536500  0.23119400  0.62470400  1
  O  O13  1  0.07463500  0.73119400  0.87529600  1
  O  O14  1  0.57463500  0.76880600  0.12470400  1
  O  O15  1  0.92536500  0.26880600  0.37529600  1
loop_
_geom_bond_atom_site_label_1
_geom_bond_atom_site_label_2
_geom_bond_distance
_geom_bond_site_symmetry_2
Mn0 O7 1.927827 1_555
Mn0 O1 1.927827 1_555
Mn0 O8 1.944416 1_555
Mn0 O14 1.944416 1_555
Mn0 Se0 3.029888 1_565
Mn1 O0 1.927827 1_555
Mn1 O6 1.927827 1_555
Mn1 O15 1.944416 1_555
Mn1 O9 1.944416 1_555
Mn1 Se1 3.029888 1_655
Mn2 O5 1.927827 1_555
Mn2 O3 1.927827 1_555
Mn2 O10 1.944416 1_555
Mn2 O12 1.944416 1_555
Mn2 Se2 3.029888 1_545
Mn3 O2 1.927827 1_555
Mn3 O4 1.927827 1_555
Mn3 O13 1.944416 1_555
Mn3 O11 1.944416 1_555
Mn3 Se3 3.029888 1_455
Mn4 O0 1.953386 1_555
Mn4 O6 1.953386 1_555
Mn4 O8 1.959432 1_555
Mn4 O14 1.959432 1_555
Mn4 Se1 2.804477 1_555
Mn5 O7 1.953386 1_545
Mn5 O1 1.953386 1_545
Mn5 O15 1.959432 1_555
Mn5 O9 1.959432 1_555
Mn5 Se0 2.804477 1_655
Mn6 O2 1.953386 1_555
Mn6 O4 1.953386 1_555
Mn6 O10 1.959432 1_555
Mn6 O12 1.959432 1_555
Mn6 Se3 2.804477 1_555
Mn7 O5 1.953386 1_565
Mn7 O3 1.953386 1_565
Mn7 O13 1.959432 1_555
Mn7 O11 1.959432 1_555
Mn7 Se2 2.804477 1_455
Se0 Sr6 3.346112 1_545
Se0 Sr0 3.346112 1_545
Se0 Sr7 3.380711 1_555
Se0 Sr1 3.380711 1_555
Se1 Sr7 3.346112 1_555
Se1 Sr1 3.346112 1_555
Se1 Sr0 3.380711 1_555
Se1 Sr6 3.380711 1_555
Se2 Sr4 3.346112 1_565
Se2 Sr2 3.346112 1_565
Se2 Sr3 3.380711 1_555
Se2 Sr5 3.380711 1_555
Se3 Sr5 3.346112 1_555
Se3 Sr3 3.346112 1_555
Se3 Sr4 3.380711 1_555
Se3 Sr2 3.380711 1_555
O0 Sr3 2.500461 1_555
O0 Sr7 2.503516 1_555
O1 Sr2 2.500461 1_564
O1 Sr6 2.503516 1_655
O2 Sr1 2.500461 1_556
O2 Sr5 2.503516 1_555
O3 Sr0 2.500461 1_545
O3 Sr4 2.503516 1_455
O4 Sr7 2.500461 1_555
O4 Sr3 2.503516 1_555
O5 Sr6 2.500461 1_546
O5 Sr2 2.503516 1_455
O6 Sr5 2.500461 1_554
O6 Sr1 2.503516 1_555
O7 Sr4 2.500461 1_565
O7 Sr0 2.503516 1_655
O8 Sr3 2.479362 1_555
O8 Sr0 2.506595 1_555
O9 Sr2 2.479362 1_554
O9 Sr1 2.506595 1_655
O10 Sr1 2.479362 1_556
O10 Sr2 2.506595 1_555
O11 Sr0 2.479362 1_555
O11 Sr3 2.506595 1_455
O12 Sr7 2.479362 1_555
O12 Sr4 2.506595 1_555
O13 Sr6 2.479362 1_556
O13 Sr5 2.506595 1_455
O14 Sr5 2.479362 1_554
O14 Sr6 2.506595 1_555
O15 Sr4 2.479362 1_555
O15 Sr7 2.506595 1_655
