# generated using pymatgen
data_Al4Si2Mo3
_symmetry_space_group_name_H-M   'P 1'
_cell_length_a   4.80390130
_cell_length_b   4.80390130
_cell_length_c   13.45947417
_cell_angle_alpha   84.87054598
_cell_angle_beta   84.87054598
_cell_angle_gamma   119.30885929
_symmetry_Int_Tables_number   1
_chemical_formula_structural   Al4Si2Mo3
_chemical_formula_sum   'Al8 Si4 Mo6'
_cell_volume   266.57553720
_cell_formula_units_Z   2
loop_
 _symmetry_equiv_pos_site_id
 _symmetry_equiv_pos_as_xyz
  1  'x, y, z'
loop_
 _atom_site_type_symbol
 _atom_site_label
 _atom_site_symmetry_multiplicity
 _atom_site_fract_x
 _atom_site_fract_y
 _atom_site_fract_z
 _atom_site_occupancy
  Al  Al0  1  0.37020800  0.29521600  0.83142900  1
  Al  Al1  1  0.70478400  0.62979200  0.16857100  1
  Al  Al2  1  0.62633600  0.04365000  0.33197800  1
  Al  Al3  1  0.95635000  0.37366400  0.66802200  1
  Al  Al4  1  0.29337500  0.70662500  0.00000000  1
  Al  Al5  1  0.29373700  0.36892600  0.33527800  1
  Al  Al6  1  0.63107400  0.70626300  0.66472200  1
  Al  Al7  1  0.96373400  0.03626600  0.00000000  1
  Si  Si0  1  0.71228500  0.28771500  0.50000000  1
  Si  Si1  1  0.04211600  0.63141900  0.83247000  1
  Si  Si2  1  0.36858100  0.95788400  0.16753000  1
  Si  Si3  1  0.03500300  0.96499700  0.50000000  1
  Mo  Mo0  1  0.36913900  0.63086100  0.50000000  1
  Mo  Mo1  1  0.70406000  0.96098900  0.83316500  1
  Mo  Mo2  1  0.03901100  0.29594000  0.16683500  1
  Mo  Mo3  1  0.96369800  0.70565900  0.33846100  1
  Mo  Mo4  1  0.29434100  0.03630200  0.66153900  1
  Mo  Mo5  1  0.63216900  0.36783100  0.00000000  1
loop_
_geom_bond_atom_site_label_1
_geom_bond_atom_site_label_2
_geom_bond_distance
_geom_bond_site_symmetry_2
Al0 Al6 2.605085 1_555
Al0 Al7 2.614027 1_456
Al0 Mo5 2.659970 1_556
Al0 Mo4 2.668766 1_555
Al0 Si1 2.754117 1_555
Al0 Mo1 2.769778 1_545
Al0 Si1 2.778556 1_545
Al0 Mo1 2.787247 1_445
Al0 Mo1 2.792857 1_555
Al0 Si1 2.817011 1_655
Al1 Al5 2.605085 1_555
Al1 Al7 2.614027 1_565
Al1 Mo5 2.659970 1_555
Al1 Mo3 2.668766 1_555
Al1 Si2 2.754117 1_555
Al1 Mo2 2.769778 1_655
Al1 Si2 2.778556 1_655
Al1 Mo2 2.787247 1_665
Al1 Mo2 2.792857 1_555
Al1 Si2 2.817011 1_545
Al2 Mo2 2.591836 1_655
Al2 Si2 2.599173 1_545
Al2 Si0 2.612780 1_555
Al2 Mo0 2.621629 1_545
Al2 Al5 2.727746 1_555
Al2 Mo3 2.764381 1_445
Al2 Mo3 2.788707 1_555
Al2 Mo3 2.801188 1_545
Al2 Al5 2.802849 1_655
Al2 Al5 2.819964 1_545
Al3 Mo1 2.591836 1_545
Al3 Si1 2.599173 1_655
Al3 Si0 2.612780 1_555
Al3 Mo0 2.621629 1_655
Al3 Al6 2.727746 1_555
Al3 Mo4 2.764381 1_665
Al3 Mo4 2.788707 1_555
Al3 Mo4 2.801188 1_655
Al3 Al6 2.802849 1_545
Al3 Al6 2.819964 1_655
Al4 Mo1 2.604753 1_554
Al4 Mo2 2.604753 1_555
Al4 Si1 2.622452 1_554
Al4 Si2 2.622452 1_555
Al4 Al7 2.733210 1_465
Al4 Mo5 2.770725 1_455
Al4 Mo5 2.770725 1_565
Al4 Al7 2.808124 1_455
Al4 Al7 2.808124 1_565
Al4 Mo5 2.809102 1_555
Al5 Si3 2.569493 1_545
Al5 Mo0 2.612693 1_555
Al5 Mo2 2.641680 1_555
Al5 Mo3 2.764686 1_455
Al5 Mo3 2.772271 1_445
Al5 Mo3 2.813682 1_555
Al6 Si3 2.569493 1_655
Al6 Mo0 2.612693 1_555
Al6 Mo1 2.641680 1_555
Al6 Mo4 2.764686 1_565
Al6 Mo4 2.772271 1_665
Al6 Mo4 2.813682 1_555
Al7 Mo1 2.633183 1_544
Al7 Mo2 2.633183 1_655
Al7 Mo5 2.749163 1_555
Al7 Mo5 2.800133 1_545
Al7 Mo5 2.800133 1_655
Si0 Si3 2.675809 1_645
Si0 Si3 2.837431 1_655
Si0 Si3 2.837431 1_545
Mo0 Si0 2.753499 1_565
Mo0 Si0 2.753499 1_455
Mo0 Si3 2.770481 1_555
Mo0 Si3 2.789562 1_655
Mo0 Si3 2.789562 1_545
Mo0 Si0 2.845187 1_555
Mo1 Si1 2.767883 1_655
Mo1 Si1 2.774444 1_555
Mo1 Si1 2.807385 1_665
Mo2 Si2 2.767883 1_545
Mo2 Si2 2.774444 1_555
Mo2 Si2 2.807385 1_445
Mo3 Si0 2.567661 1_555
Mo3 Si3 2.568353 1_655
Mo3 Si2 2.634059 1_655
Mo4 Si0 2.567661 1_555
Mo4 Si3 2.568353 1_545
Mo4 Si1 2.634059 1_545
Mo5 Si1 2.611540 1_654
Mo5 Si2 2.611540 1_545
