# generated using pymatgen
data_ThCoSi
_symmetry_space_group_name_H-M   'P 1'
_cell_length_a   4.09551015
_cell_length_b   4.09549540
_cell_length_c   7.42839301
_cell_angle_alpha   106.00164157
_cell_angle_beta   106.00170078
_cell_angle_gamma   90.00000000
_symmetry_Int_Tables_number   1
_chemical_formula_structural   ThCoSi
_chemical_formula_sum   'Th2 Co2 Si2'
_cell_volume   114.73915507
_cell_formula_units_Z   2
loop_
 _symmetry_equiv_pos_site_id
 _symmetry_equiv_pos_as_xyz
  1  'x, y, z'
loop_
 _atom_site_type_symbol
 _atom_site_label
 _atom_site_symmetry_multiplicity
 _atom_site_fract_x
 _atom_site_fract_y
 _atom_site_fract_z
 _atom_site_occupancy
  Th  Th0  1  0.57715411  0.57715411  0.15430622  1
  Th  Th1  1  0.82712124  0.32712124  0.65424148  1
  Co  Co0  1  0.17028432  0.17028432  0.34056865  1
  Co  Co1  1  0.42027207  0.92027207  0.84054315  1
  Si  Si0  1  0.99958838  0.99958838  0.99917676  1
  Si  Si1  1  0.24958287  0.74958287  0.49916474  1
loop_
_geom_bond_atom_site_label_1
_geom_bond_atom_site_label_2
_geom_bond_distance
_geom_bond_site_symmetry_2
Co0 Si1 2.317384 1_545
Co0 Si1 2.317388 1_555
Co0 Si0 2.335342 1_444
Co0 Th1 2.966046 1_455
Co0 Th1 2.966049 1_555
Co0 Th0 3.163860 1_445
Co0 Th0 3.163865 1_455
Co0 Th0 3.163865 1_545
Co0 Th0 3.163871 1_555
Co1 Si0 2.317511 1_555
Co1 Si0 2.317515 1_455
Co1 Si1 2.335249 1_555
Co1 Th0 2.966487 1_556
Co1 Th0 2.966490 1_566
Co1 Th1 3.163973 1_565
Co1 Th1 3.163973 1_465
Co1 Th1 3.163973 1_555
Co1 Th1 3.163974 1_455
Si0 Th0 3.084259 1_556
Si0 Th0 3.084264 1_656
Si0 Th0 3.084264 1_566
Si0 Th0 3.084270 1_666
Si0 Th1 3.124241 1_555
Si0 Th1 3.124244 1_565
Si1 Th1 3.084140 1_455
Si1 Th1 3.084140 1_555
Si1 Th1 3.084140 1_465
Si1 Th1 3.084140 1_565
Si1 Th0 3.123850 1_455
Si1 Th0 3.123852 1_555
