# generated using pymatgen
data_Er7IrI12
_symmetry_space_group_name_H-M   'P 1'
_cell_length_a   9.66135455
_cell_length_b   9.66135539
_cell_length_c   9.66135531
_cell_angle_alpha   106.90263180
_cell_angle_beta   106.90262844
_cell_angle_gamma   106.90263091
_symmetry_Int_Tables_number   1
_chemical_formula_structural   Er7IrI12
_chemical_formula_sum   'Er7 Ir1 I12'
_cell_volume   753.02035907
_cell_formula_units_Z   1
loop_
 _symmetry_equiv_pos_site_id
 _symmetry_equiv_pos_as_xyz
  1  'x, y, z'
loop_
 _atom_site_type_symbol
 _atom_site_label
 _atom_site_symmetry_multiplicity
 _atom_site_fract_x
 _atom_site_fract_y
 _atom_site_fract_z
 _atom_site_occupancy
  Er  Er0  1  0.09373872  0.02253257  0.29463139  1
  Er  Er1  1  0.29463139  0.09373872  0.02253257  1
  Er  Er2  1  0.02253257  0.29463139  0.09373872  1
  Er  Er3  1  0.90626128  0.97746743  0.70536861  1
  Er  Er4  1  0.70536861  0.90626128  0.97746743  1
  Er  Er5  1  0.97746743  0.70536861  0.90626128  1
  Er  Er6  1  0.50000000  0.50000000  0.50000000  1
  Ir  Ir0  1  -0.00000000  -0.00000000  -0.00000000  1
  I  I0  1  0.07029335  0.67457737  0.22568773  1
  I  I1  1  0.22568773  0.07029335  0.67457737  1
  I  I2  1  0.67457737  0.22568773  0.07029335  1
  I  I3  1  0.92970665  0.32542263  0.77431227  1
  I  I4  1  0.77431227  0.92970665  0.32542263  1
  I  I5  1  0.32542263  0.77431227  0.92970665  1
  I  I6  1  0.46579874  0.16269308  0.38877044  1
  I  I7  1  0.38877044  0.46579874  0.16269308  1
  I  I8  1  0.16269308  0.38877044  0.46579874  1
  I  I9  1  0.53420126  0.83730692  0.61122956  1
  I  I10  1  0.61122956  0.53420126  0.83730692  1
  I  I11  1  0.83730692  0.61122956  0.53420126  1
loop_
_geom_bond_atom_site_label_1
_geom_bond_atom_site_label_2
_geom_bond_distance
_geom_bond_site_symmetry_2
Er0 Ir0 2.645057 1_555
Er0 I4 3.081616 1_445
Er0 I0 3.156506 1_545
Er0 I6 3.183450 1_555
Er0 I8 3.206967 1_555
Er0 I1 3.356285 1_555
Er1 Ir0 2.645056 1_555
Er1 I5 3.081616 1_544
Er1 I1 3.156506 1_554
Er1 I7 3.183450 1_555
Er1 I6 3.206967 1_555
Er1 I2 3.356285 1_555
Er2 Ir0 2.645057 1_555
Er2 I3 3.081616 1_454
Er2 I2 3.156506 1_455
Er2 I8 3.183450 1_555
Er2 I7 3.206967 1_555
Er2 I0 3.356285 1_555
Er3 Ir0 2.645057 1_666
Er3 I1 3.081616 1_665
Er3 I3 3.156506 1_565
Er3 I9 3.183450 1_555
Er3 I11 3.206967 1_555
Er3 I4 3.356285 1_555
Er4 Ir0 2.645056 1_666
Er4 I2 3.081616 1_566
Er4 I4 3.156506 1_556
Er4 I10 3.183450 1_555
Er4 I9 3.206967 1_555
Er4 I5 3.356285 1_555
Er5 Ir0 2.645057 1_666
Er5 I0 3.081616 1_656
Er5 I5 3.156506 1_655
Er5 I11 3.183450 1_555
Er5 I10 3.206967 1_555
Er5 I3 3.356285 1_555
Er6 I8 3.002500 1_555
Er6 I11 3.002500 1_555
Er6 I6 3.002500 1_555
Er6 I9 3.002500 1_555
Er6 I7 3.002500 1_555
Er6 I10 3.002500 1_555
