# generated using pymatgen
data_Li3Mn4(P2O7)4
_symmetry_space_group_name_H-M   'P 1'
_cell_length_a   9.66630375
_cell_length_b   9.71107247
_cell_length_c   11.31543472
_cell_angle_alpha   89.97043906
_cell_angle_beta   101.42595881
_cell_angle_gamma   89.58194918
_symmetry_Int_Tables_number   1
_chemical_formula_structural   Li3Mn4(P2O7)4
_chemical_formula_sum   'Li6 Mn8 P16 O56'
_cell_volume   1041.10122619
_cell_formula_units_Z   2
loop_
 _symmetry_equiv_pos_site_id
 _symmetry_equiv_pos_as_xyz
  1  'x, y, z'
loop_
 _atom_site_type_symbol
 _atom_site_label
 _atom_site_symmetry_multiplicity
 _atom_site_fract_x
 _atom_site_fract_y
 _atom_site_fract_z
 _atom_site_occupancy
  Li  Li0  1  0.14623400  0.39899000  0.04512000  1
  Li  Li1  1  0.41369400  0.59147300  0.97729000  1
  Li  Li2  1  0.39957300  0.96309900  0.50040400  1
  Li  Li3  1  0.91231500  0.90844100  0.98336700  1
  Li  Li4  1  0.83035000  0.58915700  0.45615400  1
  Li  Li5  1  0.89263200  0.28291300  0.54684300  1
  Mn  Mn0  1  0.20280200  0.93303100  0.67415400  1
  Mn  Mn1  1  0.27558100  0.22294300  0.83261600  1
  Mn  Mn2  1  0.21298100  0.72418300  0.16575100  1
  Mn  Mn3  1  0.30556700  0.43350100  0.34117200  1
  Mn  Mn4  1  0.70081400  0.57800400  0.67553000  1
  Mn  Mn5  1  0.75367400  0.28588500  0.82634600  1
  Mn  Mn6  1  0.71882200  0.77140600  0.16437100  1
  Mn  Mn7  1  0.80801600  0.06960400  0.33342000  1
  P  P0  1  0.02105800  0.44322800  0.75881600  1
  P  P1  1  0.11439500  0.70899800  0.88688400  1
  P  P2  1  0.06829400  0.93032600  0.24683800  1
  P  P3  1  0.13632600  0.15930900  0.42117100  1
  P  P4  1  0.37509200  0.65464100  0.58152900  1
  P  P5  1  0.42361000  0.42349700  0.75422600  1
  P  P6  1  0.52383100  0.05126200  0.74664500  1
  P  P7  1  0.38583100  0.20526200  0.11136800  1
  P  P8  1  0.61535500  0.78550300  0.88448500  1
  P  P9  1  0.46693400  0.93391200  0.23864300  1
  P  P10  1  0.56520700  0.56833900  0.24458700  1
  P  P11  1  0.62841100  0.34605300  0.41934200  1
  P  P12  1  0.88061700  0.85930400  0.57214300  1
  P  P13  1  0.93176900  0.07345100  0.75945200  1
  P  P14  1  0.87725400  0.28661200  0.11716700  1
  P  P15  1  0.96936400  0.55551700  0.24385000  1
  O  O0  1  0.02187400  0.41150900  0.63043900  1
  O  O1  1  0.04084900  0.85691100  0.57251200  1
  O  O2  1  0.08518000  0.08120600  0.73396100  1
  O  O3  1  0.10544100  0.34720600  0.85694800  1
  O  O4  1  0.09109500  0.59138600  0.78497000  1
  O  O5  1  0.19324400  0.82127800  0.83415700  1
  O  O6  1  0.20941200  0.63922000  0.00187700  1
  O  O7  1  0.02251300  0.26370800  0.08941800  1
  O  O8  1  0.13049600  0.07553500  0.29407000  1
  O  O9  1  0.07206200  0.91272300  0.11439200  1
  O  O10  1  0.12140700  0.54261900  0.20976200  1
  O  O11  1  0.18259200  0.30436700  0.39169800  1
  O  O12  1  0.16884100  0.81330100  0.30901200  1
  O  O13  1  0.23121300  0.07562100  0.51767300  1
  O  O14  1  0.29037500  0.58419200  0.47300000  1
  O  O15  1  0.32710700  0.30583300  0.69176800  1
  O  O16  1  0.33139400  0.80329800  0.60627900  1
  O  O17  1  0.36874900  0.04205300  0.77616500  1
  O  O18  1  0.35974400  0.56792400  0.70104600  1
  O  O19  1  0.40391800  0.41536600  0.88498400  1
  O  O20  1  0.47315400  0.74983500  0.90785000  1
  O  O21  1  0.29279900  0.14993300  0.99336300  1
  O  O22  1  0.31291600  0.32579700  0.16298600  1
  O  O23  1  0.39751900  0.08553900  0.20961000  1
  O  O24  1  0.41466600  0.57432400  0.27406800  1
  O  O25  1  0.37648400  0.83412100  0.14966100  1
  O  O26  1  0.52654200  0.06656400  0.61678400  1
  O  O27  1  0.47457200  0.33718300  0.43097500  1
  O  O28  1  0.53501600  0.65340800  0.57740300  1
  O  O29  1  0.47021700  0.90907400  0.36826200  1
  O  O30  1  0.60181300  0.15973500  0.83521500  1
  O  O31  1  0.57638800  0.41581600  0.73459900  1
  O  O32  1  0.60215100  0.90899000  0.78972500  1
  O  O33  1  0.69177400  0.67275100  0.82532800  1
  O  O34  1  0.71907300  0.83782400  0.00028700  1
  O  O35  1  0.53172300  0.24025800  0.09043700  1
  O  O36  1  0.56700300  0.58712900  0.11245200  1
  O  O37  1  0.63014300  0.42186700  0.29131700  1
  O  O38  1  0.61681200  0.93862100  0.20453600  1
  O  O39  1  0.69828700  0.20661900  0.40778300  1
  O  O40  1  0.67181200  0.67712700  0.31022800  1
  O  O41  1  0.72201700  0.43386900  0.51772800  1
  O  O42  1  0.79565900  0.93778600  0.46417100  1
  O  O43  1  0.84054100  0.19699800  0.69735100  1
  O  O44  1  0.82521200  0.71486600  0.58595500  1
  O  O45  1  0.86351700  0.45630500  0.78482600  1
  O  O46  1  0.91673100  0.06993700  0.88854000  1
  O  O47  1  0.86245800  0.93768700  0.69367700  1
  O  O48  1  0.97293600  0.75094500  0.91068000  1
  O  O49  1  0.77779600  0.33254800  0.99926400  1
  O  O50  1  0.81744800  0.16915700  0.18191000  1
  O  O51  1  0.88946900  0.41167600  0.21163400  1
  O  O52  1  0.88657700  0.66139700  0.15444300  1
  O  O53  1  0.91696400  0.92206300  0.27385500  1
  O  O54  1  0.98340700  0.17009100  0.43829100  1
  O  O55  1  0.97537700  0.57944300  0.37429500  1
loop_
_geom_bond_atom_site_label_1
_geom_bond_atom_site_label_2
_geom_bond_distance
_geom_bond_site_symmetry_2
Li0 O7 1.914977 1_555
Li0 O22 2.002715 1_555
Li0 O3 2.147886 1_554
Li0 O10 2.376705 1_555
Li0 O6 2.488527 1_555
Li1 O20 1.871724 1_555
Li1 O36 1.907366 1_556
Li1 O19 1.997426 1_555
Li1 O6 2.096684 1_556
Li2 O29 1.837780 1_555
Li2 O26 1.905007 1_565
Li2 O13 1.995233 1_565
Li2 O16 2.145604 1_555
Li3 O48 1.881027 1_555
Li3 O46 1.905287 1_565
Li3 O9 1.917870 1_656
Li3 O34 2.038717 1_556
Li4 O55 1.828870 1_555
Li4 O44 1.918294 1_555
Li4 O41 2.041363 1_555
Li4 O40 2.186702 1_555
Li5 O0 1.889655 1_655
Li5 O54 1.973185 1_555
Li5 O43 2.048045 1_555
Li5 O41 2.174028 1_555
Li5 O39 2.324729 1_555
Mn0 O1 1.903775 1_555
Mn0 O16 2.019543 1_555
Mn0 O2 2.025638 1_565
Mn0 O17 2.078183 1_565
Mn0 O5 2.128360 1_555
Mn0 O13 2.307316 1_565
Mn1 O21 1.927660 1_555
Mn1 O15 1.937809 1_555
Mn1 O3 2.094653 1_555
Mn1 O17 2.123877 1_555
Mn1 O19 2.263978 1_555
Mn1 O2 2.398453 1_555
Mn2 O25 1.951734 1_555
Mn2 O12 1.956771 1_555
Mn2 O6 2.024116 1_555
Mn2 O10 2.082520 1_555
Mn2 O9 2.279119 1_555
Mn2 O24 2.535919 1_555
Mn3 O11 1.898098 1_555
Mn3 O27 1.973649 1_555
Mn3 O24 1.973856 1_555
Mn3 O14 2.115200 1_555
Mn3 O22 2.285194 1_555
Mn3 O10 2.329149 1_555
Mn4 O28 1.901200 1_555
Mn4 O33 1.945882 1_555
Mn4 O45 2.144867 1_555
Mn4 O31 2.172344 1_555
Mn4 O44 2.178197 1_555
Mn4 O41 2.309314 1_555
Mn5 O30 1.936527 1_555
Mn5 O49 1.977336 1_555
Mn5 O43 2.014203 1_555
Mn5 O45 2.075927 1_555
Mn5 O31 2.206539 1_555
Mn5 O46 2.624515 1_555
Mn6 O52 1.957143 1_555
Mn6 O34 1.965670 1_555
Mn6 O38 1.992654 1_555
Mn6 O40 2.017502 1_555
Mn6 O36 2.323577 1_555
Mn6 O53 2.538955 1_555
Mn7 O53 1.968863 1_545
Mn7 O42 1.977912 1_545
Mn7 O39 1.984348 1_555
Mn7 O50 1.985857 1_555
Mn7 O54 2.112577 1_555
Mn7 O38 2.475697 1_545
O0 P0 1.486632 1_555
O1 P12 1.548034 1_455
O2 P13 1.568117 1_455
O3 P0 1.548165 1_555
O4 P0 1.597264 1_555
O4 P1 1.608505 1_555
O5 P1 1.522297 1_555
O6 P1 1.585042 1_554
O7 P14 1.513209 1_455
O8 P2 1.587913 1_545
O8 P3 1.644144 1_555
O9 P2 1.516048 1_555
O10 P15 1.595756 1_455
O11 P3 1.537328 1_555
O12 P2 1.563077 1_555
O13 P3 1.511793 1_555
O14 P4 1.502449 1_555
O15 P5 1.558995 1_555
O16 P4 1.542490 1_555
O17 P6 1.602218 1_555
O18 P5 1.596764 1_555
O18 P4 1.624888 1_555
O19 P5 1.530790 1_555
O20 P8 1.493360 1_555
O21 P7 1.553189 1_556
O22 P7 1.536170 1_555
O23 P7 1.596011 1_555
O23 P9 1.619888 1_545
O24 P10 1.556699 1_555
O25 P9 1.543345 1_555
O26 P6 1.482259 1_555
O27 P11 1.521673 1_555
O28 P4 1.555755 1_555
O29 P9 1.480359 1_555
O30 P6 1.547779 1_555
O31 P5 1.537588 1_555
O32 P8 1.595709 1_555
O32 P6 1.599204 1_565
O33 P8 1.541916 1_555
O34 P8 1.570969 1_554
O35 P7 1.516444 1_555
O36 P10 1.509690 1_555
O37 P10 1.597345 1_555
O37 P11 1.627766 1_555
O38 P9 1.572399 1_555
O39 P11 1.525985 1_555
O40 P10 1.563041 1_555
O41 P11 1.548703 1_555
O42 P12 1.529816 1_555
O43 P13 1.564947 1_555
O44 P12 1.523999 1_555
O45 P0 1.611390 1_655
O46 P13 1.496679 1_555
O47 P13 1.599177 1_565
O47 P12 1.611268 1_555
O48 P1 1.498680 1_655
O49 P14 1.545350 1_556
O50 P14 1.532468 1_555
O51 P14 1.607798 1_555
O51 P15 1.607867 1_555
O52 P15 1.545075 1_555
O53 P2 1.555169 1_655
O54 P3 1.531231 1_655
O55 P15 1.484124 1_555
