# generated using pymatgen
data_H7C2N7O6
_symmetry_space_group_name_H-M   'P 1'
_cell_length_a   5.43016309
_cell_length_b   8.52091809
_cell_length_c   11.68034609
_cell_angle_alpha   83.32538339
_cell_angle_beta   82.42718291
_cell_angle_gamma   72.79069672
_symmetry_Int_Tables_number   1
_chemical_formula_structural   H7C2N7O6
_chemical_formula_sum   'H14 C4 N14 O12'
_cell_volume   510.04549392
_cell_formula_units_Z   2
loop_
 _symmetry_equiv_pos_site_id
 _symmetry_equiv_pos_as_xyz
  1  'x, y, z'
loop_
 _atom_site_type_symbol
 _atom_site_label
 _atom_site_symmetry_multiplicity
 _atom_site_fract_x
 _atom_site_fract_y
 _atom_site_fract_z
 _atom_site_occupancy
  H  H0  1  0.36524200  0.41275100  0.36791700  1
  H  H1  1  0.63475800  0.58724900  0.63208300  1
  H  H2  1  0.35615300  0.41707000  0.21666400  1
  H  H3  1  0.64384700  0.58293000  0.78333600  1
  H  H4  1  0.96744400  0.14327200  0.15731300  1
  H  H5  1  0.03255600  0.85672700  0.84268700  1
  H  H6  1  0.00628000  0.12938400  0.35468300  1
  H  H7  1  0.99372000  0.87061600  0.64531700  1
  H  H8  1  0.74879900  0.24247200  0.44627100  1
  H  H9  1  0.25120100  0.75752800  0.55372900  1
  H  H10  1  0.73906800  0.34509000  0.01436400  1
  H  H11  1  0.26093200  0.65491000  0.98563600  1
  H  H12  1  0.59908200  0.19395900  0.04129100  1
  H  H13  1  0.40091800  0.80604100  0.95870900  1
  C  C0  1  0.67088400  0.78469100  0.26161300  1
  C  C1  1  0.32911600  0.21530900  0.73838700  1
  C  C2  1  0.68772400  0.27279400  0.27561300  1
  C  C3  1  0.31227600  0.72720600  0.72438700  1
  N  N0  1  0.78536400  0.22292900  0.16930500  1
  N  N1  1  0.21463600  0.77707100  0.83069500  1
  N  N2  1  0.63605700  0.28805800  0.07661200  1
  N  N3  1  0.36394300  0.71194200  0.92338800  1
  N  N4  1  0.77414500  0.70426700  0.36618200  1
  N  N5  1  0.22585500  0.29573300  0.63381800  1
  N  N6  1  0.82080400  0.74612600  0.15460400  1
  N  N7  1  0.17919600  0.25387400  0.84539600  1
  N  N8  1  0.42973100  0.90396800  0.26648000  1
  N  N9  1  0.57026900  0.09603200  0.73352000  1
  N  N10  1  0.45198400  0.37853500  0.28859200  1
  N  N11  1  0.54801600  0.62146500  0.71140800  1
  N  N12  1  0.83047000  0.21658100  0.36467600  1
  N  N13  1  0.16953000  0.78341900  0.63532400  1
  O  O0  1  0.98416300  0.60699000  0.15061600  1
  O  O1  1  0.01583700  0.39301000  0.84938400  1
  O  O2  1  0.78355500  0.85012400  0.06942900  1
  O  O3  1  0.21644500  0.14987600  0.93057100  1
  O  O4  1  0.31328000  0.94644300  0.17694200  1
  O  O5  1  0.68672000  0.05355700  0.82305800  1
  O  O6  1  0.62083900  0.66946000  0.44796000  1
  O  O7  1  0.37916100  0.33054000  0.55204000  1
  O  O8  1  0.33986800  0.96538100  0.36165500  1
  O  O9  1  0.66013200  0.03461900  0.63834500  1
  O  O10  1  0.01186700  0.67230300  0.37045600  1
  O  O11  1  0.98813300  0.32769700  0.62954400  1
loop_
_geom_bond_atom_site_label_1
_geom_bond_atom_site_label_2
_geom_bond_distance
_geom_bond_site_symmetry_2
H0 N10 1.015802 1_555
H1 N11 1.015802 1_555
H2 N10 1.017078 1_555
H3 N11 1.017078 1_555
H4 N0 1.022932 1_555
H5 N1 1.022929 1_555
H6 N12 1.023789 1_455
H7 N13 1.023789 1_655
H8 N12 1.016489 1_555
H9 N13 1.016489 1_555
H10 N2 1.024311 1_555
H11 N3 1.024311 1_555
H12 N2 1.023430 1_555
H13 N3 1.023430 1_555
C0 N8 1.399023 1_555
C0 N6 1.414910 1_555
C0 N4 1.426330 1_555
C1 N9 1.399023 1_555
C1 N7 1.414910 1_555
C1 N5 1.426330 1_555
C2 N10 1.331010 1_555
C2 N12 1.337709 1_555
C2 N0 1.348822 1_555
C3 N11 1.331010 1_555
C3 N13 1.337709 1_555
C3 N1 1.348822 1_555
N0 N2 1.401061 1_555
N1 N3 1.401061 1_555
N4 O10 1.244508 1_655
N4 O6 1.250614 1_555
N5 O11 1.244508 1_455
N5 O7 1.250614 1_555
N6 O2 1.248198 1_555
N6 O0 1.254698 1_555
N7 O3 1.248198 1_555
N7 O1 1.254698 1_555
N8 O4 1.255197 1_555
N8 O8 1.260528 1_555
N9 O5 1.255197 1_555
N9 O9 1.260528 1_555
