# generated using pymatgen
data_Li3La2(BO3)3
_symmetry_space_group_name_H-M   'P 1'
_cell_length_a   14.44610000
_cell_length_b   5.96697900
_cell_length_c   9.54080730
_cell_angle_alpha   66.40515729
_cell_angle_beta   90.00000000
_cell_angle_gamma   90.00000000
_symmetry_Int_Tables_number   1
_chemical_formula_structural   Li3La2(BO3)3
_chemical_formula_sum   'Li12 La8 B12 O36'
_cell_volume   753.65874785
_cell_formula_units_Z   4
loop_
 _symmetry_equiv_pos_site_id
 _symmetry_equiv_pos_as_xyz
  1  'x, y, z'
loop_
 _atom_site_type_symbol
 _atom_site_label
 _atom_site_symmetry_multiplicity
 _atom_site_fract_x
 _atom_site_fract_y
 _atom_site_fract_z
 _atom_site_occupancy
  Li  Li0  1  0.33520600  0.90326400  0.01897800  1
  Li  Li1  1  0.66479400  0.09673600  0.98102200  1
  Li  Li2  1  0.83520600  0.09673600  0.48102200  1
  Li  Li3  1  0.16479400  0.90326400  0.51897800  1
  Li  Li4  1  0.78197600  0.90713400  0.29208000  1
  Li  Li5  1  0.21802400  0.09286600  0.70792000  1
  Li  Li6  1  0.28197600  0.09286600  0.20792000  1
  Li  Li7  1  0.71802400  0.90713400  0.79208000  1
  Li  Li8  1  0.89864000  0.56353800  0.29206000  1
  Li  Li9  1  0.10136000  0.43646200  0.70794000  1
  Li  Li10  1  0.39864000  0.43646200  0.20794000  1
  Li  Li11  1  0.60136000  0.56353800  0.79206000  1
  La  La0  1  0.66591400  0.44471000  0.19120700  1
  La  La1  1  0.33408600  0.55529000  0.80879300  1
  La  La2  1  0.16591400  0.55529000  0.30879300  1
  La  La3  1  0.83408600  0.44471000  0.69120700  1
  La  La4  1  0.50311100  0.84921100  0.33980400  1
  La  La5  1  0.49688900  0.15078900  0.66019600  1
  La  La6  1  0.00311100  0.15078900  0.16019600  1
  La  La7  1  0.99688900  0.84921100  0.83980400  1
  B  B0  1  0.98458800  0.76434400  0.48628300  1
  B  B1  1  0.01541200  0.23565600  0.51371700  1
  B  B2  1  0.48458800  0.23565600  0.01371700  1
  B  B3  1  0.51541200  0.76434400  0.98628300  1
  B  B4  1  0.83586400  0.88730900  0.02815100  1
  B  B5  1  0.16413600  0.11269100  0.97184900  1
  B  B6  1  0.33586400  0.11269100  0.47184900  1
  B  B7  1  0.66413600  0.88730900  0.52815100  1
  B  B8  1  0.82425400  0.38812000  0.02046400  1
  B  B9  1  0.17574600  0.61188000  0.97953600  1
  B  B10  1  0.32425400  0.61188000  0.47953600  1
  B  B11  1  0.67574600  0.38812000  0.52046400  1
  O  O0  1  0.89892600  0.81328000  0.41533500  1
  O  O1  1  0.10107400  0.18672000  0.58466500  1
  O  O2  1  0.39892600  0.18672000  0.08466500  1
  O  O3  1  0.60107400  0.81328000  0.91533500  1
  O  O4  1  0.59484500  0.45479000  0.43390600  1
  O  O5  1  0.40515500  0.54521000  0.56609400  1
  O  O6  1  0.09484500  0.54521000  0.06609400  1
  O  O7  1  0.90515500  0.45479000  0.93390600  1
  O  O8  1  0.75718700  0.82390100  0.11816800  1
  O  O9  1  0.24281300  0.17609900  0.88183200  1
  O  O10  1  0.25718700  0.17609900  0.38183200  1
  O  O11  1  0.74281300  0.82390100  0.61816800  1
  O  O12  1  0.56497000  0.18137700  0.10124200  1
  O  O13  1  0.43503000  0.81862300  0.89875800  1
  O  O14  1  0.06497000  0.81862300  0.39875800  1
  O  O15  1  0.93503000  0.18137700  0.60124200  1
  O  O16  1  0.92382900  0.83911800  0.09330800  1
  O  O17  1  0.07617100  0.16088200  0.90669200  1
  O  O18  1  0.42382900  0.16088200  0.40669200  1
  O  O19  1  0.57617100  0.83911800  0.59330800  1
  O  O20  1  0.83131800  0.28922200  0.17952100  1
  O  O21  1  0.16868200  0.71077800  0.82047900  1
  O  O22  1  0.33131800  0.71077800  0.32047900  1
  O  O23  1  0.66868200  0.28922200  0.67952100  1
  O  O24  1  0.50925800  0.65773000  0.14505700  1
  O  O25  1  0.49074200  0.34227000  0.85494300  1
  O  O26  1  0.00925800  0.34227000  0.35494300  1
  O  O27  1  0.99074200  0.65773000  0.64505700  1
  O  O28  1  0.76062100  0.41418700  0.44803100  1
  O  O29  1  0.23937900  0.58581300  0.55196900  1
  O  O30  1  0.26062100  0.58581300  0.05196900  1
  O  O31  1  0.73937900  0.41418700  0.94803100  1
  O  O32  1  0.66896100  0.99709900  0.36959000  1
  O  O33  1  0.33103900  0.00290100  0.63041000  1
  O  O34  1  0.16896100  0.00290100  0.13041000  1
  O  O35  1  0.83103900  0.99709900  0.86959000  1
loop_
_geom_bond_atom_site_label_1
_geom_bond_atom_site_label_2
_geom_bond_distance
_geom_bond_site_symmetry_2
Li0 O13 2.028294 1_554
Li0 O30 2.090642 1_555
Li0 O9 2.106818 1_564
Li0 O2 2.224726 1_565
Li1 O12 2.028294 1_556
Li1 O31 2.090642 1_555
Li1 O8 2.106818 1_546
Li1 O3 2.224726 1_545
Li2 O15 2.028294 1_555
Li2 O28 2.090642 1_555
Li2 O11 2.106818 1_545
Li2 O0 2.224726 1_545
Li3 O14 2.028294 1_555
Li3 O29 2.090642 1_555
Li3 O10 2.106818 1_565
Li3 O1 2.224726 1_565
Li4 O8 1.946212 1_555
Li4 O32 1.954050 1_555
Li4 O0 2.005892 1_555
Li4 O20 2.213440 1_565
Li5 O9 1.946212 1_555
Li5 O33 1.954050 1_555
Li5 O1 2.005892 1_555
Li5 O21 2.213440 1_545
Li6 O10 1.946212 1_555
Li6 O34 1.954050 1_555
Li6 O2 2.005892 1_555
Li6 O22 2.213440 1_545
Li7 O11 1.946212 1_555
Li7 O35 1.954050 1_555
Li7 O3 2.005892 1_555
Li7 O23 2.213440 1_565
Li8 O16 1.983932 1_555
Li8 O26 2.005648 1_655
Li8 O0 2.237662 1_555
Li8 O28 2.433590 1_555
Li8 O20 2.486939 1_555
Li9 O17 1.983932 1_555
Li9 O27 2.005648 1_455
Li9 O1 2.237662 1_555
Li9 O29 2.433590 1_555
Li9 O21 2.486939 1_555
Li10 O18 1.983932 1_555
Li10 O24 2.005648 1_555
Li10 O2 2.237662 1_555
Li10 O30 2.433590 1_555
Li10 O22 2.486939 1_555
Li11 O19 1.983932 1_555
Li11 O25 2.005648 1_555
Li11 O3 2.237662 1_555
Li11 O31 2.433590 1_555
Li11 O23 2.486939 1_555
La0 O8 2.466051 1_555
La0 O32 2.528471 1_545
La0 O12 2.532175 1_555
La0 O24 2.546169 1_555
La0 O4 2.555564 1_555
La0 O20 2.581759 1_555
La0 O31 2.623091 1_554
La0 O28 2.748045 1_555
La0 O3 2.829809 1_554
La1 O9 2.466051 1_555
La1 O33 2.528471 1_565
La1 O13 2.532175 1_555
La1 O25 2.546169 1_555
La1 O5 2.555564 1_555
La1 O21 2.581759 1_555
La1 O30 2.623091 1_556
La1 O29 2.748045 1_555
La1 O2 2.829809 1_556
La2 O10 2.466051 1_555
La2 O34 2.528471 1_565
La2 O14 2.532175 1_555
La2 O26 2.546169 1_555
La2 O6 2.555564 1_555
La2 O22 2.581759 1_555
La2 O29 2.623091 1_555
La2 O30 2.748045 1_555
La2 O1 2.829809 1_555
La3 O11 2.466051 1_555
La3 O35 2.528471 1_545
La3 O15 2.532175 1_555
La3 O27 2.546169 1_555
La3 O7 2.555564 1_555
La3 O23 2.581759 1_555
La3 O28 2.623091 1_555
La3 O31 2.748045 1_555
La3 O0 2.829809 1_555
La4 O18 2.475420 1_565
La4 O12 2.509205 1_565
La4 O4 2.531731 1_555
La4 O24 2.542664 1_555
La4 O32 2.607775 1_555
La4 O5 2.611324 1_555
La4 O19 2.617392 1_555
La4 O22 2.645234 1_555
La4 O2 2.884800 1_565
La5 O19 2.475420 1_545
La5 O13 2.509205 1_545
La5 O5 2.531731 1_555
La5 O25 2.542664 1_555
La5 O33 2.607775 1_555
La5 O4 2.611324 1_555
La5 O18 2.617392 1_555
La5 O23 2.645234 1_555
La5 O3 2.884800 1_545
La6 O16 2.475420 1_445
La6 O14 2.509205 1_545
La6 O6 2.531731 1_555
La6 O26 2.542664 1_555
La6 O34 2.607775 1_555
La6 O7 2.611324 1_454
La6 O17 2.617392 1_554
La6 O20 2.645234 1_455
La6 O0 2.884800 1_445
La7 O17 2.475420 1_665
La7 O15 2.509205 1_565
La7 O7 2.531731 1_555
La7 O27 2.542664 1_555
La7 O35 2.607775 1_555
La7 O6 2.611324 1_656
La7 O16 2.617392 1_556
La7 O21 2.645234 1_655
La7 O1 2.884800 1_665
B0 O0 1.384410 1_555
B0 O14 1.390723 1_655
B0 O27 1.391354 1_555
B1 O1 1.384410 1_555
B1 O15 1.390723 1_455
B1 O26 1.391354 1_555
B2 O2 1.384410 1_555
B2 O12 1.390723 1_555
B2 O25 1.391354 1_554
B3 O3 1.384410 1_555
B3 O13 1.390723 1_555
B3 O24 1.391354 1_556
B4 O8 1.382905 1_555
B4 O35 1.388965 1_554
B4 O16 1.393142 1_555
B5 O9 1.382905 1_555
B5 O34 1.388965 1_556
B5 O17 1.393142 1_555
B6 O10 1.382905 1_555
B6 O33 1.388965 1_555
B6 O18 1.393142 1_555
B7 O11 1.382905 1_555
B7 O32 1.388965 1_555
B7 O19 1.393142 1_555
B8 O31 1.385306 1_554
B8 O7 1.393961 1_554
B8 O20 1.394511 1_555
B9 O30 1.385306 1_556
B9 O6 1.393961 1_556
B9 O21 1.394511 1_555
B10 O29 1.385306 1_555
B10 O5 1.393961 1_555
B10 O22 1.394511 1_555
B11 O28 1.385306 1_555
B11 O4 1.393961 1_555
B11 O23 1.394511 1_555
