# generated using pymatgen
data_Si3Sb5N9
_symmetry_space_group_name_H-M   'P 1'
_cell_length_a   8.19707271
_cell_length_b   12.19859474
_cell_length_c   15.50448900
_cell_angle_alpha   90.00000000
_cell_angle_beta   90.00000000
_cell_angle_gamma   138.08035268
_symmetry_Int_Tables_number   1
_chemical_formula_structural   Si3Sb5N9
_chemical_formula_sum   'Si12 Sb20 N36'
_cell_volume   1035.76100305
_cell_formula_units_Z   4
loop_
 _symmetry_equiv_pos_site_id
 _symmetry_equiv_pos_as_xyz
  1  'x, y, z'
loop_
 _atom_site_type_symbol
 _atom_site_label
 _atom_site_symmetry_multiplicity
 _atom_site_fract_x
 _atom_site_fract_y
 _atom_site_fract_z
 _atom_site_occupancy
  Si  Si0  1  0.00000000  0.78910600  0.02427000  1
  Si  Si1  1  0.00000000  0.21089400  0.97573000  1
  Si  Si2  1  0.00000000  0.71089400  0.52427000  1
  Si  Si3  1  0.00000000  0.28910600  0.47573000  1
  Si  Si4  1  0.00000000  0.21091500  0.76910500  1
  Si  Si5  1  0.00000000  0.78908500  0.23089500  1
  Si  Si6  1  0.00000000  0.28908500  0.26910500  1
  Si  Si7  1  0.00000000  0.71091500  0.73089500  1
  Si  Si8  1  0.50000000  0.78887500  0.75000000  1
  Si  Si9  1  0.50000000  0.71112500  0.25000000  1
  Si  Si10  1  0.50000000  0.21112500  0.25000000  1
  Si  Si11  1  0.50000000  0.28887500  0.75000000  1
  Sb  Sb0  1  0.00000000  0.54874700  0.87570900  1
  Sb  Sb1  1  0.00000000  0.45125300  0.12429100  1
  Sb  Sb2  1  0.00000000  0.95125300  0.37570900  1
  Sb  Sb3  1  0.00000000  0.04874700  0.62429100  1
  Sb  Sb4  1  0.36083300  0.97499800  0.87314800  1
  Sb  Sb5  1  0.36083300  0.38583600  0.12685200  1
  Sb  Sb6  1  0.36083300  0.88583600  0.37314800  1
  Sb  Sb7  1  0.36083300  0.47499800  0.62685200  1
  Sb  Sb8  1  0.63916700  0.02500200  0.12685200  1
  Sb  Sb9  1  0.63916700  0.61416400  0.87314800  1
  Sb  Sb10  1  0.63916700  0.11416400  0.62685200  1
  Sb  Sb11  1  0.63916700  0.52500200  0.37314800  1
  Sb  Sb12  1  0.00000000  0.49769800  0.65567600  1
  Sb  Sb13  1  0.00000000  0.50230200  0.34432400  1
  Sb  Sb14  1  0.00000000  0.00230200  0.15567600  1
  Sb  Sb15  1  0.00000000  0.99769800  0.84432400  1
  Sb  Sb16  1  0.48340400  0.24170300  0.00000000  1
  Sb  Sb17  1  0.48340400  0.74170300  0.50000000  1
  Sb  Sb18  1  0.51659600  0.75829700  0.00000000  1
  Sb  Sb19  1  0.51659600  0.25829700  0.50000000  1
  N  N0  1  0.00000000  0.32572800  0.69781200  1
  N  N1  1  0.00000000  0.67427200  0.30218800  1
  N  N2  1  0.00000000  0.17427200  0.19781200  1
  N  N3  1  0.00000000  0.82572800  0.80218800  1
  N  N4  1  0.00000000  0.24310200  0.87146900  1
  N  N5  1  0.00000000  0.75689800  0.12853100  1
  N  N6  1  0.00000000  0.25689800  0.37146900  1
  N  N7  1  0.00000000  0.74310200  0.62853100  1
  N  N8  1  0.77122600  0.49953600  0.76912700  1
  N  N9  1  0.77122600  0.27168900  0.23087300  1
  N  N10  1  0.77122600  0.77168900  0.26912700  1
  N  N11  1  0.77122600  0.99953600  0.73087300  1
  N  N12  1  0.22877400  0.50046400  0.23087300  1
  N  N13  1  0.22877400  0.72831100  0.76912700  1
  N  N14  1  0.22877400  0.22831100  0.73087300  1
  N  N15  1  0.22877400  0.00046400  0.26912700  1
  N  N16  1  0.43163400  0.18208500  0.84487500  1
  N  N17  1  0.43163400  0.24954900  0.15512500  1
  N  N18  1  0.43163400  0.74954900  0.34487500  1
  N  N19  1  0.43163400  0.68208500  0.65512500  1
  N  N20  1  0.56836600  0.81791500  0.15512500  1
  N  N21  1  0.56836600  0.75045100  0.84487500  1
  N  N22  1  0.56836600  0.25045100  0.65512500  1
  N  N23  1  0.56836600  0.31791500  0.34487500  1
  N  N24  1  0.26065400  0.99431800  0.99045800  1
  N  N25  1  0.26065400  0.26633700  0.00954200  1
  N  N26  1  0.26065400  0.76633700  0.49045800  1
  N  N27  1  0.26065400  0.49431800  0.50954200  1
  N  N28  1  0.73934600  0.00568200  0.00954200  1
  N  N29  1  0.73934600  0.73366300  0.99045800  1
  N  N30  1  0.73934600  0.23366300  0.50954200  1
  N  N31  1  0.73934600  0.50568200  0.49045800  1
  N  N32  1  0.00000000  0.68873600  0.94428500  1
  N  N33  1  0.00000000  0.31126400  0.05571500  1
  N  N34  1  0.00000000  0.81126400  0.44428500  1
  N  N35  1  0.00000000  0.18873600  0.55571500  1
loop_
_geom_bond_atom_site_label_1
_geom_bond_atom_site_label_2
_geom_bond_distance
_geom_bond_site_symmetry_2
N0 Si4 1.784204 1_555
N0 Sb12 2.197164 1_555
N0 Sb7 2.293377 1_555
N0 Sb10 2.293379 1_455
N1 Si5 1.784204 1_555
N1 Sb13 2.197164 1_555
N1 Sb11 2.293377 1_455
N1 Sb6 2.293379 1_555
N2 Si6 1.784204 1_555
N2 Sb14 2.197164 1_555
N2 Sb8 2.293377 1_455
N2 Sb5 2.293379 1_555
N3 Si7 1.784204 1_555
N3 Sb15 2.197164 1_555
N3 Sb4 2.293377 1_555
N3 Sb9 2.293379 1_455
N4 Si4 1.634948 1_555
N4 Si1 1.663575 1_555
N5 Si5 1.634948 1_555
N5 Si0 1.663575 1_555
N6 Si6 1.634948 1_555
N6 Si3 1.663575 1_555
N7 Si7 1.634948 1_555
N7 Si2 1.663575 1_555
N8 Si11 1.769819 1_555
N8 Si7 1.822330 1_655
N8 Sb0 2.220923 1_655
N8 Sb12 2.583373 1_655
N8 Sb9 2.825016 1_555
N9 Si10 1.769826 1_555
N9 Si6 1.822323 1_655
N9 Sb1 2.220928 1_655
N9 Sb13 2.583380 1_655
N9 Sb8 2.825016 1_555
N10 Si9 1.769826 1_555
N10 Si5 1.822323 1_655
N10 Sb2 2.220928 1_655
N10 Sb14 2.583380 1_665
N10 Sb11 2.825016 1_555
N11 Si8 1.769819 1_555
N11 Si4 1.822330 1_665
N11 Sb3 2.220923 1_665
N11 Sb15 2.583373 1_655
N11 Sb10 2.825016 1_565
N12 Si9 1.769819 1_555
N12 Si6 1.822330 1_555
N12 Sb1 2.220923 1_555
N12 Sb13 2.583373 1_555
N12 Sb5 2.825016 1_555
N13 Si8 1.769826 1_555
N13 Si7 1.822323 1_555
N13 Sb0 2.220928 1_555
N13 Sb12 2.583380 1_555
N13 Sb4 2.825016 1_555
N14 Si11 1.769826 1_555
N14 Si4 1.822323 1_555
N14 Sb3 2.220928 1_555
N14 Sb15 2.583380 1_545
N14 Sb7 2.825016 1_555
N15 Si10 1.769819 1_555
N15 Si5 1.822330 1_545
N15 Sb2 2.220923 1_545
N15 Sb14 2.583373 1_555
N15 Sb6 2.825016 1_545
N16 Si11 1.757399 1_555
N16 Sb4 2.174564 1_545
N16 Sb15 2.394692 1_545
N16 Sb16 2.456497 1_556
N17 Si10 1.757399 1_555
N17 Sb5 2.174576 1_555
N17 Sb14 2.394692 1_555
N17 Sb16 2.456493 1_555
N18 Si9 1.757399 1_555
N18 Sb6 2.174576 1_555
N18 Sb13 2.394692 1_555
N18 Sb17 2.456493 1_555
N19 Si8 1.757399 1_555
N19 Sb7 2.174564 1_555
N19 Sb12 2.394692 1_555
N19 Sb17 2.456497 1_555
N20 Si9 1.757399 1_555
N20 Sb8 2.174564 1_565
N20 Sb14 2.394692 1_665
N20 Sb18 2.456497 1_555
N21 Si8 1.757399 1_555
N21 Sb9 2.174576 1_555
N21 Sb15 2.394692 1_655
N21 Sb18 2.456493 1_556
N22 Si11 1.757399 1_555
N22 Sb10 2.174576 1_555
N22 Sb12 2.394692 1_655
N22 Sb19 2.456493 1_555
N23 Si10 1.757399 1_555
N23 Sb11 2.174564 1_555
N23 Sb13 2.394692 1_655
N23 Sb19 2.456497 1_555
N24 Si0 1.773941 1_556
N24 Sb16 2.064621 1_566
N24 Sb4 2.079910 1_555
N25 Si1 1.773935 1_554
N25 Sb16 2.064612 1_555
N25 Sb5 2.079910 1_555
N26 Si2 1.773935 1_555
N26 Sb17 2.064612 1_555
N26 Sb6 2.079910 1_555
N27 Si3 1.773941 1_555
N27 Sb17 2.064621 1_555
N27 Sb7 2.079910 1_555
N28 Si1 1.773941 1_654
N28 Sb18 2.064621 1_545
N28 Sb8 2.079910 1_555
N29 Si0 1.773935 1_656
N29 Sb18 2.064612 1_556
N29 Sb9 2.079910 1_555
N30 Si3 1.773935 1_655
N30 Sb19 2.064612 1_555
N30 Sb10 2.079910 1_555
N31 Si2 1.773941 1_655
N31 Sb19 2.064621 1_555
N31 Sb11 2.079910 1_555
N32 Si0 1.742700 1_556
N32 Sb0 2.011617 1_555
N32 Sb9 2.605446 1_455
N32 Sb4 2.605451 1_555
N33 Si1 1.742700 1_554
N33 Sb1 2.011617 1_555
N33 Sb5 2.605446 1_555
N33 Sb8 2.605451 1_455
N34 Si2 1.742700 1_555
N34 Sb2 2.011617 1_555
N34 Sb6 2.605446 1_555
N34 Sb11 2.605451 1_455
N35 Si3 1.742700 1_555
N35 Sb3 2.011617 1_555
N35 Sb10 2.605446 1_455
N35 Sb7 2.605451 1_555
