# generated using pymatgen
data_Mg14NbCo
_symmetry_space_group_name_H-M   'P 1'
_cell_length_a   6.30780205
_cell_length_b   6.30780155
_cell_length_c   9.87091766
_cell_angle_alpha   90.00000000
_cell_angle_beta   90.00000000
_cell_angle_gamma   120.00000266
_symmetry_Int_Tables_number   1
_chemical_formula_structural   Mg14NbCo
_chemical_formula_sum   'Mg14 Nb1 Co1'
_cell_volume   340.12944220
_cell_formula_units_Z   1
loop_
 _symmetry_equiv_pos_site_id
 _symmetry_equiv_pos_as_xyz
  1  'x, y, z'
loop_
 _atom_site_type_symbol
 _atom_site_label
 _atom_site_symmetry_multiplicity
 _atom_site_fract_x
 _atom_site_fract_y
 _atom_site_fract_z
 _atom_site_occupancy
  Mg  Mg0  1  0.16426278  0.83213089  0.12500000  1
  Mg  Mg1  1  0.17437268  0.83718584  0.62500000  1
  Mg  Mg2  1  0.66786911  0.33573722  0.12500000  1
  Mg  Mg3  1  0.66281416  0.32562732  0.62500000  1
  Mg  Mg4  1  0.66786911  0.83213089  0.12500000  1
  Mg  Mg5  1  0.66281416  0.83718584  0.62500000  1
  Mg  Mg6  1  0.32258330  0.17741670  0.36682351  1
  Mg  Mg7  1  0.32258330  0.17741670  0.88317649  1
  Mg  Mg8  1  0.32258330  0.64516761  0.36682351  1
  Mg  Mg9  1  0.32258330  0.64516761  0.88317649  1
  Mg  Mg10  1  0.85483239  0.17741670  0.36682351  1
  Mg  Mg11  1  0.85483239  0.17741670  0.88317649  1
  Mg  Mg12  1  0.83333300  0.66666700  0.38213857  1
  Mg  Mg13  1  0.83333300  0.66666700  0.86786143  1
  Nb  Nb0  1  0.16666700  0.33333300  0.62500000  1
  Co  Co0  1  0.16666700  0.33333300  0.12500000  1
loop_
_geom_bond_atom_site_label_1
_geom_bond_atom_site_label_2
_geom_bond_distance
_geom_bond_site_symmetry_2
Mg0 Mg8 3.043637 1_555
Mg0 Mg9 3.043637 1_554
Mg0 Mg6 3.043644 1_565
Mg0 Mg7 3.043644 1_564
Mg0 Mg13 3.116164 1_454
Mg0 Mg12 3.116164 1_455
Mg0 Mg2 3.131153 1_455
Mg0 Mg4 3.131153 1_455
Mg0 Mg2 3.176649 1_565
Mg0 Mg4 3.176649 1_555
Mg1 Mg12 3.036060 1_455
Mg1 Mg13 3.036060 1_455
Mg1 Mg3 3.080992 1_565
Mg1 Mg5 3.080992 1_555
Mg1 Nb0 3.154182 1_555
Mg1 Nb0 3.154182 1_565
Mg1 Mg9 3.157202 1_555
Mg1 Mg8 3.157202 1_555
Mg1 Mg6 3.157209 1_565
Mg1 Mg7 3.157209 1_565
Mg1 Mg3 3.226810 1_455
Mg1 Mg5 3.226810 1_455
Mg2 Mg6 3.043644 1_555
Mg2 Mg7 3.043644 1_554
Mg2 Mg4 3.131153 1_555
Mg2 Mg4 3.176649 1_545
Mg3 Mg5 3.080992 1_545
Mg3 Nb0 3.154182 1_655
Mg3 Nb0 3.154182 1_555
Mg3 Mg7 3.157209 1_555
Mg3 Mg6 3.157209 1_555
Mg3 Mg5 3.226810 1_555
Mg4 Mg8 3.043644 1_555
Mg4 Mg9 3.043644 1_554
Mg5 Nb0 3.154182 1_555
Mg5 Nb0 3.154182 1_665
Mg5 Mg9 3.157209 1_555
Mg5 Mg8 3.157209 1_555
Mg6 Mg8 2.950480 1_555
Mg6 Nb0 3.065337 1_555
Mg6 Mg8 3.357322 1_545
Mg7 Mg9 2.950480 1_555
Mg7 Nb0 3.065337 1_555
Mg7 Mg9 3.357322 1_545
Mg8 Nb0 3.065343 1_555
Mg9 Nb0 3.065343 1_555
Mg10 Mg8 2.950480 1_655
Mg10 Mg6 2.950480 1_655
Mg10 Mg2 3.043637 1_555
Mg10 Mg4 3.043644 1_545
Mg10 Nb0 3.065343 1_655
Mg10 Mg3 3.157202 1_555
Mg10 Mg5 3.157208 1_545
Mg10 Mg12 3.159705 1_555
Mg10 Mg12 3.159705 1_545
Mg10 Mg8 3.357322 1_545
Mg10 Mg6 3.357322 1_555
Mg11 Mg9 2.950480 1_655
Mg11 Mg7 2.950480 1_655
Mg11 Mg2 3.043637 1_556
Mg11 Mg4 3.043644 1_546
Mg11 Nb0 3.065343 1_655
Mg11 Mg3 3.157202 1_555
Mg11 Mg5 3.157208 1_545
Mg11 Mg13 3.159705 1_555
Mg11 Mg13 3.159705 1_545
Mg11 Mg9 3.357322 1_545
Mg11 Mg7 3.357322 1_555
Mg12 Mg5 3.036053 1_555
Mg12 Mg3 3.036060 1_555
Mg12 Mg4 3.116158 1_555
Mg12 Mg2 3.116164 1_555
Mg12 Mg6 3.159705 1_665
Mg12 Mg6 3.159705 1_555
Mg12 Mg8 3.159705 1_655
Mg12 Mg8 3.159705 1_555
Mg13 Mg5 3.036053 1_555
Mg13 Mg3 3.036060 1_555
Mg13 Mg4 3.116158 1_556
Mg13 Mg2 3.116164 1_556
Mg13 Mg7 3.159705 1_665
Mg13 Mg7 3.159705 1_555
Mg13 Mg9 3.159705 1_655
Mg13 Mg9 3.159705 1_555
Co0 Mg6 2.932510 1_555
Co0 Mg7 2.932510 1_554
Co0 Mg8 2.932517 1_555
Co0 Mg9 2.932517 1_554
Co0 Mg10 2.932517 1_455
Co0 Mg11 2.932517 1_454
Co0 Mg4 3.153928 1_445
Co0 Mg4 3.153928 1_555
Co0 Mg0 3.153928 1_545
Co0 Mg0 3.153928 1_555
Co0 Mg2 3.153928 1_555
Co0 Mg2 3.153928 1_455
