# generated using pymatgen
data_BaMn2Si2O7
_symmetry_space_group_name_H-M   'P 1'
_cell_length_a   7.53719236
_cell_length_b   7.53719236
_cell_length_c   14.22875770
_cell_angle_alpha   89.71109809
_cell_angle_beta   89.71109809
_cell_angle_gamma   120.85716681
_symmetry_Int_Tables_number   1
_chemical_formula_structural   BaMn2Si2O7
_chemical_formula_sum   'Ba4 Mn8 Si8 O28'
_cell_volume   693.86950152
_cell_formula_units_Z   4
loop_
 _symmetry_equiv_pos_site_id
 _symmetry_equiv_pos_as_xyz
  1  'x, y, z'
loop_
 _atom_site_type_symbol
 _atom_site_label
 _atom_site_symmetry_multiplicity
 _atom_site_fract_x
 _atom_site_fract_y
 _atom_site_fract_z
 _atom_site_occupancy
  Ba  Ba0  1  0.28113900  0.31102800  0.12217900  1
  Ba  Ba1  1  0.68897200  0.71886100  0.37782100  1
  Ba  Ba2  1  0.71886100  0.68897200  0.87782100  1
  Ba  Ba3  1  0.31102800  0.28113900  0.62217900  1
  Mn  Mn0  1  0.73294800  0.26705200  0.25000000  1
  Mn  Mn1  1  0.26705200  0.73294800  0.75000000  1
  Mn  Mn2  1  0.26979900  0.73020100  0.25000000  1
  Mn  Mn3  1  0.73020100  0.26979900  0.75000000  1
  Mn  Mn4  1  0.23277600  0.69967700  0.50883500  1
  Mn  Mn5  1  0.30032300  0.76722400  0.99116500  1
  Mn  Mn6  1  0.76722400  0.30032300  0.49116500  1
  Mn  Mn7  1  0.69967700  0.23277600  0.00883500  1
  Si  Si0  1  0.90669500  0.66017200  0.13474600  1
  Si  Si1  1  0.33982800  0.09330500  0.36525400  1
  Si  Si2  1  0.09330500  0.33982800  0.86525400  1
  Si  Si3  1  0.66017200  0.90669500  0.63474600  1
  Si  Si4  1  0.07509700  0.27721200  0.38086700  1
  Si  Si5  1  0.72278800  0.92490300  0.11913300  1
  Si  Si6  1  0.92490300  0.72278800  0.61913300  1
  Si  Si7  1  0.27721200  0.07509700  0.88086700  1
  O  O0  1  0.13540700  0.69060300  0.11549900  1
  O  O1  1  0.30939700  0.86459300  0.38450100  1
  O  O2  1  0.86459300  0.30939700  0.88450100  1
  O  O3  1  0.69060300  0.13540700  0.61549900  1
  O  O4  1  0.21558000  0.44053000  0.29898400  1
  O  O5  1  0.55947000  0.78442000  0.20101600  1
  O  O6  1  0.78442000  0.55947000  0.70101600  1
  O  O7  1  0.44053000  0.21558000  0.79898400  1
  O  O8  1  0.88466900  0.61899300  0.51451300  1
  O  O9  1  0.38100700  0.11533100  0.98548700  1
  O  O10  1  0.11533100  0.38100700  0.48548700  1
  O  O11  1  0.61899300  0.88466900  0.01451300  1
  O  O12  1  0.83298500  0.17735600  0.13321200  1
  O  O13  1  0.82264400  0.16701500  0.36678800  1
  O  O14  1  0.16701500  0.82264400  0.86678800  1
  O  O15  1  0.17735600  0.83298500  0.63321200  1
  O  O16  1  0.92645000  0.89105800  0.12064000  1
  O  O17  1  0.10894200  0.07355000  0.37936000  1
  O  O18  1  0.07355000  0.10894200  0.87936000  1
  O  O19  1  0.89105800  0.92645000  0.62064000  1
  O  O20  1  0.85394200  0.58562400  0.24565900  1
  O  O21  1  0.41437600  0.14605800  0.25434100  1
  O  O22  1  0.14605800  0.41437600  0.75434100  1
  O  O23  1  0.58562400  0.85394200  0.74565900  1
  O  O24  1  0.72803900  0.50639700  0.06149800  1
  O  O25  1  0.49360300  0.27196100  0.43850200  1
  O  O26  1  0.27196100  0.49360300  0.93850200  1
  O  O27  1  0.50639700  0.72803900  0.56149800  1
loop_
_geom_bond_atom_site_label_1
_geom_bond_atom_site_label_2
_geom_bond_distance
_geom_bond_site_symmetry_2
Ba0 O21 2.714257 1_555
Ba0 O9 2.770953 1_554
Ba0 O4 2.834203 1_555
Ba0 O16 2.913380 1_445
Ba0 O26 2.965132 1_554
Ba0 O12 2.991901 1_455
Ba0 O24 3.021524 1_555
Ba0 O5 3.282683 1_555
Ba1 O20 2.714257 1_555
Ba1 O8 2.770953 1_555
Ba1 O5 2.834203 1_555
Ba1 O17 2.913380 1_665
Ba1 O27 2.965132 1_555
Ba1 O13 2.991901 1_565
Ba1 O25 3.021524 1_555
Ba1 O4 3.282683 1_555
Ba2 O23 2.714257 1_555
Ba2 O11 2.770953 1_556
Ba2 O6 2.834203 1_555
Ba2 O18 2.913380 1_665
Ba2 O24 2.965132 1_556
Ba2 O14 2.991901 1_655
Ba2 O26 3.021524 1_555
Ba2 O7 3.282683 1_555
Ba3 O22 2.714257 1_555
Ba3 O10 2.770953 1_555
Ba3 O7 2.834203 1_555
Ba3 O19 2.913380 1_445
Ba3 O25 2.965132 1_555
Ba3 O15 2.991901 1_545
Ba3 O27 3.021524 1_555
Ba3 O6 3.282683 1_555
Mn0 O13 2.075708 1_555
Mn0 O12 2.075708 1_555
Mn0 O20 2.086302 1_555
Mn0 O21 2.086302 1_555
Mn1 O14 2.075708 1_555
Mn1 O15 2.075708 1_555
Mn1 O23 2.086302 1_555
Mn1 O22 2.086302 1_555
Mn2 O4 2.118052 1_555
Mn2 O5 2.118052 1_555
Mn2 O1 2.119640 1_555
Mn2 O0 2.119640 1_555
Mn2 O20 2.741286 1_455
Mn2 O21 2.741286 1_565
Mn3 O7 2.118052 1_555
Mn3 O6 2.118052 1_555
Mn3 O2 2.119640 1_555
Mn3 O3 2.119640 1_555
Mn3 O23 2.741286 1_545
Mn3 O22 2.741286 1_655
Mn4 O1 2.059007 1_555
Mn4 O27 2.103657 1_555
Mn4 O10 2.119663 1_555
Mn4 O15 2.181054 1_555
Mn4 O8 2.370871 1_455
Mn5 O0 2.059007 1_556
Mn5 O26 2.103657 1_555
Mn5 O11 2.119663 1_556
Mn5 O14 2.181054 1_555
Mn5 O9 2.370871 1_565
Mn6 O3 2.059007 1_555
Mn6 O25 2.103657 1_555
Mn6 O8 2.119663 1_555
Mn6 O13 2.181054 1_555
Mn6 O10 2.370871 1_655
Mn7 O2 2.059007 1_554
Mn7 O24 2.103657 1_555
Mn7 O9 2.119663 1_554
Mn7 O12 2.181054 1_555
Mn7 O11 2.370871 1_545
O0 Si0 1.639594 1_455
O1 Si1 1.639594 1_565
O2 Si2 1.639594 1_655
O3 Si3 1.639594 1_545
O4 Si4 1.621707 1_555
O5 Si5 1.621707 1_555
O6 Si6 1.621707 1_555
O7 Si7 1.621707 1_555
O8 Si6 1.641004 1_555
O9 Si7 1.641004 1_555
O10 Si4 1.641004 1_555
O11 Si5 1.641004 1_555
O12 Si5 1.653761 1_545
O13 Si4 1.653761 1_655
O14 Si7 1.653761 1_565
O15 Si6 1.653761 1_455
O16 Si0 1.679654 1_555
O16 Si5 1.680429 1_555
O17 Si1 1.679654 1_555
O17 Si4 1.680429 1_555
O18 Si2 1.679654 1_555
O18 Si7 1.680429 1_555
O19 Si3 1.679654 1_555
O19 Si6 1.680429 1_555
O20 Si0 1.649222 1_555
O21 Si1 1.649222 1_555
O22 Si2 1.649222 1_555
O23 Si3 1.649222 1_555
O24 Si0 1.633459 1_555
O25 Si1 1.633459 1_555
O26 Si2 1.633459 1_555
O27 Si3 1.633459 1_555
