# generated using pymatgen
data_Zr2Al3Co
_symmetry_space_group_name_H-M   'P 1'
_cell_length_a   5.17668584
_cell_length_b   5.17668584
_cell_length_c   5.17668686
_cell_angle_alpha   60.94536370
_cell_angle_beta   60.94536370
_cell_angle_gamma   60.94535179
_symmetry_Int_Tables_number   1
_chemical_formula_structural   Zr2Al3Co
_chemical_formula_sum   'Zr2 Al3 Co1'
_cell_volume   100.18315076
_cell_formula_units_Z   1
loop_
 _symmetry_equiv_pos_site_id
 _symmetry_equiv_pos_as_xyz
  1  'x, y, z'
loop_
 _atom_site_type_symbol
 _atom_site_label
 _atom_site_symmetry_multiplicity
 _atom_site_fract_x
 _atom_site_fract_y
 _atom_site_fract_z
 _atom_site_occupancy
  Zr  Zr0  1  0.62689747  0.62689747  0.62689747  1
  Zr  Zr1  1  0.37310253  0.37310253  0.37310253  1
  Al  Al0  1  -0.00000000  0.50000000  0.00000000  1
  Al  Al1  1  0.50000000  -0.00000000  0.00000000  1
  Al  Al2  1  -0.00000000  -0.00000000  0.50000000  1
  Co  Co0  1  -0.00000000  -0.00000000  0.00000000  1
loop_
_geom_bond_atom_site_label_1
_geom_bond_atom_site_label_2
_geom_bond_distance
_geom_bond_site_symmetry_2
Zr0 Zr1 3.192456 1_655
Zr0 Zr1 3.192456 1_565
Zr0 Zr1 3.192457 1_556
Zr0 Zr1 3.194996 1_555
Al0 Co0 2.588343 1_565
Al0 Co0 2.588343 1_555
Al0 Al1 2.625239 1_555
Al0 Al1 2.625239 1_465
Al0 Al2 2.625240 1_564
Al0 Al2 2.625240 1_555
Al0 Zr1 3.008496 1_555
Al0 Zr0 3.008496 1_454
Al0 Zr0 3.073090 1_554
Al0 Zr1 3.073090 1_455
Al0 Zr0 3.073091 1_455
Al0 Zr1 3.073091 1_554
Al1 Co0 2.588343 1_655
Al1 Co0 2.588343 1_555
Al1 Al2 2.625240 1_654
Al1 Al2 2.625240 1_555
Al1 Zr1 3.008496 1_555
Al1 Zr0 3.008496 1_544
Al1 Zr0 3.073090 1_554
Al1 Zr1 3.073090 1_545
Al1 Zr0 3.073091 1_545
Al1 Zr1 3.073091 1_554
Al2 Co0 2.588343 1_555
Al2 Co0 2.588343 1_556
Al2 Zr1 3.008496 1_555
Al2 Zr0 3.008496 1_445
Al2 Zr0 3.073090 1_455
Al2 Zr0 3.073090 1_545
Al2 Zr1 3.073090 1_545
Al2 Zr1 3.073090 1_455
Co0 Zr1 3.072430 1_455
Co0 Zr1 3.072430 1_545
Co0 Zr0 3.072430 1_454
Co0 Zr0 3.072430 1_544
Co0 Zr0 3.072431 1_445
Co0 Zr1 3.072431 1_554
