# generated using pymatgen
data_YbBiO3
_symmetry_space_group_name_H-M   'P 1'
_cell_length_a   6.12568547
_cell_length_b   6.12568547
_cell_length_c   6.12568573
_cell_angle_alpha   56.93501262
_cell_angle_beta   56.93501262
_cell_angle_gamma   56.93501276
_symmetry_Int_Tables_number   1
_chemical_formula_structural   YbBiO3
_chemical_formula_sum   'Yb2 Bi2 O6'
_cell_volume   151.04547935
_cell_formula_units_Z   2
loop_
 _symmetry_equiv_pos_site_id
 _symmetry_equiv_pos_as_xyz
  1  'x, y, z'
loop_
 _atom_site_type_symbol
 _atom_site_label
 _atom_site_symmetry_multiplicity
 _atom_site_fract_x
 _atom_site_fract_y
 _atom_site_fract_z
 _atom_site_occupancy
  Yb  Yb0  1  0.77356400  0.77356400  0.77356400  1
  Yb  Yb1  1  0.27356400  0.27356400  0.27356400  1
  Bi  Bi0  1  0.98799400  0.98799400  0.98799400  1
  Bi  Bi1  1  0.48799400  0.48799400  0.48799400  1
  O  O0  1  0.19159000  0.60666800  0.86177200  1
  O  O1  1  0.10666800  0.69159000  0.36177200  1
  O  O2  1  0.36177200  0.10666800  0.69159000  1
  O  O3  1  0.86177200  0.19159000  0.60666800  1
  O  O4  1  0.60666800  0.86177200  0.19159000  1
  O  O5  1  0.69159000  0.36177200  0.10666800  1
loop_
_geom_bond_atom_site_label_1
_geom_bond_atom_site_label_2
_geom_bond_distance
_geom_bond_site_symmetry_2
Bi0 O2 2.215241 1_665
Bi0 O5 2.215241 1_566
Bi0 O1 2.215241 1_656
Bi0 O4 2.312853 1_556
Bi0 O0 2.312853 1_655
Bi0 O3 2.312853 1_565
Bi1 O4 2.215241 1_555
Bi1 O3 2.215241 1_555
Bi1 O0 2.215241 1_555
Bi1 O2 2.312853 1_555
Bi1 O1 2.312853 1_555
Bi1 O5 2.312853 1_555
O0 Yb1 2.329473 1_556
O0 Yb0 2.438176 1_455
O1 Yb0 2.329473 1_455
O1 Yb1 2.438176 1_555
O2 Yb0 2.329473 1_545
O2 Yb1 2.438176 1_555
O3 Yb1 2.329473 1_655
O3 Yb0 2.438176 1_545
O4 Yb1 2.329473 1_565
O4 Yb0 2.438176 1_554
O5 Yb0 2.329473 1_554
O5 Yb1 2.438176 1_555
