# generated using pymatgen
data_Ho4BClO7
_symmetry_space_group_name_H-M   'P 1'
_cell_length_a   8.03680700
_cell_length_b   8.59647400
_cell_length_c   12.24668418
_cell_angle_alpha   59.98757996
_cell_angle_beta   90.00000000
_cell_angle_gamma   90.00000000
_symmetry_Int_Tables_number   1
_chemical_formula_structural   Ho4BClO7
_chemical_formula_sum   'Ho16 B4 Cl4 O28'
_cell_volume   732.65358043
_cell_formula_units_Z   4
loop_
 _symmetry_equiv_pos_site_id
 _symmetry_equiv_pos_as_xyz
  1  'x, y, z'
loop_
 _atom_site_type_symbol
 _atom_site_label
 _atom_site_symmetry_multiplicity
 _atom_site_fract_x
 _atom_site_fract_y
 _atom_site_fract_z
 _atom_site_occupancy
  Ho  Ho0  1  0.62550500  0.79777700  0.22104600  1
  Ho  Ho1  1  0.87449500  0.79777700  0.72104600  1
  Ho  Ho2  1  0.37449500  0.20222300  0.77895400  1
  Ho  Ho3  1  0.12550500  0.20222300  0.27895400  1
  Ho  Ho4  1  0.61746500  0.42426500  0.90930600  1
  Ho  Ho5  1  0.88253500  0.42426500  0.40930600  1
  Ho  Ho6  1  0.38253500  0.57573500  0.09069400  1
  Ho  Ho7  1  0.11746500  0.57573500  0.59069400  1
  Ho  Ho8  1  0.63825100  0.56972900  0.58110600  1
  Ho  Ho9  1  0.86174900  0.56972900  0.08110600  1
  Ho  Ho10  1  0.36174900  0.43027100  0.41889400  1
  Ho  Ho11  1  0.13825100  0.43027100  0.91889400  1
  Ho  Ho12  1  0.61466400  0.18279800  0.27882800  1
  Ho  Ho13  1  0.88533600  0.18279800  0.77882800  1
  Ho  Ho14  1  0.38533600  0.81720200  0.72117200  1
  Ho  Ho15  1  0.11466400  0.81720200  0.22117200  1
  B  B0  1  0.86976500  0.86944300  0.41391900  1
  B  B1  1  0.63023500  0.86944300  0.91391900  1
  B  B2  1  0.13023500  0.13055700  0.58608100  1
  B  B3  1  0.36976500  0.13055700  0.08608100  1
  Cl  Cl0  1  0.85196000  0.11868200  0.03218400  1
  Cl  Cl1  1  0.64804000  0.11868200  0.53218400  1
  Cl  Cl2  1  0.14804000  0.88131800  0.96781600  1
  Cl  Cl3  1  0.35196000  0.88131800  0.46781600  1
  O  O0  1  0.62246800  0.54122100  0.40311600  1
  O  O1  1  0.87753200  0.54122100  0.90311600  1
  O  O2  1  0.37753200  0.45877900  0.59688400  1
  O  O3  1  0.12246800  0.45877900  0.09688400  1
  O  O4  1  0.63674600  0.30934100  0.77459700  1
  O  O5  1  0.86325400  0.30934100  0.27459700  1
  O  O6  1  0.36325400  0.69065900  0.22540300  1
  O  O7  1  0.13674600  0.69065900  0.72540300  1
  O  O8  1  0.61690900  0.67906000  0.71770200  1
  O  O9  1  0.88309100  0.67906000  0.21770200  1
  O  O10  1  0.38309100  0.32094000  0.28229800  1
  O  O11  1  0.11690900  0.32094000  0.78229800  1
  O  O12  1  0.62189300  0.42779100  0.09261000  1
  O  O13  1  0.87810700  0.42779100  0.59261000  1
  O  O14  1  0.37810700  0.57220900  0.90739000  1
  O  O15  1  0.12189300  0.57220900  0.40739000  1
  O  O16  1  0.88859100  0.77434000  0.54344000  1
  O  O17  1  0.61140900  0.77434000  0.04344000  1
  O  O18  1  0.11140900  0.22566000  0.45656000  1
  O  O19  1  0.38859100  0.22566000  0.95656000  1
  O  O20  1  0.00582200  0.93519800  0.33532600  1
  O  O21  1  0.49417800  0.93519800  0.83532600  1
  O  O22  1  0.99417800  0.06480200  0.66467400  1
  O  O23  1  0.50582200  0.06480200  0.16467400  1
  O  O24  1  0.71164000  0.88744200  0.36450600  1
  O  O25  1  0.78836000  0.88744200  0.86450600  1
  O  O26  1  0.28836000  0.11255800  0.63549400  1
  O  O27  1  0.21164000  0.11255800  0.13549400  1
loop_
_geom_bond_atom_site_label_1
_geom_bond_atom_site_label_2
_geom_bond_distance
_geom_bond_site_symmetry_2
Ho0 O0 2.217433 1_555
Ho0 O23 2.255145 1_565
Ho0 O17 2.285347 1_555
Ho0 O6 2.289949 1_555
Ho0 O9 2.317456 1_555
Ho0 O24 2.348365 1_555
Ho1 O1 2.217433 1_555
Ho1 O22 2.255145 1_565
Ho1 O16 2.285347 1_555
Ho1 O7 2.289949 1_655
Ho1 O8 2.317456 1_555
Ho1 O25 2.348365 1_555
Ho2 O2 2.217433 1_555
Ho2 O21 2.255145 1_545
Ho2 O19 2.285347 1_555
Ho2 O4 2.289949 1_555
Ho2 O11 2.317456 1_555
Ho2 O26 2.348365 1_555
Ho3 O3 2.217433 1_555
Ho3 O20 2.255145 1_545
Ho3 O18 2.285347 1_555
Ho3 O5 2.289949 1_455
Ho3 O10 2.317456 1_555
Ho3 O27 2.348365 1_555
Ho4 O12 2.260460 1_556
Ho4 O8 2.272034 1_555
Ho4 O14 2.299714 1_555
Ho4 O1 2.304105 1_555
Ho4 O4 2.313468 1_555
Ho4 O19 2.375887 1_555
Ho5 O13 2.260460 1_555
Ho5 O9 2.272034 1_555
Ho5 O15 2.299714 1_655
Ho5 O0 2.304105 1_555
Ho5 O5 2.313468 1_555
Ho5 O18 2.375887 1_655
Ho6 O14 2.260460 1_554
Ho6 O10 2.272034 1_555
Ho6 O12 2.299714 1_555
Ho6 O3 2.304105 1_555
Ho6 O6 2.313468 1_555
Ho6 O17 2.375887 1_555
Ho7 O15 2.260460 1_555
Ho7 O11 2.272034 1_555
Ho7 O13 2.299714 1_455
Ho7 O2 2.304105 1_555
Ho7 O7 2.313468 1_555
Ho7 O16 2.375887 1_455
Ho8 O13 2.247804 1_555
Ho8 O2 2.270055 1_555
Ho8 O8 2.298698 1_555
Ho8 O4 2.306421 1_555
Ho8 O0 2.315603 1_555
Ho8 O16 2.557897 1_555
Ho8 O24 2.756126 1_555
Ho9 O12 2.247804 1_555
Ho9 O3 2.270055 1_655
Ho9 O9 2.298698 1_555
Ho9 O5 2.306421 1_555
Ho9 O1 2.315603 1_554
Ho9 O17 2.557897 1_555
Ho9 O25 2.756126 1_554
Ho10 O15 2.247804 1_555
Ho10 O0 2.270055 1_555
Ho10 O10 2.298698 1_555
Ho10 O6 2.306421 1_555
Ho10 O2 2.315603 1_555
Ho10 O18 2.557897 1_555
Ho10 O26 2.756126 1_555
Ho11 O14 2.247804 1_555
Ho11 O1 2.270055 1_455
Ho11 O11 2.298698 1_555
Ho11 O7 2.306421 1_555
Ho11 O3 2.315603 1_556
Ho11 O19 2.557897 1_555
Ho11 O27 2.756126 1_556
Ho12 O12 2.198871 1_555
Ho12 O10 2.219515 1_555
Ho12 O5 2.262994 1_555
Ho12 O23 2.273127 1_555
Ho12 O24 2.343054 1_545
Ho13 O13 2.198871 1_555
Ho13 O11 2.219515 1_655
Ho13 O4 2.262994 1_555
Ho13 O22 2.273127 1_555
Ho13 O25 2.343054 1_545
Ho14 O14 2.198871 1_555
Ho14 O8 2.219515 1_555
Ho14 O7 2.262994 1_555
Ho14 O21 2.273127 1_555
Ho14 O26 2.343054 1_565
Ho15 O15 2.198871 1_555
Ho15 O9 2.219515 1_455
Ho15 O6 2.262994 1_555
Ho15 O20 2.273127 1_555
Ho15 O27 2.343054 1_565
B0 O20 1.377435 1_655
B0 O16 1.382039 1_555
B0 O24 1.382555 1_555
B1 O21 1.377435 1_555
B1 O17 1.382039 1_556
B1 O25 1.382555 1_555
B2 O22 1.377435 1_455
B2 O18 1.382039 1_555
B2 O26 1.382555 1_555
B3 O23 1.377435 1_555
B3 O19 1.382039 1_554
B3 O27 1.382555 1_555
Cl0 Ho13 2.879605 1_554
Cl0 Ho4 2.960139 1_554
Cl0 Ho0 3.144703 1_545
Cl0 Ho15 3.245077 1_645
Cl0 Ho11 3.267406 1_654
Cl1 Ho12 2.879605 1_555
Cl1 Ho5 2.960139 1_555
Cl1 Ho1 3.144703 1_545
Cl1 Ho14 3.245077 1_545
Cl1 Ho10 3.267406 1_555
Cl2 Ho15 2.879605 1_556
Cl2 Ho6 2.960139 1_556
Cl2 Ho2 3.144703 1_565
Cl2 Ho13 3.245077 1_465
Cl2 Ho9 3.267406 1_456
Cl3 Ho14 2.879605 1_555
Cl3 Ho7 2.960139 1_555
Cl3 Ho3 3.144703 1_565
Cl3 Ho12 3.245077 1_565
Cl3 Ho8 3.267406 1_555
