# generated using pymatgen
data_RbMo3Cl7
_symmetry_space_group_name_H-M   'P 1'
_cell_length_a   12.37486515
_cell_length_b   12.37489449
_cell_length_c   9.57026388
_cell_angle_alpha   68.89468177
_cell_angle_beta   68.89461057
_cell_angle_gamma   74.01328815
_symmetry_Int_Tables_number   1
_chemical_formula_structural   RbMo3Cl7
_chemical_formula_sum   'Rb4 Mo12 Cl28'
_cell_volume   1257.52771940
_cell_formula_units_Z   4
loop_
 _symmetry_equiv_pos_site_id
 _symmetry_equiv_pos_as_xyz
  1  'x, y, z'
loop_
 _atom_site_type_symbol
 _atom_site_label
 _atom_site_symmetry_multiplicity
 _atom_site_fract_x
 _atom_site_fract_y
 _atom_site_fract_z
 _atom_site_occupancy
  Rb  Rb0  1  0.93132895  0.06867219  0.74999989  1
  Rb  Rb1  1  0.06867246  0.93132712  0.25000170  1
  Rb  Rb2  1  0.50000072  0.49999940  0.49999846  1
  Rb  Rb3  1  0.50000062  0.49999963  0.00000124  1
  Mo  Mo0  1  0.56829855  0.01381061  0.63421815  1
  Mo  Mo1  1  0.43170087  0.98618995  0.36578198  1
  Mo  Mo2  1  0.98618908  0.43170168  0.86578158  1
  Mo  Mo3  1  0.01381070  0.56829847  0.13421779  1
  Mo  Mo4  1  0.36163421  0.98183721  0.65913516  1
  Mo  Mo5  1  0.63836617  0.01816325  0.34086512  1
  Mo  Mo6  1  0.01816267  0.63836584  0.84086518  1
  Mo  Mo7  1  0.98183697  0.36163414  0.15913429  1
  Mo  Mo8  1  0.54906490  0.84079033  0.55634111  1
  Mo  Mo9  1  0.45093437  0.15921022  0.44365939  1
  Mo  Mo10  1  0.15920995  0.45093554  0.94365809  1
  Mo  Mo11  1  0.84078975  0.54906516  0.05634114  1
  Cl  Cl0  1  0.38640062  0.14802124  0.72539195  1
  Cl  Cl1  1  0.61359904  0.85197896  0.27460919  1
  Cl  Cl2  1  0.85197628  0.61359952  0.77460966  1
  Cl  Cl3  1  0.14802282  0.38640073  0.22538853  1
  Cl  Cl4  1  0.61536153  0.62607003  0.63414272  1
  Cl  Cl5  1  0.38463795  0.37393056  0.36585698  1
  Cl  Cl6  1  0.37393067  0.38463862  0.86585581  1
  Cl  Cl7  1  0.62606900  0.61536334  0.13414285  1
  Cl  Cl8  1  0.47885767  0.84264445  0.83506679  1
  Cl  Cl9  1  0.52114179  0.15735491  0.16493440  1
  Cl  Cl10  1  0.15735678  0.52114087  0.66493488  1
  Cl  Cl11  1  0.84264336  0.47885894  0.33506476  1
  Cl  Cl12  1  0.35081027  0.81549355  0.57694136  1
  Cl  Cl13  1  0.64918904  0.18450717  0.42305862  1
  Cl  Cl14  1  0.18450756  0.64918859  0.92305853  1
  Cl  Cl15  1  0.81549166  0.35081107  0.07694157  1
  Cl  Cl16  1  0.74437903  0.87786323  0.52928751  1
  Cl  Cl17  1  0.25561942  0.12213542  0.47071738  1
  Cl  Cl18  1  0.12213815  0.25562290  0.97070878  1
  Cl  Cl19  1  0.87786239  0.74437819  0.02929039  1
  Cl  Cl20  1  0.65910653  0.03232125  0.80889414  1
  Cl  Cl21  1  0.34089466  0.96767871  0.19110542  1
  Cl  Cl22  1  0.96767848  0.34089440  0.69110452  1
  Cl  Cl23  1  0.03232161  0.65910511  0.30889467  1
  Cl  Cl24  1  0.82433726  0.04062965  0.13127183  1
  Cl  Cl25  1  0.17566523  0.95936893  0.86872778  1
  Cl  Cl26  1  0.95937149  0.17566364  0.36872618  1
  Cl  Cl27  1  0.04062877  0.82433726  0.63127255  1
loop_
_geom_bond_atom_site_label_1
_geom_bond_atom_site_label_2
_geom_bond_distance
_geom_bond_site_symmetry_2
Cl0 Mo4 2.480219 1_545
Cl0 Mo0 2.481227 1_555
Cl0 Mo9 2.483563 1_555
Cl1 Mo5 2.480221 1_565
Cl1 Mo1 2.481229 1_555
Cl1 Mo8 2.483558 1_555
Cl2 Mo6 2.480235 1_655
Cl2 Mo2 2.481239 1_555
Cl2 Mo11 2.483561 1_556
Cl3 Mo7 2.480223 1_455
Cl3 Mo3 2.481230 1_555
Cl3 Mo10 2.483549 1_554
Cl4 Mo8 2.470264 1_555
Cl4 Rb2 3.179481 1_555
Cl4 Rb3 3.228713 1_556
Cl5 Mo9 2.470264 1_555
Cl5 Rb2 3.179462 1_555
Cl5 Rb3 3.228694 1_555
Cl6 Mo10 2.470262 1_555
Cl6 Rb3 3.179484 1_556
Cl6 Rb2 3.228703 1_555
Cl7 Mo11 2.470265 1_555
Cl7 Rb3 3.179467 1_555
Cl7 Rb2 3.228693 1_555
Cl8 Mo4 2.490017 1_555
Cl8 Mo0 2.496696 1_565
Cl8 Mo8 2.496974 1_555
Cl9 Mo5 2.490015 1_555
Cl9 Mo1 2.496683 1_545
Cl9 Mo9 2.496972 1_555
Cl10 Mo6 2.490024 1_555
Cl10 Mo2 2.496692 1_455
Cl10 Mo10 2.496950 1_555
Cl11 Mo7 2.490022 1_555
Cl11 Mo3 2.496691 1_655
Cl11 Mo11 2.496955 1_555
Cl12 Mo1 2.486276 1_555
Cl12 Mo8 2.487203 1_555
Cl12 Mo4 2.503586 1_555
Cl13 Mo0 2.486277 1_555
Cl13 Mo9 2.487202 1_555
Cl13 Mo5 2.503583 1_555
Cl14 Mo3 2.486274 1_556
Cl14 Mo10 2.487195 1_555
Cl14 Mo6 2.503589 1_555
Cl15 Mo2 2.486283 1_554
Cl15 Mo11 2.487207 1_555
Cl15 Mo7 2.503591 1_555
Cl16 Mo5 2.486268 1_565
Cl16 Mo8 2.488755 1_555
Cl16 Mo0 2.491633 1_565
Cl17 Mo4 2.486246 1_545
Cl17 Mo9 2.488762 1_555
Cl17 Mo1 2.491641 1_545
Cl18 Mo7 2.486278 1_456
Cl18 Mo10 2.488746 1_555
Cl18 Mo2 2.491625 1_455
Cl19 Mo6 2.486281 1_654
Cl19 Mo11 2.488755 1_555
Cl19 Mo3 2.491626 1_655
Cl20 Mo0 2.424924 1_555
Cl20 Rb0 3.339611 1_555
Cl21 Mo1 2.424916 1_555
Cl21 Rb1 3.339607 1_555
Cl22 Mo2 2.424927 1_555
Cl22 Rb0 3.339608 1_555
Cl23 Mo3 2.424921 1_555
Cl23 Rb1 3.339617 1_555
Cl24 Mo5 2.454267 1_555
Cl24 Rb0 3.324100 1_554
Cl24 Rb1 3.373065 1_645
Cl25 Mo4 2.454248 1_555
Cl25 Rb1 3.324119 1_556
Cl25 Rb0 3.373068 1_465
Cl26 Mo7 2.454261 1_555
Cl26 Rb0 3.324117 1_555
Cl26 Rb1 3.373057 1_645
Cl27 Mo6 2.454272 1_555
Cl27 Rb1 3.324088 1_555
Cl27 Rb0 3.373053 1_465
