# generated using pymatgen
data_CaFe2P2HO9
_symmetry_space_group_name_H-M   'P 1'
_cell_length_a   6.48598900
_cell_length_b   9.68371200
_cell_length_c   10.93044200
_cell_angle_alpha   90.00000000
_cell_angle_beta   90.00000000
_cell_angle_gamma   90.00000000
_symmetry_Int_Tables_number   1
_chemical_formula_structural   CaFe2P2HO9
_chemical_formula_sum   'Ca4 Fe8 P8 H4 O36'
_cell_volume   686.52411449
_cell_formula_units_Z   4
loop_
 _symmetry_equiv_pos_site_id
 _symmetry_equiv_pos_as_xyz
  1  'x, y, z'
loop_
 _atom_site_type_symbol
 _atom_site_label
 _atom_site_symmetry_multiplicity
 _atom_site_fract_x
 _atom_site_fract_y
 _atom_site_fract_z
 _atom_site_occupancy
  Ca  Ca0  1  0.00000000  0.93133000  0.26766700  1
  Ca  Ca1  1  0.00000000  0.06867000  0.73233300  1
  Ca  Ca2  1  0.00000000  0.43133000  0.23233300  1
  Ca  Ca3  1  0.00000000  0.56867000  0.76766700  1
  Fe  Fe0  1  0.26251700  0.50000000  0.50000000  1
  Fe  Fe1  1  0.73748300  0.00000000  0.00000000  1
  Fe  Fe2  1  0.73748300  0.50000000  0.50000000  1
  Fe  Fe3  1  0.26251700  0.00000000  0.00000000  1
  Fe  Fe4  1  0.50000000  0.84042900  0.44238700  1
  Fe  Fe5  1  0.50000000  0.15957100  0.55761300  1
  Fe  Fe6  1  0.50000000  0.34042900  0.05761300  1
  Fe  Fe7  1  0.50000000  0.65957100  0.94238700  1
  P  P0  1  0.50000000  0.58879000  0.25474400  1
  P  P1  1  0.50000000  0.41121000  0.74525600  1
  P  P2  1  0.50000000  0.08879000  0.24525600  1
  P  P3  1  0.50000000  0.91121000  0.75474400  1
  P  P4  1  0.00000000  0.70663600  0.02161700  1
  P  P5  1  0.00000000  0.29336400  0.97838300  1
  P  P6  1  0.00000000  0.20663600  0.47838300  1
  P  P7  1  0.00000000  0.79336400  0.52161700  1
  H  H0  1  0.50000000  0.82308900  0.11536000  1
  H  H1  1  0.50000000  0.17691100  0.88464000  1
  H  H2  1  0.50000000  0.32308900  0.38464000  1
  H  H3  1  0.50000000  0.67691100  0.61536000  1
  O  O0  1  0.30425600  0.52437900  0.31282900  1
  O  O1  1  0.30425600  0.47562100  0.68717100  1
  O  O2  1  0.69574400  0.02437900  0.18717100  1
  O  O3  1  0.69574400  0.97562100  0.81282900  1
  O  O4  1  0.69574400  0.47562100  0.68717100  1
  O  O5  1  0.69574400  0.52437900  0.31282900  1
  O  O6  1  0.30425600  0.97562100  0.81282900  1
  O  O7  1  0.30425600  0.02437900  0.18717100  1
  O  O8  1  0.50000000  0.74819100  0.27124400  1
  O  O9  1  0.50000000  0.25180900  0.72875600  1
  O  O10  1  0.50000000  0.24819100  0.22875600  1
  O  O11  1  0.50000000  0.75180900  0.77124400  1
  O  O12  1  0.50000000  0.55004800  0.11454400  1
  O  O13  1  0.50000000  0.44995200  0.88545600  1
  O  O14  1  0.50000000  0.05004800  0.38545600  1
  O  O15  1  0.50000000  0.94995200  0.61454400  1
  O  O16  1  0.00000000  0.86869600  0.03302800  1
  O  O17  1  0.00000000  0.13130400  0.96697200  1
  O  O18  1  0.00000000  0.36869600  0.46697200  1
  O  O19  1  0.00000000  0.63130400  0.53302800  1
  O  O20  1  0.18681800  0.84163500  0.44076300  1
  O  O21  1  0.18681800  0.15836500  0.55923700  1
  O  O22  1  0.81318200  0.34163500  0.05923700  1
  O  O23  1  0.81318200  0.65836500  0.94076300  1
  O  O24  1  0.81318200  0.15836500  0.55923700  1
  O  O25  1  0.81318200  0.84163500  0.44076300  1
  O  O26  1  0.18681800  0.65836500  0.94076300  1
  O  O27  1  0.18681800  0.34163500  0.05923700  1
  O  O28  1  0.00000000  0.65159600  0.15114000  1
  O  O29  1  0.00000000  0.34840400  0.84886000  1
  O  O30  1  0.00000000  0.15159600  0.34886000  1
  O  O31  1  0.00000000  0.84840400  0.65114000  1
  O  O32  1  0.50000000  0.83866600  0.02589100  1
  O  O33  1  0.50000000  0.16133400  0.97410900  1
  O  O34  1  0.50000000  0.33866600  0.47410900  1
  O  O35  1  0.50000000  0.66133400  0.52589100  1
loop_
_geom_bond_atom_site_label_1
_geom_bond_atom_site_label_2
_geom_bond_distance
_geom_bond_site_symmetry_2
Ca0 O30 2.310253 1_565
Ca0 O2 2.341019 1_465
Ca0 O7 2.341019 1_565
Ca0 O25 2.408811 1_455
Ca0 O20 2.408811 1_555
Ca0 O16 2.635452 1_555
Ca0 O28 2.993365 1_555
Ca1 O31 2.310253 1_545
Ca1 O3 2.341019 1_445
Ca1 O6 2.341019 1_545
Ca1 O24 2.408811 1_455
Ca1 O21 2.408811 1_555
Ca1 O17 2.635452 1_555
Ca1 O29 2.993365 1_555
Ca2 O28 2.310253 1_555
Ca2 O5 2.341019 1_455
Ca2 O0 2.341019 1_555
Ca2 O27 2.408811 1_555
Ca2 O22 2.408811 1_455
Ca2 O18 2.635452 1_555
Ca2 O30 2.993365 1_555
Ca3 O29 2.310253 1_555
Ca3 O4 2.341019 1_455
Ca3 O1 2.341019 1_555
Ca3 O23 2.408811 1_455
Ca3 O26 2.408811 1_555
Ca3 O19 2.635452 1_555
Ca3 O31 2.993365 1_555
Fe0 O1 2.077155 1_555
Fe0 O0 2.077155 1_555
Fe0 O19 2.155503 1_555
Fe0 O18 2.155503 1_555
Fe0 O35 2.212119 1_555
Fe0 O34 2.212119 1_555
Fe1 O3 2.077155 1_544
Fe1 O2 2.077155 1_555
Fe1 O17 2.155503 1_654
Fe1 O16 2.155503 1_645
Fe1 O32 2.212119 1_545
Fe1 O33 2.212119 1_554
Fe2 O5 2.077155 1_555
Fe2 O4 2.077155 1_555
Fe2 O19 2.155503 1_655
Fe2 O18 2.155503 1_655
Fe2 O35 2.212119 1_555
Fe2 O34 2.212119 1_555
Fe3 O6 2.077155 1_544
Fe3 O7 2.077155 1_555
Fe3 O16 2.155503 1_545
Fe3 O17 2.155503 1_554
Fe3 O32 2.212119 1_545
Fe3 O33 2.212119 1_554
Fe4 O35 1.959821 1_555
Fe4 O20 2.031406 1_555
Fe4 O25 2.031406 1_555
Fe4 O8 2.072973 1_555
Fe4 O14 2.123131 1_565
Fe4 O15 2.160056 1_555
Fe5 O34 1.959821 1_555
Fe5 O21 2.031406 1_555
Fe5 O24 2.031406 1_555
Fe5 O9 2.072973 1_555
Fe5 O15 2.123131 1_545
Fe5 O14 2.160056 1_555
Fe6 O33 1.959821 1_554
Fe6 O22 2.031406 1_555
Fe6 O27 2.031406 1_555
Fe6 O10 2.072973 1_555
Fe6 O12 2.123131 1_555
Fe6 O13 2.160056 1_554
Fe7 O32 1.959821 1_556
Fe7 O26 2.031406 1_555
Fe7 O23 2.031406 1_555
Fe7 O11 2.072973 1_555
Fe7 O13 2.123131 1_555
Fe7 O12 2.160056 1_556
H0 O32 0.989501 1_555
H1 O33 0.989501 1_555
H2 O34 0.989501 1_555
H3 O35 0.989501 1_555
O0 P0 1.550486 1_555
O1 P1 1.550486 1_555
O2 P2 1.550486 1_555
O3 P3 1.550486 1_555
O4 P1 1.550486 1_555
O5 P0 1.550486 1_555
O6 P3 1.550486 1_555
O7 P2 1.550486 1_555
O8 P0 1.554094 1_555
O9 P1 1.554094 1_555
O10 P2 1.554094 1_555
O11 P3 1.554094 1_555
O12 P0 1.577703 1_555
O13 P1 1.577703 1_555
O14 P2 1.577703 1_555
O15 P3 1.577703 1_555
O16 P4 1.574291 1_555
O17 P5 1.574291 1_555
O18 P6 1.574291 1_555
O19 P7 1.574291 1_555
O20 P7 1.570913 1_555
O21 P6 1.570913 1_555
O22 P5 1.570913 1_654
O23 P4 1.570913 1_656
O24 P6 1.570913 1_655
O25 P7 1.570913 1_655
O26 P4 1.570913 1_556
O27 P5 1.570913 1_554
O28 P4 1.512749 1_555
O29 P5 1.512749 1_555
O30 P6 1.512749 1_555
O31 P7 1.512749 1_555
