# generated using pymatgen
data_Zn3H12C9O13
_symmetry_space_group_name_H-M   'P 1'
_cell_length_a   11.67695100
_cell_length_b   10.20505400
_cell_length_c   18.99681053
_cell_angle_alpha   90.00000000
_cell_angle_beta   126.39602002
_cell_angle_gamma   90.00000000
_symmetry_Int_Tables_number   1
_chemical_formula_structural   Zn3H12C9O13
_chemical_formula_sum   'Zn12 H48 C36 O52'
_cell_volume   1822.15902652
_cell_formula_units_Z   4
loop_
 _symmetry_equiv_pos_site_id
 _symmetry_equiv_pos_as_xyz
  1  'x, y, z'
loop_
 _atom_site_type_symbol
 _atom_site_label
 _atom_site_symmetry_multiplicity
 _atom_site_fract_x
 _atom_site_fract_y
 _atom_site_fract_z
 _atom_site_occupancy
  Zn  Zn0  1  0.37454800  0.92733500  0.13117900  1
  Zn  Zn1  1  0.62545200  0.42733500  0.36882100  1
  Zn  Zn2  1  0.62545200  0.07266500  0.86882100  1
  Zn  Zn3  1  0.37454800  0.57266500  0.63117900  1
  Zn  Zn4  1  0.56341600  0.11891300  0.30550000  1
  Zn  Zn5  1  0.43658400  0.61891300  0.19450000  1
  Zn  Zn6  1  0.43658400  0.88108700  0.69450000  1
  Zn  Zn7  1  0.56341600  0.38108700  0.80550000  1
  Zn  Zn8  1  0.50000000  0.00000000  0.00000000  1
  Zn  Zn9  1  0.50000000  0.50000000  0.50000000  1
  Zn  Zn10  1  0.00000000  0.00000000  0.00000000  1
  Zn  Zn11  1  0.00000000  0.50000000  0.50000000  1
  H  H0  1  0.51385400  0.76112900  0.36910900  1
  H  H1  1  0.48614600  0.26112900  0.13089100  1
  H  H2  1  0.48614600  0.23887100  0.63089100  1
  H  H3  1  0.51385400  0.73887100  0.86910900  1
  H  H4  1  0.78398900  0.04999300  0.26247900  1
  H  H5  1  0.21601100  0.54999300  0.23752100  1
  H  H6  1  0.21601100  0.95000700  0.73752100  1
  H  H7  1  0.78398900  0.45000700  0.76247900  1
  H  H8  1  0.48752000  0.61605600  0.04813500  1
  H  H9  1  0.51248000  0.11605600  0.45186500  1
  H  H10  1  0.51248000  0.38394400  0.95186500  1
  H  H11  1  0.48752000  0.88394400  0.54813500  1
  H  H12  1  0.24606300  0.20849600  0.22445800  1
  H  H13  1  0.75393700  0.70849600  0.27554200  1
  H  H14  1  0.75393700  0.79150400  0.77554200  1
  H  H15  1  0.24606300  0.29150400  0.72445800  1
  H  H16  1  0.23652200  0.16403100  0.92841500  1
  H  H17  1  0.76347800  0.66403100  0.57158500  1
  H  H18  1  0.76347800  0.83596900  0.07158500  1
  H  H19  1  0.23652200  0.33596900  0.42841500  1
  H  H20  1  0.02028200  0.70826300  0.02080600  1
  H  H21  1  0.97971800  0.20826300  0.47919400  1
  H  H22  1  0.97971800  0.29173700  0.97919400  1
  H  H23  1  0.02028200  0.79173700  0.52080600  1
  H  H24  1  0.96281500  0.55851900  0.12191000  1
  H  H25  1  0.03718500  0.05851900  0.37809000  1
  H  H26  1  0.03718500  0.44148100  0.87809000  1
  H  H27  1  0.96281500  0.94148100  0.62191000  1
  H  H28  1  0.92838200  0.38708200  0.10118500  1
  H  H29  1  0.07161800  0.88708200  0.39881500  1
  H  H30  1  0.07161800  0.61291800  0.89881500  1
  H  H31  1  0.92838200  0.11291800  0.60118500  1
  H  H32  1  0.79147200  0.50520600  0.03432000  1
  H  H33  1  0.20852800  0.00520600  0.46568000  1
  H  H34  1  0.20852800  0.49479400  0.96568000  1
  H  H35  1  0.79147200  0.99479400  0.53432000  1
  H  H36  1  0.83841100  0.38138100  0.26033000  1
  H  H37  1  0.16158900  0.88138100  0.23967000  1
  H  H38  1  0.16158900  0.61861900  0.73967000  1
  H  H39  1  0.83841100  0.11861900  0.76033000  1
  H  H40  1  0.80667500  0.28049000  0.17217200  1
  H  H41  1  0.19332500  0.78049000  0.32782800  1
  H  H42  1  0.19332500  0.71951000  0.82782800  1
  H  H43  1  0.80667500  0.21951000  0.67217200  1
  H  H44  1  0.98003800  0.33613500  0.25311500  1
  H  H45  1  0.01996200  0.83613500  0.24688500  1
  H  H46  1  0.01996200  0.66386500  0.74688500  1
  H  H47  1  0.98003800  0.16386500  0.75311500  1
  C  C0  1  0.83851500  0.48387700  0.16146100  1
  C  C1  1  0.16148500  0.98387700  0.33853900  1
  C  C2  1  0.16148500  0.51612300  0.83853900  1
  C  C3  1  0.83851500  0.01612300  0.66146100  1
  C  C4  1  0.88320200  0.48111800  0.10124600  1
  C  C5  1  0.11679800  0.98111800  0.39875400  1
  C  C6  1  0.11679800  0.51888200  0.89875400  1
  C  C7  1  0.88320200  0.01888200  0.60124600  1
  C  C8  1  0.86717900  0.36385300  0.21578600  1
  C  C9  1  0.13282100  0.86385300  0.28421400  1
  C  C10  1  0.13282100  0.63614700  0.78421400  1
  C  C11  1  0.86717900  0.13614700  0.71578600  1
  C  C12  1  0.50419400  0.83973700  0.32585000  1
  C  C13  1  0.49580600  0.33973700  0.17415000  1
  C  C14  1  0.49580600  0.16026300  0.67415000  1
  C  C15  1  0.50419400  0.66026300  0.82585000  1
  C  C16  1  0.67813400  0.02425000  0.20260700  1
  C  C17  1  0.32186600  0.52425000  0.29739300  1
  C  C18  1  0.32186600  0.97575000  0.79739300  1
  C  C19  1  0.67813400  0.47575000  0.70260700  1
  C  C20  1  0.47440800  0.72150000  0.05444000  1
  C  C21  1  0.52559200  0.22150000  0.44556000  1
  C  C22  1  0.52559200  0.27850000  0.94556000  1
  C  C23  1  0.47440800  0.77850000  0.55444000  1
  C  C24  1  0.22895800  0.13501300  0.17657000  1
  C  C25  1  0.77104200  0.63501300  0.32343000  1
  C  C26  1  0.77104200  0.86498700  0.82343000  1
  C  C27  1  0.22895800  0.36498700  0.67657000  1
  C  C28  1  0.22674400  0.09839300  0.97076500  1
  C  C29  1  0.77325600  0.59839300  0.52923500  1
  C  C30  1  0.77325600  0.90160700  0.02923500  1
  C  C31  1  0.22674400  0.40160700  0.47076500  1
  C  C32  1  0.13544000  0.72911300  0.06439900  1
  C  C33  1  0.86456000  0.22911300  0.43560100  1
  C  C34  1  0.86456000  0.27088700  0.93560100  1
  C  C35  1  0.13544000  0.77088700  0.56439900  1
  O  O0  1  0.78065700  0.58171700  0.16506400  1
  O  O1  1  0.21934300  0.08171700  0.33493600  1
  O  O2  1  0.21934300  0.41828300  0.83493600  1
  O  O3  1  0.78065700  0.91828300  0.66506400  1
  O  O4  1  0.44431800  0.80870100  0.24567300  1
  O  O5  1  0.55568200  0.30870100  0.25432700  1
  O  O6  1  0.55568200  0.19129900  0.75432700  1
  O  O7  1  0.44431800  0.69129900  0.74567300  1
  O  O8  1  0.55211400  0.95054100  0.36020800  1
  O  O9  1  0.44788600  0.45054100  0.13979200  1
  O  O10  1  0.44788600  0.04945900  0.63979200  1
  O  O11  1  0.55211400  0.54945900  0.86020800  1
  O  O12  1  0.57811100  0.01683600  0.21188200  1
  O  O13  1  0.42188900  0.51683600  0.28811800  1
  O  O14  1  0.42188900  0.98316400  0.78811800  1
  O  O15  1  0.57811100  0.48316400  0.71188200  1
  O  O16  1  0.66782700  0.00531700  0.13384400  1
  O  O17  1  0.33217300  0.50531700  0.36615600  1
  O  O18  1  0.33217300  0.99468300  0.86615600  1
  O  O19  1  0.66782700  0.49468300  0.63384400  1
  O  O20  1  0.45413500  0.75193500  0.11208400  1
  O  O21  1  0.54586500  0.25193500  0.38791600  1
  O  O22  1  0.54586500  0.24806500  0.88791600  1
  O  O23  1  0.45413500  0.74806500  0.61208400  1
  O  O24  1  0.48015100  0.79873700  0.00519900  1
  O  O25  1  0.51984900  0.29873700  0.49480100  1
  O  O26  1  0.51984900  0.20126300  0.99480100  1
  O  O27  1  0.48015100  0.70126300  0.50519900  1
  O  O28  1  0.34224500  0.08322000  0.19206000  1
  O  O29  1  0.65775500  0.58322000  0.30794000  1
  O  O30  1  0.65775500  0.91678000  0.80794000  1
  O  O31  1  0.34224500  0.41678000  0.69206000  1
  O  O32  1  0.10261000  0.11071700  0.11342100  1
  O  O33  1  0.89739000  0.61071700  0.38657900  1
  O  O34  1  0.89739000  0.88928300  0.88657900  1
  O  O35  1  0.10261000  0.38928300  0.61342100  1
  O  O36  1  0.33701200  0.02713000  0.02410100  1
  O  O37  1  0.66298800  0.52713000  0.47589900  1
  O  O38  1  0.66298800  0.97287000  0.97589900  1
  O  O39  1  0.33701200  0.47287000  0.52410100  1
  O  O40  1  0.11259600  0.10157000  0.96315000  1
  O  O41  1  0.88740400  0.60157000  0.53685000  1
  O  O42  1  0.88740400  0.89843000  0.03685000  1
  O  O43  1  0.11259600  0.39843000  0.46315000  1
  O  O44  1  0.16979200  0.84969000  0.06679300  1
  O  O45  1  0.83020800  0.34969000  0.43320700  1
  O  O46  1  0.83020800  0.15031000  0.93320700  1
  O  O47  1  0.16979200  0.65031000  0.56679300  1
  O  O48  1  0.21713200  0.63417600  0.10564800  1
  O  O49  1  0.78286800  0.13417600  0.39435200  1
  O  O50  1  0.78286800  0.36582400  0.89435200  1
  O  O51  1  0.21713200  0.86582400  0.60564800  1
loop_
_geom_bond_atom_site_label_1
_geom_bond_atom_site_label_2
_geom_bond_distance
_geom_bond_site_symmetry_2
C0 O0 1.230013 1_555
C1 O1 1.230013 1_565
C2 O2 1.230013 1_555
C3 O3 1.230013 1_545
C4 H28 1.095429 1_555
C4 H32 1.099115 1_555
C4 H24 1.099619 1_555
C5 H29 1.095429 1_555
C5 H33 1.099115 1_565
C5 H25 1.099619 1_565
C6 H30 1.095429 1_555
C6 H34 1.099115 1_555
C6 H26 1.099619 1_555
C7 H31 1.095429 1_555
C7 H35 1.099115 1_545
C7 H27 1.099619 1_545
C8 H36 1.094631 1_555
C8 H44 1.100262 1_555
C8 H40 1.102123 1_555
C9 H37 1.094631 1_555
C9 H45 1.100262 1_555
C9 H41 1.102123 1_555
C10 H38 1.094631 1_555
C10 H46 1.100262 1_555
C10 H42 1.102123 1_555
C11 H39 1.094631 1_555
C11 H47 1.100262 1_555
C11 H43 1.102123 1_555
C12 H0 1.105246 1_555
C12 O8 1.258697 1_555
C12 O4 1.282674 1_555
C13 H1 1.105246 1_555
C13 O9 1.258697 1_555
C13 O5 1.282674 1_555
C14 H2 1.105246 1_555
C14 O10 1.258697 1_555
C14 O6 1.282674 1_555
C15 H3 1.105246 1_555
C15 O11 1.258697 1_555
C15 O7 1.282674 1_555
C16 H4 1.105492 1_555
C16 O16 1.253637 1_555
C16 O12 1.282624 1_555
C17 H5 1.105492 1_555
C17 O17 1.253637 1_555
C17 O13 1.282624 1_555
C18 H6 1.105492 1_555
C18 O18 1.253637 1_555
C18 O14 1.282624 1_555
C19 H7 1.105492 1_555
C19 O19 1.253637 1_555
C19 O15 1.282624 1_555
C20 H8 1.103386 1_555
C20 O24 1.255080 1_555
C20 O20 1.288130 1_555
C21 H9 1.103386 1_555
C21 O25 1.255080 1_555
C21 O21 1.288130 1_555
C22 H10 1.103386 1_555
C22 O26 1.255080 1_555
C22 O22 1.288130 1_555
C23 H11 1.103386 1_555
C23 O27 1.255080 1_555
C23 O23 1.288130 1_555
C24 H12 1.101907 1_555
C24 O32 1.255748 1_555
C24 O28 1.286053 1_555
C25 H13 1.101907 1_555
C25 O33 1.255748 1_555
C25 O29 1.286053 1_555
C26 H14 1.101907 1_555
C26 O34 1.255748 1_555
C26 O30 1.286053 1_555
C27 H15 1.101907 1_555
C27 O35 1.255748 1_555
C27 O31 1.286053 1_555
C28 H16 1.103619 1_555
C28 O40 1.252908 1_555
C28 O36 1.290415 1_556
C29 H17 1.103619 1_555
C29 O41 1.252908 1_555
C29 O37 1.290415 1_555
C30 H18 1.103619 1_555
C30 O42 1.252908 1_555
C30 O38 1.290415 1_554
C31 H19 1.103619 1_555
C31 O43 1.252908 1_555
C31 O39 1.290415 1_555
C32 H20 1.103521 1_555
C32 O48 1.255214 1_555
C32 O44 1.286639 1_555
C33 H21 1.103521 1_555
C33 O49 1.255214 1_555
C33 O45 1.286639 1_555
C34 H22 1.103521 1_555
C34 O50 1.255214 1_555
C34 O46 1.286639 1_555
C35 H23 1.103521 1_555
C35 O51 1.255214 1_555
C35 O47 1.286639 1_555
O4 Zn5 2.144802 1_555
O4 Zn0 2.181123 1_555
O5 Zn4 2.144802 1_555
O5 Zn1 2.181123 1_555
O6 Zn7 2.144802 1_555
O6 Zn2 2.181123 1_555
O7 Zn6 2.144802 1_555
O7 Zn3 2.181123 1_555
O8 Zn4 2.052474 1_565
O9 Zn5 2.052474 1_555
O10 Zn6 2.052474 1_545
O11 Zn7 2.052474 1_555
O12 Zn0 2.123700 1_545
O12 Zn4 2.153972 1_555
O13 Zn1 2.123700 1_555
O13 Zn5 2.153972 1_555
O14 Zn2 2.123700 1_565
O14 Zn6 2.153972 1_555
O15 Zn3 2.123700 1_555
O15 Zn7 2.153972 1_555
O16 Zn8 2.096444 1_555
O17 Zn9 2.096444 1_555
O18 Zn8 2.096444 1_566
O19 Zn9 2.096444 1_555
O20 Zn0 2.144594 1_555
O20 Zn5 2.171822 1_555
O21 Zn1 2.144594 1_555
O21 Zn4 2.171822 1_555
O22 Zn2 2.144594 1_555
O22 Zn7 2.171822 1_555
O23 Zn3 2.144594 1_555
O23 Zn6 2.171822 1_555
O24 Zn8 2.075848 1_565
O25 Zn9 2.075848 1_555
O26 Zn8 2.075848 1_556
O27 Zn9 2.075848 1_555
O28 Zn0 2.127975 1_545
O28 Zn4 2.200410 1_555
O29 Zn1 2.127975 1_555
O29 Zn5 2.200410 1_555
O30 Zn2 2.127975 1_565
O30 Zn6 2.200410 1_555
O31 Zn3 2.127975 1_555
O31 Zn7 2.200410 1_555
O32 Zn10 2.071475 1_555
O33 Zn11 2.071475 1_655
O34 Zn10 2.071475 1_666
O35 Zn11 2.071475 1_555
O36 Zn0 2.075801 1_545
O36 Zn8 2.223179 1_555
O37 Zn1 2.075801 1_555
O37 Zn9 2.223179 1_555
O38 Zn2 2.075801 1_565
O38 Zn8 2.223179 1_566
O39 Zn3 2.075801 1_555
O39 Zn9 2.223179 1_555
O40 Zn10 2.094116 1_556
O41 Zn11 2.094116 1_655
O42 Zn10 2.094116 1_665
O43 Zn11 2.094116 1_555
O44 Zn0 2.090442 1_555
O44 Zn10 2.215485 1_565
O45 Zn1 2.090442 1_555
O45 Zn11 2.215485 1_655
O46 Zn2 2.090442 1_555
O46 Zn10 2.215485 1_656
O47 Zn3 2.090442 1_555
O47 Zn11 2.215485 1_555
O48 Zn5 2.075305 1_555
O49 Zn4 2.075305 1_555
O50 Zn7 2.075305 1_555
O51 Zn6 2.075305 1_555
