# generated using pymatgen
data_Li2VCrO4
_symmetry_space_group_name_H-M   'P 1'
_cell_length_a   4.07094608
_cell_length_b   7.84522924
_cell_length_c   5.29414691
_cell_angle_alpha   93.98925013
_cell_angle_beta   112.61183478
_cell_angle_gamma   105.03734800
_symmetry_Int_Tables_number   1
_chemical_formula_structural   Li2VCrO4
_chemical_formula_sum   'Li4 V2 Cr2 O8'
_cell_volume   147.99610782
_cell_formula_units_Z   2
loop_
 _symmetry_equiv_pos_site_id
 _symmetry_equiv_pos_as_xyz
  1  'x, y, z'
loop_
 _atom_site_type_symbol
 _atom_site_label
 _atom_site_symmetry_multiplicity
 _atom_site_fract_x
 _atom_site_fract_y
 _atom_site_fract_z
 _atom_site_occupancy
  Li  Li0  1  0.62797400  0.87351900  0.38251200  1
  Li  Li1  1  0.12912100  0.36935400  0.88884400  1
  Li  Li2  1  0.24535400  0.75558200  0.73502800  1
  Li  Li3  1  0.75370800  0.24501100  0.26232000  1
  V  V0  1  0.50114400  0.49890200  0.50323100  1
  V  V1  1  0.99935400  0.99976500  0.99910200  1
  Cr  Cr0  1  0.37257400  0.12609200  0.61950400  1
  Cr  Cr1  1  0.87543800  0.62659000  0.12446700  1
  O  O0  1  0.25336100  0.23577500  0.27070500  1
  O  O1  1  0.76593300  0.74496800  0.78658700  1
  O  O2  1  0.48884100  0.01316100  0.96445800  1
  O  O3  1  0.98827800  0.50945100  0.46694400  1
  O  O4  1  0.11824800  0.88109800  0.35557600  1
  O  O5  1  0.61455700  0.38675800  0.84226500  1
  O  O6  1  0.88139400  0.11965500  0.64322500  1
  O  O7  1  0.38472100  0.61432000  0.15523100  1
loop_
_geom_bond_atom_site_label_1
_geom_bond_atom_site_label_2
_geom_bond_distance
_geom_bond_site_symmetry_2
Li0 O4 2.041046 1_655
Li0 O4 2.041428 1_555
Li0 O6 2.049055 1_565
Li0 O7 2.064432 1_555
Li0 O1 2.362000 1_555
Li0 O2 2.472809 1_564
Li1 O6 2.038982 1_455
Li1 O7 2.054706 1_556
Li1 O5 2.055081 1_455
Li1 O5 2.055277 1_555
Li1 O0 2.285727 1_556
Li1 O3 2.491887 1_455
Li2 O1 2.054034 1_455
Li2 O1 2.054887 1_555
Li2 O2 2.057828 1_565
Li2 O3 2.065450 1_455
Li2 O4 2.239031 1_555
Li2 O7 2.489524 1_556
Li3 O0 2.037037 1_555
Li3 O0 2.037674 1_655
Li3 O2 2.057547 1_554
Li3 O3 2.062331 1_555
Li3 O6 2.244783 1_555
Li3 O5 2.491026 1_554
Cr0 O2 2.030306 1_555
Cr0 O0 2.033353 1_555
Cr0 O6 2.039160 1_455
Cr0 O6 2.040603 1_555
Cr0 O4 2.049348 1_545
Cr0 O5 2.066145 1_555
Cr1 O1 2.023301 1_554
Cr1 O3 2.037985 1_555
Cr1 O4 2.041261 1_655
Cr1 O7 2.044289 1_555
Cr1 O7 2.044577 1_655
Cr1 O5 2.062049 1_554
O0 V1 2.014399 1_444
O0 V0 2.098878 1_555
O1 V1 2.010940 1_555
O1 V0 2.100662 1_555
O2 V1 2.046166 1_545
O2 V1 2.047070 1_445
O3 V0 2.046048 1_655
O3 V0 2.046077 1_555
O4 V1 2.106765 1_454
O5 V0 2.000526 1_555
O6 V1 2.109544 1_545
O7 V0 2.054792 1_555
