# generated using pymatgen
data_ZnC8(NCl2)2
_symmetry_space_group_name_H-M   'P 1'
_cell_length_a   8.35444000
_cell_length_b   12.74901500
_cell_length_c   16.24514900
_cell_angle_alpha   90.00000000
_cell_angle_beta   90.00000000
_cell_angle_gamma   90.00000000
_symmetry_Int_Tables_number   1
_chemical_formula_structural   ZnC8(NCl2)2
_chemical_formula_sum   'Zn4 C32 N8 Cl16'
_cell_volume   1730.28512996
_cell_formula_units_Z   4
loop_
 _symmetry_equiv_pos_site_id
 _symmetry_equiv_pos_as_xyz
  1  'x, y, z'
loop_
 _atom_site_type_symbol
 _atom_site_label
 _atom_site_symmetry_multiplicity
 _atom_site_fract_x
 _atom_site_fract_y
 _atom_site_fract_z
 _atom_site_occupancy
  Zn  Zn0  1  0.75000000  0.19498900  0.06230900  1
  Zn  Zn1  1  0.75000000  0.69498900  0.43769100  1
  Zn  Zn2  1  0.25000000  0.80501100  0.93769100  1
  Zn  Zn3  1  0.25000000  0.30501100  0.56230900  1
  C  C0  1  0.75000000  0.25738100  0.41341100  1
  C  C1  1  0.75000000  0.75738100  0.08658900  1
  C  C2  1  0.25000000  0.74261900  0.58658900  1
  C  C3  1  0.25000000  0.24261900  0.91341100  1
  C  C4  1  0.75000000  0.45347100  0.37433300  1
  C  C5  1  0.75000000  0.95347100  0.12566700  1
  C  C6  1  0.25000000  0.54652900  0.62566700  1
  C  C7  1  0.25000000  0.04652900  0.87433300  1
  C  C8  1  0.59822700  0.48890000  0.34742100  1
  C  C9  1  0.90177300  0.98890000  0.15257900  1
  C  C10  1  0.09822700  0.51110000  0.65257900  1
  C  C11  1  0.40177300  0.01110000  0.84742100  1
  C  C12  1  0.40177300  0.51110000  0.65257900  1
  C  C13  1  0.09822700  0.01110000  0.84742100  1
  C  C14  1  0.90177300  0.48890000  0.34742100  1
  C  C15  1  0.59822700  0.98890000  0.15257900  1
  C  C16  1  0.75000000  0.98844500  0.56030200  1
  C  C17  1  0.75000000  0.48844500  0.93969800  1
  C  C18  1  0.25000000  0.01155500  0.43969800  1
  C  C19  1  0.25000000  0.51155500  0.06030200  1
  C  C20  1  0.75000000  0.06602400  0.75364700  1
  C  C21  1  0.75000000  0.56602400  0.74635300  1
  C  C22  1  0.25000000  0.93397600  0.24635300  1
  C  C23  1  0.25000000  0.43397600  0.25364700  1
  C  C24  1  0.63503800  0.97303600  0.62190700  1
  C  C25  1  0.86496200  0.47303600  0.87809300  1
  C  C26  1  0.13503800  0.02696400  0.37809300  1
  C  C27  1  0.36496200  0.52696400  0.12190700  1
  C  C28  1  0.36496200  0.02696400  0.37809300  1
  C  C29  1  0.13503800  0.52696400  0.12190700  1
  C  C30  1  0.86496200  0.97303600  0.62190700  1
  C  C31  1  0.63503800  0.47303600  0.87809300  1
  N  N0  1  0.75000000  0.34657100  0.39344800  1
  N  N1  1  0.75000000  0.84657100  0.10655200  1
  N  N2  1  0.25000000  0.65342900  0.60655200  1
  N  N3  1  0.25000000  0.15342900  0.89344800  1
  N  N4  1  0.75000000  0.01277200  0.69085900  1
  N  N5  1  0.75000000  0.51277200  0.80914100  1
  N  N6  1  0.25000000  0.98722800  0.30914100  1
  N  N7  1  0.25000000  0.48722800  0.19085900  1
  Cl  Cl0  1  0.75000000  0.47300400  0.04178200  1
  Cl  Cl1  1  0.75000000  0.97300400  0.45821800  1
  Cl  Cl2  1  0.25000000  0.52699600  0.95821800  1
  Cl  Cl3  1  0.25000000  0.02699600  0.54178200  1
  Cl  Cl4  1  0.75000000  0.21119900  0.93438100  1
  Cl  Cl5  1  0.75000000  0.71119900  0.56561900  1
  Cl  Cl6  1  0.25000000  0.78880100  0.06561900  1
  Cl  Cl7  1  0.25000000  0.28880100  0.43438100  1
  Cl  Cl8  1  0.94417700  0.12525300  0.14820300  1
  Cl  Cl9  1  0.55582300  0.62525300  0.35179700  1
  Cl  Cl10  1  0.44417700  0.87474700  0.85179700  1
  Cl  Cl11  1  0.05582300  0.37474700  0.64820300  1
  Cl  Cl12  1  0.05582300  0.87474700  0.85179700  1
  Cl  Cl13  1  0.44417700  0.37474700  0.64820300  1
  Cl  Cl14  1  0.55582300  0.12525300  0.14820300  1
  Cl  Cl15  1  0.94417700  0.62525300  0.35179700  1
loop_
_geom_bond_atom_site_label_1
_geom_bond_atom_site_label_2
_geom_bond_distance
_geom_bond_site_symmetry_2
C0 N0 1.182427 1_555
C1 N1 1.182427 1_555
C2 N2 1.182427 1_555
C3 N3 1.182427 1_555
C4 N0 1.397798 1_555
C4 C8 1.415247 1_555
C5 N1 1.397798 1_555
C5 C9 1.415247 1_555
C6 N2 1.397798 1_555
C7 N3 1.397798 1_555
C8 Cl9 1.775520 1_555
C9 Cl8 1.775520 1_565
C10 C6 1.415247 1_555
C10 Cl11 1.775520 1_555
C11 C7 1.415247 1_555
C11 Cl10 1.775520 1_545
C12 C6 1.415247 1_555
C12 Cl13 1.775520 1_555
C13 C7 1.415247 1_555
C13 Cl12 1.775520 1_545
C14 C4 1.415247 1_555
C14 Cl15 1.775520 1_555
C15 C5 1.415247 1_555
C15 Cl14 1.775520 1_565
C16 C24 1.400931 1_555
C16 C30 1.400931 1_555
C16 Cl1 1.670013 1_555
C17 C25 1.400931 1_555
C17 C31 1.400931 1_555
C17 Cl0 1.670013 1_556
C18 C26 1.400931 1_555
C18 C28 1.400931 1_555
C18 Cl3 1.670013 1_555
C19 C29 1.400931 1_555
C19 C27 1.400931 1_555
C19 Cl2 1.670013 1_554
C20 N4 1.225284 1_555
C21 N5 1.225284 1_555
C22 N6 1.225284 1_555
C23 N7 1.225284 1_555
C24 N4 1.560062 1_565
C25 N5 1.560062 1_555
C26 N6 1.560062 1_545
C27 N7 1.560062 1_555
C28 N6 1.560062 1_545
C29 N7 1.560062 1_555
C30 N4 1.560062 1_565
C31 N5 1.560062 1_555
Cl4 Zn0 2.088460 1_556
Cl5 Zn1 2.088460 1_555
Cl6 Zn2 2.088460 1_554
Cl7 Zn3 2.088460 1_555
Cl8 Zn0 2.317139 1_555
Cl9 Zn1 2.317139 1_555
Cl10 Zn2 2.317139 1_555
Cl11 Zn3 2.317139 1_555
Cl12 Zn2 2.317139 1_555
Cl13 Zn3 2.317139 1_555
Cl14 Zn0 2.317139 1_555
Cl15 Zn1 2.317139 1_555
