# generated using pymatgen
data_KRbMg6O7
_symmetry_space_group_name_H-M   'P 1'
_cell_length_a   4.14752000
_cell_length_b   4.14752000
_cell_length_c   13.94231300
_cell_angle_alpha   90.00000000
_cell_angle_beta   90.00000000
_cell_angle_gamma   90.00000000
_symmetry_Int_Tables_number   1
_chemical_formula_structural   KRbMg6O7
_chemical_formula_sum   'K1 Rb1 Mg6 O7'
_cell_volume   239.83458282
_cell_formula_units_Z   1
loop_
 _symmetry_equiv_pos_site_id
 _symmetry_equiv_pos_as_xyz
  1  'x, y, z'
loop_
 _atom_site_type_symbol
 _atom_site_label
 _atom_site_symmetry_multiplicity
 _atom_site_fract_x
 _atom_site_fract_y
 _atom_site_fract_z
 _atom_site_occupancy
  K  K0  1  0.00000000  0.00000000  0.99242600  1
  Rb  Rb0  1  0.00000000  0.00000000  0.50963700  1
  Mg  Mg0  1  0.50000000  0.50000000  0.08261200  1
  Mg  Mg1  1  0.50000000  0.50000000  0.39795500  1
  Mg  Mg2  1  0.00000000  0.50000000  0.24106500  1
  Mg  Mg3  1  0.00000000  0.50000000  0.76961400  1
  Mg  Mg4  1  0.50000000  0.00000000  0.24106500  1
  Mg  Mg5  1  0.50000000  0.00000000  0.76961400  1
  O  O0  1  0.00000000  0.00000000  0.24026300  1
  O  O1  1  0.00000000  0.00000000  0.76487200  1
  O  O2  1  0.50000000  0.50000000  0.77503300  1
  O  O3  1  0.00000000  0.50000000  0.09415100  1
  O  O4  1  0.00000000  0.50000000  0.38877200  1
  O  O5  1  0.50000000  0.00000000  0.09415100  1
  O  O6  1  0.50000000  0.00000000  0.38877200  1
loop_
_geom_bond_atom_site_label_1
_geom_bond_atom_site_label_2
_geom_bond_distance
_geom_bond_site_symmetry_2
K0 O3 2.512370 1_556
K0 O5 2.512370 1_456
K0 O5 2.512370 1_556
K0 O3 2.512370 1_546
K0 O1 3.172629 1_555
Mg0 O5 2.079991 1_555
Mg0 O3 2.079991 1_655
Mg0 O5 2.079991 1_565
Mg0 O3 2.079991 1_555
Mg1 O6 2.077709 1_565
Mg1 O6 2.077709 1_555
Mg1 O4 2.077709 1_655
Mg1 O4 2.077709 1_555
Mg2 O3 2.048321 1_555
Mg2 O4 2.059377 1_555
Mg2 O0 2.073790 1_565
Mg2 O0 2.073790 1_555
Mg3 O1 2.074814 1_565
Mg3 O1 2.074814 1_555
Mg3 O2 2.075136 1_455
Mg3 O2 2.075136 1_555
Mg4 O5 2.048321 1_555
Mg4 O6 2.059377 1_555
Mg4 O0 2.073790 1_655
Mg4 O0 2.073790 1_555
Mg5 O1 2.074814 1_655
Mg5 O1 2.074814 1_555
Mg5 O2 2.075136 1_545
Mg5 O2 2.075136 1_555
O4 Rb0 2.672110 1_565
O4 Rb0 2.672110 1_555
O6 Rb0 2.672110 1_655
O6 Rb0 2.672110 1_555
