# generated using pymatgen
data_LiCaH3
_symmetry_space_group_name_H-M   'P 1'
_cell_length_a   5.11974048
_cell_length_b   5.11974048
_cell_length_c   5.11973957
_cell_angle_alpha   61.18455606
_cell_angle_beta   61.18455606
_cell_angle_gamma   61.18455605
_symmetry_Int_Tables_number   1
_chemical_formula_structural   LiCaH3
_chemical_formula_sum   'Li2 Ca2 H6'
_cell_volume   97.42053790
_cell_formula_units_Z   2
loop_
 _symmetry_equiv_pos_site_id
 _symmetry_equiv_pos_as_xyz
  1  'x, y, z'
loop_
 _atom_site_type_symbol
 _atom_site_label
 _atom_site_symmetry_multiplicity
 _atom_site_fract_x
 _atom_site_fract_y
 _atom_site_fract_z
 _atom_site_occupancy
  Li  Li0  1  0.00000000  0.00000000  0.00000000  1
  Li  Li1  1  0.50000000  0.50000000  0.50000000  1
  Ca  Ca0  1  0.25000000  0.25000000  0.25000000  1
  Ca  Ca1  1  0.75000000  0.75000000  0.75000000  1
  H  H0  1  0.69843100  0.80156900  0.25000000  1
  H  H1  1  0.25000000  0.69843100  0.80156900  1
  H  H2  1  0.80156900  0.25000000  0.69843100  1
  H  H3  1  0.75000000  0.30156900  0.19843100  1
  H  H4  1  0.19843100  0.75000000  0.30156900  1
  H  H5  1  0.30156900  0.19843100  0.75000000  1
loop_
_geom_bond_atom_site_label_1
_geom_bond_atom_site_label_2
_geom_bond_distance
_geom_bond_site_symmetry_2
Ca0 H1 2.336833 1_554
Ca0 H2 2.336833 1_455
Ca0 H0 2.336833 1_545
Ca0 H5 2.573937 1_555
Ca0 H5 2.573937 1_554
Ca0 H3 2.573937 1_455
Ca0 H4 2.573937 1_555
Ca0 H3 2.573937 1_555
Ca0 H4 2.573937 1_545
Ca1 H3 2.336833 1_556
Ca1 H4 2.336833 1_655
Ca1 H5 2.336833 1_565
Ca1 H0 2.573937 1_555
Ca1 H0 2.573937 1_556
Ca1 H1 2.573937 1_655
Ca1 H2 2.573937 1_555
Ca1 H2 2.573937 1_565
Ca1 H1 2.573937 1_555
H0 Li1 1.845994 1_555
H0 Li0 1.845994 1_665
H1 Li1 1.845994 1_555
H1 Li0 1.845994 1_566
H2 Li0 1.845994 1_656
H2 Li1 1.845994 1_555
H3 Li1 1.845994 1_555
H3 Li0 1.845994 1_655
H4 Li0 1.845994 1_565
H4 Li1 1.845994 1_555
H5 Li0 1.845994 1_556
H5 Li1 1.845994 1_555
