# generated using pymatgen
data_Pu4ZrC5
_symmetry_space_group_name_H-M   'P 1'
_cell_length_a   3.46423916
_cell_length_b   3.46423916
_cell_length_c   14.46294180
_cell_angle_alpha   90.00000000
_cell_angle_beta   96.87840201
_cell_angle_gamma   120.00000000
_symmetry_Int_Tables_number   1
_chemical_formula_structural   Pu4ZrC5
_chemical_formula_sum   'Pu4 Zr1 C5'
_cell_volume   148.87097517
_cell_formula_units_Z   1
loop_
 _symmetry_equiv_pos_site_id
 _symmetry_equiv_pos_as_xyz
  1  'x, y, z'
loop_
 _atom_site_type_symbol
 _atom_site_label
 _atom_site_symmetry_multiplicity
 _atom_site_fract_x
 _atom_site_fract_y
 _atom_site_fract_z
 _atom_site_occupancy
  Pu  Pu0  1  0.19628200  0.09814100  0.29442300  1
  Pu  Pu1  1  0.99975900  0.49987900  0.49963800  1
  Pu  Pu2  1  0.80024100  0.90012100  0.70036200  1
  Pu  Pu3  1  0.60371800  0.30185900  0.90557700  1
  Zr  Zr0  1  0.40000000  0.70000000  0.10000000  1
  C  C0  1  0.20144500  0.60072200  0.80216700  1
  C  C1  1  0.40000000  0.20000000  0.60000000  1
  C  C2  1  0.59855500  0.79927800  0.39783300  1
  C  C3  1  0.00244200  0.00122100  0.00366400  1
  C  C4  1  0.79755800  0.39877900  0.19633600  1
loop_
_geom_bond_atom_site_label_1
_geom_bond_atom_site_label_2
_geom_bond_distance
_geom_bond_site_symmetry_2
C0 Pu2 2.475239 1_555
C0 Pu2 2.475239 1_445
C0 Pu2 2.475244 1_455
C0 Pu3 2.488853 1_555
C0 Pu3 2.488855 1_455
C0 Pu3 2.488855 1_565
C1 Pu1 2.463119 1_455
C1 Pu2 2.463119 1_545
C1 Pu1 2.463121 1_555
C1 Pu1 2.463121 1_445
C1 Pu2 2.463121 1_445
C1 Pu2 2.463121 1_555
C2 Pu1 2.475239 1_565
C2 Pu1 2.475239 1_455
C2 Pu1 2.475244 1_555
C2 Pu0 2.488853 1_565
C2 Pu0 2.488855 1_555
C2 Pu0 2.488855 1_665
C3 Zr0 2.429912 1_445
C3 Zr0 2.429915 1_545
C3 Zr0 2.429915 1_555
C3 Pu3 2.444244 1_444
C3 Pu3 2.444244 1_454
C3 Pu3 2.444246 1_554
C4 Zr0 2.429912 1_655
C4 Zr0 2.429915 1_545
C4 Zr0 2.429915 1_555
C4 Pu0 2.444244 1_665
C4 Pu0 2.444244 1_655
C4 Pu0 2.444246 1_555
