# generated using pymatgen
data_K2SnO6
_symmetry_space_group_name_H-M   'P 1'
_cell_length_a   5.67731073
_cell_length_b   5.67731113
_cell_length_c   5.67731073
_cell_angle_alpha   77.92479453
_cell_angle_beta   77.92479408
_cell_angle_gamma   77.92479453
_symmetry_Int_Tables_number   1
_chemical_formula_structural   K2SnO6
_chemical_formula_sum   'K2 Sn1 O6'
_cell_volume   172.34360028
_cell_formula_units_Z   1
loop_
 _symmetry_equiv_pos_site_id
 _symmetry_equiv_pos_as_xyz
  1  'x, y, z'
loop_
 _atom_site_type_symbol
 _atom_site_label
 _atom_site_symmetry_multiplicity
 _atom_site_fract_x
 _atom_site_fract_y
 _atom_site_fract_z
 _atom_site_occupancy
  K  K0  1  0.68580600  0.68580600  0.68580600  1
  K  K1  1  0.31419400  0.31419400  0.31419400  1
  Sn  Sn0  1  0.00000000  0.00000000  0.00000000  1
  O  O0  1  0.90877600  0.67521300  0.19792200  1
  O  O1  1  0.67521300  0.19792200  0.90877600  1
  O  O2  1  0.19792200  0.90877600  0.67521300  1
  O  O3  1  0.09122400  0.32478700  0.80207800  1
  O  O4  1  0.32478700  0.80207800  0.09122400  1
  O  O5  1  0.80207800  0.09122400  0.32478700  1
loop_
_geom_bond_atom_site_label_1
_geom_bond_atom_site_label_2
_geom_bond_distance
_geom_bond_site_symmetry_2
K0 O0 2.801617 1_555
K0 O2 2.801617 1_555
K0 O1 2.801618 1_555
K0 O4 2.833771 1_556
K0 O3 2.833771 1_655
K0 O5 2.833771 1_565
K1 O3 2.801617 1_555
K1 O5 2.801617 1_555
K1 O4 2.801618 1_555
K1 O1 2.833771 1_554
K1 O0 2.833771 1_455
K1 O2 2.833771 1_545
O0 Sn0 2.054280 1_665
O1 Sn0 2.054280 1_656
O2 Sn0 2.054280 1_566
O3 Sn0 2.054280 1_556
O4 Sn0 2.054280 1_565
O5 Sn0 2.054280 1_655
