# generated using pymatgen
data_YbBO3
_symmetry_space_group_name_H-M   'P 1'
_cell_length_a   6.64858344
_cell_length_b   6.64858344
_cell_length_c   9.08342100
_cell_angle_alpha   90.00000000
_cell_angle_beta   90.00000000
_cell_angle_gamma   119.99999446
_symmetry_Int_Tables_number   1
_chemical_formula_structural   YbBO3
_chemical_formula_sum   'Yb6 B6 O18'
_cell_volume   347.72694646
_cell_formula_units_Z   6
loop_
 _symmetry_equiv_pos_site_id
 _symmetry_equiv_pos_as_xyz
  1  'x, y, z'
loop_
 _atom_site_type_symbol
 _atom_site_label
 _atom_site_symmetry_multiplicity
 _atom_site_fract_x
 _atom_site_fract_y
 _atom_site_fract_z
 _atom_site_occupancy
  Yb  Yb0  1  0.66666700  0.33333300  0.50000000  1
  Yb  Yb1  1  0.66666700  0.33333300  0.00000000  1
  Yb  Yb2  1  0.33333300  0.66666700  0.50000000  1
  Yb  Yb3  1  0.33333300  0.66666700  0.00000000  1
  Yb  Yb4  1  0.00000000  0.00000000  0.50000000  1
  Yb  Yb5  1  0.00000000  0.00000000  0.00000000  1
  B  B0  1  0.00000000  0.60753800  0.75000000  1
  B  B1  1  0.39246200  0.39246200  0.75000000  1
  B  B2  1  0.60753800  0.00000000  0.75000000  1
  B  B3  1  0.60753800  0.60753800  0.25000000  1
  B  B4  1  0.39246200  0.00000000  0.25000000  1
  B  B5  1  0.00000000  0.39246200  0.25000000  1
  O  O0  1  0.31748100  0.31748100  0.89067800  1
  O  O1  1  0.00000000  0.68251900  0.89067800  1
  O  O2  1  0.31748100  0.31748100  0.60932200  1
  O  O3  1  0.00000000  0.68251900  0.60932200  1
  O  O4  1  0.00000000  0.31748100  0.39067800  1
  O  O5  1  0.68251900  0.00000000  0.60932200  1
  O  O6  1  0.00000000  0.59854400  0.25000000  1
  O  O7  1  0.59854400  0.00000000  0.25000000  1
  O  O8  1  0.40145600  0.40145600  0.25000000  1
  O  O9  1  0.40145600  0.00000000  0.75000000  1
  O  O10  1  0.59854400  0.59854400  0.75000000  1
  O  O11  1  0.00000000  0.40145600  0.75000000  1
  O  O12  1  0.00000000  0.31748100  0.10932200  1
  O  O13  1  0.31748100  0.00000000  0.39067800  1
  O  O14  1  0.68251900  0.68251900  0.39067800  1
  O  O15  1  0.68251900  0.68251900  0.10932200  1
  O  O16  1  0.31748100  0.00000000  0.10932200  1
  O  O17  1  0.68251900  0.00000000  0.89067800  1
loop_
_geom_bond_atom_site_label_1
_geom_bond_atom_site_label_2
_geom_bond_distance
_geom_bond_site_symmetry_2
B0 O11 1.370153 1_555
B0 O1 1.371637 1_555
B0 O3 1.371637 1_555
B1 O10 1.370153 1_555
B1 O2 1.371637 1_555
B1 O0 1.371637 1_555
B2 O9 1.370153 1_555
B2 O5 1.371637 1_555
B2 O17 1.371637 1_555
B3 O8 1.370153 1_555
B3 O15 1.371637 1_555
B3 O14 1.371637 1_555
B4 O7 1.370153 1_555
B4 O16 1.371637 1_555
B4 O13 1.371637 1_555
B5 O6 1.370153 1_555
B5 O12 1.371637 1_555
B5 O4 1.371637 1_555
O0 Yb5 2.332715 1_556
O0 Yb3 2.478367 1_556
O0 Yb1 2.478367 1_556
O1 Yb5 2.332714 1_566
O1 Yb3 2.478361 1_556
O1 Yb1 2.478364 1_456
O2 Yb4 2.332715 1_555
O2 Yb2 2.478367 1_555
O2 Yb0 2.478367 1_555
O3 Yb4 2.332714 1_565
O3 Yb2 2.478361 1_555
O3 Yb0 2.478364 1_455
O4 Yb4 2.332714 1_555
O4 Yb0 2.478361 1_455
O4 Yb2 2.478364 1_555
O5 Yb4 2.332714 1_655
O5 Yb0 2.478361 1_555
O5 Yb2 2.478364 1_545
O12 Yb5 2.332714 1_555
O12 Yb1 2.478361 1_455
O12 Yb3 2.478364 1_555
O13 Yb4 2.332714 1_555
O13 Yb2 2.478361 1_545
O13 Yb0 2.478364 1_555
O14 Yb4 2.332715 1_665
O14 Yb0 2.478367 1_555
O14 Yb2 2.478367 1_555
O15 Yb5 2.332715 1_665
O15 Yb1 2.478367 1_555
O15 Yb3 2.478367 1_555
O16 Yb5 2.332714 1_555
O16 Yb3 2.478361 1_545
O16 Yb1 2.478364 1_555
O17 Yb5 2.332714 1_656
O17 Yb1 2.478361 1_556
O17 Yb3 2.478364 1_546
