# generated using pymatgen
data_Er(CrFe5)2
_symmetry_space_group_name_H-M   'P 1'
_cell_length_a   4.68090700
_cell_length_b   6.37819103
_cell_length_c   6.37819103
_cell_angle_alpha   97.40587617
_cell_angle_beta   111.52741437
_cell_angle_gamma   68.47258563
_symmetry_Int_Tables_number   1
_chemical_formula_structural   Er(CrFe5)2
_chemical_formula_sum   'Er1 Cr2 Fe10'
_cell_volume   164.78111783
_cell_formula_units_Z   1
loop_
 _symmetry_equiv_pos_site_id
 _symmetry_equiv_pos_as_xyz
  1  'x, y, z'
loop_
 _atom_site_type_symbol
 _atom_site_label
 _atom_site_symmetry_multiplicity
 _atom_site_fract_x
 _atom_site_fract_y
 _atom_site_fract_z
 _atom_site_occupancy
  Er  Er0  1  0.00000000  0.00000000  0.00000000  1
  Cr  Cr0  1  0.00000000  0.36688800  0.36688800  1
  Cr  Cr1  1  0.00000000  0.63311200  0.63311200  1
  Fe  Fe0  1  0.72517000  0.77483000  0.22517000  1
  Fe  Fe1  1  0.27483000  0.22517000  0.77483000  1
  Fe  Fe2  1  0.50000000  0.77328100  0.77328100  1
  Fe  Fe3  1  0.50000000  0.22671900  0.22671900  1
  Fe  Fe4  1  0.50000000  0.00000000  0.50000000  1
  Fe  Fe5  1  0.00000000  0.00000000  0.50000000  1
  Fe  Fe6  1  0.50000000  0.50000000  0.00000000  1
  Fe  Fe7  1  0.00000000  0.50000000  0.00000000  1
  Fe  Fe8  1  0.64090400  0.35909600  0.64090400  1
  Fe  Fe9  1  0.35909600  0.64090400  0.35909600  1
loop_
_geom_bond_atom_site_label_1
_geom_bond_atom_site_label_2
_geom_bond_distance
_geom_bond_site_symmetry_2
Er0 Fe8 3.003107 1_454
Er0 Fe9 3.003107 1_545
Er0 Fe1 3.003955 1_454
Er0 Fe0 3.003955 1_545
Er0 Fe1 3.003955 1_554
Er0 Fe0 3.003955 1_445
Er0 Fe3 3.020069 1_555
Er0 Fe3 3.020069 1_455
Er0 Fe2 3.020069 1_544
Er0 Fe2 3.020069 1_444
Er0 Fe6 3.189095 1_545
Er0 Fe4 3.189095 1_555
Er0 Fe4 3.189095 1_454
Er0 Fe6 3.189095 1_455
Er0 Fe5 3.189096 1_555
Er0 Fe7 3.189096 1_545
Er0 Fe7 3.189096 1_555
Er0 Fe5 3.189096 1_554
Cr0 Cr1 2.241271 1_555
Cr0 Fe0 2.557037 1_455
Cr0 Fe1 2.557037 1_555
Cr0 Fe4 2.590170 1_555
Cr0 Fe6 2.590170 1_455
Cr0 Fe7 2.590171 1_555
Cr0 Fe5 2.590171 1_555
Cr0 Fe3 2.621113 1_555
Cr0 Fe3 2.621113 1_455
Cr0 Fe8 2.849932 1_555
Cr0 Fe9 2.849932 1_455
Cr0 Fe9 2.849932 1_555
Cr0 Fe8 2.849932 1_455
Cr0 Er0 3.088735 1_555
Cr1 Fe0 2.557037 1_455
Cr1 Fe1 2.557037 1_555
Cr1 Fe4 2.590170 1_465
Cr1 Fe6 2.590170 1_556
Cr1 Fe5 2.590171 1_565
Cr1 Fe7 2.590171 1_556
Cr1 Fe2 2.621113 1_555
Cr1 Fe2 2.621113 1_455
Cr1 Fe8 2.849932 1_555
Cr1 Fe9 2.849932 1_455
Cr1 Fe9 2.849932 1_555
Cr1 Fe8 2.849932 1_455
Cr1 Er0 3.088735 1_566
Fe0 Fe5 2.417075 1_665
Fe0 Fe7 2.417075 1_655
Fe0 Fe4 2.417075 1_565
Fe0 Fe6 2.417075 1_555
Fe0 Fe9 2.594641 1_655
Fe0 Fe9 2.594641 1_555
Fe0 Fe3 2.681253 1_565
Fe0 Fe2 2.681253 1_554
Fe1 Fe7 2.417075 1_556
Fe1 Fe5 2.417075 1_555
Fe1 Fe6 2.417075 1_556
Fe1 Fe4 2.417075 1_555
Fe1 Fe8 2.594641 1_455
Fe1 Fe8 2.594641 1_555
Fe1 Fe3 2.681253 1_556
Fe1 Fe2 2.681253 1_545
Fe2 Fe7 2.403964 1_656
Fe2 Fe5 2.403964 1_565
Fe2 Fe6 2.403964 1_556
Fe2 Fe4 2.403964 1_565
Fe2 Fe8 2.584900 1_555
Fe2 Fe9 2.584900 1_555
Fe3 Fe5 2.403964 1_655
Fe3 Fe7 2.403964 1_555
Fe3 Fe6 2.403964 1_555
Fe3 Fe4 2.403964 1_555
Fe3 Fe8 2.584900 1_555
Fe3 Fe9 2.584900 1_555
Fe4 Fe5 2.340453 1_555
Fe4 Fe5 2.340453 1_655
Fe4 Fe8 2.575178 1_555
Fe4 Fe9 2.575178 1_545
Fe5 Fe8 2.575178 1_455
Fe5 Fe9 2.575178 1_545
Fe6 Fe7 2.340453 1_555
Fe6 Fe7 2.340453 1_655
Fe6 Fe9 2.575178 1_555
Fe6 Fe8 2.575178 1_554
Fe7 Fe9 2.575178 1_555
Fe7 Fe8 2.575178 1_454
Fe8 Fe9 2.356750 1_555
