# generated using pymatgen
data_RbSr2Cl5
_symmetry_space_group_name_H-M   'P 1'
_cell_length_a   7.94099938
_cell_length_b   9.04349423
_cell_length_c   12.74641995
_cell_angle_alpha   89.82647133
_cell_angle_beta   90.00000000
_cell_angle_gamma   90.00000000
_symmetry_Int_Tables_number   1
_chemical_formula_structural   RbSr2Cl5
_chemical_formula_sum   'Rb4 Sr8 Cl20'
_cell_volume   915.37207441
_cell_formula_units_Z   4
loop_
 _symmetry_equiv_pos_site_id
 _symmetry_equiv_pos_as_xyz
  1  'x, y, z'
loop_
 _atom_site_type_symbol
 _atom_site_label
 _atom_site_symmetry_multiplicity
 _atom_site_fract_x
 _atom_site_fract_y
 _atom_site_fract_z
 _atom_site_occupancy
  Rb  Rb0  1  0.44603542  0.48943240  0.83427247  1
  Rb  Rb1  1  0.55396458  0.51056760  0.16572753  1
  Rb  Rb2  1  0.94603542  0.51056760  0.66572753  1
  Rb  Rb3  1  0.05396458  0.48943240  0.33427247  1
  Sr  Sr0  1  0.47681561  0.99880227  0.82251760  1
  Sr  Sr1  1  0.52318439  0.00119773  0.17748240  1
  Sr  Sr2  1  0.97681561  0.00119773  0.67748240  1
  Sr  Sr3  1  0.02318439  0.99880227  0.32251760  1
  Sr  Sr4  1  0.43404210  0.75242608  0.50586636  1
  Sr  Sr5  1  0.56595790  0.24757392  0.49413364  1
  Sr  Sr6  1  0.93404210  0.24757392  0.99413364  1
  Sr  Sr7  1  0.06595790  0.75242608  0.00586636  1
  Cl  Cl0  1  0.32723151  0.46581800  0.58163606  1
  Cl  Cl1  1  0.67276849  0.53418200  0.41836394  1
  Cl  Cl2  1  0.82723151  0.53418200  0.91836394  1
  Cl  Cl3  1  0.17276849  0.46581800  0.08163606  1
  Cl  Cl4  1  0.66708600  0.78869656  0.68383220  1
  Cl  Cl5  1  0.33291400  0.21130344  0.31616780  1
  Cl  Cl6  1  0.16708600  0.21130344  0.81616780  1
  Cl  Cl7  1  0.83291400  0.78869656  0.18383220  1
  Cl  Cl8  1  0.19140080  0.77489223  0.78395606  1
  Cl  Cl9  1  0.80859920  0.22510777  0.21604394  1
  Cl  Cl10  1  0.69140080  0.22510777  0.71604394  1
  Cl  Cl11  1  0.30859920  0.77489223  0.28395606  1
  Cl  Cl12  1  0.04982382  0.78893316  0.50243463  1
  Cl  Cl13  1  0.95017618  0.21106684  0.49756537  1
  Cl  Cl14  1  0.54982382  0.21106684  0.99756537  1
  Cl  Cl15  1  0.45017618  0.78893316  0.00243463  1
  Cl  Cl16  1  0.84004181  0.96204656  0.89940686  1
  Cl  Cl17  1  0.15995819  0.03795344  0.10059314  1
  Cl  Cl18  1  0.34004181  0.03795344  0.60059314  1
  Cl  Cl19  1  0.65995819  0.96204656  0.39940686  1
loop_
_geom_bond_atom_site_label_1
_geom_bond_atom_site_label_2
_geom_bond_distance
_geom_bond_site_symmetry_2
Cl0 Sr4 2.890528 1_555
Cl0 Sr5 2.957457 1_555
Cl0 Rb2 3.237051 1_455
Cl0 Rb0 3.362970 1_555
Cl0 Rb3 3.833000 1_555
Cl1 Sr5 2.890528 1_555
Cl1 Sr4 2.957457 1_555
Cl1 Rb3 3.237051 1_655
Cl1 Rb1 3.362970 1_555
Cl1 Rb2 3.833000 1_555
Cl2 Sr6 2.890528 1_555
Cl2 Sr7 2.957457 1_656
Cl2 Rb0 3.237051 1_555
Cl2 Rb2 3.362970 1_555
Cl2 Rb1 3.833000 1_556
Cl3 Sr7 2.890528 1_555
Cl3 Sr6 2.957457 1_454
Cl3 Rb1 3.237051 1_555
Cl3 Rb3 3.362970 1_555
Cl3 Rb0 3.833000 1_554
Cl4 Sr4 2.946623 1_555
Cl4 Sr0 3.006415 1_555
Cl4 Sr2 3.122209 1_565
Cl4 Rb2 3.360078 1_555
Cl4 Rb0 3.748536 1_555
Cl5 Sr5 2.946623 1_555
Cl5 Sr1 3.006415 1_555
Cl5 Sr3 3.122209 1_545
Cl5 Rb3 3.360078 1_555
Cl5 Rb1 3.748536 1_555
Cl6 Sr6 2.946623 1_455
Cl6 Sr2 3.006415 1_455
Cl6 Sr0 3.122209 1_545
Cl6 Rb0 3.360078 1_555
Cl6 Rb2 3.748536 1_455
Cl7 Sr7 2.946623 1_655
Cl7 Sr3 3.006415 1_655
Cl7 Sr1 3.122209 1_565
Cl7 Rb1 3.360078 1_555
Cl7 Rb3 3.748536 1_655
Cl8 Sr2 2.986182 1_465
Cl8 Sr7 3.005139 1_556
Cl8 Sr0 3.079754 1_555
Cl8 Rb0 3.339825 1_555
Cl8 Rb2 3.435605 1_455
Cl9 Sr3 2.986182 1_645
Cl9 Sr6 3.005139 1_554
Cl9 Sr1 3.079754 1_555
Cl9 Rb1 3.339825 1_555
Cl9 Rb3 3.435605 1_655
Cl10 Sr0 2.986182 1_545
Cl10 Sr5 3.005139 1_555
Cl10 Sr2 3.079754 1_555
Cl10 Rb2 3.339825 1_555
Cl10 Rb0 3.435605 1_555
Cl11 Sr1 2.986182 1_565
Cl11 Sr4 3.005139 1_555
Cl11 Sr3 3.079754 1_555
Cl11 Rb3 3.339825 1_555
Cl11 Rb1 3.435605 1_555
Cl12 Sr3 2.979902 1_555
Cl12 Sr2 3.004227 1_465
Cl12 Sr4 3.069185 1_555
Cl12 Rb2 3.364083 1_455
Cl12 Rb3 3.459313 1_555
Cl13 Sr2 2.979902 1_555
Cl13 Sr3 3.004227 1_645
Cl13 Sr5 3.069185 1_555
Cl13 Rb3 3.364083 1_655
Cl13 Rb2 3.459313 1_555
Cl14 Sr1 2.979902 1_556
Cl14 Sr0 3.004227 1_545
Cl14 Sr6 3.069185 1_555
Cl14 Rb0 3.364083 1_555
Cl14 Rb1 3.459313 1_556
Cl15 Sr0 2.979902 1_554
Cl15 Sr1 3.004227 1_565
Cl15 Sr7 3.069185 1_555
Cl15 Rb1 3.364083 1_555
Cl15 Rb0 3.459313 1_554
Cl16 Sr7 2.939035 1_656
Cl16 Sr6 2.949837 1_565
Cl16 Sr2 3.049711 1_565
Cl16 Sr0 3.064096 1_555
Cl17 Sr6 2.939035 1_454
Cl17 Sr7 2.949837 1_545
Cl17 Sr3 3.049711 1_545
Cl17 Sr1 3.064096 1_555
Cl18 Sr5 2.939035 1_555
Cl18 Sr4 2.949837 1_545
Cl18 Sr0 3.049711 1_545
Cl18 Sr2 3.064096 1_455
Cl19 Sr4 2.939035 1_555
Cl19 Sr5 2.949837 1_565
Cl19 Sr1 3.049711 1_565
Cl19 Sr3 3.064096 1_655
