# generated using pymatgen
data_TaZn2WO6
_symmetry_space_group_name_H-M   'P 1'
_cell_length_a   5.66925721
_cell_length_b   5.66925721
_cell_length_c   5.66925721
_cell_angle_alpha   120.97688695
_cell_angle_beta   119.66742391
_cell_angle_gamma   89.44668767
_symmetry_Int_Tables_number   1
_chemical_formula_structural   TaZn2WO6
_chemical_formula_sum   'Ta1 Zn2 W1 O6'
_cell_volume   128.18873917
_cell_formula_units_Z   1
loop_
 _symmetry_equiv_pos_site_id
 _symmetry_equiv_pos_as_xyz
  1  'x, y, z'
loop_
 _atom_site_type_symbol
 _atom_site_label
 _atom_site_symmetry_multiplicity
 _atom_site_fract_x
 _atom_site_fract_y
 _atom_site_fract_z
 _atom_site_occupancy
  Ta  Ta0  1  0.00000000  0.01425700  0.01425700  1
  Zn  Zn0  1  0.75069400  0.21749700  0.46680200  1
  Zn  Zn1  1  0.24930600  0.71610800  0.46680200  1
  W  W0  1  0.50000000  0.51704500  0.01704500  1
  O  O0  1  0.75335500  0.78833400  0.03497900  1
  O  O1  1  0.24664500  0.28162400  0.03497900  1
  O  O2  1  0.75698300  0.28065300  0.03763600  1
  O  O3  1  0.24301700  0.28065300  0.52367000  1
  O  O4  1  0.75019600  0.77488100  0.52507700  1
  O  O5  1  0.24980400  0.77488100  0.02468500  1
loop_
_geom_bond_atom_site_label_1
_geom_bond_atom_site_label_2
_geom_bond_distance
_geom_bond_site_symmetry_2
O0 Ta0 1.990380 1_665
O0 W0 2.043525 1_555
O0 Zn0 2.411977 1_565
O1 Ta0 1.990380 1_555
O1 W0 2.043525 1_555
O1 Zn1 2.411974 1_555
O2 W0 1.971602 1_555
O2 Ta0 2.032518 1_655
O3 W0 1.971602 1_556
O3 Ta0 2.032518 1_555
O4 Ta0 1.952790 1_666
O4 W0 2.026348 1_555
O5 Ta0 1.952790 1_565
O5 W0 2.026348 1_555
