# generated using pymatgen
data_Na4(Fe2O3)5
_symmetry_space_group_name_H-M   'P 1'
_cell_length_a   5.32300200
_cell_length_b   8.14546092
_cell_length_c   8.55296725
_cell_angle_alpha   109.48729120
_cell_angle_beta   90.08356256
_cell_angle_gamma   108.84823362
_symmetry_Int_Tables_number   1
_chemical_formula_structural   Na4(Fe2O3)5
_chemical_formula_sum   'Na4 Fe10 O15'
_cell_volume   328.36323009
_cell_formula_units_Z   1
loop_
 _symmetry_equiv_pos_site_id
 _symmetry_equiv_pos_as_xyz
  1  'x, y, z'
loop_
 _atom_site_type_symbol
 _atom_site_label
 _atom_site_symmetry_multiplicity
 _atom_site_fract_x
 _atom_site_fract_y
 _atom_site_fract_z
 _atom_site_occupancy
  Na  Na0  1  0.80783800  0.60678000  0.49910700  1
  Na  Na1  1  0.59250100  0.18729200  0.49800900  1
  Na  Na2  1  0.40749900  0.81270800  0.50199100  1
  Na  Na3  1  0.19216200  0.39322000  0.50089300  1
  Fe  Fe0  1  0.20205600  0.73568300  0.83837400  1
  Fe  Fe1  1  0.00514900  0.32667500  0.82586200  1
  Fe  Fe2  1  0.80147400  0.93221100  0.82880000  1
  Fe  Fe3  1  0.60944500  0.53304000  0.83286400  1
  Fe  Fe4  1  0.39146300  0.12954500  0.83249800  1
  Fe  Fe5  1  0.99485100  0.67332500  0.17413800  1
  Fe  Fe6  1  0.79794400  0.26431700  0.16162600  1
  Fe  Fe7  1  0.60853700  0.87045500  0.16750200  1
  Fe  Fe8  1  0.39055500  0.46696000  0.16713600  1
  Fe  Fe9  1  0.19852600  0.06778900  0.17120000  1
  O  O0  1  0.28164100  0.91585300  0.28777600  1
  O  O1  1  0.68294300  0.69754200  0.28681800  1
  O  O2  1  0.47074800  0.31583100  0.29062400  1
  O  O3  1  0.90375500  0.12488500  0.29148000  1
  O  O4  1  0.10731400  0.53315700  0.29610500  1
  O  O5  1  0.31705700  0.30245800  0.71318200  1
  O  O6  1  0.71835900  0.08414700  0.71222400  1
  O  O7  1  0.52925200  0.68416900  0.70937600  1
  O  O8  1  0.89268600  0.46684300  0.70389500  1
  O  O9  1  0.09624500  0.87511500  0.70852000  1
  O  O10  1  0.10525300  0.20213200  0.99720500  1
  O  O11  1  0.50000000  0.00000000  0.00000000  1
  O  O12  1  0.28893200  0.58381700  0.99691800  1
  O  O13  1  0.71106800  0.41618300  0.00308200  1
  O  O14  1  0.89474700  0.79786800  0.00279500  1
loop_
_geom_bond_atom_site_label_1
_geom_bond_atom_site_label_2
_geom_bond_distance
_geom_bond_site_symmetry_2
Na0 O1 2.344135 1_555
Na0 O9 2.356725 1_655
Na0 O7 2.384557 1_555
Na0 O4 2.417955 1_655
Na0 O8 2.496705 1_555
Na0 O2 2.537578 1_555
Na1 O8 2.409305 1_555
Na1 O0 2.415513 1_545
Na1 O6 2.428722 1_555
Na1 O3 2.465221 1_555
Na1 O5 2.482208 1_555
Na1 O2 2.517265 1_555
Na2 O4 2.409305 1_555
Na2 O6 2.415513 1_565
Na2 O0 2.428722 1_555
Na2 O9 2.465221 1_555
Na2 O1 2.482208 1_555
Na2 O7 2.517265 1_555
Na3 O5 2.344135 1_555
Na3 O3 2.356725 1_455
Na3 O2 2.384557 1_555
Na3 O8 2.417955 1_455
Na3 O4 2.496705 1_555
Na3 O7 2.537578 1_555
Fe0 O9 2.023297 1_555
Fe0 O7 2.143756 1_555
Fe0 O8 2.194111 1_455
Fe0 O11 2.205272 1_566
Fe0 O14 2.230895 1_456
Fe0 O12 2.251625 1_555
Fe1 O5 1.952873 1_555
Fe1 O6 1.985896 1_455
Fe1 O8 1.996146 1_455
Fe1 O12 2.171200 1_555
Fe1 O10 2.190805 1_555
Fe1 O13 2.299252 1_456
Fe2 O9 1.973216 1_655
Fe2 O6 1.974157 1_565
Fe2 O7 1.988029 1_555
Fe2 O11 2.250361 1_566
Fe2 O14 2.256996 1_556
Fe2 O10 2.259770 1_665
Fe3 O5 1.954902 1_555
Fe3 O8 1.978364 1_555
Fe3 O7 2.004704 1_555
Fe3 O13 2.138497 1_556
Fe3 O14 2.203881 1_556
Fe3 O12 2.264145 1_555
Fe4 O9 2.076910 1_545
Fe4 O6 2.095227 1_555
Fe4 O5 2.121388 1_555
Fe4 O10 2.165111 1_555
Fe4 O11 2.213549 1_556
Fe4 O13 2.372288 1_556
Fe5 O1 1.952873 1_555
Fe5 O0 1.985896 1_655
Fe5 O4 1.996146 1_655
Fe5 O13 2.171200 1_555
Fe5 O14 2.190805 1_555
Fe5 O12 2.299252 1_654
Fe6 O3 2.023297 1_555
Fe6 O2 2.143756 1_555
Fe6 O4 2.194111 1_655
Fe6 O11 2.205272 1_555
Fe6 O10 2.230895 1_654
Fe6 O13 2.251625 1_555
Fe7 O3 2.076910 1_565
Fe7 O0 2.095227 1_555
Fe7 O1 2.121388 1_555
Fe7 O14 2.165111 1_555
Fe7 O11 2.213549 1_565
Fe7 O12 2.372288 1_554
Fe8 O1 1.954902 1_555
Fe8 O4 1.978364 1_555
Fe8 O2 2.004704 1_555
Fe8 O12 2.138497 1_554
Fe8 O10 2.203881 1_554
Fe8 O13 2.264145 1_555
Fe9 O3 1.973216 1_455
Fe9 O0 1.974157 1_545
Fe9 O2 1.988029 1_555
Fe9 O11 2.250361 1_555
Fe9 O10 2.256996 1_554
Fe9 O14 2.259770 1_445
