# generated using pymatgen
data_Li9Mn2Co5O16
_symmetry_space_group_name_H-M   'P 1'
_cell_length_a   7.74910078
_cell_length_b   7.74910078
_cell_length_c   5.17678179
_cell_angle_alpha   75.53468408
_cell_angle_beta   75.53468408
_cell_angle_gamma   95.66343323
_symmetry_Int_Tables_number   1
_chemical_formula_structural   Li9Mn2Co5O16
_chemical_formula_sum   'Li9 Mn2 Co5 O16'
_cell_volume   287.12810966
_cell_formula_units_Z   1
loop_
 _symmetry_equiv_pos_site_id
 _symmetry_equiv_pos_as_xyz
  1  'x, y, z'
loop_
 _atom_site_type_symbol
 _atom_site_label
 _atom_site_symmetry_multiplicity
 _atom_site_fract_x
 _atom_site_fract_y
 _atom_site_fract_z
 _atom_site_occupancy
  Li  Li0  1  0.36702200  0.11322800  0.01547600  1
  Li  Li1  1  0.88677200  0.63297800  0.98452400  1
  Li  Li2  1  0.49131100  0.99446200  0.50234100  1
  Li  Li3  1  0.00553800  0.50868900  0.49765900  1
  Li  Li4  1  0.62415600  0.87619200  0.99958600  1
  Li  Li5  1  0.12380800  0.37584400  0.00041400  1
  Li  Li6  1  0.75845200  0.75574200  0.50424200  1
  Li  Li7  1  0.24425800  0.24154800  0.49575800  1
  Li  Li8  1  0.12568400  0.87431600  0.50000000  1
  Mn  Mn0  1  0.00130800  0.99869200  0.00000000  1
  Mn  Mn1  1  0.49843400  0.50156600  0.00000000  1
  Co  Co0  1  0.62561000  0.37439000  0.50000000  1
  Co  Co1  1  0.24867500  0.75132500  0.00000000  1
  Co  Co2  1  0.75157600  0.24842400  0.00000000  1
  Co  Co3  1  0.37162100  0.62837900  0.50000000  1
  Co  Co4  1  0.87635100  0.12364900  0.50000000  1
  O  O0  1  0.24083900  0.00043700  0.77671300  1
  O  O1  1  0.74003700  0.49749500  0.77330100  1
  O  O2  1  0.36644000  0.84988600  0.25133600  1
  O  O3  1  0.85461600  0.35785000  0.26836900  1
  O  O4  1  0.50259100  0.73961600  0.76939000  1
  O  O5  1  0.99624900  0.24104800  0.77184800  1
  O  O6  1  0.60033200  0.59980600  0.25532800  1
  O  O7  1  0.09778000  0.11331800  0.24616500  1
  O  O8  1  0.50250500  0.25996300  0.22669900  1
  O  O9  1  0.99956300  0.75916100  0.22328700  1
  O  O10  1  0.64215000  0.14538400  0.73163100  1
  O  O11  1  0.15011400  0.63356000  0.74866400  1
  O  O12  1  0.75895200  0.00375100  0.22815200  1
  O  O13  1  0.26038400  0.49740900  0.23061000  1
  O  O14  1  0.88668200  0.90222000  0.75383500  1
  O  O15  1  0.40019400  0.39966800  0.74467200  1
loop_
_geom_bond_atom_site_label_1
_geom_bond_atom_site_label_2
_geom_bond_distance
_geom_bond_site_symmetry_2
Li0 O0 2.054901 1_554
Li0 O2 2.098999 1_545
Li0 O7 2.129577 1_555
Li0 O8 2.133037 1_555
Li0 O10 2.216704 1_554
Li0 O15 2.260756 1_554
Li1 O9 2.054901 1_556
Li1 O11 2.098999 1_655
Li1 O14 2.129577 1_555
Li1 O1 2.133037 1_555
Li1 O3 2.216704 1_556
Li1 O6 2.260756 1_556
Li2 O0 2.111897 1_565
Li2 O4 2.132903 1_555
Li2 O8 2.170901 1_565
Li2 O12 2.184054 1_565
Li2 O2 2.240843 1_555
Li2 O10 2.293424 1_565
Li3 O9 2.111897 1_455
Li3 O13 2.132903 1_555
Li3 O1 2.170901 1_455
Li3 O5 2.184054 1_455
Li3 O11 2.240843 1_555
Li3 O3 2.293424 1_455
Li4 O2 2.053037 1_556
Li4 O14 2.072574 1_555
Li4 O4 2.102786 1_555
Li4 O12 2.113336 1_566
Li4 O10 2.166877 1_565
Li4 O6 2.181097 1_556
Li5 O11 2.053037 1_554
Li5 O7 2.072574 1_555
Li5 O13 2.102786 1_555
Li5 O5 2.113336 1_454
Li5 O3 2.166877 1_455
Li5 O15 2.181097 1_554
Li6 O9 2.054352 1_555
Li6 O4 2.082438 1_555
Li6 O12 2.088008 1_565
Li6 O1 2.101656 1_555
Li6 O14 2.257604 1_555
Li6 O6 2.428240 1_555
Li7 O0 2.054352 1_555
Li7 O13 2.082438 1_555
Li7 O5 2.088008 1_455
Li7 O8 2.101656 1_555
Li7 O7 2.257604 1_555
Li7 O15 2.428240 1_555
Li8 O2 2.040880 1_555
Li8 O11 2.040880 1_555
Li8 O7 2.051517 1_565
Li8 O14 2.051517 1_455
Li8 O0 2.229206 1_565
Li8 O9 2.229206 1_455
Mn0 O0 1.922746 1_564
Mn0 O9 1.922746 1_455
Mn0 O5 1.962922 1_464
Mn0 O12 1.962922 1_465
Mn0 O7 1.970324 1_565
Mn0 O14 1.970324 1_454
Mn1 O13 1.922999 1_555
Mn1 O4 1.922999 1_554
Mn1 O1 1.953432 1_554
Mn1 O8 1.953432 1_555
Mn1 O15 1.963569 1_554
Mn1 O6 1.963569 1_555
Co0 O10 1.913645 1_555
Co0 O3 1.913645 1_555
Co0 O6 1.944233 1_555
Co0 O15 1.944233 1_555
Co0 O1 2.198196 1_555
Co0 O8 2.198196 1_555
Co1 O0 2.002417 1_564
Co1 O9 2.002417 1_455
Co1 O2 2.015215 1_555
Co1 O11 2.015215 1_554
Co1 O13 2.054457 1_555
Co1 O4 2.054457 1_554
Co2 O12 1.982275 1_555
Co2 O5 1.982275 1_554
Co2 O8 2.016269 1_555
Co2 O1 2.016269 1_554
Co2 O10 2.072630 1_554
Co2 O3 2.072630 1_555
Co3 O2 1.881632 1_555
Co3 O11 1.881632 1_555
Co3 O6 1.972427 1_555
Co3 O15 1.972427 1_555
Co3 O13 2.202921 1_555
Co3 O4 2.202921 1_555
Co4 O7 1.905410 1_655
Co4 O14 1.905410 1_545
Co4 O3 1.958039 1_555
Co4 O10 1.958039 1_555
Co4 O12 2.190284 1_555
Co4 O5 2.190284 1_555
