# generated using pymatgen
data_TiMnSn4
_symmetry_space_group_name_H-M   'P 1'
_cell_length_a   5.52806103
_cell_length_b   5.52806103
_cell_length_c   14.01133900
_cell_angle_alpha   90.00000000
_cell_angle_beta   90.00000000
_cell_angle_gamma   119.99998833
_symmetry_Int_Tables_number   1
_chemical_formula_structural   TiMnSn4
_chemical_formula_sum   'Ti3 Mn3 Sn12'
_cell_volume   370.81387907
_cell_formula_units_Z   3
loop_
 _symmetry_equiv_pos_site_id
 _symmetry_equiv_pos_as_xyz
  1  'x, y, z'
loop_
 _atom_site_type_symbol
 _atom_site_label
 _atom_site_symmetry_multiplicity
 _atom_site_fract_x
 _atom_site_fract_y
 _atom_site_fract_z
 _atom_site_occupancy
  Ti  Ti0  1  0.50000000  0.00000000  0.50000000  1
  Ti  Ti1  1  0.00000000  0.50000000  0.16666700  1
  Ti  Ti2  1  0.50000000  0.50000000  0.83333300  1
  Mn  Mn0  1  0.00000000  0.00000000  0.50000000  1
  Mn  Mn1  1  0.00000000  0.00000000  0.16666700  1
  Mn  Mn2  1  0.00000000  0.00000000  0.83333300  1
  Sn  Sn0  1  0.16518800  0.33037600  0.00000000  1
  Sn  Sn1  1  0.66962400  0.83481200  0.66666700  1
  Sn  Sn2  1  0.83481200  0.66962400  0.00000000  1
  Sn  Sn3  1  0.33037600  0.16518800  0.66666700  1
  Sn  Sn4  1  0.16518800  0.83481200  0.33333300  1
  Sn  Sn5  1  0.83481200  0.16518800  0.33333300  1
  Sn  Sn6  1  0.50000000  0.00000000  0.88828200  1
  Sn  Sn7  1  0.00000000  0.50000000  0.55494900  1
  Sn  Sn8  1  0.00000000  0.50000000  0.77838400  1
  Sn  Sn9  1  0.50000000  0.50000000  0.22161600  1
  Sn  Sn10  1  0.50000000  0.00000000  0.11171800  1
  Sn  Sn11  1  0.50000000  0.50000000  0.44505100  1
loop_
_geom_bond_atom_site_label_1
_geom_bond_atom_site_label_2
_geom_bond_distance
_geom_bond_site_symmetry_2
Mn0 Ti0 2.764031 1_555
Mn0 Ti0 2.764031 1_455
Mn0 Sn4 2.820447 1_545
Mn0 Sn5 2.820447 1_455
Mn0 Sn3 2.820448 1_555
Mn0 Sn1 2.820448 1_445
Mn0 Sn7 2.869255 1_545
Mn0 Sn7 2.869255 1_555
Mn0 Sn11 2.869256 1_555
Mn0 Sn11 2.869256 1_445
Mn1 Ti1 2.764031 1_545
Mn1 Ti1 2.764031 1_555
Mn1 Sn5 2.820436 1_455
Mn1 Sn4 2.820436 1_545
Mn1 Sn2 2.820448 1_445
Mn1 Sn0 2.820448 1_555
Mn1 Sn10 2.869255 1_555
Mn1 Sn10 2.869255 1_455
Mn1 Sn9 2.869256 1_445
Mn1 Sn9 2.869256 1_555
Mn2 Ti2 2.764031 1_445
Mn2 Ti2 2.764031 1_555
Mn2 Sn3 2.820436 1_555
Mn2 Sn1 2.820436 1_445
Mn2 Sn2 2.820448 1_446
Mn2 Sn0 2.820448 1_556
Mn2 Sn6 2.869255 1_555
Mn2 Sn6 2.869255 1_455
Mn2 Sn8 2.869255 1_555
Mn2 Sn8 2.869255 1_545
Sn0 Ti1 2.832438 1_555
Sn0 Ti2 2.832438 1_554
Sn1 Ti2 2.832426 1_555
Sn1 Ti0 2.832438 1_565
Sn2 Ti1 2.832438 1_655
Sn2 Ti2 2.832438 1_554
Sn3 Ti2 2.832426 1_555
Sn3 Ti0 2.832438 1_555
Sn4 Ti1 2.832426 1_555
Sn4 Ti0 2.832438 1_565
Sn5 Ti1 2.832426 1_655
Sn5 Ti0 2.832438 1_555
Sn6 Ti2 2.869255 1_545
Sn6 Ti2 2.869255 1_555
Sn7 Ti0 2.869256 1_455
Sn7 Ti0 2.869256 1_565
Sn8 Ti2 2.869255 1_455
Sn8 Ti2 2.869255 1_555
Sn9 Ti1 2.869255 1_555
Sn9 Ti1 2.869255 1_655
Sn10 Ti1 2.869256 1_655
Sn10 Ti1 2.869256 1_545
Sn11 Ti0 2.869255 1_565
Sn11 Ti0 2.869255 1_555
