# generated using pymatgen
data_Zn2MoWO6
_symmetry_space_group_name_H-M   'P 1'
_cell_length_a   5.69012607
_cell_length_b   5.69012607
_cell_length_c   5.69012565
_cell_angle_alpha   56.11099794
_cell_angle_beta   56.11099794
_cell_angle_gamma   56.11100586
_symmetry_Int_Tables_number   1
_chemical_formula_structural   Zn2MoWO6
_chemical_formula_sum   'Zn2 Mo1 W1 O6'
_cell_volume   118.54071517
_cell_formula_units_Z   1
loop_
 _symmetry_equiv_pos_site_id
 _symmetry_equiv_pos_as_xyz
  1  'x, y, z'
loop_
 _atom_site_type_symbol
 _atom_site_label
 _atom_site_symmetry_multiplicity
 _atom_site_fract_x
 _atom_site_fract_y
 _atom_site_fract_z
 _atom_site_occupancy
  Zn  Zn0  1  0.26597200  0.26597200  0.26597200  1
  Zn  Zn1  1  0.77504100  0.77504100  0.77504100  1
  Mo  Mo0  1  0.49843500  0.49843500  0.49843500  1
  W  W0  1  0.99947500  0.99947500  0.99947500  1
  O  O0  1  0.09836600  0.75255600  0.37798900  1
  O  O1  1  0.90095200  0.21696400  0.62099700  1
  O  O2  1  0.75255600  0.37798900  0.09836600  1
  O  O3  1  0.37798900  0.09836600  0.75255600  1
  O  O4  1  0.62099700  0.90095200  0.21696400  1
  O  O5  1  0.21696400  0.62099700  0.90095200  1
loop_
_geom_bond_atom_site_label_1
_geom_bond_atom_site_label_2
_geom_bond_distance
_geom_bond_site_symmetry_2
Mo0 O2 2.169486 1_555
Mo0 O3 2.169486 1_555
Mo0 O0 2.169486 1_555
Mo0 O4 2.177662 1_555
Mo0 O5 2.177662 1_555
Mo0 O1 2.177662 1_555
O0 Zn1 1.982430 1_455
O0 W0 2.006180 1_454
O1 Zn0 1.952252 1_655
O1 W0 2.020969 1_545
O1 Zn1 2.540785 1_545
O2 Zn1 1.982430 1_554
O2 W0 2.006180 1_544
O3 Zn1 1.982431 1_545
O3 W0 2.006180 1_445
O4 Zn0 1.952252 1_565
O4 W0 2.020969 1_554
O4 Zn1 2.540785 1_554
O5 Zn0 1.952252 1_556
O5 W0 2.020969 1_455
O5 Zn1 2.540786 1_455
