# generated using pymatgen
data_Li9Mn7O16
_symmetry_space_group_name_H-M   'P 1'
_cell_length_a   5.10215600
_cell_length_b   6.06805427
_cell_length_c   9.85681512
_cell_angle_alpha   85.67393605
_cell_angle_beta   78.09797151
_cell_angle_gamma   88.17936029
_symmetry_Int_Tables_number   1
_chemical_formula_structural   Li9Mn7O16
_chemical_formula_sum   'Li9 Mn7 O16'
_cell_volume   297.71608747
_cell_formula_units_Z   1
loop_
 _symmetry_equiv_pos_site_id
 _symmetry_equiv_pos_as_xyz
  1  'x, y, z'
loop_
 _atom_site_type_symbol
 _atom_site_label
 _atom_site_symmetry_multiplicity
 _atom_site_fract_x
 _atom_site_fract_y
 _atom_site_fract_z
 _atom_site_occupancy
  Li  Li0  1  0.49158900  0.26088100  0.99913200  1
  Li  Li1  1  0.25305300  0.50208500  0.24802400  1
  Li  Li2  1  0.50841100  0.73911900  0.00086800  1
  Li  Li3  1  0.24442600  0.99906900  0.24811800  1
  Li  Li4  1  0.75557400  0.00093100  0.75188200  1
  Li  Li5  1  0.74694700  0.49791500  0.75197600  1
  Li  Li6  1  0.99612200  0.74849600  0.49894400  1
  Li  Li7  1  0.00387800  0.25150400  0.50105600  1
  Li  Li8  1  0.00000000  0.50000000  0.00000000  1
  Mn  Mn0  1  0.00000000  0.00000000  0.00000000  1
  Mn  Mn1  1  0.75039800  0.24875100  0.24490400  1
  Mn  Mn2  1  0.50000000  0.50000000  0.50000000  1
  Mn  Mn3  1  0.24960200  0.75124900  0.75509600  1
  Mn  Mn4  1  0.75075200  0.74186600  0.24446500  1
  Mn  Mn5  1  0.50000000  0.00000000  0.50000000  1
  Mn  Mn6  1  0.24924800  0.25813400  0.75553500  1
  O  O0  1  0.35294700  0.01869600  0.88034100  1
  O  O1  1  0.09301600  0.22170700  0.11763000  1
  O  O2  1  0.36719000  0.50376600  0.86318100  1
  O  O3  1  0.10088400  0.76420400  0.12612300  1
  O  O4  1  0.60607700  0.76660600  0.62696800  1
  O  O5  1  0.60218800  0.26481300  0.62653900  1
  O  O6  1  0.85947400  0.51320800  0.37535600  1
  O  O7  1  0.84978000  0.00239700  0.37176500  1
  O  O8  1  0.63281000  0.49623400  0.13681900  1
  O  O9  1  0.39781200  0.73518700  0.37346100  1
  O  O10  1  0.64705300  0.98130400  0.11965900  1
  O  O11  1  0.39392300  0.23339400  0.37303200  1
  O  O12  1  0.89911600  0.23579600  0.87387700  1
  O  O13  1  0.90698400  0.77829300  0.88237000  1
  O  O14  1  0.15022000  0.99760300  0.62823500  1
  O  O15  1  0.14052600  0.48679200  0.62464400  1
loop_
_geom_bond_atom_site_label_1
_geom_bond_atom_site_label_2
_geom_bond_distance
_geom_bond_site_symmetry_2
Li0 O2 2.089065 1_555
Li0 O1 2.136658 1_556
Li0 O0 2.167575 1_555
Li0 O12 2.195488 1_555
Li0 O10 2.217598 1_546
Li0 O8 2.271948 1_556
Li1 O8 2.020504 1_555
Li1 O6 2.139359 1_455
Li1 O3 2.143449 1_555
Li1 O11 2.163542 1_555
Li1 O9 2.186744 1_555
Li1 O1 2.462576 1_555
Li2 O8 2.089065 1_555
Li2 O13 2.136658 1_554
Li2 O10 2.167575 1_555
Li2 O3 2.195488 1_555
Li2 O0 2.217598 1_564
Li2 O2 2.271948 1_554
Li3 O1 2.039022 1_565
Li3 O7 2.128158 1_465
Li3 O3 2.168312 1_555
Li3 O9 2.173388 1_555
Li3 O10 2.183691 1_555
Li3 O11 2.199998 1_565
Li4 O13 2.039022 1_545
Li4 O14 2.128158 1_645
Li4 O12 2.168312 1_555
Li4 O5 2.173388 1_555
Li4 O0 2.183691 1_555
Li4 O4 2.199998 1_545
Li5 O2 2.020504 1_555
Li5 O15 2.139359 1_655
Li5 O12 2.143449 1_555
Li5 O4 2.163542 1_555
Li5 O5 2.186744 1_555
Li5 O13 2.462576 1_555
Li6 O7 2.127035 1_565
Li6 O4 2.129799 1_555
Li6 O15 2.145964 1_655
Li6 O6 2.164363 1_555
Li6 O9 2.166954 1_655
Li6 O14 2.303605 1_655
Li7 O14 2.127035 1_545
Li7 O11 2.129799 1_555
Li7 O6 2.145964 1_455
Li7 O15 2.164363 1_555
Li7 O5 2.166954 1_455
Li7 O7 2.303605 1_455
Li8 O2 2.070030 1_554
Li8 O8 2.070030 1_455
Li8 O13 2.074108 1_454
Li8 O1 2.074108 1_555
Li8 O3 2.235562 1_555
Li8 O12 2.235562 1_454
Mn0 O10 1.939986 1_445
Mn0 O0 1.939986 1_554
Mn0 O3 1.951016 1_545
Mn0 O12 1.951016 1_454
Mn0 O13 1.970367 1_444
Mn0 O1 1.970367 1_555
Mn1 O8 1.927489 1_555
Mn1 O1 1.940316 1_655
Mn1 O11 1.989280 1_555
Mn1 O7 1.996693 1_555
Mn1 O10 2.249652 1_545
Mn1 O6 2.280682 1_555
Mn2 O9 1.953619 1_555
Mn2 O5 1.953619 1_555
Mn2 O15 1.986149 1_555
Mn2 O6 1.986149 1_555
Mn2 O4 2.262047 1_555
Mn2 O11 2.262047 1_555
Mn3 O2 1.927489 1_555
Mn3 O13 1.940316 1_455
Mn3 O4 1.989280 1_555
Mn3 O14 1.996693 1_555
Mn3 O0 2.249652 1_565
Mn3 O15 2.280682 1_555
Mn4 O3 1.924153 1_655
Mn4 O10 1.963227 1_555
Mn4 O6 1.968160 1_555
Mn4 O9 1.978253 1_555
Mn4 O8 2.066034 1_555
Mn4 O7 2.222737 1_565
Mn5 O4 1.956582 1_545
Mn5 O11 1.956582 1_555
Mn5 O14 1.962452 1_545
Mn5 O7 1.962452 1_555
Mn5 O5 2.243544 1_555
Mn5 O9 2.243544 1_545
Mn6 O12 1.924153 1_455
Mn6 O0 1.963227 1_555
Mn6 O15 1.968160 1_555
Mn6 O5 1.978253 1_555
Mn6 O2 2.066034 1_555
Mn6 O14 2.222737 1_545
