# generated using pymatgen
data_SrNd2(CuO3)2
_symmetry_space_group_name_H-M   'P 1'
_cell_length_a   10.24304913
_cell_length_b   10.24304913
_cell_length_c   10.24304913
_cell_angle_alpha   158.28571221
_cell_angle_beta   158.28571221
_cell_angle_gamma   30.89824018
_symmetry_Int_Tables_number   1
_chemical_formula_structural   SrNd2(CuO3)2
_chemical_formula_sum   'Sr1 Nd2 Cu2 O6'
_cell_volume   147.00989911
_cell_formula_units_Z   1
loop_
 _symmetry_equiv_pos_site_id
 _symmetry_equiv_pos_as_xyz
  1  'x, y, z'
loop_
 _atom_site_type_symbol
 _atom_site_label
 _atom_site_symmetry_multiplicity
 _atom_site_fract_x
 _atom_site_fract_y
 _atom_site_fract_z
 _atom_site_occupancy
  Sr  Sr0  1  0.81993600  0.81993600  0.00000000  1
  Nd  Nd0  1  0.99938500  0.99938500  0.00000000  1
  Nd  Nd1  1  0.18028100  0.18028100  0.00000000  1
  Cu  Cu0  1  0.40893100  0.40893100  0.00000000  1
  Cu  Cu1  1  0.58810200  0.58810200  0.00000000  1
  O  O0  1  0.92356700  0.42356700  0.50000000  1
  O  O1  1  0.42356700  0.92356700  0.50000000  1
  O  O2  1  0.08279700  0.58279700  0.50000000  1
  O  O3  1  0.58279700  0.08279700  0.50000000  1
  O  O4  1  0.29273600  0.29273600  0.00000000  1
  O  O5  1  0.69790000  0.69790000  0.00000000  1
loop_
_geom_bond_atom_site_label_1
_geom_bond_atom_site_label_2
_geom_bond_distance
_geom_bond_site_symmetry_2
Nd0 O0 2.442096 1_554
Nd0 O1 2.442096 1_655
Nd0 O1 2.442096 1_554
Nd0 O0 2.442096 1_565
Nd0 O2 2.536789 1_654
Nd0 O3 2.536789 1_564
Nd0 O3 2.536789 1_665
Nd0 O2 2.536789 1_665
Nd1 O4 2.220523 1_555
Nd1 O3 2.725402 1_454
Nd1 O2 2.725402 1_544
Nd1 O3 2.725402 1_555
Nd1 O2 2.725402 1_555
Nd1 O5 2.750660 1_455
Nd1 O5 2.750660 1_556
Nd1 O5 2.750660 1_444
Nd1 O5 2.750660 1_545
Cu0 O0 1.950914 1_454
Cu0 O1 1.950914 1_544
Cu0 O0 1.950914 1_555
Cu0 O1 1.950914 1_555
Cu0 O4 2.294373 1_555
Cu1 O2 1.932232 1_554
Cu1 O2 1.932232 1_655
Cu1 O3 1.932232 1_554
Cu1 O3 1.932232 1_565
Cu1 O5 2.168058 1_555
O0 Sr0 2.812442 1_545
O0 Sr0 2.812442 1_556
O1 Sr0 2.812442 1_556
O1 Sr0 2.812442 1_455
O4 Sr0 2.780927 1_545
O4 Sr0 2.780927 1_455
O4 Sr0 2.780927 1_556
O4 Sr0 2.780927 1_444
O5 Sr0 2.409708 1_555
