# generated using pymatgen
data_Na(GeAs)6
_symmetry_space_group_name_H-M   'P 1'
_cell_length_a   11.46830284
_cell_length_b   11.46830284
_cell_length_c   7.34268175
_cell_angle_alpha   87.20046029
_cell_angle_beta   87.20046029
_cell_angle_gamma   19.52136820
_symmetry_Int_Tables_number   1
_chemical_formula_structural   Na(GeAs)6
_chemical_formula_sum   'Na1 Ge6 As6'
_cell_volume   322.30822444
_cell_formula_units_Z   1
loop_
 _symmetry_equiv_pos_site_id
 _symmetry_equiv_pos_as_xyz
  1  'x, y, z'
loop_
 _atom_site_type_symbol
 _atom_site_label
 _atom_site_symmetry_multiplicity
 _atom_site_fract_x
 _atom_site_fract_y
 _atom_site_fract_z
 _atom_site_occupancy
  Na  Na0  1  0.00000000  0.00000000  0.00000000  1
  Ge  Ge0  1  0.05373300  0.05373300  0.53162100  1
  Ge  Ge1  1  0.94626700  0.94626700  0.46837900  1
  Ge  Ge2  1  0.31932200  0.31932200  0.67023400  1
  Ge  Ge3  1  0.68067800  0.68067800  0.32976600  1
  Ge  Ge4  1  0.32010000  0.32010000  0.32421000  1
  Ge  Ge5  1  0.67990000  0.67990000  0.67579000  1
  As  As0  1  0.11777400  0.11777400  0.23764600  1
  As  As1  1  0.88222600  0.88222600  0.76235400  1
  As  As2  1  0.22067200  0.22067200  0.84588000  1
  As  As3  1  0.77932800  0.77932800  0.15411900  1
  As  As4  1  0.57127100  0.57127100  0.74164100  1
  As  As5  1  0.42872900  0.42872900  0.25835900  1
loop_
_geom_bond_atom_site_label_1
_geom_bond_atom_site_label_2
_geom_bond_distance
_geom_bond_site_symmetry_2
Ge0 Ge1 2.495712 1_445
Ge2 Ge4 2.539933 1_555
Ge3 Ge5 2.539933 1_555
As0 Ge3 2.520884 1_455
As0 Ge3 2.520884 1_545
As0 Ge0 2.538756 1_555
As0 Na0 3.254661 1_555
As1 Ge2 2.520884 1_655
As1 Ge2 2.520884 1_565
As1 Ge1 2.538756 1_555
As1 Na0 3.254661 1_666
As2 Ge5 2.510664 1_545
As2 Ge5 2.510664 1_455
As2 Ge2 2.520107 1_555
As3 Ge4 2.510668 1_565
As3 Ge4 2.510668 1_655
As3 Ge3 2.520110 1_555
As4 Ge5 2.479044 1_555
As4 Ge0 2.525076 1_565
As4 Ge0 2.525076 1_655
As4 Na0 3.109902 1_656
As4 Na0 3.109902 1_566
As5 Ge4 2.479044 1_555
As5 Ge1 2.525076 1_545
As5 Ge1 2.525076 1_455
As5 Na0 3.109902 1_655
As5 Na0 3.109902 1_565
