# generated using pymatgen
data_Cu3Te
_symmetry_space_group_name_H-M   'P 1'
_cell_length_a   3.94666200
_cell_length_b   3.94666200
_cell_length_c   3.94666200
_cell_angle_alpha   90.00000000
_cell_angle_beta   90.00000000
_cell_angle_gamma   90.00000000
_symmetry_Int_Tables_number   1
_chemical_formula_structural   Cu3Te
_chemical_formula_sum   'Cu3 Te1'
_cell_volume   61.47376356
_cell_formula_units_Z   1
loop_
 _symmetry_equiv_pos_site_id
 _symmetry_equiv_pos_as_xyz
  1  'x, y, z'
loop_
 _atom_site_type_symbol
 _atom_site_label
 _atom_site_symmetry_multiplicity
 _atom_site_fract_x
 _atom_site_fract_y
 _atom_site_fract_z
 _atom_site_occupancy
  Cu  Cu0  1  0.00000000  0.50000000  0.50000000  1
  Cu  Cu1  1  0.50000000  0.00000000  0.50000000  1
  Cu  Cu2  1  0.50000000  0.50000000  0.00000000  1
  Te  Te0  1  0.00000000  0.00000000  0.00000000  1
loop_
_geom_bond_atom_site_label_1
_geom_bond_atom_site_label_2
_geom_bond_distance
_geom_bond_site_symmetry_2
Cu0 Cu1 2.790711 1_455
Cu0 Cu1 2.790711 1_565
Cu0 Cu2 2.790711 1_556
Cu0 Te0 2.790711 1_556
Cu0 Cu1 2.790711 1_465
Cu0 Cu1 2.790711 1_555
Cu0 Te0 2.790711 1_555
Cu0 Cu2 2.790711 1_555
Cu0 Te0 2.790711 1_566
Cu0 Te0 2.790711 1_565
Cu0 Cu2 2.790711 1_456
Cu0 Cu2 2.790711 1_455
Cu1 Cu2 2.790711 1_556
Cu1 Te0 2.790711 1_556
Cu1 Cu2 2.790711 1_546
Cu1 Te0 2.790711 1_555
Cu1 Cu2 2.790711 1_545
Cu1 Cu2 2.790711 1_555
Cu1 Te0 2.790711 1_655
Cu1 Te0 2.790711 1_656
Cu2 Te0 2.790711 1_665
Cu2 Te0 2.790711 1_555
Cu2 Te0 2.790711 1_565
Cu2 Te0 2.790711 1_655
