# generated using pymatgen
data_SrCaPrSbO6
_symmetry_space_group_name_H-M   'P 1'
_cell_length_a   5.92354355
_cell_length_b   5.92354355
_cell_length_c   8.60661742
_cell_angle_alpha   90.00000000
_cell_angle_beta   90.00000000
_cell_angle_gamma   90.00000000
_symmetry_Int_Tables_number   1
_chemical_formula_structural   SrCaPrSbO6
_chemical_formula_sum   'Sr2 Ca2 Pr2 Sb2 O12'
_cell_volume   301.99216089
_cell_formula_units_Z   2
loop_
 _symmetry_equiv_pos_site_id
 _symmetry_equiv_pos_as_xyz
  1  'x, y, z'
loop_
 _atom_site_type_symbol
 _atom_site_label
 _atom_site_symmetry_multiplicity
 _atom_site_fract_x
 _atom_site_fract_y
 _atom_site_fract_z
 _atom_site_occupancy
  Sr  Sr0  1  0.50000000  0.50000000  0.50000000  1
  Sr  Sr1  1  0.00000000  -0.00000000  0.50000000  1
  Ca  Ca0  1  0.50000000  0.50000000  0.00000000  1
  Ca  Ca1  1  -0.00000000  0.00000000  0.00000000  1
  Pr  Pr0  1  0.50000000  0.00000000  0.75240174  1
  Pr  Pr1  1  0.00000000  0.50000000  0.24759826  1
  Sb  Sb0  1  0.50000000  -0.00000000  0.24524310  1
  Sb  Sb1  1  0.00000000  0.50000000  0.75475690  1
  O  O0  1  0.50000000  0.00000000  0.01480634  1
  O  O1  1  -0.00000000  0.50000000  0.98519366  1
  O  O2  1  0.50000000  -0.00000000  0.48036934  1
  O  O3  1  -0.00000000  0.50000000  0.51963066  1
  O  O4  1  0.69520964  0.65160776  0.75728558  1
  O  O5  1  0.30479036  0.34839224  0.75728558  1
  O  O6  1  0.84839224  0.19520964  0.75728558  1
  O  O7  1  0.15160776  0.80479036  0.75728558  1
  O  O8  1  0.80479036  0.15160776  0.24271442  1
  O  O9  1  0.19520964  0.84839224  0.24271442  1
  O  O10  1  0.65160776  0.69520964  0.24271442  1
  O  O11  1  0.34839224  0.30479036  0.24271442  1
loop_
_geom_bond_atom_site_label_1
_geom_bond_atom_site_label_2
_geom_bond_distance
_geom_bond_site_symmetry_2
Ca0 O5 2.550945 1_554
Ca0 O4 2.550945 1_554
Ca0 O10 2.550945 1_555
Ca0 O11 2.550945 1_555
Ca0 O1 2.964512 1_654
Ca0 O0 2.964512 1_555
Ca0 O1 2.964512 1_554
Ca0 O0 2.964512 1_565
Ca1 O6 2.550945 1_454
Ca1 O7 2.550945 1_544
Ca1 O9 2.550945 1_545
Ca1 O8 2.550945 1_455
Ca1 O0 2.964512 1_455
Ca1 O0 2.964512 1_555
Ca1 O1 2.964512 1_554
Ca1 O1 2.964512 1_544
O0 Sb0 1.983281 1_555
O0 Pr0 2.258416 1_554
O1 Sb1 1.983281 1_555
O1 Pr1 2.258416 1_556
O2 Sb0 2.023642 1_555
O2 Pr0 2.341279 1_555
O2 Sr0 2.966587 1_555
O2 Sr0 2.966587 1_545
O2 Sr1 2.966587 1_655
O2 Sr1 2.966587 1_555
O3 Sb1 2.023642 1_555
O3 Pr1 2.341279 1_555
O3 Sr0 2.966587 1_455
O3 Sr0 2.966587 1_555
O3 Sr1 2.966587 1_565
O3 Sr1 2.966587 1_555
O4 Sb1 2.016578 1_655
O4 Pr0 2.365967 1_565
O4 Sr0 2.654617 1_555
O5 Sb1 2.016578 1_555
O5 Pr0 2.365967 1_555
O5 Sr0 2.654617 1_555
O6 Sb1 2.016578 1_655
O6 Pr0 2.365967 1_555
O6 Sr1 2.654617 1_655
O7 Sb1 2.016578 1_555
O7 Pr0 2.365967 1_565
O7 Sr1 2.654617 1_565
O8 Sb0 2.016578 1_555
O8 Pr1 2.365967 1_655
O8 Sr1 2.654617 1_655
O9 Sb0 2.016578 1_565
O9 Pr1 2.365967 1_555
O9 Sr1 2.654617 1_565
O10 Sb0 2.016578 1_565
O10 Pr1 2.365967 1_655
O10 Sr0 2.654617 1_555
O11 Sb0 2.016578 1_555
O11 Pr1 2.365967 1_555
O11 Sr0 2.654617 1_555
