# generated using pymatgen
data_CeSbPt5
_symmetry_space_group_name_H-M   'P 1'
_cell_length_a   5.38833274
_cell_length_b   5.38833274
_cell_length_c   10.93284806
_cell_angle_alpha   75.59521221
_cell_angle_beta   75.59521221
_cell_angle_gamma   60.25488007
_symmetry_Int_Tables_number   1
_chemical_formula_structural   CeSbPt5
_chemical_formula_sum   'Ce2 Sb2 Pt10'
_cell_volume   263.95589680
_cell_formula_units_Z   2
loop_
 _symmetry_equiv_pos_site_id
 _symmetry_equiv_pos_as_xyz
  1  'x, y, z'
loop_
 _atom_site_type_symbol
 _atom_site_label
 _atom_site_symmetry_multiplicity
 _atom_site_fract_x
 _atom_site_fract_y
 _atom_site_fract_z
 _atom_site_occupancy
  Ce  Ce0  1  0.50000000  0.50000000  0.00000000  1
  Ce  Ce1  1  0.00000000  0.00000000  0.50000000  1
  Sb  Sb0  1  0.10229500  0.10229500  0.18984700  1
  Sb  Sb1  1  0.89770500  0.89770500  0.81015300  1
  Pt  Pt0  1  0.57127000  0.07357000  0.27821800  1
  Pt  Pt1  1  0.07357000  0.57127000  0.27821800  1
  Pt  Pt2  1  0.42873000  0.92643000  0.72178200  1
  Pt  Pt3  1  0.92643000  0.42873000  0.72178200  1
  Pt  Pt4  1  0.57490900  0.57490900  0.26863500  1
  Pt  Pt5  1  0.42509100  0.42509100  0.73136500  1
  Pt  Pt6  1  0.82474800  0.82474800  0.05222500  1
  Pt  Pt7  1  0.17525200  0.17525200  0.94777500  1
  Pt  Pt8  1  0.33970600  0.33970600  0.49628900  1
  Pt  Pt9  1  0.66029400  0.66029400  0.50371100  1
loop_
_geom_bond_atom_site_label_1
_geom_bond_atom_site_label_2
_geom_bond_distance
_geom_bond_site_symmetry_2
Ce0 Pt7 3.126073 1_564
Ce0 Pt7 3.126073 1_654
Ce0 Pt6 3.126073 1_455
Ce0 Pt6 3.126073 1_545
Ce0 Pt4 3.208236 1_555
Ce0 Pt5 3.208236 1_554
Ce0 Pt6 3.237670 1_555
Ce0 Pt7 3.237670 1_554
Ce0 Pt1 3.302631 1_555
Ce0 Pt0 3.302631 1_555
Ce0 Pt3 3.302631 1_554
Ce0 Pt2 3.302631 1_554
Ce1 Pt9 3.095693 1_455
Ce1 Pt9 3.095693 1_545
Ce1 Pt8 3.095693 1_545
Ce1 Pt8 3.095693 1_455
Ce1 Pt8 3.154921 1_555
Ce1 Pt9 3.154921 1_445
Ce1 Sb0 3.247641 1_555
Ce1 Sb1 3.247641 1_445
Ce1 Pt3 3.539876 1_445
Ce1 Pt2 3.539876 1_445
Ce1 Pt0 3.539876 1_555
Ce1 Pt1 3.539876 1_555
Ce1 Pt3 3.573946 1_455
Ce1 Pt2 3.573946 1_545
Ce1 Pt0 3.573946 1_455
Ce1 Pt1 3.573946 1_545
Ce1 Pt5 3.631024 1_545
Ce1 Pt5 3.631024 1_455
Ce1 Pt4 3.631024 1_545
Ce1 Pt4 3.631024 1_455
Pt0 Pt4 2.686921 1_555
Pt0 Pt1 2.692098 1_555
Pt0 Pt4 2.705149 1_545
Pt0 Pt1 2.716980 1_645
Pt0 Pt8 2.782605 1_555
Pt0 Pt6 2.814199 1_545
Pt0 Pt9 2.839654 1_545
Pt0 Sb0 2.845224 1_555
Pt0 Sb0 2.852065 1_655
Pt1 Pt4 2.686921 1_555
Pt1 Pt4 2.705149 1_455
Pt1 Pt8 2.782605 1_555
Pt1 Pt6 2.814199 1_455
Pt1 Pt9 2.839654 1_455
Pt1 Sb0 2.845224 1_555
Pt1 Sb0 2.852065 1_565
Pt2 Pt5 2.686921 1_555
Pt2 Pt3 2.692098 1_555
Pt2 Pt5 2.705149 1_565
Pt2 Pt3 2.716980 1_465
Pt2 Pt9 2.782605 1_555
Pt2 Pt7 2.814199 1_565
Pt2 Pt8 2.839654 1_565
Pt2 Sb1 2.845224 1_555
Pt2 Sb1 2.852065 1_455
Pt3 Pt5 2.686921 1_555
Pt3 Pt5 2.705149 1_655
Pt3 Pt9 2.782605 1_555
Pt3 Pt7 2.814199 1_655
Pt3 Pt8 2.839654 1_655
Pt3 Sb1 2.845224 1_555
Pt3 Sb1 2.852065 1_545
Pt4 Pt6 2.802018 1_555
Pt4 Pt8 2.803925 1_555
Pt4 Sb0 2.827574 1_565
Pt4 Sb0 2.827574 1_655
Pt4 Pt9 2.900892 1_555
Pt5 Pt7 2.802018 1_555
Pt5 Pt9 2.803925 1_555
Pt5 Sb1 2.827574 1_455
Pt5 Sb1 2.827574 1_545
Pt5 Pt8 2.900892 1_555
Pt6 Sb1 2.536001 1_554
Pt7 Sb0 2.536001 1_556
