# generated using pymatgen
data_Zr6FeBi2
_symmetry_space_group_name_H-M   'P 1'
_cell_length_a   7.29647412
_cell_length_b   15.87247340
_cell_length_c   15.87238009
_cell_angle_alpha   120.00067787
_cell_angle_beta   89.99999329
_cell_angle_gamma   89.99998475
_symmetry_Int_Tables_number   1
_chemical_formula_structural   Zr6FeBi2
_chemical_formula_sum   'Zr48 Fe8 Bi16'
_cell_volume   1591.94248992
_cell_formula_units_Z   8
loop_
 _symmetry_equiv_pos_site_id
 _symmetry_equiv_pos_as_xyz
  1  'x, y, z'
loop_
 _atom_site_type_symbol
 _atom_site_label
 _atom_site_symmetry_multiplicity
 _atom_site_fract_x
 _atom_site_fract_y
 _atom_site_fract_z
 _atom_site_occupancy
  Zr  Zr0_0  1  0.24999987  0.38273986  0.38274242  1
  Zr  Zr0_1  1  0.24999987  0.38273986  0.88274242  1
  Zr  Zr0_2  1  0.24999987  0.88273986  0.38274242  1
  Zr  Zr0_3  1  0.24999987  0.88273986  0.88274242  1
  Zr  Zr0_4  1  0.74999987  0.38273986  0.38274242  1
  Zr  Zr0_5  1  0.74999987  0.38273986  0.88274242  1
  Zr  Zr0_6  1  0.74999987  0.88273986  0.38274242  1
  Zr  Zr0_7  1  0.74999987  0.88273986  0.88274242  1
  Zr  Zr1_0  1  0.25000011  0.00000332  0.11725393  1
  Zr  Zr1_1  1  0.25000011  0.00000332  0.61725392  1
  Zr  Zr1_2  1  0.25000011  0.50000332  0.11725393  1
  Zr  Zr1_3  1  0.25000011  0.50000332  0.61725393  1
  Zr  Zr1_4  1  0.75000011  0.00000332  0.11725393  1
  Zr  Zr1_5  1  0.75000011  0.00000332  0.61725393  1
  Zr  Zr1_6  1  0.75000011  0.50000332  0.11725393  1
  Zr  Zr1_7  1  0.75000011  0.50000332  0.61725393  1
  Zr  Zr2_0  1  0.24999996  0.11725512  0.00000364  1
  Zr  Zr2_1  1  0.24999996  0.11725512  0.50000364  1
  Zr  Zr2_2  1  0.24999996  0.61725512  0.00000364  1
  Zr  Zr2_3  1  0.24999996  0.61725512  0.50000364  1
  Zr  Zr2_4  1  0.74999996  0.11725512  0.00000364  1
  Zr  Zr2_5  1  0.74999996  0.11725512  0.50000364  1
  Zr  Zr2_6  1  0.74999996  0.61725512  0.00000364  1
  Zr  Zr2_7  1  0.74999996  0.61725512  0.50000364  1
  Zr  Zr3_0  1  0.99999994  0.19537650  0.19537665  1
  Zr  Zr3_1  1  0.99999994  0.19537650  0.69537665  1
  Zr  Zr3_2  1  0.99999994  0.69537650  0.19537665  1
  Zr  Zr3_3  1  0.99999994  0.69537650  0.69537665  1
  Zr  Zr3_4  1  0.49999994  0.19537650  0.19537665  1
  Zr  Zr3_5  1  0.49999994  0.19537650  0.69537665  1
  Zr  Zr3_6  1  0.49999994  0.69537650  0.19537665  1
  Zr  Zr3_7  1  0.49999994  0.69537650  0.69537665  1
  Zr  Zr4_0  1  0.00000006  0.99999328  0.30463250  1
  Zr  Zr4_1  1  0.00000006  0.99999328  0.80463250  1
  Zr  Zr4_2  1  0.00000006  0.49999328  0.30463250  1
  Zr  Zr4_3  1  0.00000005  0.49999328  0.80463250  1
  Zr  Zr4_4  1  0.50000005  0.99999328  0.30463250  1
  Zr  Zr4_5  1  0.50000005  0.99999328  0.80463250  1
  Zr  Zr4_6  1  0.50000005  0.49999328  0.30463250  1
  Zr  Zr4_7  1  0.50000005  0.49999328  0.80463250  1
  Zr  Zr5_0  1  1.00000000  0.30463172  0.99999374  1
  Zr  Zr5_1  1  1.00000000  0.30463172  0.49999374  1
  Zr  Zr5_2  1  1.00000000  0.80463172  0.99999374  1
  Zr  Zr5_3  1  1.00000000  0.80463172  0.49999374  1
  Zr  Zr5_4  1  0.50000000  0.30463172  0.99999374  1
  Zr  Zr5_5  1  0.49999999  0.30463172  0.49999374  1
  Zr  Zr5_6  1  0.49999999  0.80463172  0.99999374  1
  Zr  Zr5_7  1  0.49999999  0.80463172  0.49999374  1
  Fe  Fe0_0  1  0.00000010  0.00000443  0.00000367  1
  Fe  Fe0_1  1  0.00000010  0.00000443  0.50000367  1
  Fe  Fe0_2  1  0.00000010  0.50000443  0.00000367  1
  Fe  Fe0_3  1  0.00000010  0.50000443  0.50000367  1
  Fe  Fe0_4  1  0.50000010  0.00000443  0.00000367  1
  Fe  Fe0_5  1  0.50000010  0.00000443  0.50000367  1
  Fe  Fe0_6  1  0.50000010  0.50000443  0.00000367  1
  Fe  Fe0_7  1  0.50000010  0.50000443  0.50000367  1
  Bi  Bi0_0  1  0.24999998  0.33333228  0.16666491  1
  Bi  Bi0_1  1  0.24999998  0.33333228  0.66666490  1
  Bi  Bi0_2  1  0.24999998  0.83333228  0.16666491  1
  Bi  Bi0_3  1  0.24999998  0.83333228  0.66666491  1
  Bi  Bi0_4  1  0.74999998  0.33333228  0.16666491  1
  Bi  Bi0_5  1  0.74999998  0.33333228  0.66666491  1
  Bi  Bi0_6  1  0.74999998  0.83333228  0.16666491  1
  Bi  Bi0_7  1  0.74999998  0.83333228  0.66666491  1
  Bi  Bi1_0  1  0.24999999  0.16666297  0.33333007  1
  Bi  Bi1_1  1  0.24999999  0.16666297  0.83333007  1
  Bi  Bi1_2  1  0.24999999  0.66666297  0.33333007  1
  Bi  Bi1_3  1  0.24999999  0.66666297  0.83333007  1
  Bi  Bi1_4  1  0.74999999  0.16666297  0.33333007  1
  Bi  Bi1_5  1  0.74999999  0.16666297  0.83333007  1
  Bi  Bi1_6  1  0.74999999  0.66666297  0.33333007  1
  Bi  Bi1_7  1  0.74999999  0.66666297  0.83333007  1
loop_
_geom_bond_atom_site_label_1
_geom_bond_atom_site_label_2
_geom_bond_distance
_geom_bond_site_symmetry_2
Zr0_0 Zr5_1 3.261181 1_455
Zr0_0 Zr5_5 3.261181 1_555
Zr0_0 Zr4_2 3.261228 1_555
Zr0_0 Zr4_6 3.261230 1_555
Zr0_0 Zr3_4 3.488766 1_555
Zr0_0 Zr3_0 3.488766 1_455
Zr0_1 Zr5_0 3.261181 1_455
Zr0_1 Zr5_4 3.261181 1_555
Zr0_1 Zr4_3 3.261228 1_555
Zr0_1 Zr4_7 3.261230 1_555
Zr0_1 Zr3_5 3.488766 1_555
Zr0_1 Zr3_1 3.488766 1_455
Zr0_2 Zr5_3 3.261181 1_455
Zr0_2 Zr5_7 3.261181 1_555
Zr0_2 Zr4_0 3.261228 1_555
Zr0_2 Zr4_4 3.261230 1_555
Zr0_2 Zr3_6 3.488766 1_555
Zr0_2 Zr3_2 3.488766 1_455
Zr0_3 Zr5_2 3.261181 1_455
Zr0_3 Zr5_6 3.261181 1_555
Zr0_3 Zr4_1 3.261228 1_555
Zr0_3 Zr4_5 3.261230 1_555
Zr0_3 Zr3_7 3.488766 1_555
Zr0_3 Zr3_3 3.488766 1_455
Zr0_4 Zr5_5 3.261181 1_555
Zr0_4 Zr5_1 3.261181 1_555
Zr0_4 Zr4_6 3.261228 1_555
Zr0_4 Zr4_2 3.261230 1_655
Zr0_4 Zr3_0 3.488766 1_555
Zr0_4 Zr3_4 3.488766 1_555
Zr0_5 Zr5_4 3.261181 1_555
Zr0_5 Zr5_0 3.261181 1_555
Zr0_5 Zr4_7 3.261228 1_555
Zr0_5 Zr4_3 3.261230 1_655
Zr0_5 Zr3_1 3.488766 1_555
Zr0_5 Zr3_5 3.488766 1_555
Zr0_6 Zr5_7 3.261181 1_555
Zr0_6 Zr5_3 3.261181 1_555
Zr0_6 Zr4_4 3.261228 1_555
Zr0_6 Zr4_0 3.261230 1_655
Zr0_6 Zr3_2 3.488766 1_555
Zr0_6 Zr3_6 3.488766 1_555
Zr0_7 Zr5_6 3.261181 1_555
Zr0_7 Zr5_2 3.261181 1_555
Zr0_7 Zr4_5 3.261228 1_555
Zr0_7 Zr4_1 3.261230 1_655
Zr0_7 Zr3_3 3.488766 1_555
Zr0_7 Zr3_7 3.488766 1_555
Zr1_0 Zr5_6 3.261303 1_544
Zr1_0 Zr5_2 3.261306 1_444
Zr1_0 Zr3_4 3.261314 1_555
Zr1_0 Zr3_0 3.261314 1_455
Zr1_0 Zr4_4 3.489042 1_545
Zr1_0 Zr4_0 3.489042 1_545
Zr1_1 Zr5_7 3.261303 1_545
Zr1_1 Zr5_3 3.261306 1_445
Zr1_1 Zr3_5 3.261314 1_555
Zr1_1 Zr3_1 3.261314 1_455
Zr1_1 Zr4_5 3.489042 1_545
Zr1_1 Zr4_1 3.489042 1_545
Zr1_2 Zr5_4 3.261303 1_554
Zr1_2 Zr5_0 3.261306 1_454
Zr1_2 Zr3_6 3.261314 1_555
Zr1_2 Zr3_2 3.261314 1_455
Zr1_2 Zr4_6 3.489042 1_555
Zr1_2 Zr4_2 3.489042 1_555
Zr1_3 Zr5_5 3.261303 1_555
Zr1_3 Zr5_1 3.261306 1_455
Zr1_3 Zr3_7 3.261314 1_555
Zr1_3 Zr3_3 3.261314 1_455
Zr1_3 Zr4_7 3.489042 1_555
Zr1_3 Zr4_3 3.489042 1_555
Zr1_4 Zr5_2 3.261303 1_544
Zr1_4 Zr5_6 3.261306 1_544
Zr1_4 Zr3_0 3.261314 1_555
Zr1_4 Zr3_4 3.261314 1_555
Zr1_4 Zr4_0 3.489042 1_645
Zr1_4 Zr4_4 3.489042 1_545
Zr1_5 Zr5_3 3.261303 1_545
Zr1_5 Zr5_7 3.261306 1_545
Zr1_5 Zr3_1 3.261314 1_555
Zr1_5 Zr3_5 3.261314 1_555
Zr1_5 Zr4_1 3.489042 1_645
Zr1_5 Zr4_5 3.489042 1_545
Zr1_6 Zr5_0 3.261303 1_554
Zr1_6 Zr5_4 3.261306 1_554
Zr1_6 Zr3_2 3.261314 1_555
Zr1_6 Zr3_6 3.261314 1_555
Zr1_6 Zr4_2 3.489042 1_655
Zr1_6 Zr4_6 3.489042 1_555
Zr1_7 Zr5_1 3.261303 1_555
Zr1_7 Zr5_5 3.261306 1_555
Zr1_7 Zr3_3 3.261314 1_555
Zr1_7 Zr3_7 3.261314 1_555
Zr1_7 Zr4_3 3.489042 1_655
Zr1_7 Zr4_7 3.489042 1_555
Zr2_0 Zr4_5 3.261291 1_544
Zr2_0 Zr4_1 3.261291 1_544
Zr2_0 Zr3_0 3.261299 1_455
Zr2_0 Zr3_4 3.261300 1_555
Zr2_0 Zr5_0 3.489029 1_454
Zr2_0 Zr5_4 3.489030 1_554
Zr2_1 Zr4_4 3.261291 1_545
Zr2_1 Zr4_0 3.261291 1_545
Zr2_1 Zr3_1 3.261299 1_455
Zr2_1 Zr3_5 3.261300 1_555
Zr2_1 Zr5_1 3.489029 1_455
Zr2_1 Zr5_5 3.489030 1_555
Zr2_2 Zr4_7 3.261291 1_554
Zr2_2 Zr4_3 3.261291 1_554
Zr2_2 Zr3_2 3.261299 1_455
Zr2_2 Zr3_6 3.261300 1_555
Zr2_2 Zr5_2 3.489029 1_454
Zr2_2 Zr5_6 3.489030 1_554
Zr2_3 Zr4_6 3.261291 1_555
Zr2_3 Zr4_2 3.261291 1_555
Zr2_3 Zr3_3 3.261299 1_455
Zr2_3 Zr3_7 3.261300 1_555
Zr2_3 Zr5_3 3.489029 1_455
Zr2_3 Zr5_7 3.489030 1_555
Zr2_4 Zr4_1 3.261291 1_644
Zr2_4 Zr4_5 3.261291 1_544
Zr2_4 Zr3_4 3.261299 1_555
Zr2_4 Zr3_0 3.261300 1_555
Zr2_4 Zr5_4 3.489029 1_554
Zr2_4 Zr5_0 3.489030 1_554
Zr2_5 Zr4_0 3.261291 1_645
Zr2_5 Zr4_4 3.261291 1_545
Zr2_5 Zr3_5 3.261299 1_555
Zr2_5 Zr3_1 3.261300 1_555
Zr2_5 Zr5_5 3.489029 1_555
Zr2_5 Zr5_1 3.489030 1_555
Zr2_6 Zr4_3 3.261291 1_654
Zr2_6 Zr4_7 3.261291 1_554
Zr2_6 Zr3_6 3.261299 1_555
Zr2_6 Zr3_2 3.261300 1_555
Zr2_6 Zr5_6 3.489029 1_554
Zr2_6 Zr5_2 3.489030 1_554
Zr2_7 Zr4_2 3.261291 1_655
Zr2_7 Zr4_6 3.261291 1_555
Zr2_7 Zr3_7 3.261299 1_555
Zr2_7 Zr3_3 3.261300 1_555
Zr2_7 Zr5_7 3.489029 1_555
Zr2_7 Zr5_3 3.489030 1_555
Zr3_0 Zr3_4 3.648237 1_655
Zr3_0 Zr3_4 3.648237 1_555
Zr3_1 Zr3_5 3.648237 1_655
Zr3_1 Zr3_5 3.648237 1_555
Zr3_2 Zr3_6 3.648237 1_655
Zr3_2 Zr3_6 3.648237 1_555
Zr3_3 Zr3_7 3.648237 1_655
Zr3_3 Zr3_7 3.648237 1_555
Zr4_0 Zr4_4 3.648237 1_555
Zr4_0 Zr4_4 3.648237 1_455
Zr4_1 Zr4_5 3.648237 1_455
Zr4_1 Zr4_5 3.648237 1_555
Zr4_2 Zr4_6 3.648237 1_455
Zr4_2 Zr4_6 3.648237 1_555
Zr4_3 Zr4_7 3.648237 1_555
Zr4_3 Zr4_7 3.648237 1_455
Zr5_0 Zr5_4 3.648237 1_555
Zr5_0 Zr5_4 3.648237 1_655
Zr5_1 Zr5_5 3.648237 1_655
Zr5_1 Zr5_5 3.648237 1_555
Zr5_2 Zr5_6 3.648237 1_555
Zr5_2 Zr5_6 3.648237 1_655
Zr5_3 Zr5_7 3.648237 1_655
Zr5_3 Zr5_7 3.648237 1_555
Fe0_0 Zr1_4 2.605938 1_455
Fe0_0 Zr1_0 2.605938 1_555
Fe0_0 Zr2_0 2.605944 1_555
Fe0_0 Zr2_4 2.605945 1_455
Fe0_0 Zr0_3 2.606064 1_544
Fe0_0 Zr0_7 2.606067 1_444
Fe0_0 Zr4_1 3.100917 1_544
Fe0_0 Zr5_2 3.100969 1_444
Fe0_0 Zr3_0 3.101004 1_455
Fe0_1 Zr1_5 2.605938 1_455
Fe0_1 Zr1_1 2.605938 1_555
Fe0_1 Zr2_1 2.605944 1_555
Fe0_1 Zr2_5 2.605945 1_455
Fe0_1 Zr0_2 2.606064 1_545
Fe0_1 Zr0_6 2.606067 1_445
Fe0_1 Zr4_0 3.100917 1_545
Fe0_1 Zr5_3 3.100969 1_445
Fe0_1 Zr3_1 3.101004 1_455
Fe0_2 Zr1_6 2.605938 1_455
Fe0_2 Zr1_2 2.605938 1_555
Fe0_2 Zr2_2 2.605944 1_555
Fe0_2 Zr2_6 2.605945 1_455
Fe0_2 Zr0_1 2.606064 1_554
Fe0_2 Zr0_5 2.606067 1_454
Fe0_2 Zr4_3 3.100917 1_554
Fe0_2 Zr5_0 3.100969 1_454
Fe0_2 Zr3_2 3.101004 1_455
Fe0_3 Zr1_7 2.605938 1_455
Fe0_3 Zr1_3 2.605938 1_555
Fe0_3 Zr2_3 2.605944 1_555
Fe0_3 Zr2_7 2.605945 1_455
Fe0_3 Zr0_0 2.606064 1_555
Fe0_3 Zr0_4 2.606067 1_455
Fe0_3 Zr4_2 3.100917 1_555
Fe0_3 Zr5_1 3.100969 1_455
Fe0_3 Zr3_3 3.101004 1_455
Fe0_4 Zr1_0 2.605938 1_555
Fe0_4 Zr1_4 2.605938 1_555
Fe0_4 Zr2_4 2.605944 1_555
Fe0_4 Zr2_0 2.605945 1_555
Fe0_4 Zr0_7 2.606064 1_544
Fe0_4 Zr0_3 2.606067 1_544
Fe0_4 Zr4_5 3.100917 1_544
Fe0_4 Zr5_6 3.100969 1_544
Fe0_4 Zr3_4 3.101004 1_555
Fe0_5 Zr1_1 2.605938 1_555
Fe0_5 Zr1_5 2.605938 1_555
Fe0_5 Zr2_5 2.605944 1_555
Fe0_5 Zr2_1 2.605945 1_555
Fe0_5 Zr0_6 2.606064 1_545
Fe0_5 Zr0_2 2.606067 1_545
Fe0_5 Zr4_4 3.100917 1_545
Fe0_5 Zr5_7 3.100969 1_545
Fe0_5 Zr3_5 3.101004 1_555
Fe0_6 Zr1_2 2.605938 1_555
Fe0_6 Zr1_6 2.605938 1_555
Fe0_6 Zr2_6 2.605944 1_555
Fe0_6 Zr2_2 2.605945 1_555
Fe0_6 Zr0_5 2.606064 1_554
Fe0_6 Zr0_1 2.606067 1_554
Fe0_6 Zr4_7 3.100917 1_554
Fe0_6 Zr5_4 3.100969 1_554
Fe0_6 Zr3_6 3.101004 1_555
Fe0_7 Zr1_3 2.605938 1_555
Fe0_7 Zr1_7 2.605938 1_555
Fe0_7 Zr2_7 2.605944 1_555
Fe0_7 Zr2_3 2.605945 1_555
Fe0_7 Zr0_4 2.606064 1_555
Fe0_7 Zr0_0 2.606067 1_555
Fe0_7 Zr4_6 3.100917 1_555
Fe0_7 Zr5_5 3.100969 1_555
Fe0_7 Zr3_7 3.101004 1_555
Bi0_0 Zr4_2 3.054119 1_555
Bi0_0 Zr4_6 3.054120 1_555
Bi0_0 Zr3_4 3.054143 1_555
Bi0_0 Zr3_0 3.054144 1_455
Bi0_0 Zr5_4 3.054221 1_554
Bi0_0 Zr5_0 3.054222 1_454
Bi0_0 Zr2_0 3.112493 1_555
Bi0_0 Zr0_0 3.112544 1_555
Bi0_0 Zr1_2 3.112630 1_555
Bi0_1 Zr4_3 3.054119 1_555
Bi0_1 Zr4_7 3.054120 1_555
Bi0_1 Zr3_5 3.054143 1_555
Bi0_1 Zr3_1 3.054144 1_455
Bi0_1 Zr5_5 3.054221 1_555
Bi0_1 Zr5_1 3.054222 1_455
Bi0_1 Zr2_1 3.112493 1_555
Bi0_1 Zr0_1 3.112544 1_555
Bi0_1 Zr1_3 3.112630 1_555
Bi0_2 Zr4_0 3.054119 1_555
Bi0_2 Zr4_4 3.054120 1_555
Bi0_2 Zr3_6 3.054143 1_555
Bi0_2 Zr3_2 3.054144 1_455
Bi0_2 Zr5_6 3.054221 1_554
Bi0_2 Zr5_2 3.054222 1_454
Bi0_2 Zr2_2 3.112493 1_555
Bi0_2 Zr0_2 3.112544 1_555
Bi0_2 Zr1_0 3.112630 1_565
Bi0_3 Zr4_1 3.054119 1_555
Bi0_3 Zr4_5 3.054120 1_555
Bi0_3 Zr3_7 3.054143 1_555
Bi0_3 Zr3_3 3.054144 1_455
Bi0_3 Zr5_7 3.054221 1_555
Bi0_3 Zr5_3 3.054222 1_455
Bi0_3 Zr2_3 3.112493 1_555
Bi0_3 Zr0_3 3.112544 1_555
Bi0_3 Zr1_1 3.112630 1_565
Bi0_4 Zr4_6 3.054119 1_555
Bi0_4 Zr4_2 3.054120 1_655
Bi0_4 Zr3_0 3.054143 1_555
Bi0_4 Zr3_4 3.054144 1_555
Bi0_4 Zr5_0 3.054221 1_554
Bi0_4 Zr5_4 3.054222 1_554
Bi0_4 Zr2_4 3.112493 1_555
Bi0_4 Zr0_4 3.112544 1_555
Bi0_4 Zr1_6 3.112630 1_555
Bi0_5 Zr4_7 3.054119 1_555
Bi0_5 Zr4_3 3.054120 1_655
Bi0_5 Zr3_1 3.054143 1_555
Bi0_5 Zr3_5 3.054144 1_555
Bi0_5 Zr5_1 3.054221 1_555
Bi0_5 Zr5_5 3.054222 1_555
Bi0_5 Zr2_5 3.112493 1_555
Bi0_5 Zr0_5 3.112544 1_555
Bi0_5 Zr1_7 3.112630 1_555
Bi0_6 Zr4_4 3.054119 1_555
Bi0_6 Zr4_0 3.054120 1_655
Bi0_6 Zr3_2 3.054143 1_555
Bi0_6 Zr3_6 3.054144 1_555
Bi0_6 Zr5_2 3.054221 1_554
Bi0_6 Zr5_6 3.054222 1_554
Bi0_6 Zr2_6 3.112493 1_555
Bi0_6 Zr0_6 3.112544 1_555
Bi0_6 Zr1_4 3.112630 1_565
Bi0_7 Zr4_5 3.054119 1_555
Bi0_7 Zr4_1 3.054120 1_655
Bi0_7 Zr3_3 3.054143 1_555
Bi0_7 Zr3_7 3.054144 1_555
Bi0_7 Zr5_3 3.054221 1_555
Bi0_7 Zr5_7 3.054222 1_555
Bi0_7 Zr2_7 3.112493 1_555
Bi0_7 Zr0_7 3.112544 1_555
Bi0_7 Zr1_5 3.112630 1_565
Bi1_0 Zr3_4 3.054119 1_555
Bi1_0 Zr3_0 3.054120 1_455
Bi1_0 Zr5_1 3.054141 1_455
Bi1_0 Zr5_5 3.054143 1_555
Bi1_0 Zr4_4 3.054229 1_545
Bi1_0 Zr4_0 3.054230 1_545
Bi1_0 Zr1_0 3.112466 1_555
Bi1_0 Zr0_0 3.112533 1_555
Bi1_0 Zr2_1 3.112624 1_555
Bi1_1 Zr3_5 3.054119 1_555
Bi1_1 Zr3_1 3.054120 1_455
Bi1_1 Zr5_0 3.054141 1_455
Bi1_1 Zr5_4 3.054143 1_555
Bi1_1 Zr4_5 3.054229 1_545
Bi1_1 Zr4_1 3.054230 1_545
Bi1_1 Zr1_1 3.112466 1_555
Bi1_1 Zr0_1 3.112533 1_555
Bi1_1 Zr2_0 3.112624 1_556
Bi1_2 Zr3_6 3.054119 1_555
Bi1_2 Zr3_2 3.054120 1_455
Bi1_2 Zr5_3 3.054141 1_455
Bi1_2 Zr5_7 3.054143 1_555
Bi1_2 Zr4_6 3.054229 1_555
Bi1_2 Zr4_2 3.054230 1_555
Bi1_2 Zr1_2 3.112466 1_555
Bi1_2 Zr0_2 3.112533 1_555
Bi1_2 Zr2_3 3.112624 1_555
Bi1_3 Zr3_7 3.054119 1_555
Bi1_3 Zr3_3 3.054120 1_455
Bi1_3 Zr5_2 3.054141 1_455
Bi1_3 Zr5_6 3.054143 1_555
Bi1_3 Zr4_7 3.054229 1_555
Bi1_3 Zr4_3 3.054230 1_555
Bi1_3 Zr1_3 3.112466 1_555
Bi1_3 Zr0_3 3.112533 1_555
Bi1_3 Zr2_2 3.112624 1_556
Bi1_4 Zr3_0 3.054119 1_555
Bi1_4 Zr3_4 3.054120 1_555
Bi1_4 Zr5_5 3.054141 1_555
Bi1_4 Zr5_1 3.054143 1_555
Bi1_4 Zr4_0 3.054229 1_645
Bi1_4 Zr4_4 3.054230 1_545
Bi1_4 Zr1_4 3.112466 1_555
Bi1_4 Zr0_4 3.112533 1_555
Bi1_4 Zr2_5 3.112624 1_555
Bi1_5 Zr3_1 3.054119 1_555
Bi1_5 Zr3_5 3.054120 1_555
Bi1_5 Zr5_4 3.054141 1_555
Bi1_5 Zr5_0 3.054143 1_555
Bi1_5 Zr4_1 3.054229 1_645
Bi1_5 Zr4_5 3.054230 1_545
Bi1_5 Zr1_5 3.112466 1_555
Bi1_5 Zr0_5 3.112533 1_555
Bi1_5 Zr2_4 3.112624 1_556
Bi1_6 Zr3_2 3.054119 1_555
Bi1_6 Zr3_6 3.054120 1_555
Bi1_6 Zr5_7 3.054141 1_555
Bi1_6 Zr5_3 3.054143 1_555
Bi1_6 Zr4_2 3.054229 1_655
Bi1_6 Zr4_6 3.054230 1_555
Bi1_6 Zr1_6 3.112466 1_555
Bi1_6 Zr0_6 3.112533 1_555
Bi1_6 Zr2_7 3.112624 1_555
Bi1_7 Zr3_3 3.054119 1_555
Bi1_7 Zr3_7 3.054120 1_555
Bi1_7 Zr5_6 3.054141 1_555
Bi1_7 Zr5_2 3.054143 1_555
Bi1_7 Zr4_3 3.054229 1_655
Bi1_7 Zr4_7 3.054230 1_555
Bi1_7 Zr1_7 3.112466 1_555
Bi1_7 Zr0_7 3.112533 1_555
Bi1_7 Zr2_6 3.112624 1_556
