# generated using pymatgen
data_Ba6MgSc2C2(O3F7)2
_symmetry_space_group_name_H-M   'P 1'
_cell_length_a   6.41481948
_cell_length_b   9.12206425
_cell_length_c   9.12206480
_cell_angle_alpha   97.61257998
_cell_angle_beta   94.46391462
_cell_angle_gamma   85.53608558
_symmetry_Int_Tables_number   1
_chemical_formula_structural   Ba6MgSc2C2(O3F7)2
_chemical_formula_sum   'Ba6 Mg1 Sc2 C2 O6 F14'
_cell_volume   526.24804394
_cell_formula_units_Z   1
loop_
 _symmetry_equiv_pos_site_id
 _symmetry_equiv_pos_as_xyz
  1  'x, y, z'
loop_
 _atom_site_type_symbol
 _atom_site_label
 _atom_site_symmetry_multiplicity
 _atom_site_fract_x
 _atom_site_fract_y
 _atom_site_fract_z
 _atom_site_occupancy
  Ba  Ba0  1  0.25024859  0.83749051  0.60405377  1
  Ba  Ba1  1  0.74975141  0.60405377  0.83749051  1
  Ba  Ba2  1  0.25024859  0.39594623  0.16250949  1
  Ba  Ba3  1  0.88028042  0.14709619  0.85290381  1
  Ba  Ba4  1  0.11971958  0.85290381  0.14709619  1
  Ba  Ba5  1  0.74975141  0.16250949  0.39594623  1
  Mg  Mg0  1  0.50000000  -0.00000000  -0.00000000  1
  Sc  Sc0  1  0.31251218  0.28567924  0.71432076  1
  Sc  Sc1  1  0.68748782  0.71432076  0.28567924  1
  C  C0  1  0.26757847  0.48008062  0.51991938  1
  C  C1  1  0.73242153  0.51991938  0.48008062  1
  O  O0  1  0.21785205  0.57323480  0.42676520  1
  O  O1  1  0.70626371  0.66282312  0.52253163  1
  O  O2  1  0.29373629  0.52253163  0.66282312  1
  O  O3  1  0.29373629  0.33717688  0.47746837  1
  O  O4  1  0.78214795  0.42676520  0.57323480  1
  O  O5  1  0.70626371  0.47746837  0.33717688  1
  F  F0  1  0.50000000  0.16323414  0.16323414  1
  F  F1  1  0.30660743  0.12546317  0.87453683  1
  F  F2  1  0.69339257  0.87453683  0.12546317  1
  F  F3  1  0.50000000  0.83676586  0.83676586  1
  F  F4  1  0.55565265  0.12766092  0.63981354  1
  F  F5  1  0.44434735  0.63981354  0.12766092  1
  F  F6  1  0.08708570  0.39662926  0.87575217  1
  F  F7  1  0.55565265  0.36018646  0.87233908  1
  F  F8  1  0.08708570  0.12424783  0.60337074  1
  F  F9  1  0.91291430  0.87575217  0.39662926  1
  F  F10  1  1.00000000  0.84752465  0.84752465  1
  F  F11  1  0.00000000  0.15247535  0.15247535  1
  F  F12  1  0.91291430  0.60337074  0.12424783  1
  F  F13  1  0.44434735  0.87233908  0.36018646  1
loop_
_geom_bond_atom_site_label_1
_geom_bond_atom_site_label_2
_geom_bond_distance
_geom_bond_site_symmetry_2
Ba0 F3 2.558478 1_555
Ba0 F13 2.698187 1_555
Ba0 O0 2.731705 1_555
Ba0 F8 2.741380 1_565
Ba0 F9 2.793688 1_455
Ba0 F10 2.827767 1_455
Ba1 F3 2.558477 1_555
Ba1 F7 2.698187 1_555
Ba1 O4 2.731705 1_555
Ba1 F12 2.741380 1_556
Ba1 F6 2.793688 1_655
Ba1 F10 2.827767 1_555
Ba2 F0 2.558477 1_555
Ba2 F5 2.698187 1_555
Ba2 O0 2.731705 1_555
Ba2 F6 2.741380 1_554
Ba2 F12 2.793688 1_455
Ba2 F11 2.827767 1_555
Ba3 F6 2.699263 1_655
Ba3 F8 2.699263 1_655
Ba3 F1 2.720179 1_655
Ba3 F7 2.735407 1_555
Ba3 F4 2.735407 1_555
Ba3 F10 2.775530 1_545
Ba3 F11 2.775530 1_656
Ba4 F12 2.699263 1_455
Ba4 F9 2.699263 1_455
Ba4 F2 2.720179 1_455
Ba4 F5 2.735407 1_555
Ba4 F13 2.735407 1_555
Ba4 F11 2.775530 1_565
Ba4 F10 2.775530 1_454
Ba5 F0 2.558478 1_555
Ba5 F4 2.698187 1_555
Ba5 O4 2.731705 1_555
Ba5 F9 2.741380 1_545
Ba5 F8 2.793688 1_655
Ba5 F11 2.827767 1_655
C0 O0 1.285636 1_555
C0 O3 1.311390 1_555
C0 O2 1.311391 1_555
C1 O4 1.285636 1_555
C1 O1 1.311390 1_555
C1 O5 1.311391 1_555
O1 Sc1 2.263383 1_555
O2 Sc0 2.263383 1_555
O3 Sc0 2.263383 1_555
O5 Sc1 2.263383 1_555
F0 Mg0 1.961374 1_555
F1 Mg0 2.015870 1_556
F1 Sc0 2.203762 1_555
F2 Mg0 2.015870 1_565
F2 Sc1 2.203762 1_555
F3 Mg0 1.961374 1_566
F4 Sc0 2.127880 1_555
F5 Sc1 2.127880 1_555
F6 Sc0 2.234445 1_555
F7 Sc0 2.127880 1_555
F8 Sc0 2.234445 1_555
F9 Sc1 2.234445 1_555
F12 Sc1 2.234445 1_555
F13 Sc1 2.127880 1_555
