# generated using pymatgen
data_Li4Mn5SbO12
_symmetry_space_group_name_H-M   'P 1'
_cell_length_a   5.27731986
_cell_length_b   5.27731986
_cell_length_c   10.63135934
_cell_angle_alpha   85.02107443
_cell_angle_beta   85.02107443
_cell_angle_gamma   116.77147579
_symmetry_Int_Tables_number   1
_chemical_formula_structural   Li4Mn5SbO12
_chemical_formula_sum   'Li4 Mn5 Sb1 O12'
_cell_volume   260.69890014
_cell_formula_units_Z   1
loop_
 _symmetry_equiv_pos_site_id
 _symmetry_equiv_pos_as_xyz
  1  'x, y, z'
loop_
 _atom_site_type_symbol
 _atom_site_label
 _atom_site_symmetry_multiplicity
 _atom_site_fract_x
 _atom_site_fract_y
 _atom_site_fract_z
 _atom_site_occupancy
  Li  Li0  1  0.43053100  0.07711200  0.71059300  1
  Li  Li1  1  0.92288800  0.56946900  0.28940700  1
  Li  Li2  1  0.07711200  0.43053100  0.71059300  1
  Li  Li3  1  0.56946900  0.92288800  0.28940700  1
  Mn  Mn0  1  0.83561100  0.16438900  0.50000000  1
  Mn  Mn1  1  0.66617500  0.33382500  0.00000000  1
  Mn  Mn2  1  0.50000000  0.50000000  0.50000000  1
  Mn  Mn3  1  0.33382500  0.66617500  0.00000000  1
  Mn  Mn4  1  0.16438900  0.83561100  0.50000000  1
  Sb  Sb0  1  0.00000000  0.00000000  0.00000000  1
  O  O0  1  0.66245500  0.99865400  0.10389500  1
  O  O1  1  0.00134600  0.33754500  0.89610500  1
  O  O2  1  0.59103900  0.22619900  0.39066600  1
  O  O3  1  0.77380100  0.40896100  0.60933400  1
  O  O4  1  0.15716600  0.15716600  0.59027500  1
  O  O5  1  0.30145900  0.30145900  0.08820500  1
  O  O6  1  0.69854100  0.69854100  0.91179500  1
  O  O7  1  0.84283400  0.84283400  0.40972500  1
  O  O8  1  0.22619900  0.59103900  0.39066600  1
  O  O9  1  0.40896100  0.77380100  0.60933400  1
  O  O10  1  0.99865400  0.66245500  0.10389500  1
  O  O11  1  0.33754500  0.00134600  0.89610500  1
loop_
_geom_bond_atom_site_label_1
_geom_bond_atom_site_label_2
_geom_bond_distance
_geom_bond_site_symmetry_2
Li0 O11 1.951613 1_555
Li0 O9 1.972366 1_545
Li0 O3 1.995944 1_555
Li0 O4 2.161353 1_555
Li1 O10 1.951613 1_555
Li1 O8 1.972366 1_655
Li1 O2 1.995944 1_555
Li1 O7 2.161353 1_555
Li2 O1 1.951613 1_555
Li2 O3 1.972366 1_455
Li2 O9 1.995944 1_555
Li2 O4 2.161353 1_555
Li3 O0 1.951613 1_555
Li3 O2 1.972366 1_565
Li3 O8 1.995944 1_555
Li3 O7 2.161353 1_555
Mn0 O3 1.922821 1_555
Mn0 O2 1.922821 1_555
Mn0 O7 2.033917 1_545
Mn0 O4 2.033917 1_655
Mn0 O9 2.370296 1_545
Mn0 O8 2.370296 1_655
Mn1 O0 1.993716 1_545
Mn1 O1 1.993716 1_654
Mn1 O5 1.993949 1_555
Mn1 O6 1.993949 1_554
Mn1 O10 2.287788 1_555
Mn1 O11 2.287788 1_554
Mn2 O7 1.978932 1_555
Mn2 O4 1.978932 1_555
Mn2 O3 2.118903 1_555
Mn2 O9 2.118903 1_555
Mn2 O2 2.118903 1_555
Mn2 O8 2.118903 1_555
Mn3 O10 1.993716 1_455
Mn3 O11 1.993716 1_564
Mn3 O5 1.993949 1_555
Mn3 O6 1.993949 1_554
Mn3 O0 2.287788 1_555
Mn3 O1 2.287788 1_554
Mn4 O9 1.922821 1_555
Mn4 O8 1.922821 1_555
Mn4 O7 2.033917 1_455
Mn4 O4 2.033917 1_565
Mn4 O3 2.370296 1_455
Mn4 O2 2.370296 1_565
O0 Sb0 2.009709 1_665
O1 Sb0 2.009709 1_556
O5 Sb0 2.044287 1_555
O6 Sb0 2.044287 1_666
O10 Sb0 2.009709 1_665
O11 Sb0 2.009709 1_556
