# generated using pymatgen
data_NaCaFe2(SiO3)4
_symmetry_space_group_name_H-M   'P 1'
_cell_length_a   5.35232861
_cell_length_b   9.79547158
_cell_length_c   9.04714176
_cell_angle_alpha   90.01423136
_cell_angle_beta   90.00121711
_cell_angle_gamma   105.01217425
_symmetry_Int_Tables_number   1
_chemical_formula_structural   NaCaFe2(SiO3)4
_chemical_formula_sum   'Na2 Ca2 Fe4 Si8 O24'
_cell_volume   458.14034703
_cell_formula_units_Z   2
loop_
 _symmetry_equiv_pos_site_id
 _symmetry_equiv_pos_as_xyz
  1  'x, y, z'
loop_
 _atom_site_type_symbol
 _atom_site_label
 _atom_site_symmetry_multiplicity
 _atom_site_fract_x
 _atom_site_fract_y
 _atom_site_fract_z
 _atom_site_occupancy
  Na  Na0  1  0.75024100  0.49988100  0.79329400  1
  Na  Na1  1  0.24992000  0.99996700  0.30038400  1
  Ca  Ca0  1  0.24982300  0.49992900  0.19411100  1
  Ca  Ca1  1  0.75015500  0.00009100  0.70311100  1
  Fe  Fe0  1  0.75004900  0.00004200  0.10276100  1
  Fe  Fe1  1  0.74991200  0.50004500  0.40739600  1
  Fe  Fe2  1  0.25001600  0.99998700  0.90789000  1
  Fe  Fe3  1  0.25047500  0.50021700  0.60275400  1
  Si  Si0  1  0.55900800  0.28903400  0.09364400  1
  Si  Si1  1  0.05262500  0.78805900  0.58659200  1
  Si  Si2  1  0.94102200  0.71096700  0.09362300  1
  Si  Si3  1  0.44722600  0.21188600  0.58661500  1
  Si  Si4  1  0.04987700  0.28736000  0.91205500  1
  Si  Si5  1  0.55499800  0.79032600  0.40571400  1
  Si  Si6  1  0.45016400  0.71262700  0.91207200  1
  Si  Si7  1  0.94497400  0.20974600  0.40579100  1
  O  O0  1  0.64752100  0.64621200  0.02104600  1
  O  O1  1  0.15315900  0.15206300  0.51178700  1
  O  O2  1  0.85257900  0.35378200  0.02119300  1
  O  O3  1  0.34668100  0.84785100  0.51178200  1
  O  O4  1  0.54796000  0.36720100  0.25122600  1
  O  O5  1  0.04539600  0.86158200  0.74482500  1
  O  O6  1  0.95197900  0.63278500  0.25117100  1
  O  O7  1  0.45447200  0.13831500  0.74478700  1
  O  O8  1  0.48486900  0.11688600  0.08960700  1
  O  O9  1  0.96375100  0.61643400  0.57223700  1
  O  O10  1  0.01511600  0.88310200  0.08961300  1
  O  O11  1  0.53592600  0.38350800  0.57220200  1
  O  O12  1  0.16054500  0.65431200  0.99434600  1
  O  O13  1  0.65756500  0.14707600  0.48587200  1
  O  O14  1  0.33951400  0.34567500  0.99438400  1
  O  O15  1  0.84235500  0.85292800  0.48591100  1
  O  O16  1  0.04622600  0.35364600  0.75190100  1
  O  O17  1  0.54881400  0.86259300  0.24626800  1
  O  O18  1  0.45358400  0.64623000  0.75185700  1
  O  O19  1  0.95130000  0.13758300  0.24625400  1
  O  O20  1  0.95759800  0.11451100  0.92241600  1
  O  O21  1  0.48015700  0.61676000  0.40442500  1
  O  O22  1  0.54246000  0.88546400  0.92233700  1
  O  O23  1  0.01998800  0.38333600  0.40475000  1
loop_
_geom_bond_atom_site_label_1
_geom_bond_atom_site_label_2
_geom_bond_distance
_geom_bond_site_symmetry_2
Na0 O16 2.424295 1_655
Na0 O18 2.428206 1_555
Na0 O9 2.436076 1_555
Na0 O11 2.436722 1_555
Na0 O2 2.647030 1_556
Na0 O0 2.647521 1_556
Na0 O12 2.949093 1_655
Na0 O14 2.950507 1_555
Na1 O17 2.392630 1_555
Na1 O19 2.393329 1_465
Na1 O10 2.404070 1_555
Na1 O8 2.405097 1_565
Na1 O1 2.558170 1_565
Na1 O3 2.558798 1_555
Na1 O13 2.832485 1_565
Na1 O15 2.832687 1_455
Ca0 O6 2.361334 1_455
Ca0 O4 2.361942 1_555
Ca0 O21 2.391210 1_555
Ca0 O23 2.392197 1_555
Ca0 O14 2.480544 1_554
Ca0 O12 2.481384 1_554
Ca0 O2 2.727520 1_455
Ca0 O0 2.730736 1_555
Ca1 O7 2.364283 1_555
Ca1 O5 2.364585 1_645
Ca1 O20 2.404096 1_555
Ca1 O22 2.405168 1_545
Ca1 O15 2.559312 1_545
Ca1 O13 2.559755 1_555
Ca1 O1 2.864062 1_655
Ca1 O3 2.865996 1_545
Fe0 O19 1.976873 1_555
Fe0 O17 1.976907 1_545
Fe0 O8 2.044568 1_555
Fe0 O10 2.044724 1_645
Fe0 O20 2.123475 1_554
Fe0 O22 2.124062 1_544
Fe1 O4 2.031821 1_555
Fe1 O6 2.032362 1_555
Fe1 O9 2.038860 1_555
Fe1 O11 2.040006 1_555
Fe1 O21 2.060962 1_555
Fe1 O23 2.062327 1_655
Fe2 O5 2.107997 1_555
Fe2 O7 2.108049 1_565
Fe2 O20 2.152870 1_465
Fe2 O22 2.152969 1_555
Fe2 O8 2.201680 1_566
Fe2 O10 2.202244 1_556
Fe3 O18 2.059280 1_555
Fe3 O16 2.065213 1_555
Fe3 O11 2.149957 1_555
Fe3 O9 2.152323 1_455
Fe3 O21 2.303938 1_555
Fe3 O23 2.304101 1_555
O0 Si2 1.668772 1_555
O0 Si6 1.693320 1_554
O1 Si3 1.673600 1_555
O1 Si7 1.675369 1_455
O2 Si0 1.668781 1_555
O2 Si4 1.693831 1_654
O3 Si1 1.673597 1_555
O3 Si5 1.675353 1_555
O4 Si0 1.626410 1_555
O5 Si1 1.607313 1_555
O6 Si2 1.626465 1_555
O7 Si3 1.607365 1_555
O8 Si0 1.629610 1_555
O9 Si1 1.629419 1_655
O10 Si2 1.629506 1_455
O11 Si3 1.629479 1_555
O12 Si6 1.680717 1_555
O12 Si2 1.683099 1_456
O13 Si7 1.667094 1_555
O13 Si3 1.694458 1_555
O14 Si4 1.680863 1_555
O14 Si0 1.682946 1_556
O15 Si5 1.667073 1_555
O15 Si1 1.694335 1_655
O16 Si4 1.590104 1_555
O17 Si5 1.611130 1_555
O18 Si6 1.590615 1_555
O19 Si7 1.611204 1_555
O20 Si4 1.638996 1_655
O21 Si5 1.642657 1_555
O22 Si6 1.638788 1_555
O23 Si7 1.642854 1_455
