# generated using pymatgen
data_FeCo5N4
_symmetry_space_group_name_H-M   'P 1'
_cell_length_a   6.83877500
_cell_length_b   5.88679300
_cell_length_c   4.52768900
_cell_angle_alpha   90.00000000
_cell_angle_beta   90.00000000
_cell_angle_gamma   90.00000000
_symmetry_Int_Tables_number   1
_chemical_formula_structural   FeCo5N4
_chemical_formula_sum   'Fe2 Co10 N8'
_cell_volume   182.27775389
_cell_formula_units_Z   2
loop_
 _symmetry_equiv_pos_site_id
 _symmetry_equiv_pos_as_xyz
  1  'x, y, z'
loop_
 _atom_site_type_symbol
 _atom_site_label
 _atom_site_symmetry_multiplicity
 _atom_site_fract_x
 _atom_site_fract_y
 _atom_site_fract_z
 _atom_site_occupancy
  Fe  Fe0  1  0.75000000  0.25000000  0.67925300  1
  Fe  Fe1  1  0.25000000  0.75000000  0.32074700  1
  Co  Co0  1  0.56519300  0.52487100  0.25253100  1
  Co  Co1  1  0.93480700  0.52487100  0.25253100  1
  Co  Co2  1  0.56519300  0.97512900  0.25253100  1
  Co  Co3  1  0.93480700  0.97512900  0.25253100  1
  Co  Co4  1  0.43480700  0.47512900  0.74746900  1
  Co  Co5  1  0.06519300  0.47512900  0.74746900  1
  Co  Co6  1  0.43480700  0.02487100  0.74746900  1
  Co  Co7  1  0.06519300  0.02487100  0.74746900  1
  Co  Co8  1  0.75000000  0.75000000  0.76108200  1
  Co  Co9  1  0.25000000  0.25000000  0.23891800  1
  N  N0  1  0.75000000  0.02621800  0.96926000  1
  N  N1  1  0.75000000  0.47378200  0.96926000  1
  N  N2  1  0.25000000  0.97378200  0.03074000  1
  N  N3  1  0.25000000  0.52621800  0.03074000  1
  N  N4  1  0.48842000  0.75000000  0.54546000  1
  N  N5  1  0.01158000  0.75000000  0.54546000  1
  N  N6  1  0.51158000  0.25000000  0.45454000  1
  N  N7  1  0.98842000  0.25000000  0.45454000  1
loop_
_geom_bond_atom_site_label_1
_geom_bond_atom_site_label_2
_geom_bond_distance
_geom_bond_site_symmetry_2
Fe0 N1 1.859990 1_555
Fe0 N0 1.859990 1_555
Fe0 N6 1.921899 1_555
Fe0 N7 1.921899 1_555
Fe1 N2 1.859990 1_555
Fe1 N3 1.859990 1_555
Fe1 N5 1.921899 1_555
Fe1 N4 1.921899 1_555
Co0 N1 1.825581 1_554
Co0 N6 1.894535 1_555
Co0 N4 1.947074 1_555
Co0 N3 2.377984 1_555
Co1 N1 1.825581 1_554
Co1 N7 1.894535 1_555
Co1 N5 1.947074 1_655
Co1 N3 2.377984 1_655
Co2 N0 1.825581 1_564
Co2 N6 1.894535 1_565
Co2 N4 1.947074 1_555
Co2 N2 2.377984 1_555
Co3 N0 1.825581 1_564
Co3 N7 1.894535 1_565
Co3 N5 1.947074 1_655
Co3 N2 2.377984 1_655
Co4 N3 1.825581 1_556
Co4 N4 1.894535 1_555
Co4 N6 1.947074 1_555
Co4 N1 2.377984 1_555
Co5 N3 1.825581 1_556
Co5 N5 1.894535 1_555
Co5 N7 1.947074 1_455
Co5 N1 2.377984 1_455
Co6 N2 1.825581 1_546
Co6 N4 1.894535 1_545
Co6 N6 1.947074 1_555
Co6 N0 2.377984 1_555
Co7 N2 1.825581 1_546
Co7 N5 1.894535 1_545
Co7 N7 1.947074 1_455
Co7 N0 2.377984 1_455
Co8 N0 1.879476 1_565
Co8 N1 1.879476 1_555
Co8 N5 2.037944 1_655
Co8 N4 2.037944 1_555
Co9 N3 1.879476 1_555
Co9 N2 1.879476 1_545
Co9 N7 2.037944 1_455
Co9 N6 2.037944 1_555
