# generated using pymatgen
data_Li9Mn2Co5O16
_symmetry_space_group_name_H-M   'P 1'
_cell_length_a   10.55447021
_cell_length_b   10.55447021
_cell_length_c   10.26189870
_cell_angle_alpha   67.22868838
_cell_angle_beta   67.22868838
_cell_angle_gamma   15.73577689
_symmetry_Int_Tables_number   1
_chemical_formula_structural   Li9Mn2Co5O16
_chemical_formula_sum   'Li9 Mn2 Co5 O16'
_cell_volume   285.37675454
_cell_formula_units_Z   1
loop_
 _symmetry_equiv_pos_site_id
 _symmetry_equiv_pos_as_xyz
  1  'x, y, z'
loop_
 _atom_site_type_symbol
 _atom_site_label
 _atom_site_symmetry_multiplicity
 _atom_site_fract_x
 _atom_site_fract_y
 _atom_site_fract_z
 _atom_site_occupancy
  Li  Li0  1  0.62873300  0.62873300  0.80105400  1
  Li  Li1  1  0.87082200  0.87082200  0.44762200  1
  Li  Li2  1  0.12505200  0.12505200  0.05944000  1
  Li  Li3  1  0.12747100  0.12747100  0.55741000  1
  Li  Li4  1  0.37200300  0.37200300  0.19681800  1
  Li  Li5  1  0.62465900  0.62465900  0.31842500  1
  Li  Li6  1  0.87717600  0.87717600  0.93141500  1
  Li  Li7  1  0.37208500  0.37208500  0.68560300  1
  Li  Li8  1  0.25280000  0.25280000  0.62188600  1
  Mn  Mn0  1  0.00057300  0.00057300  0.99975500  1
  Mn  Mn1  1  0.75276200  0.75276200  0.86522000  1
  Co  Co0  1  0.49806000  0.49806000  0.25610900  1
  Co  Co1  1  0.99724300  0.99724300  0.50272300  1
  Co  Co2  1  0.24960100  0.24960100  0.12795000  1
  Co  Co3  1  0.50427000  0.50427000  0.74128400  1
  Co  Co4  1  0.74598700  0.74598700  0.39180200  1
  O  O0  1  0.55810000  0.55810000  0.02695900  1
  O  O1  1  0.80696300  0.80696300  0.67745900  1
  O  O2  1  0.05470700  0.05470700  0.28181100  1
  O  O3  1  0.06224900  0.06224900  0.77246900  1
  O  O4  1  0.30866200  0.30866200  0.39875200  1
  O  O5  1  0.55756700  0.55756700  0.53010800  1
  O  O6  1  0.80223200  0.80223200  0.16383500  1
  O  O7  1  0.30707800  0.30707800  0.90653700  1
  O  O8  1  0.69178900  0.69178900  0.57368600  1
  O  O9  1  0.94330900  0.94330900  0.22714700  1
  O  O10  1  0.19386700  0.19386700  0.85028000  1
  O  O11  1  0.19148100  0.19148100  0.33788800  1
  O  O12  1  0.44219200  0.44219200  0.97143900  1
  O  O13  1  0.69764800  0.69764800  0.08415800  1
  O  O14  1  0.94343900  0.94343900  0.71847700  1
  O  O15  1  0.43942100  0.43942100  0.47447800  1
loop_
_geom_bond_atom_site_label_1
_geom_bond_atom_site_label_2
_geom_bond_distance
_geom_bond_site_symmetry_2
Li0 O3 2.103521 1_565
Li0 O3 2.103521 1_655
Li0 O10 2.176054 1_565
Li0 O10 2.176054 1_655
Li0 O8 2.185941 1_555
Li0 O0 2.209040 1_556
Li1 O15 2.128350 1_655
Li1 O15 2.128350 1_565
Li1 O4 2.130199 1_655
Li1 O4 2.130199 1_565
Li1 O9 2.176327 1_555
Li1 O1 2.210140 1_555
Li2 O10 2.064928 1_554
Li2 O0 2.126768 1_545
Li2 O0 2.126768 1_455
Li2 O2 2.178961 1_555
Li2 O13 2.181053 1_545
Li2 O13 2.181053 1_455
Li3 O8 2.024756 1_455
Li3 O8 2.024756 1_545
Li3 O3 2.092459 1_555
Li3 O11 2.123664 1_555
Li3 O5 2.150012 1_455
Li3 O5 2.150012 1_545
Li4 O4 1.975738 1_555
Li4 O6 2.171716 1_545
Li4 O6 2.171716 1_455
Li4 O9 2.184055 1_455
Li4 O9 2.184055 1_545
Li4 O12 2.202392 1_554
Li5 O11 2.073102 1_655
Li5 O11 2.073102 1_565
Li5 O5 2.074945 1_555
Li5 O2 2.190345 1_565
Li5 O2 2.190345 1_655
Li5 O13 2.289417 1_555
Li6 O14 2.080543 1_555
Li6 O12 2.130895 1_565
Li6 O12 2.130895 1_655
Li6 O7 2.143246 1_655
Li6 O7 2.143246 1_565
Li6 O6 2.285503 1_556
Li7 O1 2.009383 1_545
Li7 O1 2.009383 1_455
Li7 O15 2.071843 1_555
Li7 O7 2.139998 1_555
Li7 O14 2.195615 1_545
Li7 O14 2.195615 1_455
Li8 O1 2.049411 1_455
Li8 O1 2.049411 1_545
Li8 O8 2.110154 1_545
Li8 O8 2.110154 1_455
Li8 O4 2.125408 1_555
Li8 O10 2.180533 1_555
Mn0 O0 1.968442 1_546
Mn0 O0 1.968442 1_456
Mn0 O12 1.984773 1_455
Mn0 O12 1.984773 1_545
Mn0 O9 2.166882 1_446
Mn0 O3 2.180049 1_555
Mn1 O1 1.813969 1_555
Mn1 O10 1.942960 1_565
Mn1 O10 1.942960 1_655
Mn1 O7 1.983297 1_565
Mn1 O7 1.983297 1_655
Mn1 O13 2.086263 1_556
Co0 O9 1.937100 1_545
Co0 O9 1.937100 1_455
Co0 O2 1.950431 1_655
Co0 O2 1.950431 1_565
Co0 O15 2.092319 1_555
Co0 O0 2.190600 1_555
Co1 O15 1.976653 1_565
Co1 O15 1.976653 1_655
Co1 O5 2.008611 1_655
Co1 O5 2.008611 1_565
Co1 O14 2.054551 1_555
Co1 O2 2.110523 1_665
Co2 O6 1.936724 1_545
Co2 O6 1.936724 1_455
Co2 O13 1.962407 1_545
Co2 O13 1.962407 1_455
Co2 O11 2.017971 1_555
Co2 O7 2.114944 1_554
Co3 O3 1.990687 1_565
Co3 O3 1.990687 1_655
Co3 O14 1.998202 1_455
Co3 O14 1.998202 1_545
Co3 O5 2.012678 1_555
Co3 O12 2.206215 1_555
Co4 O8 1.764959 1_555
Co4 O4 1.970558 1_655
Co4 O4 1.970558 1_565
Co4 O11 2.045797 1_655
Co4 O11 2.045797 1_565
Co4 O6 2.169288 1_555
