# generated using pymatgen
data_GdAl
_symmetry_space_group_name_H-M   'P 1'
_cell_length_a   5.59013318
_cell_length_b   5.91636684
_cell_length_c   5.91634663
_cell_angle_alpha   101.59742850
_cell_angle_beta   90.00025919
_cell_angle_gamma   90.00022790
_symmetry_Int_Tables_number   1
_chemical_formula_structural   GdAl
_chemical_formula_sum   'Gd4 Al4'
_cell_volume   191.67817444
_cell_formula_units_Z   4
loop_
 _symmetry_equiv_pos_site_id
 _symmetry_equiv_pos_as_xyz
  1  'x, y, z'
loop_
 _atom_site_type_symbol
 _atom_site_label
 _atom_site_symmetry_multiplicity
 _atom_site_fract_x
 _atom_site_fract_y
 _atom_site_fract_z
 _atom_site_occupancy
  Gd  Gd0  1  0.24999892  0.96776268  0.33790762  1
  Gd  Gd1  1  0.75000161  0.66209236  0.03223786  1
  Gd  Gd2  1  0.75000208  0.03223732  0.66209338  1
  Gd  Gd3  1  0.24999839  0.33790864  0.96776214  1
  Al  Al0  1  0.49999800  0.49999900  0.49999800  1
  Al  Al1  1  0.99999900  0.50000200  0.50000100  1
  Al  Al2  1  0.25000919  0.80910397  0.80911423  1
  Al  Al3  1  0.74999381  0.19089603  0.19088477  1
loop_
_geom_bond_atom_site_label_1
_geom_bond_atom_site_label_2
_geom_bond_distance
_geom_bond_site_symmetry_2
Gd0 Gd2 3.367849 1_465
Gd0 Gd2 3.367861 1_565
Gd0 Gd3 3.394062 1_564
Gd0 Gd1 3.610854 1_455
Gd0 Gd1 3.610901 1_555
Gd0 Gd3 3.924407 1_565
Gd0 Gd3 3.924411 1_554
Gd1 Gd3 3.367845 1_654
Gd1 Gd3 3.367859 1_554
Gd1 Gd2 3.394052 1_564
Gd1 Gd2 3.924410 1_565
Gd1 Gd2 3.924414 1_554
Gd2 Gd3 3.610850 1_655
Gd2 Gd3 3.610906 1_555
Al0 Al2 2.701355 1_555
Al0 Al3 2.701359 1_555
Al0 Al1 2.795061 1_455
Al0 Al1 2.795072 1_555
Al0 Gd3 3.402069 1_554
Al0 Gd0 3.402080 1_545
Al0 Gd1 3.402101 1_556
Al0 Gd2 3.402104 1_565
Al0 Gd1 3.405675 1_555
Al0 Gd3 3.405679 1_555
Al0 Gd0 3.405681 1_555
Al0 Gd2 3.405695 1_555
Al1 Al2 2.701381 1_655
Al1 Al3 2.701389 1_555
Al1 Gd1 3.402084 1_556
Al1 Gd2 3.402085 1_565
Al1 Gd3 3.402101 1_654
Al1 Gd0 3.402113 1_645
Al1 Gd1 3.405661 1_555
Al1 Gd3 3.405663 1_655
Al1 Gd0 3.405670 1_655
Al1 Gd2 3.405681 1_555
Al2 Gd0 3.080267 1_556
Al2 Gd3 3.080334 1_565
Al2 Gd3 3.115236 1_555
Al2 Gd0 3.115323 1_555
Al2 Gd1 3.282209 1_556
Al2 Gd2 3.282259 1_565
Al2 Gd1 3.282286 1_456
Al2 Gd2 3.282329 1_465
Al3 Gd2 3.080256 1_554
Al3 Gd1 3.080328 1_545
Al3 Gd1 3.115239 1_555
Al3 Gd2 3.115335 1_555
Al3 Gd3 3.282223 1_554
Al3 Gd3 3.282271 1_654
Al3 Gd0 3.282272 1_545
Al3 Gd0 3.282323 1_645
