# generated using pymatgen
data_Ir2(CN2)3
_symmetry_space_group_name_H-M   'P 1'
_cell_length_a   9.21615832
_cell_length_b   3.24428175
_cell_length_c   5.09485897
_cell_angle_alpha   90.00000468
_cell_angle_beta   65.51637136
_cell_angle_gamma   79.86254002
_symmetry_Int_Tables_number   1
_chemical_formula_structural   Ir2(CN2)3
_chemical_formula_sum   'Ir2 C3 N6'
_cell_volume   136.01979901
_cell_formula_units_Z   1
loop_
 _symmetry_equiv_pos_site_id
 _symmetry_equiv_pos_as_xyz
  1  'x, y, z'
loop_
 _atom_site_type_symbol
 _atom_site_label
 _atom_site_symmetry_multiplicity
 _atom_site_fract_x
 _atom_site_fract_y
 _atom_site_fract_z
 _atom_site_occupancy
  Ir  Ir0  1  0.34048700  0.82975600  0.00924900  1
  Ir  Ir1  1  0.65951300  0.17024400  0.99075100  1
  C  C0  1  0.64924800  0.67537600  0.49785800  1
  C  C1  1  0.35075200  0.32462400  0.50214200  1
  C  C2  1  0.00000000  0.00000000  0.50000000  1
  N  N0  1  0.32591600  0.33704100  0.75614600  1
  N  N1  1  0.67408400  0.66295900  0.24385400  1
  N  N2  1  0.39770400  0.30114900  0.22833800  1
  N  N3  1  0.60229600  0.69885100  0.77166200  1
  N  N4  1  0.10475400  0.94762300  0.25013600  1
  N  N5  1  0.89524600  0.05237700  0.74986400  1
loop_
_geom_bond_atom_site_label_1
_geom_bond_atom_site_label_2
_geom_bond_distance
_geom_bond_site_symmetry_2
Ir0 N4 1.967219 1_555
Ir0 N0 2.110738 1_564
Ir0 N0 2.110741 1_554
Ir0 N2 2.152817 1_555
Ir0 N2 2.152824 1_565
Ir0 N3 2.164707 1_554
Ir1 N5 1.967219 1_555
Ir1 N1 2.110738 1_546
Ir1 N1 2.110741 1_556
Ir1 N3 2.152817 1_555
Ir1 N3 2.152824 1_545
Ir1 N2 2.164707 1_556
C0 N1 1.216544 1_555
C0 N3 1.275584 1_555
C1 N0 1.216544 1_555
C1 N2 1.275584 1_555
C2 N5 1.226816 1_455
C2 N4 1.226816 1_545
