# generated using pymatgen
data_LiGaSe2
_symmetry_space_group_name_H-M   'P 1'
_cell_length_a   6.58957376
_cell_length_b   6.86953237
_cell_length_c   8.26428029
_cell_angle_alpha   90.00000000
_cell_angle_beta   90.00000000
_cell_angle_gamma   90.00000000
_symmetry_Int_Tables_number   1
_chemical_formula_structural   LiGaSe2
_chemical_formula_sum   'Li4 Ga4 Se8'
_cell_volume   374.10157459
_cell_formula_units_Z   4
loop_
 _symmetry_equiv_pos_site_id
 _symmetry_equiv_pos_as_xyz
  1  'x, y, z'
loop_
 _atom_site_type_symbol
 _atom_site_label
 _atom_site_symmetry_multiplicity
 _atom_site_fract_x
 _atom_site_fract_y
 _atom_site_fract_z
 _atom_site_occupancy
  Li  Li0  1  0.11960890  0.91360938  0.62158584  1
  Li  Li1  1  0.61960890  0.08639062  0.37841416  1
  Li  Li2  1  0.61960890  0.58639062  0.12158584  1
  Li  Li3  1  0.11960890  0.41360938  0.87841416  1
  Ga  Ga0  1  0.62273089  0.57334526  0.62580377  1
  Ga  Ga1  1  0.12273089  0.42665474  0.37419623  1
  Ga  Ga2  1  0.12273089  0.92665474  0.12580377  1
  Ga  Ga3  1  0.62273089  0.07334526  0.87419623  1
  Se  Se0  1  0.50583385  0.90660799  0.63443971  1
  Se  Se1  1  0.00583385  0.09339201  0.36556029  1
  Se  Se2  1  0.00583385  0.59339201  0.13443971  1
  Se  Se3  1  0.50583385  0.40660799  0.86556029  1
  Se  Se4  1  0.98982535  0.06671919  0.88119243  1
  Se  Se5  1  0.48982635  0.93328081  0.11880757  1
  Se  Se6  1  0.48982635  0.43328081  0.38119243  1
  Se  Se7  1  0.98982535  0.56671919  0.61880757  1
loop_
_geom_bond_atom_site_label_1
_geom_bond_atom_site_label_2
_geom_bond_distance
_geom_bond_site_symmetry_2
Li0 Se7 2.531894 1_455
Li0 Se4 2.537848 1_465
Li0 Se0 2.547728 1_555
Li0 Se1 2.562083 1_565
Li1 Se6 2.531892 1_555
Li1 Se5 2.537846 1_545
Li1 Se1 2.547728 1_655
Li1 Se0 2.562083 1_545
Li2 Se5 2.531892 1_555
Li2 Se6 2.537846 1_555
Li2 Se2 2.547728 1_655
Li2 Se3 2.562083 1_554
Li3 Se4 2.531894 1_455
Li3 Se7 2.537848 1_455
Li3 Se3 2.547728 1_555
Li3 Se2 2.562083 1_556
Ga0 Se6 2.404037 1_555
Ga0 Se3 2.414814 1_555
Ga0 Se0 2.416531 1_555
Ga0 Se7 2.420115 1_555
Ga1 Se7 2.404039 1_455
Ga1 Se2 2.414814 1_555
Ga1 Se1 2.416531 1_555
Ga1 Se6 2.420122 1_555
Ga2 Se4 2.404039 1_464
Ga2 Se1 2.414814 1_565
Ga2 Se2 2.416531 1_555
Ga2 Se5 2.420122 1_555
Ga3 Se5 2.404037 1_546
Ga3 Se0 2.414814 1_545
Ga3 Se3 2.416531 1_555
Ga3 Se4 2.420115 1_555
