# generated using pymatgen
data_Ho(BRu)4
_symmetry_space_group_name_H-M   'P 1'
_cell_length_a   9.19521491
_cell_length_b   9.19521491
_cell_length_c   9.19521491
_cell_angle_alpha   131.99188110
_cell_angle_beta   131.99188110
_cell_angle_gamma   70.24185011
_symmetry_Int_Tables_number   1
_chemical_formula_structural   Ho(BRu)4
_chemical_formula_sum   'Ho4 B16 Ru16'
_cell_volume   420.95116987
_cell_formula_units_Z   4
loop_
 _symmetry_equiv_pos_site_id
 _symmetry_equiv_pos_as_xyz
  1  'x, y, z'
loop_
 _atom_site_type_symbol
 _atom_site_label
 _atom_site_symmetry_multiplicity
 _atom_site_fract_x
 _atom_site_fract_y
 _atom_site_fract_z
 _atom_site_occupancy
  Ho  Ho0  1  0.25000000  0.25000000  0.00000000  1
  Ho  Ho1  1  0.75000000  0.75000000  0.00000000  1
  Ho  Ho2  1  0.50000000  0.00000000  0.50000000  1
  Ho  Ho3  1  0.00000000  0.50000000  0.50000000  1
  B  B0  1  0.22027300  0.91278100  0.97014100  1
  B  B1  1  0.72027300  0.75013200  0.30749200  1
  B  B2  1  0.16278100  0.97027300  0.47014100  1
  B  B3  1  0.66278100  0.19264000  0.19250800  1
  B  B4  1  0.52972700  0.33721900  0.52985900  1
  B  B5  1  0.02972700  0.49986800  0.19250800  1
  B  B6  1  0.58721900  0.27972700  0.02985900  1
  B  B7  1  0.08721900  0.05736000  0.30749200  1
  B  B8  1  0.44264000  0.41278100  0.69250800  1
  B  B9  1  0.94264000  0.25013200  0.02985900  1
  B  B10  1  0.00013200  0.47027300  0.80749200  1
  B  B11  1  0.50013200  0.69264000  0.52985900  1
  B  B12  1  0.30736000  0.83721900  0.80749200  1
  B  B13  1  0.80736000  0.99986800  0.47014100  1
  B  B14  1  0.74986800  0.77972700  0.69250800  1
  B  B15  1  0.24986800  0.55736000  0.97014100  1
  Ru  Ru0  1  0.53924800  0.07302300  0.23588000  1
  Ru  Ru1  1  0.03924800  0.80336800  0.46622500  1
  Ru  Ru2  1  0.32302300  0.28924800  0.73588000  1
  Ru  Ru3  1  0.82302300  0.08714300  0.03377500  1
  Ru  Ru4  1  0.21075200  0.17697700  0.26412000  1
  Ru  Ru5  1  0.71075200  0.44663200  0.03377500  1
  Ru  Ru6  1  0.42697700  0.96075200  0.76412000  1
  Ru  Ru7  1  0.92697700  0.16285700  0.46622500  1
  Ru  Ru8  1  0.33714300  0.57302300  0.53377500  1
  Ru  Ru9  1  0.83714300  0.30336800  0.76412000  1
  Ru  Ru10  1  0.05336800  0.78924800  0.96622500  1
  Ru  Ru11  1  0.55336800  0.58714300  0.26412000  1
  Ru  Ru12  1  0.41285700  0.67697700  0.96622500  1
  Ru  Ru13  1  0.91285700  0.94663200  0.73588000  1
  Ru  Ru14  1  0.69663200  0.46075200  0.53377500  1
  Ru  Ru15  1  0.19663200  0.66285700  0.23588000  1
loop_
_geom_bond_atom_site_label_1
_geom_bond_atom_site_label_2
_geom_bond_distance
_geom_bond_site_symmetry_2
Ho0 Ru15 2.916202 1_555
Ho0 Ru9 2.916202 1_454
Ho0 Ru6 2.916202 1_544
Ho0 Ru0 2.916202 1_555
Ho0 Ru2 3.161965 1_554
Ho0 Ru11 3.161965 1_555
Ho0 Ru4 3.161965 1_555
Ho0 Ru13 3.161965 1_444
Ho0 Ru14 3.224064 1_555
Ho0 Ru7 3.224064 1_454
Ho0 Ru1 3.224064 1_544
Ho0 Ru8 3.224064 1_555
Ho1 Ru14 2.916202 1_554
Ho1 Ru7 2.916202 1_565
Ho1 Ru1 2.916202 1_655
Ho1 Ru8 2.916202 1_554
Ho1 Ru3 3.161965 1_565
Ho1 Ru10 3.161965 1_654
Ho1 Ru12 3.161965 1_554
Ho1 Ru5 3.161965 1_555
Ho1 Ru6 3.224064 1_554
Ho1 Ru0 3.224064 1_565
Ho1 Ru15 3.224064 1_655
Ho1 Ru9 3.224064 1_554
Ho2 Ru13 2.916202 1_545
Ho2 Ru4 2.916202 1_555
Ho2 Ru2 2.916202 1_555
Ho2 Ru11 2.916202 1_545
Ho2 Ru0 3.161965 1_555
Ho2 Ru9 3.161965 1_555
Ho2 Ru6 3.161965 1_545
Ho2 Ru15 3.161965 1_545
Ho2 Ru5 3.224064 1_556
Ho2 Ru3 3.224064 1_556
Ho2 Ru10 3.224064 1_544
Ho2 Ru12 3.224064 1_544
Ho3 Ru5 2.916202 1_455
Ho3 Ru12 2.916202 1_555
Ho3 Ru10 2.916202 1_555
Ho3 Ru3 2.916202 1_455
Ho3 Ru8 3.161965 1_555
Ho3 Ru1 3.161965 1_555
Ho3 Ru7 3.161965 1_455
Ho3 Ru14 3.161965 1_455
Ho3 Ru13 3.224064 1_455
Ho3 Ru4 3.224064 1_555
Ho3 Ru11 3.224064 1_455
Ho3 Ru2 3.224064 1_555
B0 B12 1.787934 1_555
B0 Ru4 2.145354 1_566
B0 Ru10 2.167248 1_555
B0 Ru13 2.209593 1_455
B0 Ru12 2.285484 1_555
B0 Ru0 2.293302 1_566
B0 Ho3 2.953629 1_555
B0 Ho0 3.016380 1_566
B0 Ho2 3.224144 1_566
B1 B13 1.787934 1_555
B1 Ru5 2.145354 1_555
B1 Ru11 2.167248 1_555
B1 Ru12 2.209593 1_554
B1 Ru13 2.285484 1_555
B1 Ru1 2.293302 1_655
B1 Ho2 2.953629 1_565
B1 Ho1 3.016380 1_555
B1 Ho3 3.224144 1_655
B2 B7 1.787934 1_565
B2 Ru6 2.145354 1_555
B2 Ru1 2.167248 1_555
B2 Ru15 2.209593 1_555
B2 Ru7 2.285484 1_465
B2 Ru2 2.293302 1_565
B2 Ho1 2.953629 1_455
B2 Ho2 3.016380 1_565
B2 Ho0 3.224144 1_566
B3 B6 1.787934 1_555
B3 Ru7 2.145354 1_555
B3 Ru0 2.167248 1_555
B3 Ru14 2.209593 1_555
B3 Ru6 2.285484 1_544
B3 Ru3 2.293302 1_555
B3 Ho0 2.953629 1_555
B3 Ho3 3.016380 1_655
B3 Ho1 3.224144 1_545
B4 B8 1.787934 1_555
B4 Ru0 2.145354 1_555
B4 Ru14 2.167248 1_555
B4 Ru9 2.209593 1_555
B4 Ru8 2.285484 1_555
B4 Ru4 2.293302 1_555
B4 Ho1 2.953629 1_556
B4 Ho2 3.016380 1_555
B4 Ho0 3.224144 1_555
B5 B9 1.787934 1_455
B5 Ru1 2.145354 1_555
B5 Ru15 2.167248 1_555
B5 Ru8 2.209593 1_555
B5 Ru9 2.285484 1_454
B5 Ru5 2.293302 1_455
B5 Ho0 2.953629 1_555
B5 Ho3 3.016380 1_555
B5 Ho1 3.224144 1_455
B6 Ru2 2.145354 1_554
B6 Ru5 2.167248 1_555
B6 Ru11 2.209593 1_555
B6 Ru3 2.285484 1_555
B6 Ru6 2.293302 1_544
B6 Ho3 2.953629 1_655
B6 Ho0 3.016380 1_555
B6 Ho2 3.224144 1_554
B7 Ru3 2.145354 1_455
B7 Ru4 2.167248 1_555
B7 Ru10 2.209593 1_544
B7 Ru2 2.285484 1_555
B7 Ru7 2.293302 1_455
B7 Ho2 2.953629 1_555
B7 Ho1 3.016380 1_445
B7 Ho3 3.224144 1_555
B8 Ru12 2.145354 1_555
B8 Ru2 2.167248 1_555
B8 Ru5 2.209593 1_556
B8 Ru4 2.285484 1_555
B8 Ru8 2.293302 1_555
B8 Ho2 2.953629 1_555
B8 Ho1 3.016380 1_556
B8 Ho3 3.224144 1_555
B9 Ru13 2.145354 1_544
B9 Ru3 2.167248 1_555
B9 Ru4 2.209593 1_655
B9 Ru5 2.285484 1_555
B9 Ru9 2.293302 1_554
B9 Ho3 2.953629 1_655
B9 Ho0 3.016380 1_655
B9 Ho2 3.224144 1_554
B10 B15 1.787934 1_555
B10 Ru14 2.145354 1_455
B10 Ru9 2.167248 1_455
B10 Ru7 2.209593 1_455
B10 Ru15 2.285484 1_556
B10 Ru10 2.293302 1_555
B10 Ho0 2.953629 1_556
B10 Ho3 3.016380 1_555
B10 Ho1 3.224144 1_456
B11 B14 1.787934 1_555
B11 Ru15 2.145354 1_555
B11 Ru8 2.167248 1_555
B11 Ru6 2.209593 1_555
B11 Ru14 2.285484 1_555
B11 Ru11 2.293302 1_555
B11 Ho1 2.953629 1_556
B11 Ho2 3.016380 1_565
B11 Ho0 3.224144 1_555
B12 Ru8 2.145354 1_555
B12 Ru6 2.167248 1_555
B12 Ru1 2.209593 1_555
B12 Ru0 2.285484 1_566
B12 Ru12 2.293302 1_555
B12 Ho0 2.953629 1_566
B12 Ho3 3.016380 1_555
B12 Ho1 3.224144 1_556
B13 Ru9 2.145354 1_565
B13 Ru7 2.167248 1_565
B13 Ru0 2.209593 1_565
B13 Ru1 2.285484 1_655
B13 Ru13 2.293302 1_555
B13 Ho1 2.953629 1_555
B13 Ho2 3.016380 1_565
B13 Ho0 3.224144 1_666
B14 Ru10 2.145354 1_655
B14 Ru13 2.167248 1_555
B14 Ru3 2.209593 1_566
B14 Ru11 2.285484 1_555
B14 Ru14 2.293302 1_555
B14 Ho2 2.953629 1_565
B14 Ho1 3.016380 1_556
B14 Ho3 3.224144 1_655
B15 Ru11 2.145354 1_556
B15 Ru12 2.167248 1_555
B15 Ru2 2.209593 1_555
B15 Ru10 2.285484 1_555
B15 Ru15 2.293302 1_556
B15 Ho3 2.953629 1_555
B15 Ho0 3.016380 1_556
B15 Ho2 3.224144 1_566
