# generated using pymatgen
data_Ta3As
_symmetry_space_group_name_H-M   'P 1'
_cell_length_a   5.15299784
_cell_length_b   10.32439076
_cell_length_c   10.32439076
_cell_angle_alpha   90.00000000
_cell_angle_beta   90.00000000
_cell_angle_gamma   90.00000000
_symmetry_Int_Tables_number   1
_chemical_formula_structural   Ta3As
_chemical_formula_sum   'Ta24 As8'
_cell_volume   549.27372840
_cell_formula_units_Z   8
loop_
 _symmetry_equiv_pos_site_id
 _symmetry_equiv_pos_as_xyz
  1  'x, y, z'
loop_
 _atom_site_type_symbol
 _atom_site_label
 _atom_site_symmetry_multiplicity
 _atom_site_fract_x
 _atom_site_fract_y
 _atom_site_fract_z
 _atom_site_occupancy
  Ta  Ta0  1  0.26636216  0.83778206  0.15601481  1
  Ta  Ta1  1  0.26636216  0.66221794  0.34398519  1
  Ta  Ta2  1  0.76636216  0.65601481  0.16221794  1
  Ta  Ta3  1  0.76636216  0.84398519  0.33778206  1
  Ta  Ta4  1  0.73363784  0.16221794  0.84398519  1
  Ta  Ta5  1  0.73363784  0.33778206  0.65601481  1
  Ta  Ta6  1  0.23363784  0.34398519  0.83778206  1
  Ta  Ta7  1  0.23363784  0.15601481  0.66221794  1
  Ta  Ta8  1  0.98746644  0.25756766  0.10077547  1
  Ta  Ta9  1  0.98746644  0.24243234  0.39922453  1
  Ta  Ta10  1  0.48746644  0.60077547  0.74243234  1
  Ta  Ta11  1  0.48746644  0.89922453  0.75756766  1
  Ta  Ta12  1  0.01253356  0.74243234  0.89922453  1
  Ta  Ta13  1  0.01253356  0.75756766  0.60077547  1
  Ta  Ta14  1  0.51253356  0.39922453  0.25756766  1
  Ta  Ta15  1  0.51253356  0.10077547  0.24243234  1
  Ta  Ta16  1  0.24325355  0.44522306  0.54114451  1
  Ta  Ta17  1  0.24325355  0.05477694  0.95885549  1
  Ta  Ta18  1  0.74325355  0.04114451  0.55477694  1
  Ta  Ta19  1  0.74325355  0.45885549  0.94522306  1
  Ta  Ta20  1  0.75674645  0.55477694  0.45885549  1
  Ta  Ta21  1  0.75674645  0.94522306  0.04114451  1
  Ta  Ta22  1  0.25674645  0.95885549  0.44522306  1
  Ta  Ta23  1  0.25674645  0.54114451  0.05477694  1
  As  As0  1  0.48625692  0.26477575  0.04361310  1
  As  As1  1  0.48625692  0.23522425  0.45638690  1
  As  As2  1  0.98625692  0.54361310  0.73522425  1
  As  As3  1  0.98625692  0.95638690  0.76477575  1
  As  As4  1  0.51374308  0.73522425  0.95638690  1
  As  As5  1  0.51374308  0.76477575  0.54361310  1
  As  As6  1  0.01374308  0.45638690  0.26477575  1
  As  As7  1  0.01374308  0.04361310  0.23522425  1
loop_
_geom_bond_atom_site_label_1
_geom_bond_atom_site_label_2
_geom_bond_distance
_geom_bond_site_symmetry_2
As0 Ta19 2.607815 1_554
As0 Ta14 2.612398 1_555
As0 Ta6 2.622839 1_554
As0 Ta8 2.638201 1_455
As0 Ta4 2.644622 1_554
As0 Ta8 2.650347 1_555
As0 Ta17 2.652252 1_554
As0 Ta15 2.664357 1_555
As1 Ta18 2.607815 1_555
As1 Ta15 2.612398 1_555
As1 Ta7 2.622839 1_555
As1 Ta9 2.638201 1_455
As1 Ta5 2.644622 1_555
As1 Ta9 2.650347 1_555
As1 Ta16 2.652252 1_555
As1 Ta14 2.664357 1_555
As2 Ta16 2.607815 1_655
As2 Ta13 2.612398 1_655
As2 Ta5 2.622839 1_555
As2 Ta10 2.638201 1_555
As2 Ta6 2.644622 1_655
As2 Ta10 2.650347 1_655
As2 Ta19 2.652252 1_555
As2 Ta12 2.664357 1_655
As3 Ta17 2.607815 1_665
As3 Ta12 2.612398 1_655
As3 Ta4 2.622839 1_565
As3 Ta11 2.638201 1_555
As3 Ta7 2.644622 1_665
As3 Ta11 2.650347 1_655
As3 Ta18 2.652252 1_565
As3 Ta13 2.664357 1_655
As4 Ta23 2.607815 1_556
As4 Ta10 2.612398 1_555
As4 Ta2 2.622839 1_556
As4 Ta12 2.638201 1_655
As4 Ta0 2.644622 1_556
As4 Ta12 2.650347 1_555
As4 Ta21 2.652252 1_556
As4 Ta11 2.664357 1_555
As5 Ta22 2.607815 1_555
As5 Ta11 2.612398 1_555
As5 Ta3 2.622839 1_555
As5 Ta13 2.638201 1_655
As5 Ta1 2.644622 1_555
As5 Ta13 2.650347 1_555
As5 Ta20 2.652252 1_555
As5 Ta10 2.664357 1_555
As6 Ta20 2.607815 1_455
As6 Ta9 2.612398 1_455
As6 Ta1 2.622839 1_555
As6 Ta14 2.638201 1_555
As6 Ta2 2.644622 1_455
As6 Ta14 2.650347 1_455
As6 Ta23 2.652252 1_555
As6 Ta8 2.664357 1_455
As7 Ta21 2.607815 1_445
As7 Ta8 2.612398 1_455
As7 Ta0 2.622839 1_545
As7 Ta15 2.638201 1_555
As7 Ta3 2.644622 1_445
As7 Ta15 2.650347 1_455
As7 Ta22 2.652252 1_545
As7 Ta9 2.664357 1_455
