# generated using pymatgen
data_Na2(TaS2)3
_symmetry_space_group_name_H-M   'P 1'
_cell_length_a   14.77813153
_cell_length_b   14.77813153
_cell_length_c   14.77813202
_cell_angle_alpha   22.77507726
_cell_angle_beta   22.77507726
_cell_angle_gamma   22.77507836
_symmetry_Int_Tables_number   1
_chemical_formula_structural   Na2(TaS2)3
_chemical_formula_sum   'Na4 Ta6 S12'
_cell_volume   424.37198465
_cell_formula_units_Z   2
loop_
 _symmetry_equiv_pos_site_id
 _symmetry_equiv_pos_as_xyz
  1  'x, y, z'
loop_
 _atom_site_type_symbol
 _atom_site_label
 _atom_site_symmetry_multiplicity
 _atom_site_fract_x
 _atom_site_fract_y
 _atom_site_fract_z
 _atom_site_occupancy
  Na  Na0  1  0.91650690  0.91650690  0.91650690  1
  Na  Na1  1  0.58317900  0.58317900  0.58317900  1
  Na  Na2  1  0.41682100  0.41682100  0.41682100  1
  Na  Na3  1  0.08349310  0.08349310  0.08349310  1
  Ta  Ta0  1  0.33317966  0.33317966  0.33317966  1
  Ta  Ta1  1  0.66682034  0.66682034  0.66682034  1
  Ta  Ta2  1  -0.00000000  0.00000000  0.00000000  1
  Ta  Ta3  1  0.83347445  0.16652555  0.50000000  1
  Ta  Ta4  1  0.50000000  0.83347445  0.16652555  1
  Ta  Ta5  1  0.16652555  0.50000000  0.83347445  1
  S  S0  1  0.96481466  0.63001251  0.29769446  1
  S  S1  1  0.29769446  0.96481466  0.63001251  1
  S  S2  1  0.63001251  0.29769446  0.96481466  1
  S  S3  1  0.70230554  0.36998749  0.03518534  1
  S  S4  1  0.03518534  0.70230554  0.36998749  1
  S  S5  1  0.36998749  0.03518534  0.70230554  1
  S  S6  1  0.86996570  0.53507382  0.20229510  1
  S  S7  1  0.20229510  0.86996570  0.53507382  1
  S  S8  1  0.53507382  0.20229510  0.86996570  1
  S  S9  1  0.79770490  0.46492618  0.13003430  1
  S  S10  1  0.13003430  0.79770490  0.46492618  1
  S  S11  1  0.46492618  0.13003430  0.79770490  1
loop_
_geom_bond_atom_site_label_1
_geom_bond_atom_site_label_2
_geom_bond_distance
_geom_bond_site_symmetry_2
Na0 S6 2.824180 1_556
Na0 S8 2.824180 1_565
Na0 S7 2.824180 1_655
Na0 S1 2.833608 1_655
Na0 S2 2.833608 1_565
Na0 S0 2.833608 1_556
Na1 S8 2.825253 1_555
Na1 S7 2.825253 1_555
Na1 S6 2.825253 1_555
Na1 S0 2.832312 1_555
Na1 S1 2.832312 1_555
Na1 S2 2.832312 1_555
Na2 S9 2.825253 1_555
Na2 S10 2.825253 1_555
Na2 S11 2.825253 1_555
Na2 S5 2.832312 1_555
Na2 S4 2.832312 1_555
Na2 S3 2.832312 1_555
Na3 S11 2.824180 1_554
Na3 S9 2.824180 1_455
Na3 S10 2.824180 1_545
Na3 S4 2.833608 1_545
Na3 S3 2.833608 1_455
Na3 S5 2.833608 1_554
S0 Ta0 2.477595 1_655
S0 Ta2 2.487398 1_665
S0 Ta1 2.490248 1_555
S1 Ta0 2.477595 1_565
S1 Ta2 2.487398 1_566
S1 Ta1 2.490248 1_555
S2 Ta0 2.477595 1_556
S2 Ta2 2.487398 1_656
S2 Ta1 2.490248 1_555
S3 Ta1 2.477595 1_554
S3 Ta2 2.487398 1_655
S3 Ta0 2.490248 1_555
S4 Ta1 2.477595 1_455
S4 Ta2 2.487398 1_565
S4 Ta0 2.490248 1_555
S5 Ta1 2.477595 1_545
S5 Ta2 2.487398 1_556
S5 Ta0 2.490248 1_555
S6 Ta5 2.480855 1_654
S6 Ta3 2.482848 1_555
S6 Ta4 2.487676 1_555
S7 Ta3 2.480854 1_465
S7 Ta4 2.482848 1_555
S7 Ta5 2.487676 1_555
S8 Ta4 2.480854 1_546
S8 Ta5 2.482848 1_555
S8 Ta3 2.487676 1_555
S9 Ta5 2.480854 1_654
S9 Ta4 2.482848 1_555
S9 Ta3 2.487676 1_555
S10 Ta3 2.480854 1_465
S10 Ta5 2.482848 1_555
S10 Ta4 2.487676 1_555
S11 Ta4 2.480855 1_546
S11 Ta3 2.482848 1_555
S11 Ta5 2.487676 1_555
