# generated using pymatgen
data_Y(CuS)3
_symmetry_space_group_name_H-M   'P 1'
_cell_length_a   6.65053622
_cell_length_b   6.65276476
_cell_length_c   7.43631999
_cell_angle_alpha   63.46938381
_cell_angle_beta   89.97127120
_cell_angle_gamma   59.96903597
_symmetry_Int_Tables_number   1
_chemical_formula_structural   Y(CuS)3
_chemical_formula_sum   'Y2 Cu6 S6'
_cell_volume   244.05715096
_cell_formula_units_Z   2
loop_
 _symmetry_equiv_pos_site_id
 _symmetry_equiv_pos_as_xyz
  1  'x, y, z'
loop_
 _atom_site_type_symbol
 _atom_site_label
 _atom_site_symmetry_multiplicity
 _atom_site_fract_x
 _atom_site_fract_y
 _atom_site_fract_z
 _atom_site_occupancy
  Y  Y0  1  0.00025460  0.99957016  0.00063457  1
  Y  Y1  1  0.33307840  0.33376284  0.99936543  1
  Cu  Cu0  1  0.45032903  0.42072373  0.37094426  1
  Cu  Cu1  1  0.78964219  0.75966920  0.37089853  1
  Cu  Cu2  1  0.12927476  0.08100611  0.37105271  1
  Cu  Cu3  1  0.20405924  0.25232789  0.62894729  1
  Cu  Cu4  1  0.54369081  0.57366380  0.62910147  1
  Cu  Cu5  1  0.88300397  0.91260927  0.62905574  1
  S  S0  1  0.24931828  0.83565788  0.74716398  1
  S  S1  1  0.91502781  0.50150925  0.74711751  1
  S  S2  1  0.58348928  0.16716984  0.74718794  1
  S  S3  1  0.74984472  0.16616416  0.25281206  1
  S  S4  1  0.41830519  0.83182375  0.25288249  1
  S  S5  1  0.08401472  0.49767512  0.25283602  1
loop_
_geom_bond_atom_site_label_1
_geom_bond_atom_site_label_2
_geom_bond_distance
_geom_bond_site_symmetry_2
Cu0 S5 2.306643 1_555
Cu0 S3 2.357604 1_555
Cu0 S4 2.359706 1_555
Cu0 S2 2.397661 1_555
Cu1 S3 2.305820 1_565
Cu1 S4 2.353453 1_555
Cu1 S5 2.364605 1_655
Cu1 S1 2.397589 1_555
Cu2 S4 2.307683 1_545
Cu2 S5 2.352772 1_555
Cu2 S3 2.363888 1_455
Cu2 S0 2.396608 1_545
Cu3 S1 2.307683 1_455
Cu3 S0 2.352781 1_545
Cu3 S2 2.363888 1_555
Cu3 S5 2.396608 1_555
Cu4 S2 2.305811 1_555
Cu4 S1 2.353453 1_555
Cu4 S0 2.364605 1_555
Cu4 S4 2.397589 1_555
Cu5 S0 2.306643 1_655
Cu5 S2 2.357603 1_565
Cu5 S1 2.359706 1_555
Cu5 S3 2.397661 1_565
S0 Y0 2.740573 1_556
S0 Y1 2.742540 1_555
S1 Y0 2.740223 1_646
S1 Y1 2.742880 1_655
S2 Y0 2.740857 1_646
S2 Y1 2.743093 1_555
S3 Y1 2.740865 1_554
S3 Y0 2.743093 1_645
S4 Y1 2.740223 1_564
S4 Y0 2.742880 1_555
S5 Y1 2.740573 1_554
S5 Y0 2.742540 1_555
