# generated using pymatgen
data_Ba2ZnBi2
_symmetry_space_group_name_H-M   'P 1'
_cell_length_a   8.89799517
_cell_length_b   8.89799517
_cell_length_c   8.89799517
_cell_angle_alpha   132.43457595
_cell_angle_beta   131.01731911
_cell_angle_gamma   70.66839065
_symmetry_Int_Tables_number   1
_chemical_formula_structural   Ba2ZnBi2
_chemical_formula_sum   'Ba4 Zn2 Bi4'
_cell_volume   384.32106671
_cell_formula_units_Z   2
loop_
 _symmetry_equiv_pos_site_id
 _symmetry_equiv_pos_as_xyz
  1  'x, y, z'
loop_
 _atom_site_type_symbol
 _atom_site_label
 _atom_site_symmetry_multiplicity
 _atom_site_fract_x
 _atom_site_fract_y
 _atom_site_fract_z
 _atom_site_occupancy
  Ba  Ba0  1  0.07298054  0.86504583  0.20793472  1
  Ba  Ba1  1  0.92701946  0.13495417  0.79206528  1
  Ba  Ba2  1  0.34288889  0.63495417  0.70793472  1
  Ba  Ba3  1  0.65711111  0.36504583  0.29206528  1
  Zn  Zn0  1  0.50000000  0.75000000  0.25000000  1
  Zn  Zn1  1  0.50000000  0.25000000  0.75000000  1
  Bi  Bi0  1  0.82123259  0.61274502  0.20848756  1
  Bi  Bi1  1  0.17876741  0.38725498  0.79151244  1
  Bi  Bi2  1  0.59574154  0.88725498  0.70848756  1
  Bi  Bi3  1  0.40425846  0.11274502  0.29151244  1
loop_
_geom_bond_atom_site_label_1
_geom_bond_atom_site_label_2
_geom_bond_distance
_geom_bond_site_symmetry_2
Ba0 Zn1 3.420567 1_565
Ba0 Zn0 3.420567 1_555
Ba0 Bi3 3.648542 1_565
Ba0 Bi1 3.655126 1_565
Ba0 Bi1 3.655126 1_554
Ba0 Bi0 3.662864 1_455
Ba0 Bi2 3.698720 1_454
Ba0 Bi2 3.706838 1_555
Ba1 Zn0 3.420567 1_545
Ba1 Zn1 3.420567 1_555
Ba1 Bi2 3.648542 1_545
Ba1 Bi0 3.655126 1_545
Ba1 Bi0 3.655126 1_556
Ba1 Bi1 3.662864 1_655
Ba1 Bi3 3.698720 1_656
Ba1 Bi3 3.706838 1_555
Ba2 Zn1 3.420567 1_555
Ba2 Zn0 3.420567 1_556
Ba2 Bi1 3.648534 1_555
Ba2 Bi3 3.655123 1_566
Ba2 Bi3 3.655130 1_555
Ba2 Bi2 3.662857 1_555
Ba2 Bi0 3.698716 1_455
Ba2 Bi0 3.706843 1_556
Ba3 Zn0 3.420567 1_555
Ba3 Zn1 3.420567 1_554
Ba3 Bi0 3.648534 1_555
Ba3 Bi2 3.655123 1_544
Ba3 Bi2 3.655130 1_555
Ba3 Bi3 3.662857 1_555
Ba3 Bi1 3.698716 1_655
Ba3 Bi1 3.706843 1_554
Bi0 Zn1 2.874695 1_554
Bi0 Zn0 2.874695 1_555
Bi1 Zn0 2.874695 1_556
Bi1 Zn1 2.874695 1_555
Bi2 Zn1 2.874695 1_565
Bi2 Zn0 2.874699 1_555
Bi3 Zn0 2.874695 1_545
Bi3 Zn1 2.874699 1_555
