# generated using pymatgen
data_Mg3Zn
_symmetry_space_group_name_H-M   'P 1'
_cell_length_a   6.34123910
_cell_length_b   9.67115250
_cell_length_c   10.34231482
_cell_angle_alpha   90.00000000
_cell_angle_beta   90.00000000
_cell_angle_gamma   90.00000000
_symmetry_Int_Tables_number   1
_chemical_formula_structural   Mg3Zn
_chemical_formula_sum   'Mg24 Zn8'
_cell_volume   634.26407565
_cell_formula_units_Z   8
loop_
 _symmetry_equiv_pos_site_id
 _symmetry_equiv_pos_as_xyz
  1  'x, y, z'
loop_
 _atom_site_type_symbol
 _atom_site_label
 _atom_site_symmetry_multiplicity
 _atom_site_fract_x
 _atom_site_fract_y
 _atom_site_fract_z
 _atom_site_occupancy
  Mg  Mg0_0  1  0.00000000  0.00000000  0.33717532  1
  Mg  Mg0_1  1  0.00000000  0.00000000  0.83717532  1
  Mg  Mg0_2  1  0.00000000  0.50000000  0.33717532  1
  Mg  Mg0_3  1  0.00000000  0.50000000  0.83717532  1
  Mg  Mg0_4  1  0.50000000  0.00000000  0.33717532  1
  Mg  Mg0_5  1  0.50000000  0.00000000  0.83717532  1
  Mg  Mg0_6  1  0.50000000  0.50000000  0.33717532  1
  Mg  Mg0_7  1  0.50000000  0.50000000  0.83717532  1
  Mg  Mg1_0  1  0.00000000  0.25000000  0.16005073  1
  Mg  Mg1_1  1  0.00000000  0.25000000  0.66005073  1
  Mg  Mg1_2  1  0.00000000  0.75000000  0.16005073  1
  Mg  Mg1_3  1  0.00000000  0.75000000  0.66005073  1
  Mg  Mg1_4  1  0.50000000  0.25000000  0.16005073  1
  Mg  Mg1_5  1  0.50000000  0.25000000  0.66005073  1
  Mg  Mg1_6  1  0.50000000  0.75000000  0.16005073  1
  Mg  Mg1_7  1  0.50000000  0.75000000  0.66005073  1
  Mg  Mg2_0  1  0.25000000  0.25000000  0.41770584  1
  Mg  Mg2_1  1  0.25000000  0.25000000  0.91770584  1
  Mg  Mg2_2  1  0.25000000  0.75000000  0.41770584  1
  Mg  Mg2_3  1  0.25000000  0.75000000  0.91770584  1
  Mg  Mg2_4  1  0.75000000  0.25000000  0.41770584  1
  Mg  Mg2_5  1  0.75000000  0.25000000  0.91770584  1
  Mg  Mg2_6  1  0.75000000  0.75000000  0.41770584  1
  Mg  Mg2_7  1  0.75000000  0.75000000  0.91770584  1
  Zn  Zn0_0  1  0.25000000  0.00000000  0.08506811  1
  Zn  Zn0_1  1  0.25000000  0.00000000  0.58506811  1
  Zn  Zn0_2  1  0.25000000  0.50000000  0.08506811  1
  Zn  Zn0_3  1  0.25000000  0.50000000  0.58506811  1
  Zn  Zn0_4  1  0.75000000  0.00000000  0.08506811  1
  Zn  Zn0_5  1  0.75000000  0.00000000  0.58506811  1
  Zn  Zn0_6  1  0.75000000  0.50000000  0.08506811  1
  Zn  Zn0_7  1  0.75000000  0.50000000  0.58506811  1
loop_
_geom_bond_atom_site_label_1
_geom_bond_atom_site_label_2
_geom_bond_distance
_geom_bond_site_symmetry_2
Mg0_0 Mg2_4 3.008751 1_455
Mg0_0 Mg2_6 3.008751 1_445
Mg0_0 Mg2_2 3.008751 1_545
Mg0_0 Mg2_0 3.008751 1_555
Mg0_0 Zn0_5 3.014333 1_455
Mg0_0 Zn0_1 3.014333 1_555
Mg0_0 Mg1_2 3.033394 1_545
Mg0_0 Mg1_0 3.033394 1_555
Mg0_0 Zn0_4 3.051491 1_455
Mg0_0 Zn0_0 3.051491 1_555
Mg0_0 Mg0_4 3.170620 1_455
Mg0_0 Mg0_4 3.170620 1_555
Mg0_1 Mg2_7 3.008751 1_445
Mg0_1 Mg2_5 3.008751 1_455
Mg0_1 Mg2_1 3.008751 1_555
Mg0_1 Mg2_3 3.008751 1_545
Mg0_1 Zn0_4 3.014333 1_456
Mg0_1 Zn0_0 3.014333 1_556
Mg0_1 Mg1_3 3.033394 1_545
Mg0_1 Mg1_1 3.033394 1_555
Mg0_1 Zn0_5 3.051491 1_455
Mg0_1 Zn0_1 3.051491 1_555
Mg0_1 Mg0_5 3.170620 1_455
Mg0_1 Mg0_5 3.170620 1_555
Mg0_2 Mg2_4 3.008751 1_455
Mg0_2 Mg2_6 3.008751 1_455
Mg0_2 Mg2_2 3.008751 1_555
Mg0_2 Mg2_0 3.008751 1_555
Mg0_2 Zn0_7 3.014333 1_455
Mg0_2 Zn0_3 3.014333 1_555
Mg0_2 Mg1_2 3.033394 1_555
Mg0_2 Mg1_0 3.033394 1_555
Mg0_2 Zn0_6 3.051491 1_455
Mg0_2 Zn0_2 3.051491 1_555
Mg0_2 Mg0_6 3.170620 1_455
Mg0_2 Mg0_6 3.170620 1_555
Mg0_3 Mg2_7 3.008751 1_455
Mg0_3 Mg2_5 3.008751 1_455
Mg0_3 Mg2_1 3.008751 1_555
Mg0_3 Mg2_3 3.008751 1_555
Mg0_3 Zn0_6 3.014333 1_456
Mg0_3 Zn0_2 3.014333 1_556
Mg0_3 Mg1_3 3.033394 1_555
Mg0_3 Mg1_1 3.033394 1_555
Mg0_3 Zn0_7 3.051491 1_455
Mg0_3 Zn0_3 3.051491 1_555
Mg0_3 Mg0_7 3.170620 1_455
Mg0_3 Mg0_7 3.170620 1_555
Mg0_4 Mg2_2 3.008751 1_545
Mg0_4 Mg2_0 3.008751 1_555
Mg0_4 Mg2_4 3.008751 1_555
Mg0_4 Mg2_6 3.008751 1_545
Mg0_4 Zn0_1 3.014333 1_555
Mg0_4 Zn0_5 3.014333 1_555
Mg0_4 Mg1_6 3.033394 1_545
Mg0_4 Mg1_4 3.033394 1_555
Mg0_4 Zn0_0 3.051491 1_555
Mg0_4 Zn0_4 3.051491 1_555
Mg0_5 Mg2_1 3.008751 1_555
Mg0_5 Mg2_7 3.008751 1_545
Mg0_5 Mg2_5 3.008751 1_555
Mg0_5 Mg2_3 3.008751 1_545
Mg0_5 Zn0_0 3.014333 1_556
Mg0_5 Zn0_4 3.014333 1_556
Mg0_5 Mg1_7 3.033394 1_545
Mg0_5 Mg1_5 3.033394 1_555
Mg0_5 Zn0_1 3.051491 1_555
Mg0_5 Zn0_5 3.051491 1_555
Mg0_6 Mg2_2 3.008751 1_555
Mg0_6 Mg2_0 3.008751 1_555
Mg0_6 Mg2_4 3.008751 1_555
Mg0_6 Mg2_6 3.008751 1_555
Mg0_6 Zn0_3 3.014333 1_555
Mg0_6 Zn0_7 3.014333 1_555
Mg0_6 Mg1_4 3.033394 1_555
Mg0_6 Mg1_6 3.033394 1_555
Mg0_6 Zn0_2 3.051491 1_555
Mg0_6 Zn0_6 3.051491 1_555
Mg0_7 Mg2_1 3.008751 1_555
Mg0_7 Mg2_7 3.008751 1_555
Mg0_7 Mg2_5 3.008751 1_555
Mg0_7 Mg2_3 3.008751 1_555
Mg0_7 Zn0_2 3.014333 1_556
Mg0_7 Zn0_6 3.014333 1_556
Mg0_7 Mg1_7 3.033394 1_555
Mg0_7 Mg1_5 3.033394 1_555
Mg0_7 Zn0_3 3.051491 1_555
Mg0_7 Zn0_7 3.051491 1_555
Mg1_0 Mg2_5 2.965684 1_454
Mg1_0 Mg2_1 2.965684 1_554
Mg1_0 Zn0_4 2.993376 1_455
Mg1_0 Zn0_6 2.993376 1_455
Mg1_0 Zn0_2 2.993376 1_555
Mg1_0 Zn0_0 2.993376 1_555
Mg1_0 Mg2_0 3.100661 1_555
Mg1_0 Mg2_4 3.100661 1_455
Mg1_0 Mg1_4 3.170620 1_455
Mg1_0 Mg1_4 3.170620 1_555
Mg1_1 Mg2_4 2.965684 1_455
Mg1_1 Mg2_0 2.965684 1_555
Mg1_1 Zn0_3 2.993376 1_555
Mg1_1 Zn0_7 2.993376 1_455
Mg1_1 Zn0_1 2.993376 1_555
Mg1_1 Zn0_5 2.993376 1_455
Mg1_1 Mg2_5 3.100661 1_455
Mg1_1 Mg2_1 3.100661 1_555
Mg1_1 Mg1_5 3.170620 1_455
Mg1_1 Mg1_5 3.170620 1_555
Mg1_2 Mg2_7 2.965684 1_454
Mg1_2 Mg2_3 2.965684 1_554
Mg1_2 Zn0_4 2.993376 1_465
Mg1_2 Zn0_6 2.993376 1_455
Mg1_2 Zn0_2 2.993376 1_555
Mg1_2 Zn0_0 2.993376 1_565
Mg1_2 Mg2_2 3.100661 1_555
Mg1_2 Mg2_6 3.100661 1_455
Mg1_2 Mg1_6 3.170620 1_455
Mg1_2 Mg1_6 3.170620 1_555
Mg1_3 Mg2_6 2.965684 1_455
Mg1_3 Mg2_2 2.965684 1_555
Mg1_3 Zn0_5 2.993376 1_465
Mg1_3 Zn0_3 2.993376 1_555
Mg1_3 Zn0_1 2.993376 1_565
Mg1_3 Zn0_7 2.993376 1_455
Mg1_3 Mg2_7 3.100661 1_455
Mg1_3 Mg2_3 3.100661 1_555
Mg1_3 Mg1_7 3.170620 1_455
Mg1_3 Mg1_7 3.170620 1_555
Mg1_4 Mg2_1 2.965684 1_554
Mg1_4 Mg2_5 2.965684 1_554
Mg1_4 Zn0_2 2.993376 1_555
Mg1_4 Zn0_0 2.993376 1_555
Mg1_4 Zn0_6 2.993376 1_555
Mg1_4 Zn0_4 2.993376 1_555
Mg1_4 Mg2_0 3.100661 1_555
Mg1_4 Mg2_4 3.100661 1_555
Mg1_5 Mg2_0 2.965684 1_555
Mg1_5 Mg2_4 2.965684 1_555
Mg1_5 Zn0_3 2.993376 1_555
Mg1_5 Zn0_1 2.993376 1_555
Mg1_5 Zn0_7 2.993376 1_555
Mg1_5 Zn0_5 2.993376 1_555
Mg1_5 Mg2_1 3.100661 1_555
Mg1_5 Mg2_5 3.100661 1_555
Mg1_6 Mg2_3 2.965684 1_554
Mg1_6 Mg2_7 2.965684 1_554
Mg1_6 Zn0_2 2.993376 1_555
Mg1_6 Zn0_0 2.993376 1_565
Mg1_6 Zn0_4 2.993376 1_565
Mg1_6 Zn0_6 2.993376 1_555
Mg1_6 Mg2_2 3.100661 1_555
Mg1_6 Mg2_6 3.100661 1_555
Mg1_7 Mg2_2 2.965684 1_555
Mg1_7 Mg2_6 2.965684 1_555
Mg1_7 Zn0_3 2.993376 1_555
Mg1_7 Zn0_1 2.993376 1_565
Mg1_7 Zn0_7 2.993376 1_555
Mg1_7 Zn0_5 2.993376 1_565
Mg1_7 Mg2_3 3.100661 1_555
Mg1_7 Mg2_7 3.100661 1_555
Mg2_0 Zn0_1 2.973510 1_555
Mg2_0 Zn0_3 2.973510 1_555
Mg2_0 Mg2_4 3.170620 1_455
Mg2_0 Mg2_4 3.170620 1_555
Mg2_1 Zn0_0 2.973510 1_556
Mg2_1 Zn0_2 2.973510 1_556
Mg2_1 Mg2_5 3.170620 1_455
Mg2_1 Mg2_5 3.170620 1_555
Mg2_2 Zn0_1 2.973510 1_565
Mg2_2 Zn0_3 2.973510 1_555
Mg2_2 Mg2_6 3.170620 1_455
Mg2_2 Mg2_6 3.170620 1_555
Mg2_3 Zn0_0 2.973510 1_566
Mg2_3 Zn0_2 2.973510 1_556
Mg2_3 Mg2_7 3.170620 1_455
Mg2_3 Mg2_7 3.170620 1_555
Mg2_4 Zn0_7 2.973510 1_555
Mg2_4 Zn0_5 2.973510 1_555
Mg2_5 Zn0_6 2.973510 1_556
Mg2_5 Zn0_4 2.973510 1_556
Mg2_6 Zn0_7 2.973510 1_555
Mg2_6 Zn0_5 2.973510 1_565
Mg2_7 Zn0_4 2.973510 1_566
Mg2_7 Zn0_6 2.973510 1_556
