# generated using pymatgen
data_Nd6Fe13As
_symmetry_space_group_name_H-M   'P 1'
_cell_length_a   7.99875100
_cell_length_b   7.99875100
_cell_length_c   12.83220279
_cell_angle_alpha   108.15972441
_cell_angle_beta   108.15972441
_cell_angle_gamma   90.00000000
_symmetry_Int_Tables_number   1
_chemical_formula_structural   Nd6Fe13As
_chemical_formula_sum   'Nd12 Fe26 As2'
_cell_volume   736.95268062
_cell_formula_units_Z   2
loop_
 _symmetry_equiv_pos_site_id
 _symmetry_equiv_pos_as_xyz
  1  'x, y, z'
loop_
 _atom_site_type_symbol
 _atom_site_label
 _atom_site_symmetry_multiplicity
 _atom_site_fract_x
 _atom_site_fract_y
 _atom_site_fract_z
 _atom_site_occupancy
  Nd  Nd0  1  0.60713100  0.60713100  0.21426100  1
  Nd  Nd1  1  0.10713100  0.10713100  0.21426100  1
  Nd  Nd2  1  0.39286900  0.39286900  0.78573900  1
  Nd  Nd3  1  0.89286900  0.89286900  0.78573900  1
  Nd  Nd4  1  0.97696400  0.47696400  0.62436400  1
  Nd  Nd5  1  0.64740000  0.14740000  0.62436400  1
  Nd  Nd6  1  0.14740000  0.97696400  0.62436400  1
  Nd  Nd7  1  0.47696400  0.64740000  0.62436400  1
  Nd  Nd8  1  0.02303600  0.52303600  0.37563600  1
  Nd  Nd9  1  0.35260000  0.85260000  0.37563600  1
  Nd  Nd10  1  0.85260000  0.02303600  0.37563600  1
  Nd  Nd11  1  0.52303600  0.35260000  0.37563600  1
  Fe  Fe0  1  0.00000000  0.50000000  0.00000000  1
  Fe  Fe1  1  0.50000000  0.00000000  0.00000000  1
  Fe  Fe2  1  0.70872400  0.56621700  0.00000000  1
  Fe  Fe3  1  0.29127600  0.43378300  0.00000000  1
  Fe  Fe4  1  0.79127600  0.06621700  0.00000000  1
  Fe  Fe5  1  0.20872400  0.93378300  0.00000000  1
  Fe  Fe6  1  0.56621700  0.29127600  0.00000000  1
  Fe  Fe7  1  0.43378300  0.70872400  0.00000000  1
  Fe  Fe8  1  0.06621700  0.20872400  0.00000000  1
  Fe  Fe9  1  0.93378300  0.79127600  0.00000000  1
  Fe  Fe10  1  0.11937800  0.61937800  0.88026100  1
  Fe  Fe11  1  0.76088300  0.26088300  0.88026100  1
  Fe  Fe12  1  0.26088300  0.11937800  0.88026100  1
  Fe  Fe13  1  0.61937800  0.76088300  0.88026100  1
  Fe  Fe14  1  0.88062200  0.38062200  0.11973900  1
  Fe  Fe15  1  0.23911700  0.73911700  0.11973900  1
  Fe  Fe16  1  0.73911700  0.88062200  0.11973900  1
  Fe  Fe17  1  0.38062200  0.23911700  0.11973900  1
  Fe  Fe18  1  0.29140400  0.79140400  0.80999000  1
  Fe  Fe19  1  0.51858700  0.01858700  0.80999000  1
  Fe  Fe20  1  0.01858700  0.29140400  0.80999000  1
  Fe  Fe21  1  0.79140400  0.51858700  0.80999000  1
  Fe  Fe22  1  0.70859600  0.20859600  0.19001000  1
  Fe  Fe23  1  0.48141300  0.98141300  0.19001000  1
  Fe  Fe24  1  0.98141300  0.70859600  0.19001000  1
  Fe  Fe25  1  0.20859600  0.48141300  0.19001000  1
  As  As0  1  0.25000000  0.25000000  0.50000000  1
  As  As1  1  0.75000000  0.75000000  0.50000000  1
loop_
_geom_bond_atom_site_label_1
_geom_bond_atom_site_label_2
_geom_bond_distance
_geom_bond_site_symmetry_2
Fe0 Fe2 2.389290 1_455
Fe0 Fe8 2.389290 1_555
Fe0 Fe3 2.389290 1_555
Fe0 Fe9 2.389290 1_455
Fe0 Fe10 2.452251 1_554
Fe0 Fe14 2.452251 1_455
Fe0 Fe15 2.452252 1_555
Fe0 Fe11 2.452252 1_454
Fe0 Fe20 2.537944 1_554
Fe0 Fe21 2.537944 1_454
Fe0 Fe25 2.537944 1_555
Fe0 Fe24 2.537944 1_455
Fe1 Fe4 2.389290 1_555
Fe1 Fe6 2.389290 1_555
Fe1 Fe7 2.389290 1_545
Fe1 Fe5 2.389290 1_545
Fe1 Fe16 2.452252 1_545
Fe1 Fe13 2.452252 1_544
Fe1 Fe12 2.452252 1_554
Fe1 Fe17 2.452252 1_555
Fe1 Fe18 2.537941 1_544
Fe1 Fe22 2.537941 1_555
Fe1 Fe19 2.537947 1_554
Fe1 Fe23 2.537947 1_545
Fe2 Fe6 2.477042 1_555
Fe2 Fe7 2.477042 1_555
Fe2 Fe9 2.545854 1_555
Fe2 Fe24 2.636974 1_555
Fe2 Fe21 2.636979 1_554
Fe2 Nd0 3.026332 1_555
Fe2 Nd2 3.026338 1_554
Fe3 Fe6 2.477042 1_555
Fe3 Fe7 2.477042 1_555
Fe3 Fe8 2.545854 1_555
Fe3 Nd2 3.026332 1_554
Fe3 Nd0 3.026338 1_555
Fe4 Fe9 2.477042 1_545
Fe4 Fe8 2.477042 1_655
Fe4 Fe6 2.545854 1_555
Fe4 Nd3 3.026333 1_544
Fe4 Nd1 3.026336 1_655
Fe5 Fe9 2.477042 1_455
Fe5 Fe8 2.477042 1_565
Fe5 Fe7 2.545854 1_555
Fe5 Nd1 3.026333 1_565
Fe5 Nd3 3.026336 1_454
Fe6 Nd2 3.026333 1_554
Fe6 Nd0 3.026336 1_555
Fe7 Nd0 3.026333 1_555
Fe7 Nd2 3.026336 1_554
Fe8 Nd1 3.026332 1_555
Fe8 Nd3 3.026338 1_444
Fe9 Nd3 3.026332 1_554
Fe9 Nd1 3.026338 1_665
Fe10 Fe5 2.470420 1_556
Fe10 Fe7 2.470420 1_556
Fe10 Fe18 2.479248 1_555
Fe10 Fe21 2.533282 1_455
Fe10 Fe20 2.533282 1_555
Fe10 Fe3 2.561284 1_556
Fe10 Fe9 2.561284 1_456
Fe10 Fe15 2.758423 1_556
Fe10 Nd4 2.952084 1_455
Fe10 Nd2 3.134235 1_555
Fe10 Nd3 3.134235 1_455
Fe11 Fe6 2.470419 1_556
Fe11 Fe4 2.470419 1_556
Fe11 Fe19 2.479238 1_555
Fe11 Fe20 2.533291 1_655
Fe11 Fe21 2.533291 1_555
Fe11 Fe2 2.561284 1_556
Fe11 Fe8 2.561284 1_656
Fe11 Fe14 2.758423 1_556
Fe11 Nd5 2.952084 1_555
Fe11 Nd2 3.134238 1_555
Fe11 Nd3 3.134238 1_545
Fe12 Fe8 2.470419 1_556
Fe12 Fe3 2.470419 1_556
Fe12 Fe20 2.479243 1_555
Fe12 Fe18 2.533283 1_545
Fe12 Fe19 2.533289 1_555
Fe12 Fe5 2.561284 1_546
Fe12 Fe6 2.561284 1_556
Fe12 Fe17 2.758423 1_556
Fe12 Nd6 2.952084 1_545
Fe12 Nd2 3.134231 1_555
Fe12 Nd3 3.134241 1_445
Fe13 Fe2 2.470419 1_556
Fe13 Fe9 2.470419 1_556
Fe13 Fe21 2.479243 1_555
Fe13 Fe18 2.533283 1_555
Fe13 Fe19 2.533289 1_565
Fe13 Fe7 2.561284 1_556
Fe13 Fe4 2.561284 1_566
Fe13 Fe16 2.758423 1_556
Fe13 Nd7 2.952084 1_555
Fe13 Nd3 3.134231 1_555
Fe13 Nd2 3.134241 1_555
Fe14 Fe4 2.470420 1_555
Fe14 Fe6 2.470420 1_555
Fe14 Fe22 2.479248 1_555
Fe14 Fe25 2.533282 1_655
Fe14 Fe24 2.533282 1_555
Fe14 Fe2 2.561284 1_555
Fe14 Fe8 2.561284 1_655
Fe14 Nd8 2.952084 1_655
Fe14 Nd0 3.134235 1_555
Fe14 Nd1 3.134235 1_655
Fe15 Fe5 2.470419 1_555
Fe15 Fe7 2.470419 1_555
Fe15 Fe23 2.479238 1_555
Fe15 Fe25 2.533291 1_555
Fe15 Fe24 2.533291 1_455
Fe15 Fe3 2.561284 1_555
Fe15 Fe9 2.561284 1_455
Fe15 Nd9 2.952084 1_555
Fe15 Nd0 3.134238 1_555
Fe15 Nd1 3.134238 1_565
Fe16 Fe9 2.470419 1_555
Fe16 Fe2 2.470419 1_555
Fe16 Fe24 2.479243 1_555
Fe16 Fe22 2.533283 1_565
Fe16 Fe23 2.533289 1_555
Fe16 Fe4 2.561284 1_565
Fe16 Fe7 2.561284 1_555
Fe16 Nd10 2.952084 1_565
Fe16 Nd0 3.134231 1_555
Fe16 Nd1 3.134241 1_665
Fe17 Fe3 2.470419 1_555
Fe17 Fe8 2.470419 1_555
Fe17 Fe25 2.479243 1_555
Fe17 Fe22 2.533283 1_555
Fe17 Fe23 2.533289 1_545
Fe17 Fe6 2.561284 1_555
Fe17 Fe5 2.561284 1_545
Fe17 Nd11 2.952084 1_555
Fe17 Nd1 3.134231 1_555
Fe17 Nd0 3.134241 1_555
Fe18 Fe19 2.569881 1_565
Fe18 Fe5 2.636978 1_556
Fe18 Fe7 2.636978 1_556
Fe18 Nd6 3.114028 1_555
Fe18 Nd7 3.114028 1_555
Fe18 Nd2 3.233659 1_555
Fe18 Nd3 3.233659 1_455
Fe18 Nd4 3.294967 1_455
Fe19 Fe6 2.636975 1_556
Fe19 Fe4 2.636975 1_556
Fe19 Nd6 3.114032 1_545
Fe19 Nd7 3.114032 1_545
Fe19 Nd2 3.233649 1_555
Fe19 Nd3 3.233649 1_545
Fe19 Nd5 3.294958 1_555
Fe20 Fe21 2.569881 1_455
Fe20 Fe3 2.636974 1_556
Fe20 Fe8 2.636979 1_556
Fe20 Nd4 3.114027 1_455
Fe20 Nd5 3.114034 1_455
Fe20 Nd2 3.233644 1_555
Fe20 Nd3 3.233664 1_445
Fe20 Nd6 3.294963 1_545
Fe21 Fe9 2.636974 1_556
Fe21 Nd4 3.114027 1_555
Fe21 Nd5 3.114034 1_555
Fe21 Nd3 3.233644 1_555
Fe21 Nd2 3.233664 1_555
Fe21 Nd7 3.294963 1_555
Fe22 Fe23 2.569881 1_545
Fe22 Fe6 2.636978 1_555
Fe22 Fe4 2.636978 1_555
Fe22 Nd11 3.114028 1_555
Fe22 Nd10 3.114028 1_555
Fe22 Nd1 3.233659 1_655
Fe22 Nd0 3.233659 1_555
Fe22 Nd8 3.294967 1_655
Fe23 Fe5 2.636975 1_555
Fe23 Fe7 2.636975 1_555
Fe23 Nd11 3.114032 1_565
Fe23 Nd10 3.114032 1_565
Fe23 Nd0 3.233649 1_555
Fe23 Nd1 3.233649 1_565
Fe23 Nd9 3.294958 1_555
Fe24 Fe25 2.569881 1_655
Fe24 Fe9 2.636979 1_555
Fe24 Nd8 3.114027 1_655
Fe24 Nd9 3.114034 1_655
Fe24 Nd0 3.233644 1_555
Fe24 Nd1 3.233664 1_665
Fe24 Nd10 3.294963 1_565
Fe25 Fe8 2.636974 1_555
Fe25 Fe3 2.636979 1_555
Fe25 Nd8 3.114027 1_555
Fe25 Nd9 3.114034 1_555
Fe25 Nd1 3.233644 1_555
Fe25 Nd0 3.233664 1_555
Fe25 Nd11 3.294963 1_555
As0 Nd2 3.291280 1_555
As0 Nd1 3.291280 1_555
As0 Nd6 3.313423 1_545
As0 Nd11 3.313423 1_555
As0 Nd4 3.313423 1_455
As0 Nd8 3.313423 1_555
As0 Nd5 3.313423 1_555
As0 Nd9 3.313423 1_545
As0 Nd7 3.313423 1_555
As0 Nd10 3.313423 1_455
As1 Nd3 3.291280 1_555
As1 Nd0 3.291280 1_555
As1 Nd7 3.313423 1_555
As1 Nd10 3.313423 1_565
As1 Nd4 3.313423 1_555
As1 Nd8 3.313423 1_655
As1 Nd5 3.313423 1_565
As1 Nd9 3.313423 1_555
As1 Nd6 3.313423 1_655
As1 Nd11 3.313423 1_555
