# generated using pymatgen
data_YbSi3Pd5
_symmetry_space_group_name_H-M   'P 1'
_cell_length_a   3.98564677
_cell_length_b   19.46823353
_cell_length_c   7.22224838
_cell_angle_alpha   90.00000000
_cell_angle_beta   90.00000000
_cell_angle_gamma   90.00000000
_symmetry_Int_Tables_number   1
_chemical_formula_structural   YbSi3Pd5
_chemical_formula_sum   'Yb4 Si12 Pd20'
_cell_volume   560.39954462
_cell_formula_units_Z   4
loop_
 _symmetry_equiv_pos_site_id
 _symmetry_equiv_pos_as_xyz
  1  'x, y, z'
loop_
 _atom_site_type_symbol
 _atom_site_label
 _atom_site_symmetry_multiplicity
 _atom_site_fract_x
 _atom_site_fract_y
 _atom_site_fract_z
 _atom_site_occupancy
  Yb  Yb0  1  0.75000000  0.64510768  0.12321933  1
  Yb  Yb1  1  0.25000000  0.35489232  0.87678067  1
  Yb  Yb2  1  0.25000000  0.85489232  0.62321933  1
  Yb  Yb3  1  0.75000000  0.14510768  0.37678067  1
  Si  Si0  1  0.75000000  0.74043889  0.63161731  1
  Si  Si1  1  0.25000000  0.25956111  0.36838269  1
  Si  Si2  1  0.25000000  0.75956111  0.13161731  1
  Si  Si3  1  0.75000000  0.24043889  0.86838269  1
  Si  Si4  1  0.75000000  0.92205984  0.35282200  1
  Si  Si5  1  0.25000000  0.07794016  0.64717800  1
  Si  Si6  1  0.25000000  0.57794016  0.85282200  1
  Si  Si7  1  0.75000000  0.42205984  0.14717800  1
  Si  Si8  1  0.75000000  0.91611985  0.89991176  1
  Si  Si9  1  0.25000000  0.08388015  0.10008824  1
  Si  Si10  1  0.25000000  0.58388015  0.39991176  1
  Si  Si11  1  0.75000000  0.41611985  0.60008824  1
  Pd  Pd0  1  0.75000000  0.79970063  0.33294894  1
  Pd  Pd1  1  0.25000000  0.20029937  0.66705106  1
  Pd  Pd2  1  0.25000000  0.70029937  0.83294894  1
  Pd  Pd3  1  0.75000000  0.29970063  0.16705106  1
  Pd  Pd4  1  0.75000000  0.99020661  0.62500195  1
  Pd  Pd5  1  0.25000000  0.00979339  0.37499805  1
  Pd  Pd6  1  0.25000000  0.50979339  0.12500195  1
  Pd  Pd7  1  0.75000000  0.49020661  0.87499805  1
  Pd  Pd8  1  0.75000000  0.51134683  0.37626080  1
  Pd  Pd9  1  0.25000000  0.48865317  0.62373920  1
  Pd  Pd10  1  0.25000000  0.98865317  0.87626080  1
  Pd  Pd11  1  0.75000000  0.01134683  0.12373920  1
  Pd  Pd12  1  0.75000000  0.79771832  0.93171499  1
  Pd  Pd13  1  0.25000000  0.20228168  0.06828501  1
  Pd  Pd14  1  0.25000000  0.70228168  0.43171499  1
  Pd  Pd15  1  0.75000000  0.29771832  0.56828501  1
  Pd  Pd16  1  0.75000000  0.61589545  0.64972692  1
  Pd  Pd17  1  0.25000000  0.38410355  0.35027308  1
  Pd  Pd18  1  0.25000000  0.88410455  0.14972692  1
  Pd  Pd19  1  0.75000000  0.11589545  0.85027308  1
loop_
_geom_bond_atom_site_label_1
_geom_bond_atom_site_label_2
_geom_bond_distance
_geom_bond_site_symmetry_2
Si0 Yb2 2.989971 1_555
Si0 Yb2 2.989971 1_655
Si1 Yb3 2.989971 1_455
Si1 Yb3 2.989971 1_555
Si2 Yb0 2.989971 1_455
Si2 Yb0 2.989971 1_555
Si3 Yb1 2.989971 1_555
Si3 Yb1 2.989971 1_655
Si4 Yb2 3.081392 1_555
Si4 Yb2 3.081392 1_655
Si5 Yb3 3.081392 1_455
Si5 Yb3 3.081392 1_555
Si6 Yb0 3.081392 1_456
Si6 Yb0 3.081392 1_556
Si7 Yb1 3.081392 1_654
Si7 Yb1 3.081392 1_554
Si8 Yb2 3.063586 1_555
Si8 Yb2 3.063586 1_655
Si9 Yb3 3.063586 1_555
Si9 Yb3 3.063586 1_455
Si10 Yb0 3.063586 1_455
Si10 Yb0 3.063586 1_555
Si11 Yb1 3.063586 1_655
Si11 Yb1 3.063586 1_555
Pd0 Si4 2.386438 1_555
Pd0 Si0 2.446215 1_555
Pd0 Si2 2.587724 1_555
Pd0 Si2 2.587724 1_655
Pd0 Yb2 3.085575 1_655
Pd0 Yb2 3.085575 1_555
Pd0 Yb0 3.369329 1_555
Pd1 Si5 2.386438 1_555
Pd1 Si1 2.446215 1_555
Pd1 Si3 2.587724 1_455
Pd1 Si3 2.587724 1_555
Pd1 Yb3 3.085575 1_555
Pd1 Yb3 3.085575 1_455
Pd1 Yb1 3.369329 1_555
Pd2 Si6 2.386438 1_555
Pd2 Si2 2.446215 1_556
Pd2 Si0 2.587724 1_455
Pd2 Si0 2.587724 1_555
Pd2 Yb0 3.085575 1_556
Pd2 Yb0 3.085575 1_456
Pd2 Yb2 3.369329 1_555
Pd3 Si7 2.386438 1_555
Pd3 Si3 2.446215 1_554
Pd3 Si1 2.587724 1_655
Pd3 Si1 2.587724 1_555
Pd3 Yb1 3.085575 1_554
Pd3 Yb1 3.085575 1_654
Pd3 Yb3 3.369329 1_555
Pd4 Si4 2.371561 1_555
Pd4 Si8 2.454062 1_555
Pd4 Si5 2.629509 1_665
Pd4 Si5 2.629509 1_565
Pd4 Yb2 3.303212 1_655
Pd4 Yb2 3.303212 1_555
Pd4 Yb3 3.508272 1_565
Pd5 Si5 2.371561 1_555
Pd5 Si9 2.454062 1_555
Pd5 Si4 2.629509 1_545
Pd5 Si4 2.629509 1_445
Pd5 Yb3 3.303212 1_555
Pd5 Yb3 3.303212 1_455
Pd5 Yb2 3.508272 1_545
Pd6 Si6 2.371561 1_554
Pd6 Si10 2.454062 1_555
Pd6 Si7 2.629509 1_455
Pd6 Si7 2.629509 1_555
Pd6 Yb0 3.303212 1_455
Pd6 Yb0 3.303212 1_555
Pd6 Yb1 3.508272 1_554
Pd7 Si7 2.371561 1_556
Pd7 Si11 2.454062 1_555
Pd7 Si6 2.629509 1_655
Pd7 Si6 2.629509 1_555
Pd7 Yb1 3.303212 1_655
Pd7 Yb1 3.303212 1_555
Pd7 Yb0 3.508272 1_556
Pd8 Si7 2.399770 1_555
Pd8 Si10 2.448374 1_555
Pd8 Si10 2.448374 1_655
Pd8 Si11 2.459704 1_555
Pd8 Yb0 3.181373 1_555
Pd9 Si6 2.399770 1_555
Pd9 Si11 2.448374 1_455
Pd9 Si11 2.448374 1_555
Pd9 Si10 2.459704 1_555
Pd9 Yb1 3.181373 1_555
Pd10 Si5 2.399770 1_565
Pd10 Si8 2.448374 1_455
Pd10 Si8 2.448374 1_555
Pd10 Si9 2.459704 1_566
Pd10 Yb2 3.181373 1_555
Pd11 Si4 2.399770 1_545
Pd11 Si9 2.448374 1_555
Pd11 Si9 2.448374 1_655
Pd11 Si8 2.459704 1_544
Pd11 Yb3 3.181373 1_555
Pd12 Si8 2.316484 1_555
Pd12 Si0 2.437427 1_555
Pd12 Si2 2.570520 1_656
Pd12 Si2 2.570520 1_556
Pd12 Yb2 3.189736 1_555
Pd12 Yb2 3.189736 1_655
Pd12 Yb0 3.277215 1_556
Pd13 Si9 2.316484 1_555
Pd13 Si1 2.437427 1_555
Pd13 Si3 2.570520 1_554
Pd13 Si3 2.570520 1_454
Pd13 Yb3 3.189736 1_455
Pd13 Yb3 3.189736 1_555
Pd13 Yb1 3.277215 1_554
Pd14 Si10 2.316484 1_555
Pd14 Si2 2.437427 1_555
Pd14 Si0 2.570520 1_455
Pd14 Si0 2.570520 1_555
Pd14 Yb0 3.189736 1_455
Pd14 Yb0 3.189736 1_555
Pd14 Yb2 3.277215 1_555
Pd15 Si11 2.316484 1_555
Pd15 Si3 2.437427 1_555
Pd15 Si1 2.570520 1_655
Pd15 Si1 2.570520 1_555
Pd15 Yb1 3.189736 1_555
Pd15 Yb1 3.189736 1_655
Pd15 Yb3 3.277215 1_555
Pd16 Si0 2.428166 1_555
Pd16 Si6 2.582414 1_555
Pd16 Si6 2.582414 1_655
Pd16 Si10 2.759540 1_555
Pd16 Si10 2.759540 1_655
Pd16 Yb0 3.466647 1_556
Pd17 Si1 2.428146 1_555
Pd17 Si7 2.582420 1_555
Pd17 Si7 2.582420 1_455
Pd17 Si11 2.759544 1_555
Pd17 Si11 2.759544 1_455
Pd17 Yb1 3.466644 1_554
Pd18 Si2 2.428166 1_555
Pd18 Si4 2.582414 1_555
Pd18 Si4 2.582414 1_455
Pd18 Si8 2.759540 1_454
Pd18 Si8 2.759540 1_554
Pd18 Yb2 3.466647 1_555
Pd19 Si3 2.428166 1_555
Pd19 Si5 2.582414 1_555
Pd19 Si5 2.582414 1_655
Pd19 Si9 2.759540 1_656
Pd19 Si9 2.759540 1_556
Pd19 Yb3 3.466647 1_555
