# generated using pymatgen
data_ZrNb4CN4
_symmetry_space_group_name_H-M   'P 1'
_cell_length_a   13.14125152
_cell_length_b   13.14125152
_cell_length_c   13.14125145
_cell_angle_alpha   13.90513444
_cell_angle_beta   13.90513444
_cell_angle_gamma   13.90513316
_symmetry_Int_Tables_number   1
_chemical_formula_structural   ZrNb4CN4
_chemical_formula_sum   'Zr1 Nb4 C1 N4'
_cell_volume   114.05883138
_cell_formula_units_Z   1
loop_
 _symmetry_equiv_pos_site_id
 _symmetry_equiv_pos_as_xyz
  1  'x, y, z'
loop_
 _atom_site_type_symbol
 _atom_site_label
 _atom_site_symmetry_multiplicity
 _atom_site_fract_x
 _atom_site_fract_y
 _atom_site_fract_z
 _atom_site_occupancy
  Zr  Zr0  1  0.69935600  0.69935600  0.69935600  1
  Nb  Nb0  1  0.29963600  0.29963600  0.29963600  1
  Nb  Nb1  1  0.89924700  0.89924700  0.89924700  1
  Nb  Nb2  1  0.50007900  0.50007900  0.50007900  1
  Nb  Nb3  1  0.10251800  0.10251800  0.10251800  1
  C  C0  1  0.99783900  0.99783900  0.99783900  1
  N  N0  1  0.59770400  0.59770400  0.59770400  1
  N  N1  1  0.19923100  0.19923100  0.19923100  1
  N  N2  1  0.80159400  0.80159400  0.80159400  1
  N  N3  1  0.40279400  0.40279400  0.40279400  1
loop_
_geom_bond_atom_site_label_1
_geom_bond_atom_site_label_2
_geom_bond_distance
_geom_bond_site_symmetry_2
C0 Nb0 2.211196 1_566
C0 Nb0 2.211196 1_656
C0 Nb0 2.211196 1_665
C0 Zr0 2.285749 1_655
C0 Zr0 2.285749 1_565
C0 Zr0 2.285749 1_556
N0 Nb1 2.216732 1_455
N0 Nb1 2.216732 1_545
N0 Nb1 2.216732 1_554
N0 Nb0 2.295428 1_565
N0 Nb0 2.295428 1_655
N0 Nb0 2.295428 1_556
N1 Nb2 2.232034 1_455
N1 Nb2 2.232034 1_545
N1 Nb2 2.232034 1_554
N1 Nb1 2.251367 1_454
N1 Nb1 2.251367 1_544
N1 Nb1 2.251367 1_445
N2 Nb2 2.217344 1_565
N2 Nb2 2.217344 1_655
N2 Nb2 2.217344 1_556
N2 Nb3 2.230349 1_566
N2 Nb3 2.230349 1_656
N2 Nb3 2.230349 1_665
N3 Nb3 2.244795 1_565
N3 Nb3 2.244795 1_655
N3 Nb3 2.244795 1_556
N3 Zr0 2.331161 1_545
N3 Zr0 2.331161 1_455
N3 Zr0 2.331161 1_554
