# generated using pymatgen
data_Fe7Ge4
_symmetry_space_group_name_H-M   'P 1'
_cell_length_a   4.08130710
_cell_length_b   4.08130710
_cell_length_c   9.98428918
_cell_angle_alpha   90.00000000
_cell_angle_beta   90.00000000
_cell_angle_gamma   119.99999120
_symmetry_Int_Tables_number   1
_chemical_formula_structural   Fe7Ge4
_chemical_formula_sum   'Fe7 Ge4'
_cell_volume   144.02781434
_cell_formula_units_Z   1
loop_
 _symmetry_equiv_pos_site_id
 _symmetry_equiv_pos_as_xyz
  1  'x, y, z'
loop_
 _atom_site_type_symbol
 _atom_site_label
 _atom_site_symmetry_multiplicity
 _atom_site_fract_x
 _atom_site_fract_y
 _atom_site_fract_z
 _atom_site_occupancy
  Fe  Fe0  1  -0.00000000  0.00000000  0.87217264  1
  Fe  Fe1  1  -0.00000000  0.00000000  0.37534900  1
  Fe  Fe2  1  -0.00000000  0.00000000  0.12775017  1
  Fe  Fe3  1  0.00000000  0.00000000  0.62469260  1
  Fe  Fe4  1  0.66666700  0.33333300  0.50009279  1
  Fe  Fe5  1  0.33333300  0.66666700  0.76202438  1
  Fe  Fe6  1  0.33333300  0.66666700  0.23790212  1
  Ge  Ge0  1  0.66666700  0.33333300  0.75298339  1
  Ge  Ge1  1  0.66666700  0.33333300  0.24706180  1
  Ge  Ge2  1  0.33333300  0.66666700  -0.00009325  1
  Ge  Ge3  1  0.33333300  0.66666700  0.50006435  1
loop_
_geom_bond_atom_site_label_1
_geom_bond_atom_site_label_2
_geom_bond_distance
_geom_bond_site_symmetry_2
Fe0 Fe3 2.470912 1_555
Fe0 Fe2 2.551760 1_556
Fe0 Fe5 2.600346 1_545
Fe0 Fe5 2.600349 1_445
Fe0 Fe5 2.600349 1_555
Fe0 Ge0 2.639790 1_455
Fe0 Ge0 2.639794 1_445
Fe0 Ge0 2.639794 1_555
Fe0 Ge2 2.679332 1_546
Fe0 Ge2 2.679336 1_446
Fe0 Ge2 2.679336 1_556
Fe1 Fe2 2.472098 1_555
Fe1 Fe3 2.489519 1_555
Fe1 Ge3 2.665118 1_545
Fe1 Ge3 2.665121 1_555
Fe1 Ge3 2.665121 1_445
Fe1 Fe4 2.665250 1_455
Fe1 Fe4 2.665254 1_445
Fe1 Fe4 2.665254 1_555
Fe1 Ge1 2.681965 1_455
Fe1 Ge1 2.681969 1_555
Fe1 Ge1 2.681969 1_445
Fe1 Fe6 2.726826 1_545
Fe1 Fe6 2.726829 1_555
Fe1 Fe6 2.726829 1_445
Fe2 Fe6 2.600362 1_545
Fe2 Fe6 2.600365 1_445
Fe2 Fe6 2.600365 1_555
Fe2 Ge1 2.640341 1_455
Fe2 Ge1 2.640345 1_555
Fe2 Ge1 2.640345 1_445
Fe2 Ge2 2.679852 1_545
Fe2 Ge2 2.679855 1_445
Fe2 Ge2 2.679855 1_555
Fe3 Fe4 2.664579 1_455
Fe3 Fe4 2.664582 1_445
Fe3 Fe4 2.664582 1_555
Fe3 Ge3 2.664712 1_545
Fe3 Ge3 2.664715 1_445
Fe3 Ge3 2.664715 1_555
Fe3 Ge0 2.681982 1_455
Fe3 Ge0 2.681986 1_445
Fe3 Ge0 2.681986 1_555
Fe3 Fe5 2.726247 1_545
Fe3 Fe5 2.726251 1_555
Fe3 Fe5 2.726251 1_445
Fe4 Ge3 2.356342 1_545
Fe4 Ge3 2.356342 1_655
Fe4 Ge3 2.356348 1_555
Fe4 Ge0 2.524933 1_555
Fe4 Ge1 2.526335 1_555
Fe5 Ge0 2.358070 1_455
Fe5 Ge0 2.358070 1_565
Fe5 Ge0 2.358077 1_555
Fe5 Ge2 2.375086 1_556
Fe5 Ge3 2.615485 1_555
Fe6 Ge1 2.358116 1_455
Fe6 Ge1 2.358116 1_565
Fe6 Ge1 2.358122 1_555
Fe6 Ge2 2.376215 1_555
Fe6 Ge3 2.617504 1_555
