# generated using pymatgen
data_PrAsPd
_symmetry_space_group_name_H-M   'P 1'
_cell_length_a   4.52392826
_cell_length_b   4.52392826
_cell_length_c   7.85763200
_cell_angle_alpha   90.00000000
_cell_angle_beta   90.00000000
_cell_angle_gamma   119.55483577
_symmetry_Int_Tables_number   1
_chemical_formula_structural   PrAsPd
_chemical_formula_sum   'Pr2 As2 Pd2'
_cell_volume   139.88928650
_cell_formula_units_Z   2
loop_
 _symmetry_equiv_pos_site_id
 _symmetry_equiv_pos_as_xyz
  1  'x, y, z'
loop_
 _atom_site_type_symbol
 _atom_site_label
 _atom_site_symmetry_multiplicity
 _atom_site_fract_x
 _atom_site_fract_y
 _atom_site_fract_z
 _atom_site_occupancy
  Pr  Pr0  1  0.50000000  0.50000000  0.25679100  1
  Pr  Pr1  1  0.50000000  0.50000000  0.74320900  1
  As  As0  1  0.82227700  0.17772300  0.00000000  1
  As  As1  1  0.17772300  0.82227700  0.00000000  1
  Pd  Pd0  1  0.16724500  0.83275500  0.50000000  1
  Pd  Pd1  1  0.83275500  0.16724500  0.50000000  1
loop_
_geom_bond_atom_site_label_1
_geom_bond_atom_site_label_2
_geom_bond_distance
_geom_bond_site_symmetry_2
As0 As1 2.542180 1_545
As0 As1 2.542180 1_655
As0 As1 2.778891 1_645
As0 Pr1 3.227948 1_554
As0 Pr0 3.227948 1_555
As0 Pr0 3.344763 1_545
As0 Pr1 3.344763 1_544
As0 Pr0 3.344763 1_655
As0 Pr1 3.344763 1_654
As1 Pr1 3.227948 1_554
As1 Pr0 3.227948 1_555
As1 Pr1 3.344763 1_564
As1 Pr0 3.344763 1_565
As1 Pr1 3.344763 1_454
As1 Pr0 3.344763 1_455
Pd0 Pd1 2.615056 1_465
Pd0 Pd1 2.619128 1_455
Pd0 Pd1 2.619128 1_565
Pd0 Pr1 3.227981 1_555
Pd0 Pr0 3.227981 1_555
Pd0 Pr1 3.247648 1_455
Pd0 Pr0 3.247648 1_455
Pd0 Pr1 3.247648 1_565
Pd0 Pr0 3.247648 1_565
Pd1 Pr1 3.227981 1_555
Pd1 Pr0 3.227981 1_555
Pd1 Pr1 3.247648 1_655
Pd1 Pr0 3.247648 1_545
Pd1 Pr1 3.247648 1_545
Pd1 Pr0 3.247648 1_655
