# generated using pymatgen
data_Ce2H16S3O20
_symmetry_space_group_name_H-M   'P 1'
_cell_length_a   7.00794258
_cell_length_b   7.00794258
_cell_length_c   22.54561803
_cell_angle_alpha   82.21076671
_cell_angle_beta   82.21076671
_cell_angle_gamma   71.35811766
_symmetry_Int_Tables_number   1
_chemical_formula_structural   Ce2H16S3O20
_chemical_formula_sum   'Ce4 H32 S6 O40'
_cell_volume   1034.44595053
_cell_formula_units_Z   2
loop_
 _symmetry_equiv_pos_site_id
 _symmetry_equiv_pos_as_xyz
  1  'x, y, z'
loop_
 _atom_site_type_symbol
 _atom_site_label
 _atom_site_symmetry_multiplicity
 _atom_site_fract_x
 _atom_site_fract_y
 _atom_site_fract_z
 _atom_site_occupancy
  Ce  Ce0  1  0.12665100  0.20792400  0.08864500  1
  Ce  Ce1  1  0.79207600  0.87334900  0.41135500  1
  Ce  Ce2  1  0.87334900  0.79207600  0.91135500  1
  Ce  Ce3  1  0.20792400  0.12665100  0.58864500  1
  H  H0  1  0.51045500  0.13198700  0.99778600  1
  H  H1  1  0.86801300  0.48954500  0.50221400  1
  H  H2  1  0.48954500  0.86801300  0.00221400  1
  H  H3  1  0.13198700  0.51045500  0.49778600  1
  H  H4  1  0.24605300  0.63878200  0.97054800  1
  H  H5  1  0.36121800  0.75394700  0.52945200  1
  H  H6  1  0.75394700  0.36121800  0.02945200  1
  H  H7  1  0.63878200  0.24605300  0.47054800  1
  H  H8  1  0.16271200  0.44387700  0.27313400  1
  H  H9  1  0.55612300  0.83728800  0.22686600  1
  H  H10  1  0.83728800  0.55612300  0.72686600  1
  H  H11  1  0.44387700  0.16271200  0.77313400  1
  H  H12  1  0.33872500  0.33996600  0.16318000  1
  H  H13  1  0.66003400  0.66127500  0.33682000  1
  H  H14  1  0.66127500  0.66003400  0.83682000  1
  H  H15  1  0.33996600  0.33872500  0.66318000  1
  H  H16  1  0.58037800  0.43286500  0.12526300  1
  H  H17  1  0.56713500  0.41962200  0.37473700  1
  H  H18  1  0.41962200  0.56713500  0.87473700  1
  H  H19  1  0.43286500  0.58037800  0.62526300  1
  H  H20  1  0.70327800  0.17244700  0.06658400  1
  H  H21  1  0.82755300  0.29672200  0.43341600  1
  H  H22  1  0.29672200  0.82755300  0.93341600  1
  H  H23  1  0.17244700  0.70327800  0.56658400  1
  H  H24  1  0.56551400  0.83301800  0.19349700  1
  H  H25  1  0.16698200  0.43448600  0.30650300  1
  H  H26  1  0.43448600  0.16698200  0.80650300  1
  H  H27  1  0.83301800  0.56551400  0.69349700  1
  H  H28  1  0.39875200  0.61527100  0.14763600  1
  H  H29  1  0.38472900  0.60124800  0.35236400  1
  H  H30  1  0.60124800  0.38472900  0.85236400  1
  H  H31  1  0.61527100  0.39875200  0.64763600  1
  S  S0  1  0.99141700  0.30404400  0.93152000  1
  S  S1  1  0.69595600  0.00858300  0.56848000  1
  S  S2  1  0.00858300  0.69595600  0.06848000  1
  S  S3  1  0.30404400  0.99141700  0.43152000  1
  S  S4  1  0.77861100  0.22138900  0.25000000  1
  S  S5  1  0.22138900  0.77861100  0.75000000  1
  O  O0  1  0.11422600  0.18660100  0.98167700  1
  O  O1  1  0.81339900  0.88577400  0.51832300  1
  O  O2  1  0.88577400  0.81339900  0.01832300  1
  O  O3  1  0.18660100  0.11422600  0.48167700  1
  O  O4  1  0.10135000  0.42789100  0.89141400  1
  O  O5  1  0.57210900  0.89865000  0.60858600  1
  O  O6  1  0.89865000  0.57210900  0.10858600  1
  O  O7  1  0.42789100  0.10135000  0.39141400  1
  O  O8  1  0.80510000  0.45925900  0.95920700  1
  O  O9  1  0.54074100  0.19490000  0.54079300  1
  O  O10  1  0.19490000  0.54074100  0.04079300  1
  O  O11  1  0.45925900  0.80510000  0.45920700  1
  O  O12  1  0.93406400  0.16313300  0.89967900  1
  O  O13  1  0.83686700  0.06593600  0.60032100  1
  O  O14  1  0.06593600  0.83686700  0.10032100  1
  O  O15  1  0.16313300  0.93406400  0.39967900  1
  O  O16  1  0.89599600  0.14977500  0.19486600  1
  O  O17  1  0.85022500  0.10400400  0.30513400  1
  O  O18  1  0.10400400  0.85022500  0.80513400  1
  O  O19  1  0.14977500  0.89599600  0.69486600  1
  O  O20  1  0.47755700  0.47630700  0.15952900  1
  O  O21  1  0.52369300  0.52244300  0.34047100  1
  O  O22  1  0.52244300  0.52369300  0.84047100  1
  O  O23  1  0.47630700  0.47755700  0.65952900  1
  O  O24  1  0.47572700  0.13925900  0.04404800  1
  O  O25  1  0.86074100  0.52427300  0.45595200  1
  O  O26  1  0.52427300  0.86074100  0.95595200  1
  O  O27  1  0.13925900  0.47572700  0.54404800  1
  O  O28  1  0.25257400  0.24926100  0.15885300  1
  O  O29  1  0.75073900  0.74742600  0.34114700  1
  O  O30  1  0.74742600  0.75073900  0.84114700  1
  O  O31  1  0.24926100  0.25257400  0.65885300  1
  O  O32  1  0.76111200  0.28147000  0.07014900  1
  O  O33  1  0.71853000  0.23888800  0.42985100  1
  O  O34  1  0.23888800  0.71853000  0.92985100  1
  O  O35  1  0.28147000  0.76111200  0.57014900  1
  O  O36  1  0.41728000  0.95629100  0.06302500  1
  O  O37  1  0.04370900  0.58272000  0.43697500  1
  O  O38  1  0.58272000  0.04370900  0.93697500  1
  O  O39  1  0.95629100  0.41728000  0.56302500  1
loop_
_geom_bond_atom_site_label_1
_geom_bond_atom_site_label_2
_geom_bond_distance
_geom_bond_site_symmetry_2
Ce0 O28 2.008611 1_555
Ce0 O36 2.291857 1_545
Ce0 O24 2.436963 1_555
Ce0 O0 2.451313 1_554
Ce0 O32 2.527635 1_455
Ce0 O10 2.593036 1_555
Ce0 O6 2.603473 1_455
Ce0 O14 2.739264 1_545
Ce0 O16 2.760675 1_455
Ce1 O29 2.008611 1_555
Ce1 O37 2.291857 1_655
Ce1 O25 2.436963 1_555
Ce1 O1 2.451313 1_555
Ce1 O33 2.527635 1_565
Ce1 O11 2.593036 1_555
Ce1 O7 2.603473 1_565
Ce1 O15 2.739264 1_655
Ce1 O17 2.760675 1_565
Ce2 O30 2.008611 1_555
Ce2 O38 2.291857 1_565
Ce2 O26 2.436963 1_555
Ce2 O2 2.451313 1_556
Ce2 O34 2.527635 1_655
Ce2 O8 2.593036 1_555
Ce2 O4 2.603473 1_655
Ce2 O12 2.739264 1_565
Ce2 O18 2.760675 1_655
Ce3 O31 2.008611 1_555
Ce3 O39 2.291857 1_455
Ce3 O27 2.436963 1_555
Ce3 O3 2.451313 1_555
Ce3 O35 2.527635 1_545
Ce3 O9 2.593036 1_555
Ce3 O5 2.603473 1_545
Ce3 O13 2.739264 1_455
Ce3 O19 2.760675 1_545
H0 O24 1.042766 1_556
H0 O38 1.536328 1_555
H1 O25 1.042766 1_555
H1 O39 1.536328 1_555
H2 O26 1.042766 1_554
H2 O36 1.536328 1_555
H3 O27 1.042766 1_555
H3 O37 1.536328 1_555
H4 O34 1.006125 1_555
H4 O10 1.678497 1_556
H5 O35 1.006125 1_555
H5 O11 1.678497 1_555
H6 O32 1.006125 1_555
H6 O8 1.678497 1_554
H7 O33 1.006125 1_555
H7 O9 1.678497 1_555
H10 H27 0.750094 1_555
H11 H26 0.750094 1_555
H12 O28 1.027715 1_555
H12 O20 1.554849 1_555
H13 O29 1.027715 1_555
H13 O21 1.554849 1_555
H14 O30 1.027715 1_555
H14 O22 1.554849 1_555
H15 O31 1.027715 1_555
H15 O23 1.554849 1_555
H16 O20 0.990628 1_555
H17 O21 0.990628 1_555
H18 O22 0.990628 1_555
H19 O23 0.990628 1_555
H20 O32 0.988890 1_555
H21 O33 0.988890 1_555
H22 O34 0.988890 1_555
H23 O35 0.988890 1_555
H24 H9 0.750094 1_555
H25 H8 0.750094 1_555
H28 O20 0.975092 1_555
H29 O21 0.975092 1_555
H30 O22 0.975092 1_555
H31 O23 0.975092 1_555
O0 S0 1.501840 1_455
O1 S1 1.501840 1_565
O2 S2 1.501840 1_655
O3 S3 1.501840 1_545
O4 S0 1.479974 1_455
O5 S1 1.479974 1_565
O6 S2 1.479974 1_655
O7 S3 1.479974 1_545
O8 S0 1.527357 1_555
O9 S1 1.527357 1_555
O10 S2 1.527357 1_555
O11 S3 1.527357 1_555
O12 S0 1.475175 1_555
O13 S1 1.475175 1_555
O14 S2 1.475175 1_555
O15 S3 1.475175 1_555
O16 S4 1.449724 1_555
O17 S4 1.449724 1_555
O18 S5 1.449724 1_555
O19 S5 1.449724 1_555
O24 O36 1.460988 1_545
O25 O37 1.460988 1_655
O26 O38 1.460988 1_565
O27 O39 1.460988 1_455
