# generated using pymatgen
data_RbIn3F10
_symmetry_space_group_name_H-M   'P 1'
_cell_length_a   6.59866118
_cell_length_b   7.82713423
_cell_length_c   8.02790613
_cell_angle_alpha   90.00000000
_cell_angle_beta   90.00000000
_cell_angle_gamma   90.00000000
_symmetry_Int_Tables_number   1
_chemical_formula_structural   RbIn3F10
_chemical_formula_sum   'Rb2 In6 F20'
_cell_volume   414.63016709
_cell_formula_units_Z   2
loop_
 _symmetry_equiv_pos_site_id
 _symmetry_equiv_pos_as_xyz
  1  'x, y, z'
loop_
 _atom_site_type_symbol
 _atom_site_label
 _atom_site_symmetry_multiplicity
 _atom_site_fract_x
 _atom_site_fract_y
 _atom_site_fract_z
 _atom_site_occupancy
  Rb  Rb0  1  0.01544108  0.50000000  0.25000000  1
  Rb  Rb1  1  0.98455892  0.50000000  0.75000000  1
  In  In0  1  0.50000000  0.27060922  0.50000000  1
  In  In1  1  0.50000000  0.72939078  0.00000000  1
  In  In2  1  0.00000000  0.00000000  0.50000000  1
  In  In3  1  0.00000000  0.00000000  0.00000000  1
  In  In4  1  0.50000000  0.27060922  0.00000000  1
  In  In5  1  0.50000000  0.72939078  0.50000000  1
  F  F0  1  0.19361861  0.19917655  0.93759043  1
  F  F1  1  0.19361861  0.80082345  0.56240957  1
  F  F2  1  0.80638139  0.19917655  0.06240957  1
  F  F3  1  0.80638139  0.80082345  0.43759043  1
  F  F4  1  0.19361861  0.19917655  0.56240957  1
  F  F5  1  0.19361861  0.80082345  0.93759043  1
  F  F6  1  0.80638139  0.19917655  0.43759043  1
  F  F7  1  0.80638139  0.80082345  0.06240957  1
  F  F8  1  0.50000000  0.00000000  0.00000000  1
  F  F9  1  0.50000000  0.00000000  0.50000000  1
  F  F10  1  0.09802133  0.00000000  0.25000000  1
  F  F11  1  0.90197867  0.00000000  0.75000000  1
  F  F12  1  0.68273904  0.50000000  0.02457076  1
  F  F13  1  0.68273904  0.50000000  0.47542924  1
  F  F14  1  0.31726096  0.50000000  0.97542924  1
  F  F15  1  0.31726096  0.50000000  0.52457076  1
  F  F16  1  0.41440982  0.71738135  0.25000000  1
  F  F17  1  0.41440982  0.28261865  0.25000000  1
  F  F18  1  0.58559018  0.71738135  0.75000000  1
  F  F19  1  0.58559018  0.28261865  0.75000000  1
loop_
_geom_bond_atom_site_label_1
_geom_bond_atom_site_label_2
_geom_bond_distance
_geom_bond_site_symmetry_2
F0 In3 2.076960 1_556
F0 In4 2.156601 1_556
F0 Rb1 3.116896 1_455
F1 In2 2.076960 1_565
F1 In5 2.156601 1_555
F1 Rb1 3.116896 1_455
F2 In3 2.076960 1_655
F2 In4 2.156601 1_555
F2 Rb0 3.116896 1_655
F3 In2 2.076960 1_665
F3 In5 2.156601 1_555
F3 Rb0 3.116896 1_655
F4 In2 2.076960 1_555
F4 In0 2.156601 1_555
F4 Rb1 3.116896 1_455
F5 In3 2.076960 1_566
F5 In1 2.156601 1_556
F5 Rb1 3.116896 1_455
F6 In2 2.076960 1_655
F6 In0 2.156601 1_555
F6 Rb0 3.116896 1_655
F7 In3 2.076960 1_665
F7 In1 2.156601 1_555
F7 Rb0 3.116896 1_655
F8 In1 2.118095 1_545
F8 In4 2.118095 1_555
F9 In0 2.118095 1_555
F9 In5 2.118095 1_545
F10 In3 2.108629 1_555
F10 In2 2.108629 1_555
F11 In2 2.108629 1_655
F11 In3 2.108629 1_656
F12 In1 2.171788 1_555
F12 In4 2.171788 1_555
F12 Rb0 2.845142 1_655
F12 Rb1 2.970711 1_554
F13 In0 2.171788 1_555
F13 In5 2.171788 1_555
F13 Rb0 2.845142 1_655
F13 Rb1 2.970711 1_555
F14 In4 2.171788 1_556
F14 In1 2.171788 1_556
F14 Rb1 2.845142 1_455
F14 Rb0 2.970711 1_556
F15 In0 2.171788 1_555
F15 In5 2.171788 1_555
F15 Rb1 2.845142 1_455
F15 Rb0 2.970711 1_555
F16 In5 2.087048 1_555
F16 In1 2.087048 1_555
F16 Rb0 3.134630 1_555
F17 In0 2.087048 1_555
F17 In4 2.087048 1_555
F17 Rb0 3.134630 1_555
F18 In1 2.087048 1_556
F18 In5 2.087048 1_555
F18 Rb1 3.134630 1_555
F19 In4 2.087048 1_556
F19 In0 2.087048 1_555
F19 Rb1 3.134630 1_555
