# generated using pymatgen
data_Cs8Mg(Sn2O3)4
_symmetry_space_group_name_H-M   'P 1'
_cell_length_a   6.20951748
_cell_length_b   9.11777632
_cell_length_c   16.23439458
_cell_angle_alpha   84.15040622
_cell_angle_beta   90.00000000
_cell_angle_gamma   90.00000000
_symmetry_Int_Tables_number   1
_chemical_formula_structural   Cs8Mg(Sn2O3)4
_chemical_formula_sum   'Cs8 Mg1 Sn8 O12'
_cell_volume   914.35647945
_cell_formula_units_Z   1
loop_
 _symmetry_equiv_pos_site_id
 _symmetry_equiv_pos_as_xyz
  1  'x, y, z'
loop_
 _atom_site_type_symbol
 _atom_site_label
 _atom_site_symmetry_multiplicity
 _atom_site_fract_x
 _atom_site_fract_y
 _atom_site_fract_z
 _atom_site_occupancy
  Cs  Cs0  1  0.25000000  0.55896389  0.38271238  1
  Cs  Cs1  1  0.75000000  0.43265293  0.61923129  1
  Cs  Cs2  1  0.75000000  0.09710839  0.17606027  1
  Cs  Cs3  1  0.25000000  0.90244380  0.82872760  1
  Cs  Cs4  1  0.25000000  0.40181248  0.14475022  1
  Cs  Cs5  1  0.75000000  0.59223694  0.83634900  1
  Cs  Cs6  1  0.75000000  0.85334563  0.41879123  1
  Cs  Cs7  1  0.25000000  0.14694596  0.59334254  1
  Mg  Mg0  1  0.75000000  0.76462293  0.04331636  1
  Sn  Sn0  1  0.25000000  0.84558817  0.18096477  1
  Sn  Sn1  1  0.75000000  0.15066563  0.82638067  1
  Sn  Sn2  1  0.75000000  0.30706518  0.37716092  1
  Sn  Sn3  1  0.25000000  0.69076518  0.61730761  1
  Sn  Sn4  1  0.25000000  0.12297628  0.32454862  1
  Sn  Sn5  1  0.75000000  0.89131684  0.67006984  1
  Sn  Sn6  1  0.75000000  0.63844376  0.23771172  1
  Sn  Sn7  1  0.25000000  0.36562763  0.77151471  1
  O  O0  1  0.00230141  0.27708376  0.29533656  1
  O  O1  1  0.50206124  0.73652702  0.69495765  1
  O  O2  1  0.99724370  0.78305031  0.26290697  1
  O  O3  1  0.49819922  0.22233065  0.74559847  1
  O  O4  1  0.99793876  0.73652702  0.69495765  1
  O  O5  1  0.49769859  0.27708376  0.29533656  1
  O  O6  1  0.00180078  0.22233065  0.74559847  1
  O  O7  1  0.50275630  0.78305031  0.26290697  1
  O  O8  1  0.25000000  0.06648805  0.20229252  1
  O  O9  1  0.75000000  0.93677960  0.79299773  1
  O  O10  1  0.75000000  0.53619723  0.35919316  1
  O  O11  1  0.25000000  0.46354104  0.64758856  1
loop_
_geom_bond_atom_site_label_1
_geom_bond_atom_site_label_2
_geom_bond_distance
_geom_bond_site_symmetry_2
Cs0 O7 3.100119 1_555
Cs0 O2 3.100119 1_455
Cs0 O10 3.137604 1_455
Cs0 O10 3.137604 1_555
Cs0 O0 3.424395 1_555
Cs0 O5 3.424395 1_555
Cs1 O6 3.086894 1_655
Cs1 O3 3.086894 1_555
Cs1 O11 3.155504 1_655
Cs1 O11 3.155504 1_555
Cs1 O4 3.500356 1_555
Cs1 O1 3.500356 1_555
Cs2 O5 3.089419 1_555
Cs2 O0 3.089419 1_655
Cs2 O8 3.142387 1_555
Cs2 O8 3.142387 1_655
Cs2 O2 3.423686 1_545
Cs2 O7 3.423686 1_545
Cs2 Mg0 3.894344 1_545
Cs3 O9 3.168120 1_455
Cs3 O9 3.168120 1_555
Cs3 O4 3.181847 1_455
Cs3 O1 3.181847 1_555
Cs3 O6 3.449802 1_565
Cs3 O3 3.449802 1_565
Cs4 O0 3.011445 1_555
Cs4 O5 3.011445 1_555
Cs4 O8 3.104555 1_555
Cs5 O4 2.958792 1_555
Cs5 O1 2.958792 1_555
Cs5 O9 3.148561 1_555
Cs5 Mg0 3.851817 1_556
Cs6 O2 3.082667 1_555
Cs6 O7 3.082667 1_555
Cs6 O10 3.141383 1_555
Cs7 O6 3.050204 1_555
Cs7 O3 3.050204 1_555
Cs7 O11 3.102649 1_555
Mg0 Sn6 3.247023 1_555
O0 Sn2 2.089920 1_455
O0 Sn4 2.104554 1_555
O1 Sn3 2.078511 1_555
O1 Sn5 2.099809 1_555
O2 Sn6 2.091097 1_555
O2 Sn0 2.098448 1_655
O3 Sn7 2.090796 1_555
O3 Sn1 2.101646 1_555
O4 Sn3 2.078511 1_655
O4 Sn5 2.099809 1_555
O5 Sn2 2.089920 1_555
O5 Sn4 2.104554 1_555
O6 Sn7 2.090796 1_555
O6 Sn1 2.101646 1_455
O7 Sn6 2.091097 1_555
O7 Sn0 2.098448 1_555
O8 Sn0 2.078147 1_545
O8 Sn4 2.100688 1_555
O9 Sn1 2.076605 1_565
O9 Sn5 2.079208 1_555
O10 Sn2 2.079788 1_555
O10 Sn6 2.093759 1_555
O11 Sn3 2.079983 1_555
O11 Sn7 2.116248 1_555
