# generated using pymatgen
data_ThSnRh
_symmetry_space_group_name_H-M   'P 1'
_cell_length_a   7.55965207
_cell_length_b   7.55965207
_cell_length_c   4.11290577
_cell_angle_alpha   90.00000000
_cell_angle_beta   90.00000000
_cell_angle_gamma   120.00000186
_symmetry_Int_Tables_number   1
_chemical_formula_structural   ThSnRh
_chemical_formula_sum   'Th3 Sn3 Rh3'
_cell_volume   203.55557384
_cell_formula_units_Z   3
loop_
 _symmetry_equiv_pos_site_id
 _symmetry_equiv_pos_as_xyz
  1  'x, y, z'
loop_
 _atom_site_type_symbol
 _atom_site_label
 _atom_site_symmetry_multiplicity
 _atom_site_fract_x
 _atom_site_fract_y
 _atom_site_fract_z
 _atom_site_occupancy
  Th  Th0  1  0.41291629  0.41291629  0.50000000  1
  Th  Th1  1  0.58708371  0.00000000  0.50000000  1
  Th  Th2  1  0.00000000  0.58708371  0.50000000  1
  Sn  Sn0  1  0.75026641  0.75026641  0.00000000  1
  Sn  Sn1  1  0.24973359  0.00000000  -0.00000000  1
  Sn  Sn2  1  0.00000000  0.24973359  -0.00000000  1
  Rh  Rh0  1  0.66666700  0.33333300  0.00000000  1
  Rh  Rh1  1  0.33333300  0.66666700  -0.00000000  1
  Rh  Rh2  1  -0.00000000  0.00000000  0.50000000  1
loop_
_geom_bond_atom_site_label_1
_geom_bond_atom_site_label_2
_geom_bond_distance
_geom_bond_site_symmetry_2
Sn0 Sn2 3.269937 1_665
Sn0 Sn1 3.269937 1_665
Sn0 Th0 3.276091 1_555
Sn0 Th0 3.276091 1_554
Sn0 Th2 3.412310 1_654
Sn0 Th2 3.412310 1_655
Sn0 Th1 3.412310 1_564
Sn0 Th1 3.412310 1_565
Sn1 Sn2 3.269937 1_555
Sn1 Th1 3.276091 1_555
Sn1 Th1 3.276091 1_554
Sn1 Th2 3.412310 1_544
Sn1 Th2 3.412310 1_545
Sn1 Th0 3.412310 1_555
Sn1 Th0 3.412310 1_554
Sn2 Th2 3.276091 1_555
Sn2 Th2 3.276091 1_554
Sn2 Th1 3.412310 1_454
Sn2 Th1 3.412310 1_455
Sn2 Th0 3.412310 1_554
Sn2 Th0 3.412310 1_555
Rh0 Sn2 2.888205 1_655
Rh0 Sn1 2.888209 1_555
Rh0 Sn0 2.888212 1_555
Rh0 Th1 3.069973 1_554
Rh0 Th1 3.069973 1_555
Rh0 Th2 3.069975 1_654
Rh0 Th2 3.069975 1_655
Rh0 Th0 3.069978 1_555
Rh0 Th0 3.069978 1_554
Rh1 Sn1 2.888205 1_565
Rh1 Sn2 2.888209 1_555
Rh1 Sn0 2.888212 1_555
Rh1 Th2 3.069973 1_555
Rh1 Th2 3.069973 1_554
Rh1 Th1 3.069975 1_565
Rh1 Th1 3.069975 1_564
Rh1 Th0 3.069978 1_555
Rh1 Th0 3.069978 1_554
Rh2 Sn0 2.791623 1_446
Rh2 Sn0 2.791623 1_445
Rh2 Sn2 2.791623 1_556
Rh2 Sn1 2.791623 1_556
Rh2 Sn1 2.791623 1_555
Rh2 Sn2 2.791623 1_555
Rh2 Th0 3.121503 1_555
Rh2 Th1 3.121503 1_455
Rh2 Th2 3.121503 1_545
