# generated using pymatgen
data_BaMnSnSe4
_symmetry_space_group_name_H-M   'P 1'
_cell_length_a   13.22239993
_cell_length_b   13.22239993
_cell_length_c   13.50624855
_cell_angle_alpha   104.92706162
_cell_angle_beta   104.92706162
_cell_angle_gamma   118.27878357
_symmetry_Int_Tables_number   1
_chemical_formula_structural   BaMnSnSe4
_chemical_formula_sum   'Ba8 Mn8 Sn8 Se32'
_cell_volume   1798.29050435
_cell_formula_units_Z   8
loop_
 _symmetry_equiv_pos_site_id
 _symmetry_equiv_pos_as_xyz
  1  'x, y, z'
loop_
 _atom_site_type_symbol
 _atom_site_label
 _atom_site_symmetry_multiplicity
 _atom_site_fract_x
 _atom_site_fract_y
 _atom_site_fract_z
 _atom_site_occupancy
  Ba  Ba0  1  0.23547666  0.73547666  0.50000000  1
  Ba  Ba1  1  0.98547666  0.98547666  -0.00000000  1
  Ba  Ba2  1  0.48251589  0.48251589  -0.00000000  1
  Ba  Ba3  1  0.73251589  0.23251589  0.50000000  1
  Ba  Ba4  1  0.48815088  0.98550359  0.00420873  1
  Ba  Ba5  1  0.98129486  0.48394216  0.99579127  1
  Ba  Ba6  1  0.23550359  0.23815088  0.50420873  1
  Ba  Ba7  1  0.73394216  0.73129486  0.49579127  1
  Mn  Mn0  1  0.14405904  0.49689755  0.75108148  1
  Mn  Mn1  1  0.74581607  0.39297756  0.24891852  1
  Mn  Mn2  1  0.74689755  0.89405904  0.25108148  1
  Mn  Mn3  1  0.64297756  0.49581607  0.74891852  1
  Mn  Mn4  1  0.71629243  0.99081199  0.74744477  1
  Mn  Mn5  1  0.24336722  0.96884766  0.25255523  1
  Mn  Mn6  1  0.24081199  0.46629243  0.24744477  1
  Mn  Mn7  1  0.21884766  0.99336722  0.75255523  1
  Sn  Sn0  1  0.49562829  0.72334317  0.75054853  1
  Sn  Sn1  1  0.97279464  0.74507976  0.24945147  1
  Sn  Sn2  1  0.97334317  0.24562829  0.25054853  1
  Sn  Sn3  1  0.99507976  0.72279464  0.74945147  1
  Sn  Sn4  1  0.58148408  0.21929196  0.75028114  1
  Sn  Sn5  1  0.46901082  0.83120295  0.24971886  1
  Sn  Sn6  1  0.46929196  0.33148408  0.25028114  1
  Sn  Sn7  1  0.08120295  0.21901082  0.74971886  1
  Se  Se0  1  0.29280263  0.70683379  0.75123049  1
  Se  Se1  1  0.95560330  0.54157214  0.24876951  1
  Se  Se2  1  0.95683379  0.04280263  0.25123049  1
  Se  Se3  1  0.79157214  0.70560330  0.74876951  1
  Se  Se4  1  0.02409725  0.27335193  0.58271580  1
  Se  Se5  1  0.69063613  0.44138145  0.41728420  1
  Se  Se6  1  0.52335193  0.77409725  0.08271580  1
  Se  Se7  1  0.69138145  0.44063613  0.91728420  1
  Se  Se8  1  0.19006224  0.43843706  0.91854353  1
  Se  Se9  1  0.51989353  0.27151871  0.08145647  1
  Se  Se10  1  0.68843706  0.94006224  0.41854353  1
  Se  Se11  1  0.52151871  0.26989353  0.58145647  1
  Se  Se12  1  0.46079119  0.51661568  0.75295585  1
  Se  Se13  1  0.76365984  0.70783534  0.24704415  1
  Se  Se14  1  0.76661568  0.21079119  0.25295585  1
  Se  Se15  1  0.95783534  0.51365984  0.74704415  1
  Se  Se16  1  0.76718144  0.20069363  0.74885917  1
  Se  Se17  1  0.45183446  0.01832227  0.25114083  1
  Se  Se18  1  0.45069363  0.51718144  0.24885917  1
  Se  Se19  1  0.26832227  0.20183446  0.75114083  1
  Se  Se20  1  0.69312538  0.94100437  0.91607881  1
  Se  Se21  1  0.02492556  0.77704657  0.08392119  1
  Se  Se22  1  0.19100437  0.44312538  0.41607881  1
  Se  Se23  1  0.02704657  0.77492556  0.58392119  1
  Se  Se24  1  0.52357104  0.76955444  0.58171744  1
  Se  Se25  1  0.18783701  0.94185360  0.41828256  1
  Se  Se26  1  0.01955444  0.27357104  0.08171744  1
  Se  Se27  1  0.19185360  0.93783701  0.91828256  1
  Se  Se28  1  0.42180794  0.01243827  0.75294810  1
  Se  Se29  1  0.25949017  0.66885984  0.24705190  1
  Se  Se30  1  0.26243827  0.17180794  0.25294810  1
  Se  Se31  1  0.91885984  0.00949017  0.74705190  1
loop_
_geom_bond_atom_site_label_1
_geom_bond_atom_site_label_2
_geom_bond_distance
_geom_bond_site_symmetry_2
Ba0 Se22 3.437855 1_555
Ba0 Se23 3.437855 1_555
Ba0 Se29 3.438295 1_555
Ba0 Se28 3.438295 1_565
Ba0 Se1 3.441030 1_455
Ba0 Se0 3.441030 1_555
Ba0 Se25 3.447231 1_555
Ba0 Se24 3.447231 1_555
Ba1 Se20 3.437855 1_554
Ba1 Se21 3.437855 1_655
Ba1 Se31 3.438295 1_564
Ba1 Se30 3.438295 1_665
Ba1 Se3 3.441030 1_554
Ba1 Se2 3.441030 1_565
Ba1 Se27 3.447231 1_654
Ba1 Se26 3.447231 1_665
Ba2 Se18 3.435424 1_555
Ba2 Se19 3.435424 1_554
Ba2 Se12 3.438454 1_554
Ba2 Se13 3.438454 1_555
Ba2 Se8 3.441763 1_554
Ba2 Se9 3.441763 1_555
Ba2 Se6 3.449865 1_555
Ba2 Se7 3.449865 1_554
Ba3 Se17 3.435424 1_555
Ba3 Se16 3.435424 1_555
Ba3 Se14 3.438454 1_555
Ba3 Se15 3.438454 1_555
Ba3 Se11 3.441763 1_555
Ba3 Se10 3.441763 1_545
Ba3 Se5 3.449865 1_555
Ba3 Se4 3.449865 1_655
Ba4 Se6 3.414694 1_555
Ba4 Se14 3.434605 1_565
Ba4 Se28 3.434794 1_564
Ba4 Se9 3.435761 1_565
Ba4 Se17 3.437857 1_565
Ba4 Se0 3.445635 1_554
Ba4 Se20 3.452632 1_554
Ba4 Se27 3.469018 1_554
Ba5 Se7 3.414694 1_555
Ba5 Se15 3.434605 1_555
Ba5 Se29 3.434794 1_656
Ba5 Se8 3.435761 1_655
Ba5 Se16 3.437857 1_555
Ba5 Se1 3.445635 1_556
Ba5 Se21 3.452632 1_656
Ba5 Se26 3.469018 1_656
Ba6 Se4 3.414694 1_555
Ba6 Se12 3.434605 1_555
Ba6 Se30 3.434794 1_555
Ba6 Se11 3.435761 1_555
Ba6 Se19 3.437857 1_555
Ba6 Se2 3.445635 1_455
Ba6 Se22 3.452632 1_555
Ba6 Se25 3.469018 1_545
Ba7 Se5 3.414694 1_555
Ba7 Se13 3.434605 1_555
Ba7 Se31 3.434794 1_565
Ba7 Se10 3.435761 1_555
Ba7 Se18 3.437857 1_555
Ba7 Se3 3.445635 1_555
Ba7 Se23 3.452632 1_655
Ba7 Se24 3.469018 1_555
Mn0 Se0 2.528963 1_555
Mn0 Se15 2.563064 1_455
Mn0 Se4 2.580775 1_555
Mn0 Se8 2.592415 1_555
Mn1 Se1 2.528963 1_555
Mn1 Se14 2.563064 1_555
Mn1 Se5 2.580775 1_555
Mn1 Se9 2.592415 1_555
Mn2 Se2 2.528963 1_565
Mn2 Se13 2.563064 1_555
Mn2 Se6 2.580775 1_555
Mn2 Se10 2.592415 1_555
Mn3 Se3 2.528963 1_555
Mn3 Se12 2.563064 1_555
Mn3 Se7 2.580775 1_555
Mn3 Se11 2.592415 1_555
Mn4 Se16 2.520170 1_565
Mn4 Se31 2.572200 1_565
Mn4 Se20 2.579946 1_555
Mn4 Se24 2.585866 1_555
Mn5 Se17 2.520170 1_565
Mn5 Se30 2.572200 1_565
Mn5 Se21 2.579946 1_555
Mn5 Se25 2.585866 1_555
Mn6 Se18 2.520170 1_555
Mn6 Se29 2.572200 1_555
Mn6 Se22 2.579946 1_555
Mn6 Se26 2.585866 1_555
Mn7 Se19 2.520170 1_565
Mn7 Se28 2.572200 1_565
Mn7 Se23 2.579946 1_555
Mn7 Se27 2.585866 1_555
Se0 Sn0 2.588256 1_555
Se1 Sn1 2.588256 1_555
Se2 Sn2 2.588256 1_555
Se3 Sn3 2.588256 1_555
Se4 Sn7 2.577918 1_555
Se5 Sn6 2.577918 1_555
Se6 Sn5 2.577918 1_555
Se7 Sn4 2.577918 1_555
Se8 Sn7 2.575423 1_555
Se9 Sn6 2.575423 1_555
Se10 Sn5 2.575423 1_555
Se11 Sn4 2.575423 1_555
Se12 Sn0 2.558392 1_555
Se13 Sn1 2.558392 1_555
Se14 Sn2 2.558392 1_555
Se15 Sn3 2.558392 1_555
Se16 Sn4 2.585275 1_555
Se17 Sn5 2.585274 1_545
Se18 Sn6 2.585275 1_555
Se19 Sn7 2.585274 1_555
Se20 Sn0 2.580077 1_555
Se21 Sn1 2.580077 1_455
Se22 Sn2 2.580077 1_455
Se23 Sn3 2.580077 1_455
Se24 Sn0 2.578262 1_555
Se25 Sn1 2.578262 1_455
Se26 Sn2 2.578262 1_455
Se27 Sn3 2.578262 1_455
Se28 Sn4 2.560862 1_555
Se29 Sn5 2.560862 1_555
Se30 Sn6 2.560862 1_555
Se31 Sn7 2.560862 1_655
