# generated using pymatgen
data_K4TmP8H18(NO2)8
_symmetry_space_group_name_H-M   'P 1'
_cell_length_a   11.08433691
_cell_length_b   11.08433691
_cell_length_c   19.20355134
_cell_angle_alpha   86.01724627
_cell_angle_beta   86.01724627
_cell_angle_gamma   60.65336068
_symmetry_Int_Tables_number   1
_chemical_formula_structural   K4TmP8H18(NO2)8
_chemical_formula_sum   'K8 Tm2 P16 H36 N16 O32'
_cell_volume   2049.94778054
_cell_formula_units_Z   2
loop_
 _symmetry_equiv_pos_site_id
 _symmetry_equiv_pos_as_xyz
  1  'x, y, z'
loop_
 _atom_site_type_symbol
 _atom_site_label
 _atom_site_symmetry_multiplicity
 _atom_site_fract_x
 _atom_site_fract_y
 _atom_site_fract_z
 _atom_site_occupancy
  K  K0  1  0.50000000  0.00000000  0.00000000  1
  K  K1  1  0.00000000  0.50000000  0.50000000  1
  K  K2  1  0.37425400  0.62574600  0.25000000  1
  K  K3  1  0.62574600  0.37425400  0.75000000  1
  K  K4  1  0.43619900  0.19532400  0.29316100  1
  K  K5  1  0.56380100  0.80467600  0.70683900  1
  K  K6  1  0.80467600  0.56380100  0.20683900  1
  K  K7  1  0.19532400  0.43619900  0.79316100  1
  Tm  Tm0  1  0.75998600  0.24001400  0.25000000  1
  Tm  Tm1  1  0.24001400  0.75998600  0.75000000  1
  P  P0  1  0.89215300  0.02817300  0.10703200  1
  P  P1  1  0.10784700  0.97182700  0.89296800  1
  P  P2  1  0.97182700  0.10784700  0.39296800  1
  P  P3  1  0.02817300  0.89215300  0.60703200  1
  P  P4  1  0.58989400  0.20399700  0.11332800  1
  P  P5  1  0.41010600  0.79600300  0.88667200  1
  P  P6  1  0.79600300  0.41010600  0.38667200  1
  P  P7  1  0.20399700  0.58989400  0.61332800  1
  P  P8  1  0.71224000  0.06904000  0.40480800  1
  P  P9  1  0.28776000  0.93096000  0.59519200  1
  P  P10  1  0.93096000  0.28776000  0.09519200  1
  P  P11  1  0.06904000  0.71224000  0.90480900  1
  P  P12  1  0.53325800  0.38922900  0.39852700  1
  P  P13  1  0.46674200  0.61077100  0.60147300  1
  P  P14  1  0.61077100  0.46674200  0.10147300  1
  P  P15  1  0.38922900  0.53325800  0.89852700  1
  H  H0  1  0.23926300  0.05736600  0.05342600  1
  H  H1  1  0.76073700  0.94263400  0.94657400  1
  H  H2  1  0.94263400  0.76073700  0.44657400  1
  H  H3  1  0.05736600  0.23926300  0.55342600  1
  H  H4  1  0.68299400  0.90978300  0.58549400  1
  H  H5  1  0.31700600  0.09021700  0.41450600  1
  H  H6  1  0.09021700  0.31700600  0.91450600  1
  H  H7  1  0.90978300  0.68299400  0.08549400  1
  H  H8  1  0.61126000  0.77534500  0.09526800  1
  H  H9  1  0.38874000  0.22465500  0.90473200  1
  H  H10  1  0.22465500  0.38874000  0.40473200  1
  H  H11  1  0.77534500  0.61126000  0.59526800  1
  H  H12  1  0.42232200  0.02204100  0.18590900  1
  H  H13  1  0.57767800  0.97795900  0.81409100  1
  H  H14  1  0.97795900  0.57767800  0.31409100  1
  H  H15  1  0.02204100  0.42232200  0.68590900  1
  H  H16  1  0.26348400  0.79958900  0.11506400  1
  H  H17  1  0.73651600  0.20041100  0.88493600  1
  H  H18  1  0.20041100  0.73651600  0.38493600  1
  H  H19  1  0.79958900  0.26348400  0.61506400  1
  H  H20  1  0.49034400  0.77777400  0.30292600  1
  H  H21  1  0.50965600  0.22222600  0.69707400  1
  H  H22  1  0.22222600  0.50965600  0.19707400  1
  H  H23  1  0.77777400  0.49034400  0.80292600  1
  H  H24  1  0.58147500  0.77837100  0.43540200  1
  H  H25  1  0.41852500  0.22162900  0.56459800  1
  H  H26  1  0.22162900  0.41852500  0.06459800  1
  H  H27  1  0.77837100  0.58147500  0.93540200  1
  H  H28  1  0.18896400  0.97587400  0.23944300  1
  H  H29  1  0.81103600  0.02412600  0.76055700  1
  H  H30  1  0.02412600  0.81103600  0.26055700  1
  H  H31  1  0.97587400  0.18896400  0.73944300  1
  H  H32  1  0.71387200  0.88820500  0.23557100  1
  H  H33  1  0.28612800  0.11179500  0.76442900  1
  H  H34  1  0.11179500  0.28612800  0.26442900  1
  H  H35  1  0.88820500  0.71387200  0.73557100  1
  N  N0  1  0.86544200  0.04855600  0.42109300  1
  N  N1  1  0.13455800  0.95144400  0.57890700  1
  N  N2  1  0.95144400  0.13455800  0.07890700  1
  N  N3  1  0.04855600  0.86544200  0.92109300  1
  N  N4  1  0.73853000  0.10181500  0.07259400  1
  N  N5  1  0.26147000  0.89818500  0.92740600  1
  N  N6  1  0.89818500  0.26147000  0.42740600  1
  N  N7  1  0.10181500  0.73853000  0.57259400  1
  N  N8  1  0.56785700  0.35350200  0.07906400  1
  N  N9  1  0.43214300  0.64649800  0.92093600  1
  N  N10  1  0.64649800  0.43214300  0.42093600  1
  N  N11  1  0.35350200  0.56785700  0.57906400  1
  N  N12  1  0.59028500  0.22608000  0.42592600  1
  N  N13  1  0.40971500  0.77392000  0.57407400  1
  N  N14  1  0.77392000  0.40971500  0.07407400  1
  N  N15  1  0.22608000  0.59028500  0.92592600  1
  O  O0  1  0.88291400  0.04811700  0.18607900  1
  O  O1  1  0.11708600  0.95188300  0.81392100  1
  O  O2  1  0.95188300  0.11708600  0.31392100  1
  O  O3  1  0.04811700  0.88291400  0.68607900  1
  O  O4  1  0.53638900  0.38067800  0.31825300  1
  O  O5  1  0.46361100  0.61932200  0.68174700  1
  O  O6  1  0.61932200  0.46361100  0.18174700  1
  O  O7  1  0.38067800  0.53638900  0.81825300  1
  O  O8  1  0.60024100  0.21039700  0.19255900  1
  O  O9  1  0.39975900  0.78960300  0.80744100  1
  O  O10  1  0.78960300  0.39975900  0.30744100  1
  O  O11  1  0.21039700  0.60024100  0.69255900  1
  O  O12  1  0.70547300  0.08308500  0.32471300  1
  O  O13  1  0.29452700  0.91691500  0.67528700  1
  O  O14  1  0.91691500  0.29452700  0.17528700  1
  O  O15  1  0.08308500  0.70547300  0.82471300  1
  O  O16  1  0.88378800  0.97969400  0.58265800  1
  O  O17  1  0.11621200  0.02030600  0.41734200  1
  O  O18  1  0.02030600  0.11621200  0.91734200  1
  O  O19  1  0.97969400  0.88378800  0.08265800  1
  O  O20  1  0.68851600  0.96042900  0.44356100  1
  O  O21  1  0.31148400  0.03957100  0.55643900  1
  O  O22  1  0.03957100  0.31148400  0.05643900  1
  O  O23  1  0.96042900  0.68851600  0.94356100  1
  O  O24  1  0.48194200  0.16736700  0.09528200  1
  O  O25  1  0.51805800  0.83263300  0.90471800  1
  O  O26  1  0.83263300  0.51805800  0.40471800  1
  O  O27  1  0.16736700  0.48194200  0.59528200  1
  O  O28  1  0.51682000  0.60813700  0.06989700  1
  O  O29  1  0.48318000  0.39186300  0.93010300  1
  O  O30  1  0.39186300  0.48318000  0.43010300  1
  O  O31  1  0.60813700  0.51682000  0.56989700  1
loop_
_geom_bond_atom_site_label_1
_geom_bond_atom_site_label_2
_geom_bond_distance
_geom_bond_site_symmetry_2
K0 O24 2.624183 1_555
K0 O25 2.624183 1_544
K1 O27 2.624183 1_555
K1 O26 2.624183 1_455
K2 O6 2.715542 1_555
K2 O4 2.715542 1_555
K3 O5 2.715542 1_555
K3 O7 2.715542 1_555
K4 O8 2.613690 1_555
K4 O12 2.707450 1_555
K4 O4 2.852164 1_555
K4 N12 3.290879 1_555
K5 O9 2.613690 1_555
K5 O13 2.707450 1_555
K5 O5 2.852164 1_555
K5 N13 3.290879 1_555
K6 O10 2.613690 1_555
K6 O14 2.707450 1_555
K6 O6 2.852164 1_555
K6 N14 3.290879 1_555
K7 O11 2.613690 1_555
K7 O15 2.707450 1_555
K7 O7 2.852164 1_555
K7 N15 3.290879 1_555
H0 K0 2.772549 1_555
H1 K0 2.772549 1_566
H2 K1 2.772549 1_655
H3 K1 2.772549 1_555
H4 K5 3.039218 1_555
H5 K4 3.039218 1_555
H6 K7 3.039218 1_555
H7 K6 3.039218 1_555
H8 K0 2.781945 1_565
H8 K6 3.114127 1_555
H9 K0 2.781945 1_556
H9 K7 3.114127 1_555
H10 K1 2.781945 1_555
H10 K4 3.114127 1_555
H11 K1 2.781945 1_655
H11 K5 3.114127 1_555
H12 K4 2.972879 1_555
H13 K5 2.972879 1_555
H14 K6 2.972879 1_555
H15 K7 2.972879 1_555
H16 K2 3.060146 1_555
H17 K3 3.060146 1_555
H18 K2 3.060146 1_555
H19 K3 3.060146 1_555
H20 K2 2.841388 1_555
H21 K3 2.841388 1_555
H22 K2 2.841388 1_555
H23 K3 2.841388 1_555
N0 P8 1.648946 1_555
N0 P2 1.654083 1_555
N1 P9 1.648946 1_555
N1 P3 1.654083 1_555
N2 P10 1.648946 1_555
N2 P0 1.654083 1_555
N3 P11 1.648941 1_555
N3 P1 1.654083 1_555
N4 P0 1.649924 1_555
N4 P4 1.650479 1_555
N5 P1 1.649924 1_555
N5 P5 1.650479 1_555
N6 P2 1.649924 1_555
N6 P6 1.650479 1_555
N7 P3 1.649924 1_555
N7 P7 1.650479 1_555
N8 P14 1.635742 1_555
N8 P4 1.647088 1_555
N9 P15 1.635742 1_555
N9 P5 1.647088 1_555
N10 P12 1.635742 1_555
N10 P6 1.647088 1_555
N11 P13 1.635742 1_555
N11 P7 1.647088 1_555
N12 P8 1.654472 1_555
N12 P12 1.655380 1_555
N13 P9 1.654472 1_555
N13 P13 1.655380 1_555
N14 P10 1.654472 1_555
N14 P14 1.655380 1_555
N15 P11 1.654467 1_555
N15 P15 1.655380 1_555
O0 P0 1.538331 1_555
O0 Tm0 2.275359 1_555
O1 P1 1.538331 1_555
O1 Tm1 2.275359 1_555
O2 P2 1.538331 1_555
O2 Tm0 2.275359 1_555
O3 P3 1.538331 1_555
O3 Tm1 2.275359 1_555
O4 P12 1.547964 1_555
O4 Tm0 2.517230 1_555
O5 P13 1.547964 1_555
O5 Tm1 2.517230 1_555
O6 P14 1.547964 1_555
O6 Tm0 2.517230 1_555
O7 P15 1.547964 1_555
O7 Tm1 2.517230 1_555
O8 P4 1.542857 1_555
O8 Tm0 2.313263 1_555
O9 P5 1.542857 1_555
O9 Tm1 2.313263 1_555
O10 P6 1.542857 1_555
O10 Tm0 2.313263 1_555
O11 P7 1.542857 1_555
O11 Tm1 2.313263 1_555
O12 P8 1.538492 1_555
O12 Tm0 2.452027 1_555
O13 P9 1.538492 1_555
O13 Tm1 2.452027 1_555
O14 P10 1.538492 1_555
O14 Tm0 2.452027 1_555
O15 P11 1.538511 1_555
O15 Tm1 2.452027 1_555
O16 P3 1.496917 1_655
O17 P2 1.496917 1_455
O18 P1 1.496917 1_545
O19 P0 1.496917 1_565
O20 P8 1.493644 1_565
O21 P9 1.493644 1_545
O22 P10 1.493644 1_455
O23 P11 1.493636 1_655
O24 P4 1.506684 1_555
O25 P5 1.506684 1_555
O26 P6 1.506684 1_555
O27 P7 1.506684 1_555
O28 P14 1.504798 1_555
O29 P15 1.504798 1_555
O30 P12 1.504798 1_555
O31 P13 1.504798 1_555
