# generated using pymatgen
data_K2SbF5
_symmetry_space_group_name_H-M   'P 1'
_cell_length_a   6.61869233
_cell_length_b   17.47206415
_cell_length_c   29.05318916
_cell_angle_alpha   100.90552985
_cell_angle_beta   90.00000000
_cell_angle_gamma   90.00000000
_symmetry_Int_Tables_number   1
_chemical_formula_structural   K2SbF5
_chemical_formula_sum   'K44 Sb22 F110'
_cell_volume   3299.09920253
_cell_formula_units_Z   22
loop_
 _symmetry_equiv_pos_site_id
 _symmetry_equiv_pos_as_xyz
  1  'x, y, z'
loop_
 _atom_site_type_symbol
 _atom_site_label
 _atom_site_symmetry_multiplicity
 _atom_site_fract_x
 _atom_site_fract_y
 _atom_site_fract_z
 _atom_site_occupancy
  K  K0  1  0.24899178  0.07913642  0.80810720  1
  K  K1  1  0.74899178  0.92086358  0.19189280  1
  K  K2  1  0.75004234  0.10268354  0.73757203  1
  K  K3  1  0.25004234  0.89731646  0.26242797  1
  K  K4  1  0.24091125  0.44371113  0.89825934  1
  K  K5  1  0.74091125  0.55628887  0.10174066  1
  K  K6  1  0.74328949  0.46561811  0.82922348  1
  K  K7  1  0.24328949  0.53438189  0.17077652  1
  K  K8  1  0.23766985  0.35261605  0.62416343  1
  K  K9  1  0.73766985  0.64738395  0.37583657  1
  K  K10  1  0.73607573  0.37372246  0.55659163  1
  K  K11  1  0.23607573  0.62627754  0.44340837  1
  K  K12  1  0.72948867  0.01031815  0.46661864  1
  K  K13  1  0.22948867  0.98968185  0.53338136  1
  K  K14  1  0.24532561  0.26160060  0.35302955  1
  K  K15  1  0.74532561  0.73839940  0.64697045  1
  K  K16  1  0.74712383  0.28339585  0.28375260  1
  K  K17  1  0.24712383  0.71660415  0.71624740  1
  K  K18  1  0.23180859  0.17123443  0.07867249  1
  K  K19  1  0.73180859  0.82876557  0.92132751  1
  K  K20  1  0.73115237  0.19166423  0.01164708  1
  K  K21  1  0.23115237  0.80833577  0.98835292  1
  K  K22  1  0.75481749  0.04488509  0.88591297  1
  K  K23  1  0.25481749  0.95511491  0.11408703  1
  K  K24  1  0.25434328  0.13582949  0.65868112  1
  K  K25  1  0.75434328  0.86417051  0.34131888  1
  K  K26  1  0.23036273  0.22979338  0.93256962  1
  K  K27  1  0.73036273  0.77020662  0.06743038  1
  K  K28  1  0.73056823  0.31762239  0.70410866  1
  K  K29  1  0.23056823  0.68237761  0.29589134  1
  K  K30  1  0.74937724  0.40672403  0.97661776  1
  K  K31  1  0.24937724  0.59327597  0.02338224  1
  K  K32  1  0.23919833  0.41210621  0.47789541  1
  K  K33  1  0.73919833  0.58789379  0.52210459  1
  K  K34  1  0.73966955  0.49957178  0.25046397  1
  K  K35  1  0.23966955  0.50042822  0.74953603  1
  K  K36  1  0.75394591  0.22558541  0.43083236  1
  K  K37  1  0.25394591  0.77441459  0.56916764  1
  K  K38  1  0.24988871  0.31777959  0.20429923  1
  K  K39  1  0.74988871  0.68222041  0.79570077  1
  K  K40  1  0.22734395  0.04706050  0.38678246  1
  K  K41  1  0.72734395  0.95293950  0.61321754  1
  K  K42  1  0.72765032  0.13495115  0.15871184  1
  K  K43  1  0.22765032  0.86504885  0.84128816  1
  Sb  Sb0  1  0.25785414  0.01610255  0.95785757  1
  Sb  Sb1  1  0.75785414  0.98389745  0.04214243  1
  Sb  Sb2  1  0.73993279  0.25581117  0.86095911  1
  Sb  Sb3  1  0.23993279  0.74418883  0.13904089  1
  Sb  Sb4  1  0.24069616  0.28879659  0.77463632  1
  Sb  Sb5  1  0.74069616  0.71120341  0.22536368  1
  Sb  Sb6  1  0.75691951  0.16565278  0.58752595  1
  Sb  Sb7  1  0.25691951  0.83434722  0.41247405  1
  Sb  Sb8  1  0.25702925  0.19801233  0.50306981  1
  Sb  Sb9  1  0.75702925  0.80198767  0.49693019  1
  Sb  Sb10  1  0.73824220  0.07400910  0.31501635  1
  Sb  Sb11  1  0.23824220  0.92599090  0.68498365  1
  Sb  Sb12  1  0.23700038  0.10733445  0.22964319  1
  Sb  Sb13  1  0.73700038  0.89266555  0.77035681  1
  Sb  Sb14  1  0.74580829  0.43737751  0.40626184  1
  Sb  Sb15  1  0.24580829  0.56262249  0.59373816  1
  Sb  Sb16  1  0.24706369  0.47019389  0.32117164  1
  Sb  Sb17  1  0.74706369  0.52980611  0.67882836  1
  Sb  Sb18  1  0.75326984  0.34785110  0.13322634  1
  Sb  Sb19  1  0.25326984  0.65214890  0.86677366  1
  Sb  Sb20  1  0.25256688  0.38037818  0.04856933  1
  Sb  Sb21  1  0.75256688  0.61962182  0.95143067  1
  F  F0  1  0.19423571  0.03430369  0.89379522  1
  F  F1  1  0.69423571  0.96569631  0.10620478  1
  F  F2  1  0.46493334  0.10620756  0.95597939  1
  F  F3  1  0.96493334  0.89379244  0.04402061  1
  F  F4  1  0.47558371  0.94280453  0.91970885  1
  F  F5  1  0.97558371  0.05719547  0.08029115  1
  F  F6  1  0.04932581  0.92253320  0.93421625  1
  F  F7  1  0.54932581  0.07746680  0.06578375  1
  F  F8  1  0.03611580  0.10615252  0.97348005  1
  F  F9  1  0.53611580  0.89384748  0.02651995  1
  F  F10  1  0.76017235  0.23441814  0.92579793  1
  F  F11  1  0.26017235  0.76558186  0.07420207  1
  F  F12  1  0.96982949  0.16942264  0.85244379  1
  F  F13  1  0.46982949  0.83057736  0.14755621  1
  F  F14  1  0.95089489  0.34258518  0.89113589  1
  F  F15  1  0.45089489  0.65741482  0.10886411  1
  F  F16  1  0.51487429  0.33234311  0.89421607  1
  F  F17  1  0.01487429  0.66765689  0.10578393  1
  F  F18  1  0.53092007  0.16356140  0.85498575  1
  F  F19  1  0.03092007  0.83643860  0.14501425  1
  F  F20  1  0.26055261  0.31119173  0.70970095  1
  F  F21  1  0.76055261  0.68880827  0.29029905  1
  F  F22  1  0.47018536  0.20925969  0.74546848  1
  F  F23  1  0.97018536  0.79074031  0.25453152  1
  F  F24  1  0.45405627  0.38125367  0.78521947  1
  F  F25  1  0.95405627  0.61874633  0.21478053  1
  F  F26  1  0.01279264  0.37432014  0.77827633  1
  F  F27  1  0.51279264  0.62567986  0.22172367  1
  F  F28  1  0.03464751  0.20510611  0.73983844  1
  F  F29  1  0.53464751  0.79489389  0.26016156  1
  F  F30  1  0.69882167  0.14743488  0.65178502  1
  F  F31  1  0.19882167  0.85256512  0.34821498  1
  F  F32  1  0.97979989  0.23782419  0.62467393  1
  F  F33  1  0.47979989  0.76217581  0.37532607  1
  F  F34  1  0.96090333  0.07404884  0.58813999  1
  F  F35  1  0.46090333  0.92595116  0.41186001  1
  F  F36  1  0.52811567  0.07813248  0.57334368  1
  F  F37  1  0.02811567  0.92186752  0.42665632  1
  F  F38  1  0.55421583  0.26062328  0.61222390  1
  F  F39  1  0.05421583  0.73937672  0.38777610  1
  F  F40  1  0.19869984  0.21656675  0.43886059  1
  F  F41  1  0.69869984  0.78343325  0.56113941  1
  F  F42  1  0.47058268  0.28623598  0.50136155  1
  F  F43  1  0.97058268  0.71376402  0.49863845  1
  F  F44  1  0.47034331  0.12230662  0.46509728  1
  F  F45  1  0.97034331  0.87769338  0.53490272  1
  F  F46  1  0.04145060  0.10750179  0.47931050  1
  F  F47  1  0.54145060  0.89249821  0.52068950  1
  F  F48  1  0.04154649  0.29034814  0.51848400  1
  F  F49  1  0.54154649  0.70965186  0.48151600  1
  F  F50  1  0.76618474  0.05399002  0.38004256  1
  F  F51  1  0.26618474  0.94600998  0.61995744  1
  F  F52  1  0.95265012  0.16096690  0.34368306  1
  F  F53  1  0.45265012  0.83903310  0.65631694  1
  F  F54  1  0.96404534  0.98558663  0.30536493  1
  F  F55  1  0.46404534  0.01441337  0.69463507  1
  F  F56  1  0.52414457  0.98429517  0.31152204  1
  F  F57  1  0.02414457  0.01570483  0.68847796  1
  F  F58  1  0.51811372  0.15199411  0.34863402  1
  F  F59  1  0.01811372  0.84800589  0.65136598  1
  F  F60  1  0.26943489  0.12911224  0.16518961  1
  F  F61  1  0.76943489  0.87088776  0.83481039  1
  F  F62  1  0.45659409  0.19771795  0.24125585  1
  F  F63  1  0.95659409  0.80228205  0.75874415  1
  F  F64  1  0.45909626  0.02315972  0.20177915  1
  F  F65  1  0.95909626  0.97684028  0.79822085  1
  F  F66  1  0.02411980  0.02782894  0.19413111  1
  F  F67  1  0.52411980  0.97217106  0.80586889  1
  F  F68  1  0.01723583  0.19512340  0.23257007  1
  F  F69  1  0.51723583  0.80487660  0.76742993  1
  F  F70  1  0.73995766  0.41660443  0.47135305  1
  F  F71  1  0.23995766  0.58339557  0.52864695  1
  F  F72  1  0.95461852  0.52211187  0.43935221  1
  F  F73  1  0.45461852  0.47788813  0.56064779  1
  F  F74  1  0.97566867  0.35227456  0.40198077  1
  F  F75  1  0.47566867  0.64772544  0.59801923  1
  F  F76  1  0.53798802  0.34376722  0.39690246  1
  F  F77  1  0.03798802  0.65623278  0.60309754  1
  F  F78  1  0.51781255  0.51669825  0.43637193  1
  F  F79  1  0.01781255  0.48330175  0.56362807  1
  F  F80  1  0.23903053  0.49121491  0.25624626  1
  F  F81  1  0.73903053  0.50878509  0.74375374  1
  F  F82  1  0.45341245  0.56411140  0.32844170  1
  F  F83  1  0.95341245  0.43588860  0.67155830  1
  F  F84  1  0.48023630  0.39561231  0.28970199  1
  F  F85  1  0.98023630  0.60438769  0.71029801  1
  F  F86  1  0.04649126  0.38065659  0.28985252  1
  F  F87  1  0.54649126  0.61934341  0.71014748  1
  F  F88  1  0.01282203  0.55442935  0.32801056  1
  F  F89  1  0.51282203  0.44557065  0.67198944  1
  F  F90  1  0.71308300  0.32865491  0.19802802  1
  F  F91  1  0.21308300  0.67134509  0.80197198  1
  F  F92  1  0.98324474  0.41958200  0.16819001  1
  F  F93  1  0.48324474  0.58041800  0.83180999  1
  F  F94  1  0.95575637  0.25433866  0.13062152  1
  F  F95  1  0.45575637  0.74566134  0.86937848  1
  F  F96  1  0.51820181  0.26300707  0.12213522  1
  F  F97  1  0.01820181  0.73699293  0.87786478  1
  F  F98  1  0.55477621  0.44210710  0.16062047  1
  F  F99  1  0.05477621  0.55789290  0.83937953  1
  F  F100  1  0.21293474  0.39992644  0.98388167  1
  F  F101  1  0.71293474  0.60007356  0.01611833  1
  F  F102  1  0.47483653  0.46653417  0.04863076  1
  F  F103  1  0.97483653  0.53346583  0.95136924  1
  F  F104  1  0.46271564  0.30044555  0.01226842  1
  F  F105  1  0.96271564  0.69955445  0.98773158  1
  F  F106  1  0.02915140  0.29484837  0.02264941  1
  F  F107  1  0.52915140  0.70515163  0.97735059  1
  F  F108  1  0.04191465  0.47396305  0.06188606  1
  F  F109  1  0.54191465  0.52603695  0.93811394  1
loop_
_geom_bond_atom_site_label_1
_geom_bond_atom_site_label_2
_geom_bond_distance
_geom_bond_site_symmetry_2
F0 Sb0 1.991611 1_555
F0 K0 2.771366 1_555
F0 K22 2.925967 1_455
F0 K43 3.068274 1_545
F1 Sb1 1.991611 1_555
F1 K1 2.771366 1_555
F1 K23 2.925967 1_555
F1 K42 3.068274 1_565
F2 Sb0 2.095828 1_555
F2 K20 2.652563 1_556
F2 K26 2.844513 1_555
F2 K22 2.854437 1_555
F3 Sb1 2.095828 1_555
F3 K21 2.652563 1_654
F3 K27 2.844513 1_555
F3 K23 2.854437 1_655
F4 Sb0 2.099566 1_565
F4 K19 2.623680 1_555
F4 K22 2.867665 1_565
F4 K43 2.925459 1_555
F5 Sb1 2.099566 1_545
F5 K18 2.623680 1_655
F5 K23 2.867665 1_645
F5 K42 2.925459 1_555
F6 Sb0 2.150472 1_565
F6 K19 2.647389 1_455
F6 K43 2.943637 1_555
F6 K21 3.015073 1_555
F7 Sb1 2.150472 1_545
F7 K18 2.647389 1_555
F7 K42 2.943637 1_555
F7 K20 3.015073 1_555
F8 Sb0 2.136624 1_555
F8 K20 2.628524 1_456
F8 K26 2.950240 1_555
F8 K22 3.170850 1_455
F8 K18 3.316008 1_556
F9 Sb1 2.136624 1_555
F9 K21 2.628524 1_554
F9 K27 2.950240 1_555
F9 K23 3.170850 1_555
F9 K19 3.316008 1_554
F10 Sb2 1.993160 1_555
F10 K20 2.742421 1_556
F10 K30 3.092983 1_555
F10 K26 3.120269 1_655
F11 Sb3 1.993160 1_555
F11 K21 2.742421 1_554
F11 K31 3.092983 1_555
F11 K27 3.120269 1_555
F12 Sb2 2.124493 1_555
F12 K0 2.606301 1_655
F12 K22 2.916505 1_555
F12 K26 2.928513 1_655
F13 Sb3 2.124493 1_555
F13 K1 2.606301 1_555
F13 K23 2.916505 1_555
F13 K27 2.928513 1_555
F14 Sb2 2.124608 1_555
F14 K4 2.590545 1_655
F14 K30 2.854751 1_555
F14 K26 3.106741 1_655
F15 Sb3 2.124608 1_555
F15 K5 2.590545 1_555
F15 K31 2.854751 1_555
F15 K27 3.106741 1_555
F16 Sb2 2.109888 1_555
F16 K4 2.646041 1_555
F16 K30 2.941446 1_555
F16 K26 2.958637 1_555
F17 Sb3 2.109888 1_555
F17 K5 2.646041 1_455
F17 K31 2.941446 1_555
F17 K27 2.958637 1_455
F18 Sb2 2.106164 1_555
F18 K0 2.598575 1_555
F18 K22 2.829819 1_555
F18 K26 3.064350 1_555
F19 Sb3 2.106164 1_555
F19 K1 2.598575 1_455
F19 K23 2.829819 1_555
F19 K27 3.064350 1_455
F20 Sb4 2.002219 1_555
F20 K8 2.720895 1_555
F20 K28 3.118262 1_555
F20 K24 3.141358 1_555
F20 K35 3.292810 1_555
F21 Sb5 2.002219 1_555
F21 K9 2.720895 1_555
F21 K29 3.118262 1_655
F21 K25 3.141358 1_555
F21 K34 3.292810 1_555
F22 Sb4 2.123872 1_555
F22 K2 2.605646 1_555
F22 K24 2.969944 1_555
F22 K28 2.976494 1_555
F23 Sb5 2.123872 1_555
F23 K3 2.605646 1_655
F23 K25 2.969944 1_555
F23 K29 2.976494 1_655
F24 Sb4 2.123765 1_555
F24 K6 2.599781 1_555
F24 K35 2.870661 1_555
F24 K28 3.024462 1_555
F25 Sb5 2.123765 1_555
F25 K7 2.599781 1_655
F25 K34 2.870661 1_555
F25 K29 3.024462 1_655
F26 Sb4 2.111772 1_555
F26 K6 2.650257 1_455
F26 K28 2.882031 1_455
F26 K35 2.916006 1_555
F27 Sb5 2.111772 1_555
F27 K7 2.650257 1_555
F27 K29 2.882031 1_555
F27 K34 2.916006 1_555
F28 Sb4 2.112054 1_555
F28 K2 2.590475 1_455
F28 K24 2.838870 1_555
F28 K28 3.124910 1_455
F29 Sb5 2.112054 1_555
F29 K3 2.590475 1_555
F29 K25 2.838870 1_555
F29 K29 3.124910 1_555
F30 Sb6 1.989841 1_555
F30 K2 2.770500 1_555
F30 K24 2.958243 1_555
F30 K28 3.080024 1_555
F31 Sb7 1.989841 1_555
F31 K3 2.770500 1_555
F31 K25 2.958243 1_455
F31 K29 3.080024 1_555
F32 Sb6 2.101450 1_555
F32 K8 2.635744 1_655
F32 K24 2.849569 1_655
F32 K28 2.962031 1_555
F33 Sb7 2.101450 1_555
F33 K9 2.635744 1_555
F33 K25 2.849569 1_555
F33 K29 2.962031 1_555
F34 Sb6 2.096554 1_555
F34 K13 2.641342 1_645
F34 K41 2.825145 1_545
F34 K24 2.881047 1_655
F35 Sb7 2.096554 1_555
F35 K12 2.641342 1_565
F35 K40 2.825145 1_565
F35 K25 2.881047 1_555
F36 Sb6 2.136131 1_555
F36 K13 2.638943 1_545
F36 K41 2.970567 1_545
F36 K24 3.082365 1_555
F37 Sb7 2.136131 1_555
F37 K12 2.638943 1_465
F37 K40 2.970567 1_565
F37 K25 3.082365 1_455
F38 Sb6 2.148888 1_555
F38 K8 2.623417 1_555
F38 K28 2.911138 1_555
F38 K10 3.028966 1_555
F39 Sb7 2.148888 1_555
F39 K9 2.623417 1_455
F39 K29 2.911138 1_555
F39 K11 3.028966 1_555
F40 Sb8 1.990727 1_555
F40 K14 2.770403 1_555
F40 K36 2.959467 1_455
F40 K40 3.066088 1_555
F41 Sb9 1.990727 1_555
F41 K15 2.770403 1_555
F41 K37 2.959467 1_555
F41 K41 3.066088 1_555
F42 Sb8 2.098881 1_555
F42 K10 2.659141 1_555
F42 K36 2.831538 1_555
F42 K32 2.866015 1_555
F43 Sb9 2.098881 1_555
F43 K11 2.659141 1_655
F43 K37 2.831538 1_655
F43 K33 2.866015 1_555
F44 Sb8 2.099504 1_555
F44 K12 2.608670 1_555
F44 K40 2.891419 1_555
F44 K36 2.906952 1_555
F45 Sb9 2.099504 1_555
F45 K13 2.608670 1_655
F45 K41 2.891419 1_555
F45 K37 2.906952 1_655
F46 Sb8 2.144805 1_555
F46 K12 2.654350 1_455
F46 K40 2.963352 1_555
F46 K13 3.078645 1_545
F47 Sb9 2.144805 1_555
F47 K13 2.654350 1_555
F47 K41 2.963352 1_555
F47 K12 3.078645 1_565
F48 Sb8 2.136350 1_555
F48 K10 2.612528 1_455
F48 K32 2.928628 1_555
F48 K36 3.209127 1_455
F48 K8 3.321387 1_555
F49 Sb9 2.136350 1_555
F49 K11 2.612528 1_555
F49 K33 2.928628 1_555
F49 K37 3.209127 1_555
F49 K9 3.321387 1_555
F50 Sb10 1.993923 1_555
F50 K12 2.773847 1_555
F50 K40 3.062406 1_655
F50 K36 3.082005 1_555
F51 Sb11 1.993923 1_555
F51 K13 2.773847 1_555
F51 K41 3.062406 1_555
F51 K37 3.082005 1_555
F52 Sb10 2.130040 1_555
F52 K14 2.595591 1_655
F52 K36 2.886785 1_555
F52 K40 3.126858 1_655
F52 K16 3.296530 1_555
F53 Sb11 2.130040 1_555
F53 K15 2.595591 1_555
F53 K37 2.886785 1_555
F53 K41 3.126858 1_555
F53 K17 3.296530 1_555
F54 Sb10 2.129576 1_565
F54 K3 2.605747 1_655
F54 K25 2.890731 1_555
F54 K40 2.970620 1_665
F55 Sb11 2.129576 1_545
F55 K2 2.605747 1_555
F55 K24 2.890731 1_555
F55 K41 2.970620 1_545
F56 Sb10 2.101221 1_565
F56 K3 2.610567 1_555
F56 K25 2.857165 1_555
F56 K40 2.989202 1_565
F57 Sb11 2.101221 1_545
F57 K2 2.610567 1_455
F57 K24 2.857165 1_555
F57 K41 2.989202 1_445
F58 Sb10 2.104685 1_555
F58 K14 2.617447 1_555
F58 K36 2.937846 1_555
F58 K40 3.010386 1_555
F59 Sb11 2.104685 1_555
F59 K15 2.617447 1_455
F59 K37 2.937846 1_555
F59 K41 3.010386 1_455
F60 Sb12 1.991742 1_555
F60 K18 2.760762 1_555
F60 K42 3.041527 1_555
F60 K23 3.122175 1_545
F61 Sb13 1.991742 1_555
F61 K19 2.760762 1_555
F61 K43 3.041527 1_655
F61 K22 3.122175 1_565
F62 Sb12 2.125676 1_555
F62 K16 2.600697 1_555
F62 K38 2.877028 1_555
F62 K42 3.029408 1_555
F63 Sb13 2.125676 1_555
F63 K17 2.600697 1_655
F63 K39 2.877028 1_555
F63 K43 3.029408 1_655
F64 Sb12 2.128071 1_555
F64 K1 2.600827 1_545
F64 K23 2.930250 1_545
F64 K42 3.076504 1_555
F65 Sb13 2.128071 1_555
F65 K0 2.600827 1_665
F65 K22 2.930250 1_565
F65 K43 3.076504 1_655
F66 Sb12 2.106445 1_555
F66 K1 2.601355 1_445
F66 K23 2.869798 1_545
F66 K42 3.023431 1_455
F67 Sb13 2.106445 1_555
F67 K0 2.601355 1_565
F67 K22 2.869798 1_565
F67 K43 3.023431 1_555
F68 Sb12 2.103881 1_555
F68 K16 2.630268 1_455
F68 K38 2.881756 1_555
F68 K42 2.920594 1_455
F69 Sb13 2.103881 1_555
F69 K17 2.630268 1_555
F69 K39 2.881756 1_555
F69 K43 2.920594 1_555
F70 Sb14 1.992292 1_555
F70 K10 2.719724 1_555
F70 K33 3.075899 1_555
F71 Sb15 1.992292 1_555
F71 K11 2.719724 1_555
F71 K32 3.075899 1_555
F72 Sb14 2.118395 1_555
F72 K11 2.591411 1_655
F72 K33 2.844048 1_555
F72 K32 3.051274 1_655
F73 Sb15 2.118395 1_555
F73 K10 2.591411 1_555
F73 K32 2.844048 1_555
F73 K33 3.051274 1_555
F74 Sb14 2.114478 1_555
F74 K14 2.620190 1_655
F74 K32 2.850829 1_655
F74 K36 2.908259 1_555
F75 Sb15 2.114478 1_555
F75 K15 2.620190 1_555
F75 K33 2.850829 1_555
F75 K37 2.908259 1_555
F76 Sb14 2.114882 1_555
F76 K14 2.597203 1_555
F76 K36 2.837030 1_555
F76 K32 3.132181 1_555
F77 Sb15 2.114882 1_555
F77 K15 2.597203 1_455
F77 K37 2.837030 1_555
F77 K33 3.132181 1_455
F78 Sb14 2.122362 1_555
F78 K11 2.652643 1_555
F78 K33 2.954010 1_555
F78 K32 3.004938 1_555
F79 Sb15 2.122362 1_555
F79 K10 2.652643 1_455
F79 K32 2.954010 1_555
F79 K33 3.004938 1_455
F80 Sb16 1.989460 1_555
F80 K7 2.728445 1_555
F80 K38 3.120098 1_555
F80 K34 3.314003 1_455
F80 K34 3.322440 1_555
F81 Sb17 1.989460 1_555
F81 K6 2.728445 1_555
F81 K39 3.120098 1_555
F81 K35 3.314003 1_555
F81 K35 3.322440 1_655
F82 Sb16 2.114575 1_555
F82 K9 2.606640 1_555
F82 K29 2.842358 1_555
F82 K34 3.004517 1_555
F83 Sb17 2.114575 1_555
F83 K8 2.606640 1_655
F83 K28 2.842358 1_555
F83 K35 3.004517 1_655
F84 Sb16 2.113043 1_555
F84 K16 2.620332 1_555
F84 K34 2.886312 1_555
F84 K38 3.008896 1_555
F85 Sb17 2.113043 1_555
F85 K17 2.620332 1_655
F85 K35 2.886312 1_655
F85 K39 3.008896 1_555
F86 Sb16 2.121089 1_555
F86 K16 2.594467 1_455
F86 K38 2.857304 1_555
F86 K34 3.263435 1_455
F87 Sb17 2.121089 1_555
F87 K17 2.594467 1_555
F87 K39 2.857304 1_555
F87 K35 3.263435 1_555
F88 Sb16 2.120987 1_555
F88 K9 2.651627 1_455
F88 K34 2.906207 1_455
F88 K29 2.955459 1_555
F89 Sb17 2.120987 1_555
F89 K8 2.651627 1_555
F89 K35 2.906207 1_555
F89 K28 2.955459 1_555
F90 Sb18 1.991660 1_555
F90 K16 2.761202 1_555
F90 K38 3.079150 1_555
F90 K34 3.090020 1_555
F91 Sb19 1.991660 1_555
F91 K17 2.761202 1_555
F91 K39 3.079150 1_455
F91 K35 3.090020 1_555
F92 Sb18 2.106600 1_555
F92 K7 2.633285 1_655
F92 K38 2.843423 1_655
F92 K34 3.000310 1_555
F93 Sb19 2.106600 1_555
F93 K6 2.633285 1_555
F93 K39 2.843423 1_555
F93 K35 3.000310 1_555
F94 Sb18 2.103461 1_555
F94 K18 2.625900 1_655
F94 K42 2.817932 1_555
F94 K38 2.950056 1_655
F95 Sb19 2.103461 1_555
F95 K19 2.625900 1_555
F95 K43 2.817932 1_555
F95 K39 2.950056 1_555
F96 Sb18 2.131020 1_555
F96 K18 2.644343 1_555
F96 K38 2.983884 1_555
F96 K42 2.992763 1_555
F97 Sb19 2.131020 1_555
F97 K19 2.644343 1_455
F97 K39 2.983884 1_455
F97 K43 2.992763 1_555
F98 Sb18 2.139061 1_555
F98 K7 2.599363 1_555
F98 K34 2.885715 1_555
F98 K5 3.116947 1_555
F99 Sb19 2.139061 1_555
F99 K6 2.599363 1_455
F99 K35 2.885715 1_555
F99 K4 3.116947 1_555
F100 Sb20 1.990082 1_556
F100 K4 2.743676 1_555
F100 K26 3.065152 1_555
F100 K30 3.079227 1_455
F101 Sb21 1.990082 1_554
F101 K5 2.743676 1_555
F101 K27 3.065152 1_555
F101 K31 3.079227 1_555
F102 Sb20 2.104571 1_555
F102 K5 2.650643 1_555
F102 K30 2.818500 1_554
F102 K31 2.878069 1_555
F103 Sb21 2.104571 1_555
F103 K4 2.650643 1_655
F103 K31 2.818500 1_656
F103 K30 2.878069 1_555
F104 Sb20 2.107146 1_555
F104 K20 2.599311 1_555
F104 K26 2.858130 1_554
F104 K30 2.974641 1_554
F105 Sb21 2.107146 1_555
F105 K21 2.599311 1_655
F105 K27 2.858130 1_556
F105 K31 2.974641 1_656
F106 Sb20 2.135666 1_555
F106 K20 2.650391 1_455
F106 K26 2.964658 1_554
F106 K30 3.166619 1_454
F106 K18 3.231601 1_555
F107 Sb21 2.135666 1_555
F107 K21 2.650391 1_555
F107 K27 2.964658 1_556
F107 K31 3.166619 1_556
F107 K19 3.231601 1_555
F108 Sb20 2.127874 1_555
F108 K5 2.597805 1_455
F108 K31 2.892232 1_555
F108 K30 3.188254 1_454
F109 Sb21 2.127874 1_555
F109 K4 2.597805 1_555
F109 K30 2.892232 1_555
F109 K31 3.188254 1_556
