# generated using pymatgen
data_CdSO5
_symmetry_space_group_name_H-M   'P 1'
_cell_length_a   7.70884400
_cell_length_b   7.70204500
_cell_length_c   8.24870888
_cell_angle_alpha   57.73337351
_cell_angle_beta   90.00000000
_cell_angle_gamma   90.00000000
_symmetry_Int_Tables_number   1
_chemical_formula_structural   CdSO5
_chemical_formula_sum   'Cd4 S4 O20'
_cell_volume   414.12586912
_cell_formula_units_Z   4
loop_
 _symmetry_equiv_pos_site_id
 _symmetry_equiv_pos_as_xyz
  1  'x, y, z'
loop_
 _atom_site_type_symbol
 _atom_site_label
 _atom_site_symmetry_multiplicity
 _atom_site_fract_x
 _atom_site_fract_y
 _atom_site_fract_z
 _atom_site_occupancy
  Cd  Cd0  1  0.24271600  0.77419000  0.46593000  1
  Cd  Cd1  1  0.74271600  0.22581000  0.03407000  1
  Cd  Cd2  1  0.75728400  0.22581000  0.53407000  1
  Cd  Cd3  1  0.25728400  0.77419000  0.96593000  1
  S  S0  1  0.88531900  0.74466600  0.73830800  1
  S  S1  1  0.38531900  0.25533400  0.76169200  1
  S  S2  1  0.11468100  0.25533400  0.26169200  1
  S  S3  1  0.61468100  0.74466600  0.23830800  1
  O  O0  1  0.00514700  0.86405500  0.78508600  1
  O  O1  1  0.50514600  0.13594500  0.71491400  1
  O  O2  1  0.99485300  0.13594500  0.21491400  1
  O  O3  1  0.49485300  0.86405500  0.28508600  1
  O  O4  1  0.74190400  0.88747000  0.62046500  1
  O  O5  1  0.24190400  0.11253000  0.87953500  1
  O  O6  1  0.25809600  0.11253000  0.37953500  1
  O  O7  1  0.75809600  0.88747000  0.12046500  1
  O  O8  1  0.97962300  0.67085100  0.62770500  1
  O  O9  1  0.47962300  0.32914900  0.87229500  1
  O  O10  1  0.02037700  0.32914900  0.37229500  1
  O  O11  1  0.52037700  0.67085100  0.12770500  1
  O  O12  1  0.81284100  0.56578000  0.91426700  1
  O  O13  1  0.31284100  0.43422000  0.58573300  1
  O  O14  1  0.18715900  0.43422000  0.08573300  1
  O  O15  1  0.68715900  0.56578000  0.41426700  1
  O  O16  1  0.37191200  0.73227500  0.73411300  1
  O  O17  1  0.87191200  0.26772500  0.76588700  1
  O  O18  1  0.62808800  0.26772500  0.26588700  1
  O  O19  1  0.12808800  0.73227500  0.23411300  1
loop_
_geom_bond_atom_site_label_1
_geom_bond_atom_site_label_2
_geom_bond_distance
_geom_bond_site_symmetry_2
Cd0 O19 2.280493 1_555
Cd0 O16 2.286327 1_555
Cd0 O6 2.308643 1_565
Cd0 O13 2.315667 1_555
Cd0 O3 2.319444 1_555
Cd0 O8 2.322400 1_455
Cd1 O18 2.280493 1_555
Cd1 O17 2.286327 1_554
Cd1 O7 2.308643 1_545
Cd1 O12 2.315667 1_554
Cd1 O2 2.319444 1_555
Cd1 O9 2.322400 1_554
Cd2 O17 2.280493 1_555
Cd2 O18 2.286327 1_555
Cd2 O4 2.308643 1_545
Cd2 O15 2.315667 1_555
Cd2 O1 2.319450 1_555
Cd2 O10 2.322400 1_655
Cd3 O16 2.280493 1_555
Cd3 O19 2.286327 1_556
Cd3 O5 2.308643 1_565
Cd3 O14 2.315667 1_556
Cd3 O0 2.319444 1_555
Cd3 O11 2.322400 1_556
O0 S0 1.492168 1_455
O1 S1 1.492163 1_555
O2 S2 1.492168 1_655
O3 S3 1.492168 1_555
O4 S0 1.495110 1_555
O5 S1 1.495110 1_555
O6 S2 1.495110 1_555
O7 S3 1.495110 1_555
O8 S0 1.495953 1_555
O9 S1 1.495953 1_555
O10 S2 1.495953 1_555
O11 S3 1.495953 1_555
O12 S0 1.477139 1_555
O13 S1 1.477139 1_555
O14 S2 1.477139 1_555
O15 S3 1.477139 1_555
