# generated using pymatgen
data_Mg2Si3
_symmetry_space_group_name_H-M   'P 1'
_cell_length_a   3.85904000
_cell_length_b   6.18722108
_cell_length_c   8.99611439
_cell_angle_alpha   100.63847752
_cell_angle_beta   102.34618347
_cell_angle_gamma   107.23105128
_symmetry_Int_Tables_number   1
_chemical_formula_structural   Mg2Si3
_chemical_formula_sum   'Mg4 Si6'
_cell_volume   193.20642557
_cell_formula_units_Z   2
loop_
 _symmetry_equiv_pos_site_id
 _symmetry_equiv_pos_as_xyz
  1  'x, y, z'
loop_
 _atom_site_type_symbol
 _atom_site_label
 _atom_site_symmetry_multiplicity
 _atom_site_fract_x
 _atom_site_fract_y
 _atom_site_fract_z
 _atom_site_occupancy
  Mg  Mg0  1  0.86790600  0.72232100  0.50384500  1
  Mg  Mg1  1  0.13209400  0.27767900  0.49615500  1
  Mg  Mg2  1  0.17015900  0.98312600  0.85273700  1
  Mg  Mg3  1  0.82984100  0.01687400  0.14726300  1
  Si  Si0  1  0.50012600  0.61203000  0.90431300  1
  Si  Si1  1  0.49987400  0.38797000  0.09568700  1
  Si  Si2  1  0.85515900  0.48495700  0.73499100  1
  Si  Si3  1  0.14484100  0.51504300  0.26500900  1
  Si  Si4  1  0.59822700  0.05922400  0.64517800  1
  Si  Si5  1  0.40177300  0.94077600  0.35482200  1
loop_
_geom_bond_atom_site_label_1
_geom_bond_atom_site_label_2
_geom_bond_distance
_geom_bond_site_symmetry_2
Mg0 Si2 2.758940 1_555
Mg0 Si4 2.813049 1_665
Mg0 Si4 2.813764 1_565
Mg0 Si5 2.817479 1_555
Mg0 Si5 2.840610 1_655
Mg0 Si3 2.860049 1_655
Mg0 Si3 2.888922 1_555
Mg1 Si3 2.758940 1_555
Mg1 Si5 2.813049 1_445
Mg1 Si5 2.813764 1_545
Mg1 Si4 2.817479 1_555
Mg1 Si4 2.840610 1_455
Mg1 Si2 2.860049 1_455
Mg1 Si2 2.888922 1_555
Mg2 Si1 2.751607 1_566
Mg2 Si4 2.760425 1_565
Mg2 Si4 2.785220 1_465
Mg2 Si2 2.850304 1_455
Mg2 Si0 2.996900 1_555
Mg2 Si0 3.092246 1_455
Mg3 Si0 2.751607 1_544
Mg3 Si5 2.760425 1_545
Mg3 Si5 2.785220 1_645
Mg3 Si3 2.850304 1_655
Mg3 Si1 2.996900 1_555
Mg3 Si1 3.092246 1_655
Si0 Si1 2.401453 1_556
Si0 Si2 2.429819 1_555
Si0 Si2 2.431147 1_455
Si1 Si3 2.429819 1_555
Si1 Si3 2.431147 1_655
Si2 Si4 2.428722 1_555
Si3 Si5 2.428722 1_555
Si4 Si5 2.460076 1_545
