# generated using pymatgen
data_Li7Mn2(CoO4)3
_symmetry_space_group_name_H-M   'P 1'
_cell_length_a   7.81500787
_cell_length_b   7.81500787
_cell_length_c   10.30944232
_cell_angle_alpha   70.99507831
_cell_angle_beta   70.99507831
_cell_angle_gamma   21.38583785
_symmetry_Int_Tables_number   1
_chemical_formula_structural   Li7Mn2(CoO4)3
_chemical_formula_sum   'Li7 Mn2 Co3 O12'
_cell_volume   216.62224305
_cell_formula_units_Z   1
loop_
 _symmetry_equiv_pos_site_id
 _symmetry_equiv_pos_as_xyz
  1  'x, y, z'
loop_
 _atom_site_type_symbol
 _atom_site_label
 _atom_site_symmetry_multiplicity
 _atom_site_fract_x
 _atom_site_fract_y
 _atom_site_fract_z
 _atom_site_occupancy
  Li  Li0  1  0.66320900  0.66320900  0.09200700  1
  Li  Li1  1  0.66624300  0.66624300  0.57874300  1
  Li  Li2  1  0.99783700  0.99783700  0.26811500  1
  Li  Li3  1  0.00216300  0.00216300  0.73188500  1
  Li  Li4  1  0.33679100  0.33679100  0.90799300  1
  Li  Li5  1  0.33375700  0.33375700  0.42125700  1
  Li  Li6  1  0.50000000  0.50000000  0.50000000  1
  Mn  Mn0  1  0.16919700  0.16919700  0.83010700  1
  Mn  Mn1  1  0.83080300  0.83080300  0.16989300  1
  Co  Co0  1  0.15197200  0.15197200  0.35377500  1
  Co  Co1  1  0.50000000  0.50000000  0.00000000  1
  Co  Co2  1  0.84802800  0.84802800  0.64622500  1
  O  O0  1  0.73973300  0.73973300  0.87264800  1
  O  O1  1  0.74861900  0.74861900  0.35719300  1
  O  O2  1  0.08278300  0.08278300  0.02254000  1
  O  O3  1  0.08921500  0.08921500  0.53262000  1
  O  O4  1  0.41151800  0.41151800  0.71092700  1
  O  O5  1  0.40498000  0.40498000  0.20821000  1
  O  O6  1  0.58848200  0.58848200  0.28907300  1
  O  O7  1  0.59502000  0.59502000  0.79179000  1
  O  O8  1  0.91078500  0.91078500  0.46738000  1
  O  O9  1  0.91721700  0.91721700  0.97746000  1
  O  O10  1  0.26026700  0.26026700  0.12735200  1
  O  O11  1  0.25138100  0.25138100  0.64280700  1
loop_
_geom_bond_atom_site_label_1
_geom_bond_atom_site_label_2
_geom_bond_distance
_geom_bond_site_symmetry_2
Li0 O6 1.974665 1_555
Li0 O2 2.174313 1_655
Li0 O2 2.174313 1_565
Li0 O0 2.175751 1_554
Li0 O10 2.194887 1_655
Li0 O10 2.194887 1_565
Li1 O3 2.025131 1_655
Li1 O3 2.025131 1_565
Li1 O7 2.104347 1_555
Li1 O11 2.195691 1_565
Li1 O11 2.195691 1_655
Li1 O1 2.214103 1_555
Li2 O8 2.046285 1_555
Li2 O6 2.070467 1_655
Li2 O6 2.070467 1_565
Li2 O5 2.258699 1_655
Li2 O5 2.258699 1_565
Li2 O2 2.433629 1_665
Li3 O3 2.046285 1_555
Li3 O4 2.070467 1_545
Li3 O4 2.070467 1_455
Li3 O7 2.258699 1_545
Li3 O7 2.258699 1_455
Li3 O9 2.433629 1_445
Li4 O4 1.974665 1_555
Li4 O9 2.174313 1_455
Li4 O9 2.174313 1_545
Li4 O10 2.175751 1_556
Li4 O0 2.194887 1_545
Li4 O0 2.194887 1_455
Li5 O8 2.025131 1_455
Li5 O8 2.025131 1_545
Li5 O5 2.104347 1_555
Li5 O1 2.195691 1_545
Li5 O1 2.195691 1_455
Li5 O11 2.214103 1_555
Li6 O3 2.097289 1_565
Li6 O3 2.097289 1_655
Li6 O8 2.097289 1_545
Li6 O8 2.097289 1_455
Li6 O6 2.148656 1_555
Li6 O4 2.148656 1_555
Mn0 O11 1.925190 1_555
Mn0 O0 1.945118 1_545
Mn0 O0 1.945118 1_455
Mn0 O7 1.963376 1_545
Mn0 O7 1.963376 1_455
Mn0 O2 1.987977 1_556
Mn1 O1 1.925190 1_555
Mn1 O10 1.945118 1_565
Mn1 O10 1.945118 1_655
Mn1 O5 1.963376 1_565
Mn1 O5 1.963376 1_655
Mn1 O9 1.987977 1_554
Co0 O3 1.775016 1_555
Co0 O6 1.982303 1_455
Co0 O6 1.982303 1_545
Co0 O1 2.083711 1_455
Co0 O1 2.083711 1_545
Co0 O10 2.375287 1_555
Co1 O2 1.992228 1_655
Co1 O2 1.992228 1_565
Co1 O9 1.992228 1_454
Co1 O9 1.992228 1_544
Co1 O5 2.158948 1_555
Co1 O7 2.158948 1_554
Co2 O8 1.775016 1_555
Co2 O4 1.982303 1_655
Co2 O4 1.982303 1_565
Co2 O11 2.083711 1_565
Co2 O11 2.083711 1_655
Co2 O0 2.375287 1_555
