# generated using pymatgen
data_In11(CN5)2
_symmetry_space_group_name_H-M   'P 1'
_cell_length_a   15.56549400
_cell_length_b   15.56549400
_cell_length_c   3.54351500
_cell_angle_alpha   90.00000000
_cell_angle_beta   90.00000000
_cell_angle_gamma   90.00000000
_symmetry_Int_Tables_number   1
_chemical_formula_structural   In11(CN5)2
_chemical_formula_sum   'In22 C4 N20'
_cell_volume   858.53912664
_cell_formula_units_Z   2
loop_
 _symmetry_equiv_pos_site_id
 _symmetry_equiv_pos_as_xyz
  1  'x, y, z'
loop_
 _atom_site_type_symbol
 _atom_site_label
 _atom_site_symmetry_multiplicity
 _atom_site_fract_x
 _atom_site_fract_y
 _atom_site_fract_z
 _atom_site_occupancy
  In  In0  1  0.50000000  0.50000000  0.50000000  1
  In  In1  1  0.00000000  0.00000000  0.00000000  1
  In  In2  1  0.03225600  0.80291500  0.50000000  1
  In  In3  1  0.96774400  0.19708500  0.50000000  1
  In  In4  1  0.46774400  0.30291500  0.00000000  1
  In  In5  1  0.53225600  0.69708500  0.00000000  1
  In  In6  1  0.80291500  0.03225600  0.50000000  1
  In  In7  1  0.19708500  0.96774400  0.50000000  1
  In  In8  1  0.30291500  0.46774400  0.00000000  1
  In  In9  1  0.69708500  0.53225600  0.00000000  1
  In  In10  1  0.72127600  0.72127600  0.50000000  1
  In  In11  1  0.27872400  0.27872400  0.50000000  1
  In  In12  1  0.77872400  0.22127600  0.00000000  1
  In  In13  1  0.22127600  0.77872400  0.00000000  1
  In  In14  1  0.46825900  0.86730400  0.50000000  1
  In  In15  1  0.53174100  0.13269600  0.50000000  1
  In  In16  1  0.03174100  0.36730400  0.00000000  1
  In  In17  1  0.96825900  0.63269600  0.00000000  1
  In  In18  1  0.86730400  0.46825900  0.50000000  1
  In  In19  1  0.13269600  0.53174100  0.50000000  1
  In  In20  1  0.36730400  0.03174100  0.00000000  1
  In  In21  1  0.63269600  0.96825900  0.00000000  1
  C  C0  1  0.33909800  0.66090200  0.50000000  1
  C  C1  1  0.66090200  0.33909800  0.50000000  1
  C  C2  1  0.16090200  0.16090200  0.00000000  1
  C  C3  1  0.83909800  0.83909800  0.00000000  1
  N  N0  1  0.06291700  0.93708300  0.50000000  1
  N  N1  1  0.93708300  0.06291700  0.50000000  1
  N  N2  1  0.43708300  0.43708300  0.00000000  1
  N  N3  1  0.56291700  0.56291700  0.00000000  1
  N  N4  1  0.39444900  0.10371300  0.50000000  1
  N  N5  1  0.60555100  0.89628700  0.50000000  1
  N  N6  1  0.10555100  0.60371300  0.00000000  1
  N  N7  1  0.89444900  0.39628700  0.00000000  1
  N  N8  1  0.10371300  0.39444900  0.50000000  1
  N  N9  1  0.89628700  0.60555100  0.50000000  1
  N  N10  1  0.60371300  0.10555100  0.00000000  1
  N  N11  1  0.39628700  0.89444900  0.00000000  1
  N  N12  1  0.28239800  0.71760200  0.50000000  1
  N  N13  1  0.71760200  0.28239800  0.50000000  1
  N  N14  1  0.21760200  0.21760200  0.00000000  1
  N  N15  1  0.78239800  0.78239800  0.00000000  1
  N  N16  1  0.39418600  0.60581500  0.50000000  1
  N  N17  1  0.60581500  0.39418600  0.50000000  1
  N  N18  1  0.10581500  0.10581500  0.00000000  1
  N  N19  1  0.89418500  0.89418500  0.00000000  1
loop_
_geom_bond_atom_site_label_1
_geom_bond_atom_site_label_2
_geom_bond_distance
_geom_bond_site_symmetry_2
In0 N2 2.248848 1_556
In0 N3 2.248848 1_556
In0 N2 2.248848 1_555
In0 N3 2.248848 1_555
In0 N16 2.329287 1_555
In0 N17 2.329287 1_555
In1 N0 2.248848 1_544
In1 N1 2.248848 1_454
In1 N1 2.248848 1_455
In1 N0 2.248848 1_545
In1 N18 2.329298 1_555
In1 N19 2.329298 1_445
In2 N0 2.142230 1_555
In3 N1 2.142230 1_555
In4 N2 2.142230 1_555
In5 N3 2.142230 1_555
In6 N1 2.142230 1_555
In7 N0 2.142230 1_555
In8 N2 2.142230 1_555
In9 N3 2.142230 1_555
In10 N15 2.224731 1_556
In10 N15 2.224731 1_555
In11 N14 2.224731 1_556
In11 N14 2.224731 1_555
In12 N13 2.224731 1_555
In12 N13 2.224731 1_554
In13 N12 2.224731 1_555
In13 N12 2.224731 1_554
In14 N11 2.138382 1_556
In14 N11 2.138382 1_555
In14 N5 2.184117 1_555
In15 N10 2.138382 1_556
In15 N10 2.138382 1_555
In15 N4 2.184117 1_555
In16 N8 2.138382 1_554
In16 N8 2.138382 1_555
In16 N7 2.184117 1_455
In17 N9 2.138382 1_555
In17 N9 2.138382 1_554
In17 N6 2.184117 1_655
In18 N7 2.138382 1_555
In18 N7 2.138382 1_556
In18 N9 2.184117 1_555
In19 N6 2.138382 1_556
In19 N6 2.138382 1_555
In19 N8 2.184117 1_555
In20 N4 2.138382 1_554
In20 N4 2.138382 1_555
In20 N11 2.184117 1_545
In21 N5 2.138382 1_554
In21 N5 2.138382 1_555
In21 N10 2.184117 1_565
C0 N16 1.212637 1_555
C0 N12 1.248133 1_555
C1 N17 1.212637 1_555
C1 N13 1.248133 1_555
C2 N18 1.212626 1_555
C2 N14 1.248133 1_555
C3 N19 1.212626 1_555
C3 N15 1.248133 1_555
