# generated using pymatgen
data_S2N3O8
_symmetry_space_group_name_H-M   'P 1'
_cell_length_a   5.46569700
_cell_length_b   11.32680900
_cell_length_c   16.62838753
_cell_angle_alpha   76.23866295
_cell_angle_beta   90.00000000
_cell_angle_gamma   90.00000000
_symmetry_Int_Tables_number   1
_chemical_formula_structural   S2N3O8
_chemical_formula_sum   'S8 N12 O32'
_cell_volume   999.89507396
_cell_formula_units_Z   4
loop_
 _symmetry_equiv_pos_site_id
 _symmetry_equiv_pos_as_xyz
  1  'x, y, z'
loop_
 _atom_site_type_symbol
 _atom_site_label
 _atom_site_symmetry_multiplicity
 _atom_site_fract_x
 _atom_site_fract_y
 _atom_site_fract_z
 _atom_site_occupancy
  S  S0  1  0.74195900  0.33256000  0.59673600  1
  S  S1  1  0.74195900  0.66744000  0.40326400  1
  S  S2  1  0.75582600  0.16393600  0.90592200  1
  S  S3  1  0.75582600  0.83606400  0.09407800  1
  S  S4  1  0.21874400  0.33665100  0.10113000  1
  S  S5  1  0.21874400  0.66334900  0.89887000  1
  S  S6  1  0.28386200  0.16590600  0.39728400  1
  S  S7  1  0.28386200  0.83409400  0.60271600  1
  N  N0  1  0.86469500  0.39309400  0.31819700  1
  N  N1  1  0.86469500  0.60690600  0.68180300  1
  N  N2  1  0.32864500  0.10532700  0.68699500  1
  N  N3  1  0.32864500  0.89467300  0.31300500  1
  N  N4  1  0.62477800  0.10415500  0.18198300  1
  N  N5  1  0.62477800  0.89584500  0.81801700  1
  N  N6  1  0.15962000  0.39626200  0.80799500  1
  N  N7  1  0.15962000  0.60373800  0.19200500  1
  N  N8  1  0.18513400  0.50000000  0.50000000  1
  N  N9  1  0.75027900  0.50000000  0.00000000  1
  N  N10  1  0.32632600  0.00000000  0.00000000  1
  N  N11  1  0.74926000  0.00000000  0.50000000  1
  O  O0  1  0.95214500  0.37961300  0.82082600  1
  O  O1  1  0.95214500  0.62038700  0.17917400  1
  O  O2  1  0.99763300  0.30272100  0.14816900  1
  O  O3  1  0.99763300  0.69727900  0.85183100  1
  O  O4  1  0.10391100  0.09355200  0.36725000  1
  O  O5  1  0.10391100  0.90644800  0.63275000  1
  O  O6  1  0.40395400  0.40501300  0.13208900  1
  O  O7  1  0.40395400  0.59498700  0.86791100  1
  O  O8  1  0.56582000  0.40207100  0.63072400  1
  O  O9  1  0.56582000  0.59792900  0.36927600  1
  O  O10  1  0.06846500  0.38005700  0.33828900  1
  O  O11  1  0.06846500  0.61994300  0.66171100  1
  O  O12  1  0.50239500  0.20274500  0.34921600  1
  O  O13  1  0.50239500  0.79725500  0.65078400  1
  O  O14  1  0.93158000  0.09121000  0.87472400  1
  O  O15  1  0.93158000  0.90879000  0.12527600  1
  O  O16  1  0.53765000  0.11730000  0.67530700  1
  O  O17  1  0.53765000  0.88270000  0.32469300  1
  O  O18  1  0.41652100  0.12045100  0.17027300  1
  O  O19  1  0.41652100  0.87954900  0.82972700  1
  O  O20  1  0.96991100  0.29835900  0.63946200  1
  O  O21  1  0.96991100  0.70164100  0.36053800  1
  O  O22  1  0.53085100  0.19854200  0.86160200  1
  O  O23  1  0.53085100  0.80145800  0.13839800  1
  O  O24  1  0.79102400  0.18795600  0.98626900  1
  O  O25  1  0.79102400  0.81204400  0.01373100  1
  O  O26  1  0.23799800  0.32057100  0.01798300  1
  O  O27  1  0.23799800  0.67942900  0.98201700  1
  O  O28  1  0.70755700  0.31462800  0.51459400  1
  O  O29  1  0.70755700  0.68537200  0.48540600  1
  O  O30  1  0.26655700  0.18071900  0.48081100  1
  O  O31  1  0.26655700  0.81928100  0.51918900  1
loop_
_geom_bond_atom_site_label_1
_geom_bond_atom_site_label_2
_geom_bond_distance
_geom_bond_site_symmetry_2
N0 O10 1.162060 1_655
N1 O11 1.162060 1_655
N2 O16 1.161295 1_555
N3 O17 1.161295 1_555
N4 O18 1.162129 1_555
N5 O19 1.162129 1_555
N6 O0 1.160986 1_455
N7 O1 1.160986 1_455
O2 S4 1.441190 1_655
O3 S5 1.441190 1_655
O4 S6 1.443320 1_555
O5 S7 1.443320 1_555
O6 S4 1.441872 1_555
O7 S5 1.441872 1_555
O8 S0 1.441474 1_555
O9 S1 1.441474 1_555
O12 S6 1.442562 1_555
O13 S7 1.442562 1_555
O14 S2 1.440067 1_555
O15 S3 1.440067 1_555
O20 S0 1.440902 1_555
O21 S1 1.440902 1_555
O22 S2 1.439223 1_555
O23 S3 1.439223 1_555
O24 S2 1.438393 1_555
O25 S3 1.438393 1_555
O26 S4 1.440707 1_555
O27 S5 1.440707 1_555
O28 S0 1.440226 1_555
O29 S1 1.440226 1_555
O30 S6 1.441202 1_555
O31 S7 1.441202 1_555
