# generated using pymatgen
data_BaSrGdBiO6
_symmetry_space_group_name_H-M   'P 1'
_cell_length_a   6.10501316
_cell_length_b   6.15728439
_cell_length_c   8.66020104
_cell_angle_alpha   90.09697724
_cell_angle_beta   89.81098865
_cell_angle_gamma   90.02586245
_symmetry_Int_Tables_number   1
_chemical_formula_structural   BaSrGdBiO6
_chemical_formula_sum   'Ba2 Sr2 Gd2 Bi2 O12'
_cell_volume   325.53730428
_cell_formula_units_Z   2
loop_
 _symmetry_equiv_pos_site_id
 _symmetry_equiv_pos_as_xyz
  1  'x, y, z'
loop_
 _atom_site_type_symbol
 _atom_site_label
 _atom_site_symmetry_multiplicity
 _atom_site_fract_x
 _atom_site_fract_y
 _atom_site_fract_z
 _atom_site_occupancy
  Ba  Ba0  1  0.99383800  0.02880646  0.24998348  1
  Ba  Ba1  1  0.00616200  0.97119354  0.75001652  1
  Sr  Sr0  1  0.50807950  0.53673905  0.25083960  1
  Sr  Sr1  1  0.49192050  0.46326095  0.74916040  1
  Gd  Gd0  1  0.50000000  -0.00000000  0.00000000  1
  Gd  Gd1  1  -0.00000000  0.50000000  0.50000000  1
  Bi  Bi0  1  -0.00000000  0.50000000  0.00000000  1
  Bi  Bi1  1  0.50000000  -0.00000000  0.50000000  1
  O  O0  1  0.20757533  0.22346439  0.96160640  1
  O  O1  1  0.30078399  0.71709556  0.54523857  1
  O  O2  1  0.79242467  0.77653561  0.03839360  1
  O  O3  1  0.69921601  0.28290444  0.45476143  1
  O  O4  1  0.28054293  0.70278654  0.95345532  1
  O  O5  1  0.22270506  0.20903771  0.53438372  1
  O  O6  1  0.71945707  0.29721346  0.04654468  1
  O  O7  1  0.77729494  0.79096229  0.46561628  1
  O  O8  1  0.43297794  0.96201191  0.25805788  1
  O  O9  1  0.08782598  0.49022935  0.24143910  1
  O  O10  1  0.56702206  0.03798809  0.74194212  1
  O  O11  1  0.91217402  0.50977065  0.75856090  1
loop_
_geom_bond_atom_site_label_1
_geom_bond_atom_site_label_2
_geom_bond_distance
_geom_bond_site_symmetry_2
Ba0 O2 2.699255 1_545
Ba0 O8 2.713648 1_645
Ba0 O7 2.714932 1_545
Ba0 O9 2.899241 1_655
Ba0 O6 2.945009 1_555
Ba0 O3 2.966506 1_555
Ba0 O5 3.043357 1_655
Ba0 O0 3.059981 1_654
Ba1 O0 2.699255 1_565
Ba1 O10 2.713648 1_465
Ba1 O5 2.714932 1_565
Ba1 O11 2.899241 1_455
Ba1 O4 2.945009 1_555
Ba1 O1 2.966506 1_555
Ba1 O7 3.043357 1_455
Ba1 O2 3.059981 1_456
Gd0 O2 2.280037 1_545
Gd0 O0 2.280037 1_554
Gd0 O10 2.283038 1_554
Gd0 O8 2.283038 1_545
Gd0 O4 2.303338 1_544
Gd0 O6 2.303338 1_555
Gd1 O5 2.270134 1_555
Gd1 O7 2.270134 1_455
Gd1 O11 2.301462 1_455
Gd1 O9 2.301462 1_555
Gd1 O1 2.305000 1_555
Gd1 O3 2.305000 1_455
Bi0 O2 2.147777 1_455
Bi0 O0 2.147777 1_554
Bi0 O4 2.156418 1_554
Bi0 O6 2.156418 1_455
Bi0 O9 2.161219 1_555
Bi0 O11 2.161219 1_454
Bi1 O7 2.146747 1_545
Bi1 O5 2.146747 1_555
Bi1 O8 2.148532 1_545
Bi1 O10 2.148532 1_555
Bi1 O3 2.159681 1_555
Bi1 O1 2.159681 1_545
O0 Sr1 2.926476 1_555
O1 Sr1 2.635858 1_555
O1 Sr0 3.050483 1_555
O2 Sr0 2.926476 1_555
O3 Sr0 2.635858 1_555
O3 Sr1 3.050483 1_555
O4 Sr1 2.635986 1_555
O4 Sr0 3.105071 1_556
O5 Sr1 2.935842 1_555
O6 Sr0 2.635986 1_555
O6 Sr1 3.105071 1_554
O7 Sr0 2.935842 1_555
O8 Sr0 2.659162 1_555
O9 Sr0 2.582992 1_555
O10 Sr1 2.659162 1_555
O11 Sr1 2.582992 1_555
