# generated using pymatgen
data_Li9Mn7O16
_symmetry_space_group_name_H-M   'P 1'
_cell_length_a   5.09455000
_cell_length_b   7.69343308
_cell_length_c   8.13346820
_cell_angle_alpha   79.97938623
_cell_angle_beta   86.06081310
_cell_angle_gamma   72.63621959
_symmetry_Int_Tables_number   1
_chemical_formula_structural   Li9Mn7O16
_chemical_formula_sum   'Li9 Mn7 O16'
_cell_volume   299.57132111
_cell_formula_units_Z   1
loop_
 _symmetry_equiv_pos_site_id
 _symmetry_equiv_pos_as_xyz
  1  'x, y, z'
loop_
 _atom_site_type_symbol
 _atom_site_label
 _atom_site_symmetry_multiplicity
 _atom_site_fract_x
 _atom_site_fract_y
 _atom_site_fract_z
 _atom_site_occupancy
  Li  Li0  1  0.50692500  0.56189600  0.80028900  1
  Li  Li1  1  0.49866800  0.81308000  0.06694800  1
  Li  Li2  1  0.49307500  0.43810400  0.19971100  1
  Li  Li3  1  0.49015600  0.69331400  0.43892700  1
  Li  Li4  1  0.50984400  0.30668600  0.56107300  1
  Li  Li5  1  0.50133200  0.18692000  0.93305200  1
  Li  Li6  1  0.51458000  0.06092800  0.31785300  1
  Li  Li7  1  0.48542000  0.93907200  0.68214700  1
  Li  Li8  1  0.00000000  0.00000000  0.50000000  1
  Mn  Mn0  1  0.00620200  0.62785900  0.62276900  1
  Mn  Mn1  1  0.99379800  0.37214100  0.37723100  1
  Mn  Mn2  1  0.00127100  0.87669200  0.86845300  1
  Mn  Mn3  1  0.99872900  0.12330800  0.13154700  1
  Mn  Mn4  1  0.00000000  0.50000000  0.00000000  1
  Mn  Mn5  1  0.99568200  0.75214200  0.25532200  1
  Mn  Mn6  1  0.00431800  0.24785800  0.74467800  1
  O  O0  1  0.77041400  0.46384500  0.60976300  1
  O  O1  1  0.76578900  0.71709200  0.85787500  1
  O  O2  1  0.79170000  0.33159300  0.95479400  1
  O  O3  1  0.76952000  0.59356900  0.22738200  1
  O  O4  1  0.75879000  0.23028800  0.34229400  1
  O  O5  1  0.76863800  0.09439600  0.73068400  1
  O  O6  1  0.76855200  0.96562700  0.11041400  1
  O  O7  1  0.78388900  0.82358000  0.45406300  1
  O  O8  1  0.20830000  0.66840700  0.04520600  1
  O  O9  1  0.23136200  0.90560400  0.26931600  1
  O  O10  1  0.22958600  0.53615500  0.39023700  1
  O  O11  1  0.24121000  0.76971200  0.65770600  1
  O  O12  1  0.23048000  0.40643100  0.77261800  1
  O  O13  1  0.23421100  0.28290800  0.14212500  1
  O  O14  1  0.21611100  0.17642000  0.54593700  1
  O  O15  1  0.23144800  0.03437300  0.88958600  1
loop_
_geom_bond_atom_site_label_1
_geom_bond_atom_site_label_2
_geom_bond_distance
_geom_bond_site_symmetry_2
Li0 O11 2.003054 1_555
Li0 O0 2.070977 1_555
Li0 O1 2.145588 1_555
Li0 O12 2.146474 1_555
Li0 O2 2.182819 1_555
Li0 O8 2.522250 1_556
Li1 O8 2.132045 1_555
Li1 O3 2.132693 1_555
Li1 O6 2.137081 1_555
Li1 O9 2.142789 1_555
Li1 O1 2.192756 1_554
Li1 O15 2.205578 1_564
Li2 O4 2.003054 1_555
Li2 O10 2.070977 1_555
Li2 O13 2.145588 1_555
Li2 O3 2.146474 1_555
Li2 O8 2.182819 1_555
Li2 O2 2.522250 1_554
Li3 O7 2.054815 1_555
Li3 O9 2.118817 1_555
Li3 O10 2.139588 1_555
Li3 O11 2.174698 1_555
Li3 O0 2.236143 1_555
Li3 O3 2.246345 1_555
Li4 O14 2.054815 1_555
Li4 O5 2.118817 1_555
Li4 O0 2.139588 1_555
Li4 O4 2.174698 1_555
Li4 O10 2.236143 1_555
Li4 O12 2.246345 1_555
Li5 O2 2.132045 1_555
Li5 O12 2.132693 1_555
Li5 O15 2.137081 1_555
Li5 O5 2.142789 1_555
Li5 O13 2.192756 1_556
Li5 O6 2.205578 1_546
Li6 O4 2.092080 1_555
Li6 O7 2.110352 1_545
Li6 O6 2.150034 1_545
Li6 O9 2.221990 1_545
Li6 O13 2.230392 1_555
Li6 O14 2.433658 1_555
Li7 O11 2.092080 1_555
Li7 O14 2.110352 1_565
Li7 O15 2.150034 1_565
Li7 O5 2.221990 1_565
Li7 O1 2.230392 1_555
Li7 O7 2.433658 1_555
Li8 O7 2.078197 1_445
Li8 O14 2.078197 1_555
Li8 O4 2.102510 1_455
Li8 O11 2.102510 1_545
Li8 O9 2.257538 1_545
Li8 O5 2.257538 1_455
Mn0 O11 1.907811 1_555
Mn0 O7 1.977244 1_455
Mn0 O12 2.000006 1_555
Mn0 O0 2.003746 1_455
Mn0 O10 2.249283 1_555
Mn0 O1 2.293734 1_455
Mn1 O4 1.907811 1_555
Mn1 O14 1.977244 1_655
Mn1 O3 2.000006 1_555
Mn1 O10 2.003746 1_655
Mn1 O0 2.249283 1_555
Mn1 O13 2.293734 1_655
Mn2 O5 1.951923 1_465
Mn2 O15 1.955920 1_565
Mn2 O1 1.970904 1_455
Mn2 O8 2.035877 1_556
Mn2 O11 2.170794 1_555
Mn2 O6 2.326066 1_456
Mn3 O9 1.951923 1_645
Mn3 O6 1.955920 1_545
Mn3 O13 1.970904 1_655
Mn3 O2 2.035877 1_554
Mn3 O4 2.170794 1_555
Mn3 O15 2.326066 1_654
Mn4 O13 1.969171 1_555
Mn4 O1 1.969171 1_454
Mn4 O8 1.994998 1_555
Mn4 O2 1.994998 1_454
Mn4 O3 2.231067 1_455
Mn4 O12 2.231067 1_554
Mn5 O10 1.936112 1_655
Mn5 O9 1.939122 1_655
Mn5 O7 1.948020 1_555
Mn5 O6 1.950638 1_555
Mn5 O3 1.959329 1_555
Mn5 O8 2.054553 1_655
Mn6 O0 1.936112 1_455
Mn6 O5 1.939122 1_455
Mn6 O14 1.948020 1_555
Mn6 O15 1.950638 1_555
Mn6 O12 1.959329 1_555
Mn6 O2 2.054553 1_455
