# generated using pymatgen
data_CaB2(HO4)2
_symmetry_space_group_name_H-M   'P 1'
_cell_length_a   6.55415395
_cell_length_b   6.55415395
_cell_length_c   9.18730061
_cell_angle_alpha   64.21253568
_cell_angle_beta   64.21253568
_cell_angle_gamma   50.05118210
_symmetry_Int_Tables_number   1
_chemical_formula_structural   CaB2(HO4)2
_chemical_formula_sum   'Ca2 B4 H4 O16'
_cell_volume   265.40183948
_cell_formula_units_Z   2
loop_
 _symmetry_equiv_pos_site_id
 _symmetry_equiv_pos_as_xyz
  1  'x, y, z'
loop_
 _atom_site_type_symbol
 _atom_site_label
 _atom_site_symmetry_multiplicity
 _atom_site_fract_x
 _atom_site_fract_y
 _atom_site_fract_z
 _atom_site_occupancy
  Ca  Ca0  1  0.89485600  0.10514400  0.25000000  1
  Ca  Ca1  1  0.10514400  0.89485600  0.75000000  1
  B  B0  1  0.56558600  0.23444800  0.01458100  1
  B  B1  1  0.43441400  0.76555200  0.98541900  1
  B  B2  1  0.76555200  0.43441400  0.48541900  1
  B  B3  1  0.23444800  0.56558600  0.51458100  1
  H  H0  1  0.49458100  0.00956400  0.24601100  1
  H  H1  1  0.50541900  0.99043600  0.75398900  1
  H  H2  1  0.99043600  0.50541900  0.25398900  1
  H  H3  1  0.00956400  0.49458100  0.74601100  1
  O  O0  1  0.35760600  0.93286100  0.08224000  1
  O  O1  1  0.64239400  0.06713900  0.91776000  1
  O  O2  1  0.06713900  0.64239400  0.41776000  1
  O  O3  1  0.93286100  0.35760600  0.58224000  1
  O  O4  1  0.71037100  0.49996900  0.01274300  1
  O  O5  1  0.28962900  0.50003100  0.98725700  1
  O  O6  1  0.50003100  0.28962900  0.48725700  1
  O  O7  1  0.49996900  0.71037100  0.51274300  1
  O  O8  1  0.56886000  0.12077500  0.18958500  1
  O  O9  1  0.43114000  0.87922500  0.81041500  1
  O  O10  1  0.87922500  0.43114000  0.31041500  1
  O  O11  1  0.12077500  0.56886000  0.68958500  1
  O  O12  1  0.21712200  0.70187400  0.06138800  1
  O  O13  1  0.78287800  0.29812600  0.93861200  1
  O  O14  1  0.29812600  0.78287800  0.43861200  1
  O  O15  1  0.70187400  0.21712200  0.56138800  1
loop_
_geom_bond_atom_site_label_1
_geom_bond_atom_site_label_2
_geom_bond_distance
_geom_bond_site_symmetry_2
Ca0 O8 2.363265 1_555
Ca0 O10 2.363265 1_555
Ca0 O2 2.428628 1_645
Ca0 O0 2.428628 1_645
Ca0 O6 2.505390 1_555
Ca0 O4 2.505390 1_555
Ca1 O11 2.363265 1_555
Ca1 O9 2.363265 1_555
Ca1 O1 2.428628 1_465
Ca1 O3 2.428628 1_465
Ca1 O7 2.505390 1_555
Ca1 O5 2.505390 1_555
B0 O1 1.413257 1_554
B0 O8 1.451846 1_555
B0 O13 1.527936 1_554
B0 O5 1.528404 1_554
B1 O0 1.413257 1_556
B1 O9 1.451846 1_555
B1 O12 1.527936 1_556
B1 O4 1.528404 1_556
B2 O3 1.413257 1_555
B2 O10 1.451846 1_555
B2 O15 1.527936 1_555
B2 O7 1.528404 1_555
B3 O2 1.413257 1_555
B3 O11 1.451846 1_555
B3 O14 1.527936 1_555
B3 O6 1.528404 1_555
H0 O8 0.971797 1_555
H1 O9 0.971797 1_555
H2 O10 0.971797 1_555
H3 O11 0.971797 1_555
