# generated using pymatgen
data_V4Bi3
_symmetry_space_group_name_H-M   'P 1'
_cell_length_a   7.22259294
_cell_length_b   7.22259294
_cell_length_c   10.62518604
_cell_angle_alpha   71.08258577
_cell_angle_beta   71.08258577
_cell_angle_gamma   34.15680097
_symmetry_Int_Tables_number   1
_chemical_formula_structural   V4Bi3
_chemical_formula_sum   'V8 Bi6'
_cell_volume   292.75589028
_cell_formula_units_Z   2
loop_
 _symmetry_equiv_pos_site_id
 _symmetry_equiv_pos_as_xyz
  1  'x, y, z'
loop_
 _atom_site_type_symbol
 _atom_site_label
 _atom_site_symmetry_multiplicity
 _atom_site_fract_x
 _atom_site_fract_y
 _atom_site_fract_z
 _atom_site_occupancy
  V  V0  1  0.43997900  0.43997900  0.64637900  1
  V  V1  1  0.56002100  0.56002100  0.35362100  1
  V  V2  1  0.20912900  0.20912900  0.84749700  1
  V  V3  1  0.79087100  0.79087100  0.15250300  1
  V  V4  1  0.63671700  0.63671700  0.52380600  1
  V  V5  1  0.36328300  0.36328300  0.47619400  1
  V  V6  1  0.00000000  0.00000000  0.00000000  1
  V  V7  1  0.00000000  0.00000000  0.50000000  1
  Bi  Bi0  1  0.78595100  0.78595100  0.66460900  1
  Bi  Bi1  1  0.21404900  0.21404900  0.33539100  1
  Bi  Bi2  1  0.37083900  0.37083900  0.95873800  1
  Bi  Bi3  1  0.62916100  0.62916100  0.04126200  1
  Bi  Bi4  1  0.05679400  0.05679400  0.72508200  1
  Bi  Bi5  1  0.94320600  0.94320600  0.27491800  1
loop_
_geom_bond_atom_site_label_1
_geom_bond_atom_site_label_2
_geom_bond_distance
_geom_bond_site_symmetry_2
V0 V5 2.385434 1_555
V0 V4 2.583827 1_555
V0 V7 2.594357 1_655
V0 V7 2.594357 1_565
V0 V1 2.987634 1_555
V0 V2 3.179127 1_555
V1 V4 2.385434 1_555
V1 V5 2.583827 1_555
V1 V7 2.594357 1_565
V1 V7 2.594357 1_655
V1 V3 3.179127 1_555
V2 V6 2.791135 1_556
V3 V6 2.791135 1_665
V4 V7 2.907049 1_655
V4 V7 2.907049 1_565
V5 V7 2.907049 1_655
V5 V7 2.907049 1_565
Bi0 V2 2.828834 1_655
Bi0 V2 2.828834 1_565
Bi0 V5 2.863068 1_655
Bi0 V5 2.863068 1_565
Bi0 V7 2.878933 1_665
Bi0 V4 2.928422 1_555
Bi0 V0 2.963235 1_655
Bi0 V0 2.963235 1_565
Bi1 V3 2.828834 1_545
Bi1 V3 2.828834 1_455
Bi1 V4 2.863068 1_455
Bi1 V4 2.863068 1_545
Bi1 V7 2.878933 1_555
Bi1 V5 2.928422 1_555
Bi1 V1 2.963235 1_455
Bi1 V1 2.963235 1_545
Bi2 V2 2.858884 1_555
Bi2 V6 2.898724 1_656
Bi2 V6 2.898724 1_566
Bi2 V3 2.900869 1_546
Bi2 V3 2.900869 1_456
Bi2 V0 3.126833 1_555
Bi3 V3 2.858884 1_555
Bi3 V6 2.898724 1_655
Bi3 V6 2.898724 1_565
Bi3 V2 2.900869 1_564
Bi3 V2 2.900869 1_654
Bi3 V1 3.126833 1_555
Bi4 V6 2.755666 1_556
Bi4 V7 2.758016 1_555
Bi4 V2 2.823513 1_555
Bi4 V4 2.947842 1_545
Bi4 V4 2.947842 1_455
Bi4 V0 2.952156 1_455
Bi4 V0 2.952156 1_545
Bi5 V6 2.755666 1_665
Bi5 V7 2.758016 1_665
Bi5 V3 2.823513 1_555
Bi5 V5 2.947842 1_565
Bi5 V5 2.947842 1_655
Bi5 V1 2.952156 1_655
Bi5 V1 2.952156 1_565
