# generated using pymatgen
data_BN
_symmetry_space_group_name_H-M   'P 1'
_cell_length_a   10.54862904
_cell_length_b   10.80072060
_cell_length_c   11.09889523
_cell_angle_alpha   91.22217912
_cell_angle_beta   88.93207631
_cell_angle_gamma   91.07997949
_symmetry_Int_Tables_number   1
_chemical_formula_structural   BN
_chemical_formula_sum   'B50 N50'
_cell_volume   1263.80553907
_cell_formula_units_Z   50
loop_
 _symmetry_equiv_pos_site_id
 _symmetry_equiv_pos_as_xyz
  1  'x, y, z'
loop_
 _atom_site_type_symbol
 _atom_site_label
 _atom_site_symmetry_multiplicity
 _atom_site_fract_x
 _atom_site_fract_y
 _atom_site_fract_z
 _atom_site_occupancy
  B  B0  1  0.73817100  0.98617100  0.44264700  1
  B  B1  1  0.92438500  0.52216900  0.81921600  1
  B  B2  1  0.32955200  0.57846600  0.58625200  1
  B  B3  1  0.31953600  0.48377300  0.15246100  1
  B  B4  1  0.77797700  0.92155500  0.30481600  1
  B  B5  1  0.56183200  0.34190900  0.43859500  1
  B  B6  1  0.95555100  0.11148200  0.48077700  1
  B  B7  1  0.61500700  0.25967600  0.65221400  1
  B  B8  1  0.15095200  0.24296000  0.50991200  1
  B  B9  1  0.80106500  0.88809700  0.72421200  1
  B  B10  1  0.31652700  0.23346200  0.83731100  1
  B  B11  1  0.50588800  0.92783700  0.53734700  1
  B  B12  1  0.05914000  0.71750700  0.66995900  1
  B  B13  1  0.33080500  0.26875300  0.06170000  1
  B  B14  1  0.37832100  0.31111100  0.27656100  1
  B  B15  1  0.94090500  0.47301400  0.68136900  1
  B  B16  1  0.26708300  0.35719400  0.56215000  1
  B  B17  1  0.34200700  0.84402200  0.88237200  1
  B  B18  1  0.36518500  0.69521700  0.23646700  1
  B  B19  1  0.28972400  0.44770800  0.93264100  1
  B  B20  1  0.30199400  0.63066100  0.80262700  1
  B  B21  1  0.92125700  0.88797100  0.20355100  1
  B  B22  1  0.34254700  0.51700300  0.37650800  1
  B  B23  1  0.32617600  0.10634700  0.41863600  1
  B  B24  1  0.37962600  0.79726600  0.66526300  1
  B  B25  1  0.31307000  0.66495800  0.02028800  1
  B  B26  1  0.00192000  0.27263300  0.27780100  1
  B  B27  1  0.81001000  0.10143800  0.15288900  1
  B  B28  1  0.35085100  0.05636700  0.96823500  1
  B  B29  1  0.93973900  0.73121500  0.83961200  1
  B  B30  1  0.97491700  0.58677700  0.49411100  1
  B  B31  1  0.92772400  0.57168100  0.04236200  1
  B  B32  1  0.40912800  0.90919100  0.32118300  1
  B  B33  1  0.93823600  0.50498400  0.27766600  1
  B  B34  1  0.92278500  0.73522600  0.35945900  1
  B  B35  1  0.04535000  0.78581700  0.44489000  1
  B  B36  1  0.96497900  0.36096800  0.47109100  1
  B  B37  1  0.27215000  0.41363200  0.71203100  1
  B  B38  1  0.65815300  0.43969200  0.29100000  1
  B  B39  1  0.33204900  0.22792500  0.61841300  1
  B  B40  1  0.36568800  0.08952900  0.19364500  1
  B  B41  1  0.10889100  0.87265700  0.29091500  1
  B  B42  1  0.78626300  0.31984500  0.77713500  1
  B  B43  1  0.43084300  0.21554900  0.49078400  1
  B  B44  1  0.75636400  0.98337500  0.60909500  1
  B  B45  1  0.40857300  0.73603200  0.44888300  1
  B  B46  1  0.35869400  0.87664300  0.10353900  1
  B  B47  1  0.37650300  0.02048500  0.73933700  1
  B  B48  1  0.07197200  0.10669300  0.37293000  1
  B  B49  1  0.72760000  0.31615100  0.13927300  1
  N  N0  1  0.45997700  0.85987100  0.42902500  1
  N  N1  1  0.06040400  0.03584100  0.93861200  1
  N  N2  1  0.95534800  0.46783000  0.55378200  1
  N  N3  1  0.61385000  0.64158100  0.99760700  1
  N  N4  1  0.37324000  0.03740700  0.31278400  1
  N  N5  1  0.67185400  0.42066700  0.17104500  1
  N  N6  1  0.33476100  0.43503100  0.27042800  1
  N  N7  1  0.28939600  0.54487400  0.70395300  1
  N  N8  1  0.33262600  0.79583700  0.00184700  1
  N  N9  1  0.84195500  0.80635700  0.28427700  1
  N  N10  1  0.33983600  0.75818200  0.78239500  1
  N  N11  1  0.38223500  0.70209200  0.57021900  1
  N  N12  1  0.35588500  0.97583500  0.86125700  1
  N  N13  1  0.60477500  0.59650200  0.90694300  1
  N  N14  1  0.00450800  0.24035200  0.51908100  1
  N  N15  1  0.64509400  0.43933300  0.40949400  1
  N  N16  1  0.81966800  0.98452400  0.19089400  1
  N  N17  1  0.14975400  0.85753400  0.40559900  1
  N  N18  1  0.45403300  0.28390000  0.37988900  1
  N  N19  1  0.67805400  0.26496400  0.75441300  1
  N  N20  1  0.19607900  0.14050600  0.43499700  1
  N  N21  1  0.28110900  0.36142200  0.82846600  1
  N  N22  1  0.97904000  0.07824600  0.89301800  1
  N  N23  1  0.36367100  0.00878300  0.08755400  1
  N  N24  1  0.92150700  0.60760400  0.91869100  1
  N  N25  1  0.34205700  0.15630600  0.72444900  1
  N  N26  1  0.93833400  0.52952000  0.15009500  1
  N  N27  1  0.06116500  0.74555100  0.78459500  1
  N  N28  1  0.35818700  0.22201500  0.17903200  1
  N  N29  1  0.89091100  0.39422900  0.78366000  1
  N  N30  1  0.32505400  0.61553600  0.13784300  1
  N  N31  1  0.30856400  0.39903700  0.04979600  1
  N  N32  1  0.96007200  0.38114200  0.33628800  1
  N  N33  1  0.28857500  0.58080400  0.92040900  1
  N  N34  1  0.33502400  0.18723900  0.95511300  1
  N  N35  1  0.38323000  0.82643800  0.21916100  1
  N  N36  1  0.83908600  0.80957700  0.80018600  1
  N  N37  1  0.78227900  0.20967700  0.11081600  1
  N  N38  1  0.05224600  0.88745200  0.18615400  1
  N  N39  1  0.93098000  0.60204100  0.37034600  1
  N  N40  1  0.63016900  0.94027200  0.97543700  1
  N  N41  1  0.63928800  0.97034200  0.53732900  1
  N  N42  1  0.55841800  0.25699100  0.54709500  1
  N  N43  1  0.42082400  0.92947600  0.64604000  1
  N  N44  1  0.03879500  0.69448300  0.54918200  1
  N  N45  1  0.83707900  0.05138400  0.52020400  1
  N  N46  1  0.04417000  0.16223400  0.25940100  1
  N  N47  1  0.64852300  0.02010800  0.91518200  1
  N  N48  1  0.37748900  0.64655100  0.35478800  1
  N  N49  1  0.31500900  0.47737400  0.49805800  1
loop_
_geom_bond_atom_site_label_1
_geom_bond_atom_site_label_2
_geom_bond_distance
_geom_bond_site_symmetry_2
B0 N41 1.477040 1_555
B0 N45 1.518405 1_565
B1 N24 1.423976 1_555
B1 N29 1.467464 1_555
B2 N7 1.418245 1_555
B2 N11 1.449785 1_555
B2 N49 1.458614 1_555
B3 N6 1.434450 1_555
B3 N30 1.435758 1_555
B3 N31 1.451147 1_555
B4 N9 1.438518 1_555
B4 N16 1.503120 1_555
B5 N15 1.397157 1_555
B5 N18 1.446897 1_555
B5 N42 1.528703 1_555
B6 N45 1.461427 1_555
B6 N14 1.529914 1_655
B7 N42 1.319939 1_555
B7 N19 1.325186 1_555
B8 N20 1.452004 1_555
B8 N14 1.546004 1_555
B9 N36 1.283375 1_555
B10 N34 1.427523 1_555
B10 N21 1.444276 1_555
B10 N25 1.512433 1_555
B11 N41 1.471929 1_555
B11 N0 1.479693 1_555
B11 N43 1.490016 1_555
B12 N27 1.302061 1_555
B12 N44 1.378153 1_555
B13 N31 1.440185 1_555
B13 N28 1.442805 1_555
B13 N34 1.460024 1_554
B14 N6 1.426671 1_555
B14 N18 1.448036 1_555
B14 N28 1.448892 1_555
B15 N2 1.421447 1_555
B15 N29 1.514308 1_555
B16 N49 1.564524 1_555
B17 N10 1.430961 1_555
B17 N8 1.435839 1_556
B17 N12 1.451999 1_555
B18 N48 1.433904 1_555
B18 N30 1.442706 1_555
B18 N35 1.442877 1_555
B19 N31 1.431546 1_556
B19 N33 1.447108 1_555
B19 N21 1.472552 1_555
B20 N7 1.425859 1_555
B20 N33 1.427996 1_555
B20 N10 1.447724 1_555
B21 N38 1.391711 1_655
B21 N9 1.502505 1_555
B21 N16 1.519744 1_555
B22 N49 1.446691 1_555
B22 N6 1.460548 1_555
B22 N48 1.464036 1_555
B23 N20 1.435048 1_555
B23 N4 1.461517 1_555
B24 N10 1.428585 1_555
B24 N11 1.457374 1_555
B24 N43 1.503199 1_555
B25 N30 1.428860 1_555
B25 N33 1.442437 1_554
B25 N8 1.443071 1_555
B26 N46 1.291657 1_555
B26 N32 1.402193 1_455
B27 N37 1.308280 1_555
B27 N16 1.346117 1_545
B28 N34 1.437249 1_555
B28 N23 1.440329 1_556
B28 N12 1.457561 1_545
B29 N27 1.415942 1_655
B29 N36 1.449870 1_555
B29 N24 1.619816 1_555
B30 N44 1.461637 1_655
B30 N2 1.467283 1_555
B30 N39 1.471458 1_555
B31 N26 1.296057 1_555
B31 N24 1.437336 1_554
B32 N0 1.437361 1_555
B32 N4 1.447871 1_565
B32 N35 1.454243 1_555
B33 N26 1.446007 1_555
B33 N39 1.454979 1_555
B33 N32 1.523103 1_555
B34 N9 1.446404 1_555
B34 N39 1.450459 1_555
B35 N17 1.402649 1_555
B35 N44 1.536533 1_555
B36 N2 1.463059 1_555
B36 N14 1.487635 1_655
B36 N32 1.518514 1_555
B37 N21 1.426397 1_555
B37 N7 1.430229 1_555
B38 N15 1.319872 1_555
B38 N5 1.348306 1_555
B39 N25 1.428671 1_555
B40 N28 1.447347 1_555
B40 N23 1.450501 1_555
B40 N4 1.452289 1_555
B41 N38 1.331143 1_555
B41 N17 1.365520 1_555
B42 N19 1.302585 1_555
B42 N29 1.355118 1_555
B43 N18 1.463034 1_555
B43 N42 1.548771 1_555
B44 N41 1.484857 1_555
B44 N45 1.487913 1_565
B45 N11 1.424230 1_555
B45 N48 1.445679 1_555
B45 N0 1.453418 1_555
B46 N35 1.433589 1_555
B46 N8 1.439349 1_555
B46 N23 1.441799 1_565
B47 N12 1.457351 1_545
B47 N43 1.487582 1_545
B47 N25 1.531010 1_555
B48 N46 1.444381 1_555
B48 N20 1.525346 1_555
B49 N5 1.320892 1_555
B49 N37 1.325764 1_555
N1 N22 1.115072 1_455
N13 N3 1.113434 1_555
N40 N47 1.114337 1_565
