# generated using pymatgen
data_Er2InPd2
_symmetry_space_group_name_H-M   'P 1'
_cell_length_a   3.59888252
_cell_length_b   7.69302261
_cell_length_c   7.69302261
_cell_angle_alpha   90.00000000
_cell_angle_beta   90.00000000
_cell_angle_gamma   90.00000000
_symmetry_Int_Tables_number   1
_chemical_formula_structural   Er2InPd2
_chemical_formula_sum   'Er4 In2 Pd4'
_cell_volume   212.99121339
_cell_formula_units_Z   2
loop_
 _symmetry_equiv_pos_site_id
 _symmetry_equiv_pos_as_xyz
  1  'x, y, z'
loop_
 _atom_site_type_symbol
 _atom_site_label
 _atom_site_symmetry_multiplicity
 _atom_site_fract_x
 _atom_site_fract_y
 _atom_site_fract_z
 _atom_site_occupancy
  Er  Er0  1  0.50000000  0.82750804  0.32750804  1
  Er  Er1  1  0.50000000  0.67249196  0.82750804  1
  Er  Er2  1  0.50000000  0.32750804  0.17249196  1
  Er  Er3  1  0.50000000  0.17249196  0.67249196  1
  In  In0  1  -0.00000000  0.00000000  0.00000000  1
  In  In1  1  0.00000000  0.50000000  0.50000000  1
  Pd  Pd0  1  0.00000000  0.12829243  0.37170757  1
  Pd  Pd1  1  0.00000000  0.37170757  0.87170757  1
  Pd  Pd2  1  -0.00000000  0.62829243  0.12829243  1
  Pd  Pd3  1  -0.00000000  0.87170757  0.62829243  1
loop_
_geom_bond_atom_site_label_1
_geom_bond_atom_site_label_2
_geom_bond_distance
_geom_bond_site_symmetry_2
Er0 Pd2 2.817008 1_555
Er0 Pd2 2.817008 1_655
Er0 Pd3 2.950920 1_655
Er0 Pd3 2.950920 1_555
Er0 Pd0 2.950920 1_565
Er0 Pd0 2.950920 1_665
Er0 In1 3.368515 1_655
Er0 In0 3.368515 1_665
Er0 In1 3.368515 1_555
Er0 In0 3.368515 1_565
Er1 Pd3 2.817008 1_555
Er1 Pd3 2.817008 1_655
Er1 Pd1 2.950920 1_555
Er1 Pd1 2.950920 1_655
Er1 Pd2 2.950920 1_556
Er1 Pd2 2.950920 1_656
Er1 In0 3.368515 1_666
Er1 In1 3.368515 1_655
Er1 In0 3.368515 1_566
Er1 In1 3.368515 1_555
Er2 Pd0 2.817008 1_555
Er2 Pd0 2.817008 1_655
Er2 Pd1 2.950920 1_554
Er2 Pd2 2.950920 1_555
Er2 Pd2 2.950920 1_655
Er2 Pd1 2.950920 1_654
Er2 In1 3.368515 1_655
Er2 In0 3.368515 1_555
Er2 In0 3.368515 1_655
Er2 In1 3.368515 1_555
Er3 Pd1 2.817008 1_655
Er3 Pd1 2.817008 1_555
Er3 Pd3 2.950920 1_545
Er3 Pd3 2.950920 1_645
Er3 Pd0 2.950920 1_555
Er3 Pd0 2.950920 1_655
Er3 In1 3.368515 1_655
Er3 In0 3.368515 1_656
Er3 In0 3.368515 1_556
Er3 In1 3.368515 1_555
In0 Pd0 3.025085 1_555
In0 Pd3 3.025085 1_544
In0 Pd2 3.025085 1_545
In0 Pd1 3.025085 1_554
In1 Pd0 3.025085 1_555
In1 Pd3 3.025085 1_555
In1 Pd2 3.025085 1_555
In1 Pd1 3.025085 1_555
Pd0 Pd3 2.791535 1_545
Pd1 Pd2 2.791535 1_556
