# generated using pymatgen
data_MnAg2GeSe4
_symmetry_space_group_name_H-M   'P 1'
_cell_length_a   6.98199300
_cell_length_b   7.30894400
_cell_length_c   8.24455700
_cell_angle_alpha   90.00000000
_cell_angle_beta   90.00000000
_cell_angle_gamma   90.00000000
_symmetry_Int_Tables_number   1
_chemical_formula_structural   MnAg2GeSe4
_chemical_formula_sum   'Mn2 Ag4 Ge2 Se8'
_cell_volume   420.72795401
_cell_formula_units_Z   2
loop_
 _symmetry_equiv_pos_site_id
 _symmetry_equiv_pos_as_xyz
  1  'x, y, z'
loop_
 _atom_site_type_symbol
 _atom_site_label
 _atom_site_symmetry_multiplicity
 _atom_site_fract_x
 _atom_site_fract_y
 _atom_site_fract_z
 _atom_site_occupancy
  Mn  Mn0  1  0.50833000  0.35336600  0.00000000  1
  Mn  Mn1  1  0.00833000  0.64663400  0.50000000  1
  Ag  Ag0  1  0.51807400  0.82451100  0.75398500  1
  Ag  Ag1  1  0.01807400  0.17548900  0.74601500  1
  Ag  Ag2  1  0.01807400  0.17548900  0.25398500  1
  Ag  Ag3  1  0.51807400  0.82451100  0.24601500  1
  Ge  Ge0  1  0.99826900  0.66506700  0.00000000  1
  Ge  Ge1  1  0.49826900  0.33493300  0.50000000  1
  Se  Se0  1  0.87121400  0.35878700  0.00000000  1
  Se  Se1  1  0.37121400  0.64121300  0.50000000  1
  Se  Se2  1  0.89656100  0.82516800  0.75539100  1
  Se  Se3  1  0.39656100  0.17483200  0.74460900  1
  Se  Se4  1  0.39656100  0.17483200  0.25539100  1
  Se  Se5  1  0.89656100  0.82516800  0.24460900  1
  Se  Se6  1  0.34541800  0.66073100  0.00000000  1
  Se  Se7  1  0.84541800  0.33926900  0.50000000  1
loop_
_geom_bond_atom_site_label_1
_geom_bond_atom_site_label_2
_geom_bond_distance
_geom_bond_site_symmetry_2
Mn0 Se6 2.518058 1_555
Mn0 Se0 2.533963 1_555
Mn0 Se4 2.597156 1_555
Mn0 Se3 2.597156 1_554
Mn1 Se7 2.518058 1_455
Mn1 Se1 2.533963 1_555
Mn1 Se2 2.597156 1_455
Mn1 Se5 2.597156 1_455
Ag0 Se2 2.642623 1_555
Ag0 Se6 2.645766 1_556
Ag0 Se1 2.689059 1_555
Ag0 Se3 2.698482 1_565
Ag1 Se3 2.642623 1_555
Ag1 Se7 2.645766 1_455
Ag1 Se0 2.689059 1_456
Ag1 Se2 2.698482 1_445
Ag2 Se4 2.642623 1_555
Ag2 Se7 2.645766 1_455
Ag2 Se0 2.689059 1_455
Ag2 Se5 2.698482 1_445
Ag3 Se5 2.642623 1_555
Ag3 Se6 2.645766 1_555
Ag3 Se1 2.689059 1_555
Ag3 Se4 2.698482 1_565
Ge0 Se0 2.407945 1_555
Ge0 Se6 2.423999 1_655
Ge0 Se5 2.437339 1_555
Ge0 Se2 2.437339 1_554
Ge1 Se1 2.407945 1_555
Ge1 Se7 2.423999 1_555
Ge1 Se3 2.437339 1_555
Ge1 Se4 2.437339 1_555
