# generated using pymatgen
data_KPO3
_symmetry_space_group_name_H-M   'P 1'
_cell_length_a   8.68469775
_cell_length_b   8.68469775
_cell_length_c   4.19200900
_cell_angle_alpha   77.00847631
_cell_angle_beta   77.00847631
_cell_angle_gamma   41.10641199
_symmetry_Int_Tables_number   1
_chemical_formula_structural   KPO3
_chemical_formula_sum   'K2 P2 O6'
_cell_volume   201.79408132
_cell_formula_units_Z   2
loop_
 _symmetry_equiv_pos_site_id
 _symmetry_equiv_pos_as_xyz
  1  'x, y, z'
loop_
 _atom_site_type_symbol
 _atom_site_label
 _atom_site_symmetry_multiplicity
 _atom_site_fract_x
 _atom_site_fract_y
 _atom_site_fract_z
 _atom_site_occupancy
  K  K0  1  0.87146800  0.87146800  0.31270000  1
  K  K1  1  0.12853200  0.12853200  0.68730000  1
  P  P0  1  0.37231700  0.37231700  0.71373100  1
  P  P1  1  0.62768300  0.62768300  0.28626900  1
  O  O0  1  0.62092700  0.19309400  0.79550300  1
  O  O1  1  0.80690600  0.37907300  0.20449700  1
  O  O2  1  0.37907300  0.80690600  0.20449700  1
  O  O3  1  0.19309400  0.62092700  0.79550300  1
  O  O4  1  0.30352600  0.30352600  0.53197100  1
  O  O5  1  0.69647400  0.69647400  0.46802900  1
loop_
_geom_bond_atom_site_label_1
_geom_bond_atom_site_label_2
_geom_bond_distance
_geom_bond_site_symmetry_2
K0 O3 2.734299 1_654
K0 O0 2.734299 1_564
K0 O5 2.763005 1_555
K0 O0 2.834707 1_565
K0 O3 2.834707 1_655
K1 O2 2.734299 1_546
K1 O1 2.734299 1_456
K1 O4 2.763005 1_555
K1 O2 2.834707 1_545
K1 O1 2.834707 1_455
O0 P0 1.493444 1_555
O1 P1 1.493444 1_555
O2 P1 1.493444 1_555
O3 P0 1.493444 1_555
O4 P0 1.497198 1_555
O5 P1 1.497198 1_555
