# generated using pymatgen
data_CsSrMg6
_symmetry_space_group_name_H-M   'P 1'
_cell_length_a   5.54805100
_cell_length_b   7.31700900
_cell_length_c   12.52897500
_cell_angle_alpha   90.00000000
_cell_angle_beta   90.00000000
_cell_angle_gamma   90.00000000
_symmetry_Int_Tables_number   1
_chemical_formula_structural   CsSrMg6
_chemical_formula_sum   'Cs2 Sr2 Mg12'
_cell_volume   508.61548290
_cell_formula_units_Z   2
loop_
 _symmetry_equiv_pos_site_id
 _symmetry_equiv_pos_as_xyz
  1  'x, y, z'
loop_
 _atom_site_type_symbol
 _atom_site_label
 _atom_site_symmetry_multiplicity
 _atom_site_fract_x
 _atom_site_fract_y
 _atom_site_fract_z
 _atom_site_occupancy
  Cs  Cs0  1  0.00000000  0.50000000  0.65876100  1
  Cs  Cs1  1  0.00000000  0.00000000  0.15876100  1
  Sr  Sr0  1  0.50000000  0.50000000  0.84177300  1
  Sr  Sr1  1  0.50000000  0.00000000  0.34177300  1
  Mg  Mg0  1  0.00000000  0.23806800  0.91714400  1
  Mg  Mg1  1  0.00000000  0.76193200  0.91714400  1
  Mg  Mg2  1  0.00000000  0.50000000  0.16702400  1
  Mg  Mg3  1  0.50000000  0.28082200  0.08250500  1
  Mg  Mg4  1  0.50000000  0.71917800  0.08250500  1
  Mg  Mg5  1  0.50000000  0.50000000  0.33314300  1
  Mg  Mg6  1  0.00000000  0.73806800  0.41714400  1
  Mg  Mg7  1  0.00000000  0.26193200  0.41714400  1
  Mg  Mg8  1  0.00000000  0.00000000  0.66702400  1
  Mg  Mg9  1  0.50000000  0.78082200  0.58250500  1
  Mg  Mg10  1  0.50000000  0.21917800  0.58250500  1
  Mg  Mg11  1  0.50000000  0.00000000  0.83314300  1
loop_
_geom_bond_atom_site_label_1
_geom_bond_atom_site_label_2
_geom_bond_distance
_geom_bond_site_symmetry_2
Cs0 Mg6 3.492620 1_555
Cs0 Mg7 3.492620 1_555
Cs0 Mg9 3.581918 1_555
Cs0 Mg9 3.581918 1_455
Cs0 Mg10 3.581918 1_555
Cs0 Mg10 3.581918 1_455
Cs0 Sr0 3.599007 1_555
Cs0 Sr0 3.599007 1_455
Cs0 Mg8 3.659969 1_555
Cs0 Mg8 3.659969 1_565
Cs0 Mg1 3.762066 1_555
Cs0 Mg0 3.762066 1_555
Cs1 Mg0 3.492620 1_554
Cs1 Mg1 3.492620 1_544
Cs1 Mg3 3.581918 1_455
Cs1 Mg3 3.581918 1_555
Cs1 Mg4 3.581918 1_545
Cs1 Mg4 3.581918 1_445
Cs1 Sr1 3.599007 1_555
Cs1 Sr1 3.599007 1_455
Cs1 Mg2 3.659969 1_555
Cs1 Mg2 3.659969 1_545
Cs1 Mg6 3.762066 1_545
Cs1 Mg7 3.762066 1_555
Mg0 Mg11 3.440528 1_455
Mg0 Mg11 3.440528 1_555
Mg0 Mg3 3.476414 1_456
Mg0 Mg3 3.476414 1_556
Mg0 Mg1 3.483891 1_545
Mg0 Sr0 3.501451 1_455
Mg0 Sr0 3.501451 1_555
Mg1 Mg11 3.440528 1_465
Mg1 Mg11 3.440528 1_565
Mg1 Mg4 3.476414 1_456
Mg1 Mg4 3.476414 1_556
Mg1 Sr0 3.501451 1_555
Mg1 Sr0 3.501451 1_455
Mg2 Mg4 3.374686 1_455
Mg2 Mg4 3.374686 1_555
Mg2 Mg3 3.374686 1_555
Mg2 Mg3 3.374686 1_455
Mg2 Mg5 3.468001 1_555
Mg2 Mg5 3.468001 1_455
Mg3 Mg4 3.207455 1_555
Mg3 Sr0 3.415985 1_554
Mg3 Mg5 3.526050 1_555
Mg3 Sr1 3.843692 1_555
Mg4 Sr0 3.415985 1_554
Mg4 Mg5 3.526050 1_555
Mg4 Sr1 3.843692 1_565
Mg5 Mg6 3.440528 1_555
Mg5 Mg6 3.440528 1_655
Mg5 Mg7 3.440528 1_555
Mg5 Mg7 3.440528 1_655
Mg5 Sr1 3.660102 1_555
Mg5 Sr1 3.660102 1_565
Mg6 Mg9 3.476414 1_555
Mg6 Mg9 3.476414 1_455
Mg6 Mg7 3.483891 1_555
Mg6 Sr1 3.501451 1_565
Mg6 Sr1 3.501451 1_465
Mg7 Sr1 3.501451 1_455
Mg7 Sr1 3.501451 1_555
Mg8 Mg9 3.374686 1_445
Mg8 Mg9 3.374686 1_545
Mg9 Sr1 3.415985 1_565
Mg9 Sr0 3.843692 1_555
Mg10 Mg9 3.207455 1_545
Mg10 Mg8 3.374686 1_555
Mg10 Mg8 3.374686 1_655
Mg10 Sr1 3.415985 1_555
Mg10 Mg7 3.476414 1_655
Mg10 Mg7 3.476414 1_555
Mg10 Mg11 3.526050 1_555
Mg10 Sr0 3.843692 1_555
Mg11 Mg8 3.468001 1_555
Mg11 Mg8 3.468001 1_655
Mg11 Mg9 3.526050 1_545
Mg11 Sr0 3.660102 1_545
Mg11 Sr0 3.660102 1_555
