# generated using pymatgen
data_Mg16Al12Ru
_symmetry_space_group_name_H-M   'P 1'
_cell_length_a   9.31575211
_cell_length_b   8.95775709
_cell_length_c   8.95775814
_cell_angle_alpha   108.64753857
_cell_angle_beta   110.28285502
_cell_angle_gamma   110.28284487
_symmetry_Int_Tables_number   1
_chemical_formula_structural   Mg16Al12Ru
_chemical_formula_sum   'Mg16 Al12 Ru1'
_cell_volume   569.56870951
_cell_formula_units_Z   1
loop_
 _symmetry_equiv_pos_site_id
 _symmetry_equiv_pos_as_xyz
  1  'x, y, z'
loop_
 _atom_site_type_symbol
 _atom_site_label
 _atom_site_symmetry_multiplicity
 _atom_site_fract_x
 _atom_site_fract_y
 _atom_site_fract_z
 _atom_site_occupancy
  Mg  Mg0  1  0.31844200  0.59384100  0.00000000  1
  Mg  Mg1  1  0.98847800  0.00000000  0.00000000  1
  Mg  Mg2  1  0.56782200  0.25613800  0.00000000  1
  Mg  Mg3  1  0.00466900  0.35627500  0.00000000  1
  Mg  Mg4  1  0.56782200  0.00000000  0.25613800  1
  Mg  Mg5  1  0.68065000  0.67253700  0.27407600  1
  Mg  Mg6  1  0.00811400  0.60153900  0.32746300  1
  Mg  Mg7  1  0.00466900  0.00000100  0.35627500  1
  Mg  Mg8  1  0.40657500  0.72592400  0.39846200  1
  Mg  Mg9  1  0.72460200  0.40616100  0.40616000  1
  Mg  Mg10  1  0.31844200  0.00000000  0.59384100  1
  Mg  Mg11  1  0.00811400  0.32746300  0.60153900  1
  Mg  Mg12  1  0.64839500  0.64372500  0.64372500  1
  Mg  Mg13  1  0.68065000  0.27407600  0.67253700  1
  Mg  Mg14  1  0.40657500  0.39846200  0.72592400  1
  Mg  Mg15  1  0.31168300  0.74386200  0.74386200  1
  Al  Al0  1  0.81053600  0.60949800  0.99999900  1
  Al  Al1  1  0.65270100  0.80776600  0.00000000  1
  Al  Al2  1  0.18454400  0.81812100  0.17936000  1
  Al  Al3  1  0.36642300  0.36124100  0.18187800  1
  Al  Al4  1  0.84493400  0.19223400  0.19223400  1
  Al  Al5  1  0.36642300  0.18187900  0.36124000  1
  Al  Al6  1  0.20103800  0.39050400  0.39050400  1
  Al  Al7  1  0.81053700  0.00000000  0.60949700  1
  Al  Al8  1  0.00518300  0.82064000  0.63876000  1
  Al  Al9  1  0.65270100  0.00000100  0.80776600  1
  Al  Al10  1  0.18454400  0.17936000  0.81812100  1
  Al  Al11  1  0.00518200  0.63876000  0.82064000  1
  Ru  Ru0  1  0.26955300  0.00000000  0.00000100  1
loop_
_geom_bond_atom_site_label_1
_geom_bond_atom_site_label_2
_geom_bond_distance
_geom_bond_site_symmetry_2
Mg0 Mg3 2.959746 1_555
Mg0 Mg15 3.000760 1_554
Mg0 Mg4 3.000761 1_565
Mg0 Mg11 3.067267 1_554
Mg0 Mg8 3.067275 1_555
Mg0 Mg5 3.067674 1_555
Mg0 Mg14 3.067677 1_554
Mg1 Ru0 2.618422 1_655
Mg1 Mg7 3.142322 1_655
Mg1 Mg12 3.142322 1_544
Mg1 Mg3 3.142325 1_655
Mg2 Ru0 2.926598 1_555
Mg2 Mg9 3.000766 1_555
Mg3 Mg6 3.032648 1_555
Mg3 Mg8 3.507669 1_555
Mg4 Ru0 2.926589 1_555
Mg4 Mg9 3.000775 1_555
Mg5 Mg7 3.032658 1_665
Mg5 Mg9 3.067260 1_555
Mg6 Mg9 3.067674 1_455
Mg6 Mg7 3.507675 1_565
Mg10 Mg7 2.959751 1_555
Mg10 Mg15 3.000760 1_545
Mg10 Mg2 3.000761 1_556
Mg10 Mg6 3.067267 1_545
Mg10 Mg14 3.067275 1_555
Mg10 Mg13 3.067674 1_555
Mg10 Mg8 3.067677 1_545
Mg11 Mg7 3.032641 1_555
Mg11 Mg9 3.067683 1_455
Mg11 Mg3 3.507666 1_556
Mg12 Mg9 2.959730 1_555
Mg12 Mg8 3.032648 1_555
Mg12 Mg14 3.032648 1_555
Mg12 Mg13 3.507659 1_555
Mg12 Mg5 3.507659 1_555
Mg13 Mg3 3.032653 1_656
Mg13 Mg9 3.067274 1_555
Mg14 Mg7 3.507666 1_555
Mg15 Ru0 2.926592 1_566
Al0 Al1 2.669597 1_556
Al0 Al11 2.810270 1_655
Al0 Al2 2.810292 1_656
Al0 Mg13 2.911829 1_555
Al0 Mg6 2.911844 1_656
Al0 Mg14 3.075249 1_555
Al0 Mg5 3.075265 1_556
Al0 Mg12 3.188312 1_555
Al0 Mg7 3.188330 1_666
Al0 Mg2 3.188989 1_556
Al0 Mg1 3.311161 1_566
Al0 Mg3 3.355592 1_656
Al1 Al4 2.797626 1_565
Al1 Al9 2.797633 1_564
Al1 Mg4 2.920626 1_565
Al1 Mg15 2.920633 1_554
Al1 Mg1 3.002544 1_565
Al1 Mg7 3.036023 1_665
Al1 Mg12 3.036029 1_554
Al1 Mg0 3.038312 1_555
Al1 Mg14 3.039735 1_554
Al1 Mg5 3.039741 1_555
Al2 Al5 2.646927 1_565
Al2 Ru0 2.743065 1_565
Al2 Mg8 2.866831 1_555
Al2 Mg6 3.028583 1_555
Al2 Mg0 3.039119 1_555
Al2 Mg4 3.069824 1_565
Al2 Mg10 3.083372 1_565
Al2 Mg7 3.171200 1_565
Al2 Mg1 3.205367 1_465
Al2 Mg3 3.403137 1_555
Al3 Al5 2.610297 1_555
Al3 Ru0 2.743087 1_555
Al3 Al6 2.810315 1_555
Al3 Mg5 2.866808 1_555
Al3 Mg8 3.028572 1_555
Al3 Mg9 3.039131 1_555
Al3 Mg2 3.069824 1_555
Al3 Mg0 3.083350 1_555
Al3 Mg3 3.171185 1_555
Al3 Mg1 3.205378 1_455
Al3 Mg12 3.403143 1_555
Al4 Al6 2.669605 1_655
Al4 Al9 2.797626 1_554
Al4 Mg2 2.920619 1_555
Al4 Mg4 2.920619 1_555
Al4 Mg1 3.002552 1_555
Al4 Mg7 3.036021 1_655
Al4 Mg3 3.036029 1_655
Al4 Mg9 3.038311 1_555
Al4 Mg6 3.039740 1_655
Al4 Mg11 3.039740 1_655
Al5 Ru0 2.743073 1_555
Al5 Al6 2.810308 1_555
Al5 Mg13 2.866816 1_555
Al5 Mg14 3.028578 1_555
Al5 Mg9 3.039131 1_555
Al5 Mg4 3.069827 1_555
Al5 Mg10 3.083364 1_555
Al5 Mg7 3.171190 1_555
Al5 Mg1 3.205372 1_455
Al5 Mg12 3.403137 1_555
Al6 Mg14 2.911827 1_555
Al6 Mg8 2.911827 1_555
Al6 Mg6 3.075237 1_555
Al6 Mg11 3.075238 1_555
Al6 Mg7 3.188321 1_555
Al6 Mg3 3.188328 1_555
Al6 Mg15 3.188967 1_555
Al6 Mg1 3.311184 1_455
Al6 Mg12 3.355599 1_555
Al7 Al9 2.669612 1_555
Al7 Al8 2.810278 1_645
Al7 Mg5 2.911826 1_545
Al7 Mg11 2.911829 1_655
Al7 Mg8 3.075258 1_545
Al7 Mg13 3.075264 1_555
Al7 Mg12 3.188326 1_545
Al7 Mg3 3.188328 1_656
Al7 Mg4 3.188980 1_555
Al7 Mg1 3.311173 1_556
Al7 Mg7 3.355578 1_655
Al8 Ru0 2.743088 1_566
Al8 Mg6 2.866825 1_555
Al8 Mg5 3.028578 1_455
Al8 Mg10 3.039121 1_565
Al8 Mg15 3.069824 1_555
Al8 Mg9 3.083356 1_455
Al8 Mg12 3.171184 1_455
Al8 Mg1 3.205370 1_466
Al8 Mg7 3.403137 1_565
Al9 Mg2 2.920620 1_556
Al9 Mg15 2.920636 1_545
Al9 Mg1 3.002549 1_556
Al9 Mg3 3.036019 1_656
Al9 Mg12 3.036037 1_545
Al9 Mg10 3.038306 1_555
Al9 Mg13 3.039733 1_555
Al9 Mg8 3.039736 1_545
Al10 Al8 2.610267 1_545
Al10 Al3 2.646920 1_556
Al10 Ru0 2.743079 1_556
Al10 Al7 2.810286 1_455
Al10 Mg14 2.866831 1_555
Al10 Mg11 3.028583 1_555
Al10 Mg10 3.039119 1_555
Al10 Mg2 3.069824 1_556
Al10 Mg0 3.083372 1_556
Al10 Mg3 3.171196 1_556
Al10 Mg1 3.205368 1_456
Al10 Mg7 3.403138 1_555
Al11 Al2 2.610268 1_556
Al11 Al8 2.646942 1_555
Al11 Ru0 2.743083 1_566
Al11 Mg11 2.866830 1_555
Al11 Mg13 3.028573 1_455
Al11 Mg0 3.039129 1_556
Al11 Mg15 3.069833 1_555
Al11 Mg9 3.083360 1_455
Al11 Mg12 3.171176 1_455
Al11 Mg1 3.205364 1_466
Al11 Mg3 3.403131 1_556
