# generated using pymatgen
data_MgFe4(CuO4)3
_symmetry_space_group_name_H-M   'P 1'
_cell_length_a   6.41398487
_cell_length_b   6.38879078
_cell_length_c   6.41491065
_cell_angle_alpha   109.38277552
_cell_angle_beta   109.57880953
_cell_angle_gamma   109.38628560
_symmetry_Int_Tables_number   1
_chemical_formula_structural   MgFe4(CuO4)3
_chemical_formula_sum   'Mg1 Fe4 Cu3 O12'
_cell_volume   202.51919597
_cell_formula_units_Z   1
loop_
 _symmetry_equiv_pos_site_id
 _symmetry_equiv_pos_as_xyz
  1  'x, y, z'
loop_
 _atom_site_type_symbol
 _atom_site_label
 _atom_site_symmetry_multiplicity
 _atom_site_fract_x
 _atom_site_fract_y
 _atom_site_fract_z
 _atom_site_occupancy
  Mg  Mg0  1  0.99999600  0.00000000  0.99999800  1
  Fe  Fe0  1  0.49999700  0.00000100  0.00000100  1
  Fe  Fe1  1  0.99999500  0.99999600  0.49999600  1
  Fe  Fe2  1  0.50000600  0.50000400  0.49999900  1
  Fe  Fe3  1  0.00000500  0.50002300  0.00001400  1
  Cu  Cu0  1  0.00000400  0.50000600  0.49999300  1
  Cu  Cu1  1  0.50000300  0.00000100  0.50000500  1
  Cu  Cu2  1  0.50000200  0.50000600  0.00000400  1
  O  O0  1  0.14312500  0.83495300  0.31077100  1
  O  O1  1  0.85686900  0.16503300  0.68924800  1
  O  O2  1  0.52212700  0.83154200  0.68870600  1
  O  O3  1  0.16663800  0.30945400  0.47790700  1
  O  O4  1  0.31071100  0.47578700  0.16754300  1
  O  O5  1  0.31128400  0.14288400  0.83340300  1
  O  O6  1  0.16763600  0.69179300  0.85689400  1
  O  O7  1  0.68927200  0.52418000  0.83243600  1
  O  O8  1  0.47784100  0.16845300  0.31128200  1
  O  O9  1  0.83338900  0.69057500  0.52212300  1
  O  O10  1  0.68872000  0.85711800  0.16657000  1
  O  O11  1  0.83238000  0.30819000  0.14310700  1
loop_
_geom_bond_atom_site_label_1
_geom_bond_atom_site_label_2
_geom_bond_distance
_geom_bond_site_symmetry_2
Mg0 O1 2.596032 1_555
Mg0 O0 2.596220 1_646
Mg0 O4 2.596339 1_656
Mg0 O7 2.596492 1_545
Mg0 O11 2.596608 1_556
Mg0 O6 2.596805 1_645
Mg0 O8 2.611756 1_656
Mg0 O2 2.611881 1_545
Mg0 O9 2.612850 1_545
Mg0 O3 2.613011 1_656
Mg0 O10 2.613137 1_546
Mg0 O5 2.613315 1_655
Fe0 O10 1.988568 1_545
Fe0 O5 1.988621 1_554
Fe0 O6 1.991564 1_544
Fe0 O11 1.991590 1_555
Fe0 O2 2.007743 1_544
Fe0 O8 2.007755 1_555
Fe1 O9 1.988824 1_555
Fe1 O3 1.988936 1_665
Fe1 O0 1.991979 1_655
Fe1 O1 1.992041 1_565
Fe1 O5 2.006541 1_665
Fe1 O10 2.006583 1_555
Fe2 O8 1.988780 1_555
Fe2 O2 1.988833 1_555
Fe2 O7 1.991775 1_555
Fe2 O4 1.991794 1_555
Fe2 O3 2.007088 1_555
Fe2 O9 2.007099 1_555
Fe3 O7 2.007495 1_454
Fe3 O4 2.007573 1_555
Fe3 O0 2.008370 1_555
Fe3 O6 2.008402 1_554
Fe3 O11 2.008473 1_455
Fe3 O1 2.008599 1_454
Cu0 O3 1.869552 1_555
Cu0 O9 1.869556 1_455
Cu0 O11 1.874155 1_455
Cu0 O6 1.874220 1_555
Cu1 O2 1.869429 1_545
Cu1 O8 1.869519 1_555
Cu1 O1 1.873653 1_555
Cu1 O0 1.873707 1_545
Cu2 O10 1.869191 1_555
Cu2 O5 1.869232 1_554
Cu2 O4 1.874374 1_555
Cu2 O7 1.874400 1_554
