# generated using pymatgen
data_Li2AlCuF6
_symmetry_space_group_name_H-M   'P 1'
_cell_length_a   5.62073241
_cell_length_b   5.62073241
_cell_length_c   5.62073241
_cell_angle_alpha   60.00000000
_cell_angle_beta   60.00000000
_cell_angle_gamma   60.00000000
_symmetry_Int_Tables_number   1
_chemical_formula_structural   Li2AlCuF6
_chemical_formula_sum   'Li2 Al1 Cu1 F6'
_cell_volume   125.56359212
_cell_formula_units_Z   1
loop_
 _symmetry_equiv_pos_site_id
 _symmetry_equiv_pos_as_xyz
  1  'x, y, z'
loop_
 _atom_site_type_symbol
 _atom_site_label
 _atom_site_symmetry_multiplicity
 _atom_site_fract_x
 _atom_site_fract_y
 _atom_site_fract_z
 _atom_site_occupancy
  Li  Li0  1  0.75000000  0.75000000  0.75000000  1
  Li  Li1  1  0.25000000  0.25000000  0.25000000  1
  Al  Al0  1  0.00000000  0.00000000  0.00000000  1
  Cu  Cu0  1  0.50000000  0.50000000  0.50000000  1
  F  F0  1  0.77195600  0.22804400  0.22804400  1
  F  F1  1  0.22804400  0.22804400  0.77195600  1
  F  F2  1  0.22804400  0.77195600  0.77195600  1
  F  F3  1  0.22804400  0.77195600  0.22804400  1
  F  F4  1  0.77195600  0.22804400  0.77195600  1
  F  F5  1  0.77195600  0.77195600  0.22804400  1
loop_
_geom_bond_atom_site_label_1
_geom_bond_atom_site_label_2
_geom_bond_distance
_geom_bond_site_symmetry_2
Al0 F1 1.812703 1_554
Al0 F3 1.812703 1_545
Al0 F0 1.812703 1_455
Al0 F4 1.812703 1_454
Al0 F2 1.812703 1_544
Al0 F5 1.812703 1_445
Cu0 F3 2.161755 1_555
Cu0 F0 2.161755 1_555
Cu0 F1 2.161755 1_555
Cu0 F4 2.161755 1_555
Cu0 F5 2.161755 1_555
Cu0 F2 2.161755 1_555
