# generated using pymatgen
data_MgSi2
_symmetry_space_group_name_H-M   'P 1'
_cell_length_a   7.59681171
_cell_length_b   5.72665902
_cell_length_c   9.26017230
_cell_angle_alpha   89.99023009
_cell_angle_beta   90.04292716
_cell_angle_gamma   90.00135411
_symmetry_Int_Tables_number   1
_chemical_formula_structural   MgSi2
_chemical_formula_sum   'Mg8 Si16'
_cell_volume   402.85766054
_cell_formula_units_Z   8
loop_
 _symmetry_equiv_pos_site_id
 _symmetry_equiv_pos_as_xyz
  1  'x, y, z'
loop_
 _atom_site_type_symbol
 _atom_site_label
 _atom_site_symmetry_multiplicity
 _atom_site_fract_x
 _atom_site_fract_y
 _atom_site_fract_z
 _atom_site_occupancy
  Mg  Mg0  1  0.14364200  0.75086700  0.11607100  1
  Mg  Mg1  1  0.86235400  0.25079900  0.60240400  1
  Mg  Mg2  1  0.34870900  0.75103700  0.38864900  1
  Mg  Mg3  1  0.63141700  0.25071100  0.89897600  1
  Mg  Mg4  1  0.36800900  0.25097800  0.39716100  1
  Mg  Mg5  1  0.65095100  0.75059700  0.88720700  1
  Mg  Mg6  1  0.13940100  0.25084100  0.10217800  1
  Mg  Mg7  1  0.85659400  0.75080100  0.61551200  1
  Si  Si0  1  0.81611200  0.97273400  0.12294400  1
  Si  Si1  1  0.52382700  0.47481600  0.63554600  1
  Si  Si2  1  0.02300300  0.02981900  0.36543400  1
  Si  Si3  1  0.31602800  0.53428800  0.88103000  1
  Si  Si4  1  0.68318300  0.96758600  0.38085200  1
  Si  Si5  1  0.97618500  0.47194400  0.86651200  1
  Si  Si6  1  0.47677000  0.02529100  0.13625200  1
  Si  Si7  1  0.18436400  0.52838300  0.62277200  1
  Si  Si8  1  0.02303300  0.47199300  0.36546800  1
  Si  Si9  1  0.31602900  0.96717200  0.88095500  1
  Si  Si10  1  0.81616100  0.52881200  0.12300300  1
  Si  Si11  1  0.52387700  0.02672600  0.63550300  1
  Si  Si12  1  0.47671400  0.47630900  0.13614800  1
  Si  Si13  1  0.18432000  0.97327800  0.62275200  1
  Si  Si14  1  0.68324100  0.53430300  0.38081100  1
  Si  Si15  1  0.97614400  0.02953400  0.86659700  1
loop_
_geom_bond_atom_site_label_1
_geom_bond_atom_site_label_2
_geom_bond_distance
_geom_bond_site_symmetry_2
Mg0 Si0 2.794609 1_455
Mg0 Si10 2.794716 1_455
Mg0 Si9 2.827182 1_554
Mg0 Si3 2.827684 1_554
Mg0 Mg6 2.866228 1_565
Mg0 Mg6 2.866568 1_555
Mg0 Si8 2.953880 1_555
Mg0 Si2 2.954396 1_565
Mg0 Mg2 2.965165 1_555
Mg0 Si6 2.984684 1_565
Mg0 Si12 2.984698 1_555
Mg0 Si15 3.081742 1_464
Mg0 Si5 3.083340 1_454
Mg1 Si2 2.812687 1_655
Mg1 Si8 2.812729 1_655
Mg1 Mg7 2.866203 1_545
Mg1 Mg7 2.866270 1_555
Mg1 Si5 2.886319 1_555
Mg1 Si15 2.886846 1_555
Mg1 Si11 2.890196 1_555
Mg1 Si1 2.890534 1_555
Mg1 Si13 2.922870 1_645
Mg1 Si7 2.923330 1_655
Mg1 Si4 2.947722 1_545
Mg1 Si14 2.948350 1_555
Mg2 Si13 2.807832 1_555
Mg2 Si7 2.808537 1_555
Mg2 Si4 2.828342 1_555
Mg2 Si14 2.829276 1_555
Mg2 Mg4 2.867834 1_565
Mg2 Mg4 2.868489 1_555
Mg2 Si2 2.952382 1_565
Mg2 Si8 2.952956 1_555
Mg2 Si6 2.979576 1_565
Mg2 Si12 2.982069 1_555
Mg2 Si11 3.079823 1_565
Mg2 Si1 3.081149 1_555
Mg3 Si6 2.806641 1_556
Mg3 Si12 2.806905 1_556
Mg3 Mg5 2.868574 1_555
Mg3 Mg5 2.869921 1_545
Mg3 Si1 2.874334 1_555
Mg3 Si11 2.874611 1_555
Mg3 Si9 2.899001 1_545
Mg3 Si3 2.899121 1_555
Mg3 Si15 2.924706 1_555
Mg3 Si5 2.925107 1_555
Mg3 Si0 2.966272 1_546
Mg3 Si10 2.967555 1_556
Mg4 Si1 2.813235 1_555
Mg4 Si11 2.813846 1_555
Mg4 Si12 2.861987 1_555
Mg4 Si6 2.862606 1_555
Mg4 Si4 2.896574 1_545
Mg4 Si14 2.896652 1_555
Mg4 Si8 2.924912 1_555
Mg4 Si2 2.925494 1_555
Mg4 Si7 2.973274 1_555
Mg4 Si13 2.973788 1_545
Mg5 Si10 2.819763 1_556
Mg5 Si0 2.820393 1_556
Mg5 Si3 2.830385 1_555
Mg5 Si9 2.831103 1_555
Mg5 Si5 2.947662 1_555
Mg5 Si15 2.948131 1_565
Mg5 Mg7 2.962503 1_555
Mg5 Si1 2.975825 1_555
Mg5 Si11 2.976674 1_565
Mg5 Si12 3.088148 1_556
Mg5 Si6 3.090300 1_566
Mg6 Si5 2.810367 1_454
Mg6 Si15 2.810729 1_454
Mg6 Si2 2.885987 1_555
Mg6 Si12 2.886398 1_555
Mg6 Si8 2.886892 1_555
Mg6 Si6 2.887096 1_555
Mg6 Si10 2.932933 1_455
Mg6 Si0 2.933533 1_445
Mg6 Si3 2.938005 1_554
Mg6 Si9 2.939616 1_544
Mg7 Si13 2.797463 1_655
Mg7 Si7 2.797654 1_655
Mg7 Si14 2.826930 1_555
Mg7 Si4 2.827266 1_555
Mg7 Si5 2.962020 1_555
Mg7 Si15 2.962564 1_565
Mg7 Si11 2.986765 1_565
Mg7 Si1 2.987197 1_555
Mg7 Si8 3.084644 1_655
Mg7 Si2 3.084970 1_665
Si0 Si10 2.542190 1_555
Si0 Si4 2.593853 1_555
Si0 Si6 2.598453 1_565
Si0 Si15 2.687538 1_564
Si0 Si2 2.759411 1_665
Si1 Si11 2.566059 1_555
Si1 Si7 2.599627 1_555
Si1 Si14 2.674138 1_555
Si1 Si3 2.789483 1_555
Si2 Si8 2.532180 1_555
Si2 Si4 2.610035 1_445
Si3 Si9 2.478979 1_555
Si3 Si7 2.591790 1_555
Si3 Si5 2.609653 1_455
Si4 Si6 2.773612 1_565
Si5 Si7 2.775798 1_655
Si6 Si9 2.680815 1_544
Si7 Si8 2.698038 1_555
Si10 Si14 2.593007 1_555
Si10 Si12 2.599117 1_555
Si10 Si5 2.688841 1_554
Si10 Si8 2.758879 1_655
Si11 Si13 2.600236 1_545
Si11 Si4 2.672936 1_545
Si11 Si9 2.789406 1_545
Si12 Si6 2.582826 1_555
Si12 Si3 2.678972 1_554
Si12 Si14 2.774858 1_555
Si13 Si7 2.547762 1_555
Si13 Si9 2.591457 1_555
Si13 Si2 2.698117 1_565
Si13 Si15 2.776553 1_465
Si14 Si4 2.481264 1_555
Si14 Si8 2.609869 1_655
Si15 Si5 2.533531 1_555
Si15 Si9 2.609918 1_645
