# generated using pymatgen
data_Li2Fe(CoO3)2
_symmetry_space_group_name_H-M   'P 1'
_cell_length_a   5.07559463
_cell_length_b   10.13079422
_cell_length_c   4.99231182
_cell_angle_alpha   94.35953457
_cell_angle_beta   60.18466764
_cell_angle_gamma   97.45794188
_symmetry_Int_Tables_number   1
_chemical_formula_structural   Li2Fe(CoO3)2
_chemical_formula_sum   'Li4 Fe2 Co4 O12'
_cell_volume   220.82063907
_cell_formula_units_Z   2
loop_
 _symmetry_equiv_pos_site_id
 _symmetry_equiv_pos_as_xyz
  1  'x, y, z'
loop_
 _atom_site_type_symbol
 _atom_site_label
 _atom_site_symmetry_multiplicity
 _atom_site_fract_x
 _atom_site_fract_y
 _atom_site_fract_z
 _atom_site_occupancy
  Li  Li0  1  0.23680100  0.74795700  0.32132400  1
  Li  Li1  1  0.43047200  0.25106900  0.33956100  1
  Li  Li2  1  0.60502500  0.75083700  0.59786500  1
  Li  Li3  1  0.78987900  0.25110900  0.61334400  1
  Fe  Fe0  1  0.00135200  0.00048300  0.00234300  1
  Fe  Fe1  1  0.49095600  0.49974700  0.01401600  1
  Co  Co0  1  0.33166600  0.00020700  0.33817300  1
  Co  Co1  1  0.82704100  0.49880000  0.33875100  1
  Co  Co2  1  0.16499200  0.50043200  0.67312200  1
  Co  Co3  1  0.66435900  0.00040400  0.67441100  1
  O  O0  1  0.17427800  0.60184100  0.01639400  1
  O  O1  1  0.37694200  0.10208200  0.00279900  1
  O  O2  1  0.62570900  0.89950000  0.99702900  1
  O  O3  1  0.79614500  0.39522000  0.03651900  1
  O  O4  1  0.96981400  0.89768000  0.35487300  1
  O  O5  1  0.14454500  0.38619900  0.36228900  1
  O  O6  1  0.50344600  0.61483500  0.35015700  1
  O  O7  1  0.67584100  0.10208400  0.36004600  1
  O  O8  1  0.01821900  0.10272300  0.65812000  1
  O  O9  1  0.32817400  0.89824300  0.65440900  1
  O  O10  1  0.49793700  0.39172100  0.65150300  1
  O  O11  1  0.84640600  0.60682600  0.64294800  1
loop_
_geom_bond_atom_site_label_1
_geom_bond_atom_site_label_2
_geom_bond_distance
_geom_bond_site_symmetry_2
Li0 O6 2.090030 1_555
Li0 O4 2.105799 1_455
Li0 O0 2.150623 1_555
Li0 O11 2.235710 1_455
Li0 O2 2.299519 1_554
Li0 O9 2.344555 1_555
Li1 O5 2.078816 1_555
Li1 O7 2.116045 1_555
Li1 O10 2.153862 1_555
Li1 O3 2.169394 1_555
Li1 O1 2.267260 1_555
Li1 O8 2.324648 1_555
Li2 O6 1.970789 1_555
Li2 O9 2.090574 1_555
Li2 O4 2.106798 1_555
Li2 O11 2.113838 1_555
Li2 O2 2.441527 1_555
Li2 O0 2.550341 1_556
Li3 O5 2.015440 1_655
Li3 O8 2.100943 1_655
Li3 O7 2.103368 1_555
Li3 O10 2.118299 1_555
Li3 O1 2.454584 1_556
Li3 O3 2.486264 1_556
Fe0 O8 2.033366 1_554
Fe0 O9 2.036884 1_544
Fe0 O4 2.040323 1_445
Fe0 O1 2.046497 1_555
Fe0 O7 2.050898 1_455
Fe0 O2 2.054823 1_444
Fe1 O6 1.992147 1_555
Fe1 O0 2.015970 1_555
Fe1 O10 2.029638 1_554
Fe1 O3 2.037249 1_555
Fe1 O5 2.043717 1_555
Fe1 O11 2.082633 1_554
Co0 O1 1.933848 1_555
Co0 O2 1.942257 1_544
Co0 O9 1.942976 1_545
Co0 O8 1.952113 1_555
Co0 O4 1.955668 1_445
Co0 O7 1.957879 1_555
Co1 O3 1.831439 1_555
Co1 O11 1.838878 1_555
Co1 O10 1.896953 1_555
Co1 O0 1.934707 1_655
Co1 O6 2.116775 1_555
Co1 O5 2.144296 1_655
Co2 O5 1.901053 1_555
Co2 O0 1.947974 1_556
Co2 O6 1.976585 1_555
Co2 O3 2.081053 1_456
Co2 O10 2.089023 1_555
Co2 O11 2.125690 1_455
Co3 O2 1.887213 1_545
Co3 O1 1.905781 1_556
Co3 O7 1.914885 1_555
Co3 O9 1.920418 1_545
Co3 O8 1.921237 1_655
Co3 O4 1.933517 1_545
