# generated using pymatgen
data_Na3EuTi2Nb2O12
_symmetry_space_group_name_H-M   'P 1'
_cell_length_a   5.50309600
_cell_length_b   5.58636043
_cell_length_c   7.83041579
_cell_angle_alpha   89.93890635
_cell_angle_beta   89.95550483
_cell_angle_gamma   89.76893361
_symmetry_Int_Tables_number   1
_chemical_formula_structural   Na3EuTi2Nb2O12
_chemical_formula_sum   'Na3 Eu1 Ti2 Nb2 O12'
_cell_volume   240.72265062
_cell_formula_units_Z   1
loop_
 _symmetry_equiv_pos_site_id
 _symmetry_equiv_pos_as_xyz
  1  'x, y, z'
loop_
 _atom_site_type_symbol
 _atom_site_label
 _atom_site_symmetry_multiplicity
 _atom_site_fract_x
 _atom_site_fract_y
 _atom_site_fract_z
 _atom_site_occupancy
  Na  Na0  1  0.49664500  0.51563100  0.74850500  1
  Na  Na1  1  0.00282600  0.01328200  0.74954100  1
  Na  Na2  1  0.50700000  0.46959600  0.25000100  1
  Eu  Eu0  1  0.99782200  0.95741700  0.25003000  1
  Ti  Ti0  1  0.49741600  0.98359100  0.00745700  1
  Ti  Ti1  1  0.00808000  0.48192500  0.49378900  1
  Nb  Nb0  1  0.50040700  0.99005100  0.51195900  1
  Nb  Nb1  1  0.00343400  0.48387200  0.98690100  1
  O  O0  1  0.20838000  0.80077100  0.98092700  1
  O  O1  1  0.28202700  0.29415200  0.53292800  1
  O  O2  1  0.79272400  0.21745100  0.45921700  1
  O  O3  1  0.71834400  0.73329900  0.04532200  1
  O  O4  1  0.78950700  0.21444400  0.04135200  1
  O  O5  1  0.72220300  0.73059100  0.45541200  1
  O  O6  1  0.20551400  0.79641400  0.52141300  1
  O  O7  1  0.28825500  0.29060500  0.96466100  1
  O  O8  1  0.56171300  0.98525100  0.75439900  1
  O  O9  1  0.92866300  0.49794800  0.74629100  1
  O  O10  1  0.42392800  0.02533600  0.24704200  1
  O  O11  1  0.06511400  0.51837100  0.25285300  1
loop_
_geom_bond_atom_site_label_1
_geom_bond_atom_site_label_2
_geom_bond_distance
_geom_bond_site_symmetry_2
Na0 O9 2.379140 1_555
Na0 O7 2.400898 1_555
Na0 O1 2.407198 1_555
Na0 O8 2.649677 1_555
Na0 O6 2.857875 1_555
Na0 O5 2.872577 1_555
Na0 O0 2.889186 1_555
Na0 O3 2.896786 1_556
Na0 O8 2.983331 1_545
Na1 O6 2.427654 1_545
Na1 O8 2.433428 1_445
Na1 O0 2.441207 1_545
Na1 O9 2.736573 1_455
Na1 O1 2.776570 1_555
Na1 O7 2.781026 1_555
Na1 O2 2.791734 1_455
Na1 O4 2.802289 1_456
Na1 O9 2.909397 1_445
Na2 O11 2.445954 1_555
Na2 O3 2.469296 1_555
Na2 O5 2.477364 1_555
Na2 O10 2.525496 1_555
Na2 O4 2.664796 1_555
Na2 O2 2.668612 1_555
Na2 O1 2.720735 1_555
Na2 O7 2.731259 1_554
Eu0 O10 2.377003 1_665
Eu0 O4 2.455715 1_565
Eu0 O2 2.460929 1_565
Eu0 O11 2.479068 1_655
Eu0 O5 2.549497 1_555
Eu0 O3 2.554609 1_555
Eu0 O0 2.557461 1_654
Eu0 O6 2.573421 1_655
Nb0 O8 1.928548 1_555
Nb0 O5 1.942412 1_555
Nb0 O6 1.955242 1_555
Nb0 O1 2.083508 1_565
Nb0 O2 2.094374 1_565
Nb0 O10 2.125789 1_565
Nb1 O7 1.907630 1_555
Nb1 O9 1.930250 1_455
Nb1 O4 1.960937 1_456
Nb1 O0 2.103344 1_555
Nb1 O11 2.119364 1_556
Nb1 O3 2.143547 1_456
O0 Ti0 1.905324 1_556
O1 Ti1 1.858565 1_555
O2 Ti1 1.917324 1_655
O3 Ti0 1.872709 1_555
O4 Ti0 2.082174 1_545
O5 Ti1 2.115942 1_655
O6 Ti1 2.080951 1_555
O7 Ti0 2.088579 1_546
O8 Ti0 2.012640 1_556
O9 Ti1 2.026583 1_655
O10 Ti0 1.933000 1_545
O11 Ti1 1.923047 1_555
