# generated using pymatgen
data_Na6TeN4
_symmetry_space_group_name_H-M   'P 1'
_cell_length_a   7.63815800
_cell_length_b   7.63815800
_cell_length_c   5.85040800
_cell_angle_alpha   90.00000000
_cell_angle_beta   90.00000000
_cell_angle_gamma   90.00000000
_symmetry_Int_Tables_number   1
_chemical_formula_structural   Na6TeN4
_chemical_formula_sum   'Na12 Te2 N8'
_cell_volume   341.32133047
_cell_formula_units_Z   2
loop_
 _symmetry_equiv_pos_site_id
 _symmetry_equiv_pos_as_xyz
  1  'x, y, z'
loop_
 _atom_site_type_symbol
 _atom_site_label
 _atom_site_symmetry_multiplicity
 _atom_site_fract_x
 _atom_site_fract_y
 _atom_site_fract_z
 _atom_site_occupancy
  Na  Na0  1  0.00000000  0.50000000  0.63719200  1
  Na  Na1  1  0.50000000  0.00000000  0.86280800  1
  Na  Na2  1  0.50000000  0.00000000  0.36280800  1
  Na  Na3  1  0.00000000  0.50000000  0.13719200  1
  Na  Na4  1  0.20687100  0.20687100  0.50000000  1
  Na  Na5  1  0.79312900  0.79312900  0.50000000  1
  Na  Na6  1  0.70687100  0.70687100  0.00000000  1
  Na  Na7  1  0.29312900  0.29312900  0.00000000  1
  Na  Na8  1  0.79312900  0.20687100  0.50000000  1
  Na  Na9  1  0.20687100  0.79312900  0.50000000  1
  Na  Na10  1  0.29312900  0.70687100  0.00000000  1
  Na  Na11  1  0.70687100  0.29312900  0.00000000  1
  Te  Te0  1  0.50000000  0.50000000  0.50000000  1
  Te  Te1  1  0.00000000  0.00000000  0.00000000  1
  N  N0  1  0.27509200  0.50000000  0.32511800  1
  N  N1  1  0.72490800  0.50000000  0.32511800  1
  N  N2  1  0.77509200  0.00000000  0.17488200  1
  N  N3  1  0.22490800  0.00000000  0.17488200  1
  N  N4  1  0.50000000  0.27509200  0.67488200  1
  N  N5  1  0.50000000  0.72490800  0.67488200  1
  N  N6  1  0.00000000  0.77509200  0.82511800  1
  N  N7  1  0.00000000  0.22490800  0.82511800  1
loop_
_geom_bond_atom_site_label_1
_geom_bond_atom_site_label_2
_geom_bond_distance
_geom_bond_site_symmetry_2
N0 Te0 1.999480 1_555
N0 Na3 2.371456 1_555
N0 Na10 2.476615 1_555
N0 Na7 2.476615 1_555
N0 Na9 2.516206 1_555
N0 Na4 2.516206 1_555
N0 Na0 2.783599 1_555
N1 Te0 1.999480 1_555
N1 Na3 2.371456 1_655
N1 Na6 2.476615 1_555
N1 Na11 2.476615 1_555
N1 Na5 2.516206 1_555
N1 Na8 2.516206 1_555
N1 Na0 2.783599 1_655
N2 Te1 1.999480 1_655
N2 Na2 2.371456 1_555
N2 Na8 2.476615 1_555
N2 Na5 2.476615 1_545
N2 Na11 2.516206 1_555
N2 Na6 2.516206 1_545
N2 Na1 2.783599 1_554
N3 Te1 1.999480 1_555
N3 Na2 2.371456 1_555
N3 Na9 2.476615 1_545
N3 Na4 2.476615 1_555
N3 Na7 2.516206 1_555
N3 Na10 2.516206 1_545
N3 Na1 2.783599 1_554
N4 Te0 1.999480 1_555
N4 Na1 2.371456 1_555
N4 Na11 2.476615 1_556
N4 Na7 2.476615 1_556
N4 Na8 2.516206 1_555
N4 Na4 2.516206 1_555
N4 Na2 2.783599 1_555
N5 Te0 1.999480 1_555
N5 Na1 2.371456 1_565
N5 Na6 2.476615 1_556
N5 Na10 2.476615 1_556
N5 Na5 2.516206 1_555
N5 Na9 2.516206 1_555
N5 Na2 2.783599 1_565
N6 Te1 1.999480 1_566
N6 Na0 2.371456 1_555
N6 Na9 2.476615 1_555
N6 Na5 2.476615 1_455
N6 Na10 2.516206 1_556
N6 Na6 2.516206 1_456
N6 Na3 2.783599 1_556
N7 Te1 1.999480 1_556
N7 Na0 2.371456 1_555
N7 Na4 2.476615 1_555
N7 Na8 2.476615 1_455
N7 Na7 2.516206 1_556
N7 Na11 2.516206 1_456
N7 Na3 2.783599 1_556
