# generated using pymatgen
data_TmPS
_symmetry_space_group_name_H-M   'P 1'
_cell_length_a   5.25241373
_cell_length_b   5.27313302
_cell_length_c   16.51061006
_cell_angle_alpha   90.00000000
_cell_angle_beta   90.00000000
_cell_angle_gamma   90.00000000
_symmetry_Int_Tables_number   1
_chemical_formula_structural   TmPS
_chemical_formula_sum   'Tm8 P8 S8'
_cell_volume   457.28902192
_cell_formula_units_Z   8
loop_
 _symmetry_equiv_pos_site_id
 _symmetry_equiv_pos_as_xyz
  1  'x, y, z'
loop_
 _atom_site_type_symbol
 _atom_site_label
 _atom_site_symmetry_multiplicity
 _atom_site_fract_x
 _atom_site_fract_y
 _atom_site_fract_z
 _atom_site_occupancy
  Tm  Tm0  1  0.25000000  0.48408646  0.36163905  1
  Tm  Tm1  1  0.25000000  0.98408646  0.13836095  1
  Tm  Tm2  1  0.75000000  0.51591354  0.63836095  1
  Tm  Tm3  1  0.75000000  0.01591354  0.86163905  1
  Tm  Tm4  1  0.25000000  0.01337768  0.64618641  1
  Tm  Tm5  1  0.25000000  0.51337768  0.85381359  1
  Tm  Tm6  1  0.75000000  0.98662232  0.35381359  1
  Tm  Tm7  1  0.75000000  0.48662232  0.14618641  1
  P  P0  1  0.03664533  0.29082754  0.99728736  1
  P  P1  1  0.46335467  0.79082754  0.50271264  1
  P  P2  1  0.53664533  0.70917246  0.00271264  1
  P  P3  1  0.96335467  0.20917246  0.49728736  1
  P  P4  1  0.96335467  0.70917246  0.00271264  1
  P  P5  1  0.53664533  0.20917246  0.49728736  1
  P  P6  1  0.46335467  0.29082754  0.99728736  1
  P  P7  1  0.03664533  0.79082754  0.50271264  1
  S  S0  1  0.25000000  0.48551168  0.18903855  1
  S  S1  1  0.25000000  0.98551168  0.31096145  1
  S  S2  1  0.75000000  0.51448832  0.81096145  1
  S  S3  1  0.75000000  0.01448832  0.68903855  1
  S  S4  1  0.25000000  0.00996946  0.81533887  1
  S  S5  1  0.25000000  0.50996946  0.68466113  1
  S  S6  1  0.75000000  0.99003054  0.18466113  1
  S  S7  1  0.75000000  0.49003054  0.31533887  1
loop_
_geom_bond_atom_site_label_1
_geom_bond_atom_site_label_2
_geom_bond_distance
_geom_bond_site_symmetry_2
P0 P4 2.241115 1_456
P0 P6 2.241254 1_555
P0 Tm5 2.871305 1_555
P0 Tm1 3.049146 1_546
P0 Tm7 3.062112 1_456
P0 Tm3 3.063372 1_455
P1 P5 2.241115 1_565
P1 P7 2.241254 1_555
P1 Tm4 2.871305 1_565
P1 Tm0 3.049146 1_555
P1 Tm6 3.062112 1_555
P1 Tm2 3.063372 1_555
P2 P6 2.241115 1_554
P2 P4 2.241254 1_555
P2 Tm7 2.871305 1_555
P2 Tm3 3.049146 1_564
P2 Tm5 3.062112 1_554
P2 Tm1 3.063372 1_555
P3 P7 2.241115 1_645
P3 P5 2.241254 1_555
P3 Tm6 2.871305 1_545
P3 Tm2 3.049146 1_555
P3 Tm4 3.062112 1_655
P3 Tm0 3.063372 1_655
P4 Tm7 2.871305 1_555
P4 Tm3 3.049146 1_564
P4 Tm5 3.062112 1_654
P4 Tm1 3.063372 1_655
P5 Tm6 2.871305 1_545
P5 Tm2 3.049146 1_555
P5 Tm4 3.062112 1_555
P5 Tm0 3.063372 1_555
P6 Tm5 2.871305 1_555
P6 Tm1 3.049146 1_546
P6 Tm7 3.062112 1_556
P6 Tm3 3.063372 1_555
P7 Tm4 2.871305 1_565
P7 Tm0 3.049146 1_555
P7 Tm6 3.062112 1_455
P7 Tm2 3.063372 1_455
S0 Tm7 2.719848 1_555
S0 Tm7 2.719848 1_455
S0 Tm1 2.758987 1_555
S0 Tm1 2.773313 1_545
S0 Tm0 2.849749 1_555
S1 Tm6 2.719848 1_455
S1 Tm6 2.719848 1_555
S1 Tm0 2.758987 1_565
S1 Tm0 2.773313 1_555
S1 Tm1 2.849749 1_555
S2 Tm5 2.719848 1_555
S2 Tm5 2.719848 1_655
S2 Tm3 2.758987 1_555
S2 Tm3 2.773313 1_565
S2 Tm2 2.849749 1_555
S3 Tm4 2.719848 1_555
S3 Tm4 2.719848 1_655
S3 Tm2 2.758987 1_545
S3 Tm2 2.773313 1_555
S3 Tm3 2.849749 1_555
S4 Tm5 2.694544 1_545
S4 Tm5 2.729488 1_555
S4 Tm3 2.735383 1_455
S4 Tm3 2.735383 1_555
S4 Tm4 2.792868 1_555
S5 Tm4 2.694544 1_555
S5 Tm4 2.729488 1_565
S5 Tm2 2.735383 1_555
S5 Tm2 2.735383 1_455
S5 Tm5 2.792868 1_555
S6 Tm7 2.694544 1_565
S6 Tm7 2.729488 1_555
S6 Tm1 2.735383 1_655
S6 Tm1 2.735383 1_555
S6 Tm6 2.792868 1_555
S7 Tm6 2.694544 1_555
S7 Tm6 2.729488 1_545
S7 Tm0 2.735383 1_555
S7 Tm0 2.735383 1_655
S7 Tm7 2.792868 1_555
