# generated using pymatgen
data_Lu2(Al3Ir)3
_symmetry_space_group_name_H-M   'P 1'
_cell_length_a   7.46656399
_cell_length_b   7.46656399
_cell_length_c   9.34289686
_cell_angle_alpha   90.00000000
_cell_angle_beta   90.00000000
_cell_angle_gamma   119.49321514
_symmetry_Int_Tables_number   1
_chemical_formula_structural   Lu2(Al3Ir)3
_chemical_formula_sum   'Lu4 Al18 Ir6'
_cell_volume   453.36606099
_cell_formula_units_Z   2
loop_
 _symmetry_equiv_pos_site_id
 _symmetry_equiv_pos_as_xyz
  1  'x, y, z'
loop_
 _atom_site_type_symbol
 _atom_site_label
 _atom_site_symmetry_multiplicity
 _atom_site_fract_x
 _atom_site_fract_y
 _atom_site_fract_z
 _atom_site_occupancy
  Lu  Lu0  1  0.99496907  0.67249119  0.25000000  1
  Lu  Lu1  1  0.00503093  0.32750881  0.75000000  1
  Lu  Lu2  1  0.67249119  0.99496907  0.25000000  1
  Lu  Lu3  1  0.32750881  0.00503093  0.75000000  1
  Al  Al0  1  0.12979875  0.12979875  0.25000000  1
  Al  Al1  1  0.87020125  0.87020125  0.75000000  1
  Al  Al2  1  0.00121030  0.33562931  0.07505280  1
  Al  Al3  1  0.99878970  0.66437069  0.92494720  1
  Al  Al4  1  0.99878970  0.66437069  0.57505280  1
  Al  Al5  1  0.33562931  0.00121030  0.42494720  1
  Al  Al6  1  0.00121030  0.33562931  0.42494720  1
  Al  Al7  1  0.66437069  0.99878970  0.57505280  1
  Al  Al8  1  0.66437069  0.99878970  0.92494720  1
  Al  Al9  1  0.33562931  0.00121030  0.07505280  1
  Al  Al10  1  0.33336759  0.33336759  0.55332237  1
  Al  Al11  1  0.66663241  0.66663241  0.44667763  1
  Al  Al12  1  0.66663241  0.66663241  0.05332237  1
  Al  Al13  1  0.33336759  0.33336759  0.94667763  1
  Al  Al14  1  0.33962529  0.54927983  0.25000000  1
  Al  Al15  1  0.66037471  0.45072017  0.75000000  1
  Al  Al16  1  0.54927983  0.33962529  0.25000000  1
  Al  Al17  1  0.45072017  0.66037471  0.75000000  1
  Ir  Ir0  1  0.67253104  0.32746896  -0.00000000  1
  Ir  Ir1  1  0.32746896  0.67253104  -0.00000000  1
  Ir  Ir2  1  0.32746896  0.67253104  0.50000000  1
  Ir  Ir3  1  0.67253104  0.32746896  0.50000000  1
  Ir  Ir4  1  -0.00000000  -0.00000000  -0.00000000  1
  Ir  Ir5  1  -0.00000000  -0.00000000  0.50000000  1
loop_
_geom_bond_atom_site_label_1
_geom_bond_atom_site_label_2
_geom_bond_distance
_geom_bond_site_symmetry_2
Al0 Ir5 2.531657 1_555
Al0 Ir4 2.531657 1_555
Al0 Al5 2.721808 1_555
Al0 Al6 2.721808 1_555
Al0 Al9 2.721808 1_555
Al0 Al2 2.721808 1_555
Al0 Al14 2.726320 1_555
Al0 Al16 2.726320 1_555
Al0 Lu2 3.047581 1_445
Al0 Lu0 3.047581 1_445
Al1 Ir5 2.531657 1_665
Al1 Ir4 2.531657 1_666
Al1 Al8 2.721808 1_555
Al1 Al3 2.721808 1_555
Al1 Al7 2.721808 1_555
Al1 Al4 2.721808 1_555
Al1 Al17 2.726320 1_555
Al1 Al15 2.726320 1_555
Al1 Lu1 3.047581 1_665
Al1 Lu3 3.047581 1_665
Al2 Ir0 2.524046 1_455
Al2 Ir1 2.592289 1_555
Al2 Ir4 2.597981 1_555
Al2 Al3 2.834731 1_454
Al2 Al8 2.896435 1_444
Al2 Lu2 3.003064 1_445
Al2 Lu0 3.019181 1_455
Al2 Lu1 3.037954 1_554
Al3 Ir1 2.524046 1_656
Al3 Ir0 2.592289 1_556
Al3 Ir4 2.597981 1_666
Al3 Al9 2.896435 1_666
Al3 Lu3 3.003064 1_665
Al3 Lu1 3.019181 1_655
Al3 Lu0 3.037954 1_556
Al4 Ir2 2.524046 1_655
Al4 Ir3 2.592289 1_555
Al4 Ir5 2.597981 1_665
Al4 Al6 2.834731 1_655
Al4 Al5 2.896435 1_665
Al4 Lu3 3.003064 1_665
Al4 Lu1 3.019181 1_655
Al4 Lu0 3.037954 1_555
Al5 Ir2 2.524046 1_545
Al5 Ir3 2.592289 1_555
Al5 Ir5 2.597981 1_555
Al5 Al7 2.834731 1_545
Al5 Lu0 3.003064 1_445
Al5 Lu2 3.019181 1_545
Al5 Lu3 3.037954 1_555
Al6 Ir3 2.524046 1_455
Al6 Ir2 2.592289 1_555
Al6 Ir5 2.597981 1_555
Al6 Al7 2.896435 1_445
Al6 Lu2 3.003064 1_445
Al6 Lu0 3.019181 1_455
Al6 Lu1 3.037954 1_555
Al7 Ir3 2.524046 1_565
Al7 Ir2 2.592289 1_555
Al7 Ir5 2.597981 1_665
Al7 Lu1 3.003064 1_665
Al7 Lu3 3.019181 1_565
Al7 Lu2 3.037954 1_555
Al8 Ir0 2.524046 1_566
Al8 Ir1 2.592289 1_556
Al8 Ir4 2.597981 1_666
Al8 Al9 2.834731 1_566
Al8 Lu1 3.003064 1_665
Al8 Lu3 3.019181 1_565
Al8 Lu2 3.037954 1_556
Al9 Ir1 2.524046 1_545
Al9 Ir0 2.592289 1_555
Al9 Ir4 2.597981 1_555
Al9 Lu0 3.003064 1_445
Al9 Lu2 3.019181 1_545
Al9 Lu3 3.037954 1_554
Al10 Ir5 2.557151 1_555
Al10 Ir2 2.602484 1_555
Al10 Ir3 2.602484 1_555
Al10 Al11 2.698093 1_555
Al10 Al5 2.762397 1_555
Al10 Al6 2.762397 1_555
Al10 Al15 2.828300 1_555
Al10 Al17 2.828300 1_555
Al10 Lu3 3.046793 1_555
Al10 Lu1 3.046793 1_555
Al11 Ir5 2.557151 1_665
Al11 Ir3 2.602484 1_555
Al11 Ir2 2.602484 1_555
Al11 Al7 2.762397 1_555
Al11 Al4 2.762397 1_555
Al11 Al16 2.828300 1_555
Al11 Al14 2.828300 1_555
Al11 Lu0 3.046793 1_555
Al11 Lu2 3.046793 1_555
Al12 Ir4 2.557151 1_665
Al12 Ir0 2.602484 1_555
Al12 Ir1 2.602484 1_555
Al12 Al13 2.698093 1_554
Al12 Al3 2.762397 1_554
Al12 Al8 2.762397 1_554
Al12 Al16 2.828300 1_555
Al12 Al14 2.828300 1_555
Al12 Lu0 3.046793 1_555
Al12 Lu2 3.046793 1_555
Al13 Ir4 2.557151 1_556
Al13 Ir0 2.602484 1_556
Al13 Ir1 2.602484 1_556
Al13 Al2 2.762397 1_556
Al13 Al9 2.762397 1_556
Al13 Al17 2.828300 1_555
Al13 Al15 2.828300 1_555
Al13 Lu1 3.046793 1_555
Al13 Lu3 3.046793 1_555
Al14 Ir2 2.528433 1_555
Al14 Ir1 2.528433 1_555
Al14 Al16 2.704401 1_555
Al14 Al6 2.762642 1_555
Al14 Al2 2.762642 1_555
Al14 Lu2 3.017845 1_555
Al14 Lu0 3.130461 1_455
Al15 Ir3 2.528433 1_555
Al15 Ir0 2.528433 1_556
Al15 Al17 2.704401 1_555
Al15 Al3 2.762642 1_555
Al15 Al4 2.762642 1_555
Al15 Lu3 3.017845 1_555
Al15 Lu1 3.130461 1_655
Al16 Ir0 2.528433 1_555
Al16 Ir3 2.528433 1_555
Al16 Al5 2.762642 1_555
Al16 Al9 2.762642 1_555
Al16 Lu0 3.017845 1_555
Al16 Lu2 3.130461 1_545
Al17 Ir2 2.528433 1_555
Al17 Ir1 2.528433 1_556
Al17 Al8 2.762642 1_555
Al17 Al7 2.762642 1_555
Al17 Lu1 3.017845 1_555
Al17 Lu3 3.130461 1_565
