# generated using pymatgen
data_NaNdB6O13
_symmetry_space_group_name_H-M   'P 1'
_cell_length_a   6.75763400
_cell_length_b   7.40964541
_cell_length_c   10.47250838
_cell_angle_alpha   87.32834775
_cell_angle_beta   105.28101223
_cell_angle_gamma   102.22358604
_symmetry_Int_Tables_number   1
_chemical_formula_structural   NaNdB6O13
_chemical_formula_sum   'Na2 Nd2 B12 O26'
_cell_volume   494.34519363
_cell_formula_units_Z   2
loop_
 _symmetry_equiv_pos_site_id
 _symmetry_equiv_pos_as_xyz
  1  'x, y, z'
loop_
 _atom_site_type_symbol
 _atom_site_label
 _atom_site_symmetry_multiplicity
 _atom_site_fract_x
 _atom_site_fract_y
 _atom_site_fract_z
 _atom_site_occupancy
  Na  Na0  1  0.83638800  0.51308300  0.64074100  1
  Na  Na1  1  0.16361200  0.48691700  0.35925900  1
  Nd  Nd0  1  0.71847200  0.75693400  0.94257600  1
  Nd  Nd1  1  0.28152800  0.24306600  0.05742400  1
  B  B0  1  0.22317700  0.74755400  0.95282300  1
  B  B1  1  0.77682300  0.25244600  0.04717700  1
  B  B2  1  0.44180800  0.65055900  0.17568100  1
  B  B3  1  0.55819200  0.34944100  0.82431900  1
  B  B4  1  0.18784300  0.85050100  0.17250000  1
  B  B5  1  0.81215700  0.14949900  0.82750000  1
  B  B6  1  0.85031100  0.74878700  0.25577600  1
  B  B7  1  0.14968900  0.25121300  0.74422400  1
  B  B8  1  0.88739500  0.96513300  0.66071900  1
  B  B9  1  0.11260500  0.03486700  0.33928100  1
  B  B10  1  0.34704300  0.54164400  0.66483800  1
  B  B11  1  0.65295700  0.45835600  0.33516200  1
  O  O0  1  0.78412200  0.96836500  0.76062900  1
  O  O1  1  0.21587800  0.03163500  0.23937100  1
  O  O2  1  0.21506500  0.90131500  0.03862300  1
  O  O3  1  0.78493500  0.09868500  0.96137700  1
  O  O4  1  0.83932000  0.57096900  0.32892600  1
  O  O5  1  0.16068000  0.42903100  0.67107400  1
  O  O6  1  0.31705400  0.59907000  0.03673800  1
  O  O7  1  0.68294600  0.40093000  0.96326200  1
  O  O8  1  0.97155300  0.74585300  0.15667800  1
  O  O9  1  0.02844700  0.25414700  0.84332200  1
  O  O10  1  0.01593500  0.67532100  0.87242800  1
  O  O11  1  0.98406500  0.32467900  0.12757200  1
  O  O12  1  0.33076000  0.73977500  0.24462100  1
  O  O13  1  0.66924000  0.26022500  0.75537900  1
  O  O14  1  0.64295600  0.76300800  0.16867700  1
  O  O15  1  0.35704400  0.23699200  0.83132300  1
  O  O16  1  0.53569300  0.53285900  0.75869500  1
  O  O17  1  0.46430700  0.46714100  0.24130500  1
  O  O18  1  0.94751400  0.90015200  0.35037400  1
  O  O19  1  0.05248600  0.09984800  0.64962600  1
  O  O20  1  0.35997300  0.80980800  0.86880600  1
  O  O21  1  0.64002700  0.19019200  0.13119400  1
  O  O22  1  0.34462300  0.65475500  0.55911400  1
  O  O23  1  0.65537700  0.34524500  0.44088600  1
  O  O24  1  0.80858900  0.81462400  0.57739300  1
  O  O25  1  0.19141100  0.18537600  0.42260700  1
loop_
_geom_bond_atom_site_label_1
_geom_bond_atom_site_label_2
_geom_bond_distance
_geom_bond_site_symmetry_2
Na0 O24 2.332684 1_555
Na0 O5 2.341747 1_655
Na0 O23 2.381685 1_555
Na0 O13 2.415869 1_555
Na0 O10 2.628099 1_655
Na0 O16 2.672522 1_555
Na1 O25 2.332684 1_555
Na1 O4 2.341747 1_455
Na1 O22 2.381685 1_555
Na1 O12 2.415869 1_555
Na1 O11 2.628099 1_455
Na1 O17 2.672522 1_555
Nd0 O8 2.445413 1_556
Nd0 O20 2.450818 1_555
Nd0 O0 2.480893 1_555
Nd0 O16 2.483241 1_555
Nd0 O3 2.484162 1_565
Nd0 O10 2.506111 1_655
Nd0 O14 2.554547 1_556
Nd0 O7 2.601704 1_555
Nd1 O9 2.445413 1_554
Nd1 O21 2.450818 1_555
Nd1 O1 2.480893 1_555
Nd1 O17 2.483241 1_555
Nd1 O2 2.484162 1_545
Nd1 O11 2.506111 1_455
Nd1 O15 2.554547 1_554
Nd1 O6 2.601704 1_555
B0 O20 1.432418 1_555
B0 O10 1.435171 1_555
B0 O2 1.502087 1_556
B0 O6 1.515508 1_556
B1 O21 1.432418 1_555
B1 O11 1.435171 1_555
B1 O3 1.502087 1_554
B1 O7 1.515508 1_554
B2 O12 1.435798 1_555
B2 O14 1.454144 1_555
B2 O6 1.497495 1_555
B2 O17 1.512556 1_555
B3 O13 1.435798 1_555
B3 O15 1.454144 1_555
B3 O7 1.497495 1_555
B3 O16 1.512556 1_555
B4 O12 1.438604 1_555
B4 O8 1.472892 1_455
B4 O2 1.482798 1_555
B4 O1 1.495886 1_565
B5 O13 1.438604 1_555
B5 O9 1.472892 1_655
B5 O3 1.482798 1_555
B5 O0 1.495886 1_545
B6 O18 1.455823 1_555
B6 O14 1.478652 1_555
B6 O8 1.485468 1_555
B6 O4 1.490910 1_555
B7 O19 1.455823 1_555
B7 O15 1.478652 1_555
B7 O9 1.485468 1_555
B7 O5 1.490910 1_555
B8 O19 1.356629 1_665
B8 O24 1.372254 1_555
B8 O0 1.405944 1_555
B9 O18 1.356629 1_445
B9 O25 1.372254 1_555
B9 O1 1.405944 1_555
B10 O22 1.355852 1_555
B10 O5 1.371069 1_555
B10 O16 1.401511 1_555
B11 O23 1.355852 1_555
B11 O4 1.371069 1_555
B11 O17 1.401511 1_555
