# generated using pymatgen
data_Zn3Si4(MoO7)2
_symmetry_space_group_name_H-M   'P 1'
_cell_length_a   9.22208446
_cell_length_b   9.22208446
_cell_length_c   10.28578163
_cell_angle_alpha   60.89772802
_cell_angle_beta   60.89772802
_cell_angle_gamma   51.41869014
_symmetry_Int_Tables_number   1
_chemical_formula_structural   Zn3Si4(MoO7)2
_chemical_formula_sum   'Zn6 Si8 Mo4 O28'
_cell_volume   575.64118485
_cell_formula_units_Z   2
loop_
 _symmetry_equiv_pos_site_id
 _symmetry_equiv_pos_as_xyz
  1  'x, y, z'
loop_
 _atom_site_type_symbol
 _atom_site_label
 _atom_site_symmetry_multiplicity
 _atom_site_fract_x
 _atom_site_fract_y
 _atom_site_fract_z
 _atom_site_occupancy
  Zn  Zn0  1  0.04916700  0.29255900  0.09627700  1
  Zn  Zn1  1  0.70744100  0.95083300  0.40372300  1
  Zn  Zn2  1  0.29255900  0.04916700  0.59627700  1
  Zn  Zn3  1  0.39492000  0.60508000  0.75000000  1
  Zn  Zn4  1  0.95083300  0.70744100  0.90372300  1
  Zn  Zn5  1  0.60508000  0.39492000  0.25000000  1
  Si  Si0  1  0.52126100  0.10677000  0.70727000  1
  Si  Si1  1  0.10677000  0.52126100  0.20727000  1
  Si  Si2  1  0.51647200  0.24020500  0.09987800  1
  Si  Si3  1  0.24020500  0.51647200  0.59987800  1
  Si  Si4  1  0.89323000  0.47873900  0.79273000  1
  Si  Si5  1  0.48352800  0.75979500  0.90012200  1
  Si  Si6  1  0.75979500  0.48352800  0.40012200  1
  Si  Si7  1  0.47873900  0.89323000  0.29273000  1
  Mo  Mo0  1  0.78911500  0.21088500  0.75000000  1
  Mo  Mo1  1  0.21088500  0.78911500  0.25000000  1
  Mo  Mo2  1  0.00000000  0.00000000  0.00000000  1
  Mo  Mo3  1  0.00000000  0.00000000  0.50000000  1
  O  O0  1  0.82578400  0.30245100  0.34305900  1
  O  O1  1  0.93962800  0.89199600  0.40852400  1
  O  O2  1  0.47873300  0.64004100  0.08227800  1
  O  O3  1  0.89199600  0.93962800  0.90852400  1
  O  O4  1  0.26858100  0.92770900  0.32697700  1
  O  O5  1  0.04921000  0.51459700  0.63062900  1
  O  O6  1  0.64004100  0.47873300  0.58227800  1
  O  O7  1  0.07229100  0.73141900  0.17302300  1
  O  O8  1  0.95079000  0.48540300  0.36937100  1
  O  O9  1  0.63960300  0.67274800  0.27430600  1
  O  O10  1  0.06037200  0.10800400  0.59147600  1
  O  O11  1  0.73141900  0.07229100  0.67302300  1
  O  O12  1  0.48540300  0.95079000  0.86937100  1
  O  O13  1  0.30245100  0.82578400  0.84305900  1
  O  O14  1  0.67274800  0.63960300  0.77430600  1
  O  O15  1  0.92770900  0.26858100  0.82697700  1
  O  O16  1  0.90869400  0.50893800  0.92880400  1
  O  O17  1  0.36039700  0.32725200  0.72569400  1
  O  O18  1  0.49106200  0.09130600  0.57119600  1
  O  O19  1  0.32725200  0.36039700  0.22569400  1
  O  O20  1  0.51459700  0.04921000  0.13062900  1
  O  O21  1  0.10800400  0.06037200  0.09147600  1
  O  O22  1  0.50893800  0.90869400  0.42880400  1
  O  O23  1  0.52126700  0.35995900  0.91772200  1
  O  O24  1  0.09130600  0.49106200  0.07119600  1
  O  O25  1  0.35995900  0.52126700  0.41772200  1
  O  O26  1  0.69754900  0.17421600  0.15694100  1
  O  O27  1  0.17421600  0.69754900  0.65694100  1
loop_
_geom_bond_atom_site_label_1
_geom_bond_atom_site_label_2
_geom_bond_distance
_geom_bond_site_symmetry_2
Mo0 O3 2.096075 1_545
Mo0 O10 2.096075 1_655
Mo0 O11 2.187694 1_555
Mo0 O15 2.187694 1_555
Mo0 O23 2.212246 1_555
Mo0 O6 2.212246 1_555
Mo1 O1 2.096075 1_455
Mo1 O21 2.096075 1_565
Mo1 O7 2.187694 1_555
Mo1 O4 2.187694 1_555
Mo1 O2 2.212246 1_555
Mo1 O25 2.212246 1_555
Mo2 O3 2.073685 1_444
Mo2 O21 2.073685 1_555
Mo2 O7 2.133851 1_545
Mo2 O15 2.133851 1_454
Mo2 O13 2.349611 1_544
Mo2 O26 2.349611 1_455
Mo3 O1 2.073685 1_445
Mo3 O10 2.073685 1_555
Mo3 O4 2.133851 1_545
Mo3 O11 2.133851 1_455
Mo3 O0 2.349611 1_455
Mo3 O27 2.349611 1_545
O0 Si6 1.685793 1_555
O0 Zn5 2.173098 1_555
O0 Zn0 2.366351 1_655
O1 Zn1 1.873362 1_555
O2 Si5 1.643043 1_554
O2 Zn5 2.078580 1_555
O3 Zn4 1.873362 1_555
O4 Si7 1.630226 1_555
O5 Si4 1.637824 1_455
O5 Si3 1.641192 1_555
O6 Si6 1.643043 1_555
O6 Zn3 2.078580 1_555
O7 Si1 1.630226 1_555
O8 Si1 1.637824 1_655
O8 Si6 1.641192 1_555
O9 Si7 1.646253 1_555
O9 Si6 1.653659 1_555
O10 Zn2 1.873362 1_555
O11 Si0 1.630226 1_555
O12 Si0 1.637824 1_565
O12 Si5 1.641192 1_555
O13 Si5 1.685793 1_555
O13 Zn3 2.173098 1_555
O13 Zn2 2.366351 1_565
O14 Si4 1.646253 1_555
O14 Si5 1.653659 1_555
O15 Si4 1.630226 1_555
O16 Si4 1.636985 1_555
O16 Zn4 1.974611 1_555
O16 Zn0 2.056759 1_656
O17 Si0 1.646253 1_555
O17 Si3 1.653659 1_555
O18 Si0 1.636985 1_555
O18 Zn2 1.974611 1_555
O18 Zn1 2.056759 1_545
O19 Si1 1.646253 1_555
O19 Si2 1.653659 1_555
O20 Si7 1.637824 1_545
O20 Si2 1.641192 1_555
O21 Zn0 1.873362 1_555
O22 Si7 1.636985 1_555
O22 Zn1 1.974611 1_555
O22 Zn2 2.056759 1_565
O23 Si2 1.643043 1_556
O23 Zn3 2.078580 1_555
O24 Si1 1.636985 1_555
O24 Zn0 1.974611 1_555
O24 Zn4 2.056759 1_454
O25 Si3 1.643043 1_555
O25 Zn5 2.078580 1_555
O26 Si2 1.685793 1_555
O26 Zn5 2.173098 1_555
O26 Zn1 2.366351 1_545
O27 Si3 1.685793 1_555
O27 Zn3 2.173098 1_555
O27 Zn4 2.366351 1_455
