# generated using pymatgen
data_FeB2
_symmetry_space_group_name_H-M   'P 1'
_cell_length_a   3.74180400
_cell_length_b   4.80804800
_cell_length_c   4.82040300
_cell_angle_alpha   90.00000000
_cell_angle_beta   90.00000000
_cell_angle_gamma   90.00000000
_symmetry_Int_Tables_number   1
_chemical_formula_structural   FeB2
_chemical_formula_sum   'Fe4 B8'
_cell_volume   86.72277729
_cell_formula_units_Z   4
loop_
 _symmetry_equiv_pos_site_id
 _symmetry_equiv_pos_as_xyz
  1  'x, y, z'
loop_
 _atom_site_type_symbol
 _atom_site_label
 _atom_site_symmetry_multiplicity
 _atom_site_fract_x
 _atom_site_fract_y
 _atom_site_fract_z
 _atom_site_occupancy
  Fe  Fe0  1  0.12404800  0.75000000  0.01956700  1
  Fe  Fe1  1  0.37595200  0.75000000  0.51956700  1
  Fe  Fe2  1  0.87595200  0.25000000  0.98043300  1
  Fe  Fe3  1  0.62404800  0.25000000  0.48043300  1
  B  B0  1  0.39339800  0.43071600  0.83909200  1
  B  B1  1  0.10660200  0.06928400  0.33909200  1
  B  B2  1  0.60660200  0.93071600  0.16090800  1
  B  B3  1  0.89339800  0.56928400  0.66090800  1
  B  B4  1  0.60660200  0.56928400  0.16090800  1
  B  B5  1  0.89339800  0.93071600  0.66090800  1
  B  B6  1  0.39339800  0.06928400  0.83909200  1
  B  B7  1  0.10660200  0.43071600  0.33909200  1
loop_
_geom_bond_atom_site_label_1
_geom_bond_atom_site_label_2
_geom_bond_distance
_geom_bond_site_symmetry_2
B0 B6 1.737782 1_555
B0 B4 1.867295 1_556
B0 Fe0 2.032053 1_556
B0 Fe2 2.116469 1_555
B0 Fe3 2.118691 1_555
B0 B3 2.163768 1_455
B0 B3 2.163768 1_555
B0 Fe1 2.175599 1_555
B0 Fe2 2.228894 1_455
B1 B7 1.737782 1_555
B1 B5 1.867295 1_445
B1 Fe1 2.032053 1_545
B1 Fe3 2.116469 1_455
B1 Fe2 2.118691 1_454
B1 B2 2.163768 1_445
B1 B2 2.163768 1_545
B1 Fe0 2.175599 1_545
B1 Fe3 2.228894 1_555
B2 B4 1.737782 1_555
B2 B6 1.867295 1_564
B2 Fe2 2.032053 1_564
B2 Fe0 2.116469 1_555
B2 Fe1 2.118691 1_555
B2 Fe3 2.175599 1_565
B2 Fe0 2.228894 1_655
B3 B5 1.737782 1_555
B3 B7 1.867295 1_655
B3 Fe3 2.032053 1_555
B3 Fe1 2.116469 1_655
B3 Fe0 2.118691 1_656
B3 Fe2 2.175599 1_555
B3 Fe1 2.228894 1_555
B4 Fe2 2.032053 1_554
B4 Fe0 2.116469 1_555
B4 Fe1 2.118691 1_555
B4 B7 2.163768 1_655
B4 B7 2.163768 1_555
B4 Fe3 2.175599 1_555
B4 Fe0 2.228894 1_655
B5 Fe3 2.032053 1_565
B5 Fe1 2.116469 1_655
B5 Fe0 2.118691 1_656
B5 B6 2.163768 1_565
B5 B6 2.163768 1_665
B5 Fe2 2.175599 1_565
B5 Fe1 2.228894 1_555
B6 Fe0 2.032053 1_546
B6 Fe2 2.116469 1_555
B6 Fe3 2.118691 1_555
B6 Fe1 2.175599 1_545
B6 Fe2 2.228894 1_455
B7 Fe1 2.032053 1_555
B7 Fe3 2.116469 1_455
B7 Fe2 2.118691 1_454
B7 Fe0 2.175599 1_555
B7 Fe3 2.228894 1_555
