# generated using pymatgen
data_Cu4Ag(AsO4)3
_symmetry_space_group_name_H-M   'P 1'
_cell_length_a   8.77827043
_cell_length_b   8.77827043
_cell_length_c   7.58887965
_cell_angle_alpha   70.34275359
_cell_angle_beta   70.34275359
_cell_angle_gamma   91.36216932
_symmetry_Int_Tables_number   1
_chemical_formula_structural   Cu4Ag(AsO4)3
_chemical_formula_sum   'Cu8 Ag2 As6 O24'
_cell_volume   512.39062919
_cell_formula_units_Z   2
loop_
 _symmetry_equiv_pos_site_id
 _symmetry_equiv_pos_as_xyz
  1  'x, y, z'
loop_
 _atom_site_type_symbol
 _atom_site_label
 _atom_site_symmetry_multiplicity
 _atom_site_fract_x
 _atom_site_fract_y
 _atom_site_fract_z
 _atom_site_occupancy
  Cu  Cu0  1  0.06470200  0.37934000  0.85848800  1
  Cu  Cu1  1  0.26469700  0.73530300  0.25000000  1
  Cu  Cu2  1  0.73530300  0.26469700  0.75000000  1
  Cu  Cu3  1  0.37934000  0.06470200  0.35848800  1
  Cu  Cu4  1  0.93529800  0.62066000  0.14151200  1
  Cu  Cu5  1  0.62066000  0.93529800  0.64151200  1
  Cu  Cu6  1  0.50685600  0.49314400  0.25000000  1
  Cu  Cu7  1  0.49314400  0.50685600  0.75000000  1
  Ag  Ag0  1  0.01132300  0.98867700  0.75000000  1
  Ag  Ag1  1  0.98867700  0.01132300  0.25000000  1
  As  As0  1  0.10787000  0.34670200  0.38386400  1
  As  As1  1  0.72675300  0.27324700  0.25000000  1
  As  As2  1  0.27324700  0.72675300  0.75000000  1
  As  As3  1  0.65329800  0.89213000  0.11613600  1
  As  As4  1  0.34670200  0.10787000  0.88386400  1
  As  As5  1  0.89213000  0.65329800  0.61613600  1
  O  O0  1  0.15462200  0.75451100  0.96435900  1
  O  O1  1  0.24548900  0.84537800  0.53564100  1
  O  O2  1  0.84537800  0.24548900  0.03564100  1
  O  O3  1  0.75451100  0.15462200  0.46435900  1
  O  O4  1  0.97347700  0.58596100  0.80195500  1
  O  O5  1  0.41403900  0.02652300  0.69804500  1
  O  O6  1  0.02652300  0.41403900  0.19804500  1
  O  O7  1  0.58596100  0.97347700  0.30195500  1
  O  O8  1  0.97665600  0.31378800  0.62662600  1
  O  O9  1  0.68621200  0.02334400  0.87337400  1
  O  O10  1  0.02334400  0.68621200  0.37337400  1
  O  O11  1  0.31378800  0.97665600  0.12662600  1
  O  O12  1  0.27301400  0.51940100  0.76192300  1
  O  O13  1  0.48059900  0.72698600  0.73807700  1
  O  O14  1  0.72698600  0.48059900  0.23807700  1
  O  O15  1  0.51940100  0.27301400  0.26192300  1
  O  O16  1  0.17155500  0.16031600  0.39195900  1
  O  O17  1  0.83968400  0.82844500  0.10804100  1
  O  O18  1  0.82844500  0.83968400  0.60804100  1
  O  O19  1  0.16031600  0.17155500  0.89195900  1
  O  O20  1  0.50449100  0.72652700  0.17415800  1
  O  O21  1  0.27347300  0.49550900  0.32584200  1
  O  O22  1  0.49550900  0.27347300  0.82584200  1
  O  O23  1  0.72652700  0.50449100  0.67415800  1
loop_
_geom_bond_atom_site_label_1
_geom_bond_atom_site_label_2
_geom_bond_distance
_geom_bond_site_symmetry_2
Cu0 O12 1.943680 1_555
Cu0 O4 1.972761 1_455
Cu0 O2 1.995743 1_456
Cu0 O19 2.000113 1_555
Cu0 O8 2.366348 1_455
Cu0 O6 2.607142 1_556
Cu1 O11 1.975250 1_555
Cu1 O10 1.975250 1_555
Cu1 O20 1.997640 1_555
Cu1 O21 1.997640 1_555
Cu2 O8 1.975250 1_555
Cu2 O9 1.975250 1_555
Cu2 O23 1.997640 1_555
Cu2 O22 1.997640 1_555
Cu3 O15 1.943680 1_555
Cu3 O7 1.972761 1_545
Cu3 O1 1.995743 1_545
Cu3 O16 2.000113 1_555
Cu3 O11 2.366348 1_545
Cu3 O5 2.607142 1_555
Cu4 O14 1.943680 1_555
Cu4 O6 1.972761 1_655
Cu4 O0 1.995743 1_654
Cu4 O17 2.000113 1_555
Cu4 O10 2.366348 1_655
Cu4 O4 2.607142 1_554
Cu5 O13 1.943680 1_555
Cu5 O5 1.972761 1_565
Cu5 O3 1.995743 1_565
Cu5 O18 2.000113 1_555
Cu5 O9 2.366348 1_565
Cu5 O7 2.607142 1_555
Cu6 O15 1.911418 1_555
Cu6 O14 1.911418 1_555
Cu6 O21 1.935359 1_555
Cu6 O20 1.935359 1_555
Cu7 O13 1.911418 1_555
Cu7 O12 1.911418 1_555
Cu7 O22 1.935359 1_555
Cu7 O23 1.935359 1_555
Ag0 O16 2.490987 1_565
Ag0 O17 2.490987 1_456
Ag0 O18 2.731310 1_455
Ag0 O19 2.731310 1_565
Ag0 O8 2.747600 1_465
Ag0 O9 2.747600 1_465
Ag0 O0 2.775604 1_555
Ag0 O1 2.775604 1_555
Ag1 O19 2.490987 1_654
Ag1 O18 2.490987 1_545
Ag1 O17 2.731310 1_545
Ag1 O16 2.731310 1_655
Ag1 O11 2.747600 1_645
Ag1 O10 2.747600 1_645
Ag1 O3 2.775604 1_555
Ag1 O2 2.775604 1_555
As0 O6 1.727603 1_555
As0 O16 1.729812 1_555
As0 O8 1.732812 1_455
As0 O21 1.762266 1_555
As1 O2 1.711460 1_555
As1 O3 1.711460 1_555
As1 O14 1.791699 1_555
As1 O15 1.791699 1_555
As2 O1 1.711460 1_555
As2 O0 1.711460 1_555
As2 O12 1.791699 1_555
As2 O13 1.791699 1_555
As3 O7 1.727603 1_555
As3 O17 1.729812 1_555
As3 O9 1.732812 1_564
As3 O20 1.762266 1_555
As4 O5 1.727603 1_555
As4 O19 1.729812 1_555
As4 O11 1.732812 1_546
As4 O22 1.762266 1_555
As5 O4 1.727603 1_555
As5 O18 1.729812 1_555
As5 O10 1.732812 1_655
As5 O23 1.762266 1_555
