# generated using pymatgen
data_Mg14ZrBi
_symmetry_space_group_name_H-M   'P 1'
_cell_length_a   6.44522474
_cell_length_b   6.35444555
_cell_length_c   10.40900353
_cell_angle_alpha   90.00000000
_cell_angle_beta   90.00000000
_cell_angle_gamma   119.53517023
_symmetry_Int_Tables_number   1
_chemical_formula_structural   Mg14ZrBi
_chemical_formula_sum   'Mg14 Zr1 Bi1'
_cell_volume   370.91186369
_cell_formula_units_Z   1
loop_
 _symmetry_equiv_pos_site_id
 _symmetry_equiv_pos_as_xyz
  1  'x, y, z'
loop_
 _atom_site_type_symbol
 _atom_site_label
 _atom_site_symmetry_multiplicity
 _atom_site_fract_x
 _atom_site_fract_y
 _atom_site_fract_z
 _atom_site_occupancy
  Mg  Mg0  1  0.16581253  0.33290577  0.62500000  1
  Mg  Mg1  1  0.16632134  0.83316017  0.62500000  1
  Mg  Mg2  1  0.66708675  0.33123003  0.12500000  1
  Mg  Mg3  1  0.66623594  0.33293040  0.62500000  1
  Mg  Mg4  1  0.66708675  0.83585572  0.12500000  1
  Mg  Mg5  1  0.66623594  0.83330454  0.62500000  1
  Mg  Mg6  1  0.33469992  0.17211368  0.37869242  1
  Mg  Mg7  1  0.33469992  0.17211368  0.87130758  1
  Mg  Mg8  1  0.33469992  0.66258724  0.37869242  1
  Mg  Mg9  1  0.33469992  0.66258724  0.87130758  1
  Mg  Mg10  1  0.83631413  0.16815757  0.37457777  1
  Mg  Mg11  1  0.83631413  0.16815757  0.87542223  1
  Mg  Mg12  1  0.82899270  0.66449685  0.37863310  1
  Mg  Mg13  1  0.82899270  0.66449685  0.87136690  1
  Zr  Zr0  1  0.16740533  0.33370217  0.12500000  1
  Bi  Bi0  1  0.16440209  0.83220055  0.12500000  1
loop_
_geom_bond_atom_site_label_1
_geom_bond_atom_site_label_2
_geom_bond_distance
_geom_bond_site_symmetry_2
Mg0 Mg7 3.146190 1_555
Mg0 Mg6 3.146190 1_555
Mg0 Mg9 3.146196 1_555
Mg0 Mg8 3.146196 1_555
Mg0 Mg1 3.177224 1_555
Mg0 Mg1 3.177224 1_545
Mg0 Mg11 3.195104 1_455
Mg0 Mg10 3.195104 1_455
Mg0 Mg5 3.219960 1_445
Mg0 Mg3 3.219961 1_455
Mg0 Mg5 3.225264 1_555
Mg0 Mg3 3.225264 1_555
Mg1 Mg9 3.175759 1_555
Mg1 Mg8 3.175759 1_555
Mg1 Mg7 3.175765 1_565
Mg1 Mg6 3.175765 1_565
Mg1 Mg12 3.186628 1_455
Mg1 Mg13 3.186628 1_455
Mg1 Mg3 3.221610 1_565
Mg1 Mg5 3.221610 1_555
Mg1 Mg3 3.223615 1_455
Mg1 Mg5 3.223615 1_455
Mg2 Mg4 3.147829 1_545
Mg2 Mg4 3.206616 1_555
Mg2 Zr0 3.216951 1_655
Mg2 Zr0 3.228332 1_555
Mg2 Mg6 3.232560 1_555
Mg2 Mg7 3.232560 1_554
Mg3 Mg7 3.167110 1_555
Mg3 Mg6 3.167110 1_555
Mg3 Mg5 3.174845 1_545
Mg3 Mg5 3.179600 1_555
Mg4 Zr0 3.216951 1_665
Mg4 Zr0 3.228332 1_555
Mg4 Mg9 3.232560 1_554
Mg4 Mg8 3.232560 1_555
Mg5 Mg9 3.167110 1_555
Mg5 Mg8 3.167110 1_555
Mg6 Mg8 3.116688 1_555
Mg6 Zr0 3.206514 1_555
Mg6 Mg8 3.237758 1_545
Mg7 Mg9 3.116688 1_555
Mg7 Zr0 3.206514 1_556
Mg7 Mg9 3.237758 1_545
Mg8 Zr0 3.206520 1_555
Mg9 Zr0 3.206520 1_556
Mg10 Mg12 3.177768 1_555
Mg10 Mg12 3.177768 1_545
Mg10 Mg2 3.182231 1_555
Mg10 Mg4 3.182237 1_545
Mg10 Zr0 3.193122 1_655
Mg10 Mg3 3.197518 1_555
Mg10 Mg5 3.197525 1_545
Mg10 Mg8 3.200177 1_655
Mg10 Mg6 3.200177 1_655
Mg10 Mg8 3.245765 1_545
Mg10 Mg6 3.245765 1_555
Mg11 Mg13 3.177768 1_555
Mg11 Mg13 3.177768 1_545
Mg11 Mg2 3.182231 1_556
Mg11 Mg4 3.182237 1_546
Mg11 Zr0 3.193122 1_656
Mg11 Mg3 3.197518 1_555
Mg11 Mg5 3.197525 1_545
Mg11 Mg9 3.200177 1_655
Mg11 Mg7 3.200177 1_655
Mg11 Mg9 3.245765 1_545
Mg11 Mg7 3.245765 1_555
Mg12 Mg5 3.152264 1_555
Mg12 Mg3 3.152270 1_555
Mg12 Mg6 3.179864 1_555
Mg12 Mg8 3.179864 1_555
Mg12 Mg4 3.219449 1_555
Mg12 Mg2 3.219455 1_555
Mg12 Mg6 3.265395 1_665
Mg12 Mg8 3.265396 1_655
Mg13 Mg5 3.152264 1_555
Mg13 Mg3 3.152270 1_555
Mg13 Mg7 3.179864 1_555
Mg13 Mg9 3.179864 1_555
Mg13 Mg4 3.219449 1_556
Mg13 Mg2 3.219455 1_556
Mg13 Mg7 3.265395 1_665
Mg13 Mg9 3.265396 1_655
Bi0 Zr0 3.177267 1_565
Bi0 Zr0 3.177267 1_555
Bi0 Mg2 3.216822 1_455
Bi0 Mg4 3.216822 1_455
Bi0 Mg2 3.228529 1_565
Bi0 Mg4 3.228529 1_555
Bi0 Mg8 3.241288 1_555
Bi0 Mg9 3.241288 1_554
Bi0 Mg6 3.241294 1_565
Bi0 Mg7 3.241294 1_564
Bi0 Mg13 3.241548 1_454
Bi0 Mg12 3.241548 1_455
