# generated using pymatgen
data_BaSrLa4Be2O10
_symmetry_space_group_name_H-M   'P 1'
_cell_length_a   7.44166300
_cell_length_b   6.78466800
_cell_length_c   9.87494053
_cell_angle_alpha   89.40776511
_cell_angle_beta   90.00000000
_cell_angle_gamma   90.00000000
_symmetry_Int_Tables_number   1
_chemical_formula_structural   BaSrLa4Be2O10
_chemical_formula_sum   'Ba2 Sr2 La8 Be4 O20'
_cell_volume   498.55133946
_cell_formula_units_Z   2
loop_
 _symmetry_equiv_pos_site_id
 _symmetry_equiv_pos_as_xyz
  1  'x, y, z'
loop_
 _atom_site_type_symbol
 _atom_site_label
 _atom_site_symmetry_multiplicity
 _atom_site_fract_x
 _atom_site_fract_y
 _atom_site_fract_z
 _atom_site_occupancy
  Ba  Ba0  1  0.97920300  0.58248300  0.67633900  1
  Ba  Ba1  1  0.47920300  0.41751700  0.32366100  1
  Sr  Sr0  1  0.48261000  0.08264300  0.82486000  1
  Sr  Sr1  1  0.98261000  0.91735700  0.17514000  1
  La  La0  1  0.74727900  0.09101200  0.52309000  1
  La  La1  1  0.74510900  0.40555500  0.02110400  1
  La  La2  1  0.24727900  0.90898800  0.47691000  1
  La  La3  1  0.24510900  0.59444500  0.97889600  1
  La  La4  1  0.53364700  0.93123100  0.16937900  1
  La  La5  1  0.03364700  0.06876900  0.83062100  1
  La  La6  1  0.02264800  0.42726100  0.32427000  1
  La  La7  1  0.52264800  0.57273900  0.67573000  1
  Be  Be0  1  0.75225400  0.69631000  0.39809900  1
  Be  Be1  1  0.74695200  0.81133500  0.90264000  1
  Be  Be2  1  0.25225400  0.30369000  0.60190100  1
  Be  Be3  1  0.24695200  0.18866500  0.09736000  1
  O  O0  1  0.75416400  0.15817300  0.27645800  1
  O  O1  1  0.73081200  0.34061000  0.78349200  1
  O  O2  1  0.25416400  0.84182700  0.72354200  1
  O  O3  1  0.23081200  0.65939000  0.21650800  1
  O  O4  1  0.75943500  0.64080600  0.22902700  1
  O  O5  1  0.74458200  0.87470800  0.73368100  1
  O  O6  1  0.25943500  0.35919400  0.77097300  1
  O  O7  1  0.24458200  0.12529200  0.26631900  1
  O  O8  1  0.06035300  0.31209100  0.06472700  1
  O  O9  1  0.44007000  0.19016000  0.56725600  1
  O  O10  1  0.56035300  0.68790900  0.93527300  1
  O  O11  1  0.94007000  0.80984000  0.43274400  1
  O  O12  1  0.93805000  0.70142900  0.93704900  1
  O  O13  1  0.56316500  0.81691300  0.42823900  1
  O  O14  1  0.43805000  0.29857100  0.06295100  1
  O  O15  1  0.06316500  0.18308700  0.57176100  1
  O  O16  1  0.74711100  0.01678800  0.99217100  1
  O  O17  1  0.75255600  0.48382500  0.48584500  1
  O  O18  1  0.24711100  0.98321200  0.00782900  1
  O  O19  1  0.25255600  0.51617500  0.51415500  1
loop_
_geom_bond_atom_site_label_1
_geom_bond_atom_site_label_2
_geom_bond_distance
_geom_bond_site_symmetry_2
Ba0 O17 2.618664 1_555
Ba0 O19 2.630636 1_655
Ba0 O1 2.682061 1_555
Ba0 O5 2.706133 1_555
Ba0 O12 2.723239 1_555
Ba0 O6 2.736410 1_655
Ba0 O2 2.741731 1_655
Ba0 O11 2.859003 1_555
Ba0 O15 2.976167 1_655
Ba1 O19 2.618664 1_555
Ba1 O17 2.630636 1_555
Ba1 O3 2.682061 1_555
Ba1 O7 2.706133 1_555
Ba1 O14 2.723239 1_555
Ba1 O4 2.736410 1_555
Ba1 O0 2.741731 1_555
Ba1 O9 2.859003 1_555
Ba1 O13 2.976167 1_555
La0 O9 2.423891 1_555
La0 O0 2.473633 1_555
La0 O15 2.480590 1_655
La0 O13 2.499781 1_545
La0 O5 2.532912 1_545
La0 O11 2.555116 1_545
La0 O17 2.686883 1_555
La0 O1 3.095990 1_555
La1 O1 2.394256 1_554
La1 O14 2.431622 1_555
La1 O8 2.466873 1_655
La1 O10 2.498994 1_554
La1 O12 2.597254 1_554
La1 O4 2.615796 1_555
La1 O16 2.656060 1_554
La1 O0 3.015391 1_555
La2 O11 2.423891 1_455
La2 O2 2.473633 1_555
La2 O13 2.480590 1_555
La2 O15 2.499781 1_565
La2 O7 2.532912 1_565
La2 O9 2.555116 1_565
La2 O19 2.686883 1_555
La2 O3 3.095990 1_555
La3 O3 2.394256 1_556
La3 O12 2.431622 1_455
La3 O10 2.466873 1_555
La3 O8 2.498994 1_556
La3 O14 2.597254 1_556
La3 O6 2.615796 1_555
La3 O18 2.656060 1_556
La3 O2 3.015391 1_555
La4 O16 2.429318 1_564
La4 O0 2.493076 1_565
La4 O4 2.651184 1_555
La4 O13 2.672664 1_555
La4 O18 2.684109 1_555
La4 O7 2.702464 1_565
La4 O14 2.787103 1_565
La4 O10 2.861480 1_554
La4 O3 2.946044 1_555
La5 O18 2.429318 1_546
La5 O2 2.493076 1_545
La5 O6 2.651184 1_555
La5 O15 2.672664 1_555
La5 O16 2.684109 1_455
La5 O5 2.702464 1_445
La5 O12 2.787103 1_445
La5 O8 2.861480 1_556
La5 O1 2.946044 1_455
La6 O3 2.444952 1_555
La6 O17 2.597216 1_455
La6 O4 2.606183 1_455
La6 O19 2.613519 1_555
La6 O7 2.697551 1_555
La6 O8 2.701763 1_555
La6 O0 2.750580 1_455
La6 O11 2.884447 1_455
La6 O15 2.953744 1_555
La7 O1 2.444952 1_555
La7 O19 2.597216 1_555
La7 O6 2.606183 1_555
La7 O17 2.613519 1_555
La7 O5 2.697551 1_555
La7 O10 2.701763 1_555
La7 O2 2.750580 1_555
La7 O9 2.884447 1_555
La7 O13 2.953744 1_555
Be0 O11 1.633787 1_555
Be0 O13 1.656257 1_555
Be0 O17 1.674308 1_555
Be0 O4 1.716143 1_555
Be1 O12 1.639689 1_555
Be1 O10 1.651587 1_555
Be1 O16 1.658366 1_565
Be1 O5 1.718752 1_555
Be2 O9 1.633787 1_555
Be2 O15 1.656257 1_555
Be2 O19 1.674308 1_555
Be2 O6 1.716143 1_555
Be3 O14 1.639689 1_555
Be3 O8 1.651587 1_555
Be3 O18 1.658366 1_545
Be3 O7 1.718752 1_555
O0 Sr1 2.567949 1_545
O1 Sr0 2.574278 1_555
O2 Sr0 2.567949 1_565
O3 Sr1 2.574278 1_455
O4 Sr1 2.557593 1_555
O5 Sr0 2.574453 1_565
O6 Sr0 2.557593 1_555
O7 Sr1 2.574453 1_445
O8 Sr1 2.938634 1_445
O9 Sr0 2.658010 1_555
O10 Sr0 2.938634 1_565
O11 Sr1 2.658010 1_555
O12 Sr1 2.802717 1_556
O14 Sr0 2.802717 1_554
O16 Sr1 2.601100 1_546
O16 Sr0 2.605457 1_555
O18 Sr0 2.601100 1_564
O18 Sr1 2.605457 1_455
