# generated using pymatgen
data_Sr3LaNb3O12
_symmetry_space_group_name_H-M   'P 1'
_cell_length_a   9.80513005
_cell_length_b   9.80513005
_cell_length_c   9.80513003
_cell_angle_alpha   33.99070056
_cell_angle_beta   33.99070056
_cell_angle_gamma   33.99070506
_symmetry_Int_Tables_number   1
_chemical_formula_structural   Sr3LaNb3O12
_chemical_formula_sum   'Sr3 La1 Nb3 O12'
_cell_volume   262.62051427
_cell_formula_units_Z   1
loop_
 _symmetry_equiv_pos_site_id
 _symmetry_equiv_pos_as_xyz
  1  'x, y, z'
loop_
 _atom_site_type_symbol
 _atom_site_label
 _atom_site_symmetry_multiplicity
 _atom_site_fract_x
 _atom_site_fract_y
 _atom_site_fract_z
 _atom_site_occupancy
  Sr  Sr0  1  0.85899600  0.85899600  0.85899600  1
  Sr  Sr1  1  0.14070200  0.14070200  0.14070200  1
  Sr  Sr2  1  0.71460200  0.71460200  0.71460200  1
  La  La0  1  0.28528500  0.28528500  0.28528500  1
  Nb  Nb0  1  0.57652600  0.57652600  0.57652600  1
  Nb  Nb1  1  0.42447500  0.42447500  0.42447500  1
  Nb  Nb2  1  0.00131900  0.00131900  0.00131900  1
  O  O0  1  0.31312000  0.88705700  0.44227400  1
  O  O1  1  0.44227400  0.31312000  0.88705700  1
  O  O2  1  0.88705700  0.44227400  0.31312000  1
  O  O3  1  0.68672000  0.12257900  0.55443200  1
  O  O4  1  0.55443200  0.68672000  0.12257900  1
  O  O5  1  0.12257900  0.55443200  0.68672000  1
  O  O6  1  0.15389800  0.70170400  0.25893200  1
  O  O7  1  0.25893200  0.15389800  0.70170400  1
  O  O8  1  0.70170400  0.25893200  0.15389800  1
  O  O9  1  0.86197100  0.29252800  0.72287900  1
  O  O10  1  0.72287900  0.86197100  0.29252800  1
  O  O11  1  0.29252800  0.72287900  0.86197100  1
loop_
_geom_bond_atom_site_label_1
_geom_bond_atom_site_label_2
_geom_bond_distance
_geom_bond_site_symmetry_2
La0 O11 2.475331 1_554
La0 O9 2.475331 1_455
La0 O10 2.475331 1_545
La0 O1 2.579345 1_554
La0 O0 2.579345 1_545
La0 O2 2.579345 1_455
La0 O7 2.911633 1_555
La0 O8 2.911633 1_555
La0 O6 2.911633 1_555
Nb0 O1 1.903972 1_555
Nb0 O2 1.903972 1_555
Nb0 O0 1.903972 1_555
Nb0 O10 2.180978 1_555
Nb0 O11 2.180979 1_555
Nb0 O9 2.180979 1_555
Nb1 O4 1.885346 1_555
Nb1 O5 1.885346 1_555
Nb1 O3 1.885346 1_555
Nb1 O7 2.219892 1_555
Nb1 O8 2.219892 1_555
Nb1 O6 2.219892 1_555
Nb2 O7 1.980411 1_554
Nb2 O6 1.980412 1_545
Nb2 O8 1.980412 1_455
Nb2 O10 2.064680 1_445
Nb2 O9 2.064680 1_454
Nb2 O11 2.064680 1_544
O0 Sr0 2.568110 1_455
O0 Sr1 2.628591 1_565
O1 Sr0 2.568110 1_545
O1 Sr1 2.628591 1_556
O2 Sr0 2.568110 1_554
O2 Sr1 2.628591 1_655
O3 Sr1 2.544552 1_655
O3 Sr0 2.603447 1_545
O3 Sr2 2.650283 1_545
O4 Sr1 2.544552 1_565
O4 Sr0 2.603447 1_554
O4 Sr2 2.650283 1_554
O5 Sr1 2.544552 1_556
O5 Sr0 2.603447 1_455
O5 Sr2 2.650283 1_455
O6 Sr2 2.579193 1_455
O6 Sr2 3.178549 1_554
O7 Sr2 2.579193 1_545
O7 Sr2 3.178549 1_455
O8 Sr2 2.579193 1_554
O8 Sr2 3.178549 1_545
O9 Sr2 2.990445 1_555
O10 Sr2 2.990445 1_555
O11 Sr2 2.990445 1_555
