# generated using pymatgen
data_LiTiNF6
_symmetry_space_group_name_H-M   'P 1'
_cell_length_a   8.67930100
_cell_length_b   9.54773200
_cell_length_c   13.81623000
_cell_angle_alpha   90.00000000
_cell_angle_beta   90.00000000
_cell_angle_gamma   90.00000000
_symmetry_Int_Tables_number   1
_chemical_formula_structural   LiTiNF6
_chemical_formula_sum   'Li8 Ti8 N8 F48'
_cell_volume   1144.91837235
_cell_formula_units_Z   8
loop_
 _symmetry_equiv_pos_site_id
 _symmetry_equiv_pos_as_xyz
  1  'x, y, z'
loop_
 _atom_site_type_symbol
 _atom_site_label
 _atom_site_symmetry_multiplicity
 _atom_site_fract_x
 _atom_site_fract_y
 _atom_site_fract_z
 _atom_site_occupancy
  Li  Li0  1  0.00000000  0.75000000  0.94881900  1
  Li  Li1  1  0.00000000  0.25000000  0.05118100  1
  Li  Li2  1  0.50000000  0.25000000  0.55118100  1
  Li  Li3  1  0.50000000  0.75000000  0.44881900  1
  Li  Li4  1  0.00000000  0.75000000  0.32428900  1
  Li  Li5  1  0.00000000  0.25000000  0.67571100  1
  Li  Li6  1  0.50000000  0.25000000  0.17571100  1
  Li  Li7  1  0.50000000  0.75000000  0.82428900  1
  Ti  Ti0  1  0.21648500  0.54762700  0.13889500  1
  Ti  Ti1  1  0.78351500  0.45237300  0.86110500  1
  Ti  Ti2  1  0.28351500  0.04762700  0.36110500  1
  Ti  Ti3  1  0.78351500  0.95237300  0.13889500  1
  Ti  Ti4  1  0.71648500  0.95237300  0.63889500  1
  Ti  Ti5  1  0.21648500  0.04762700  0.86110500  1
  Ti  Ti6  1  0.71648500  0.45237300  0.36110500  1
  Ti  Ti7  1  0.28351500  0.54762700  0.63889500  1
  N  N0  1  0.25606100  0.92867300  0.11896600  1
  N  N1  1  0.74393900  0.07132700  0.88103400  1
  N  N2  1  0.24393900  0.42867300  0.38103400  1
  N  N3  1  0.74393900  0.57132700  0.11896600  1
  N  N4  1  0.75606100  0.57132700  0.61896600  1
  N  N5  1  0.25606100  0.42867300  0.88103400  1
  N  N6  1  0.75606100  0.07132700  0.38103400  1
  N  N7  1  0.24393900  0.92867300  0.61896600  1
  F  F0  1  0.15790600  0.88816100  0.35579900  1
  F  F1  1  0.84209400  0.11183900  0.64420100  1
  F  F2  1  0.34209400  0.38816100  0.14420100  1
  F  F3  1  0.84209400  0.61183900  0.35579900  1
  F  F4  1  0.65790600  0.61183900  0.85579900  1
  F  F5  1  0.15790600  0.38816100  0.64420100  1
  F  F6  1  0.65790600  0.11183900  0.14420100  1
  F  F7  1  0.34209400  0.88816100  0.85579900  1
  F  F8  1  0.05758100  0.41627000  0.11486200  1
  F  F9  1  0.94241900  0.58373000  0.88513800  1
  F  F10  1  0.44241900  0.91627000  0.38513800  1
  F  F11  1  0.94241900  0.08373000  0.11486200  1
  F  F12  1  0.55758100  0.08373000  0.61486200  1
  F  F13  1  0.05758100  0.91627000  0.88513800  1
  F  F14  1  0.55758100  0.58373000  0.38513800  1
  F  F15  1  0.44241900  0.41627000  0.61486200  1
  F  F16  1  0.12430200  0.62130700  0.24582600  1
  F  F17  1  0.87569800  0.37869300  0.75417400  1
  F  F18  1  0.37569800  0.12130700  0.25417400  1
  F  F19  1  0.87569800  0.87869300  0.24582600  1
  F  F20  1  0.62430200  0.87869300  0.74582600  1
  F  F21  1  0.12430200  0.12130700  0.75417400  1
  F  F22  1  0.62430200  0.37869300  0.25417400  1
  F  F23  1  0.37569800  0.62130700  0.74582600  1
  F  F24  1  0.35861200  0.48614800  0.94142400  1
  F  F25  1  0.64138800  0.51385200  0.05857600  1
  F  F26  1  0.14138800  0.98614800  0.55857600  1
  F  F27  1  0.64138800  0.01385200  0.94142400  1
  F  F28  1  0.85861200  0.01385200  0.44142400  1
  F  F29  1  0.35861200  0.98614800  0.05857600  1
  F  F30  1  0.85861200  0.51385200  0.55857600  1
  F  F31  1  0.14138800  0.48614800  0.44142400  1
  F  F32  1  0.14411300  0.65485000  0.03819200  1
  F  F33  1  0.85588700  0.34515000  0.96180800  1
  F  F34  1  0.35588700  0.15485000  0.46180800  1
  F  F35  1  0.85588700  0.84515000  0.03819200  1
  F  F36  1  0.64411300  0.84515000  0.53819200  1
  F  F37  1  0.14411300  0.15485000  0.96180800  1
  F  F38  1  0.64411300  0.34515000  0.46180800  1
  F  F39  1  0.35588700  0.65485000  0.53819200  1
  F  F40  1  0.39044100  0.64835600  0.14729300  1
  F  F41  1  0.60955900  0.35164400  0.85270700  1
  F  F42  1  0.10955900  0.14835600  0.35270700  1
  F  F43  1  0.60955900  0.85164400  0.14729300  1
  F  F44  1  0.89044100  0.85164400  0.64729300  1
  F  F45  1  0.39044100  0.14835600  0.85270700  1
  F  F46  1  0.89044100  0.35164400  0.35270700  1
  F  F47  1  0.10955900  0.64835600  0.64729300  1
loop_
_geom_bond_atom_site_label_1
_geom_bond_atom_site_label_2
_geom_bond_distance
_geom_bond_site_symmetry_2
F0 Ti2 1.874041 1_565
F0 Li4 1.951391 1_555
F1 Ti4 1.874041 1_545
F1 Li5 1.951391 1_655
F2 Ti0 1.874041 1_555
F2 Li6 1.951391 1_555
F3 Ti6 1.874041 1_555
F3 Li4 1.951391 1_655
F4 Ti1 1.874041 1_555
F4 Li7 1.951391 1_555
F5 Ti7 1.874041 1_555
F5 Li5 1.951391 1_555
F6 Ti3 1.874041 1_545
F6 Li6 1.951391 1_555
F7 Ti5 1.874041 1_565
F7 Li7 1.951391 1_555
F8 Li1 1.882559 1_555
F8 Ti0 1.893489 1_555
F9 Li0 1.882559 1_655
F9 Ti1 1.893489 1_555
F10 Li3 1.882559 1_555
F10 Ti2 1.893489 1_565
F11 Li1 1.882559 1_655
F11 Ti3 1.893489 1_545
F12 Li2 1.882559 1_555
F12 Ti4 1.893489 1_545
F13 Li0 1.882559 1_555
F13 Ti5 1.893489 1_565
F14 Li3 1.882559 1_555
F14 Ti6 1.893489 1_555
F15 Li2 1.882559 1_555
F15 Ti7 1.893489 1_555
F16 Ti0 1.821449 1_555
F16 Li4 1.961858 1_555
F17 Ti1 1.821449 1_555
F17 Li5 1.961858 1_655
F18 Ti2 1.821449 1_555
F18 Li6 1.961858 1_555
F19 Ti3 1.821449 1_555
F19 Li4 1.961858 1_655
F20 Ti4 1.821449 1_555
F20 Li7 1.961858 1_555
F21 Ti5 1.821449 1_555
F21 Li5 1.961858 1_555
F22 Ti6 1.821449 1_555
F22 Li6 1.961858 1_555
F23 Ti7 1.821449 1_555
F23 Li7 1.961858 1_555
F24 N5 1.337729 1_555
F25 N3 1.337729 1_555
F26 N7 1.337729 1_555
F27 N1 1.337729 1_555
F28 N6 1.337729 1_555
F29 N0 1.337729 1_555
F30 N4 1.337729 1_555
F31 N2 1.337729 1_555
F32 Ti0 1.838045 1_555
F32 Li0 1.978519 1_554
F33 Ti1 1.838045 1_555
F33 Li1 1.978519 1_656
F34 Ti2 1.838045 1_555
F34 Li2 1.978519 1_555
F35 Ti3 1.838045 1_555
F35 Li0 1.978519 1_654
F36 Ti4 1.838045 1_555
F36 Li3 1.978519 1_555
F37 Ti5 1.838045 1_555
F37 Li1 1.978519 1_556
F38 Ti6 1.838045 1_555
F38 Li2 1.978519 1_555
F39 Ti7 1.838045 1_555
F39 Li3 1.978519 1_555
F40 Ti0 1.793862 1_555
F41 Ti1 1.793862 1_555
F42 Ti2 1.793862 1_555
F43 Ti3 1.793862 1_555
F44 Ti4 1.793862 1_555
F45 Ti5 1.793862 1_555
F46 Ti6 1.793862 1_555
F47 Ti7 1.793862 1_555
