# generated using pymatgen
data_K5Na3Nb7WO20
_symmetry_space_group_name_H-M   'P 1'
_cell_length_a   11.58199277
_cell_length_b   11.76244108
_cell_length_c   17.75916594
_cell_angle_alpha   109.48595502
_cell_angle_beta   109.00937837
_cell_angle_gamma   90.09969160
_symmetry_Int_Tables_number   1
_chemical_formula_structural   K5Na3Nb7WO20
_chemical_formula_sum   'K20 Na12 Nb28 W4 O80'
_cell_volume   2139.81527203
_cell_formula_units_Z   4
loop_
 _symmetry_equiv_pos_site_id
 _symmetry_equiv_pos_as_xyz
  1  'x, y, z'
loop_
 _atom_site_type_symbol
 _atom_site_label
 _atom_site_symmetry_multiplicity
 _atom_site_fract_x
 _atom_site_fract_y
 _atom_site_fract_z
 _atom_site_occupancy
  K  K0  1  0.30592000  0.06100900  0.11329600  1
  K  K1  1  0.30470400  0.56472500  0.10816800  1
  K  K2  1  0.79762900  0.06012400  0.10455500  1
  K  K3  1  0.81230100  0.55887800  0.11687900  1
  K  K4  1  0.81354200  0.57449500  0.62219800  1
  K  K5  1  0.20486400  0.93510600  0.39619700  1
  K  K6  1  0.19611100  0.93143300  0.88052000  1
  K  K7  1  0.69813200  0.44272500  0.38922300  1
  K  K8  1  0.68769800  0.42509400  0.88278400  1
  K  K9  1  0.69200000  0.93137300  0.38214600  1
  K  K10  1  0.69085200  0.92190300  0.87680500  1
  K  K11  1  0.04767500  0.29240700  0.10719800  1
  K  K12  1  0.05994500  0.78990700  0.10581500  1
  K  K13  1  0.55629700  0.30569600  0.11450800  1
  K  K14  1  0.55980700  0.80284500  0.11895900  1
  K  K15  1  0.44336900  0.20052900  0.38702700  1
  K  K16  1  0.45387100  0.71276600  0.39459000  1
  K  K17  1  0.44749600  0.70732200  0.89026500  1
  K  K18  1  0.94888300  0.69403100  0.38514600  1
  K  K19  1  0.94150400  0.69728100  0.87912300  1
  Na  Na0  1  0.29851900  0.07821300  0.60452600  1
  Na  Na1  1  0.30362200  0.57187100  0.60418800  1
  Na  Na2  1  0.80293600  0.06816500  0.59887000  1
  Na  Na3  1  0.20399200  0.43843700  0.40621300  1
  Na  Na4  1  0.19567300  0.43331000  0.89773000  1
  Na  Na5  1  0.04617100  0.27909100  0.60525900  1
  Na  Na6  1  0.06111600  0.79374500  0.60930800  1
  Na  Na7  1  0.55131300  0.28422500  0.60086000  1
  Na  Na8  1  0.55524900  0.78967200  0.60820200  1
  Na  Na9  1  0.44332800  0.21436400  0.89689200  1
  Na  Na10  1  0.95571600  0.22104500  0.40729800  1
  Na  Na11  1  0.94538800  0.21644600  0.89769000  1
  Nb  Nb0  1  0.00642500  0.00036400  0.50205200  1
  Nb  Nb1  1  0.00935900  0.50331800  0.50528800  1
  Nb  Nb2  1  0.50913800  0.00398700  0.50648800  1
  Nb  Nb3  1  0.50025200  0.50042700  0.99775300  1
  Nb  Nb4  1  0.50732500  0.50281600  0.50392100  1
  Nb  Nb5  1  0.24849600  0.24755700  0.99717200  1
  Nb  Nb6  1  0.25665500  0.25500500  0.50469900  1
  Nb  Nb7  1  0.26049600  0.75239800  0.50532300  1
  Nb  Nb8  1  0.74606000  0.24424900  0.99525000  1
  Nb  Nb9  1  0.75736400  0.25140400  0.50239300  1
  Nb  Nb10  1  0.75155700  0.74365100  0.99661500  1
  Nb  Nb11  1  0.76027200  0.75227300  0.50410600  1
  Nb  Nb12  1  0.09391600  0.08245200  0.25339400  1
  Nb  Nb13  1  0.08468900  0.08585700  0.74588400  1
  Nb  Nb14  1  0.14715000  0.57370900  0.25467400  1
  Nb  Nb15  1  0.13740200  0.56677000  0.74896600  1
  Nb  Nb16  1  0.62668600  0.10404900  0.25143100  1
  Nb  Nb17  1  0.58176900  0.08126900  0.74506800  1
  Nb  Nb18  1  0.60641300  0.59799300  0.25132500  1
  Nb  Nb19  1  0.59255600  0.56660600  0.74418200  1
  Nb  Nb20  1  0.34421800  0.41904900  0.25409700  1
  Nb  Nb21  1  0.34069400  0.42487700  0.74650200  1
  Nb  Nb22  1  0.35889100  0.90701200  0.25095600  1
  Nb  Nb23  1  0.37245600  0.92804100  0.74484800  1
  Nb  Nb24  1  0.87223200  0.39771300  0.25210500  1
  Nb  Nb25  1  0.85880200  0.39594400  0.74625800  1
  Nb  Nb26  1  0.89482900  0.93012200  0.25365200  1
  Nb  Nb27  1  0.87500500  0.93728600  0.74767700  1
  W  W0  1  0.99861300  0.99605700  0.99548800  1
  W  W1  1  0.00077600  0.49525400  0.99748800  1
  W  W2  1  0.50000600  0.99892000  0.99591900  1
  W  W3  1  0.25091700  0.74684500  0.99515900  1
  O  O0  1  0.12609300  0.12582800  0.49979200  1
  O  O1  1  0.12135900  0.12189500  0.99440000  1
  O  O2  1  0.13385200  0.62248700  0.49941100  1
  O  O3  1  0.12370200  0.61365700  0.98071400  1
  O  O4  1  0.63027500  0.12722800  0.50135500  1
  O  O5  1  0.62251500  0.12648000  0.98924300  1
  O  O6  1  0.63229100  0.63073000  0.50492800  1
  O  O7  1  0.62745600  0.62131400  0.99999100  1
  O  O8  1  0.12772300  0.36420500  0.99607300  1
  O  O9  1  0.13538000  0.37945600  0.50833400  1
  O  O10  1  0.12450500  0.87420200  0.99807600  1
  O  O11  1  0.13963100  0.88087600  0.51508100  1
  O  O12  1  0.61929500  0.37130900  0.99635400  1
  O  O13  1  0.63526200  0.38068200  0.51255900  1
  O  O14  1  0.63568700  0.86755900  0.00340200  1
  O  O15  1  0.63931300  0.88879300  0.51653500  1
  O  O16  1  0.37729200  0.12878900  0.50205500  1
  O  O17  1  0.36791600  0.12884000  0.99167900  1
  O  O18  1  0.38053800  0.62215300  0.49954400  1
  O  O19  1  0.37616400  0.61833200  0.99327100  1
  O  O20  1  0.87614800  0.12139600  0.48927100  1
  O  O21  1  0.86924200  0.11710100  0.98776400  1
  O  O22  1  0.88580200  0.62829900  0.50325000  1
  O  O23  1  0.86881500  0.62401400  0.99463400  1
  O  O24  1  0.37092800  0.37128700  0.99539100  1
  O  O25  1  0.38113500  0.37939400  0.50796400  1
  O  O26  1  0.37752500  0.87415700  0.00552900  1
  O  O27  1  0.38962400  0.88220500  0.51542100  1
  O  O28  1  0.86947900  0.36540700  0.99962300  1
  O  O29  1  0.89127700  0.38050500  0.51464000  1
  O  O30  1  0.87458700  0.87028400  0.99641000  1
  O  O31  1  0.88496200  0.87904200  0.50609700  1
  O  O32  1  0.05905300  0.07181000  0.13760200  1
  O  O33  1  0.05572000  0.08955600  0.63326200  1
  O  O34  1  0.08730500  0.57572200  0.14111200  1
  O  O35  1  0.09463400  0.59312200  0.64331800  1
  O  O36  1  0.56951200  0.08630000  0.13371500  1
  O  O37  1  0.56590400  0.10269300  0.64023200  1
  O  O38  1  0.56155400  0.56258400  0.12841200  1
  O  O39  1  0.56927300  0.58237500  0.63638500  1
  O  O40  1  0.44225900  0.42440400  0.36782000  1
  O  O41  1  0.43140700  0.43228700  0.85970400  1
  O  O42  1  0.43794100  0.93396500  0.37488100  1
  O  O43  1  0.43631700  0.91543700  0.85295300  1
  O  O44  1  0.93858000  0.41924800  0.37345200  1
  O  O45  1  0.92407200  0.39985900  0.85969400  1
  O  O46  1  0.95455100  0.90995000  0.36172400  1
  O  O47  1  0.93762700  0.91782900  0.85448500  1
  O  O48  1  0.31120800  0.31469100  0.13612000  1
  O  O49  1  0.32011100  0.30529900  0.63562700  1
  O  O50  1  0.31188700  0.80992500  0.13283200  1
  O  O51  1  0.34103400  0.79371900  0.64130400  1
  O  O52  1  0.81260500  0.30167700  0.12940700  1
  O  O53  1  0.83430000  0.28361800  0.63396800  1
  O  O54  1  0.84154100  0.80971700  0.14219000  1
  O  O55  1  0.84813700  0.80810500  0.64435800  1
  O  O56  1  0.18571000  0.19602500  0.36652600  1
  O  O57  1  0.17533900  0.18506700  0.86064400  1
  O  O58  1  0.20037100  0.69388700  0.36866500  1
  O  O59  1  0.19650500  0.69182300  0.85550700  1
  O  O60  1  0.68818400  0.20678100  0.37201800  1
  O  O61  1  0.67309000  0.18420000  0.85810900  1
  O  O62  1  0.68775700  0.69112900  0.37538900  1
  O  O63  1  0.67512200  0.67199600  0.86212700  1
  O  O64  1  0.48293200  0.02412200  0.25408400  1
  O  O65  1  0.40979600  0.09666700  0.74696500  1
  O  O66  1  0.44751300  0.55470200  0.25283300  1
  O  O67  1  0.42036300  0.57179600  0.73707700  1
  O  O68  1  0.92946600  0.10570700  0.26427700  1
  O  O69  1  0.91194200  0.10373300  0.74754200  1
  O  O70  1  0.98253300  0.52087400  0.25263900  1
  O  O71  1  0.96858300  0.52117400  0.74776800  1
  O  O72  1  0.18123200  0.40957400  0.26554600  1
  O  O73  1  0.16867500  0.39617600  0.74765200  1
  O  O74  1  0.19625000  0.94447400  0.25387500  1
  O  O75  1  0.19721400  0.95617700  0.73347400  1
  O  O76  1  0.73710000  0.49029900  0.25369600  1
  O  O77  1  0.68681700  0.42561500  0.73307900  1
  O  O78  1  0.73145000  0.97895600  0.25393300  1
  O  O79  1  0.69871400  0.95574300  0.73465500  1
loop_
_geom_bond_atom_site_label_1
_geom_bond_atom_site_label_2
_geom_bond_distance
_geom_bond_site_symmetry_2
K0 O26 2.723079 1_545
K0 O10 2.759249 1_544
K0 O1 2.759430 1_554
K0 O17 2.823987 1_554
K0 O64 2.833782 1_555
K0 O48 2.871951 1_555
K0 O36 2.957025 1_555
K0 O32 3.024276 1_555
K0 O50 3.084829 1_545
K1 O66 2.604726 1_555
K1 O19 2.683812 1_554
K1 O34 2.758481 1_555
K1 O3 2.762521 1_554
K1 O50 2.765813 1_555
K1 O24 2.782659 1_554
K1 O8 2.814257 1_554
K1 O38 2.879081 1_555
K1 O48 3.138796 1_555
K2 O68 2.612638 1_555
K2 O14 2.636482 1_545
K2 O5 2.698609 1_554
K2 O52 2.722023 1_555
K2 O21 2.735901 1_554
K2 O30 2.780325 1_544
K2 O36 2.851520 1_555
K2 O32 2.884110 1_655
K2 O54 3.236954 1_545
K3 O70 2.743244 1_555
K3 O7 2.749403 1_554
K3 O28 2.774107 1_554
K3 O23 2.786067 1_554
K3 O54 2.834540 1_555
K3 O12 2.856811 1_554
K3 O38 2.976561 1_555
K3 O34 3.068754 1_655
K3 O52 3.106542 1_555
K3 O76 3.161771 1_555
K4 O71 2.630435 1_555
K4 O55 2.652914 1_555
K4 O6 2.693969 1_555
K4 O22 2.757718 1_555
K4 O13 2.766765 1_555
K4 O29 2.808109 1_555
K4 O39 2.919877 1_555
K4 O35 3.151963 1_655
K5 O74 2.536144 1_555
K5 O58 2.711007 1_555
K5 O11 2.714988 1_555
K5 O27 2.716867 1_555
K5 O16 2.719128 1_565
K5 O46 2.754487 1_455
K5 O0 2.756222 1_565
K5 O42 2.844858 1_555
K6 O59 2.703115 1_555
K6 O75 2.726380 1_555
K6 O10 2.750097 1_555
K6 O17 2.759529 1_565
K6 O26 2.785911 1_556
K6 O1 2.825479 1_565
K6 O47 2.872147 1_455
K6 O43 2.973651 1_555
K6 O57 3.119714 1_565
K7 O60 2.686824 1_555
K7 O6 2.772938 1_555
K7 O22 2.785138 1_555
K7 O76 2.813371 1_555
K7 O13 2.822051 1_555
K7 O40 2.860539 1_555
K7 O29 2.889301 1_555
K7 O44 2.892988 1_555
K7 O62 3.012114 1_555
K8 O12 2.643155 1_555
K8 O77 2.657383 1_555
K8 O28 2.713326 1_555
K8 O61 2.714966 1_555
K8 O7 2.809456 1_555
K8 O23 2.826367 1_555
K8 O41 2.866660 1_555
K8 O45 2.898983 1_555
K8 O63 3.044248 1_555
K9 O78 2.689538 1_555
K9 O20 2.768978 1_565
K9 O62 2.787781 1_555
K9 O31 2.814799 1_555
K9 O4 2.835150 1_565
K9 O15 2.839789 1_555
K9 O42 2.903714 1_555
K9 O46 3.178369 1_555
K10 O30 2.707241 1_555
K10 O79 2.712869 1_555
K10 O21 2.781415 1_565
K10 O14 2.786506 1_556
K10 O43 2.835539 1_555
K10 O63 2.863197 1_555
K10 O5 2.869603 1_565
K10 O47 3.009030 1_555
K10 O61 3.211305 1_565
K11 O72 2.602575 1_555
K11 O28 2.679293 1_454
K11 O1 2.683824 1_554
K11 O21 2.689502 1_454
K11 O8 2.787205 1_554
K11 O32 2.816244 1_555
K11 O52 2.872589 1_455
K11 O48 2.921435 1_555
K11 O34 3.186592 1_555
K12 O74 2.609225 1_555
K12 O23 2.678373 1_454
K12 O10 2.719969 1_554
K12 O34 2.787002 1_555
K12 O3 2.789323 1_554
K12 O30 2.791589 1_454
K12 O50 2.794727 1_555
K12 O54 2.799352 1_455
K12 O32 3.173149 1_565
K13 O36 2.711838 1_555
K13 O12 2.758034 1_554
K13 O17 2.775337 1_554
K13 O24 2.795626 1_554
K13 O5 2.822986 1_554
K13 O76 2.870783 1_555
K13 O52 2.895121 1_555
K13 O38 2.947325 1_555
K13 O48 2.983280 1_555
K14 O78 2.749098 1_555
K14 O26 2.753465 1_555
K14 O7 2.776954 1_554
K14 O14 2.788916 1_555
K14 O19 2.806375 1_554
K14 O38 2.886120 1_555
K14 O50 2.959834 1_555
K14 O54 3.150243 1_555
K14 O64 3.249418 1_565
K14 O36 3.254886 1_565
K15 O64 2.743965 1_555
K15 O25 2.749155 1_555
K15 O16 2.763515 1_555
K15 O40 2.765390 1_555
K15 O4 2.804113 1_555
K15 O13 2.829139 1_555
K15 O56 2.884377 1_555
K15 O60 2.936138 1_555
K15 O42 3.069325 1_545
K16 O66 2.560462 1_555
K16 O27 2.706039 1_555
K16 O42 2.737387 1_555
K16 O15 2.748260 1_555
K16 O6 2.769763 1_555
K16 O18 2.772181 1_555
K16 O58 2.816115 1_555
K16 O62 2.839938 1_555
K17 O67 2.566917 1_555
K17 O14 2.635614 1_556
K17 O26 2.665364 1_556
K17 O19 2.717268 1_555
K17 O43 2.734162 1_555
K17 O59 2.760235 1_555
K17 O7 2.800290 1_555
K17 O63 2.845396 1_555
K17 O41 3.091227 1_555
K18 O70 2.690814 1_555
K18 O46 2.711010 1_555
K18 O22 2.758438 1_555
K18 O2 2.780119 1_655
K18 O31 2.796556 1_555
K18 O11 2.883453 1_655
K18 O62 2.971909 1_555
K18 O58 3.020718 1_655
K18 O76 3.118649 1_555
K18 O44 3.168385 1_555
K19 O71 2.661969 1_555
K19 O30 2.703616 1_555
K19 O3 2.717820 1_655
K19 O10 2.724074 1_655
K19 O47 2.769139 1_555
K19 O23 2.821630 1_555
K19 O63 3.004746 1_555
K19 O59 3.113250 1_655
Na0 O65 2.369787 1_555
Na0 O0 2.457742 1_555
Na0 O16 2.509962 1_555
Na0 O49 2.534904 1_555
Na0 O11 2.630308 1_545
Na0 O27 2.755936 1_545
Na0 O37 2.944708 1_555
Na0 O33 3.012787 1_555
Na1 O67 2.306603 1_555
Na1 O2 2.458208 1_555
Na1 O51 2.468617 1_555
Na1 O18 2.531195 1_555
Na1 O9 2.659051 1_555
Na1 O25 2.697632 1_555
Na1 O35 2.717752 1_555
Na1 O39 2.934994 1_555
Na2 O53 2.395486 1_555
Na2 O69 2.414496 1_555
Na2 O4 2.456053 1_555
Na2 O15 2.510696 1_545
Na2 O20 2.604961 1_555
Na2 O31 2.673479 1_545
Na2 O33 2.781732 1_655
Na3 O72 2.330294 1_555
Na3 O9 2.485603 1_555
Na3 O25 2.526657 1_555
Na3 O2 2.564679 1_555
Na3 O18 2.642950 1_555
Na3 O56 2.689193 1_555
Na3 O44 2.929812 1_455
Na4 O73 2.464166 1_555
Na4 O3 2.467276 1_555
Na4 O8 2.484065 1_555
Na4 O24 2.493254 1_555
Na4 O19 2.682385 1_555
Na4 O57 2.762039 1_555
Na5 O73 2.374223 1_555
Na5 O33 2.436072 1_555
Na5 O20 2.521337 1_455
Na5 O0 2.549014 1_555
Na5 O29 2.576555 1_455
Na5 O53 2.661150 1_455
Na5 O9 2.816762 1_555
Na6 O75 2.431445 1_555
Na6 O22 2.550889 1_455
Na6 O11 2.609558 1_555
Na6 O35 2.624038 1_555
Na6 O2 2.651542 1_555
Na6 O31 2.706774 1_455
Na6 O55 2.726216 1_455
Na7 O77 2.393208 1_555
Na7 O37 2.448904 1_555
Na7 O16 2.454976 1_555
Na7 O4 2.500173 1_555
Na7 O13 2.620710 1_555
Na7 O25 2.642178 1_555
Na7 O49 2.930946 1_555
Na8 O79 2.500222 1_555
Na8 O6 2.537622 1_555
Na8 O18 2.570316 1_555
Na8 O27 2.593072 1_555
Na8 O39 2.642895 1_555
Na8 O15 2.693008 1_555
Na8 O51 2.726770 1_555
Na9 O24 2.444765 1_555
Na9 O65 2.453986 1_555
Na9 O12 2.479495 1_555
Na9 O17 2.587075 1_555
Na9 O5 2.643238 1_555
Na9 O41 2.845524 1_555
Na9 O57 2.951892 1_555
Na9 O61 2.952284 1_555
Na10 O68 2.362381 1_555
Na10 O29 2.501062 1_555
Na10 O9 2.518953 1_655
Na10 O20 2.520115 1_555
Na10 O44 2.587406 1_555
Na10 O0 2.640067 1_655
Na10 O60 2.947049 1_555
Na10 O56 2.970477 1_655
Na11 O69 2.446384 1_555
Na11 O45 2.456648 1_555
Na11 O28 2.458867 1_555
Na11 O8 2.467943 1_655
Na11 O21 2.620044 1_555
Na11 O1 2.709681 1_655
Na11 O57 2.940249 1_655
Na11 O61 2.992981 1_555
Nb0 O31 2.036637 1_445
Nb0 O0 2.041838 1_555
Nb0 O20 2.086834 1_455
Nb0 O33 2.087261 1_555
Nb0 O11 2.097867 1_545
Nb0 O46 2.226386 1_445
Nb1 O22 2.054116 1_455
Nb1 O2 2.059933 1_555
Nb1 O9 2.065053 1_555
Nb1 O29 2.070254 1_455
Nb1 O44 2.081775 1_455
Nb1 O35 2.189026 1_555
Nb2 O15 2.033232 1_545
Nb2 O4 2.059739 1_555
Nb2 O42 2.068531 1_545
Nb2 O27 2.069032 1_545
Nb2 O16 2.121223 1_555
Nb2 O37 2.135885 1_555
Nb3 O19 2.000314 1_555
Nb3 O7 2.027525 1_555
Nb3 O12 2.052460 1_555
Nb3 O38 2.053291 1_556
Nb3 O24 2.112170 1_555
Nb3 O41 2.168424 1_555
Nb4 O18 2.034292 1_555
Nb4 O13 2.071067 1_555
Nb4 O6 2.077626 1_555
Nb4 O39 2.086617 1_555
Nb4 O25 2.092680 1_555
Nb4 O40 2.141118 1_555
Nb5 O8 1.961204 1_555
Nb5 O17 1.968811 1_555
Nb5 O24 2.045136 1_555
Nb5 O1 2.062061 1_555
Nb5 O57 2.146513 1_555
Nb5 O48 2.184171 1_556
Nb6 O25 2.025896 1_555
Nb6 O9 2.030546 1_555
Nb6 O16 2.040081 1_555
Nb6 O49 2.064970 1_555
Nb6 O0 2.102559 1_555
Nb6 O56 2.174067 1_555
Nb7 O27 2.057858 1_555
Nb7 O11 2.064965 1_555
Nb7 O2 2.069381 1_555
Nb7 O18 2.070273 1_555
Nb7 O58 2.152119 1_555
Nb7 O51 2.164724 1_555
Nb8 O5 1.942380 1_555
Nb8 O28 1.981673 1_555
Nb8 O21 2.070796 1_555
Nb8 O12 2.096770 1_555
Nb8 O52 2.110677 1_556
Nb8 O61 2.157362 1_555
Nb9 O4 2.063305 1_555
Nb9 O60 2.063387 1_555
Nb9 O20 2.064927 1_555
Nb9 O29 2.076179 1_555
Nb9 O13 2.082178 1_555
Nb9 O53 2.109339 1_555
Nb10 O23 1.957204 1_555
Nb10 O14 1.983603 1_556
Nb10 O7 2.060752 1_555
Nb10 O30 2.061239 1_555
Nb10 O63 2.115541 1_555
Nb10 O54 2.296823 1_556
Nb11 O62 2.024449 1_555
Nb11 O31 2.057749 1_555
Nb11 O22 2.060937 1_555
Nb11 O6 2.064431 1_555
Nb11 O15 2.136070 1_555
Nb11 O55 2.219444 1_555
Nb12 O32 1.922120 1_555
Nb12 O56 1.940220 1_555
Nb12 O68 1.986518 1_455
Nb12 O74 2.012011 1_545
Nb13 O57 1.905994 1_555
Nb13 O33 1.932797 1_555
Nb13 O75 2.010851 1_545
Nb13 O69 2.020843 1_455
Nb14 O34 1.915622 1_555
Nb14 O58 1.936810 1_555
Nb14 O70 1.989631 1_455
Nb14 O72 2.030299 1_555
Nb15 O59 1.873011 1_555
Nb15 O35 1.909119 1_555
Nb15 O71 2.018112 1_455
Nb15 O73 2.033466 1_555
Nb16 O78 1.911538 1_545
Nb16 O36 1.912840 1_555
Nb16 O64 1.932192 1_555
Nb16 O60 1.957173 1_555
Nb17 O61 1.898797 1_555
Nb17 O37 1.911511 1_555
Nb17 O79 2.009166 1_545
Nb17 O65 2.010488 1_555
Nb18 O66 1.919622 1_555
Nb18 O38 1.965215 1_555
Nb18 O76 1.974382 1_555
Nb18 O62 1.993993 1_555
Nb19 O39 1.916444 1_555
Nb19 O63 1.948657 1_555
Nb19 O67 1.959251 1_555
Nb19 O77 1.977224 1_555
Nb20 O40 1.947603 1_555
Nb20 O48 1.950237 1_555
Nb20 O72 1.970179 1_555
Nb20 O66 2.003124 1_555
Nb21 O41 1.913073 1_555
Nb21 O49 1.938467 1_555
Nb21 O73 2.027931 1_555
Nb21 O67 2.038112 1_555
Nb22 O50 1.912277 1_555
Nb22 O74 1.948453 1_555
Nb22 O64 1.963314 1_565
Nb22 O42 2.000789 1_555
Nb23 O43 1.876194 1_555
Nb23 O51 1.906266 1_555
Nb23 O75 2.012380 1_555
Nb23 O65 2.014747 1_565
Nb24 O76 1.910639 1_555
Nb24 O70 1.925427 1_555
Nb24 O44 1.963447 1_555
Nb24 O52 1.968725 1_555
Nb25 O45 1.891513 1_555
Nb25 O53 1.917072 1_555
Nb25 O71 1.931855 1_555
Nb25 O77 1.974226 1_555
Nb26 O54 1.906771 1_555
Nb26 O46 1.912561 1_555
Nb26 O78 1.979550 1_555
Nb26 O68 2.037118 1_565
Nb27 O55 1.881149 1_555
Nb27 O47 1.889530 1_555
Nb27 O79 1.999250 1_555
Nb27 O69 2.004240 1_565
O1 W0 2.059606 1_445
O3 W3 2.041722 1_555
O3 W1 2.145123 1_555
O5 W2 2.121188 1_545
O8 W1 2.131810 1_555
O10 W0 2.046964 1_455
O10 W3 2.096578 1_555
O14 W2 2.209965 1_554
O17 W2 2.165950 1_545
O19 W3 2.096643 1_555
O21 W0 2.072413 1_545
O23 W1 2.154321 1_655
O26 W3 2.014725 1_554
O26 W2 2.124300 1_554
O28 W1 2.171341 1_655
O30 W0 2.067949 1_555
O32 W0 2.236128 1_444
O34 W1 2.264255 1_554
O36 W2 2.174559 1_544
O43 W2 2.251394 1_555
O45 W1 2.187471 1_655
O47 W0 2.219093 1_555
O50 W3 2.165679 1_554
O59 W3 2.208273 1_555
