# generated using pymatgen
data_Li9Mn2Co5O16
_symmetry_space_group_name_H-M   'P 1'
_cell_length_a   5.01494600
_cell_length_b   5.96337104
_cell_length_c   9.81949200
_cell_angle_alpha   86.10398420
_cell_angle_beta   78.89122878
_cell_angle_gamma   86.18114461
_symmetry_Int_Tables_number   1
_chemical_formula_structural   Li9Mn2Co5O16
_chemical_formula_sum   'Li9 Mn2 Co5 O16'
_cell_volume   287.06356921
_cell_formula_units_Z   1
loop_
 _symmetry_equiv_pos_site_id
 _symmetry_equiv_pos_as_xyz
  1  'x, y, z'
loop_
 _atom_site_type_symbol
 _atom_site_label
 _atom_site_symmetry_multiplicity
 _atom_site_fract_x
 _atom_site_fract_y
 _atom_site_fract_z
 _atom_site_occupancy
  Li  Li0  1  0.25065200  0.99459000  0.25160400  1
  Li  Li1  1  0.24238100  0.24794200  0.74401300  1
  Li  Li2  1  0.24248600  0.49723700  0.25674500  1
  Li  Li3  1  0.75963500  0.25814400  0.25648200  1
  Li  Li4  1  0.74809100  0.49255700  0.74488800  1
  Li  Li5  1  0.74340300  0.75129200  0.25263700  1
  Li  Li6  1  0.25231400  0.74562500  0.74691100  1
  Li  Li7  1  0.75532600  0.01257900  0.74466200  1
  Li  Li8  1  0.99918600  0.25204900  0.50165100  1
  Mn  Mn0  1  0.00073200  0.99611600  0.99852300  1
  Mn  Mn1  1  0.49914300  0.25344600  0.00132800  1
  Co  Co0  1  0.99864900  0.50298100  0.00142900  1
  Co  Co1  1  0.00313300  0.74811600  0.49943700  1
  Co  Co2  1  0.51145900  0.49406900  0.49737700  1
  Co  Co3  1  0.50093900  0.74742900  0.99827600  1
  Co  Co4  1  0.49352700  0.00387200  0.50382100  1
  O  O0  1  0.14094000  0.75851600  0.11522000  1
  O  O1  1  0.14578100  0.99041900  0.61254900  1
  O  O2  1  0.13524000  0.26704000  0.12023900  1
  O  O3  1  0.63619500  0.01235700  0.11831600  1
  O  O4  1  0.60975200  0.27473100  0.62058200  1
  O  O5  1  0.64029700  0.51847700  0.11359400  1
  O  O6  1  0.13573800  0.52392900  0.60666300  1
  O  O7  1  0.62215200  0.73661200  0.60185000  1
  O  O8  1  0.40543400  0.25935600  0.39638100  1
  O  O9  1  0.35551800  0.49266700  0.88643500  1
  O  O10  1  0.36335400  0.73078400  0.38147600  1
  O  O11  1  0.84749100  0.50631900  0.38595900  1
  O  O12  1  0.85887500  0.73143600  0.88320100  1
  O  O13  1  0.86991400  0.97942100  0.39348900  1
  O  O14  1  0.36785800  0.98183900  0.88249700  1
  O  O15  1  0.86440800  0.23805300  0.88176600  1
loop_
_geom_bond_atom_site_label_1
_geom_bond_atom_site_label_2
_geom_bond_distance
_geom_bond_site_symmetry_2
Li0 O10 2.075411 1_555
Li0 O3 2.120347 1_565
Li0 O2 2.125155 1_565
Li0 O13 2.139114 1_455
Li0 O0 2.172888 1_555
Li0 O8 2.451530 1_565
Li1 O4 2.010274 1_555
Li1 O15 2.107648 1_455
Li1 O14 2.160274 1_545
Li1 O6 2.161664 1_555
Li1 O1 2.206583 1_545
Li1 O9 2.258532 1_555
Li2 O10 2.106553 1_555
Li2 O0 2.119214 1_555
Li2 O11 2.136174 1_455
Li2 O8 2.138509 1_555
Li2 O2 2.143975 1_555
Li2 O5 2.213779 1_555
Li3 O8 2.025285 1_555
Li3 O2 2.091247 1_655
Li3 O11 2.135244 1_555
Li3 O5 2.154246 1_555
Li3 O13 2.176892 1_545
Li3 O3 2.255431 1_555
Li4 O4 2.078555 1_555
Li4 O15 2.087392 1_555
Li4 O7 2.105100 1_555
Li4 O6 2.157236 1_655
Li4 O9 2.180204 1_555
Li4 O12 2.200374 1_555
Li5 O11 2.005581 1_555
Li5 O10 2.080608 1_555
Li5 O3 2.082105 1_565
Li5 O5 2.164325 1_555
Li5 O0 2.182683 1_655
Li5 O13 2.207943 1_555
Li6 O1 2.015732 1_555
Li6 O9 2.075774 1_555
Li6 O7 2.109724 1_555
Li6 O6 2.155647 1_555
Li6 O12 2.163459 1_455
Li6 O14 2.180241 1_555
Li7 O4 2.096021 1_555
Li7 O1 2.131800 1_645
Li7 O15 2.132470 1_555
Li7 O14 2.154421 1_545
Li7 O12 2.185743 1_545
Li7 O7 2.437586 1_545
Li8 O1 2.021225 1_645
Li8 O11 2.028246 1_555
Li8 O4 2.074539 1_555
Li8 O8 2.101250 1_655
Li8 O6 2.192745 1_655
Li8 O13 2.198151 1_545
Mn0 O0 1.942223 1_556
Mn0 O15 1.951733 1_465
Mn0 O14 1.969518 1_555
Mn0 O3 1.974432 1_466
Mn0 O12 2.232180 1_455
Mn0 O2 2.282973 1_566
Mn1 O9 1.945313 1_554
Mn1 O3 1.951212 1_555
Mn1 O2 1.967854 1_555
Mn1 O15 1.976299 1_554
Mn1 O5 2.213771 1_555
Mn1 O14 2.261274 1_544
Co0 O12 1.914837 1_554
Co0 O5 1.918393 1_555
Co0 O9 1.922974 1_654
Co0 O2 1.940738 1_655
Co0 O0 2.182501 1_655
Co0 O15 2.242464 1_554
Co1 O6 1.816115 1_555
Co1 O13 1.838853 1_455
Co1 O10 1.949578 1_555
Co1 O7 1.983458 1_455
Co1 O1 2.120198 1_555
Co1 O11 2.152546 1_455
Co2 O11 1.826811 1_555
Co2 O4 1.829304 1_555
Co2 O8 1.927774 1_555
Co2 O10 1.951239 1_555
Co2 O6 1.983863 1_555
Co2 O7 1.995144 1_555
Co3 O5 1.898036 1_556
Co3 O14 1.908962 1_555
Co3 O12 1.928291 1_555
Co3 O0 1.943695 1_556
Co3 O9 2.174619 1_555
Co3 O3 2.247082 1_566
Co4 O1 1.864705 1_545
Co4 O8 1.871075 1_555
Co4 O7 1.943354 1_545
Co4 O13 1.988640 1_545
Co4 O4 2.213103 1_555
Co4 O10 2.287187 1_545
