# generated using pymatgen
data_Ba2TiVS6
_symmetry_space_group_name_H-M   'P 1'
_cell_length_a   6.81155863
_cell_length_b   6.81155863
_cell_length_c   5.66442800
_cell_angle_alpha   90.00000000
_cell_angle_beta   90.00000000
_cell_angle_gamma   120.00000616
_symmetry_Int_Tables_number   1
_chemical_formula_structural   Ba2TiVS6
_chemical_formula_sum   'Ba2 Ti1 V1 S6'
_cell_volume   227.60388167
_cell_formula_units_Z   1
loop_
 _symmetry_equiv_pos_site_id
 _symmetry_equiv_pos_as_xyz
  1  'x, y, z'
loop_
 _atom_site_type_symbol
 _atom_site_label
 _atom_site_symmetry_multiplicity
 _atom_site_fract_x
 _atom_site_fract_y
 _atom_site_fract_z
 _atom_site_occupancy
  Ba  Ba0  1  0.33333300  0.66666700  0.75209500  1
  Ba  Ba1  1  0.66666700  0.33333300  0.24790500  1
  Ti  Ti0  1  0.00000000  0.00000000  0.50000000  1
  V  V0  1  0.00000000  0.00000000  0.00000000  1
  S  S0  1  0.16500000  0.83500000  0.24282900  1
  S  S1  1  0.16500000  0.33000000  0.24282900  1
  S  S2  1  0.67000000  0.83500000  0.24282900  1
  S  S3  1  0.83500000  0.16500000  0.75717100  1
  S  S4  1  0.83500000  0.67000000  0.75717100  1
  S  S5  1  0.33000000  0.16500000  0.75717100  1
loop_
_geom_bond_atom_site_label_1
_geom_bond_atom_site_label_2
_geom_bond_distance
_geom_bond_site_symmetry_2
Ba0 S4 3.405954 1_455
Ba0 S5 3.405954 1_565
Ba0 S3 3.405957 1_455
Ba0 S3 3.405957 1_565
Ba0 S5 3.405961 1_555
Ba0 S4 3.405961 1_555
Ba0 S0 3.416289 1_556
Ba0 S1 3.416292 1_556
Ba0 S2 3.416292 1_556
Ba0 S0 3.502234 1_555
Ba0 S1 3.502237 1_555
Ba0 S2 3.502237 1_555
Ba1 S1 3.405954 1_655
Ba1 S2 3.405954 1_545
Ba1 S0 3.405957 1_655
Ba1 S0 3.405957 1_545
Ba1 S2 3.405961 1_555
Ba1 S1 3.405961 1_555
Ba1 S3 3.416289 1_554
Ba1 S5 3.416292 1_554
Ba1 S4 3.416292 1_554
Ba1 S3 3.502234 1_555
Ba1 S5 3.502237 1_555
Ba1 S4 3.502237 1_555
S0 V0 2.383583 1_565
S0 Ti0 2.431369 1_565
S1 V0 2.383583 1_555
S1 Ti0 2.431369 1_555
S2 V0 2.383583 1_665
S2 Ti0 2.431369 1_665
S3 V0 2.383583 1_656
S3 Ti0 2.431369 1_655
S4 V0 2.383583 1_666
S4 Ti0 2.431369 1_665
S5 V0 2.383583 1_556
S5 Ti0 2.431369 1_555
