# generated using pymatgen
data_MnFe2(PO9)2
_symmetry_space_group_name_H-M   'P 1'
_cell_length_a   6.86895600
_cell_length_b   10.04479032
_cell_length_c   10.26120020
_cell_angle_alpha   106.33120024
_cell_angle_beta   107.41085814
_cell_angle_gamma   94.67910957
_symmetry_Int_Tables_number   1
_chemical_formula_structural   MnFe2(PO9)2
_chemical_formula_sum   'Mn2 Fe4 P4 O36'
_cell_volume   637.59491596
_cell_formula_units_Z   2
loop_
 _symmetry_equiv_pos_site_id
 _symmetry_equiv_pos_as_xyz
  1  'x, y, z'
loop_
 _atom_site_type_symbol
 _atom_site_label
 _atom_site_symmetry_multiplicity
 _atom_site_fract_x
 _atom_site_fract_y
 _atom_site_fract_z
 _atom_site_occupancy
  Mn  Mn0  1  0.65188000  0.50192400  0.28037500  1
  Mn  Mn1  1  0.34812000  0.49807600  0.71962500  1
  Fe  Fe0  1  0.00000000  0.00000000  0.00000000  1
  Fe  Fe1  1  0.50000000  0.00000000  0.50000000  1
  Fe  Fe2  1  0.73724700  0.99878700  0.24745500  1
  Fe  Fe3  1  0.26275300  0.00121300  0.75254500  1
  P  P0  1  0.55505600  0.80547300  0.90732300  1
  P  P1  1  0.44494400  0.19452700  0.09267700  1
  P  P2  1  0.86417200  0.81419600  0.45994600  1
  P  P3  1  0.13582800  0.18580400  0.54005400  1
  O  O0  1  0.54647400  0.87396800  0.05904100  1
  O  O1  1  0.45352600  0.12603200  0.94095900  1
  O  O2  1  0.75090200  0.87482200  0.88712200  1
  O  O3  1  0.24909800  0.12517800  0.11287800  1
  O  O4  1  0.55925800  0.64512000  0.87569600  1
  O  O5  1  0.44074200  0.35488000  0.12430400  1
  O  O6  1  0.35704100  0.82209600  0.79469700  1
  O  O7  1  0.64295900  0.17790400  0.20530300  1
  O  O8  1  0.81606900  0.82806000  0.30736200  1
  O  O9  1  0.18393100  0.17194000  0.69263800  1
  O  O10  1  0.83265900  0.65446700  0.44532200  1
  O  O11  1  0.16734100  0.34553300  0.55467800  1
  O  O12  1  0.08986300  0.87878400  0.55467900  1
  O  O13  1  0.91013700  0.12121600  0.44532100  1
  O  O14  1  0.71941800  0.88856400  0.53856000  1
  O  O15  1  0.28058200  0.11143600  0.46144000  1
  O  O16  1  0.94528000  0.01934400  0.16622000  1
  O  O17  1  0.05472000  0.98065600  0.83378000  1
  O  O18  1  0.50636800  0.98577300  0.31786800  1
  O  O19  1  0.49363200  0.01422700  0.68213200  1
  O  O20  1  0.12135000  0.78648400  0.03376900  1
  O  O21  1  0.87865000  0.21351600  0.96623100  1
  O  O22  1  0.33725200  0.83039100  0.36811700  1
  O  O23  1  0.66274800  0.16960900  0.63188300  1
  O  O24  1  0.51735900  0.62775700  0.20307700  1
  O  O25  1  0.48264100  0.37224300  0.79692300  1
  O  O26  1  0.83458200  0.47279500  0.19457600  1
  O  O27  1  0.16541800  0.52720500  0.80542400  1
  O  O28  1  0.69695100  0.38804400  0.38869900  1
  O  O29  1  0.30304900  0.61195600  0.61130100  1
  O  O30  1  0.42578900  0.55661600  0.36460300  1
  O  O31  1  0.57421100  0.44338400  0.63539700  1
  O  O32  1  0.04918500  0.72046900  0.09744400  1
  O  O33  1  0.95081500  0.27953100  0.90255600  1
  O  O34  1  0.11524500  0.42767900  0.28595600  1
  O  O35  1  0.88475500  0.57232100  0.71404400  1
loop_
_geom_bond_atom_site_label_1
_geom_bond_atom_site_label_2
_geom_bond_distance
_geom_bond_site_symmetry_2
Mn0 O26 1.735488 1_555
Mn0 O28 1.790743 1_555
Mn0 O24 1.842904 1_555
Mn0 O10 1.930762 1_555
Mn0 O5 1.944219 1_555
Mn0 O30 2.033728 1_555
Mn1 O27 1.735488 1_555
Mn1 O29 1.790743 1_555
Mn1 O25 1.842904 1_555
Mn1 O11 1.930762 1_555
Mn1 O4 1.944219 1_555
Mn1 O31 2.033728 1_555
Fe0 O17 1.815861 1_544
Fe0 O16 1.815861 1_455
Fe0 O3 1.869277 1_555
Fe0 O2 1.869277 1_444
Fe0 O21 2.439564 1_454
Fe0 O20 2.439564 1_545
Fe1 O18 1.847928 1_545
Fe1 O19 1.847928 1_555
Fe1 O23 1.863049 1_555
Fe1 O22 1.863049 1_545
Fe1 O15 1.961763 1_555
Fe1 O14 1.961763 1_545
Fe2 O16 1.881733 1_565
Fe2 O18 1.938870 1_555
Fe2 O0 1.969669 1_555
Fe2 O13 1.989863 1_565
Fe2 O8 2.038902 1_555
Fe2 O7 2.074550 1_565
Fe3 O17 1.881733 1_545
Fe3 O19 1.938870 1_555
Fe3 O1 1.969669 1_555
Fe3 O12 1.989863 1_545
Fe3 O9 2.038902 1_555
Fe3 O6 2.074550 1_545
O0 P0 1.536120 1_554
O1 P1 1.536120 1_556
O2 P0 1.559848 1_555
O3 P1 1.559848 1_555
O4 P0 1.555560 1_555
O5 P1 1.555560 1_555
O6 P0 1.555113 1_555
O7 P1 1.555113 1_555
O8 P2 1.549356 1_555
O9 P3 1.549356 1_555
O10 P2 1.559524 1_555
O11 P3 1.559524 1_555
O12 P2 1.532498 1_455
O13 P3 1.532498 1_655
O14 P2 1.568341 1_555
O15 P3 1.568341 1_555
O20 O32 1.223188 1_555
O21 O33 1.223188 1_555
O26 O34 2.025082 1_655
O27 O35 2.025082 1_455
