# generated using pymatgen
data_Na2PdW6S2(NO3)2
_symmetry_space_group_name_H-M   'P 1'
_cell_length_a   6.51981511
_cell_length_b   8.22298006
_cell_length_c   7.64244822
_cell_angle_alpha   66.40086274
_cell_angle_beta   88.67093177
_cell_angle_gamma   100.33916216
_symmetry_Int_Tables_number   1
_chemical_formula_structural   Na2PdW6S2(NO3)2
_chemical_formula_sum   'Na2 Pd1 W6 S2 N2 O6'
_cell_volume   367.30797822
_cell_formula_units_Z   1
loop_
 _symmetry_equiv_pos_site_id
 _symmetry_equiv_pos_as_xyz
  1  'x, y, z'
loop_
 _atom_site_type_symbol
 _atom_site_label
 _atom_site_symmetry_multiplicity
 _atom_site_fract_x
 _atom_site_fract_y
 _atom_site_fract_z
 _atom_site_occupancy
  Na  Na0  1  0.37555600  0.27945300  0.67068600  1
  Na  Na1  1  0.62444400  0.72054700  0.32931400  1
  Pd  Pd0  1  0.00000000  0.50000000  0.00000000  1
  W  W0  1  0.85980400  0.19409800  0.50209900  1
  W  W1  1  0.14019600  0.80590200  0.49790100  1
  W  W2  1  0.99221500  0.88816900  0.86433100  1
  W  W3  1  0.00778500  0.11183100  0.13566900  1
  W  W4  1  0.53518200  0.10046600  0.31117900  1
  W  W5  1  0.46481800  0.89953400  0.68882100  1
  S  S0  1  0.25201300  0.44985200  0.20518500  1
  S  S1  1  0.74798700  0.55014800  0.79481500  1
  N  N0  1  0.70195800  0.03947900  0.15532300  1
  N  N1  1  0.29804200  0.96052100  0.84467700  1
  O  O0  1  0.29099600  0.25702800  0.20921100  1
  O  O1  1  0.70900400  0.74297200  0.79078900  1
  O  O2  1  0.45966300  0.56830600  0.17083100  1
  O  O3  1  0.54033700  0.43169400  0.82916900  1
  O  O4  1  0.16924300  0.39558800  0.41664500  1
  O  O5  1  0.83075700  0.60441200  0.58335500  1
loop_
_geom_bond_atom_site_label_1
_geom_bond_atom_site_label_2
_geom_bond_distance
_geom_bond_site_symmetry_2
Na0 O3 2.231598 1_555
Na0 O4 2.363994 1_555
Na1 O2 2.231598 1_555
Na1 O5 2.363994 1_555
Pd0 S0 2.274582 1_555
Pd0 S1 2.274582 1_454
N0 W4 1.861860 1_555
N0 W3 1.959858 1_655
N0 Na1 2.366929 1_545
N1 W5 1.861860 1_555
N1 W2 1.959858 1_455
N1 Na0 2.366929 1_565
O0 S0 1.638777 1_555
O0 W4 2.188446 1_555
O0 W3 2.223736 1_555
O1 S1 1.638777 1_555
O1 W5 2.188446 1_555
O1 W2 2.223736 1_555
O2 S0 1.468326 1_555
O3 S1 1.468326 1_555
O4 S0 1.548467 1_555
O4 W0 2.261541 1_455
O5 S1 1.548467 1_555
O5 W1 2.261541 1_655
