# generated using pymatgen
data_Sm6GaCo2
_symmetry_space_group_name_H-M   'P 1'
_cell_length_a   8.44403970
_cell_length_b   8.44403970
_cell_length_c   8.44403970
_cell_angle_alpha   112.14276278
_cell_angle_beta   109.15890969
_cell_angle_gamma   107.15124324
_symmetry_Int_Tables_number   1
_chemical_formula_structural   Sm6GaCo2
_chemical_formula_sum   'Sm12 Ga2 Co4'
_cell_volume   462.58288205
_cell_formula_units_Z   2
loop_
 _symmetry_equiv_pos_site_id
 _symmetry_equiv_pos_as_xyz
  1  'x, y, z'
loop_
 _atom_site_type_symbol
 _atom_site_label
 _atom_site_symmetry_multiplicity
 _atom_site_fract_x
 _atom_site_fract_y
 _atom_site_fract_z
 _atom_site_occupancy
  Sm  Sm0  1  0.56646900  0.26250100  0.30396700  1
  Sm  Sm1  1  0.18013200  0.21880700  0.39893900  1
  Sm  Sm2  1  0.18013200  0.78119300  0.96132500  1
  Sm  Sm3  1  0.67451500  0.48762400  0.81310900  1
  Sm  Sm4  1  0.67451500  0.86140600  0.18689100  1
  Sm  Sm5  1  0.95853400  0.26250100  0.69603300  1
  Sm  Sm6  1  0.04146600  0.73749900  0.30396700  1
  Sm  Sm7  1  0.32548500  0.51237600  0.18689100  1
  Sm  Sm8  1  0.32548500  0.13859400  0.81310900  1
  Sm  Sm9  1  0.81986800  0.21880700  0.03867500  1
  Sm  Sm10  1  0.81986800  0.78119300  0.60106100  1
  Sm  Sm11  1  0.43353100  0.73749900  0.69603300  1
  Ga  Ga0  1  0.00000000  0.50000000  0.50000000  1
  Ga  Ga1  1  0.50000000  0.00000000  0.50000000  1
  Co  Co0  1  0.88682600  0.88682600  0.00000000  1
  Co  Co1  1  0.33464500  0.50000000  0.83464500  1
  Co  Co2  1  0.66535500  0.50000000  0.16535500  1
  Co  Co3  1  0.11317400  0.11317400  0.00000000  1
loop_
_geom_bond_atom_site_label_1
_geom_bond_atom_site_label_2
_geom_bond_distance
_geom_bond_site_symmetry_2
Sm0 Sm8 3.514851 1_554
Sm0 Sm7 3.514856 1_555
Sm0 Sm2 3.556936 1_544
Sm0 Sm1 3.556942 1_555
Sm0 Sm9 3.566714 1_555
Sm0 Sm10 3.566721 1_555
Sm0 Sm4 3.629184 1_545
Sm0 Sm3 3.629192 1_555
Sm0 Sm5 3.837491 1_555
Sm1 Sm9 3.526222 1_455
Sm1 Sm6 3.556934 1_545
Sm1 Sm11 3.566721 1_555
Sm1 Sm5 3.566721 1_455
Sm1 Sm8 3.695210 1_555
Sm1 Sm3 3.695210 1_555
Sm1 Sm7 3.721752 1_555
Sm1 Sm4 3.721752 1_445
Sm2 Sm6 3.556934 1_556
Sm2 Sm5 3.566721 1_455
Sm2 Sm7 3.695210 1_556
Sm2 Sm4 3.695210 1_556
Sm2 Sm3 3.721752 1_455
Sm2 Sm8 3.721752 1_565
Sm3 Sm6 3.514850 1_656
Sm3 Sm5 3.629190 1_555
Sm3 Sm9 3.695210 1_556
Sm4 Sm6 3.514850 1_655
Sm4 Sm5 3.629190 1_565
Sm4 Sm9 3.721752 1_565
Sm5 Sm8 3.514850 1_655
Sm5 Sm7 3.514850 1_656
Sm5 Sm9 3.556934 1_556
Sm6 Sm9 3.566721 1_455
Sm6 Sm8 3.629190 1_565
Sm6 Sm7 3.629190 1_555
Sm7 Sm9 3.721752 1_455
Sm8 Sm9 3.695210 1_556
Sm10 Sm2 3.526222 1_655
Sm10 Sm5 3.556934 1_565
Sm10 Sm11 3.556942 1_555
Sm10 Sm6 3.566721 1_655
Sm10 Sm7 3.695210 1_555
Sm10 Sm4 3.695210 1_555
Sm10 Sm3 3.721752 1_555
Sm10 Sm8 3.721752 1_665
Sm11 Sm4 3.514851 1_556
Sm11 Sm3 3.514856 1_555
Sm11 Sm9 3.556936 1_566
Sm11 Sm2 3.566714 1_555
Sm11 Sm8 3.629184 1_565
Sm11 Sm7 3.629192 1_555
Sm11 Sm6 3.837491 1_555
Ga0 Sm11 3.058297 1_555
Ga0 Sm0 3.058297 1_455
Ga0 Sm6 3.058304 1_555
Ga0 Sm5 3.058304 1_455
Ga0 Sm9 3.183427 1_455
Ga0 Sm2 3.183427 1_555
Ga0 Sm10 3.183427 1_455
Ga0 Sm1 3.183427 1_555
Ga1 Sm5 3.257331 1_555
Ga1 Sm6 3.257331 1_545
Ga1 Sm11 3.257332 1_545
Ga1 Sm0 3.257332 1_555
Ga1 Sm4 3.431228 1_545
Ga1 Sm3 3.431228 1_555
Ga1 Sm7 3.431228 1_545
Ga1 Sm8 3.431228 1_555
Ga1 Sm2 3.749149 1_544
Ga1 Sm9 3.749149 1_556
Ga1 Sm10 3.749149 1_545
Ga1 Sm1 3.749149 1_555
Co0 Co3 2.269702 1_665
Co0 Sm4 2.763318 1_555
Co0 Sm3 2.763318 1_554
Co0 Sm10 2.941168 1_554
Co0 Sm1 2.941168 1_665
Co0 Sm9 2.941168 1_565
Co0 Sm2 2.941168 1_654
Co0 Sm6 3.330751 1_655
Co0 Sm11 3.330758 1_554
Co1 Sm11 2.740858 1_555
Co1 Sm5 2.740860 1_455
Co1 Sm8 2.964000 1_555
Co1 Sm7 2.964000 1_556
Co1 Sm4 2.964000 1_556
Co1 Sm3 2.964000 1_555
Co1 Sm2 3.051699 1_555
Co1 Sm1 3.051699 1_555
Co1 Co2 3.236950 1_556
Co1 Ga0 3.275466 1_555
Co2 Sm0 2.740858 1_555
Co2 Sm6 2.740860 1_655
Co2 Sm7 2.964000 1_555
Co2 Sm4 2.964000 1_555
Co2 Sm8 2.964000 1_554
Co2 Sm3 2.964000 1_554
Co2 Sm10 3.051699 1_555
Co2 Sm9 3.051699 1_555
Co2 Ga0 3.275466 1_655
Co3 Sm7 2.763318 1_555
Co3 Sm8 2.763318 1_554
Co3 Sm1 2.941168 1_555
Co3 Sm10 2.941168 1_444
Co3 Sm9 2.941168 1_455
Co3 Sm2 2.941168 1_544
Co3 Sm5 3.330751 1_454
Co3 Sm0 3.330758 1_555
