# generated using pymatgen
data_Mg6SiSn
_symmetry_space_group_name_H-M   'P 1'
_cell_length_a   5.15408300
_cell_length_b   6.08367400
_cell_length_c   11.01110500
_cell_angle_alpha   90.00000000
_cell_angle_beta   90.00000000
_cell_angle_gamma   90.00000000
_symmetry_Int_Tables_number   1
_chemical_formula_structural   Mg6SiSn
_chemical_formula_sum   'Mg12 Si2 Sn2'
_cell_volume   345.26157387
_cell_formula_units_Z   2
loop_
 _symmetry_equiv_pos_site_id
 _symmetry_equiv_pos_as_xyz
  1  'x, y, z'
loop_
 _atom_site_type_symbol
 _atom_site_label
 _atom_site_symmetry_multiplicity
 _atom_site_fract_x
 _atom_site_fract_y
 _atom_site_fract_z
 _atom_site_occupancy
  Mg  Mg0  1  0.00000000  0.74019500  0.09184900  1
  Mg  Mg1  1  0.00000000  0.25980500  0.09184900  1
  Mg  Mg2  1  0.00000000  0.00000000  0.33196200  1
  Mg  Mg3  1  0.50000000  0.24979200  0.41637700  1
  Mg  Mg4  1  0.50000000  0.75020800  0.41637700  1
  Mg  Mg5  1  0.50000000  0.00000000  0.16900000  1
  Mg  Mg6  1  0.00000000  0.24019500  0.59184900  1
  Mg  Mg7  1  0.00000000  0.75980500  0.59184900  1
  Mg  Mg8  1  0.00000000  0.50000000  0.83196200  1
  Mg  Mg9  1  0.50000000  0.74979200  0.91637700  1
  Mg  Mg10  1  0.50000000  0.25020800  0.91637700  1
  Mg  Mg11  1  0.50000000  0.50000000  0.66900000  1
  Si  Si0  1  0.50000000  0.50000000  0.14117700  1
  Si  Si1  1  0.50000000  0.00000000  0.64117700  1
  Sn  Sn0  1  0.00000000  0.50000000  0.34140700  1
  Sn  Sn1  1  0.00000000  0.00000000  0.84140700  1
loop_
_geom_bond_atom_site_label_1
_geom_bond_atom_site_label_2
_geom_bond_distance
_geom_bond_site_symmetry_2
Mg0 Mg1 2.922536 1_555
Mg0 Si0 3.011887 1_455
Mg0 Si0 3.011887 1_555
Mg0 Mg2 3.080334 1_565
Mg0 Sn0 3.112284 1_555
Mg0 Mg5 3.140226 1_465
Mg0 Mg5 3.140226 1_565
Mg0 Mg1 3.161138 1_565
Mg0 Sn1 3.178489 1_564
Mg0 Mg8 3.213146 1_554
Mg0 Mg9 3.221447 1_554
Mg0 Mg9 3.221447 1_454
Mg1 Si0 3.011887 1_455
Mg1 Si0 3.011887 1_555
Mg1 Mg2 3.080334 1_555
Mg1 Sn0 3.112284 1_555
Mg1 Mg5 3.140226 1_555
Mg1 Mg5 3.140226 1_455
Mg1 Sn1 3.178489 1_554
Mg1 Mg8 3.213146 1_554
Mg1 Mg10 3.221447 1_554
Mg1 Mg10 3.221447 1_454
Mg2 Sn0 3.043614 1_555
Mg2 Sn0 3.043614 1_545
Mg2 Mg6 3.213146 1_555
Mg2 Mg7 3.213146 1_545
Mg3 Si1 2.904555 1_555
Mg3 Sn0 3.104777 1_555
Mg3 Sn0 3.104777 1_655
Mg3 Mg6 3.221447 1_555
Mg3 Mg6 3.221447 1_655
Mg4 Si1 2.904555 1_565
Mg4 Sn0 3.104777 1_555
Mg4 Sn0 3.104777 1_655
Mg4 Mg7 3.221447 1_555
Mg4 Mg7 3.221447 1_655
Mg5 Si0 3.057226 1_545
Mg5 Si0 3.057226 1_555
Mg6 Mg7 2.922536 1_545
Mg6 Si1 3.011887 1_455
Mg6 Si1 3.011887 1_555
Mg6 Mg8 3.080334 1_555
Mg6 Sn1 3.112284 1_555
Mg6 Mg7 3.161138 1_555
Mg6 Sn0 3.178489 1_555
Mg7 Si1 3.011887 1_565
Mg7 Si1 3.011887 1_465
Mg7 Mg8 3.080334 1_555
Mg7 Sn1 3.112284 1_565
Mg7 Sn0 3.178489 1_555
Mg8 Sn1 3.043614 1_555
Mg8 Sn1 3.043614 1_565
Mg9 Si0 2.904555 1_556
Mg9 Sn1 3.104777 1_565
Mg9 Sn1 3.104777 1_665
Mg10 Si0 2.904555 1_556
Mg10 Sn1 3.104777 1_555
Mg10 Sn1 3.104777 1_655
Mg11 Si1 3.057226 1_555
Mg11 Si1 3.057226 1_565
Mg11 Mg7 3.140226 1_655
Mg11 Mg6 3.140226 1_555
Mg11 Mg7 3.140226 1_555
Mg11 Mg6 3.140226 1_655
