# generated using pymatgen
data_Ca2Fe6Se9Cl4O27
_symmetry_space_group_name_H-M   'P 1'
_cell_length_a   12.32451605
_cell_length_b   12.32451605
_cell_length_c   12.96189400
_cell_angle_alpha   90.00000000
_cell_angle_beta   90.00000000
_cell_angle_gamma   120.00000025
_symmetry_Int_Tables_number   1
_chemical_formula_structural   Ca2Fe6Se9Cl4O27
_chemical_formula_sum   'Ca4 Fe12 Se18 Cl8 O54'
_cell_volume   1705.05677772
_cell_formula_units_Z   2
loop_
 _symmetry_equiv_pos_site_id
 _symmetry_equiv_pos_as_xyz
  1  'x, y, z'
loop_
 _atom_site_type_symbol
 _atom_site_label
 _atom_site_symmetry_multiplicity
 _atom_site_fract_x
 _atom_site_fract_y
 _atom_site_fract_z
 _atom_site_occupancy
  Ca  Ca0  1  0.66666700  0.33333300  0.61506000  1
  Ca  Ca1  1  0.33333300  0.66666700  0.11506000  1
  Ca  Ca2  1  0.33333300  0.66666700  0.38494000  1
  Ca  Ca3  1  0.66666700  0.33333300  0.88494000  1
  Fe  Fe0  1  0.10662000  0.41526300  0.75000000  1
  Fe  Fe1  1  0.58473700  0.69135600  0.75000000  1
  Fe  Fe2  1  0.30864400  0.89338000  0.75000000  1
  Fe  Fe3  1  0.89338000  0.58473700  0.25000000  1
  Fe  Fe4  1  0.41526300  0.30864400  0.25000000  1
  Fe  Fe5  1  0.69135600  0.10662000  0.25000000  1
  Fe  Fe6  1  0.00000000  0.50000000  0.50000000  1
  Fe  Fe7  1  0.50000000  0.50000000  0.50000000  1
  Fe  Fe8  1  0.50000000  0.00000000  0.50000000  1
  Fe  Fe9  1  0.00000000  0.50000000  0.00000000  1
  Fe  Fe10  1  0.50000000  0.50000000  0.00000000  1
  Fe  Fe11  1  0.50000000  0.00000000  0.00000000  1
  Se  Se0  1  0.96903300  0.55538500  0.75000000  1
  Se  Se1  1  0.44461500  0.41364800  0.75000000  1
  Se  Se2  1  0.58635200  0.03096700  0.75000000  1
  Se  Se3  1  0.03096700  0.44461500  0.25000000  1
  Se  Se4  1  0.55538500  0.58635200  0.25000000  1
  Se  Se5  1  0.41364800  0.96903300  0.25000000  1
  Se  Se6  1  0.19331800  0.36420300  0.50953100  1
  Se  Se7  1  0.63579700  0.82911500  0.50953100  1
  Se  Se8  1  0.17088500  0.80668200  0.50953100  1
  Se  Se9  1  0.80668200  0.63579700  0.00953100  1
  Se  Se10  1  0.36420300  0.17088500  0.00953100  1
  Se  Se11  1  0.82911500  0.19331800  0.00953100  1
  Se  Se12  1  0.80668200  0.63579700  0.49046900  1
  Se  Se13  1  0.36420300  0.17088500  0.49046900  1
  Se  Se14  1  0.82911500  0.19331800  0.49046900  1
  Se  Se15  1  0.19331800  0.36420300  0.99046900  1
  Se  Se16  1  0.63579700  0.82911500  0.99046900  1
  Se  Se17  1  0.17088500  0.80668200  0.99046900  1
  Cl  Cl0  1  0.92736000  0.21805600  0.75000000  1
  Cl  Cl1  1  0.78194400  0.70930400  0.75000000  1
  Cl  Cl2  1  0.29069600  0.07264000  0.75000000  1
  Cl  Cl3  1  0.07264000  0.78194400  0.25000000  1
  Cl  Cl4  1  0.21805600  0.29069600  0.25000000  1
  Cl  Cl5  1  0.70930400  0.92736000  0.25000000  1
  Cl  Cl6  1  0.33333300  0.66666700  0.75000000  1
  Cl  Cl7  1  0.66666700  0.33333300  0.25000000  1
  O  O0  1  0.83466000  0.33377100  0.52174800  1
  O  O1  1  0.66622900  0.50088900  0.52174800  1
  O  O2  1  0.49911100  0.16534000  0.52174800  1
  O  O3  1  0.16534000  0.66622900  0.02174800  1
  O  O4  1  0.33377100  0.49911100  0.02174800  1
  O  O5  1  0.50088900  0.83466000  0.02174800  1
  O  O6  1  0.16534000  0.66622900  0.47825200  1
  O  O7  1  0.33377100  0.49911100  0.47825200  1
  O  O8  1  0.50088900  0.83466000  0.47825200  1
  O  O9  1  0.83466000  0.33377100  0.97825200  1
  O  O10  1  0.66622900  0.50088900  0.97825200  1
  O  O11  1  0.49911100  0.16534000  0.97825200  1
  O  O12  1  0.19114000  0.37933200  0.64021300  1
  O  O13  1  0.62066800  0.81180800  0.64021300  1
  O  O14  1  0.18819200  0.80886000  0.64021300  1
  O  O15  1  0.80886000  0.62066800  0.14021300  1
  O  O16  1  0.37933200  0.18819200  0.14021300  1
  O  O17  1  0.81180800  0.19114000  0.14021300  1
  O  O18  1  0.80886000  0.62066800  0.35978700  1
  O  O19  1  0.37933200  0.18819200  0.35978700  1
  O  O20  1  0.81180800  0.19114000  0.35978700  1
  O  O21  1  0.19114000  0.37933200  0.85978700  1
  O  O22  1  0.62066800  0.81180800  0.85978700  1
  O  O23  1  0.18819200  0.80886000  0.85978700  1
  O  O24  1  0.81646100  0.44303100  0.75000000  1
  O  O25  1  0.55696900  0.37343000  0.75000000  1
  O  O26  1  0.62657000  0.18353900  0.75000000  1
  O  O27  1  0.18353900  0.55696900  0.25000000  1
  O  O28  1  0.44303100  0.62657000  0.25000000  1
  O  O29  1  0.37343000  0.81646100  0.25000000  1
  O  O30  1  0.03511300  0.50043200  0.65488800  1
  O  O31  1  0.49956800  0.53468100  0.65488800  1
  O  O32  1  0.46531900  0.96488700  0.65488800  1
  O  O33  1  0.96488700  0.49956800  0.15488800  1
  O  O34  1  0.50043200  0.46531900  0.15488800  1
  O  O35  1  0.53468100  0.03511300  0.15488800  1
  O  O36  1  0.96488700  0.49956800  0.34511200  1
  O  O37  1  0.50043200  0.46531900  0.34511200  1
  O  O38  1  0.53468100  0.03511300  0.34511200  1
  O  O39  1  0.03511300  0.50043200  0.84511200  1
  O  O40  1  0.49956800  0.53468100  0.84511200  1
  O  O41  1  0.46531900  0.96488700  0.84511200  1
  O  O42  1  0.91157600  0.59259900  0.53823400  1
  O  O43  1  0.40740100  0.31897700  0.53823400  1
  O  O44  1  0.68102300  0.08842400  0.53823400  1
  O  O45  1  0.08842400  0.40740100  0.03823400  1
  O  O46  1  0.59259900  0.68102300  0.03823400  1
  O  O47  1  0.31897700  0.91157600  0.03823400  1
  O  O48  1  0.08842400  0.40740100  0.46176600  1
  O  O49  1  0.59259900  0.68102300  0.46176600  1
  O  O50  1  0.31897700  0.91157600  0.46176600  1
  O  O51  1  0.91157600  0.59259900  0.96176600  1
  O  O52  1  0.40740100  0.31897700  0.96176600  1
  O  O53  1  0.68102300  0.08842400  0.96176600  1
loop_
_geom_bond_atom_site_label_1
_geom_bond_atom_site_label_2
_geom_bond_distance
_geom_bond_site_symmetry_2
Ca0 O0 2.395503 1_555
Ca0 O2 2.395508 1_555
Ca0 O1 2.395513 1_555
Ca0 O26 2.408193 1_555
Ca0 O24 2.408195 1_555
Ca0 O25 2.408201 1_555
Ca1 O3 2.395503 1_555
Ca1 O5 2.395508 1_555
Ca1 O4 2.395513 1_555
Ca1 O29 2.408193 1_555
Ca1 O27 2.408195 1_555
Ca1 O28 2.408201 1_555
Ca2 O6 2.395503 1_555
Ca2 O8 2.395508 1_555
Ca2 O7 2.395513 1_555
Ca2 O29 2.408193 1_555
Ca2 O27 2.408195 1_555
Ca2 O28 2.408201 1_555
Ca3 O9 2.395503 1_555
Ca3 O11 2.395508 1_555
Ca3 O10 2.395513 1_555
Ca3 O26 2.408193 1_555
Ca3 O24 2.408195 1_555
Ca3 O25 2.408201 1_555
Fe0 O21 1.941010 1_555
Fe0 O12 1.941010 1_555
Fe0 O30 2.079280 1_555
Fe0 O39 2.079280 1_555
Fe1 O22 1.941018 1_555
Fe1 O13 1.941018 1_555
Fe1 O40 2.079271 1_555
Fe1 O31 2.079271 1_555
Fe2 O23 1.941016 1_555
Fe2 O14 1.941016 1_555
Fe2 O41 2.079271 1_555
Fe2 O32 2.079271 1_555
Fe3 O18 1.941010 1_555
Fe3 O15 1.941010 1_555
Fe3 O36 2.079280 1_555
Fe3 O33 2.079280 1_555
Fe4 O19 1.941018 1_555
Fe4 O16 1.941018 1_555
Fe4 O34 2.079271 1_555
Fe4 O37 2.079271 1_555
Fe5 O20 1.941016 1_555
Fe5 O17 1.941016 1_555
Fe5 O38 2.079271 1_555
Fe5 O35 2.079271 1_555
Fe6 O42 1.994833 1_455
Fe6 O48 1.994833 1_555
Fe6 O30 2.053198 1_555
Fe6 O36 2.053198 1_455
Fe6 O0 2.062590 1_455
Fe6 O6 2.062590 1_555
Fe7 O49 1.994833 1_555
Fe7 O43 1.994833 1_555
Fe7 O37 2.053198 1_555
Fe7 O31 2.053198 1_555
Fe7 O7 2.062590 1_555
Fe7 O1 2.062590 1_555
Fe8 O44 1.994833 1_555
Fe8 O50 1.994833 1_545
Fe8 O38 2.053198 1_555
Fe8 O32 2.053198 1_545
Fe8 O8 2.062590 1_545
Fe8 O2 2.062590 1_555
Fe9 O51 1.994833 1_454
Fe9 O45 1.994833 1_555
Fe9 O39 2.053198 1_554
Fe9 O33 2.053198 1_455
Fe9 O9 2.062590 1_454
Fe9 O3 2.062590 1_555
Fe10 O46 1.994833 1_555
Fe10 O52 1.994833 1_554
Fe10 O34 2.053198 1_555
Fe10 O40 2.053198 1_554
Fe10 O4 2.062590 1_555
Fe10 O10 2.062590 1_554
Fe11 O53 1.994833 1_554
Fe11 O47 1.994833 1_545
Fe11 O35 2.053198 1_555
Fe11 O41 2.053198 1_544
Fe11 O5 2.062590 1_545
Fe11 O11 2.062590 1_554
Cl0 Fe0 2.327782 1_655
Cl1 Fe1 2.327776 1_555
Cl2 Fe2 2.327789 1_545
Cl3 Fe3 2.327782 1_455
Cl4 Fe4 2.327776 1_555
Cl5 Fe5 2.327789 1_565
Cl6 Fe2 2.958029 1_555
Cl6 Fe0 2.958043 1_555
Cl6 Fe1 2.958053 1_555
Cl7 Fe5 2.958029 1_555
Cl7 Fe3 2.958043 1_555
Cl7 Fe4 2.958053 1_555
O0 Se14 1.745613 1_555
O1 Se12 1.745613 1_555
O2 Se13 1.745613 1_555
O3 Se17 1.745613 1_554
O4 Se15 1.745613 1_554
O5 Se16 1.745613 1_554
O6 Se8 1.745613 1_555
O7 Se6 1.745613 1_555
O8 Se7 1.745613 1_555
O9 Se11 1.745613 1_556
O10 Se9 1.745613 1_556
O11 Se10 1.745613 1_556
O12 Se6 1.705797 1_555
O13 Se7 1.705797 1_555
O14 Se8 1.705797 1_555
O15 Se9 1.705797 1_555
O16 Se10 1.705797 1_555
O17 Se11 1.705797 1_555
O18 Se12 1.705797 1_555
O19 Se13 1.705797 1_555
O20 Se14 1.705797 1_555
O21 Se15 1.705797 1_555
O22 Se16 1.705797 1_555
O23 Se17 1.705797 1_555
O24 Se0 1.688034 1_555
O25 Se1 1.688034 1_555
O26 Se2 1.688034 1_555
O27 Se3 1.688034 1_555
O28 Se4 1.688034 1_555
O29 Se5 1.688034 1_555
O30 Se0 1.787006 1_455
O31 Se1 1.787006 1_555
O32 Se2 1.787006 1_565
O33 Se3 1.787006 1_655
O34 Se4 1.787006 1_555
O35 Se5 1.787006 1_545
O36 Se3 1.787006 1_655
O37 Se4 1.787006 1_555
O38 Se5 1.787006 1_545
O39 Se0 1.787006 1_455
O40 Se1 1.787006 1_555
O41 Se2 1.787006 1_565
O42 Se12 1.739618 1_555
O43 Se13 1.739618 1_555
O44 Se14 1.739618 1_555
O45 Se15 1.739618 1_554
O46 Se16 1.739618 1_554
O47 Se17 1.739618 1_554
O48 Se6 1.739618 1_555
O49 Se7 1.739618 1_555
O50 Se8 1.739618 1_555
O51 Se9 1.739618 1_556
O52 Se10 1.739618 1_556
O53 Se11 1.739618 1_556
