# generated using pymatgen
data_AsXe2F9
_symmetry_space_group_name_H-M   'P 1'
_cell_length_a   14.24087058
_cell_length_b   14.24087058
_cell_length_c   15.89528118
_cell_angle_alpha   56.20730552
_cell_angle_beta   56.20730552
_cell_angle_gamma   37.19468317
_symmetry_Int_Tables_number   1
_chemical_formula_structural   AsXe2F9
_chemical_formula_sum   'As6 Xe12 F54'
_cell_volume   1577.91809861
_cell_formula_units_Z   6
loop_
 _symmetry_equiv_pos_site_id
 _symmetry_equiv_pos_as_xyz
  1  'x, y, z'
loop_
 _atom_site_type_symbol
 _atom_site_label
 _atom_site_symmetry_multiplicity
 _atom_site_fract_x
 _atom_site_fract_y
 _atom_site_fract_z
 _atom_site_occupancy
  As  As0  1  0.17617800  0.65162600  0.66241700  1
  As  As1  1  0.34837400  0.82382200  0.83758300  1
  As  As2  1  0.82382200  0.34837400  0.33758300  1
  As  As3  1  0.65162600  0.17617800  0.16241700  1
  As  As4  1  0.50000000  0.00000000  0.00000000  1
  As  As5  1  0.00000000  0.50000000  0.50000000  1
  Xe  Xe0  1  0.85160200  0.26025100  0.80315400  1
  Xe  Xe1  1  0.27138500  0.50607500  0.95140900  1
  Xe  Xe2  1  0.49392500  0.72861500  0.54859100  1
  Xe  Xe3  1  0.72861500  0.49392500  0.04859100  1
  Xe  Xe4  1  0.26877500  0.17106300  0.32837800  1
  Xe  Xe5  1  0.73122500  0.82893700  0.67162200  1
  Xe  Xe6  1  0.82893700  0.73122500  0.17162200  1
  Xe  Xe7  1  0.17106300  0.26877500  0.82837800  1
  Xe  Xe8  1  0.14839800  0.73974900  0.19684600  1
  Xe  Xe9  1  0.50607500  0.27138500  0.45140900  1
  Xe  Xe10  1  0.73974900  0.14839800  0.69684600  1
  Xe  Xe11  1  0.26025100  0.85160200  0.30315400  1
  F  F0  1  0.37357400  0.67443900  0.95085300  1
  F  F1  1  0.23944500  0.83273900  0.80583700  1
  F  F2  1  0.54222700  0.18487900  0.13152900  1
  F  F3  1  0.63321600  0.79169600  0.05510400  1
  F  F4  1  0.81512100  0.45777300  0.36847100  1
  F  F5  1  0.47189500  0.32538500  0.23486000  1
  F  F6  1  0.01134400  0.34619200  0.54531900  1
  F  F7  1  0.83273900  0.23944500  0.30583700  1
  F  F8  1  0.34619200  0.01134400  0.04531900  1
  F  F9  1  0.32177900  0.97446700  0.72428700  1
  F  F10  1  0.36678400  0.20830400  0.94489600  1
  F  F11  1  0.67461500  0.52810500  0.26514000  1
  F  F12  1  0.64144900  0.14234900  0.64860000  1
  F  F13  1  0.97381500  0.16814800  0.40959800  1
  F  F14  1  0.19191700  0.35134800  0.20334500  1
  F  F15  1  0.02618500  0.83185200  0.59040200  1
  F  F16  1  0.50039100  0.62528700  0.12701100  1
  F  F17  1  0.97446700  0.32177900  0.22428700  1
  F  F18  1  0.79169600  0.63321600  0.55510400  1
  F  F19  1  0.66158200  0.01360500  0.52484800  1
  F  F20  1  0.80808300  0.64865200  0.79665500  1
  F  F21  1  0.03555900  0.44264800  0.61855100  1
  F  F22  1  0.45777300  0.81512100  0.86847100  1
  F  F23  1  0.76055500  0.16726100  0.19416300  1
  F  F24  1  0.35855100  0.85765100  0.35140000  1
  F  F25  1  0.01360500  0.66158200  0.02484800  1
  F  F26  1  0.98639500  0.33841800  0.97515200  1
  F  F27  1  0.18487900  0.54222700  0.63152900  1
  F  F28  1  0.64865200  0.80808300  0.29665500  1
  F  F29  1  0.37471300  0.49960900  0.37298900  1
  F  F30  1  0.16726100  0.76055500  0.69416300  1
  F  F31  1  0.98865600  0.65380800  0.45468100  1
  F  F32  1  0.67822100  0.02553300  0.27571300  1
  F  F33  1  0.83185200  0.02618500  0.09040200  1
  F  F34  1  0.13243200  0.86756800  0.25000000  1
  F  F35  1  0.52810500  0.67461500  0.76514000  1
  F  F36  1  0.96444100  0.55735200  0.38144900  1
  F  F37  1  0.49960900  0.37471300  0.87298900  1
  F  F38  1  0.35134800  0.19191700  0.70334500  1
  F  F39  1  0.16814800  0.97381500  0.90959800  1
  F  F40  1  0.55735200  0.96444100  0.88144900  1
  F  F41  1  0.62642600  0.32556100  0.04914700  1
  F  F42  1  0.65380800  0.98865600  0.95468100  1
  F  F43  1  0.14234900  0.64144900  0.14860000  1
  F  F44  1  0.67443900  0.37357400  0.45085300  1
  F  F45  1  0.20830400  0.36678400  0.44489600  1
  F  F46  1  0.44264800  0.03555900  0.11855100  1
  F  F47  1  0.32556100  0.62642600  0.54914700  1
  F  F48  1  0.62528700  0.50039100  0.62701100  1
  F  F49  1  0.02553300  0.67822100  0.77571300  1
  F  F50  1  0.32538500  0.47189500  0.73486000  1
  F  F51  1  0.33841800  0.98639500  0.47515200  1
  F  F52  1  0.85765100  0.35855100  0.85140000  1
  F  F53  1  0.86756800  0.13243200  0.75000000  1
loop_
_geom_bond_atom_site_label_1
_geom_bond_atom_site_label_2
_geom_bond_distance
_geom_bond_site_symmetry_2
As0 F47 1.771399 1_555
As0 F49 1.776398 1_555
As0 F27 1.777419 1_555
As0 F30 1.778411 1_555
As0 F50 1.780640 1_555
As0 F15 1.782644 1_555
As1 F0 1.771399 1_555
As1 F9 1.776398 1_555
As1 F22 1.777419 1_555
As1 F1 1.778411 1_555
As1 F35 1.780640 1_555
As1 F39 1.782644 1_555
As2 F44 1.771399 1_555
As2 F17 1.776398 1_555
As2 F4 1.777419 1_555
As2 F7 1.778411 1_555
As2 F11 1.780640 1_555
As2 F13 1.782644 1_555
As3 F41 1.771399 1_555
As3 F32 1.776398 1_555
As3 F2 1.777419 1_555
As3 F23 1.778411 1_555
As3 F5 1.780640 1_555
As3 F33 1.782644 1_555
As4 F42 1.775736 1_544
As4 F8 1.775736 1_555
As4 F10 1.777147 1_554
As4 F3 1.777147 1_545
As4 F46 1.779044 1_555
As4 F40 1.779044 1_544
As5 F31 1.775736 1_455
As5 F6 1.775736 1_555
As5 F18 1.777147 1_455
As5 F45 1.777147 1_555
As5 F21 1.779044 1_555
As5 F36 1.779044 1_455
F12 Xe10 2.003742 1_555
F14 Xe4 2.001572 1_555
F16 Xe3 2.004340 1_555
F19 Xe9 2.213610 1_555
F19 Xe5 2.221755 1_545
F20 Xe5 2.001572 1_555
F24 Xe11 2.003742 1_555
F25 Xe1 2.213610 1_554
F25 Xe6 2.221755 1_455
F26 Xe3 2.213610 1_556
F26 Xe7 2.221755 1_655
F28 Xe6 2.001572 1_555
F29 Xe9 2.004340 1_555
F34 Xe11 2.217335 1_555
F34 Xe8 2.217335 1_555
F37 Xe1 2.004340 1_555
F38 Xe7 2.001572 1_555
F43 Xe8 2.003742 1_555
F48 Xe2 2.004340 1_555
F51 Xe2 2.213610 1_555
F51 Xe4 2.221755 1_565
F52 Xe0 2.003742 1_555
F53 Xe0 2.217335 1_555
F53 Xe10 2.217335 1_555
