# generated using pymatgen
data_Er2Fe6Co6P7
_symmetry_space_group_name_H-M   'P 1'
_cell_length_a   3.60730700
_cell_length_b   8.98242400
_cell_length_c   8.98247072
_cell_angle_alpha   59.99830538
_cell_angle_beta   90.00000000
_cell_angle_gamma   90.00000000
_symmetry_Int_Tables_number   1
_chemical_formula_structural   Er2Fe6Co6P7
_chemical_formula_sum   'Er2 Fe6 Co6 P7'
_cell_volume   252.05521173
_cell_formula_units_Z   1
loop_
 _symmetry_equiv_pos_site_id
 _symmetry_equiv_pos_as_xyz
  1  'x, y, z'
loop_
 _atom_site_type_symbol
 _atom_site_label
 _atom_site_symmetry_multiplicity
 _atom_site_fract_x
 _atom_site_fract_y
 _atom_site_fract_z
 _atom_site_occupancy
  Er  Er0  1  0.50000000  0.33341800  0.33330900  1
  Er  Er1  1  0.00000000  0.66665400  0.66664100  1
  Fe  Fe0  1  0.50000000  0.12318200  0.78009700  1
  Fe  Fe1  1  0.50000000  0.09669600  0.12305000  1
  Fe  Fe2  1  0.50000000  0.78018400  0.09668300  1
  Fe  Fe3  1  0.50000000  0.94988300  0.61641700  1
  Fe  Fe4  1  0.50000000  0.43360500  0.94997400  1
  Fe  Fe5  1  0.50000000  0.61636100  0.43368700  1
  Co  Co0  1  0.00000000  0.36968800  0.56806400  1
  Co  Co1  1  0.00000000  0.06220300  0.36974600  1
  Co  Co2  1  0.00000000  0.56815700  0.06216000  1
  Co  Co3  1  0.00000000  0.88071000  0.84551700  1
  Co  Co4  1  0.00000000  0.27379900  0.88077900  1
  Co  Co5  1  0.00000000  0.84543400  0.27384800  1
  P  P0  1  0.00000000  0.99999800  0.99998300  1
  P  P1  1  0.50000000  0.70930900  0.88721800  1
  P  P2  1  0.50000000  0.40350600  0.70932200  1
  P  P3  1  0.50000000  0.88719200  0.40349800  1
  P  P4  1  0.00000000  0.11065600  0.59144000  1
  P  P5  1  0.00000000  0.29794500  0.11068000  1
  P  P6  1  0.00000000  0.59142100  0.29788800  1
loop_
_geom_bond_atom_site_label_1
_geom_bond_atom_site_label_2
_geom_bond_distance
_geom_bond_site_symmetry_2
Er0 P6 2.826266 1_555
Er0 P6 2.826266 1_655
Er0 P5 2.826827 1_655
Er0 P5 2.826827 1_555
Er0 P4 2.827254 1_655
Er0 P4 2.827254 1_555
Er0 Fe5 3.092557 1_555
Er0 Fe4 3.093103 1_554
Er0 Fe3 3.094209 1_545
Er1 P2 2.842712 1_455
Er1 P2 2.842712 1_555
Er1 P3 2.842842 1_555
Er1 P3 2.842842 1_455
Er1 P1 2.843377 1_455
Er1 P1 2.843377 1_555
Er1 Fe5 2.963302 1_455
Er1 Fe5 2.963302 1_555
Er1 Fe3 2.963319 1_455
Er1 Fe3 2.963319 1_555
Er1 Fe4 2.963872 1_555
Er1 Fe4 2.963872 1_455
Fe0 P2 2.267945 1_555
Fe0 P0 2.488578 1_645
Fe0 P0 2.488578 1_545
Fe0 P4 2.515590 1_655
Fe0 P4 2.515590 1_555
Fe1 P3 2.268583 1_545
Fe1 P0 2.487937 1_544
Fe1 P0 2.487937 1_644
Fe1 P5 2.516433 1_655
Fe1 P5 2.516433 1_555
Fe2 P1 2.267879 1_554
Fe2 P0 2.488177 1_654
Fe2 P0 2.488177 1_554
Fe2 P6 2.515929 1_655
Fe2 P6 2.515929 1_555
Fe3 P3 2.247653 1_555
Fe3 P4 2.250556 1_665
Fe3 P4 2.250556 1_565
Fe3 P1 2.308648 1_555
Fe4 P1 2.248263 1_555
Fe4 P5 2.250049 1_656
Fe4 P5 2.250049 1_556
Fe4 P2 2.308740 1_555
Fe5 P2 2.247565 1_555
Fe5 P6 2.250459 1_555
Fe5 P6 2.250459 1_655
Fe5 P3 2.309099 1_555
Co0 P4 2.229172 1_555
Co0 P6 2.241129 1_555
Co0 P2 2.311031 1_455
Co0 P2 2.311031 1_555
Co0 Er0 2.914252 1_555
Co0 Er0 2.914252 1_455
Co0 Er1 3.203365 1_555
Co1 P5 2.229632 1_555
Co1 P4 2.240908 1_555
Co1 P3 2.310782 1_445
Co1 P3 2.310782 1_545
Co1 Er0 2.915102 1_455
Co1 Er0 2.915102 1_555
Co1 Er1 3.203131 1_545
Co2 P6 2.229266 1_555
Co2 P5 2.241242 1_555
Co2 P1 2.310317 1_554
Co2 P1 2.310317 1_454
Co2 Er0 2.914682 1_555
Co2 Er0 2.914682 1_455
Co2 Er1 3.203326 1_554
Co3 P0 2.135411 1_555
Co3 P4 2.181891 1_565
Co3 P1 2.277521 1_555
Co3 P1 2.277521 1_455
Co3 Er1 3.060735 1_555
Co4 P0 2.135791 1_545
Co4 P5 2.181630 1_556
Co4 P2 2.277734 1_455
Co4 P2 2.277734 1_555
Co4 Er1 3.060103 1_555
Co5 P0 2.136246 1_554
Co5 P6 2.181707 1_555
Co5 P3 2.277485 1_455
Co5 P3 2.277485 1_555
Co5 Er1 3.059603 1_555
