# generated using pymatgen
data_Yb16Sb8S45
_symmetry_space_group_name_H-M   'P 1'
_cell_length_a   13.58955121
_cell_length_b   13.58955121
_cell_length_c   14.20792824
_cell_angle_alpha   80.80231173
_cell_angle_beta   80.80231173
_cell_angle_gamma   131.24046752
_symmetry_Int_Tables_number   1
_chemical_formula_structural   Yb16Sb8S45
_chemical_formula_sum   'Yb16 Sb8 S45'
_cell_volume   1819.08457281
_cell_formula_units_Z   1
loop_
 _symmetry_equiv_pos_site_id
 _symmetry_equiv_pos_as_xyz
  1  'x, y, z'
loop_
 _atom_site_type_symbol
 _atom_site_label
 _atom_site_symmetry_multiplicity
 _atom_site_fract_x
 _atom_site_fract_y
 _atom_site_fract_z
 _atom_site_occupancy
  Yb  Yb0  1  0.50333700  0.65930800  0.83955700  1
  Yb  Yb1  1  0.00550600  0.16411400  0.83069400  1
  Yb  Yb2  1  0.83588600  0.99449400  0.16930600  1
  Yb  Yb3  1  0.34069200  0.49666300  0.16044300  1
  Yb  Yb4  1  0.90855200  0.25240400  0.33929100  1
  Yb  Yb5  1  0.40721100  0.75132300  0.33935700  1
  Yb  Yb6  1  0.24867700  0.59278900  0.66064300  1
  Yb  Yb7  1  0.74759600  0.09144800  0.66070900  1
  Yb  Yb8  1  0.99449400  0.83588600  0.16930600  1
  Yb  Yb9  1  0.49666300  0.34069200  0.16044300  1
  Yb  Yb10  1  0.65930800  0.50333700  0.83955700  1
  Yb  Yb11  1  0.16411400  0.00550600  0.83069400  1
  Yb  Yb12  1  0.59278900  0.24867700  0.66064300  1
  Yb  Yb13  1  0.09144800  0.74759600  0.66070900  1
  Yb  Yb14  1  0.25240400  0.90855200  0.33929100  1
  Yb  Yb15  1  0.75132300  0.40721100  0.33935700  1
  Sb  Sb0  1  0.81199400  0.31216000  0.81473500  1
  Sb  Sb1  1  0.31216000  0.81199400  0.81473500  1
  Sb  Sb2  1  0.18800600  0.68784000  0.18526500  1
  Sb  Sb3  1  0.68784000  0.18800600  0.18526500  1
  Sb  Sb4  1  0.12568500  0.12568500  0.31561200  1
  Sb  Sb5  1  0.62367000  0.62367000  0.31589000  1
  Sb  Sb6  1  0.37633000  0.37633000  0.68411000  1
  Sb  Sb7  1  0.87431500  0.87431500  0.68438800  1
  S  S0  1  0.95184500  0.22509600  0.00122100  1
  S  S1  1  0.44001200  0.73424300  0.00308300  1
  S  S2  1  0.26575700  0.55998800  0.99691700  1
  S  S3  1  0.77490400  0.04815500  0.99877900  1
  S  S4  1  0.80752900  0.01306500  0.50223700  1
  S  S5  1  0.30758100  0.51275900  0.50244900  1
  S  S6  1  0.48724100  0.69241900  0.49755100  1
  S  S7  1  0.98693500  0.19247100  0.49776300  1
  S  S8  1  0.55998800  0.26575700  0.99691700  1
  S  S9  1  0.04815500  0.77490400  0.99877900  1
  S  S10  1  0.22509600  0.95184500  0.00122100  1
  S  S11  1  0.73424300  0.44001200  0.00308300  1
  S  S12  1  0.69241900  0.48724100  0.49755100  1
  S  S13  1  0.19247100  0.98693500  0.49776300  1
  S  S14  1  0.01306500  0.80752900  0.50223700  1
  S  S15  1  0.51275900  0.30758100  0.50244900  1
  S  S16  1  0.81847600  0.47547900  0.70445000  1
  S  S17  1  0.32029600  0.97608000  0.70224600  1
  S  S18  1  0.02392000  0.67970400  0.29775400  1
  S  S19  1  0.52452100  0.18152400  0.29555000  1
  S  S20  1  0.22663000  0.06992600  0.20532300  1
  S  S21  1  0.72573100  0.56925400  0.20556900  1
  S  S22  1  0.43074600  0.27426900  0.79443100  1
  S  S23  1  0.93007400  0.77337000  0.79467700  1
  S  S24  1  0.67970400  0.02392000  0.29775400  1
  S  S25  1  0.18152400  0.52452100  0.29555000  1
  S  S26  1  0.47547900  0.81847600  0.70445000  1
  S  S27  1  0.97608000  0.32029600  0.70224600  1
  S  S28  1  0.27426900  0.43074600  0.79443100  1
  S  S29  1  0.77337000  0.93007400  0.79467700  1
  S  S30  1  0.06992600  0.22663000  0.20532300  1
  S  S31  1  0.56925400  0.72573100  0.20556900  1
  S  S32  1  0.59456300  0.09417700  0.81510600  1
  S  S33  1  0.09417700  0.59456300  0.81510600  1
  S  S34  1  0.40543700  0.90582300  0.18489400  1
  S  S35  1  0.90582300  0.40543700  0.18489400  1
  S  S36  1  0.84191100  0.84191100  0.31675100  1
  S  S37  1  0.34333700  0.34333700  0.31480300  1
  S  S38  1  0.65666300  0.65666300  0.68519700  1
  S  S39  1  0.15808900  0.15808900  0.68324900  1
  S  S40  1  0.90927000  0.90927000  0.00247400  1
  S  S41  1  0.09073000  0.09073000  0.99752600  1
  S  S42  1  0.50000000  0.50000000  0.00000000  1
  S  S43  1  0.74999500  0.25000500  0.50000000  1
  S  S44  1  0.25000500  0.74999500  0.50000000  1
loop_
_geom_bond_atom_site_label_1
_geom_bond_atom_site_label_2
_geom_bond_distance
_geom_bond_site_symmetry_2
S0 S3 1.998804 1_554
S0 Yb2 2.810803 1_545
S0 Yb1 2.821791 1_654
S1 S2 1.990541 1_554
S1 Yb3 2.868205 1_555
S1 Yb0 2.906574 1_554
S2 Yb0 2.868205 1_555
S2 Yb3 2.906574 1_556
S3 Yb1 2.810803 1_655
S3 Yb2 2.821791 1_546
S4 S7 1.989017 1_555
S4 Yb7 2.862130 1_555
S4 Yb4 2.917697 1_555
S5 S6 1.989705 1_555
S5 Yb6 2.868696 1_555
S5 Yb5 2.919123 1_555
S6 Yb5 2.868696 1_555
S6 Yb6 2.919123 1_555
S7 Yb4 2.862130 1_555
S7 Yb7 2.917697 1_555
S8 Yb10 2.868205 1_555
S8 Yb9 2.906574 1_556
S9 Yb11 2.810803 1_565
S9 Yb8 2.821791 1_456
S10 S9 1.998804 1_554
S10 Yb8 2.810803 1_455
S10 Yb11 2.821791 1_564
S11 S8 1.990541 1_554
S11 Yb9 2.868205 1_555
S11 Yb10 2.906574 1_554
S12 S15 1.989705 1_555
S12 Yb15 2.868696 1_555
S12 Yb12 2.919123 1_555
S13 S14 1.989017 1_555
S13 Yb14 2.862130 1_555
S13 Yb13 2.917697 1_555
S14 Yb13 2.862130 1_555
S14 Yb14 2.917697 1_555
S15 Yb12 2.868696 1_555
S15 Yb15 2.919123 1_555
S16 Sb0 2.444431 1_555
S16 Yb12 2.837924 1_555
S16 Yb13 2.874745 1_655
S16 Yb10 2.914001 1_555
S17 Sb1 2.453160 1_555
S17 Yb13 2.846437 1_555
S17 Yb11 2.847678 1_565
S17 Yb12 2.880830 1_565
S18 Sb2 2.453160 1_555
S18 Yb14 2.846437 1_555
S18 Yb8 2.847678 1_455
S18 Yb15 2.880830 1_455
S19 Sb3 2.444431 1_555
S19 Yb15 2.837924 1_555
S19 Yb14 2.874745 1_545
S19 Yb9 2.914001 1_555
S20 Sb4 2.444236 1_555
S20 Yb9 2.848066 1_555
S20 Yb8 2.852572 1_445
S20 Yb14 2.906255 1_545
S21 Sb5 2.440322 1_555
S21 Yb8 2.843885 1_555
S21 Yb9 2.876757 1_555
S21 Yb15 2.909694 1_555
S22 Sb6 2.440322 1_555
S22 Yb11 2.843885 1_555
S22 Yb10 2.876757 1_555
S22 Yb12 2.909694 1_555
S23 Sb7 2.444236 1_555
S23 Yb10 2.848066 1_555
S23 Yb11 2.852572 1_665
S23 Yb13 2.906255 1_655
S24 Sb3 2.453160 1_555
S24 Yb4 2.846437 1_555
S24 Yb2 2.847678 1_545
S24 Yb5 2.880830 1_545
S25 Sb2 2.444431 1_555
S25 Yb5 2.837924 1_555
S25 Yb4 2.874745 1_455
S25 Yb3 2.914001 1_555
S26 Sb1 2.444431 1_555
S26 Yb6 2.837924 1_555
S26 Yb7 2.874745 1_565
S26 Yb0 2.914001 1_555
S27 Sb0 2.453160 1_555
S27 Yb7 2.846437 1_555
S27 Yb1 2.847678 1_655
S27 Yb6 2.880830 1_655
S28 Sb6 2.440322 1_555
S28 Yb1 2.843885 1_555
S28 Yb0 2.876757 1_555
S28 Yb6 2.909694 1_555
S29 Sb7 2.444236 1_555
S29 Yb0 2.848066 1_555
S29 Yb1 2.852572 1_665
S29 Yb7 2.906255 1_565
S30 Sb4 2.444236 1_555
S30 Yb3 2.848066 1_555
S30 Yb2 2.852572 1_445
S30 Yb4 2.906255 1_455
S31 Sb5 2.440322 1_555
S31 Yb2 2.843885 1_555
S31 Yb3 2.876757 1_555
S31 Yb5 2.909694 1_555
S32 Sb0 2.440442 1_555
S32 Yb7 2.794236 1_555
S32 Yb12 2.799239 1_555
S33 Sb1 2.440442 1_555
S33 Yb13 2.794236 1_555
S33 Yb6 2.799239 1_555
S34 Sb2 2.440442 1_555
S34 Yb14 2.794236 1_555
S34 Yb5 2.799239 1_555
S35 Sb3 2.440442 1_555
S35 Yb4 2.794236 1_555
S35 Yb15 2.799239 1_555
S36 Sb5 2.453223 1_555
S36 Yb2 2.754057 1_555
S36 Yb8 2.754057 1_555
S37 Sb4 2.437424 1_555
S37 Yb3 2.795667 1_555
S37 Yb9 2.795667 1_555
S38 Sb7 2.437424 1_555
S38 Yb0 2.795667 1_555
S38 Yb10 2.795667 1_555
S39 Sb6 2.453223 1_555
S39 Yb11 2.754057 1_555
S39 Yb1 2.754057 1_555
S40 S41 2.009635 1_664
S40 Yb2 3.098231 1_555
S40 Yb8 3.098231 1_555
S40 Yb1 3.157046 1_664
S40 Yb11 3.157046 1_664
S41 Yb1 3.098231 1_555
S41 Yb11 3.098231 1_555
S41 Yb8 3.157046 1_446
S41 Yb2 3.157046 1_446
S42 Yb10 2.853982 1_554
S42 Yb0 2.853982 1_554
S42 Yb3 2.853982 1_555
S42 Yb9 2.853982 1_555
S43 Yb15 2.854985 1_555
S43 Yb12 2.854985 1_555
S43 Yb4 2.858021 1_555
S43 Yb7 2.858021 1_555
S44 Yb6 2.854985 1_555
S44 Yb5 2.854985 1_555
S44 Yb13 2.858021 1_555
S44 Yb14 2.858021 1_555
