# generated using pymatgen
data_Pd3N
_symmetry_space_group_name_H-M   'P 1'
_cell_length_a   4.85461100
_cell_length_b   4.85461100
_cell_length_c   4.85461100
_cell_angle_alpha   90.00000000
_cell_angle_beta   90.00000000
_cell_angle_gamma   90.00000000
_symmetry_Int_Tables_number   1
_chemical_formula_structural   Pd3N
_chemical_formula_sum   'Pd6 N2'
_cell_volume   114.40982119
_cell_formula_units_Z   2
loop_
 _symmetry_equiv_pos_site_id
 _symmetry_equiv_pos_as_xyz
  1  'x, y, z'
loop_
 _atom_site_type_symbol
 _atom_site_label
 _atom_site_symmetry_multiplicity
 _atom_site_fract_x
 _atom_site_fract_y
 _atom_site_fract_z
 _atom_site_occupancy
  Pd  Pd0  1  0.00000000  0.50000000  0.75000000  1
  Pd  Pd1  1  0.50000000  0.25000000  0.00000000  1
  Pd  Pd2  1  0.75000000  0.00000000  0.50000000  1
  Pd  Pd3  1  0.00000000  0.50000000  0.25000000  1
  Pd  Pd4  1  0.50000000  0.75000000  0.00000000  1
  Pd  Pd5  1  0.25000000  0.00000000  0.50000000  1
  N  N0  1  0.50000000  0.50000000  0.50000000  1
  N  N1  1  0.00000000  0.00000000  0.00000000  1
loop_
_geom_bond_atom_site_label_1
_geom_bond_atom_site_label_2
_geom_bond_distance
_geom_bond_site_symmetry_2
Pd0 Pd3 2.427306 1_556
Pd0 Pd3 2.427306 1_555
Pd1 Pd4 2.427306 1_555
Pd1 Pd4 2.427306 1_545
Pd2 Pd5 2.427306 1_655
Pd2 Pd5 2.427306 1_555
N0 Pd1 2.713810 1_555
N0 Pd2 2.713810 1_555
N0 Pd4 2.713810 1_556
N0 Pd3 2.713810 1_555
N0 Pd5 2.713810 1_555
N0 Pd0 2.713810 1_655
N0 Pd0 2.713810 1_555
N0 Pd3 2.713810 1_655
N0 Pd4 2.713810 1_555
N0 Pd1 2.713810 1_556
N0 Pd5 2.713810 1_565
N0 Pd2 2.713810 1_565
N1 Pd1 2.713810 1_555
N1 Pd0 2.713810 1_554
N1 Pd3 2.713810 1_555
N1 Pd5 2.713810 1_555
N1 Pd1 2.713810 1_455
N1 Pd3 2.713810 1_545
N1 Pd2 2.713810 1_455
N1 Pd2 2.713810 1_454
N1 Pd5 2.713810 1_554
N1 Pd0 2.713810 1_544
N1 Pd4 2.713810 1_545
N1 Pd4 2.713810 1_445
