# generated using pymatgen
data_YbGa4
_symmetry_space_group_name_H-M   'P 1'
_cell_length_a   4.33756666
_cell_length_b   4.33756666
_cell_length_c   6.11647088
_cell_angle_alpha   69.93872104
_cell_angle_beta   69.93872104
_cell_angle_gamma   89.48230200
_symmetry_Int_Tables_number   1
_chemical_formula_structural   YbGa4
_chemical_formula_sum   'Yb1 Ga4'
_cell_volume   100.76494879
_cell_formula_units_Z   1
loop_
 _symmetry_equiv_pos_site_id
 _symmetry_equiv_pos_as_xyz
  1  'x, y, z'
loop_
 _atom_site_type_symbol
 _atom_site_label
 _atom_site_symmetry_multiplicity
 _atom_site_fract_x
 _atom_site_fract_y
 _atom_site_fract_z
 _atom_site_occupancy
  Yb  Yb0  1  0.00000000  0.00000000  0.00000000  1
  Ga  Ga0  1  0.40511400  0.40511400  0.23072300  1
  Ga  Ga1  1  0.59488600  0.59488600  0.76927700  1
  Ga  Ga2  1  0.76780500  0.23219500  0.50000000  1
  Ga  Ga3  1  0.23219500  0.76780500  0.50000000  1
loop_
_geom_bond_atom_site_label_1
_geom_bond_atom_site_label_2
_geom_bond_distance
_geom_bond_site_symmetry_2
Ga0 Ga1 2.479050 1_554
Ga0 Ga2 2.580503 1_555
Ga0 Ga3 2.580503 1_555
Ga0 Ga3 2.642610 1_545
Ga0 Ga2 2.642610 1_455
Ga0 Yb0 3.229849 1_665
Ga0 Yb0 3.295249 1_565
Ga0 Yb0 3.295249 1_655
Ga0 Yb0 3.409604 1_555
Ga1 Ga2 2.580503 1_555
Ga1 Ga3 2.580503 1_555
Ga1 Ga3 2.642610 1_655
Ga1 Ga2 2.642610 1_565
Ga1 Yb0 3.229849 1_556
Ga1 Yb0 3.295249 1_566
Ga1 Yb0 3.295249 1_656
Ga1 Yb0 3.409604 1_666
Ga2 Ga3 2.835784 1_645
Ga2 Yb0 3.370938 1_655
Ga2 Yb0 3.370938 1_656
Ga2 Yb0 3.524022 1_556
Ga2 Yb0 3.524022 1_665
Ga3 Yb0 3.370938 1_565
Ga3 Yb0 3.370938 1_566
Ga3 Yb0 3.524022 1_556
Ga3 Yb0 3.524022 1_665
