# generated using pymatgen
data_Nb8Pb6O25
_symmetry_space_group_name_H-M   'P 1'
_cell_length_a   7.56574368
_cell_length_b   7.56574368
_cell_length_c   10.58161338
_cell_angle_alpha   89.91995323
_cell_angle_beta   89.91995323
_cell_angle_gamma   90.90902028
_symmetry_Int_Tables_number   1
_chemical_formula_structural   Nb8Pb6O25
_chemical_formula_sum   'Nb8 Pb6 O25'
_cell_volume   605.61917155
_cell_formula_units_Z   1
loop_
 _symmetry_equiv_pos_site_id
 _symmetry_equiv_pos_as_xyz
  1  'x, y, z'
loop_
 _atom_site_type_symbol
 _atom_site_label
 _atom_site_symmetry_multiplicity
 _atom_site_fract_x
 _atom_site_fract_y
 _atom_site_fract_z
 _atom_site_occupancy
  Nb  Nb0  1  0.00554879  0.73646909  0.62757660  1
  Nb  Nb1  1  0.00180830  0.23586279  0.62482412  1
  Nb  Nb2  1  0.50829337  0.23768118  0.12679815  1
  Nb  Nb3  1  0.51407820  0.74248151  0.11920756  1
  Nb  Nb4  1  0.76231882  0.49170663  0.87320185  1
  Nb  Nb5  1  0.26353091  0.99445121  0.37242340  1
  Nb  Nb6  1  0.76413721  0.99819170  0.37517588  1
  Nb  Nb7  1  0.25751849  0.48592180  0.88079244  1
  Pb  Pb0  1  0.25569318  0.48050991  0.36440364  1
  Pb  Pb1  1  0.75539726  0.49372163  0.37094210  1
  Pb  Pb2  1  0.50627837  0.24460274  0.62905790  1
  Pb  Pb3  1  0.23059740  0.98175132  0.89185199  1
  Pb  Pb4  1  0.51949009  0.74430682  0.63559636  1
  Pb  Pb5  1  0.01824868  0.76940260  0.10814801  1
  O  O0  1  0.67134192  0.32865808  0.00000000  1
  O  O1  1  -0.00052952  0.99973699  0.31617598  1
  O  O2  1  0.18417715  0.81582285  0.50000000  1
  O  O3  1  0.68157682  0.82161019  0.24978675  1
  O  O4  1  0.80002175  0.80912475  0.49979560  1
  O  O5  1  0.68971657  0.69040332  0.00011723  1
  O  O6  1  0.49619772  0.50586070  0.19800295  1
  O  O7  1  0.99646775  0.50166329  0.55430715  1
  O  O8  1  0.50653764  0.49346236  0.50000000  1
  O  O9  1  0.49413930  0.50380228  0.80199705  1
  O  O10  1  0.80505546  0.31530951  0.74558248  1
  O  O11  1  0.17838981  0.31842318  0.75021325  1
  O  O12  1  0.30959668  0.31028343  -0.00011723  1
  O  O13  1  0.80114349  0.19885651  0.50000000  1
  O  O14  1  0.68469049  0.19494454  0.25441752  1
  O  O15  1  0.19087525  0.19997825  0.50020440  1
  O  O16  1  0.00026301  0.00052952  0.68382402  1
  O  O17  1  0.49833671  0.00353225  0.44569285  1
  O  O18  1  0.48488009  0.00138673  0.06503683  1
  O  O19  1  0.30535009  0.81628515  0.24743408  1
  O  O20  1  0.31135729  0.68864271  0.00000000  1
  O  O21  1  0.79938966  0.68423933  0.74130153  1
  O  O22  1  0.18371485  0.69464991  0.75256592  1
  O  O23  1  0.99861327  0.51511991  0.93496317  1
  O  O24  1  0.31576067  0.20061034  0.25869847  1
loop_
_geom_bond_atom_site_label_1
_geom_bond_atom_site_label_2
_geom_bond_distance
_geom_bond_site_symmetry_2
Nb0 O22 1.919292 1_555
Nb0 O7 1.939544 1_455
Nb0 O2 1.994036 1_555
Nb0 O21 2.002745 1_455
Nb0 O16 2.086360 1_565
Nb0 O4 2.139919 1_455
Nb1 O16 1.885788 1_555
Nb1 O15 1.966420 1_555
Nb1 O11 1.978944 1_555
Nb1 O13 2.030031 1_455
Nb1 O10 2.057961 1_455
Nb1 O7 2.144977 1_455
Nb2 O18 1.909987 1_555
Nb2 O14 1.930486 1_555
Nb2 O0 1.939481 1_555
Nb2 O24 2.031943 1_555
Nb2 O12 2.096412 1_555
Nb2 O6 2.168594 1_555
Nb3 O5 1.876803 1_555
Nb3 O3 1.963839 1_555
Nb3 O6 1.976407 1_555
Nb3 O20 2.023964 1_555
Nb3 O18 2.055543 1_565
Nb3 O19 2.161190 1_555
Nb4 O23 1.909987 1_555
Nb4 O10 1.930486 1_555
Nb4 O0 1.939481 1_556
Nb4 O21 2.031943 1_555
Nb4 O5 2.096412 1_556
Nb4 O9 2.168594 1_555
Nb5 O19 1.919292 1_555
Nb5 O17 1.939544 1_565
Nb5 O2 1.994036 1_555
Nb5 O24 2.002745 1_565
Nb5 O1 2.086360 1_555
Nb5 O15 2.139919 1_565
Nb6 O1 1.885788 1_655
Nb6 O4 1.966420 1_555
Nb6 O3 1.978944 1_555
Nb6 O13 2.030031 1_565
Nb6 O14 2.057961 1_565
Nb6 O17 2.144977 1_565
Nb7 O12 1.876803 1_556
Nb7 O11 1.963839 1_555
Nb7 O9 1.976407 1_555
Nb7 O20 2.023964 1_556
Nb7 O23 2.055543 1_455
Nb7 O22 2.161190 1_555
O1 Pb5 2.814305 1_555
O3 Pb1 2.854217 1_555
O4 Pb4 2.601274 1_555
O4 Pb1 2.766244 1_555
O5 Pb5 2.793719 1_655
O6 Pb0 2.535176 1_555
O6 Pb1 2.686668 1_555
O7 Pb1 2.664889 1_555
O8 Pb2 2.324357 1_555
O8 Pb1 2.324357 1_555
O8 Pb4 2.381633 1_555
O8 Pb0 2.381633 1_555
O9 Pb4 2.535176 1_555
O9 Pb2 2.686668 1_555
O10 Pb2 2.624404 1_555
O11 Pb2 2.854217 1_555
O12 Pb3 2.793719 1_544
O13 Pb2 2.641755 1_555
O13 Pb1 2.641755 1_555
O14 Pb1 2.624404 1_555
O15 Pb0 2.601274 1_555
O15 Pb2 2.766244 1_555
O16 Pb3 2.814305 1_545
O17 Pb2 2.664889 1_555
O18 Pb3 2.661408 1_544
O19 Pb5 2.646175 1_555
O20 Pb3 2.576524 1_554
O20 Pb5 2.576524 1_555
O21 Pb4 2.444956 1_555
O22 Pb3 2.646175 1_555
O23 Pb5 2.661408 1_656
O24 Pb0 2.444956 1_555
