# generated using pymatgen
data_Li5Mn3O8
_symmetry_space_group_name_H-M   'P 1'
_cell_length_a   5.75345299
_cell_length_b   5.92376313
_cell_length_c   10.08782467
_cell_angle_alpha   91.14703996
_cell_angle_beta   73.48613385
_cell_angle_gamma   119.02282465
_symmetry_Int_Tables_number   1
_chemical_formula_structural   Li5Mn3O8
_chemical_formula_sum   'Li10 Mn6 O16'
_cell_volume   285.37522002
_cell_formula_units_Z   2
loop_
 _symmetry_equiv_pos_site_id
 _symmetry_equiv_pos_as_xyz
  1  'x, y, z'
loop_
 _atom_site_type_symbol
 _atom_site_label
 _atom_site_symmetry_multiplicity
 _atom_site_fract_x
 _atom_site_fract_y
 _atom_site_fract_z
 _atom_site_occupancy
  Li  Li0  1  0.99999700  0.24996400  0.24999000  1
  Li  Li1  1  0.99998900  0.74995400  0.74998700  1
  Li  Li2  1  0.49999500  0.25002100  0.25001000  1
  Li  Li3  1  0.49998500  0.75000700  0.75001700  1
  Li  Li4  1  0.50001000  0.99998800  0.99997400  1
  Li  Li5  1  0.50001900  0.49999700  0.49997100  1
  Li  Li6  1  0.99999800  0.25006300  0.74996300  1
  Li  Li7  1  0.99997600  0.75006200  0.24998400  1
  Li  Li8  1  0.50009600  0.25004300  0.74996600  1
  Li  Li9  1  0.50008400  0.75004300  0.24998800  1
  Mn  Mn0  1  0.00019800  0.50020800  0.49969800  1
  Mn  Mn1  1  0.99988500  0.00006900  0.50014500  1
  Mn  Mn2  1  0.49991100  0.99986600  0.50005300  1
  Mn  Mn3  1  0.00014400  0.00006900  0.00003100  1
  Mn  Mn4  1  0.99977300  0.49983100  0.00003700  1
  Mn  Mn5  1  0.50000100  0.49993200  0.00016100  1
  O  O0  1  0.75087200  0.38719100  0.88557100  1
  O  O1  1  0.75076300  0.88719900  0.38559200  1
  O  O2  1  0.24909300  0.61275000  0.11446200  1
  O  O3  1  0.24908500  0.11278100  0.61446700  1
  O  O4  1  0.26093200  0.40153600  0.88018000  1
  O  O5  1  0.26090600  0.90156900  0.38015700  1
  O  O6  1  0.73909600  0.59852200  0.11990100  1
  O  O7  1  0.73909200  0.09854500  0.61987900  1
  O  O8  1  0.73722500  0.84670000  0.89315200  1
  O  O9  1  0.73721700  0.34676000  0.39304100  1
  O  O10  1  0.21440300  0.84624500  0.89307600  1
  O  O11  1  0.21458100  0.34632000  0.39298800  1
  O  O12  1  0.26273900  0.15314300  0.10696700  1
  O  O13  1  0.26274400  0.65321000  0.60679600  1
  O  O14  1  0.78556300  0.15368600  0.10692900  1
  O  O15  1  0.78562500  0.65372700  0.60686900  1
loop_
_geom_bond_atom_site_label_1
_geom_bond_atom_site_label_2
_geom_bond_distance
_geom_bond_site_symmetry_2
Li0 O14 2.055877 1_555
Li0 O11 2.055888 1_655
Li0 O12 2.064945 1_655
Li0 O9 2.065137 1_555
Li0 O2 2.134666 1_655
Li0 O1 2.134931 1_545
Li1 O10 2.056044 1_655
Li1 O15 2.056117 1_555
Li1 O8 2.065450 1_555
Li1 O13 2.065536 1_655
Li1 O3 2.134796 1_665
Li1 O0 2.134837 1_555
Li2 O5 2.050199 1_545
Li2 O6 2.050220 1_555
Li2 O9 2.144898 1_555
Li2 O12 2.145093 1_555
Li2 O11 2.152168 1_555
Li2 O14 2.153387 1_555
Li3 O4 2.050353 1_555
Li3 O7 2.050510 1_565
Li3 O8 2.145876 1_555
Li3 O13 2.146582 1_555
Li3 O10 2.152987 1_555
Li3 O15 2.153778 1_555
Li4 O8 2.043453 1_555
Li4 O12 2.043660 1_566
Li4 O10 2.051449 1_555
Li4 O14 2.051637 1_566
Li4 O0 2.150090 1_565
Li4 O2 2.150562 1_556
Li5 O13 2.043380 1_555
Li5 O9 2.043511 1_555
Li5 O11 2.051356 1_555
Li5 O15 2.051442 1_555
Li5 O1 2.149996 1_555
Li5 O3 2.150493 1_555
Li6 O7 2.132214 1_555
Li6 O4 2.133388 1_655
Li6 O3 2.134523 1_655
Li6 O0 2.134541 1_555
Li6 O13 2.338427 1_655
Li6 O8 2.339445 1_545
Li7 O6 2.132114 1_555
Li7 O5 2.133028 1_655
Li7 O2 2.134879 1_655
Li7 O1 2.134916 1_555
Li7 O12 2.337456 1_665
Li7 O9 2.338583 1_555
Li8 O7 2.131359 1_555
Li8 O4 2.132533 1_555
Li8 O0 2.133839 1_555
Li8 O3 2.133894 1_555
Li8 O15 2.340776 1_555
Li8 O10 2.341331 1_545
Li9 O6 2.131519 1_555
Li9 O5 2.132535 1_555
Li9 O1 2.133456 1_555
Li9 O2 2.134048 1_555
Li9 O14 2.340431 1_565
Li9 O11 2.340503 1_555
Mn0 O11 1.951432 1_555
Mn0 O15 1.952224 1_455
Mn0 O9 1.955766 1_455
Mn0 O13 1.957185 1_555
Mn0 O5 2.232267 1_555
Mn0 O7 2.236010 1_455
Mn1 O15 1.941099 1_545
Mn1 O11 1.942333 1_655
Mn1 O3 1.952377 1_655
Mn1 O1 1.953870 1_545
Mn1 O7 1.959945 1_555
Mn1 O5 1.962009 1_645
Mn2 O13 1.942337 1_555
Mn2 O9 1.944409 1_565
Mn2 O1 1.954001 1_555
Mn2 O3 1.954724 1_565
Mn2 O5 1.957858 1_555
Mn2 O7 1.957903 1_565
Mn3 O10 1.951541 1_544
Mn3 O14 1.951696 1_455
Mn3 O12 1.956171 1_555
Mn3 O8 1.957183 1_444
Mn3 O4 2.233899 1_554
Mn3 O6 2.234328 1_445
Mn4 O14 1.940894 1_555
Mn4 O10 1.942295 1_654
Mn4 O0 1.952273 1_554
Mn4 O2 1.953677 1_655
Mn4 O6 1.960807 1_555
Mn4 O4 1.961276 1_654
Mn5 O12 1.943166 1_555
Mn5 O8 1.943840 1_554
Mn5 O2 1.954251 1_555
Mn5 O0 1.954870 1_554
Mn5 O6 1.956865 1_555
Mn5 O4 1.958791 1_554
