# generated using pymatgen
data_Sm(NiSb)2
_symmetry_space_group_name_H-M   'P 1'
_cell_length_a   4.43791046
_cell_length_b   4.43791046
_cell_length_c   9.89688617
_cell_angle_alpha   90.00000000
_cell_angle_beta   90.00000000
_cell_angle_gamma   90.00000000
_symmetry_Int_Tables_number   1
_chemical_formula_structural   Sm(NiSb)2
_chemical_formula_sum   'Sm2 Ni4 Sb4'
_cell_volume   194.91966055
_cell_formula_units_Z   2
loop_
 _symmetry_equiv_pos_site_id
 _symmetry_equiv_pos_as_xyz
  1  'x, y, z'
loop_
 _atom_site_type_symbol
 _atom_site_label
 _atom_site_symmetry_multiplicity
 _atom_site_fract_x
 _atom_site_fract_y
 _atom_site_fract_z
 _atom_site_occupancy
  Sm  Sm0  1  0.00000000  0.50000000  0.23710017  1
  Sm  Sm1  1  0.50000000  -0.00000000  0.76289983  1
  Ni  Ni0  1  -0.00000000  -0.00000000  0.00000000  1
  Ni  Ni1  1  0.50000000  0.50000000  -0.00000000  1
  Ni  Ni2  1  0.00000000  0.50000000  0.62344775  1
  Ni  Ni3  1  0.50000000  -0.00000000  0.37655225  1
  Sb  Sb0  1  0.00000000  0.00000000  0.50000000  1
  Sb  Sb1  1  0.50000000  0.50000000  0.50000000  1
  Sb  Sb2  1  0.00000000  0.50000000  0.87440798  1
  Sb  Sb3  1  0.50000000  -0.00000000  0.12559202  1
loop_
_geom_bond_atom_site_label_1
_geom_bond_atom_site_label_2
_geom_bond_distance
_geom_bond_site_symmetry_2
Ni0 Sb3 2.543371 1_455
Ni0 Sb3 2.543371 1_555
Ni0 Sb2 2.543371 1_544
Ni0 Sb2 2.543371 1_554
Ni0 Sm0 3.229563 1_545
Ni0 Sm0 3.229563 1_555
Ni0 Sm1 3.229563 1_454
Ni0 Sm1 3.229563 1_554
Ni1 Sb3 2.543371 1_565
Ni1 Sb3 2.543371 1_555
Ni1 Sb2 2.543371 1_654
Ni1 Sb2 2.543371 1_554
Ni1 Sm0 3.229563 1_655
Ni1 Sm0 3.229563 1_555
Ni1 Sm1 3.229563 1_554
Ni1 Sm1 3.229563 1_564
Ni2 Sb2 2.483725 1_555
Ni2 Sb0 2.533068 1_565
Ni2 Sb1 2.533068 1_555
Ni2 Sb1 2.533068 1_455
Ni2 Sb0 2.533068 1_555
Ni2 Sm1 3.428165 1_565
Ni2 Sm1 3.428165 1_555
Ni2 Sm1 3.428165 1_455
Ni2 Sm1 3.428165 1_465
Ni3 Sb3 2.483725 1_555
Ni3 Sb1 2.533068 1_545
Ni3 Sb1 2.533068 1_555
Ni3 Sb0 2.533068 1_655
Ni3 Sb0 2.533068 1_555
Ni3 Sm0 3.428165 1_655
Ni3 Sm0 3.428165 1_545
Ni3 Sm0 3.428165 1_645
Ni3 Sm0 3.428165 1_555
Sb0 Sm1 3.419589 1_555
Sb0 Sm1 3.419589 1_455
Sb0 Sm0 3.419589 1_545
Sb0 Sm0 3.419589 1_555
Sb1 Sm1 3.419589 1_565
Sb1 Sm1 3.419589 1_555
Sb1 Sm0 3.419589 1_655
Sb1 Sm0 3.419589 1_555
Sb2 Sm1 3.326473 1_565
Sb2 Sm1 3.326473 1_465
Sb2 Sm1 3.326473 1_555
Sb2 Sm1 3.326473 1_455
Sb3 Sm0 3.326473 1_545
Sb3 Sm0 3.326473 1_655
Sb3 Sm0 3.326473 1_645
Sb3 Sm0 3.326473 1_555
