# generated using pymatgen
data_PH30W12C9N3O40
_symmetry_space_group_name_H-M   'P 1'
_cell_length_a   13.53969850
_cell_length_b   13.53969850
_cell_length_c   13.53969815
_cell_angle_alpha   86.50331089
_cell_angle_beta   86.50331089
_cell_angle_gamma   86.50331031
_symmetry_Int_Tables_number   1
_chemical_formula_structural   PH30W12C9N3O40
_chemical_formula_sum   'P2 H60 W24 C18 N6 O80'
_cell_volume   2468.82143407
_cell_formula_units_Z   2
loop_
 _symmetry_equiv_pos_site_id
 _symmetry_equiv_pos_as_xyz
  1  'x, y, z'
loop_
 _atom_site_type_symbol
 _atom_site_label
 _atom_site_symmetry_multiplicity
 _atom_site_fract_x
 _atom_site_fract_y
 _atom_site_fract_z
 _atom_site_occupancy
  P  P0  1  0.72336980  0.72336980  0.72336980  1
  P  P1  1  0.27663020  0.27663020  0.27663020  1
  H  H0  1  0.68104108  0.82077737  0.31311370  1
  H  H1  1  0.82077737  0.31311370  0.68104108  1
  H  H2  1  0.31311370  0.68104108  0.82077737  1
  H  H3  1  0.31895892  0.17922263  0.68688630  1
  H  H4  1  0.17922263  0.68688630  0.31895892  1
  H  H5  1  0.68688630  0.31895892  0.17922263  1
  H  H6  1  0.82051342  0.90310111  0.23884955  1
  H  H7  1  0.90310111  0.23884955  0.82051342  1
  H  H8  1  0.23884955  0.82051342  0.90310111  1
  H  H9  1  0.17948658  0.09689889  0.76115045  1
  H  H10  1  0.09689889  0.76115045  0.17948658  1
  H  H11  1  0.76115045  0.17948658  0.09689889  1
  H  H12  1  0.78788260  0.86659311  0.11967458  1
  H  H13  1  0.86659311  0.11967458  0.78788260  1
  H  H14  1  0.11967458  0.78788260  0.86659311  1
  H  H15  1  0.21211740  0.13340689  0.88032542  1
  H  H16  1  0.13340689  0.88032542  0.21211740  1
  H  H17  1  0.88032542  0.21211740  0.13340689  1
  H  H18  1  0.70669699  0.95001659  0.18881237  1
  H  H19  1  0.95001659  0.18881237  0.70669699  1
  H  H20  1  0.18881237  0.70669699  0.95001659  1
  H  H21  1  0.29330301  0.04998341  0.81118763  1
  H  H22  1  0.04998341  0.81118763  0.29330301  1
  H  H23  1  0.81118763  0.29330301  0.04998341  1
  H  H24  1  0.57918755  0.71941450  0.23142020  1
  H  H25  1  0.71941450  0.23142020  0.57918755  1
  H  H26  1  0.23142020  0.57918755  0.71941450  1
  H  H27  1  0.42081245  0.28058550  0.76857980  1
  H  H28  1  0.28058550  0.76857980  0.42081245  1
  H  H29  1  0.76857980  0.42081245  0.28058550  1
  H  H30  1  0.57017859  0.84513528  0.18000517  1
  H  H31  1  0.84513528  0.18000517  0.57017859  1
  H  H32  1  0.18000517  0.57017859  0.84513528  1
  H  H33  1  0.42982141  0.15486472  0.81999483  1
  H  H34  1  0.15486472  0.81999483  0.42982141  1
  H  H35  1  0.81999483  0.42982141  0.15486472  1
  H  H36  1  0.64475400  0.75200145  0.11593845  1
  H  H37  1  0.75200145  0.11593845  0.64475400  1
  H  H38  1  0.11593845  0.64475400  0.75200145  1
  H  H39  1  0.35524600  0.24799855  0.88406155  1
  H  H40  1  0.24799855  0.88406155  0.35524600  1
  H  H41  1  0.88406155  0.35524600  0.24799855  1
  H  H42  1  0.72845302  0.65062216  0.29729652  1
  H  H43  1  0.65062216  0.29729652  0.72845302  1
  H  H44  1  0.29729652  0.72845302  0.65062216  1
  H  H45  1  0.27154698  0.34937784  0.70270348  1
  H  H46  1  0.34937784  0.70270348  0.27154698  1
  H  H47  1  0.70270348  0.27154698  0.34937784  1
  H  H48  1  0.80001283  0.68242931  0.18520075  1
  H  H49  1  0.68242931  0.18520075  0.80001283  1
  H  H50  1  0.18520075  0.80001283  0.68242931  1
  H  H51  1  0.19998717  0.31757069  0.81479925  1
  H  H52  1  0.31757069  0.81479925  0.19998717  1
  H  H53  1  0.81479925  0.19998717  0.31757069  1
  H  H54  1  0.83468160  0.72248408  0.30196927  1
  H  H55  1  0.72248408  0.30196927  0.83468160  1
  H  H56  1  0.30196927  0.83468160  0.72248408  1
  H  H57  1  0.16531840  0.27751592  0.69803073  1
  H  H58  1  0.27751592  0.69803073  0.16531840  1
  H  H59  1  0.69803073  0.16531840  0.27751592  1
  W  W0  1  0.92761480  0.88629056  0.70716883  1
  W  W1  1  0.88629056  0.70716883  0.92761480  1
  W  W2  1  0.70716883  0.92761480  0.88629056  1
  W  W3  1  0.07238520  0.11370944  0.29283117  1
  W  W4  1  0.11370944  0.29283117  0.07238520  1
  W  W5  1  0.29283117  0.07238520  0.11370944  1
  W  W6  1  0.76621987  0.89893251  0.51504522  1
  W  W7  1  0.89893251  0.51504522  0.76621987  1
  W  W8  1  0.51504522  0.76621987  0.89893251  1
  W  W9  1  0.23378013  0.10106749  0.48495478  1
  W  W10  1  0.10106749  0.48495478  0.23378013  1
  W  W11  1  0.48495478  0.23378013  0.10106749  1
  W  W12  1  0.54559794  0.93405151  0.69444519  1
  W  W13  1  0.93405151  0.69444519  0.54559794  1
  W  W14  1  0.69444519  0.54559794  0.93405151  1
  W  W15  1  0.45440206  0.06594849  0.30555481  1
  W  W16  1  0.06594849  0.30555481  0.45440206  1
  W  W17  1  0.30555481  0.45440206  0.06594849  1
  W  W18  1  0.55793506  0.72559786  0.52206601  1
  W  W19  1  0.72559786  0.52206601  0.55793506  1
  W  W20  1  0.52206601  0.55793506  0.72559786  1
  W  W21  1  0.44206494  0.27440214  0.47793399  1
  W  W22  1  0.27440214  0.47793399  0.44206494  1
  W  W23  1  0.47793399  0.44206494  0.27440214  1
  C  C0  1  0.75979973  0.88577982  0.19409050  1
  C  C1  1  0.88577982  0.19409050  0.75979973  1
  C  C2  1  0.19409050  0.75979973  0.88577982  1
  C  C3  1  0.24020027  0.11422018  0.80590950  1
  C  C4  1  0.11422018  0.80590950  0.24020027  1
  C  C5  1  0.80590950  0.24020027  0.11422018  1
  C  C6  1  0.61841289  0.77771262  0.18858659  1
  C  C7  1  0.77771262  0.18858659  0.61841289  1
  C  C8  1  0.18858659  0.61841289  0.77771262  1
  C  C9  1  0.38158711  0.22228738  0.81141341  1
  C  C10  1  0.22228738  0.81141341  0.38158711  1
  C  C11  1  0.81141341  0.38158711  0.22228738  1
  C  C12  1  0.77279829  0.70735497  0.25794577  1
  C  C13  1  0.70735497  0.25794577  0.77279829  1
  C  C14  1  0.25794577  0.77279829  0.70735497  1
  C  C15  1  0.22720171  0.29264503  0.74205423  1
  C  C16  1  0.29264503  0.74205423  0.22720171  1
  C  C17  1  0.74205423  0.22720171  0.29264503  1
  N  N0  1  0.70679276  0.79988285  0.24339151  1
  N  N1  1  0.79988285  0.24339151  0.70679276  1
  N  N2  1  0.24339151  0.70679276  0.79988285  1
  N  N3  1  0.29320724  0.20011715  0.75660849  1
  N  N4  1  0.20011715  0.75660849  0.29320724  1
  N  N5  1  0.75660849  0.29320724  0.20011715  1
  O  O0  1  0.80150585  0.77635195  0.65447159  1
  O  O1  1  0.77635195  0.65447159  0.80150585  1
  O  O2  1  0.65447159  0.80150585  0.77635195  1
  O  O3  1  0.19849415  0.22364805  0.34552841  1
  O  O4  1  0.22364805  0.34552841  0.19849415  1
  O  O5  1  0.34552841  0.19849415  0.22364805  1
  O  O6  1  0.66117173  0.66117173  0.66117173  1
  O  O7  1  0.33882827  0.33882827  0.33882827  1
  O  O8  1  0.81646862  0.94291616  0.78823707  1
  O  O9  1  0.94291616  0.78823707  0.81646862  1
  O  O10  1  0.78823707  0.81646862  0.94291616  1
  O  O11  1  0.18353138  0.05708384  0.21176293  1
  O  O12  1  0.05708384  0.21176293  0.18353138  1
  O  O13  1  0.21176293  0.18353138  0.05708384  1
  O  O14  1  0.66229087  0.95156362  0.60458368  1
  O  O15  1  0.95156362  0.60458368  0.66229087  1
  O  O16  1  0.60458368  0.66229087  0.95156362  1
  O  O17  1  0.33770913  0.04843638  0.39541632  1
  O  O18  1  0.04843638  0.39541632  0.33770913  1
  O  O19  1  0.39541632  0.33770913  0.04843638  1
  O  O20  1  0.67080410  0.80509196  0.48079171  1
  O  O21  1  0.80509196  0.48079171  0.67080410  1
  O  O22  1  0.48079171  0.67080410  0.80509196  1
  O  O23  1  0.32919590  0.19490804  0.51920829  1
  O  O24  1  0.19490804  0.51920829  0.32919590  1
  O  O25  1  0.51920829  0.32919590  0.19490804  1
  O  O26  1  0.51623435  0.83100641  0.60941118  1
  O  O27  1  0.83100641  0.60941118  0.51623435  1
  O  O28  1  0.60941118  0.51623435  0.83100641  1
  O  O29  1  0.48376565  0.16899359  0.39058882  1
  O  O30  1  0.16899359  0.39058882  0.48376565  1
  O  O31  1  0.39058882  0.48376565  0.16899359  1
  O  O32  1  0.86543278  0.95133526  0.59225525  1
  O  O33  1  0.95133526  0.59225525  0.86543278  1
  O  O34  1  0.59225525  0.86543278  0.95133526  1
  O  O35  1  0.13456722  0.04866474  0.40774475  1
  O  O36  1  0.04866474  0.40774475  0.13456722  1
  O  O37  1  0.40774475  0.13456722  0.04866474  1
  O  O38  1  0.61713544  0.99510690  0.79421927  1
  O  O39  1  0.99510690  0.79421927  0.61713544  1
  O  O40  1  0.79421927  0.61713544  0.99510690  1
  O  O41  1  0.38286456  0.00489310  0.20578073  1
  O  O42  1  0.00489310  0.20578073  0.38286456  1
  O  O43  1  0.20578073  0.38286456  0.00489310  1
  O  O44  1  0.87098878  0.80348573  0.46810884  1
  O  O45  1  0.80348573  0.46810884  0.87098878  1
  O  O46  1  0.46810884  0.87098878  0.80348573  1
  O  O47  1  0.12901122  0.19651427  0.53189116  1
  O  O48  1  0.19651427  0.53189116  0.12901122  1
  O  O49  1  0.53189116  0.12901122  0.19651427  1
  O  O50  1  0.63650289  0.60881823  0.47964546  1
  O  O51  1  0.60881823  0.47964546  0.63650289  1
  O  O52  1  0.47964546  0.63650289  0.60881823  1
  O  O53  1  0.36349711  0.39118177  0.52035454  1
  O  O54  1  0.39118177  0.52035454  0.36349711  1
  O  O55  1  0.52035454  0.36349711  0.39118177  1
  O  O56  1  0.02113848  0.96489370  0.72484760  1
  O  O57  1  0.96489370  0.72484760  0.02113848  1
  O  O58  1  0.72484760  0.02113848  0.96489370  1
  O  O59  1  0.97886152  0.03510630  0.27515240  1
  O  O60  1  0.03510630  0.27515240  0.97886152  1
  O  O61  1  0.27515240  0.97886152  0.03510630  1
  O  O62  1  0.76316212  0.98506414  0.41446558  1
  O  O63  1  0.98506414  0.41446558  0.76316212  1
  O  O64  1  0.41446558  0.76316212  0.98506414  1
  O  O65  1  0.23683788  0.01493586  0.58553442  1
  O  O66  1  0.01493586  0.58553442  0.23683788  1
  O  O67  1  0.58553442  0.23683788  0.01493586  1
  O  O68  1  0.46282155  0.03131879  0.65908960  1
  O  O69  1  0.03131879  0.65908960  0.46282155  1
  O  O70  1  0.65908960  0.46282155  0.03131879  1
  O  O71  1  0.53717845  0.96868121  0.34091040  1
  O  O72  1  0.96868121  0.34091040  0.53717845  1
  O  O73  1  0.34091040  0.53717845  0.96868121  1
  O  O74  1  0.48197432  0.74924551  0.42318605  1
  O  O75  1  0.74924551  0.42318605  0.48197432  1
  O  O76  1  0.42318605  0.48197432  0.74924551  1
  O  O77  1  0.51802568  0.25075449  0.57681395  1
  O  O78  1  0.25075449  0.57681395  0.51802568  1
  O  O79  1  0.57681395  0.51802568  0.25075449  1
loop_
_geom_bond_atom_site_label_1
_geom_bond_atom_site_label_2
_geom_bond_distance
_geom_bond_site_symmetry_2
H0 N0 1.035939 1_555
H1 N1 1.035939 1_555
H2 N2 1.035939 1_555
H3 N3 1.035939 1_555
H4 N4 1.035939 1_555
H5 N5 1.035939 1_555
C0 H6 1.095284 1_555
C0 H12 1.095631 1_555
C0 H18 1.095867 1_555
C0 N0 1.503984 1_555
C1 H7 1.095284 1_555
C1 H13 1.095631 1_555
C1 H19 1.095867 1_555
C1 N1 1.503984 1_555
C2 H8 1.095284 1_555
C2 H14 1.095631 1_555
C2 H20 1.095867 1_555
C2 N2 1.503984 1_555
C3 H9 1.095284 1_555
C3 H15 1.095631 1_555
C3 H21 1.095867 1_555
C3 N3 1.503984 1_555
C4 H10 1.095284 1_555
C4 H16 1.095631 1_555
C4 H22 1.095867 1_555
C4 N4 1.503984 1_555
C5 H11 1.095284 1_555
C5 H17 1.095631 1_555
C5 H23 1.095867 1_555
C5 N5 1.503984 1_555
C6 H30 1.094056 1_555
C6 H24 1.095077 1_555
C6 H36 1.095334 1_555
C6 N0 1.500658 1_555
C7 H31 1.094056 1_555
C7 H25 1.095077 1_555
C7 H37 1.095334 1_555
C7 N1 1.500658 1_555
C8 H32 1.094056 1_555
C8 H26 1.095077 1_555
C8 H38 1.095334 1_555
C8 N2 1.500658 1_555
C9 H33 1.094056 1_555
C9 H27 1.095077 1_555
C9 H39 1.095334 1_555
C9 N3 1.500658 1_555
C10 H34 1.094056 1_555
C10 H28 1.095077 1_555
C10 H40 1.095334 1_555
C10 N4 1.500658 1_555
C11 H35 1.094056 1_555
C11 H29 1.095077 1_555
C11 H41 1.095334 1_555
C11 N5 1.500658 1_555
C12 H54 1.093641 1_555
C12 H48 1.095855 1_555
C12 H42 1.096239 1_555
C12 N0 1.503936 1_555
C13 H55 1.093641 1_555
C13 H49 1.095855 1_555
C13 H43 1.096239 1_555
C13 N1 1.503936 1_555
C14 H56 1.093641 1_555
C14 H50 1.095855 1_555
C14 H44 1.096239 1_555
C14 N2 1.503936 1_555
C15 H57 1.093641 1_555
C15 H51 1.095855 1_555
C15 H45 1.096239 1_555
C15 N3 1.503936 1_555
C16 H58 1.093641 1_555
C16 H52 1.095855 1_555
C16 H46 1.096239 1_555
C16 N4 1.503936 1_555
C17 H59 1.093641 1_555
C17 H53 1.095855 1_555
C17 H47 1.096239 1_555
C17 N5 1.503936 1_555
O0 P0 1.547460 1_555
O1 P0 1.547460 1_555
O2 P0 1.547460 1_555
O3 P1 1.547460 1_555
O4 P1 1.547460 1_555
O5 P1 1.547460 1_555
O6 P0 1.545039 1_555
O7 P1 1.545039 1_555
O8 W2 1.939003 1_555
O8 W0 1.953902 1_555
O9 W0 1.939003 1_555
O9 W1 1.953902 1_555
O10 W1 1.939003 1_555
O10 W2 1.953902 1_555
O11 W5 1.939003 1_555
O11 W3 1.953902 1_555
O12 W3 1.939003 1_555
O12 W4 1.953902 1_555
O13 W4 1.939003 1_555
O13 W5 1.953902 1_555
O14 W6 1.932002 1_555
O14 W12 1.951652 1_555
O15 W7 1.932002 1_555
O15 W13 1.951652 1_555
O16 W8 1.932002 1_555
O16 W14 1.951652 1_555
O17 W9 1.932002 1_555
O17 W15 1.951652 1_555
O18 W10 1.932002 1_555
O18 W16 1.951652 1_555
O19 W11 1.932002 1_555
O19 W17 1.951652 1_555
O20 W18 1.956863 1_555
O20 W6 1.960523 1_555
O21 W19 1.956863 1_555
O21 W7 1.960523 1_555
O22 W20 1.956863 1_555
O22 W8 1.960523 1_555
O23 W21 1.956863 1_555
O23 W9 1.960523 1_555
O24 W22 1.956863 1_555
O24 W10 1.960523 1_555
O25 W23 1.956863 1_555
O25 W11 1.960523 1_555
O26 W12 1.936404 1_555
O26 W18 1.944335 1_555
O27 W13 1.936404 1_555
O27 W19 1.944335 1_555
O28 W14 1.936404 1_555
O28 W20 1.944335 1_555
O29 W15 1.936404 1_555
O29 W21 1.944335 1_555
O30 W16 1.936404 1_555
O30 W22 1.944335 1_555
O31 W17 1.936404 1_555
O31 W23 1.944335 1_555
O32 W6 1.943915 1_555
O32 W0 1.951270 1_555
O33 W7 1.943915 1_555
O33 W1 1.951270 1_555
O34 W8 1.943915 1_555
O34 W2 1.951270 1_555
O35 W9 1.943915 1_555
O35 W3 1.951270 1_555
O36 W10 1.943915 1_555
O36 W4 1.951270 1_555
O37 W11 1.943915 1_555
O37 W5 1.951270 1_555
O38 W2 1.945681 1_555
O38 W12 1.959600 1_555
O39 W0 1.945681 1_555
O39 W13 1.959600 1_555
O40 W1 1.945681 1_555
O40 W14 1.959600 1_555
O41 W5 1.945681 1_555
O41 W15 1.959600 1_555
O42 W3 1.945681 1_555
O42 W16 1.959600 1_555
O43 W4 1.945681 1_555
O43 W17 1.959600 1_555
O44 W13 1.943214 1_555
O44 W6 1.962858 1_555
O45 W14 1.943214 1_555
O45 W7 1.962858 1_555
O46 W12 1.943214 1_555
O46 W8 1.962858 1_555
O47 W16 1.943214 1_555
O47 W9 1.962858 1_555
O48 W17 1.943214 1_555
O48 W10 1.962858 1_555
O49 W15 1.943214 1_555
O49 W11 1.962858 1_555
O50 W19 1.946737 1_555
O50 W18 1.947478 1_555
O51 W20 1.946737 1_555
O51 W19 1.947478 1_555
O52 W18 1.946737 1_555
O52 W20 1.947478 1_555
O53 W22 1.946737 1_555
O53 W21 1.947478 1_555
O54 W23 1.946737 1_555
O54 W22 1.947478 1_555
O55 W21 1.946737 1_555
O55 W23 1.947478 1_555
O56 W0 1.739500 1_455
O57 W1 1.739500 1_554
O58 W2 1.739500 1_545
O59 W3 1.739500 1_655
O60 W4 1.739500 1_556
O61 W5 1.739500 1_565
O62 W6 1.738833 1_555
O63 W7 1.738833 1_555
O64 W8 1.738833 1_555
O65 W9 1.738833 1_555
O66 W10 1.738833 1_555
O67 W11 1.738833 1_555
O68 W12 1.740167 1_545
O69 W13 1.740167 1_455
O70 W14 1.740167 1_554
O71 W15 1.740167 1_565
O72 W16 1.740167 1_655
O73 W17 1.740167 1_556
O74 W18 1.740173 1_555
O75 W19 1.740173 1_555
O76 W20 1.740173 1_555
O77 W21 1.740173 1_555
O78 W22 1.740173 1_555
O79 W23 1.740173 1_555
