# generated using pymatgen
data_AlSn(WO4)2
_symmetry_space_group_name_H-M   'P 1'
_cell_length_a   5.66425200
_cell_length_b   5.17779900
_cell_length_c   10.58970736
_cell_angle_alpha   61.90255754
_cell_angle_beta   90.00000000
_cell_angle_gamma   90.00000000
_symmetry_Int_Tables_number   1
_chemical_formula_structural   AlSn(WO4)2
_chemical_formula_sum   'Al2 Sn2 W4 O16'
_cell_volume   273.97637318
_cell_formula_units_Z   2
loop_
 _symmetry_equiv_pos_site_id
 _symmetry_equiv_pos_as_xyz
  1  'x, y, z'
loop_
 _atom_site_type_symbol
 _atom_site_label
 _atom_site_symmetry_multiplicity
 _atom_site_fract_x
 _atom_site_fract_y
 _atom_site_fract_z
 _atom_site_occupancy
  Al  Al0  1  0.66635900  0.00000000  0.75000000  1
  Al  Al1  1  0.33364100  0.00000000  0.25000000  1
  Sn  Sn0  1  0.36466900  0.50000000  0.75000000  1
  Sn  Sn1  1  0.63533100  0.50000000  0.25000000  1
  W  W0  1  0.15339800  0.24606600  0.50056900  1
  W  W1  1  0.15339800  0.75393400  0.99943100  1
  W  W2  1  0.84660200  0.75393400  0.49943100  1
  W  W3  1  0.84660200  0.24606600  0.00056900  1
  O  O0  1  0.39186800  0.73541100  0.86684400  1
  O  O1  1  0.39186800  0.26458900  0.63315600  1
  O  O2  1  0.60813200  0.26458900  0.13315600  1
  O  O3  1  0.60813200  0.73541100  0.36684400  1
  O  O4  1  0.87834800  0.20759300  0.38334800  1
  O  O5  1  0.87834800  0.79240700  0.11665200  1
  O  O6  1  0.12165200  0.79240700  0.61665200  1
  O  O7  1  0.12165200  0.20759300  0.88334800  1
  O  O8  1  0.63325000  0.20288700  0.85825100  1
  O  O9  1  0.63325000  0.79711300  0.64174900  1
  O  O10  1  0.36675000  0.79711300  0.14174900  1
  O  O11  1  0.36675000  0.20288700  0.35825100  1
  O  O12  1  0.88025100  0.70200900  0.88324700  1
  O  O13  1  0.11974900  0.29799100  0.11675300  1
  O  O14  1  0.88025100  0.29799100  0.61675300  1
  O  O15  1  0.11974900  0.70200900  0.38324700  1
loop_
_geom_bond_atom_site_label_1
_geom_bond_atom_site_label_2
_geom_bond_distance
_geom_bond_site_symmetry_2
Al0 O8 1.893986 1_555
Al0 O9 1.893986 1_545
Al0 O14 1.946477 1_555
Al0 O12 1.946477 1_545
Al0 O1 2.056335 1_555
Al0 O0 2.056335 1_545
Al1 O11 1.893986 1_555
Al1 O10 1.893986 1_545
Al1 O15 1.946477 1_545
Al1 O13 1.946477 1_555
Al1 O3 2.056335 1_545
Al1 O2 2.056335 1_555
O0 W1 1.982916 1_555
O0 Sn0 2.112144 1_555
O1 W0 1.982916 1_555
O1 Sn0 2.112144 1_555
O2 W3 1.982916 1_555
O2 Sn1 2.112144 1_555
O3 W2 1.982916 1_555
O3 Sn1 2.112144 1_555
O4 Sn1 2.041388 1_555
O4 W0 2.059306 1_655
O4 W2 2.083547 1_545
O5 Sn1 2.041388 1_555
O5 W1 2.059306 1_654
O5 W3 2.083547 1_565
O6 Sn0 2.041388 1_555
O6 W2 2.059306 1_455
O6 W0 2.083547 1_565
O7 Sn0 2.041388 1_555
O7 W3 2.059306 1_456
O7 W1 2.083547 1_545
O8 W3 2.024639 1_556
O8 Sn0 2.081825 1_555
O9 W2 2.024639 1_555
O9 Sn0 2.081825 1_555
O10 W1 2.024639 1_554
O10 Sn1 2.081825 1_555
O11 W0 2.024639 1_555
O11 Sn1 2.081825 1_555
O12 W1 2.071567 1_655
O12 W3 2.095332 1_556
O13 W3 2.071567 1_455
O13 W1 2.095332 1_554
O14 W0 2.071567 1_655
O14 W2 2.095332 1_555
O15 W2 2.071567 1_455
O15 W0 2.095332 1_555
