# generated using pymatgen
data_K2Dy4Cu4S9
_symmetry_space_group_name_H-M   'P 1'
_cell_length_a   3.95200642
_cell_length_b   7.16282912
_cell_length_c   15.19283367
_cell_angle_alpha   82.44433662
_cell_angle_beta   82.44021693
_cell_angle_gamma   74.03091173
_symmetry_Int_Tables_number   1
_chemical_formula_structural   K2Dy4Cu4S9
_chemical_formula_sum   'K2 Dy4 Cu4 S9'
_cell_volume   407.82752497
_cell_formula_units_Z   1
loop_
 _symmetry_equiv_pos_site_id
 _symmetry_equiv_pos_as_xyz
  1  'x, y, z'
loop_
 _atom_site_type_symbol
 _atom_site_label
 _atom_site_symmetry_multiplicity
 _atom_site_fract_x
 _atom_site_fract_y
 _atom_site_fract_z
 _atom_site_occupancy
  K  K0  1  0.02448900  0.70928700  0.23189100  1
  K  K1  1  0.97029000  0.28351900  0.77068400  1
  Dy  Dy0  1  0.65502400  0.74325600  0.94496100  1
  Dy  Dy1  1  0.34217400  0.25360500  0.05464000  1
  Dy  Dy2  1  0.76806200  0.86206000  0.60389700  1
  Dy  Dy3  1  0.23677600  0.13918500  0.39530800  1
  Cu  Cu0  1  0.24278100  0.73611600  0.77091200  1
  Cu  Cu1  1  0.75126000  0.26182500  0.22776800  1
  Cu  Cu2  1  0.57638300  0.32191100  0.53877700  1
  Cu  Cu3  1  0.43120300  0.68017500  0.46071700  1
  S  S0  1  0.14114700  0.15053700  0.57539000  1
  S  S1  1  0.86556800  0.85050000  0.42365400  1
  S  S2  1  0.34644000  0.07900700  0.22164900  1
  S  S3  1  0.39118300  0.59239800  0.62595000  1
  S  S4  1  0.69737500  0.49548100  0.10308500  1
  S  S5  1  0.30144100  0.50209600  0.89618500  1
  S  S6  1  0.65037700  0.92011500  0.77804500  1
  S  S7  1  0.61334200  0.40902700  0.37314000  1
  S  S8  1  0.99877400  0.99746400  0.00037700  1
loop_
_geom_bond_atom_site_label_1
_geom_bond_atom_site_label_2
_geom_bond_distance
_geom_bond_site_symmetry_2
K0 S1 3.138400 1_455
K0 S2 3.211635 1_465
K0 S2 3.217116 1_565
K0 S4 3.223242 1_455
K0 S4 3.228706 1_555
K0 S7 3.415048 1_455
K0 S7 3.463050 1_555
K1 S0 3.166848 1_655
K1 S6 3.175473 1_545
K1 S6 3.188246 1_645
K1 S5 3.202432 1_555
K1 S5 3.220019 1_655
K1 S3 3.496666 1_555
K1 S3 3.504302 1_655
Dy0 S6 2.681547 1_555
Dy0 S5 2.724498 1_555
Dy0 S5 2.733060 1_655
Dy0 S4 2.787512 1_556
Dy0 S8 2.816920 1_556
Dy0 S8 2.825027 1_456
Dy1 S2 2.677233 1_555
Dy1 S4 2.729381 1_455
Dy1 S4 2.731164 1_555
Dy1 S5 2.794085 1_554
Dy1 S8 2.819523 1_445
Dy1 S8 2.827453 1_545
Dy2 S6 2.692329 1_555
Dy2 S3 2.708702 1_655
Dy2 S3 2.709796 1_555
Dy2 S1 2.723713 1_555
Dy2 S0 2.797440 1_565
Dy2 S0 2.811438 1_665
Dy3 S2 2.688876 1_555
Dy3 S7 2.709913 1_555
Dy3 S7 2.710442 1_455
Dy3 S0 2.721107 1_555
Dy3 S1 2.802939 1_545
Dy3 S1 2.807513 1_445
Cu0 S6 2.345825 1_455
Cu0 S5 2.355674 1_555
Cu0 S6 2.365403 1_555
Cu0 S3 2.485626 1_555
Cu1 S2 2.346665 1_555
Cu1 S4 2.347560 1_555
Cu1 S2 2.352812 1_655
Cu1 S7 2.503241 1_555
Cu2 S0 2.331828 1_655
Cu2 S0 2.346333 1_555
Cu2 S3 2.383892 1_555
Cu2 S7 2.506779 1_555
Cu3 S1 2.335039 1_455
Cu3 S1 2.338720 1_555
Cu3 S7 2.391423 1_555
Cu3 S3 2.501477 1_555
