# generated using pymatgen
data_Tb2MgS4
_symmetry_space_group_name_H-M   'P 1'
_cell_length_a   6.52662705
_cell_length_b   6.52662705
_cell_length_c   12.86851647
_cell_angle_alpha   90.00000000
_cell_angle_beta   90.00000000
_cell_angle_gamma   146.21282684
_symmetry_Int_Tables_number   1
_chemical_formula_structural   Tb2MgS4
_chemical_formula_sum   'Tb4 Mg2 S8'
_cell_volume   304.83613333
_cell_formula_units_Z   2
loop_
 _symmetry_equiv_pos_site_id
 _symmetry_equiv_pos_as_xyz
  1  'x, y, z'
loop_
 _atom_site_type_symbol
 _atom_site_label
 _atom_site_symmetry_multiplicity
 _atom_site_fract_x
 _atom_site_fract_y
 _atom_site_fract_z
 _atom_site_occupancy
  Tb  Tb0  1  0.38174225  0.61825775  0.78428729  1
  Tb  Tb1  1  0.61825775  0.38174225  0.28428729  1
  Tb  Tb2  1  0.13766809  0.86233191  0.58260157  1
  Tb  Tb3  1  0.86233191  0.13766809  0.08260157  1
  Mg  Mg0  1  0.12644061  0.87355939  0.94607567  1
  Mg  Mg1  1  0.87355939  0.12644061  0.44607567  1
  S  S0  1  0.78981100  0.21018900  0.63511388  1
  S  S1  1  0.21018900  0.78981100  0.13511388  1
  S  S2  1  0.48836565  0.51163435  0.99564526  1
  S  S3  1  0.51163435  0.48836565  0.49564526  1
  S  S4  1  0.76108849  0.23891151  0.89566403  1
  S  S5  1  0.23891151  0.76108849  0.39566403  1
  S  S6  1  0.03727028  0.96272972  0.76861230  1
  S  S7  1  0.96272972  0.03727028  0.26861230  1
loop_
_geom_bond_atom_site_label_1
_geom_bond_atom_site_label_2
_geom_bond_distance
_geom_bond_site_symmetry_2
Mg0 S6 2.540796 1_555
Mg0 S4 2.616529 1_455
Mg0 S4 2.616529 1_565
Mg0 S2 2.641607 1_565
Mg0 S2 2.641607 1_455
Mg0 S1 2.647997 1_556
Mg1 S7 2.540796 1_555
Mg1 S5 2.616529 1_655
Mg1 S5 2.616529 1_545
Mg1 S3 2.641607 1_655
Mg1 S3 2.641607 1_545
Mg1 S0 2.647997 1_555
S0 Tb2 2.768527 1_655
S0 Tb2 2.768527 1_545
S0 Tb0 2.932667 1_545
S0 Tb0 2.932667 1_655
S1 Tb3 2.768527 1_455
S1 Tb3 2.768527 1_565
S1 Tb1 2.932667 1_455
S1 Tb1 2.932667 1_565
S2 Tb3 2.706887 1_566
S2 Tb3 2.706887 1_456
S2 Tb0 3.028389 1_555
S3 Tb2 2.706887 1_545
S3 Tb2 2.706887 1_655
S3 Tb1 3.028389 1_555
S4 Tb3 2.717716 1_556
S4 Tb0 2.814651 1_545
S4 Tb0 2.814651 1_655
S5 Tb2 2.717716 1_555
S5 Tb1 2.814651 1_455
S5 Tb1 2.814651 1_565
S6 Tb2 2.702247 1_555
S6 Tb0 2.722362 1_455
S6 Tb0 2.722362 1_565
S7 Tb3 2.702247 1_555
S7 Tb1 2.722362 1_545
S7 Tb1 2.722362 1_655
