# generated using pymatgen
data_DyGaPt
_symmetry_space_group_name_H-M   'P 1'
_cell_length_a   4.41056117
_cell_length_b   6.92156311
_cell_length_c   7.59159280
_cell_angle_alpha   89.99735395
_cell_angle_beta   90.00000000
_cell_angle_gamma   90.00000000
_symmetry_Int_Tables_number   1
_chemical_formula_structural   DyGaPt
_chemical_formula_sum   'Dy4 Ga4 Pt4'
_cell_volume   231.75597398
_cell_formula_units_Z   4
loop_
 _symmetry_equiv_pos_site_id
 _symmetry_equiv_pos_as_xyz
  1  'x, y, z'
loop_
 _atom_site_type_symbol
 _atom_site_label
 _atom_site_symmetry_multiplicity
 _atom_site_fract_x
 _atom_site_fract_y
 _atom_site_fract_z
 _atom_site_occupancy
  Dy  Dy0  1  0.25000000  0.98595996  0.30041025  1
  Dy  Dy1  1  0.25000000  0.48596973  0.19961312  1
  Dy  Dy2  1  0.75000000  0.01404004  0.69958975  1
  Dy  Dy3  1  0.75000000  0.51403027  0.80038688  1
  Ga  Ga0  1  0.25000000  0.32605247  0.57727124  1
  Ga  Ga1  1  0.25000000  0.82605501  0.92271215  1
  Ga  Ga2  1  0.75000000  0.67394753  0.42272976  1
  Ga  Ga3  1  0.75000000  0.17394499  0.07728685  1
  Pt  Pt0  1  0.25000000  0.22106062  0.90446172  1
  Pt  Pt1  1  0.25000000  0.72105938  0.59553237  1
  Pt  Pt2  1  0.75000000  0.77893938  0.09553728  1
  Pt  Pt3  1  0.75000000  0.27894062  0.40446763  1
loop_
_geom_bond_atom_site_label_1
_geom_bond_atom_site_label_2
_geom_bond_distance
_geom_bond_site_symmetry_2
Dy0 Pt1 2.895003 1_555
Dy0 Pt2 3.055435 1_455
Dy0 Pt2 3.055435 1_555
Dy0 Ga3 3.070052 1_465
Dy0 Ga3 3.070052 1_565
Dy0 Ga1 3.073575 1_554
Dy0 Pt3 3.098348 1_465
Dy0 Pt3 3.098348 1_565
Dy0 Ga0 3.155831 1_565
Dy0 Ga2 3.223245 1_455
Dy0 Ga2 3.223245 1_555
Dy1 Pt0 2.895343 1_554
Dy1 Pt3 3.055324 1_455
Dy1 Pt3 3.055324 1_555
Dy1 Ga2 3.070069 1_555
Dy1 Ga2 3.070069 1_455
Dy1 Ga0 3.073227 1_555
Dy1 Pt2 3.098287 1_455
Dy1 Pt2 3.098287 1_555
Dy1 Ga1 3.155851 1_554
Dy1 Ga3 3.223374 1_455
Dy1 Ga3 3.223374 1_555
Dy2 Pt3 2.895003 1_555
Dy2 Pt0 3.055431 1_655
Dy2 Pt0 3.055431 1_555
Dy2 Ga1 3.070048 1_545
Dy2 Ga1 3.070048 1_645
Dy2 Ga3 3.073568 1_556
Dy2 Pt1 3.098348 1_645
Dy2 Pt1 3.098348 1_545
Dy2 Ga2 3.155826 1_545
Dy2 Ga0 3.223243 1_655
Dy2 Ga0 3.223243 1_555
Dy3 Pt2 2.895337 1_556
Dy3 Pt1 3.055324 1_555
Dy3 Pt1 3.055324 1_655
Dy3 Ga0 3.070065 1_655
Dy3 Ga0 3.070065 1_555
Dy3 Ga2 3.073220 1_555
Dy3 Pt0 3.098285 1_655
Dy3 Pt0 3.098285 1_555
Dy3 Ga3 3.155846 1_556
Dy3 Ga1 3.223372 1_655
Dy3 Ga1 3.223372 1_555
Ga0 Pt3 2.586619 1_455
Ga0 Pt3 2.586619 1_555
Ga0 Pt0 2.587988 1_555
Ga0 Pt1 2.737584 1_555
Ga1 Pt2 2.586690 1_456
Ga1 Pt2 2.586690 1_556
Ga1 Pt1 2.587982 1_555
Ga1 Pt0 2.737558 1_565
Ga2 Pt1 2.586615 1_555
Ga2 Pt1 2.586615 1_655
Ga2 Pt2 2.588002 1_555
Ga2 Pt3 2.737584 1_555
Ga3 Pt0 2.586690 1_654
Ga3 Pt0 2.586690 1_554
Ga3 Pt3 2.587989 1_555
Ga3 Pt2 2.737558 1_545
