# generated using pymatgen
data_Ca6Al2Fe4O15
_symmetry_space_group_name_H-M   'P 1'
_cell_length_a   5.44276900
_cell_length_b   15.69690819
_cell_length_c   17.13842704
_cell_angle_alpha   68.65737521
_cell_angle_beta   89.97560193
_cell_angle_gamma   89.99107178
_symmetry_Int_Tables_number   1
_chemical_formula_structural   Ca6Al2Fe4O15
_chemical_formula_sum   'Ca24 Al8 Fe16 O60'
_cell_volume   1363.80048824
_cell_formula_units_Z   4
loop_
 _symmetry_equiv_pos_site_id
 _symmetry_equiv_pos_as_xyz
  1  'x, y, z'
loop_
 _atom_site_type_symbol
 _atom_site_label
 _atom_site_symmetry_multiplicity
 _atom_site_fract_x
 _atom_site_fract_y
 _atom_site_fract_z
 _atom_site_occupancy
  Ca  Ca0  1  0.98497700  0.89209100  0.21357700  1
  Ca  Ca1  1  0.98504400  0.89356900  0.54423900  1
  Ca  Ca2  1  0.98371600  0.89313000  0.88094100  1
  Ca  Ca3  1  0.48630500  0.60738500  0.45431900  1
  Ca  Ca4  1  0.48356100  0.60569700  0.78787500  1
  Ca  Ca5  1  0.48658300  0.60711700  0.12148100  1
  Ca  Ca6  1  0.01118600  0.38988600  0.35887300  1
  Ca  Ca7  1  0.01144000  0.38889600  0.69224300  1
  Ca  Ca8  1  0.01156400  0.38967500  0.02628100  1
  Ca  Ca9  1  0.51199900  0.11024400  0.30720000  1
  Ca  Ca10  1  0.51152100  0.11103200  0.64072500  1
  Ca  Ca11  1  0.51206900  0.11021800  0.97417500  1
  Ca  Ca12  1  0.01140200  0.11112500  0.45146300  1
  Ca  Ca13  1  0.01147600  0.11018600  0.78607700  1
  Ca  Ca14  1  0.01127200  0.11023000  0.11884200  1
  Ca  Ca15  1  0.51191500  0.38965300  0.21436600  1
  Ca  Ca16  1  0.51214000  0.38985800  0.54733500  1
  Ca  Ca17  1  0.51150800  0.38898800  0.88138700  1
  Ca  Ca18  1  0.98498200  0.60792800  0.30827500  1
  Ca  Ca19  1  0.98503100  0.60643800  0.63997000  1
  Ca  Ca20  1  0.98370800  0.60683700  0.97637200  1
  Ca  Ca21  1  0.48627600  0.89265700  0.35920600  1
  Ca  Ca22  1  0.48358800  0.89430000  0.69168100  1
  Ca  Ca23  1  0.48657100  0.89287000  0.02623400  1
  Al  Al0  1  0.94357400  0.74999900  0.43979500  1
  Al  Al1  1  0.94394900  0.75002900  0.10660100  1
  Al  Al2  1  0.55512700  0.24997000  0.10939400  1
  Al  Al3  1  0.55513000  0.24996700  0.77593900  1
  Al  Al4  1  0.55505200  0.25005600  0.44250600  1
  Al  Al5  1  0.05462700  0.25000100  0.22440900  1
  Al  Al6  1  0.05472600  0.24978900  0.89113700  1
  Al  Al7  1  0.05476100  0.25020800  0.55749800  1
  Fe  Fe0  1  0.50068600  0.00466000  0.49869900  1
  Fe  Fe1  1  0.50108500  0.00393800  0.83242000  1
  Fe  Fe2  1  0.50060400  0.00369100  0.16584100  1
  Fe  Fe3  1  0.00082600  0.49865100  0.50031500  1
  Fe  Fe4  1  0.00100400  0.49559000  0.83457000  1
  Fe  Fe5  1  0.00084300  0.49876700  0.16749100  1
  Fe  Fe6  1  0.50062300  0.49628700  0.33499800  1
  Fe  Fe7  1  0.50068200  0.49533900  0.66850500  1
  Fe  Fe8  1  0.50108900  0.49599600  0.00174300  1
  Fe  Fe9  1  0.00075400  0.00145600  0.33269700  1
  Fe  Fe10  1  0.00102200  0.00449800  0.66488700  1
  Fe  Fe11  1  0.00088900  0.00120800  0.00001400  1
  Fe  Fe12  1  0.44276800  0.74997500  0.89351900  1
  Fe  Fe13  1  0.44285000  0.75000000  0.55836200  1
  Fe  Fe14  1  0.44250900  0.75000700  0.22465100  1
  Fe  Fe15  1  0.94304000  0.75000900  0.77275300  1
  O  O0  1  0.75258200  0.01968200  0.57618500  1
  O  O1  1  0.75242200  0.01851900  0.91082800  1
  O  O2  1  0.75212100  0.01755400  0.24404100  1
  O  O3  1  0.25114900  0.48303000  0.42284900  1
  O  O4  1  0.25242700  0.47945900  0.75715800  1
  O  O5  1  0.25144200  0.48294300  0.08988400  1
  O  O6  1  0.24973500  0.51311900  0.24663300  1
  O  O7  1  0.24946200  0.51317500  0.57958200  1
  O  O8  1  0.24977800  0.51216400  0.91352700  1
  O  O9  1  0.74954700  0.98690800  0.08744700  1
  O  O10  1  0.74915400  0.98718900  0.42007700  1
  O  O11  1  0.74984400  0.98768500  0.75340600  1
  O  O12  1  0.24974100  0.98690000  0.08871600  1
  O  O13  1  0.24944600  0.98684700  0.42170000  1
  O  O14  1  0.24971500  0.98783500  0.75494200  1
  O  O15  1  0.74953600  0.51306900  0.24538300  1
  O  O16  1  0.74917000  0.51280700  0.57819300  1
  O  O17  1  0.74975700  0.51229600  0.91189900  1
  O  O18  1  0.75216000  0.48247600  0.42239000  1
  O  O19  1  0.75258900  0.48032100  0.75600600  1
  O  O20  1  0.75242100  0.48143100  0.08986300  1
  O  O21  1  0.25244100  0.02054300  0.57675400  1
  O  O22  1  0.25145200  0.01704300  0.91185300  1
  O  O23  1  0.25115600  0.01697400  0.24487900  1
  O  O24  1  0.08841800  0.74999900  0.20204500  1
  O  O25  1  0.08866300  0.75000300  0.53517700  1
  O  O26  1  0.08533200  0.74998300  0.87648100  1
  O  O27  1  0.61267600  0.75000100  0.12494800  1
  O  O28  1  0.61243900  0.75001800  0.45843100  1
  O  O29  1  0.58551600  0.74999600  0.78983100  1
  O  O30  1  0.88331900  0.25024300  0.46656200  1
  O  O31  1  0.88345600  0.24991500  0.80017000  1
  O  O32  1  0.88343900  0.24987400  0.13348800  1
  O  O33  1  0.38339700  0.25022500  0.53316700  1
  O  O34  1  0.38334800  0.24975500  0.86678200  1
  O  O35  1  0.38332300  0.24999600  0.20011900  1
  O  O36  1  0.52026100  0.85928000  0.23883800  1
  O  O37  1  0.52077000  0.86007200  0.57150100  1
  O  O38  1  0.52622200  0.85979400  0.90583900  1
  O  O39  1  0.01916600  0.64573400  0.42761400  1
  O  O40  1  0.02638500  0.64006200  0.76024200  1
  O  O41  1  0.01961200  0.64524900  0.09524400  1
  O  O42  1  0.49019700  0.35304000  0.35847100  1
  O  O43  1  0.49059500  0.35218000  0.69117400  1
  O  O44  1  0.49025700  0.35250100  0.02541900  1
  O  O45  1  0.99028000  0.14705400  0.30823300  1
  O  O46  1  0.99046100  0.14800900  0.64196700  1
  O  O47  1  0.99032800  0.14704000  0.97543700  1
  O  O48  1  0.49062100  0.14796100  0.42588900  1
  O  O49  1  0.49026500  0.14726900  0.76049100  1
  O  O50  1  0.49028300  0.14710700  0.09378900  1
  O  O51  1  0.99043800  0.35267500  0.24017600  1
  O  O52  1  0.99020200  0.35308200  0.57292700  1
  O  O53  1  0.99045900  0.35207900  0.90733300  1
  O  O54  1  0.52028000  0.64068400  0.31171800  1
  O  O55  1  0.52072900  0.63996600  0.64486000  1
  O  O56  1  0.52628000  0.64009800  0.97909500  1
  O  O57  1  0.01921700  0.85426900  0.35811000  1
  O  O58  1  0.02643400  0.85998100  0.68690700  1
  O  O59  1  0.01963400  0.85474000  0.02544700  1
loop_
_geom_bond_atom_site_label_1
_geom_bond_atom_site_label_2
_geom_bond_distance
_geom_bond_site_symmetry_2
Ca0 O57 2.335163 1_655
Ca0 O24 2.377209 1_655
Ca0 O9 2.487942 1_555
Ca0 O2 2.550373 1_565
Ca0 O12 2.559418 1_655
Ca0 O36 2.586007 1_555
Ca0 O23 2.645066 1_665
Ca0 O36 2.962947 1_655
Ca1 O58 2.317185 1_655
Ca1 O25 2.382210 1_655
Ca1 O10 2.462039 1_555
Ca1 O13 2.526885 1_655
Ca1 O0 2.570384 1_565
Ca1 O37 2.588583 1_555
Ca1 O21 2.685358 1_665
Ca1 O37 2.969632 1_655
Ca2 O59 2.334307 1_656
Ca2 O26 2.342046 1_655
Ca2 O11 2.498225 1_555
Ca2 O1 2.540381 1_565
Ca2 O38 2.548164 1_555
Ca2 O14 2.574964 1_655
Ca2 O22 2.634197 1_665
Ca2 O38 3.002100 1_655
Ca3 O54 2.313037 1_555
Ca3 O28 2.367341 1_555
Ca3 O7 2.478869 1_555
Ca3 O16 2.542806 1_555
Ca3 O3 2.550879 1_555
Ca3 O39 2.614625 1_555
Ca3 O18 2.648944 1_555
Ca3 O39 2.963460 1_655
Ca4 O55 2.319020 1_555
Ca4 O29 2.344179 1_555
Ca4 O8 2.471634 1_555
Ca4 O17 2.549572 1_555
Ca4 O40 2.553733 1_555
Ca4 O4 2.558692 1_555
Ca4 O19 2.663884 1_555
Ca4 O40 3.009566 1_655
Ca5 O56 2.312930 1_554
Ca5 O27 2.366932 1_555
Ca5 O6 2.476714 1_555
Ca5 O15 2.541059 1_555
Ca5 O5 2.549513 1_555
Ca5 O41 2.612444 1_555
Ca5 O20 2.656315 1_555
Ca5 O41 2.963221 1_655
Ca6 O51 2.314589 1_455
Ca6 O30 2.397926 1_455
Ca6 O3 2.492858 1_555
Ca6 O6 2.533388 1_555
Ca6 O18 2.536644 1_455
Ca6 O15 2.610363 1_455
Ca6 O42 2.670989 1_555
Ca6 O42 2.894606 1_455
Ca7 O52 2.312563 1_455
Ca7 O31 2.393332 1_455
Ca7 O4 2.476283 1_555
Ca7 O19 2.525504 1_455
Ca7 O7 2.543420 1_555
Ca7 O16 2.622139 1_455
Ca7 O43 2.672258 1_555
Ca7 O43 2.894312 1_455
Ca8 O53 2.322323 1_454
Ca8 O32 2.396316 1_455
Ca8 O5 2.489896 1_555
Ca8 O20 2.528182 1_455
Ca8 O8 2.531059 1_554
Ca8 O17 2.614037 1_454
Ca8 O44 2.671080 1_555
Ca8 O44 2.897950 1_455
Ca9 O48 2.319085 1_555
Ca9 O35 2.396022 1_555
Ca9 O2 2.478139 1_555
Ca9 O10 2.533967 1_545
Ca9 O23 2.537711 1_555
Ca9 O13 2.622302 1_545
Ca9 O45 2.668077 1_555
Ca9 O45 2.899029 1_455
Ca10 O49 2.323728 1_555
Ca10 O33 2.393136 1_555
Ca10 O0 2.480665 1_555
Ca10 O21 2.518614 1_555
Ca10 O11 2.537807 1_545
Ca10 O14 2.616299 1_545
Ca10 O46 2.672462 1_555
Ca10 O46 2.896329 1_455
Ca11 O50 2.327152 1_556
Ca11 O34 2.396270 1_555
Ca11 O1 2.469321 1_555
Ca11 O22 2.535945 1_555
Ca11 O9 2.540094 1_546
Ca11 O12 2.621394 1_546
Ca11 O47 2.668341 1_555
Ca11 O47 2.899494 1_455
Ca12 O45 2.312908 1_455
Ca12 O30 2.394219 1_455
Ca12 O21 2.476518 1_555
Ca12 O0 2.525585 1_455
Ca12 O13 2.543092 1_545
Ca12 O10 2.621933 1_445
Ca12 O48 2.672934 1_555
Ca12 O48 2.894279 1_455
Ca13 O46 2.323458 1_455
Ca13 O31 2.395715 1_455
Ca13 O22 2.489578 1_555
Ca13 O1 2.527530 1_455
Ca13 O14 2.529651 1_545
Ca13 O11 2.612285 1_445
Ca13 O49 2.671279 1_555
Ca13 O49 2.897150 1_455
Ca14 O47 2.313843 1_454
Ca14 O32 2.398277 1_455
Ca14 O23 2.492717 1_555
Ca14 O12 2.534779 1_545
Ca14 O2 2.536895 1_455
Ca14 O9 2.612587 1_445
Ca14 O50 2.671188 1_555
Ca14 O50 2.894789 1_455
Ca15 O42 2.326041 1_555
Ca15 O35 2.396952 1_555
Ca15 O20 2.470358 1_555
Ca15 O5 2.536464 1_555
Ca15 O15 2.541483 1_555
Ca15 O6 2.622338 1_555
Ca15 O51 2.670125 1_555
Ca15 O51 2.898441 1_455
Ca16 O43 2.319301 1_555
Ca16 O33 2.396246 1_555
Ca16 O18 2.477460 1_555
Ca16 O16 2.532373 1_555
Ca16 O3 2.537584 1_555
Ca16 O7 2.621743 1_555
Ca16 O52 2.666857 1_555
Ca16 O52 2.900146 1_455
Ca17 O44 2.324975 1_556
Ca17 O34 2.392608 1_555
Ca17 O19 2.479992 1_555
Ca17 O4 2.517798 1_555
Ca17 O17 2.537605 1_555
Ca17 O8 2.616249 1_555
Ca17 O53 2.672432 1_555
Ca17 O53 2.896190 1_455
Ca18 O39 2.335337 1_655
Ca18 O24 2.376769 1_655
Ca18 O15 2.488188 1_555
Ca18 O18 2.550274 1_555
Ca18 O6 2.559243 1_655
Ca18 O54 2.585844 1_555
Ca18 O3 2.645275 1_655
Ca18 O54 2.962946 1_655
Ca19 O40 2.317411 1_655
Ca19 O25 2.382361 1_655
Ca19 O16 2.462401 1_555
Ca19 O7 2.527166 1_655
Ca19 O19 2.570488 1_555
Ca19 O55 2.588762 1_555
Ca19 O4 2.685585 1_655
Ca19 O55 2.969509 1_655
Ca20 O41 2.333825 1_656
Ca20 O26 2.342045 1_655
Ca20 O17 2.497992 1_555
Ca20 O20 2.540591 1_556
Ca20 O56 2.547641 1_555
Ca20 O8 2.574626 1_655
Ca20 O5 2.633981 1_656
Ca20 O56 3.002309 1_655
Ca21 O36 2.313153 1_555
Ca21 O28 2.367607 1_555
Ca21 O13 2.479012 1_555
Ca21 O10 2.542840 1_555
Ca21 O23 2.550102 1_565
Ca21 O57 2.614277 1_555
Ca21 O2 2.648530 1_565
Ca21 O57 2.963951 1_655
Ca22 O37 2.318852 1_555
Ca22 O29 2.344167 1_555
Ca22 O14 2.471507 1_555
Ca22 O11 2.549237 1_555
Ca22 O58 2.553552 1_555
Ca22 O21 2.559194 1_565
Ca22 O0 2.664179 1_565
Ca22 O58 3.009626 1_655
Ca23 O38 2.313664 1_554
Ca23 O27 2.366732 1_555
Ca23 O12 2.476987 1_555
Ca23 O9 2.541119 1_555
Ca23 O22 2.549456 1_564
Ca23 O59 2.612213 1_555
Ca23 O1 2.656061 1_564
Ca23 O59 2.963356 1_655
Al0 O39 1.771964 1_655
Al0 O57 1.772033 1_655
Al0 O25 1.815768 1_655
Al0 O28 1.830258 1_555
Al1 O59 1.772410 1_655
Al1 O41 1.773507 1_655
Al1 O24 1.815084 1_655
Al1 O27 1.830096 1_555
Al2 O44 1.760810 1_555
Al2 O50 1.765701 1_555
Al2 O35 1.814188 1_555
Al2 O32 1.834066 1_555
Al3 O49 1.761910 1_555
Al3 O43 1.764001 1_555
Al3 O34 1.814697 1_555
Al3 O31 1.834727 1_555
Al4 O48 1.762044 1_555
Al4 O42 1.765682 1_555
Al4 O33 1.813533 1_555
Al4 O30 1.834046 1_555
Al5 O45 1.762885 1_455
Al5 O51 1.763316 1_455
Al5 O32 1.816523 1_455
Al5 O35 1.836646 1_555
Al6 O53 1.761142 1_455
Al6 O47 1.764965 1_455
Al6 O31 1.816188 1_455
Al6 O34 1.836544 1_555
Al7 O46 1.760973 1_455
Al7 O52 1.763954 1_455
Al7 O30 1.816659 1_455
Al7 O33 1.836459 1_555
Fe0 O21 1.979496 1_555
Fe0 O0 1.982021 1_555
Fe0 O13 1.989916 1_545
Fe0 O10 1.996752 1_545
Fe0 O48 2.139338 1_555
Fe0 O37 2.158370 1_545
Fe1 O22 1.985909 1_555
Fe1 O14 1.986170 1_545
Fe1 O1 1.988726 1_555
Fe1 O11 1.995452 1_545
Fe1 O49 2.136866 1_555
Fe1 O38 2.156193 1_545
Fe2 O23 1.981318 1_555
Fe2 O2 1.982805 1_555
Fe2 O12 1.983973 1_545
Fe2 O9 1.991572 1_545
Fe2 O50 2.138327 1_555
Fe2 O36 2.156575 1_545
Fe3 O3 1.978471 1_555
Fe3 O16 1.980185 1_455
Fe3 O18 1.981993 1_455
Fe3 O7 1.988961 1_555
Fe3 O52 2.168720 1_455
Fe3 O39 2.190624 1_555
Fe4 O19 1.983694 1_455
Fe4 O4 1.984890 1_555
Fe4 O17 1.986578 1_455
Fe4 O8 1.997529 1_555
Fe4 O53 2.142003 1_455
Fe4 O40 2.163741 1_555
Fe5 O15 1.979865 1_455
Fe5 O5 1.982410 1_555
Fe5 O20 1.984295 1_455
Fe5 O6 1.987379 1_555
Fe5 O51 2.175864 1_455
Fe5 O41 2.181303 1_555
Fe6 O3 1.980962 1_555
Fe6 O18 1.982401 1_555
Fe6 O6 1.984537 1_555
Fe6 O15 1.991864 1_555
Fe6 O42 2.136016 1_555
Fe6 O54 2.156348 1_555
Fe7 O4 1.979656 1_555
Fe7 O19 1.982076 1_555
Fe7 O7 1.990387 1_555
Fe7 O16 1.997363 1_555
Fe7 O43 2.137334 1_555
Fe7 O55 2.158777 1_555
Fe8 O5 1.985748 1_555
Fe8 O8 1.985829 1_554
Fe8 O20 1.988641 1_555
Fe8 O17 1.994938 1_554
Fe8 O44 2.139231 1_555
Fe8 O56 2.155663 1_554
Fe9 O23 1.978255 1_555
Fe9 O10 1.980484 1_445
Fe9 O2 1.981406 1_455
Fe9 O13 1.989612 1_545
Fe9 O45 2.169048 1_455
Fe9 O57 2.192070 1_545
Fe10 O0 1.983486 1_455
Fe10 O21 1.984674 1_555
Fe10 O11 1.986721 1_445
Fe10 O14 1.997624 1_545
Fe10 O46 2.141974 1_455
Fe10 O58 2.164328 1_545
Fe11 O9 1.980080 1_445
Fe11 O22 1.982307 1_554
Fe11 O1 1.984526 1_454
Fe11 O12 1.987246 1_545
Fe11 O47 2.172304 1_454
Fe11 O59 2.181000 1_545
Fe12 O38 1.867541 1_555
Fe12 O56 1.868532 1_555
Fe12 O29 1.939058 1_555
Fe12 O26 1.967350 1_555
Fe13 O55 1.870047 1_555
Fe13 O37 1.870651 1_555
Fe13 O28 1.945122 1_555
Fe13 O25 1.968446 1_555
Fe14 O36 1.866591 1_555
Fe14 O54 1.867357 1_555
Fe14 O27 1.943300 1_555
Fe14 O24 1.965963 1_555
Fe15 O40 1.870632 1_655
Fe15 O58 1.871234 1_655
Fe15 O26 1.939272 1_655
Fe15 O29 1.967675 1_555
