# generated using pymatgen
data_KB(S2O7)2
_symmetry_space_group_name_H-M   'P 1'
_cell_length_a   9.57949506
_cell_length_b   9.57949506
_cell_length_c   14.10173872
_cell_angle_alpha   87.42833372
_cell_angle_beta   87.42833372
_cell_angle_gamma   104.09153938
_symmetry_Int_Tables_number   1
_chemical_formula_structural   KB(S2O7)2
_chemical_formula_sum   'K4 B4 S16 O56'
_cell_volume   1251.78466584
_cell_formula_units_Z   4
loop_
 _symmetry_equiv_pos_site_id
 _symmetry_equiv_pos_as_xyz
  1  'x, y, z'
loop_
 _atom_site_type_symbol
 _atom_site_label
 _atom_site_symmetry_multiplicity
 _atom_site_fract_x
 _atom_site_fract_y
 _atom_site_fract_z
 _atom_site_occupancy
  K  K0  1  0.85119400  0.91171600  0.67210200  1
  K  K1  1  0.91171600  0.85119400  0.17210200  1
  K  K2  1  0.28155000  0.31170400  0.75104000  1
  K  K3  1  0.31170400  0.28155000  0.25104000  1
  B  B0  1  0.38692600  0.82059900  0.45624700  1
  B  B1  1  0.82059900  0.38692600  0.95624700  1
  B  B2  1  0.79479000  0.32323500  0.44472400  1
  B  B3  1  0.32323500  0.79479000  0.94472400  1
  S  S0  1  0.69226200  0.25993700  0.80249400  1
  S  S1  1  0.25993700  0.69226200  0.30249400  1
  S  S2  1  0.92504900  0.51997900  0.79121100  1
  S  S3  1  0.51997900  0.92504900  0.29121100  1
  S  S4  1  0.42174200  0.73898000  0.63450200  1
  S  S5  1  0.73898000  0.42174200  0.13450200  1
  S  S6  1  0.27030000  0.95561300  0.59329200  1
  S  S7  1  0.95561300  0.27030000  0.09329200  1
  S  S8  1  0.92941200  0.11966200  0.40266700  1
  S  S9  1  0.11966200  0.92941200  0.90266700  1
  S  S10  1  0.02468200  0.31168100  0.54832000  1
  S  S11  1  0.31168100  0.02468200  0.04832000  1
  S  S12  1  0.59780100  0.77564900  0.92888100  1
  S  S13  1  0.77564900  0.59780100  0.42888100  1
  S  S14  1  0.36778400  0.52947300  0.98844200  1
  S  S15  1  0.52947300  0.36778400  0.48844200  1
  O  O0  1  0.71838700  0.14330800  0.75086900  1
  O  O1  1  0.14330800  0.71838700  0.25086900  1
  O  O2  1  0.54991500  0.28040200  0.81505600  1
  O  O3  1  0.28040200  0.54991500  0.31505600  1
  O  O4  1  0.04518700  0.45540200  0.78816200  1
  O  O5  1  0.45540200  0.04518700  0.28816200  1
  O  O6  1  0.93448200  0.65649300  0.74388300  1
  O  O7  1  0.65649300  0.93448200  0.24388300  1
  O  O8  1  0.55496800  0.84225900  0.64535600  1
  O  O9  1  0.84225900  0.55496800  0.14535600  1
  O  O10  1  0.38244900  0.60729200  0.69135000  1
  O  O11  1  0.60729200  0.38244900  0.19135000  1
  O  O12  1  0.12086800  0.92296900  0.57441000  1
  O  O13  1  0.92296900  0.12086800  0.07441000  1
  O  O14  1  0.33476000  0.08104700  0.64162900  1
  O  O15  1  0.08104700  0.33476000  0.14162900  1
  O  O16  1  0.99818500  0.08518200  0.31787700  1
  O  O17  1  0.08518200  0.99818500  0.81787700  1
  O  O18  1  0.85519600  0.00940400  0.47147100  1
  O  O19  1  0.00940400  0.85519600  0.97147100  1
  O  O20  1  0.11804200  0.45254400  0.53735700  1
  O  O21  1  0.45254400  0.11804200  0.03735700  1
  O  O22  1  0.03175100  0.21780300  0.62916600  1
  O  O23  1  0.21780300  0.03175100  0.12916600  1
  O  O24  1  0.70376600  0.80271800  0.85170100  1
  O  O25  1  0.80271800  0.70376600  0.35170100  1
  O  O26  1  0.80491300  0.63540200  0.52399800  1
  O  O27  1  0.63540200  0.80491300  0.02399800  1
  O  O28  1  0.39628200  0.52853100  0.08692900  1
  O  O29  1  0.52853100  0.39628200  0.58692900  1
  O  O30  1  0.31019800  0.39809600  0.94426200  1
  O  O31  1  0.39809600  0.31019800  0.44426200  1
  O  O32  1  0.76744900  0.26160100  0.89787900  1
  O  O33  1  0.26160100  0.76744900  0.39787900  1
  O  O34  1  0.86250400  0.52135900  0.89522700  1
  O  O35  1  0.52135900  0.86250400  0.39522700  1
  O  O36  1  0.39921500  0.70749200  0.52818200  1
  O  O37  1  0.70749200  0.39921500  0.02818200  1
  O  O38  1  0.36733200  0.95071300  0.50332900  1
  O  O39  1  0.95071300  0.36733200  0.00332900  1
  O  O40  1  0.83661600  0.22620300  0.37555700  1
  O  O41  1  0.22620300  0.83661600  0.87555700  1
  O  O42  1  0.86407500  0.30869400  0.53621800  1
  O  O43  1  0.30869400  0.86407500  0.03621800  1
  O  O44  1  0.84057700  0.47057800  0.39961200  1
  O  O45  1  0.47057800  0.84057700  0.89961200  1
  O  O46  1  0.27604200  0.63779200  0.96291500  1
  O  O47  1  0.63779200  0.27604200  0.46291500  1
  O  O48  1  0.78831600  0.41097800  0.74472900  1
  O  O49  1  0.41097800  0.78831600  0.24472900  1
  O  O50  1  0.28751200  0.81343400  0.65830300  1
  O  O51  1  0.81343400  0.28751200  0.15830300  1
  O  O52  1  0.06291200  0.23013700  0.45193600  1
  O  O53  1  0.23013700  0.06291200  0.95193600  1
  O  O54  1  0.51965200  0.60095800  0.92453800  1
  O  O55  1  0.60095800  0.51965200  0.42453800  1
loop_
_geom_bond_atom_site_label_1
_geom_bond_atom_site_label_2
_geom_bond_distance
_geom_bond_site_symmetry_2
K0 O8 2.799401 1_555
K0 O12 2.848654 1_655
K0 O24 2.867542 1_555
K0 O6 2.905002 1_555
K0 O18 2.935478 1_565
K0 O22 3.038577 1_665
K0 O0 3.040218 1_565
K0 O17 3.098130 1_655
K1 O9 2.799401 1_555
K1 O13 2.848654 1_565
K1 O25 2.867542 1_555
K1 O7 2.905002 1_555
K1 O19 2.935478 1_654
K1 O23 3.038577 1_665
K1 O1 3.040218 1_655
K1 O16 3.098130 1_565
K2 O10 2.835668 1_555
K2 O2 2.841339 1_555
K2 O14 2.882071 1_555
K2 O30 2.888501 1_555
K2 O4 2.961712 1_555
K2 O22 2.991436 1_555
K2 O29 3.164947 1_555
K2 O17 3.206690 1_545
K3 O11 2.835668 1_555
K3 O3 2.841339 1_555
K3 O15 2.882071 1_555
K3 O31 2.888501 1_555
K3 O5 2.961712 1_555
K3 O23 2.991436 1_555
K3 O28 3.164947 1_555
K3 O16 3.206690 1_455
B0 O35 1.475752 1_555
B0 O36 1.480226 1_555
B0 O38 1.485472 1_555
B0 O33 1.485485 1_555
B1 O34 1.475752 1_555
B1 O37 1.480226 1_556
B1 O39 1.485472 1_556
B1 O32 1.485485 1_555
B2 O47 1.468324 1_555
B2 O44 1.477245 1_555
B2 O40 1.484432 1_555
B2 O42 1.493432 1_555
B3 O46 1.468324 1_555
B3 O45 1.477245 1_555
B3 O41 1.484432 1_555
B3 O43 1.493432 1_556
O0 S0 1.426062 1_555
O1 S1 1.426062 1_555
O2 S0 1.428589 1_555
O3 S1 1.428589 1_555
O4 S2 1.433051 1_455
O5 S3 1.433051 1_545
O6 S2 1.422143 1_555
O7 S3 1.422143 1_555
O8 S4 1.430846 1_555
O9 S5 1.430846 1_555
O10 S4 1.423614 1_555
O11 S5 1.423614 1_555
O12 S6 1.428822 1_555
O13 S7 1.428822 1_555
O14 S6 1.428190 1_545
O15 S7 1.428190 1_455
O16 S8 1.429514 1_555
O17 S9 1.429514 1_555
O18 S8 1.429308 1_555
O19 S9 1.429308 1_555
O20 S10 1.423319 1_555
O21 S11 1.423319 1_555
O22 S10 1.434457 1_555
O23 S11 1.434457 1_555
O24 S12 1.424627 1_555
O25 S13 1.424627 1_555
O26 S13 1.426669 1_555
O27 S12 1.426669 1_554
O28 S14 1.427438 1_554
O29 S15 1.427438 1_555
O30 S14 1.428105 1_555
O31 S15 1.428105 1_555
O32 S0 1.552923 1_555
O33 S1 1.552923 1_555
O34 S2 1.561220 1_555
O35 S3 1.561220 1_555
O36 S4 1.556717 1_555
O37 S5 1.556717 1_555
O38 S6 1.548034 1_555
O39 S7 1.548034 1_555
O40 S8 1.554115 1_555
O41 S9 1.554115 1_555
O42 S10 1.549062 1_655
O43 S11 1.549062 1_565
O44 S13 1.560045 1_555
O45 S12 1.560045 1_555
O46 S14 1.554854 1_555
O47 S15 1.554854 1_555
O48 S2 1.645627 1_555
O48 S0 1.668055 1_555
O49 S3 1.645627 1_555
O49 S1 1.668055 1_555
O50 S4 1.644418 1_555
O50 S6 1.653351 1_555
O51 S5 1.644418 1_555
O51 S7 1.653351 1_555
O52 S8 1.650720 1_455
O52 S10 1.667814 1_555
O53 S9 1.650720 1_545
O53 S11 1.667814 1_556
O54 S14 1.655107 1_555
O54 S12 1.663703 1_555
O55 S15 1.655107 1_555
O55 S13 1.663703 1_555
