# generated using pymatgen
data_MgMn2O4
_symmetry_space_group_name_H-M   'P 1'
_cell_length_a   3.00985700
_cell_length_b   9.61985400
_cell_length_c   9.91761700
_cell_angle_alpha   90.00000000
_cell_angle_beta   90.00000000
_cell_angle_gamma   90.00000000
_symmetry_Int_Tables_number   1
_chemical_formula_structural   MgMn2O4
_chemical_formula_sum   'Mg4 Mn8 O16'
_cell_volume   287.15849992
_cell_formula_units_Z   4
loop_
 _symmetry_equiv_pos_site_id
 _symmetry_equiv_pos_as_xyz
  1  'x, y, z'
loop_
 _atom_site_type_symbol
 _atom_site_label
 _atom_site_symmetry_multiplicity
 _atom_site_fract_x
 _atom_site_fract_y
 _atom_site_fract_z
 _atom_site_occupancy
  Mg  Mg0  1  0.32687600  0.75000000  0.35326800  1
  Mg  Mg1  1  0.32687600  0.25000000  0.14673200  1
  Mg  Mg2  1  0.67312400  0.75000000  0.85326800  1
  Mg  Mg3  1  0.67312400  0.25000000  0.64673200  1
  Mn  Mn0  1  0.79733200  0.57084600  0.11537800  1
  Mn  Mn1  1  0.79733200  0.07084600  0.38462200  1
  Mn  Mn2  1  0.20266800  0.07084600  0.88462200  1
  Mn  Mn3  1  0.79733200  0.42915400  0.38462200  1
  Mn  Mn4  1  0.20266800  0.42915400  0.88462200  1
  Mn  Mn5  1  0.79733200  0.92915400  0.11537800  1
  Mn  Mn6  1  0.20266800  0.92915400  0.61537800  1
  Mn  Mn7  1  0.20266800  0.57084600  0.61537800  1
  O  O0  1  0.20289700  0.88506700  0.96709900  1
  O  O1  1  0.79710300  0.11493300  0.03290100  1
  O  O2  1  0.37565400  0.00000000  0.25000000  1
  O  O3  1  0.79710300  0.88506700  0.46709900  1
  O  O4  1  0.79710300  0.61493300  0.46709900  1
  O  O5  1  0.82236000  0.25000000  0.29346000  1
  O  O6  1  0.20289700  0.11493300  0.53290100  1
  O  O7  1  0.17764000  0.25000000  0.79346000  1
  O  O8  1  0.37565400  0.50000000  0.25000000  1
  O  O9  1  0.62434600  0.00000000  0.75000000  1
  O  O10  1  0.20289700  0.61493300  0.96709900  1
  O  O11  1  0.17764000  0.75000000  0.70654000  1
  O  O12  1  0.82236000  0.75000000  0.20654000  1
  O  O13  1  0.62434600  0.50000000  0.75000000  1
  O  O14  1  0.20289700  0.38506700  0.53290100  1
  O  O15  1  0.79710300  0.38506700  0.03290100  1
loop_
_geom_bond_atom_site_label_1
_geom_bond_atom_site_label_2
_geom_bond_distance
_geom_bond_site_symmetry_2
Mg0 O12 2.083667 1_555
Mg0 O12 2.103209 1_455
Mg0 O3 2.228419 1_555
Mg0 O4 2.228419 1_555
Mg0 O4 2.346336 1_455
Mg0 O3 2.346336 1_455
Mg0 O8 2.618078 1_555
Mg0 O2 2.618078 1_565
Mg1 O5 2.083667 1_555
Mg1 O5 2.103209 1_455
Mg1 O1 2.228419 1_555
Mg1 O15 2.228419 1_555
Mg1 O15 2.346336 1_455
Mg1 O1 2.346336 1_455
Mg1 O8 2.618078 1_555
Mg1 O2 2.618078 1_555
Mg2 O11 2.083667 1_555
Mg2 O11 2.103209 1_655
Mg2 O0 2.228419 1_555
Mg2 O10 2.228419 1_555
Mg2 O0 2.346336 1_655
Mg2 O10 2.346336 1_655
Mg2 O13 2.618078 1_555
Mg2 O9 2.618078 1_565
Mg3 O7 2.083667 1_555
Mg3 O7 2.103209 1_655
Mg3 O14 2.228419 1_555
Mg3 O6 2.228419 1_555
Mg3 O6 2.346336 1_655
Mg3 O14 2.346336 1_655
Mg3 O9 2.618078 1_555
Mg3 O13 2.618078 1_555
Mn0 O12 1.947644 1_555
Mn0 O10 1.957690 1_654
Mn0 O8 1.964153 1_555
Mn0 O15 1.965464 1_555
Mn0 O8 2.297166 1_655
Mn0 O10 2.354478 1_554
Mn1 O5 1.947644 1_555
Mn1 O6 1.957690 1_655
Mn1 O2 1.964153 1_555
Mn1 O3 1.965464 1_545
Mn1 O2 2.297166 1_655
Mn1 O6 2.354478 1_555
Mn2 O7 1.947644 1_555
Mn2 O1 1.957690 1_456
Mn2 O9 1.964153 1_555
Mn2 O0 1.965464 1_545
Mn2 O9 2.297166 1_455
Mn2 O1 2.354478 1_556
Mn3 O5 1.947644 1_555
Mn3 O14 1.957690 1_655
Mn3 O8 1.964153 1_555
Mn3 O4 1.965464 1_555
Mn3 O8 2.297166 1_655
Mn3 O14 2.354478 1_555
Mn4 O7 1.947644 1_555
Mn4 O15 1.957690 1_456
Mn4 O13 1.964153 1_555
Mn4 O10 1.965464 1_555
Mn4 O13 2.297166 1_455
Mn4 O15 2.354478 1_556
Mn5 O12 1.947644 1_555
Mn5 O0 1.957690 1_654
Mn5 O2 1.964153 1_565
Mn5 O1 1.965464 1_565
Mn5 O2 2.297166 1_665
Mn5 O0 2.354478 1_554
Mn6 O11 1.947644 1_555
Mn6 O3 1.957690 1_455
Mn6 O9 1.964153 1_565
Mn6 O6 1.965464 1_565
Mn6 O9 2.297166 1_465
Mn6 O3 2.354478 1_555
Mn7 O11 1.947644 1_555
Mn7 O4 1.957690 1_455
Mn7 O13 1.964153 1_555
Mn7 O14 1.965464 1_555
Mn7 O13 2.297166 1_455
Mn7 O4 2.354478 1_555
