# generated using pymatgen
data_Cs7CaAu5O2
_symmetry_space_group_name_H-M   'P 1'
_cell_length_a   6.24511944
_cell_length_b   11.21187028
_cell_length_c   10.56859340
_cell_angle_alpha   122.03474841
_cell_angle_beta   107.23369580
_cell_angle_gamma   90.00000533
_symmetry_Int_Tables_number   1
_chemical_formula_structural   Cs7CaAu5O2
_chemical_formula_sum   'Cs7 Ca1 Au5 O2'
_cell_volume   587.76543920
_cell_formula_units_Z   1
loop_
 _symmetry_equiv_pos_site_id
 _symmetry_equiv_pos_as_xyz
  1  'x, y, z'
loop_
 _atom_site_type_symbol
 _atom_site_label
 _atom_site_symmetry_multiplicity
 _atom_site_fract_x
 _atom_site_fract_y
 _atom_site_fract_z
 _atom_site_occupancy
  Cs  Cs0  1  0.84512500  0.53330100  0.70526800  1
  Cs  Cs1  1  0.48723700  0.79811600  0.97773200  1
  Cs  Cs2  1  0.84512500  0.17196800  0.70526800  1
  Cs  Cs3  1  0.16551700  0.35598500  0.33306800  1
  Cs  Cs4  1  0.16551700  0.97708200  0.33306800  1
  Cs  Cs5  1  0.48723700  0.17961600  0.97773200  1
  Cs  Cs6  1  0.05646400  0.55389600  0.10779100  1
  Ca  Ca0  1  0.81356700  0.80182800  0.60365500  1
  Au  Au0  1  0.63213300  0.62900700  0.25801600  1
  Au  Au1  1  0.29021400  0.77864300  0.55728500  1
  Au  Au2  1  0.98399100  0.98393900  0.96787800  1
  Au  Au3  1  0.37659600  0.38133500  0.76266900  1
  Au  Au4  1  0.66788400  0.16878600  0.33757200  1
  O  O0  1  0.99013400  0.80715800  0.98024900  1
  O  O1  1  0.99013400  0.17309100  0.98024900  1
loop_
_geom_bond_atom_site_label_1
_geom_bond_atom_site_label_2
_geom_bond_distance
_geom_bond_site_symmetry_2
Cs0 O0 2.769068 1_555
Cs1 O0 3.113644 1_455
Cs1 O0 3.134057 1_555
Cs2 O1 2.769074 1_555
Cs3 O1 2.962581 1_454
Cs4 O0 2.962581 1_454
Cs5 O1 3.113644 1_455
Cs5 O1 3.134057 1_555
Cs6 O0 3.712300 1_454
Cs6 O1 3.712310 1_454
Au0 Ca0 2.901848 1_555
Au0 Cs6 3.365554 1_655
Au0 Cs6 3.369605 1_555
Au0 Cs5 4.190258 1_554
Au0 Cs1 4.190277 1_554
Au1 Ca0 3.146081 1_455
Au1 Ca0 3.147373 1_555
Au1 Cs6 3.773557 1_555
Au1 Cs4 3.958715 1_555
Au1 Cs3 3.958734 1_555
Au1 Cs5 4.127672 1_565
Au1 Cs1 4.127678 1_555
Au2 O1 2.054023 1_565
Au2 O0 2.054023 1_555
Au2 Ca0 3.058350 1_555
Au3 Cs0 3.739111 1_555
Au3 Cs2 3.739112 1_555
Au3 Cs2 3.767081 1_455
Au3 Cs0 3.767081 1_455
Au3 Cs1 3.909139 1_555
Au3 Cs5 3.909149 1_555
Au3 Cs3 4.185358 1_555
Au3 Cs4 4.185369 1_545
Au3 Cs6 4.228323 1_556
Au3 Cs6 4.290877 1_656
Au4 Cs2 3.692137 1_555
Au4 Cs0 3.692142 1_555
Au4 Cs1 3.701077 1_544
Au4 Cs5 3.701077 1_554
Au4 Cs3 3.776158 1_655
Au4 Cs4 3.776164 1_645
Au4 Cs3 3.777281 1_555
Au4 Cs4 3.777287 1_545
