# generated using pymatgen
data_Mg2MnB2Ir5
_symmetry_space_group_name_H-M   'P 1'
_cell_length_a   9.48093900
_cell_length_b   9.48093900
_cell_length_c   2.92964400
_cell_angle_alpha   90.00000000
_cell_angle_beta   90.00000000
_cell_angle_gamma   90.00000000
_symmetry_Int_Tables_number   1
_chemical_formula_structural   Mg2MnB2Ir5
_chemical_formula_sum   'Mg4 Mn2 B4 Ir10'
_cell_volume   263.34043846
_cell_formula_units_Z   2
loop_
 _symmetry_equiv_pos_site_id
 _symmetry_equiv_pos_as_xyz
  1  'x, y, z'
loop_
 _atom_site_type_symbol
 _atom_site_label
 _atom_site_symmetry_multiplicity
 _atom_site_fract_x
 _atom_site_fract_y
 _atom_site_fract_z
 _atom_site_occupancy
  Mg  Mg0  1  0.82377300  0.32377300  0.00000000  1
  Mg  Mg1  1  0.17622700  0.67622700  0.00000000  1
  Mg  Mg2  1  0.32377300  0.17622700  0.00000000  1
  Mg  Mg3  1  0.67622700  0.82377300  0.00000000  1
  Mn  Mn0  1  0.50000000  0.50000000  0.00000000  1
  Mn  Mn1  1  0.00000000  0.00000000  0.00000000  1
  B  B0  1  0.62539900  0.12539900  0.00000000  1
  B  B1  1  0.37460100  0.87460100  0.00000000  1
  B  B2  1  0.12539900  0.37460100  0.00000000  1
  B  B3  1  0.87460100  0.62539900  0.00000000  1
  Ir  Ir0  1  0.50000000  0.00000000  0.50000000  1
  Ir  Ir1  1  0.00000000  0.50000000  0.50000000  1
  Ir  Ir2  1  0.71436100  0.57174100  0.50000000  1
  Ir  Ir3  1  0.28563900  0.42825900  0.50000000  1
  Ir  Ir4  1  0.21436100  0.92825900  0.50000000  1
  Ir  Ir5  1  0.78563900  0.07174100  0.50000000  1
  Ir  Ir6  1  0.42825900  0.71436100  0.50000000  1
  Ir  Ir7  1  0.57174100  0.28563900  0.50000000  1
  Ir  Ir8  1  0.07174100  0.21436100  0.50000000  1
  Ir  Ir9  1  0.92825900  0.78563900  0.50000000  1
loop_
_geom_bond_atom_site_label_1
_geom_bond_atom_site_label_2
_geom_bond_distance
_geom_bond_site_symmetry_2
B0 Ir5 2.170842 1_555
B0 Ir5 2.170842 1_554
B0 Ir7 2.170842 1_555
B0 Ir7 2.170842 1_554
B0 Ir0 2.229949 1_555
B0 Ir0 2.229949 1_554
B0 Mg0 2.659813 1_555
B1 Ir6 2.170842 1_555
B1 Ir6 2.170842 1_554
B1 Ir4 2.170842 1_555
B1 Ir4 2.170842 1_554
B1 Ir0 2.229949 1_565
B1 Ir0 2.229949 1_564
B1 Mg1 2.659813 1_555
B2 Ir3 2.170842 1_555
B2 Ir3 2.170842 1_554
B2 Ir8 2.170842 1_555
B2 Ir8 2.170842 1_554
B2 Ir1 2.229949 1_554
B2 Ir1 2.229949 1_555
B2 Mg2 2.659813 1_555
B3 Ir2 2.170842 1_555
B3 Ir9 2.170842 1_555
B3 Ir2 2.170842 1_554
B3 Ir9 2.170842 1_554
B3 Ir1 2.229949 1_654
B3 Ir1 2.229949 1_655
B3 Mg3 2.659813 1_555
Ir0 Mg2 2.780078 1_555
Ir0 Mg2 2.780078 1_556
Ir0 Mg3 2.780078 1_545
Ir0 Mg3 2.780078 1_546
Ir1 Mg1 2.780078 1_556
Ir1 Mg0 2.780078 1_456
Ir1 Mg1 2.780078 1_555
Ir1 Mg0 2.780078 1_455
Ir2 Mn0 2.595912 1_556
Ir2 Mn0 2.595912 1_555
Ir2 Mg3 2.825974 1_555
Ir2 Mg3 2.825974 1_556
Ir2 Mg0 2.957839 1_556
Ir2 Mg0 2.957839 1_555
Ir3 Mn0 2.595912 1_556
Ir3 Mn0 2.595912 1_555
Ir3 Mg2 2.825974 1_556
Ir3 Mg2 2.825974 1_555
Ir3 Mg1 2.957839 1_555
Ir3 Mg1 2.957839 1_556
Ir4 Mn1 2.595912 1_565
Ir4 Mn1 2.595912 1_566
Ir4 Mg1 2.825974 1_556
Ir4 Mg1 2.825974 1_555
Ir4 Mg2 2.957839 1_566
Ir4 Mg2 2.957839 1_565
Ir5 Mn1 2.595912 1_656
Ir5 Mn1 2.595912 1_655
Ir5 Mg0 2.825974 1_555
Ir5 Mg0 2.825974 1_556
Ir5 Mg3 2.957839 1_545
Ir5 Mg3 2.957839 1_546
Ir6 Mn0 2.595912 1_556
Ir6 Mn0 2.595912 1_555
Ir6 Mg1 2.825974 1_556
Ir6 Mg1 2.825974 1_555
Ir6 Mg3 2.957839 1_556
Ir6 Mg3 2.957839 1_555
Ir7 Mn0 2.595912 1_556
Ir7 Mn0 2.595912 1_555
Ir7 Mg0 2.825974 1_555
Ir7 Mg0 2.825974 1_556
Ir7 Mg2 2.957839 1_556
Ir7 Mg2 2.957839 1_555
Ir8 Mn1 2.595912 1_555
Ir8 Mn1 2.595912 1_556
Ir8 Mg2 2.825974 1_555
Ir8 Mg2 2.825974 1_556
Ir8 Mg0 2.957839 1_456
Ir8 Mg0 2.957839 1_455
Ir9 Mn1 2.595912 1_666
Ir9 Mn1 2.595912 1_665
Ir9 Mg3 2.825974 1_555
Ir9 Mg3 2.825974 1_556
Ir9 Mg1 2.957839 1_656
Ir9 Mg1 2.957839 1_655
