# generated using pymatgen
data_BaEu(WO3)2
_symmetry_space_group_name_H-M   'P 1'
_cell_length_a   8.32256217
_cell_length_b   8.32256217
_cell_length_c   8.19135253
_cell_angle_alpha   90.00000000
_cell_angle_beta   90.00000000
_cell_angle_gamma   90.00000000
_symmetry_Int_Tables_number   1
_chemical_formula_structural   BaEu(WO3)2
_chemical_formula_sum   'Ba4 Eu4 W8 O24'
_cell_volume   567.37436944
_cell_formula_units_Z   4
loop_
 _symmetry_equiv_pos_site_id
 _symmetry_equiv_pos_as_xyz
  1  'x, y, z'
loop_
 _atom_site_type_symbol
 _atom_site_label
 _atom_site_symmetry_multiplicity
 _atom_site_fract_x
 _atom_site_fract_y
 _atom_site_fract_z
 _atom_site_occupancy
  Ba  Ba0  1  0.00000000  0.50000000  -0.00000000  1
  Ba  Ba1  1  0.50000000  0.50000000  -0.00000000  1
  Ba  Ba2  1  0.50000000  0.00000000  0.50000000  1
  Ba  Ba3  1  0.50000000  0.50000000  0.50000000  1
  Eu  Eu0  1  0.00000000  0.00000000  -0.00000000  1
  Eu  Eu1  1  0.50000000  0.00000000  -0.00000000  1
  Eu  Eu2  1  0.00000000  0.00000000  0.50000000  1
  Eu  Eu3  1  0.00000000  0.50000000  0.50000000  1
  W  W0  1  0.75189893  0.75189893  0.75000000  1
  W  W1  1  0.75189893  0.24810107  0.75000000  1
  W  W2  1  0.24810107  0.75189893  0.75000000  1
  W  W3  1  0.24810107  0.24810107  0.75000000  1
  W  W4  1  0.75189893  0.75189893  0.25000000  1
  W  W5  1  0.75189893  0.24810107  0.25000000  1
  W  W6  1  0.24810107  0.75189893  0.25000000  1
  W  W7  1  0.24810107  0.24810107  0.25000000  1
  O  O0  1  0.76312834  0.00000000  0.75236129  1
  O  O1  1  0.74772375  0.50000000  0.74765056  1
  O  O2  1  0.23687166  0.00000000  0.75236129  1
  O  O3  1  0.25227625  0.50000000  0.74765056  1
  O  O4  1  0.76312834  0.00000000  0.24763871  1
  O  O5  1  0.74772375  0.50000000  0.25234944  1
  O  O6  1  0.23687166  0.00000000  0.24763871  1
  O  O7  1  0.25227625  0.50000000  0.25234944  1
  O  O8  1  0.00000000  0.76312834  0.25236129  1
  O  O9  1  0.00000000  0.23687166  0.25236129  1
  O  O10  1  0.50000000  0.74772375  0.24765056  1
  O  O11  1  0.50000000  0.25227625  0.24765056  1
  O  O12  1  0.00000000  0.76312834  0.74763871  1
  O  O13  1  0.00000000  0.23687166  0.74763871  1
  O  O14  1  0.50000000  0.74772375  0.75234944  1
  O  O15  1  0.50000000  0.25227625  0.75234944  1
  O  O16  1  0.75074276  0.75580447  -0.00000000  1
  O  O17  1  0.75074276  0.24419553  -0.00000000  1
  O  O18  1  0.24925724  0.75580447  -0.00000000  1
  O  O19  1  0.24925724  0.24419553  -0.00000000  1
  O  O20  1  0.75580447  0.75074276  0.50000000  1
  O  O21  1  0.75580447  0.24925724  0.50000000  1
  O  O22  1  0.24419553  0.75074276  0.50000000  1
  O  O23  1  0.24419553  0.24925724  0.50000000  1
loop_
_geom_bond_atom_site_label_1
_geom_bond_atom_site_label_2
_geom_bond_distance
_geom_bond_site_symmetry_2
Ba0 O5 2.946369 1_455
Ba0 O7 2.946369 1_555
Ba0 O1 2.946369 1_454
Ba0 O3 2.946369 1_554
Ba0 O18 2.972508 1_555
Ba0 O17 2.972508 1_455
Ba0 O19 2.972508 1_555
Ba0 O16 2.972508 1_455
Ba0 O8 3.011462 1_555
Ba0 O12 3.011462 1_554
Ba0 O9 3.011462 1_555
Ba0 O13 3.011462 1_554
Ba1 O15 2.892366 1_554
Ba1 O14 2.892366 1_554
Ba1 O11 2.892366 1_555
Ba1 O10 2.892366 1_555
Ba1 O5 2.919490 1_555
Ba1 O7 2.919490 1_555
Ba1 O3 2.919490 1_554
Ba1 O1 2.919490 1_554
Ba1 O16 2.981149 1_555
Ba1 O17 2.981149 1_555
Ba1 O18 2.981149 1_555
Ba1 O19 2.981149 1_555
Ba2 O11 2.946369 1_555
Ba2 O15 2.946369 1_555
Ba2 O10 2.946369 1_545
Ba2 O14 2.946369 1_545
Ba2 O21 2.972508 1_555
Ba2 O23 2.972508 1_555
Ba2 O22 2.972508 1_545
Ba2 O20 2.972508 1_545
Ba2 O6 3.011462 1_555
Ba2 O0 3.011462 1_555
Ba2 O2 3.011462 1_555
Ba2 O4 3.011462 1_555
Ba3 O3 2.892366 1_555
Ba3 O1 2.892366 1_555
Ba3 O5 2.892366 1_555
Ba3 O7 2.892366 1_555
Ba3 O11 2.919490 1_555
Ba3 O15 2.919490 1_555
Ba3 O14 2.919490 1_555
Ba3 O10 2.919490 1_555
Ba3 O20 2.981149 1_555
Ba3 O22 2.981149 1_555
Ba3 O21 2.981149 1_555
Ba3 O23 2.981149 1_555
Eu0 O6 2.828627 1_555
Eu0 O0 2.828627 1_454
Eu0 O2 2.828627 1_554
Eu0 O4 2.828627 1_455
Eu0 O12 2.856496 1_544
Eu0 O13 2.856496 1_554
Eu0 O8 2.856496 1_545
Eu0 O9 2.856496 1_555
Eu0 O19 2.904093 1_555
Eu0 O16 2.904093 1_445
Eu0 O17 2.904093 1_455
Eu0 O18 2.904093 1_545
Eu1 O17 2.912937 1_555
Eu1 O19 2.912937 1_555
Eu1 O18 2.912937 1_545
Eu1 O16 2.912937 1_545
Eu1 O14 2.919494 1_544
Eu1 O15 2.919494 1_554
Eu1 O11 2.919494 1_555
Eu1 O10 2.919494 1_545
Eu1 O6 2.985040 1_555
Eu1 O4 2.985040 1_555
Eu1 O2 2.985040 1_554
Eu1 O0 2.985040 1_554
Eu2 O9 2.828627 1_555
Eu2 O13 2.828627 1_555
Eu2 O8 2.828627 1_545
Eu2 O12 2.828627 1_545
Eu2 O6 2.856496 1_555
Eu2 O0 2.856496 1_455
Eu2 O4 2.856496 1_455
Eu2 O2 2.856496 1_555
Eu2 O23 2.904093 1_555
Eu2 O21 2.904093 1_455
Eu2 O20 2.904093 1_445
Eu2 O22 2.904093 1_545
Eu3 O22 2.912937 1_555
Eu3 O20 2.912937 1_455
Eu3 O23 2.912937 1_555
Eu3 O21 2.912937 1_455
Eu3 O1 2.919494 1_455
Eu3 O3 2.919494 1_555
Eu3 O5 2.919494 1_455
Eu3 O7 2.919494 1_555
Eu3 O8 2.985040 1_555
Eu3 O9 2.985040 1_555
Eu3 O13 2.985040 1_555
Eu3 O12 2.985040 1_555
O0 W1 2.067041 1_555
O0 W0 2.067041 1_545
O1 W0 2.096821 1_555
O1 W1 2.096821 1_555
O2 W3 2.067041 1_555
O2 W2 2.067041 1_545
O3 W3 2.096821 1_555
O3 W2 2.096821 1_555
O4 W5 2.067041 1_555
O4 W4 2.067041 1_545
O5 W4 2.096821 1_555
O5 W5 2.096821 1_555
O6 W7 2.067041 1_555
O6 W6 2.067041 1_545
O7 W6 2.096821 1_555
O7 W7 2.096821 1_555
O8 W6 2.067041 1_555
O8 W4 2.067041 1_455
O9 W7 2.067041 1_555
O9 W5 2.067041 1_455
O10 W6 2.096821 1_555
O10 W4 2.096821 1_555
O11 W7 2.096821 1_555
O11 W5 2.096821 1_555
O12 W2 2.067041 1_555
O12 W0 2.067041 1_455
O13 W3 2.067041 1_555
O13 W1 2.067041 1_455
O14 W0 2.096821 1_555
O14 W2 2.096821 1_555
O15 W3 2.096821 1_555
O15 W1 2.096821 1_555
O16 W4 2.048119 1_555
O16 W0 2.048119 1_554
O17 W1 2.048119 1_554
O17 W5 2.048119 1_555
O18 W6 2.048119 1_555
O18 W2 2.048119 1_554
O19 W7 2.048119 1_555
O19 W3 2.048119 1_554
O20 W0 2.048119 1_555
O20 W4 2.048119 1_555
O21 W5 2.048119 1_555
O21 W1 2.048119 1_555
O22 W2 2.048119 1_555
O22 W6 2.048119 1_555
O23 W7 2.048119 1_555
O23 W3 2.048119 1_555
