# generated using pymatgen
data_Cs2Zn5P6(HO2)14
_symmetry_space_group_name_H-M   'P 1'
_cell_length_a   8.60916748
_cell_length_b   10.00245327
_cell_length_c   10.01873484
_cell_angle_alpha   111.16971414
_cell_angle_beta   111.34342556
_cell_angle_gamma   98.88555033
_symmetry_Int_Tables_number   1
_chemical_formula_structural   Cs2Zn5P6(HO2)14
_chemical_formula_sum   'Cs2 Zn5 P6 H14 O28'
_cell_volume   707.58304039
_cell_formula_units_Z   1
loop_
 _symmetry_equiv_pos_site_id
 _symmetry_equiv_pos_as_xyz
  1  'x, y, z'
loop_
 _atom_site_type_symbol
 _atom_site_label
 _atom_site_symmetry_multiplicity
 _atom_site_fract_x
 _atom_site_fract_y
 _atom_site_fract_z
 _atom_site_occupancy
  Cs  Cs0  1  0.01415700  0.50033700  0.74360900  1
  Cs  Cs1  1  0.98584300  0.49966300  0.25639100  1
  Zn  Zn0  1  0.55687200  0.16575700  0.72658300  1
  Zn  Zn1  1  0.44312800  0.83424300  0.27341700  1
  Zn  Zn2  1  0.07411600  0.16416300  0.92683300  1
  Zn  Zn3  1  0.92588400  0.83583700  0.07316700  1
  Zn  Zn4  1  0.50000000  0.50000000  0.50000000  1
  P  P0  1  0.73368100  0.05447600  0.96682200  1
  P  P1  1  0.26631900  0.94552400  0.03317800  1
  P  P2  1  0.62942000  0.51443300  0.86710300  1
  P  P3  1  0.37058000  0.48556700  0.13289700  1
  P  P4  1  0.81051400  0.05756800  0.57009500  1
  P  P5  1  0.18948600  0.94243200  0.42990500  1
  H  H0  1  0.70167000  0.77384900  0.55098700  1
  H  H1  1  0.29833000  0.22615100  0.44901300  1
  H  H2  1  0.73691100  0.77871100  0.71932500  1
  H  H3  1  0.26308900  0.22128900  0.28067500  1
  H  H4  1  0.39500600  0.64579000  0.70822700  1
  H  H5  1  0.60499400  0.35421000  0.29177300  1
  H  H6  1  0.37603900  0.72627900  0.59627500  1
  H  H7  1  0.62396100  0.27372100  0.40372500  1
  H  H8  1  0.63267200  0.06117600  0.14535800  1
  H  H9  1  0.36732800  0.93882400  0.85464200  1
  H  H10  1  0.45987400  0.61425300  0.97096400  1
  H  H11  1  0.54012600  0.38574700  0.02903600  1
  H  H12  1  0.92540800  0.06467200  0.40552400  1
  H  H13  1  0.07459200  0.93532800  0.59447600  1
  O  O0  1  0.76657200  0.90069200  0.93074200  1
  O  O1  1  0.23342800  0.09930800  0.06925800  1
  O  O2  1  0.88392500  0.17958200  0.99142500  1
  O  O3  1  0.11607500  0.82041800  0.00857500  1
  O  O4  1  0.55345000  0.02873400  0.83054900  1
  O  O5  1  0.44655000  0.97126600  0.16945100  1
  O  O6  1  0.72644500  0.12210800  0.13471000  1
  O  O7  1  0.27355500  0.87789200  0.86529000  1
  O  O8  1  0.58478800  0.36778900  0.88741700  1
  O  O9  1  0.41521200  0.63221100  0.11258300  1
  O  O10  1  0.62612100  0.47819700  0.70537300  1
  O  O11  1  0.37387900  0.52180300  0.29462700  1
  O  O12  1  0.80678200  0.62428200  0.01316900  1
  O  O13  1  0.19321800  0.37571800  0.98683100  1
  O  O14  1  0.47751300  0.58910000  0.86999200  1
  O  O15  1  0.52248700  0.41090000  0.13000800  1
  O  O16  1  0.67488400  0.89622500  0.45794700  1
  O  O17  1  0.32511600  0.10377500  0.54205300  1
  O  O18  1  0.97385000  0.04390700  0.69227400  1
  O  O19  1  0.02615000  0.95609300  0.30772600  1
  O  O20  1  0.73702100  0.17479300  0.65010100  1
  O  O21  1  0.26297900  0.82520700  0.34989900  1
  O  O22  1  0.87297900  0.12605900  0.46958400  1
  O  O23  1  0.12702100  0.87394100  0.53041600  1
  O  O24  1  0.71241800  0.71054800  0.60904800  1
  O  O25  1  0.28758200  0.28945200  0.39095200  1
  O  O26  1  0.34853400  0.62730200  0.59475800  1
  O  O27  1  0.65146600  0.37269800  0.40524200  1
loop_
_geom_bond_atom_site_label_1
_geom_bond_atom_site_label_2
_geom_bond_distance
_geom_bond_site_symmetry_2
Cs0 O3 3.060274 1_556
Cs0 O13 3.149781 1_555
Cs0 O10 3.183472 1_455
Cs0 O27 3.287755 1_455
Cs0 O20 3.308010 1_455
Cs0 O22 3.431000 1_455
Cs1 O2 3.060274 1_554
Cs1 O12 3.149781 1_555
Cs1 O11 3.183472 1_655
Cs1 O26 3.287755 1_655
Cs1 O21 3.308010 1_655
Cs1 O23 3.431000 1_655
H0 O24 0.996378 1_555
H1 O25 0.996378 1_555
H2 O24 0.985858 1_555
H3 O25 0.985858 1_555
H4 O26 0.990378 1_555
H5 O27 0.990378 1_555
H6 O26 0.974946 1_555
H7 O27 0.974946 1_555
H8 O6 0.996108 1_555
H9 O7 0.996108 1_555
H10 O14 1.024459 1_555
H10 O9 1.558075 1_556
H11 O15 1.024459 1_555
H11 O8 1.558075 1_554
H12 O22 1.002259 1_555
H13 O23 1.002259 1_555
O0 P0 1.544158 1_565
O0 Zn3 1.963896 1_556
O1 P1 1.544158 1_545
O1 Zn2 1.963896 1_554
O2 P0 1.531296 1_555
O2 Zn2 1.975050 1_655
O3 P1 1.531296 1_555
O3 Zn3 1.975050 1_455
O4 P0 1.555160 1_555
O4 Zn0 2.001306 1_555
O5 P1 1.555160 1_555
O5 Zn1 2.001306 1_555
O6 P0 1.599430 1_554
O7 P1 1.599430 1_556
O8 P2 1.561727 1_555
O8 Zn0 1.988497 1_555
O9 P3 1.561727 1_555
O9 Zn1 1.988497 1_555
O10 P2 1.515517 1_555
O10 Zn4 2.056975 1_555
O11 P3 1.515517 1_555
O11 Zn4 2.056975 1_555
O12 P2 1.540835 1_554
O12 Zn3 1.962859 1_555
O13 P3 1.540835 1_556
O13 Zn2 1.962859 1_555
O14 P2 1.607054 1_555
O15 P3 1.607054 1_555
O16 P4 1.543864 1_565
O16 Zn1 1.971845 1_555
O17 P5 1.543864 1_545
O17 Zn0 1.971845 1_555
O18 P4 1.556156 1_555
O18 Zn2 1.968616 1_655
O19 P5 1.556156 1_555
O19 Zn3 1.968616 1_455
O20 P4 1.528788 1_555
O20 Zn0 1.967862 1_555
O21 P5 1.528788 1_555
O21 Zn1 1.967862 1_555
O22 P4 1.597251 1_555
O23 P5 1.597251 1_555
O24 Zn4 2.160374 1_555
O25 Zn4 2.160374 1_555
O26 Zn4 2.182663 1_555
O27 Zn4 2.182663 1_555
