# generated using pymatgen
data_Li7Mn5O12
_symmetry_space_group_name_H-M   'P 1'
_cell_length_a   14.79004991
_cell_length_b   14.79004991
_cell_length_c   5.35636147
_cell_angle_alpha   82.42271192
_cell_angle_beta   82.42271192
_cell_angle_gamma   11.15631930
_symmetry_Int_Tables_number   1
_chemical_formula_structural   Li7Mn5O12
_chemical_formula_sum   'Li7 Mn5 O12'
_cell_volume   224.70569396
_cell_formula_units_Z   1
loop_
 _symmetry_equiv_pos_site_id
 _symmetry_equiv_pos_as_xyz
  1  'x, y, z'
loop_
 _atom_site_type_symbol
 _atom_site_label
 _atom_site_symmetry_multiplicity
 _atom_site_fract_x
 _atom_site_fract_y
 _atom_site_fract_z
 _atom_site_occupancy
  Li  Li0  1  0.57898800  0.57898800  0.76576000  1
  Li  Li1  1  0.74992400  0.74992400  0.25036200  1
  Li  Li2  1  0.92228900  0.92228900  0.73484100  1
  Li  Li3  1  0.07771100  0.07771100  0.26515900  1
  Li  Li4  1  0.25007600  0.25007600  0.74963800  1
  Li  Li5  1  0.42101200  0.42101200  0.23424000  1
  Li  Li6  1  0.50000000  0.50000000  0.50000000  1
  Mn  Mn0  1  0.00000000  0.00000000  0.00000000  1
  Mn  Mn1  1  0.16557500  0.16557500  0.50392000  1
  Mn  Mn2  1  0.33347300  0.33347300  0.99639200  1
  Mn  Mn3  1  0.66652700  0.66652700  0.00360800  1
  Mn  Mn4  1  0.83442500  0.83442500  0.49608000  1
  O  O0  1  0.53762700  0.53762700  0.11401900  1
  O  O1  1  0.70519700  0.70519700  0.60508500  1
  O  O2  1  0.87105500  0.87105500  0.10600300  1
  O  O3  1  0.03709000  0.03709000  0.67182300  1
  O  O4  1  0.20576000  0.20576000  0.10833100  1
  O  O5  1  0.37251000  0.37251000  0.60642600  1
  O  O6  1  0.62749000  0.62749000  0.39357400  1
  O  O7  1  0.79424000  0.79424000  0.89166900  1
  O  O8  1  0.96291000  0.96291000  0.32817700  1
  O  O9  1  0.12894500  0.12894500  0.89399700  1
  O  O10  1  0.29480300  0.29480300  0.39491500  1
  O  O11  1  0.46237300  0.46237300  0.88598100  1
loop_
_geom_bond_atom_site_label_1
_geom_bond_atom_site_label_2
_geom_bond_distance
_geom_bond_site_symmetry_2
Li0 O3 2.001479 1_565
Li0 O3 2.001479 1_655
Li0 O0 2.088193 1_556
Li0 O9 2.229212 1_565
Li0 O9 2.229212 1_655
Li0 O6 2.293227 1_555
Li1 O4 2.144339 1_565
Li1 O4 2.144339 1_655
Li1 O1 2.163564 1_555
Li1 O10 2.164042 1_565
Li1 O10 2.164042 1_655
Li1 O7 2.174693 1_554
Li2 O11 2.089960 1_565
Li2 O11 2.089960 1_655
Li2 O5 2.225921 1_565
Li2 O5 2.225921 1_655
Li2 O2 2.330862 1_556
Li2 O8 2.341924 1_555
Li3 O0 2.089960 1_455
Li3 O0 2.089960 1_545
Li3 O6 2.225921 1_455
Li3 O6 2.225921 1_545
Li3 O9 2.330862 1_554
Li3 O3 2.341924 1_555
Li4 O7 2.144339 1_455
Li4 O7 2.144339 1_545
Li4 O10 2.163564 1_555
Li4 O1 2.164042 1_545
Li4 O1 2.164042 1_455
Li4 O4 2.174693 1_556
Li5 O8 2.001479 1_455
Li5 O8 2.001479 1_545
Li5 O11 2.088193 1_554
Li5 O2 2.229212 1_545
Li5 O2 2.229212 1_455
Li5 O5 2.293227 1_555
Li6 O8 2.091044 1_545
Li6 O8 2.091044 1_455
Li6 O3 2.091044 1_565
Li6 O3 2.091044 1_655
Li6 O11 2.212372 1_555
Li6 O0 2.212372 1_555
Mn0 O8 1.942596 1_445
Mn0 O3 1.942596 1_554
Mn0 O0 1.961164 1_545
Mn0 O0 1.961164 1_455
Mn0 O11 1.961164 1_454
Mn0 O11 1.961164 1_544
Mn1 O6 1.961865 1_455
Mn1 O6 1.961865 1_545
Mn1 O1 1.971954 1_545
Mn1 O1 1.971954 1_455
Mn1 O9 2.220683 1_555
Mn1 O4 2.285861 1_555
Mn2 O2 1.951362 1_546
Mn2 O2 1.951362 1_456
Mn2 O7 1.971604 1_455
Mn2 O7 1.971604 1_545
Mn2 O5 2.246721 1_555
Mn2 O10 2.282273 1_556
Mn3 O9 1.951362 1_564
Mn3 O9 1.951362 1_654
Mn3 O4 1.971604 1_565
Mn3 O4 1.971604 1_655
Mn3 O6 2.246721 1_555
Mn3 O1 2.282273 1_554
Mn4 O5 1.961865 1_565
Mn4 O5 1.961865 1_655
Mn4 O10 1.971954 1_565
Mn4 O10 1.971954 1_655
Mn4 O2 2.220683 1_555
Mn4 O7 2.285861 1_555
