# generated using pymatgen
data_GaGe3
_symmetry_space_group_name_H-M   'P 1'
_cell_length_a   4.79017751
_cell_length_b   4.79017751
_cell_length_c   4.79017751
_cell_angle_alpha   60.00000000
_cell_angle_beta   60.00000000
_cell_angle_gamma   60.00000000
_symmetry_Int_Tables_number   1
_chemical_formula_structural   GaGe3
_chemical_formula_sum   'Ga1 Ge3'
_cell_volume   77.72125849
_cell_formula_units_Z   1
loop_
 _symmetry_equiv_pos_site_id
 _symmetry_equiv_pos_as_xyz
  1  'x, y, z'
loop_
 _atom_site_type_symbol
 _atom_site_label
 _atom_site_symmetry_multiplicity
 _atom_site_fract_x
 _atom_site_fract_y
 _atom_site_fract_z
 _atom_site_occupancy
  Ga  Ga0  1  0.00000000  0.00000000  0.00000000  1
  Ge  Ge0  1  0.25000000  0.25000000  0.25000000  1
  Ge  Ge1  1  0.75000000  0.75000000  0.75000000  1
  Ge  Ge2  1  0.50000000  0.50000000  0.50000000  1
loop_
_geom_bond_atom_site_label_1
_geom_bond_atom_site_label_2
_geom_bond_distance
_geom_bond_site_symmetry_2
Ga0 Ge0 2.933373 1_554
Ga0 Ge0 2.933373 1_555
Ga0 Ge1 2.933373 1_445
Ga0 Ge0 2.933373 1_545
Ga0 Ge1 2.933373 1_544
Ga0 Ge1 2.933373 1_444
Ga0 Ge0 2.933373 1_455
Ga0 Ge1 2.933373 1_454
Ge0 Ge2 2.933373 1_545
Ge0 Ge2 2.933373 1_455
Ge0 Ge2 2.933373 1_554
Ge0 Ge2 2.933373 1_555
Ge1 Ge2 2.933373 1_565
Ge1 Ge2 2.933373 1_655
Ge1 Ge2 2.933373 1_555
Ge1 Ge2 2.933373 1_556
