# generated using pymatgen
data_Li4V3P8O29
_symmetry_space_group_name_H-M   'P 1'
_cell_length_a   9.77192000
_cell_length_b   9.78940813
_cell_length_c   14.22464709
_cell_angle_alpha   89.72040748
_cell_angle_beta   89.64852126
_cell_angle_gamma   60.49634981
_symmetry_Int_Tables_number   1
_chemical_formula_structural   Li4V3P8O29
_chemical_formula_sum   'Li8 V6 P16 O58'
_cell_volume   1184.26746161
_cell_formula_units_Z   2
loop_
 _symmetry_equiv_pos_site_id
 _symmetry_equiv_pos_as_xyz
  1  'x, y, z'
loop_
 _atom_site_type_symbol
 _atom_site_label
 _atom_site_symmetry_multiplicity
 _atom_site_fract_x
 _atom_site_fract_y
 _atom_site_fract_z
 _atom_site_occupancy
  Li  Li0  1  0.90532200  0.32981200  0.94116200  1
  Li  Li1  1  0.90649500  0.77658400  0.44194900  1
  Li  Li2  1  0.33205500  0.76591200  0.94675200  1
  Li  Li3  1  0.68130800  0.09556200  0.55533100  1
  Li  Li4  1  0.31358800  0.91654000  0.43554000  1
  Li  Li5  1  0.22277500  0.69065100  0.55678000  1
  Li  Li6  1  0.09469400  0.67066100  0.05862300  1
  Li  Li7  1  0.94593600  0.03112100  0.00523700  1
  V  V0  1  0.56720800  0.99626300  0.75580400  1
  V  V1  1  0.43185400  0.00294300  0.24338700  1
  V  V2  1  0.56825600  0.42866500  0.25144200  1
  V  V3  1  0.44006500  0.56051400  0.74963700  1
  V  V4  1  0.00060400  0.43056400  0.74861500  1
  V  V5  1  0.00054500  0.56034100  0.25023600  1
  P  P0  1  0.91223100  0.31100900  0.15906500  1
  P  P1  1  0.77301000  0.31493900  0.65619500  1
  P  P2  1  0.91065300  0.77071800  0.66183400  1
  P  P3  1  0.66430200  0.66515400  0.86928400  1
  P  P4  1  0.66264400  0.66877000  0.36718700  1
  P  P5  1  0.78175000  0.91148400  0.15920200  1
  P  P6  1  0.68183200  0.08503100  0.33953700  1
  P  P7  1  0.31721900  0.76838100  0.16082000  1
  P  P8  1  0.69274800  0.22332200  0.83958000  1
  P  P9  1  0.32117000  0.91025600  0.65572700  1
  P  P10  1  0.22321400  0.08159000  0.83798700  1
  P  P11  1  0.33865200  0.32811800  0.63342800  1
  P  P12  1  0.33026100  0.34080600  0.13122600  1
  P  P13  1  0.08490100  0.22536200  0.34135600  1
  P  P14  1  0.23037900  0.67902300  0.34173600  1
  P  P15  1  0.08985600  0.68284100  0.84135700  1
  O  O0  1  0.99349600  0.24114600  0.42659600  1
  O  O1  1  0.91313200  0.34485000  0.66436900  1
  O  O2  1  0.78911900  0.21276100  0.92295300  1
  O  O3  1  0.74100200  0.34330200  0.17063000  1
  O  O4  1  0.91274300  0.46908700  0.17308100  1
  O  O5  1  0.81159600  0.51204000  0.83526300  1
  O  O6  1  0.89570200  0.62478000  0.67955500  1
  O  O7  1  0.01995100  0.76676000  0.93119100  1
  O  O8  1  0.92130200  0.73752700  0.16666500  1
  O  O9  1  0.65823700  0.52330300  0.32257600  1
  O  O10  1  0.62016100  0.47502800  0.67828800  1
  O  O11  1  0.81628300  0.66523900  0.32418900  1
  O  O12  1  0.64447400  0.67754000  0.97307300  1
  O  O13  1  0.67128100  0.66601500  0.47140000  1
  O  O14  1  0.66942000  0.81192000  0.82397200  1
  O  O15  1  0.47213500  0.61414400  0.17419200  1
  O  O16  1  0.51158100  0.67231800  0.82478600  1
  O  O17  1  0.74544900  0.92068000  0.66469200  1
  O  O18  1  0.80052600  0.99043500  0.25577000  1
  O  O19  1  0.75398100  0.00263400  0.43034500  1
  O  O20  1  0.81195400  0.98744800  0.07772100  1
  O  O21  1  0.62348400  0.91638000  0.16609900  1
  O  O22  1  0.51474400  0.81674100  0.32839600  1
  O  O23  1  0.65450100  0.08752700  0.83435400  1
  O  O24  1  0.47902500  0.90480900  0.67968600  1
  O  O25  1  0.34145600  0.74142800  0.66433900  1
  O  O26  1  0.79358200  0.20531400  0.74679100  1
  O  O27  1  0.75782800  0.23838100  0.57120300  1
  O  O28  1  0.23913100  0.75907900  0.42948200  1
  O  O29  1  0.65687000  0.25377300  0.33363600  1
  O  O30  1  0.52347900  0.09194400  0.32011000  1
  O  O31  1  0.34531200  0.90981400  0.16490200  1
  O  O32  1  0.48837700  0.17903600  0.67412900  1
  O  O33  1  0.38254000  0.08327700  0.82665000  1
  O  O34  1  0.22084900  0.98555700  0.91858700  1
  O  O35  1  0.25668000  0.98048500  0.56321700  1
  O  O36  1  0.20409900  0.00847200  0.74010700  1
  O  O37  1  0.25360800  0.08313400  0.33627700  1
  O  O38  1  0.47849300  0.33831500  0.17739700  1
  O  O39  1  0.53696200  0.38195100  0.82856800  1
  O  O40  1  0.32499800  0.19634500  0.16999300  1
  O  O41  1  0.32110800  0.36666200  0.02788000  1
  O  O42  1  0.34653300  0.33996100  0.52972600  1
  O  O43  1  0.19311700  0.32922200  0.67695700  1
  O  O44  1  0.38036900  0.52128200  0.32468200  1
  O  O45  1  0.34078500  0.47823100  0.67845700  1
  O  O46  1  0.08404000  0.25095500  0.83959300  1
  O  O47  1  0.00583300  0.20219600  0.24559700  1
  O  O48  1  0.97866600  0.23457400  0.06683300  1
  O  O49  1  0.09371100  0.37961900  0.31825500  1
  O  O50  1  0.18178700  0.49422200  0.17550900  1
  O  O51  1  0.08548700  0.52884700  0.82741500  1
  O  O52  1  0.26240700  0.65323800  0.83376100  1
  O  O53  1  0.23036600  0.77056400  0.07324000  1
  O  O54  1  0.20814400  0.78863200  0.25168900  1
  O  O55  1  0.08199100  0.65944200  0.34243700  1
  O  O56  1  0.99667200  0.76454900  0.57230000  1
  O  O57  1  0.00302900  0.79120300  0.75052800  1
loop_
_geom_bond_atom_site_label_1
_geom_bond_atom_site_label_2
_geom_bond_distance
_geom_bond_site_symmetry_2
Li0 O48 1.979850 1_556
Li0 O2 1.989370 1_555
Li0 O46 2.094120 1_655
Li0 O5 2.161424 1_555
Li1 O19 1.973923 1_565
Li1 O56 2.035707 1_555
Li1 O55 2.075760 1_655
Li1 O11 2.398652 1_555
Li2 O34 1.913172 1_555
Li2 O53 2.039875 1_556
Li2 O52 2.243492 1_555
Li2 O16 2.306956 1_555
Li3 O27 1.897283 1_555
Li3 O19 1.963857 1_555
Li3 O17 2.161665 1_545
Li3 O32 2.352599 1_555
Li4 O35 1.911903 1_555
Li4 O28 2.004897 1_555
Li4 O37 2.010746 1_565
Li4 O22 2.286364 1_555
Li5 O28 1.960414 1_555
Li5 O56 1.968512 1_455
Li5 O25 2.128368 1_555
Li5 O45 2.505424 1_555
Li6 O7 2.006762 1_554
Li6 O53 2.009935 1_555
Li6 O8 2.132314 1_455
Li6 O50 2.239096 1_555
Li7 O20 1.868288 1_545
Li7 O2 2.048875 1_554
Li7 O48 2.341942 1_555
Li7 O7 2.550210 1_644
O0 P13 1.464400 1_655
O1 P1 1.539910 1_555
O1 V4 1.897264 1_655
O2 P8 1.490179 1_555
O3 P0 1.550112 1_555
O3 V2 1.861563 1_555
O4 P0 1.563697 1_555
O4 V5 1.874766 1_655
O5 P3 1.557612 1_555
O5 V4 2.024178 1_655
O6 P2 1.525627 1_555
O6 V4 1.924863 1_655
O7 P15 1.490381 1_555
O8 P5 1.575937 1_555
O8 V5 1.920850 1_655
O9 P4 1.581764 1_555
O9 V2 1.864869 1_555
O10 P1 1.574550 1_555
O10 V3 1.833938 1_555
O11 P4 1.602235 1_555
O11 V5 1.889274 1_655
O12 P3 1.485593 1_555
O13 P4 1.484669 1_555
O14 P3 1.594848 1_555
O14 V0 1.847685 1_555
O15 P7 1.535258 1_555
O15 V2 1.923530 1_555
O16 P3 1.593997 1_555
O16 V3 1.898148 1_555
O17 P2 1.558343 1_555
O17 V0 1.993288 1_555
O18 P6 1.599542 1_565
O18 P5 1.634333 1_555
O19 P6 1.502362 1_555
O20 P5 1.478873 1_555
O21 P5 1.526091 1_555
O21 V1 1.963219 1_565
O22 P4 1.559325 1_555
O22 V1 1.994289 1_565
O23 P8 1.550182 1_555
O23 V0 1.883185 1_545
O24 P9 1.556824 1_555
O24 V0 1.870085 1_555
O25 P9 1.568895 1_555
O25 V3 1.962080 1_555
O26 P8 1.599785 1_555
O26 P1 1.621734 1_555
O27 P1 1.471696 1_555
O28 P14 1.502088 1_555
O29 P6 1.548318 1_555
O29 V2 1.892275 1_555
O30 P6 1.541866 1_555
O30 V1 1.881874 1_555
O31 P7 1.539822 1_555
O31 V1 1.890407 1_565
O32 P11 1.582642 1_555
O32 V0 1.943626 1_545
O33 P10 1.572419 1_555
O33 V0 1.862698 1_545
O34 P10 1.486394 1_565
O35 P9 1.475145 1_555
O36 P9 1.607756 1_545
O36 P10 1.621840 1_555
O37 P13 1.549296 1_555
O37 V1 2.007773 1_555
O38 P12 1.583302 1_555
O38 V2 1.856244 1_555
O39 P8 1.557428 1_555
O39 V3 1.891135 1_555
O40 P12 1.539592 1_555
O40 V1 1.952356 1_555
O41 P12 1.486213 1_555
O42 P11 1.483609 1_555
O43 P11 1.542776 1_555
O43 V4 1.926215 1_555
O44 P14 1.536768 1_555
O44 V2 1.903815 1_555
O45 P11 1.615458 1_555
O45 V3 1.845246 1_555
O46 P10 1.542101 1_555
O46 V4 2.002441 1_555
O47 P0 1.589887 1_455
O47 P13 1.640837 1_555
O48 P0 1.491065 1_555
O49 P13 1.587012 1_555
O49 V5 1.817303 1_555
O50 P12 1.615296 1_555
O50 V5 1.881510 1_555
O51 P15 1.542775 1_555
O51 V4 1.917845 1_555
O52 P15 1.567021 1_555
O52 V3 1.924254 1_555
O53 P7 1.505867 1_555
O54 P14 1.612325 1_555
O54 P7 1.619759 1_555
O55 P14 1.553390 1_555
O55 V5 2.020008 1_555
O56 P2 1.506603 1_555
O57 P15 1.621124 1_555
O57 P2 1.625283 1_455
