# generated using pymatgen
data_Al2Fe2O7
_symmetry_space_group_name_H-M   'P 1'
_cell_length_a   6.58518504
_cell_length_b   6.58518504
_cell_length_c   6.58518504
_cell_angle_alpha   60.00000000
_cell_angle_beta   60.00000000
_cell_angle_gamma   60.00000000
_symmetry_Int_Tables_number   1
_chemical_formula_structural   Al2Fe2O7
_chemical_formula_sum   'Al4 Fe4 O14'
_cell_volume   201.92447001
_cell_formula_units_Z   2
loop_
 _symmetry_equiv_pos_site_id
 _symmetry_equiv_pos_as_xyz
  1  'x, y, z'
loop_
 _atom_site_type_symbol
 _atom_site_label
 _atom_site_symmetry_multiplicity
 _atom_site_fract_x
 _atom_site_fract_y
 _atom_site_fract_z
 _atom_site_occupancy
  Al  Al0  1  0.12500000  0.12500000  0.62500000  1
  Al  Al1  1  0.12500000  0.62500000  0.12500000  1
  Al  Al2  1  0.62500000  0.12500000  0.12500000  1
  Al  Al3  1  0.12500000  0.12500000  0.12500000  1
  Fe  Fe0  1  0.62500000  0.62500000  0.12500000  1
  Fe  Fe1  1  0.62500000  0.12500000  0.62500000  1
  Fe  Fe2  1  0.12500000  0.62500000  0.62500000  1
  Fe  Fe3  1  0.62500000  0.62500000  0.62500000  1
  O  O0  1  0.25000000  0.25000000  0.25000000  1
  O  O1  1  0.00000000  0.00000000  0.00000000  1
  O  O2  1  0.52991200  0.97008800  0.52991200  1
  O  O3  1  0.27991200  0.72008800  0.27991200  1
  O  O4  1  0.52991200  0.52991200  0.97008800  1
  O  O5  1  0.97008800  0.52991200  0.52991200  1
  O  O6  1  0.52991200  0.97008800  0.97008800  1
  O  O7  1  0.97008800  0.97008800  0.52991200  1
  O  O8  1  0.97008800  0.52991200  0.97008800  1
  O  O9  1  0.72008800  0.27991200  0.27991200  1
  O  O10  1  0.27991200  0.72008800  0.72008800  1
  O  O11  1  0.72008800  0.27991200  0.72008800  1
  O  O12  1  0.27991200  0.27991200  0.72008800  1
  O  O13  1  0.72008800  0.72008800  0.27991200  1
loop_
_geom_bond_atom_site_label_1
_geom_bond_atom_site_label_2
_geom_bond_distance
_geom_bond_site_symmetry_2
Al0 O1 2.016293 1_556
Al0 O0 2.016293 1_555
Al0 O2 2.188972 1_545
Al0 O5 2.188972 1_455
Al0 O12 2.188972 1_555
Al0 O11 2.188972 1_455
Al0 O10 2.188972 1_545
Al0 O7 2.188972 1_445
Al1 O1 2.016293 1_565
Al1 O0 2.016293 1_555
Al1 O4 2.188972 1_554
Al1 O5 2.188972 1_455
Al1 O3 2.188972 1_555
Al1 O13 2.188972 1_455
Al1 O10 2.188972 1_554
Al1 O8 2.188972 1_454
Al2 O1 2.016293 1_655
Al2 O0 2.016293 1_555
Al2 O2 2.188972 1_545
Al2 O4 2.188972 1_554
Al2 O9 2.188972 1_555
Al2 O13 2.188972 1_545
Al2 O11 2.188972 1_554
Al2 O6 2.188972 1_544
Al3 O1 2.016293 1_555
Al3 O0 2.016293 1_555
Al3 O6 2.188972 1_544
Al3 O7 2.188972 1_445
Al3 O8 2.188972 1_454
Al3 O3 2.188972 1_545
Al3 O9 2.188972 1_455
Al3 O12 2.188972 1_554
Fe0 O13 1.869351 1_555
Fe0 O6 1.869351 1_554
Fe0 O8 1.869351 1_554
Fe0 O3 1.869351 1_555
Fe0 O9 1.869351 1_555
Fe0 O4 1.869351 1_554
Fe1 O11 1.869351 1_555
Fe1 O6 1.869351 1_545
Fe1 O7 1.869351 1_545
Fe1 O12 1.869351 1_555
Fe1 O9 1.869351 1_555
Fe1 O2 1.869351 1_545
Fe2 O10 1.869351 1_555
Fe2 O7 1.869351 1_455
Fe2 O8 1.869351 1_455
Fe2 O12 1.869351 1_555
Fe2 O3 1.869351 1_555
Fe2 O5 1.869351 1_455
Fe3 O4 1.869351 1_555
Fe3 O5 1.869351 1_555
Fe3 O2 1.869351 1_555
Fe3 O13 1.869351 1_555
Fe3 O10 1.869351 1_555
Fe3 O11 1.869351 1_555
