# generated using pymatgen
data_ZrCrCuS4
_symmetry_space_group_name_H-M   'P 1'
_cell_length_a   11.53653300
_cell_length_b   3.55798100
_cell_length_c   12.65377700
_cell_angle_alpha   90.00000000
_cell_angle_beta   90.00000000
_cell_angle_gamma   90.00000000
_symmetry_Int_Tables_number   1
_chemical_formula_structural   ZrCrCuS4
_chemical_formula_sum   'Zr4 Cr4 Cu4 S16'
_cell_volume   519.39661366
_cell_formula_units_Z   4
loop_
 _symmetry_equiv_pos_site_id
 _symmetry_equiv_pos_as_xyz
  1  'x, y, z'
loop_
 _atom_site_type_symbol
 _atom_site_label
 _atom_site_symmetry_multiplicity
 _atom_site_fract_x
 _atom_site_fract_y
 _atom_site_fract_z
 _atom_site_occupancy
  Zr  Zr0  1  0.14947800  0.25000000  0.67465200  1
  Zr  Zr1  1  0.85052200  0.75000000  0.32534800  1
  Zr  Zr2  1  0.35052200  0.75000000  0.17465200  1
  Zr  Zr3  1  0.64947800  0.25000000  0.82534800  1
  Cr  Cr0  1  0.11016500  0.25000000  0.06486600  1
  Cr  Cr1  1  0.88983500  0.75000000  0.93513400  1
  Cr  Cr2  1  0.38983500  0.75000000  0.56486600  1
  Cr  Cr3  1  0.61016500  0.25000000  0.43513400  1
  Cu  Cu0  1  0.10937700  0.75000000  0.48598200  1
  Cu  Cu1  1  0.89062300  0.25000000  0.51401800  1
  Cu  Cu2  1  0.39062300  0.25000000  0.98598200  1
  Cu  Cu3  1  0.60937700  0.75000000  0.01401800  1
  S  S0  1  0.99405000  0.75000000  0.63090600  1
  S  S1  1  0.00595000  0.25000000  0.36909400  1
  S  S2  1  0.50595000  0.25000000  0.13090600  1
  S  S3  1  0.49405000  0.75000000  0.86909400  1
  S  S4  1  0.02059300  0.25000000  0.88914700  1
  S  S5  1  0.97940700  0.75000000  0.11085300  1
  S  S6  1  0.47940700  0.75000000  0.38914700  1
  S  S7  1  0.52059300  0.25000000  0.61085300  1
  S  S8  1  0.21513500  0.25000000  0.23573500  1
  S  S9  1  0.78486500  0.75000000  0.76426500  1
  S  S10  1  0.28486500  0.75000000  0.73573500  1
  S  S11  1  0.71513500  0.25000000  0.26426500  1
  S  S12  1  0.24297200  0.75000000  0.00185800  1
  S  S13  1  0.75702800  0.25000000  0.99814200  1
  S  S14  1  0.25702800  0.25000000  0.50185800  1
  S  S15  1  0.74297200  0.75000000  0.49814200  1
loop_
_geom_bond_atom_site_label_1
_geom_bond_atom_site_label_2
_geom_bond_distance
_geom_bond_site_symmetry_2
Cr0 S5 2.403951 1_455
Cr0 S5 2.403951 1_445
Cr0 S4 2.451898 1_554
Cr0 S8 2.478172 1_555
Cr0 S12 2.479497 1_545
Cr0 S12 2.479497 1_555
Cr1 S4 2.403951 1_655
Cr1 S4 2.403951 1_665
Cr1 S5 2.451898 1_556
Cr1 S9 2.478172 1_555
Cr1 S13 2.479497 1_555
Cr1 S13 2.479497 1_565
Cr2 S7 2.403951 1_555
Cr2 S7 2.403951 1_565
Cr2 S6 2.451898 1_555
Cr2 S10 2.478172 1_555
Cr2 S14 2.479497 1_555
Cr2 S14 2.479497 1_565
Cr3 S6 2.403951 1_555
Cr3 S6 2.403951 1_545
Cr3 S7 2.451898 1_555
Cr3 S11 2.478172 1_555
Cr3 S15 2.479497 1_555
Cr3 S15 2.479497 1_545
Cu0 S0 2.265638 1_455
Cu0 S14 2.471168 1_565
Cu0 S14 2.471168 1_555
Cu0 S1 2.603108 1_565
Cu0 S1 2.603108 1_555
Cu1 S1 2.265638 1_655
Cu1 S15 2.471168 1_555
Cu1 S15 2.471168 1_545
Cu1 S0 2.603108 1_545
Cu1 S0 2.603108 1_555
Cu2 S2 2.265638 1_556
Cu2 S12 2.471168 1_556
Cu2 S12 2.471168 1_546
Cu2 S3 2.603108 1_545
Cu2 S3 2.603108 1_555
Cu3 S3 2.265638 1_554
Cu3 S13 2.471168 1_564
Cu3 S13 2.471168 1_554
Cu3 S2 2.603108 1_555
Cu3 S2 2.603108 1_565
S0 Zr0 2.585814 1_655
S0 Zr0 2.585814 1_665
S1 Zr1 2.585814 1_445
S1 Zr1 2.585814 1_455
S2 Zr2 2.585814 1_555
S2 Zr2 2.585814 1_545
S3 Zr3 2.585814 1_555
S3 Zr3 2.585814 1_565
S4 Zr0 3.094763 1_555
S5 Zr1 3.094763 1_555
S6 Zr2 3.094763 1_555
S7 Zr3 3.094763 1_555
S8 Zr2 2.490331 1_545
S8 Zr2 2.490331 1_555
S9 Zr3 2.490331 1_565
S9 Zr3 2.490331 1_555
S10 Zr0 2.490331 1_565
S10 Zr0 2.490331 1_555
S11 Zr1 2.490331 1_555
S11 Zr1 2.490331 1_545
S12 Zr2 2.514009 1_555
S13 Zr3 2.514009 1_555
S14 Zr0 2.514009 1_555
S15 Zr1 2.514009 1_555
