# generated using pymatgen
data_LaTl(PSe3)2
_symmetry_space_group_name_H-M   'P 1'
_cell_length_a   7.87385300
_cell_length_b   12.01616900
_cell_length_c   12.49016500
_cell_angle_alpha   70.24963720
_cell_angle_beta   90.00000000
_cell_angle_gamma   90.00000000
_symmetry_Int_Tables_number   1
_chemical_formula_structural   LaTl(PSe3)2
_chemical_formula_sum   'La4 Tl4 P8 Se24'
_cell_volume   1112.22171446
_cell_formula_units_Z   4
loop_
 _symmetry_equiv_pos_site_id
 _symmetry_equiv_pos_as_xyz
  1  'x, y, z'
loop_
 _atom_site_type_symbol
 _atom_site_label
 _atom_site_symmetry_multiplicity
 _atom_site_fract_x
 _atom_site_fract_y
 _atom_site_fract_z
 _atom_site_occupancy
  La  La0  1  0.89584700  0.40515800  0.34877100  1
  La  La1  1  0.39584700  0.09484200  0.65122900  1
  La  La2  1  0.10415300  0.59484200  0.65122900  1
  La  La3  1  0.60415300  0.90515800  0.34877100  1
  Tl  Tl0  1  0.09010900  0.12461100  0.12942500  1
  Tl  Tl1  1  0.59010900  0.37538900  0.87057500  1
  Tl  Tl2  1  0.90989100  0.87538900  0.87057500  1
  Tl  Tl3  1  0.40989100  0.62461100  0.12942500  1
  P  P0  1  0.90186400  0.25252900  0.67949400  1
  P  P1  1  0.40186400  0.24747100  0.32050600  1
  P  P2  1  0.09813600  0.74747100  0.32050600  1
  P  P3  1  0.59813600  0.75252900  0.67949400  1
  P  P4  1  0.61752200  0.23370100  0.20713800  1
  P  P5  1  0.11752200  0.26629900  0.79286200  1
  P  P6  1  0.38247800  0.76629900  0.79286200  1
  P  P7  1  0.88247800  0.73370100  0.20713800  1
  Se  Se0  1  0.71232700  0.41587200  0.12567000  1
  Se  Se1  1  0.21232700  0.08412800  0.87433000  1
  Se  Se2  1  0.28767300  0.58412800  0.87433000  1
  Se  Se3  1  0.78767300  0.91587200  0.12567000  1
  Se  Se4  1  0.21012400  0.36225400  0.20841300  1
  Se  Se5  1  0.71012400  0.13774600  0.79158700  1
  Se  Se6  1  0.78987600  0.63774600  0.79158700  1
  Se  Se7  1  0.28987600  0.86225400  0.20841300  1
  Se  Se8  1  0.81144400  0.13407900  0.32898300  1
  Se  Se9  1  0.31144400  0.36592100  0.67101700  1
  Se  Se10  1  0.18855600  0.86592100  0.67101700  1
  Se  Se11  1  0.68855600  0.63407900  0.32898300  1
  Se  Se12  1  0.80783200  0.43432400  0.59111800  1
  Se  Se13  1  0.30783200  0.06567600  0.40888200  1
  Se  Se14  1  0.19216800  0.56567600  0.40888200  1
  Se  Se15  1  0.69216800  0.93432400  0.59111800  1
  Se  Se16  1  0.51894500  0.12890000  0.10777300  1
  Se  Se17  1  0.01894500  0.37110000  0.89222700  1
  Se  Se18  1  0.48105500  0.87110000  0.89222700  1
  Se  Se19  1  0.98105500  0.62890000  0.10777300  1
  Se  Se20  1  0.52379400  0.31781000  0.44565000  1
  Se  Se21  1  0.02379400  0.18219000  0.55435000  1
  Se  Se22  1  0.47620600  0.68219000  0.55435000  1
  Se  Se23  1  0.97620600  0.81781000  0.44565000  1
loop_
_geom_bond_atom_site_label_1
_geom_bond_atom_site_label_2
_geom_bond_distance
_geom_bond_site_symmetry_2
La0 Se0 3.102762 1_555
La0 Se11 3.135643 1_555
La0 Se4 3.173870 1_655
La0 Se21 3.183843 1_655
La0 Se20 3.207707 1_555
La0 Se12 3.237670 1_555
La0 Se14 3.272078 1_655
La0 Se19 3.357018 1_555
La0 Se8 3.414243 1_555
La1 Se1 3.102762 1_555
La1 Se10 3.135643 1_545
La1 Se5 3.173870 1_555
La1 Se20 3.183843 1_555
La1 Se21 3.207707 1_555
La1 Se13 3.237670 1_555
La1 Se15 3.272078 1_545
La1 Se18 3.357018 1_545
La1 Se9 3.414243 1_555
La2 Se2 3.102762 1_555
La2 Se9 3.135643 1_555
La2 Se6 3.173870 1_455
La2 Se23 3.183843 1_455
La2 Se22 3.207707 1_555
La2 Se14 3.237670 1_555
La2 Se12 3.272078 1_455
La2 Se17 3.357018 1_555
La2 Se10 3.414243 1_555
La3 Se3 3.102762 1_555
La3 Se8 3.135643 1_565
La3 Se7 3.173870 1_555
La3 Se22 3.183843 1_555
La3 Se23 3.207707 1_555
La3 Se15 3.237670 1_555
La3 Se13 3.272078 1_565
La3 Se16 3.357018 1_565
La3 Se11 3.414243 1_555
P0 Se5 2.199253 1_555
P0 Se12 2.215607 1_555
P0 Se21 2.229829 1_655
P0 P5 2.252586 1_655
P1 Se4 2.199253 1_555
P1 Se13 2.215607 1_555
P1 Se20 2.229829 1_555
P1 P4 2.252586 1_555
P2 Se7 2.199253 1_555
P2 Se14 2.215607 1_555
P2 Se23 2.229829 1_455
P2 P7 2.252586 1_455
P3 Se6 2.199253 1_555
P3 Se15 2.215607 1_555
P3 Se22 2.229829 1_555
P3 P6 2.252586 1_555
P4 Se16 2.187438 1_555
P4 Se8 2.202108 1_555
P4 Se0 2.208838 1_555
P5 Se17 2.187438 1_555
P5 Se9 2.202108 1_555
P5 Se1 2.208838 1_555
P6 Se18 2.187438 1_555
P6 Se10 2.202108 1_555
P6 Se2 2.208838 1_555
P7 Se19 2.187438 1_555
P7 Se11 2.202108 1_555
P7 Se3 2.208838 1_555
Se8 Tl0 3.351355 1_655
Se9 Tl1 3.351355 1_555
Se10 Tl2 3.351355 1_455
Se11 Tl3 3.351355 1_555
