# generated using pymatgen
data_Ti4CoNi
_symmetry_space_group_name_H-M   'P 1'
_cell_length_a   7.92734571
_cell_length_b   7.92731558
_cell_length_c   7.92733424
_cell_angle_alpha   60.00037364
_cell_angle_beta   60.00050383
_cell_angle_gamma   60.00041716
_symmetry_Int_Tables_number   1
_chemical_formula_structural   Ti4CoNi
_chemical_formula_sum   'Ti16 Co4 Ni4'
_cell_volume   352.26570664
_cell_formula_units_Z   4
loop_
 _symmetry_equiv_pos_site_id
 _symmetry_equiv_pos_as_xyz
  1  'x, y, z'
loop_
 _atom_site_type_symbol
 _atom_site_label
 _atom_site_symmetry_multiplicity
 _atom_site_fract_x
 _atom_site_fract_y
 _atom_site_fract_z
 _atom_site_occupancy
  Ti  Ti0  1  0.10147348  0.63285041  0.63284820  1
  Ti  Ti1  1  0.63285208  0.10145878  0.63285402  1
  Ti  Ti2  1  0.63284122  0.63284067  0.63284165  1
  Ti  Ti3  1  0.63284890  0.63285185  0.10146854  1
  Ti  Ti4  1  0.43655442  0.43655640  0.06343094  1
  Ti  Ti5  1  0.06344545  0.06344855  0.43655769  1
  Ti  Ti6  1  0.43655564  0.06344997  0.06344685  1
  Ti  Ti7  1  0.06343010  0.43655753  0.43655623  1
  Ti  Ti8  1  0.06344532  0.43656047  0.06344455  1
  Ti  Ti9  1  0.43655366  0.06343428  0.43655381  1
  Ti  Ti10  1  0.81332279  0.81332482  0.18667024  1
  Ti  Ti11  1  0.18667290  0.18667649  0.81332723  1
  Ti  Ti12  1  0.81332672  0.18667656  0.18667373  1
  Ti  Ti13  1  0.18666973  0.81332455  0.81332301  1
  Ti  Ti14  1  0.18667478  0.81332845  0.18667444  1
  Ti  Ti15  1  0.81332259  0.18667160  0.81332450  1
  Co  Co0  1  0.45228407  0.84923039  0.84923772  1
  Co  Co1  1  0.84923731  0.45229340  0.84923386  1
  Co  Co2  1  0.84924484  0.84923647  0.84924223  1
  Co  Co3  1  0.84923929  0.84923046  0.45228727  1
  Ni  Ni0  1  0.75824635  0.41391692  0.41392128  1
  Ni  Ni1  1  0.41391892  0.75825266  0.41391618  1
  Ni  Ni2  1  0.41391828  0.41391329  0.41391695  1
  Ni  Ni3  1  0.41392116  0.41391503  0.75824988  1
loop_
_geom_bond_atom_site_label_1
_geom_bond_atom_site_label_2
_geom_bond_distance
_geom_bond_site_symmetry_2
Ti0 Ti8 2.879688 1_556
Ti0 Ti5 2.879693 1_565
Ti0 Ti7 2.879858 1_555
Ti1 Ti6 2.879700 1_556
Ti1 Ti5 2.879706 1_655
Ti1 Ti9 2.879858 1_555
Ti2 Ti7 2.879662 1_655
Ti2 Ti4 2.879663 1_556
Ti2 Ti9 2.879685 1_565
Ti3 Ti8 2.879701 1_655
Ti3 Ti6 2.879705 1_565
Ti3 Ti4 2.879864 1_555
Ti4 Ti6 2.957665 1_555
Ti4 Ti8 2.957695 1_555
Ti4 Ti9 2.957880 1_555
Ti4 Ti7 2.957910 1_555
Ti5 Ti9 2.957686 1_555
Ti5 Ti7 2.957686 1_555
Ti5 Ti6 2.957796 1_555
Ti5 Ti8 2.957801 1_555
Ti6 Ti9 2.957674 1_555
Ti6 Ti8 2.957788 1_555
Ti7 Ti8 2.957709 1_555
Ti7 Ti9 2.957891 1_555
Ti10 Ti8 2.977409 1_655
Ti10 Ti6 2.977425 1_565
Ti10 Ti7 2.977436 1_655
Ti10 Ti9 2.977447 1_565
Ti11 Ti8 2.977469 1_556
Ti11 Ti6 2.977483 1_556
Ti11 Ti7 2.977523 1_555
Ti11 Ti9 2.977540 1_555
Ti12 Ti8 2.977475 1_655
Ti12 Ti5 2.977481 1_655
Ti12 Ti4 2.977535 1_555
Ti12 Ti9 2.977541 1_555
Ti13 Ti8 2.977401 1_556
Ti13 Ti5 2.977412 1_565
Ti13 Ti4 2.977436 1_556
Ti13 Ti9 2.977447 1_565
Ti14 Ti6 2.977478 1_565
Ti14 Ti5 2.977478 1_565
Ti14 Ti7 2.977526 1_555
Ti14 Ti4 2.977530 1_555
Ti15 Ti6 2.977419 1_556
Ti15 Ti5 2.977421 1_655
Ti15 Ti4 2.977437 1_556
Ti15 Ti7 2.977444 1_655
Co0 Ti13 2.423952 1_555
Co0 Ti14 2.423965 1_556
Co0 Ti11 2.424009 1_565
Co0 Ti2 2.442549 1_555
Co0 Ti3 2.442604 1_556
Co0 Ti1 2.442605 1_565
Co0 Ti4 2.870926 1_556
Co0 Ti9 2.871002 1_565
Co0 Ti6 2.871091 1_566
Co1 Ti11 2.423980 1_655
Co1 Ti12 2.423996 1_556
Co1 Ti15 2.424020 1_555
Co1 Ti2 2.442574 1_555
Co1 Ti3 2.442596 1_556
Co1 Ti0 2.442599 1_655
Co1 Ti7 2.870976 1_655
Co1 Ti8 2.871006 1_656
Co1 Ti4 2.871019 1_556
Co2 Ti13 2.423851 1_655
Co2 Ti10 2.423864 1_556
Co2 Ti15 2.423894 1_565
Co2 Ti1 2.442523 1_565
Co2 Ti3 2.442526 1_556
Co2 Ti0 2.442526 1_655
Co2 Ti8 2.870940 1_656
Co2 Ti5 2.871009 1_665
Co2 Ti6 2.871047 1_566
Co3 Ti14 2.423972 1_655
Co3 Ti10 2.423978 1_555
Co3 Ti12 2.424014 1_565
Co3 Ti2 2.442565 1_555
Co3 Ti1 2.442598 1_565
Co3 Ti0 2.442606 1_655
Co3 Ti7 2.870923 1_655
Co3 Ti9 2.871027 1_565
Co3 Ti5 2.871057 1_665
Ni0 Ti2 2.563841 1_555
Ni0 Ti3 2.563906 1_555
Ni0 Ti1 2.563925 1_555
Ni0 Ti7 2.611115 1_655
Ni0 Ti5 2.611221 1_655
Ni0 Ti8 2.611265 1_655
Ni0 Ni3 2.729617 1_555
Ni0 Ni2 2.729639 1_555
Ni0 Ni1 2.729648 1_555
Ni0 Ti15 2.890130 1_555
Ni0 Ti12 2.890156 1_555
Ni0 Ti10 2.890157 1_555
Ni1 Ti2 2.563852 1_555
Ni1 Ti0 2.563884 1_555
Ni1 Ti3 2.563890 1_555
Ni1 Ti9 2.611075 1_565
Ni1 Ti6 2.611217 1_565
Ni1 Ti5 2.611235 1_565
Ni1 Ni3 2.729676 1_555
Ni1 Ni2 2.729686 1_555
Ni1 Ti10 2.890129 1_555
Ni1 Ti13 2.890145 1_555
Ni1 Ti14 2.890163 1_555
Ni2 Ti0 2.563973 1_555
Ni2 Ti3 2.563983 1_555
Ni2 Ti1 2.564001 1_555
Ni2 Ti9 2.611276 1_555
Ni2 Ti4 2.611315 1_555
Ni2 Ti7 2.611321 1_555
Ni2 Ni3 2.729661 1_555
Ni2 Ti12 2.890163 1_555
Ni2 Ti11 2.890173 1_555
Ni2 Ti14 2.890197 1_555
Ni3 Ti2 2.563845 1_555
Ni3 Ti0 2.563894 1_555
Ni3 Ti1 2.563921 1_555
Ni3 Ti4 2.611086 1_556
Ni3 Ti6 2.611195 1_556
Ni3 Ti8 2.611247 1_556
Ni3 Ti15 2.890117 1_555
Ni3 Ti13 2.890159 1_555
Ni3 Ti11 2.890161 1_555
