# generated using pymatgen
data_MgTi
_symmetry_space_group_name_H-M   'P 1'
_cell_length_a   5.91753400
_cell_length_b   9.78592600
_cell_length_c   21.59510600
_cell_angle_alpha   90.00000000
_cell_angle_beta   90.00000000
_cell_angle_gamma   90.00000000
_symmetry_Int_Tables_number   1
_chemical_formula_structural   MgTi
_chemical_formula_sum   'Mg32 Ti32'
_cell_volume   1250.54127181
_cell_formula_units_Z   32
loop_
 _symmetry_equiv_pos_site_id
 _symmetry_equiv_pos_as_xyz
  1  'x, y, z'
loop_
 _atom_site_type_symbol
 _atom_site_label
 _atom_site_symmetry_multiplicity
 _atom_site_fract_x
 _atom_site_fract_y
 _atom_site_fract_z
 _atom_site_occupancy
  Mg  Mg0_0  1  0.00000000  0.00000000  0.27799500  1
  Mg  Mg0_1  1  0.00000000  0.00000000  0.77799500  1
  Mg  Mg0_2  1  0.00000000  0.50000000  0.27799500  1
  Mg  Mg0_3  1  0.00000000  0.50000000  0.77799500  1
  Mg  Mg0_4  1  0.50000000  0.00000000  0.27799500  1
  Mg  Mg0_5  1  0.50000000  0.00000000  0.77799500  1
  Mg  Mg0_6  1  0.50000000  0.50000000  0.27799500  1
  Mg  Mg0_7  1  0.50000000  0.50000000  0.77799500  1
  Mg  Mg1_0  1  0.25000000  0.00000000  0.14286450  1
  Mg  Mg1_1  1  0.25000000  0.00000000  0.64286450  1
  Mg  Mg1_2  1  0.25000000  0.50000000  0.14286450  1
  Mg  Mg1_3  1  0.25000000  0.50000000  0.64286450  1
  Mg  Mg1_4  1  0.75000000  0.00000000  0.14286450  1
  Mg  Mg1_5  1  0.75000000  0.00000000  0.64286450  1
  Mg  Mg1_6  1  0.75000000  0.50000000  0.14286450  1
  Mg  Mg1_7  1  0.75000000  0.50000000  0.64286450  1
  Mg  Mg2_0  1  0.00000000  0.25000000  0.35713550  1
  Mg  Mg2_1  1  0.00000000  0.25000000  0.85713550  1
  Mg  Mg2_2  1  0.00000000  0.75000000  0.35713550  1
  Mg  Mg2_3  1  0.00000000  0.75000000  0.85713550  1
  Mg  Mg2_4  1  0.50000000  0.25000000  0.35713550  1
  Mg  Mg2_5  1  0.50000000  0.25000000  0.85713550  1
  Mg  Mg2_6  1  0.50000000  0.75000000  0.35713550  1
  Mg  Mg2_7  1  0.50000000  0.75000000  0.85713550  1
  Mg  Mg3_0  1  0.25000000  0.25000000  0.22200500  1
  Mg  Mg3_1  1  0.25000000  0.25000000  0.72200500  1
  Mg  Mg3_2  1  0.25000000  0.75000000  0.22200500  1
  Mg  Mg3_3  1  0.25000000  0.75000000  0.72200500  1
  Mg  Mg3_4  1  0.75000000  0.25000000  0.22200500  1
  Mg  Mg3_5  1  0.75000000  0.25000000  0.72200500  1
  Mg  Mg3_6  1  0.75000000  0.75000000  0.22200500  1
  Mg  Mg3_7  1  0.75000000  0.75000000  0.72200500  1
  Ti  Ti0_0  1  0.00000000  0.00000000  0.01774100  1
  Ti  Ti0_1  1  0.00000000  0.00000000  0.51774100  1
  Ti  Ti0_2  1  0.00000000  0.50000000  0.01774100  1
  Ti  Ti0_3  1  0.00000000  0.50000000  0.51774100  1
  Ti  Ti0_4  1  0.50000000  0.00000000  0.01774100  1
  Ti  Ti0_5  1  0.50000000  0.00000000  0.51774100  1
  Ti  Ti0_6  1  0.50000000  0.50000000  0.01774100  1
  Ti  Ti0_7  1  0.50000000  0.50000000  0.51774100  1
  Ti  Ti1_0  1  0.25000000  0.00000000  0.40864750  1
  Ti  Ti1_1  1  0.25000000  0.00000000  0.90864750  1
  Ti  Ti1_2  1  0.25000000  0.50000000  0.40864750  1
  Ti  Ti1_3  1  0.25000000  0.50000000  0.90864750  1
  Ti  Ti1_4  1  0.75000000  0.00000000  0.40864750  1
  Ti  Ti1_5  1  0.75000000  0.00000000  0.90864750  1
  Ti  Ti1_6  1  0.75000000  0.50000000  0.40864750  1
  Ti  Ti1_7  1  0.75000000  0.50000000  0.90864750  1
  Ti  Ti2_0  1  0.00000000  0.25000000  0.09135250  1
  Ti  Ti2_1  1  0.00000000  0.25000000  0.59135250  1
  Ti  Ti2_2  1  0.00000000  0.75000000  0.09135250  1
  Ti  Ti2_3  1  0.00000000  0.75000000  0.59135250  1
  Ti  Ti2_4  1  0.50000000  0.25000000  0.09135250  1
  Ti  Ti2_5  1  0.50000000  0.25000000  0.59135250  1
  Ti  Ti2_6  1  0.50000000  0.75000000  0.09135250  1
  Ti  Ti2_7  1  0.50000000  0.75000000  0.59135250  1
  Ti  Ti3_0  1  0.25000000  0.25000000  0.48225900  1
  Ti  Ti3_1  1  0.25000000  0.25000000  0.98225900  1
  Ti  Ti3_2  1  0.25000000  0.75000000  0.48225900  1
  Ti  Ti3_3  1  0.25000000  0.75000000  0.98225900  1
  Ti  Ti3_4  1  0.75000000  0.25000000  0.48225900  1
  Ti  Ti3_5  1  0.75000000  0.25000000  0.98225900  1
  Ti  Ti3_6  1  0.75000000  0.75000000  0.48225900  1
  Ti  Ti3_7  1  0.75000000  0.75000000  0.98225900  1
loop_
_geom_bond_atom_site_label_1
_geom_bond_atom_site_label_2
_geom_bond_distance
_geom_bond_site_symmetry_2
Mg0_0 Mg0_4 2.958767 1_555
Mg0_0 Mg0_4 2.958767 1_455
Mg0_0 Mg2_2 2.984311 1_545
Mg0_0 Mg2_0 2.984311 1_555
Mg0_0 Mg3_2 3.104158 1_545
Mg0_0 Mg3_6 3.104158 1_445
Mg0_0 Mg3_0 3.104158 1_555
Mg0_0 Mg3_4 3.104158 1_455
Mg0_0 Ti1_0 3.185778 1_555
Mg0_0 Ti1_4 3.185778 1_455
Mg0_0 Mg1_4 3.271730 1_455
Mg0_0 Mg1_0 3.271730 1_555
Mg0_1 Mg0_5 2.958767 1_555
Mg0_1 Mg0_5 2.958767 1_455
Mg0_1 Mg2_3 2.984311 1_545
Mg0_1 Mg2_1 2.984311 1_555
Mg0_1 Mg3_3 3.104158 1_545
Mg0_1 Mg3_7 3.104158 1_445
Mg0_1 Mg3_1 3.104158 1_555
Mg0_1 Mg3_5 3.104158 1_455
Mg0_1 Ti1_5 3.185778 1_455
Mg0_1 Ti1_1 3.185778 1_555
Mg0_1 Mg1_1 3.271730 1_555
Mg0_1 Mg1_5 3.271730 1_455
Mg0_2 Mg0_6 2.958767 1_555
Mg0_2 Mg0_6 2.958767 1_455
Mg0_2 Mg2_2 2.984311 1_555
Mg0_2 Mg2_0 2.984311 1_555
Mg0_2 Mg3_0 3.104158 1_555
Mg0_2 Mg3_2 3.104158 1_555
Mg0_2 Mg3_6 3.104158 1_455
Mg0_2 Mg3_4 3.104158 1_455
Mg0_2 Ti1_2 3.185778 1_555
Mg0_2 Ti1_6 3.185778 1_455
Mg0_2 Mg1_2 3.271730 1_555
Mg0_2 Mg1_6 3.271730 1_455
Mg0_3 Mg0_7 2.958767 1_455
Mg0_3 Mg0_7 2.958767 1_555
Mg0_3 Mg2_1 2.984311 1_555
Mg0_3 Mg2_3 2.984311 1_555
Mg0_3 Mg3_3 3.104158 1_555
Mg0_3 Mg3_7 3.104158 1_455
Mg0_3 Mg3_1 3.104158 1_555
Mg0_3 Mg3_5 3.104158 1_455
Mg0_3 Ti1_7 3.185778 1_455
Mg0_3 Ti1_3 3.185778 1_555
Mg0_3 Mg1_7 3.271730 1_455
Mg0_3 Mg1_3 3.271730 1_555
Mg0_4 Mg2_4 2.984311 1_555
Mg0_4 Mg2_6 2.984311 1_545
Mg0_4 Mg3_4 3.104158 1_555
Mg0_4 Mg3_2 3.104158 1_545
Mg0_4 Mg3_6 3.104158 1_545
Mg0_4 Mg3_0 3.104158 1_555
Mg0_4 Ti1_4 3.185778 1_555
Mg0_4 Ti1_0 3.185778 1_555
Mg0_4 Mg1_4 3.271730 1_555
Mg0_4 Mg1_0 3.271730 1_555
Mg0_5 Mg2_7 2.984311 1_545
Mg0_5 Mg2_5 2.984311 1_555
Mg0_5 Mg3_3 3.104158 1_545
Mg0_5 Mg3_1 3.104158 1_555
Mg0_5 Mg3_7 3.104158 1_545
Mg0_5 Mg3_5 3.104158 1_555
Mg0_5 Ti1_1 3.185778 1_555
Mg0_5 Ti1_5 3.185778 1_555
Mg0_5 Mg1_1 3.271730 1_555
Mg0_5 Mg1_5 3.271730 1_555
Mg0_6 Mg2_6 2.984311 1_555
Mg0_6 Mg2_4 2.984311 1_555
Mg0_6 Mg3_4 3.104158 1_555
Mg0_6 Mg3_0 3.104158 1_555
Mg0_6 Mg3_6 3.104158 1_555
Mg0_6 Mg3_2 3.104158 1_555
Mg0_6 Ti1_2 3.185778 1_555
Mg0_6 Ti1_6 3.185778 1_555
Mg0_6 Mg1_2 3.271730 1_555
Mg0_6 Mg1_6 3.271730 1_555
Mg0_7 Mg2_7 2.984311 1_555
Mg0_7 Mg2_5 2.984311 1_555
Mg0_7 Mg3_3 3.104158 1_555
Mg0_7 Mg3_7 3.104158 1_555
Mg0_7 Mg3_1 3.104158 1_555
Mg0_7 Mg3_5 3.104158 1_555
Mg0_7 Ti1_3 3.185778 1_555
Mg0_7 Ti1_7 3.185778 1_555
Mg0_7 Mg1_7 3.271730 1_555
Mg0_7 Mg1_3 3.271730 1_555
Mg1_0 Mg1_4 2.958767 1_455
Mg1_0 Mg1_4 2.958767 1_555
Mg1_0 Mg3_0 2.984311 1_555
Mg1_0 Mg3_2 2.984311 1_545
Mg1_0 Ti2_0 3.067784 1_555
Mg1_0 Ti2_6 3.067784 1_545
Mg1_0 Ti2_4 3.067784 1_555
Mg1_0 Ti2_2 3.067784 1_545
Mg1_0 Ti0_0 3.080532 1_555
Mg1_0 Ti0_4 3.080532 1_555
Mg1_1 Mg1_5 2.958767 1_455
Mg1_1 Mg1_5 2.958767 1_555
Mg1_1 Mg3_1 2.984311 1_555
Mg1_1 Mg3_3 2.984311 1_545
Mg1_1 Ti2_1 3.067784 1_555
Mg1_1 Ti2_7 3.067784 1_545
Mg1_1 Ti2_5 3.067784 1_555
Mg1_1 Ti2_3 3.067784 1_545
Mg1_1 Ti0_1 3.080532 1_555
Mg1_1 Ti0_5 3.080532 1_555
Mg1_2 Mg1_6 2.958767 1_455
Mg1_2 Mg1_6 2.958767 1_555
Mg1_2 Mg3_0 2.984311 1_555
Mg1_2 Mg3_2 2.984311 1_555
Mg1_2 Ti2_0 3.067784 1_555
Mg1_2 Ti2_6 3.067784 1_555
Mg1_2 Ti2_4 3.067784 1_555
Mg1_2 Ti2_2 3.067784 1_555
Mg1_2 Ti0_6 3.080532 1_555
Mg1_2 Ti0_2 3.080532 1_555
Mg1_3 Mg1_7 2.958767 1_555
Mg1_3 Mg1_7 2.958767 1_455
Mg1_3 Mg3_1 2.984311 1_555
Mg1_3 Mg3_3 2.984311 1_555
Mg1_3 Ti2_1 3.067784 1_555
Mg1_3 Ti2_5 3.067784 1_555
Mg1_3 Ti2_3 3.067784 1_555
Mg1_3 Ti2_7 3.067784 1_555
Mg1_3 Ti0_3 3.080532 1_555
Mg1_3 Ti0_7 3.080532 1_555
Mg1_4 Mg3_4 2.984311 1_555
Mg1_4 Mg3_6 2.984311 1_545
Mg1_4 Ti2_6 3.067784 1_545
Mg1_4 Ti2_0 3.067784 1_655
Mg1_4 Ti2_4 3.067784 1_555
Mg1_4 Ti2_2 3.067784 1_645
Mg1_4 Ti0_4 3.080532 1_555
Mg1_4 Ti0_0 3.080532 1_655
Mg1_5 Mg3_7 2.984311 1_545
Mg1_5 Mg3_5 2.984311 1_555
Mg1_5 Ti2_7 3.067784 1_545
Mg1_5 Ti2_3 3.067784 1_645
Mg1_5 Ti2_5 3.067784 1_555
Mg1_5 Ti2_1 3.067784 1_655
Mg1_5 Ti0_5 3.080532 1_555
Mg1_5 Ti0_1 3.080532 1_655
Mg1_6 Mg3_4 2.984311 1_555
Mg1_6 Mg3_6 2.984311 1_555
Mg1_6 Ti2_6 3.067784 1_555
Mg1_6 Ti2_0 3.067784 1_655
Mg1_6 Ti2_2 3.067784 1_655
Mg1_6 Ti2_4 3.067784 1_555
Mg1_6 Ti0_2 3.080532 1_655
Mg1_6 Ti0_6 3.080532 1_555
Mg1_7 Mg3_7 2.984311 1_555
Mg1_7 Mg3_5 2.984311 1_555
Mg1_7 Ti2_3 3.067784 1_655
Mg1_7 Ti2_5 3.067784 1_555
Mg1_7 Ti2_1 3.067784 1_655
Mg1_7 Ti2_7 3.067784 1_555
Mg1_7 Ti0_7 3.080532 1_555
Mg1_7 Ti0_3 3.080532 1_655
Mg2_0 Mg2_4 2.958767 1_455
Mg2_0 Mg2_4 2.958767 1_555
Mg2_0 Ti1_6 3.067784 1_455
Mg2_0 Ti1_0 3.067784 1_555
Mg2_0 Ti1_4 3.067784 1_455
Mg2_0 Ti1_2 3.067784 1_555
Mg2_0 Ti3_4 3.080532 1_455
Mg2_0 Ti3_0 3.080532 1_555
Mg2_0 Mg3_0 3.271730 1_555
Mg2_0 Mg3_4 3.271730 1_455
Mg2_1 Mg2_5 2.958767 1_555
Mg2_1 Mg2_5 2.958767 1_455
Mg2_1 Ti1_1 3.067784 1_555
Mg2_1 Ti1_5 3.067784 1_455
Mg2_1 Ti1_3 3.067784 1_555
Mg2_1 Ti1_7 3.067784 1_455
Mg2_1 Ti3_1 3.080532 1_555
Mg2_1 Ti3_5 3.080532 1_455
Mg2_1 Mg3_1 3.271730 1_555
Mg2_1 Mg3_5 3.271730 1_455
Mg2_2 Mg2_6 2.958767 1_555
Mg2_2 Mg2_6 2.958767 1_455
Mg2_2 Ti1_6 3.067784 1_455
Mg2_2 Ti1_4 3.067784 1_465
Mg2_2 Ti1_0 3.067784 1_565
Mg2_2 Ti1_2 3.067784 1_555
Mg2_2 Ti3_2 3.080532 1_555
Mg2_2 Ti3_6 3.080532 1_455
Mg2_2 Mg3_2 3.271730 1_555
Mg2_2 Mg3_6 3.271730 1_455
Mg2_3 Mg2_7 2.958767 1_455
Mg2_3 Mg2_7 2.958767 1_555
Mg2_3 Ti1_1 3.067784 1_565
Mg2_3 Ti1_5 3.067784 1_465
Mg2_3 Ti1_3 3.067784 1_555
Mg2_3 Ti1_7 3.067784 1_455
Mg2_3 Ti3_3 3.080532 1_555
Mg2_3 Ti3_7 3.080532 1_455
Mg2_3 Mg3_3 3.271730 1_555
Mg2_3 Mg3_7 3.271730 1_455
Mg2_4 Ti1_6 3.067784 1_555
Mg2_4 Ti1_0 3.067784 1_555
Mg2_4 Ti1_4 3.067784 1_555
Mg2_4 Ti1_2 3.067784 1_555
Mg2_4 Ti3_4 3.080532 1_555
Mg2_4 Ti3_0 3.080532 1_555
Mg2_4 Mg3_0 3.271730 1_555
Mg2_4 Mg3_4 3.271730 1_555
Mg2_5 Ti1_1 3.067784 1_555
Mg2_5 Ti1_5 3.067784 1_555
Mg2_5 Ti1_3 3.067784 1_555
Mg2_5 Ti1_7 3.067784 1_555
Mg2_5 Ti3_1 3.080532 1_555
Mg2_5 Ti3_5 3.080532 1_555
Mg2_5 Mg3_1 3.271730 1_555
Mg2_5 Mg3_5 3.271730 1_555
Mg2_6 Ti1_4 3.067784 1_565
Mg2_6 Ti1_6 3.067784 1_555
Mg2_6 Ti1_0 3.067784 1_565
Mg2_6 Ti1_2 3.067784 1_555
Mg2_6 Ti3_2 3.080532 1_555
Mg2_6 Ti3_6 3.080532 1_555
Mg2_6 Mg3_6 3.271730 1_555
Mg2_6 Mg3_2 3.271730 1_555
Mg2_7 Ti1_1 3.067784 1_565
Mg2_7 Ti1_5 3.067784 1_565
Mg2_7 Ti1_3 3.067784 1_555
Mg2_7 Ti1_7 3.067784 1_555
Mg2_7 Ti3_3 3.080532 1_555
Mg2_7 Ti3_7 3.080532 1_555
Mg2_7 Mg3_3 3.271730 1_555
Mg2_7 Mg3_7 3.271730 1_555
Mg3_0 Mg3_4 2.958767 1_455
Mg3_0 Mg3_4 2.958767 1_555
Mg3_0 Ti2_4 3.185778 1_555
Mg3_0 Ti2_0 3.185778 1_555
Mg3_1 Mg3_5 2.958767 1_555
Mg3_1 Mg3_5 2.958767 1_455
Mg3_1 Ti2_1 3.185778 1_555
Mg3_1 Ti2_5 3.185778 1_555
Mg3_2 Mg3_6 2.958767 1_455
Mg3_2 Mg3_6 2.958767 1_555
Mg3_2 Ti2_2 3.185778 1_555
Mg3_2 Ti2_6 3.185778 1_555
Mg3_3 Mg3_7 2.958767 1_555
Mg3_3 Mg3_7 2.958767 1_455
Mg3_3 Ti2_3 3.185778 1_555
Mg3_3 Ti2_7 3.185778 1_555
Mg3_4 Ti2_4 3.185778 1_555
Mg3_4 Ti2_0 3.185778 1_655
Mg3_5 Ti2_5 3.185778 1_555
Mg3_5 Ti2_1 3.185778 1_655
Mg3_6 Ti2_6 3.185778 1_555
Mg3_6 Ti2_2 3.185778 1_655
Mg3_7 Ti2_3 3.185778 1_655
Mg3_7 Ti2_7 3.185778 1_555
Ti0_0 Ti1_5 2.781865 1_454
Ti0_0 Ti1_1 2.781865 1_554
Ti0_0 Ti2_2 2.917577 1_545
Ti0_0 Ti2_0 2.917577 1_555
Ti0_0 Ti0_4 2.958767 1_455
Ti0_0 Ti0_4 2.958767 1_555
Ti0_0 Ti3_3 2.959893 1_544
Ti0_0 Ti3_1 2.959893 1_554
Ti0_0 Ti3_5 2.959893 1_454
Ti0_0 Ti3_7 2.959893 1_444
Ti0_1 Ti1_0 2.781865 1_555
Ti0_1 Ti1_4 2.781865 1_455
Ti0_1 Ti2_3 2.917577 1_545
Ti0_1 Ti2_1 2.917577 1_555
Ti0_1 Ti0_5 2.958767 1_455
Ti0_1 Ti0_5 2.958767 1_555
Ti0_1 Ti3_4 2.959893 1_455
Ti0_1 Ti3_2 2.959893 1_545
Ti0_1 Ti3_6 2.959893 1_445
Ti0_1 Ti3_0 2.959893 1_555
Ti0_2 Ti1_7 2.781865 1_454
Ti0_2 Ti1_3 2.781865 1_554
Ti0_2 Ti2_0 2.917577 1_555
Ti0_2 Ti2_2 2.917577 1_555
Ti0_2 Ti0_6 2.958767 1_555
Ti0_2 Ti0_6 2.958767 1_455
Ti0_2 Ti3_3 2.959893 1_554
Ti0_2 Ti3_7 2.959893 1_454
Ti0_2 Ti3_1 2.959893 1_554
Ti0_2 Ti3_5 2.959893 1_454
Ti0_3 Ti1_2 2.781865 1_555
Ti0_3 Ti1_6 2.781865 1_455
Ti0_3 Ti2_3 2.917577 1_555
Ti0_3 Ti2_1 2.917577 1_555
Ti0_3 Ti0_7 2.958767 1_455
Ti0_3 Ti0_7 2.958767 1_555
Ti0_3 Ti3_6 2.959893 1_455
Ti0_3 Ti3_2 2.959893 1_555
Ti0_3 Ti3_0 2.959893 1_555
Ti0_3 Ti3_4 2.959893 1_455
Ti0_4 Ti1_5 2.781865 1_554
Ti0_4 Ti1_1 2.781865 1_554
Ti0_4 Ti2_6 2.917577 1_545
Ti0_4 Ti2_4 2.917577 1_555
Ti0_4 Ti3_3 2.959893 1_544
Ti0_4 Ti3_1 2.959893 1_554
Ti0_4 Ti3_7 2.959893 1_544
Ti0_4 Ti3_5 2.959893 1_554
Ti0_5 Ti1_0 2.781865 1_555
Ti0_5 Ti1_4 2.781865 1_555
Ti0_5 Ti2_5 2.917577 1_555
Ti0_5 Ti2_7 2.917577 1_545
Ti0_5 Ti3_2 2.959893 1_545
Ti0_5 Ti3_0 2.959893 1_555
Ti0_5 Ti3_6 2.959893 1_545
Ti0_5 Ti3_4 2.959893 1_555
Ti0_6 Ti1_3 2.781865 1_554
Ti0_6 Ti1_7 2.781865 1_554
Ti0_6 Ti2_6 2.917577 1_555
Ti0_6 Ti2_4 2.917577 1_555
Ti0_6 Ti3_3 2.959893 1_554
Ti0_6 Ti3_7 2.959893 1_554
Ti0_6 Ti3_1 2.959893 1_554
Ti0_6 Ti3_5 2.959893 1_554
Ti0_7 Ti1_2 2.781865 1_555
Ti0_7 Ti1_6 2.781865 1_555
Ti0_7 Ti2_5 2.917577 1_555
Ti0_7 Ti2_7 2.917577 1_555
Ti0_7 Ti3_2 2.959893 1_555
Ti0_7 Ti3_6 2.959893 1_555
Ti0_7 Ti3_0 2.959893 1_555
Ti0_7 Ti3_4 2.959893 1_555
Ti1_0 Ti3_2 2.917577 1_545
Ti1_0 Ti3_0 2.917577 1_555
Ti1_0 Ti1_4 2.958767 1_455
Ti1_0 Ti1_4 2.958767 1_555
Ti1_1 Ti3_1 2.917577 1_555
Ti1_1 Ti3_3 2.917577 1_545
Ti1_1 Ti1_5 2.958767 1_455
Ti1_1 Ti1_5 2.958767 1_555
Ti1_2 Ti3_2 2.917577 1_555
Ti1_2 Ti3_0 2.917577 1_555
Ti1_2 Ti1_6 2.958767 1_455
Ti1_2 Ti1_6 2.958767 1_555
Ti1_3 Ti3_1 2.917577 1_555
Ti1_3 Ti3_3 2.917577 1_555
Ti1_3 Ti1_7 2.958767 1_455
Ti1_3 Ti1_7 2.958767 1_555
Ti1_4 Ti3_6 2.917577 1_545
Ti1_4 Ti3_4 2.917577 1_555
Ti1_5 Ti3_5 2.917577 1_555
Ti1_5 Ti3_7 2.917577 1_545
Ti1_6 Ti3_6 2.917577 1_555
Ti1_6 Ti3_4 2.917577 1_555
Ti1_7 Ti3_5 2.917577 1_555
Ti1_7 Ti3_7 2.917577 1_555
Ti2_0 Ti3_1 2.781865 1_554
Ti2_0 Ti3_5 2.781865 1_454
Ti2_0 Ti2_4 2.958767 1_455
Ti2_0 Ti2_4 2.958767 1_555
Ti2_1 Ti3_0 2.781865 1_555
Ti2_1 Ti3_4 2.781865 1_455
Ti2_1 Ti2_5 2.958767 1_555
Ti2_1 Ti2_5 2.958767 1_455
Ti2_2 Ti3_7 2.781865 1_454
Ti2_2 Ti3_3 2.781865 1_554
Ti2_2 Ti2_6 2.958767 1_555
Ti2_2 Ti2_6 2.958767 1_455
Ti2_3 Ti3_2 2.781865 1_555
Ti2_3 Ti3_6 2.781865 1_455
Ti2_3 Ti2_7 2.958767 1_455
Ti2_3 Ti2_7 2.958767 1_555
Ti2_4 Ti3_1 2.781865 1_554
Ti2_4 Ti3_5 2.781865 1_554
Ti2_5 Ti3_0 2.781865 1_555
Ti2_5 Ti3_4 2.781865 1_555
Ti2_6 Ti3_3 2.781865 1_554
Ti2_6 Ti3_7 2.781865 1_554
Ti2_7 Ti3_2 2.781865 1_555
Ti2_7 Ti3_6 2.781865 1_555
Ti3_0 Ti3_4 2.958767 1_455
Ti3_0 Ti3_4 2.958767 1_555
Ti3_1 Ti3_5 2.958767 1_455
Ti3_1 Ti3_5 2.958767 1_555
Ti3_2 Ti3_6 2.958767 1_555
Ti3_2 Ti3_6 2.958767 1_455
Ti3_3 Ti3_7 2.958767 1_555
Ti3_3 Ti3_7 2.958767 1_455
