# generated using pymatgen
data_GdFeNi4
_symmetry_space_group_name_H-M   'P 1'
_cell_length_a   4.93640377
_cell_length_b   4.93640377
_cell_length_c   3.95266900
_cell_angle_alpha   90.00000000
_cell_angle_beta   90.00000000
_cell_angle_gamma   119.99999690
_symmetry_Int_Tables_number   1
_chemical_formula_structural   GdFeNi4
_chemical_formula_sum   'Gd1 Fe1 Ni4'
_cell_volume   83.41467140
_cell_formula_units_Z   1
loop_
 _symmetry_equiv_pos_site_id
 _symmetry_equiv_pos_as_xyz
  1  'x, y, z'
loop_
 _atom_site_type_symbol
 _atom_site_label
 _atom_site_symmetry_multiplicity
 _atom_site_fract_x
 _atom_site_fract_y
 _atom_site_fract_z
 _atom_site_occupancy
  Gd  Gd0  1  0.33333300  0.66666700  0.00000000  1
  Fe  Fe0  1  0.66666700  0.33333300  0.00000000  1
  Ni  Ni0  1  0.00000000  0.00000000  0.00000000  1
  Ni  Ni1  1  0.33269400  0.16634700  0.50000000  1
  Ni  Ni2  1  0.83365300  0.16634700  0.50000000  1
  Ni  Ni3  1  0.83365300  0.66730600  0.50000000  1
loop_
_geom_bond_atom_site_label_1
_geom_bond_atom_site_label_2
_geom_bond_distance
_geom_bond_site_symmetry_2
Gd0 Ni0 2.850031 1_565
Gd0 Ni0 2.850036 1_665
Gd0 Ni0 2.850036 1_555
Gd0 Ni3 3.161948 1_454
Gd0 Ni3 3.161948 1_455
Gd0 Ni1 3.161948 1_565
Gd0 Ni1 3.161948 1_564
Gd0 Ni2 3.161950 1_564
Gd0 Ni2 3.161950 1_455
Gd0 Ni2 3.161950 1_454
Gd0 Ni2 3.161950 1_565
Gd0 Ni3 3.161952 1_554
Gd0 Ni1 3.161952 1_554
Gd0 Ni3 3.161952 1_555
Gd0 Ni1 3.161952 1_555
Fe0 Ni2 2.438106 1_554
Fe0 Ni2 2.438106 1_555
Fe0 Ni3 2.438108 1_555
Fe0 Ni3 2.438108 1_554
Fe0 Ni1 2.438108 1_555
Fe0 Ni1 2.438108 1_554
Fe0 Ni0 2.850031 1_655
Fe0 Gd0 2.850031 1_545
Fe0 Gd0 2.850031 1_655
Fe0 Ni0 2.850036 1_665
Fe0 Ni0 2.850036 1_555
Fe0 Gd0 2.850040 1_555
Ni0 Ni2 2.434911 1_455
Ni0 Ni2 2.434911 1_454
Ni0 Ni1 2.434911 1_555
Ni0 Ni1 2.434911 1_554
Ni0 Ni3 2.434911 1_444
Ni0 Ni3 2.434911 1_445
Ni1 Ni2 2.463468 1_455
Ni1 Ni3 2.463468 1_445
Ni1 Ni2 2.472936 1_555
Ni1 Ni3 2.472936 1_555
Ni2 Ni3 2.463468 1_545
Ni2 Ni3 2.472936 1_555
