# generated using pymatgen
data_Al37(Fe6Cu)2
_symmetry_space_group_name_H-M   'P 1'
_cell_length_a   8.64888166
_cell_length_b   8.64890327
_cell_length_c   12.32340249
_cell_angle_alpha   73.90458909
_cell_angle_beta   73.90472764
_cell_angle_gamma   53.69849628
_symmetry_Int_Tables_number   1
_chemical_formula_structural   Al37(Fe6Cu)2
_chemical_formula_sum   'Al37 Fe12 Cu2'
_cell_volume   706.13918435
_cell_formula_units_Z   1
loop_
 _symmetry_equiv_pos_site_id
 _symmetry_equiv_pos_as_xyz
  1  'x, y, z'
loop_
 _atom_site_type_symbol
 _atom_site_label
 _atom_site_symmetry_multiplicity
 _atom_site_fract_x
 _atom_site_fract_y
 _atom_site_fract_z
 _atom_site_occupancy
  Al  Al0  1  0.67765672  0.67765883  0.28147071  1
  Al  Al1  1  0.32641836  0.32641681  0.72187771  1
  Al  Al2  1  0.60251026  0.03846802  0.33887277  1
  Al  Al3  1  0.03846551  0.60251042  0.33887210  1
  Al  Al4  1  0.39418941  0.96722577  0.66179572  1
  Al  Al5  1  0.96721890  0.39419669  0.66179751  1
  Al  Al6  1  0.28872934  0.73251893  0.33550016  1
  Al  Al7  1  0.73251852  0.28872629  0.33550147  1
  Al  Al8  1  0.72085860  0.25893177  0.66901386  1
  Al  Al9  1  0.25893336  0.72085730  0.66901289  1
  Al  Al10  1  0.23888233  0.23888503  0.04707816  1
  Al  Al11  1  0.76744378  0.76744740  0.93611360  1
  Al  Al12  1  0.42556171  0.84203793  0.10864136  1
  Al  Al13  1  0.84204471  0.42555220  0.10864343  1
  Al  Al14  1  0.59302024  0.14978620  0.88736603  1
  Al  Al15  1  0.14978511  0.59302111  0.88736571  1
  Al  Al16  1  0.42365606  0.83928728  0.47858548  1
  Al  Al17  1  0.83929158  0.42365159  0.47858364  1
  Al  Al18  1  0.57537413  0.16103224  0.52355310  1
  Al  Al19  1  0.16103330  0.57536865  0.52355314  1
  Al  Al20  1  0.59913144  0.02808616  0.11027188  1
  Al  Al21  1  0.02808688  0.59913141  0.11027081  1
  Al  Al22  1  0.39822122  0.97294846  0.88769156  1
  Al  Al23  1  0.97294949  0.39821968  0.88769123  1
  Al  Al24  1  0.74934284  0.25088159  0.00141014  1
  Al  Al25  1  0.25088106  0.74934234  0.00140997  1
  Al  Al26  1  0.30743953  0.30743975  0.22660053  1
  Al  Al27  1  0.68954306  0.68954188  0.77120446  1
  Al  Al28  1  0.23285995  0.23286278  0.45604828  1
  Al  Al29  1  0.76721589  0.76721788  0.54405211  1
  Al  Al30  1  0.51857565  0.51857682  0.83138070  1
  Al  Al31  1  0.47898911  0.47898882  0.16860723  1
  Al  Al32  1  0.05816302  0.05816123  0.82639170  1
  Al  Al33  1  0.93351689  0.93351744  0.17536132  1
  Al  Al34  1  0.07076858  0.07076940  0.42171567  1
  Al  Al35  1  0.92514655  0.92514105  0.58752022  1
  Al  Al36  1  0.08234351  0.08234791  0.21531203  1
  Fe  Fe0  1  0.08948378  0.08948279  0.01131001  1
  Fe  Fe1  1  0.90954063  0.90954097  0.99519574  1
  Fe  Fe2  1  0.08787413  0.08787191  0.61259422  1
  Fe  Fe3  1  0.91682217  0.91682109  0.38140256  1
  Fe  Fe4  1  0.60148033  0.60148215  0.63155801  1
  Fe  Fe5  1  0.39713346  0.39713388  0.36902091  1
  Fe  Fe6  1  0.38427025  0.97702935  0.27643935  1
  Fe  Fe7  1  0.97702757  0.38427159  0.27643929  1
  Fe  Fe8  1  0.60963706  0.02043206  0.72245433  1
  Fe  Fe9  1  0.02043230  0.60963556  0.72245395  1
  Fe  Fe10  1  0.40257707  0.40257989  0.01372731  1
  Fe  Fe11  1  0.59695382  0.59695595  0.98564990  1
  Cu  Cu0  1  0.92058628  0.92058843  0.78322438  1
  Cu  Cu1  1  0.49941857  0.49942130  0.50239167  1
loop_
_geom_bond_atom_site_label_1
_geom_bond_atom_site_label_2
_geom_bond_distance
_geom_bond_site_symmetry_2
Al0 Fe6 2.316349 1_555
Al0 Fe7 2.316353 1_555
Al0 Al16 2.822866 1_555
Al0 Al17 2.822871 1_555
Al0 Al12 2.921795 1_555
Al0 Al13 2.921839 1_555
Al0 Al20 2.984939 1_565
Al0 Al21 2.984960 1_655
Al0 Al6 3.004498 1_555
Al0 Al7 3.004541 1_555
Al0 Al3 3.037827 1_655
Al0 Al2 3.037852 1_565
Al1 Fe8 2.308100 1_555
Al1 Fe9 2.308105 1_555
Al1 Al19 2.833580 1_555
Al1 Al18 2.833594 1_555
Al1 Al14 2.918662 1_555
Al1 Al15 2.918681 1_555
Al1 Al22 2.983111 1_545
Al1 Al23 2.983112 1_455
Al1 Al8 3.004005 1_555
Al1 Al9 3.004014 1_555
Al1 Al4 3.069440 1_545
Al1 Al5 3.069453 1_455
Al2 Fe3 2.422655 1_545
Al2 Fe6 2.580046 1_545
Al2 Fe5 2.581619 1_555
Al2 Al26 2.642426 1_555
Al2 Al28 2.748616 1_555
Al2 Al33 2.796198 1_545
Al2 Al20 2.852054 1_555
Al2 Al29 2.945735 1_545
Al2 Al7 2.959212 1_555
Al3 Fe3 2.422667 1_455
Al3 Fe7 2.580032 1_455
Al3 Fe5 2.581628 1_555
Al3 Al33 2.796196 1_455
Al3 Al6 2.959255 1_555
Al4 Fe2 2.396196 1_565
Al4 Fe8 2.494218 1_565
Al4 Fe4 2.632010 1_555
Al4 Al9 2.950502 1_555
Al5 Fe2 2.396267 1_655
Al5 Fe9 2.494180 1_655
Al5 Fe4 2.631975 1_555
Al5 Al8 2.950498 1_555
Al6 Fe5 2.407060 1_555
Al6 Fe6 2.562598 1_555
Al6 Fe3 2.574355 1_455
Al6 Cu1 2.654033 1_555
Al7 Fe5 2.407046 1_555
Al7 Fe7 2.562611 1_555
Al7 Fe3 2.574344 1_545
Al7 Cu1 2.654055 1_555
Al8 Fe4 2.437333 1_555
Al8 Fe2 2.556212 1_655
Al8 Cu0 2.570434 1_545
Al8 Fe8 2.618974 1_555
Al8 Cu1 2.702984 1_555
Al9 Fe4 2.437307 1_555
Al9 Fe2 2.556209 1_565
Al9 Cu0 2.570465 1_455
Al9 Fe9 2.618984 1_555
Al9 Cu1 2.702962 1_555
Al10 Fe10 2.430203 1_555
Al10 Fe0 2.478340 1_555
Al10 Al36 2.649887 1_555
Al10 Al26 2.732853 1_555
Al10 Al21 2.733173 1_555
Al10 Al20 2.733185 1_555
Al10 Al13 2.763391 1_455
Al10 Al12 2.763452 1_545
Al10 Al23 2.880673 1_454
Al10 Al22 2.880696 1_544
Al10 Al15 2.924482 1_554
Al10 Al14 2.924490 1_554
Al11 Fe11 2.509503 1_555
Al11 Fe1 2.516245 1_555
Al11 Cu0 2.523561 1_555
Al11 Al14 2.658174 1_565
Al11 Al15 2.658185 1_655
Al11 Al27 2.663446 1_555
Al11 Al22 2.731423 1_555
Al11 Al23 2.731468 1_555
Al11 Al12 2.948877 1_556
Al11 Al13 2.948949 1_556
Al11 Fe8 2.974090 1_565
Al11 Fe9 2.974120 1_655
Al11 Al21 2.978539 1_656
Al11 Al20 2.978540 1_566
Al12 Fe11 2.408912 1_554
Al12 Fe6 2.490404 1_555
Al12 Al36 2.627836 1_565
Al12 Al22 2.661276 1_554
Al12 Fe0 2.758948 1_565
Al12 Al20 2.781737 1_565
Al12 Al25 2.792858 1_555
Al12 Al31 2.793528 1_555
Al12 Al6 2.852732 1_555
Al13 Fe11 2.408966 1_554
Al13 Fe7 2.490364 1_555
Al13 Al36 2.627734 1_655
Al13 Al23 2.661294 1_554
Al13 Fe0 2.758917 1_655
Al13 Al21 2.781750 1_655
Al13 Al24 2.792844 1_555
Al13 Al31 2.793541 1_555
Al13 Al7 2.852724 1_555
Al14 Fe10 2.473800 1_556
Al14 Fe8 2.512129 1_555
Al14 Cu0 2.519481 1_545
Al14 Al20 2.658556 1_556
Al14 Fe1 2.707070 1_545
Al14 Al8 2.744449 1_555
Al14 Al30 2.767443 1_555
Al14 Al24 2.775306 1_556
Al14 Al22 2.867358 1_545
Al15 Fe10 2.473784 1_556
Al15 Fe9 2.512127 1_555
Al15 Cu0 2.519484 1_455
Al15 Al21 2.658547 1_556
Al15 Fe1 2.707079 1_455
Al15 Al9 2.744456 1_555
Al15 Al30 2.767437 1_555
Al15 Al25 2.775303 1_556
Al15 Al23 2.867361 1_455
Al16 Fe4 2.421076 1_555
Al16 Fe6 2.466874 1_555
Al16 Cu1 2.550232 1_555
Al16 Al34 2.643376 1_565
Al16 Al4 2.668179 1_555
Al16 Al9 2.669688 1_555
Al16 Al28 2.732432 1_565
Al16 Fe2 2.774892 1_565
Al16 Al2 2.891179 1_565
Al16 Al6 2.939982 1_555
Al16 Al29 2.953978 1_555
Al17 Fe4 2.421132 1_555
Al17 Fe7 2.466845 1_555
Al17 Cu1 2.550256 1_555
Al17 Al34 2.643341 1_655
Al17 Al5 2.668198 1_555
Al17 Al8 2.669708 1_555
Al17 Al28 2.732380 1_655
Al17 Fe2 2.774884 1_655
Al17 Al3 2.891160 1_655
Al17 Al7 2.939972 1_555
Al17 Al29 2.954027 1_555
Al18 Fe8 2.428579 1_555
Al18 Fe5 2.432509 1_555
Al18 Cu1 2.541726 1_555
Al18 Al7 2.655042 1_555
Al18 Al35 2.656661 1_545
Al18 Al2 2.665596 1_555
Al18 Al29 2.735279 1_545
Al18 Fe3 2.836992 1_545
Al18 Al4 2.866046 1_545
Al18 Al28 2.958769 1_555
Al18 Al8 2.977796 1_555
Al19 Fe9 2.428582 1_555
Al19 Fe5 2.432495 1_555
Al19 Cu1 2.541715 1_555
Al19 Al6 2.655087 1_555
Al19 Al35 2.656669 1_455
Al19 Al3 2.665599 1_555
Al19 Al29 2.735289 1_455
Al19 Fe3 2.837002 1_455
Al19 Al5 2.866022 1_455
Al19 Al28 2.958726 1_555
Al19 Al9 2.977818 1_555
Al20 Fe1 2.388688 1_544
Al20 Fe6 2.490360 1_545
Al20 Al26 2.637251 1_555
Al20 Fe10 2.694694 1_555
Al20 Al24 2.786594 1_555
Al20 Al33 2.792492 1_545
Al21 Fe1 2.388684 1_454
Al21 Fe7 2.490367 1_455
Al21 Al26 2.637245 1_555
Al21 Fe10 2.694667 1_555
Al21 Al25 2.786579 1_555
Al21 Al33 2.792509 1_455
Al21 Al3 2.852050 1_555
Al22 Fe0 2.424027 1_566
Al22 Fe8 2.453475 1_565
Al22 Al27 2.655199 1_555
Al22 Fe11 2.709634 1_555
Al22 Al25 2.784447 1_556
Al22 Al4 2.808114 1_555
Al22 Al32 2.849678 1_565
Al23 Fe0 2.424025 1_656
Al23 Fe9 2.453472 1_655
Al23 Al27 2.655189 1_555
Al23 Fe11 2.709655 1_555
Al23 Al24 2.784438 1_556
Al23 Al5 2.808086 1_555
Al23 Al32 2.849685 1_655
Al24 Fe0 2.420744 1_655
Al24 Fe1 2.421651 1_544
Al24 Fe11 2.425354 1_554
Al24 Fe10 2.436809 1_555
Al24 Al31 2.779472 1_555
Al24 Al30 2.809233 1_554
Al24 Al32 2.844620 1_654
Al24 Al33 2.849658 1_545
Al25 Fe0 2.420750 1_565
Al25 Fe1 2.421641 1_454
Al25 Fe11 2.425339 1_554
Al25 Fe10 2.436793 1_555
Al25 Al31 2.779467 1_555
Al25 Al30 2.809232 1_554
Al25 Al32 2.844603 1_564
Al25 Al33 2.849667 1_455
Al26 Fe6 2.447407 1_545
Al26 Fe7 2.447411 1_455
Al26 Al31 2.518784 1_555
Al26 Fe5 2.550766 1_555
Al26 Fe10 2.577579 1_555
Al26 Al3 2.642433 1_555
Al26 Al28 2.701366 1_555
Al27 Fe9 2.442053 1_655
Al27 Fe8 2.442067 1_565
Al27 Fe4 2.502417 1_555
Al27 Al30 2.509137 1_555
Al27 Fe11 2.584348 1_555
Al27 Al5 2.638349 1_555
Al27 Al4 2.638408 1_555
Al27 Al29 2.680969 1_555
Al28 Fe5 2.426480 1_555
Al28 Fe2 2.458843 1_555
Al28 Al34 2.663583 1_555
Al28 Al3 2.748603 1_555
Al28 Al4 2.930867 1_545
Al28 Al5 2.930910 1_455
Al28 Fe7 3.031064 1_455
Al28 Fe6 3.031077 1_545
Al29 Fe4 2.447669 1_555
Al29 Fe3 2.544082 1_555
Al29 Al35 2.653062 1_555
Al29 Al5 2.773855 1_555
Al29 Al4 2.773881 1_555
Al29 Al3 2.945751 1_655
Al29 Fe9 2.993543 1_655
Al29 Fe8 2.993549 1_565
Al30 Fe4 2.396431 1_555
Al30 Fe10 2.398824 1_556
Al30 Fe11 2.550804 1_555
Al30 Al9 2.829449 1_555
Al30 Al8 2.829464 1_555
Al31 Fe5 2.399309 1_555
Al31 Fe11 2.418053 1_554
Al31 Fe10 2.536206 1_555
Al31 Al7 2.845620 1_555
Al31 Al6 2.845623 1_555
Al32 Cu0 2.343692 1_445
Al32 Fe0 2.472097 1_556
Al32 Fe2 2.530053 1_555
Al32 Fe1 2.573536 1_445
Al32 Al4 2.844062 1_545
Al32 Al5 2.844092 1_455
Al33 Fe1 2.361571 1_554
Al33 Fe3 2.471230 1_555
Al33 Al36 2.494154 1_665
Al33 Fe0 2.618540 1_665
Al34 Fe2 2.447193 1_555
Al34 Al36 2.493867 1_555
Al34 Al35 2.524301 1_445
Al34 Fe3 2.573933 1_445
Al34 Fe6 2.593203 1_545
Al34 Fe7 2.593205 1_455
Al34 Al7 2.706254 1_455
Al34 Al6 2.706274 1_545
Al35 Cu0 2.390825 1_555
Al35 Fe9 2.543925 1_655
Al35 Fe8 2.543946 1_565
Al35 Fe3 2.582867 1_555
Al35 Fe2 2.623913 1_665
Al35 Al9 2.654903 1_655
Al35 Al8 2.654944 1_565
Al36 Fe7 2.471831 1_455
Al36 Fe6 2.471839 1_545
Al36 Fe0 2.481980 1_555
Al36 Al7 2.668441 1_455
Al36 Al6 2.668462 1_545
Al36 Fe3 2.732332 1_445
Fe0 Fe1 2.845036 1_444
Cu0 Fe8 2.558813 1_565
Cu0 Fe9 2.558846 1_655
Cu0 Fe1 2.564359 1_555
Cu0 Fe2 2.777243 1_665
Cu1 Fe4 2.563763 1_555
Cu1 Fe5 2.608779 1_555
