# generated using pymatgen
data_U6Al8(FeSi)5
_symmetry_space_group_name_H-M   'P 1'
_cell_length_a   4.23646600
_cell_length_b   10.37412055
_cell_length_c   10.37412055
_cell_angle_alpha   71.86825698
_cell_angle_beta   78.21824450
_cell_angle_gamma   78.21824450
_symmetry_Int_Tables_number   1
_chemical_formula_structural   U6Al8(FeSi)5
_chemical_formula_sum   'U6 Al8 Fe5 Si5'
_cell_volume   419.29469957
_cell_formula_units_Z   1
loop_
 _symmetry_equiv_pos_site_id
 _symmetry_equiv_pos_as_xyz
  1  'x, y, z'
loop_
 _atom_site_type_symbol
 _atom_site_label
 _atom_site_symmetry_multiplicity
 _atom_site_fract_x
 _atom_site_fract_y
 _atom_site_fract_z
 _atom_site_occupancy
  U  U0  1  0.85151200  0.14848800  0.14848800  1
  U  U1  1  0.14848800  0.85151200  0.85151200  1
  U  U2  1  0.86902900  0.81828600  0.44365600  1
  U  U3  1  0.13097100  0.55634400  0.18171400  1
  U  U4  1  0.86902900  0.44365600  0.81828600  1
  U  U5  1  0.13097100  0.18171400  0.55634400  1
  Al  Al0  1  0.62087800  0.37912200  0.37912200  1
  Al  Al1  1  0.37912200  0.62087800  0.62087800  1
  Al  Al2  1  0.00000000  0.86133700  0.13866300  1
  Al  Al3  1  0.00000000  0.13866300  0.86133700  1
  Al  Al4  1  0.76709300  0.73290700  0.73290700  1
  Al  Al5  1  0.23290700  0.26709300  0.26709300  1
  Al  Al6  1  0.50000000  0.33059500  0.66940500  1
  Al  Al7  1  0.50000000  0.66940500  0.33059500  1
  Fe  Fe0  1  0.73809300  0.96084200  0.56297200  1
  Fe  Fe1  1  0.26190700  0.43702800  0.03915800  1
  Fe  Fe2  1  0.73809300  0.56297200  0.96084200  1
  Fe  Fe3  1  0.26190700  0.03915800  0.43702800  1
  Fe  Fe4  1  0.50000000  0.00000000  0.00000000  1
  Si  Si0  1  0.59716500  0.05114400  0.75452600  1
  Si  Si1  1  0.40283500  0.24547400  0.94885600  1
  Si  Si2  1  0.59716500  0.75452600  0.05114400  1
  Si  Si3  1  0.40283500  0.94885600  0.24547400  1
  Si  Si4  1  0.00000000  0.50000000  0.50000000  1
loop_
_geom_bond_atom_site_label_1
_geom_bond_atom_site_label_2
_geom_bond_distance
_geom_bond_site_symmetry_2
Al0 Al5 2.793525 1_655
Al0 Al5 2.793525 1_555
Al0 Al7 2.848916 1_555
Al0 Al6 2.848916 1_555
Al0 Si4 2.889371 1_655
Al0 Si4 2.889371 1_555
Al0 U3 3.117020 1_655
Al0 U3 3.117020 1_555
Al0 U5 3.117020 1_655
Al0 U5 3.117020 1_555
Al1 Al4 2.793525 1_555
Al1 Al4 2.793525 1_455
Al1 Al7 2.848916 1_555
Al1 Al6 2.848916 1_555
Al1 Si4 2.889371 1_655
Al1 Si4 2.889371 1_555
Al1 U4 3.117020 1_455
Al1 U4 3.117020 1_555
Al1 U2 3.117020 1_555
Al1 U2 3.117020 1_455
Al2 Si2 2.644958 1_555
Al2 Si3 2.644958 1_455
Al2 Si2 2.644958 1_455
Al2 Si3 2.644958 1_555
Al2 Fe4 2.708795 1_565
Al2 Fe4 2.708795 1_465
Al2 U1 2.945798 1_554
Al2 U0 2.945798 1_465
Al2 U2 3.003862 1_455
Al2 U3 3.003862 1_555
Al3 Si1 2.644958 1_455
Al3 Si0 2.644958 1_555
Al3 Si1 2.644958 1_555
Al3 Si0 2.644958 1_455
Al3 Fe4 2.708795 1_456
Al3 Fe4 2.708795 1_556
Al3 U0 2.945798 1_456
Al3 U1 2.945798 1_545
Al3 U4 3.003862 1_455
Al3 U5 3.003862 1_555
Al4 Fe2 2.467725 1_555
Al4 Fe0 2.467725 1_555
Al4 U4 2.819242 1_555
Al4 U2 2.819242 1_555
Al4 U1 2.864368 1_655
Al4 U1 2.864368 1_555
Al5 Fe3 2.467725 1_555
Al5 Fe1 2.467725 1_555
Al5 U3 2.819242 1_555
Al5 U5 2.819242 1_555
Al5 U0 2.864368 1_455
Al5 U0 2.864368 1_555
Al6 Si1 2.724244 1_555
Al6 Si0 2.724244 1_555
Al6 Si4 2.956634 1_555
Al6 Si4 2.956634 1_655
Al6 U4 3.011279 1_555
Al6 U4 3.011279 1_455
Al6 U5 3.011279 1_555
Al6 U5 3.011279 1_655
Al7 Si3 2.724244 1_555
Al7 Si2 2.724244 1_555
Al7 Si4 2.956634 1_555
Al7 Si4 2.956634 1_655
Al7 U2 3.011279 1_455
Al7 U2 3.011279 1_555
Al7 U3 3.011279 1_655
Al7 U3 3.011279 1_555
Fe0 U2 2.133291 1_555
Fe0 Si0 2.372512 1_565
Fe1 U3 2.133291 1_555
Fe1 Si1 2.372512 1_554
Fe2 U4 2.133291 1_555
Fe2 Si2 2.372512 1_556
Fe3 U5 2.133291 1_555
Fe3 Si3 2.372512 1_545
Fe4 Si0 2.399199 1_554
Fe4 Si2 2.399199 1_545
Fe4 Si3 2.399199 1_545
Fe4 Si1 2.399199 1_554
Si0 U1 2.905874 1_545
Si0 U1 2.905874 1_645
Si0 U5 2.965611 1_555
Si0 U5 2.965611 1_655
Si1 U0 2.905874 1_556
Si1 U0 2.905874 1_456
Si1 U4 2.965611 1_455
Si1 U4 2.965611 1_555
Si2 U1 2.905874 1_554
Si2 U1 2.905874 1_654
Si2 U3 2.965611 1_555
Si2 U3 2.965611 1_655
Si3 U0 2.905874 1_565
Si3 U0 2.905874 1_465
Si3 U2 2.965611 1_555
Si3 U2 2.965611 1_455
Si4 U4 3.120147 1_455
Si4 U3 3.120147 1_555
Si4 U2 3.120147 1_455
Si4 U5 3.120147 1_555
