# generated using pymatgen
data_BiMoO2
_symmetry_space_group_name_H-M   'P 1'
_cell_length_a   7.81130090
_cell_length_b   7.81130090
_cell_length_c   7.81130090
_cell_angle_alpha   130.45727248
_cell_angle_beta   130.45727248
_cell_angle_gamma   72.67679019
_symmetry_Int_Tables_number   1
_chemical_formula_structural   BiMoO2
_chemical_formula_sum   'Bi4 Mo4 O8'
_cell_volume   269.61070587
_cell_formula_units_Z   4
loop_
 _symmetry_equiv_pos_site_id
 _symmetry_equiv_pos_as_xyz
  1  'x, y, z'
loop_
 _atom_site_type_symbol
 _atom_site_label
 _atom_site_symmetry_multiplicity
 _atom_site_fract_x
 _atom_site_fract_y
 _atom_site_fract_z
 _atom_site_occupancy
  Bi  Bi0  1  0.87500000  0.62500000  0.25000000  1
  Bi  Bi1  1  0.37500000  0.62500000  0.75000000  1
  Bi  Bi2  1  0.37500000  0.62500000  0.25000000  1
  Bi  Bi3  1  0.37500000  0.12500000  0.75000000  1
  Mo  Mo0  1  0.37500000  0.12500000  0.25000000  1
  Mo  Mo1  1  0.87500000  0.12500000  0.75000000  1
  Mo  Mo2  1  0.87500000  0.12500000  0.25000000  1
  Mo  Mo3  1  0.87500000  0.62500000  0.75000000  1
  O  O0  1  0.18132100  0.38715500  0.20583500  1
  O  O1  1  0.18132100  0.97548600  0.79416500  1
  O  O2  1  0.13715500  0.43132100  0.70583500  1
  O  O3  1  0.56867900  0.86284500  0.29416500  1
  O  O4  1  0.72548600  0.43132100  0.29416500  1
  O  O5  1  0.56867900  0.27451400  0.70583500  1
  O  O6  1  0.61284500  0.81867900  0.79416500  1
  O  O7  1  0.02451400  0.81867900  0.20583500  1
loop_
_geom_bond_atom_site_label_1
_geom_bond_atom_site_label_2
_geom_bond_distance
_geom_bond_site_symmetry_2
Bi0 O7 2.454438 1_655
Bi0 O4 2.454438 1_555
Bi0 O1 2.624526 1_655
Bi0 O5 2.624526 1_554
Bi0 O0 2.624529 1_655
Bi0 O3 2.624529 1_555
Bi1 O6 2.454444 1_555
Bi1 O2 2.454444 1_555
Bi1 O0 2.624525 1_555
Bi1 O3 2.624525 1_556
Bi1 O5 2.624526 1_555
Bi1 O1 2.624526 1_555
Bi2 O3 2.454444 1_555
Bi2 O0 2.454444 1_555
Bi2 O2 2.624525 1_554
Bi2 O6 2.624525 1_555
Bi2 O4 2.624526 1_555
Bi2 O7 2.624526 1_555
Bi3 O5 2.454438 1_555
Bi3 O1 2.454438 1_545
Bi3 O4 2.624526 1_556
Bi3 O7 2.624526 1_545
Bi3 O2 2.624529 1_555
Bi3 O6 2.624529 1_545
Mo0 O0 2.235111 1_555
Mo0 O3 2.235111 1_545
Mo0 O1 2.235118 1_544
Mo0 O5 2.235118 1_555
Mo1 O0 2.235116 1_656
Mo1 O3 2.235116 1_545
Mo1 O1 2.235118 1_645
Mo1 O5 2.235118 1_555
Mo2 O2 2.235116 1_655
Mo2 O6 2.235116 1_544
Mo2 O4 2.235118 1_555
Mo2 O7 2.235118 1_645
Mo3 O6 2.235111 1_555
Mo3 O2 2.235111 1_655
Mo3 O4 2.235118 1_555
Mo3 O7 2.235118 1_656
