# generated using pymatgen
data_BaLaEuSbO6
_symmetry_space_group_name_H-M   'P 1'
_cell_length_a   6.06685028
_cell_length_b   6.11715856
_cell_length_c   8.62315564
_cell_angle_alpha   90.39237943
_cell_angle_beta   90.46520678
_cell_angle_gamma   90.05723170
_symmetry_Int_Tables_number   1
_chemical_formula_structural   BaLaEuSbO6
_chemical_formula_sum   'Ba2 La2 Eu2 Sb2 O12'
_cell_volume   320.00333106
_cell_formula_units_Z   2
loop_
 _symmetry_equiv_pos_site_id
 _symmetry_equiv_pos_as_xyz
  1  'x, y, z'
loop_
 _atom_site_type_symbol
 _atom_site_label
 _atom_site_symmetry_multiplicity
 _atom_site_fract_x
 _atom_site_fract_y
 _atom_site_fract_z
 _atom_site_occupancy
  Ba  Ba0  1  0.50573327  0.52654223  0.25030591  1
  Ba  Ba1  1  0.49426673  0.47345777  0.74969409  1
  La  La0  1  0.00000000  0.50000000  0.00000000  1
  La  La1  1  0.50000000  0.00000000  0.50000000  1
  Eu  Eu0  1  0.99107541  0.03670532  0.25274792  1
  Eu  Eu1  1  0.00892459  0.96329468  0.74725208  1
  Sb  Sb0  1  0.50000000  0.00000000  0.00000000  1
  Sb  Sb1  1  0.00000000  0.50000000  0.50000000  1
  O  O0  1  0.23681568  0.19378251  0.94717083  1
  O  O1  1  0.26586535  0.69667812  0.52806170  1
  O  O2  1  0.76318432  0.80621749  0.05282917  1
  O  O3  1  0.73413465  0.30332188  0.47193830  1
  O  O4  1  0.30304255  0.73787601  0.95873848  1
  O  O5  1  0.18479150  0.22848877  0.54864518  1
  O  O6  1  0.69695745  0.26212399  0.04126152  1
  O  O7  1  0.81520850  0.77151123  0.45135482  1
  O  O8  1  0.40340747  0.99516630  0.22758895  1
  O  O9  1  0.06283268  0.45387425  0.27128083  1
  O  O10  1  0.59659253  0.00483370  0.77241105  1
  O  O11  1  0.93716732  0.54612575  0.72871917  1
loop_
_geom_bond_atom_site_label_1
_geom_bond_atom_site_label_2
_geom_bond_distance
_geom_bond_site_symmetry_2
Ba0 O6 2.685030 1_555
Ba0 O3 2.726484 1_555
Ba0 O9 2.730742 1_555
Ba0 O2 2.888600 1_555
Ba0 O8 2.941207 1_555
Ba0 O7 2.946570 1_555
Ba0 O1 2.993831 1_555
Ba0 O4 3.082569 1_554
Ba0 O8 3.312832 1_545
Ba0 O9 3.412887 1_655
Ba1 O4 2.685030 1_555
Ba1 O1 2.726484 1_555
Ba1 O11 2.730742 1_555
Ba1 O0 2.888600 1_555
Ba1 O10 2.941207 1_555
Ba1 O5 2.946570 1_555
Ba1 O3 2.993831 1_555
Ba1 O6 3.082569 1_556
Ba1 O10 3.312832 1_565
Ba1 O11 3.412887 1_455
La0 O6 2.374129 1_455
La0 O4 2.374129 1_554
La0 O11 2.385793 1_454
La0 O9 2.385793 1_555
La0 O2 2.405168 1_455
La0 O0 2.405168 1_554
La1 O1 2.350636 1_545
La1 O3 2.350636 1_555
La1 O7 2.407664 1_545
La1 O5 2.407664 1_555
La1 O10 2.416391 1_555
La1 O8 2.416391 1_545
Eu0 O8 2.525619 1_645
Eu0 O9 2.591961 1_655
Eu0 O7 2.601417 1_545
Eu0 O2 2.606814 1_545
Eu0 O6 2.897883 1_555
Eu0 O3 2.945013 1_555
Eu0 O5 3.029122 1_655
Eu0 O0 3.191394 1_654
Eu1 O10 2.525619 1_465
Eu1 O11 2.591961 1_455
Eu1 O5 2.601417 1_565
Eu1 O0 2.606814 1_565
Eu1 O4 2.897883 1_555
Eu1 O1 2.945013 1_555
Eu1 O7 3.029122 1_455
Eu1 O2 3.191394 1_456
O0 Sb0 2.039979 1_556
O1 Sb1 2.023236 1_555
O2 Sb0 2.039979 1_565
O3 Sb1 2.023236 1_655
O4 Sb0 2.026556 1_566
O5 Sb1 2.048650 1_555
O6 Sb0 2.026556 1_555
O7 Sb1 2.048650 1_655
O8 Sb0 2.053111 1_565
O9 Sb1 2.029684 1_555
O10 Sb0 2.053111 1_556
O11 Sb1 2.029684 1_655
