# generated using pymatgen
data_Nd(MnAl2)4
_symmetry_space_group_name_H-M   'P 1'
_cell_length_a   5.19595300
_cell_length_b   6.79744290
_cell_length_c   6.79744290
_cell_angle_alpha   81.60039539
_cell_angle_beta   67.53002932
_cell_angle_gamma   67.53002932
_symmetry_Int_Tables_number   1
_chemical_formula_structural   Nd(MnAl2)4
_chemical_formula_sum   'Nd1 Mn4 Al8'
_cell_volume   205.01019912
_cell_formula_units_Z   1
loop_
 _symmetry_equiv_pos_site_id
 _symmetry_equiv_pos_as_xyz
  1  'x, y, z'
loop_
 _atom_site_type_symbol
 _atom_site_label
 _atom_site_symmetry_multiplicity
 _atom_site_fract_x
 _atom_site_fract_y
 _atom_site_fract_z
 _atom_site_occupancy
  Nd  Nd0  1  0.00000000  0.00000000  0.00000000  1
  Mn  Mn0  1  0.00000000  0.00000000  0.50000000  1
  Mn  Mn1  1  0.50000000  0.00000000  0.50000000  1
  Mn  Mn2  1  0.50000000  0.50000000  0.00000000  1
  Mn  Mn3  1  0.00000000  0.50000000  0.00000000  1
  Al  Al0  1  0.00000000  0.34032600  0.65967400  1
  Al  Al1  1  0.00000000  0.65967400  0.34032600  1
  Al  Al2  1  0.65967400  0.34032600  0.34032600  1
  Al  Al3  1  0.34032600  0.65967400  0.65967400  1
  Al  Al4  1  0.50000000  0.77262700  0.22737300  1
  Al  Al5  1  0.50000000  0.22737300  0.77262700  1
  Al  Al6  1  0.72737300  0.77262700  0.77262700  1
  Al  Al7  1  0.27262700  0.22737300  0.22737300  1
loop_
_geom_bond_atom_site_label_1
_geom_bond_atom_site_label_2
_geom_bond_distance
_geom_bond_site_symmetry_2
Mn0 Mn1 2.597977 1_455
Mn0 Mn1 2.597977 1_555
Mn0 Nd0 3.398721 1_555
Mn0 Nd0 3.398721 1_556
Mn1 Nd0 3.398721 1_556
Mn1 Nd0 3.398721 1_655
Mn2 Mn3 2.597977 1_555
Mn2 Mn3 2.597977 1_655
Mn2 Nd0 3.398721 1_565
Mn2 Nd0 3.398721 1_655
Mn3 Nd0 3.398721 1_555
Mn3 Nd0 3.398721 1_565
Al0 Mn1 2.695025 1_555
Al0 Mn2 2.695025 1_456
Al0 Mn3 2.695025 1_556
Al0 Mn0 2.695025 1_555
Al0 Al5 2.785007 1_455
Al0 Al5 2.785007 1_555
Al0 Al6 2.806607 1_455
Al0 Al7 2.806607 1_555
Al0 Al1 2.836837 1_555
Al0 Nd0 3.023189 1_556
Al1 Mn2 2.695025 1_555
Al1 Mn1 2.695025 1_465
Al1 Mn0 2.695025 1_565
Al1 Mn3 2.695025 1_555
Al1 Al4 2.785007 1_555
Al1 Al4 2.785007 1_455
Al1 Al6 2.806607 1_455
Al1 Al7 2.806607 1_555
Al1 Nd0 3.023189 1_565
Al2 Mn0 2.695025 1_655
Al2 Mn3 2.695025 1_655
Al2 Mn1 2.695025 1_555
Al2 Mn2 2.695025 1_555
Al2 Al7 2.785007 1_655
Al2 Al7 2.785007 1_555
Al2 Al4 2.806607 1_555
Al2 Al5 2.806607 1_555
Al2 Al3 2.836837 1_555
Al2 Nd0 3.023189 1_655
Al3 Mn0 2.695025 1_565
Al3 Mn3 2.695025 1_556
Al3 Mn2 2.695025 1_556
Al3 Mn1 2.695025 1_565
Al3 Al6 2.785007 1_455
Al3 Al6 2.785007 1_555
Al3 Al5 2.806607 1_555
Al3 Al4 2.806607 1_555
Al3 Nd0 3.023189 1_566
Al4 Mn3 2.580647 1_655
Al4 Mn0 2.580647 1_565
Al4 Mn2 2.580647 1_555
Al4 Mn1 2.580647 1_565
Al4 Al6 2.856433 1_554
Al4 Al7 2.856433 1_565
Al4 Nd0 3.290758 1_565
Al4 Nd0 3.290758 1_665
Al5 Mn3 2.580647 1_556
Al5 Mn0 2.580647 1_655
Al5 Mn2 2.580647 1_556
Al5 Mn1 2.580647 1_555
Al5 Al6 2.856433 1_545
Al5 Al7 2.856433 1_556
Al5 Nd0 3.290758 1_556
Al5 Nd0 3.290758 1_656
Al6 Mn0 2.580647 1_665
Al6 Mn3 2.580647 1_656
Al6 Mn1 2.580647 1_565
Al6 Mn2 2.580647 1_556
Al6 Nd0 3.290758 1_566
Al6 Nd0 3.290758 1_666
Al7 Mn3 2.580647 1_555
Al7 Mn0 2.580647 1_555
Al7 Mn1 2.580647 1_555
Al7 Mn2 2.580647 1_555
Al7 Nd0 3.290758 1_655
Al7 Nd0 3.290758 1_555
