# generated using pymatgen
data_Rb2V6CdCu9O26
_symmetry_space_group_name_H-M   'P 1'
_cell_length_a   6.25166700
_cell_length_b   8.37870069
_cell_length_c   10.99345675
_cell_angle_alpha   97.66877341
_cell_angle_beta   90.00000000
_cell_angle_gamma   90.00000000
_symmetry_Int_Tables_number   1
_chemical_formula_structural   Rb2V6CdCu9O26
_chemical_formula_sum   'Rb2 V6 Cd1 Cu9 O26'
_cell_volume   570.69624387
_cell_formula_units_Z   1
loop_
 _symmetry_equiv_pos_site_id
 _symmetry_equiv_pos_as_xyz
  1  'x, y, z'
loop_
 _atom_site_type_symbol
 _atom_site_label
 _atom_site_symmetry_multiplicity
 _atom_site_fract_x
 _atom_site_fract_y
 _atom_site_fract_z
 _atom_site_occupancy
  Rb  Rb0  1  0.25000000  0.98934500  0.60776100  1
  Rb  Rb1  1  0.75000000  0.01658100  0.39642100  1
  V  V0  1  0.25000000  0.03557600  0.20397900  1
  V  V1  1  0.75000000  0.97102700  0.79100200  1
  V  V2  1  0.25000000  0.32100900  0.88184300  1
  V  V3  1  0.75000000  0.67827300  0.11747700  1
  V  V4  1  0.25000000  0.37038000  0.50299800  1
  V  V5  1  0.75000000  0.62245100  0.50195600  1
  Cd  Cd0  1  0.25000000  0.69514900  0.36019000  1
  Cu  Cu0  1  0.25000000  0.89483800  0.89539100  1
  Cu  Cu1  1  0.75000000  0.10364700  0.10242600  1
  Cu  Cu2  1  0.25000000  0.64348400  0.05822800  1
  Cu  Cu3  1  0.75000000  0.35525800  0.93748000  1
  Cu  Cu4  1  0.50426900  0.39281900  0.22566800  1
  Cu  Cu5  1  0.99947600  0.60418500  0.77351800  1
  Cu  Cu6  1  0.50052400  0.60418500  0.77351800  1
  Cu  Cu7  1  0.99573100  0.39281900  0.22566800  1
  Cu  Cu8  1  0.75000000  0.30165200  0.63548600  1
  O  O0  1  0.25000000  0.65676400  0.87667200  1
  O  O1  1  0.75000000  0.34285100  0.11723700  1
  O  O2  1  0.25000000  0.41187200  0.03380300  1
  O  O3  1  0.75000000  0.58736700  0.96511200  1
  O  O4  1  0.25000000  0.53595200  0.61037700  1
  O  O5  1  0.75000000  0.46774400  0.38527100  1
  O  O6  1  0.25000000  0.42332600  0.33589800  1
  O  O7  1  0.75000000  0.54356600  0.66287500  1
  O  O8  1  0.48020300  0.15834800  0.20856700  1
  O  O9  1  0.97529800  0.84145700  0.78559200  1
  O  O10  1  0.52470200  0.84145700  0.78559200  1
  O  O11  1  0.01979700  0.15834800  0.20856700  1
  O  O12  1  0.49082900  0.37828300  0.80895400  1
  O  O13  1  0.99071400  0.62302100  0.19210900  1
  O  O14  1  0.50928600  0.62302100  0.19210900  1
  O  O15  1  0.00917100  0.37828300  0.80895400  1
  O  O16  1  0.25000000  0.95144600  0.33657600  1
  O  O17  1  0.75000000  0.07661300  0.66728800  1
  O  O18  1  0.25000000  0.87953600  0.07750500  1
  O  O19  1  0.75000000  0.11979000  0.92174700  1
  O  O20  1  0.25000000  0.11746100  0.88270700  1
  O  O21  1  0.75000000  0.88107500  0.11641000  1
  O  O22  1  0.47604100  0.26222400  0.52926500  1
  O  O23  1  0.96668700  0.74264600  0.48526700  1
  O  O24  1  0.53331300  0.74264600  0.48526700  1
  O  O25  1  0.02395900  0.26222400  0.52926500  1
loop_
_geom_bond_atom_site_label_1
_geom_bond_atom_site_label_2
_geom_bond_distance
_geom_bond_site_symmetry_2
Cd0 O16 2.197193 1_555
Cd0 O24 2.245018 1_555
Cd0 O23 2.245018 1_455
Cd0 O6 2.257455 1_555
Cd0 O13 2.471652 1_455
Cd0 O14 2.471652 1_555
Cu0 O20 1.888961 1_565
Cu0 O0 1.977833 1_555
Cu0 O18 2.023166 1_556
Cu0 O10 2.112404 1_555
Cu0 O9 2.112404 1_455
Cu1 O21 1.891525 1_545
Cu1 O1 1.989047 1_555
Cu1 O19 2.008814 1_554
Cu1 O8 2.067311 1_555
Cu1 O11 2.067311 1_655
Cu2 O2 1.923275 1_555
Cu2 O18 1.960810 1_555
Cu2 O0 2.013798 1_554
Cu2 O13 2.211454 1_455
Cu2 O14 2.211454 1_555
Cu3 O3 1.927886 1_555
Cu3 O19 1.957355 1_555
Cu3 O1 1.992688 1_556
Cu3 O15 2.175223 1_655
Cu3 O12 2.175223 1_555
Cu4 O8 1.954204 1_555
Cu4 O1 1.955255 1_555
Cu4 O6 1.994490 1_555
Cu4 O14 2.011779 1_555
Cu4 O5 2.353445 1_555
Cu5 O0 1.949282 1_655
Cu5 O9 1.980481 1_555
Cu5 O15 1.983630 1_655
Cu5 O7 2.001267 1_555
Cu5 O4 2.392223 1_655
Cu5 O3 2.639691 1_555
Cu6 O0 1.949282 1_555
Cu6 O10 1.980481 1_555
Cu6 O12 1.983630 1_555
Cu6 O7 2.001267 1_555
Cu6 O4 2.392223 1_555
Cu6 O3 2.639691 1_555
Cu7 O11 1.954204 1_655
Cu7 O1 1.955255 1_555
Cu7 O6 1.994490 1_655
Cu7 O13 2.011779 1_555
Cu7 O5 2.353445 1_555
Cu8 O17 1.963010 1_555
Cu8 O7 2.009030 1_555
Cu8 O25 2.074398 1_655
Cu8 O22 2.074398 1_555
Cu8 O15 2.519399 1_655
Cu8 O12 2.519399 1_555
O2 V2 1.740962 1_554
O3 V3 1.745087 1_556
O4 V4 1.697342 1_555
O5 V5 1.697635 1_555
O6 V4 1.946507 1_555
O7 V5 1.969387 1_555
O8 V0 1.765791 1_555
O8 Rb1 3.029096 1_555
O9 V1 1.774467 1_555
O9 Rb0 2.992178 1_655
O10 V1 1.774467 1_555
O10 Rb0 2.992178 1_555
O11 V0 1.765791 1_555
O11 Rb1 3.029096 1_455
O12 V2 1.800494 1_555
O13 V3 1.803735 1_555
O14 V3 1.803735 1_555
O15 V2 1.800494 1_555
O16 V0 1.701767 1_565
O16 Rb0 2.955687 1_555
O16 Rb1 3.225784 1_465
O16 Rb1 3.225784 1_565
O17 V1 1.718573 1_545
O17 Rb1 2.953021 1_555
O17 Rb0 3.256688 1_645
O17 Rb0 3.256688 1_545
O18 V0 1.776891 1_565
O19 V1 1.772401 1_545
O20 V2 1.706761 1_555
O20 Rb0 3.069606 1_545
O21 V3 1.700822 1_555
O21 Rb1 3.135623 1_565
O22 V4 1.723770 1_555
O22 Rb0 2.914737 1_545
O22 Rb1 2.915475 1_555
O23 V5 1.712387 1_555
O23 Rb0 2.912070 1_655
O23 Rb1 2.942011 1_565
O24 V5 1.712387 1_555
O24 Rb0 2.912070 1_555
O24 Rb1 2.942011 1_565
O25 V4 1.723770 1_555
O25 Rb0 2.914737 1_545
O25 Rb1 2.915475 1_455
