# generated using pymatgen
data_Li4MnCo5O12
_symmetry_space_group_name_H-M   'P 1'
_cell_length_a   4.95427770
_cell_length_b   4.95427770
_cell_length_c   10.01485482
_cell_angle_alpha   89.32702159
_cell_angle_beta   89.32702159
_cell_angle_gamma   118.94633069
_symmetry_Int_Tables_number   1
_chemical_formula_structural   Li4MnCo5O12
_chemical_formula_sum   'Li4 Mn1 Co5 O12'
_cell_volume   215.04716294
_cell_formula_units_Z   1
loop_
 _symmetry_equiv_pos_site_id
 _symmetry_equiv_pos_as_xyz
  1  'x, y, z'
loop_
 _atom_site_type_symbol
 _atom_site_label
 _atom_site_symmetry_multiplicity
 _atom_site_fract_x
 _atom_site_fract_y
 _atom_site_fract_z
 _atom_site_occupancy
  Li  Li0  1  0.34804700  0.83898700  0.75182500  1
  Li  Li1  1  0.16101300  0.65195300  0.24817500  1
  Li  Li2  1  0.83898700  0.34804700  0.75182500  1
  Li  Li3  1  0.65195300  0.16101300  0.24817500  1
  Mn  Mn0  1  0.00000000  0.00000000  0.00000000  1
  Co  Co0  1  0.16311500  0.83688500  0.50000000  1
  Co  Co1  1  0.66456700  0.33543300  0.00000000  1
  Co  Co2  1  0.33543300  0.66456700  0.00000000  1
  Co  Co3  1  0.83688500  0.16311500  0.50000000  1
  Co  Co4  1  0.50000000  0.50000000  0.50000000  1
  O  O0  1  0.33239600  0.99331400  0.10276100  1
  O  O1  1  0.00668600  0.66760400  0.89723900  1
  O  O2  1  0.49110100  0.81477300  0.39302400  1
  O  O3  1  0.81477300  0.49110100  0.39302400  1
  O  O4  1  0.18522700  0.50889900  0.60697600  1
  O  O5  1  0.81437800  0.81437800  0.60116700  1
  O  O6  1  0.50889900  0.18522700  0.60697600  1
  O  O7  1  0.99331400  0.33239600  0.10276100  1
  O  O8  1  0.66442400  0.66442400  0.09833000  1
  O  O9  1  0.66760400  0.00668600  0.89723900  1
  O  O10  1  0.33557600  0.33557600  0.90167000  1
  O  O11  1  0.18562200  0.18562200  0.39883300  1
loop_
_geom_bond_atom_site_label_1
_geom_bond_atom_site_label_2
_geom_bond_distance
_geom_bond_site_symmetry_2
Li0 O9 2.031472 1_565
Li0 O1 2.055483 1_555
Li0 O4 2.058084 1_555
Li0 O6 2.067144 1_565
Li1 O7 2.031472 1_455
Li1 O0 2.055483 1_555
Li1 O2 2.058084 1_555
Li1 O3 2.067144 1_455
Li2 O1 2.031472 1_655
Li2 O9 2.055483 1_555
Li2 O6 2.058084 1_555
Li2 O4 2.067144 1_655
Li3 O0 2.031472 1_545
Li3 O7 2.055483 1_555
Li3 O3 2.058084 1_555
Li3 O2 2.067144 1_545
Mn0 O8 1.935295 1_445
Mn0 O10 1.935295 1_554
Mn0 O7 1.965686 1_455
Mn0 O0 1.965686 1_545
Mn0 O1 1.965686 1_544
Mn0 O9 1.965686 1_454
Co0 O11 1.947763 1_565
Co0 O5 1.947763 1_455
Co0 O4 1.983525 1_555
Co0 O2 1.983525 1_555
Co0 O6 2.070173 1_565
Co0 O3 2.070173 1_455
Co1 O8 1.914465 1_555
Co1 O10 1.914465 1_554
Co1 O9 1.942873 1_554
Co1 O7 1.942873 1_555
Co1 O0 1.964544 1_545
Co1 O1 1.964544 1_654
Co2 O8 1.914465 1_555
Co2 O10 1.914465 1_554
Co2 O1 1.942873 1_554
Co2 O0 1.942873 1_555
Co2 O9 1.964544 1_564
Co2 O7 1.964544 1_455
Co3 O11 1.947763 1_655
Co3 O5 1.947763 1_545
Co3 O6 1.983525 1_555
Co3 O3 1.983525 1_555
Co3 O4 2.070173 1_655
Co3 O2 2.070173 1_545
Co4 O11 1.898470 1_555
Co4 O5 1.898470 1_555
Co4 O4 1.900027 1_555
Co4 O6 1.900027 1_555
Co4 O3 1.900027 1_555
Co4 O2 1.900027 1_555
