# generated using pymatgen
data_Pr3TaO7
_symmetry_space_group_name_H-M   'P 1'
_cell_length_a   6.69851025
_cell_length_b   6.69851025
_cell_length_c   7.71443655
_cell_angle_alpha   90.00000000
_cell_angle_beta   90.00000000
_cell_angle_gamma   111.52577053
_symmetry_Int_Tables_number   1
_chemical_formula_structural   Pr3TaO7
_chemical_formula_sum   'Pr6 Ta2 O14'
_cell_volume   322.00422446
_cell_formula_units_Z   2
loop_
 _symmetry_equiv_pos_site_id
 _symmetry_equiv_pos_as_xyz
  1  'x, y, z'
loop_
 _atom_site_type_symbol
 _atom_site_label
 _atom_site_symmetry_multiplicity
 _atom_site_fract_x
 _atom_site_fract_y
 _atom_site_fract_z
 _atom_site_occupancy
  Pr  Pr0  1  0.00000000  0.00000000  -0.00000000  1
  Pr  Pr1  1  0.00000000  0.00000000  0.50000000  1
  Pr  Pr2  1  0.47593579  0.92765439  0.75000000  1
  Pr  Pr3  1  0.52406421  0.07234561  0.25000000  1
  Pr  Pr4  1  0.92765439  0.47593579  0.75000000  1
  Pr  Pr5  1  0.07234561  0.52406421  0.25000000  1
  Ta  Ta0  1  0.50000000  0.50000000  -0.00000000  1
  Ta  Ta1  1  0.50000000  0.50000000  0.50000000  1
  O  O0  1  0.56775435  0.56775435  0.75000000  1
  O  O1  1  0.43224565  0.43224565  0.25000000  1
  O  O2  1  0.84541864  0.10699167  0.75000000  1
  O  O3  1  0.15458136  0.89300833  0.25000000  1
  O  O4  1  0.10699167  0.84541864  0.75000000  1
  O  O5  1  0.89300833  0.15458136  0.25000000  1
  O  O6  1  0.43921592  0.18854889  0.96525782  1
  O  O7  1  0.56078408  0.81145111  0.46525782  1
  O  O8  1  0.18854889  0.43921592  0.96525782  1
  O  O9  1  0.81145111  0.56078408  0.46525782  1
  O  O10  1  0.43921592  0.18854889  0.53474218  1
  O  O11  1  0.56078408  0.81145111  0.03474218  1
  O  O12  1  0.81145111  0.56078408  0.03474218  1
  O  O13  1  0.18854889  0.43921592  0.53474218  1
loop_
_geom_bond_atom_site_label_1
_geom_bond_atom_site_label_2
_geom_bond_distance
_geom_bond_site_symmetry_2
O0 Ta1 1.995079 1_555
O0 Ta0 1.995079 1_556
O0 Pr2 2.697835 1_555
O0 Pr4 2.697835 1_555
O1 Ta1 1.995079 1_555
O1 Ta0 1.995079 1_555
O1 Pr5 2.697835 1_555
O1 Pr3 2.697835 1_555
O2 Pr2 2.320952 1_545
O2 Pr4 2.326395 1_555
O2 Pr0 2.418665 1_656
O2 Pr1 2.418665 1_655
O3 Pr3 2.320952 1_565
O3 Pr5 2.326395 1_555
O3 Pr1 2.418665 1_565
O3 Pr0 2.418665 1_565
O4 Pr4 2.320952 1_455
O4 Pr2 2.326395 1_555
O4 Pr1 2.418665 1_565
O4 Pr0 2.418665 1_566
O5 Pr5 2.320952 1_655
O5 Pr3 2.326395 1_555
O5 Pr0 2.418665 1_655
O5 Pr1 2.418665 1_655
O6 Ta0 1.991665 1_556
O6 Pr3 2.465509 1_556
O6 Pr2 2.487496 1_545
O6 Pr0 2.756095 1_556
O7 Ta1 1.991665 1_555
O7 Pr2 2.465509 1_555
O7 Pr3 2.487496 1_565
O7 Pr1 2.756095 1_665
O8 Ta0 1.991665 1_556
O8 Pr5 2.465509 1_556
O8 Pr4 2.487496 1_455
O8 Pr0 2.756095 1_556
O9 Ta1 1.991665 1_555
O9 Pr4 2.465509 1_555
O9 Pr5 2.487496 1_655
O9 Pr1 2.756095 1_665
O10 Ta1 1.991665 1_555
O10 Pr3 2.465509 1_555
O10 Pr2 2.487496 1_545
O10 Pr1 2.756095 1_555
O11 Ta0 1.991665 1_555
O11 Pr2 2.465509 1_554
O11 Pr3 2.487496 1_565
O11 Pr0 2.756095 1_665
O12 Ta0 1.991665 1_555
O12 Pr4 2.465509 1_554
O12 Pr5 2.487496 1_655
O12 Pr0 2.756095 1_665
O13 Ta1 1.991665 1_555
O13 Pr5 2.465509 1_555
O13 Pr4 2.487496 1_455
O13 Pr1 2.756095 1_555
