# generated using pymatgen
data_MgHAu2F11
_symmetry_space_group_name_H-M   'P 1'
_cell_length_a   15.50752904
_cell_length_b   5.31307700
_cell_length_c   10.24437352
_cell_angle_alpha   89.43143474
_cell_angle_beta   90.00000000
_cell_angle_gamma   90.00000000
_symmetry_Int_Tables_number   1
_chemical_formula_structural   MgHAu2F11
_chemical_formula_sum   'Mg4 H4 Au8 F44'
_cell_volume   844.01999375
_cell_formula_units_Z   4
loop_
 _symmetry_equiv_pos_site_id
 _symmetry_equiv_pos_as_xyz
  1  'x, y, z'
loop_
 _atom_site_type_symbol
 _atom_site_label
 _atom_site_symmetry_multiplicity
 _atom_site_fract_x
 _atom_site_fract_y
 _atom_site_fract_z
 _atom_site_occupancy
  Mg  Mg0  1  0.76551985  0.04656130  0.38632879  1
  Mg  Mg1  1  0.26551985  0.95343870  0.11367121  1
  Mg  Mg2  1  0.23448015  0.95343870  0.61367121  1
  Mg  Mg3  1  0.73448015  0.04656130  0.88632879  1
  H  H0  1  0.58914342  0.98785508  0.42093131  1
  H  H1  1  0.08914342  0.01214492  0.07906869  1
  H  H2  1  0.41085658  0.01214492  0.57906869  1
  H  H3  1  0.91085658  0.98785508  0.92093131  1
  Au  Au0  1  0.78119809  0.54592161  0.63539729  1
  Au  Au1  1  0.28119809  0.45407839  0.86460271  1
  Au  Au2  1  0.21880191  0.45407839  0.36460271  1
  Au  Au3  1  0.71880191  0.54592161  0.13539729  1
  Au  Au4  1  0.97520425  0.28704420  0.25646859  1
  Au  Au5  1  0.47520425  0.71295580  0.24353141  1
  Au  Au6  1  0.02479575  0.71295580  0.74353141  1
  Au  Au7  1  0.52479575  0.28704420  0.75646859  1
  F  F0  1  0.64786226  0.00468857  0.45679836  1
  F  F1  1  0.14786226  0.99531143  0.04320164  1
  F  F2  1  0.35213774  0.99531143  0.54320164  1
  F  F3  1  0.85213774  0.00468857  0.95679836  1
  F  F4  1  0.79580645  0.72680424  0.47250071  1
  F  F5  1  0.29580645  0.27319576  0.02749929  1
  F  F6  1  0.20419355  0.27319576  0.52749929  1
  F  F7  1  0.70419355  0.72680424  0.97250071  1
  F  F8  1  0.80096488  0.23399671  0.54403411  1
  F  F9  1  0.30096488  0.76600329  0.95596589  1
  F  F10  1  0.19903512  0.76600329  0.45596589  1
  F  F11  1  0.69903512  0.23399671  0.04403411  1
  F  F12  1  0.76666624  0.36374488  0.79919906  1
  F  F13  1  0.26666624  0.63625512  0.70080094  1
  F  F14  1  0.23333376  0.63625512  0.20080094  1
  F  F15  1  0.73333376  0.36374488  0.29919906  1
  F  F16  1  0.76262961  0.86059502  0.72520685  1
  F  F17  1  0.26262961  0.13940498  0.77479315  1
  F  F18  1  0.23737039  0.13940498  0.27479315  1
  F  F19  1  0.73737039  0.86059502  0.22520685  1
  F  F20  1  0.88696803  0.05894431  0.32256627  1
  F  F21  1  0.38696803  0.94105569  0.17743373  1
  F  F22  1  0.11303197  0.94105569  0.67743373  1
  F  F23  1  0.61303197  0.05894431  0.82256627  1
  F  F24  1  0.94516790  0.53014806  0.38247901  1
  F  F25  1  0.44516790  0.46985194  0.11752099  1
  F  F26  1  0.05483210  0.46985194  0.61752099  1
  F  F27  1  0.55483210  0.53014806  0.88247901  1
  F  F28  1  0.89202371  0.43338955  0.13845249  1
  F  F29  1  0.39202371  0.56661045  0.36154751  1
  F  F30  1  0.10797629  0.56661045  0.86154751  1
  F  F31  1  0.60797629  0.43338955  0.63845249  1
  F  F32  1  0.06367660  0.49978007  0.19000011  1
  F  F33  1  0.56367660  0.50021993  0.30999989  1
  F  F34  1  0.93632340  0.50021993  0.80999989  1
  F  F35  1  0.43632340  0.49978007  0.69000011  1
  F  F36  1  0.00466338  0.03366775  0.12719897  1
  F  F37  1  0.50466338  0.96633225  0.37280103  1
  F  F38  1  0.99533662  0.96633225  0.87280103  1
  F  F39  1  0.49533662  0.03366775  0.62719897  1
  F  F40  1  0.05864451  0.14191911  0.37261157  1
  F  F41  1  0.55864451  0.85808089  0.12738843  1
  F  F42  1  0.94135549  0.85808089  0.62738843  1
  F  F43  1  0.44135549  0.14191911  0.87261157  1
loop_
_geom_bond_atom_site_label_1
_geom_bond_atom_site_label_2
_geom_bond_distance
_geom_bond_site_symmetry_2
Au0 F4 1.930777 1_555
Au0 F8 1.935806 1_555
Au0 F16 1.937813 1_555
Au0 F12 1.941972 1_555
Au1 F5 1.930777 1_556
Au1 F9 1.935806 1_555
Au1 F17 1.937813 1_555
Au1 F13 1.941972 1_555
Au2 F6 1.930777 1_555
Au2 F10 1.935806 1_555
Au2 F18 1.937813 1_555
Au2 F14 1.941972 1_555
Au3 F7 1.930777 1_554
Au3 F11 1.935806 1_555
Au3 F19 1.937813 1_555
Au3 F15 1.941972 1_555
Au4 F24 1.893350 1_555
Au4 F32 1.899546 1_655
Au4 F40 1.914757 1_655
Au4 F28 1.926527 1_555
Au4 F20 1.945062 1_555
Au4 F36 1.951946 1_655
Au5 F25 1.893350 1_555
Au5 F33 1.899546 1_555
Au5 F41 1.914757 1_555
Au5 F29 1.926527 1_555
Au5 F21 1.945062 1_555
Au5 F37 1.951946 1_555
Au6 F26 1.893350 1_555
Au6 F34 1.899546 1_455
Au6 F42 1.914757 1_455
Au6 F30 1.926527 1_555
Au6 F22 1.945062 1_555
Au6 F38 1.951946 1_455
Au7 F27 1.893350 1_555
Au7 F35 1.899546 1_555
Au7 F43 1.914757 1_555
Au7 F31 1.926527 1_555
Au7 F23 1.945062 1_555
Au7 F39 1.951946 1_555
F0 H0 0.986318 1_545
F0 Mg0 1.973970 1_555
F1 H1 0.986318 1_565
F1 Mg1 1.973970 1_555
F2 H2 0.986318 1_565
F2 Mg2 1.973970 1_555
F3 H3 0.986318 1_545
F3 Mg3 1.973970 1_555
F4 Mg0 1.963762 1_565
F5 Mg1 1.963762 1_545
F6 Mg2 1.963762 1_545
F7 Mg3 1.963762 1_565
F8 Mg0 1.983919 1_555
F9 Mg1 1.983919 1_556
F10 Mg2 1.983919 1_555
F11 Mg3 1.983919 1_554
F12 Mg3 1.963660 1_555
F13 Mg2 1.963660 1_555
F14 Mg1 1.963660 1_555
F15 Mg0 1.963660 1_555
F16 Mg3 1.980816 1_565
F17 Mg2 1.980816 1_545
F18 Mg1 1.980816 1_545
F19 Mg0 1.980816 1_565
F20 Mg0 1.994293 1_555
F21 Mg1 1.994293 1_555
F22 Mg2 1.994293 1_555
F23 Mg3 1.994293 1_555
F36 H1 1.404852 1_555
F37 H0 1.404852 1_555
F38 H3 1.404852 1_555
F39 H2 1.404852 1_555
