# generated using pymatgen
data_Mn3(OF3)2
_symmetry_space_group_name_H-M   'P 1'
_cell_length_a   4.78425146
_cell_length_b   5.53009670
_cell_length_c   10.07155267
_cell_angle_alpha   94.46901471
_cell_angle_beta   89.02906119
_cell_angle_gamma   87.58575498
_symmetry_Int_Tables_number   1
_chemical_formula_structural   Mn3(OF3)2
_chemical_formula_sum   'Mn6 O4 F12'
_cell_volume   265.36613288
_cell_formula_units_Z   2
loop_
 _symmetry_equiv_pos_site_id
 _symmetry_equiv_pos_as_xyz
  1  'x, y, z'
loop_
 _atom_site_type_symbol
 _atom_site_label
 _atom_site_symmetry_multiplicity
 _atom_site_fract_x
 _atom_site_fract_y
 _atom_site_fract_z
 _atom_site_occupancy
  Mn  Mn0  1  0.98062900  0.74365000  0.24652800  1
  Mn  Mn1  1  0.47403500  0.26409400  0.25474000  1
  Mn  Mn2  1  0.52597200  0.73593100  0.74524500  1
  Mn  Mn3  1  0.01939600  0.25632400  0.75349400  1
  Mn  Mn4  1  0.99990700  0.49996200  0.50002800  1
  Mn  Mn5  1  0.50001500  0.50004900  0.99998700  1
  O  O0  1  0.66090400  0.50684900  0.17452800  1
  O  O1  1  0.18379900  0.48377600  0.32587800  1
  O  O2  1  0.81617200  0.51620200  0.67416000  1
  O  O3  1  0.33918900  0.49317800  0.82547000  1
  F  F0  1  0.16446500  0.70415100  0.07905200  1
  F  F1  1  0.66437800  0.29683000  0.41299400  1
  F  F2  1  0.33552500  0.70308300  0.58703000  1
  F  F3  1  0.83569700  0.29590900  0.92097700  1
  F  F4  1  0.30754400  0.21952000  0.08786700  1
  F  F5  1  0.81671200  0.77697400  0.42409000  1
  F  F6  1  0.18320000  0.22294200  0.57592600  1
  F  F7  1  0.69258200  0.78059500  0.91209100  1
  F  F8  1  0.75864700  0.01781200  0.18860300  1
  F  F9  1  0.27190400  0.00162100  0.31383400  1
  F  F10  1  0.72800500  0.99842100  0.68610800  1
  F  F11  1  0.24132300  0.98213000  0.81136800  1
loop_
_geom_bond_atom_site_label_1
_geom_bond_atom_site_label_2
_geom_bond_distance
_geom_bond_site_symmetry_2
Mn0 O1 1.932993 1_655
Mn0 O0 2.153810 1_555
Mn1 O0 1.870766 1_555
Mn1 O1 1.898906 1_555
Mn2 O3 1.870615 1_555
Mn2 O2 1.898769 1_555
Mn3 O2 1.933056 1_455
Mn3 O3 2.154158 1_555
Mn4 O2 1.942438 1_555
Mn4 O1 1.942940 1_655
Mn5 O3 1.928916 1_555
Mn5 O0 1.929276 1_556
F0 Mn0 1.882150 1_455
F0 Mn5 2.036958 1_554
F1 Mn1 1.849478 1_555
F1 Mn4 2.157142 1_555
F2 Mn2 1.849425 1_555
F2 Mn4 2.157318 1_455
F3 Mn3 1.881931 1_655
F3 Mn5 2.037354 1_555
F4 Mn1 1.875428 1_555
F4 Mn5 2.084398 1_554
F5 Mn0 1.932875 1_555
F5 Mn4 1.947311 1_555
F6 Mn3 1.932723 1_555
F6 Mn4 1.947359 1_455
F7 Mn2 1.875479 1_555
F7 Mn5 2.084763 1_555
F8 Mn0 1.946819 1_545
F8 Mn1 1.955603 1_555
F9 Mn1 1.905160 1_555
F9 Mn0 2.117887 1_445
F10 Mn2 1.905143 1_555
F10 Mn3 2.118241 1_665
F11 Mn3 1.946631 1_565
F11 Mn2 1.955387 1_555
