# generated using pymatgen
data_CaC2(NO)2
_symmetry_space_group_name_H-M   'P 1'
_cell_length_a   7.82623596
_cell_length_b   7.82623596
_cell_length_c   7.82623512
_cell_angle_alpha   95.49460745
_cell_angle_beta   95.49460745
_cell_angle_gamma   95.49460544
_symmetry_Int_Tables_number   1
_chemical_formula_structural   CaC2(NO)2
_chemical_formula_sum   'Ca6 C12 N12 O12'
_cell_volume   472.29132447
_cell_formula_units_Z   6
loop_
 _symmetry_equiv_pos_site_id
 _symmetry_equiv_pos_as_xyz
  1  'x, y, z'
loop_
 _atom_site_type_symbol
 _atom_site_label
 _atom_site_symmetry_multiplicity
 _atom_site_fract_x
 _atom_site_fract_y
 _atom_site_fract_z
 _atom_site_occupancy
  Ca  Ca0  1  0.75125600  0.03707600  0.38611200  1
  Ca  Ca1  1  0.38611200  0.75125600  0.03707600  1
  Ca  Ca2  1  0.03707600  0.38611200  0.75125600  1
  Ca  Ca3  1  0.88611200  0.53707600  0.25125600  1
  Ca  Ca4  1  0.25125600  0.88611200  0.53707600  1
  Ca  Ca5  1  0.53707600  0.25125600  0.88611200  1
  C  C0  1  0.55350300  0.59563400  0.37866500  1
  C  C1  1  0.37866500  0.55350300  0.59563400  1
  C  C2  1  0.59563400  0.37866500  0.55350300  1
  C  C3  1  0.87866500  0.09563400  0.05350300  1
  C  C4  1  0.05350300  0.87866500  0.09563400  1
  C  C5  1  0.09563400  0.05350300  0.87866500  1
  C  C6  1  0.85549000  0.76716000  0.62739200  1
  C  C7  1  0.62739200  0.85549000  0.76716000  1
  C  C8  1  0.76716000  0.62739200  0.85549000  1
  C  C9  1  0.12739200  0.26716000  0.35549000  1
  C  C10  1  0.35549000  0.12739200  0.26716000  1
  C  C11  1  0.26716000  0.35549000  0.12739200  1
  N  N0  1  0.41875000  0.64302700  0.46159300  1
  N  N1  1  0.46159300  0.41875000  0.64302700  1
  N  N2  1  0.64302700  0.46159300  0.41875000  1
  N  N3  1  0.96159300  0.14302700  0.91875000  1
  N  N4  1  0.91875000  0.96159300  0.14302700  1
  N  N5  1  0.14302700  0.91875000  0.96159300  1
  N  N6  1  0.73314400  0.87789800  0.64250700  1
  N  N7  1  0.64250700  0.73314400  0.87789800  1
  N  N8  1  0.87789800  0.64250700  0.73314400  1
  N  N9  1  0.14250700  0.37789800  0.23314400  1
  N  N10  1  0.23314400  0.14250700  0.37789800  1
  N  N11  1  0.37789800  0.23314400  0.14250700  1
  O  O0  1  0.60721500  0.68215400  0.25660900  1
  O  O1  1  0.25660900  0.60721500  0.68215400  1
  O  O2  1  0.68215400  0.25660900  0.60721500  1
  O  O3  1  0.75660900  0.18215400  0.10721500  1
  O  O4  1  0.10721500  0.75660900  0.18215400  1
  O  O5  1  0.18215400  0.10721500  0.75660900  1
  O  O6  1  0.94935200  0.78237000  0.49998000  1
  O  O7  1  0.49998000  0.94935200  0.78237000  1
  O  O8  1  0.78237000  0.49998000  0.94935200  1
  O  O9  1  0.99998000  0.28237000  0.44935200  1
  O  O10  1  0.44935200  0.99998000  0.28237000  1
  O  O11  1  0.28237000  0.44935200  0.99998000  1
loop_
_geom_bond_atom_site_label_1
_geom_bond_atom_site_label_2
_geom_bond_distance
_geom_bond_site_symmetry_2
Ca0 O10 2.404641 1_545
Ca0 O2 2.454894 1_555
Ca0 N4 2.469257 1_545
Ca0 N6 2.469385 1_545
Ca0 O3 2.556983 1_555
Ca0 O9 2.576311 1_555
Ca0 O6 2.799782 1_545
Ca0 O0 2.942120 1_545
Ca1 O11 2.404641 1_554
Ca1 O0 2.454894 1_555
Ca1 N5 2.469257 1_554
Ca1 N7 2.469385 1_554
Ca1 O4 2.556983 1_555
Ca1 O10 2.576311 1_555
Ca1 O7 2.799782 1_554
Ca1 O1 2.942120 1_554
Ca2 O9 2.404640 1_455
Ca2 O1 2.454894 1_555
Ca2 N3 2.469257 1_455
Ca2 N8 2.469385 1_455
Ca2 O5 2.556984 1_555
Ca2 O11 2.576311 1_555
Ca2 O8 2.799782 1_455
Ca2 O2 2.942120 1_455
Ca3 O8 2.404640 1_554
Ca3 O4 2.454894 1_655
Ca3 N2 2.469257 1_555
Ca3 N9 2.469385 1_655
Ca3 O0 2.556984 1_555
Ca3 O6 2.576311 1_555
Ca3 O9 2.799782 1_555
Ca3 O3 2.942120 1_555
Ca4 O6 2.404641 1_455
Ca4 O5 2.454894 1_565
Ca4 N0 2.469257 1_555
Ca4 N10 2.469385 1_565
Ca4 O1 2.556983 1_555
Ca4 O7 2.576311 1_555
Ca4 O10 2.799782 1_555
Ca4 O4 2.942120 1_555
Ca5 O7 2.404641 1_545
Ca5 O3 2.454894 1_556
Ca5 N1 2.469257 1_555
Ca5 N11 2.469385 1_556
Ca5 O2 2.556983 1_555
Ca5 O8 2.576311 1_555
Ca5 O11 2.799782 1_555
Ca5 O5 2.942120 1_555
C0 O0 1.301515 1_555
C0 N0 1.353099 1_555
C0 N2 1.360687 1_555
C1 O1 1.301515 1_555
C1 N1 1.353099 1_555
C1 N0 1.360687 1_555
C2 O2 1.301515 1_555
C2 N2 1.353099 1_555
C2 N1 1.360687 1_555
C3 O3 1.301515 1_555
C3 N3 1.353099 1_554
C3 N4 1.360687 1_545
C4 O4 1.301515 1_555
C4 N4 1.353099 1_455
C4 N5 1.360687 1_554
C5 O5 1.301515 1_555
C5 N5 1.353099 1_545
C5 N3 1.360687 1_455
C6 O6 1.301679 1_555
C6 N8 1.351687 1_555
C6 N6 1.357532 1_555
C7 O7 1.301679 1_555
C7 N6 1.351687 1_555
C7 N7 1.357532 1_555
C8 O8 1.301679 1_555
C8 N7 1.351687 1_555
C8 N8 1.357532 1_555
C9 O9 1.301679 1_455
C9 N10 1.351687 1_555
C9 N9 1.357532 1_555
C10 O10 1.301679 1_545
C10 N11 1.351687 1_555
C10 N10 1.357532 1_555
C11 O11 1.301679 1_554
C11 N9 1.351687 1_555
C11 N11 1.357532 1_555
