# generated using pymatgen
data_Cs6Ho21S34Cl
_symmetry_space_group_name_H-M   'P 1'
_cell_length_a   12.99005031
_cell_length_b   12.99005031
_cell_length_c   12.99639993
_cell_angle_alpha   65.60910514
_cell_angle_beta   65.60910514
_cell_angle_gamma   97.35354590
_symmetry_Int_Tables_number   1
_chemical_formula_structural   Cs6Ho21S34Cl
_chemical_formula_sum   'Cs6 Ho21 S34 Cl1'
_cell_volume   1697.14583849
_cell_formula_units_Z   1
loop_
 _symmetry_equiv_pos_site_id
 _symmetry_equiv_pos_as_xyz
  1  'x, y, z'
loop_
 _atom_site_type_symbol
 _atom_site_label
 _atom_site_symmetry_multiplicity
 _atom_site_fract_x
 _atom_site_fract_y
 _atom_site_fract_z
 _atom_site_occupancy
  Cs  Cs0  1  0.05151494  0.80569608  0.72962079  1
  Cs  Cs1  1  0.80569608  0.05151494  0.72962079  1
  Cs  Cs2  1  0.94848506  0.19430392  0.27037921  1
  Cs  Cs3  1  0.19430392  0.94848506  0.27037921  1
  Cs  Cs4  1  0.76821547  0.76821547  0.58497557  1
  Cs  Cs5  1  0.23178453  0.23178453  0.41502443  1
  Ho  Ho0  1  0.69858010  0.30141990  -0.00000000  1
  Ho  Ho1  1  0.30141990  0.69858010  -0.00000000  1
  Ho  Ho2  1  0.04524629  0.46301719  0.75150645  1
  Ho  Ho3  1  0.46301719  0.04524629  0.75150645  1
  Ho  Ho4  1  0.95475371  0.53698281  0.24849355  1
  Ho  Ho5  1  0.53698281  0.95475371  0.24849355  1
  Ho  Ho6  1  0.82848889  0.42747541  0.62303813  1
  Ho  Ho7  1  0.42747541  0.82848889  0.62303813  1
  Ho  Ho8  1  0.17151111  0.57252459  0.37696187  1
  Ho  Ho9  1  0.57252459  0.17151111  0.37696187  1
  Ho  Ho10  1  0.90043190  0.09956810  -0.00000000  1
  Ho  Ho11  1  0.09956810  0.90043190  -0.00000000  1
  Ho  Ho12  1  0.26096389  0.46540784  0.89358364  1
  Ho  Ho13  1  0.46540784  0.26096389  0.89358364  1
  Ho  Ho14  1  0.73903611  0.53459216  0.10641636  1
  Ho  Ho15  1  0.53459216  0.73903611  0.10641636  1
  Ho  Ho16  1  0.39972823  0.60027177  0.50000000  1
  Ho  Ho17  1  0.60027177  0.39972823  0.50000000  1
  Ho  Ho18  1  0.50000000  0.50000000  -0.00000000  1
  Ho  Ho19  1  0.24344553  0.24344553  0.74294668  1
  Ho  Ho20  1  0.75655447  0.75655447  0.25705332  1
  S  S0  1  0.68253556  0.68253556  0.94147588  1
  S  S1  1  0.31746444  0.31746444  0.05852412  1
  S  S2  1  0.05878162  0.05878162  0.82099494  1
  S  S3  1  0.94121838  0.94121838  0.17900506  1
  S  S4  1  0.08951096  0.29002065  0.92251599  1
  S  S5  1  0.29002065  0.08951096  0.92251599  1
  S  S6  1  0.91048904  0.70997935  0.07748401  1
  S  S7  1  0.70997935  0.91048904  0.07748401  1
  S  S8  1  0.88171842  0.48589952  0.93605928  1
  S  S9  1  0.48589952  0.88171842  0.93605928  1
  S  S10  1  0.11828158  0.51410048  0.06394072  1
  S  S11  1  0.51410048  0.11828158  0.06394072  1
  S  S12  1  0.86698911  0.27370749  0.81435687  1
  S  S13  1  0.27370749  0.86698911  0.81435687  1
  S  S14  1  0.13301089  0.72629251  0.18564313  1
  S  S15  1  0.72629251  0.13301089  0.18564313  1
  S  S16  1  0.24587353  0.63232897  0.68900180  1
  S  S17  1  0.63232897  0.24587353  0.68900180  1
  S  S18  1  0.75412647  0.36767103  0.31099820  1
  S  S19  1  0.36767103  0.75412647  0.31099820  1
  S  S20  1  0.01264405  0.60794015  0.55827199  1
  S  S21  1  0.60794015  0.01264405  0.55827199  1
  S  S22  1  0.98735595  0.39205985  0.44172801  1
  S  S23  1  0.39205985  0.98735595  0.44172801  1
  S  S24  1  0.21319264  0.42209635  0.56332626  1
  S  S25  1  0.42209635  0.21319264  0.56332626  1
  S  S26  1  0.78680736  0.57790365  0.43667374  1
  S  S27  1  0.57790365  0.78680736  0.43667374  1
  S  S28  1  0.65075159  0.44926886  0.81951492  1
  S  S29  1  0.44926886  0.65075159  0.81951492  1
  S  S30  1  0.34924841  0.55073114  0.18048508  1
  S  S31  1  0.55073114  0.34924841  0.18048508  1
  S  S32  1  0.42564866  0.42564866  0.69206453  1
  S  S33  1  0.57435134  0.57435134  0.30793547  1
  Cl  Cl0  1  0.00000000  0.00000000  0.50000000  1
loop_
_geom_bond_atom_site_label_1
_geom_bond_atom_site_label_2
_geom_bond_distance
_geom_bond_site_symmetry_2
Cs0 S8 3.589160 1_455
Cs0 S13 3.597022 1_555
Cs0 S16 3.614032 1_555
Cs0 S6 3.643488 1_456
Cs0 S2 3.932565 1_565
Cs0 S23 3.937290 1_555
Cs0 S0 4.075928 1_455
Cs0 S20 4.139398 1_555
Cs1 S9 3.589160 1_545
Cs1 S12 3.597022 1_555
Cs1 S17 3.614032 1_555
Cs1 S7 3.643488 1_546
Cs1 S2 3.932565 1_655
Cs1 S22 3.937290 1_555
Cs1 S0 4.075928 1_545
Cs1 S21 4.139398 1_555
Cs2 S10 3.589160 1_655
Cs2 S15 3.597022 1_555
Cs2 S18 3.614032 1_555
Cs2 S4 3.643488 1_654
Cs2 S3 3.932565 1_545
Cs2 S21 3.937290 1_555
Cs2 S1 4.075928 1_655
Cs2 S22 4.139398 1_555
Cs3 S11 3.589160 1_565
Cs3 S14 3.597022 1_555
Cs3 S19 3.614032 1_555
Cs3 S5 3.643488 1_564
Cs3 S3 3.932565 1_455
Cs3 S20 3.937290 1_555
Cs3 S1 4.075928 1_565
Cs3 S23 4.139398 1_555
Cs4 S28 3.590949 1_555
Cs4 S29 3.590949 1_555
Cs4 S27 3.686254 1_555
Cs4 S26 3.686254 1_555
Cs4 S0 3.887037 1_555
Cs4 S20 3.989421 1_655
Cs4 S21 3.989421 1_565
Cs4 S3 4.130337 1_555
Cs5 S31 3.590949 1_555
Cs5 S30 3.590949 1_555
Cs5 S24 3.686254 1_555
Cs5 S25 3.686254 1_555
Cs5 S1 3.887037 1_555
Cs5 S22 3.989421 1_455
Cs5 S23 3.989421 1_545
Cs5 S2 4.130337 1_555
Ho0 S15 2.701128 1_555
Ho0 S12 2.701128 1_554
Ho0 S8 2.712184 1_554
Ho0 S11 2.712184 1_555
Ho0 S28 2.713858 1_554
Ho0 S31 2.713858 1_555
Ho1 S14 2.701128 1_555
Ho1 S13 2.701128 1_554
Ho1 S9 2.712184 1_554
Ho1 S10 2.712184 1_555
Ho1 S29 2.713858 1_554
Ho1 S30 2.713858 1_555
Ho2 S8 2.626028 1_455
Ho2 S20 2.684777 1_555
Ho2 S12 2.719856 1_455
Ho2 S4 2.753439 1_555
Ho2 S16 2.756403 1_555
Ho2 S24 2.826164 1_555
Ho3 S9 2.626028 1_545
Ho3 S21 2.684777 1_555
Ho3 S13 2.719856 1_545
Ho3 S5 2.753439 1_555
Ho3 S17 2.756403 1_555
Ho3 S25 2.826164 1_555
Ho4 S10 2.626028 1_655
Ho4 S22 2.684777 1_555
Ho4 S14 2.719856 1_655
Ho4 S6 2.753439 1_555
Ho4 S18 2.756403 1_555
Ho4 S26 2.826164 1_555
Ho5 S11 2.626028 1_565
Ho5 S23 2.684777 1_555
Ho5 S15 2.719856 1_565
Ho5 S7 2.753439 1_555
Ho5 S19 2.756403 1_555
Ho5 S27 2.826164 1_555
Ho6 S22 2.673022 1_555
Ho6 S20 2.682958 1_655
Ho6 S26 2.724506 1_555
Ho6 S12 2.757385 1_555
Ho6 S17 2.789196 1_555
Ho6 S28 2.797537 1_555
Ho7 S23 2.673022 1_555
Ho7 S21 2.682958 1_565
Ho7 S27 2.724506 1_555
Ho7 S13 2.757385 1_555
Ho7 S16 2.789196 1_555
Ho7 S29 2.797537 1_555
Ho8 S20 2.673022 1_555
Ho8 S22 2.682958 1_455
Ho8 S24 2.724506 1_555
Ho8 S14 2.757385 1_555
Ho8 S19 2.789196 1_555
Ho8 S30 2.797537 1_555
Ho9 S21 2.673022 1_555
Ho9 S23 2.682958 1_545
Ho9 S25 2.724506 1_555
Ho9 S15 2.757385 1_555
Ho9 S18 2.789196 1_555
Ho9 S31 2.797537 1_555
Ho10 S3 2.696057 1_545
Ho10 S2 2.696057 1_654
Ho10 S4 2.740697 1_654
Ho10 S7 2.740697 1_545
Ho10 S15 2.781441 1_555
Ho10 S12 2.781441 1_554
Ho11 S2 2.696057 1_564
Ho11 S3 2.696057 1_455
Ho11 S6 2.740697 1_455
Ho11 S5 2.740697 1_564
Ho11 S13 2.781441 1_554
Ho11 S14 2.781441 1_555
Ho12 S10 2.608597 1_556
Ho12 S1 2.661792 1_556
Ho12 S29 2.709273 1_555
Ho12 S16 2.754465 1_555
Ho12 S4 2.755760 1_555
Ho12 S32 2.911193 1_555
Ho13 S11 2.608597 1_556
Ho13 S1 2.661792 1_556
Ho13 S28 2.709273 1_555
Ho13 S17 2.754465 1_555
Ho13 S5 2.755760 1_555
Ho13 S32 2.911193 1_555
Ho14 S8 2.608597 1_554
Ho14 S0 2.661792 1_554
Ho14 S31 2.709273 1_555
Ho14 S18 2.754465 1_555
Ho14 S6 2.755760 1_555
Ho14 S33 2.911193 1_555
Ho15 S9 2.608597 1_554
Ho15 S0 2.661792 1_554
Ho15 S30 2.709273 1_555
Ho15 S19 2.754465 1_555
Ho15 S7 2.755760 1_555
Ho15 S33 2.911193 1_555
Ho16 S16 2.684141 1_555
Ho16 S19 2.684141 1_555
Ho16 S27 2.692537 1_555
Ho16 S24 2.692537 1_555
Ho16 S33 2.775387 1_555
Ho16 S32 2.775387 1_555
Ho17 S17 2.684141 1_555
Ho17 S18 2.684141 1_555
Ho17 S26 2.692537 1_555
Ho17 S25 2.692537 1_555
Ho17 S32 2.775387 1_555
Ho17 S33 2.775387 1_555
Ho18 S1 2.721189 1_555
Ho18 S0 2.721189 1_554
Ho18 S30 2.753988 1_555
Ho18 S28 2.753988 1_554
Ho18 S29 2.753988 1_554
Ho18 S31 2.753988 1_555
Ho19 S2 2.654255 1_555
Ho19 S4 2.726265 1_555
Ho19 S5 2.726265 1_555
Ho19 S25 2.739762 1_555
Ho19 S24 2.739762 1_555
Ho19 S32 2.760741 1_555
Ho20 S3 2.654255 1_555
Ho20 S6 2.726265 1_555
Ho20 S7 2.726265 1_555
Ho20 S27 2.739762 1_555
Ho20 S26 2.739762 1_555
Ho20 S33 2.760741 1_555
Cl0 Cs4 3.396669 1_445
Cl0 Cs5 3.396669 1_555
Cl0 Cs0 3.403652 1_545
Cl0 Cs1 3.403652 1_455
Cl0 Cs2 3.403652 1_455
Cl0 Cs3 3.403652 1_545
