# generated using pymatgen
data_Mg4CuO5
_symmetry_space_group_name_H-M   'P 1'
_cell_length_a   7.95811971
_cell_length_b   7.95811971
_cell_length_c   7.95811971
_cell_angle_alpha   158.16061403
_cell_angle_beta   149.01434465
_cell_angle_gamma   38.23059667
_symmetry_Int_Tables_number   1
_chemical_formula_structural   Mg4CuO5
_chemical_formula_sum   'Mg4 Cu1 O5'
_cell_volume   96.38685041
_cell_formula_units_Z   1
loop_
 _symmetry_equiv_pos_site_id
 _symmetry_equiv_pos_as_xyz
  1  'x, y, z'
loop_
 _atom_site_type_symbol
 _atom_site_label
 _atom_site_symmetry_multiplicity
 _atom_site_fract_x
 _atom_site_fract_y
 _atom_site_fract_z
 _atom_site_occupancy
  Mg  Mg0  1  0.59907000  0.59907000  0.00000000  1
  Mg  Mg1  1  0.20024300  0.20024300  0.00000000  1
  Mg  Mg2  1  0.79975700  0.79975700  0.00000000  1
  Mg  Mg3  1  0.40093000  0.40093000  0.00000000  1
  Cu  Cu0  1  0.00000000  0.00000000  0.00000000  1
  O  O0  1  0.89788200  0.39788200  0.50000000  1
  O  O1  1  0.69987600  0.19987600  0.50000000  1
  O  O2  1  0.30012400  0.80012400  0.50000000  1
  O  O3  1  0.50000000  0.00000000  0.50000000  1
  O  O4  1  0.10211800  0.60211800  0.50000000  1
loop_
_geom_bond_atom_site_label_1
_geom_bond_atom_site_label_2
_geom_bond_distance
_geom_bond_site_symmetry_2
Mg0 O3 2.119524 1_565
Mg0 O3 2.119524 1_554
Mg0 O4 2.126249 1_554
Mg0 O4 2.126249 1_655
Mg0 O1 2.137957 1_554
Mg0 O1 2.137957 1_565
Mg1 O4 2.109559 1_555
Mg1 O4 2.109559 1_544
Mg1 O1 2.125762 1_555
Mg1 O1 2.125762 1_454
Mg1 O2 2.128115 1_555
Mg1 O2 2.128115 1_544
Mg2 O0 2.109559 1_565
Mg2 O0 2.109559 1_554
Mg2 O2 2.125762 1_554
Mg2 O2 2.125762 1_655
Mg2 O1 2.128115 1_554
Mg2 O1 2.128115 1_565
Mg3 O3 2.119524 1_565
Mg3 O3 2.119524 1_554
Mg3 O0 2.126249 1_454
Mg3 O0 2.126249 1_555
Mg3 O2 2.137957 1_555
Mg3 O2 2.137957 1_544
Cu0 O3 2.125755 1_555
Cu0 O3 2.125755 1_454
Cu0 O4 2.151992 1_555
Cu0 O4 2.151992 1_544
Cu0 O0 2.151992 1_455
Cu0 O0 2.151992 1_444
