# generated using pymatgen
data_ZnBi
_symmetry_space_group_name_H-M   'P 1'
_cell_length_a   6.58626300
_cell_length_b   8.13598000
_cell_length_c   8.46817800
_cell_angle_alpha   90.00000000
_cell_angle_beta   90.00000000
_cell_angle_gamma   90.00000000
_symmetry_Int_Tables_number   1
_chemical_formula_structural   ZnBi
_chemical_formula_sum   'Zn8 Bi8'
_cell_volume   453.77328009
_cell_formula_units_Z   8
loop_
 _symmetry_equiv_pos_site_id
 _symmetry_equiv_pos_as_xyz
  1  'x, y, z'
loop_
 _atom_site_type_symbol
 _atom_site_label
 _atom_site_symmetry_multiplicity
 _atom_site_fract_x
 _atom_site_fract_y
 _atom_site_fract_z
 _atom_site_occupancy
  Zn  Zn0  1  0.45927800  0.10481100  0.87515100  1
  Zn  Zn1  1  0.95927800  0.39518900  0.12484900  1
  Zn  Zn2  1  0.54072200  0.60481100  0.62484900  1
  Zn  Zn3  1  0.04072200  0.89518900  0.37515100  1
  Zn  Zn4  1  0.54072200  0.89518900  0.12484900  1
  Zn  Zn5  1  0.04072200  0.60481100  0.87515100  1
  Zn  Zn6  1  0.45927800  0.39518900  0.37515100  1
  Zn  Zn7  1  0.95927800  0.10481100  0.62484900  1
  Bi  Bi0  1  0.14563500  0.08651600  0.11271100  1
  Bi  Bi1  1  0.64563500  0.41348400  0.88728900  1
  Bi  Bi2  1  0.85436500  0.58651600  0.38728900  1
  Bi  Bi3  1  0.35436500  0.91348400  0.61271100  1
  Bi  Bi4  1  0.85436500  0.91348400  0.88728900  1
  Bi  Bi5  1  0.35436500  0.58651600  0.11271100  1
  Bi  Bi6  1  0.14563500  0.41348400  0.61271100  1
  Bi  Bi7  1  0.64563500  0.08651600  0.38728900  1
loop_
_geom_bond_atom_site_label_1
_geom_bond_atom_site_label_2
_geom_bond_distance
_geom_bond_site_symmetry_2
Zn0 Zn4 2.769017 1_546
Zn1 Zn5 2.769017 1_654
Zn2 Zn6 2.769017 1_555
Zn3 Zn7 2.769017 1_465
Bi0 Zn1 2.797138 1_455
Bi0 Zn3 2.799924 1_545
Bi0 Zn0 2.887275 1_554
Bi0 Zn4 3.033948 1_545
Bi0 Bi4 3.050573 1_444
Bi1 Zn0 2.797138 1_555
Bi1 Zn2 2.799924 1_555
Bi1 Zn1 2.887275 1_556
Bi1 Zn5 3.033948 1_655
Bi1 Bi5 3.050573 1_556
Bi2 Zn3 2.797138 1_655
Bi2 Zn1 2.799924 1_555
Bi2 Zn2 2.887275 1_555
Bi2 Zn6 3.033948 1_555
Bi2 Bi6 3.050573 1_655
Bi3 Zn2 2.797138 1_555
Bi3 Zn0 2.799924 1_565
Bi3 Zn3 2.887275 1_555
Bi3 Zn7 3.033948 1_465
Bi3 Bi7 3.050573 1_565
Bi4 Zn5 2.797138 1_655
Bi4 Zn7 2.799924 1_565
Bi4 Zn4 2.887275 1_556
Bi4 Zn0 3.033948 1_565
Bi5 Zn4 2.797138 1_555
Bi5 Zn6 2.799924 1_555
Bi5 Zn5 2.887275 1_554
Bi5 Zn1 3.033948 1_455
Bi6 Zn7 2.797138 1_455
Bi6 Zn5 2.799924 1_555
Bi6 Zn6 2.887275 1_555
Bi6 Zn2 3.033948 1_555
Bi7 Zn6 2.797138 1_555
Bi7 Zn4 2.799924 1_545
Bi7 Zn7 2.887275 1_555
Bi7 Zn3 3.033948 1_645
