# generated using pymatgen
data_La2Ti2O5
_symmetry_space_group_name_H-M   'P 1'
_cell_length_a   8.84452399
_cell_length_b   8.84452399
_cell_length_c   8.84452399
_cell_angle_alpha   143.58868910
_cell_angle_beta   143.11396019
_cell_angle_gamma   52.79939243
_symmetry_Int_Tables_number   1
_chemical_formula_structural   La2Ti2O5
_chemical_formula_sum   'La4 Ti4 O10'
_cell_volume   245.01190912
_cell_formula_units_Z   2
loop_
 _symmetry_equiv_pos_site_id
 _symmetry_equiv_pos_as_xyz
  1  'x, y, z'
loop_
 _atom_site_type_symbol
 _atom_site_label
 _atom_site_symmetry_multiplicity
 _atom_site_fract_x
 _atom_site_fract_y
 _atom_site_fract_z
 _atom_site_occupancy
  La  La0  1  0.86885900  0.37370100  0.49515800  1
  La  La1  1  0.13114100  0.62629900  0.50484200  1
  La  La2  1  0.37854200  0.87370100  0.50484200  1
  La  La3  1  0.62145800  0.12629900  0.49515800  1
  Ti  Ti0  1  0.00000000  0.00000000  0.00000000  1
  Ti  Ti1  1  0.50000000  0.50000000  0.00000000  1
  Ti  Ti2  1  0.76702100  0.75000000  0.01702100  1
  Ti  Ti3  1  0.23297900  0.25000000  0.98297900  1
  O  O0  1  0.26422100  0.26422100  0.50000000  1
  O  O1  1  0.73577900  0.23577900  0.00000000  1
  O  O2  1  0.26422100  0.76422100  0.00000000  1
  O  O3  1  0.73577900  0.73577900  0.50000000  1
  O  O4  1  0.92561400  0.87318800  0.05242600  1
  O  O5  1  0.07438600  0.12681200  0.94757400  1
  O  O6  1  0.32076100  0.37318800  0.94757400  1
  O  O7  1  0.67923900  0.62681200  0.05242600  1
  O  O8  1  0.50000000  0.50000000  0.50000000  1
  O  O9  1  0.50000000  0.00000000  0.00000000  1
loop_
_geom_bond_atom_site_label_1
_geom_bond_atom_site_label_2
_geom_bond_distance
_geom_bond_site_symmetry_2
La0 O6 2.531790 1_655
La0 O3 2.635263 1_555
La0 O1 2.635263 1_555
La0 O8 2.762713 1_555
La0 O9 2.762713 1_555
La0 O4 2.781817 1_545
La0 O4 2.781817 1_556
La0 O2 2.983259 1_656
La0 O0 2.983259 1_655
La0 O6 3.064366 1_554
La1 O7 2.531790 1_455
La1 O0 2.635263 1_555
La1 O2 2.635263 1_556
La1 O8 2.762713 1_555
La1 O9 2.762713 1_566
La1 O5 2.781817 1_565
La1 O5 2.781817 1_554
La1 O1 2.983259 1_455
La1 O3 2.983259 1_455
La1 O7 3.064366 1_556
La2 O4 2.531790 1_455
La2 O1 2.635268 1_566
La2 O3 2.635271 1_555
La2 O9 2.762708 1_566
La2 O8 2.762710 1_555
La2 O6 2.781817 1_565
La2 O6 2.781817 1_554
La2 O0 2.983263 1_565
La2 O2 2.983265 1_555
La2 O4 3.064366 1_556
La3 O5 2.531790 1_655
La3 O2 2.635268 1_545
La3 O0 2.635271 1_555
La3 O9 2.762708 1_555
La3 O8 2.762710 1_555
La3 O7 2.781817 1_545
La3 O7 2.781817 1_556
La3 O3 2.983263 1_545
La3 O1 2.983265 1_556
La3 O5 3.064366 1_554
O0 Ti0 1.979140 1_555
O0 Ti1 1.979140 1_556
O1 Ti0 1.979140 1_655
O1 Ti1 1.979140 1_555
O2 Ti1 1.979140 1_555
O2 Ti0 1.979140 1_565
O3 Ti1 1.979140 1_555
O3 Ti0 1.979140 1_666
O4 Ti2 1.961862 1_555
O4 Ti0 2.030558 1_665
O5 Ti3 1.961862 1_555
O5 Ti0 2.030558 1_556
O6 Ti3 1.961854 1_555
O6 Ti1 2.030566 1_556
O7 Ti2 1.961854 1_555
O7 Ti1 2.030566 1_555
O8 Ti2 2.035146 1_556
O8 Ti3 2.035146 1_554
O9 Ti2 2.035146 1_545
O9 Ti3 2.035146 1_554
