# generated using pymatgen
data_LiGaBH3O5
_symmetry_space_group_name_H-M   'P 1'
_cell_length_a   4.81755454
_cell_length_b   4.81755454
_cell_length_c   11.71446259
_cell_angle_alpha   89.30389038
_cell_angle_beta   89.30389038
_cell_angle_gamma   119.93024611
_symmetry_Int_Tables_number   1
_chemical_formula_structural   LiGaBH3O5
_chemical_formula_sum   'Li2 Ga2 B2 H6 O10'
_cell_volume   235.55001732
_cell_formula_units_Z   2
loop_
 _symmetry_equiv_pos_site_id
 _symmetry_equiv_pos_as_xyz
  1  'x, y, z'
loop_
 _atom_site_type_symbol
 _atom_site_label
 _atom_site_symmetry_multiplicity
 _atom_site_fract_x
 _atom_site_fract_y
 _atom_site_fract_z
 _atom_site_occupancy
  Li  Li0  1  0.99386969  0.99081687  0.84805506  1
  Li  Li1  1  0.99081687  0.99386969  0.34805506  1
  Ga  Ga0  1  0.33049356  0.66078355  0.73138169  1
  Ga  Ga1  1  0.66078355  0.33049356  0.23138169  1
  B  B0  1  0.65996803  0.32603346  0.78470702  1
  B  B1  1  0.32603346  0.65996803  0.28470702  1
  H  H0  1  0.53786509  0.76417424  0.54393886  1
  H  H1  1  0.76417424  0.53786509  0.04393886  1
  H  H2  1  0.89653331  0.12119468  0.03929876  1
  H  H3  1  0.22709915  0.12039537  0.03890185  1
  H  H4  1  0.12119468  0.89653331  0.53929876  1
  H  H5  1  0.12039537  0.22709915  0.53890185  1
  O  O0  1  0.00384967  0.00471172  0.01299975  1
  O  O1  1  0.00471172  0.00384967  0.51299975  1
  O  O2  1  0.31775191  0.65115405  0.57414395  1
  O  O3  1  0.65115405  0.31775191  0.07414395  1
  O  O4  1  0.65685240  0.60920164  0.78788544  1
  O  O5  1  0.94543706  0.32842742  0.78460570  1
  O  O6  1  0.37659325  0.04119488  0.78219192  1
  O  O7  1  0.60920164  0.65685240  0.28788544  1
  O  O8  1  0.32842742  0.94543706  0.28460570  1
  O  O9  1  0.04119488  0.37659325  0.28219192  1
loop_
_geom_bond_atom_site_label_1
_geom_bond_atom_site_label_2
_geom_bond_distance
_geom_bond_site_symmetry_2
Li0 O6 1.888942 1_665
Li0 O4 1.895648 1_555
Li0 O5 1.898894 1_565
Li0 O0 1.934561 1_666
Li1 O9 1.888942 1_665
Li1 O7 1.895648 1_555
Li1 O8 1.898894 1_655
Li1 O1 1.934561 1_665
Ga0 O5 1.837736 1_455
Ga0 O4 1.839299 1_555
Ga0 O6 1.840050 1_565
Ga0 O2 1.844099 1_555
Ga1 O8 1.837736 1_545
Ga1 O7 1.839299 1_555
Ga1 O9 1.840050 1_655
Ga1 O3 1.844099 1_555
B0 O5 1.369531 1_555
B0 O6 1.371187 1_555
B0 O4 1.372679 1_555
B1 O8 1.369531 1_555
B1 O9 1.371187 1_555
B1 O7 1.372679 1_555
H0 O2 0.977840 1_555
H1 O3 0.977840 1_555
H2 O0 0.983336 1_655
H3 O0 0.986563 1_555
H4 O1 0.983336 1_565
H5 O1 0.986563 1_555
