# generated using pymatgen
data_RbUCrO6
_symmetry_space_group_name_H-M   'P 1'
_cell_length_a   8.41750300
_cell_length_b   7.22130100
_cell_length_c   10.60060623
_cell_angle_alpha   75.12751301
_cell_angle_beta   90.00000000
_cell_angle_gamma   90.00000000
_symmetry_Int_Tables_number   1
_chemical_formula_structural   RbUCrO6
_chemical_formula_sum   'Rb4 U4 Cr4 O24'
_cell_volume   622.77480936
_cell_formula_units_Z   4
loop_
 _symmetry_equiv_pos_site_id
 _symmetry_equiv_pos_as_xyz
  1  'x, y, z'
loop_
 _atom_site_type_symbol
 _atom_site_label
 _atom_site_symmetry_multiplicity
 _atom_site_fract_x
 _atom_site_fract_y
 _atom_site_fract_z
 _atom_site_occupancy
  Rb  Rb0  1  0.24122600  0.03331600  0.63820000  1
  Rb  Rb1  1  0.74122600  0.96668400  0.86180000  1
  Rb  Rb2  1  0.25877400  0.03331600  0.13820000  1
  Rb  Rb3  1  0.75877400  0.96668400  0.36180000  1
  U  U0  1  0.51950500  0.51098000  0.67697300  1
  U  U1  1  0.01950500  0.48902000  0.82302700  1
  U  U2  1  0.48049500  0.48902000  0.32302700  1
  U  U3  1  0.98049500  0.51098000  0.17697300  1
  Cr  Cr0  1  0.85735600  0.38995000  0.55598000  1
  Cr  Cr1  1  0.35735600  0.61005000  0.94402000  1
  Cr  Cr2  1  0.14264400  0.61005000  0.44402000  1
  Cr  Cr3  1  0.64264400  0.38995000  0.05598000  1
  O  O0  1  0.86856000  0.16284100  0.56834000  1
  O  O1  1  0.36856000  0.83715900  0.93166000  1
  O  O2  1  0.13144000  0.83715900  0.43166000  1
  O  O3  1  0.63144000  0.16284100  0.06834000  1
  O  O4  1  0.78984200  0.42797000  0.71321500  1
  O  O5  1  0.28984200  0.57203000  0.78678500  1
  O  O6  1  0.21015800  0.57203000  0.28678500  1
  O  O7  1  0.71015800  0.42797000  0.21321500  1
  O  O8  1  0.55872400  0.77044200  0.62374500  1
  O  O9  1  0.05872400  0.22955800  0.87625500  1
  O  O10  1  0.44127600  0.22955800  0.37625500  1
  O  O11  1  0.94127600  0.77044200  0.12374500  1
  O  O12  1  0.01905200  0.25198400  0.23459600  1
  O  O13  1  0.51905200  0.74801600  0.26540400  1
  O  O14  1  0.98094800  0.74801600  0.76540400  1
  O  O15  1  0.48094800  0.25198400  0.73459600  1
  O  O16  1  0.43947500  0.46465500  0.10515500  1
  O  O17  1  0.93947500  0.53534500  0.39484500  1
  O  O18  1  0.65732700  0.47133500  0.49300400  1
  O  O19  1  0.06052500  0.46465500  0.60515500  1
  O  O20  1  0.84267300  0.47133500  0.99300400  1
  O  O21  1  0.34267300  0.52866500  0.50699600  1
  O  O22  1  0.15732700  0.52866500  0.00699600  1
  O  O23  1  0.56052500  0.53534500  0.89484500  1
loop_
_geom_bond_atom_site_label_1
_geom_bond_atom_site_label_2
_geom_bond_distance
_geom_bond_site_symmetry_2
Cr0 O0 1.614134 1_555
Cr0 O4 1.847007 1_555
Cr0 O18 1.850583 1_555
Cr0 O17 1.891362 1_555
Cr0 O19 1.905734 1_655
Cr1 O1 1.614134 1_555
Cr1 O5 1.847007 1_555
Cr1 O22 1.850583 1_556
Cr1 O16 1.891362 1_556
Cr1 O23 1.905734 1_555
Cr2 O2 1.614134 1_555
Cr2 O6 1.847007 1_555
Cr2 O21 1.850583 1_555
Cr2 O19 1.891362 1_555
Cr2 O17 1.905734 1_455
Cr3 O3 1.614134 1_555
Cr3 O7 1.847007 1_555
Cr3 O20 1.850583 1_554
Cr3 O23 1.891362 1_554
Cr3 O16 1.905734 1_555
O0 Rb3 3.040763 1_545
O0 Rb1 3.251260 1_545
O0 Rb0 3.302720 1_655
O1 Rb2 3.040763 1_566
O1 Rb0 3.251260 1_565
O1 Rb1 3.302720 1_555
O2 Rb0 3.040763 1_565
O2 Rb2 3.251260 1_565
O2 Rb3 3.302720 1_455
O3 Rb1 3.040763 1_544
O3 Rb3 3.251260 1_545
O3 Rb2 3.302720 1_555
O4 U1 2.355862 1_655
O4 U0 2.359426 1_555
O4 Rb1 3.324326 1_545
O5 U0 2.355862 1_555
O5 U1 2.359426 1_555
O5 Rb0 3.324326 1_565
O6 U3 2.355862 1_455
O6 U2 2.359426 1_555
O6 Rb2 3.324326 1_565
O7 U2 2.355862 1_555
O7 U3 2.359426 1_555
O7 Rb3 3.324326 1_545
O8 U0 1.842616 1_555
O8 Rb3 3.245661 1_555
O8 Rb0 3.304358 1_565
O8 Rb1 3.545722 1_555
O9 U1 1.842616 1_555
O9 Rb2 3.245661 1_556
O9 Rb1 3.304358 1_445
O9 Rb0 3.545722 1_555
O10 U2 1.842616 1_555
O10 Rb0 3.245661 1_555
O10 Rb3 3.304358 1_545
O10 Rb2 3.545722 1_555
O11 U3 1.842616 1_555
O11 Rb1 3.245661 1_554
O11 Rb2 3.304358 1_665
O11 Rb3 3.545722 1_555
O12 U3 1.841189 1_455
O12 Rb2 2.904775 1_555
O12 Rb3 3.071932 1_445
O13 U2 1.841189 1_555
O13 Rb3 2.904775 1_555
O13 Rb2 3.071932 1_565
O14 U1 1.841189 1_655
O14 Rb1 2.904775 1_555
O14 Rb0 3.071932 1_665
O15 U0 1.841189 1_555
O15 Rb0 2.904775 1_555
O15 Rb1 3.071932 1_545
O16 U2 2.385984 1_555
O16 Rb2 3.402698 1_555
O17 U3 2.385984 1_555
O17 Rb3 3.402698 1_555
O18 U2 2.315268 1_555
O18 U0 2.348968 1_555
O19 U1 2.385984 1_555
O19 Rb0 3.402698 1_555
O20 U1 2.315268 1_655
O20 U3 2.348968 1_556
O21 U0 2.315268 1_555
O21 U2 2.348968 1_555
O22 U3 2.315268 1_455
O22 U1 2.348968 1_554
O23 U0 2.385984 1_555
O23 Rb1 3.402698 1_555
