# generated using pymatgen
data_Ce4Re6O19
_symmetry_space_group_name_H-M   'P 1'
_cell_length_a   7.82528777
_cell_length_b   7.82528777
_cell_length_c   7.82528777
_cell_angle_alpha   109.47122063
_cell_angle_beta   109.47122063
_cell_angle_gamma   109.47122063
_symmetry_Int_Tables_number   1
_chemical_formula_structural   Ce4Re6O19
_chemical_formula_sum   'Ce4 Re6 O19'
_cell_volume   368.87486312
_cell_formula_units_Z   1
loop_
 _symmetry_equiv_pos_site_id
 _symmetry_equiv_pos_as_xyz
  1  'x, y, z'
loop_
 _atom_site_type_symbol
 _atom_site_label
 _atom_site_symmetry_multiplicity
 _atom_site_fract_x
 _atom_site_fract_y
 _atom_site_fract_z
 _atom_site_occupancy
  Ce  Ce0  1  0.68772300  0.68772300  0.68772300  1
  Ce  Ce1  1  0.31227700  0.00000000  0.00000000  1
  Ce  Ce2  1  0.00000000  0.31227700  0.00000000  1
  Ce  Ce3  1  0.00000000  0.00000000  0.31227700  1
  Re  Re0  1  0.36609400  0.86609400  0.50000000  1
  Re  Re1  1  0.63390600  0.13390600  0.50000000  1
  Re  Re2  1  0.86609400  0.50000000  0.36609400  1
  Re  Re3  1  0.13390600  0.50000000  0.63390600  1
  Re  Re4  1  0.50000000  0.36609400  0.86609400  1
  Re  Re5  1  0.50000000  0.63390600  0.13390600  1
  O  O0  1  0.68332400  0.68332400  0.00000000  1
  O  O1  1  0.31667600  0.31667600  0.00000000  1
  O  O2  1  0.68332400  0.00000000  0.68332400  1
  O  O3  1  0.31667600  0.00000000  0.31667600  1
  O  O4  1  0.00000000  0.68332400  0.68332400  1
  O  O5  1  0.00000000  0.31667600  0.31667600  1
  O  O6  1  0.00000000  0.00000000  0.00000000  1
  O  O7  1  0.35565500  0.61864400  0.30004800  1
  O  O8  1  0.64434500  0.94439200  0.26298800  1
  O  O9  1  0.68140400  0.38135600  0.73701200  1
  O  O10  1  0.61864400  0.30004800  0.35565500  1
  O  O11  1  0.31859600  0.05560800  0.69995200  1
  O  O12  1  0.94439200  0.26298800  0.64434500  1
  O  O13  1  0.38135600  0.73701200  0.68140400  1
  O  O14  1  0.05560800  0.69995200  0.31859600  1
  O  O15  1  0.30004800  0.35565500  0.61864400  1
  O  O16  1  0.73701200  0.68140400  0.38135600  1
  O  O17  1  0.69995200  0.31859600  0.05560800  1
  O  O18  1  0.26298800  0.64434500  0.94439200  1
loop_
_geom_bond_atom_site_label_1
_geom_bond_atom_site_label_2
_geom_bond_distance
_geom_bond_site_symmetry_2
Ce0 O6 2.443657 1_666
Ce0 O4 2.466820 1_655
Ce0 O2 2.466820 1_565
Ce0 O0 2.466820 1_556
Ce0 O13 2.539473 1_555
Ce0 O16 2.539473 1_555
Ce0 O9 2.539473 1_555
Ce0 O15 2.993762 1_555
Ce0 O10 2.993762 1_555
Ce0 O7 2.993762 1_555
Ce1 O6 2.443657 1_555
Ce1 O4 2.466820 1_544
Ce1 O3 2.466820 1_555
Ce1 O1 2.466820 1_555
Ce1 O18 2.539465 1_544
Ce1 O10 2.539469 1_555
Ce1 O11 2.539473 1_554
Ce1 O13 2.993759 1_544
Ce1 O17 2.993759 1_555
Ce1 O8 2.993764 1_545
Ce2 O6 2.443657 1_555
Ce2 O2 2.466820 1_454
Ce2 O1 2.466820 1_555
Ce2 O5 2.466820 1_555
Ce2 O12 2.539465 1_454
Ce2 O7 2.539469 1_555
Ce2 O17 2.539473 1_455
Ce2 O9 2.993759 1_454
Ce2 O14 2.993759 1_555
Ce2 O18 2.993764 1_554
Ce3 O6 2.443657 1_555
Ce3 O3 2.466820 1_555
Ce3 O0 2.466820 1_445
Ce3 O5 2.466820 1_555
Ce3 O8 2.539465 1_445
Ce3 O15 2.539469 1_555
Ce3 O14 2.539473 1_545
Ce3 O16 2.993759 1_445
Ce3 O11 2.993759 1_555
Ce3 O12 2.993764 1_455
O0 Re4 2.051330 1_554
O0 Re5 2.051330 1_555
O1 Re4 2.051330 1_554
O1 Re5 2.051330 1_555
O2 Re1 2.051330 1_555
O2 Re0 2.051330 1_545
O3 Re0 2.051330 1_545
O3 Re1 2.051330 1_555
O4 Re3 2.051330 1_555
O4 Re2 2.051330 1_455
O5 Re2 2.051330 1_455
O5 Re3 2.051330 1_555
O7 Re5 1.993241 1_555
O7 Re0 1.998473 1_555
O8 Re5 1.993235 1_555
O8 Re1 1.998481 1_565
O9 Re4 1.993235 1_555
O9 Re1 1.998477 1_555
O10 Re1 1.993241 1_555
O10 Re2 1.998473 1_555
O11 Re4 1.993235 1_555
O11 Re0 1.998477 1_545
O12 Re1 1.993235 1_555
O12 Re3 1.998481 1_655
O13 Re0 1.993235 1_555
O13 Re3 1.998477 1_555
O14 Re0 1.993235 1_555
O14 Re2 1.998477 1_455
O15 Re3 1.993241 1_555
O15 Re4 1.998473 1_555
O16 Re2 1.993235 1_555
O16 Re5 1.998477 1_555
O17 Re2 1.993235 1_555
O17 Re4 1.998477 1_554
O18 Re3 1.993235 1_555
O18 Re5 1.998481 1_556
