# generated using pymatgen
data_Er3Al3CoGe2
_symmetry_space_group_name_H-M   'P 1'
_cell_length_a   6.89318584
_cell_length_b   6.89318584
_cell_length_c   4.15129000
_cell_angle_alpha   90.00000000
_cell_angle_beta   90.00000000
_cell_angle_gamma   119.99999843
_symmetry_Int_Tables_number   1
_chemical_formula_structural   Er3Al3CoGe2
_chemical_formula_sum   'Er3 Al3 Co1 Ge2'
_cell_volume   170.82588755
_cell_formula_units_Z   1
loop_
 _symmetry_equiv_pos_site_id
 _symmetry_equiv_pos_as_xyz
  1  'x, y, z'
loop_
 _atom_site_type_symbol
 _atom_site_label
 _atom_site_symmetry_multiplicity
 _atom_site_fract_x
 _atom_site_fract_y
 _atom_site_fract_z
 _atom_site_occupancy
  Er  Er0  1  0.59646500  0.00000000  0.00000000  1
  Er  Er1  1  0.00000000  0.59646500  0.00000000  1
  Er  Er2  1  0.40353500  0.40353500  0.00000000  1
  Al  Al0  1  0.22708600  0.00000000  0.50000000  1
  Al  Al1  1  0.00000000  0.22708600  0.50000000  1
  Al  Al2  1  0.77291400  0.77291400  0.50000000  1
  Co  Co0  1  0.00000000  0.00000000  0.00000000  1
  Ge  Ge0  1  0.33333300  0.66666700  0.50000000  1
  Ge  Ge1  1  0.66666700  0.33333300  0.50000000  1
loop_
_geom_bond_atom_site_label_1
_geom_bond_atom_site_label_2
_geom_bond_distance
_geom_bond_site_symmetry_2
Er0 Ge1 2.951291 1_554
Er0 Ge1 2.951291 1_555
Er0 Ge0 2.951292 1_544
Er0 Ge0 2.951292 1_545
Er1 Ge0 2.951291 1_554
Er1 Ge0 2.951291 1_555
Er1 Ge1 2.951292 1_455
Er1 Ge1 2.951292 1_454
Er2 Ge1 2.951296 1_555
Er2 Ge0 2.951296 1_555
Er2 Ge0 2.951296 1_554
Er2 Ge1 2.951296 1_554
Al0 Co0 2.599733 1_556
Al0 Co0 2.599733 1_555
Al0 Al1 2.711259 1_555
Al0 Al2 2.711259 1_445
Al0 Ge0 2.738382 1_545
Al0 Ge1 2.738387 1_555
Al0 Er2 3.184636 1_555
Al0 Er2 3.184636 1_556
Al0 Er1 3.184636 1_545
Al0 Er1 3.184636 1_546
Al0 Er0 3.285031 1_555
Al0 Er0 3.285031 1_556
Al1 Co0 2.599733 1_556
Al1 Co0 2.599733 1_555
Al1 Al2 2.711259 1_445
Al1 Ge1 2.738382 1_455
Al1 Ge0 2.738387 1_555
Al1 Er2 3.184636 1_555
Al1 Er2 3.184636 1_556
Al1 Er0 3.184636 1_455
Al1 Er0 3.184636 1_456
Al1 Er1 3.285031 1_556
Al1 Er1 3.285031 1_555
Al2 Co0 2.599733 1_665
Al2 Co0 2.599733 1_666
Al2 Ge1 2.738389 1_555
Al2 Ge0 2.738389 1_555
Al2 Er1 3.184636 1_655
Al2 Er0 3.184636 1_565
Al2 Er1 3.184636 1_656
Al2 Er0 3.184636 1_566
Al2 Er2 3.285031 1_556
Al2 Er2 3.285031 1_555
Co0 Er1 2.781642 1_545
Co0 Er0 2.781642 1_455
Co0 Er2 2.781642 1_555
