# generated using pymatgen
data_Ba2Ti4Tl2Zn3O12
_symmetry_space_group_name_H-M   'P 1'
_cell_length_a   23.20599779
_cell_length_b   23.20599779
_cell_length_c   23.20599779
_cell_angle_alpha   170.41344812
_cell_angle_beta   170.41344812
_cell_angle_gamma   13.57334059
_symmetry_Int_Tables_number   1
_chemical_formula_structural   Ba2Ti4Tl2Zn3O12
_chemical_formula_sum   'Ba2 Ti4 Tl2 Zn3 O12'
_cell_volume   346.58767973
_cell_formula_units_Z   1
loop_
 _symmetry_equiv_pos_site_id
 _symmetry_equiv_pos_as_xyz
  1  'x, y, z'
loop_
 _atom_site_type_symbol
 _atom_site_label
 _atom_site_symmetry_multiplicity
 _atom_site_fract_x
 _atom_site_fract_y
 _atom_site_fract_z
 _atom_site_occupancy
  Ba  Ba0  1  0.17321300  0.17321300  0.00000000  1
  Ba  Ba1  1  0.82678700  0.82678700  0.00000000  1
  Ti  Ti0  1  0.52944400  0.52944400  0.00000000  1
  Ti  Ti1  1  0.38866800  0.38866800  0.00000000  1
  Ti  Ti2  1  0.61133200  0.61133200  0.00000000  1
  Ti  Ti3  1  0.47055600  0.47055600  0.00000000  1
  Tl  Tl0  1  0.72484200  0.72484200  0.00000000  1
  Tl  Tl1  1  0.27515800  0.27515800  0.00000000  1
  Zn  Zn0  1  0.07875000  0.07875000  0.00000000  1
  Zn  Zn1  1  0.92125000  0.92125000  0.00000000  1
  Zn  Zn2  1  0.00000000  0.00000000  0.00000000  1
  O  O0  1  0.90073400  0.40073400  0.50000000  1
  O  O1  1  0.03191700  0.53191700  0.50000000  1
  O  O2  1  0.22571000  0.22571000  0.00000000  1
  O  O3  1  0.46808300  0.96808300  0.50000000  1
  O  O4  1  0.77429000  0.77429000  0.00000000  1
  O  O5  1  0.59926600  0.09926600  0.50000000  1
  O  O6  1  0.09926600  0.59926600  0.50000000  1
  O  O7  1  0.35003500  0.35003500  0.00000000  1
  O  O8  1  0.40073400  0.90073400  0.50000000  1
  O  O9  1  0.53191700  0.03191700  0.50000000  1
  O  O10  1  0.96808300  0.46808300  0.50000000  1
  O  O11  1  0.64996500  0.64996500  0.00000000  1
loop_
_geom_bond_atom_site_label_1
_geom_bond_atom_site_label_2
_geom_bond_distance
_geom_bond_site_symmetry_2
Ba0 O2 2.419418 1_555
Ba0 O11 2.944194 1_444
Ba0 O11 2.944194 1_545
Ba0 O11 2.944194 1_455
Ba0 O11 2.944194 1_556
Ba1 O4 2.419418 1_555
Ba1 O7 2.944194 1_554
Ba1 O7 2.944194 1_655
Ba1 O7 2.944194 1_666
Ba1 O7 2.944194 1_565
O0 Ti1 2.017273 1_555
O0 Ti1 2.017273 1_656
O0 Zn1 2.157351 1_556
O0 Zn1 2.157351 1_545
O1 Ti0 1.942461 1_556
O1 Ti0 1.942461 1_455
O1 Zn2 2.433899 1_566
O1 Zn2 2.433899 1_555
O2 Tl1 2.278899 1_555
O2 Tl0 2.742613 1_556
O2 Tl0 2.742613 1_545
O2 Tl0 2.742613 1_444
O2 Tl0 2.742613 1_455
O3 Ti3 1.942461 1_555
O3 Ti3 1.942461 1_566
O3 Zn2 2.433899 1_565
O3 Zn2 2.433899 1_666
O4 Tl0 2.278899 1_555
O4 Tl1 2.742613 1_565
O4 Tl1 2.742613 1_666
O4 Tl1 2.742613 1_554
O4 Tl1 2.742613 1_655
O5 Ti2 2.017273 1_556
O5 Ti2 2.017273 1_545
O5 Zn0 2.157351 1_656
O5 Zn0 2.157351 1_555
O6 Ti2 2.017273 1_455
O6 Ti2 2.017273 1_556
O6 Zn0 2.157351 1_566
O6 Zn0 2.157351 1_555
O7 Ti1 1.780471 1_555
O8 Ti1 2.017273 1_555
O8 Ti1 2.017273 1_566
O8 Zn1 2.157351 1_556
O8 Zn1 2.157351 1_455
O9 Ti0 1.942461 1_556
O9 Ti0 1.942461 1_545
O9 Zn2 2.433899 1_555
O9 Zn2 2.433899 1_656
O10 Ti3 1.942461 1_555
O10 Ti3 1.942461 1_656
O10 Zn2 2.433899 1_666
O10 Zn2 2.433899 1_655
O11 Ti2 1.780471 1_555
