# generated using pymatgen
data_BaSrPrNbO6
_symmetry_space_group_name_H-M   'P 1'
_cell_length_a   8.60872645
_cell_length_b   8.62649465
_cell_length_c   8.61505513
_cell_angle_alpha   90.00000000
_cell_angle_beta   90.00000000
_cell_angle_gamma   90.00000000
_symmetry_Int_Tables_number   1
_chemical_formula_structural   BaSrPrNbO6
_chemical_formula_sum   'Ba4 Sr4 Pr4 Nb4 O24'
_cell_volume   639.78098203
_cell_formula_units_Z   4
loop_
 _symmetry_equiv_pos_site_id
 _symmetry_equiv_pos_as_xyz
  1  'x, y, z'
loop_
 _atom_site_type_symbol
 _atom_site_label
 _atom_site_symmetry_multiplicity
 _atom_site_fract_x
 _atom_site_fract_y
 _atom_site_fract_z
 _atom_site_occupancy
  Ba  Ba0  1  0.00000000  -0.00000000  0.00000000  1
  Ba  Ba1  1  0.50000000  0.50000000  0.50000000  1
  Ba  Ba2  1  0.00000000  0.50000000  0.00000000  1
  Ba  Ba3  1  0.00000000  -0.00000000  0.50000000  1
  Sr  Sr0  1  0.00000000  0.50000000  0.50000000  1
  Sr  Sr1  1  0.50000000  -0.00000000  0.50000000  1
  Sr  Sr2  1  0.50000000  0.50000000  0.00000000  1
  Sr  Sr3  1  0.50000000  -0.00000000  0.00000000  1
  Pr  Pr0  1  0.25228833  0.25036001  0.25180534  1
  Pr  Pr1  1  0.74771167  0.74963999  0.25180534  1
  Pr  Pr2  1  0.74771167  0.25036001  0.74819466  1
  Pr  Pr3  1  0.25228833  0.74963999  0.74819466  1
  Nb  Nb0  1  0.74623103  0.74907545  0.75038785  1
  Nb  Nb1  1  0.25376897  0.25092455  0.75038785  1
  Nb  Nb2  1  0.25376897  0.74907545  0.24961215  1
  Nb  Nb3  1  0.74623103  0.25092455  0.24961215  1
  O  O0  1  0.97936428  0.21815452  0.27572019  1
  O  O1  1  0.02063572  0.78184548  0.27572019  1
  O  O2  1  0.02063572  0.21815452  0.72427981  1
  O  O3  1  0.97936428  0.78184548  0.72427981  1
  O  O4  1  0.28809050  0.98050465  0.21281397  1
  O  O5  1  0.28809050  0.01949535  0.78718603  1
  O  O6  1  0.71190950  0.01949535  0.21281397  1
  O  O7  1  0.71190950  0.98050465  0.78718603  1
  O  O8  1  0.22137332  0.27932965  0.98148548  1
  O  O9  1  0.77862668  0.27932965  0.01851452  1
  O  O10  1  0.22137332  0.72067035  0.01851452  1
  O  O11  1  0.77862668  0.72067035  0.98148548  1
  O  O12  1  0.51942019  0.29773086  0.21406290  1
  O  O13  1  0.48057981  0.70226914  0.21406290  1
  O  O14  1  0.48057981  0.29773086  0.78593710  1
  O  O15  1  0.51942019  0.70226914  0.78593710  1
  O  O16  1  0.21606240  0.52042248  0.29484170  1
  O  O17  1  0.21606240  0.47957752  0.70515830  1
  O  O18  1  0.78393760  0.47957752  0.29484170  1
  O  O19  1  0.78393760  0.52042248  0.70515830  1
  O  O20  1  0.29394701  0.21065854  0.52172937  1
  O  O21  1  0.70605299  0.21065854  0.47827063  1
  O  O22  1  0.29394701  0.78934146  0.47827063  1
  O  O23  1  0.70605299  0.78934146  0.52172937  1
loop_
_geom_bond_atom_site_label_1
_geom_bond_atom_site_label_2
_geom_bond_distance
_geom_bond_site_symmetry_2
Ba0 O2 3.035688 1_554
Ba0 O1 3.035688 1_545
Ba0 O0 3.035688 1_455
Ba0 O3 3.035688 1_444
Ba0 O10 3.076303 1_545
Ba0 O8 3.076303 1_554
Ba0 O9 3.076303 1_455
Ba0 O11 3.076303 1_444
Ba0 O5 3.088772 1_554
Ba0 O4 3.088772 1_545
Ba0 O7 3.088772 1_444
Ba0 O6 3.088772 1_455
Ba1 O18 3.021543 1_555
Ba1 O19 3.021543 1_555
Ba1 O16 3.021543 1_555
Ba1 O17 3.021543 1_555
Ba1 O14 3.023358 1_555
Ba1 O15 3.023358 1_555
Ba1 O12 3.023358 1_555
Ba1 O13 3.023358 1_555
Ba1 O20 3.067838 1_555
Ba1 O21 3.067838 1_555
Ba1 O22 3.067838 1_555
Ba1 O23 3.067838 1_555
Ba2 O11 2.698339 1_454
Ba2 O9 2.698339 1_455
Ba2 O8 2.698339 1_554
Ba2 O10 2.698339 1_555
Ba2 O17 3.153207 1_554
Ba2 O18 3.153207 1_455
Ba2 O19 3.153207 1_454
Ba2 O16 3.153207 1_555
Ba3 O2 2.703048 1_555
Ba3 O3 2.703048 1_445
Ba3 O1 2.703048 1_545
Ba3 O0 2.703048 1_455
Ba3 O20 3.121042 1_555
Ba3 O23 3.121042 1_445
Ba3 O21 3.121042 1_455
Ba3 O22 3.121042 1_545
Nb0 O15 2.017248 1_555
Nb0 O11 2.025235 1_555
Nb0 O23 2.029979 1_555
Nb0 O19 2.036628 1_555
Nb0 O3 2.039234 1_555
Nb0 O7 2.042916 1_555
Nb1 O14 2.017248 1_555
Nb1 O8 2.025235 1_555
Nb1 O20 2.029979 1_555
Nb1 O17 2.036628 1_555
Nb1 O2 2.039234 1_555
Nb1 O5 2.042916 1_555
Nb2 O13 2.017248 1_555
Nb2 O10 2.025235 1_555
Nb2 O22 2.029979 1_555
Nb2 O16 2.036628 1_555
Nb2 O1 2.039234 1_555
Nb2 O4 2.042916 1_555
Nb3 O12 2.017248 1_555
Nb3 O9 2.025235 1_555
Nb3 O21 2.029979 1_555
Nb3 O18 2.036628 1_555
Nb3 O0 2.039234 1_555
Nb3 O6 2.042916 1_555
O0 Pr0 2.374851 1_655
O0 Sr0 3.110675 1_655
O1 Pr1 2.374851 1_455
O1 Sr0 3.110675 1_555
O2 Pr2 2.374851 1_455
O2 Sr0 3.110675 1_555
O3 Pr3 2.374851 1_655
O3 Sr0 3.110675 1_655
O4 Pr0 2.372125 1_565
O4 Sr3 2.591837 1_565
O4 Sr1 3.078560 1_565
O5 Pr3 2.372125 1_545
O5 Sr3 2.591837 1_556
O5 Sr1 3.078560 1_555
O6 Pr1 2.372125 1_545
O6 Sr3 2.591837 1_555
O6 Sr1 3.078560 1_555
O7 Pr2 2.372125 1_565
O7 Sr3 2.591837 1_566
O7 Sr1 3.078560 1_565
O8 Pr0 2.357263 1_556
O8 Sr2 3.066359 1_556
O9 Pr2 2.357263 1_554
O9 Sr2 3.066359 1_555
O10 Pr3 2.357263 1_554
O10 Sr2 3.066359 1_555
O11 Pr1 2.357263 1_556
O11 Sr2 3.066359 1_556
O12 Pr0 2.358214 1_555
O12 Sr2 2.544302 1_555
O13 Pr1 2.358214 1_555
O13 Sr2 2.544302 1_555
O14 Pr2 2.358214 1_555
O14 Sr2 2.544302 1_556
O15 Pr3 2.358214 1_555
O15 Sr2 2.544302 1_556
O16 Pr0 2.379535 1_555
O16 Sr0 2.571886 1_555
O17 Pr3 2.379535 1_555
O17 Sr0 2.571886 1_555
O18 Pr1 2.379535 1_555
O18 Sr0 2.571886 1_655
O19 Pr2 2.379535 1_555
O19 Sr0 2.571886 1_655
O20 Pr0 2.377697 1_555
O20 Sr1 2.546366 1_555
O21 Pr2 2.377697 1_555
O21 Sr1 2.546366 1_555
O22 Pr3 2.377697 1_555
O22 Sr1 2.546366 1_565
O23 Pr1 2.377697 1_555
O23 Sr1 2.546366 1_565
