# generated using pymatgen
data_LiYbBi
_symmetry_space_group_name_H-M   'P 1'
_cell_length_a   9.64401750
_cell_length_b   9.64401750
_cell_length_c   7.71059700
_cell_angle_alpha   90.00000000
_cell_angle_beta   90.00000000
_cell_angle_gamma   119.99999654
_symmetry_Int_Tables_number   1
_chemical_formula_structural   LiYbBi
_chemical_formula_sum   'Li8 Yb8 Bi8'
_cell_volume   621.06153303
_cell_formula_units_Z   8
loop_
 _symmetry_equiv_pos_site_id
 _symmetry_equiv_pos_as_xyz
  1  'x, y, z'
loop_
 _atom_site_type_symbol
 _atom_site_label
 _atom_site_symmetry_multiplicity
 _atom_site_fract_x
 _atom_site_fract_y
 _atom_site_fract_z
 _atom_site_occupancy
  Li  Li0  1  0.16654300  0.83345700  0.32171700  1
  Li  Li1  1  0.66691300  0.83345700  0.32171700  1
  Li  Li2  1  0.16654300  0.33308700  0.32171700  1
  Li  Li3  1  0.83345700  0.16654300  0.82171700  1
  Li  Li4  1  0.33308700  0.16654300  0.82171700  1
  Li  Li5  1  0.83345700  0.66691300  0.82171700  1
  Li  Li6  1  0.33333300  0.66666700  0.66885100  1
  Li  Li7  1  0.66666700  0.33333300  0.16885100  1
  Yb  Yb0  1  0.51704000  0.48296000  0.50624600  1
  Yb  Yb1  1  0.96592100  0.48296000  0.50624600  1
  Yb  Yb2  1  0.51704000  0.03407900  0.50624600  1
  Yb  Yb3  1  0.48296000  0.51704000  0.00624600  1
  Yb  Yb4  1  0.03407900  0.51704000  0.00624600  1
  Yb  Yb5  1  0.48296000  0.96592100  0.00624600  1
  Yb  Yb6  1  0.00000000  0.00000000  0.51633600  1
  Yb  Yb7  1  0.00000000  0.00000000  0.01633600  1
  Bi  Bi0  1  0.16651200  0.83348800  0.73571600  1
  Bi  Bi1  1  0.66697700  0.83348800  0.73571600  1
  Bi  Bi2  1  0.16651200  0.33302300  0.73571600  1
  Bi  Bi3  1  0.83348800  0.16651200  0.23571600  1
  Bi  Bi4  1  0.33302300  0.16651200  0.23571600  1
  Bi  Bi5  1  0.83348800  0.66697700  0.23571600  1
  Bi  Bi6  1  0.33333300  0.66666700  0.27877000  1
  Bi  Bi7  1  0.66666700  0.33333300  0.77877000  1
loop_
_geom_bond_atom_site_label_1
_geom_bond_atom_site_label_2
_geom_bond_distance
_geom_bond_site_symmetry_2
Li0 Yb6 3.160851 1_565
Li0 Yb2 3.263990 1_565
Li0 Yb1 3.263990 1_455
Li0 Yb4 3.600338 1_555
Li0 Yb5 3.600338 1_555
Li1 Yb6 3.160858 1_665
Li1 Yb2 3.263976 1_565
Li1 Yb0 3.263992 1_555
Li1 Yb5 3.600338 1_555
Li1 Yb3 3.600338 1_555
Li2 Yb6 3.160858 1_555
Li2 Yb1 3.263976 1_455
Li2 Yb0 3.263992 1_555
Li2 Yb4 3.600338 1_555
Li2 Yb3 3.600338 1_555
Li3 Yb7 3.160851 1_656
Li3 Yb4 3.263990 1_656
Li3 Yb5 3.263990 1_546
Li3 Yb2 3.600338 1_555
Li3 Yb1 3.600338 1_555
Li4 Yb7 3.160858 1_556
Li4 Yb5 3.263976 1_546
Li4 Yb3 3.263992 1_556
Li4 Yb2 3.600338 1_555
Li4 Yb0 3.600338 1_555
Li5 Yb7 3.160858 1_666
Li5 Yb4 3.263976 1_656
Li5 Yb3 3.263992 1_556
Li5 Yb1 3.600338 1_555
Li5 Yb0 3.600338 1_555
Li6 Yb2 3.314868 1_565
Li6 Yb1 3.314868 1_455
Li6 Yb0 3.314883 1_555
Li6 Yb3 3.607587 1_556
Li6 Yb5 3.607587 1_556
Li6 Yb4 3.607587 1_556
Li7 Yb4 3.314868 1_655
Li7 Yb5 3.314868 1_545
Li7 Yb3 3.314883 1_555
Li7 Yb0 3.607587 1_555
Li7 Yb1 3.607587 1_555
Li7 Yb2 3.607587 1_555
Bi0 Li6 2.833860 1_555
Bi0 Li4 2.859612 1_565
Bi0 Li5 2.859612 1_455
Bi0 Li0 3.192179 1_555
Bi0 Yb6 3.255389 1_565
Bi0 Yb4 3.376136 1_556
Bi0 Yb5 3.376136 1_556
Bi0 Yb2 3.429444 1_565
Bi0 Yb1 3.429444 1_455
Bi0 Yb7 3.523920 1_566
Bi1 Li6 2.833876 1_555
Bi1 Li5 2.859612 1_555
Bi1 Li3 2.859612 1_565
Bi1 Li1 3.192179 1_555
Bi1 Yb6 3.255382 1_665
Bi1 Yb3 3.376138 1_556
Bi1 Yb5 3.376150 1_556
Bi1 Yb2 3.429444 1_565
Bi1 Yb0 3.429444 1_555
Bi1 Yb7 3.523914 1_666
Bi2 Li6 2.833876 1_555
Bi2 Li4 2.859612 1_555
Bi2 Li3 2.859612 1_455
Bi2 Li2 3.192179 1_555
Bi2 Yb6 3.255382 1_555
Bi2 Yb3 3.376138 1_556
Bi2 Yb4 3.376150 1_556
Bi2 Yb1 3.429444 1_455
Bi2 Yb0 3.429444 1_555
Bi2 Yb7 3.523914 1_556
Bi3 Li7 2.833860 1_555
Bi3 Li2 2.859612 1_655
Bi3 Li1 2.859612 1_545
Bi3 Li3 3.192179 1_554
Bi3 Yb7 3.255389 1_655
Bi3 Yb2 3.376136 1_555
Bi3 Yb1 3.376136 1_555
Bi3 Yb5 3.429444 1_545
Bi3 Yb4 3.429444 1_655
Bi3 Yb6 3.523920 1_655
Bi4 Li7 2.833876 1_555
Bi4 Li2 2.859612 1_555
Bi4 Li0 2.859612 1_545
Bi4 Li4 3.192179 1_554
Bi4 Yb7 3.255382 1_555
Bi4 Yb0 3.376138 1_555
Bi4 Yb2 3.376150 1_555
Bi4 Yb5 3.429444 1_545
Bi4 Yb3 3.429444 1_555
Bi4 Yb6 3.523914 1_555
Bi5 Li7 2.833876 1_555
Bi5 Li1 2.859612 1_555
Bi5 Li0 2.859612 1_655
Bi5 Li5 3.192179 1_554
Bi5 Yb7 3.255382 1_665
Bi5 Yb0 3.376138 1_555
Bi5 Yb1 3.376150 1_555
Bi5 Yb4 3.429444 1_655
Bi5 Yb3 3.429444 1_555
Bi5 Yb6 3.523914 1_665
Bi6 Li0 2.805659 1_555
Bi6 Li2 2.805659 1_555
Bi6 Li1 2.805659 1_555
Bi6 Li6 3.007757 1_555
Bi6 Yb3 3.265326 1_555
Bi6 Yb4 3.265326 1_555
Bi6 Yb5 3.265326 1_555
Bi6 Yb2 3.534517 1_565
Bi6 Yb1 3.534517 1_455
Bi6 Yb0 3.534531 1_555
Bi7 Li3 2.805659 1_555
Bi7 Li4 2.805659 1_555
Bi7 Li5 2.805659 1_555
Bi7 Li7 3.007757 1_556
Bi7 Yb0 3.265326 1_555
Bi7 Yb2 3.265326 1_555
Bi7 Yb1 3.265326 1_555
Bi7 Yb5 3.534517 1_546
Bi7 Yb4 3.534517 1_656
Bi7 Yb3 3.534531 1_556
