# generated using pymatgen
data_Mg7Si4
_symmetry_space_group_name_H-M   'P 1'
_cell_length_a   6.53191989
_cell_length_b   4.39253048
_cell_length_c   15.59318991
_cell_angle_alpha   97.84242253
_cell_angle_beta   83.38784763
_cell_angle_gamma   90.56605947
_symmetry_Int_Tables_number   1
_chemical_formula_structural   Mg7Si4
_chemical_formula_sum   'Mg14 Si8'
_cell_volume   440.25421249
_cell_formula_units_Z   2
loop_
 _symmetry_equiv_pos_site_id
 _symmetry_equiv_pos_as_xyz
  1  'x, y, z'
loop_
 _atom_site_type_symbol
 _atom_site_label
 _atom_site_symmetry_multiplicity
 _atom_site_fract_x
 _atom_site_fract_y
 _atom_site_fract_z
 _atom_site_occupancy
  Mg  Mg0  1  0.17946400  0.41412600  0.89317300  1
  Mg  Mg1  1  0.72574400  0.79785800  0.65422200  1
  Mg  Mg2  1  0.95673300  0.21983700  0.51104000  1
  Mg  Mg3  1  0.07736200  0.31970500  0.69894300  1
  Mg  Mg4  1  0.70368800  0.39561400  0.86137600  1
  Mg  Mg5  1  0.04995800  0.10485900  0.29468300  1
  Mg  Mg6  1  0.53424000  0.13006400  0.33175300  1
  Mg  Mg7  1  0.44100800  0.23594000  0.54256300  1
  Mg  Mg8  1  0.41193600  0.95756500  0.97757700  1
  Mg  Mg9  1  0.90447800  0.96118400  0.98889400  1
  Mg  Mg10  1  0.62238000  0.50189400  0.07361300  1
  Mg  Mg11  1  0.10497000  0.52725800  0.11019400  1
  Mg  Mg12  1  0.24548600  0.66872400  0.41445100  1
  Mg  Mg13  1  0.73886900  0.68043300  0.43068000  1
  Si  Si0  1  0.78436300  0.04689400  0.16263000  1
  Si  Si1  1  0.99600400  0.87661000  0.81337900  1
  Si  Si2  1  0.49711200  0.32836700  0.71576700  1
  Si  Si3  1  0.36741000  0.58260800  0.24297700  1
  Si  Si4  1  0.39505100  0.04617600  0.15888900  1
  Si  Si5  1  0.38231300  0.86333100  0.79688600  1
  Si  Si6  1  0.12303300  0.75623900  0.58273700  1
  Si  Si7  1  0.75838300  0.58829400  0.24720400  1
loop_
_geom_bond_atom_site_label_1
_geom_bond_atom_site_label_2
_geom_bond_distance
_geom_bond_site_symmetry_2
Mg0 Si1 2.836288 1_445
Mg0 Si1 2.862226 1_455
Mg0 Si5 2.863887 1_555
Mg0 Si5 2.911560 1_545
Mg1 Si6 2.701456 1_655
Mg1 Si2 2.748331 1_555
Mg1 Si2 2.776663 1_565
Mg1 Si5 2.958484 1_555
Mg1 Si1 3.187125 1_555
Mg2 Si6 2.737078 1_655
Mg2 Si6 2.742501 1_645
Mg3 Si2 2.783604 1_555
Mg3 Si6 2.803852 1_555
Mg3 Si1 2.821994 1_445
Mg3 Si1 2.840185 1_455
Mg3 Si6 2.857350 1_545
Mg4 Si2 2.752785 1_555
Mg4 Si1 2.948302 1_555
Mg4 Si1 2.948626 1_545
Mg5 Si0 2.825844 1_455
Mg5 Si4 2.897321 1_555
Mg5 Si7 3.017415 1_445
Mg5 Si3 3.056846 1_555
Mg5 Si3 3.068621 1_545
Mg5 Si7 3.085180 1_455
Mg6 Si7 2.855597 1_555
Mg6 Si3 2.862923 1_555
Mg6 Si3 2.876392 1_545
Mg6 Si7 2.883224 1_545
Mg6 Si0 2.917875 1_555
Mg6 Si4 2.918014 1_555
Mg7 Si2 2.742121 1_555
Mg7 Si6 3.019981 1_545
Mg7 Si6 3.054986 1_555
Mg8 Si4 2.790275 1_566
Mg8 Si5 2.820117 1_555
Mg9 Si0 2.708233 1_566
Mg9 Si1 2.708473 1_555
Mg10 Si0 2.856301 1_565
Mg10 Si0 2.859664 1_555
Mg10 Si4 2.862350 1_555
Mg10 Si4 2.904608 1_565
Mg10 Si7 2.920096 1_555
Mg10 Si3 2.935494 1_555
Mg11 Si3 2.820731 1_555
Mg11 Si7 2.916018 1_455
Mg11 Si4 3.022572 1_565
Mg11 Si0 3.074869 1_465
Mg11 Si4 3.079053 1_555
Mg11 Si0 3.081470 1_455
Mg12 Si6 2.630768 1_555
Mg12 Si3 2.676980 1_555
Mg13 Si7 2.822460 1_555
Si0 Si7 2.548042 1_545
Si0 Si4 2.550291 1_555
Si0 Si7 2.554208 1_555
Si1 Si5 2.507219 1_655
Si2 Si5 2.586365 1_555
Si2 Si5 2.606002 1_545
Si3 Si4 2.532728 1_555
Si3 Si7 2.562019 1_555
Si3 Si4 2.562213 1_565
