# generated using pymatgen
data_Ba2CrSnO6
_symmetry_space_group_name_H-M   'P 1'
_cell_length_a   5.79813796
_cell_length_b   5.79813796
_cell_length_c   5.79813796
_cell_angle_alpha   60.00000000
_cell_angle_beta   60.00000000
_cell_angle_gamma   60.00000000
_symmetry_Int_Tables_number   1
_chemical_formula_structural   Ba2CrSnO6
_chemical_formula_sum   'Ba2 Cr1 Sn1 O6'
_cell_volume   137.83218353
_cell_formula_units_Z   1
loop_
 _symmetry_equiv_pos_site_id
 _symmetry_equiv_pos_as_xyz
  1  'x, y, z'
loop_
 _atom_site_type_symbol
 _atom_site_label
 _atom_site_symmetry_multiplicity
 _atom_site_fract_x
 _atom_site_fract_y
 _atom_site_fract_z
 _atom_site_occupancy
  Ba  Ba0  1  0.25000000  0.25000000  0.25000000  1
  Ba  Ba1  1  0.75000000  0.75000000  0.75000000  1
  Cr  Cr0  1  0.00000000  -0.00000000  -0.00000000  1
  Sn  Sn0  1  0.50000000  0.50000000  0.50000000  1
  O  O0  1  0.75530616  0.24469384  0.24469384  1
  O  O1  1  0.24469384  0.75530616  0.75530616  1
  O  O2  1  0.75530616  0.24469384  0.75530616  1
  O  O3  1  0.24469384  0.75530616  0.24469384  1
  O  O4  1  0.75530616  0.75530616  0.24469384  1
  O  O5  1  0.24469384  0.24469384  0.75530616  1
loop_
_geom_bond_atom_site_label_1
_geom_bond_atom_site_label_2
_geom_bond_distance
_geom_bond_site_symmetry_2
Ba0 O5 2.899395 1_555
Ba0 O3 2.899395 1_555
Ba0 O0 2.899395 1_555
Ba0 O1 2.899395 1_545
Ba0 O1 2.899395 1_554
Ba0 O2 2.899395 1_455
Ba0 O2 2.899395 1_554
Ba0 O4 2.899395 1_545
Ba0 O0 2.899395 1_455
Ba0 O4 2.899395 1_455
Ba0 O3 2.899395 1_545
Ba0 O5 2.899395 1_554
Ba1 O0 2.899395 1_556
Ba1 O1 2.899395 1_555
Ba1 O0 2.899395 1_565
Ba1 O1 2.899395 1_655
Ba1 O5 2.899395 1_655
Ba1 O5 2.899395 1_565
Ba1 O2 2.899395 1_555
Ba1 O2 2.899395 1_565
Ba1 O3 2.899395 1_556
Ba1 O4 2.899395 1_555
Ba1 O4 2.899395 1_556
Ba1 O3 2.899395 1_655
Cr0 O3 2.006442 1_545
Cr0 O5 2.006442 1_554
Cr0 O0 2.006442 1_455
Cr0 O2 2.006442 1_454
Cr0 O4 2.006442 1_445
Cr0 O1 2.006442 1_544
O0 Sn0 2.093461 1_555
O1 Sn0 2.093461 1_555
O2 Sn0 2.093461 1_555
O3 Sn0 2.093461 1_555
O4 Sn0 2.093461 1_555
O5 Sn0 2.093461 1_555
