# generated using pymatgen
data_Si2BAsH29C9N
_symmetry_space_group_name_H-M   'P 1'
_cell_length_a   9.53768627
_cell_length_b   9.53768627
_cell_length_c   11.82112400
_cell_angle_alpha   90.00000000
_cell_angle_beta   90.00000000
_cell_angle_gamma   109.81338783
_symmetry_Int_Tables_number   1
_chemical_formula_structural   Si2BAsH29C9N
_chemical_formula_sum   'Si4 B2 As2 H58 C18 N2'
_cell_volume   1011.67934384
_cell_formula_units_Z   2
loop_
 _symmetry_equiv_pos_site_id
 _symmetry_equiv_pos_as_xyz
  1  'x, y, z'
loop_
 _atom_site_type_symbol
 _atom_site_label
 _atom_site_symmetry_multiplicity
 _atom_site_fract_x
 _atom_site_fract_y
 _atom_site_fract_z
 _atom_site_occupancy
  Si  Si0  1  0.97424800  0.21409600  0.27208800  1
  Si  Si1  1  0.21409600  0.97424800  0.27208800  1
  Si  Si2  1  0.02575200  0.78590400  0.77208800  1
  Si  Si3  1  0.78590400  0.02575200  0.77208800  1
  B  B0  1  0.35220500  0.35220500  0.35625600  1
  B  B1  1  0.64779500  0.64779500  0.85625600  1
  As  As0  1  0.15879900  0.15879900  0.38089500  1
  As  As1  1  0.84120100  0.84120100  0.88089500  1
  H  H0  1  0.32018200  0.45085900  0.30926900  1
  H  H1  1  0.45085900  0.32018200  0.30926900  1
  H  H2  1  0.67981800  0.54914100  0.80926900  1
  H  H3  1  0.54914100  0.67981800  0.80926900  1
  H  H4  1  0.82235600  0.37156400  0.31424100  1
  H  H5  1  0.37156400  0.82235600  0.31424100  1
  H  H6  1  0.17764400  0.62843600  0.81424100  1
  H  H7  1  0.62843600  0.17764400  0.81424100  1
  H  H8  1  0.86629000  0.29499400  0.44186300  1
  H  H9  1  0.29499400  0.86629000  0.44186300  1
  H  H10  1  0.13371000  0.70500600  0.94186300  1
  H  H11  1  0.70500600  0.13371000  0.94186300  1
  H  H12  1  0.00146000  0.45203100  0.37728200  1
  H  H13  1  0.45203100  0.00146000  0.37728200  1
  H  H14  1  0.99854000  0.54796900  0.87728200  1
  H  H15  1  0.54796900  0.99854000  0.87728200  1
  H  H16  1  0.76239500  0.98135400  0.32558500  1
  H  H17  1  0.98135400  0.76239500  0.32558500  1
  H  H18  1  0.23760500  0.01864600  0.82558500  1
  H  H19  1  0.01864600  0.23760500  0.82558500  1
  H  H20  1  0.71350000  0.08459200  0.21635100  1
  H  H21  1  0.08459200  0.71350000  0.21635100  1
  H  H22  1  0.28650000  0.91540800  0.71635100  1
  H  H23  1  0.91540800  0.28650000  0.71635100  1
  H  H24  1  0.82153700  0.97079000  0.18324800  1
  H  H25  1  0.97079000  0.82153700  0.18324800  1
  H  H26  1  0.17846300  0.02921000  0.68324800  1
  H  H27  1  0.02921000  0.17846300  0.68324800  1
  H  H28  1  0.04934800  0.22160200  0.06903700  1
  H  H29  1  0.22160200  0.04934800  0.06903700  1
  H  H30  1  0.95065200  0.77839800  0.56903700  1
  H  H31  1  0.77839800  0.95065200  0.56903700  1
  H  H32  1  0.94034800  0.33719500  0.09287800  1
  H  H33  1  0.33719500  0.94034800  0.09287800  1
  H  H34  1  0.05965200  0.66280500  0.59287800  1
  H  H35  1  0.66280500  0.05965200  0.59287800  1
  H  H36  1  0.13135700  0.40070400  0.13290700  1
  H  H37  1  0.40070400  0.13135700  0.13290700  1
  H  H38  1  0.86864300  0.59929600  0.63290700  1
  H  H39  1  0.59929600  0.86864300  0.63290700  1
  H  H40  1  0.61100100  0.61100100  0.53085900  1
  H  H41  1  0.38899900  0.38899900  0.03085900  1
  H  H42  1  0.63988400  0.52538200  0.40165800  1
  H  H43  1  0.52538200  0.63988400  0.40165800  1
  H  H44  1  0.36011600  0.47461800  0.90165800  1
  H  H45  1  0.47461800  0.36011600  0.90165800  1
  H  H46  1  0.53042700  0.38280400  0.62439800  1
  H  H47  1  0.38280400  0.53042700  0.62439800  1
  H  H48  1  0.46957300  0.61719600  0.12439800  1
  H  H49  1  0.61719600  0.46957300  0.12439800  1
  H  H50  1  0.38466200  0.22401500  0.56850400  1
  H  H51  1  0.22401500  0.38466200  0.56850400  1
  H  H52  1  0.61533800  0.77598500  0.06850400  1
  H  H53  1  0.77598500  0.61533800  0.06850400  1
  H  H54  1  0.56168000  0.29201900  0.49849300  1
  H  H55  1  0.29201900  0.56168000  0.49849300  1
  H  H56  1  0.43832000  0.70798100  0.99849300  1
  H  H57  1  0.70798100  0.43832000  0.99849300  1
  C  C0  1  0.91128800  0.34647700  0.36044400  1
  C  C1  1  0.34647700  0.91128800  0.36044400  1
  C  C2  1  0.08871200  0.65352300  0.86044400  1
  C  C3  1  0.65352300  0.08871200  0.86044400  1
  C  C4  1  0.80253700  0.04521200  0.24778100  1
  C  C5  1  0.04521200  0.80253700  0.24778100  1
  C  C6  1  0.19746300  0.95478800  0.74778100  1
  C  C7  1  0.95478800  0.19746300  0.74778100  1
  C  C8  1  0.03015300  0.30202500  0.12833100  1
  C  C9  1  0.30202500  0.03015300  0.12833100  1
  C  C10  1  0.96984700  0.69797500  0.62833100  1
  C  C11  1  0.69797500  0.96984700  0.62833100  1
  C  C12  1  0.55982800  0.55982800  0.45075100  1
  C  C13  1  0.44017200  0.44017200  0.95075100  1
  C  C14  1  0.47910600  0.32407000  0.54707100  1
  C  C15  1  0.32407000  0.47910600  0.54707100  1
  C  C16  1  0.52089400  0.67593000  0.04707100  1
  C  C17  1  0.67593000  0.52089400  0.04707100  1
  N  N0  1  0.42655200  0.42655200  0.47687800  1
  N  N1  1  0.57344800  0.57344800  0.97687800  1
loop_
_geom_bond_atom_site_label_1
_geom_bond_atom_site_label_2
_geom_bond_distance
_geom_bond_site_symmetry_2
B0 H1 1.217362 1_555
B0 H0 1.217362 1_555
B0 N0 1.642537 1_555
B1 H2 1.217362 1_555
B1 H3 1.217362 1_555
B1 N1 1.642537 1_555
As0 B0 2.140914 1_555
As0 Si1 2.379101 1_545
As0 Si0 2.379101 1_455
As1 B1 2.140914 1_555
As1 Si3 2.379101 1_565
As1 Si2 2.379101 1_655
C0 H12 1.098108 1_655
C0 H8 1.099444 1_555
C0 H4 1.101177 1_555
C0 Si0 1.886709 1_555
C1 H13 1.098108 1_565
C1 H9 1.099444 1_555
C1 H5 1.101177 1_555
C1 Si1 1.886709 1_555
C2 H14 1.098108 1_455
C2 H10 1.099444 1_555
C2 H6 1.101177 1_555
C2 Si2 1.886709 1_555
C3 H15 1.098108 1_545
C3 H11 1.099444 1_555
C3 H7 1.101177 1_555
C3 Si3 1.886709 1_555
C4 H16 1.097889 1_545
C4 H24 1.098098 1_545
C4 H20 1.102946 1_555
C4 Si0 1.889691 1_555
C5 H17 1.097889 1_455
C5 H25 1.098098 1_455
C5 H21 1.102946 1_555
C5 Si1 1.889691 1_555
C6 H18 1.097889 1_565
C6 H26 1.098098 1_565
C6 H22 1.102946 1_555
C6 Si2 1.889691 1_555
C7 H19 1.097889 1_655
C7 H27 1.098098 1_655
C7 H23 1.102946 1_555
C7 Si3 1.889691 1_555
C8 H36 1.097531 1_555
C8 H28 1.099259 1_555
C8 H32 1.102988 1_455
C8 Si0 1.890063 1_455
C9 H37 1.097531 1_555
C9 H29 1.099259 1_555
C9 H33 1.102988 1_545
C9 Si1 1.890063 1_545
C10 H38 1.097531 1_555
C10 H30 1.099259 1_555
C10 H34 1.102988 1_655
C10 Si2 1.890063 1_655
C11 H39 1.097531 1_555
C11 H31 1.099259 1_555
C11 H35 1.102988 1_565
C11 Si3 1.890063 1_565
C12 H43 1.094435 1_555
C12 H42 1.094435 1_555
C12 H40 1.100766 1_555
C12 N0 1.493862 1_555
C13 H45 1.094435 1_555
C13 H44 1.094435 1_555
C13 H41 1.100766 1_556
C13 N1 1.493862 1_555
C14 H46 1.096851 1_555
C14 H50 1.097054 1_555
C14 H54 1.098488 1_555
C14 N0 1.492405 1_555
C15 H47 1.096851 1_555
C15 H51 1.097054 1_555
C15 H55 1.098488 1_555
C15 N0 1.492405 1_555
C16 H48 1.096851 1_555
C16 H52 1.097054 1_555
C16 H56 1.098488 1_554
C16 N1 1.492405 1_554
C17 H49 1.096851 1_555
C17 H53 1.097054 1_555
C17 H57 1.098488 1_554
C17 N1 1.492405 1_554
