# generated using pymatgen
data_CsRb2Sb4F15
_symmetry_space_group_name_H-M   'P 1'
_cell_length_a   29.19293900
_cell_length_b   8.06271700
_cell_length_c   8.14372312
_cell_angle_alpha   64.59844981
_cell_angle_beta   90.00000000
_cell_angle_gamma   90.00000000
_symmetry_Int_Tables_number   1
_chemical_formula_structural   CsRb2Sb4F15
_chemical_formula_sum   'Cs4 Rb8 Sb16 F60'
_cell_volume   1731.51251377
_cell_formula_units_Z   4
loop_
 _symmetry_equiv_pos_site_id
 _symmetry_equiv_pos_as_xyz
  1  'x, y, z'
loop_
 _atom_site_type_symbol
 _atom_site_label
 _atom_site_symmetry_multiplicity
 _atom_site_fract_x
 _atom_site_fract_y
 _atom_site_fract_z
 _atom_site_occupancy
  Cs  Cs0  1  0.56876800  0.79380400  0.70726300  1
  Cs  Cs1  1  0.06876800  0.20619600  0.79273700  1
  Cs  Cs2  1  0.43123200  0.20619600  0.29273700  1
  Cs  Cs3  1  0.93123200  0.79380400  0.20726300  1
  Rb  Rb0  1  0.28443200  0.64344200  0.86512800  1
  Rb  Rb1  1  0.78443200  0.35655800  0.63487200  1
  Rb  Rb2  1  0.71556800  0.35655800  0.13487200  1
  Rb  Rb3  1  0.21556800  0.64344200  0.36512800  1
  Rb  Rb4  1  0.64879400  0.82311200  0.16168600  1
  Rb  Rb5  1  0.14879400  0.17688800  0.33831400  1
  Rb  Rb6  1  0.35120600  0.17688800  0.83831400  1
  Rb  Rb7  1  0.85120600  0.82311200  0.66168600  1
  Sb  Sb0  1  0.42797300  0.71942600  0.80969200  1
  Sb  Sb1  1  0.92797300  0.28057400  0.69030800  1
  Sb  Sb2  1  0.57202700  0.28057400  0.19030800  1
  Sb  Sb3  1  0.07202700  0.71942600  0.30969200  1
  Sb  Sb4  1  0.35854900  0.65676500  0.33701700  1
  Sb  Sb5  1  0.85854900  0.34323500  0.16298300  1
  Sb  Sb6  1  0.64145100  0.34323500  0.66298300  1
  Sb  Sb7  1  0.14145100  0.65676500  0.83701700  1
  Sb  Sb8  1  0.49814600  0.24636300  0.74984400  1
  Sb  Sb9  1  0.99814600  0.75363700  0.75015600  1
  Sb  Sb10  1  0.50185400  0.75363700  0.25015600  1
  Sb  Sb11  1  0.00185400  0.24636300  0.24984400  1
  Sb  Sb12  1  0.28971200  0.13631000  0.37418700  1
  Sb  Sb13  1  0.78971200  0.86369000  0.12581300  1
  Sb  Sb14  1  0.71028800  0.86369000  0.62581300  1
  Sb  Sb15  1  0.21028800  0.13631000  0.87418700  1
  F  F0  1  0.43370400  0.77604400  0.54370100  1
  F  F1  1  0.93370400  0.22395600  0.95629900  1
  F  F2  1  0.56629600  0.22395600  0.45629900  1
  F  F3  1  0.06629600  0.77604400  0.04370100  1
  F  F4  1  0.38442200  0.52139400  0.83406000  1
  F  F5  1  0.88442200  0.47860600  0.66594000  1
  F  F6  1  0.61557800  0.47860600  0.16594000  1
  F  F7  1  0.11557800  0.52139400  0.33406000  1
  F  F8  1  0.37710800  0.89917100  0.72826800  1
  F  F9  1  0.87710800  0.10082900  0.77173200  1
  F  F10  1  0.62289200  0.10082900  0.27173200  1
  F  F11  1  0.12289200  0.89917100  0.22826800  1
  F  F12  1  0.39597300  0.66690300  0.09105200  1
  F  F13  1  0.89597300  0.33309700  0.40894800  1
  F  F14  1  0.60402700  0.33309700  0.90894800  1
  F  F15  1  0.10402700  0.66690300  0.59105200  1
  F  F16  1  0.30625400  0.70200500  0.17045400  1
  F  F17  1  0.80625400  0.29799500  0.32954600  1
  F  F18  1  0.69374600  0.29799500  0.82954600  1
  F  F19  1  0.19374600  0.70200500  0.67045400  1
  F  F20  1  0.36745800  0.92790900  0.22570400  1
  F  F21  1  0.86745800  0.07209100  0.27429600  1
  F  F22  1  0.63254200  0.07209100  0.77429600  1
  F  F23  1  0.13254200  0.92790900  0.72570400  1
  F  F24  1  0.31033000  0.68726400  0.50152700  1
  F  F25  1  0.81033000  0.31273600  0.99847300  1
  F  F26  1  0.68967000  0.31273600  0.49847300  1
  F  F27  1  0.18967000  0.68726400  0.00152700  1
  F  F28  1  0.47841100  0.02669500  0.69006500  1
  F  F29  1  0.97841100  0.97330500  0.80993500  1
  F  F30  1  0.52158900  0.97330500  0.30993500  1
  F  F31  1  0.02158900  0.02669500  0.19006500  1
  F  F32  1  0.45145600  0.37564500  0.56437400  1
  F  F33  1  0.95145600  0.62435500  0.93562600  1
  F  F34  1  0.54854400  0.62435500  0.43562600  1
  F  F35  1  0.04854400  0.37564500  0.06437400  1
  F  F36  1  0.45347100  0.12548700  0.94933600  1
  F  F37  1  0.95347100  0.87451300  0.55066400  1
  F  F38  1  0.54652900  0.87451300  0.05066400  1
  F  F39  1  0.04652900  0.12548700  0.44933600  1
  F  F40  1  0.48977700  0.46202300  0.82174300  1
  F  F41  1  0.98977700  0.53797700  0.67825700  1
  F  F42  1  0.51022300  0.53797700  0.17825700  1
  F  F43  1  0.01022300  0.46202300  0.32174300  1
  F  F44  1  0.33383300  0.31562900  0.43519100  1
  F  F45  1  0.83383300  0.68437100  0.06480900  1
  F  F46  1  0.66616700  0.68437100  0.56480900  1
  F  F47  1  0.16616700  0.31562900  0.93519100  1
  F  F48  1  0.31770700  0.26473300  0.13230400  1
  F  F49  1  0.81770700  0.73526700  0.36769600  1
  F  F50  1  0.68229300  0.73526700  0.86769600  1
  F  F51  1  0.18229300  0.26473300  0.63230400  1
  F  F52  1  0.24496700  0.33521900  0.31604500  1
  F  F53  1  0.74496700  0.66478100  0.18395500  1
  F  F54  1  0.75503300  0.66478100  0.68395500  1
  F  F55  1  0.25503300  0.33521900  0.81604500  1
  F  F56  1  0.24043900  0.04449200  0.24480900  1
  F  F57  1  0.74043900  0.95550800  0.25519100  1
  F  F58  1  0.75956100  0.95550800  0.75519100  1
  F  F59  1  0.25956100  0.04449200  0.74480900  1
loop_
_geom_bond_atom_site_label_1
_geom_bond_atom_site_label_2
_geom_bond_distance
_geom_bond_site_symmetry_2
Cs0 F34 3.114728 1_555
Cs0 F22 3.138369 1_565
Cs0 F2 3.182686 1_565
Cs0 F38 3.197962 1_556
Cs0 F28 3.205900 1_565
Cs0 F30 3.231696 1_555
Cs0 F46 3.329748 1_555
Cs0 F40 3.347095 1_555
Cs0 F14 3.510111 1_555
Cs0 F50 3.519116 1_555
Cs1 F35 3.114728 1_556
Cs1 F23 3.138369 1_545
Cs1 F3 3.182686 1_546
Cs1 F39 3.197962 1_555
Cs1 F29 3.205900 1_445
Cs1 F31 3.231696 1_556
Cs1 F47 3.329748 1_555
Cs1 F41 3.347095 1_455
Cs1 F15 3.510111 1_555
Cs1 F51 3.519116 1_555
Cs2 F32 3.114728 1_555
Cs2 F20 3.138369 1_545
Cs2 F0 3.182686 1_545
Cs2 F36 3.197962 1_554
Cs2 F30 3.205900 1_545
Cs2 F28 3.231696 1_555
Cs2 F44 3.329748 1_555
Cs2 F42 3.347095 1_555
Cs2 F12 3.510111 1_555
Cs2 F48 3.519116 1_555
Cs3 F33 3.114728 1_554
Cs3 F21 3.138369 1_565
Cs3 F1 3.182686 1_564
Cs3 F37 3.197962 1_555
Cs3 F31 3.205900 1_665
Cs3 F29 3.231696 1_554
Cs3 F45 3.329748 1_555
Cs3 F43 3.347095 1_655
Cs3 F13 3.510111 1_555
Cs3 F49 3.519116 1_555
F0 Sb0 2.019968 1_555
F1 Sb1 2.019968 1_555
F2 Sb2 2.019968 1_555
F3 Sb3 2.019968 1_555
F4 Sb0 1.983263 1_555
F4 Rb6 2.928186 1_555
F4 Rb0 3.125142 1_555
F5 Sb1 1.983263 1_555
F5 Rb7 2.928186 1_555
F5 Rb1 3.125142 1_555
F6 Sb2 1.983263 1_555
F6 Rb4 2.928186 1_555
F6 Rb2 3.125142 1_555
F7 Sb3 1.983263 1_555
F7 Rb5 2.928186 1_555
F7 Rb3 3.125142 1_555
F8 Sb0 1.980014 1_555
F8 Rb6 2.847860 1_565
F8 Rb0 3.292663 1_555
F9 Sb1 1.980014 1_555
F9 Rb7 2.847860 1_545
F9 Rb1 3.292663 1_555
F10 Sb2 1.980014 1_555
F10 Rb4 2.847860 1_545
F10 Rb2 3.292663 1_555
F11 Sb3 1.980014 1_555
F11 Rb5 2.847860 1_565
F11 Rb3 3.292663 1_555
F12 Sb4 2.252132 1_555
F12 Sb0 2.338738 1_554
F13 Sb5 2.252132 1_555
F13 Sb1 2.338738 1_555
F14 Sb6 2.252132 1_555
F14 Sb2 2.338738 1_556
F15 Sb7 2.252132 1_555
F15 Sb3 2.338738 1_555
F16 Sb4 1.969557 1_555
F16 Rb0 2.796188 1_554
F16 Rb3 3.017087 1_555
F17 Sb5 1.969557 1_555
F17 Rb1 2.796188 1_555
F17 Rb2 3.017087 1_555
F18 Sb6 1.969557 1_555
F18 Rb2 2.796188 1_556
F18 Rb1 3.017087 1_555
F19 Sb7 1.969557 1_555
F19 Rb3 2.796188 1_555
F19 Rb0 3.017087 1_555
F20 Sb4 1.992106 1_555
F20 Rb6 2.962163 1_564
F21 Sb5 1.992106 1_555
F21 Rb7 2.962163 1_545
F22 Sb6 1.992106 1_555
F22 Rb4 2.962163 1_546
F23 Sb7 1.992106 1_555
F23 Rb5 2.962163 1_565
F24 Sb4 2.029644 1_555
F24 Rb0 2.926905 1_555
F24 Rb3 3.057496 1_555
F25 Sb5 2.029644 1_556
F25 Rb1 2.926905 1_555
F25 Rb2 3.057496 1_556
F26 Sb6 2.029644 1_555
F26 Rb2 2.926905 1_555
F26 Rb1 3.057496 1_555
F27 Sb7 2.029644 1_554
F27 Rb3 2.926905 1_555
F27 Rb0 3.057496 1_554
F28 Sb8 2.108436 1_555
F29 Sb9 2.108436 1_555
F30 Sb10 2.108436 1_555
F31 Sb11 2.108436 1_555
F32 Sb8 1.968499 1_555
F33 Sb9 1.968499 1_555
F34 Sb10 1.968499 1_555
F35 Sb11 1.968499 1_555
F36 Sb8 1.982860 1_555
F36 Rb6 3.095231 1_555
F37 Sb9 1.982860 1_555
F37 Rb7 3.095231 1_555
F38 Sb10 1.982860 1_555
F38 Rb4 3.095231 1_555
F39 Sb11 1.982860 1_555
F39 Rb5 3.095231 1_555
F40 Sb8 2.073508 1_555
F41 Sb9 2.073508 1_555
F42 Sb10 2.073508 1_555
F43 Sb11 2.073508 1_555
F44 Sb12 2.147641 1_555
F44 Sb4 2.615032 1_555
F44 Rb6 3.022504 1_555
F45 Sb13 2.147641 1_555
F45 Sb5 2.615032 1_555
F45 Rb7 3.022504 1_554
F46 Sb14 2.147641 1_555
F46 Sb6 2.615032 1_555
F46 Rb4 3.022504 1_555
F47 Sb15 2.147641 1_555
F47 Sb7 2.615032 1_555
F47 Rb5 3.022504 1_556
F48 Sb12 1.967339 1_555
F48 Rb6 2.940214 1_554
F48 Rb0 3.049822 1_554
F49 Sb13 1.967339 1_555
F49 Rb7 2.940214 1_555
F49 Rb1 3.049822 1_555
F50 Sb14 1.967339 1_555
F50 Rb4 2.940214 1_556
F50 Rb2 3.049822 1_556
F51 Sb15 1.967339 1_555
F51 Rb5 2.940214 1_555
F51 Rb3 3.049822 1_555
F52 Sb12 1.962393 1_555
F52 Rb3 2.815024 1_555
F52 Rb5 3.057186 1_555
F53 Sb13 1.962393 1_555
F53 Rb2 2.815024 1_555
F53 Rb4 3.057186 1_555
F54 Sb14 1.962393 1_555
F54 Rb1 2.815024 1_555
F54 Rb7 3.057186 1_555
F55 Sb15 1.962393 1_555
F55 Rb0 2.815024 1_555
F55 Rb6 3.057186 1_555
F56 Sb12 2.096759 1_555
F56 Rb3 3.037253 1_545
F56 Rb5 3.094254 1_555
F57 Sb13 2.096759 1_555
F57 Rb2 3.037253 1_565
F57 Rb4 3.094254 1_555
F58 Sb14 2.096759 1_555
F58 Rb1 3.037253 1_565
F58 Rb7 3.094254 1_555
F59 Sb15 2.096759 1_555
F59 Rb0 3.037253 1_545
F59 Rb6 3.094254 1_555
