# generated using pymatgen
data_YScHg2
_symmetry_space_group_name_H-M   'P 1'
_cell_length_a   12.59696919
_cell_length_b   12.59696919
_cell_length_c   12.59696919
_cell_angle_alpha   123.19916761
_cell_angle_beta   116.32922531
_cell_angle_gamma   90.51111504
_symmetry_Int_Tables_number   1
_chemical_formula_structural   YScHg2
_chemical_formula_sum   'Y1 Sc1 Hg2'
_cell_volume   1412.12689128
_cell_formula_units_Z   1
loop_
 _symmetry_equiv_pos_site_id
 _symmetry_equiv_pos_as_xyz
  1  'x, y, z'
loop_
 _atom_site_type_symbol
 _atom_site_label
 _atom_site_symmetry_multiplicity
 _atom_site_fract_x
 _atom_site_fract_y
 _atom_site_fract_z
 _atom_site_occupancy
  Y  Y0  1  0.00000000  0.50000000  0.50000000  1
  Sc  Sc0  1  0.00000000  0.00000000  0.00000000  1
  Hg  Hg0  1  0.00000000  0.24217200  0.24217200  1
  Hg  Hg1  1  0.00000000  0.75782800  0.75782800  1
loop_
_geom_bond_atom_site_label_1
_geom_bond_atom_site_label_2
_geom_bond_distance
_geom_bond_site_symmetry_2
Hg0 Sc0 2.901949 1_555
Hg0 Y0 3.089555 1_555
Hg1 Sc0 2.901949 1_566
Hg1 Y0 3.089555 1_555
