# generated using pymatgen
data_Mg2VWO6
_symmetry_space_group_name_H-M   'P 1'
_cell_length_a   5.17557641
_cell_length_b   7.63410928
_cell_length_c   5.59915311
_cell_angle_alpha   94.84222299
_cell_angle_beta   90.26563826
_cell_angle_gamma   90.52582839
_symmetry_Int_Tables_number   1
_chemical_formula_structural   Mg2VWO6
_chemical_formula_sum   'Mg4 V2 W2 O12'
_cell_volume   220.42555573
_cell_formula_units_Z   2
loop_
 _symmetry_equiv_pos_site_id
 _symmetry_equiv_pos_as_xyz
  1  'x, y, z'
loop_
 _atom_site_type_symbol
 _atom_site_label
 _atom_site_symmetry_multiplicity
 _atom_site_fract_x
 _atom_site_fract_y
 _atom_site_fract_z
 _atom_site_occupancy
  Mg  Mg0  1  0.51227000  0.28341600  0.92656600  1
  Mg  Mg1  1  0.01240900  0.78369300  0.42618500  1
  Mg  Mg2  1  0.01263700  0.27861500  0.41976100  1
  Mg  Mg3  1  0.51268100  0.77875000  0.91974400  1
  V  V0  1  0.51360400  0.99090900  0.50932900  1
  V  V1  1  0.01364400  0.49091300  0.00860600  1
  W  W0  1  0.51354200  0.48844400  0.51250100  1
  W  W1  1  0.01347700  0.98832400  0.01247900  1
  O  O0  1  0.21735400  0.40430200  0.70100900  1
  O  O1  1  0.71732900  0.90493200  0.20107800  1
  O  O2  1  0.33068100  0.04169200  0.85255500  1
  O  O3  1  0.83080700  0.54210500  0.35261600  1
  O  O4  1  0.87558000  0.23646200  0.04615400  1
  O  O5  1  0.37629200  0.73680500  0.54573700  1
  O  O6  1  0.31483800  0.40450800  0.21071700  1
  O  O7  1  0.81424800  0.90468400  0.71012200  1
  O  O8  1  0.17713100  0.03960800  0.34753800  1
  O  O9  1  0.67579600  0.53944800  0.84726900  1
  O  O10  1  0.64894900  0.23549900  0.54429000  1
  O  O11  1  0.14975100  0.73611300  0.04415200  1
loop_
_geom_bond_atom_site_label_1
_geom_bond_atom_site_label_2
_geom_bond_distance
_geom_bond_site_symmetry_2
Mg0 O4 2.038070 1_556
Mg0 O6 2.052828 1_556
Mg0 O2 2.072623 1_555
Mg0 O9 2.203049 1_555
Mg0 O0 2.231854 1_555
Mg0 O10 2.258811 1_555
Mg1 O5 2.040632 1_555
Mg1 O7 2.053553 1_455
Mg1 O3 2.071448 1_455
Mg1 O8 2.203577 1_565
Mg1 O1 2.232193 1_455
Mg1 O11 2.258419 1_555
Mg2 O8 2.030924 1_555
Mg2 O10 2.043792 1_455
Mg2 O0 2.057638 1_555
Mg2 O4 2.202523 1_455
Mg2 O6 2.217943 1_555
Mg2 O3 2.287417 1_455
Mg3 O9 2.030051 1_555
Mg3 O11 2.039274 1_556
Mg3 O1 2.059308 1_556
Mg3 O5 2.203430 1_555
Mg3 O7 2.217623 1_555
Mg3 O2 2.284093 1_565
O0 W0 1.996990 1_555
O0 V1 2.086242 1_556
O1 W1 1.995066 1_655
O1 V0 2.088005 1_555
O2 W1 1.930277 1_546
O2 V0 2.153519 1_545
O3 W0 1.930982 1_555
O3 V1 2.157522 1_655
O4 W1 2.024623 1_645
O4 V1 2.091170 1_655
O5 W0 2.024963 1_555
O5 V0 2.086254 1_555
O6 W0 2.027910 1_555
O6 V1 2.067437 1_555
O7 W1 2.031308 1_656
O7 V0 2.060571 1_555
O8 V0 2.011365 1_545
O8 W1 2.060443 1_545
O9 V1 2.016070 1_656
O9 W0 2.055828 1_555
O10 V0 1.982058 1_545
O10 W0 2.081663 1_555
O11 V1 1.987809 1_555
O11 W1 2.077858 1_555
