# generated using pymatgen
data_Sc7As3
_symmetry_space_group_name_H-M   'P 1'
_cell_length_a   10.98177299
_cell_length_b   10.98177307
_cell_length_c   10.98101771
_cell_angle_alpha   97.68901649
_cell_angle_beta   97.68901613
_cell_angle_gamma   137.08765473
_symmetry_Int_Tables_number   1
_chemical_formula_structural   Sc7As3
_chemical_formula_sum   'Sc28 As12'
_cell_volume   839.20628213
_cell_formula_units_Z   4
loop_
 _symmetry_equiv_pos_site_id
 _symmetry_equiv_pos_as_xyz
  1  'x, y, z'
loop_
 _atom_site_type_symbol
 _atom_site_label
 _atom_site_symmetry_multiplicity
 _atom_site_fract_x
 _atom_site_fract_y
 _atom_site_fract_z
 _atom_site_occupancy
  Sc  Sc0  1  0.13651593  0.63651594  0.16387326  1
  Sc  Sc1  1  0.47264301  0.97264302  0.83612559  1
  Sc  Sc2  1  0.97262302  0.13648988  0.49998799  1
  Sc  Sc3  1  0.63648988  0.47262301  0.49998799  1
  Sc  Sc4  1  0.86348407  0.36348406  0.83612674  1
  Sc  Sc5  1  0.52735699  0.02735698  0.16387441  1
  Sc  Sc6  1  0.02737698  0.86351012  0.50001201  1
  Sc  Sc7  1  0.36351012  0.52737699  0.50001201  1
  Sc  Sc8  1  0.62534266  0.61921087  0.24452633  1
  Sc  Sc9  1  0.37465734  0.38078913  0.75547367  1
  Sc  Sc10  1  0.87466734  0.11921524  0.99385515  1
  Sc  Sc11  1  0.12533266  0.88078476  0.00614485  1
  Sc  Sc12  1  0.61921528  0.37466738  0.99385517  1
  Sc  Sc13  1  0.38078472  0.62533262  0.00614483  1
  Sc  Sc14  1  0.11921080  0.12534271  0.24452635  1
  Sc  Sc15  1  0.88078920  0.87465729  0.75547365  1
  Sc  Sc16  1  0.51923649  0.82811487  0.34734123  1
  Sc  Sc17  1  0.48076351  0.17188513  0.65265877  1
  Sc  Sc18  1  0.98079465  0.32814573  0.30890218  1
  Sc  Sc19  1  0.01920535  0.67185427  0.69109782  1
  Sc  Sc20  1  0.82814579  0.48079463  0.30890219  1
  Sc  Sc21  1  0.17185421  0.51920537  0.69109781  1
  Sc  Sc22  1  0.32811485  0.01923652  0.34734125  1
  Sc  Sc23  1  0.67188515  0.98076348  0.65265875  1
  Sc  Sc24  1  0.25000369  0.24999625  0.00000000  1
  Sc  Sc25  1  0.74999631  0.75000375  -0.00000000  1
  Sc  Sc26  1  0.74995428  0.24995427  0.50003631  1
  Sc  Sc27  1  0.25004572  0.75004573  0.49996369  1
  As  As0  1  0.25000002  0.44436347  0.19436544  1
  As  As1  1  0.24997170  0.05562107  0.80562260  1
  As  As2  1  0.75002830  0.94437893  0.19437740  1
  As  As3  1  0.74999998  0.55563653  0.80563456  1
  As  As4  1  0.44437891  0.25002829  0.19437739  1
  As  As5  1  0.05563653  0.24999998  0.80563457  1
  As  As6  1  0.94436347  0.75000002  0.19436543  1
  As  As7  1  0.55562109  0.74997171  0.80562261  1
  As  As8  1  0.22032487  0.72032486  0.94060591  1
  As  As9  1  0.77967513  0.27967514  0.05939409  1
  As  As10  1  0.27968793  0.22031207  0.49999999  1
  As  As11  1  0.72031207  0.77968793  0.50000001  1
loop_
_geom_bond_atom_site_label_1
_geom_bond_atom_site_label_2
_geom_bond_distance
_geom_bond_site_symmetry_2
Sc0 Sc27 3.462661 1_555
Sc1 Sc27 3.463424 1_555
Sc2 Sc26 3.463438 1_555
Sc16 Sc27 3.206356 1_555
Sc16 Sc26 3.206751 1_565
Sc17 Sc26 3.206356 1_555
Sc17 Sc27 3.206751 1_545
Sc18 Sc27 3.206704 1_655
Sc18 Sc26 3.207241 1_555
Sc19 Sc26 3.206704 1_455
Sc19 Sc27 3.207241 1_555
Sc20 Sc27 3.206703 1_655
Sc20 Sc26 3.207241 1_555
Sc21 Sc26 3.206703 1_455
Sc21 Sc27 3.207241 1_555
Sc22 Sc27 3.206356 1_545
Sc22 Sc26 3.206751 1_555
Sc23 Sc26 3.206356 1_565
Sc23 Sc27 3.206751 1_555
Sc26 Sc4 3.462661 1_555
Sc26 Sc5 3.463424 1_555
Sc26 Sc3 3.463438 1_555
Sc27 Sc6 3.463438 1_555
Sc27 Sc7 3.463438 1_555
As0 Sc18 2.801512 1_455
As0 Sc16 2.801564 1_555
As0 Sc24 2.809362 1_555
As0 Sc13 2.827860 1_555
As0 Sc14 2.828001 1_555
As0 Sc10 2.914862 1_454
As0 Sc8 2.914912 1_555
As0 Sc7 3.169681 1_555
As0 Sc0 3.169803 1_555
As1 Sc17 2.801475 1_555
As1 Sc19 2.801748 1_545
As1 Sc24 2.809248 1_556
As1 Sc15 2.827997 1_445
As1 Sc12 2.828322 1_555
As1 Sc9 2.914694 1_555
As1 Sc11 2.914923 1_546
As1 Sc6 3.169328 1_545
As1 Sc1 3.169963 1_545
As2 Sc16 2.801475 1_555
As2 Sc18 2.801748 1_565
As2 Sc25 2.809248 1_555
As2 Sc14 2.827997 1_665
As2 Sc13 2.828322 1_555
As2 Sc8 2.914694 1_555
As2 Sc10 2.914923 1_564
As2 Sc2 3.169328 1_565
As2 Sc5 3.169963 1_565
As3 Sc19 2.801512 1_655
As3 Sc17 2.801564 1_555
As3 Sc25 2.809362 1_556
As3 Sc12 2.827860 1_555
As3 Sc15 2.828001 1_555
As3 Sc11 2.914862 1_656
As3 Sc9 2.914912 1_555
As3 Sc3 3.169681 1_555
As3 Sc4 3.169803 1_555
As4 Sc22 2.801474 1_555
As4 Sc20 2.801748 1_555
As4 Sc24 2.809248 1_555
As4 Sc8 2.827998 1_555
As4 Sc11 2.828322 1_545
As4 Sc14 2.914695 1_555
As4 Sc12 2.914923 1_554
As4 Sc3 3.169328 1_555
As4 Sc5 3.169964 1_555
As5 Sc21 2.801513 1_555
As5 Sc23 2.801564 1_445
As5 Sc24 2.809362 1_556
As5 Sc10 2.827860 1_455
As5 Sc9 2.828002 1_555
As5 Sc13 2.914862 1_556
As5 Sc15 2.914912 1_445
As5 Sc2 3.169681 1_455
As5 Sc4 3.169803 1_455
As6 Sc20 2.801513 1_555
As6 Sc22 2.801564 1_665
As6 Sc25 2.809362 1_555
As6 Sc11 2.827860 1_655
As6 Sc8 2.828002 1_555
As6 Sc12 2.914862 1_554
As6 Sc14 2.914912 1_665
As6 Sc6 3.169681 1_655
As6 Sc0 3.169803 1_655
As7 Sc23 2.801474 1_555
As7 Sc21 2.801748 1_555
As7 Sc25 2.809248 1_556
As7 Sc9 2.827998 1_555
As7 Sc10 2.828322 1_565
As7 Sc15 2.914695 1_555
As7 Sc13 2.914923 1_556
As7 Sc7 3.169328 1_555
As7 Sc1 3.169964 1_555
As8 Sc1 2.669634 1_555
As8 Sc4 2.670031 1_455
As8 Sc13 2.695451 1_556
As8 Sc11 2.695451 1_556
As8 Sc5 2.769728 1_566
As8 Sc0 2.769809 1_556
As8 Sc21 2.989417 1_555
As8 Sc19 2.989418 1_555
As9 Sc5 2.669634 1_555
As9 Sc0 2.670031 1_655
As9 Sc12 2.695451 1_554
As9 Sc10 2.695451 1_554
As9 Sc1 2.769728 1_544
As9 Sc4 2.769809 1_554
As9 Sc20 2.989417 1_555
As9 Sc18 2.989418 1_555
As10 Sc3 2.669777 1_555
As10 Sc6 2.669777 1_545
As10 Sc14 2.695438 1_555
As10 Sc9 2.695439 1_555
As10 Sc2 2.769752 1_455
As10 Sc7 2.769752 1_555
As10 Sc22 2.989506 1_555
As10 Sc17 2.989506 1_555
As11 Sc7 2.669777 1_555
As11 Sc2 2.669777 1_565
As11 Sc15 2.695438 1_555
As11 Sc8 2.695439 1_555
As11 Sc6 2.769752 1_655
As11 Sc3 2.769752 1_555
As11 Sc23 2.989506 1_555
As11 Sc16 2.989506 1_555
