# generated using pymatgen
data_La5Sm3V2Cr6O20
_symmetry_space_group_name_H-M   'P 1'
_cell_length_a   11.12605185
_cell_length_b   11.30543278
_cell_length_c   17.91450954
_cell_angle_alpha   108.38005645
_cell_angle_beta   109.10958294
_cell_angle_gamma   89.96770801
_symmetry_Int_Tables_number   1
_chemical_formula_structural   La5Sm3V2Cr6O20
_chemical_formula_sum   'La20 Sm12 V8 Cr24 O80'
_cell_volume   2007.29314112
_cell_formula_units_Z   4
loop_
 _symmetry_equiv_pos_site_id
 _symmetry_equiv_pos_as_xyz
  1  'x, y, z'
loop_
 _atom_site_type_symbol
 _atom_site_label
 _atom_site_symmetry_multiplicity
 _atom_site_fract_x
 _atom_site_fract_y
 _atom_site_fract_z
 _atom_site_occupancy
  La  La0  1  0.31413289  0.05686293  0.62518962  1
  La  La1  1  0.29968370  0.56038437  0.61882136  1
  La  La2  1  0.81570279  0.06037310  0.62110650  1
  La  La3  1  0.81235823  0.56124522  0.61918751  1
  La  La4  1  0.18757607  0.43690172  0.37888513  1
  La  La5  1  0.19935548  0.43719103  0.87915855  1
  La  La6  1  0.18970827  0.94012403  0.38070337  1
  La  La7  1  0.68830307  0.43470980  0.38078641  1
  La  La8  1  0.68712905  0.94115308  0.38116481  1
  La  La9  1  0.05141236  0.31144938  0.12142882  1
  La  La10  1  0.06882084  0.30547879  0.62146133  1
  La  La11  1  0.06217772  0.81890701  0.62346990  1
  La  La12  1  0.54701713  0.31143054  0.62504483  1
  La  La13  1  0.44288517  0.18875468  0.37928429  1
  La  La14  1  0.44926693  0.18219094  0.87376977  1
  La  La15  1  0.44303459  0.69244693  0.38112569  1
  La  La16  1  0.43173818  0.67444140  0.87479493  1
  La  La17  1  0.92730135  0.19246861  0.37841032  1
  La  La18  1  0.95639748  0.18690610  0.87808495  1
  La  La19  1  0.94299735  0.68943116  0.38019679  1
  Sm  Sm0  1  0.29603099  0.06079720  0.11206148  1
  Sm  Sm1  1  0.29167529  0.56257954  0.11498764  1
  Sm  Sm2  1  0.79077827  0.05842361  0.11680309  1
  Sm  Sm3  1  0.80105378  0.56307991  0.11942652  1
  Sm  Sm4  1  0.19664718  0.94332936  0.88097411  1
  Sm  Sm5  1  0.71317298  0.43668847  0.88564697  1
  Sm  Sm6  1  0.70094011  0.94037445  0.87685489  1
  Sm  Sm7  1  0.04481553  0.80763277  0.11784013  1
  Sm  Sm8  1  0.54835764  0.30592448  0.11543008  1
  Sm  Sm9  1  0.54004317  0.81110124  0.12151873  1
  Sm  Sm10  1  0.55786594  0.81914103  0.62478918  1
  Sm  Sm11  1  0.95184031  0.69882632  0.88555474  1
  V  V0  1  0.11433755  0.63531125  0.75085358  1
  V  V1  1  0.62551813  0.12675318  0.75169417  1
  V  V2  1  0.61026153  0.62228753  0.75213010  1
  V  V3  1  0.37202598  0.39021385  0.24563869  1
  V  V4  1  0.36540933  0.36331101  0.75166801  1
  V  V5  1  0.37554566  0.85694663  0.75243958  1
  V  V6  1  0.86084269  0.38088759  0.75164947  1
  V  V7  1  0.85421183  0.88412121  0.24807141  1
  Cr  Cr0  1  0.00247340  0.00091584  0.00075080  1
  Cr  Cr1  1  0.00136982  0.99765807  0.49778794  1
  Cr  Cr2  1  0.00050757  0.50338083  0.00112879  1
  Cr  Cr3  1  0.99945011  0.50181028  0.49923043  1
  Cr  Cr4  1  0.50625561  0.99033759  0.99719661  1
  Cr  Cr5  1  0.50093722  -0.00039981  0.50148946  1
  Cr  Cr6  1  0.50463078  0.50070905  0.00141711  1
  Cr  Cr7  1  0.50258756  0.50127683  0.50416474  1
  Cr  Cr8  1  0.25805493  0.25066468  0.00099162  1
  Cr  Cr9  1  0.24873776  0.24802256  0.49844602  1
  Cr  Cr10  1  0.25018010  0.75159483  0.00089291  1
  Cr  Cr11  1  0.25305288  0.74809613  0.49902331  1
  Cr  Cr12  1  0.75262701  0.24828901  0.00052445  1
  Cr  Cr13  1  0.75287061  0.25106783  0.50625912  1
  Cr  Cr14  1  0.74715405  0.75003727  0.99866910  1
  Cr  Cr15  1  0.75042749  0.75003522  0.50021549  1
  Cr  Cr16  1  0.12016701  0.12594281  0.24787480  1
  Cr  Cr17  1  0.13584778  0.13703249  0.75071721  1
  Cr  Cr18  1  0.11978488  0.63124671  0.24921981  1
  Cr  Cr19  1  0.60995594  0.12906724  0.24257739  1
  Cr  Cr20  1  0.62164715  0.63037444  0.24724126  1
  Cr  Cr21  1  0.36298545  0.87642097  0.24861289  1
  Cr  Cr22  1  0.86040464  0.37233155  0.24648728  1
  Cr  Cr23  1  0.88097670  0.86884794  0.75012542  1
  O  O0  1  0.10806565  0.11313239  0.47122719  1
  O  O1  1  0.13296515  0.09533619  0.97860283  1
  O  O2  1  0.11626221  0.61228597  0.47704204  1
  O  O3  1  0.12393658  0.60230559  0.97297941  1
  O  O4  1  0.61464769  0.10987102  0.47873879  1
  O  O5  1  0.63649885  0.09281517  0.97688964  1
  O  O6  1  0.61850733  0.61379277  0.47890749  1
  O  O7  1  0.61831902  0.59121303  0.96056814  1
  O  O8  1  0.12340254  0.38268096  0.02742935  1
  O  O9  1  0.13302256  0.38362533  0.52151492  1
  O  O10  1  0.12116522  0.86953393  0.02452794  1
  O  O11  1  0.13784004  0.88232572  0.52322843  1
  O  O12  1  0.62816019  0.37344241  0.02769577  1
  O  O13  1  0.64085143  0.38746022  0.54002260  1
  O  O14  1  0.63052149  0.87432442  0.03930819  1
  O  O15  1  0.63564004  0.88252214  0.52806509  1
  O  O16  1  0.36356005  0.11279637  0.47758570  1
  O  O17  1  0.37566812  0.09976826  0.96032748  1
  O  O18  1  0.36055824  0.60936398  0.47079936  1
  O  O19  1  0.37834718  0.62811423  0.98131758  1
  O  O20  1  0.86442786  0.10869177  0.47683945  1
  O  O21  1  0.87675115  0.12315965  0.97078124  1
  O  O22  1  0.86400738  0.61509801  0.47391875  1
  O  O23  1  0.87656885  0.62591081  0.97310569  1
  O  O24  1  0.38493406  0.41139583  0.03417985  1
  O  O25  1  0.38296543  0.39197242  0.52885131  1
  O  O26  1  0.37410540  0.90099425  0.02465171  1
  O  O27  1  0.39008714  0.88538410  0.52507858  1
  O  O28  1  0.87021013  0.40694965  0.02495328  1
  O  O29  1  0.88432252  0.39431167  0.52229006  1
  O  O30  1  0.87427036  0.90920382  0.02741776  1
  O  O31  1  0.88595675  0.88834427  0.52212028  1
  O  O32  1  0.08901039  0.10560381  0.12412856  1
  O  O33  1  0.07609146  0.09352866  0.62347126  1
  O  O34  1  0.08444963  0.61035778  0.12449894  1
  O  O35  1  0.06871457  0.60694883  0.62278723  1
  O  O36  1  0.57509469  0.10653938  0.11890702  1
  O  O37  1  0.56619365  0.10211806  0.62424116  1
  O  O38  1  0.59565777  0.61528065  0.12380567  1
  O  O39  1  0.59556749  0.62924629  0.64390527  1
  O  O40  1  0.45204137  0.38410097  0.36379730  1
  O  O41  1  0.41729890  0.39531544  0.88057157  1
  O  O42  1  0.43771492  0.89910254  0.37564427  1
  O  O43  1  0.47364307  0.87810628  0.87834136  1
  O  O44  1  0.94065007  0.40006749  0.37393117  1
  O  O45  1  0.92565602  0.39467461  0.87806442  1
  O  O46  1  0.93724846  0.89565035  0.37302671  1
  O  O47  1  0.94880721  0.90031307  0.87569777  1
  O  O48  1  0.34133046  0.26675796  0.12577666  1
  O  O49  1  0.31437737  0.26669715  0.62193149  1
  O  O50  1  0.33008721  0.76898034  0.12460562  1
  O  O51  1  0.32952590  0.76936284  0.62228311  1
  O  O52  1  0.83248115  0.26314128  0.12347779  1
  O  O53  1  0.87018936  0.27460022  0.64327943  1
  O  O54  1  0.85669267  0.76626472  0.13851689  1
  O  O55  1  0.82817933  0.77473131  0.62489210  1
  O  O56  1  0.19852526  0.22753737  0.37429731  1
  O  O57  1  0.17389340  0.22892118  0.87494324  1
  O  O58  1  0.18379382  0.72924002  0.37541040  1
  O  O59  1  0.18912818  0.73749897  0.87884715  1
  O  O60  1  0.68939701  0.22080462  0.36720904  1
  O  O61  1  0.67672196  0.23212863  0.87899802  1
  O  O62  1  0.67908565  0.72795665  0.37491640  1
  O  O63  1  0.72662970  0.73458740  0.85608383  1
  O  O64  1  0.41461411  0.06744916  0.24260056  1
  O  O65  1  0.46157563  0.02390444  0.74838743  1
  O  O66  1  0.42549826  0.56743230  0.24245148  1
  O  O67  1  0.45124381  0.53062206  0.74373319  1
  O  O68  1  0.92126023  0.05712922  0.24630556  1
  O  O69  1  0.95846430  0.04937036  0.74640450  1
  O  O70  1  0.92425072  0.55969401  0.24580240  1
  O  O71  1  0.94247085  0.55668798  0.75692972  1
  O  O72  1  0.19270795  0.44443066  0.25075182  1
  O  O73  1  0.20388747  0.47083859  0.75225191  1
  O  O74  1  0.16768988  0.93381571  0.24673410  1
  O  O75  1  0.20947797  0.95058882  0.75583336  1
  O  O76  1  0.66007895  0.43281420  0.24521862  1
  O  O77  1  0.69439984  0.46201389  0.75837750  1
  O  O78  1  0.67603469  0.94291245  0.24848268  1
  O  O79  1  0.70646171  0.95066314  0.74932968  1
loop_
_geom_bond_atom_site_label_1
_geom_bond_atom_site_label_2
_geom_bond_distance
_geom_bond_site_symmetry_2
La0 O49 2.391338 1_555
La0 O65 2.418322 1_555
La0 O11 2.542212 1_545
La0 O27 2.546913 1_545
La0 O33 2.672181 1_555
La0 O37 2.857489 1_555
La1 O51 2.364515 1_555
La1 O67 2.442889 1_555
La1 O25 2.474281 1_555
La1 O9 2.482216 1_555
La1 O35 2.642035 1_555
La2 O69 2.327726 1_555
La2 O53 2.372410 1_555
La2 O31 2.503778 1_545
La2 O15 2.557198 1_545
La2 O33 2.906256 1_655
La3 O55 2.387429 1_555
La3 O71 2.434849 1_555
La3 O13 2.446988 1_555
La3 O29 2.461381 1_555
La3 O39 2.662238 1_555
La3 O35 2.875168 1_655
La3 O6 2.951493 1_555
La3 O22 3.074450 1_555
La4 O72 2.342778 1_555
La4 O56 2.346831 1_555
La4 O18 2.474189 1_555
La4 O2 2.523107 1_555
La4 O44 2.747244 1_455
La5 O57 2.346193 1_555
La5 O73 2.436470 1_555
La5 O3 2.440626 1_555
La5 O41 2.463887 1_555
La5 O19 2.664888 1_555
La6 O74 2.309154 1_555
La6 O58 2.356045 1_555
La6 O16 2.496813 1_565
La6 O0 2.498568 1_565
La7 O76 2.337767 1_555
La7 O60 2.353381 1_555
La7 O6 2.537625 1_555
La7 O22 2.547050 1_555
La7 O40 2.588030 1_555
La7 O29 2.915518 1_555
La8 O78 2.345882 1_555
La8 O62 2.377712 1_555
La8 O20 2.481882 1_565
La8 O4 2.482471 1_565
La9 O72 2.349565 1_555
La9 O32 2.376910 1_555
La9 O8 2.421739 1_555
La9 O52 2.511100 1_455
La9 O28 2.666493 1_455
La9 O21 2.922157 1_454
La10 O33 2.408701 1_555
La10 O53 2.410635 1_455
La10 O73 2.485653 1_555
La10 O9 2.516414 1_555
La10 O29 2.667157 1_455
La10 O49 2.764498 1_555
La11 O35 2.393637 1_555
La11 O75 2.399372 1_555
La11 O11 2.499997 1_555
La11 O31 2.514600 1_455
La11 O55 2.661033 1_455
La11 O33 3.108653 1_565
La12 O37 2.371789 1_555
La12 O13 2.452856 1_555
La12 O25 2.461405 1_555
La12 O77 2.483283 1_555
La12 O49 2.616803 1_555
La13 O64 2.313856 1_555
La13 O40 2.317299 1_555
La13 O4 2.528351 1_555
La13 O16 2.567052 1_555
La13 O56 2.730606 1_555
La13 O60 2.852986 1_555
La14 O17 2.384697 1_555
La14 O41 2.406062 1_555
La14 O65 2.435690 1_555
La14 O61 2.558301 1_555
La14 O5 2.725486 1_555
La15 O42 2.369031 1_555
La15 O66 2.382425 1_555
La15 O18 2.494552 1_555
La15 O6 2.532179 1_555
La15 O62 2.700316 1_555
La15 O58 2.887039 1_555
La15 O15 2.980542 1_555
La15 O27 3.033338 1_555
La16 O43 2.326493 1_555
La16 O19 2.375221 1_555
La16 O67 2.475718 1_555
La16 O7 2.525252 1_555
La16 O59 2.809476 1_555
La17 O68 2.357708 1_555
La17 O44 2.379883 1_555
La17 O20 2.521363 1_555
La17 O0 2.522516 1_655
La17 O60 2.615526 1_555
La17 O29 3.029200 1_555
La18 O45 2.373591 1_555
La18 O69 2.388595 1_555
La18 O21 2.404414 1_555
La18 O57 2.488352 1_655
La18 O1 2.651552 1_655
La19 O70 2.331515 1_555
La19 O46 2.374723 1_555
La19 O22 2.480795 1_555
La19 O2 2.499882 1_655
La19 O62 2.943324 1_555
Cr0 O1 2.012663 1_554
Cr0 O30 2.024369 1_445
Cr0 O21 2.031964 1_454
Cr0 O10 2.039616 1_545
Cr0 O32 2.042359 1_555
Cr0 O47 2.046209 1_444
Cr1 O20 1.989611 1_465
Cr1 O31 2.018467 1_455
Cr1 O0 2.025646 1_565
Cr1 O11 2.032908 1_555
Cr1 O46 2.041015 1_455
Cr1 O33 2.042508 1_565
Cr2 O8 1.983727 1_555
Cr2 O23 2.013853 1_454
Cr2 O45 2.038307 1_454
Cr2 O28 2.042705 1_455
Cr2 O34 2.045404 1_555
Cr2 O3 2.049832 1_554
Cr3 O29 1.988272 1_555
Cr3 O22 2.008363 1_555
Cr3 O2 2.014998 1_655
Cr3 O9 2.024576 1_655
Cr3 O35 2.032513 1_655
Cr3 O44 2.049564 1_555
Cr4 O17 1.990669 1_565
Cr4 O43 2.016464 1_555
Cr4 O14 2.034685 1_556
Cr4 O36 2.041530 1_566
Cr4 O5 2.046291 1_565
Cr4 O26 2.052418 1_556
Cr5 O4 1.995166 1_555
Cr5 O27 2.013502 1_545
Cr5 O37 2.013571 1_555
Cr5 O16 2.017953 1_555
Cr5 O15 2.037829 1_545
Cr5 O42 2.053164 1_545
Cr6 O24 2.006148 1_555
Cr6 O41 2.011930 1_554
Cr6 O19 2.042546 1_554
Cr6 O12 2.045002 1_555
Cr6 O7 2.064490 1_554
Cr6 O38 2.065734 1_555
Cr7 O18 2.046364 1_555
Cr7 O25 2.055689 1_555
Cr7 O6 2.057458 1_555
Cr7 O13 2.075294 1_555
Cr7 O40 2.317023 1_555
Cr7 O39 2.334999 1_555
Cr8 O48 2.067949 1_555
Cr8 O57 2.074127 1_554
Cr8 O1 2.091572 1_554
Cr8 O24 2.102449 1_555
Cr8 O8 2.170853 1_555
Cr8 O17 2.234102 1_554
Cr9 O0 2.011725 1_555
Cr9 O16 2.014696 1_555
Cr9 O25 2.021531 1_555
Cr9 O49 2.029657 1_555
Cr9 O9 2.031049 1_555
Cr9 O56 2.043033 1_555
Cr10 O10 2.014276 1_555
Cr10 O59 2.018686 1_554
Cr10 O3 2.020415 1_554
Cr10 O26 2.024863 1_555
Cr10 O19 2.030198 1_554
Cr10 O50 2.043577 1_555
Cr11 O27 2.007804 1_555
Cr11 O18 2.009986 1_555
Cr11 O2 2.014383 1_555
Cr11 O11 2.020111 1_555
Cr11 O51 2.023093 1_555
Cr11 O58 2.031819 1_555
Cr12 O61 2.007937 1_554
Cr12 O5 2.028104 1_554
Cr12 O52 2.038337 1_555
Cr12 O12 2.039967 1_555
Cr12 O21 2.048550 1_554
Cr12 O28 2.062329 1_555
Cr13 O4 2.041152 1_555
Cr13 O13 2.049419 1_555
Cr13 O29 2.068437 1_555
Cr13 O20 2.073712 1_555
Cr13 O60 2.265373 1_555
Cr13 O53 2.300129 1_555
Cr14 O14 2.039534 1_556
Cr14 O23 2.067949 1_555
Cr14 O7 2.081846 1_555
Cr14 O30 2.108321 1_556
Cr14 O54 2.346650 1_556
Cr14 O63 2.438052 1_555
Cr15 O6 1.984284 1_555
Cr15 O15 2.016735 1_555
Cr15 O22 2.020018 1_555
Cr15 O31 2.025097 1_555
Cr15 O55 2.038833 1_555
Cr15 O62 2.052122 1_555
Cr16 O32 2.064690 1_555
Cr16 O56 2.067958 1_555
Cr16 O74 2.230629 1_545
Cr16 O68 2.334741 1_455
Cr17 O57 2.033896 1_555
Cr17 O33 2.044818 1_555
Cr17 O69 2.176524 1_455
Cr17 O75 2.278852 1_545
Cr18 O58 2.052411 1_555
Cr18 O34 2.072366 1_555
Cr18 O72 2.267108 1_555
Cr18 O70 2.296643 1_455
Cr19 O60 2.022497 1_555
Cr19 O36 2.050695 1_555
Cr19 O78 2.251359 1_545
Cr19 O64 2.282839 1_555
Cr20 O62 2.075907 1_555
Cr20 O38 2.084697 1_555
Cr20 O66 2.262092 1_555
Cr20 O76 2.265109 1_555
Cr21 O50 2.076283 1_555
Cr21 O42 2.080685 1_555
Cr21 O74 2.260050 1_555
Cr21 O64 2.279096 1_565
Cr22 O52 2.076806 1_555
Cr22 O44 2.078983 1_555
Cr22 O70 2.239504 1_555
Cr22 O76 2.326089 1_555
Cr23 O47 2.034873 1_555
Cr23 O55 2.035408 1_555
Cr23 O79 2.148015 1_555
Cr23 O69 2.244621 1_565
O1 Sm4 2.329959 1_545
O1 Sm0 2.628323 1_556
O3 Sm11 2.534133 1_455
O3 Sm1 2.787044 1_556
O5 Sm6 2.363873 1_545
O5 Sm2 2.678969 1_556
O7 Sm5 2.326751 1_555
O8 Sm1 2.484286 1_555
O10 Sm7 2.381997 1_555
O10 Sm0 2.605505 1_565
O10 Sm11 2.715711 1_454
O12 Sm8 2.347842 1_555
O12 Sm3 2.590429 1_555
O14 Sm9 2.308394 1_555
O14 Sm2 2.449418 1_565
O15 Sm10 2.455633 1_555
O17 Sm4 2.383401 1_545
O19 Sm9 2.755629 1_556
O21 Sm6 2.566035 1_545
O23 Sm11 2.348842 1_555
O23 Sm5 2.522263 1_555
O23 Sm7 2.813325 1_656
O24 Sm1 2.348343 1_555
O24 Sm8 2.491139 1_555
O26 Sm0 2.361215 1_565
O26 Sm9 2.542658 1_555
O26 Sm4 2.863705 1_554
O27 Sm10 2.427973 1_555
O28 Sm3 2.353551 1_555
O28 Sm5 2.658446 1_554
O30 Sm2 2.354062 1_565
O30 Sm7 2.588660 1_655
O30 Sm6 2.882937 1_554
O32 Sm0 2.421625 1_555
O34 Sm7 2.305441 1_555
O34 Sm1 2.415446 1_555
O35 V0 2.097092 1_555
O36 Sm8 2.291103 1_555
O36 Sm2 2.469967 1_555
O37 V1 2.083009 1_555
O38 Sm9 2.307528 1_555
O38 Sm3 2.379801 1_555
O39 V2 1.918459 1_555
O39 Sm10 2.295808 1_555
O40 V3 2.033793 1_555
O41 V4 2.096959 1_555
O43 V5 2.093759 1_555
O43 Sm6 2.636216 1_555
O45 V6 2.093144 1_555
O45 Sm5 2.449760 1_555
O46 V7 2.084109 1_555
O47 Sm11 2.338975 1_555
O47 Sm6 2.800183 1_555
O48 V3 2.075045 1_555
O48 Sm0 2.301225 1_555
O48 Sm8 2.422499 1_555
O49 V4 2.110190 1_555
O50 Sm1 2.314451 1_555
O50 Sm9 2.406048 1_555
O51 V5 2.107668 1_555
O51 Sm10 2.585339 1_555
O52 Sm2 2.318726 1_555
O53 V6 1.970942 1_555
O54 V7 2.003561 1_555
O54 Sm3 2.268120 1_555
O54 Sm7 2.314052 1_655
O59 V0 2.089483 1_555
O59 Sm4 2.316377 1_555
O59 Sm11 2.723554 1_455
O61 V1 2.093219 1_555
O61 Sm5 2.307090 1_555
O63 V2 1.920515 1_555
O63 Sm6 2.270629 1_555
O63 Sm11 2.447048 1_555
O64 Sm0 2.254817 1_555
O65 V1 2.137942 1_555
O65 V5 2.148991 1_545
O66 V3 2.113545 1_555
O66 Sm1 2.264743 1_555
O67 V2 1.989043 1_555
O67 V4 2.184165 1_555
O68 V7 2.106958 1_545
O68 Sm2 2.303527 1_555
O70 Sm3 2.242445 1_555
O71 V6 2.147359 1_555
O71 V0 2.158160 1_655
O71 Sm11 2.326046 1_555
O72 V3 2.108884 1_555
O73 V0 2.112287 1_555
O73 V4 2.170092 1_555
O74 Sm7 2.256952 1_555
O75 V5 2.137554 1_555
O75 Sm4 2.319165 1_555
O76 Sm8 2.239489 1_555
O77 V2 2.056562 1_555
O77 V6 2.087964 1_555
O77 Sm5 2.328877 1_555
O78 V7 2.092071 1_555
O78 Sm9 2.301101 1_555
O79 V1 2.178486 1_565
O79 Sm10 2.327561 1_555
O79 Sm6 2.344347 1_555
