# generated using pymatgen
data_Tm3Fe5O12
_symmetry_space_group_name_H-M   'P 1'
_cell_length_a   10.78449657
_cell_length_b   10.78449657
_cell_length_c   10.78449657
_cell_angle_alpha   109.47122063
_cell_angle_beta   109.47122063
_cell_angle_gamma   109.47122063
_symmetry_Int_Tables_number   1
_chemical_formula_structural   Tm3Fe5O12
_chemical_formula_sum   'Tm12 Fe20 O48'
_cell_volume   965.55660643
_cell_formula_units_Z   4
loop_
 _symmetry_equiv_pos_site_id
 _symmetry_equiv_pos_as_xyz
  1  'x, y, z'
loop_
 _atom_site_type_symbol
 _atom_site_label
 _atom_site_symmetry_multiplicity
 _atom_site_fract_x
 _atom_site_fract_y
 _atom_site_fract_z
 _atom_site_occupancy
  Tm  Tm0  1  0.25000000  0.37500000  0.12500000  1
  Tm  Tm1  1  0.75000000  0.62500000  0.87500000  1
  Tm  Tm2  1  0.75000000  0.12500000  0.37500000  1
  Tm  Tm3  1  0.12500000  0.25000000  0.37500000  1
  Tm  Tm4  1  0.37500000  0.75000000  0.12500000  1
  Tm  Tm5  1  0.25000000  0.87500000  0.62500000  1
  Tm  Tm6  1  0.87500000  0.75000000  0.62500000  1
  Tm  Tm7  1  0.62500000  0.25000000  0.87500000  1
  Tm  Tm8  1  0.37500000  0.12500000  0.25000000  1
  Tm  Tm9  1  0.62500000  0.87500000  0.75000000  1
  Tm  Tm10  1  0.12500000  0.37500000  0.75000000  1
  Tm  Tm11  1  0.87500000  0.62500000  0.25000000  1
  Fe  Fe0  1  0.25000000  0.62500000  0.37500000  1
  Fe  Fe1  1  0.75000000  0.37500000  0.62500000  1
  Fe  Fe2  1  0.75000000  0.87500000  0.12500000  1
  Fe  Fe3  1  0.37500000  0.25000000  0.62500000  1
  Fe  Fe4  1  0.62500000  0.75000000  0.37500000  1
  Fe  Fe5  1  0.25000000  0.12500000  0.87500000  1
  Fe  Fe6  1  0.12500000  0.75000000  0.87500000  1
  Fe  Fe7  1  0.87500000  0.25000000  0.12500000  1
  Fe  Fe8  1  0.62500000  0.37500000  0.25000000  1
  Fe  Fe9  1  0.37500000  0.62500000  0.75000000  1
  Fe  Fe10  1  0.87500000  0.12500000  0.75000000  1
  Fe  Fe11  1  0.12500000  0.87500000  0.25000000  1
  Fe  Fe12  1  0.00000000  0.00000000  0.00000000  1
  Fe  Fe13  1  0.50000000  0.00000000  0.50000000  1
  Fe  Fe14  1  0.00000000  0.50000000  0.50000000  1
  Fe  Fe15  1  0.50000000  0.00000000  0.00000000  1
  Fe  Fe16  1  0.50000000  0.50000000  0.00000000  1
  Fe  Fe17  1  0.50000000  0.50000000  0.50000000  1
  Fe  Fe18  1  0.00000000  0.00000000  0.50000000  1
  Fe  Fe19  1  0.00000000  0.50000000  0.00000000  1
  O  O0  1  0.46597800  0.37291900  0.28941400  1
  O  O1  1  0.53402200  0.62708100  0.71058600  1
  O  O2  1  0.58350500  0.17656400  0.21058600  1
  O  O3  1  0.91649500  0.12708100  0.59305900  1
  O  O4  1  0.28941400  0.46597800  0.37291900  1
  O  O5  1  0.32343600  0.91649500  0.28941400  1
  O  O6  1  0.41649500  0.82343600  0.78941400  1
  O  O7  1  0.08350500  0.87291900  0.40694100  1
  O  O8  1  0.71058600  0.53402200  0.62708100  1
  O  O9  1  0.67656400  0.08350500  0.71058600  1
  O  O10  1  0.03402200  0.32343600  0.90694100  1
  O  O11  1  0.21058600  0.58350500  0.17656400  1
  O  O12  1  0.12708100  0.03402200  0.21058600  1
  O  O13  1  0.96597800  0.67656400  0.09305900  1
  O  O14  1  0.78941400  0.41649500  0.82343600  1
  O  O15  1  0.87291900  0.96597800  0.78941400  1
  O  O16  1  0.59305900  0.91649500  0.12708100  1
  O  O17  1  0.17656400  0.46597800  0.59305900  1
  O  O18  1  0.40694100  0.08350500  0.87291900  1
  O  O19  1  0.82343600  0.53402200  0.40694100  1
  O  O20  1  0.90694100  0.03402200  0.32343600  1
  O  O21  1  0.37291900  0.58350500  0.90694100  1
  O  O22  1  0.09305900  0.96597800  0.67656400  1
  O  O23  1  0.62708100  0.41649500  0.09305900  1
  O  O24  1  0.37291900  0.28941400  0.46597800  1
  O  O25  1  0.58350500  0.90694100  0.37291900  1
  O  O26  1  0.62708100  0.71058600  0.53402200  1
  O  O27  1  0.41649500  0.09305900  0.62708100  1
  O  O28  1  0.12708100  0.59305900  0.91649500  1
  O  O29  1  0.03402200  0.21058600  0.12708100  1
  O  O30  1  0.87291900  0.40694100  0.08350500  1
  O  O31  1  0.96597800  0.78941400  0.87291900  1
  O  O32  1  0.32343600  0.90694100  0.03402200  1
  O  O33  1  0.91649500  0.28941400  0.32343600  1
  O  O34  1  0.67656400  0.09305900  0.96597800  1
  O  O35  1  0.08350500  0.71058600  0.67656400  1
  O  O36  1  0.17656400  0.21058600  0.58350500  1
  O  O37  1  0.46597800  0.59305900  0.17656400  1
  O  O38  1  0.82343600  0.78941400  0.41649500  1
  O  O39  1  0.53402200  0.40694100  0.82343600  1
  O  O40  1  0.28941400  0.32343600  0.91649500  1
  O  O41  1  0.71058600  0.67656400  0.08350500  1
  O  O42  1  0.21058600  0.12708100  0.03402200  1
  O  O43  1  0.78941400  0.87291900  0.96597800  1
  O  O44  1  0.90694100  0.37291900  0.58350500  1
  O  O45  1  0.09305900  0.62708100  0.41649500  1
  O  O46  1  0.59305900  0.17656400  0.46597800  1
  O  O47  1  0.40694100  0.82343600  0.53402200  1
loop_
_geom_bond_atom_site_label_1
_geom_bond_atom_site_label_2
_geom_bond_distance
_geom_bond_site_symmetry_2
Fe0 O47 1.894462 1_555
Fe0 O4 1.894462 1_555
Fe0 O45 1.894462 1_555
Fe0 O11 1.894462 1_555
Fe1 O14 1.894462 1_555
Fe1 O8 1.894462 1_555
Fe1 O44 1.894462 1_555
Fe1 O46 1.894462 1_555
Fe2 O41 1.894462 1_555
Fe2 O43 1.894462 1_554
Fe2 O16 1.894462 1_555
Fe2 O20 1.894462 1_565
Fe3 O39 1.894462 1_555
Fe3 O24 1.894462 1_555
Fe3 O36 1.894462 1_555
Fe3 O27 1.894462 1_555
Fe4 O38 1.894462 1_555
Fe4 O25 1.894462 1_555
Fe4 O26 1.894462 1_555
Fe4 O37 1.894462 1_555
Fe5 O22 1.894462 1_545
Fe5 O18 1.894462 1_555
Fe5 O42 1.894462 1_556
Fe5 O40 1.894462 1_555
Fe6 O35 1.894462 1_555
Fe6 O31 1.894462 1_455
Fe6 O28 1.894462 1_555
Fe6 O32 1.894462 1_556
Fe7 O34 1.894462 1_554
Fe7 O30 1.894462 1_555
Fe7 O29 1.894462 1_655
Fe7 O33 1.894462 1_555
Fe8 O19 1.894462 1_555
Fe8 O23 1.894462 1_555
Fe8 O0 1.894462 1_555
Fe8 O2 1.894462 1_555
Fe9 O6 1.894462 1_555
Fe9 O21 1.894462 1_555
Fe9 O1 1.894462 1_555
Fe9 O17 1.894462 1_555
Fe10 O9 1.894462 1_555
Fe10 O15 1.894462 1_545
Fe10 O3 1.894462 1_555
Fe10 O10 1.894462 1_655
Fe11 O13 1.894462 1_455
Fe11 O7 1.894462 1_555
Fe11 O12 1.894462 1_565
Fe11 O5 1.894462 1_555
Fe12 O42 2.050581 1_555
Fe12 O12 2.050581 1_555
Fe12 O43 2.050581 1_444
Fe12 O29 2.050581 1_555
Fe12 O31 2.050581 1_444
Fe12 O15 2.050581 1_444
Fe13 O5 2.050581 1_545
Fe13 O27 2.050581 1_555
Fe13 O46 2.050581 1_555
Fe13 O25 2.050581 1_545
Fe13 O9 2.050581 1_555
Fe13 O47 2.050581 1_545
Fe14 O33 2.050581 1_455
Fe14 O44 2.050581 1_455
Fe14 O17 2.050581 1_555
Fe14 O19 2.050581 1_455
Fe14 O45 2.050581 1_555
Fe14 O35 2.050581 1_555
Fe15 O2 2.050581 1_555
Fe15 O18 2.050581 1_554
Fe15 O16 2.050581 1_545
Fe15 O34 2.050581 1_554
Fe15 O32 2.050581 1_545
Fe15 O6 2.050581 1_544
Fe16 O21 2.050581 1_554
Fe16 O39 2.050581 1_554
Fe16 O40 2.050581 1_554
Fe16 O37 2.050581 1_555
Fe16 O23 2.050581 1_555
Fe16 O41 2.050581 1_555
Fe17 O24 2.050581 1_555
Fe17 O1 2.050581 1_555
Fe17 O26 2.050581 1_555
Fe17 O4 2.050581 1_555
Fe17 O8 2.050581 1_555
Fe17 O0 2.050581 1_555
Fe18 O7 2.050581 1_545
Fe18 O20 2.050581 1_455
Fe18 O22 2.050581 1_545
Fe18 O36 2.050581 1_555
Fe18 O3 2.050581 1_455
Fe18 O38 2.050581 1_445
Fe19 O11 2.050581 1_555
Fe19 O13 2.050581 1_455
Fe19 O10 2.050581 1_554
Fe19 O30 2.050581 1_455
Fe19 O28 2.050581 1_554
Fe19 O14 2.050581 1_454
O0 Tm8 2.346778 1_555
O0 Tm0 2.424409 1_555
O1 Tm9 2.346778 1_555
O1 Tm1 2.424409 1_555
O2 Tm8 2.346778 1_555
O2 Tm2 2.424409 1_555
O3 Tm10 2.346778 1_655
O3 Tm2 2.424409 1_555
O4 Tm0 2.346778 1_555
O4 Tm3 2.424409 1_555
O5 Tm8 2.346778 1_565
O5 Tm4 2.424409 1_555
O6 Tm9 2.346778 1_555
O6 Tm5 2.424409 1_555
O7 Tm11 2.346778 1_455
O7 Tm5 2.424409 1_555
O8 Tm1 2.346778 1_555
O8 Tm6 2.424409 1_555
O9 Tm9 2.346778 1_545
O9 Tm7 2.424409 1_555
O10 Tm10 2.346778 1_555
O10 Tm0 2.424409 1_556
O11 Tm0 2.346778 1_555
O11 Tm4 2.424409 1_555
O12 Tm8 2.346778 1_555
O12 Tm3 2.424409 1_555
O13 Tm11 2.346778 1_555
O13 Tm1 2.424409 1_554
O14 Tm1 2.346778 1_555
O14 Tm7 2.424409 1_555
O15 Tm9 2.346778 1_555
O15 Tm6 2.424409 1_555
O16 Tm2 2.346778 1_565
O16 Tm4 2.424409 1_555
O17 Tm10 2.346778 1_555
O17 Tm3 2.424409 1_555
O18 Tm5 2.346778 1_545
O18 Tm7 2.424409 1_555
O19 Tm11 2.346778 1_555
O19 Tm6 2.424409 1_555
O20 Tm2 2.346778 1_555
O20 Tm3 2.424409 1_655
O21 Tm10 2.346778 1_555
O21 Tm4 2.424409 1_556
O22 Tm5 2.346778 1_555
O22 Tm6 2.424409 1_455
O23 Tm11 2.346778 1_555
O23 Tm7 2.424409 1_554
O24 Tm3 2.346778 1_555
O24 Tm8 2.424409 1_555
O25 Tm4 2.346778 1_555
O25 Tm2 2.424409 1_565
O26 Tm6 2.346778 1_555
O26 Tm9 2.424409 1_555
O27 Tm7 2.346778 1_555
O27 Tm5 2.424409 1_545
O28 Tm4 2.346778 1_556
O28 Tm10 2.424409 1_555
O29 Tm3 2.346778 1_555
O29 Tm0 2.424409 1_555
O30 Tm7 2.346778 1_554
O30 Tm11 2.424409 1_555
O31 Tm6 2.346778 1_555
O31 Tm1 2.424409 1_555
O32 Tm4 2.346778 1_555
O32 Tm8 2.424409 1_565
O33 Tm3 2.346778 1_655
O33 Tm2 2.424409 1_555
O34 Tm7 2.346778 1_555
O34 Tm9 2.424409 1_545
O35 Tm6 2.346778 1_455
O35 Tm5 2.424409 1_555
O36 Tm3 2.346778 1_555
O36 Tm10 2.424409 1_555
O37 Tm4 2.346778 1_555
O37 Tm0 2.424409 1_555
O38 Tm6 2.346778 1_555
O38 Tm11 2.424409 1_555
O39 Tm7 2.346778 1_555
O39 Tm1 2.424409 1_555
O40 Tm0 2.346778 1_556
O40 Tm10 2.424409 1_555
O41 Tm1 2.346778 1_554
O41 Tm11 2.424409 1_555
O42 Tm0 2.346778 1_555
O42 Tm8 2.424409 1_555
O43 Tm1 2.346778 1_555
O43 Tm9 2.424409 1_555
O44 Tm2 2.346778 1_555
O44 Tm10 2.424409 1_655
O45 Tm5 2.346778 1_555
O45 Tm11 2.424409 1_455
O46 Tm2 2.346778 1_555
O46 Tm8 2.424409 1_555
O47 Tm5 2.346778 1_555
O47 Tm9 2.424409 1_555
