# generated using pymatgen
data_TbCe3O8
_symmetry_space_group_name_H-M   'P 1'
_cell_length_a   6.68738360
_cell_length_b   6.68738360
_cell_length_c   6.68738360
_cell_angle_alpha   131.77898274
_cell_angle_beta   131.77898274
_cell_angle_gamma   70.57832440
_symmetry_Int_Tables_number   1
_chemical_formula_structural   TbCe3O8
_chemical_formula_sum   'Tb1 Ce3 O8'
_cell_volume   162.94079827
_cell_formula_units_Z   1
loop_
 _symmetry_equiv_pos_site_id
 _symmetry_equiv_pos_as_xyz
  1  'x, y, z'
loop_
 _atom_site_type_symbol
 _atom_site_label
 _atom_site_symmetry_multiplicity
 _atom_site_fract_x
 _atom_site_fract_y
 _atom_site_fract_z
 _atom_site_occupancy
  Tb  Tb0  1  0.00000000  0.00000000  0.00000000  1
  Ce  Ce0  1  0.25000000  0.75000000  0.50000000  1
  Ce  Ce1  1  0.50000000  0.50000000  0.00000000  1
  Ce  Ce2  1  0.75000000  0.25000000  0.50000000  1
  O  O0  1  0.62235100  0.62235100  0.49633300  1
  O  O1  1  0.87398200  0.37764900  0.00000000  1
  O  O2  1  0.12601800  0.12601800  0.50366700  1
  O  O3  1  0.37764900  0.87398200  0.00000000  1
  O  O4  1  0.37764900  0.37764900  0.50366700  1
  O  O5  1  0.62235100  0.12601800  0.00000000  1
  O  O6  1  0.87398200  0.87398200  0.49633300  1
  O  O7  1  0.12601800  0.62235100  0.00000000  1
loop_
_geom_bond_atom_site_label_1
_geom_bond_atom_site_label_2
_geom_bond_distance
_geom_bond_site_symmetry_2
Ce0 O5 2.359987 1_566
Ce0 O6 2.359987 1_455
Ce0 O0 2.359987 1_555
Ce0 O3 2.359987 1_556
Ce0 O2 2.359987 1_565
Ce0 O7 2.359987 1_555
Ce0 O1 2.359987 1_455
Ce0 O4 2.359987 1_555
Ce1 O1 2.358687 1_555
Ce1 O7 2.358687 1_555
Ce1 O2 2.358687 1_554
Ce1 O6 2.358687 1_555
Ce1 O5 2.358687 1_555
Ce1 O3 2.358687 1_555
Ce1 O0 2.358687 1_555
Ce1 O4 2.358687 1_554
Ce2 O3 2.359987 1_545
Ce2 O5 2.359987 1_555
Ce2 O2 2.359987 1_655
Ce2 O7 2.359987 1_656
Ce2 O0 2.359987 1_555
Ce2 O4 2.359987 1_555
Ce2 O6 2.359987 1_545
Ce2 O1 2.359987 1_556
O0 Tb0 2.381778 1_666
O1 Tb0 2.381778 1_655
O2 Tb0 2.381778 1_555
O3 Tb0 2.381778 1_565
O4 Tb0 2.381778 1_555
O5 Tb0 2.381778 1_655
O6 Tb0 2.381778 1_666
O7 Tb0 2.381778 1_565
