# generated using pymatgen
data_Sr2Cu2MoO7
_symmetry_space_group_name_H-M   'P 1'
_cell_length_a   13.47572037
_cell_length_b   13.47572037
_cell_length_c   5.31177259
_cell_angle_alpha   78.81223433
_cell_angle_beta   78.81223433
_cell_angle_gamma   147.78071141
_symmetry_Int_Tables_number   1
_chemical_formula_structural   Sr2Cu2MoO7
_chemical_formula_sum   'Sr4 Cu4 Mo2 O14'
_cell_volume   367.64984311
_cell_formula_units_Z   2
loop_
 _symmetry_equiv_pos_site_id
 _symmetry_equiv_pos_as_xyz
  1  'x, y, z'
loop_
 _atom_site_type_symbol
 _atom_site_label
 _atom_site_symmetry_multiplicity
 _atom_site_fract_x
 _atom_site_fract_y
 _atom_site_fract_z
 _atom_site_occupancy
  Sr  Sr0  1  0.37438700  0.14310800  0.01071600  1
  Sr  Sr1  1  0.62749600  0.85706700  0.02495700  1
  Sr  Sr2  1  0.85706700  0.62749600  0.02495700  1
  Sr  Sr3  1  0.14310800  0.37438700  0.01071600  1
  Cu  Cu0  1  0.43701700  0.05870500  0.52370000  1
  Cu  Cu1  1  0.56355900  0.94169900  0.51345400  1
  Cu  Cu2  1  0.94169900  0.56355900  0.51345400  1
  Cu  Cu3  1  0.05870500  0.43701700  0.52370000  1
  Mo  Mo0  1  0.83731500  0.83731500  0.41380700  1
  Mo  Mo1  1  0.15465800  0.15465800  0.53567100  1
  O  O0  1  0.20238800  0.20238800  0.11614400  1
  O  O1  1  0.83420900  0.83420900  0.02984000  1
  O  O2  1  0.67553700  0.32422600  0.02208200  1
  O  O3  1  0.32722700  0.67447700  0.51494400  1
  O  O4  1  0.67447700  0.32722700  0.51494400  1
  O  O5  1  0.32422600  0.67553700  0.02208200  1
  O  O6  1  0.17313600  0.82620600  0.02156000  1
  O  O7  1  0.82876300  0.17150500  0.51621600  1
  O  O8  1  0.17150500  0.82876300  0.51621600  1
  O  O9  1  0.82620600  0.17313600  0.02156000  1
  O  O10  1  0.78712300  0.65564500  0.57577300  1
  O  O11  1  0.20207400  0.33075500  0.50501500  1
  O  O12  1  0.33075500  0.20207400  0.50501500  1
  O  O13  1  0.65564500  0.78712300  0.57577300  1
loop_
_geom_bond_atom_site_label_1
_geom_bond_atom_site_label_2
_geom_bond_distance
_geom_bond_site_symmetry_2
Cu0 O4 1.902723 1_555
Cu0 O6 1.933688 1_546
Cu0 O8 1.936173 1_545
Cu0 O2 1.936712 1_555
Cu1 O9 1.911170 1_565
Cu1 O7 1.916817 1_565
Cu1 O3 1.919484 1_555
Cu1 O5 1.962385 1_556
Cu2 O6 1.911170 1_655
Cu2 O8 1.916817 1_655
Cu2 O4 1.919484 1_555
Cu2 O2 1.962385 1_556
Cu3 O3 1.902723 1_555
Cu3 O9 1.933688 1_456
Cu3 O7 1.936173 1_455
Cu3 O5 1.936712 1_555
Mo0 O10 1.829246 1_555
Mo0 O13 1.829246 1_555
Mo0 O0 1.979091 1_665
Mo0 O1 2.055854 1_555
Mo1 O11 1.819385 1_555
Mo1 O12 1.819385 1_555
Mo1 O1 1.958552 1_446
Mo1 O0 1.995224 1_555
O0 Sr3 3.021060 1_555
O0 Sr0 3.021060 1_555
O1 Sr1 3.054821 1_555
O1 Sr2 3.054821 1_555
O2 Sr2 2.410226 1_555
O2 Sr0 2.413025 1_555
O3 Sr1 2.404842 1_555
O3 Sr3 2.408183 1_556
O4 Sr2 2.404842 1_555
O4 Sr0 2.408183 1_556
O5 Sr1 2.410226 1_555
O5 Sr3 2.413025 1_555
O6 Sr0 2.417211 1_565
O6 Sr2 2.442416 1_455
O7 Sr3 2.402120 1_655
O7 Sr1 2.424913 1_546
O8 Sr0 2.402120 1_565
O8 Sr2 2.424913 1_456
O9 Sr3 2.417211 1_655
O9 Sr1 2.442416 1_545
O10 Sr0 2.792606 1_556
O10 Sr2 2.802058 1_556
O10 Sr2 3.091625 1_555
O10 Sr0 3.155824 1_665
O11 Sr1 2.860435 1_555
O11 Sr3 2.961040 1_556
O11 Sr3 2.978586 1_555
O11 Sr1 3.091642 1_446
O12 Sr2 2.860435 1_555
O12 Sr0 2.961040 1_556
O12 Sr0 2.978586 1_555
O12 Sr2 3.091642 1_446
O13 Sr3 2.792606 1_556
O13 Sr1 2.802058 1_556
O13 Sr1 3.091625 1_555
O13 Sr3 3.155824 1_665
