# generated using pymatgen
data_Sr2La2FeCoO8
_symmetry_space_group_name_H-M   'P 1'
_cell_length_a   6.96456087
_cell_length_b   6.96456087
_cell_length_c   5.47162700
_cell_angle_alpha   90.00000000
_cell_angle_beta   90.00000000
_cell_angle_gamma   133.46865263
_symmetry_Int_Tables_number   1
_chemical_formula_structural   Sr2La2FeCoO8
_chemical_formula_sum   'Sr2 La2 Fe1 Co1 O8'
_cell_volume   192.61563049
_cell_formula_units_Z   1
loop_
 _symmetry_equiv_pos_site_id
 _symmetry_equiv_pos_as_xyz
  1  'x, y, z'
loop_
 _atom_site_type_symbol
 _atom_site_label
 _atom_site_symmetry_multiplicity
 _atom_site_fract_x
 _atom_site_fract_y
 _atom_site_fract_z
 _atom_site_occupancy
  Sr  Sr0  1  0.14366000  0.85634000  0.50000000  1
  Sr  Sr1  1  0.35575300  0.64424700  0.00000000  1
  La  La0  1  0.64074000  0.35926000  0.00000000  1
  La  La1  1  0.86009500  0.13990500  0.50000000  1
  Fe  Fe0  1  0.49604800  0.50395200  0.50000000  1
  Co  Co0  1  0.00354500  0.99645500  0.00000000  1
  O  O0  1  0.24985100  0.24967700  0.75124900  1
  O  O1  1  0.75032300  0.75014900  0.24875100  1
  O  O2  1  0.75032300  0.75014900  0.75124900  1
  O  O3  1  0.24985100  0.24967700  0.24875100  1
  O  O4  1  0.82286900  0.17713100  0.00000000  1
  O  O5  1  0.33583400  0.66416600  0.50000000  1
  O  O6  1  0.67537600  0.32462400  0.50000000  1
  O  O7  1  0.16573200  0.83426800  0.00000000  1
loop_
_geom_bond_atom_site_label_1
_geom_bond_atom_site_label_2
_geom_bond_distance
_geom_bond_site_symmetry_2
La0 O4 2.330605 1_555
La0 O1 2.643396 1_555
La0 O2 2.643396 1_554
La0 O3 2.643396 1_555
La0 O0 2.643396 1_554
La0 O7 2.769495 1_655
La0 O7 2.769495 1_545
La0 O6 2.771483 1_555
La0 O6 2.771483 1_554
La1 O6 2.363747 1_555
La1 O0 2.643372 1_655
La1 O1 2.643372 1_545
La1 O2 2.643372 1_545
La1 O3 2.643372 1_655
La1 O5 2.768430 1_545
La1 O5 2.768430 1_655
La1 O4 2.776976 1_556
La1 O4 2.776976 1_555
Fe0 O0 1.946308 1_555
Fe0 O2 1.946308 1_555
Fe0 O3 1.946308 1_555
Fe0 O1 1.946308 1_555
Fe0 O5 2.050170 1_555
Fe0 O6 2.294762 1_555
Co0 O3 1.934648 1_565
Co0 O0 1.934648 1_564
Co0 O1 1.934648 1_455
Co0 O2 1.934648 1_454
Co0 O7 2.075418 1_555
Co0 O4 2.312011 1_465
O0 Sr0 2.674639 1_545
O0 Sr1 2.675691 1_556
O1 Sr0 2.674639 1_655
O1 Sr1 2.675691 1_555
O2 Sr0 2.674639 1_655
O2 Sr1 2.675691 1_556
O3 Sr0 2.674639 1_545
O3 Sr1 2.675691 1_555
O4 Sr1 2.782965 1_545
O4 Sr1 2.782965 1_655
O5 Sr0 2.459145 1_555
O5 Sr1 2.747662 1_555
O5 Sr1 2.747662 1_556
O6 Sr0 2.780745 1_655
O6 Sr0 2.780745 1_545
O7 Sr1 2.431594 1_555
O7 Sr0 2.750354 1_555
O7 Sr0 2.750354 1_554
