# generated using pymatgen
data_SrMg2
_symmetry_space_group_name_H-M   'P 1'
_cell_length_a   6.10819953
_cell_length_b   6.10819953
_cell_length_c   5.69935400
_cell_angle_alpha   90.00000000
_cell_angle_beta   90.00000000
_cell_angle_gamma   118.99520099
_symmetry_Int_Tables_number   1
_chemical_formula_structural   SrMg2
_chemical_formula_sum   'Sr2 Mg4'
_cell_volume   185.99080928
_cell_formula_units_Z   2
loop_
 _symmetry_equiv_pos_site_id
 _symmetry_equiv_pos_as_xyz
  1  'x, y, z'
loop_
 _atom_site_type_symbol
 _atom_site_label
 _atom_site_symmetry_multiplicity
 _atom_site_fract_x
 _atom_site_fract_y
 _atom_site_fract_z
 _atom_site_occupancy
  Sr  Sr0  1  0.68698200  0.68698200  0.75000000  1
  Sr  Sr1  1  0.31301800  0.31301800  0.25000000  1
  Mg  Mg0  1  0.98523900  0.33279000  0.75000000  1
  Mg  Mg1  1  0.33279000  0.98523900  0.75000000  1
  Mg  Mg2  1  0.66721000  0.01476100  0.25000000  1
  Mg  Mg3  1  0.01476100  0.66721000  0.25000000  1
loop_
_geom_bond_atom_site_label_1
_geom_bond_atom_site_label_2
_geom_bond_distance
_geom_bond_site_symmetry_2
Sr0 Sr1 3.673925 1_555
Sr0 Sr1 3.673925 1_556
Mg0 Sr0 3.438133 1_555
Mg0 Sr0 3.451476 1_545
Mg0 Sr1 3.518270 1_655
Mg0 Sr1 3.518270 1_656
Mg0 Sr0 3.750111 1_655
Mg1 Sr0 3.438133 1_555
Mg1 Sr0 3.451476 1_455
Mg1 Sr1 3.518270 1_565
Mg1 Sr1 3.518270 1_566
Mg1 Sr0 3.750111 1_565
Mg2 Sr1 3.438133 1_555
Mg2 Sr1 3.451476 1_655
Mg2 Sr0 3.518270 1_544
Mg2 Sr0 3.518270 1_545
Mg2 Sr1 3.750111 1_545
Mg3 Sr1 3.438133 1_555
Mg3 Sr1 3.451476 1_565
Mg3 Sr0 3.518270 1_455
Mg3 Sr0 3.518270 1_454
Mg3 Sr1 3.750111 1_455
