# generated using pymatgen
data_Sr2MgZn2Sn2(PO4)4
_symmetry_space_group_name_H-M   'P 1'
_cell_length_a   5.48787465
_cell_length_b   6.71921634
_cell_length_c   11.68832767
_cell_angle_alpha   104.67691211
_cell_angle_beta   93.20275534
_cell_angle_gamma   98.75680625
_symmetry_Int_Tables_number   1
_chemical_formula_structural   Sr2MgZn2Sn2(PO4)4
_chemical_formula_sum   'Sr2 Mg1 Zn2 Sn2 P4 O16'
_cell_volume   410.05909875
_cell_formula_units_Z   1
loop_
 _symmetry_equiv_pos_site_id
 _symmetry_equiv_pos_as_xyz
  1  'x, y, z'
loop_
 _atom_site_type_symbol
 _atom_site_label
 _atom_site_symmetry_multiplicity
 _atom_site_fract_x
 _atom_site_fract_y
 _atom_site_fract_z
 _atom_site_occupancy
  Sr  Sr0  1  0.21076634  0.79400715  0.04600142  1
  Sr  Sr1  1  0.76856171  0.19947400  0.95800310  1
  Mg  Mg0  1  0.81442678  0.53448766  0.25652694  1
  Zn  Zn0  1  0.08005518  0.46065208  0.73971097  1
  Zn  Zn1  1  0.07478582  0.68008026  0.48709791  1
  Sn  Sn0  1  0.67110007  0.90596547  0.63454627  1
  Sn  Sn1  1  0.23747840  0.13502541  0.35450051  1
  P  P0  1  0.32923082  0.39999850  0.18097693  1
  P  P1  1  0.66611754  0.58992195  0.80062981  1
  P  P2  1  0.71992151  0.99447883  0.22054109  1
  P  P3  1  0.22293188  0.01634828  0.77286703  1
  O  O0  1  0.86076578  0.55186267  0.89281725  1
  O  O1  1  0.54629571  0.43699228  0.10494846  1
  O  O2  1  0.70612197  0.82670191  0.80312936  1
  O  O3  1  0.02251315  0.13677605  0.72694129  1
  O  O4  1  0.39939620  0.53301007  0.83353144  1
  O  O5  1  0.17707208  0.78795906  0.69127565  1
  O  O6  1  0.81950484  0.22702413  0.28642841  1
  O  O7  1  0.20574635  0.03581758  0.90526407  1
  O  O8  1  0.23803198  0.16256068  0.16824538  1
  O  O9  1  0.68470859  0.95297798  0.08385483  1
  O  O10  1  0.09927956  0.48764267  0.14194916  1
  O  O11  1  0.43955556  0.49581188  0.31212148  1
  O  O12  1  0.72927419  0.46745092  0.67656687  1
  O  O13  1  0.47080028  0.91338105  0.26460010  1
  O  O14  1  0.91652028  0.86201793  0.25326779  1
  O  O15  1  0.48427542  0.12453555  0.75365648  1
loop_
_geom_bond_atom_site_label_1
_geom_bond_atom_site_label_2
_geom_bond_distance
_geom_bond_site_symmetry_2
Mg0 O10 2.122838 1_655
Mg0 O1 2.135497 1_555
Mg0 O6 2.184776 1_555
Mg0 O11 2.189568 1_555
Mg0 O14 2.197289 1_555
O0 P1 1.568980 1_555
O0 Zn0 2.221668 1_655
O0 Sr0 2.594278 1_656
O0 Sr1 2.652426 1_555
O1 P0 1.552596 1_555
O1 Sr1 2.534289 1_554
O2 P1 1.565131 1_555
O2 Sn0 2.173458 1_555
O2 Sr1 2.653255 1_565
O3 P3 1.605542 1_555
O3 Zn0 2.116297 1_555
O3 Sn0 2.301854 1_445
O3 Sr1 3.071883 1_455
O4 P1 1.550363 1_555
O4 Zn0 1.940579 1_555
O4 Sr0 2.991237 1_556
O5 P3 1.562622 1_565
O5 Zn1 2.320714 1_555
O5 Zn0 2.397650 1_555
O6 P2 1.554483 1_545
O6 Sn1 2.598782 1_655
O7 P3 1.529132 1_555
O7 Sr0 2.590283 1_546
O7 Sr1 2.823208 1_455
O7 Sr1 3.088468 1_555
O8 P0 1.564025 1_555
O8 Sn1 2.231208 1_555
O8 Sr0 2.503344 1_545
O9 P2 1.546246 1_555
O9 Sr1 2.489367 1_564
O9 Sr0 2.624424 1_555
O9 Sr0 3.242424 1_655
O10 P0 1.563803 1_555
O10 Sr0 2.594724 1_555
O10 Sr1 2.837277 1_454
O11 P0 1.551852 1_555
O11 Sn1 2.683888 1_555
O12 P1 1.561532 1_555
O12 Zn0 2.034133 1_655
O13 P2 1.557324 1_555
O13 Sn1 2.213503 1_565
O13 Sr0 2.722800 1_555
O14 P2 1.587865 1_555
O14 Sn1 2.356046 1_665
O14 Sr0 2.964144 1_655
O15 P3 1.561118 1_555
O15 Sn0 2.174425 1_545
O15 Sr1 2.669706 1_555
