# generated using pymatgen
data_Li6Eu(BO3)3
_symmetry_space_group_name_H-M   'P 1'
_cell_length_a   16.61009100
_cell_length_b   6.78139100
_cell_length_c   7.34275545
_cell_angle_alpha   74.60121105
_cell_angle_beta   90.00000000
_cell_angle_gamma   90.00000000
_symmetry_Int_Tables_number   1
_chemical_formula_structural   Li6Eu(BO3)3
_chemical_formula_sum   'Li24 Eu4 B12 O36'
_cell_volume   797.39297057
_cell_formula_units_Z   4
loop_
 _symmetry_equiv_pos_site_id
 _symmetry_equiv_pos_as_xyz
  1  'x, y, z'
loop_
 _atom_site_type_symbol
 _atom_site_label
 _atom_site_symmetry_multiplicity
 _atom_site_fract_x
 _atom_site_fract_y
 _atom_site_fract_z
 _atom_site_occupancy
  Li  Li0  1  0.96454500  0.94708500  0.19396800  1
  Li  Li1  1  0.03545500  0.05291500  0.80603200  1
  Li  Li2  1  0.46454500  0.55291500  0.80603200  1
  Li  Li3  1  0.53545500  0.44708500  0.19396800  1
  Li  Li4  1  0.55460300  0.91166400  0.63893400  1
  Li  Li5  1  0.44539700  0.08833600  0.36106600  1
  Li  Li6  1  0.05460300  0.58833600  0.36106600  1
  Li  Li7  1  0.94539700  0.41166400  0.63893400  1
  Li  Li8  1  0.46903500  0.83206600  0.04316100  1
  Li  Li9  1  0.53096500  0.16793400  0.95683900  1
  Li  Li10  1  0.96903500  0.66793400  0.95683900  1
  Li  Li11  1  0.03096500  0.33206600  0.04316100  1
  Li  Li12  1  0.70608700  0.86728800  0.78885800  1
  Li  Li13  1  0.29391300  0.13271200  0.21114200  1
  Li  Li14  1  0.20608700  0.63271200  0.21114200  1
  Li  Li15  1  0.79391300  0.36728800  0.78885800  1
  Li  Li16  1  0.79628600  0.95469400  0.06283400  1
  Li  Li17  1  0.20371400  0.04530600  0.93716600  1
  Li  Li18  1  0.29628600  0.54530600  0.93716600  1
  Li  Li19  1  0.70371400  0.45469400  0.06283400  1
  Li  Li20  1  0.99711600  0.82266900  0.57441100  1
  Li  Li21  1  0.00288400  0.17733100  0.42558900  1
  Li  Li22  1  0.49711600  0.67733100  0.42558900  1
  Li  Li23  1  0.50288400  0.32266900  0.57441100  1
  Eu  Eu0  1  0.69148500  0.65349400  0.42360400  1
  Eu  Eu1  1  0.30851500  0.34650600  0.57639600  1
  Eu  Eu2  1  0.19148500  0.84650600  0.57639600  1
  Eu  Eu3  1  0.80851500  0.15349400  0.42360400  1
  B  B0  1  0.88181800  0.99930000  0.79076200  1
  B  B1  1  0.11818200  0.00070000  0.20923800  1
  B  B2  1  0.38181800  0.50070000  0.20923800  1
  B  B3  1  0.61818200  0.49930000  0.79076200  1
  B  B4  1  0.61455300  0.81263800  0.05949900  1
  B  B5  1  0.38544700  0.18736200  0.94050100  1
  B  B6  1  0.11455300  0.68736200  0.94050100  1
  B  B7  1  0.88544700  0.31263800  0.05949900  1
  B  B8  1  0.86620000  0.66205500  0.41900400  1
  B  B9  1  0.13380000  0.33794500  0.58099600  1
  B  B10  1  0.36620000  0.83794500  0.58099600  1
  B  B11  1  0.63380000  0.16205500  0.41900400  1
  O  O0  1  0.94803300  0.67563400  0.41424200  1
  O  O1  1  0.05196700  0.32436600  0.58575800  1
  O  O2  1  0.44803300  0.82436600  0.58575800  1
  O  O3  1  0.55196700  0.17563400  0.41424200  1
  O  O4  1  0.69706500  0.77441300  0.07564100  1
  O  O5  1  0.30293500  0.22558700  0.92435900  1
  O  O6  1  0.19706500  0.72558700  0.92435900  1
  O  O7  1  0.80293500  0.27441300  0.07564100  1
  O  O8  1  0.81753700  0.83128700  0.34414100  1
  O  O9  1  0.18246300  0.16871300  0.65585900  1
  O  O10  1  0.31753700  0.66871300  0.65585900  1
  O  O11  1  0.68246300  0.33128700  0.34414100  1
  O  O12  1  0.56738200  0.73258800  0.21854500  1
  O  O13  1  0.43261800  0.26741200  0.78145500  1
  O  O14  1  0.06738200  0.76741200  0.78145500  1
  O  O15  1  0.93261800  0.23258800  0.21854500  1
  O  O16  1  0.41400900  0.58582600  0.03509600  1
  O  O17  1  0.58599100  0.41417400  0.96490400  1
  O  O18  1  0.91400900  0.91417400  0.96490400  1
  O  O19  1  0.08599100  0.08582600  0.03509600  1
  O  O20  1  0.57898100  0.92502800  0.89467000  1
  O  O21  1  0.42101900  0.07497200  0.10533000  1
  O  O22  1  0.07898100  0.57497200  0.10533000  1
  O  O23  1  0.92101900  0.42502800  0.89467000  1
  O  O24  1  0.42838600  0.46074400  0.37301600  1
  O  O25  1  0.57161400  0.53925600  0.62698400  1
  O  O26  1  0.92838600  0.03925600  0.62698400  1
  O  O27  1  0.07161400  0.96074400  0.37301600  1
  O  O28  1  0.67168200  0.97710200  0.50727500  1
  O  O29  1  0.32831800  0.02289800  0.49272500  1
  O  O30  1  0.17168200  0.52289800  0.49272500  1
  O  O31  1  0.82831800  0.47710200  0.50727500  1
  O  O32  1  0.19947500  0.94613200  0.23192100  1
  O  O33  1  0.80052500  0.05386800  0.76807900  1
  O  O34  1  0.69947500  0.55386800  0.76807900  1
  O  O35  1  0.30052500  0.44613200  0.23192100  1
loop_
_geom_bond_atom_site_label_1
_geom_bond_atom_site_label_2
_geom_bond_distance
_geom_bond_site_symmetry_2
Li0 O18 1.944933 1_554
Li0 O15 2.061034 1_565
Li0 O0 2.121007 1_555
Li0 O27 2.228116 1_655
Li0 O19 2.394243 1_665
Li1 O19 1.944933 1_556
Li1 O14 2.061034 1_545
Li1 O1 2.121007 1_555
Li1 O26 2.228116 1_455
Li1 O18 2.394243 1_445
Li2 O16 1.944933 1_556
Li2 O13 2.061034 1_555
Li2 O2 2.121007 1_555
Li2 O25 2.228116 1_555
Li2 O17 2.394243 1_555
Li3 O17 1.944933 1_554
Li3 O12 2.061034 1_555
Li3 O3 2.121007 1_555
Li3 O24 2.228116 1_555
Li3 O16 2.394243 1_555
Li4 O2 1.938832 1_555
Li4 O20 1.946461 1_555
Li4 O3 2.088035 1_565
Li4 O28 2.164604 1_555
Li4 O25 2.565753 1_555
Li5 O3 1.938832 1_555
Li5 O21 1.946461 1_555
Li5 O2 2.088035 1_545
Li5 O29 2.164604 1_555
Li5 O24 2.565753 1_555
Li6 O0 1.938832 1_455
Li6 O22 1.946461 1_555
Li6 O1 2.088035 1_555
Li6 O30 2.164604 1_555
Li6 O27 2.565753 1_555
Li7 O1 1.938832 1_655
Li7 O23 1.946461 1_555
Li7 O0 2.088035 1_555
Li7 O31 2.164604 1_555
Li7 O26 2.565753 1_555
Li8 O16 1.918279 1_555
Li8 O21 1.989274 1_565
Li8 O12 2.078616 1_555
Li8 O20 2.134540 1_554
Li9 O17 1.918279 1_555
Li9 O20 1.989274 1_545
Li9 O13 2.078616 1_555
Li9 O21 2.134540 1_556
Li10 O18 1.918279 1_555
Li10 O23 1.989274 1_555
Li10 O14 2.078616 1_655
Li10 O22 2.134540 1_656
Li11 O19 1.918279 1_555
Li11 O22 1.989274 1_555
Li11 O15 2.078616 1_455
Li11 O23 2.134540 1_454
Li12 O33 1.995558 1_565
Li12 O4 2.036931 1_556
Li12 O28 2.082881 1_555
Li12 O34 2.173703 1_555
Li12 O20 2.318594 1_555
Li13 O32 1.995558 1_545
Li13 O5 2.036931 1_554
Li13 O29 2.082881 1_555
Li13 O35 2.173703 1_555
Li13 O21 2.318594 1_555
Li14 O35 1.995558 1_555
Li14 O6 2.036931 1_554
Li14 O30 2.082881 1_555
Li14 O32 2.173703 1_555
Li14 O22 2.318594 1_555
Li15 O34 1.995558 1_555
Li15 O7 2.036931 1_556
Li15 O31 2.082881 1_555
Li15 O33 2.173703 1_555
Li15 O23 2.318594 1_555
Li16 O4 2.039256 1_555
Li16 O8 2.042916 1_555
Li16 O33 2.090096 1_564
Li16 O18 2.126278 1_554
Li16 O7 2.197760 1_565
Li17 O5 2.039256 1_555
Li17 O9 2.042916 1_555
Li17 O32 2.090096 1_546
Li17 O19 2.126278 1_556
Li17 O6 2.197760 1_545
Li18 O6 2.039256 1_555
Li18 O10 2.042916 1_555
Li18 O35 2.090096 1_556
Li18 O16 2.126278 1_556
Li18 O5 2.197760 1_555
Li19 O7 2.039256 1_555
Li19 O11 2.042916 1_555
Li19 O34 2.090096 1_554
Li19 O17 2.126278 1_554
Li19 O4 2.197760 1_555
Li20 O14 1.873843 1_655
Li20 O0 1.914373 1_555
Li20 O27 1.964541 1_655
Li20 O26 1.977541 1_565
Li21 O15 1.873843 1_455
Li21 O1 1.914373 1_555
Li21 O26 1.964541 1_455
Li21 O27 1.977541 1_545
Li22 O12 1.873843 1_555
Li22 O2 1.914373 1_555
Li22 O25 1.964541 1_555
Li22 O24 1.977541 1_555
Li23 O13 1.873843 1_555
Li23 O3 1.914373 1_555
Li23 O24 1.964541 1_555
Li23 O25 1.977541 1_555
Eu0 O8 2.409200 1_555
Eu0 O11 2.411274 1_555
Eu0 O34 2.442205 1_555
Eu0 O28 2.453071 1_555
Eu0 O4 2.469089 1_555
Eu0 O25 2.486012 1_555
Eu0 O12 2.524903 1_555
Eu0 O31 2.565869 1_555
Eu1 O9 2.409200 1_555
Eu1 O10 2.411274 1_555
Eu1 O35 2.442205 1_555
Eu1 O29 2.453071 1_555
Eu1 O5 2.469089 1_555
Eu1 O24 2.486012 1_555
Eu1 O13 2.524903 1_555
Eu1 O30 2.565869 1_555
Eu2 O10 2.409200 1_555
Eu2 O9 2.411274 1_565
Eu2 O32 2.442205 1_555
Eu2 O30 2.453071 1_555
Eu2 O6 2.469089 1_555
Eu2 O27 2.486012 1_555
Eu2 O14 2.524903 1_555
Eu2 O29 2.565869 1_565
Eu3 O11 2.409200 1_555
Eu3 O8 2.411274 1_545
Eu3 O33 2.442205 1_555
Eu3 O31 2.453071 1_555
Eu3 O7 2.469089 1_555
Eu3 O26 2.486012 1_555
Eu3 O15 2.524903 1_555
Eu3 O28 2.565869 1_545
B0 O18 1.364610 1_555
B0 O26 1.394587 1_565
B0 O33 1.398289 1_565
B1 O19 1.364610 1_555
B1 O27 1.394587 1_545
B1 O32 1.398289 1_545
B2 O16 1.364610 1_555
B2 O24 1.394587 1_555
B2 O35 1.398289 1_555
B3 O17 1.364610 1_555
B3 O25 1.394587 1_555
B3 O34 1.398289 1_555
B4 O20 1.380195 1_554
B4 O12 1.391310 1_555
B4 O4 1.394017 1_555
B5 O21 1.380195 1_556
B5 O13 1.391310 1_555
B5 O5 1.394017 1_555
B6 O22 1.380195 1_556
B6 O14 1.391310 1_555
B6 O6 1.394017 1_555
B7 O23 1.380195 1_554
B7 O15 1.391310 1_555
B7 O7 1.394017 1_555
B8 O0 1.362190 1_555
B8 O8 1.391955 1_555
B8 O31 1.399075 1_555
B9 O1 1.362190 1_555
B9 O9 1.391955 1_555
B9 O30 1.399075 1_555
B10 O2 1.362190 1_555
B10 O10 1.391955 1_555
B10 O29 1.399075 1_565
B11 O3 1.362190 1_555
B11 O11 1.391955 1_555
B11 O28 1.399075 1_545
