# generated using pymatgen
data_Gd3MnGaS7
_symmetry_space_group_name_H-M   'P 1'
_cell_length_a   9.82975205
_cell_length_b   9.82975205
_cell_length_c   6.08776500
_cell_angle_alpha   90.00000000
_cell_angle_beta   90.00000000
_cell_angle_gamma   120.00000032
_symmetry_Int_Tables_number   1
_chemical_formula_structural   Gd3MnGaS7
_chemical_formula_sum   'Gd6 Mn2 Ga2 S14'
_cell_volume   509.41723680
_cell_formula_units_Z   2
loop_
 _symmetry_equiv_pos_site_id
 _symmetry_equiv_pos_as_xyz
  1  'x, y, z'
loop_
 _atom_site_type_symbol
 _atom_site_label
 _atom_site_symmetry_multiplicity
 _atom_site_fract_x
 _atom_site_fract_y
 _atom_site_fract_z
 _atom_site_occupancy
  Gd  Gd0  1  0.76491100  0.14061800  0.73812200  1
  Gd  Gd1  1  0.37570700  0.23508900  0.73812200  1
  Gd  Gd2  1  0.85938200  0.62429300  0.73812200  1
  Gd  Gd3  1  0.23508900  0.85938200  0.23812200  1
  Gd  Gd4  1  0.62429300  0.76491100  0.23812200  1
  Gd  Gd5  1  0.14061800  0.37570700  0.23812200  1
  Mn  Mn0  1  0.00000000  0.00000000  0.52086100  1
  Mn  Mn1  1  0.00000000  0.00000000  0.02086100  1
  Ga  Ga0  1  0.66666700  0.33333300  0.16460800  1
  Ga  Ga1  1  0.33333300  0.66666700  0.66460800  1
  S  S0  1  0.85337500  0.09436500  0.29947100  1
  S  S1  1  0.24099100  0.14662500  0.29947100  1
  S  S2  1  0.90563500  0.75900900  0.29947100  1
  S  S3  1  0.14662500  0.90563500  0.79947100  1
  S  S4  1  0.75900900  0.85337500  0.79947100  1
  S  S5  1  0.09436500  0.24099100  0.79947100  1
  S  S6  1  0.90656100  0.42135500  0.00298400  1
  S  S7  1  0.51479300  0.09343900  0.00298400  1
  S  S8  1  0.57864500  0.48520700  0.00298400  1
  S  S9  1  0.09343900  0.57864500  0.50298400  1
  S  S10  1  0.48520700  0.90656100  0.50298400  1
  S  S11  1  0.42135500  0.51479300  0.50298400  1
  S  S12  1  0.66666700  0.33333300  0.53430500  1
  S  S13  1  0.33333300  0.66666700  0.03430500  1
loop_
_geom_bond_atom_site_label_1
_geom_bond_atom_site_label_2
_geom_bond_distance
_geom_bond_site_symmetry_2
Gd0 S7 2.778394 1_556
Gd0 S12 2.808929 1_555
Gd0 S4 2.819814 1_545
Gd0 S6 2.882966 1_556
Gd0 S5 2.899193 1_655
Gd0 S0 2.913640 1_555
Gd0 S10 2.928494 1_545
Gd1 S8 2.778391 1_556
Gd1 S12 2.808937 1_555
Gd1 S5 2.819824 1_555
Gd1 S7 2.882959 1_556
Gd1 S3 2.899196 1_545
Gd1 S1 2.913637 1_555
Gd1 S11 2.928491 1_555
Gd2 S6 2.778386 1_556
Gd2 S12 2.808936 1_555
Gd2 S3 2.819819 1_655
Gd2 S8 2.882966 1_556
Gd2 S4 2.899203 1_555
Gd2 S2 2.913636 1_555
Gd2 S9 2.928499 1_655
Gd3 S10 2.778394 1_555
Gd3 S13 2.808929 1_555
Gd3 S1 2.819814 1_565
Gd3 S9 2.882966 1_555
Gd3 S2 2.899193 1_455
Gd3 S3 2.913640 1_554
Gd3 S7 2.928494 1_565
Gd4 S11 2.778391 1_555
Gd4 S13 2.808937 1_555
Gd4 S2 2.819824 1_555
Gd4 S10 2.882959 1_555
Gd4 S0 2.899196 1_565
Gd4 S4 2.913637 1_554
Gd4 S8 2.928491 1_555
Gd5 S9 2.778386 1_555
Gd5 S13 2.808936 1_555
Gd5 S0 2.819819 1_455
Gd5 S11 2.882966 1_555
Gd5 S1 2.899203 1_555
Gd5 S5 2.913636 1_554
Gd5 S6 2.928499 1_455
Mn0 S0 2.468020 1_455
Mn0 S1 2.468027 1_555
Mn0 S2 2.468028 1_445
Mn0 S3 2.674217 1_545
Mn0 S4 2.674223 1_445
Mn0 S5 2.674224 1_555
Mn1 S3 2.468020 1_544
Mn1 S4 2.468027 1_444
Mn1 S5 2.468028 1_554
Mn1 S0 2.674217 1_455
Mn1 S1 2.674223 1_555
Mn1 S2 2.674224 1_445
Ga0 S12 2.250628 1_555
Ga0 S6 2.288464 1_555
Ga0 S7 2.288467 1_555
Ga0 S8 2.288481 1_555
Ga1 S13 2.250628 1_556
Ga1 S9 2.288464 1_555
Ga1 S10 2.288467 1_555
Ga1 S11 2.288481 1_555
