# generated using pymatgen
data_Li14P2(N2O)3
_symmetry_space_group_name_H-M   'P 1'
_cell_length_a   5.69863776
_cell_length_b   5.69863776
_cell_length_c   8.07204000
_cell_angle_alpha   90.00000000
_cell_angle_beta   90.00000000
_cell_angle_gamma   119.99999724
_symmetry_Int_Tables_number   1
_chemical_formula_structural   Li14P2(N2O)3
_chemical_formula_sum   'Li14 P2 N6 O3'
_cell_volume   227.01578314
_cell_formula_units_Z   1
loop_
 _symmetry_equiv_pos_site_id
 _symmetry_equiv_pos_as_xyz
  1  'x, y, z'
loop_
 _atom_site_type_symbol
 _atom_site_label
 _atom_site_symmetry_multiplicity
 _atom_site_fract_x
 _atom_site_fract_y
 _atom_site_fract_z
 _atom_site_occupancy
  Li  Li0  1  0.37841700  0.08272600  0.09100700  1
  Li  Li1  1  0.70430800  0.62158300  0.09100700  1
  Li  Li2  1  0.91727400  0.29569200  0.09100700  1
  Li  Li3  1  0.62158300  0.91727400  0.90899300  1
  Li  Li4  1  0.29569200  0.37841700  0.90899300  1
  Li  Li5  1  0.08272600  0.70430800  0.90899300  1
  Li  Li6  1  0.04291500  0.35275800  0.58917700  1
  Li  Li7  1  0.30984300  0.95708500  0.58917700  1
  Li  Li8  1  0.64724200  0.69015700  0.58917700  1
  Li  Li9  1  0.95708500  0.64724200  0.41082300  1
  Li  Li10  1  0.69015700  0.04291500  0.41082300  1
  Li  Li11  1  0.35275800  0.30984300  0.41082300  1
  Li  Li12  1  0.00000000  0.00000000  0.24969900  1
  Li  Li13  1  0.00000000  0.00000000  0.75030100  1
  P  P0  1  0.66666700  0.33333300  0.77408900  1
  P  P1  1  0.33333300  0.66666700  0.22591100  1
  N  N0  1  0.37685500  0.07128100  0.82580100  1
  N  N1  1  0.69442500  0.62314500  0.82580100  1
  N  N2  1  0.92871900  0.30557500  0.82580100  1
  N  N3  1  0.62314500  0.92871900  0.17419900  1
  N  N4  1  0.30557500  0.37685500  0.17419900  1
  N  N5  1  0.07128100  0.69442500  0.17419900  1
  O  O0  1  0.66666700  0.33333300  0.55364600  1
  O  O1  1  0.33333300  0.66666700  0.44635400  1
  O  O2  1  0.00000000  0.00000000  0.50000000  1
loop_
_geom_bond_atom_site_label_1
_geom_bond_atom_site_label_2
_geom_bond_distance
_geom_bond_site_symmetry_2
Li0 N4 2.031859 1_555
Li0 N3 2.095256 1_545
Li0 N5 2.130218 1_545
Li0 N0 2.141630 1_554
Li1 N5 2.031869 1_655
Li1 N4 2.095247 1_555
Li1 N3 2.130211 1_555
Li1 N1 2.141630 1_554
Li2 N3 2.031866 1_545
Li2 N5 2.095246 1_655
Li2 N4 2.130222 1_655
Li2 N2 2.141630 1_554
Li3 N1 2.031859 1_555
Li3 N0 2.095256 1_565
Li3 N2 2.130218 1_565
Li3 N3 2.141630 1_556
Li4 N2 2.031869 1_455
Li4 N1 2.095247 1_555
Li4 N0 2.130211 1_555
Li4 N4 2.141630 1_556
Li5 N0 2.031866 1_565
Li5 N2 2.095246 1_455
Li5 N1 2.130222 1_455
Li5 N5 2.141630 1_556
Li6 N2 1.992249 1_455
Li6 O2 2.031607 1_555
Li6 O1 2.075468 1_555
Li6 O0 2.110530 1_455
Li7 N0 1.992249 1_565
Li7 O2 2.031606 1_565
Li7 O1 2.075465 1_555
Li7 O0 2.110533 1_565
Li8 N1 1.992248 1_555
Li8 O2 2.031607 1_665
Li8 O1 2.075470 1_555
Li8 O0 2.110536 1_555
Li9 N5 1.992249 1_655
Li9 O2 2.031607 1_665
Li9 O0 2.075468 1_555
Li9 O1 2.110530 1_655
Li10 N3 1.992249 1_545
Li10 O2 2.031606 1_655
Li10 O0 2.075465 1_555
Li10 O1 2.110533 1_545
Li11 N4 1.992248 1_555
Li11 O2 2.031607 1_555
Li11 O0 2.075470 1_555
Li11 O1 2.110536 1_555
Li12 O2 2.020440 1_555
Li12 N3 2.067869 1_445
Li12 N4 2.067871 1_555
Li12 N5 2.067875 1_545
Li13 O2 2.020440 1_555
Li13 N0 2.067869 1_555
Li13 N1 2.067871 1_445
Li13 N2 2.067875 1_455
N0 P0 1.632656 1_555
N1 P0 1.632661 1_555
N2 P0 1.632650 1_555
N3 P1 1.632656 1_555
N4 P1 1.632661 1_555
N5 P1 1.632650 1_555
O0 P0 1.779425 1_555
O1 P1 1.779425 1_555
