# generated using pymatgen
data_SrCaNdSbO6
_symmetry_space_group_name_H-M   'P 1'
_cell_length_a   8.44032992
_cell_length_b   8.43700111
_cell_length_c   8.42867098
_cell_angle_alpha   90.00000000
_cell_angle_beta   90.00000000
_cell_angle_gamma   90.00000000
_symmetry_Int_Tables_number   1
_chemical_formula_structural   SrCaNdSbO6
_chemical_formula_sum   'Sr4 Ca4 Nd4 Sb4 O24'
_cell_volume   600.21470364
_cell_formula_units_Z   4
loop_
 _symmetry_equiv_pos_site_id
 _symmetry_equiv_pos_as_xyz
  1  'x, y, z'
loop_
 _atom_site_type_symbol
 _atom_site_label
 _atom_site_symmetry_multiplicity
 _atom_site_fract_x
 _atom_site_fract_y
 _atom_site_fract_z
 _atom_site_occupancy
  Sr  Sr0  1  0.00000000  0.50000000  0.50000000  1
  Sr  Sr1  1  0.50000000  -0.00000000  0.50000000  1
  Sr  Sr2  1  0.50000000  0.50000000  0.00000000  1
  Sr  Sr3  1  0.00000000  0.50000000  0.00000000  1
  Ca  Ca0  1  0.50000000  -0.00000000  0.00000000  1
  Ca  Ca1  1  0.00000000  -0.00000000  0.50000000  1
  Ca  Ca2  1  0.00000000  0.00000000  0.00000000  1
  Ca  Ca3  1  0.50000000  0.50000000  0.50000000  1
  Nd  Nd0  1  0.75038596  0.75223954  0.75039725  1
  Nd  Nd1  1  0.24961404  0.24776046  0.75039725  1
  Nd  Nd2  1  0.24961404  0.75223954  0.24960275  1
  Nd  Nd3  1  0.75038596  0.24776046  0.24960275  1
  Sb  Sb0  1  0.25071251  0.24753810  0.24963648  1
  Sb  Sb1  1  0.74928749  0.75246190  0.24963648  1
  Sb  Sb2  1  0.74928749  0.24753810  0.75036352  1
  Sb  Sb3  1  0.25071251  0.75246190  0.75036352  1
  O  O0  1  0.02060679  0.19413663  0.29165949  1
  O  O1  1  0.97939321  0.80586337  0.29165949  1
  O  O2  1  0.97939321  0.19413663  0.70834051  1
  O  O3  1  0.02060679  0.80586337  0.70834051  1
  O  O4  1  0.29467607  0.01885507  0.19662798  1
  O  O5  1  0.29467607  0.98114493  0.80337202  1
  O  O6  1  0.70532393  0.98114493  0.19662798  1
  O  O7  1  0.70532393  0.01885507  0.80337202  1
  O  O8  1  0.20178780  0.28351493  0.01947122  1
  O  O9  1  0.79821220  0.28351493  0.98052878  1
  O  O10  1  0.20178780  0.71648507  0.98052878  1
  O  O11  1  0.79821220  0.71648507  0.01947122  1
  O  O12  1  0.48174982  0.29519810  0.21689556  1
  O  O13  1  0.51825018  0.70480190  0.21689556  1
  O  O14  1  0.51825018  0.29519810  0.78310444  1
  O  O15  1  0.48174982  0.70480190  0.78310444  1
  O  O16  1  0.21417861  0.48016136  0.29223620  1
  O  O17  1  0.21417861  0.51983864  0.70776380  1
  O  O18  1  0.78582139  0.51983864  0.29223620  1
  O  O19  1  0.78582139  0.48016136  0.70776380  1
  O  O20  1  0.29454763  0.21396638  0.48127533  1
  O  O21  1  0.70545237  0.21396638  0.51872467  1
  O  O22  1  0.29454763  0.78603362  0.51872467  1
  O  O23  1  0.70545237  0.78603362  0.48127533  1
loop_
_geom_bond_atom_site_label_1
_geom_bond_atom_site_label_2
_geom_bond_distance
_geom_bond_site_symmetry_2
Ca0 O4 2.403183 1_555
Ca0 O7 2.403183 1_554
Ca0 O6 2.403183 1_545
Ca0 O5 2.403183 1_544
Ca1 O0 2.407638 1_555
Ca1 O2 2.407638 1_455
Ca1 O1 2.407638 1_445
Ca1 O3 2.407638 1_545
Ca2 O10 2.940988 1_544
Ca2 O8 2.940988 1_555
Ca2 O11 2.940988 1_445
Ca2 O9 2.940988 1_454
Ca2 O3 2.959107 1_544
Ca2 O1 2.959107 1_445
Ca2 O0 2.959107 1_555
Ca2 O2 2.959107 1_454
Ca2 O4 2.992987 1_555
Ca2 O7 2.992987 1_454
Ca2 O6 2.992987 1_445
Ca2 O5 2.992987 1_544
Ca3 O15 2.950142 1_555
Ca3 O13 2.950142 1_555
Ca3 O14 2.950142 1_555
Ca3 O12 2.950142 1_555
Ca3 O21 2.975872 1_555
Ca3 O22 2.975872 1_555
Ca3 O20 2.975872 1_555
Ca3 O23 2.975872 1_555
Ca3 O17 2.985703 1_555
Ca3 O19 2.985703 1_555
Ca3 O16 2.985703 1_555
Ca3 O18 2.985703 1_555
Nd0 O23 2.317433 1_555
Nd0 O15 2.318876 1_555
Nd0 O11 2.323248 1_556
Nd0 O7 2.324647 1_565
Nd0 O19 2.342650 1_555
Nd0 O3 2.352059 1_655
Nd1 O20 2.317433 1_555
Nd1 O14 2.318876 1_555
Nd1 O8 2.323248 1_556
Nd1 O5 2.324647 1_545
Nd1 O17 2.342650 1_555
Nd1 O2 2.352059 1_455
Nd2 O22 2.317433 1_555
Nd2 O13 2.318876 1_555
Nd2 O10 2.323248 1_554
Nd2 O4 2.324647 1_565
Nd2 O16 2.342650 1_555
Nd2 O1 2.352059 1_455
Nd3 O21 2.317433 1_555
Nd3 O12 2.318876 1_555
Nd3 O9 2.323248 1_554
Nd3 O6 2.324647 1_545
Nd3 O18 2.342650 1_555
Nd3 O0 2.352059 1_655
O0 Sb0 2.024961 1_555
O1 Sb1 2.024961 1_555
O2 Sb2 2.024961 1_555
O3 Sb3 2.024961 1_555
O4 Sb0 2.014918 1_555
O4 Sr1 3.093052 1_555
O5 Sb3 2.014918 1_555
O5 Sr1 3.093052 1_565
O6 Sb1 2.014918 1_555
O6 Sr1 3.093052 1_565
O7 Sb2 2.014918 1_555
O7 Sr1 3.093052 1_555
O8 Sb0 2.006541 1_555
O8 Sr3 2.502742 1_555
O8 Sr2 3.114212 1_555
O9 Sb2 2.006541 1_555
O9 Sr3 2.502742 1_656
O9 Sr2 3.114212 1_556
O10 Sb3 2.006541 1_555
O10 Sr3 2.502742 1_556
O10 Sr2 3.114212 1_556
O11 Sb1 2.006541 1_555
O11 Sr3 2.502742 1_655
O11 Sr2 3.114212 1_555
O12 Sb0 2.010091 1_555
O12 Sr2 2.520221 1_555
O13 Sb1 2.010091 1_555
O13 Sr2 2.520221 1_555
O14 Sb2 2.010091 1_555
O14 Sr2 2.520221 1_556
O15 Sb3 2.010091 1_555
O15 Sr2 2.520221 1_556
O16 Sb0 2.018904 1_555
O16 Sr0 2.522407 1_555
O16 Sr3 3.059919 1_555
O17 Sb3 2.018904 1_555
O17 Sr0 2.522407 1_555
O17 Sr3 3.059919 1_556
O18 Sb1 2.018904 1_555
O18 Sr0 2.522407 1_655
O18 Sr3 3.059919 1_655
O19 Sb2 2.018904 1_555
O19 Sr0 2.522407 1_655
O19 Sr3 3.059919 1_656
O20 Sb0 2.007240 1_555
O20 Sr1 2.508153 1_555
O21 Sb2 2.007240 1_555
O21 Sr1 2.508153 1_555
O22 Sb3 2.007240 1_555
O22 Sr1 2.508153 1_565
O23 Sb1 2.007240 1_555
O23 Sr1 2.508153 1_565
