# generated using pymatgen
data_Ca3Ge4Au7
_symmetry_space_group_name_H-M   'P 1'
_cell_length_a   4.52294900
_cell_length_b   9.70927200
_cell_length_c   13.29966400
_cell_angle_alpha   90.00000000
_cell_angle_beta   90.00000000
_cell_angle_gamma   90.00000000
_symmetry_Int_Tables_number   1
_chemical_formula_structural   Ca3Ge4Au7
_chemical_formula_sum   'Ca6 Ge8 Au14'
_cell_volume   584.04865442
_cell_formula_units_Z   2
loop_
 _symmetry_equiv_pos_site_id
 _symmetry_equiv_pos_as_xyz
  1  'x, y, z'
loop_
 _atom_site_type_symbol
 _atom_site_label
 _atom_site_symmetry_multiplicity
 _atom_site_fract_x
 _atom_site_fract_y
 _atom_site_fract_z
 _atom_site_occupancy
  Ca  Ca0  1  0.00000000  0.00097700  0.18899000  1
  Ca  Ca1  1  0.00000000  0.99902300  0.81101000  1
  Ca  Ca2  1  0.50000000  0.49902300  0.68899000  1
  Ca  Ca3  1  0.50000000  0.50097700  0.31101000  1
  Ca  Ca4  1  0.00000000  0.00000000  0.50000000  1
  Ca  Ca5  1  0.50000000  0.50000000  0.00000000  1
  Ge  Ge0  1  0.00000000  0.35222200  0.18268100  1
  Ge  Ge1  1  0.00000000  0.64777800  0.81731900  1
  Ge  Ge2  1  0.50000000  0.14777800  0.68268100  1
  Ge  Ge3  1  0.50000000  0.85222200  0.31731900  1
  Ge  Ge4  1  0.00000000  0.27578900  0.37459800  1
  Ge  Ge5  1  0.00000000  0.72421100  0.62540200  1
  Ge  Ge6  1  0.50000000  0.22421100  0.87459800  1
  Ge  Ge7  1  0.50000000  0.77578900  0.12540200  1
  Au  Au0  1  0.00000000  0.19843700  0.00273300  1
  Au  Au1  1  0.00000000  0.80156300  0.99726700  1
  Au  Au2  1  0.50000000  0.30156300  0.50273300  1
  Au  Au3  1  0.50000000  0.69843700  0.49726700  1
  Au  Au4  1  0.00000000  0.26016700  0.63923700  1
  Au  Au5  1  0.00000000  0.73983300  0.36076300  1
  Au  Au6  1  0.50000000  0.23983300  0.13923700  1
  Au  Au7  1  0.50000000  0.76016700  0.86076300  1
  Au  Au8  1  0.50000000  0.00000000  0.00000000  1
  Au  Au9  1  0.00000000  0.50000000  0.50000000  1
  Au  Au10  1  0.00000000  0.61325500  0.15826300  1
  Au  Au11  1  0.00000000  0.38674500  0.84173700  1
  Au  Au12  1  0.50000000  0.88674500  0.65826300  1
  Au  Au13  1  0.50000000  0.11325500  0.34173700  1
loop_
_geom_bond_atom_site_label_1
_geom_bond_atom_site_label_2
_geom_bond_distance
_geom_bond_site_symmetry_2
Ca0 Ge3 3.180128 1_445
Ca0 Ge3 3.180128 1_545
Ca0 Ge7 3.257279 1_445
Ca0 Ge7 3.257279 1_545
Ca0 Ge0 3.411365 1_555
Ca1 Ge2 3.180128 1_465
Ca1 Ge2 3.180128 1_565
Ca1 Ge6 3.257279 1_565
Ca1 Ge6 3.257279 1_465
Ca1 Ge1 3.411365 1_555
Ca2 Ge1 3.180128 1_655
Ca2 Ge1 3.180128 1_555
Ca2 Ge5 3.257279 1_655
Ca2 Ge5 3.257279 1_555
Ca2 Ge2 3.411365 1_555
Ca3 Ge0 3.180128 1_555
Ca3 Ge0 3.180128 1_655
Ca3 Ge4 3.257279 1_655
Ca3 Ge4 3.257279 1_555
Ca3 Ge3 3.411365 1_555
Ca4 Ge4 3.154632 1_555
Ca4 Ge5 3.154632 1_545
Ca5 Ge7 3.154632 1_555
Ca5 Ge6 3.154632 1_554
Ge0 Ge4 2.658126 1_555
Ge1 Ge5 2.658126 1_555
Ge2 Ge6 2.658126 1_555
Ge3 Ge7 2.658126 1_555
Au0 Ge0 2.820834 1_555
Au0 Ge6 2.842715 1_554
Au0 Ge6 2.842715 1_454
Au0 Au6 2.927746 1_455
Au0 Au6 2.927746 1_555
Au0 Au8 2.971141 1_555
Au0 Au8 2.971141 1_455
Au0 Ca0 3.132400 1_555
Au0 Ca1 3.201637 1_544
Au1 Ge1 2.820834 1_555
Au1 Ge7 2.842715 1_556
Au1 Ge7 2.842715 1_456
Au1 Au7 2.927746 1_555
Au1 Au7 2.927746 1_455
Au1 Au8 2.971141 1_566
Au1 Au8 2.971141 1_466
Au1 Ca1 3.132400 1_555
Au1 Ca0 3.201637 1_566
Au2 Ge2 2.820834 1_555
Au2 Ge4 2.842715 1_655
Au2 Ge4 2.842715 1_555
Au2 Au4 2.927746 1_555
Au2 Au4 2.927746 1_655
Au2 Au9 2.971141 1_555
Au2 Au9 2.971141 1_655
Au2 Ca2 3.132400 1_555
Au2 Ca3 3.201637 1_555
Au3 Ge3 2.820834 1_555
Au3 Ge5 2.842715 1_655
Au3 Ge5 2.842715 1_555
Au3 Au5 2.927746 1_555
Au3 Au5 2.927746 1_655
Au3 Au9 2.971141 1_555
Au3 Au9 2.971141 1_655
Au3 Ca3 3.132400 1_555
Au3 Ca2 3.201637 1_555
Au4 Ge2 2.576599 1_555
Au4 Ge2 2.576599 1_455
Au4 Au9 2.975160 1_555
Au4 Ca4 3.132095 1_555
Au4 Ca2 3.306118 1_555
Au4 Ca2 3.306118 1_455
Au4 Ca1 3.412902 1_545
Au5 Ge3 2.576599 1_555
Au5 Ge3 2.576599 1_455
Au5 Au9 2.975160 1_555
Au5 Ca4 3.132095 1_565
Au5 Ca3 3.306118 1_455
Au5 Ca3 3.306118 1_555
Au5 Ca0 3.412902 1_565
Au6 Ge0 2.576599 1_555
Au6 Ge0 2.576599 1_655
Au6 Au8 2.975160 1_555
Au6 Ca5 3.132095 1_555
Au6 Ca0 3.306118 1_655
Au6 Ca0 3.306118 1_555
Au6 Ca3 3.412902 1_555
Au7 Ge1 2.576599 1_555
Au7 Ge1 2.576599 1_655
Au7 Au8 2.975160 1_566
Au7 Ca5 3.132095 1_556
Au7 Ca1 3.306118 1_655
Au7 Ca1 3.306118 1_555
Au7 Ca2 3.412902 1_555
Au8 Ge7 2.742367 1_545
Au8 Ge6 2.742367 1_554
Au8 Ca1 3.381132 1_544
Au8 Ca1 3.381132 1_644
Au8 Ca0 3.381132 1_555
Au8 Ca0 3.381132 1_655
Au9 Ge5 2.742367 1_555
Au9 Ge4 2.742367 1_555
Au9 Ca3 3.381132 1_455
Au9 Ca3 3.381132 1_555
Au9 Ca2 3.381132 1_455
Au9 Ca2 3.381132 1_555
Au10 Ge0 2.555162 1_555
Au10 Ge7 2.792065 1_455
Au10 Ge7 2.792065 1_555
Au10 Au5 2.960341 1_555
Au10 Ca3 3.229488 1_455
Au10 Ca3 3.229488 1_555
Au10 Ca5 3.279300 1_455
Au10 Ca5 3.279300 1_555
Au11 Ge1 2.555162 1_555
Au11 Ge6 2.792065 1_455
Au11 Ge6 2.792065 1_555
Au11 Au4 2.960341 1_555
Au11 Ca2 3.229488 1_455
Au11 Ca2 3.229488 1_555
Au11 Ca5 3.279300 1_456
Au11 Ca5 3.279300 1_556
Au12 Ge2 2.555162 1_565
Au12 Ge5 2.792065 1_655
Au12 Ge5 2.792065 1_555
Au12 Au7 2.960341 1_555
Au12 Ca1 3.229488 1_555
Au12 Ca1 3.229488 1_655
Au12 Ca4 3.279300 1_565
Au12 Ca4 3.279300 1_665
Au13 Ge3 2.555162 1_545
Au13 Ge4 2.792065 1_655
Au13 Ge4 2.792065 1_555
Au13 Au6 2.960341 1_555
Au13 Ca0 3.229488 1_655
Au13 Ca0 3.229488 1_555
Au13 Ca4 3.279300 1_655
Au13 Ca4 3.279300 1_555
