# generated using pymatgen
data_Na2VCoF7
_symmetry_space_group_name_H-M   'P 1'
_cell_length_a   7.42805199
_cell_length_b   7.42805199
_cell_length_c   24.95653477
_cell_angle_alpha   81.39969665
_cell_angle_beta   81.39969665
_cell_angle_gamma   60.39430045
_symmetry_Int_Tables_number   1
_chemical_formula_structural   Na2VCoF7
_chemical_formula_sum   'Na16 V8 Co8 F56'
_cell_volume   1179.17136724
_cell_formula_units_Z   8
loop_
 _symmetry_equiv_pos_site_id
 _symmetry_equiv_pos_as_xyz
  1  'x, y, z'
loop_
 _atom_site_type_symbol
 _atom_site_label
 _atom_site_symmetry_multiplicity
 _atom_site_fract_x
 _atom_site_fract_y
 _atom_site_fract_z
 _atom_site_occupancy
  Na  Na0  1  0.00000000  0.00000000  0.00000000  1
  Na  Na1  1  0.00000000  0.00000000  0.50000000  1
  Na  Na2  1  0.50000000  0.50000000  0.00000000  1
  Na  Na3  1  0.50000000  0.50000000  0.50000000  1
  Na  Na4  1  0.00000000  0.50000000  0.50000000  1
  Na  Na5  1  0.50000000  0.00000000  0.00000000  1
  Na  Na6  1  0.77825300  0.22174700  0.25000000  1
  Na  Na7  1  0.22174700  0.77825300  0.75000000  1
  Na  Na8  1  0.78605000  0.70737000  0.25186400  1
  Na  Na9  1  0.29263000  0.21395000  0.24813600  1
  Na  Na10  1  0.21395000  0.29263000  0.74813600  1
  Na  Na11  1  0.70737000  0.78605000  0.75186400  1
  Na  Na12  1  0.13452400  0.11768700  0.12170800  1
  Na  Na13  1  0.88231300  0.86547600  0.37829200  1
  Na  Na14  1  0.86547600  0.88231300  0.87829200  1
  Na  Na15  1  0.11768700  0.13452400  0.62170800  1
  V  V0  1  0.00000000  0.50000000  0.00000000  1
  V  V1  1  0.50000000  0.00000000  0.50000000  1
  V  V2  1  0.24667100  0.75332900  0.25000000  1
  V  V3  1  0.75332900  0.24667100  0.75000000  1
  V  V4  1  0.63553800  0.11198700  0.12576600  1
  V  V5  1  0.88801300  0.36446200  0.37423400  1
  V  V6  1  0.36446200  0.88801300  0.87423400  1
  V  V7  1  0.11198700  0.63553800  0.62576600  1
  Co  Co0  1  0.63091400  0.61422900  0.12766800  1
  Co  Co1  1  0.38577100  0.36908600  0.37233200  1
  Co  Co2  1  0.36908600  0.38577100  0.87233200  1
  Co  Co3  1  0.61422900  0.63091400  0.62766800  1
  Co  Co4  1  0.13353700  0.61313000  0.12620600  1
  Co  Co5  1  0.38687000  0.86646300  0.37379400  1
  Co  Co6  1  0.86646300  0.38687000  0.87379400  1
  Co  Co7  1  0.61313000  0.13353700  0.62620600  1
  F  F0  1  0.73851600  0.58527200  0.04693700  1
  F  F1  1  0.41472800  0.26148400  0.45306300  1
  F  F2  1  0.26148400  0.41472800  0.95306300  1
  F  F3  1  0.58527200  0.73851600  0.54693700  1
  F  F4  1  0.52704000  0.63635300  0.20937400  1
  F  F5  1  0.36364700  0.47296000  0.29062600  1
  F  F6  1  0.47296000  0.36364700  0.79062600  1
  F  F7  1  0.63635300  0.52704000  0.70937400  1
  F  F8  1  0.73030200  0.30135000  0.14221600  1
  F  F9  1  0.69865000  0.26969800  0.35778400  1
  F  F10  1  0.26969800  0.69865000  0.85778400  1
  F  F11  1  0.30135000  0.73030200  0.64221600  1
  F  F12  1  0.53635000  0.92505200  0.11029100  1
  F  F13  1  0.07494800  0.46365000  0.38970900  1
  F  F14  1  0.46365000  0.07494800  0.88970900  1
  F  F15  1  0.92505200  0.53635000  0.61029100  1
  F  F16  1  0.13791200  0.58481700  0.04560800  1
  F  F17  1  0.41518300  0.86208800  0.45439200  1
  F  F18  1  0.86208800  0.41518300  0.95439200  1
  F  F19  1  0.58481700  0.13791200  0.54560800  1
  F  F20  1  0.13416600  0.63343700  0.20623900  1
  F  F21  1  0.36656300  0.86583400  0.29376100  1
  F  F22  1  0.86583400  0.36656300  0.79376100  1
  F  F23  1  0.63343700  0.13416600  0.70623900  1
  F  F24  1  0.93654500  0.92416200  0.10917700  1
  F  F25  1  0.07583800  0.06345500  0.39082300  1
  F  F26  1  0.06345500  0.07583800  0.89082300  1
  F  F27  1  0.92416200  0.93654500  0.60917700  1
  F  F28  1  0.33420500  0.30216700  0.14169000  1
  F  F29  1  0.69783300  0.66579500  0.35831000  1
  F  F30  1  0.66579500  0.69783300  0.85831000  1
  F  F31  1  0.30216700  0.33420500  0.64169000  1
  F  F32  1  0.90649300  0.53703900  0.15387000  1
  F  F33  1  0.46296100  0.09350700  0.34613000  1
  F  F34  1  0.09350700  0.46296100  0.84613000  1
  F  F35  1  0.53703900  0.90649300  0.65387000  1
  F  F36  1  0.35800000  0.69284500  0.09964200  1
  F  F37  1  0.30715500  0.64200000  0.40035800  1
  F  F38  1  0.64200000  0.30715500  0.90035800  1
  F  F39  1  0.69284500  0.35800000  0.59964200  1
  F  F40  1  0.12982800  0.20551700  0.03271300  1
  F  F41  1  0.79448300  0.87017200  0.46728700  1
  F  F42  1  0.87017200  0.79448300  0.96728700  1
  F  F43  1  0.20551700  0.12982800  0.53271300  1
  F  F44  1  0.97257000  0.86201300  0.29101800  1
  F  F45  1  0.13798700  0.02743000  0.20898200  1
  F  F46  1  0.02743000  0.13798700  0.70898200  1
  F  F47  1  0.86201300  0.97257000  0.79101800  1
  F  F48  1  0.63690900  0.03092300  0.20576500  1
  F  F49  1  0.96907700  0.36309100  0.29423500  1
  F  F50  1  0.36309100  0.96907700  0.79423500  1
  F  F51  1  0.03092300  0.63690900  0.70576500  1
  F  F52  1  0.63628800  0.18877500  0.04557300  1
  F  F53  1  0.81122500  0.36371200  0.45442700  1
  F  F54  1  0.36371200  0.81122500  0.95442700  1
  F  F55  1  0.18877500  0.63628800  0.54557300  1
loop_
_geom_bond_atom_site_label_1
_geom_bond_atom_site_label_2
_geom_bond_distance
_geom_bond_site_symmetry_2
Co0 F36 2.017935 1_555
Co0 F32 2.018699 1_555
Co0 F12 2.049713 1_555
Co0 F8 2.052003 1_555
Co0 F0 2.054874 1_555
Co0 F4 2.069940 1_555
Co1 F37 2.017935 1_555
Co1 F33 2.018699 1_555
Co1 F13 2.049713 1_555
Co1 F9 2.052003 1_555
Co1 F1 2.054874 1_555
Co1 F5 2.069940 1_555
Co2 F38 2.017935 1_555
Co2 F34 2.018699 1_555
Co2 F14 2.049713 1_555
Co2 F10 2.052003 1_555
Co2 F2 2.054874 1_555
Co2 F6 2.069940 1_555
Co3 F39 2.017935 1_555
Co3 F35 2.018699 1_555
Co3 F15 2.049713 1_555
Co3 F11 2.052003 1_555
Co3 F3 2.054874 1_555
Co3 F7 2.069940 1_555
Co4 F36 2.024243 1_555
Co4 F20 2.026268 1_555
Co4 F32 2.029105 1_455
Co4 F16 2.047296 1_555
Co4 F28 2.051822 1_555
Co4 F24 2.052210 1_455
Co5 F37 2.024243 1_555
Co5 F21 2.026268 1_555
Co5 F33 2.029105 1_565
Co5 F17 2.047296 1_555
Co5 F29 2.051822 1_555
Co5 F25 2.052210 1_565
Co6 F38 2.024243 1_555
Co6 F22 2.026268 1_555
Co6 F34 2.029105 1_655
Co6 F18 2.047296 1_555
Co6 F30 2.051822 1_555
Co6 F26 2.052210 1_655
Co7 F39 2.024243 1_555
Co7 F23 2.026268 1_555
Co7 F35 2.029105 1_545
Co7 F19 2.047296 1_555
Co7 F31 2.051822 1_555
Co7 F27 2.052210 1_545
F0 V0 1.967688 1_655
F0 Na2 2.619868 1_555
F0 Na5 2.854817 1_565
F1 V1 1.967688 1_555
F1 Na3 2.619868 1_555
F1 Na4 2.854817 1_555
F2 V0 1.967688 1_556
F2 Na2 2.619868 1_556
F2 Na5 2.854817 1_556
F3 V1 1.967688 1_565
F3 Na3 2.619868 1_555
F3 Na4 2.854817 1_655
F4 V2 1.991021 1_555
F4 Na8 2.623840 1_555
F4 Na6 2.819296 1_555
F5 V2 1.991021 1_555
F5 Na9 2.623840 1_555
F5 Na6 2.819296 1_555
F6 V3 1.991021 1_555
F6 Na10 2.623840 1_555
F6 Na7 2.819296 1_555
F7 V3 1.991021 1_555
F7 Na11 2.623840 1_555
F7 Na7 2.819296 1_555
F8 V4 1.969767 1_555
F8 Na12 2.615433 1_655
F8 Na6 2.704607 1_555
F9 V5 1.969767 1_555
F9 Na13 2.615433 1_545
F9 Na6 2.704607 1_555
F10 V6 1.969767 1_555
F10 Na14 2.615433 1_455
F10 Na7 2.704607 1_555
F11 V7 1.969767 1_555
F11 Na15 2.615433 1_565
F11 Na7 2.704607 1_555
F12 V4 1.968863 1_565
F12 Na12 2.585587 1_565
F12 Na5 2.752171 1_565
F13 V5 1.968863 1_455
F13 Na13 2.585587 1_455
F13 Na4 2.752171 1_555
F14 V6 1.968863 1_545
F14 Na14 2.585587 1_545
F14 Na5 2.752171 1_556
F15 V7 1.968863 1_655
F15 Na15 2.585587 1_655
F15 Na4 2.752171 1_655
F16 V0 1.985650 1_555
F16 Na2 2.559504 1_555
F16 Na0 2.834314 1_565
F17 V1 1.985650 1_565
F17 Na3 2.559504 1_555
F17 Na1 2.834314 1_565
F18 V0 1.985650 1_656
F18 Na2 2.559504 1_556
F18 Na0 2.834314 1_656
F19 V1 1.985650 1_555
F19 Na3 2.559504 1_555
F19 Na1 2.834314 1_655
F20 V2 1.995851 1_555
F20 Na8 2.487548 1_455
F20 Na9 2.820959 1_555
F21 V2 1.995851 1_555
F21 Na9 2.487548 1_565
F21 Na8 2.820959 1_555
F22 V3 1.995851 1_555
F22 Na10 2.487548 1_655
F22 Na11 2.820959 1_555
F23 V3 1.995851 1_555
F23 Na11 2.487548 1_545
F23 Na10 2.820959 1_555
F24 V4 1.982633 1_565
F24 Na12 2.586052 1_665
F24 Na0 2.717090 1_665
F25 V5 1.982633 1_455
F25 Na13 2.586052 1_445
F25 Na1 2.717090 1_555
F26 V6 1.982633 1_545
F26 Na14 2.586052 1_445
F26 Na0 2.717090 1_556
F27 V7 1.982633 1_655
F27 Na15 2.586052 1_665
F27 Na1 2.717090 1_665
F28 V4 1.985260 1_555
F28 Na12 2.600064 1_555
F28 Na9 2.648742 1_555
F29 V5 1.985260 1_555
F29 Na13 2.600064 1_555
F29 Na8 2.648742 1_555
F30 V6 1.985260 1_555
F30 Na14 2.600064 1_555
F30 Na11 2.648742 1_555
F31 V7 1.985260 1_555
F31 Na15 2.600064 1_555
F31 Na10 2.648742 1_555
F32 Na8 2.744949 1_555
F32 Na12 2.888647 1_655
F33 Na9 2.744949 1_555
F33 Na13 2.888647 1_545
F34 Na10 2.744949 1_555
F34 Na14 2.888647 1_455
F35 Na11 2.744949 1_555
F35 Na15 2.888647 1_565
F36 Na12 2.843938 1_565
F36 Na2 2.852418 1_555
F37 Na13 2.843938 1_455
F37 Na3 2.852418 1_555
F38 Na14 2.843938 1_545
F38 Na2 2.852418 1_556
F39 Na15 2.843938 1_655
F39 Na3 2.852418 1_555
F40 V0 1.999614 1_555
F40 Na12 2.219693 1_555
F40 Na0 2.447414 1_555
F40 Na5 2.472145 1_555
F41 V1 1.999614 1_565
F41 Na13 2.219693 1_555
F41 Na1 2.447414 1_665
F41 Na4 2.472145 1_655
F42 V0 1.999614 1_656
F42 Na14 2.219693 1_555
F42 Na0 2.447414 1_666
F42 Na5 2.472145 1_566
F43 V1 1.999614 1_555
F43 Na15 2.219693 1_555
F43 Na1 2.447414 1_555
F43 Na4 2.472145 1_555
F44 V2 1.960821 1_655
F44 Na13 2.181068 1_555
F44 Na6 2.466673 1_565
F44 Na8 2.550876 1_555
F45 V2 1.960821 1_545
F45 Na12 2.181068 1_555
F45 Na6 2.466673 1_455
F45 Na9 2.550876 1_555
F46 V3 1.960821 1_455
F46 Na15 2.181068 1_555
F46 Na7 2.466673 1_545
F46 Na10 2.550876 1_555
F47 V3 1.960821 1_565
F47 Na14 2.181068 1_555
F47 Na7 2.466673 1_655
F47 Na11 2.550876 1_555
F48 V4 1.997288 1_555
F48 Na8 2.291408 1_545
F48 Na9 2.385863 1_555
F48 Na6 2.572015 1_555
F49 V5 1.997288 1_555
F49 Na9 2.291408 1_655
F49 Na8 2.385863 1_555
F49 Na6 2.572015 1_555
F50 V6 1.997288 1_555
F50 Na10 2.291408 1_565
F50 Na11 2.385863 1_555
F50 Na7 2.572015 1_555
F51 V7 1.997288 1_555
F51 Na11 2.291408 1_455
F51 Na10 2.385863 1_555
F51 Na7 2.572015 1_555
F52 V4 1.997279 1_555
F52 Na2 2.215489 1_555
F52 Na0 2.524618 1_655
F52 Na5 2.551197 1_555
F53 V5 1.997279 1_555
F53 Na3 2.215489 1_555
F53 Na1 2.524618 1_655
F53 Na4 2.551197 1_655
F54 V6 1.997279 1_555
F54 Na2 2.215489 1_556
F54 Na0 2.524618 1_566
F54 Na5 2.551197 1_566
F55 V7 1.997279 1_555
F55 Na3 2.215489 1_555
F55 Na1 2.524618 1_565
F55 Na4 2.551197 1_555
