# generated using pymatgen
data_Mg4Si7
_symmetry_space_group_name_H-M   'P 1'
_cell_length_a   4.06099200
_cell_length_b   8.14068965
_cell_length_c   12.75816364
_cell_angle_alpha   83.14022166
_cell_angle_beta   85.02532234
_cell_angle_gamma   87.41285089
_symmetry_Int_Tables_number   1
_chemical_formula_structural   Mg4Si7
_chemical_formula_sum   'Mg8 Si14'
_cell_volume   416.92091809
_cell_formula_units_Z   2
loop_
 _symmetry_equiv_pos_site_id
 _symmetry_equiv_pos_as_xyz
  1  'x, y, z'
loop_
 _atom_site_type_symbol
 _atom_site_label
 _atom_site_symmetry_multiplicity
 _atom_site_fract_x
 _atom_site_fract_y
 _atom_site_fract_z
 _atom_site_occupancy
  Mg  Mg0  1  0.13750900  0.13137800  0.08390300  1
  Mg  Mg1  1  0.49248400  0.39081900  0.53919400  1
  Mg  Mg2  1  0.94137700  0.16303100  0.68895800  1
  Mg  Mg3  1  0.02645400  0.64221300  0.38657000  1
  Mg  Mg4  1  0.07502400  0.50039300  0.17424200  1
  Mg  Mg5  1  0.43167800  0.41229300  0.78325700  1
  Mg  Mg6  1  0.96656600  0.82706800  0.56895300  1
  Mg  Mg7  1  0.05768500  0.17628100  0.38479000  1
  Si  Si0  1  0.62503400  0.38173800  0.01095700  1
  Si  Si1  1  0.40503100  0.74701200  0.01511700  1
  Si  Si2  1  0.09967200  0.54446200  0.94902900  1
  Si  Si3  1  0.74902500  0.15480200  0.90423000  1
  Si  Si4  1  0.49583300  0.87764200  0.42472800  1
  Si  Si5  1  0.47391400  0.05360400  0.56994000  1
  Si  Si6  1  0.27523800  0.98804300  0.89503000  1
  Si  Si7  1  0.20233500  0.82513800  0.18633900  1
  Si  Si8  1  0.56042300  0.43232100  0.33112200  1
  Si  Si9  1  0.88074500  0.68559600  0.78029900  1
  Si  Si10  1  0.96159400  0.50118300  0.64201100  1
  Si  Si11  1  0.59002500  0.25403200  0.20204300  1
  Si  Si12  1  0.67291300  0.95654100  0.24008100  1
  Si  Si13  1  0.38668800  0.85800000  0.73562200  1
loop_
_geom_bond_atom_site_label_1
_geom_bond_atom_site_label_2
_geom_bond_distance
_geom_bond_site_symmetry_2
Mg0 Si7 2.685978 1_545
Mg0 Si11 2.766101 1_555
Mg0 Si11 2.791035 1_455
Mg0 Si6 2.803549 1_544
Mg0 Si3 2.876722 1_454
Mg0 Si12 2.910102 1_445
Mg0 Si0 2.920849 1_555
Mg0 Si0 2.975077 1_455
Mg1 Si10 2.606178 1_455
Mg1 Si8 2.627623 1_555
Mg1 Si10 2.650766 1_555
Mg1 Si5 2.729799 1_555
Mg1 Mg5 3.127306 1_555
Mg2 Si5 2.712173 1_655
Mg2 Si10 2.749792 1_555
Mg2 Si5 2.771054 1_555
Mg2 Si3 2.783252 1_555
Mg2 Si13 3.036287 1_645
Mg2 Mg5 3.101844 1_555
Mg2 Si6 3.213850 1_645
Mg2 Mg5 3.300423 1_655
Mg3 Si8 2.794697 1_555
Mg3 Si8 2.795457 1_455
Mg3 Si7 2.850335 1_555
Mg3 Si4 2.867343 1_455
Mg3 Si4 2.873533 1_555
Mg3 Mg6 2.905739 1_455
Mg4 Si7 2.741293 1_555
Mg4 Si8 2.791863 1_455
Mg4 Si11 2.844782 1_455
Mg4 Si2 2.846353 1_554
Mg4 Si11 2.846420 1_555
Mg4 Si8 2.918803 1_555
Mg4 Si1 2.957290 1_555
Mg4 Si0 3.121003 1_555
Mg4 Si0 3.148413 1_455
Mg5 Si2 2.714145 1_555
Mg5 Si10 2.749281 1_555
Mg5 Si10 2.752399 1_455
Mg5 Si3 2.786584 1_555
Mg5 Si9 2.934539 1_555
Mg5 Si0 3.053363 1_556
Mg5 Si9 3.082590 1_455
Mg6 Si5 2.659286 1_565
Mg6 Si10 2.705199 1_555
Mg6 Si4 2.718086 1_655
Mg6 Si4 2.750941 1_555
Mg6 Si9 2.801746 1_555
Mg6 Si5 2.828274 1_665
Mg6 Si13 2.879520 1_655
Mg6 Si13 3.055542 1_555
Mg7 Si8 2.900014 1_455
Mg7 Si8 2.963496 1_555
Mg7 Si4 2.967621 1_545
Mg7 Si11 3.067075 1_555
Mg7 Si5 3.067718 1_555
Mg7 Si11 3.122549 1_455
Si0 Si2 2.410533 1_654
Si0 Si3 2.432811 1_554
Si0 Si11 2.528279 1_555
Si0 Si2 2.591910 1_554
Si1 Si2 2.380246 1_554
Si1 Si6 2.409098 1_554
Si1 Si7 2.413872 1_555
Si2 Si9 2.528519 1_455
Si3 Si6 2.423150 1_545
Si3 Si6 2.481105 1_645
Si4 Si5 2.466970 1_565
Si10 Si9 2.441732 1_555
Si11 Si8 2.313842 1_555
Si11 Si12 2.426485 1_545
Si12 Si7 2.419373 1_555
Si12 Si4 2.421923 1_555
Si12 Si7 2.439001 1_655
Si13 Si6 2.402734 1_555
Si13 Si9 2.464383 1_555
Si13 Si5 2.499243 1_565
Si13 Si9 2.526321 1_455
