# generated using pymatgen
data_CrCo2Bi
_symmetry_space_group_name_H-M   'P 1'
_cell_length_a   4.36325896
_cell_length_b   4.36325896
_cell_length_c   4.36325896
_cell_angle_alpha   60.00000000
_cell_angle_beta   60.00000000
_cell_angle_gamma   60.00000000
_symmetry_Int_Tables_number   1
_chemical_formula_structural   CrCo2Bi
_chemical_formula_sum   'Cr1 Co2 Bi1'
_cell_volume   58.73783978
_cell_formula_units_Z   1
loop_
 _symmetry_equiv_pos_site_id
 _symmetry_equiv_pos_as_xyz
  1  'x, y, z'
loop_
 _atom_site_type_symbol
 _atom_site_label
 _atom_site_symmetry_multiplicity
 _atom_site_fract_x
 _atom_site_fract_y
 _atom_site_fract_z
 _atom_site_occupancy
  Cr  Cr0  1  0.00000000  0.00000000  0.00000000  1
  Co  Co0  1  0.75000000  0.75000000  0.75000000  1
  Co  Co1  1  0.25000000  0.25000000  0.25000000  1
  Bi  Bi0  1  0.50000000  0.50000000  0.50000000  1
loop_
_geom_bond_atom_site_label_1
_geom_bond_atom_site_label_2
_geom_bond_distance
_geom_bond_site_symmetry_2
Co0 Cr0 2.671940 1_566
Co0 Cr0 2.671940 1_666
Co0 Cr0 2.671940 1_656
Co0 Cr0 2.671940 1_665
Co1 Cr0 2.671940 1_655
Co1 Cr0 2.671940 1_565
Co1 Cr0 2.671940 1_556
Co1 Cr0 2.671940 1_555
Bi0 Co1 2.671940 1_655
Bi0 Co0 2.671940 1_455
Bi0 Co0 2.671940 1_545
Bi0 Co0 2.671940 1_555
Bi0 Co1 2.671940 1_556
Bi0 Co0 2.671940 1_554
Bi0 Co1 2.671940 1_565
Bi0 Co1 2.671940 1_555
