# generated using pymatgen
data_Ca8Ti3Mn5O20
_symmetry_space_group_name_H-M   'P 1'
_cell_length_a   11.19608539
_cell_length_b   15.44696459
_cell_length_c   11.33423657
_cell_angle_alpha   89.95411642
_cell_angle_beta   91.85262871
_cell_angle_gamma   90.79660241
_symmetry_Int_Tables_number   1
_chemical_formula_structural   Ca8Ti3Mn5O20
_chemical_formula_sum   'Ca32 Ti12 Mn20 O80'
_cell_volume   1958.99150094
_cell_formula_units_Z   4
loop_
 _symmetry_equiv_pos_site_id
 _symmetry_equiv_pos_as_xyz
  1  'x, y, z'
loop_
 _atom_site_type_symbol
 _atom_site_label
 _atom_site_symmetry_multiplicity
 _atom_site_fract_x
 _atom_site_fract_y
 _atom_site_fract_z
 _atom_site_occupancy
  Ca  Ca0  1  0.97500235  0.12402055  0.53846333  1
  Ca  Ca1  1  0.97497370  0.12193414  0.03403117  1
  Ca  Ca2  1  0.97898265  0.62051654  0.53995822  1
  Ca  Ca3  1  0.97884508  0.62171610  0.01628020  1
  Ca  Ca4  1  0.54546987  0.12342677  0.47993673  1
  Ca  Ca5  1  0.54193606  0.12244266  0.98214810  1
  Ca  Ca6  1  0.54594215  0.62603970  0.47750810  1
  Ca  Ca7  1  0.55260515  0.62131792  0.97745844  1
  Ca  Ca8  1  0.52773205  0.37418932  0.98640775  1
  Ca  Ca9  1  0.51149063  0.37110725  0.48684289  1
  Ca  Ca10  1  0.52758874  0.86710121  0.97809586  1
  Ca  Ca11  1  0.51890089  0.87256042  0.47707538  1
  Ca  Ca12  1  0.95475803  0.38279259  0.01544314  1
  Ca  Ca13  1  0.95442334  0.38746791  0.51612358  1
  Ca  Ca14  1  0.95477379  0.87980186  0.01182241  1
  Ca  Ca15  1  0.95408076  0.87924299  0.51296443  1
  Ca  Ca16  1  0.24237547  0.38878684  0.26564291  1
  Ca  Ca17  1  0.24467959  0.39440091  0.71482713  1
  Ca  Ca18  1  0.24467165  0.88709860  0.26812384  1
  Ca  Ca19  1  0.24107285  0.89140556  0.74662933  1
  Ca  Ca20  1  0.73975336  0.37832668  0.25919693  1
  Ca  Ca21  1  0.74983068  0.37673788  0.76703390  1
  Ca  Ca22  1  0.73468186  0.86307732  0.24605696  1
  Ca  Ca23  1  0.73045746  0.85907861  0.74748867  1
  Ca  Ca24  1  0.22728377  0.12049182  0.22168522  1
  Ca  Ca25  1  0.22843389  0.12003244  0.73245645  1
  Ca  Ca26  1  0.23228294  0.62198587  0.21781441  1
  Ca  Ca27  1  0.21980296  0.61535536  0.73695634  1
  Ca  Ca28  1  0.75852998  0.12420968  0.25537242  1
  Ca  Ca29  1  0.75344032  0.12543672  0.75352440  1
  Ca  Ca30  1  0.77497642  0.61759125  0.25419148  1
  Ca  Ca31  1  0.76819096  0.61453200  0.75224941  1
  Ti  Ti0  1  0.98814277  0.99649960  0.27382751  1
  Ti  Ti1  1  0.98113752  0.99623377  0.76964243  1
  Ti  Ti2  1  0.00152061  0.50057972  0.27181719  1
  Ti  Ti3  1  0.24563851  0.97352310  0.01880607  1
  Ti  Ti4  1  0.23510006  0.98483727  0.51404602  1
  Ti  Ti5  1  0.24657014  0.46950587  0.01466330  1
  Ti  Ti6  1  0.26415834  0.24611153  0.94182106  1
  Ti  Ti7  1  0.26275408  0.23290347  0.44691563  1
  Ti  Ti8  1  0.26512054  0.74325995  0.94318378  1
  Ti  Ti9  1  0.99400564  0.25438333  0.28370696  1
  Ti  Ti10  1  0.99467133  0.25557313  0.78411360  1
  Ti  Ti11  1  0.00533992  0.75236980  0.27926447  1
  Mn  Mn0  1  0.99398228  0.49551256  0.76188841  1
  Mn  Mn1  1  0.50083655  0.99154769  0.22518410  1
  Mn  Mn2  1  0.49673850  0.99317103  0.72621281  1
  Mn  Mn3  1  0.50082621  0.50025562  0.23336607  1
  Mn  Mn4  1  0.49444306  0.49051120  0.72593213  1
  Mn  Mn5  1  0.22809877  0.52630595  0.50522990  1
  Mn  Mn6  1  0.74218205  0.99976547  0.99396752  1
  Mn  Mn7  1  0.74301170  0.99975842  0.49616636  1
  Mn  Mn8  1  0.75083714  0.50063471  0.00316838  1
  Mn  Mn9  1  0.74092849  0.50105909  0.50224521  1
  Mn  Mn10  1  0.27494618  0.73507085  0.44637349  1
  Mn  Mn11  1  0.74467449  0.24797665  0.00977858  1
  Mn  Mn12  1  0.74460410  0.25078543  0.50702250  1
  Mn  Mn13  1  0.75349539  0.74789503  0.99953295  1
  Mn  Mn14  1  0.75207278  0.74944660  0.50022152  1
  Mn  Mn15  1  0.99357200  0.75573583  0.77343067  1
  Mn  Mn16  1  0.49966211  0.25280776  0.25145807  1
  Mn  Mn17  1  0.50017033  0.25369107  0.75207785  1
  Mn  Mn18  1  0.50753077  0.74247851  0.24580730  1
  Mn  Mn19  1  0.49324199  0.74643775  0.74605050  1
  O  O0  1  0.56714140  0.25052977  0.09018448  1
  O  O1  1  0.56918603  0.25086809  0.59179398  1
  O  O2  1  0.59933042  0.75575954  0.09268952  1
  O  O3  1  0.55561530  0.75360927  0.58268155  1
  O  O4  1  0.38576361  0.17939995  0.36727240  1
  O  O5  1  0.38446944  0.18571338  0.87225283  1
  O  O6  1  0.39750536  0.66320094  0.34131438  1
  O  O7  1  0.39158494  0.68488024  0.88292417  1
  O  O8  1  0.92155529  0.23846551  0.41962956  1
  O  O9  1  0.91970762  0.23739354  0.91921350  1
  O  O10  1  0.93473780  0.73743427  0.41763628  1
  O  O11  1  0.90836085  0.74397448  0.92714469  1
  O  O12  1  0.17254889  0.25029393  0.30638869  1
  O  O13  1  0.17560809  0.25836700  0.80191529  1
  O  O14  1  0.17563302  0.75290407  0.28655019  1
  O  O15  1  0.18400435  0.75585098  0.80332327  1
  O  O16  1  0.65423020  0.23195250  0.34507190  1
  O  O17  1  0.65467543  0.23468139  0.84590713  1
  O  O18  1  0.66460474  0.72724380  0.34712924  1
  O  O19  1  0.65067745  0.72383023  0.83837898  1
  O  O20  1  0.87690183  0.26936100  0.16558031  1
  O  O21  1  0.88057844  0.26699518  0.66286185  1
  O  O22  1  0.88746034  0.78154260  0.16793105  1
  O  O23  1  0.85911429  0.77737615  0.64427698  1
  O  O24  1  0.35736830  0.52725647  0.10996199  1
  O  O25  1  0.34775307  0.51825288  0.64393890  1
  O  O26  1  0.35552642  0.03015473  0.11548294  1
  O  O27  1  0.35053952  0.03141225  0.61779673  1
  O  O28  1  0.87172861  0.47800440  0.16381840  1
  O  O29  1  0.84086421  0.47792661  0.64715239  1
  O  O30  1  0.86633988  0.97516374  0.16977161  1
  O  O31  1  0.85865068  0.97555806  0.66751978  1
  O  O32  1  0.19876503  0.01693070  0.36168860  1
  O  O33  1  0.22459182  0.01009767  0.86899376  1
  O  O34  1  0.17145316  0.51188711  0.33731743  1
  O  O35  1  0.21192357  0.50072060  0.86575463  1
  O  O36  1  0.62783251  0.03043305  0.34110677  1
  O  O37  1  0.62469232  0.03296228  0.84189505  1
  O  O38  1  0.64585889  0.52220300  0.34801317  1
  O  O39  1  0.62503826  0.51563873  0.83800026  1
  O  O40  1  0.90443117  0.01601926  0.41037589  1
  O  O41  1  0.89925476  0.01565113  0.90879170  1
  O  O42  1  0.91390514  0.51802041  0.40123596  1
  O  O43  1  0.89476342  0.51033513  0.90290686  1
  O  O44  1  0.11346638  0.46787028  0.10211197  1
  O  O45  1  0.09450933  0.47822305  0.62016666  1
  O  O46  1  0.11273356  0.97601731  0.10889432  1
  O  O47  1  0.10625135  0.97653406  0.61222478  1
  O  O48  1  0.60415563  0.49092852  0.09181763  1
  O  O49  1  0.57814389  0.49570825  0.58432014  1
  O  O50  1  0.59896204  0.98245044  0.08185201  1
  O  O51  1  0.59689835  0.98467390  0.58326404  1
  O  O52  1  0.01995511  0.37564929  0.30607056  1
  O  O53  1  0.01054534  0.37491028  0.80878792  1
  O  O54  1  0.03183801  0.88350811  0.31659839  1
  O  O55  1  0.03433523  0.88871616  0.81549071  1
  O  O56  1  0.44833577  0.37912506  0.29077119  1
  O  O57  1  0.44165275  0.37640512  0.79462097  1
  O  O58  1  0.45363345  0.86832201  0.28040878  1
  O  O59  1  0.44438174  0.87283509  0.78744009  1
  O  O60  1  0.01045979  0.12341055  0.23867820  1
  O  O61  1  0.01482245  0.12205574  0.74577148  1
  O  O62  1  0.00481360  0.62692981  0.22715872  1
  O  O63  1  0.99973573  0.62094407  0.74500154  1
  O  O64  1  0.17839116  0.17935715  0.03543410  1
  O  O65  1  0.17840102  0.16553285  0.54431615  1
  O  O66  1  0.17866924  0.67240020  0.02894605  1
  O  O67  1  0.18363779  0.65367951  0.54546262  1
  O  O68  1  0.75567423  0.12034075  0.04704069  1
  O  O69  1  0.75582819  0.12209095  0.54464389  1
  O  O70  1  0.76229192  0.62528654  0.04449246  1
  O  O71  1  0.75643724  0.62712517  0.54238281  1
  O  O72  1  0.29749018  0.33804252  0.51060748  1
  O  O73  1  0.29941047  0.35229186  0.02135386  1
  O  O74  1  0.28589721  0.87192477  0.49659136  1
  O  O75  1  0.29504753  0.85631810  0.01410546  1
  O  O76  1  0.74526744  0.37788619  0.46469445  1
  O  O77  1  0.74615315  0.37613797  0.97541319  1
  O  O78  1  0.74709449  0.87418373  0.45503901  1
  O  O79  1  0.74536967  0.87453938  0.95720039  1
loop_
_geom_bond_atom_site_label_1
_geom_bond_atom_site_label_2
_geom_bond_distance
_geom_bond_site_symmetry_2
Ca0 O8 2.295843 1_555
Ca0 O40 2.325553 1_555
Ca0 O65 2.356107 1_655
Ca0 O61 2.377648 1_655
Ca0 O69 2.456921 1_555
Ca0 O47 2.838871 1_645
Ca0 O21 2.854730 1_555
Ca1 O9 2.287400 1_554
Ca1 O41 2.305693 1_554
Ca1 O60 2.340680 1_655
Ca1 O64 2.432172 1_655
Ca1 O68 2.464254 1_555
Ca1 O46 2.861514 1_645
Ca1 O20 2.965749 1_555
Ca1 O30 3.004177 1_545
Ca2 O10 2.325027 1_555
Ca2 O42 2.325418 1_555
Ca2 O63 2.328115 1_555
Ca2 O67 2.339808 1_655
Ca2 O71 2.496185 1_555
Ca2 O45 2.707491 1_655
Ca3 O11 2.279643 1_554
Ca3 O43 2.319016 1_554
Ca3 O66 2.359991 1_655
Ca3 O62 2.399697 1_655
Ca3 O70 2.457152 1_555
Ca4 O4 2.338596 1_555
Ca4 O1 2.349654 1_555
Ca4 O36 2.350332 1_555
Ca4 O69 2.444355 1_555
Ca4 O51 2.506707 1_545
Ca4 O16 2.586336 1_555
Ca4 O27 3.058684 1_555
Ca5 O37 2.330311 1_555
Ca5 O0 2.336613 1_556
Ca5 O5 2.349221 1_555
Ca5 O68 2.481318 1_556
Ca5 O50 2.519669 1_546
Ca5 O17 2.654154 1_555
Ca5 O26 2.964740 1_556
Ca6 O3 2.303331 1_555
Ca6 O6 2.309448 1_555
Ca6 O49 2.374184 1_555
Ca6 O71 2.445805 1_555
Ca6 O38 2.477534 1_555
Ca6 O18 2.541294 1_555
Ca7 O7 2.298866 1_555
Ca7 O39 2.438187 1_555
Ca7 O70 2.444038 1_556
Ca7 O48 2.459601 1_556
Ca7 O2 2.494426 1_556
Ca7 O19 2.501525 1_555
Ca8 O0 2.283246 1_556
Ca8 O48 2.303422 1_556
Ca8 O57 2.349585 1_555
Ca8 O77 2.452421 1_555
Ca8 O73 2.616719 1_556
Ca8 O39 2.972674 1_555
Ca9 O1 2.293924 1_555
Ca9 O56 2.313963 1_555
Ca9 O49 2.322112 1_555
Ca9 O72 2.466081 1_555
Ca9 O76 2.638088 1_555
Ca10 O50 2.258170 1_556
Ca10 O2 2.292933 1_556
Ca10 O59 2.327485 1_555
Ca10 O79 2.458470 1_555
Ca10 O75 2.651291 1_556
Ca11 O3 2.227897 1_555
Ca11 O51 2.259131 1_555
Ca11 O58 2.323916 1_555
Ca11 O78 2.574853 1_555
Ca11 O74 2.625088 1_555
Ca12 O77 2.365615 1_554
Ca12 O44 2.381965 1_655
Ca12 O43 2.436589 1_554
Ca12 O53 2.447118 1_654
Ca12 O28 2.449176 1_555
Ca12 O9 2.517885 1_554
Ca12 O20 2.602760 1_555
Ca13 O45 2.374400 1_655
Ca13 O76 2.397419 1_555
Ca13 O29 2.439129 1_555
Ca13 O42 2.439528 1_555
Ca13 O52 2.521343 1_655
Ca13 O8 2.565843 1_555
Ca13 O21 2.637032 1_555
Ca14 O11 2.352432 1_554
Ca14 O79 2.405729 1_554
Ca14 O55 2.426630 1_654
Ca14 O22 2.460186 1_555
Ca14 O41 2.477704 1_564
Ca14 O46 2.520088 1_655
Ca14 O30 2.552357 1_555
Ca15 O78 2.388374 1_555
Ca15 O54 2.416455 1_655
Ca15 O23 2.423568 1_555
Ca15 O10 2.447068 1_555
Ca15 O40 2.472202 1_565
Ca15 O47 2.496899 1_655
Ca15 O31 2.567708 1_555
Ca16 O34 2.234377 1_555
Ca16 O12 2.318687 1_555
Ca16 O56 2.321170 1_555
Ca16 O52 2.551863 1_555
Ca16 O73 2.918701 1_555
Ca16 O72 2.933130 1_555
Ca17 O45 2.365614 1_555
Ca17 O25 2.373501 1_555
Ca17 O57 2.376210 1_555
Ca17 O35 2.412432 1_555
Ca17 O13 2.447186 1_555
Ca17 O72 2.563442 1_555
Ca17 O53 2.873070 1_555
Ca18 O14 2.214314 1_555
Ca18 O32 2.340553 1_565
Ca18 O58 2.361094 1_555
Ca18 O54 2.462539 1_555
Ca18 O74 2.626456 1_555
Ca18 O46 2.684369 1_555
Ca18 O75 2.991331 1_555
Ca19 O15 2.278771 1_555
Ca19 O33 2.312804 1_565
Ca19 O59 2.329697 1_555
Ca19 O55 2.466291 1_555
Ca19 O47 2.496326 1_555
Ca19 O27 2.889371 1_565
Ca19 O74 2.910573 1_555
Ca20 O76 2.327987 1_555
Ca20 O28 2.400013 1_555
Ca20 O20 2.548905 1_555
Ca20 O16 2.640652 1_555
Ca20 O38 2.682306 1_555
Ca20 O48 2.968358 1_555
Ca21 O29 2.317336 1_555
Ca21 O77 2.363518 1_555
Ca21 O21 2.567997 1_555
Ca21 O17 2.596681 1_555
Ca21 O39 2.713204 1_555
Ca21 O53 2.942478 1_655
Ca21 O43 3.002313 1_555
Ca22 O22 2.335778 1_555
Ca22 O78 2.374439 1_555
Ca22 O30 2.434585 1_555
Ca22 O18 2.517722 1_555
Ca22 O2 2.798334 1_555
Ca22 O50 3.010403 1_555
Ca23 O23 2.279922 1_555
Ca23 O79 2.389312 1_555
Ca23 O31 2.475586 1_555
Ca23 O19 2.495581 1_555
Ca24 O32 2.278932 1_555
Ca24 O12 2.322229 1_555
Ca24 O64 2.349232 1_555
Ca24 O26 2.372319 1_555
Ca24 O60 2.442450 1_555
Ca24 O4 2.543116 1_555
Ca24 O46 2.842283 1_545
Ca25 O33 2.297511 1_555
Ca25 O65 2.299204 1_555
Ca25 O27 2.366763 1_555
Ca25 O13 2.367204 1_555
Ca25 O61 2.401871 1_555
Ca25 O5 2.523138 1_555
Ca25 O47 2.905468 1_545
Ca26 O14 2.273548 1_555
Ca26 O34 2.283537 1_555
Ca26 O66 2.340196 1_555
Ca26 O6 2.363870 1_555
Ca26 O24 2.401533 1_555
Ca26 O62 2.554590 1_555
Ca27 O67 2.274418 1_555
Ca27 O35 2.296588 1_555
Ca27 O15 2.341511 1_555
Ca27 O25 2.360811 1_555
Ca27 O63 2.471231 1_455
Ca27 O7 2.707253 1_555
Ca27 O45 2.830015 1_555
Ca28 O36 2.283549 1_555
Ca28 O16 2.302319 1_555
Ca28 O68 2.361257 1_555
Ca28 O20 2.796487 1_555
Ca28 O60 2.833262 1_655
Ca28 O40 2.904050 1_555
Ca29 O37 2.270540 1_555
Ca29 O17 2.301385 1_555
Ca29 O69 2.369129 1_555
Ca29 O21 2.804998 1_555
Ca29 O41 2.919693 1_555
Ca30 O38 2.330095 1_555
Ca30 O18 2.377144 1_555
Ca30 O70 2.379405 1_555
Ca30 O62 2.603272 1_655
Ca30 O28 2.648023 1_555
Ca30 O42 2.730857 1_555
Ca31 O19 2.383680 1_555
Ca31 O71 2.386000 1_555
Ca31 O39 2.424307 1_555
Ca31 O29 2.578391 1_555
Ca31 O63 2.596861 1_555
Ca31 O43 2.723454 1_555
Ca31 O23 2.977556 1_555
Mn0 O53 1.946572 1_655
Mn0 O63 1.947193 1_555
Mn0 O43 1.990874 1_555
Mn0 O45 2.011036 1_655
Mn0 O29 2.132446 1_555
Mn0 O35 2.674952 1_655
Mn1 O36 1.991361 1_565
Mn1 O50 1.996489 1_555
Mn1 O58 2.070210 1_555
Mn1 O26 2.107950 1_565
Mn2 O37 2.001153 1_565
Mn2 O51 2.005435 1_555
Mn2 O59 2.067456 1_555
Mn2 O27 2.105681 1_565
Mn3 O48 2.014465 1_555
Mn3 O56 2.064443 1_555
Mn3 O38 2.071029 1_555
Mn3 O24 2.140678 1_555
Mn4 O49 1.885690 1_555
Mn4 O25 1.914382 1_555
Mn4 O39 1.940851 1_555
Mn4 O57 2.015136 1_555
Mn5 O34 1.998138 1_555
Mn5 O25 2.037153 1_555
Mn5 O67 2.090521 1_555
Mn5 O45 2.139938 1_555
Mn6 O50 1.930261 1_556
Mn6 O68 1.960040 1_566
Mn6 O79 1.980118 1_555
Mn6 O41 2.045063 1_565
Mn6 O37 2.198846 1_565
Mn6 O30 2.425201 1_556
Mn7 O51 1.948959 1_555
Mn7 O69 1.970370 1_565
Mn7 O78 1.996821 1_555
Mn7 O40 2.091750 1_565
Mn7 O36 2.201211 1_565
Mn7 O31 2.331887 1_555
Mn8 O77 1.948618 1_554
Mn8 O48 1.956697 1_555
Mn8 O70 1.983441 1_555
Mn8 O43 2.005465 1_554
Mn8 O28 2.263284 1_555
Mn8 O39 2.319472 1_554
Mn9 O76 1.951608 1_555
Mn9 O29 1.992102 1_555
Mn9 O71 2.004032 1_555
Mn9 O38 2.045469 1_555
Mn9 O49 2.073454 1_555
Mn9 O42 2.293204 1_555
Mn10 O67 1.980746 1_555
Mn10 O14 2.114515 1_555
Mn10 O6 2.164119 1_555
Mn10 O74 2.190459 1_555
Mn11 O77 2.017296 1_554
Mn11 O68 2.020581 1_555
Mn11 O17 2.093116 1_554
Mn11 O0 2.214116 1_555
Mn11 O9 2.249446 1_554
Mn11 O20 2.288551 1_555
Mn12 O76 2.020685 1_555
Mn12 O69 2.037558 1_555
Mn12 O16 2.085760 1_555
Mn12 O1 2.214168 1_555
Mn12 O8 2.253894 1_555
Mn12 O21 2.305747 1_555
Mn13 O11 1.943753 1_555
Mn13 O70 1.963857 1_556
Mn13 O79 2.016460 1_555
Mn13 O2 2.057352 1_556
Mn13 O19 2.157057 1_555
Mn13 O22 2.440820 1_556
Mn14 O71 1.949499 1_555
Mn14 O18 1.992300 1_555
Mn14 O78 1.994372 1_555
Mn14 O23 2.036795 1_555
Mn14 O10 2.286433 1_555
Mn14 O3 2.419223 1_555
Mn15 O11 2.020073 1_555
Mn15 O23 2.095609 1_555
Mn15 O63 2.109582 1_555
Mn15 O15 2.147981 1_655
Mn15 O55 2.148601 1_655
Mn16 O0 2.000856 1_555
Mn16 O16 2.029938 1_555
Mn16 O56 2.094076 1_555
Mn16 O4 2.168112 1_555
Mn17 O1 1.997795 1_555
Mn17 O17 2.025904 1_555
Mn17 O57 2.076373 1_555
Mn17 O5 2.170236 1_555
Mn18 O2 2.054073 1_555
Mn18 O6 2.056954 1_555
Mn18 O58 2.084666 1_555
Mn18 O18 2.085050 1_555
Mn19 O3 2.002430 1_555
Mn19 O19 2.054579 1_555
Mn19 O59 2.092647 1_555
Mn19 O7 2.165179 1_555
O4 Ti7 1.872934 1_555
O5 Ti6 1.847000 1_555
O7 Ti8 1.839434 1_555
O8 Ti9 1.779458 1_555
O9 Ti10 1.789938 1_555
O10 Ti11 1.792278 1_655
O12 Ti7 1.879336 1_555
O12 Ti9 2.009050 1_455
O13 Ti6 1.853741 1_555
O13 Ti10 2.029169 1_455
O14 Ti11 1.905638 1_555
O15 Ti8 1.812969 1_555
O20 Ti9 1.859986 1_555
O21 Ti10 1.855781 1_555
O22 Ti11 1.856124 1_655
O24 Ti5 1.839968 1_555
O26 Ti3 1.834136 1_545
O27 Ti4 1.856914 1_545
O28 Ti2 1.898222 1_655
O30 Ti0 1.800956 1_555
O31 Ti1 1.791148 1_555
O32 Ti4 1.830874 1_545
O32 Ti0 2.545607 1_445
O33 Ti3 1.798399 1_546
O34 Ti2 2.025119 1_555
O35 Ti5 1.786920 1_556
O40 Ti0 1.861993 1_545
O41 Ti1 1.876091 1_545
O42 Ti2 1.813160 1_655
O44 Ti5 1.816117 1_555
O44 Ti2 2.387677 1_555
O46 Ti3 1.832533 1_555
O46 Ti0 2.392150 1_455
O47 Ti4 1.853174 1_555
O47 Ti1 2.326482 1_455
O52 Ti9 1.907451 1_455
O52 Ti2 1.980437 1_555
O53 Ti10 1.869870 1_455
O54 Ti0 1.878225 1_455
O54 Ti11 2.084954 1_555
O55 Ti1 1.840985 1_455
O60 Ti0 2.013911 1_445
O60 Ti9 2.098945 1_455
O61 Ti1 1.994559 1_445
O61 Ti10 2.124647 1_455
O62 Ti2 2.016041 1_555
O62 Ti11 2.025997 1_555
O64 Ti6 1.774190 1_554
O65 Ti7 1.797751 1_555
O66 Ti8 1.763375 1_554
O72 Ti7 1.810023 1_555
O73 Ti6 1.902598 1_554
O73 Ti5 1.913292 1_555
O74 Ti4 1.854745 1_555
O75 Ti3 1.901719 1_555
O75 Ti8 1.943432 1_554
