# generated using pymatgen
data_Zr5CuBi3
_symmetry_space_group_name_H-M   'P 1'
_cell_length_a   8.78777438
_cell_length_b   8.78777438
_cell_length_c   5.91127577
_cell_angle_alpha   90.00000000
_cell_angle_beta   90.00000000
_cell_angle_gamma   119.99995872
_symmetry_Int_Tables_number   1
_chemical_formula_structural   Zr5CuBi3
_chemical_formula_sum   'Zr10 Cu2 Bi6'
_cell_volume   395.33915413
_cell_formula_units_Z   2
loop_
 _symmetry_equiv_pos_site_id
 _symmetry_equiv_pos_as_xyz
  1  'x, y, z'
loop_
 _atom_site_type_symbol
 _atom_site_label
 _atom_site_symmetry_multiplicity
 _atom_site_fract_x
 _atom_site_fract_y
 _atom_site_fract_z
 _atom_site_occupancy
  Zr  Zr0  1  0.74158835  0.00000000  0.25000000  1
  Zr  Zr1  1  0.00000000  0.74158835  0.25000000  1
  Zr  Zr2  1  0.25841165  0.25841165  0.25000000  1
  Zr  Zr3  1  0.25841165  -0.00000000  0.75000000  1
  Zr  Zr4  1  -0.00000000  0.25841165  0.75000000  1
  Zr  Zr5  1  0.74158835  0.74158835  0.75000000  1
  Zr  Zr6  1  0.33333300  0.66666700  0.50000000  1
  Zr  Zr7  1  0.66666700  0.33333300  0.50000000  1
  Zr  Zr8  1  0.66666700  0.33333300  0.00000000  1
  Zr  Zr9  1  0.33333300  0.66666700  0.00000000  1
  Cu  Cu0  1  0.00000000  -0.00000000  0.50000000  1
  Cu  Cu1  1  0.00000000  -0.00000000  0.00000000  1
  Bi  Bi0  1  0.38621449  0.00000000  0.25000000  1
  Bi  Bi1  1  0.00000000  0.38621449  0.25000000  1
  Bi  Bi2  1  0.61378551  0.61378551  0.25000000  1
  Bi  Bi3  1  0.61378551  -0.00000000  0.75000000  1
  Bi  Bi4  1  -0.00000000  0.61378551  0.75000000  1
  Bi  Bi5  1  0.38621449  0.38621449  0.75000000  1
loop_
_geom_bond_atom_site_label_1
_geom_bond_atom_site_label_2
_geom_bond_distance
_geom_bond_site_symmetry_2
Zr6 Zr9 2.955638 1_555
Zr6 Zr9 2.955638 1_556
Zr7 Zr8 2.955638 1_556
Zr7 Zr8 2.955638 1_555
Cu0 Zr3 2.709385 1_555
Cu0 Zr4 2.709385 1_555
Cu0 Zr1 2.709385 1_545
Cu0 Zr0 2.709385 1_455
Cu0 Zr5 2.709387 1_445
Cu0 Zr2 2.709387 1_555
Cu1 Zr3 2.709385 1_554
Cu1 Zr4 2.709385 1_554
Cu1 Zr1 2.709385 1_545
Cu1 Zr0 2.709385 1_455
Cu1 Zr2 2.709387 1_555
Cu1 Zr5 2.709387 1_444
Bi0 Zr2 2.994760 1_555
Bi0 Zr1 2.994762 1_545
Bi0 Zr6 3.101481 1_545
Bi0 Zr9 3.101481 1_545
Bi0 Zr8 3.101485 1_555
Bi0 Zr7 3.101485 1_555
Bi0 Zr0 3.122945 1_555
Bi0 Zr3 3.161828 1_554
Bi0 Zr3 3.161828 1_555
Bi1 Zr2 2.994760 1_555
Bi1 Zr0 2.994762 1_455
Bi1 Zr7 3.101481 1_455
Bi1 Zr8 3.101481 1_455
Bi1 Zr6 3.101485 1_555
Bi1 Zr9 3.101485 1_555
Bi1 Zr1 3.122945 1_555
Bi1 Zr4 3.161828 1_555
Bi1 Zr4 3.161828 1_554
Bi2 Zr1 2.994761 1_655
Bi2 Zr0 2.994761 1_565
Bi2 Zr8 3.101488 1_555
Bi2 Zr7 3.101488 1_555
Bi2 Zr9 3.101488 1_555
Bi2 Zr6 3.101488 1_555
Bi2 Zr2 3.122947 1_555
Bi2 Zr5 3.161828 1_555
Bi2 Zr5 3.161828 1_554
Bi3 Zr5 2.994760 1_545
Bi3 Zr4 2.994762 1_655
Bi3 Zr8 3.101481 1_556
Bi3 Zr7 3.101481 1_555
Bi3 Zr9 3.101485 1_546
Bi3 Zr6 3.101485 1_545
Bi3 Zr3 3.122945 1_555
Bi3 Zr0 3.161828 1_555
Bi3 Zr0 3.161828 1_556
Bi4 Zr5 2.994760 1_455
Bi4 Zr3 2.994762 1_565
Bi4 Zr9 3.101481 1_556
Bi4 Zr6 3.101481 1_555
Bi4 Zr8 3.101485 1_456
Bi4 Zr7 3.101485 1_455
Bi4 Zr4 3.122945 1_555
Bi4 Zr1 3.161828 1_556
Bi4 Zr1 3.161828 1_555
Bi5 Zr4 2.994761 1_555
Bi5 Zr3 2.994761 1_555
Bi5 Zr7 3.101488 1_555
Bi5 Zr8 3.101488 1_556
Bi5 Zr9 3.101488 1_556
Bi5 Zr6 3.101488 1_555
Bi5 Zr5 3.122947 1_555
Bi5 Zr2 3.161828 1_556
Bi5 Zr2 3.161828 1_555
