# generated using pymatgen
data_Si2O
_symmetry_space_group_name_H-M   'P 1'
_cell_length_a   6.61657069
_cell_length_b   6.61657069
_cell_length_c   6.61657069
_cell_angle_alpha   60.00000000
_cell_angle_beta   60.00000000
_cell_angle_gamma   60.00000000
_symmetry_Int_Tables_number   1
_chemical_formula_structural   Si2O
_chemical_formula_sum   'Si4 O2'
_cell_volume   204.82542827
_cell_formula_units_Z   2
loop_
 _symmetry_equiv_pos_site_id
 _symmetry_equiv_pos_as_xyz
  1  'x, y, z'
loop_
 _atom_site_type_symbol
 _atom_site_label
 _atom_site_symmetry_multiplicity
 _atom_site_fract_x
 _atom_site_fract_y
 _atom_site_fract_z
 _atom_site_occupancy
  Si  Si0  1  0.12500000  0.12500000  0.12500000  1
  Si  Si1  1  0.12500000  0.12500000  0.62500000  1
  Si  Si2  1  0.12500000  0.62500000  0.12500000  1
  Si  Si3  1  0.62500000  0.12500000  0.12500000  1
  O  O0  1  0.00000000  0.00000000  0.00000000  1
  O  O1  1  0.25000000  0.25000000  0.25000000  1
loop_
_geom_bond_atom_site_label_1
_geom_bond_atom_site_label_2
_geom_bond_distance
_geom_bond_site_symmetry_2
O0 Si2 2.025903 1_545
O0 Si3 2.025903 1_455
O0 Si1 2.025903 1_554
O0 Si0 2.025903 1_555
O1 Si2 2.025903 1_555
O1 Si3 2.025903 1_555
O1 Si1 2.025903 1_555
O1 Si0 2.025903 1_555
