# generated using pymatgen
data_Mg(AlSn)2
_symmetry_space_group_name_H-M   'P 1'
_cell_length_a   4.46628588
_cell_length_b   4.46628588
_cell_length_c   7.23293000
_cell_angle_alpha   90.00000000
_cell_angle_beta   90.00000000
_cell_angle_gamma   119.99999825
_symmetry_Int_Tables_number   1
_chemical_formula_structural   Mg(AlSn)2
_chemical_formula_sum   'Mg1 Al2 Sn2'
_cell_volume   124.95048264
_cell_formula_units_Z   1
loop_
 _symmetry_equiv_pos_site_id
 _symmetry_equiv_pos_as_xyz
  1  'x, y, z'
loop_
 _atom_site_type_symbol
 _atom_site_label
 _atom_site_symmetry_multiplicity
 _atom_site_fract_x
 _atom_site_fract_y
 _atom_site_fract_z
 _atom_site_occupancy
  Mg  Mg0  1  0.00000000  0.00000000  0.00000000  1
  Al  Al0  1  0.66666700  0.33333300  0.37478100  1
  Al  Al1  1  0.33333300  0.66666700  0.62521900  1
  Sn  Sn0  1  0.66666700  0.33333300  0.76821600  1
  Sn  Sn1  1  0.33333300  0.66666700  0.23178400  1
loop_
_geom_bond_atom_site_label_1
_geom_bond_atom_site_label_2
_geom_bond_distance
_geom_bond_site_symmetry_2
Mg0 Sn1 3.075679 1_545
Mg0 Sn0 3.075679 1_454
Mg0 Sn0 3.075682 1_444
Mg0 Sn1 3.075682 1_445
Mg0 Sn1 3.075682 1_555
Mg0 Sn0 3.075682 1_554
Al0 Sn1 2.778304 1_655
Al0 Sn1 2.778304 1_545
Al0 Sn1 2.778311 1_555
Al0 Sn0 2.845688 1_555
Al1 Sn0 2.778304 1_455
Al1 Sn0 2.778304 1_565
Al1 Sn0 2.778311 1_555
Al1 Sn1 2.845688 1_555
