# generated using pymatgen
data_Mg14TiZnO16
_symmetry_space_group_name_H-M   'P 1'
_cell_length_a   8.58772282
_cell_length_b   8.59108948
_cell_length_c   4.26111585
_cell_angle_alpha   90.00000000
_cell_angle_beta   90.00000000
_cell_angle_gamma   90.00000000
_symmetry_Int_Tables_number   1
_chemical_formula_structural   Mg14TiZnO16
_chemical_formula_sum   'Mg14 Ti1 Zn1 O16'
_cell_volume   314.37615851
_cell_formula_units_Z   1
loop_
 _symmetry_equiv_pos_site_id
 _symmetry_equiv_pos_as_xyz
  1  'x, y, z'
loop_
 _atom_site_type_symbol
 _atom_site_label
 _atom_site_symmetry_multiplicity
 _atom_site_fract_x
 _atom_site_fract_y
 _atom_site_fract_z
 _atom_site_occupancy
  Mg  Mg0  1  0.50000000  0.00000000  -0.00000000  1
  Mg  Mg1  1  0.50000000  0.50000000  -0.00000000  1
  Mg  Mg2  1  0.00000000  0.24660106  0.50000000  1
  Mg  Mg3  1  0.00000000  0.75339894  0.50000000  1
  Mg  Mg4  1  0.50000000  0.24962272  0.50000000  1
  Mg  Mg5  1  0.50000000  0.75037728  0.50000000  1
  Mg  Mg6  1  0.25012277  0.00000000  0.50000000  1
  Mg  Mg7  1  0.25301063  0.50000000  0.50000000  1
  Mg  Mg8  1  0.74987723  0.00000000  0.50000000  1
  Mg  Mg9  1  0.74698937  0.50000000  0.50000000  1
  Mg  Mg10  1  0.25074449  0.24890839  0.00000000  1
  Mg  Mg11  1  0.25074449  0.75109161  -0.00000000  1
  Mg  Mg12  1  0.74925551  0.24890839  -0.00000000  1
  Mg  Mg13  1  0.74925551  0.75109161  -0.00000000  1
  Ti  Ti0  1  0.00000000  0.50000000  -0.00000000  1
  Zn  Zn0  1  0.00000000  0.00000000  -0.00000000  1
  O  O0  1  0.25485817  0.00000000  -0.00000000  1
  O  O1  1  0.25539239  0.50000000  -0.00000000  1
  O  O2  1  0.74514183  0.00000000  0.00000000  1
  O  O3  1  0.74460761  0.50000000  -0.00000000  1
  O  O4  1  0.24878029  0.25030988  0.50000000  1
  O  O5  1  0.24878029  0.74969012  0.50000000  1
  O  O6  1  0.75121971  0.25030988  0.50000000  1
  O  O7  1  0.75121971  0.74969012  0.50000000  1
  O  O8  1  0.00000000  0.00000000  0.50000000  1
  O  O9  1  0.00000000  0.50000000  0.50000000  1
  O  O10  1  0.50000000  0.00000000  0.50000000  1
  O  O11  1  0.50000000  0.50000000  0.50000000  1
  O  O12  1  0.00000000  0.24870683  -0.00000000  1
  O  O13  1  0.00000000  0.75129317  -0.00000000  1
  O  O14  1  0.50000000  0.25007581  -0.00000000  1
  O  O15  1  0.50000000  0.74992419  -0.00000000  1
loop_
_geom_bond_atom_site_label_1
_geom_bond_atom_site_label_2
_geom_bond_distance
_geom_bond_site_symmetry_2
Mg0 O0 2.105210 1_555
Mg0 O2 2.105210 1_555
Mg0 O10 2.130558 1_555
Mg0 O10 2.130558 1_554
Mg0 O14 2.148424 1_555
Mg0 O15 2.148424 1_545
Mg1 O3 2.100622 1_555
Mg1 O1 2.100622 1_555
Mg1 O11 2.130558 1_554
Mg1 O11 2.130558 1_555
Mg1 O14 2.147121 1_555
Mg1 O15 2.147121 1_555
Mg2 O8 2.118572 1_555
Mg2 O12 2.130635 1_556
Mg2 O12 2.130635 1_555
Mg2 O4 2.136694 1_555
Mg2 O6 2.136694 1_455
Mg2 O9 2.176973 1_555
Mg3 O8 2.118572 1_565
Mg3 O13 2.130635 1_555
Mg3 O13 2.130635 1_556
Mg3 O5 2.136694 1_555
Mg3 O7 2.136694 1_455
Mg3 O9 2.176973 1_555
Mg4 O14 2.130561 1_556
Mg4 O14 2.130561 1_555
Mg4 O10 2.144531 1_555
Mg4 O11 2.151014 1_555
Mg4 O4 2.157413 1_555
Mg4 O6 2.157413 1_555
Mg5 O15 2.130561 1_556
Mg5 O15 2.130561 1_555
Mg5 O10 2.144531 1_565
Mg5 O11 2.151014 1_555
Mg5 O5 2.157413 1_555
Mg5 O7 2.157413 1_555
Mg6 O0 2.130946 1_555
Mg6 O0 2.130946 1_556
Mg6 O10 2.145876 1_555
Mg6 O8 2.147985 1_555
Mg6 O5 2.150465 1_545
Mg6 O4 2.150465 1_555
Mg7 O11 2.121076 1_555
Mg7 O1 2.130656 1_556
Mg7 O1 2.130656 1_555
Mg7 O4 2.145418 1_555
Mg7 O5 2.145418 1_555
Mg7 O9 2.172785 1_555
Mg8 O2 2.130946 1_555
Mg8 O2 2.130946 1_556
Mg8 O10 2.145876 1_555
Mg8 O8 2.147985 1_655
Mg8 O6 2.150465 1_555
Mg8 O7 2.150465 1_545
Mg9 O11 2.121076 1_555
Mg9 O3 2.130656 1_556
Mg9 O3 2.130656 1_555
Mg9 O6 2.145418 1_555
Mg9 O7 2.145418 1_555
Mg9 O9 2.172785 1_655
Mg10 O4 2.130659 1_555
Mg10 O4 2.130659 1_554
Mg10 O0 2.138686 1_555
Mg10 O14 2.140561 1_555
Mg10 O12 2.153325 1_555
Mg10 O1 2.157520 1_555
Mg11 O5 2.130659 1_555
Mg11 O5 2.130659 1_554
Mg11 O0 2.138686 1_565
Mg11 O15 2.140561 1_555
Mg11 O13 2.153325 1_555
Mg11 O1 2.157520 1_555
Mg12 O6 2.130659 1_555
Mg12 O6 2.130659 1_554
Mg12 O2 2.138686 1_555
Mg12 O14 2.140561 1_555
Mg12 O12 2.153325 1_655
Mg12 O3 2.157520 1_555
Mg13 O7 2.130659 1_555
Mg13 O7 2.130659 1_554
Mg13 O2 2.138686 1_565
Mg13 O15 2.140561 1_555
Mg13 O13 2.153325 1_655
Mg13 O3 2.157520 1_555
O0 Zn0 2.188651 1_555
O1 Ti0 2.193239 1_555
O2 Zn0 2.188651 1_655
O3 Ti0 2.193239 1_655
O8 Zn0 2.130558 1_556
O8 Zn0 2.130558 1_555
O9 Ti0 2.130558 1_555
O9 Ti0 2.130558 1_556
O12 Zn0 2.136663 1_555
O12 Ti0 2.158882 1_555
O13 Zn0 2.136663 1_565
O13 Ti0 2.158882 1_555
