# generated using pymatgen
data_MgFe3O7
_symmetry_space_group_name_H-M   'P 1'
_cell_length_a   5.30516200
_cell_length_b   10.34832600
_cell_length_c   10.35748500
_cell_angle_alpha   90.00000000
_cell_angle_beta   90.00000000
_cell_angle_gamma   90.00000000
_symmetry_Int_Tables_number   1
_chemical_formula_structural   MgFe3O7
_chemical_formula_sum   'Mg4 Fe12 O28'
_cell_volume   568.62122274
_cell_formula_units_Z   4
loop_
 _symmetry_equiv_pos_site_id
 _symmetry_equiv_pos_as_xyz
  1  'x, y, z'
loop_
 _atom_site_type_symbol
 _atom_site_label
 _atom_site_symmetry_multiplicity
 _atom_site_fract_x
 _atom_site_fract_y
 _atom_site_fract_z
 _atom_site_occupancy
  Mg  Mg0  1  0.34172300  0.09168500  0.25000000  1
  Mg  Mg1  1  0.84172300  0.40831500  0.75000000  1
  Mg  Mg2  1  0.65827700  0.90831500  0.75000000  1
  Mg  Mg3  1  0.15827700  0.59168500  0.25000000  1
  Fe  Fe0  1  0.70035000  0.68160100  0.97312500  1
  Fe  Fe1  1  0.20035000  0.81839900  0.02687500  1
  Fe  Fe2  1  0.29965000  0.31839900  0.47312500  1
  Fe  Fe3  1  0.79965000  0.18160100  0.52687500  1
  Fe  Fe4  1  0.68467800  0.77500600  0.25000000  1
  Fe  Fe5  1  0.18467800  0.72499400  0.75000000  1
  Fe  Fe6  1  0.31532200  0.22499400  0.75000000  1
  Fe  Fe7  1  0.81532200  0.27500600  0.25000000  1
  Fe  Fe8  1  0.20035000  0.81839900  0.47312500  1
  Fe  Fe9  1  0.70035000  0.68160100  0.52687500  1
  Fe  Fe10  1  0.79965000  0.18160100  0.97312500  1
  Fe  Fe11  1  0.29965000  0.31839900  0.02687500  1
  O  O0  1  0.06121700  0.28150500  0.87713300  1
  O  O1  1  0.56121700  0.21849500  0.12286700  1
  O  O2  1  0.93878300  0.71849500  0.37713300  1
  O  O3  1  0.43878300  0.78150500  0.62286700  1
  O  O4  1  0.93878300  0.71849500  0.12286700  1
  O  O5  1  0.43878300  0.78150500  0.87713300  1
  O  O6  1  0.06121700  0.28150500  0.62286700  1
  O  O7  1  0.56121700  0.21849500  0.37713300  1
  O  O8  1  0.54891200  0.29216000  0.88060600  1
  O  O9  1  0.04891200  0.20784000  0.11939400  1
  O  O10  1  0.45108800  0.70784000  0.38060600  1
  O  O11  1  0.95108800  0.79216000  0.61939400  1
  O  O12  1  0.45108800  0.70784000  0.11939400  1
  O  O13  1  0.95108800  0.79216000  0.88060600  1
  O  O14  1  0.54891200  0.29216000  0.61939400  1
  O  O15  1  0.04891200  0.20784000  0.38060600  1
  O  O16  1  0.87947600  0.44928900  0.25000000  1
  O  O17  1  0.37947600  0.05071100  0.75000000  1
  O  O18  1  0.12052400  0.55071100  0.75000000  1
  O  O19  1  0.62052400  0.94928900  0.25000000  1
  O  O20  1  0.75548800  0.02669000  0.60302300  1
  O  O21  1  0.25548800  0.47331000  0.39697700  1
  O  O22  1  0.24451200  0.97331000  0.10302300  1
  O  O23  1  0.74451200  0.52669000  0.89697700  1
  O  O24  1  0.24451200  0.97331000  0.39697700  1
  O  O25  1  0.74451200  0.52669000  0.60302300  1
  O  O26  1  0.75548800  0.02669000  0.89697700  1
  O  O27  1  0.25548800  0.47331000  0.10302300  1
loop_
_geom_bond_atom_site_label_1
_geom_bond_atom_site_label_2
_geom_bond_distance
_geom_bond_site_symmetry_2
Mg0 O24 2.020887 1_545
Mg0 O22 2.020887 1_545
Mg0 O19 2.087839 1_545
Mg0 O7 2.193606 1_555
Mg0 O1 2.193606 1_555
Mg0 O15 2.384920 1_555
Mg0 O9 2.384920 1_555
Mg1 O23 2.020887 1_555
Mg1 O25 2.020887 1_555
Mg1 O18 2.087839 1_655
Mg1 O0 2.193606 1_655
Mg1 O6 2.193606 1_655
Mg1 O8 2.384920 1_555
Mg1 O14 2.384920 1_555
Mg2 O26 2.020887 1_565
Mg2 O20 2.020887 1_565
Mg2 O17 2.087839 1_565
Mg2 O5 2.193606 1_555
Mg2 O3 2.193606 1_555
Mg2 O11 2.384920 1_555
Mg2 O13 2.384920 1_555
Mg3 O21 2.020887 1_555
Mg3 O27 2.020887 1_555
Mg3 O16 2.087839 1_455
Mg3 O2 2.193606 1_455
Mg3 O4 2.193606 1_455
Mg3 O10 2.384920 1_555
Mg3 O12 2.384920 1_555
Fe0 O23 1.801880 1_555
Fe0 O5 1.995724 1_555
Fe0 O13 1.999171 1_555
Fe0 O12 2.029179 1_556
Fe0 O4 2.037461 1_556
Fe1 O22 1.801880 1_555
Fe1 O4 1.995724 1_455
Fe1 O12 1.999171 1_555
Fe1 O13 2.029179 1_454
Fe1 O5 2.037461 1_554
Fe2 O21 1.801880 1_555
Fe2 O7 1.995724 1_555
Fe2 O15 1.999171 1_555
Fe2 O14 2.029179 1_555
Fe2 O6 2.037461 1_555
Fe3 O20 1.801880 1_555
Fe3 O6 1.995724 1_655
Fe3 O14 1.999171 1_555
Fe3 O15 2.029179 1_655
Fe3 O7 2.037461 1_555
Fe4 O19 1.835370 1_555
Fe4 O10 1.961819 1_555
Fe4 O12 1.961819 1_555
Fe4 O2 1.973113 1_555
Fe4 O4 1.973113 1_555
Fe5 O18 1.835370 1_555
Fe5 O13 1.961819 1_455
Fe5 O11 1.961819 1_455
Fe5 O5 1.973113 1_555
Fe5 O3 1.973113 1_555
Fe6 O17 1.835370 1_555
Fe6 O14 1.961819 1_555
Fe6 O8 1.961819 1_555
Fe6 O0 1.973113 1_555
Fe6 O6 1.973113 1_555
Fe7 O16 1.835370 1_555
Fe7 O9 1.961819 1_655
Fe7 O15 1.961819 1_655
Fe7 O7 1.973113 1_555
Fe7 O1 1.973113 1_555
Fe8 O24 1.801880 1_555
Fe8 O2 1.995724 1_455
Fe8 O10 1.999171 1_555
Fe8 O11 2.029179 1_455
Fe8 O3 2.037461 1_555
Fe9 O25 1.801880 1_555
Fe9 O3 1.995724 1_555
Fe9 O11 1.999171 1_555
Fe9 O10 2.029179 1_555
Fe9 O2 2.037461 1_555
Fe10 O26 1.801880 1_555
Fe10 O0 1.995724 1_655
Fe10 O8 1.999171 1_555
Fe10 O9 2.029179 1_656
Fe10 O1 2.037461 1_556
Fe11 O27 1.801880 1_555
Fe11 O1 1.995724 1_555
Fe11 O9 1.999171 1_555
Fe11 O8 2.029179 1_554
Fe11 O0 2.037461 1_554
