# generated using pymatgen
data_Rb2Ta2Si2O11
_symmetry_space_group_name_H-M   'P 1'
_cell_length_a   7.38773000
_cell_length_b   7.38773000
_cell_length_c   39.69310300
_cell_angle_alpha   90.00000000
_cell_angle_beta   90.00000000
_cell_angle_gamma   90.00000000
_symmetry_Int_Tables_number   1
_chemical_formula_structural   Rb2Ta2Si2O11
_chemical_formula_sum   'Rb16 Ta16 Si16 O88'
_cell_volume   2166.39218746
_cell_formula_units_Z   8
loop_
 _symmetry_equiv_pos_site_id
 _symmetry_equiv_pos_as_xyz
  1  'x, y, z'
loop_
 _atom_site_type_symbol
 _atom_site_label
 _atom_site_symmetry_multiplicity
 _atom_site_fract_x
 _atom_site_fract_y
 _atom_site_fract_z
 _atom_site_occupancy
  Rb  Rb0  1  0.03014500  0.03014500  0.37500000  1
  Rb  Rb1  1  0.96985500  0.96985500  0.87500000  1
  Rb  Rb2  1  0.96985500  0.03014500  0.62500000  1
  Rb  Rb3  1  0.03014500  0.96985500  0.12500000  1
  Rb  Rb4  1  0.01436000  0.47372900  0.07409400  1
  Rb  Rb5  1  0.98564000  0.52627100  0.57409400  1
  Rb  Rb6  1  0.52627100  0.01436000  0.32409400  1
  Rb  Rb7  1  0.98564000  0.47372900  0.92590600  1
  Rb  Rb8  1  0.47372900  0.98564000  0.82409400  1
  Rb  Rb9  1  0.01436000  0.52627100  0.42590600  1
  Rb  Rb10  1  0.47372900  0.01436000  0.67590600  1
  Rb  Rb11  1  0.52627100  0.98564000  0.17590600  1
  Rb  Rb12  1  0.50000000  0.38392900  0.00000000  1
  Rb  Rb13  1  0.50000000  0.61607100  0.50000000  1
  Rb  Rb14  1  0.61607100  0.50000000  0.25000000  1
  Rb  Rb15  1  0.38392900  0.50000000  0.75000000  1
  Ta  Ta0  1  0.26660300  0.49768100  0.16023500  1
  Ta  Ta1  1  0.73339700  0.50231900  0.66023500  1
  Ta  Ta2  1  0.50231900  0.26660300  0.41023500  1
  Ta  Ta3  1  0.73339700  0.49768100  0.83976500  1
  Ta  Ta4  1  0.49768100  0.73339700  0.91023500  1
  Ta  Ta5  1  0.26660300  0.50231900  0.33976500  1
  Ta  Ta6  1  0.49768100  0.26660300  0.58976500  1
  Ta  Ta7  1  0.50231900  0.73339700  0.08976500  1
  Ta  Ta8  1  0.50274500  0.23922300  0.09291400  1
  Ta  Ta9  1  0.49725500  0.76077700  0.59291400  1
  Ta  Ta10  1  0.76077700  0.50274500  0.34291400  1
  Ta  Ta11  1  0.49725500  0.23922300  0.90708600  1
  Ta  Ta12  1  0.23922300  0.49725500  0.84291400  1
  Ta  Ta13  1  0.50274500  0.76077700  0.40708600  1
  Ta  Ta14  1  0.23922300  0.50274500  0.65708600  1
  Ta  Ta15  1  0.76077700  0.49725500  0.15708600  1
  Si  Si0  1  0.00567900  0.22105300  0.20970300  1
  Si  Si1  1  0.99432100  0.77894700  0.70970300  1
  Si  Si2  1  0.77894700  0.00567900  0.45970300  1
  Si  Si3  1  0.99432100  0.22105300  0.79029700  1
  Si  Si4  1  0.22105300  0.99432100  0.95970300  1
  Si  Si5  1  0.00567900  0.77894700  0.29029700  1
  Si  Si6  1  0.22105300  0.00567900  0.54029700  1
  Si  Si7  1  0.77894700  0.99432100  0.04029700  1
  Si  Si8  1  0.00569100  0.21642100  0.29144700  1
  Si  Si9  1  0.99430900  0.78357900  0.79144700  1
  Si  Si10  1  0.78357900  0.00569100  0.54144700  1
  Si  Si11  1  0.99430900  0.21642100  0.70855300  1
  Si  Si12  1  0.21642100  0.99430900  0.04144700  1
  Si  Si13  1  0.00569100  0.78357900  0.20855300  1
  Si  Si14  1  0.21642100  0.00569100  0.45855300  1
  Si  Si15  1  0.78357900  0.99430900  0.95855300  1
  O  O0  1  0.29938200  0.17672100  0.05868600  1
  O  O1  1  0.70061800  0.82327900  0.55868600  1
  O  O2  1  0.82327900  0.29938200  0.30868600  1
  O  O3  1  0.70061800  0.17672100  0.94131400  1
  O  O4  1  0.17672100  0.70061800  0.80868600  1
  O  O5  1  0.29938200  0.82327900  0.44131400  1
  O  O6  1  0.17672100  0.29938200  0.69131400  1
  O  O7  1  0.82327900  0.70061800  0.19131400  1
  O  O8  1  0.32237600  0.30459700  0.12704100  1
  O  O9  1  0.67762400  0.69540300  0.62704100  1
  O  O10  1  0.69540300  0.32237600  0.37704100  1
  O  O11  1  0.67762400  0.30459700  0.87295900  1
  O  O12  1  0.30459700  0.67762400  0.87704100  1
  O  O13  1  0.32237600  0.69540300  0.37295900  1
  O  O14  1  0.30459700  0.32237600  0.62295900  1
  O  O15  1  0.69540300  0.67762400  0.12295900  1
  O  O16  1  0.00818200  0.00301600  0.20061200  1
  O  O17  1  0.99181800  0.99698400  0.70061200  1
  O  O18  1  0.99698400  0.00818200  0.45061200  1
  O  O19  1  0.99181800  0.00301600  0.79938800  1
  O  O20  1  0.00301600  0.99181800  0.95061200  1
  O  O21  1  0.00818200  0.99698400  0.29938800  1
  O  O22  1  0.00301600  0.00818200  0.54938800  1
  O  O23  1  0.99698400  0.99181800  0.04938800  1
  O  O24  1  0.24673000  0.00590500  0.00070900  1
  O  O25  1  0.75327000  0.99409500  0.50070900  1
  O  O26  1  0.99409500  0.24673000  0.25070900  1
  O  O27  1  0.75327000  0.00590500  0.99929100  1
  O  O28  1  0.00590500  0.75327000  0.75070900  1
  O  O29  1  0.24673000  0.99409500  0.49929100  1
  O  O30  1  0.00590500  0.24673000  0.74929100  1
  O  O31  1  0.99409500  0.75327000  0.24929100  1
  O  O32  1  0.69352100  0.17749100  0.05670900  1
  O  O33  1  0.30647900  0.82250900  0.55670900  1
  O  O34  1  0.82250900  0.69352100  0.30670900  1
  O  O35  1  0.30647900  0.17749100  0.94329100  1
  O  O36  1  0.17749100  0.30647900  0.80670900  1
  O  O37  1  0.69352100  0.82250900  0.44329100  1
  O  O38  1  0.17749100  0.69352100  0.69329100  1
  O  O39  1  0.82250900  0.30647900  0.19329100  1
  O  O40  1  0.69508100  0.69508100  0.37500000  1
  O  O41  1  0.30491900  0.30491900  0.87500000  1
  O  O42  1  0.30491900  0.69508100  0.62500000  1
  O  O43  1  0.69508100  0.30491900  0.12500000  1
  O  O44  1  0.49778800  0.48709000  0.07276200  1
  O  O45  1  0.50221200  0.51291000  0.57276200  1
  O  O46  1  0.51291000  0.49778800  0.32276200  1
  O  O47  1  0.50221200  0.48709000  0.92723800  1
  O  O48  1  0.48709000  0.50221200  0.82276200  1
  O  O49  1  0.49778800  0.51291000  0.42723800  1
  O  O50  1  0.48709000  0.49778800  0.67723800  1
  O  O51  1  0.51291000  0.50221200  0.17723800  1
  O  O52  1  0.32175500  0.32175500  0.37500000  1
  O  O53  1  0.67824500  0.67824500  0.87500000  1
  O  O54  1  0.67824500  0.32175500  0.62500000  1
  O  O55  1  0.32175500  0.67824500  0.12500000  1
  O  O56  1  0.39727900  0.08377900  0.24867800  1
  O  O57  1  0.60272100  0.91622100  0.74867800  1
  O  O58  1  0.91622100  0.39727900  0.49867800  1
  O  O59  1  0.60272100  0.08377900  0.75132200  1
  O  O60  1  0.08377900  0.60272100  0.99867800  1
  O  O61  1  0.39727900  0.91622100  0.25132200  1
  O  O62  1  0.08377900  0.39727900  0.50132200  1
  O  O63  1  0.91622100  0.60272100  0.00132200  1
  O  O64  1  0.19080400  0.30901300  0.19472100  1
  O  O65  1  0.80919600  0.69098700  0.69472100  1
  O  O66  1  0.69098700  0.19080400  0.44472100  1
  O  O67  1  0.80919600  0.30901300  0.80527900  1
  O  O68  1  0.30901300  0.80919600  0.94472100  1
  O  O69  1  0.19080400  0.69098700  0.30527900  1
  O  O70  1  0.30901300  0.19080400  0.55527900  1
  O  O71  1  0.69098700  0.80919600  0.05527900  1
  O  O72  1  0.01145800  0.49643300  0.14353700  1
  O  O73  1  0.98854200  0.50356700  0.64353700  1
  O  O74  1  0.50356700  0.01145800  0.39353700  1
  O  O75  1  0.98854200  0.49643300  0.85646300  1
  O  O76  1  0.49643300  0.98854200  0.89353700  1
  O  O77  1  0.01145800  0.50356700  0.35646300  1
  O  O78  1  0.49643300  0.01145800  0.60646300  1
  O  O79  1  0.50356700  0.98854200  0.10646300  1
  O  O80  1  0.19063300  0.29976000  0.30756400  1
  O  O81  1  0.80936700  0.70024000  0.80756400  1
  O  O82  1  0.70024000  0.19063300  0.55756400  1
  O  O83  1  0.80936700  0.29976000  0.69243600  1
  O  O84  1  0.29976000  0.80936700  0.05756400  1
  O  O85  1  0.19063300  0.70024000  0.19243600  1
  O  O86  1  0.29976000  0.19063300  0.44243600  1
  O  O87  1  0.70024000  0.80936700  0.94243600  1
loop_
_geom_bond_atom_site_label_1
_geom_bond_atom_site_label_2
_geom_bond_distance
_geom_bond_site_symmetry_2
O0 Si12 1.630925 1_545
O0 Ta8 2.077553 1_555
O0 Rb12 3.156934 1_555
O1 Si10 1.630925 1_565
O1 Ta9 2.077553 1_555
O1 Rb13 3.156934 1_555
O2 Si8 1.630925 1_655
O2 Ta10 2.077553 1_555
O2 Rb14 3.156934 1_555
O3 Si15 1.630925 1_545
O3 Ta11 2.077553 1_555
O3 Rb12 3.156934 1_556
O4 Si9 1.630925 1_455
O4 Ta12 2.077553 1_555
O4 Rb15 3.156934 1_555
O5 Si14 1.630925 1_565
O5 Ta13 2.077553 1_555
O5 Rb13 3.156934 1_555
O6 Si11 1.630925 1_455
O6 Ta14 2.077553 1_555
O6 Rb15 3.156934 1_555
O7 Si13 1.630925 1_655
O7 Ta15 2.077553 1_555
O7 Rb14 3.156934 1_555
O8 Ta8 1.960566 1_555
O8 Ta0 1.985079 1_555
O8 Rb3 3.283773 1_545
O9 Ta9 1.960566 1_555
O9 Ta1 1.985079 1_555
O9 Rb2 3.283773 1_565
O10 Ta10 1.960566 1_555
O10 Ta2 1.985079 1_555
O10 Rb0 3.283773 1_655
O11 Ta11 1.960566 1_555
O11 Ta3 1.985079 1_555
O11 Rb1 3.283773 1_545
O12 Ta12 1.960566 1_555
O12 Ta4 1.985079 1_555
O12 Rb1 3.283773 1_455
O13 Ta13 1.960566 1_555
O13 Ta5 1.985079 1_555
O13 Rb0 3.283773 1_565
O14 Ta14 1.960566 1_555
O14 Ta6 1.985079 1_555
O14 Rb2 3.283773 1_455
O15 Ta15 1.960566 1_555
O15 Ta7 1.985079 1_555
O15 Rb3 3.283773 1_655
O16 Si0 1.650826 1_555
O16 Si13 1.651602 1_545
O16 Rb3 3.015625 1_545
O17 Si1 1.650826 1_555
O17 Si11 1.651602 1_565
O17 Rb2 3.015625 1_565
O18 Si2 1.650826 1_555
O18 Si14 1.651602 1_655
O18 Rb0 3.015625 1_655
O19 Si3 1.650826 1_555
O19 Si9 1.651602 1_545
O19 Rb1 3.015625 1_545
O20 Si4 1.650826 1_555
O20 Si15 1.651602 1_455
O20 Rb1 3.015625 1_455
O21 Si5 1.650826 1_555
O21 Si8 1.651602 1_565
O21 Rb0 3.015625 1_565
O22 Si6 1.650826 1_555
O22 Si10 1.651602 1_455
O22 Rb2 3.015625 1_455
O23 Si7 1.650826 1_555
O23 Si12 1.651602 1_655
O23 Rb3 3.015625 1_655
O24 Si12 1.634693 1_545
O24 Si4 1.640905 1_544
O24 Rb12 3.361720 1_555
O25 Si10 1.634693 1_565
O25 Si2 1.640905 1_565
O25 Rb13 3.361720 1_555
O26 Si8 1.634693 1_655
O26 Si0 1.640905 1_655
O26 Rb14 3.361720 1_555
O27 Si15 1.634693 1_545
O27 Si7 1.640905 1_546
O27 Rb12 3.361720 1_556
O28 Si9 1.634693 1_455
O28 Si1 1.640905 1_455
O28 Rb15 3.361720 1_555
O29 Si14 1.634693 1_565
O29 Si6 1.640905 1_565
O29 Rb13 3.361720 1_555
O30 Si11 1.634693 1_455
O30 Si3 1.640905 1_455
O30 Rb15 3.361720 1_555
O31 Si13 1.634693 1_655
O31 Si5 1.640905 1_655
O31 Rb14 3.361720 1_555
O32 Si7 1.629064 1_545
O32 Ta8 2.063886 1_555
O32 Rb12 3.071929 1_555
O33 Si6 1.629064 1_565
O33 Ta9 2.063886 1_555
O33 Rb13 3.071929 1_555
O34 Si5 1.629064 1_655
O34 Ta10 2.063886 1_555
O34 Rb14 3.071929 1_555
O35 Si4 1.629064 1_545
O35 Ta11 2.063886 1_555
O35 Rb12 3.071929 1_556
O36 Si3 1.629064 1_455
O36 Ta12 2.063886 1_555
O36 Rb15 3.071929 1_555
O37 Si2 1.629064 1_565
O37 Ta13 2.063886 1_555
O37 Rb13 3.071929 1_555
O38 Si1 1.629064 1_455
O38 Ta14 2.063886 1_555
O38 Rb15 3.071929 1_555
O39 Si0 1.629064 1_655
O39 Ta15 2.063886 1_555
O39 Rb14 3.071929 1_555
O40 Ta13 1.968916 1_555
O40 Ta10 1.968916 1_555
O40 Rb0 3.500691 1_665
O41 Ta11 1.968916 1_555
O41 Ta12 1.968916 1_555
O41 Rb1 3.500691 1_445
O42 Ta14 1.968916 1_555
O42 Ta9 1.968916 1_555
O42 Rb2 3.500691 1_465
O43 Ta8 1.968916 1_555
O43 Ta15 1.968916 1_555
O43 Rb3 3.500691 1_645
O44 Ta7 1.941066 1_555
O44 Ta8 1.998593 1_555
O44 Rb12 2.987057 1_555
O45 Ta6 1.941066 1_555
O45 Ta9 1.998593 1_555
O45 Rb13 2.987057 1_555
O46 Ta5 1.941066 1_555
O46 Ta10 1.998593 1_555
O46 Rb14 2.987057 1_555
O47 Ta4 1.941066 1_555
O47 Ta11 1.998593 1_555
O47 Rb12 2.987057 1_556
O48 Ta3 1.941066 1_555
O48 Ta12 1.998593 1_555
O48 Rb15 2.987057 1_555
O49 Ta2 1.941066 1_555
O49 Ta13 1.998593 1_555
O49 Rb13 2.987057 1_555
O50 Ta1 1.941066 1_555
O50 Ta14 1.998593 1_555
O50 Rb15 2.987057 1_555
O51 Ta0 1.941066 1_555
O51 Ta15 1.998593 1_555
O51 Rb14 2.987057 1_555
O52 Ta5 1.975222 1_555
O52 Ta2 1.975222 1_555
O52 Rb0 3.046691 1_555
O53 Ta3 1.975222 1_555
O53 Ta4 1.975222 1_555
O53 Rb1 3.046691 1_555
O54 Ta1 1.975222 1_555
O54 Ta6 1.975222 1_555
O54 Rb2 3.046691 1_555
O55 Ta0 1.975222 1_555
O55 Ta7 1.975222 1_555
O55 Rb3 3.046691 1_555
O56 O61 1.242314 1_545
O56 Rb11 3.126898 1_545
O56 Rb6 3.183105 1_555
O56 Rb14 3.474278 1_555
O57 O59 1.242314 1_565
O57 Rb10 3.126898 1_565
O57 Rb8 3.183105 1_555
O57 Rb15 3.474278 1_555
O58 O62 1.242314 1_655
O58 Rb9 3.126898 1_655
O58 Rb5 3.183105 1_555
O58 Rb13 3.474278 1_555
O59 Rb8 3.126898 1_545
O59 Rb10 3.183105 1_555
O59 Rb15 3.474278 1_555
O60 O63 1.242314 1_456
O60 Rb7 3.126898 1_455
O60 Rb4 3.183105 1_556
O60 Rb12 3.474278 1_556
O61 Rb6 3.126898 1_565
O61 Rb11 3.183105 1_555
O61 Rb14 3.474278 1_555
O62 Rb5 3.126898 1_455
O62 Rb9 3.183105 1_555
O62 Rb13 3.474278 1_555
O63 Rb4 3.126898 1_655
O63 Rb7 3.183105 1_554
O63 Rb12 3.474278 1_555
O64 Si0 1.626774 1_555
O64 Ta0 2.032266 1_555
O65 Si1 1.626774 1_555
O65 Ta1 2.032266 1_555
O66 Si2 1.626774 1_555
O66 Ta2 2.032266 1_555
O67 Si3 1.626774 1_555
O67 Ta3 2.032266 1_555
O68 Si4 1.626774 1_555
O68 Ta4 2.032266 1_555
O69 Si5 1.626774 1_555
O69 Ta5 2.032266 1_555
O70 Si6 1.626774 1_555
O70 Ta6 2.032266 1_555
O71 Si7 1.626774 1_555
O71 Ta7 2.032266 1_555
O72 Ta15 1.928480 1_455
O72 Ta0 1.998097 1_555
O72 Rb4 2.761590 1_555
O73 Ta14 1.928480 1_655
O73 Ta1 1.998097 1_555
O73 Rb5 2.761590 1_555
O74 Ta13 1.928480 1_545
O74 Ta2 1.998097 1_555
O74 Rb6 2.761590 1_555
O75 Ta12 1.928480 1_655
O75 Ta3 1.998097 1_555
O75 Rb7 2.761590 1_555
O76 Ta11 1.928480 1_565
O76 Ta4 1.998097 1_555
O76 Rb8 2.761590 1_555
O77 Ta10 1.928480 1_455
O77 Ta5 1.998097 1_555
O77 Rb9 2.761590 1_555
O78 Ta9 1.928480 1_545
O78 Ta6 1.998097 1_555
O78 Rb10 2.761590 1_555
O79 Ta8 1.928480 1_565
O79 Ta7 1.998097 1_555
O79 Rb11 2.761590 1_555
O80 Si8 1.629450 1_555
O80 Ta5 2.046473 1_555
O81 Si9 1.629450 1_555
O81 Ta3 2.046473 1_555
O82 Si10 1.629450 1_555
O82 Ta6 2.046473 1_555
O83 Si11 1.629450 1_555
O83 Ta1 2.046473 1_555
O84 Si12 1.629450 1_555
O84 Ta7 2.046473 1_555
O85 Si13 1.629450 1_555
O85 Ta0 2.046473 1_555
O86 Si14 1.629450 1_555
O86 Ta2 2.046473 1_555
O87 Si15 1.629450 1_555
O87 Ta4 2.046473 1_555
