# generated using pymatgen
data_Li9Mn2Co5O16
_symmetry_space_group_name_H-M   'P 1'
_cell_length_a   5.89799165
_cell_length_b   5.89799165
_cell_length_c   10.32428208
_cell_angle_alpha   71.72260520
_cell_angle_beta   71.72260520
_cell_angle_gamma   58.69875113
_symmetry_Int_Tables_number   1
_chemical_formula_structural   Li9Mn2Co5O16
_chemical_formula_sum   'Li9 Mn2 Co5 O16'
_cell_volume   286.31828050
_cell_formula_units_Z   1
loop_
 _symmetry_equiv_pos_site_id
 _symmetry_equiv_pos_as_xyz
  1  'x, y, z'
loop_
 _atom_site_type_symbol
 _atom_site_label
 _atom_site_symmetry_multiplicity
 _atom_site_fract_x
 _atom_site_fract_y
 _atom_site_fract_z
 _atom_site_occupancy
  Li  Li0  1  0.74220900  0.74220900  0.75572000  1
  Li  Li1  1  0.75074200  0.75074200  0.24589500  1
  Li  Li2  1  0.25552700  0.74837000  0.75081900  1
  Li  Li3  1  0.25163000  0.74447300  0.24918100  1
  Li  Li4  1  0.74837000  0.25552700  0.75081900  1
  Li  Li5  1  0.74447300  0.25163000  0.24918100  1
  Li  Li6  1  0.24925800  0.24925800  0.75410500  1
  Li  Li7  1  0.25779100  0.25779100  0.24428000  1
  Li  Li8  1  0.50000000  0.50000000  0.00000000  1
  Mn  Mn0  1  0.00000000  0.50000000  0.00000000  1
  Mn  Mn1  1  0.50000000  0.00000000  0.00000000  1
  Co  Co0  1  0.00000000  0.50000000  0.50000000  1
  Co  Co1  1  0.50000000  0.50000000  0.50000000  1
  Co  Co2  1  0.00000000  0.00000000  0.00000000  1
  Co  Co3  1  0.00000000  0.00000000  0.50000000  1
  Co  Co4  1  0.50000000  0.00000000  0.50000000  1
  O  O0  1  0.85656800  0.85656800  0.88120300  1
  O  O1  1  0.87420000  0.87420000  0.38257700  1
  O  O2  1  0.36064000  0.89221900  0.89426900  1
  O  O3  1  0.37625300  0.85819000  0.38898500  1
  O  O4  1  0.89221900  0.36064000  0.89426900  1
  O  O5  1  0.85819000  0.37625300  0.38898500  1
  O  O6  1  0.36297200  0.36297200  0.88725300  1
  O  O7  1  0.36305900  0.36305900  0.37935200  1
  O  O8  1  0.63694100  0.63694100  0.62064800  1
  O  O9  1  0.63702800  0.63702800  0.11274700  1
  O  O10  1  0.14181000  0.62374700  0.61101500  1
  O  O11  1  0.10778100  0.63936000  0.10573100  1
  O  O12  1  0.62374700  0.14181000  0.61101500  1
  O  O13  1  0.63936000  0.10778100  0.10573100  1
  O  O14  1  0.12580000  0.12580000  0.61742300  1
  O  O15  1  0.14343200  0.14343200  0.11879700  1
loop_
_geom_bond_atom_site_label_1
_geom_bond_atom_site_label_2
_geom_bond_distance
_geom_bond_site_symmetry_2
Li0 O0 2.038905 1_555
Li0 O8 2.049959 1_555
Li0 O2 2.144600 1_555
Li0 O4 2.144600 1_555
Li0 O12 2.238298 1_565
Li0 O10 2.238298 1_655
Li1 O11 2.051231 1_655
Li1 O13 2.051231 1_565
Li1 O9 2.100782 1_555
Li1 O3 2.132763 1_555
Li1 O5 2.132763 1_555
Li1 O1 2.211714 1_555
Li2 O14 2.098990 1_565
Li2 O8 2.102412 1_555
Li2 O6 2.146486 1_555
Li2 O0 2.178972 1_455
Li2 O10 2.204164 1_555
Li2 O2 2.282139 1_555
Li3 O1 2.098990 1_455
Li3 O7 2.102412 1_555
Li3 O9 2.146486 1_555
Li3 O15 2.178972 1_565
Li3 O3 2.204164 1_555
Li3 O11 2.282139 1_555
Li4 O14 2.098990 1_655
Li4 O8 2.102412 1_555
Li4 O6 2.146486 1_555
Li4 O0 2.178972 1_545
Li4 O12 2.204164 1_555
Li4 O4 2.282139 1_555
Li5 O1 2.098990 1_545
Li5 O7 2.102412 1_555
Li5 O9 2.146486 1_555
Li5 O15 2.178972 1_655
Li5 O5 2.204164 1_555
Li5 O13 2.282139 1_555
Li6 O2 2.051231 1_545
Li6 O4 2.051231 1_455
Li6 O6 2.100782 1_555
Li6 O10 2.132763 1_555
Li6 O12 2.132763 1_555
Li6 O14 2.211714 1_555
Li7 O15 2.038905 1_555
Li7 O7 2.049959 1_555
Li7 O11 2.144600 1_555
Li7 O13 2.144600 1_555
Li7 O3 2.238298 1_545
Li7 O5 2.238298 1_455
Li8 O11 2.054685 1_555
Li8 O13 2.054685 1_555
Li8 O4 2.054685 1_554
Li8 O2 2.054685 1_554
Li8 O9 2.126067 1_555
Li8 O6 2.126067 1_554
Mn0 O11 1.952492 1_555
Mn0 O4 1.952492 1_454
Mn0 O6 1.954593 1_554
Mn0 O9 1.954593 1_455
Mn0 O15 1.956277 1_555
Mn0 O0 1.956277 1_454
Mn1 O13 1.952492 1_555
Mn1 O2 1.952492 1_544
Mn1 O6 1.954593 1_554
Mn1 O9 1.954593 1_545
Mn1 O15 1.956277 1_555
Mn1 O0 1.956277 1_544
Co0 O8 1.987482 1_455
Co0 O7 1.987482 1_555
Co0 O14 2.018815 1_555
Co0 O1 2.018815 1_455
Co0 O10 2.075139 1_555
Co0 O5 2.075139 1_455
Co1 O10 1.926973 1_555
Co1 O12 1.926973 1_555
Co1 O3 1.926973 1_555
Co1 O5 1.926973 1_555
Co1 O8 2.190000 1_555
Co1 O7 2.190000 1_555
Co2 O13 1.921961 1_455
Co2 O11 1.921961 1_545
Co2 O4 1.921961 1_454
Co2 O2 1.921961 1_544
Co2 O15 2.231770 1_555
Co2 O0 2.231770 1_444
Co3 O3 2.003777 1_545
Co3 O5 2.003777 1_455
Co3 O10 2.003777 1_545
Co3 O12 2.003777 1_455
Co3 O14 2.066673 1_555
Co3 O1 2.066673 1_445
Co4 O8 1.987482 1_545
Co4 O7 1.987482 1_555
Co4 O14 2.018815 1_555
Co4 O1 2.018815 1_545
Co4 O12 2.075139 1_555
Co4 O3 2.075139 1_545
