# generated using pymatgen
data_CeCu6(PO7)3
_symmetry_space_group_name_H-M   'P 1'
_cell_length_a   13.24751876
_cell_length_b   13.24751876
_cell_length_c   5.74897400
_cell_angle_alpha   90.00000000
_cell_angle_beta   90.00000000
_cell_angle_gamma   120.00000378
_symmetry_Int_Tables_number   1
_chemical_formula_structural   CeCu6(PO7)3
_chemical_formula_sum   'Ce2 Cu12 P6 O42'
_cell_volume   873.75574829
_cell_formula_units_Z   2
loop_
 _symmetry_equiv_pos_site_id
 _symmetry_equiv_pos_as_xyz
  1  'x, y, z'
loop_
 _atom_site_type_symbol
 _atom_site_label
 _atom_site_symmetry_multiplicity
 _atom_site_fract_x
 _atom_site_fract_y
 _atom_site_fract_z
 _atom_site_occupancy
  Ce  Ce0  1  0.66666700  0.33333300  0.75000000  1
  Ce  Ce1  1  0.33333300  0.66666700  0.25000000  1
  Cu  Cu0  1  0.69256300  0.60091900  0.00229100  1
  Cu  Cu1  1  0.90835600  0.30743700  0.00229100  1
  Cu  Cu2  1  0.39908100  0.09164400  0.00229100  1
  Cu  Cu3  1  0.30743700  0.39908100  0.50229100  1
  Cu  Cu4  1  0.09164400  0.69256300  0.50229100  1
  Cu  Cu5  1  0.60091900  0.90835600  0.50229100  1
  Cu  Cu6  1  0.30743700  0.39908100  0.99770900  1
  Cu  Cu7  1  0.09164400  0.69256300  0.99770900  1
  Cu  Cu8  1  0.60091900  0.90835600  0.99770900  1
  Cu  Cu9  1  0.69256300  0.60091900  0.49770900  1
  Cu  Cu10  1  0.90835600  0.30743700  0.49770900  1
  Cu  Cu11  1  0.39908100  0.09164400  0.49770900  1
  P  P0  1  0.48735500  0.33455100  0.25000000  1
  P  P1  1  0.84719700  0.51264500  0.25000000  1
  P  P2  1  0.66544900  0.15280300  0.25000000  1
  P  P3  1  0.51264500  0.66544900  0.75000000  1
  P  P4  1  0.15280300  0.48735500  0.75000000  1
  P  P5  1  0.33455100  0.84719700  0.75000000  1
  O  O0  1  0.41031400  0.19573500  0.25000000  1
  O  O1  1  0.78542100  0.58968600  0.25000000  1
  O  O2  1  0.80426500  0.21457900  0.25000000  1
  O  O3  1  0.58968600  0.80426500  0.75000000  1
  O  O4  1  0.21457900  0.41031400  0.75000000  1
  O  O5  1  0.19573500  0.78542100  0.75000000  1
  O  O6  1  0.39288200  0.37551300  0.25000000  1
  O  O7  1  0.98263100  0.60711800  0.25000000  1
  O  O8  1  0.62448700  0.01736900  0.25000000  1
  O  O9  1  0.60711800  0.62448700  0.75000000  1
  O  O10  1  0.01736900  0.39288200  0.75000000  1
  O  O11  1  0.37551300  0.98263100  0.75000000  1
  O  O12  1  0.56003200  0.37747400  0.03005300  1
  O  O13  1  0.81744200  0.43996800  0.03005300  1
  O  O14  1  0.62252600  0.18255800  0.03005300  1
  O  O15  1  0.43996800  0.62252600  0.53005300  1
  O  O16  1  0.18255800  0.56003200  0.53005300  1
  O  O17  1  0.37747400  0.81744200  0.53005300  1
  O  O18  1  0.43996800  0.62252600  0.96994700  1
  O  O19  1  0.18255800  0.56003200  0.96994700  1
  O  O20  1  0.37747400  0.81744200  0.96994700  1
  O  O21  1  0.56003200  0.37747400  0.46994700  1
  O  O22  1  0.81744200  0.43996800  0.46994700  1
  O  O23  1  0.62252600  0.18255800  0.46994700  1
  O  O24  1  0.65004600  0.65709100  0.25000000  1
  O  O25  1  0.00704500  0.34995400  0.25000000  1
  O  O26  1  0.34290900  0.99295500  0.25000000  1
  O  O27  1  0.34995400  0.34290900  0.75000000  1
  O  O28  1  0.99295500  0.65004600  0.75000000  1
  O  O29  1  0.65709100  0.00704500  0.75000000  1
  O  O30  1  0.74057900  0.54802200  0.75000000  1
  O  O31  1  0.80744300  0.25942100  0.75000000  1
  O  O32  1  0.45197800  0.19255700  0.75000000  1
  O  O33  1  0.25942100  0.45197800  0.25000000  1
  O  O34  1  0.19255700  0.74057900  0.25000000  1
  O  O35  1  0.54802200  0.80744300  0.25000000  1
  O  O36  1  0.93194800  0.94478900  0.75000000  1
  O  O37  1  0.01284200  0.06805200  0.75000000  1
  O  O38  1  0.05521100  0.98715800  0.75000000  1
  O  O39  1  0.06805200  0.05521100  0.25000000  1
  O  O40  1  0.98715800  0.93194800  0.25000000  1
  O  O41  1  0.94478900  0.01284200  0.25000000  1
loop_
_geom_bond_atom_site_label_1
_geom_bond_atom_site_label_2
_geom_bond_distance
_geom_bond_site_symmetry_2
Ce0 O23 2.399102 1_555
Ce0 O14 2.399102 1_556
Ce0 O22 2.399104 1_555
Ce0 O13 2.399104 1_556
Ce0 O21 2.399111 1_555
Ce0 O12 2.399111 1_556
Ce0 O31 2.502551 1_555
Ce0 O32 2.502561 1_555
Ce0 O30 2.502563 1_555
Ce1 O17 2.399102 1_555
Ce1 O20 2.399102 1_554
Ce1 O19 2.399104 1_554
Ce1 O16 2.399104 1_555
Ce1 O18 2.399111 1_554
Ce1 O15 2.399111 1_555
Ce1 O34 2.502551 1_555
Ce1 O35 2.502561 1_555
Ce1 O33 2.502563 1_555
Cu0 O24 1.821566 1_555
Cu0 O30 1.856103 1_554
Cu0 O1 1.935568 1_555
Cu0 O9 1.958537 1_554
Cu0 O12 2.583228 1_555
Cu1 O25 1.821566 1_655
Cu1 O31 1.856103 1_554
Cu1 O2 1.935568 1_555
Cu1 O10 1.958537 1_654
Cu1 O13 2.583229 1_555
Cu2 O26 1.821566 1_545
Cu2 O32 1.856103 1_554
Cu2 O0 1.935568 1_555
Cu2 O11 1.958537 1_544
Cu2 O14 2.583228 1_555
Cu3 O27 1.821566 1_555
Cu3 O33 1.856103 1_555
Cu3 O4 1.935568 1_555
Cu3 O6 1.958537 1_555
Cu3 O15 2.583228 1_555
Cu4 O28 1.821566 1_455
Cu4 O34 1.856103 1_555
Cu4 O5 1.935568 1_555
Cu4 O7 1.958537 1_455
Cu4 O16 2.583229 1_555
Cu5 O29 1.821566 1_565
Cu5 O35 1.856103 1_555
Cu5 O3 1.935568 1_555
Cu5 O8 1.958537 1_565
Cu5 O17 2.583228 1_555
Cu6 O27 1.821566 1_555
Cu6 O33 1.856103 1_556
Cu6 O4 1.935568 1_555
Cu6 O6 1.958537 1_556
Cu6 O18 2.583228 1_555
Cu7 O28 1.821566 1_455
Cu7 O34 1.856103 1_556
Cu7 O5 1.935568 1_555
Cu7 O7 1.958537 1_456
Cu7 O19 2.583229 1_555
Cu8 O29 1.821566 1_565
Cu8 O35 1.856103 1_556
Cu8 O3 1.935568 1_555
Cu8 O8 1.958537 1_566
Cu8 O20 2.583228 1_555
Cu9 O24 1.821566 1_555
Cu9 O30 1.856103 1_555
Cu9 O1 1.935568 1_555
Cu9 O9 1.958537 1_555
Cu9 O21 2.583228 1_555
Cu10 O25 1.821566 1_655
Cu10 O31 1.856103 1_555
Cu10 O2 1.935568 1_555
Cu10 O10 1.958537 1_655
Cu10 O22 2.583229 1_555
Cu11 O26 1.821566 1_545
Cu11 O32 1.856103 1_555
Cu11 O0 1.935568 1_555
Cu11 O11 1.958537 1_545
Cu11 O23 2.583228 1_555
O0 P0 1.595799 1_555
O1 P1 1.595811 1_555
O2 P2 1.595799 1_555
O3 P3 1.595799 1_555
O4 P4 1.595811 1_555
O5 P5 1.595799 1_555
O6 P0 1.593718 1_555
O7 P1 1.593708 1_555
O8 P2 1.593705 1_555
O9 P3 1.593718 1_555
O10 P4 1.593708 1_555
O11 P5 1.593705 1_555
O12 P0 1.517141 1_555
O13 P1 1.517140 1_555
O14 P2 1.517146 1_555
O15 P3 1.517141 1_555
O16 P4 1.517140 1_555
O17 P5 1.517146 1_555
O18 P3 1.517141 1_555
O19 P4 1.517140 1_555
O20 P5 1.517146 1_555
O21 P0 1.517141 1_555
O22 P1 1.517140 1_555
O23 P2 1.517146 1_555
O36 O37 1.436997 1_665
O36 O38 1.436997 1_655
O37 O38 1.436997 1_545
O39 O40 1.436997 1_445
O39 O41 1.436997 1_455
O40 O41 1.436997 1_565
