# generated using pymatgen
data_KH4C6O3F5
_symmetry_space_group_name_H-M   'P 1'
_cell_length_a   10.38319467
_cell_length_b   10.38319467
_cell_length_c   7.07793449
_cell_angle_alpha   72.11196479
_cell_angle_beta   72.11196479
_cell_angle_gamma   124.70164489
_symmetry_Int_Tables_number   1
_chemical_formula_structural   KH4C6O3F5
_chemical_formula_sum   'K2 H8 C12 O6 F10'
_cell_volume   470.25568951
_cell_formula_units_Z   2
loop_
 _symmetry_equiv_pos_site_id
 _symmetry_equiv_pos_as_xyz
  1  'x, y, z'
loop_
 _atom_site_type_symbol
 _atom_site_label
 _atom_site_symmetry_multiplicity
 _atom_site_fract_x
 _atom_site_fract_y
 _atom_site_fract_z
 _atom_site_occupancy
  K  K0  1  0.43471900  0.56528100  0.75000000  1
  K  K1  1  0.56528100  0.43471900  0.25000000  1
  H  H0  1  0.78958100  0.86313800  0.10289000  1
  H  H1  1  0.21041900  0.13686200  0.89711000  1
  H  H2  1  0.13686200  0.21041900  0.39711000  1
  H  H3  1  0.86313800  0.78958100  0.60289000  1
  H  H4  1  0.81163600  0.85852700  0.74953200  1
  H  H5  1  0.18836400  0.14147300  0.25046800  1
  H  H6  1  0.14147300  0.18836400  0.75046800  1
  H  H7  1  0.85852700  0.81163600  0.24953200  1
  C  C0  1  0.67279200  0.19849100  0.65221000  1
  C  C1  1  0.32720800  0.80150900  0.34779000  1
  C  C2  1  0.80150900  0.32720800  0.84779000  1
  C  C3  1  0.19849100  0.67279200  0.15221000  1
  C  C4  1  0.74700500  0.12165100  0.65490500  1
  C  C5  1  0.25299500  0.87834900  0.34509500  1
  C  C6  1  0.87834900  0.25299500  0.84509500  1
  C  C7  1  0.12165100  0.74700500  0.15490500  1
  C  C8  1  0.69848400  0.30151600  0.75000000  1
  C  C9  1  0.30151600  0.69848400  0.25000000  1
  C  C10  1  0.85483900  0.14516100  0.75000000  1
  C  C11  1  0.14516100  0.85483900  0.25000000  1
  O  O0  1  0.92632300  0.07367700  0.75000000  1
  O  O1  1  0.07367700  0.92632300  0.25000000  1
  O  O2  1  0.26132000  0.24470400  0.74009200  1
  O  O3  1  0.73868000  0.75529600  0.25990800  1
  O  O4  1  0.75529600  0.73868000  0.75990800  1
  O  O5  1  0.24470400  0.26132000  0.24009200  1
  F  F0  1  0.57340900  0.17297300  0.55469700  1
  F  F1  1  0.42659100  0.82702700  0.44530300  1
  F  F2  1  0.82702700  0.42659100  0.94530300  1
  F  F3  1  0.17297300  0.57340900  0.05469700  1
  F  F4  1  0.71402600  0.01813900  0.56210000  1
  F  F5  1  0.28597400  0.98186100  0.43790000  1
  F  F6  1  0.98186100  0.28597400  0.93790000  1
  F  F7  1  0.01813900  0.71402600  0.06210000  1
  F  F8  1  0.62465200  0.37534800  0.75000000  1
  F  F9  1  0.37534800  0.62465200  0.25000000  1
loop_
_geom_bond_atom_site_label_1
_geom_bond_atom_site_label_2
_geom_bond_distance
_geom_bond_site_symmetry_2
K0 O2 2.779119 1_555
K0 O4 2.779119 1_555
K0 O5 2.804742 1_556
K0 O3 2.804742 1_555
K1 O5 2.779119 1_555
K1 O3 2.779119 1_555
K1 O2 2.804742 1_555
K1 O4 2.804742 1_554
H0 O3 0.984450 1_555
H1 O2 0.984450 1_555
H2 O5 0.984450 1_555
H3 O4 0.984450 1_555
H4 O4 0.992337 1_555
H5 O5 0.992337 1_555
H6 O2 0.992337 1_555
H7 O3 0.992337 1_555
C0 F0 1.360135 1_555
C1 F1 1.360135 1_555
C2 F2 1.360135 1_555
C3 F3 1.360135 1_555
C4 F4 1.362618 1_555
C5 F5 1.362618 1_555
C6 F6 1.362618 1_555
C7 F7 1.362618 1_555
C8 F8 1.358138 1_555
C9 F9 1.358138 1_555
C10 O0 1.314947 1_555
C11 O1 1.314947 1_555
F0 K1 2.969296 1_555
F1 K0 2.969296 1_555
F2 K1 2.969296 1_556
F3 K0 2.969296 1_554
F4 K0 3.248297 1_545
F5 K1 3.248297 1_565
F6 K0 3.248297 1_655
F7 K1 3.248297 1_455
