# generated using pymatgen
data_YBi(WO4)2
_symmetry_space_group_name_H-M   'P 1'
_cell_length_a   5.74052200
_cell_length_b   5.39335100
_cell_length_c   11.26046295
_cell_angle_alpha   68.23428921
_cell_angle_beta   90.00000000
_cell_angle_gamma   90.00000000
_symmetry_Int_Tables_number   1
_chemical_formula_structural   YBi(WO4)2
_chemical_formula_sum   'Y2 Bi2 W4 O16'
_cell_volume   323.77660198
_cell_formula_units_Z   2
loop_
 _symmetry_equiv_pos_site_id
 _symmetry_equiv_pos_as_xyz
  1  'x, y, z'
loop_
 _atom_site_type_symbol
 _atom_site_label
 _atom_site_symmetry_multiplicity
 _atom_site_fract_x
 _atom_site_fract_y
 _atom_site_fract_z
 _atom_site_occupancy
  Y  Y0  1  0.72921400  0.00000000  0.75000000  1
  Y  Y1  1  0.27078600  0.00000000  0.25000000  1
  Bi  Bi0  1  0.30839200  0.50000000  0.75000000  1
  Bi  Bi1  1  0.69160800  0.50000000  0.25000000  1
  W  W0  1  0.17437300  0.25087400  0.50097400  1
  W  W1  1  0.17437300  0.74912600  0.99902600  1
  W  W2  1  0.82562700  0.74912600  0.49902600  1
  W  W3  1  0.82562700  0.25087400  0.00097400  1
  O  O0  1  0.40019000  0.75411300  0.87276000  1
  O  O1  1  0.40019000  0.24588700  0.62724000  1
  O  O2  1  0.59981000  0.24588700  0.12724000  1
  O  O3  1  0.59981000  0.75411300  0.37276000  1
  O  O4  1  0.92700200  0.12113000  0.38906400  1
  O  O5  1  0.92700200  0.87887000  0.11093600  1
  O  O6  1  0.07299800  0.87887000  0.61093600  1
  O  O7  1  0.07299800  0.12113000  0.88906400  1
  O  O8  1  0.61294600  0.24469000  0.86695400  1
  O  O9  1  0.61294600  0.75531000  0.63304600  1
  O  O10  1  0.38705400  0.75531000  0.13304600  1
  O  O11  1  0.38705400  0.24469000  0.36695400  1
  O  O12  1  0.90748700  0.63307100  0.89663100  1
  O  O13  1  0.09251300  0.36692900  0.10336900  1
  O  O14  1  0.90748700  0.36692900  0.60336900  1
  O  O15  1  0.09251300  0.63307100  0.39663100  1
loop_
_geom_bond_atom_site_label_1
_geom_bond_atom_site_label_2
_geom_bond_distance
_geom_bond_site_symmetry_2
Bi0 O8 2.311301 1_555
Bi0 O9 2.311301 1_555
Bi0 O0 2.339207 1_555
Bi0 O1 2.339207 1_555
Bi0 O7 2.465858 1_555
Bi0 O6 2.465858 1_555
Bi1 O11 2.311301 1_555
Bi1 O10 2.311301 1_555
Bi1 O2 2.339207 1_555
Bi1 O3 2.339207 1_555
Bi1 O4 2.465858 1_555
Bi1 O5 2.465858 1_555
O0 W1 1.916854 1_555
O0 Y0 2.424345 1_565
O1 W0 1.916854 1_555
O1 Y0 2.424345 1_555
O2 W3 1.916854 1_555
O2 Y1 2.424345 1_555
O3 W2 1.916854 1_555
O3 Y1 2.424345 1_565
O4 W2 2.013670 1_545
O4 W0 2.179021 1_655
O4 Y1 2.744505 1_655
O5 W3 2.013670 1_565
O5 W1 2.179021 1_654
O5 Y1 2.744505 1_665
O6 W0 2.013670 1_565
O6 W2 2.179021 1_455
O6 Y0 2.744505 1_465
O7 W1 2.013670 1_545
O7 W3 2.179021 1_456
O7 Y0 2.744505 1_455
O8 W3 1.951026 1_556
O8 Y0 2.282627 1_555
O9 W2 1.951026 1_555
O9 Y0 2.282627 1_565
O10 W1 1.951026 1_554
O10 Y1 2.282627 1_565
O11 W0 1.951026 1_555
O11 Y1 2.282627 1_555
O12 W3 2.013506 1_556
O12 W1 2.145619 1_655
O12 Y0 2.294907 1_565
O13 W1 2.013506 1_554
O13 W3 2.145619 1_455
O13 Y1 2.294907 1_555
O14 W2 2.013506 1_555
O14 W0 2.145619 1_655
O14 Y0 2.294907 1_555
O15 W0 2.013506 1_555
O15 W2 2.145619 1_455
O15 Y1 2.294907 1_565
