# generated using pymatgen
data_YMn2
_symmetry_space_group_name_H-M   'P 1'
_cell_length_a   5.13281507
_cell_length_b   5.13281507
_cell_length_c   8.31497400
_cell_angle_alpha   90.00000000
_cell_angle_beta   90.00000000
_cell_angle_gamma   119.83516583
_symmetry_Int_Tables_number   1
_chemical_formula_structural   YMn2
_chemical_formula_sum   'Y4 Mn8'
_cell_volume   190.02980488
_cell_formula_units_Z   4
loop_
 _symmetry_equiv_pos_site_id
 _symmetry_equiv_pos_as_xyz
  1  'x, y, z'
loop_
 _atom_site_type_symbol
 _atom_site_label
 _atom_site_symmetry_multiplicity
 _atom_site_fract_x
 _atom_site_fract_y
 _atom_site_fract_z
 _atom_site_occupancy
  Y  Y0  1  0.66670000  0.33330000  0.56286400  1
  Y  Y1  1  0.33330000  0.66670000  0.43713600  1
  Y  Y2  1  0.33330000  0.66670000  0.06286400  1
  Y  Y3  1  0.66670000  0.33330000  0.93713600  1
  Mn  Mn0  1  0.00000000  0.00000000  0.50000000  1
  Mn  Mn1  1  0.00000000  0.00000000  0.00000000  1
  Mn  Mn2  1  0.16729800  0.33515500  0.75000000  1
  Mn  Mn3  1  0.16772100  0.83227900  0.75000000  1
  Mn  Mn4  1  0.66484500  0.83270200  0.75000000  1
  Mn  Mn5  1  0.83270200  0.66484500  0.25000000  1
  Mn  Mn6  1  0.83227900  0.16772100  0.25000000  1
  Mn  Mn7  1  0.33515500  0.16729800  0.25000000  1
loop_
_geom_bond_atom_site_label_1
_geom_bond_atom_site_label_2
_geom_bond_distance
_geom_bond_site_symmetry_2
Y0 Y3 3.112062 1_555
Y0 Y1 3.140661 1_555
Y0 Y1 3.146790 1_655
Y0 Y1 3.146790 1_545
Y1 Y2 3.112062 1_555
Y2 Y3 3.140661 1_554
Y2 Y3 3.146790 1_564
Y2 Y3 3.146790 1_454
Mn0 Mn6 2.557504 1_455
Mn0 Mn3 2.557504 1_545
Mn0 Mn5 2.558923 1_445
Mn0 Mn7 2.558923 1_555
Mn0 Mn4 2.558923 1_445
Mn0 Mn2 2.558923 1_555
Mn0 Y1 3.006461 1_545
Mn0 Y0 3.006461 1_455
Mn0 Y1 3.014172 1_555
Mn0 Y0 3.014172 1_555
Mn0 Y1 3.014172 1_445
Mn0 Y0 3.014172 1_445
Mn1 Mn3 2.557504 1_544
Mn1 Mn6 2.557504 1_455
Mn1 Mn5 2.558923 1_445
Mn1 Mn4 2.558923 1_444
Mn1 Mn7 2.558923 1_555
Mn1 Mn2 2.558923 1_554
Mn1 Y2 3.006461 1_545
Mn1 Y3 3.006461 1_454
Mn1 Y2 3.014172 1_555
Mn1 Y3 3.014172 1_554
Mn1 Y2 3.014172 1_445
Mn1 Y3 3.014172 1_444
Mn2 Mn3 2.550566 1_555
Mn2 Mn4 2.560177 1_555
Mn2 Mn3 2.582250 1_545
Mn2 Mn4 2.585421 1_445
Mn2 Y1 2.991119 1_555
Mn2 Y2 2.991119 1_556
Mn2 Y3 2.999865 1_455
Mn2 Y0 2.999865 1_455
Mn2 Y3 3.002717 1_555
Mn2 Y0 3.002717 1_555
Mn3 Mn4 2.550566 1_555
Mn3 Mn4 2.582250 1_455
Mn3 Y2 2.988460 1_556
Mn3 Y1 2.988460 1_555
Mn3 Y0 3.006761 1_565
Mn3 Y3 3.006761 1_565
Mn3 Y3 3.006761 1_455
Mn3 Y0 3.006761 1_455
Mn4 Y1 2.991119 1_555
Mn4 Y2 2.991119 1_556
Mn4 Y0 2.999865 1_565
Mn4 Y3 2.999865 1_565
Mn4 Y3 3.002717 1_555
Mn4 Y0 3.002717 1_555
Mn5 Mn6 2.550566 1_555
Mn5 Mn7 2.560177 1_555
Mn5 Mn6 2.582250 1_565
Mn5 Mn7 2.585421 1_665
Mn5 Y3 2.991119 1_554
Mn5 Y0 2.991119 1_555
Mn5 Y2 2.999865 1_655
Mn5 Y1 2.999865 1_655
Mn5 Y2 3.002717 1_555
Mn5 Y1 3.002717 1_555
Mn6 Mn7 2.550566 1_555
Mn6 Mn7 2.582250 1_655
Mn6 Y3 2.988460 1_554
Mn6 Y0 2.988460 1_555
Mn6 Y1 3.006761 1_655
Mn6 Y2 3.006761 1_545
Mn6 Y2 3.006761 1_655
Mn6 Y1 3.006761 1_545
Mn7 Y3 2.991119 1_554
Mn7 Y0 2.991119 1_555
Mn7 Y1 2.999865 1_545
Mn7 Y2 2.999865 1_545
Mn7 Y1 3.002717 1_555
Mn7 Y2 3.002717 1_555
