# generated using pymatgen
data_C3F2
_symmetry_space_group_name_H-M   'P 1'
_cell_length_a   11.91223720
_cell_length_b   11.25371604
_cell_length_c   8.55654285
_cell_angle_alpha   72.48518626
_cell_angle_beta   64.27939169
_cell_angle_gamma   43.23542205
_symmetry_Int_Tables_number   1
_chemical_formula_structural   C3F2
_chemical_formula_sum   'C36 F24'
_cell_volume   707.67068920
_cell_formula_units_Z   12
loop_
 _symmetry_equiv_pos_site_id
 _symmetry_equiv_pos_as_xyz
  1  'x, y, z'
loop_
 _atom_site_type_symbol
 _atom_site_label
 _atom_site_symmetry_multiplicity
 _atom_site_fract_x
 _atom_site_fract_y
 _atom_site_fract_z
 _atom_site_occupancy
  C  C0  1  0.83513839  0.22132621  0.23187192  1
  C  C1  1  0.71166347  0.23187192  0.22132621  1
  C  C2  1  0.02867379  0.41486161  0.53833653  1
  C  C3  1  0.01812808  0.53833653  0.41486161  1
  C  C4  1  0.25750596  0.26965844  0.01888043  1
  C  C5  1  0.45395517  0.01888043  0.26965844  1
  C  C6  1  0.98034156  0.99249404  0.79604483  1
  C  C7  1  0.23111957  0.79604483  0.99249404  1
  C  C8  1  0.14475711  -0.00386160  0.22265261  1
  C  C9  1  0.63645188  0.22265261  -0.00386160  1
  C  C10  1  0.25386160  0.10524289  0.61354812  1
  C  C11  1  0.02734739  0.61354812  0.10524289  1
  C  C12  1  0.60354485  0.45873598  0.44438583  1
  C  C13  1  0.49333435  0.44438583  0.45873598  1
  C  C14  1  0.79126402  0.64645515  0.75666565  1
  C  C15  1  0.80561417  0.75666565  0.64645515  1
  C  C16  1  0.31170316  0.83448643  0.16971457  1
  C  C17  1  0.68409584  0.16971457  0.83448643  1
  C  C18  1  0.41551357  0.93829684  0.56590416  1
  C  C19  1  0.08028543  0.56590416  0.93829684  1
  C  C20  1  0.06602655  0.96360806  0.03367284  1
  C  C21  1  0.93669155  0.03367284  0.96360806  1
  C  C22  1  0.28639194  0.18397345  0.31330845  1
  C  C23  1  0.21632716  0.31330845  0.18397345  1
  C  C24  1  0.01820712  0.06704319  0.15596105  1
  C  C25  1  0.75878864  0.15596105  0.06704319  1
  C  C26  1  0.18295681  0.23179288  0.49121136  1
  C  C27  1  0.09403895  0.49121136  0.23179288  1
  C  C28  1  0.19523490  0.39322947  0.89433735  1
  C  C29  1  0.51719829  0.89433735  0.39322947  1
  C  C30  1  0.85677053  0.05476510  0.73280171  1
  C  C31  1  0.35566265  0.73280171  0.05476510  1
  C  C32  1  0.77215679  0.34870187  0.33138960  1
  C  C33  1  0.54775175  0.33138960  0.34870187  1
  C  C34  1  0.90129813  0.47784321  0.70224825  1
  C  C35  1  0.91861040  0.70224825  0.47784321  1
  F  F0  1  0.54767468  0.57564082  0.54297147  1
  F  F1  1  0.33371303  0.54297147  0.57564082  1
  F  F2  1  0.67435918  0.70232532  0.91628697  1
  F  F3  1  0.70702853  0.91628697  0.70232532  1
  F  F4  1  0.42746556  0.77198342  0.23932688  1
  F  F5  1  0.56122514  0.23932688  0.77198342  1
  F  F6  1  0.47801658  0.82253444  0.68877486  1
  F  F7  1  0.01067312  0.68877486  0.82253444  1
  F  F8  1  0.86993901  0.37448842  0.31814048  1
  F  F9  1  0.43743308  0.31814048  0.37448842  1
  F  F10  1  0.87551158  0.38006099  0.81256692  1
  F  F11  1  0.93185952  0.81256692  0.38006099  1
  F  F12  1  0.67661789  0.73498359  0.34748865  1
  F  F13  1  0.24090988  0.34748865  0.73498359  1
  F  F14  1  0.51501641  0.57338211  0.00909012  1
  F  F15  1  0.90251135  0.00909012  0.57338211  1
  F  F16  1  0.10954570  0.07298642  0.35261883  1
  F  F17  1  0.46485005  0.35261883  0.07298642  1
  F  F18  1  0.17701358  0.14045430  0.78514995  1
  F  F19  1  0.89738117  0.78514995  0.14045430  1
  F  F20  1  0.35187969  0.10665977  0.97571903  1
  F  F21  1  0.56574151  0.97571903  0.10665977  1
  F  F22  1  0.14334023  0.89812031  0.68425849  1
  F  F23  1  0.27428097  0.68425849  0.89812031  1
loop_
_geom_bond_atom_site_label_1
_geom_bond_atom_site_label_2
_geom_bond_distance
_geom_bond_site_symmetry_2
C0 C32 1.398541 1_555
C0 C1 1.428309 1_555
C0 C24 1.457557 1_655
C1 C33 1.398541 1_555
C1 C25 1.457557 1_555
C2 C34 1.398541 1_455
C2 C3 1.428309 1_555
C2 C26 1.457557 1_555
C3 C35 1.398541 1_455
C4 F20 1.344490 1_554
C5 F21 1.344490 1_545
C6 F22 1.344490 1_655
C7 F23 1.344490 1_555
C8 F16 1.343873 1_555
C9 F17 1.343867 1_555
C10 F18 1.343866 1_555
C10 C26 1.398127 1_555
C11 F19 1.343866 1_455
C11 C27 1.398127 1_555
C12 F0 1.337999 1_555
C13 F1 1.338005 1_555
C14 F2 1.338005 1_555
C15 F3 1.338008 1_555
C16 F4 1.341111 1_555
C17 F5 1.341101 1_555
C18 F6 1.341105 1_555
C19 F7 1.341107 1_555
C20 C7 1.393752 1_554
C20 C24 1.422653 1_565
C20 C21 1.449789 1_464
C21 C6 1.393748 1_545
C21 C25 1.422647 1_556
C22 C5 1.393752 1_555
C22 C26 1.422646 1_555
C22 C23 1.449789 1_555
C23 C4 1.393756 1_555
C23 C27 1.422644 1_555
C24 C8 1.398127 1_555
C25 C9 1.398127 1_555
C27 C3 1.457558 1_555
C28 F13 1.338145 1_555
C29 F12 1.338145 1_555
C30 F15 1.338145 1_555
C31 F14 1.338145 1_555
C32 F8 1.346085 1_555
C33 F9 1.346073 1_555
C34 F10 1.346082 1_555
C35 F11 1.346076 1_555
