# generated using pymatgen
data_SrYb3
_symmetry_space_group_name_H-M   'P 1'
_cell_length_a   7.96479852
_cell_length_b   7.96479852
_cell_length_c   6.48471800
_cell_angle_alpha   90.00000000
_cell_angle_beta   90.00000000
_cell_angle_gamma   120.00000429
_symmetry_Int_Tables_number   1
_chemical_formula_structural   SrYb3
_chemical_formula_sum   'Sr2 Yb6'
_cell_volume   356.26347171
_cell_formula_units_Z   2
loop_
 _symmetry_equiv_pos_site_id
 _symmetry_equiv_pos_as_xyz
  1  'x, y, z'
loop_
 _atom_site_type_symbol
 _atom_site_label
 _atom_site_symmetry_multiplicity
 _atom_site_fract_x
 _atom_site_fract_y
 _atom_site_fract_z
 _atom_site_occupancy
  Sr  Sr0  1  0.33333300  0.66666700  0.75000000  1
  Sr  Sr1  1  0.66666700  0.33333300  0.25000000  1
  Yb  Yb0  1  0.16417600  0.32835100  0.25000000  1
  Yb  Yb1  1  0.67164900  0.83582400  0.25000000  1
  Yb  Yb2  1  0.16417600  0.83582400  0.25000000  1
  Yb  Yb3  1  0.83582400  0.67164900  0.75000000  1
  Yb  Yb4  1  0.32835100  0.16417600  0.75000000  1
  Yb  Yb5  1  0.83582400  0.16417600  0.75000000  1
loop_
_geom_bond_atom_site_label_1
_geom_bond_atom_site_label_2
_geom_bond_distance
_geom_bond_site_symmetry_2
Sr0 Yb5 3.982547 1_565
Sr0 Yb5 3.982547 1_455
Sr0 Yb4 3.982548 1_555
Sr0 Yb3 3.982548 1_555
Sr0 Yb4 3.982548 1_565
Sr0 Yb3 3.982548 1_455
Sr0 Yb2 3.994816 1_555
Sr0 Yb2 3.994816 1_556
Sr0 Yb0 3.994824 1_555
Sr0 Yb0 3.994824 1_556
Sr0 Yb1 3.994824 1_555
Sr0 Yb1 3.994824 1_556
Sr1 Yb2 3.982547 1_655
Sr1 Yb2 3.982547 1_545
Sr1 Yb1 3.982548 1_555
Sr1 Yb0 3.982548 1_555
Sr1 Yb0 3.982548 1_655
Sr1 Yb1 3.982548 1_545
Sr1 Yb5 3.994816 1_555
Sr1 Yb5 3.994816 1_554
Sr1 Yb4 3.994824 1_555
Sr1 Yb4 3.994824 1_554
Sr1 Yb3 3.994824 1_555
Sr1 Yb3 3.994824 1_554
Yb0 Yb1 3.922878 1_445
Yb0 Yb2 3.922878 1_545
Yb0 Yb4 3.955061 1_555
Yb0 Yb4 3.955061 1_554
Yb0 Yb5 3.955069 1_455
Yb0 Yb5 3.955069 1_454
Yb0 Yb1 4.041920 1_555
Yb0 Yb2 4.041920 1_555
Yb1 Yb2 3.922878 1_655
Yb1 Yb3 3.955061 1_555
Yb1 Yb3 3.955061 1_554
Yb1 Yb5 3.955069 1_564
Yb1 Yb5 3.955069 1_565
Yb1 Yb2 4.041920 1_555
Yb2 Yb3 3.955069 1_455
Yb2 Yb4 3.955069 1_564
Yb2 Yb3 3.955069 1_454
Yb2 Yb4 3.955069 1_565
Yb3 Yb4 3.922878 1_665
Yb3 Yb5 3.922878 1_565
Yb3 Yb4 4.041920 1_555
Yb3 Yb5 4.041920 1_555
Yb4 Yb5 3.922878 1_455
Yb4 Yb5 4.041920 1_555
