# generated using pymatgen
data_KMo2(P2O7)2
_symmetry_space_group_name_H-M   'P 1'
_cell_length_a   4.99851300
_cell_length_b   7.39491313
_cell_length_c   8.29783205
_cell_angle_alpha   90.21613354
_cell_angle_beta   93.07393822
_cell_angle_gamma   105.33939380
_symmetry_Int_Tables_number   1
_chemical_formula_structural   KMo2(P2O7)2
_chemical_formula_sum   'K1 Mo2 P4 O14'
_cell_volume   295.31395913
_cell_formula_units_Z   1
loop_
 _symmetry_equiv_pos_site_id
 _symmetry_equiv_pos_as_xyz
  1  'x, y, z'
loop_
 _atom_site_type_symbol
 _atom_site_label
 _atom_site_symmetry_multiplicity
 _atom_site_fract_x
 _atom_site_fract_y
 _atom_site_fract_z
 _atom_site_occupancy
  K  K0  1  0.00000000  0.50000000  0.00000000  1
  Mo  Mo0  1  0.00000000  0.50000000  0.50000000  1
  Mo  Mo1  1  0.50000000  0.00000000  0.00000000  1
  P  P0  1  0.37780700  0.25866300  0.30315800  1
  P  P1  1  0.62219300  0.74133700  0.69684200  1
  P  P2  1  0.01160400  0.11527200  0.75109400  1
  P  P3  1  0.98839600  0.88472800  0.24890600  1
  O  O0  1  0.26765100  0.04896600  0.80583600  1
  O  O1  1  0.73234900  0.95103400  0.19416400  1
  O  O2  1  0.14850100  0.85243500  0.09952700  1
  O  O3  1  0.85149900  0.14756500  0.90047300  1
  O  O4  1  0.19295900  0.04941600  0.35452200  1
  O  O5  1  0.80704100  0.95058400  0.64547800  1
  O  O6  1  0.19095100  0.39221300  0.30504400  1
  O  O7  1  0.80904900  0.60778700  0.69495600  1
  O  O8  1  0.61929300  0.30017500  0.42632500  1
  O  O9  1  0.38070700  0.69982500  0.57367500  1
  O  O10  1  0.09274200  0.29232500  0.65684600  1
  O  O11  1  0.90725800  0.70767500  0.34315400  1
  O  O12  1  0.45545300  0.23840700  0.12625400  1
  O  O13  1  0.54454700  0.76159300  0.87374600  1
loop_
_geom_bond_atom_site_label_1
_geom_bond_atom_site_label_2
_geom_bond_distance
_geom_bond_site_symmetry_2
K0 O2 2.630577 1_555
K0 O3 2.630577 1_454
K0 O6 2.848150 1_555
K0 O7 2.848150 1_454
K0 O12 3.127916 1_455
K0 O13 3.127916 1_554
Mo0 O9 2.135242 1_555
Mo0 O8 2.135242 1_455
Mo0 O10 2.143427 1_555
Mo0 O11 2.143427 1_455
Mo0 O6 2.172952 1_555
Mo0 O7 2.172952 1_455
Mo1 O0 2.025328 1_554
Mo1 O1 2.025328 1_545
Mo1 O2 2.026777 1_545
Mo1 O3 2.026777 1_554
Mo1 O12 2.115198 1_555
Mo1 O13 2.115198 1_544
O0 P2 1.534969 1_555
O1 P3 1.534969 1_555
O2 P3 1.561784 1_455
O3 P2 1.561784 1_655
O4 P3 1.591775 1_445
O4 P0 1.649391 1_555
O5 P2 1.591775 1_665
O5 P1 1.649391 1_555
O6 P0 1.528860 1_555
O7 P1 1.528860 1_555
O8 P0 1.505011 1_555
O9 P1 1.505011 1_555
O10 P2 1.500380 1_555
O11 P3 1.500380 1_555
O12 P0 1.555011 1_555
O13 P1 1.555011 1_555
