# generated using pymatgen
data_Ta2Ti2Ni2C
_symmetry_space_group_name_H-M   'P 1'
_cell_length_a   8.15087214
_cell_length_b   8.15087214
_cell_length_c   8.15087214
_cell_angle_alpha   119.81324166
_cell_angle_beta   119.81324166
_cell_angle_gamma   90.32378045
_symmetry_Int_Tables_number   1
_chemical_formula_structural   Ta2Ti2Ni2C
_chemical_formula_sum   'Ta8 Ti8 Ni8 C4'
_cell_volume   383.98473050
_cell_formula_units_Z   4
loop_
 _symmetry_equiv_pos_site_id
 _symmetry_equiv_pos_as_xyz
  1  'x, y, z'
loop_
 _atom_site_type_symbol
 _atom_site_label
 _atom_site_symmetry_multiplicity
 _atom_site_fract_x
 _atom_site_fract_y
 _atom_site_fract_z
 _atom_site_occupancy
  Ta  Ta0  1  0.31543100  0.31543100  0.00000000  1
  Ta  Ta1  1  0.68456900  0.68456900  0.00000000  1
  Ta  Ta2  1  0.56760300  0.06760300  0.13520600  1
  Ta  Ta3  1  0.93239700  0.43239700  0.86479400  1
  Ta  Ta4  1  0.93239700  0.06760300  0.50000000  1
  Ta  Ta5  1  0.56760300  0.43239700  0.50000000  1
  Ta  Ta6  1  0.93332200  0.43332200  0.50000000  1
  Ta  Ta7  1  0.56667800  0.06667800  0.50000000  1
  Ti  Ti0  1  0.12635700  0.37774000  0.25138200  1
  Ti  Ti1  1  0.12502500  0.87364300  0.25138200  1
  Ti  Ti2  1  0.62226000  0.87364300  0.74861800  1
  Ti  Ti3  1  0.12635700  0.87497500  0.74861800  1
  Ti  Ti4  1  0.68325000  0.68325000  0.36650000  1
  Ti  Ti5  1  0.31675000  0.31675000  0.63350000  1
  Ti  Ti6  1  0.31675000  0.68325000  0.00000000  1
  Ti  Ti7  1  0.68325000  0.31675000  0.00000000  1
  Ni  Ni0  1  0.91975900  0.75942800  0.83967000  1
  Ni  Ni1  1  0.91991100  0.08024100  0.83967000  1
  Ni  Ni2  1  0.24057200  0.08024100  0.16033000  1
  Ni  Ni3  1  0.91975900  0.08008900  0.16033000  1
  Ni  Ni4  1  0.33849400  0.01233300  0.67383900  1
  Ni  Ni5  1  0.33534500  0.66150600  0.67383900  1
  Ni  Ni6  1  0.98766700  0.66150600  0.32616100  1
  Ni  Ni7  1  0.33849400  0.66465500  0.32616100  1
  C  C0  1  0.62225500  0.87129300  0.24903700  1
  C  C1  1  0.62678200  0.37774500  0.24903700  1
  C  C2  1  0.12870700  0.37774500  0.75096300  1
  C  C3  1  0.62225500  0.37321800  0.75096300  1
loop_
_geom_bond_atom_site_label_1
_geom_bond_atom_site_label_2
_geom_bond_distance
_geom_bond_site_symmetry_2
Ni0 Ti3 2.488630 1_655
Ni0 Ti1 2.494089 1_656
Ni0 Ti2 2.494102 1_555
Ni0 Ni2 2.614899 1_666
Ni0 Ni1 2.614899 1_565
Ni0 Ni3 2.621037 1_566
Ni0 Ta3 2.771789 1_555
Ni0 Ta5 2.771793 1_555
Ni0 Ta6 2.780788 1_555
Ni0 Ta1 3.004281 1_556
Ni0 Ti6 3.031283 1_656
Ni0 Ti4 3.031290 1_555
Ni1 Ti2 2.488632 1_545
Ni1 Ti3 2.494091 1_645
Ni1 Ti0 2.494094 1_656
Ni1 Ni3 2.614891 1_556
Ni1 Ni2 2.621037 1_656
Ni1 Ta3 2.771797 1_555
Ni1 Ta4 2.771797 1_555
Ni1 Ta7 2.780792 1_555
Ni1 Ta0 3.004285 1_656
Ni1 Ti7 3.031286 1_556
Ni1 Ti4 3.031286 1_545
Ni2 Ti1 2.488630 1_545
Ni2 Ti3 2.494089 1_544
Ni2 Ti0 2.494102 1_555
Ni2 Ni3 2.614899 1_455
Ni2 Ta2 2.771789 1_555
Ni2 Ta5 2.771793 1_555
Ni2 Ta7 2.780788 1_555
Ni2 Ta0 3.004281 1_555
Ni2 Ti6 3.031283 1_545
Ni2 Ti5 3.031290 1_555
Ni3 Ti0 2.488632 1_655
Ni3 Ti1 2.494091 1_645
Ni3 Ti2 2.494094 1_544
Ni3 Ta2 2.771797 1_555
Ni3 Ta4 2.771797 1_555
Ni3 Ta6 2.780792 1_555
Ni3 Ta1 3.004285 1_545
Ni3 Ti5 3.031286 1_655
Ni3 Ti7 3.031286 1_555
Ni4 Ti2 2.512366 1_545
Ni4 Ti1 2.512372 1_545
Ni4 Ti3 2.513842 1_545
Ni4 Ti7 2.656020 1_556
Ni4 Ti5 2.656020 1_555
Ni4 Ta0 2.679145 1_556
Ni5 Ti0 2.512370 1_555
Ni5 Ti3 2.512372 1_555
Ni5 Ti2 2.513835 1_555
Ni5 Ti5 2.656020 1_555
Ni5 Ti6 2.656020 1_556
Ni5 Ta1 2.679145 1_556
Ni6 Ti0 2.512366 1_655
Ni6 Ti3 2.512372 1_655
Ni6 Ti1 2.513842 1_655
Ni6 Ti4 2.656020 1_555
Ni6 Ti7 2.656020 1_555
Ni6 Ta1 2.679145 1_555
Ni7 Ti2 2.512370 1_555
Ni7 Ti1 2.512372 1_555
Ni7 Ti0 2.513835 1_555
Ni7 Ti6 2.656020 1_555
Ni7 Ti4 2.656020 1_555
Ni7 Ta0 2.679145 1_555
C0 Ti6 2.123087 1_555
C0 Ti4 2.123093 1_555
C0 Ta7 2.148507 1_565
C0 Ta1 2.157938 1_555
C0 Ta2 2.166310 1_565
C0 Ta4 2.166316 1_565
C1 Ti4 2.123085 1_555
C1 Ti7 2.123085 1_555
C1 Ta6 2.148509 1_555
C1 Ta0 2.157936 1_555
C1 Ta2 2.166318 1_555
C1 Ta5 2.166318 1_555
C2 Ti6 2.123087 1_556
C2 Ti5 2.123093 1_555
C2 Ta6 2.148507 1_455
C2 Ta0 2.157938 1_556
C2 Ta3 2.166310 1_455
C2 Ta4 2.166316 1_455
C3 Ti7 2.123085 1_556
C3 Ti5 2.123085 1_555
C3 Ta7 2.148509 1_555
C3 Ta1 2.157936 1_556
C3 Ta5 2.166318 1_555
C3 Ta3 2.166318 1_555
