# generated using pymatgen
data_CaY4(BiO3)4
_symmetry_space_group_name_H-M   'P 1'
_cell_length_a   6.29092506
_cell_length_b   5.91503579
_cell_length_c   9.36014164
_cell_angle_alpha   89.85170182
_cell_angle_beta   84.93886085
_cell_angle_gamma   89.72891403
_symmetry_Int_Tables_number   1
_chemical_formula_structural   CaY4(BiO3)4
_chemical_formula_sum   'Ca1 Y4 Bi4 O12'
_cell_volume   346.93798280
_cell_formula_units_Z   1
loop_
 _symmetry_equiv_pos_site_id
 _symmetry_equiv_pos_as_xyz
  1  'x, y, z'
loop_
 _atom_site_type_symbol
 _atom_site_label
 _atom_site_symmetry_multiplicity
 _atom_site_fract_x
 _atom_site_fract_y
 _atom_site_fract_z
 _atom_site_occupancy
  Ca  Ca0  1  0.22996400  0.53385200  0.05979700  1
  Y  Y0  1  0.05724000  0.96767500  0.79604700  1
  Y  Y1  1  0.52706300  0.50124200  0.32429000  1
  Y  Y2  1  0.46084900  0.43186500  0.71287700  1
  Y  Y3  1  0.97920500  0.01988700  0.22301200  1
  Bi  Bi0  1  0.99536200  0.48896700  0.52168700  1
  Bi  Bi1  1  0.43385700  0.99331100  0.42490600  1
  Bi  Bi2  1  0.52149000  0.97841500  0.97855100  1
  Bi  Bi3  1  0.79969000  0.47828000  0.96066200  1
  O  O0  1  0.65677100  0.32011900  0.50954200  1
  O  O1  1  0.18104400  0.22020100  0.62292700  1
  O  O2  1  0.95786200  0.84311500  0.02310700  1
  O  O3  1  0.34363800  0.74334000  0.84571000  1
  O  O4  1  0.33382600  0.66912000  0.53758000  1
  O  O5  1  0.74382800  0.80435300  0.35258700  1
  O  O6  1  0.28795900  0.22211800  0.91034600  1
  O  O7  1  0.72272200  0.26711700  0.18394700  1
  O  O8  1  0.22625700  0.29187100  0.27933000  1
  O  O9  1  0.72760700  0.16300700  0.81475700  1
  O  O10  1  0.30346000  0.79684400  0.23836500  1
  O  O11  1  0.86447200  0.65071900  0.72283100  1
loop_
_geom_bond_atom_site_label_1
_geom_bond_atom_site_label_2
_geom_bond_distance
_geom_bond_site_symmetry_2
Ca0 O6 2.325286 1_554
Ca0 O10 2.363039 1_555
Ca0 O3 2.409373 1_554
Ca0 O8 2.499665 1_555
Ca0 O2 2.542694 1_455
Bi0 O11 2.206006 1_555
Bi0 O1 2.227048 1_655
Bi0 O0 2.368748 1_555
Bi0 O4 2.401988 1_655
Bi0 O8 2.833973 1_655
Bi1 O4 2.251516 1_555
Bi1 O5 2.293549 1_555
Bi1 O10 2.311785 1_555
Bi1 O0 2.561352 1_565
Bi1 O8 2.638327 1_565
Bi1 O1 2.690471 1_565
Bi2 O6 2.187357 1_565
Bi2 O9 2.208620 1_565
Bi2 O3 2.236171 1_555
Bi3 O9 2.383038 1_555
Bi3 O7 2.444630 1_556
Bi3 O11 2.448311 1_555
Bi3 O2 2.473507 1_556
O0 Y1 2.247682 1_555
O0 Y2 2.272286 1_555
O1 Y0 2.288957 1_545
O1 Y2 2.379619 1_555
O2 Y3 2.160620 1_565
O2 Y0 2.283083 1_654
O3 Y2 2.306778 1_555
O3 Y0 2.311924 1_555
O4 Y2 2.347136 1_555
O4 Y1 2.453607 1_555
O5 Y3 2.232020 1_565
O5 Y1 2.287696 1_555
O6 Y2 2.405151 1_555
O6 Y0 2.412340 1_545
O7 Y1 2.206018 1_555
O7 Y3 2.225910 1_555
O8 Y3 2.335422 1_455
O8 Y1 2.336063 1_555
O9 Y0 2.362229 1_645
O9 Y2 2.550274 1_555
O10 Y1 2.419063 1_555
O10 Y3 2.438758 1_465
O11 Y0 2.372754 1_655
O11 Y2 2.864489 1_555
