# generated using pymatgen
data_V8Cd3CuO24
_symmetry_space_group_name_H-M   'P 1'
_cell_length_a   3.61031800
_cell_length_b   6.92573600
_cell_length_c   17.65721897
_cell_angle_alpha   89.67050854
_cell_angle_beta   90.00000000
_cell_angle_gamma   90.00000000
_symmetry_Int_Tables_number   1
_chemical_formula_structural   V8Cd3CuO24
_chemical_formula_sum   'V8 Cd3 Cu1 O24'
_cell_volume   441.49573339
_cell_formula_units_Z   1
loop_
 _symmetry_equiv_pos_site_id
 _symmetry_equiv_pos_as_xyz
  1  'x, y, z'
loop_
 _atom_site_type_symbol
 _atom_site_label
 _atom_site_symmetry_multiplicity
 _atom_site_fract_x
 _atom_site_fract_y
 _atom_site_fract_z
 _atom_site_occupancy
  V  V0  1  0.00000000  0.55371900  0.90763700  1
  V  V1  1  0.50000000  0.29555100  0.65709000  1
  V  V2  1  0.00000000  0.04418500  0.40682500  1
  V  V3  1  0.50000000  0.79724700  0.15228800  1
  V  V4  1  0.50000000  0.20275300  0.84771200  1
  V  V5  1  0.00000000  0.95581500  0.59317500  1
  V  V6  1  0.50000000  0.70444900  0.34291000  1
  V  V7  1  0.00000000  0.44628100  0.09236300  1
  Cd  Cd0  1  0.50000000  0.75164000  0.74880000  1
  Cd  Cd1  1  0.00000000  0.50000000  0.50000000  1
  Cd  Cd2  1  0.50000000  0.24836000  0.25120000  1
  Cu  Cu0  1  0.00000000  0.00000000  0.00000000  1
  O  O0  1  0.00000000  0.28506700  0.85017500  1
  O  O1  1  0.50000000  0.03285700  0.59813800  1
  O  O2  1  0.00000000  0.78336900  0.34766100  1
  O  O3  1  0.50000000  0.52868500  0.09508500  1
  O  O4  1  0.50000000  0.47131500  0.90491500  1
  O  O5  1  0.00000000  0.21663100  0.65233900  1
  O  O6  1  0.50000000  0.96714300  0.40186200  1
  O  O7  1  0.00000000  0.71493300  0.14982500  1
  O  O8  1  0.00000000  0.70926800  0.98417400  1
  O  O9  1  0.50000000  0.43512400  0.73604300  1
  O  O10  1  0.00000000  0.18299400  0.48652300  1
  O  O11  1  0.50000000  0.93408900  0.23310400  1
  O  O12  1  0.50000000  0.06591100  0.76689600  1
  O  O13  1  0.00000000  0.81700600  0.51347700  1
  O  O14  1  0.50000000  0.56487600  0.26395700  1
  O  O15  1  0.00000000  0.29073200  0.01582600  1
  O  O16  1  0.00000000  0.70679900  0.83265200  1
  O  O17  1  0.50000000  0.45599200  0.58321300  1
  O  O18  1  0.00000000  0.20615700  0.33345300  1
  O  O19  1  0.50000000  0.95605100  0.07811000  1
  O  O20  1  0.50000000  0.04394900  0.92189000  1
  O  O21  1  0.00000000  0.79384300  0.66654700  1
  O  O22  1  0.50000000  0.54400800  0.41678700  1
  O  O23  1  0.00000000  0.29320100  0.16734800  1
loop_
_geom_bond_atom_site_label_1
_geom_bond_atom_site_label_2
_geom_bond_distance
_geom_bond_site_symmetry_2
Cd0 O12 2.201704 1_565
Cd0 O9 2.204937 1_555
Cd0 O21 2.334201 1_655
Cd0 O21 2.334201 1_555
Cd0 O16 2.354127 1_555
Cd0 O16 2.354127 1_655
Cd1 O13 2.209719 1_555
Cd1 O10 2.209719 1_555
Cd1 O17 2.346320 1_555
Cd1 O17 2.346320 1_455
Cd1 O22 2.346320 1_555
Cd1 O22 2.346320 1_455
Cd2 O11 2.201704 1_545
Cd2 O14 2.204937 1_555
Cd2 O18 2.334201 1_555
Cd2 O18 2.334201 1_655
Cd2 O23 2.354127 1_555
Cd2 O23 2.354127 1_655
Cu0 O8 2.034423 1_544
Cu0 O15 2.034423 1_555
Cu0 O20 2.290988 1_454
Cu0 O20 2.290988 1_554
Cu0 O19 2.290988 1_445
Cu0 O19 2.290988 1_545
O0 V4 1.893614 1_455
O0 V4 1.893614 1_555
O0 V0 2.124393 1_555
O1 V5 1.884547 1_645
O1 V5 1.884547 1_545
O1 V1 2.101272 1_555
O2 V6 1.888098 1_455
O2 V6 1.888098 1_555
O2 V2 2.091869 1_565
O3 V7 1.893920 1_655
O3 V7 1.893920 1_555
O3 V3 2.121641 1_555
O4 V0 1.893920 1_655
O4 V0 1.893920 1_555
O4 V4 2.121641 1_555
O5 V1 1.888098 1_455
O5 V1 1.888098 1_555
O5 V5 2.091869 1_545
O6 V2 1.884547 1_665
O6 V2 1.884547 1_565
O6 V6 2.101272 1_555
O7 V3 1.893614 1_555
O7 V3 1.893614 1_455
O7 V7 2.124393 1_555
O8 V0 1.733109 1_555
O8 V7 2.631865 1_556
O9 V1 1.700997 1_555
O9 V4 2.537978 1_555
O10 V2 1.708830 1_555
O10 V5 2.447000 1_545
O11 V3 1.717567 1_555
O11 V6 2.500640 1_555
O12 V4 1.717567 1_555
O12 V1 2.500640 1_555
O13 V5 1.708830 1_555
O13 V2 2.447000 1_565
O14 V6 1.700997 1_555
O14 V3 2.537978 1_555
O15 V7 1.733109 1_555
O15 V0 2.631865 1_554
O16 V0 1.691422 1_555
O17 V1 1.708700 1_555
O18 V2 1.708831 1_555
O19 V3 1.705457 1_555
O20 V4 1.705457 1_555
O21 V5 1.708831 1_555
O22 V6 1.708700 1_555
O23 V7 1.691422 1_555
