# generated using pymatgen
data_LiNbFeO4
_symmetry_space_group_name_H-M   'P 1'
_cell_length_a   6.16153598
_cell_length_b   10.76018263
_cell_length_c   6.24720993
_cell_angle_alpha   89.58224635
_cell_angle_beta   60.42311677
_cell_angle_gamma   73.39664227
_symmetry_Int_Tables_number   1
_chemical_formula_structural   LiNbFeO4
_chemical_formula_sum   'Li4 Nb4 Fe4 O16'
_cell_volume   340.72164212
_cell_formula_units_Z   4
loop_
 _symmetry_equiv_pos_site_id
 _symmetry_equiv_pos_as_xyz
  1  'x, y, z'
loop_
 _atom_site_type_symbol
 _atom_site_label
 _atom_site_symmetry_multiplicity
 _atom_site_fract_x
 _atom_site_fract_y
 _atom_site_fract_z
 _atom_site_occupancy
  Li  Li0  1  0.85637800  0.19737100  0.09188300  1
  Li  Li1  1  0.85424300  0.69735200  0.59190300  1
  Li  Li2  1  0.14565600  0.30259700  0.40807200  1
  Li  Li3  1  0.14367900  0.80255500  0.90810700  1
  Nb  Nb0  1  0.50092200  0.49950500  0.50019200  1
  Nb  Nb1  1  0.50098100  0.99951900  0.00028600  1
  Nb  Nb2  1  0.49458000  0.74961100  0.25052100  1
  Nb  Nb3  1  0.50341000  0.24961400  0.75058600  1
  Fe  Fe0  1  0.99980100  0.00020800  0.50013200  1
  Fe  Fe1  1  0.50040700  0.50003500  0.99983700  1
  Fe  Fe2  1  0.00020600  0.50016400  0.00001100  1
  Fe  Fe3  1  0.49985500  0.00007800  0.49986700  1
  O  O0  1  0.71440400  0.39788500  0.15665800  1
  O  O1  1  0.73131400  0.89779200  0.65683100  1
  O  O2  1  0.73123500  0.62865400  0.92574800  1
  O  O3  1  0.71403000  0.12872800  0.42564300  1
  O  O4  1  0.28593700  0.87152200  0.57405500  1
  O  O5  1  0.26911400  0.37163700  0.07413500  1
  O  O6  1  0.26831000  0.10238400  0.34294500  1
  O  O7  1  0.28581400  0.60230600  0.84303000  1
  O  O8  1  0.71456300  0.62680600  0.37952000  1
  O  O9  1  0.71422500  0.12809500  0.88362800  1
  O  O10  1  0.27392000  0.62803200  0.38382800  1
  O  O11  1  0.27903900  0.12674100  0.87958200  1
  O  O12  1  0.28583100  0.87197600  0.11635300  1
  O  O13  1  0.28527000  0.37331200  0.62041400  1
  O  O14  1  0.72102100  0.87346400  0.12016500  1
  O  O15  1  0.72585400  0.37205700  0.61606800  1
loop_
_geom_bond_atom_site_label_1
_geom_bond_atom_site_label_2
_geom_bond_distance
_geom_bond_site_symmetry_2
Li0 O0 2.041749 1_555
Li0 O3 2.050552 1_555
Li0 O9 2.127827 1_554
Li0 O11 2.143036 1_654
Li1 O1 2.041021 1_555
Li1 O2 2.051301 1_555
Li1 O10 2.127520 1_655
Li1 O8 2.143042 1_555
Li2 O6 2.038775 1_555
Li2 O5 2.053390 1_555
Li2 O15 2.128152 1_455
Li2 O13 2.143365 1_555
Li3 O7 2.039100 1_555
Li3 O4 2.053658 1_555
Li3 O12 2.128514 1_556
Li3 O14 2.143027 1_456
Nb0 O0 1.989267 1_555
Nb0 O7 1.990440 1_555
Nb0 O13 2.050489 1_555
Nb0 O8 2.052603 1_555
Nb0 O15 2.053101 1_555
Nb0 O10 2.069059 1_555
Nb1 O1 1.989081 1_554
Nb1 O6 1.990217 1_565
Nb1 O14 2.043370 1_555
Nb1 O12 2.059822 1_555
Nb1 O11 2.060516 1_564
Nb1 O9 2.061657 1_564
Nb2 O4 1.992109 1_555
Nb2 O2 1.992503 1_554
Nb2 O10 2.033796 1_555
Nb2 O12 2.042263 1_555
Nb2 O8 2.066874 1_555
Nb2 O14 2.076299 1_555
Nb3 O5 1.992099 1_556
Nb3 O3 1.992516 1_555
Nb3 O9 2.041336 1_555
Nb3 O15 2.049238 1_555
Nb3 O11 2.058621 1_555
Nb3 O13 2.068887 1_555
Fe0 O6 2.080897 1_655
Fe0 O1 2.082515 1_545
Fe0 O3 2.153429 1_555
Fe0 O4 2.153650 1_645
Fe0 O9 2.287418 1_555
Fe0 O12 2.290277 1_645
Fe1 O0 2.082732 1_556
Fe1 O7 2.085736 1_555
Fe1 O5 2.148967 1_556
Fe1 O2 2.148975 1_555
Fe1 O15 2.289354 1_555
Fe1 O10 2.289968 1_556
Fe2 O5 2.076264 1_555
Fe2 O2 2.076901 1_454
Fe2 O7 2.156959 1_554
Fe2 O0 2.158831 1_455
Fe2 O8 2.265569 1_455
Fe2 O13 2.266500 1_554
Fe3 O4 2.072474 1_545
Fe3 O3 2.074444 1_555
Fe3 O1 2.162072 1_545
Fe3 O6 2.162328 1_555
Fe3 O14 2.266042 1_545
Fe3 O11 2.266522 1_555
