# generated using pymatgen
data_Rb2PrI5
_symmetry_space_group_name_H-M   'P 1'
_cell_length_a   9.34752616
_cell_length_b   10.06650356
_cell_length_c   14.81049556
_cell_angle_alpha   90.00000000
_cell_angle_beta   90.00000000
_cell_angle_gamma   90.00000000
_symmetry_Int_Tables_number   1
_chemical_formula_structural   Rb2PrI5
_chemical_formula_sum   'Rb8 Pr4 I20'
_cell_volume   1393.62179915
_cell_formula_units_Z   4
loop_
 _symmetry_equiv_pos_site_id
 _symmetry_equiv_pos_as_xyz
  1  'x, y, z'
loop_
 _atom_site_type_symbol
 _atom_site_label
 _atom_site_symmetry_multiplicity
 _atom_site_fract_x
 _atom_site_fract_y
 _atom_site_fract_z
 _atom_site_occupancy
  Rb  Rb0  1  0.94100012  0.00322005  0.82706614  1
  Rb  Rb1  1  0.05899988  0.99677995  0.17293386  1
  Rb  Rb2  1  0.44100012  0.99677995  0.67293386  1
  Rb  Rb3  1  0.05899988  0.50322005  0.17293386  1
  Rb  Rb4  1  0.55899988  0.00322005  0.32706614  1
  Rb  Rb5  1  0.94100012  0.49677995  0.82706614  1
  Rb  Rb6  1  0.55899988  0.49677995  0.32706614  1
  Rb  Rb7  1  0.44100012  0.50322005  0.67293386  1
  Pr  Pr0  1  0.92148542  0.75000000  0.50576255  1
  Pr  Pr1  1  0.07851458  0.25000000  0.49423745  1
  Pr  Pr2  1  0.42148542  0.25000000  0.99423745  1
  Pr  Pr3  1  0.57851458  0.75000000  0.00576255  1
  I  I0  1  0.12431304  0.75000000  0.67990415  1
  I  I1  1  0.87568696  0.25000000  0.32009585  1
  I  I2  1  0.62431304  0.25000000  0.82009585  1
  I  I3  1  0.37568696  0.75000000  0.17990415  1
  I  I4  1  0.83210269  0.04550323  0.57438140  1
  I  I5  1  0.16789731  0.95449677  0.42561860  1
  I  I6  1  0.33210269  0.95449677  0.92561860  1
  I  I7  1  0.16789731  0.54550323  0.42561860  1
  I  I8  1  0.66789731  0.04550323  0.07438140  1
  I  I9  1  0.83210269  0.45449677  0.57438140  1
  I  I10  1  0.66789731  0.45449677  0.07438140  1
  I  I11  1  0.33210269  0.54550323  0.92561860  1
  I  I12  1  0.57461529  0.75000000  0.50933651  1
  I  I13  1  0.42538471  0.25000000  0.49066349  1
  I  I14  1  0.07461529  0.25000000  0.99066349  1
  I  I15  1  0.92538471  0.75000000  0.00933651  1
  I  I16  1  0.65777762  0.75000000  0.79601247  1
  I  I17  1  0.34222238  0.25000000  0.20398753  1
  I  I18  1  0.15777762  0.25000000  0.70398753  1
  I  I19  1  0.84222238  0.75000000  0.29601247  1
loop_
_geom_bond_atom_site_label_1
_geom_bond_atom_site_label_2
_geom_bond_distance
_geom_bond_site_symmetry_2
I0 Pr0 3.201008 1_455
I0 Rb0 3.766188 1_465
I0 Rb5 3.766188 1_455
I0 Rb2 3.865875 1_555
I0 Rb7 3.865875 1_555
I1 Pr1 3.201008 1_655
I1 Rb1 3.766188 1_645
I1 Rb3 3.766188 1_655
I1 Rb6 3.865875 1_555
I1 Rb4 3.865875 1_555
I2 Pr2 3.201008 1_555
I2 Rb2 3.766188 1_545
I2 Rb7 3.766188 1_555
I2 Rb5 3.865875 1_555
I2 Rb0 3.865875 1_555
I3 Pr3 3.201008 1_555
I3 Rb4 3.766188 1_565
I3 Rb6 3.766188 1_555
I3 Rb3 3.865875 1_555
I3 Rb1 3.865875 1_555
I4 Pr0 3.252636 1_545
I4 Pr1 3.309378 1_655
I4 Rb0 3.901640 1_555
I4 Rb2 3.966889 1_545
I5 Pr1 3.252636 1_565
I5 Pr0 3.309378 1_455
I5 Rb1 3.901640 1_555
I5 Rb4 3.966889 1_565
I6 Pr2 3.252636 1_565
I6 Pr3 3.309378 1_556
I6 Rb2 3.901640 1_555
I6 Rb0 3.966889 1_465
I7 Pr1 3.252636 1_555
I7 Pr0 3.309378 1_455
I7 Rb3 3.901640 1_555
I7 Rb6 3.966889 1_555
I8 Pr3 3.252636 1_545
I8 Pr2 3.309378 1_554
I8 Rb4 3.901640 1_555
I8 Rb1 3.966889 1_645
I9 Pr0 3.252636 1_555
I9 Pr1 3.309378 1_655
I9 Rb5 3.901640 1_555
I9 Rb7 3.966889 1_555
I10 Pr3 3.252636 1_555
I10 Pr2 3.309378 1_554
I10 Rb6 3.901640 1_555
I10 Rb3 3.966889 1_655
I11 Pr2 3.252636 1_555
I11 Pr3 3.309378 1_556
I11 Rb7 3.901640 1_555
I11 Rb5 3.966889 1_455
I12 Pr0 3.242810 1_555
I12 Rb2 3.688083 1_555
I12 Rb7 3.688083 1_555
I12 Rb4 3.715682 1_565
I12 Rb6 3.715682 1_555
I13 Pr1 3.242810 1_555
I13 Rb4 3.688083 1_555
I13 Rb6 3.688083 1_555
I13 Rb2 3.715682 1_545
I13 Rb7 3.715682 1_555
I14 Pr2 3.242810 1_555
I14 Rb0 3.688083 1_455
I14 Rb5 3.688083 1_455
I14 Rb1 3.715682 1_546
I14 Rb3 3.715682 1_556
I15 Pr3 3.242810 1_555
I15 Rb3 3.688083 1_655
I15 Rb1 3.688083 1_655
I15 Rb0 3.715682 1_564
I15 Rb5 3.715682 1_554
I16 Pr3 3.193636 1_556
I16 Rb2 3.687836 1_555
I16 Rb7 3.687836 1_555
I16 Rb0 3.703784 1_565
I16 Rb5 3.703784 1_555
I17 Pr2 3.193636 1_554
I17 Rb4 3.687836 1_555
I17 Rb6 3.687836 1_555
I17 Rb3 3.703784 1_555
I17 Rb1 3.703784 1_545
I18 Pr1 3.193636 1_555
I18 Rb0 3.687836 1_455
I18 Rb5 3.687836 1_455
I18 Rb7 3.703784 1_555
I18 Rb2 3.703784 1_545
I19 Pr0 3.193636 1_555
I19 Rb1 3.687836 1_655
I19 Rb3 3.687836 1_655
I19 Rb4 3.703784 1_565
I19 Rb6 3.703784 1_555
