# generated using pymatgen
data_YMg2
_symmetry_space_group_name_H-M   'P 1'
_cell_length_a   6.67645556
_cell_length_b   6.67645556
_cell_length_c   33.20752600
_cell_angle_alpha   90.00000000
_cell_angle_beta   90.00000000
_cell_angle_gamma   119.99999568
_symmetry_Int_Tables_number   1
_chemical_formula_structural   YMg2
_chemical_formula_sum   'Y16 Mg32'
_cell_volume   1281.91461128
_cell_formula_units_Z   16
loop_
 _symmetry_equiv_pos_site_id
 _symmetry_equiv_pos_as_xyz
  1  'x, y, z'
loop_
 _atom_site_type_symbol
 _atom_site_label
 _atom_site_symmetry_multiplicity
 _atom_site_fract_x
 _atom_site_fract_y
 _atom_site_fract_z
 _atom_site_occupancy
  Y  Y0_0  1  0.16666650  0.33333350  0.29469100  1
  Y  Y0_1  1  0.16666650  0.33333350  0.79469100  1
  Y  Y0_2  1  0.16666650  0.83333350  0.29469100  1
  Y  Y0_3  1  0.16666650  0.83333350  0.79469100  1
  Y  Y0_4  1  0.66666650  0.33333350  0.29469100  1
  Y  Y0_5  1  0.66666650  0.33333350  0.79469100  1
  Y  Y0_6  1  0.66666650  0.83333350  0.29469100  1
  Y  Y0_7  1  0.66666650  0.83333350  0.79469100  1
  Y  Y1_0  1  0.33333350  0.16666650  0.20530900  1
  Y  Y1_1  1  0.33333350  0.16666650  0.70530900  1
  Y  Y1_2  1  0.33333350  0.66666650  0.20530900  1
  Y  Y1_3  1  0.33333350  0.66666650  0.70530900  1
  Y  Y1_4  1  0.83333350  0.16666650  0.20530900  1
  Y  Y1_5  1  0.83333350  0.16666650  0.70530900  1
  Y  Y1_6  1  0.83333350  0.66666650  0.20530900  1
  Y  Y1_7  1  0.83333350  0.66666650  0.70530900  1
  Mg  Mg0_0  1  0.16666650  0.33333350  0.45966150  1
  Mg  Mg0_1  1  0.16666650  0.33333350  0.95966150  1
  Mg  Mg0_2  1  0.16666650  0.83333350  0.45966150  1
  Mg  Mg0_3  1  0.16666650  0.83333350  0.95966150  1
  Mg  Mg0_4  1  0.66666650  0.33333350  0.45966150  1
  Mg  Mg0_5  1  0.66666650  0.33333350  0.95966150  1
  Mg  Mg0_6  1  0.66666650  0.83333350  0.45966150  1
  Mg  Mg0_7  1  0.66666650  0.83333350  0.95966150  1
  Mg  Mg1_0  1  0.33333350  0.16666650  0.37999300  1
  Mg  Mg1_1  1  0.33333350  0.16666650  0.87999300  1
  Mg  Mg1_2  1  0.33333350  0.66666650  0.37999300  1
  Mg  Mg1_3  1  0.33333350  0.66666650  0.87999300  1
  Mg  Mg1_4  1  0.83333350  0.16666650  0.37999300  1
  Mg  Mg1_5  1  0.83333350  0.16666650  0.87999300  1
  Mg  Mg1_6  1  0.83333350  0.66666650  0.37999300  1
  Mg  Mg1_7  1  0.83333350  0.66666650  0.87999300  1
  Mg  Mg2_0  1  0.16666650  0.33333350  0.12000700  1
  Mg  Mg2_1  1  0.16666650  0.33333350  0.62000700  1
  Mg  Mg2_2  1  0.16666650  0.83333350  0.12000700  1
  Mg  Mg2_3  1  0.16666650  0.83333350  0.62000700  1
  Mg  Mg2_4  1  0.66666650  0.33333350  0.12000700  1
  Mg  Mg2_5  1  0.66666650  0.33333350  0.62000700  1
  Mg  Mg2_6  1  0.66666650  0.83333350  0.12000700  1
  Mg  Mg2_7  1  0.66666650  0.83333350  0.62000700  1
  Mg  Mg3_0  1  0.33333350  0.16666650  0.04033850  1
  Mg  Mg3_1  1  0.33333350  0.16666650  0.54033850  1
  Mg  Mg3_2  1  0.33333350  0.66666650  0.04033850  1
  Mg  Mg3_3  1  0.33333350  0.66666650  0.54033850  1
  Mg  Mg3_4  1  0.83333350  0.16666650  0.04033850  1
  Mg  Mg3_5  1  0.83333350  0.16666650  0.54033850  1
  Mg  Mg3_6  1  0.83333350  0.66666650  0.04033850  1
  Mg  Mg3_7  1  0.83333350  0.66666650  0.54033850  1
loop_
_geom_bond_atom_site_label_1
_geom_bond_atom_site_label_2
_geom_bond_distance
_geom_bond_site_symmetry_2
Y0_0 Y0_2 3.338228 1_545
Y0_0 Y0_4 3.338228 1_455
Y0_0 Y0_4 3.338228 1_555
Y0_0 Y0_2 3.338228 1_555
Y0_0 Y0_6 3.338228 1_555
Y0_0 Y0_6 3.338228 1_445
Y0_0 Y1_4 3.539001 1_455
Y0_0 Y1_2 3.539001 1_555
Y0_0 Y1_0 3.539004 1_555
Y0_1 Y0_3 3.338228 1_545
Y0_1 Y0_5 3.338228 1_555
Y0_1 Y0_5 3.338228 1_455
Y0_1 Y0_3 3.338228 1_555
Y0_1 Y0_7 3.338228 1_555
Y0_1 Y0_7 3.338228 1_445
Y0_1 Y1_5 3.539001 1_455
Y0_1 Y1_3 3.539001 1_555
Y0_1 Y1_1 3.539004 1_555
Y0_2 Y0_6 3.338228 1_555
Y0_2 Y0_6 3.338228 1_455
Y0_2 Y0_4 3.338228 1_565
Y0_2 Y0_4 3.338228 1_455
Y0_2 Y1_0 3.539001 1_565
Y0_2 Y1_6 3.539001 1_455
Y0_2 Y1_2 3.539004 1_555
Y0_3 Y0_7 3.338228 1_555
Y0_3 Y0_7 3.338228 1_455
Y0_3 Y0_5 3.338228 1_565
Y0_3 Y0_5 3.338228 1_455
Y0_3 Y1_1 3.539001 1_565
Y0_3 Y1_7 3.539001 1_455
Y0_3 Y1_3 3.539004 1_555
Y0_4 Y0_6 3.338228 1_545
Y0_4 Y0_6 3.338228 1_555
Y0_4 Y1_0 3.539001 1_555
Y0_4 Y1_6 3.539001 1_555
Y0_4 Y1_4 3.539004 1_555
Y0_5 Y0_7 3.338228 1_545
Y0_5 Y0_7 3.338228 1_555
Y0_5 Y1_1 3.539001 1_555
Y0_5 Y1_7 3.539001 1_555
Y0_5 Y1_5 3.539004 1_555
Y0_6 Y1_2 3.539001 1_555
Y0_6 Y1_4 3.539001 1_565
Y0_6 Y1_6 3.539004 1_555
Y0_7 Y1_3 3.539001 1_555
Y0_7 Y1_5 3.539001 1_565
Y0_7 Y1_7 3.539004 1_555
Y1_0 Y1_2 3.338228 1_545
Y1_0 Y1_4 3.338228 1_555
Y1_0 Y1_4 3.338228 1_455
Y1_0 Y1_2 3.338228 1_555
Y1_0 Y1_6 3.338228 1_555
Y1_0 Y1_6 3.338228 1_445
Y1_1 Y1_3 3.338228 1_545
Y1_1 Y1_5 3.338228 1_555
Y1_1 Y1_5 3.338228 1_455
Y1_1 Y1_3 3.338228 1_555
Y1_1 Y1_7 3.338228 1_555
Y1_1 Y1_7 3.338228 1_445
Y1_2 Y1_6 3.338228 1_555
Y1_2 Y1_6 3.338228 1_455
Y1_2 Y1_4 3.338228 1_565
Y1_2 Y1_4 3.338228 1_455
Y1_3 Y1_7 3.338228 1_555
Y1_3 Y1_7 3.338228 1_455
Y1_3 Y1_5 3.338228 1_565
Y1_3 Y1_5 3.338228 1_455
Y1_4 Y1_6 3.338228 1_545
Y1_4 Y1_6 3.338228 1_555
Y1_5 Y1_7 3.338228 1_545
Y1_5 Y1_7 3.338228 1_555
Mg0_0 Mg1_2 3.273186 1_555
Mg0_0 Mg1_4 3.273186 1_455
Mg0_0 Mg1_0 3.273189 1_555
Mg0_0 Mg3_5 3.300314 1_455
Mg0_0 Mg3_3 3.300314 1_555
Mg0_0 Mg3_1 3.300317 1_555
Mg0_0 Mg0_2 3.338228 1_545
Mg0_0 Mg0_4 3.338228 1_455
Mg0_0 Mg0_4 3.338228 1_555
Mg0_0 Mg0_2 3.338228 1_555
Mg0_0 Mg0_6 3.338228 1_555
Mg0_0 Mg0_6 3.338228 1_445
Mg0_1 Mg1_3 3.273186 1_555
Mg0_1 Mg1_5 3.273186 1_455
Mg0_1 Mg1_1 3.273189 1_555
Mg0_1 Mg3_4 3.300314 1_456
Mg0_1 Mg3_2 3.300314 1_556
Mg0_1 Mg3_0 3.300317 1_556
Mg0_1 Mg0_3 3.338228 1_545
Mg0_1 Mg0_5 3.338228 1_455
Mg0_1 Mg0_5 3.338228 1_555
Mg0_1 Mg0_3 3.338228 1_555
Mg0_1 Mg0_7 3.338228 1_555
Mg0_1 Mg0_7 3.338228 1_445
Mg0_2 Mg1_0 3.273186 1_565
Mg0_2 Mg1_6 3.273186 1_455
Mg0_2 Mg1_2 3.273189 1_555
Mg0_2 Mg3_1 3.300314 1_565
Mg0_2 Mg3_7 3.300314 1_455
Mg0_2 Mg3_3 3.300317 1_555
Mg0_2 Mg0_6 3.338228 1_555
Mg0_2 Mg0_6 3.338228 1_455
Mg0_2 Mg0_4 3.338228 1_565
Mg0_2 Mg0_4 3.338228 1_455
Mg0_3 Mg1_1 3.273186 1_565
Mg0_3 Mg1_7 3.273186 1_455
Mg0_3 Mg1_3 3.273189 1_555
Mg0_3 Mg3_0 3.300314 1_566
Mg0_3 Mg3_6 3.300314 1_456
Mg0_3 Mg3_2 3.300317 1_556
Mg0_3 Mg0_7 3.338228 1_555
Mg0_3 Mg0_7 3.338228 1_455
Mg0_3 Mg0_5 3.338228 1_565
Mg0_3 Mg0_5 3.338228 1_455
Mg0_4 Mg1_0 3.273186 1_555
Mg0_4 Mg1_6 3.273186 1_555
Mg0_4 Mg1_4 3.273189 1_555
Mg0_4 Mg3_1 3.300314 1_555
Mg0_4 Mg3_7 3.300314 1_555
Mg0_4 Mg3_5 3.300317 1_555
Mg0_4 Mg0_6 3.338228 1_545
Mg0_4 Mg0_6 3.338228 1_555
Mg0_5 Mg1_7 3.273186 1_555
Mg0_5 Mg1_1 3.273186 1_555
Mg0_5 Mg1_5 3.273189 1_555
Mg0_5 Mg3_0 3.300314 1_556
Mg0_5 Mg3_6 3.300314 1_556
Mg0_5 Mg3_4 3.300317 1_556
Mg0_5 Mg0_7 3.338228 1_545
Mg0_5 Mg0_7 3.338228 1_555
Mg0_6 Mg1_2 3.273186 1_555
Mg0_6 Mg1_4 3.273186 1_565
Mg0_6 Mg1_6 3.273189 1_555
Mg0_6 Mg3_3 3.300314 1_555
Mg0_6 Mg3_5 3.300314 1_565
Mg0_6 Mg3_7 3.300317 1_555
Mg0_7 Mg1_3 3.273186 1_555
Mg0_7 Mg1_5 3.273186 1_565
Mg0_7 Mg1_7 3.273189 1_555
Mg0_7 Mg3_2 3.300314 1_556
Mg0_7 Mg3_4 3.300314 1_566
Mg0_7 Mg3_6 3.300317 1_556
Mg1_0 Mg1_4 3.338228 1_555
Mg1_0 Mg1_2 3.338228 1_545
Mg1_0 Mg1_4 3.338228 1_455
Mg1_0 Mg1_2 3.338228 1_555
Mg1_0 Mg1_6 3.338228 1_555
Mg1_0 Mg1_6 3.338228 1_445
Mg1_0 Y0_4 3.426163 1_555
Mg1_0 Y0_2 3.426163 1_545
Mg1_0 Y0_0 3.426166 1_555
Mg1_1 Mg1_5 3.338228 1_555
Mg1_1 Mg1_3 3.338228 1_545
Mg1_1 Mg1_5 3.338228 1_455
Mg1_1 Mg1_3 3.338228 1_555
Mg1_1 Mg1_7 3.338228 1_555
Mg1_1 Mg1_7 3.338228 1_445
Mg1_1 Y0_5 3.426163 1_555
Mg1_1 Y0_3 3.426163 1_545
Mg1_1 Y0_1 3.426166 1_555
Mg1_2 Mg1_6 3.338228 1_555
Mg1_2 Mg1_6 3.338228 1_455
Mg1_2 Mg1_4 3.338228 1_565
Mg1_2 Mg1_4 3.338228 1_455
Mg1_2 Y0_6 3.426163 1_555
Mg1_2 Y0_0 3.426163 1_555
Mg1_2 Y0_2 3.426166 1_555
Mg1_3 Mg1_7 3.338228 1_555
Mg1_3 Mg1_7 3.338228 1_455
Mg1_3 Mg1_5 3.338228 1_565
Mg1_3 Mg1_5 3.338228 1_455
Mg1_3 Y0_7 3.426163 1_555
Mg1_3 Y0_1 3.426163 1_555
Mg1_3 Y0_3 3.426166 1_555
Mg1_4 Mg1_6 3.338228 1_555
Mg1_4 Mg1_6 3.338228 1_545
Mg1_4 Y0_6 3.426163 1_545
Mg1_4 Y0_0 3.426163 1_655
Mg1_4 Y0_4 3.426166 1_555
Mg1_5 Mg1_7 3.338228 1_545
Mg1_5 Mg1_7 3.338228 1_555
Mg1_5 Y0_7 3.426163 1_545
Mg1_5 Y0_1 3.426163 1_655
Mg1_5 Y0_5 3.426166 1_555
Mg1_6 Y0_4 3.426163 1_555
Mg1_6 Y0_2 3.426163 1_655
Mg1_6 Y0_6 3.426166 1_555
Mg1_7 Y0_5 3.426163 1_555
Mg1_7 Y0_3 3.426163 1_655
Mg1_7 Y0_7 3.426166 1_555
Mg2_0 Mg3_2 3.273186 1_555
Mg2_0 Mg3_4 3.273186 1_455
Mg2_0 Mg3_0 3.273189 1_555
Mg2_0 Mg2_2 3.338228 1_545
Mg2_0 Mg2_4 3.338228 1_455
Mg2_0 Mg2_4 3.338228 1_555
Mg2_0 Mg2_2 3.338228 1_555
Mg2_0 Mg2_6 3.338228 1_555
Mg2_0 Mg2_6 3.338228 1_445
Mg2_0 Y1_2 3.426163 1_555
Mg2_0 Y1_4 3.426163 1_455
Mg2_0 Y1_0 3.426166 1_555
Mg2_1 Mg3_5 3.273186 1_455
Mg2_1 Mg3_3 3.273186 1_555
Mg2_1 Mg3_1 3.273189 1_555
Mg2_1 Mg2_3 3.338228 1_545
Mg2_1 Mg2_5 3.338228 1_455
Mg2_1 Mg2_5 3.338228 1_555
Mg2_1 Mg2_3 3.338228 1_555
Mg2_1 Mg2_7 3.338228 1_555
Mg2_1 Mg2_7 3.338228 1_445
Mg2_1 Y1_3 3.426163 1_555
Mg2_1 Y1_5 3.426163 1_455
Mg2_1 Y1_1 3.426166 1_555
Mg2_2 Mg3_0 3.273186 1_565
Mg2_2 Mg3_6 3.273186 1_455
Mg2_2 Mg3_2 3.273189 1_555
Mg2_2 Mg2_6 3.338228 1_555
Mg2_2 Mg2_6 3.338228 1_455
Mg2_2 Mg2_4 3.338228 1_565
Mg2_2 Mg2_4 3.338228 1_455
Mg2_2 Y1_0 3.426163 1_565
Mg2_2 Y1_6 3.426163 1_455
Mg2_2 Y1_2 3.426166 1_555
Mg2_3 Mg3_1 3.273186 1_565
Mg2_3 Mg3_7 3.273186 1_455
Mg2_3 Mg3_3 3.273189 1_555
Mg2_3 Mg2_7 3.338228 1_555
Mg2_3 Mg2_7 3.338228 1_455
Mg2_3 Mg2_5 3.338228 1_565
Mg2_3 Mg2_5 3.338228 1_455
Mg2_3 Y1_1 3.426163 1_565
Mg2_3 Y1_7 3.426163 1_455
Mg2_3 Y1_3 3.426166 1_555
Mg2_4 Mg3_0 3.273186 1_555
Mg2_4 Mg3_6 3.273186 1_555
Mg2_4 Mg3_4 3.273189 1_555
Mg2_4 Mg2_6 3.338228 1_545
Mg2_4 Mg2_6 3.338228 1_555
Mg2_4 Y1_0 3.426163 1_555
Mg2_4 Y1_6 3.426163 1_555
Mg2_4 Y1_4 3.426166 1_555
Mg2_5 Mg3_1 3.273186 1_555
Mg2_5 Mg3_7 3.273186 1_555
Mg2_5 Mg3_5 3.273189 1_555
Mg2_5 Mg2_7 3.338228 1_545
Mg2_5 Mg2_7 3.338228 1_555
Mg2_5 Y1_1 3.426163 1_555
Mg2_5 Y1_7 3.426163 1_555
Mg2_5 Y1_5 3.426166 1_555
Mg2_6 Mg3_2 3.273186 1_555
Mg2_6 Mg3_4 3.273186 1_565
Mg2_6 Mg3_6 3.273189 1_555
Mg2_6 Y1_2 3.426163 1_555
Mg2_6 Y1_4 3.426163 1_565
Mg2_6 Y1_6 3.426166 1_555
Mg2_7 Mg3_3 3.273186 1_555
Mg2_7 Mg3_5 3.273186 1_565
Mg2_7 Mg3_7 3.273189 1_555
Mg2_7 Y1_3 3.426163 1_555
Mg2_7 Y1_5 3.426163 1_565
Mg2_7 Y1_7 3.426166 1_555
Mg3_0 Mg3_4 3.338228 1_555
Mg3_0 Mg3_2 3.338228 1_545
Mg3_0 Mg3_4 3.338228 1_455
Mg3_0 Mg3_2 3.338228 1_555
Mg3_0 Mg3_6 3.338228 1_555
Mg3_0 Mg3_6 3.338228 1_445
Mg3_1 Mg3_3 3.338228 1_545
Mg3_1 Mg3_5 3.338228 1_555
Mg3_1 Mg3_5 3.338228 1_455
Mg3_1 Mg3_3 3.338228 1_555
Mg3_1 Mg3_7 3.338228 1_555
Mg3_1 Mg3_7 3.338228 1_445
Mg3_2 Mg3_6 3.338228 1_555
Mg3_2 Mg3_6 3.338228 1_455
Mg3_2 Mg3_4 3.338228 1_565
Mg3_2 Mg3_4 3.338228 1_455
Mg3_3 Mg3_7 3.338228 1_555
Mg3_3 Mg3_7 3.338228 1_455
Mg3_3 Mg3_5 3.338228 1_565
Mg3_3 Mg3_5 3.338228 1_455
Mg3_4 Mg3_6 3.338228 1_555
Mg3_4 Mg3_6 3.338228 1_545
Mg3_5 Mg3_7 3.338228 1_545
Mg3_5 Mg3_7 3.338228 1_555
