# generated using pymatgen
data_Tm2(Al3Pd)3
_symmetry_space_group_name_H-M   'P 1'
_cell_length_a   7.63025997
_cell_length_b   7.63025997
_cell_length_c   9.43669500
_cell_angle_alpha   90.00000000
_cell_angle_beta   90.00000000
_cell_angle_gamma   119.74587290
_symmetry_Int_Tables_number   1
_chemical_formula_structural   Tm2(Al3Pd)3
_chemical_formula_sum   'Tm4 Al18 Pd6'
_cell_volume   477.01897520
_cell_formula_units_Z   2
loop_
 _symmetry_equiv_pos_site_id
 _symmetry_equiv_pos_as_xyz
  1  'x, y, z'
loop_
 _atom_site_type_symbol
 _atom_site_label
 _atom_site_symmetry_multiplicity
 _atom_site_fract_x
 _atom_site_fract_y
 _atom_site_fract_z
 _atom_site_occupancy
  Tm  Tm0  1  0.99433400  0.66938600  0.25000000  1
  Tm  Tm1  1  0.00566600  0.33061400  0.75000000  1
  Tm  Tm2  1  0.66938600  0.99433400  0.25000000  1
  Tm  Tm3  1  0.33061400  0.00566600  0.75000000  1
  Al  Al0  1  0.12705300  0.12705300  0.25000000  1
  Al  Al1  1  0.87294700  0.87294700  0.75000000  1
  Al  Al2  1  0.99953600  0.33416600  0.07700000  1
  Al  Al3  1  0.00046400  0.66583400  0.92300000  1
  Al  Al4  1  0.00046400  0.66583400  0.57700000  1
  Al  Al5  1  0.33416600  0.99953600  0.42300000  1
  Al  Al6  1  0.99953600  0.33416600  0.42300000  1
  Al  Al7  1  0.66583400  0.00046400  0.57700000  1
  Al  Al8  1  0.66583400  0.00046400  0.92300000  1
  Al  Al9  1  0.33416600  0.99953600  0.07700000  1
  Al  Al10  1  0.33314200  0.33314200  0.56117000  1
  Al  Al11  1  0.66685800  0.66685800  0.43883000  1
  Al  Al12  1  0.66685800  0.66685800  0.06117000  1
  Al  Al13  1  0.33314200  0.33314200  0.93883000  1
  Al  Al14  1  0.33693900  0.54597800  0.25000000  1
  Al  Al15  1  0.66306100  0.45402200  0.75000000  1
  Al  Al16  1  0.54597800  0.33693900  0.25000000  1
  Al  Al17  1  0.45402200  0.66306100  0.75000000  1
  Pd  Pd0  1  0.67146000  0.32854000  0.00000000  1
  Pd  Pd1  1  0.32854000  0.67146000  0.00000000  1
  Pd  Pd2  1  0.32854000  0.67146000  0.50000000  1
  Pd  Pd3  1  0.67146000  0.32854000  0.50000000  1
  Pd  Pd4  1  0.00000000  0.00000000  0.00000000  1
  Pd  Pd5  1  0.00000000  0.00000000  0.50000000  1
loop_
_geom_bond_atom_site_label_1
_geom_bond_atom_site_label_2
_geom_bond_distance
_geom_bond_site_symmetry_2
Al0 Pd4 2.552011 1_555
Al0 Pd5 2.552011 1_555
Al0 Tm0 3.116282 1_445
Al0 Tm2 3.116282 1_445
Al1 Pd5 2.552011 1_665
Al1 Pd4 2.552011 1_666
Al1 Tm3 3.116282 1_665
Al1 Tm1 3.116282 1_665
Al2 Pd0 2.586451 1_555
Al2 Pd4 2.652979 1_655
Al2 Pd1 2.653774 1_655
Al2 Tm2 3.041881 1_545
Al2 Tm0 3.051222 1_555
Al2 Tm1 3.086477 1_654
Al3 Pd1 2.586451 1_556
Al3 Pd4 2.652979 1_566
Al3 Pd0 2.653774 1_456
Al3 Tm3 3.041881 1_565
Al3 Tm1 3.051222 1_555
Al3 Tm0 3.086477 1_456
Al4 Pd2 2.586451 1_555
Al4 Pd5 2.652979 1_565
Al4 Pd3 2.653774 1_455
Al4 Tm3 3.041881 1_565
Al4 Tm1 3.051222 1_555
Al4 Tm0 3.086477 1_455
Al5 Pd2 2.586451 1_555
Al5 Pd5 2.652979 1_565
Al5 Pd3 2.653774 1_565
Al5 Tm0 3.041881 1_455
Al5 Tm2 3.051222 1_555
Al5 Tm3 3.086477 1_565
Al6 Pd3 2.586451 1_555
Al6 Pd5 2.652979 1_655
Al6 Pd2 2.653774 1_655
Al6 Tm2 3.041881 1_545
Al6 Tm0 3.051222 1_555
Al6 Tm1 3.086477 1_655
Al7 Pd3 2.586451 1_555
Al7 Pd5 2.652979 1_655
Al7 Pd2 2.653774 1_545
Al7 Tm1 3.041881 1_655
Al7 Tm3 3.051222 1_555
Al7 Tm2 3.086477 1_545
Al8 Pd0 2.586451 1_556
Al8 Pd4 2.652979 1_656
Al8 Pd1 2.653774 1_546
Al8 Tm1 3.041881 1_655
Al8 Tm3 3.051222 1_555
Al8 Tm2 3.086477 1_546
Al9 Pd1 2.586451 1_555
Al9 Pd4 2.652979 1_565
Al9 Pd0 2.653774 1_565
Al9 Tm0 3.041881 1_455
Al9 Tm2 3.051222 1_555
Al9 Tm3 3.086477 1_564
Al10 Pd5 2.616194 1_555
Al10 Pd2 2.662386 1_555
Al10 Pd3 2.662386 1_555
Al10 Al11 2.804738 1_555
Al10 Al15 2.838858 1_555
Al10 Al17 2.838858 1_555
Al10 Al6 2.863467 1_455
Al10 Al5 2.863467 1_545
Al10 Tm1 3.061284 1_555
Al10 Tm3 3.061284 1_555
Al11 Pd5 2.616194 1_665
Al11 Pd2 2.662386 1_555
Al11 Pd3 2.662386 1_555
Al11 Al14 2.838858 1_555
Al11 Al16 2.838858 1_555
Al11 Al7 2.863467 1_565
Al11 Al4 2.863467 1_655
Al11 Tm0 3.061284 1_555
Al11 Tm2 3.061284 1_555
Al12 Pd4 2.616194 1_665
Al12 Pd1 2.662386 1_555
Al12 Pd0 2.662386 1_555
Al12 Al13 2.804738 1_554
Al12 Al14 2.838858 1_555
Al12 Al16 2.838858 1_555
Al12 Al8 2.863467 1_564
Al12 Al3 2.863467 1_654
Al12 Tm0 3.061284 1_555
Al12 Tm2 3.061284 1_555
Al13 Pd4 2.616194 1_556
Al13 Pd0 2.662386 1_556
Al13 Pd1 2.662386 1_556
Al13 Al15 2.838858 1_555
Al13 Al17 2.838858 1_555
Al13 Al2 2.863467 1_456
Al13 Al9 2.863467 1_546
Al13 Tm1 3.061284 1_555
Al13 Tm3 3.061284 1_555
Al14 Pd1 2.558794 1_555
Al14 Pd2 2.558794 1_555
Al14 Tm2 3.086589 1_555
Al14 Tm0 3.187976 1_455
Al15 Pd0 2.558794 1_556
Al15 Pd3 2.558794 1_555
Al15 Tm3 3.086589 1_555
Al15 Tm1 3.187976 1_655
Al16 Pd3 2.558794 1_555
Al16 Pd0 2.558794 1_555
Al16 Tm0 3.086589 1_555
Al16 Tm2 3.187976 1_545
Al17 Pd1 2.558794 1_556
Al17 Pd2 2.558794 1_555
Al17 Tm1 3.086589 1_555
Al17 Tm3 3.187976 1_565
Pd0 Tm1 3.468257 1_654
Pd0 Tm2 3.468257 1_545
Pd0 Tm0 3.470017 1_555
Pd0 Tm3 3.470017 1_554
Pd1 Tm3 3.468257 1_564
Pd1 Tm0 3.468257 1_455
Pd1 Tm2 3.470017 1_555
Pd1 Tm1 3.470017 1_554
Pd2 Tm3 3.468257 1_565
Pd2 Tm0 3.468257 1_455
Pd2 Tm2 3.470017 1_555
Pd2 Tm1 3.470017 1_555
Pd3 Tm1 3.468257 1_655
Pd3 Tm2 3.468257 1_545
Pd3 Tm0 3.470017 1_555
Pd3 Tm3 3.470017 1_555
Pd4 Tm1 3.438490 1_554
Pd4 Tm3 3.438490 1_554
Pd4 Tm0 3.438490 1_445
Pd4 Tm2 3.438490 1_445
Pd5 Tm3 3.438490 1_555
Pd5 Tm1 3.438490 1_555
Pd5 Tm0 3.438490 1_445
Pd5 Tm2 3.438490 1_445
