# generated using pymatgen
data_Dy6H40N8O49
_symmetry_space_group_name_H-M   'P 1'
_cell_length_a   10.19388800
_cell_length_b   10.24338178
_cell_length_c   11.48428102
_cell_angle_alpha   95.36615079
_cell_angle_beta   109.00308586
_cell_angle_gamma   111.50023452
_symmetry_Int_Tables_number   1
_chemical_formula_structural   Dy6H40N8O49
_chemical_formula_sum   'Dy6 H40 N8 O49'
_cell_volume   1023.58816952
_cell_formula_units_Z   1
loop_
 _symmetry_equiv_pos_site_id
 _symmetry_equiv_pos_as_xyz
  1  'x, y, z'
loop_
 _atom_site_type_symbol
 _atom_site_label
 _atom_site_symmetry_multiplicity
 _atom_site_fract_x
 _atom_site_fract_y
 _atom_site_fract_z
 _atom_site_occupancy
  Dy  Dy0  1  0.73848500  0.47709400  0.61651000  1
  Dy  Dy1  1  0.26151500  0.52290600  0.38349000  1
  Dy  Dy2  1  0.65354400  0.76206800  0.52171500  1
  Dy  Dy3  1  0.34645600  0.23793200  0.47828500  1
  Dy  Dy4  1  0.48160100  0.56708700  0.70707700  1
  Dy  Dy5  1  0.51839900  0.43291300  0.29292300  1
  H  H0  1  0.80952800  0.74319000  0.78734400  1
  H  H1  1  0.19047200  0.25681000  0.21265600  1
  H  H2  1  0.84502700  0.64823900  0.44635500  1
  H  H3  1  0.15497300  0.35176100  0.55364500  1
  H  H4  1  0.41048700  0.79038800  0.59059000  1
  H  H5  1  0.58951300  0.20961200  0.40941000  1
  H  H6  1  0.55679500  0.32278500  0.75413900  1
  H  H7  1  0.44320500  0.67721500  0.24586100  1
  H  H8  1  0.96872100  0.54963800  0.87293900  1
  H  H9  1  0.03127900  0.45036200  0.12706100  1
  H  H10  1  0.83877800  0.40485000  0.87606400  1
  H  H11  1  0.16122200  0.59515000  0.12393600  1
  H  H12  1  0.01416400  0.76087500  0.70182700  1
  H  H13  1  0.98583600  0.23912500  0.29817300  1
  H  H14  1  0.09145800  0.64949100  0.70731500  1
  H  H15  1  0.90854200  0.35050900  0.29268500  1
  H  H16  1  0.95725600  0.98742000  0.69140300  1
  H  H17  1  0.04274400  0.01258000  0.30859700  1
  H  H18  1  0.02232700  0.94325500  0.59741500  1
  H  H19  1  0.97767300  0.05674500  0.40258500  1
  H  H20  1  0.74044100  0.06595500  0.68886000  1
  H  H21  1  0.25955900  0.93404500  0.31114000  1
  H  H22  1  0.68426000  0.94070000  0.75933900  1
  H  H23  1  0.31574000  0.05930000  0.24066100  1
  H  H24  1  0.48756100  0.84335800  0.85280900  1
  H  H25  1  0.51243900  0.15664200  0.14719100  1
  H  H26  1  0.64328100  0.84078900  0.93253400  1
  H  H27  1  0.35671900  0.15921100  0.06746600  1
  H  H28  1  0.64527300  0.57882000  0.99373700  1
  H  H29  1  0.35472700  0.42118000  0.00626300  1
  H  H30  1  0.75094800  0.58227000  0.91842200  1
  H  H31  1  0.24905200  0.41773000  0.08157800  1
  H  H32  1  0.72234000  0.98830400  0.11039100  1
  H  H33  1  0.27766000  0.01169600  0.88960900  1
  H  H34  1  0.73054400  0.84729600  0.14384700  1
  H  H35  1  0.26945600  0.15270400  0.85615300  1
  H  H36  1  0.03132000  0.80573000  0.98360300  1
  H  H37  1  0.96868000  0.19427000  0.01639700  1
  H  H38  1  0.04075700  0.93053700  0.91711400  1
  H  H39  1  0.95924300  0.06946300  0.08288600  1
  N  N0  1  0.89184700  0.28039200  0.60231500  1
  N  N1  1  0.10815300  0.71960800  0.39768500  1
  N  N2  1  0.68083900  0.98161700  0.37022200  1
  N  N3  1  0.31916100  0.01838300  0.62977800  1
  N  N4  1  0.24478000  0.50443200  0.81605500  1
  N  N5  1  0.75522000  0.49556800  0.18394500  1
  N  N6  1  0.68030900  0.21729100  0.95836500  1
  N  N7  1  0.31969100  0.78270900  0.04163500  1
  O  O0  1  0.50000000  0.50000000  0.50000000  1
  O  O1  1  0.72250000  0.68174300  0.70601900  1
  O  O2  1  0.27750000  0.31825700  0.29398100  1
  O  O3  1  0.74776700  0.60643000  0.45679400  1
  O  O4  1  0.25223300  0.39357000  0.54320600  1
  O  O5  1  0.43289500  0.70994800  0.56532100  1
  O  O6  1  0.56710500  0.29005200  0.43467900  1
  O  O7  1  0.53704000  0.36548300  0.68027300  1
  O  O8  1  0.46296000  0.63451700  0.31972700  1
  O  O9  1  0.85807300  0.49774100  0.84800600  1
  O  O10  1  0.14192700  0.50225900  0.15199400  1
  O  O11  1  0.99963100  0.66152900  0.70610300  1
  O  O12  1  0.00036900  0.33847100  0.29389700  1
  O  O13  1  0.94494500  0.90354000  0.63316500  1
  O  O14  1  0.05505500  0.09646000  0.36683500  1
  O  O15  1  0.73242000  0.96865400  0.69819600  1
  O  O16  1  0.26758000  0.03134600  0.30180400  1
  O  O17  1  0.56871400  0.81932100  0.84302000  1
  O  O18  1  0.43128600  0.18067900  0.15698000  1
  O  O19  1  0.66078600  0.59848900  0.91601200  1
  O  O20  1  0.33921400  0.40151100  0.08398800  1
  O  O21  1  0.75941100  0.91571600  0.09307800  1
  O  O22  1  0.24058900  0.08428400  0.90692200  1
  O  O23  1  0.96670200  0.84616500  0.93030300  1
  O  O24  1  0.03329800  0.15383500  0.06969700  1
  O  O25  1  0.91183900  0.39091900  0.55563300  1
  O  O26  1  0.08816100  0.60908100  0.44436700  1
  O  O27  1  0.79218600  0.24794500  0.65270200  1
  O  O28  1  0.20781400  0.75205500  0.34729800  1
  O  O29  1  0.96666400  0.20803200  0.59934700  1
  O  O30  1  0.03333600  0.79196800  0.40065300  1
  O  O31  1  0.59030600  0.95467900  0.42832600  1
  O  O32  1  0.40969400  0.04532100  0.57167400  1
  O  O33  1  0.75997100  0.90657200  0.37859300  1
  O  O34  1  0.24002900  0.09342800  0.62140700  1
  O  O35  1  0.69419400  0.07682300  0.30926500  1
  O  O36  1  0.30580600  0.92317700  0.69073500  1
  O  O37  1  0.34512100  0.45145000  0.84264800  1
  O  O38  1  0.65487900  0.54855000  0.15735200  1
  O  O39  1  0.25569000  0.59064300  0.74236000  1
  O  O40  1  0.74431000  0.40935700  0.25764000  1
  O  O41  1  0.14436600  0.47259900  0.86003400  1
  O  O42  1  0.85563400  0.52740100  0.13996600  1
  O  O43  1  0.57660400  0.25457400  0.89963700  1
  O  O44  1  0.42339600  0.74542600  0.10036300  1
  O  O45  1  0.66602100  0.14589900  0.04041600  1
  O  O46  1  0.33397900  0.85410100  0.95958400  1
  O  O47  1  0.80210700  0.25395200  0.93412400  1
  O  O48  1  0.19789300  0.74604800  0.06587600  1
loop_
_geom_bond_atom_site_label_1
_geom_bond_atom_site_label_2
_geom_bond_distance
_geom_bond_site_symmetry_2
Dy0 O1 2.331119 1_555
Dy0 O7 2.339906 1_555
Dy0 O6 2.346454 1_555
Dy0 O3 2.367315 1_555
Dy0 O11 2.425018 1_555
Dy0 O0 2.472656 1_555
Dy0 O9 2.488779 1_555
Dy0 O25 2.494671 1_555
Dy0 O27 2.637847 1_555
Dy1 O2 2.331119 1_555
Dy1 O8 2.339906 1_555
Dy1 O5 2.346454 1_555
Dy1 O4 2.367315 1_555
Dy1 O12 2.425018 1_555
Dy1 O0 2.472656 1_555
Dy1 O10 2.488779 1_555
Dy1 O26 2.494671 1_555
Dy1 O28 2.637847 1_555
Dy2 O3 2.320902 1_555
Dy2 O1 2.330636 1_555
Dy2 O5 2.344859 1_555
Dy2 O8 2.345214 1_555
Dy2 O15 2.474190 1_555
Dy2 O0 2.501814 1_555
Dy2 O31 2.517208 1_555
Dy2 O33 2.551246 1_555
Dy2 O13 2.565896 1_555
Dy3 O4 2.320902 1_555
Dy3 O2 2.330636 1_555
Dy3 O6 2.344859 1_555
Dy3 O7 2.345214 1_555
Dy3 O16 2.474190 1_555
Dy3 O0 2.501814 1_555
Dy3 O32 2.517208 1_555
Dy3 O34 2.551246 1_555
Dy3 O14 2.565896 1_555
Dy4 O1 2.306072 1_555
Dy4 O5 2.343087 1_555
Dy4 O7 2.351313 1_555
Dy4 O4 2.372821 1_555
Dy4 O19 2.401673 1_555
Dy4 O0 2.498441 1_555
Dy4 O37 2.512040 1_555
Dy4 O39 2.553926 1_555
Dy4 O17 2.561727 1_555
Dy5 O2 2.306072 1_555
Dy5 O6 2.343087 1_555
Dy5 O8 2.351313 1_555
Dy5 O3 2.372821 1_555
Dy5 O20 2.401673 1_555
Dy5 O0 2.498441 1_555
Dy5 O38 2.512040 1_555
Dy5 O40 2.553926 1_555
Dy5 O18 2.561727 1_555
H0 O1 0.998319 1_555
H1 O2 0.998319 1_555
H2 O3 0.978029 1_555
H3 O4 0.978029 1_555
H4 O5 0.975572 1_555
H5 O6 0.975572 1_555
H6 O7 0.986998 1_555
H7 O8 0.986998 1_555
H8 O9 0.979031 1_555
H9 O10 0.979031 1_555
H10 O9 1.004659 1_555
H10 O47 1.704433 1_555
H11 O10 1.004659 1_555
H11 O48 1.704433 1_555
H12 O11 0.981593 1_455
H13 O12 0.981593 1_655
H14 O11 0.983910 1_455
H15 O12 0.983910 1_655
H16 O13 0.979865 1_555
H17 O14 0.979865 1_555
H18 O13 0.981442 1_455
H19 O14 0.981442 1_655
H20 O15 0.988704 1_545
H21 O16 0.988704 1_565
H22 O15 0.987490 1_555
H23 O16 0.987490 1_555
H24 O17 0.980981 1_555
H25 O18 0.980981 1_555
H26 O17 1.004613 1_555
H27 O18 1.004613 1_555
H28 O19 0.982127 1_555
H29 O20 0.982127 1_555
H30 O19 0.984549 1_555
H31 O20 0.984549 1_555
H32 O21 0.981043 1_555
H33 O22 0.981043 1_555
H34 O21 0.977097 1_555
H35 O22 0.977097 1_555
H36 O23 0.982324 1_455
H37 O24 0.982324 1_655
H38 O23 0.980038 1_455
H39 O24 0.980038 1_655
N0 O29 1.248522 1_555
N0 O25 1.275267 1_555
N0 O27 1.284035 1_555
N1 O30 1.248522 1_555
N1 O26 1.275267 1_555
N1 O28 1.284035 1_555
N2 O35 1.245840 1_565
N2 O31 1.273555 1_555
N2 O33 1.291791 1_555
N3 O36 1.245840 1_545
N3 O32 1.273555 1_555
N3 O34 1.291791 1_555
N4 O41 1.237749 1_555
N4 O39 1.279688 1_555
N4 O37 1.291719 1_555
N5 O42 1.237749 1_555
N5 O40 1.279688 1_555
N5 O38 1.291719 1_555
N6 O45 1.258620 1_556
N6 O43 1.264159 1_555
N6 O47 1.289560 1_555
N7 O46 1.258620 1_554
N7 O44 1.264159 1_555
N7 O48 1.289560 1_555
