# generated using pymatgen
data_Li9Mn2Co5O16
_symmetry_space_group_name_H-M   'P 1'
_cell_length_a   10.14065527
_cell_length_b   10.14065527
_cell_length_c   5.16383966
_cell_angle_alpha   81.47217542
_cell_angle_beta   81.47217542
_cell_angle_gamma   33.20414774
_symmetry_Int_Tables_number   1
_chemical_formula_structural   Li9Mn2Co5O16
_chemical_formula_sum   'Li9 Mn2 Co5 O16'
_cell_volume   287.29252753
_cell_formula_units_Z   1
loop_
 _symmetry_equiv_pos_site_id
 _symmetry_equiv_pos_as_xyz
  1  'x, y, z'
loop_
 _atom_site_type_symbol
 _atom_site_label
 _atom_site_symmetry_multiplicity
 _atom_site_fract_x
 _atom_site_fract_y
 _atom_site_fract_z
 _atom_site_occupancy
  Li  Li0  1  0.25150400  0.50330200  0.25039600  1
  Li  Li1  1  0.37849500  0.12268500  0.49695300  1
  Li  Li2  1  0.49669800  0.74849600  0.74960400  1
  Li  Li3  1  0.62248300  0.37751700  0.00000000  1
  Li  Li4  1  0.75171800  0.00417500  0.25318800  1
  Li  Li5  1  0.87731500  0.62150500  0.50304700  1
  Li  Li6  1  0.99582500  0.24828200  0.74681200  1
  Li  Li7  1  0.12112800  0.87887200  0.00000000  1
  Li  Li8  1  0.87237500  0.12762500  0.50000000  1
  Mn  Mn0  1  0.00375500  0.74971800  0.75195200  1
  Mn  Mn1  1  0.25028200  0.99624500  0.24804800  1
  Co  Co0  1  0.12682300  0.37202800  0.00312400  1
  Co  Co1  1  0.37310200  0.62689800  0.50000000  1
  Co  Co2  1  0.50784200  0.25069200  0.74179800  1
  Co  Co3  1  0.62797200  0.87317700  0.99687600  1
  Co  Co4  1  0.74930800  0.49215800  0.25820200  1
  O  O0  1  0.29370500  0.57039900  0.87906900  1
  O  O1  1  0.43390600  0.17984900  0.11084400  1
  O  O2  1  0.55802700  0.80971600  0.35142600  1
  O  O3  1  0.66574600  0.45462000  0.59866600  1
  O  O4  1  0.80884100  0.05259700  0.87110200  1
  O  O5  1  0.94082800  0.68934400  0.09646100  1
  O  O6  1  0.07124000  0.29709900  0.36293100  1
  O  O7  1  0.20162200  0.92691500  0.58083100  1
  O  O8  1  0.19028400  0.44197300  0.64857400  1
  O  O9  1  0.31065600  0.05917200  0.90353900  1
  O  O10  1  0.42960100  0.70629500  0.12093100  1
  O  O11  1  0.54538000  0.33425400  0.40133400  1
  O  O12  1  0.70290100  0.92876000  0.63706900  1
  O  O13  1  0.82015100  0.56609400  0.88915600  1
  O  O14  1  0.94740300  0.19115900  0.12889800  1
  O  O15  1  0.07308500  0.79837800  0.41916900  1
loop_
_geom_bond_atom_site_label_1
_geom_bond_atom_site_label_2
_geom_bond_distance
_geom_bond_site_symmetry_2
Li0 O11 2.042225 1_555
Li0 O0 2.044447 1_554
Li0 O15 2.057340 1_555
Li0 O5 2.113782 1_455
Li0 O1 2.202742 1_555
Li0 O8 2.210912 1_555
Li1 O6 2.090374 1_555
Li1 O1 2.120628 1_555
Li1 O2 2.141047 1_545
Li1 O12 2.161189 1_545
Li1 O8 2.169423 1_555
Li1 O9 2.282149 1_555
Li2 O3 2.042225 1_555
Li2 O10 2.044447 1_556
Li2 O7 2.057340 1_555
Li2 O9 2.113782 1_565
Li2 O13 2.202742 1_555
Li2 O2 2.210912 1_555
Li3 O10 2.161891 1_555
Li3 O0 2.161891 1_554
Li3 O14 2.174413 1_555
Li3 O4 2.174413 1_554
Li3 O11 2.218682 1_555
Li3 O3 2.218682 1_554
Li4 O4 2.078270 1_554
Li4 O5 2.141409 1_545
Li4 O15 2.151018 1_645
Li4 O12 2.156924 1_545
Li4 O11 2.175214 1_555
Li4 O1 2.192460 1_555
Li5 O12 2.090374 1_555
Li5 O13 2.120628 1_555
Li5 O8 2.141047 1_655
Li5 O6 2.161189 1_655
Li5 O2 2.169423 1_555
Li5 O5 2.282149 1_555
Li6 O14 2.078270 1_556
Li6 O9 2.141409 1_655
Li6 O7 2.151018 1_645
Li6 O6 2.156924 1_655
Li6 O3 2.175214 1_555
Li6 O13 2.192460 1_555
Li7 O10 2.081328 1_555
Li7 O0 2.081328 1_554
Li7 O14 2.125214 1_465
Li7 O4 2.125214 1_464
Li7 O7 2.327557 1_554
Li7 O15 2.327557 1_555
Li8 O3 2.050064 1_555
Li8 O11 2.050064 1_555
Li8 O7 2.062436 1_645
Li8 O15 2.062436 1_645
Li8 O4 2.165163 1_555
Li8 O14 2.165163 1_555
Mn0 O0 1.911498 1_555
Mn0 O15 1.913517 1_555
Mn0 O4 1.938923 1_465
Mn0 O12 1.975836 1_455
Mn0 O8 1.979432 1_555
Mn0 O5 1.985172 1_456
Mn1 O10 1.911498 1_555
Mn1 O7 1.913517 1_555
Mn1 O14 1.938923 1_465
Mn1 O6 1.975836 1_565
Mn1 O2 1.979432 1_555
Mn1 O9 1.985172 1_564
Co0 O1 1.959863 1_555
Co0 O13 1.961657 1_454
Co0 O9 2.026609 1_554
Co0 O5 2.043993 1_455
Co0 O8 2.073278 1_554
Co0 O6 2.081961 1_555
Co1 O3 1.904428 1_555
Co1 O11 1.904428 1_555
Co1 O7 1.939627 1_555
Co1 O15 1.939627 1_555
Co1 O10 2.186331 1_555
Co1 O0 2.186331 1_555
Co2 O4 1.934854 1_555
Co2 O11 1.962992 1_555
Co2 O8 2.023383 1_555
Co2 O0 2.042677 1_555
Co2 O12 2.064653 1_545
Co2 O1 2.186658 1_556
Co3 O13 1.959863 1_555
Co3 O1 1.961657 1_566
Co3 O5 2.026609 1_556
Co3 O9 2.043993 1_565
Co3 O2 2.073278 1_556
Co3 O12 2.081961 1_555
Co4 O14 1.934854 1_555
Co4 O3 1.962992 1_555
Co4 O2 2.023383 1_555
Co4 O10 2.042677 1_555
Co4 O6 2.064653 1_655
Co4 O13 2.186658 1_554
