# generated using pymatgen
data_Mg2Mn3NiS8
_symmetry_space_group_name_H-M   'P 1'
_cell_length_a   7.19950596
_cell_length_b   7.20064392
_cell_length_c   7.20439155
_cell_angle_alpha   59.87777306
_cell_angle_beta   59.87213236
_cell_angle_gamma   59.87180270
_symmetry_Int_Tables_number   1
_chemical_formula_structural   Mg2Mn3NiS8
_chemical_formula_sum   'Mg2 Mn3 Ni1 S8'
_cell_volume   263.33704213
_cell_formula_units_Z   1
loop_
 _symmetry_equiv_pos_site_id
 _symmetry_equiv_pos_as_xyz
  1  'x, y, z'
loop_
 _atom_site_type_symbol
 _atom_site_label
 _atom_site_symmetry_multiplicity
 _atom_site_fract_x
 _atom_site_fract_y
 _atom_site_fract_z
 _atom_site_occupancy
  Mg  Mg0  1  0.87678800  0.87668400  0.87681300  1
  Mg  Mg1  1  0.12322800  0.12332200  0.12319400  1
  Mn  Mn0  1  0.49997400  0.50002300  0.99999800  1
  Mn  Mn1  1  0.99994500  0.50002300  0.49984100  1
  Mn  Mn2  1  0.50007000  0.99993700  0.50016000  1
  Ni  Ni0  1  0.49996500  0.50002500  0.49998800  1
  S  S0  1  0.73880500  0.73877100  0.73886100  1
  S  S1  1  0.26526900  0.26570400  0.70682300  1
  S  S2  1  0.26536500  0.70685400  0.26562800  1
  S  S3  1  0.70678400  0.26563700  0.26550000  1
  S  S4  1  0.73461600  0.29314500  0.73437200  1
  S  S5  1  0.29323800  0.73435500  0.73450200  1
  S  S6  1  0.26125400  0.26117700  0.26117200  1
  S  S7  1  0.73470500  0.73433800  0.29315100  1
loop_
_geom_bond_atom_site_label_1
_geom_bond_atom_site_label_2
_geom_bond_distance
_geom_bond_site_symmetry_2
Mg0 S0 2.435747 1_555
Mg0 S5 2.444385 1_655
Mg0 S4 2.444970 1_565
Mg0 S7 2.445496 1_556
Mg1 S6 2.435812 1_555
Mg1 S3 2.444348 1_455
Mg1 S2 2.445006 1_545
Mg1 S1 2.445688 1_554
Mn0 S5 2.412136 1_555
Mn0 S3 2.412519 1_556
Mn0 S2 2.413244 1_556
Mn0 S4 2.413445 1_555
Mn0 S6 2.434141 1_556
Mn0 S0 2.434186 1_555
Mn1 S7 2.410202 1_555
Mn1 S4 2.411062 1_555
Mn1 S2 2.411347 1_655
Mn1 S1 2.412054 1_655
Mn1 S6 2.434430 1_655
Mn1 S0 2.435580 1_555
Mn2 S5 2.412316 1_555
Mn2 S3 2.412374 1_565
Mn2 S1 2.412936 1_565
Mn2 S7 2.413691 1_555
Mn2 S0 2.434034 1_555
Mn2 S6 2.435853 1_565
Ni0 S5 2.394308 1_555
Ni0 S3 2.394423 1_555
Ni0 S1 2.394431 1_555
Ni0 S7 2.394623 1_555
Ni0 S2 2.394839 1_555
Ni0 S4 2.395211 1_555
