# generated using pymatgen
data_Ba3SmIr2O9
_symmetry_space_group_name_H-M   'P 1'
_cell_length_a   5.99539802
_cell_length_b   5.99539802
_cell_length_c   14.86919200
_cell_angle_alpha   90.00000000
_cell_angle_beta   90.00000000
_cell_angle_gamma   120.00000025
_symmetry_Int_Tables_number   1
_chemical_formula_structural   Ba3SmIr2O9
_chemical_formula_sum   'Ba6 Sm2 Ir4 O18'
_cell_volume   462.86467840
_cell_formula_units_Z   2
loop_
 _symmetry_equiv_pos_site_id
 _symmetry_equiv_pos_as_xyz
  1  'x, y, z'
loop_
 _atom_site_type_symbol
 _atom_site_label
 _atom_site_symmetry_multiplicity
 _atom_site_fract_x
 _atom_site_fract_y
 _atom_site_fract_z
 _atom_site_occupancy
  Ba  Ba0  1  0.00000000  0.00000000  0.25000000  1
  Ba  Ba1  1  0.00000000  0.00000000  0.75000000  1
  Ba  Ba2  1  0.33333300  0.66666700  0.59687400  1
  Ba  Ba3  1  0.66666700  0.33333300  0.40312600  1
  Ba  Ba4  1  0.66666700  0.33333300  0.09687400  1
  Ba  Ba5  1  0.33333300  0.66666700  0.90312600  1
  Sm  Sm0  1  0.00000000  0.00000000  0.50000000  1
  Sm  Sm1  1  0.00000000  0.00000000  0.00000000  1
  Ir  Ir0  1  0.33333300  0.66666700  0.33468100  1
  Ir  Ir1  1  0.66666700  0.33333300  0.66531900  1
  Ir  Ir2  1  0.66666700  0.33333300  0.83468100  1
  Ir  Ir3  1  0.33333300  0.66666700  0.16531900  1
  O  O0  1  0.49075300  0.50924700  0.25000000  1
  O  O1  1  0.49075300  0.98150600  0.25000000  1
  O  O2  1  0.01849400  0.50924700  0.25000000  1
  O  O3  1  0.50924700  0.49075300  0.75000000  1
  O  O4  1  0.50924700  0.01849400  0.75000000  1
  O  O5  1  0.98150600  0.49075300  0.75000000  1
  O  O6  1  0.17806000  0.82194000  0.08882200  1
  O  O7  1  0.17806000  0.35611900  0.08882200  1
  O  O8  1  0.64388100  0.82194000  0.08882200  1
  O  O9  1  0.82194000  0.17806000  0.91117800  1
  O  O10  1  0.82194000  0.64388100  0.91117800  1
  O  O11  1  0.35611900  0.17806000  0.91117800  1
  O  O12  1  0.82194000  0.17806000  0.58882200  1
  O  O13  1  0.82194000  0.64388100  0.58882200  1
  O  O14  1  0.35611900  0.17806000  0.58882200  1
  O  O15  1  0.17806000  0.82194000  0.41117800  1
  O  O16  1  0.17806000  0.35611900  0.41117800  1
  O  O17  1  0.64388100  0.82194000  0.41117800  1
loop_
_geom_bond_atom_site_label_1
_geom_bond_atom_site_label_2
_geom_bond_distance
_geom_bond_site_symmetry_2
Ba0 O0 2.999237 1_555
Ba0 O0 2.999237 1_445
Ba0 O1 2.999237 1_445
Ba0 O2 2.999237 1_555
Ba0 O2 2.999237 1_545
Ba0 O1 2.999237 1_545
Ba0 O16 3.026968 1_555
Ba0 O7 3.026968 1_555
Ba0 O8 3.026968 1_445
Ba0 O17 3.026968 1_445
Ba0 O6 3.026971 1_545
Ba0 O15 3.026971 1_545
Ba1 O3 2.999237 1_555
Ba1 O3 2.999237 1_445
Ba1 O4 2.999237 1_555
Ba1 O5 2.999237 1_445
Ba1 O5 2.999237 1_455
Ba1 O4 2.999237 1_455
Ba1 O11 3.026968 1_555
Ba1 O10 3.026968 1_445
Ba1 O14 3.026968 1_555
Ba1 O13 3.026968 1_445
Ba1 O9 3.026971 1_455
Ba1 O12 3.026971 1_455
Ba2 O5 2.919090 1_455
Ba2 O4 2.919090 1_565
Ba2 O3 2.919093 1_555
Ba2 O12 3.002421 1_455
Ba2 O12 3.002421 1_565
Ba2 O13 3.002421 1_455
Ba2 O14 3.002421 1_565
Ba2 O14 3.002421 1_555
Ba2 O13 3.002421 1_555
Ba2 O15 3.197468 1_555
Ba2 O17 3.197473 1_555
Ba2 O16 3.197473 1_555
Ba3 O1 2.919090 1_545
Ba3 O2 2.919090 1_655
Ba3 O0 2.919093 1_555
Ba3 O15 3.002421 1_545
Ba3 O15 3.002421 1_655
Ba3 O17 3.002421 1_545
Ba3 O16 3.002421 1_655
Ba3 O16 3.002421 1_555
Ba3 O17 3.002421 1_555
Ba3 O12 3.197468 1_555
Ba3 O13 3.197473 1_555
Ba3 O14 3.197473 1_555
Ba4 O1 2.919090 1_545
Ba4 O2 2.919090 1_655
Ba4 O0 2.919093 1_555
Ba4 O6 3.002421 1_545
Ba4 O6 3.002421 1_655
Ba4 O8 3.002421 1_545
Ba4 O7 3.002421 1_655
Ba4 O7 3.002421 1_555
Ba4 O8 3.002421 1_555
Ba4 O9 3.197468 1_554
Ba4 O10 3.197473 1_554
Ba4 O11 3.197473 1_554
Ba5 O5 2.919090 1_455
Ba5 O4 2.919090 1_565
Ba5 O3 2.919093 1_555
Ba5 O9 3.002421 1_455
Ba5 O9 3.002421 1_565
Ba5 O10 3.002421 1_455
Ba5 O11 3.002421 1_565
Ba5 O11 3.002421 1_555
Ba5 O10 3.002421 1_555
Ba5 O6 3.197468 1_556
Ba5 O8 3.197473 1_556
Ba5 O7 3.197473 1_556
Ir0 O15 1.973232 1_555
Ir0 O17 1.973241 1_555
Ir0 O16 1.973241 1_555
Ir0 O1 2.063410 1_555
Ir0 O2 2.063410 1_555
Ir0 O0 2.063414 1_555
Ir1 O12 1.973232 1_555
Ir1 O13 1.973241 1_555
Ir1 O14 1.973241 1_555
Ir1 O5 2.063410 1_555
Ir1 O4 2.063410 1_555
Ir1 O3 2.063414 1_555
Ir2 O9 1.973232 1_555
Ir2 O10 1.973241 1_555
Ir2 O11 1.973241 1_555
Ir2 O5 2.063410 1_555
Ir2 O4 2.063410 1_555
Ir2 O3 2.063414 1_555
Ir3 O6 1.973232 1_555
Ir3 O8 1.973241 1_555
Ir3 O7 1.973241 1_555
Ir3 O1 2.063410 1_555
Ir3 O2 2.063410 1_555
Ir3 O0 2.063414 1_555
O6 Sm1 2.272269 1_565
O7 Sm1 2.272265 1_555
O8 Sm1 2.272265 1_665
O9 Sm1 2.272269 1_656
O10 Sm1 2.272265 1_666
O11 Sm1 2.272265 1_556
O12 Sm0 2.272269 1_655
O13 Sm0 2.272265 1_665
O14 Sm0 2.272265 1_555
O15 Sm0 2.272269 1_565
O16 Sm0 2.272265 1_555
O17 Sm0 2.272265 1_665
