# generated using pymatgen
data_NaH6C2S2N3O2
_symmetry_space_group_name_H-M   'P 1'
_cell_length_a   8.73778607
_cell_length_b   8.97979261
_cell_length_c   20.12078121
_cell_angle_alpha   90.00000000
_cell_angle_beta   90.00000000
_cell_angle_gamma   91.47018048
_symmetry_Int_Tables_number   1
_chemical_formula_structural   NaH6C2S2N3O2
_chemical_formula_sum   'Na8 H48 C16 S16 N24 O16'
_cell_volume   1578.22735004
_cell_formula_units_Z   8
loop_
 _symmetry_equiv_pos_site_id
 _symmetry_equiv_pos_as_xyz
  1  'x, y, z'
loop_
 _atom_site_type_symbol
 _atom_site_label
 _atom_site_symmetry_multiplicity
 _atom_site_fract_x
 _atom_site_fract_y
 _atom_site_fract_z
 _atom_site_occupancy
  Na  Na0  1  0.02690608  0.28371836  0.50262233  1
  Na  Na1  1  0.97309392  0.71628164  0.49737767  1
  Na  Na2  1  0.47309392  0.71628164  0.00262233  1
  Na  Na3  1  0.52690608  0.28371836  0.99737767  1
  Na  Na4  1  0.29226083  0.01834129  0.49347500  1
  Na  Na5  1  0.70773917  0.98165871  0.50652500  1
  Na  Na6  1  0.20773917  0.98165871  0.99347500  1
  Na  Na7  1  0.79226083  0.01834129  0.00652500  1
  H  H0  1  0.25256132  0.23080728  0.76949531  1
  H  H1  1  0.74743868  0.76919272  0.23050469  1
  H  H2  1  0.24743868  0.76919272  0.26949531  1
  H  H3  1  0.75256132  0.23080728  0.73050469  1
  H  H4  1  0.21918310  0.26962688  0.04918156  1
  H  H5  1  0.78081690  0.73037312  0.95081844  1
  H  H6  1  0.28081690  0.73037312  0.54918156  1
  H  H7  1  0.71918310  0.26962688  0.45081844  1
  H  H8  1  0.29216675  0.68873657  0.47189563  1
  H  H9  1  0.70783325  0.31126343  0.52810437  1
  H  H10  1  0.20783325  0.31126343  0.97189563  1
  H  H11  1  0.79216675  0.68873657  0.02810437  1
  H  H12  1  0.18645112  0.25439386  0.28504442  1
  H  H13  1  0.81354888  0.74560614  0.71495558  1
  H  H14  1  0.31354888  0.74560614  0.78504442  1
  H  H15  1  0.68645112  0.25439386  0.21495558  1
  H  H16  1  0.19681696  0.79810122  0.35334364  1
  H  H17  1  0.80318304  0.20189878  0.64665636  1
  H  H18  1  0.30318304  0.20189878  0.85334364  1
  H  H19  1  0.69681696  0.79810122  0.14665636  1
  H  H20  1  0.46182130  0.07913874  0.60936085  1
  H  H21  1  0.53817870  0.92086126  0.39063915  1
  H  H22  1  0.03817870  0.92086126  0.10936085  1
  H  H23  1  0.96182130  0.07913874  0.89063915  1
  H  H24  1  0.25629154  0.26134971  0.36584659  1
  H  H25  1  0.74370846  0.73865029  0.63415341  1
  H  H26  1  0.24370846  0.73865029  0.86584659  1
  H  H27  1  0.75629154  0.26134971  0.13415341  1
  H  H28  1  0.03869568  0.09405136  0.10704211  1
  H  H29  1  0.96130432  0.90594864  0.89295789  1
  H  H30  1  0.46130432  0.90594864  0.60704211  1
  H  H31  1  0.53869568  0.09405136  0.39295789  1
  H  H32  1  0.37579842  0.35378013  0.47284701  1
  H  H33  1  0.62420158  0.64621987  0.52715299  1
  H  H34  1  0.12420158  0.64621987  0.97284701  1
  H  H35  1  0.87579842  0.35378013  0.02715299  1
  H  H36  1  0.40683908  0.48427374  0.10714768  1
  H  H37  1  0.59316092  0.51572626  0.89285232  1
  H  H38  1  0.09316092  0.51572626  0.60714768  1
  H  H39  1  0.90683908  0.48427374  0.39285232  1
  H  H40  1  0.08459034  0.49397152  0.39496805  1
  H  H41  1  0.91540966  0.50602848  0.60503195  1
  H  H42  1  0.41540966  0.50602848  0.89496805  1
  H  H43  1  0.58459034  0.49397152  0.10503195  1
  H  H44  1  0.32250297  0.30391870  0.54636238  1
  H  H45  1  0.67749703  0.69608130  0.45363762  1
  H  H46  1  0.17749703  0.69608130  0.04636238  1
  H  H47  1  0.82250297  0.30391870  0.95363762  1
  C  C0  1  0.34795243  0.63248732  0.33836916  1
  C  C1  1  0.65204757  0.36751268  0.66163084  1
  C  C2  1  0.15204757  0.36751268  0.83836916  1
  C  C3  1  0.84795243  0.63248732  0.16163084  1
  C  C4  1  0.07743925  0.11448796  0.35132351  1
  C  C5  1  0.92256075  0.88551204  0.64867649  1
  C  C6  1  0.42256075  0.88551204  0.85132351  1
  C  C7  1  0.57743925  0.11448796  0.14867649  1
  C  C8  1  0.02063024  0.42512180  0.14810081  1
  C  C9  1  0.97936976  0.57487820  0.85189919  1
  C  C10  1  0.47936976  0.57487820  0.64810081  1
  C  C11  1  0.52063024  0.42512180  0.35189919  1
  C  C12  1  0.10944795  0.09156898  0.64099986  1
  C  C13  1  0.89055205  0.90843102  0.35900014  1
  C  C14  1  0.39055205  0.90843102  0.14099986  1
  C  C15  1  0.60944795  0.09156898  0.85900014  1
  S  S0  1  0.46057093  0.53274508  0.28344909  1
  S  S1  1  0.53942907  0.46725492  0.71655091  1
  S  S2  1  0.03942907  0.46725492  0.78344909  1
  S  S3  1  0.96057093  0.53274508  0.21655091  1
  S  S4  1  0.24702591  0.22771358  0.65522403  1
  S  S5  1  0.75297409  0.77228642  0.34477597  1
  S  S6  1  0.25297409  0.77228642  0.15522403  1
  S  S7  1  0.74702591  0.22771358  0.84477597  1
  S  S8  1  0.45797869  0.02517267  0.20623761  1
  S  S9  1  0.54202131  0.97482733  0.79376239  1
  S  S10  1  0.04202131  0.97482733  0.70623761  1
  S  S11  1  0.95797869  0.02517267  0.29376239  1
  S  S12  1  0.15216480  0.28823350  0.15834479  1
  S  S13  1  0.84783520  0.71176650  0.84165521  1
  S  S14  1  0.34783520  0.71176650  0.65834479  1
  S  S15  1  0.65216480  0.28823350  0.34165521  1
  N  N0  1  0.35542326  0.58317160  0.40039244  1
  N  N1  1  0.64457674  0.41682840  0.59960756  1
  N  N2  1  0.14457674  0.41682840  0.90039244  1
  N  N3  1  0.85542326  0.58317160  0.09960756  1
  N  N4  1  0.06593988  0.05825158  0.41204680  1
  N  N5  1  0.93406012  0.94174842  0.58795320  1
  N  N6  1  0.43406012  0.94174842  0.91204680  1
  N  N7  1  0.56593988  0.05825158  0.08795320  1
  N  N8  1  0.16858987  0.23377739  0.33448826  1
  N  N9  1  0.83141013  0.76622261  0.66551174  1
  N  N10  1  0.33141013  0.76622261  0.83448826  1
  N  N11  1  0.66858987  0.23377739  0.16551174  1
  N  N12  1  0.45309712  0.46563651  0.40763839  1
  N  N13  1  0.54690288  0.53436349  0.59236161  1
  N  N14  1  0.04690288  0.53436349  0.90763839  1
  N  N15  1  0.95309712  0.46563651  0.09236161  1
  N  N16  1  0.26562438  0.75005513  0.31931694  1
  N  N17  1  0.73437562  0.24994487  0.68068306  1
  N  N18  1  0.23437562  0.24994487  0.81931694  1
  N  N19  1  0.76562438  0.75005513  0.18068306  1
  N  N20  1  0.04060716  0.05911302  0.58393815  1
  N  N21  1  0.95939284  0.94088698  0.41606185  1
  N  N22  1  0.45939284  0.94088698  0.08393815  1
  N  N23  1  0.54060716  0.05911302  0.91606185  1
  O  O0  1  0.49395584  0.49356626  0.07664142  1
  O  O1  1  0.50604416  0.50643374  0.92335858  1
  O  O2  1  0.00604416  0.50643374  0.57664142  1
  O  O3  1  0.99395584  0.49356626  0.42335858  1
  O  O4  1  0.30422587  0.28633569  0.49867439  1
  O  O5  1  0.69577413  0.71366431  0.50132561  1
  O  O6  1  0.19577413  0.71366431  0.99867439  1
  O  O7  1  0.80422587  0.28633569  0.00132561  1
  O  O8  1  0.50490649  0.00408643  0.41848589  1
  O  O9  1  0.49509351  0.99591357  0.58151411  1
  O  O10  1  0.99509351  0.99591357  0.91848589  1
  O  O11  1  0.00490649  0.00408643  0.08151411  1
  O  O12  1  0.25715854  0.24281684  0.00438133  1
  O  O13  1  0.74284146  0.75718316  0.99561867  1
  O  O14  1  0.24284146  0.75718316  0.50438133  1
  O  O15  1  0.75715854  0.24281684  0.49561867  1
loop_
_geom_bond_atom_site_label_1
_geom_bond_atom_site_label_2
_geom_bond_distance
_geom_bond_site_symmetry_2
Na0 O15 2.380287 1_455
Na0 O4 2.423974 1_555
Na0 O3 2.491024 1_455
Na0 O2 2.503950 1_555
Na1 O14 2.380287 1_655
Na1 O5 2.423974 1_555
Na1 O2 2.491024 1_655
Na1 O3 2.503950 1_555
Na2 O13 2.380287 1_554
Na2 O6 2.423974 1_554
Na2 O1 2.491024 1_554
Na2 O0 2.503950 1_555
Na3 O12 2.380287 1_556
Na3 O7 2.423974 1_556
Na3 O0 2.491024 1_556
Na3 O1 2.503950 1_555
Na4 O14 2.383771 1_545
Na4 O8 2.399488 1_555
Na4 O4 2.408396 1_555
Na4 O9 2.517512 1_545
Na5 O15 2.383771 1_565
Na5 O9 2.399488 1_555
Na5 O5 2.408396 1_555
Na5 O8 2.517512 1_565
Na6 O12 2.383771 1_566
Na6 O10 2.399488 1_455
Na6 O6 2.408396 1_555
Na6 O11 2.517512 1_566
Na7 O13 2.383771 1_544
Na7 O11 2.399488 1_655
Na7 O7 2.408396 1_555
Na7 O10 2.517512 1_544
H0 N18 1.030092 1_555
H1 N19 1.030092 1_555
H2 N16 1.030092 1_555
H3 N17 1.030092 1_555
H4 O12 0.992328 1_555
H5 O13 0.992328 1_555
H6 O14 0.992328 1_555
H7 O15 0.992328 1_555
H8 O14 1.002182 1_555
H9 O15 1.002182 1_555
H10 O12 1.002182 1_556
H11 O13 1.002182 1_554
H12 N8 1.023168 1_555
H13 N9 1.023168 1_555
H14 N10 1.023168 1_555
H15 N11 1.023168 1_555
H16 N16 1.014723 1_555
H17 N17 1.014723 1_555
H18 N18 1.014723 1_555
H19 N19 1.014723 1_555
H20 O9 0.983935 1_545
H21 O8 0.983935 1_565
H22 O11 0.983935 1_565
H23 O10 0.983935 1_545
H24 N8 1.018290 1_555
H25 N9 1.018290 1_555
H26 N10 1.018290 1_555
H27 N11 1.018290 1_555
H28 O11 0.995694 1_555
H29 O10 0.995694 1_555
H30 O9 0.995694 1_555
H31 O8 0.995694 1_555
H32 O4 1.004252 1_555
H32 N12 1.775321 1_555
H33 O5 1.004252 1_555
H33 N13 1.775321 1_555
H34 O6 1.004252 1_555
H34 N14 1.775321 1_555
H35 O7 1.004252 1_555
H35 N15 1.775321 1_555
H36 O0 0.979746 1_555
H37 O1 0.979746 1_555
H38 O2 0.979746 1_555
H39 O3 0.979746 1_555
H40 O3 0.976400 1_455
H41 O2 0.976400 1_655
H42 O1 0.976400 1_555
H43 O0 0.976400 1_555
H44 O4 0.984794 1_555
H45 O5 0.984794 1_555
H46 O6 0.984794 1_554
H47 O7 0.984794 1_556
C0 N0 1.326368 1_555
C0 N16 1.348327 1_555
C0 S0 1.742662 1_555
C1 N1 1.326368 1_555
C1 N17 1.348327 1_555
C1 S1 1.742662 1_555
C2 N2 1.326368 1_555
C2 N18 1.348327 1_555
C2 S2 1.742662 1_555
C3 N3 1.326368 1_555
C3 N19 1.348327 1_555
C3 S3 1.742662 1_555
C4 N4 1.324879 1_555
C4 N8 1.361162 1_555
C4 S11 1.741042 1_455
C5 N5 1.324879 1_555
C5 N9 1.361162 1_555
C5 S10 1.741042 1_655
C6 N6 1.324879 1_555
C6 N10 1.361162 1_555
C6 S9 1.741042 1_555
C7 N7 1.324879 1_555
C7 N11 1.361162 1_555
C7 S8 1.741042 1_555
C8 N15 1.322642 1_455
C8 S12 1.716659 1_555
C8 S3 1.769828 1_455
C9 N14 1.322642 1_655
C9 S13 1.716659 1_555
C9 S2 1.769828 1_655
C10 N13 1.322642 1_555
C10 S14 1.716659 1_555
C10 S1 1.769828 1_555
C11 N12 1.322642 1_555
C11 S15 1.716659 1_555
C11 S0 1.769828 1_555
C12 N20 1.325127 1_555
C12 S4 1.716460 1_555
C12 S10 1.771268 1_545
C13 N21 1.325127 1_555
C13 S5 1.716460 1_555
C13 S11 1.771268 1_565
C14 N22 1.325127 1_555
C14 S6 1.716460 1_555
C14 S8 1.771268 1_565
C15 N23 1.325127 1_555
C15 S7 1.716460 1_555
C15 S9 1.771268 1_545
N0 N12 1.381961 1_555
N1 N13 1.381961 1_555
N4 Na4 2.599969 1_555
N4 Na0 2.751777 1_555
N5 Na5 2.599969 1_555
N5 Na1 2.751777 1_555
N6 Na6 2.599969 1_555
N6 Na2 2.751777 1_556
N7 Na7 2.599969 1_555
N7 Na3 2.751777 1_554
N14 N2 1.381961 1_555
N15 N3 1.381961 1_555
N20 N5 1.390553 1_445
N20 Na0 2.602228 1_555
N20 Na4 2.885063 1_555
N21 N4 1.390553 1_665
N21 Na1 2.602228 1_555
N21 Na5 2.885063 1_555
N22 N7 1.390553 1_565
N22 Na2 2.602228 1_555
N22 Na6 2.885063 1_554
N23 N6 1.390553 1_545
N23 Na3 2.602228 1_555
N23 Na7 2.885063 1_556
