# generated using pymatgen
data_TeO2
_symmetry_space_group_name_H-M   'P 1'
_cell_length_a   6.92417728
_cell_length_b   6.92417728
_cell_length_c   3.36213805
_cell_angle_alpha   90.00000000
_cell_angle_beta   90.00000000
_cell_angle_gamma   152.39416240
_symmetry_Int_Tables_number   1
_chemical_formula_structural   TeO2
_chemical_formula_sum   'Te2 O4'
_cell_volume   74.69561567
_cell_formula_units_Z   2
loop_
 _symmetry_equiv_pos_site_id
 _symmetry_equiv_pos_as_xyz
  1  'x, y, z'
loop_
 _atom_site_type_symbol
 _atom_site_label
 _atom_site_symmetry_multiplicity
 _atom_site_fract_x
 _atom_site_fract_y
 _atom_site_fract_z
 _atom_site_occupancy
  Te  Te0  1  0.14616341  0.85383659  0.25000000  1
  Te  Te1  1  0.85383659  0.14616341  0.75000000  1
  O  O0  1  0.25004154  0.74995846  0.75000000  1
  O  O1  1  0.74995846  0.25004154  0.25000000  1
  O  O2  1  0.40103596  0.59896404  0.25000000  1
  O  O3  1  0.59896404  0.40103596  0.75000000  1
loop_
_geom_bond_atom_site_label_1
_geom_bond_atom_site_label_2
_geom_bond_distance
_geom_bond_site_symmetry_2
O0 Te1 2.162766 1_455
O0 Te1 2.162766 1_565
O0 Te0 2.185772 1_556
O0 Te0 2.185772 1_555
O1 Te0 2.162766 1_655
O1 Te0 2.162766 1_545
O1 Te1 2.185772 1_554
O1 Te1 2.185772 1_555
O2 Te1 2.440898 1_564
O2 Te1 2.440898 1_565
O2 Te1 2.440898 1_455
O2 Te1 2.440898 1_454
O3 Te0 2.440898 1_546
O3 Te0 2.440898 1_655
O3 Te0 2.440898 1_656
O3 Te0 2.440898 1_545
