# generated using pymatgen
data_ErBO3
_symmetry_space_group_name_H-M   'P 1'
_cell_length_a   7.18248700
_cell_length_b   8.98394060
_cell_length_c   9.83816739
_cell_angle_alpha   81.33542328
_cell_angle_beta   85.65877983
_cell_angle_gamma   77.35866253
_symmetry_Int_Tables_number   1
_chemical_formula_structural   ErBO3
_chemical_formula_sum   'Er12 B12 O36'
_cell_volume   611.76846851
_cell_formula_units_Z   12
loop_
 _symmetry_equiv_pos_site_id
 _symmetry_equiv_pos_as_xyz
  1  'x, y, z'
loop_
 _atom_site_type_symbol
 _atom_site_label
 _atom_site_symmetry_multiplicity
 _atom_site_fract_x
 _atom_site_fract_y
 _atom_site_fract_z
 _atom_site_occupancy
  Er  Er0  1  0.26314700  0.55848700  0.97259800  1
  Er  Er1  1  0.73685300  0.44151300  0.02740200  1
  Er  Er2  1  0.75068200  0.95765100  0.51903500  1
  Er  Er3  1  0.24931800  0.04234900  0.48096500  1
  Er  Er4  1  0.90216500  0.06738200  0.83709700  1
  Er  Er5  1  0.09783500  0.93261800  0.16290300  1
  Er  Er6  1  0.09731000  0.43587600  0.67099700  1
  Er  Er7  1  0.90269000  0.56412400  0.32900300  1
  Er  Er8  1  0.56426100  0.55847800  0.65679000  1
  Er  Er9  1  0.43573900  0.44152200  0.34321000  1
  Er  Er10  1  0.42727200  0.94301400  0.84503300  1
  Er  Er11  1  0.57272800  0.05698600  0.15496700  1
  B  B0  1  0.47784100  0.28488400  0.92186700  1
  B  B1  1  0.52215900  0.71511600  0.07813300  1
  B  B2  1  0.46645800  0.77979000  0.38660100  1
  B  B3  1  0.53354200  0.22021000  0.61339900  1
  B  B4  1  0.83142600  0.72802800  0.79404700  1
  B  B5  1  0.16857400  0.27197200  0.20595300  1
  B  B6  1  0.21951900  0.78275200  0.69191400  1
  B  B7  1  0.78048100  0.21724800  0.30808600  1
  B  B8  1  0.88510100  0.74377400  0.05144000  1
  B  B9  1  0.11489900  0.25622600  0.94856000  1
  B  B10  1  0.10670000  0.75225500  0.44774600  1
  B  B11  1  0.89330000  0.24774500  0.55225300  1
  O  O0  1  0.06495700  0.18590800  0.62990300  1
  O  O1  1  0.93504300  0.81409200  0.37009700  1
  O  O2  1  0.94119800  0.31831600  0.87325700  1
  O  O3  1  0.05880200  0.68168400  0.12674300  1
  O  O4  1  0.92010600  0.16107300  0.42775500  1
  O  O5  1  0.07989400  0.83892700  0.57224500  1
  O  O6  1  0.08147500  0.33456600  0.08066800  1
  O  O7  1  0.91852500  0.66543400  0.91933200  1
  O  O8  1  0.85024700  0.41272000  0.53441600  1
  O  O9  1  0.14975300  0.58728000  0.46558400  1
  O  O10  1  0.15282200  0.08999500  0.96447500  1
  O  O11  1  0.84717800  0.91000500  0.03552500  1
  O  O12  1  0.26810900  0.81767400  0.36363300  1
  O  O13  1  0.73189100  0.18232600  0.63636700  1
  O  O14  1  0.27143200  0.32350900  0.87237100  1
  O  O15  1  0.72856800  0.67649100  0.12762900  1
  O  O16  1  0.84318900  0.12466600  0.19756000  1
  O  O17  1  0.15681100  0.87533400  0.80244000  1
  O  O18  1  0.16850300  0.37009100  0.30076000  1
  O  O19  1  0.83149700  0.62990900  0.69924000  1
  O  O20  1  0.75518300  0.38356900  0.26301300  1
  O  O21  1  0.24481700  0.61643100  0.73698700  1
  O  O22  1  0.24594800  0.11666700  0.23978800  1
  O  O23  1  0.75405200  0.88333300  0.76021200  1
  O  O24  1  0.45361900  0.09303600  0.62561900  1
  O  O25  1  0.54638100  0.90696400  0.37438100  1
  O  O26  1  0.43511400  0.59268700  0.14930500  1
  O  O27  1  0.56488600  0.40731300  0.85069500  1
  O  O28  1  0.56612700  0.63172600  0.41609900  1
  O  O29  1  0.43387300  0.36827400  0.58390100  1
  O  O30  1  0.42848000  0.87283700  0.08818500  1
  O  O31  1  0.57152000  0.12716300  0.91181500  1
  O  O32  1  0.59146300  0.18705200  0.36797400  1
  O  O33  1  0.40853700  0.81294800  0.63202600  1
  O  O34  1  0.47375600  0.31072800  0.07123600  1
  O  O35  1  0.52624400  0.68927200  0.92876400  1
loop_
_geom_bond_atom_site_label_1
_geom_bond_atom_site_label_2
_geom_bond_distance
_geom_bond_site_symmetry_2
Er0 O3 2.266424 1_556
Er0 O26 2.300959 1_556
Er0 O21 2.305210 1_555
Er0 O35 2.415208 1_555
Er0 O14 2.448589 1_555
Er0 O34 2.506406 1_556
Er0 O7 2.515617 1_455
Er0 O27 2.605520 1_555
Er0 O6 2.678515 1_556
Er1 O2 2.266424 1_554
Er1 O27 2.300959 1_554
Er1 O20 2.305210 1_555
Er1 O34 2.415208 1_555
Er1 O15 2.448589 1_555
Er1 O35 2.506406 1_554
Er1 O6 2.515617 1_655
Er1 O26 2.605520 1_555
Er1 O7 2.678515 1_554
Er2 O1 2.256548 1_555
Er2 O25 2.278106 1_555
Er2 O23 2.366551 1_555
Er2 O5 2.432718 1_655
Er2 O4 2.437334 1_565
Er2 O13 2.446243 1_565
Er2 O24 2.457856 1_565
Er2 O32 2.463081 1_565
Er3 O0 2.256548 1_555
Er3 O24 2.278106 1_555
Er3 O22 2.366551 1_555
Er3 O4 2.432718 1_455
Er3 O5 2.437334 1_545
Er3 O12 2.446243 1_545
Er3 O25 2.457856 1_545
Er3 O33 2.463081 1_545
Er4 O17 2.267139 1_645
Er4 O11 2.293910 1_546
Er4 O10 2.330510 1_655
Er4 O13 2.379159 1_555
Er4 O23 2.388817 1_545
Er4 O31 2.401068 1_555
Er4 O2 2.412621 1_555
Er4 O0 2.487219 1_655
Er5 O16 2.267139 1_465
Er5 O10 2.293910 1_564
Er5 O11 2.330510 1_455
Er5 O12 2.379159 1_555
Er5 O22 2.388817 1_565
Er5 O30 2.401068 1_555
Er5 O3 2.412621 1_555
Er5 O1 2.487219 1_455
Er6 O21 2.312744 1_555
Er6 O9 2.314480 1_555
Er6 O19 2.317297 1_455
Er6 O8 2.367395 1_455
Er6 O14 2.393332 1_555
Er6 O0 2.403496 1_555
Er6 O2 2.424793 1_455
Er6 O29 2.479377 1_555
Er7 O20 2.312744 1_555
Er7 O8 2.314480 1_555
Er7 O18 2.317297 1_655
Er7 O9 2.367395 1_655
Er7 O15 2.393332 1_555
Er7 O1 2.403496 1_555
Er7 O3 2.424793 1_655
Er7 O28 2.479377 1_555
Er8 O27 2.168315 1_555
Er8 O19 2.238670 1_555
Er8 O33 2.300231 1_555
Er8 O29 2.341478 1_555
Er8 O21 2.341947 1_555
Er8 O28 2.360085 1_555
Er8 O8 2.511334 1_555
Er9 O26 2.168315 1_555
Er9 O18 2.238670 1_555
Er9 O32 2.300231 1_555
Er9 O28 2.341478 1_555
Er9 O20 2.341947 1_555
Er9 O29 2.360085 1_555
Er9 O9 2.511334 1_555
Er10 O17 2.244084 1_555
Er10 O35 2.279052 1_555
Er10 O31 2.328701 1_565
Er10 O30 2.380415 1_556
Er10 O24 2.384373 1_565
Er10 O23 2.404197 1_555
Er10 O10 2.446993 1_565
Er10 O33 2.573782 1_555
Er11 O16 2.244084 1_555
Er11 O34 2.279052 1_555
Er11 O30 2.328701 1_545
Er11 O31 2.380415 1_554
Er11 O25 2.384373 1_545
Er11 O22 2.404197 1_555
Er11 O11 2.446993 1_545
Er11 O32 2.573782 1_555
B0 O31 1.443994 1_555
B0 O27 1.446924 1_555
B0 O34 1.519060 1_556
B0 O14 1.545522 1_555
B1 O30 1.443994 1_555
B1 O26 1.446924 1_555
B1 O35 1.519060 1_554
B1 O15 1.545522 1_555
B2 O28 1.365454 1_555
B2 O25 1.372798 1_555
B2 O12 1.417685 1_555
B3 O29 1.365454 1_555
B3 O24 1.372798 1_555
B3 O13 1.417685 1_555
B4 O19 1.376398 1_555
B4 O23 1.383857 1_555
B4 O7 1.407390 1_555
B5 O18 1.376398 1_555
B5 O22 1.383857 1_555
B5 O6 1.407390 1_555
B6 O17 1.453079 1_555
B6 O21 1.468354 1_555
B6 O33 1.501935 1_555
B6 O5 1.557147 1_555
B7 O16 1.453079 1_555
B7 O20 1.468354 1_555
B7 O32 1.501935 1_555
B7 O4 1.557147 1_555
B8 O11 1.444624 1_555
B8 O3 1.458538 1_655
B8 O15 1.491517 1_555
B8 O7 1.548099 1_554
B9 O10 1.444624 1_555
B9 O2 1.458538 1_455
B9 O14 1.491517 1_555
B9 O6 1.548099 1_556
B10 O9 1.432606 1_555
B10 O1 1.458504 1_455
B10 O5 1.526319 1_555
B10 O12 1.542942 1_555
B11 O8 1.432607 1_555
B11 O0 1.458509 1_655
B11 O4 1.526311 1_555
B11 O13 1.542946 1_555
