# generated using pymatgen
data_LuNiO3
_symmetry_space_group_name_H-M   'P 1'
_cell_length_a   5.52408700
_cell_length_b   5.13520100
_cell_length_c   8.97886931
_cell_angle_alpha   55.32949237
_cell_angle_beta   90.00000000
_cell_angle_gamma   90.00000000
_symmetry_Int_Tables_number   1
_chemical_formula_structural   LuNiO3
_chemical_formula_sum   'Lu4 Ni4 O12'
_cell_volume   209.47983717
_cell_formula_units_Z   4
loop_
 _symmetry_equiv_pos_site_id
 _symmetry_equiv_pos_as_xyz
  1  'x, y, z'
loop_
 _atom_site_type_symbol
 _atom_site_label
 _atom_site_symmetry_multiplicity
 _atom_site_fract_x
 _atom_site_fract_y
 _atom_site_fract_z
 _atom_site_occupancy
  Lu  Lu0  1  0.57899100  0.72656700  0.75126500  1
  Lu  Lu1  1  0.92100900  0.72656700  0.25126500  1
  Lu  Lu2  1  0.42100900  0.27343300  0.24873500  1
  Lu  Lu3  1  0.07899100  0.27343300  0.74873500  1
  Ni  Ni0  1  0.50000000  0.50000000  0.50000000  1
  Ni  Ni1  1  0.00000000  0.50000000  0.00000000  1
  Ni  Ni2  1  0.50000000  0.00000000  0.00000000  1
  Ni  Ni3  1  0.00000000  0.00000000  0.50000000  1
  O  O0  1  0.95952400  0.87100100  0.74471900  1
  O  O1  1  0.54047600  0.87100100  0.24471900  1
  O  O2  1  0.04047600  0.12899900  0.25528100  1
  O  O3  1  0.45952400  0.12899900  0.75528100  1
  O  O4  1  0.81386300  0.63945800  0.55514900  1
  O  O5  1  0.68613700  0.63945800  0.05514900  1
  O  O6  1  0.18613700  0.36054200  0.44485100  1
  O  O7  1  0.31386300  0.36054200  0.94485100  1
  O  O8  1  0.69851800  0.24346000  0.44038400  1
  O  O9  1  0.80148200  0.24346000  0.94038400  1
  O  O10  1  0.30148200  0.75654000  0.55961600  1
  O  O11  1  0.19851800  0.75654000  0.05961600  1
loop_
_geom_bond_atom_site_label_1
_geom_bond_atom_site_label_2
_geom_bond_distance
_geom_bond_site_symmetry_2
Lu0 O3 2.189136 1_565
Lu0 O0 2.218735 1_555
Lu0 O7 2.232087 1_555
Lu0 O10 2.243550 1_555
Lu0 O9 2.399138 1_555
Lu0 O4 2.424957 1_555
Lu0 O5 2.570352 1_556
Lu0 O8 2.616035 1_565
Lu1 O2 2.189136 1_665
Lu1 O1 2.218735 1_555
Lu1 O6 2.232087 1_655
Lu1 O11 2.243550 1_655
Lu1 O8 2.399138 1_555
Lu1 O5 2.424957 1_555
Lu1 O4 2.570352 1_555
Lu1 O9 2.616035 1_564
Lu2 O1 2.189136 1_545
Lu2 O2 2.218735 1_555
Lu2 O5 2.232087 1_555
Lu2 O8 2.243550 1_555
Lu2 O11 2.399138 1_555
Lu2 O6 2.424957 1_555
Lu2 O7 2.570352 1_554
Lu2 O10 2.616035 1_545
Lu3 O0 2.189136 1_445
Lu3 O3 2.218735 1_555
Lu3 O4 2.232087 1_455
Lu3 O9 2.243550 1_455
Lu3 O10 2.399138 1_555
Lu3 O7 2.424957 1_555
Lu3 O6 2.570352 1_555
Lu3 O11 2.616035 1_546
Ni0 O1 1.991296 1_555
Ni0 O3 1.991296 1_555
Ni0 O8 2.006718 1_555
Ni0 O10 2.006718 1_555
Ni0 O4 2.041470 1_555
Ni0 O6 2.041470 1_555
Ni1 O0 1.991296 1_454
Ni1 O2 1.991296 1_555
Ni1 O11 2.006718 1_555
Ni1 O9 2.006718 1_454
Ni1 O5 2.041470 1_455
Ni1 O7 2.041470 1_554
Ni2 O1 1.913353 1_545
Ni2 O3 1.913353 1_554
Ni2 O7 1.920236 1_554
Ni2 O5 1.920236 1_545
Ni2 O11 1.965143 1_545
Ni2 O9 1.965143 1_554
Ni3 O0 1.913353 1_445
Ni3 O2 1.913353 1_555
Ni3 O6 1.920236 1_555
Ni3 O4 1.920236 1_445
Ni3 O8 1.965143 1_455
Ni3 O10 1.965143 1_545
