# generated using pymatgen
data_Mg6CrFeO8
_symmetry_space_group_name_H-M   'P 1'
_cell_length_a   8.59202424
_cell_length_b   4.29440506
_cell_length_c   4.29440506
_cell_angle_alpha   90.00000000
_cell_angle_beta   90.00000000
_cell_angle_gamma   90.00000000
_symmetry_Int_Tables_number   1
_chemical_formula_structural   Mg6CrFeO8
_chemical_formula_sum   'Mg6 Cr1 Fe1 O8'
_cell_volume   158.45337916
_cell_formula_units_Z   1
loop_
 _symmetry_equiv_pos_site_id
 _symmetry_equiv_pos_as_xyz
  1  'x, y, z'
loop_
 _atom_site_type_symbol
 _atom_site_label
 _atom_site_symmetry_multiplicity
 _atom_site_fract_x
 _atom_site_fract_y
 _atom_site_fract_z
 _atom_site_occupancy
  Mg  Mg0  1  0.00000000  0.50000000  0.50000000  1
  Mg  Mg1  1  0.50000000  0.50000000  0.50000000  1
  Mg  Mg2  1  0.24773171  0.00000000  0.50000000  1
  Mg  Mg3  1  0.75226829  0.00000000  0.50000000  1
  Mg  Mg4  1  0.24773171  0.50000000  0.00000000  1
  Mg  Mg5  1  0.75226829  0.50000000  0.00000000  1
  Cr  Cr0  1  0.50000000  0.00000000  0.00000000  1
  Fe  Fe0  1  0.00000000  0.00000000  0.00000000  1
  O  O0  1  0.26175330  0.00000000  0.00000000  1
  O  O1  1  0.73824670  0.00000000  0.00000000  1
  O  O2  1  0.24987397  0.50000000  0.50000000  1
  O  O3  1  0.75012603  0.50000000  0.50000000  1
  O  O4  1  0.00000000  0.00000000  0.50000000  1
  O  O5  1  0.50000000  0.00000000  0.50000000  1
  O  O6  1  0.00000000  0.50000000  0.00000000  1
  O  O7  1  0.50000000  0.50000000  0.00000000  1
loop_
_geom_bond_atom_site_label_1
_geom_bond_atom_site_label_2
_geom_bond_distance
_geom_bond_site_symmetry_2
Mg0 O3 2.146923 1_455
Mg0 O2 2.146923 1_555
Mg0 O6 2.147203 1_556
Mg0 O6 2.147203 1_555
Mg0 O4 2.147203 1_555
Mg0 O4 2.147203 1_565
Mg1 O5 2.147203 1_565
Mg1 O7 2.147203 1_555
Mg1 O7 2.147203 1_556
Mg1 O5 2.147203 1_555
Mg1 O2 2.149089 1_555
Mg1 O3 2.149089 1_555
Mg2 O4 2.128517 1_555
Mg2 O2 2.147281 1_555
Mg2 O2 2.147281 1_545
Mg2 O0 2.150580 1_555
Mg2 O0 2.150580 1_556
Mg2 O5 2.167495 1_555
Mg3 O4 2.128517 1_655
Mg3 O3 2.147281 1_555
Mg3 O3 2.147281 1_545
Mg3 O1 2.150580 1_555
Mg3 O1 2.150580 1_556
Mg3 O5 2.167495 1_555
Mg4 O6 2.128517 1_555
Mg4 O2 2.147281 1_555
Mg4 O2 2.147281 1_554
Mg4 O0 2.150580 1_565
Mg4 O0 2.150580 1_555
Mg4 O7 2.167495 1_555
Mg5 O6 2.128517 1_655
Mg5 O3 2.147281 1_555
Mg5 O3 2.147281 1_554
Mg5 O1 2.150580 1_565
Mg5 O1 2.150580 1_555
Mg5 O7 2.167495 1_555
Cr0 O0 2.047021 1_555
Cr0 O1 2.047021 1_555
Cr0 O7 2.147203 1_555
Cr0 O5 2.147203 1_554
Cr0 O5 2.147203 1_555
Cr0 O7 2.147203 1_545
Fe0 O6 2.147203 1_555
Fe0 O4 2.147203 1_555
Fe0 O4 2.147203 1_554
Fe0 O6 2.147203 1_545
Fe0 O1 2.248991 1_455
Fe0 O0 2.248991 1_555
