# generated using pymatgen
data_Ba2Sr5B4S13
_symmetry_space_group_name_H-M   'P 1'
_cell_length_a   12.82849506
_cell_length_b   12.82849506
_cell_length_c   9.90723012
_cell_angle_alpha   89.93537862
_cell_angle_beta   89.93537862
_cell_angle_gamma   134.49206365
_symmetry_Int_Tables_number   1
_chemical_formula_structural   Ba2Sr5B4S13
_chemical_formula_sum   'Ba4 Sr10 B8 S26'
_cell_volume   1163.06232592
_cell_formula_units_Z   2
loop_
 _symmetry_equiv_pos_site_id
 _symmetry_equiv_pos_as_xyz
  1  'x, y, z'
loop_
 _atom_site_type_symbol
 _atom_site_label
 _atom_site_symmetry_multiplicity
 _atom_site_fract_x
 _atom_site_fract_y
 _atom_site_fract_z
 _atom_site_occupancy
  Ba  Ba0  1  0.83041100  0.16958900  0.25000000  1
  Ba  Ba1  1  0.16958900  0.83041100  0.75000000  1
  Ba  Ba2  1  0.50878200  0.49121800  0.25000000  1
  Ba  Ba3  1  0.49121800  0.50878200  0.75000000  1
  Sr  Sr0  1  0.00234300  0.99765700  0.25000000  1
  Sr  Sr1  1  0.99765700  0.00234300  0.75000000  1
  Sr  Sr2  1  0.43422500  0.77750700  0.02437700  1
  Sr  Sr3  1  0.56577500  0.22249300  0.97562300  1
  Sr  Sr4  1  0.22249300  0.56577500  0.47562300  1
  Sr  Sr5  1  0.77750700  0.43422500  0.52437700  1
  Sr  Sr6  1  0.39914700  0.05243500  0.35583300  1
  Sr  Sr7  1  0.60085300  0.94756500  0.64416700  1
  Sr  Sr8  1  0.94756500  0.60085300  0.14416700  1
  Sr  Sr9  1  0.05243500  0.39914700  0.85583300  1
  B  B0  1  0.21629900  0.98093300  0.07092400  1
  B  B1  1  0.78370100  0.01906700  0.92907600  1
  B  B2  1  0.01906700  0.78370100  0.42907600  1
  B  B3  1  0.98093300  0.21629900  0.57092400  1
  B  B4  1  0.56433600  0.79415700  0.34923000  1
  B  B5  1  0.43566400  0.20584300  0.65077000  1
  B  B6  1  0.20584300  0.43566400  0.15077000  1
  B  B7  1  0.79415700  0.56433600  0.84923000  1
  S  S0  1  0.29850000  0.90665200  0.06665000  1
  S  S1  1  0.70150000  0.09334800  0.93335000  1
  S  S2  1  0.09334800  0.70150000  0.43335000  1
  S  S3  1  0.90665200  0.29850000  0.56665000  1
  S  S4  1  0.13046200  0.96719200  0.49433400  1
  S  S5  1  0.86953800  0.03280800  0.50566600  1
  S  S6  1  0.03280800  0.86953800  0.00566600  1
  S  S7  1  0.96719200  0.13046200  0.99433400  1
  S  S8  1  0.66665000  0.82548500  0.20115000  1
  S  S9  1  0.33335000  0.17451500  0.79885000  1
  S  S10  1  0.17451500  0.33335000  0.29885000  1
  S  S11  1  0.82548500  0.66665000  0.70115000  1
  S  S12  1  0.31360100  0.15368400  0.15567200  1
  S  S13  1  0.68639900  0.84631600  0.84432800  1
  S  S14  1  0.84631600  0.68639900  0.34432800  1
  S  S15  1  0.15368400  0.31360100  0.65567200  1
  S  S16  1  0.51675200  0.67285500  0.48632100  1
  S  S17  1  0.48324800  0.32714500  0.51367900  1
  S  S18  1  0.32714500  0.48324800  0.01367900  1
  S  S19  1  0.67285500  0.51675200  0.98632100  1
  S  S20  1  0.48863800  0.87524600  0.35137800  1
  S  S21  1  0.51136200  0.12475400  0.64862200  1
  S  S22  1  0.12475400  0.51136200  0.14862200  1
  S  S23  1  0.87524600  0.48863800  0.85137800  1
  S  S24  1  0.70035000  0.29965000  0.25000000  1
  S  S25  1  0.29965000  0.70035000  0.75000000  1
loop_
_geom_bond_atom_site_label_1
_geom_bond_atom_site_label_2
_geom_bond_distance
_geom_bond_site_symmetry_2
Ba0 S24 3.077271 1_555
Ba0 S5 3.312705 1_555
Ba0 S7 3.312705 1_554
Ba0 S8 3.338102 1_545
Ba0 S10 3.338102 1_655
Ba0 S22 3.356632 1_655
Ba0 S20 3.356632 1_545
Ba0 S3 3.359250 1_555
Ba0 S1 3.359250 1_554
Ba1 S25 3.077271 1_555
Ba1 S6 3.312705 1_556
Ba1 S4 3.312705 1_555
Ba1 S9 3.338102 1_565
Ba1 S11 3.338102 1_455
Ba1 S23 3.356632 1_455
Ba1 S21 3.356632 1_565
Ba1 S2 3.359250 1_555
Ba1 S0 3.359250 1_556
Ba2 S17 3.221970 1_555
Ba2 S19 3.221970 1_554
Ba2 S10 3.247269 1_555
Ba2 S8 3.247269 1_555
Ba2 S18 3.255841 1_555
Ba2 S16 3.255841 1_555
Ba2 S14 3.272651 1_555
Ba2 S12 3.272651 1_555
Ba3 S16 3.221970 1_555
Ba3 S18 3.221970 1_556
Ba3 S9 3.247269 1_555
Ba3 S11 3.247269 1_555
Ba3 S19 3.255841 1_555
Ba3 S17 3.255841 1_555
Ba3 S13 3.272651 1_555
Ba3 S15 3.272651 1_555
B0 S6 1.814320 1_555
B0 S12 1.817586 1_565
B0 S0 1.852097 1_555
B1 S7 1.814320 1_555
B1 S13 1.817586 1_545
B1 S1 1.852097 1_555
B2 S4 1.814320 1_555
B2 S14 1.817586 1_455
B2 S2 1.852097 1_555
B3 S5 1.814320 1_555
B3 S15 1.817586 1_655
B3 S3 1.852097 1_555
B4 S8 1.814253 1_555
B4 S16 1.816806 1_555
B4 S20 1.855123 1_555
B5 S9 1.814253 1_555
B5 S17 1.816806 1_555
B5 S21 1.855123 1_555
B6 S10 1.814253 1_555
B6 S18 1.816806 1_555
B6 S22 1.855123 1_555
B7 S11 1.814253 1_555
B7 S19 1.816806 1_555
B7 S23 1.855123 1_555
S0 Sr3 3.082073 1_564
S0 Sr2 3.161461 1_555
S0 Sr6 3.163674 1_565
S0 Sr8 3.387981 1_455
S1 Sr2 3.082073 1_546
S1 Sr3 3.161461 1_555
S1 Sr7 3.163674 1_545
S1 Sr9 3.387981 1_655
S2 Sr5 3.082073 1_455
S2 Sr4 3.161461 1_555
S2 Sr8 3.163674 1_455
S2 Sr6 3.387981 1_565
S3 Sr4 3.082073 1_655
S3 Sr5 3.161461 1_555
S3 Sr9 3.163674 1_655
S3 Sr7 3.387981 1_545
S4 Sr0 3.101757 1_555
S4 Sr6 3.108401 1_565
S4 Sr1 3.254432 1_465
S5 Sr1 3.101757 1_555
S5 Sr7 3.108401 1_545
S5 Sr0 3.254432 1_645
S6 Sr0 3.101757 1_555
S6 Sr8 3.108401 1_455
S6 Sr1 3.254432 1_464
S7 Sr1 3.101757 1_555
S7 Sr9 3.108401 1_655
S7 Sr0 3.254432 1_646
S8 Sr2 3.127026 1_555
S8 Sr0 3.214557 1_655
S9 Sr3 3.127026 1_555
S9 Sr1 3.214557 1_455
S10 Sr4 3.127026 1_555
S10 Sr0 3.214557 1_545
S11 Sr5 3.127026 1_555
S11 Sr1 3.214557 1_565
S12 Sr6 2.969993 1_555
S12 Sr0 3.099795 1_545
S12 Sr3 3.226044 1_554
S13 Sr7 2.969993 1_555
S13 Sr1 3.099795 1_565
S13 Sr2 3.226044 1_556
S14 Sr8 2.969993 1_555
S14 Sr0 3.099795 1_655
S14 Sr5 3.226044 1_555
S15 Sr9 2.969993 1_555
S15 Sr1 3.099795 1_455
S15 Sr4 3.226044 1_555
S16 Sr4 2.980140 1_555
S16 Sr7 3.273531 1_555
S17 Sr5 2.980140 1_555
S17 Sr6 3.273531 1_555
S18 Sr2 2.980140 1_555
S18 Sr9 3.273531 1_554
S19 Sr3 2.980140 1_555
S19 Sr8 3.273531 1_556
S20 Sr7 3.080716 1_555
S20 Sr4 3.148720 1_555
S20 Sr6 3.185043 1_565
S20 Sr2 3.367847 1_555
S21 Sr6 3.080716 1_555
S21 Sr5 3.148720 1_555
S21 Sr7 3.185043 1_545
S21 Sr3 3.367847 1_555
S22 Sr9 3.080716 1_554
S22 Sr2 3.148720 1_555
S22 Sr8 3.185043 1_455
S22 Sr4 3.367847 1_555
S23 Sr8 3.080716 1_556
S23 Sr3 3.148720 1_555
S23 Sr9 3.185043 1_655
S23 Sr5 3.367847 1_555
S24 Sr8 2.982462 1_555
S24 Sr6 2.982462 1_555
S24 Sr5 2.995157 1_555
S24 Sr3 2.995157 1_554
S25 Sr7 2.982462 1_555
S25 Sr9 2.982462 1_555
S25 Sr4 2.995157 1_555
S25 Sr2 2.995157 1_556
