# generated using pymatgen
data_Li3Co2NiO6
_symmetry_space_group_name_H-M   'P 1'
_cell_length_a   2.88248030
_cell_length_b   11.72170645
_cell_length_c   6.50175217
_cell_angle_alpha   103.53551924
_cell_angle_beta   77.18664299
_cell_angle_gamma   89.98763419
_symmetry_Int_Tables_number   1
_chemical_formula_structural   Li3Co2NiO6
_chemical_formula_sum   'Li6 Co4 Ni2 O12'
_cell_volume   207.94339092
_cell_formula_units_Z   2
loop_
 _symmetry_equiv_pos_site_id
 _symmetry_equiv_pos_as_xyz
  1  'x, y, z'
loop_
 _atom_site_type_symbol
 _atom_site_label
 _atom_site_symmetry_multiplicity
 _atom_site_fract_x
 _atom_site_fract_y
 _atom_site_fract_z
 _atom_site_occupancy
  Li  Li0  1  0.33286000  0.41755000  0.33213300  1
  Li  Li1  1  0.33620100  0.91576900  0.32573900  1
  Li  Li2  1  0.99952900  0.24174500  0.99873300  1
  Li  Li3  1  0.99688400  0.74957300  0.00392000  1
  Li  Li4  1  0.66524500  0.07660400  0.66551000  1
  Li  Li5  1  0.66183400  0.59093700  0.67206700  1
  Co  Co0  1  0.00023700  0.49698400  0.99665800  1
  Co  Co1  1  0.00014700  0.00050900  0.99739900  1
  Co  Co2  1  0.66404100  0.33324000  0.66903800  1
  Co  Co3  1  0.66893900  0.83056700  0.65924000  1
  Ni  Ni0  1  0.33363700  0.66341900  0.33007500  1
  Ni  Ni1  1  0.33267700  0.16544900  0.33154100  1
  O  O0  1  0.49972300  0.11337500  0.99791600  1
  O  O1  1  0.50110100  0.60624500  0.99473400  1
  O  O2  1  0.16230900  0.22608100  0.67186800  1
  O  O3  1  0.16200000  0.71469500  0.67148300  1
  O  O4  1  0.81589900  0.29190400  0.36491600  1
  O  O5  1  0.82389100  0.79021600  0.34928100  1
  O  O6  1  0.84344100  0.04365500  0.30991200  1
  O  O7  1  0.84551300  0.53893300  0.30654200  1
  O  O8  1  0.15889000  0.44345700  0.67959700  1
  O  O9  1  0.15746500  0.95483600  0.68359100  1
  O  O10  1  0.50973600  0.38154300  0.97790000  1
  O  O11  1  0.50524800  0.88710900  0.98775500  1
loop_
_geom_bond_atom_site_label_1
_geom_bond_atom_site_label_2
_geom_bond_distance
_geom_bond_site_symmetry_2
Li0 O7 2.058735 1_555
Li0 O7 2.058905 1_455
Li0 O4 2.104962 1_555
Li0 O4 2.107612 1_455
Li0 O8 2.150266 1_555
Li0 O10 2.183245 1_554
Li1 O11 2.087742 1_554
Li1 O5 2.089368 1_555
Li1 O5 2.091926 1_455
Li1 O6 2.098070 1_565
Li1 O6 2.100307 1_465
Li1 O9 2.204083 1_555
Li2 O2 2.036011 1_655
Li2 O0 2.082044 1_655
Li2 O0 2.083350 1_555
Li2 O10 2.209755 1_655
Li2 O10 2.210100 1_555
Li2 O4 2.253856 1_556
Li3 O3 2.048269 1_654
Li3 O5 2.126071 1_555
Li3 O11 2.182372 1_554
Li3 O11 2.183888 1_654
Li3 O1 2.202717 1_654
Li3 O1 2.204618 1_554
Li4 O0 2.047142 1_555
Li4 O9 2.048544 1_545
Li4 O9 2.053235 1_645
Li4 O6 2.193987 1_555
Li4 O2 2.260909 1_555
Li4 O2 2.262289 1_655
Li5 O1 2.010143 1_555
Li5 O3 2.045488 1_655
Li5 O3 2.045559 1_555
Li5 O7 2.250229 1_555
Li5 O8 2.258713 1_555
Li5 O8 2.261262 1_655
Co0 O7 1.907266 1_456
Co0 O1 1.930041 1_555
Co0 O1 1.930052 1_455
Co0 O8 1.956699 1_555
Co0 O10 1.960864 1_455
Co0 O10 1.960924 1_555
Co1 O6 1.923575 1_456
Co1 O9 1.932173 1_545
Co1 O11 1.951230 1_445
Co1 O11 1.951985 1_545
Co1 O0 1.955718 1_555
Co1 O0 1.956000 1_455
Co2 O4 1.871823 1_555
Co2 O10 1.903298 1_555
Co2 O2 1.913808 1_655
Co2 O2 1.915589 1_555
Co2 O8 1.925441 1_555
Co2 O8 1.926424 1_655
Co3 O5 1.907622 1_555
Co3 O3 1.992728 1_655
Co3 O3 1.996545 1_555
Co3 O9 2.026837 1_555
Co3 O11 2.028365 1_555
Co3 O9 2.030181 1_655
Ni0 O7 2.030785 1_555
Ni0 O7 2.030807 1_455
Ni0 O5 2.052779 1_555
Ni0 O5 2.052888 1_455
Ni0 O1 2.070009 1_554
Ni0 O3 2.102750 1_555
Ni1 O6 2.009668 1_555
Ni1 O6 2.010341 1_455
Ni1 O4 2.041626 1_455
Ni1 O4 2.041742 1_555
Ni1 O0 2.055834 1_554
Ni1 O2 2.103367 1_555
