# generated using pymatgen
data_Ba3AlSb3
_symmetry_space_group_name_H-M   'P 1'
_cell_length_a   11.28994836
_cell_length_b   11.28994836
_cell_length_c   14.24566977
_cell_angle_alpha   90.00000000
_cell_angle_beta   90.00000000
_cell_angle_gamma   142.42920098
_symmetry_Int_Tables_number   1
_chemical_formula_structural   Ba3AlSb3
_chemical_formula_sum   'Ba12 Al4 Sb12'
_cell_volume   1107.16510732
_cell_formula_units_Z   4
loop_
 _symmetry_equiv_pos_site_id
 _symmetry_equiv_pos_as_xyz
  1  'x, y, z'
loop_
 _atom_site_type_symbol
 _atom_site_label
 _atom_site_symmetry_multiplicity
 _atom_site_fract_x
 _atom_site_fract_y
 _atom_site_fract_z
 _atom_site_occupancy
  Ba  Ba0  1  0.13060822  0.47977028  0.87077926  1
  Ba  Ba1  1  0.97977028  0.63060822  0.62922074  1
  Ba  Ba2  1  0.36939178  0.02022972  0.37077926  1
  Ba  Ba3  1  0.52022972  0.86939178  0.12922074  1
  Ba  Ba4  1  0.86939178  0.52022972  0.12922074  1
  Ba  Ba5  1  0.02022972  0.36939178  0.37077926  1
  Ba  Ba6  1  0.63060822  0.97977028  0.62922074  1
  Ba  Ba7  1  0.47977028  0.13060822  0.87077926  1
  Ba  Ba8  1  0.18434374  0.18434374  0.64772777  1
  Ba  Ba9  1  0.68434374  0.68434374  0.85227223  1
  Ba  Ba10  1  0.31565626  0.31565626  0.14772777  1
  Ba  Ba11  1  0.81565626  0.81565626  0.35227223  1
  Al  Al0  1  0.58512226  0.41487774  0.50000000  1
  Al  Al1  1  0.91487774  0.08512226  -0.00000000  1
  Al  Al2  1  0.41487774  0.58512226  0.50000000  1
  Al  Al3  1  0.08512226  0.91487774  -0.00000000  1
  Sb  Sb0  1  0.64174389  0.95908742  0.88071231  1
  Sb  Sb1  1  0.45908742  0.14174389  0.61928769  1
  Sb  Sb2  1  0.85825611  0.54091258  0.38071231  1
  Sb  Sb3  1  0.04091258  0.35825611  0.11928769  1
  Sb  Sb4  1  0.35825611  0.04091258  0.11928769  1
  Sb  Sb5  1  0.54091258  0.85825611  0.38071231  1
  Sb  Sb6  1  0.14174389  0.45908742  0.61928769  1
  Sb  Sb7  1  0.95908742  0.64174389  0.88071231  1
  Sb  Sb8  1  0.29792831  0.29792831  0.39892091  1
  Sb  Sb9  1  0.79792831  0.79792831  0.10107909  1
  Sb  Sb10  1  0.20207169  0.20207169  0.89892091  1
  Sb  Sb11  1  0.70207169  0.70207169  0.60107909  1
loop_
_geom_bond_atom_site_label_1
_geom_bond_atom_site_label_2
_geom_bond_distance
_geom_bond_site_symmetry_2
Ba0 Sb7 3.567547 1_455
Ba0 Sb6 3.598939 1_555
Ba0 Sb0 3.619721 1_555
Ba0 Sb3 3.638421 1_556
Ba0 Sb0 3.688787 1_445
Ba0 Sb10 3.827663 1_555
Ba1 Sb6 3.567547 1_655
Ba1 Sb7 3.598939 1_555
Ba1 Sb1 3.619721 1_665
Ba1 Sb2 3.638421 1_555
Ba1 Sb1 3.688787 1_555
Ba1 Sb11 3.827663 1_555
Ba2 Sb5 3.567547 1_545
Ba2 Sb4 3.598939 1_555
Ba2 Sb2 3.619721 1_445
Ba2 Sb1 3.638421 1_555
Ba2 Sb2 3.688787 1_555
Ba2 Sb8 3.827663 1_555
Ba3 Sb4 3.567547 1_565
Ba3 Sb5 3.598939 1_555
Ba3 Sb3 3.619721 1_555
Ba3 Sb0 3.638421 1_554
Ba3 Sb3 3.688787 1_665
Ba3 Sb9 3.827663 1_555
Ba4 Sb3 3.567547 1_655
Ba4 Sb2 3.598939 1_555
Ba4 Sb4 3.619721 1_555
Ba4 Sb7 3.638421 1_554
Ba4 Sb4 3.688787 1_665
Ba4 Sb9 3.827663 1_555
Ba5 Sb2 3.567547 1_455
Ba5 Sb3 3.598939 1_555
Ba5 Sb5 3.619721 1_445
Ba5 Sb6 3.638421 1_555
Ba5 Sb5 3.688787 1_555
Ba5 Sb8 3.827663 1_555
Ba6 Sb1 3.567547 1_565
Ba6 Sb0 3.598939 1_555
Ba6 Sb6 3.619721 1_665
Ba6 Sb5 3.638421 1_555
Ba6 Sb6 3.688787 1_555
Ba6 Sb11 3.827663 1_555
Ba7 Sb0 3.567547 1_545
Ba7 Sb1 3.598939 1_555
Ba7 Sb7 3.619721 1_555
Ba7 Sb4 3.638421 1_556
Ba7 Sb7 3.688787 1_445
Ba7 Sb10 3.827663 1_555
Ba8 Sb6 3.518769 1_555
Ba8 Sb1 3.518769 1_555
Ba8 Sb11 3.569146 1_445
Ba8 Sb10 3.580736 1_555
Ba8 Sb8 3.639373 1_555
Ba8 Sb11 3.822749 1_555
Ba9 Sb7 3.518769 1_555
Ba9 Sb0 3.518769 1_555
Ba9 Sb10 3.569146 1_555
Ba9 Sb11 3.580736 1_555
Ba9 Sb9 3.639373 1_556
Ba9 Sb10 3.822749 1_665
Ba10 Sb3 3.518769 1_555
Ba10 Sb4 3.518769 1_555
Ba10 Sb9 3.569146 1_555
Ba10 Sb8 3.580736 1_555
Ba10 Sb10 3.639373 1_554
Ba10 Sb9 3.822749 1_445
Ba11 Sb5 3.518769 1_555
Ba11 Sb2 3.518769 1_555
Ba11 Sb8 3.569146 1_665
Ba11 Sb9 3.580736 1_555
Ba11 Sb11 3.639373 1_555
Ba11 Sb8 3.822749 1_555
Al0 Sb1 2.732372 1_555
Al0 Sb2 2.732372 1_555
Al0 Sb8 2.746546 1_555
Al0 Sb11 2.746546 1_555
Al0 Ba1 3.459813 1_555
Al0 Ba2 3.459813 1_555
Al0 Ba11 3.606672 1_555
Al0 Ba8 3.606672 1_555
Al1 Sb3 2.732372 1_655
Al1 Sb0 2.732372 1_544
Al1 Sb10 2.746546 1_654
Al1 Sb9 2.746546 1_545
Al1 Ba0 3.459813 1_654
Al1 Ba3 3.459813 1_545
Al1 Ba10 3.606672 1_655
Al1 Ba9 3.606672 1_544
Al2 Sb6 2.732372 1_555
Al2 Sb5 2.732372 1_555
Al2 Sb8 2.746546 1_555
Al2 Sb11 2.746546 1_555
Al2 Ba6 3.459813 1_555
Al2 Ba5 3.459813 1_555
Al2 Ba11 3.606672 1_555
Al2 Ba8 3.606672 1_555
Al3 Sb7 2.732372 1_454
Al3 Sb4 2.732372 1_565
Al3 Sb10 2.746546 1_564
Al3 Sb9 2.746546 1_455
Al3 Ba7 3.459813 1_564
Al3 Ba4 3.459813 1_455
Al3 Ba10 3.606672 1_565
Al3 Ba9 3.606672 1_454
