# generated using pymatgen
data_Li2MnO3
_symmetry_space_group_name_H-M   'P 1'
_cell_length_a   4.89815900
_cell_length_b   4.89816076
_cell_length_c   9.53307551
_cell_angle_alpha   85.22102937
_cell_angle_beta   85.22104485
_cell_angle_gamma   119.92126030
_symmetry_Int_Tables_number   1
_chemical_formula_structural   Li2MnO3
_chemical_formula_sum   'Li8 Mn4 O12'
_cell_volume   195.46738340
_cell_formula_units_Z   4
loop_
 _symmetry_equiv_pos_site_id
 _symmetry_equiv_pos_as_xyz
  1  'x, y, z'
loop_
 _atom_site_type_symbol
 _atom_site_label
 _atom_site_symmetry_multiplicity
 _atom_site_fract_x
 _atom_site_fract_y
 _atom_site_fract_z
 _atom_site_occupancy
  Li  Li0  1  0.49979636  0.50002178  0.00004463  1
  Li  Li1  1  0.00010816  0.00014389  0.49991836  1
  Li  Li2  1  0.74999264  0.74998337  0.25000054  1
  Li  Li3  1  0.25001647  0.25000442  0.75000231  1
  Li  Li4  1  0.08874518  0.41125105  0.25000230  1
  Li  Li5  1  0.58874551  0.91125190  0.75000060  1
  Li  Li6  1  0.41126140  0.08873559  0.25000327  1
  Li  Li7  1  0.91126254  0.58873737  0.74999952  1
  Mn  Mn0  1  0.83289082  0.16710566  -0.00000138  1
  Mn  Mn1  1  0.16711068  0.83288587  -0.00000131  1
  Mn  Mn2  1  0.33289456  0.66710373  0.50000608  1
  Mn  Mn3  1  0.66711444  0.33288535  0.50000568  1
  O  O0  1  0.39356550  0.39355426  0.38617247  1
  O  O1  1  0.89359043  0.89358438  0.88616658  1
  O  O2  1  0.10642654  0.10642028  0.11383436  1
  O  O3  1  0.60641032  0.60639838  0.61383552  1
  O  O4  1  0.03661870  0.68039202  0.38769659  1
  O  O5  1  0.53661465  0.18038049  0.88769418  1
  O  O6  1  0.81961335  0.46338152  0.11231063  1
  O  O7  1  0.31961690  0.96338348  0.61230338  1
  O  O8  1  0.46338977  0.81958816  0.11230453  1
  O  O9  1  0.96339604  0.31959725  0.61230064  1
  O  O10  1  0.68041182  0.03660614  0.38769911  1
  O  O11  1  0.18040623  0.53660667  0.88770041  1
loop_
_geom_bond_atom_site_label_1
_geom_bond_atom_site_label_2
_geom_bond_distance
_geom_bond_site_symmetry_2
Li0 O8 2.037891 1_555
Li0 O11 2.037993 1_554
Li0 O6 2.039464 1_555
Li0 O5 2.039569 1_554
Li0 O2 2.050252 1_555
Li0 O1 2.051372 1_554
Li1 O10 2.038326 1_455
Li1 O4 2.038675 1_545
Li1 O9 2.038736 1_455
Li1 O7 2.039083 1_545
Li1 O0 2.049879 1_555
Li1 O3 2.051692 1_445
Li2 O2 1.996278 1_665
Li2 O0 1.996279 1_555
Li2 O6 2.126024 1_555
Li2 O8 2.126032 1_555
Li2 O10 2.126074 1_565
Li2 O4 2.126093 1_655
Li3 O3 1.996125 1_555
Li3 O1 1.996223 1_445
Li3 O5 2.126028 1_555
Li3 O11 2.126055 1_555
Li3 O9 2.126109 1_455
Li3 O7 2.126111 1_545
Li4 O6 2.023425 1_455
Li4 O4 2.023469 1_555
Li4 O0 2.086903 1_555
Li4 O2 2.086903 1_555
Li4 O10 2.142554 1_455
Li4 O8 2.142566 1_555
Li5 O5 2.023426 1_565
Li5 O7 2.023451 1_555
Li5 O1 2.086921 1_555
Li5 O3 2.086944 1_555
Li5 O11 2.142581 1_555
Li5 O9 2.142604 1_565
Li6 O10 2.023520 1_555
Li6 O8 2.023527 1_545
Li6 O0 2.086889 1_555
Li6 O2 2.086930 1_555
Li6 O4 2.142558 1_545
Li6 O6 2.142579 1_555
Li7 O9 2.023510 1_555
Li7 O11 2.023531 1_655
Li7 O3 2.086925 1_555
Li7 O1 2.086944 1_555
Li7 O7 2.142600 1_655
Li7 O5 2.142602 1_555
Mn0 O5 1.896799 1_554
Mn0 O6 1.896848 1_555
Mn0 O11 1.902438 1_654
Mn0 O8 1.902472 1_545
Mn0 O1 1.909658 1_544
Mn0 O2 1.909705 1_655
Mn1 O11 1.896813 1_554
Mn1 O8 1.896860 1_555
Mn1 O5 1.902431 1_564
Mn1 O6 1.902466 1_455
Mn1 O1 1.909651 1_454
Mn1 O2 1.909697 1_565
Mn2 O7 1.896777 1_555
Mn2 O4 1.896852 1_555
Mn2 O9 1.902402 1_455
Mn2 O10 1.902479 1_565
Mn2 O3 1.909633 1_555
Mn2 O0 1.909717 1_555
Mn3 O9 1.896788 1_555
Mn3 O10 1.896865 1_555
Mn3 O7 1.902406 1_545
Mn3 O4 1.902472 1_655
Mn3 O3 1.909622 1_555
Mn3 O0 1.909707 1_555
