# generated using pymatgen
data_Mg2SnSe4
_symmetry_space_group_name_H-M   'P 1'
_cell_length_a   6.53388569
_cell_length_b   7.93755127
_cell_length_c   13.67828555
_cell_angle_alpha   90.00000000
_cell_angle_beta   90.00000000
_cell_angle_gamma   90.00000000
_symmetry_Int_Tables_number   1
_chemical_formula_structural   Mg2SnSe4
_chemical_formula_sum   'Mg8 Sn4 Se16'
_cell_volume   709.39764373
_cell_formula_units_Z   4
loop_
 _symmetry_equiv_pos_site_id
 _symmetry_equiv_pos_as_xyz
  1  'x, y, z'
loop_
 _atom_site_type_symbol
 _atom_site_label
 _atom_site_symmetry_multiplicity
 _atom_site_fract_x
 _atom_site_fract_y
 _atom_site_fract_z
 _atom_site_occupancy
  Mg  Mg0  1  0.50000000  -0.00000000  0.50000000  1
  Mg  Mg1  1  -0.00000000  0.50000000  -0.00000000  1
  Mg  Mg2  1  0.50000000  0.50000000  0.50000000  1
  Mg  Mg3  1  -0.00000000  -0.00000000  -0.00000000  1
  Mg  Mg4  1  0.49906479  0.75000000  0.23052755  1
  Mg  Mg5  1  0.00093521  0.75000000  0.73052755  1
  Mg  Mg6  1  0.50093521  0.25000000  0.76947245  1
  Mg  Mg7  1  0.99906479  0.25000000  0.26947245  1
  Sn  Sn0  1  0.91928453  0.75000000  0.41127736  1
  Sn  Sn1  1  0.58071547  0.75000000  0.91127736  1
  Sn  Sn2  1  0.08071547  0.25000000  0.58872264  1
  Sn  Sn3  1  0.41928453  0.25000000  0.08872264  1
  Se  Se0  1  0.30212527  0.75000000  0.40750456  1
  Se  Se1  1  0.19787473  0.75000000  0.90750456  1
  Se  Se2  1  0.69787473  0.25000000  0.59249544  1
  Se  Se3  1  0.80212527  0.25000000  0.09249544  1
  Se  Se4  1  0.74406820  0.75000000  0.57749007  1
  Se  Se5  1  0.75593180  0.75000000  0.07749007  1
  Se  Se6  1  0.25593180  0.25000000  0.42250993  1
  Se  Se7  1  0.24406820  0.25000000  0.92250993  1
  Se  Se8  1  0.73830535  0.99683998  0.33072357  1
  Se  Se9  1  0.76169465  0.50316002  0.83072357  1
  Se  Se10  1  0.26169465  0.49683998  0.66927643  1
  Se  Se11  1  0.23830535  0.00316002  0.16927643  1
  Se  Se12  1  0.26169465  0.00316002  0.66927643  1
  Se  Se13  1  0.23830535  0.49683998  0.16927643  1
  Se  Se14  1  0.73830535  0.50316002  0.33072357  1
  Se  Se15  1  0.76169465  0.99683998  0.83072357  1
loop_
_geom_bond_atom_site_label_1
_geom_bond_atom_site_label_2
_geom_bond_distance
_geom_bond_site_symmetry_2
Mg0 Se2 2.685152 1_555
Mg0 Se0 2.685152 1_545
Mg0 Se4 2.757601 1_545
Mg0 Se6 2.757601 1_555
Mg0 Se8 2.790375 1_545
Mg0 Se12 2.790375 1_555
Mg1 Se1 2.685152 1_554
Mg1 Se3 2.685152 1_455
Mg1 Se5 2.757601 1_455
Mg1 Se7 2.757601 1_554
Mg1 Se13 2.790375 1_555
Mg1 Se9 2.790375 1_454
Mg2 Se2 2.685152 1_555
Mg2 Se0 2.685152 1_555
Mg2 Se4 2.757601 1_555
Mg2 Se6 2.757601 1_555
Mg2 Se14 2.790375 1_555
Mg2 Se10 2.790375 1_555
Mg3 Se1 2.685152 1_544
Mg3 Se3 2.685152 1_455
Mg3 Se7 2.757601 1_554
Mg3 Se5 2.757601 1_445
Mg3 Se11 2.790375 1_555
Mg3 Se15 2.790375 1_444
Mg4 Se5 2.683037 1_555
Mg4 Se0 2.741495 1_555
Mg4 Se13 2.764550 1_555
Mg4 Se11 2.764550 1_565
Mg4 Se8 2.856690 1_555
Mg4 Se14 2.856690 1_555
Mg5 Se4 2.683037 1_455
Mg5 Se1 2.741495 1_555
Mg5 Se10 2.764550 1_555
Mg5 Se12 2.764550 1_565
Mg5 Se9 2.856690 1_455
Mg5 Se15 2.856690 1_455
Mg6 Se7 2.683037 1_555
Mg6 Se2 2.741495 1_555
Mg6 Se9 2.764550 1_555
Mg6 Se15 2.764550 1_545
Mg6 Se12 2.856690 1_555
Mg6 Se10 2.856690 1_555
Mg7 Se6 2.683037 1_655
Mg7 Se3 2.741495 1_555
Mg7 Se14 2.764550 1_555
Mg7 Se8 2.764550 1_545
Mg7 Se11 2.856690 1_655
Mg7 Se13 2.856690 1_655
Se0 Sn0 2.501970 1_455
Se1 Sn1 2.501970 1_555
Se2 Sn2 2.501970 1_655
Se3 Sn3 2.501970 1_555
Se4 Sn0 2.545484 1_555
Se5 Sn1 2.545484 1_554
Se6 Sn2 2.545484 1_555
Se7 Sn3 2.545484 1_556
Se8 Sn0 2.539926 1_555
Se9 Sn1 2.539926 1_555
Se10 Sn2 2.539926 1_555
Se11 Sn3 2.539926 1_555
Se12 Sn2 2.539926 1_555
Se13 Sn3 2.539926 1_555
Se14 Sn0 2.539926 1_555
Se15 Sn1 2.539926 1_555
