# generated using pymatgen
data_Li2MgCo3O8
_symmetry_space_group_name_H-M   'P 1'
_cell_length_a   5.67313921
_cell_length_b   5.67313921
_cell_length_c   5.90237726
_cell_angle_alpha   61.90207188
_cell_angle_beta   61.90207188
_cell_angle_gamma   60.69422312
_symmetry_Int_Tables_number   1
_chemical_formula_structural   Li2MgCo3O8
_chemical_formula_sum   'Li2 Mg1 Co3 O8'
_cell_volume   138.80785873
_cell_formula_units_Z   1
loop_
 _symmetry_equiv_pos_site_id
 _symmetry_equiv_pos_as_xyz
  1  'x, y, z'
loop_
 _atom_site_type_symbol
 _atom_site_label
 _atom_site_symmetry_multiplicity
 _atom_site_fract_x
 _atom_site_fract_y
 _atom_site_fract_z
 _atom_site_occupancy
  Li  Li0  1  0.50000000  0.00000000  0.50000000  1
  Li  Li1  1  0.00000000  0.50000000  0.50000000  1
  Mg  Mg0  1  0.00000000  0.00000000  0.00000000  1
  Co  Co0  1  0.50000000  0.50000000  0.00000000  1
  Co  Co1  1  0.50000000  0.00000000  0.00000000  1
  Co  Co2  1  0.00000000  0.50000000  0.00000000  1
  O  O0  1  0.26416700  0.26416700  0.20227600  1
  O  O1  1  0.28802600  0.75162700  0.20209400  1
  O  O2  1  0.75863900  0.75863900  0.21312900  1
  O  O3  1  0.75162700  0.28802600  0.20209400  1
  O  O4  1  0.24837300  0.71197400  0.79790600  1
  O  O5  1  0.24136100  0.24136100  0.78687100  1
  O  O6  1  0.71197400  0.24837300  0.79790600  1
  O  O7  1  0.73583300  0.73583300  0.79772400  1
loop_
_geom_bond_atom_site_label_1
_geom_bond_atom_site_label_2
_geom_bond_distance
_geom_bond_site_symmetry_2
Li0 O5 2.184424 1_555
Li0 O2 2.184424 1_545
Li0 O7 2.212485 1_545
Li0 O0 2.212485 1_555
Li0 O4 2.238806 1_545
Li0 O3 2.238806 1_555
Li1 O2 2.184424 1_455
Li1 O5 2.184424 1_555
Li1 O7 2.212485 1_455
Li1 O0 2.212485 1_555
Li1 O6 2.238806 1_455
Li1 O1 2.238806 1_555
Mg0 O5 1.980575 1_554
Mg0 O2 1.980575 1_445
Mg0 O1 2.019188 1_545
Mg0 O3 2.019188 1_455
Mg0 O6 2.019188 1_454
Mg0 O4 2.019188 1_544
Co0 O6 1.865220 1_554
Co0 O4 1.865220 1_554
Co0 O3 1.865220 1_555
Co0 O1 1.865220 1_555
Co0 O7 1.936101 1_554
Co0 O0 1.936101 1_555
Co1 O1 1.891773 1_545
Co1 O6 1.891773 1_554
Co1 O0 1.918158 1_555
Co1 O7 1.918158 1_544
Co1 O2 1.938990 1_545
Co1 O5 1.938990 1_554
Co2 O3 1.891773 1_455
Co2 O4 1.891773 1_554
Co2 O0 1.918158 1_555
Co2 O7 1.918158 1_454
Co2 O2 1.938990 1_455
Co2 O5 1.938990 1_554
