# generated using pymatgen
data_VInO4
_symmetry_space_group_name_H-M   'P 1'
_cell_length_a   4.79535000
_cell_length_b   5.71957500
_cell_length_c   5.02907955
_cell_angle_alpha   90.00000000
_cell_angle_beta   92.60713846
_cell_angle_gamma   90.00000000
_symmetry_Int_Tables_number   1
_chemical_formula_structural   VInO4
_chemical_formula_sum   'V2 In2 O8'
_cell_volume   137.79162077
_cell_formula_units_Z   2
loop_
 _symmetry_equiv_pos_site_id
 _symmetry_equiv_pos_as_xyz
  1  'x, y, z'
loop_
 _atom_site_type_symbol
 _atom_site_label
 _atom_site_symmetry_multiplicity
 _atom_site_fract_x
 _atom_site_fract_y
 _atom_site_fract_z
 _atom_site_occupancy
  V  V0  1  0.00000000  0.82540700  0.25000000  1
  V  V1  1  0.00000000  0.17459300  0.75000000  1
  In  In0  1  0.50000000  0.30280900  0.25000000  1
  In  In1  1  0.50000000  0.69719100  0.75000000  1
  O  O0  1  0.21011100  0.09555800  0.45299600  1
  O  O1  1  0.78988900  0.09555800  0.04700400  1
  O  O2  1  0.78988900  0.90444200  0.54700400  1
  O  O3  1  0.21011100  0.90444200  0.95299600  1
  O  O4  1  0.24971700  0.62454300  0.38804300  1
  O  O5  1  0.75028300  0.62454300  0.11195700  1
  O  O6  1  0.75028300  0.37545700  0.61195700  1
  O  O7  1  0.24971700  0.37545700  0.88804300  1
loop_
_geom_bond_atom_site_label_1
_geom_bond_atom_site_label_2
_geom_bond_distance
_geom_bond_site_symmetry_2
In0 O0 2.123413 1_555
In0 O1 2.123413 1_555
In0 O7 2.174372 1_554
In0 O6 2.174372 1_555
In0 O4 2.320451 1_555
In0 O5 2.320451 1_555
In1 O3 2.123413 1_555
In1 O2 2.123413 1_555
In1 O4 2.174372 1_555
In1 O5 2.174372 1_556
In1 O6 2.320451 1_555
In1 O7 2.320451 1_555
O0 V1 1.894053 1_555
O0 V0 2.085972 1_545
O1 V1 1.894053 1_654
O1 V0 2.085972 1_645
O2 V0 1.894053 1_655
O2 V1 2.085972 1_665
O3 V0 1.894053 1_556
O3 V1 2.085972 1_565
O4 V0 1.777683 1_555
O5 V0 1.777683 1_655
O6 V1 1.777683 1_655
O7 V1 1.777683 1_555
