# generated using pymatgen
data_Mn3O4
_symmetry_space_group_name_H-M   'P 1'
_cell_length_a   3.06941303
_cell_length_b   9.74305300
_cell_length_c   9.99210734
_cell_angle_alpha   89.99937809
_cell_angle_beta   89.90629897
_cell_angle_gamma   89.99854842
_symmetry_Int_Tables_number   1
_chemical_formula_structural   Mn3O4
_chemical_formula_sum   'Mn12 O16'
_cell_volume   298.81810471
_cell_formula_units_Z   4
loop_
 _symmetry_equiv_pos_site_id
 _symmetry_equiv_pos_as_xyz
  1  'x, y, z'
loop_
 _atom_site_type_symbol
 _atom_site_label
 _atom_site_symmetry_multiplicity
 _atom_site_fract_x
 _atom_site_fract_y
 _atom_site_fract_z
 _atom_site_occupancy
  Mn  Mn0  1  0.29759200  0.75014900  0.14341200  1
  Mn  Mn1  1  0.70249300  0.75001000  0.64333400  1
  Mn  Mn2  1  0.68599800  0.24998300  0.85472200  1
  Mn  Mn3  1  0.31377500  0.24983600  0.35496200  1
  Mn  Mn4  1  0.20875900  0.43035900  0.61488800  1
  Mn  Mn5  1  0.21452800  0.92942500  0.88537900  1
  Mn  Mn6  1  0.79103000  0.43029800  0.11486400  1
  Mn  Mn7  1  0.21467000  0.57052400  0.88543500  1
  Mn  Mn8  1  0.78562000  0.57056200  0.38540400  1
  Mn  Mn9  1  0.79127400  0.06973200  0.11487500  1
  Mn  Mn10  1  0.78548300  0.92943200  0.38536400  1
  Mn  Mn11  1  0.20825600  0.06967500  0.61490300  1
  O  O0  1  0.37213100  0.49870700  0.25046600  1
  O  O1  1  0.37193900  0.00133000  0.25044600  1
  O  O2  1  0.62794200  0.00136500  0.75040300  1
  O  O3  1  0.62812400  0.49864000  0.75044800  1
  O  O4  1  0.20177500  0.74995800  0.79864900  1
  O  O5  1  0.79855000  0.75002700  0.29857000  1
  O  O6  1  0.18963500  0.24999800  0.70156100  1
  O  O7  1  0.81031100  0.24998500  0.20168000  1
  O  O8  1  0.78858000  0.11203700  0.47093400  1
  O  O9  1  0.79497500  0.61198300  0.02909800  1
  O  O10  1  0.78877300  0.38799600  0.47100500  1
  O  O11  1  0.20504500  0.88796100  0.52903700  1
  O  O12  1  0.20523600  0.61207700  0.52909600  1
  O  O13  1  0.21126900  0.11210100  0.97097000  1
  O  O14  1  0.21133100  0.38784500  0.97099400  1
  O  O15  1  0.79490200  0.88800400  0.02910000  1
loop_
_geom_bond_atom_site_label_1
_geom_bond_atom_site_label_2
_geom_bond_distance
_geom_bond_site_symmetry_2
Mn0 O5 2.177646 1_455
Mn0 O5 2.185351 1_555
Mn0 O15 2.330895 1_555
Mn0 O9 2.332769 1_555
Mn0 O15 2.344145 1_455
Mn0 O9 2.345804 1_455
Mn0 O1 2.680655 1_565
Mn0 O0 2.683075 1_555
Mn1 O4 2.182375 1_555
Mn1 O4 2.182845 1_655
Mn1 O12 2.333323 1_555
Mn1 O11 2.334038 1_555
Mn1 O12 2.341883 1_655
Mn1 O11 2.341915 1_655
Mn1 O2 2.682087 1_565
Mn1 O3 2.682341 1_555
Mn2 O6 2.161235 1_555
Mn2 O6 2.173500 1_655
Mn2 O14 2.295879 1_555
Mn2 O13 2.296021 1_555
Mn2 O13 2.399862 1_655
Mn2 O14 2.400057 1_655
Mn2 O2 2.643198 1_555
Mn2 O3 2.643302 1_555
Mn3 O7 2.158935 1_555
Mn3 O7 2.177532 1_455
Mn3 O8 2.296668 1_555
Mn3 O10 2.299518 1_555
Mn3 O8 2.395412 1_455
Mn3 O10 2.397298 1_455
Mn3 O1 2.642759 1_555
Mn3 O0 2.645966 1_555
Mn4 O6 1.959917 1_555
Mn4 O12 1.967132 1_555
Mn4 O10 1.976166 1_455
Mn4 O3 1.984941 1_555
Mn4 O10 2.323447 1_555
Mn4 O3 2.333594 1_455
Mn5 O4 1.951961 1_555
Mn5 O15 1.969290 1_456
Mn5 O13 1.974664 1_565
Mn5 O2 1.978608 1_565
Mn5 O15 2.325276 1_556
Mn5 O2 2.357928 1_465
Mn6 O7 1.960226 1_555
Mn6 O9 1.966721 1_555
Mn6 O14 1.973802 1_654
Mn6 O0 1.981823 1_555
Mn6 O14 2.326398 1_554
Mn6 O0 2.338692 1_655
Mn7 O4 1.951912 1_555
Mn7 O9 1.969075 1_456
Mn7 O14 1.974536 1_555
Mn7 O3 1.978556 1_555
Mn7 O9 2.324841 1_556
Mn7 O3 2.357771 1_455
Mn8 O5 1.952342 1_555
Mn8 O12 1.972322 1_655
Mn8 O10 1.973737 1_555
Mn8 O0 1.981042 1_555
Mn8 O12 2.321685 1_555
Mn8 O0 2.353927 1_655
Mn9 O7 1.959650 1_555
Mn9 O15 1.967148 1_545
Mn9 O13 1.973280 1_654
Mn9 O1 1.982467 1_555
Mn9 O13 2.327167 1_554
Mn9 O1 2.337437 1_655
Mn10 O5 1.951664 1_555
Mn10 O11 1.971968 1_655
Mn10 O8 1.973961 1_565
Mn10 O1 1.981129 1_565
Mn10 O11 2.321630 1_555
Mn10 O1 2.353827 1_665
Mn11 O6 1.959488 1_555
Mn11 O11 1.967430 1_545
Mn11 O8 1.976148 1_455
Mn11 O2 1.985235 1_555
Mn11 O8 2.324714 1_555
Mn11 O2 2.332593 1_455
