# generated using pymatgen
data_Al2(FeO3)3
_symmetry_space_group_name_H-M   'P 1'
_cell_length_a   8.55695000
_cell_length_b   9.28184800
_cell_length_c   15.16066300
_cell_angle_alpha   90.00000000
_cell_angle_beta   90.00000000
_cell_angle_gamma   90.00000000
_symmetry_Int_Tables_number   1
_chemical_formula_structural   Al2(FeO3)3
_chemical_formula_sum   'Al16 Fe24 O72'
_cell_volume   1204.12518645
_cell_formula_units_Z   8
loop_
 _symmetry_equiv_pos_site_id
 _symmetry_equiv_pos_as_xyz
  1  'x, y, z'
loop_
 _atom_site_type_symbol
 _atom_site_label
 _atom_site_symmetry_multiplicity
 _atom_site_fract_x
 _atom_site_fract_y
 _atom_site_fract_z
 _atom_site_occupancy
  Al  Al0  1  0.33476000  0.30022900  0.78050100  1
  Al  Al1  1  0.33519600  0.30312500  0.10780000  1
  Al  Al2  1  0.66480400  0.80312500  0.89220000  1
  Al  Al3  1  0.66524000  0.80022900  0.21949900  1
  Al  Al4  1  0.83476000  0.80022900  0.71949900  1
  Al  Al5  1  0.83519600  0.80312500  0.39220000  1
  Al  Al6  1  0.16524000  0.30022900  0.28050100  1
  Al  Al7  1  0.16480400  0.30312500  0.60780000  1
  Al  Al8  1  0.33889700  0.99490200  0.89088900  1
  Al  Al9  1  0.34271100  0.99790900  0.56392700  1
  Al  Al10  1  0.66110300  0.49490200  0.10911100  1
  Al  Al11  1  0.65728900  0.49790900  0.43607300  1
  Al  Al12  1  0.84271100  0.49790900  0.93607300  1
  Al  Al13  1  0.83889700  0.49490200  0.60911100  1
  Al  Al14  1  0.15728900  0.99790900  0.06392700  1
  Al  Al15  1  0.16110300  0.99490200  0.39088900  1
  Fe  Fe0  1  0.48970600  0.80056200  0.72042300  1
  Fe  Fe1  1  0.48578800  0.80393300  0.05469800  1
  Fe  Fe2  1  0.48070600  0.80320200  0.39200300  1
  Fe  Fe3  1  0.51421200  0.30393300  0.94530200  1
  Fe  Fe4  1  0.51029400  0.30056200  0.27957700  1
  Fe  Fe5  1  0.51929400  0.30320200  0.60799700  1
  Fe  Fe6  1  0.98970600  0.30056200  0.77957700  1
  Fe  Fe7  1  0.98070600  0.30320200  0.10799700  1
  Fe  Fe8  1  0.98578800  0.30393300  0.44530200  1
  Fe  Fe9  1  0.01929400  0.80320200  0.89200300  1
  Fe  Fe10  1  0.01029400  0.80056200  0.22042300  1
  Fe  Fe11  1  0.01421200  0.80393300  0.55469800  1
  Fe  Fe12  1  0.34730800  0.56952900  0.89500300  1
  Fe  Fe13  1  0.34808000  0.58589800  0.22622400  1
  Fe  Fe14  1  0.34649200  0.57213100  0.55946900  1
  Fe  Fe15  1  0.65192000  0.08589800  0.77377600  1
  Fe  Fe16  1  0.65269200  0.06952900  0.10499700  1
  Fe  Fe17  1  0.65350800  0.07213100  0.44053100  1
  Fe  Fe18  1  0.84649200  0.07213100  0.94053100  1
  Fe  Fe19  1  0.84808000  0.08589800  0.27377600  1
  Fe  Fe20  1  0.84730800  0.06952900  0.60499700  1
  Fe  Fe21  1  0.15192000  0.58589800  0.72622400  1
  Fe  Fe22  1  0.15350800  0.57213100  0.05946900  1
  Fe  Fe23  1  0.15269200  0.56952900  0.39500300  1
  O  O0  1  0.32657600  0.94265600  0.00422300  1
  O  O1  1  0.33539500  0.92477100  0.34234100  1
  O  O2  1  0.35333800  0.92404000  0.67082900  1
  O  O3  1  0.66460500  0.42477100  0.65765900  1
  O  O4  1  0.67342400  0.44265600  0.99577700  1
  O  O5  1  0.64666200  0.42404000  0.32917100  1
  O  O6  1  0.85333800  0.42404000  0.82917100  1
  O  O7  1  0.83539500  0.42477100  0.15765900  1
  O  O8  1  0.82657600  0.44265600  0.49577700  1
  O  O9  1  0.16460500  0.92477100  0.84234100  1
  O  O10  1  0.14666200  0.92404000  0.17082900  1
  O  O11  1  0.17342400  0.94265600  0.50422300  1
  O  O12  1  0.33607100  0.67515000  0.78282300  1
  O  O13  1  0.32439800  0.67836800  0.11072600  1
  O  O14  1  0.32984700  0.66930800  0.44734000  1
  O  O15  1  0.67560200  0.17836800  0.88927400  1
  O  O16  1  0.66392900  0.17515000  0.21717700  1
  O  O17  1  0.67015300  0.16930800  0.55266000  1
  O  O18  1  0.83607100  0.17515000  0.71717700  1
  O  O19  1  0.82984700  0.16930800  0.05266000  1
  O  O20  1  0.82439800  0.17836800  0.38927400  1
  O  O21  1  0.17015300  0.66930800  0.94734000  1
  O  O22  1  0.16392900  0.67515000  0.28282300  1
  O  O23  1  0.17560200  0.67836800  0.61072600  1
  O  O24  1  0.35172900  0.18393500  0.87842500  1
  O  O25  1  0.33478900  0.21427900  0.22135700  1
  O  O26  1  0.33654800  0.19035700  0.56942500  1
  O  O27  1  0.66521100  0.71427900  0.77864300  1
  O  O28  1  0.64827100  0.68393500  0.12157500  1
  O  O29  1  0.66345200  0.69035700  0.43057500  1
  O  O30  1  0.83654800  0.69035700  0.93057500  1
  O  O31  1  0.83478900  0.71427900  0.27864300  1
  O  O32  1  0.85172900  0.68393500  0.62157500  1
  O  O33  1  0.16521100  0.21427900  0.72135700  1
  O  O34  1  0.16345200  0.19035700  0.06942500  1
  O  O35  1  0.14827100  0.18393500  0.37842500  1
  O  O36  1  0.49409000  0.20643900  0.72100000  1
  O  O37  1  0.49492700  0.20187000  0.05450500  1
  O  O38  1  0.50181100  0.18616500  0.38153500  1
  O  O39  1  0.50507300  0.70187000  0.94549500  1
  O  O40  1  0.50591000  0.70643900  0.27900000  1
  O  O41  1  0.49818900  0.68616500  0.61846500  1
  O  O42  1  0.99409000  0.70643900  0.77900000  1
  O  O43  1  0.00181100  0.68616500  0.11846500  1
  O  O44  1  0.99492700  0.70187000  0.44549500  1
  O  O45  1  0.99818900  0.18616500  0.88153500  1
  O  O46  1  0.00591000  0.20643900  0.22100000  1
  O  O47  1  0.00507300  0.20187000  0.55450500  1
  O  O48  1  0.34046900  0.43329900  0.00232600  1
  O  O49  1  0.31835500  0.43502100  0.31819300  1
  O  O50  1  0.32075900  0.42813500  0.65596200  1
  O  O51  1  0.68164500  0.93502100  0.68180700  1
  O  O52  1  0.65953100  0.93329900  0.99767400  1
  O  O53  1  0.67924100  0.92813500  0.34403800  1
  O  O54  1  0.82075900  0.92813500  0.84403800  1
  O  O55  1  0.81835500  0.93502100  0.18180700  1
  O  O56  1  0.84046900  0.93329900  0.49767400  1
  O  O57  1  0.18164500  0.43502100  0.81819300  1
  O  O58  1  0.17924100  0.42813500  0.15596200  1
  O  O59  1  0.15953100  0.43329900  0.50232600  1
  O  O60  1  0.99857800  0.44324200  0.01011700  1
  O  O61  1  0.02242400  0.42422600  0.34307100  1
  O  O62  1  0.00884400  0.42868400  0.66757100  1
  O  O63  1  0.50884400  0.92868400  0.83242900  1
  O  O64  1  0.52242400  0.92422600  0.15692900  1
  O  O65  1  0.49857800  0.94324200  0.48988300  1
  O  O66  1  0.97757600  0.92422600  0.65692900  1
  O  O67  1  0.00142200  0.94324200  0.98988300  1
  O  O68  1  0.99115600  0.92868400  0.33242900  1
  O  O69  1  0.47757600  0.42422600  0.84307100  1
  O  O70  1  0.49115600  0.42868400  0.16757100  1
  O  O71  1  0.50142200  0.44324200  0.51011700  1
loop_
_geom_bond_atom_site_label_1
_geom_bond_atom_site_label_2
_geom_bond_distance
_geom_bond_site_symmetry_2
Al0 O24 1.841264 1_555
Al0 O36 1.852131 1_555
Al0 O33 1.882906 1_555
Al0 O57 1.899593 1_555
Al0 O69 1.928191 1_555
Al0 O50 2.233541 1_555
Al1 O37 1.845075 1_555
Al1 O34 1.895729 1_555
Al1 O25 1.908919 1_555
Al1 O58 1.913213 1_555
Al1 O70 1.990062 1_555
Al1 O48 2.004718 1_555
Al2 O39 1.845075 1_555
Al2 O30 1.895729 1_555
Al2 O27 1.908919 1_555
Al2 O54 1.913213 1_555
Al2 O63 1.990062 1_555
Al2 O52 2.004718 1_555
Al3 O28 1.841264 1_555
Al3 O40 1.852131 1_555
Al3 O31 1.882906 1_555
Al3 O55 1.899593 1_555
Al3 O64 1.928191 1_555
Al3 O53 2.233541 1_555
Al4 O32 1.841264 1_555
Al4 O42 1.852131 1_555
Al4 O27 1.882906 1_555
Al4 O51 1.899593 1_555
Al4 O66 1.928191 1_555
Al4 O54 2.233541 1_555
Al5 O44 1.845075 1_555
Al5 O29 1.895729 1_555
Al5 O31 1.908919 1_555
Al5 O53 1.913213 1_555
Al5 O68 1.990062 1_555
Al5 O56 2.004718 1_555
Al6 O35 1.841264 1_555
Al6 O46 1.852131 1_555
Al6 O25 1.882906 1_555
Al6 O49 1.899593 1_555
Al6 O61 1.928191 1_555
Al6 O58 2.233541 1_555
Al7 O47 1.845075 1_555
Al7 O26 1.895729 1_555
Al7 O33 1.908919 1_555
Al7 O50 1.913213 1_555
Al7 O62 1.990062 1_555
Al7 O59 2.004718 1_555
Al8 O24 1.768134 1_565
Al8 O9 1.785988 1_555
Al8 O0 1.788451 1_556
Al8 O63 1.810541 1_555
Al9 O2 1.762117 1_555
Al9 O11 1.783452 1_555
Al9 O26 1.788994 1_565
Al9 O65 1.815620 1_555
Al10 O28 1.768134 1_555
Al10 O7 1.785988 1_555
Al10 O4 1.788451 1_554
Al10 O70 1.810541 1_555
Al11 O5 1.762117 1_555
Al11 O8 1.783452 1_555
Al11 O29 1.788994 1_555
Al11 O71 1.815620 1_555
Al12 O6 1.762117 1_555
Al12 O4 1.783452 1_555
Al12 O30 1.788994 1_555
Al12 O60 1.815620 1_556
Al13 O32 1.768134 1_555
Al13 O3 1.785988 1_555
Al13 O8 1.788451 1_555
Al13 O62 1.810541 1_655
Al14 O10 1.762117 1_555
Al14 O0 1.783452 1_555
Al14 O34 1.788994 1_565
Al14 O67 1.815620 1_554
Al15 O35 1.768134 1_565
Al15 O1 1.785988 1_555
Al15 O11 1.788451 1_555
Al15 O68 1.810541 1_455
Fe0 O2 1.800144 1_555
Fe0 O41 1.876717 1_555
Fe0 O27 1.917245 1_555
Fe0 O12 1.994564 1_555
Fe0 O63 2.079550 1_555
Fe0 O51 2.144257 1_555
Fe1 O39 1.914589 1_554
Fe1 O64 1.935743 1_555
Fe1 O13 1.996754 1_555
Fe1 O0 2.024738 1_555
Fe1 O28 2.049792 1_555
Fe1 O52 2.097503 1_554
Fe2 O1 1.840167 1_555
Fe2 O40 1.946336 1_555
Fe2 O29 1.970873 1_555
Fe2 O14 1.978572 1_555
Fe2 O65 1.978631 1_555
Fe2 O53 2.181649 1_555
Fe3 O37 1.914589 1_556
Fe3 O69 1.935743 1_555
Fe3 O15 1.996754 1_555
Fe3 O4 2.024738 1_555
Fe3 O24 2.049792 1_555
Fe3 O48 2.097503 1_556
Fe4 O5 1.800144 1_555
Fe4 O38 1.876717 1_555
Fe4 O25 1.917245 1_555
Fe4 O16 1.994564 1_555
Fe4 O70 2.079550 1_555
Fe4 O49 2.144257 1_555
Fe5 O3 1.840167 1_555
Fe5 O36 1.946336 1_555
Fe5 O26 1.970873 1_555
Fe5 O17 1.978572 1_555
Fe5 O71 1.978631 1_555
Fe5 O50 2.181649 1_555
Fe6 O6 1.800144 1_555
Fe6 O45 1.876717 1_555
Fe6 O33 1.917245 1_655
Fe6 O18 1.994564 1_555
Fe6 O62 2.079550 1_655
Fe6 O57 2.144257 1_655
Fe7 O7 1.840167 1_555
Fe7 O46 1.946336 1_655
Fe7 O34 1.970873 1_655
Fe7 O19 1.978572 1_555
Fe7 O60 1.978631 1_555
Fe7 O58 2.181649 1_655
Fe8 O47 1.914589 1_655
Fe8 O61 1.935743 1_655
Fe8 O20 1.996754 1_555
Fe8 O8 2.024738 1_555
Fe8 O35 2.049792 1_655
Fe8 O59 2.097503 1_655
Fe9 O9 1.840167 1_555
Fe9 O42 1.946336 1_455
Fe9 O30 1.970873 1_455
Fe9 O21 1.978572 1_555
Fe9 O67 1.978631 1_555
Fe9 O54 2.181649 1_455
Fe10 O10 1.800144 1_555
Fe10 O43 1.876717 1_555
Fe10 O31 1.917245 1_455
Fe10 O22 1.994564 1_555
Fe10 O68 2.079550 1_455
Fe10 O55 2.144257 1_455
Fe11 O44 1.914589 1_455
Fe11 O66 1.935743 1_455
Fe11 O23 1.996754 1_555
Fe11 O11 2.024738 1_555
Fe11 O32 2.049792 1_455
Fe11 O56 2.097503 1_455
Fe12 O69 1.918689 1_555
Fe12 O21 1.945580 1_555
Fe12 O12 1.965402 1_555
Fe12 O39 1.979226 1_555
Fe12 O48 2.061483 1_556
Fe12 O57 2.219066 1_555
Fe13 O40 1.927685 1_555
Fe13 O13 1.960567 1_555
Fe13 O22 1.976269 1_555
Fe13 O49 1.992478 1_555
Fe13 O70 2.102136 1_555
Fe13 O58 2.316517 1_555
Fe14 O41 1.898753 1_555
Fe14 O23 1.927311 1_555
Fe14 O14 1.929686 1_555
Fe14 O71 1.936123 1_555
Fe14 O50 1.993720 1_555
Fe14 O59 2.229454 1_555
Fe15 O36 1.927685 1_555
Fe15 O15 1.960567 1_555
Fe15 O18 1.976269 1_555
Fe15 O51 1.992478 1_545
Fe15 O63 2.102136 1_545
Fe15 O54 2.316517 1_545
Fe16 O64 1.918689 1_545
Fe16 O19 1.945580 1_555
Fe16 O16 1.965402 1_555
Fe16 O37 1.979226 1_555
Fe16 O52 2.061483 1_544
Fe16 O55 2.219066 1_545
Fe17 O38 1.898753 1_555
Fe17 O20 1.927311 1_555
Fe17 O17 1.929686 1_555
Fe17 O65 1.936123 1_545
Fe17 O53 1.993720 1_545
Fe17 O56 2.229454 1_545
Fe18 O45 1.898753 1_555
Fe18 O15 1.927311 1_555
Fe18 O19 1.929686 1_556
Fe18 O67 1.936123 1_645
Fe18 O54 1.993720 1_545
Fe18 O52 2.229454 1_545
Fe19 O46 1.927685 1_655
Fe19 O20 1.960567 1_555
Fe19 O16 1.976269 1_555
Fe19 O55 1.992478 1_545
Fe19 O68 2.102136 1_545
Fe19 O53 2.316517 1_545
Fe20 O66 1.918689 1_545
Fe20 O17 1.945580 1_555
Fe20 O18 1.965402 1_555
Fe20 O47 1.979226 1_655
Fe20 O56 2.061483 1_545
Fe20 O51 2.219066 1_545
Fe21 O42 1.927685 1_455
Fe21 O23 1.960567 1_555
Fe21 O12 1.976269 1_555
Fe21 O57 1.992478 1_555
Fe21 O62 2.102136 1_555
Fe21 O50 2.316517 1_555
Fe22 O43 1.898753 1_555
Fe22 O13 1.927311 1_555
Fe22 O21 1.929686 1_554
Fe22 O60 1.936123 1_455
Fe22 O58 1.993720 1_555
Fe22 O48 2.229454 1_555
Fe23 O61 1.918689 1_555
Fe23 O14 1.945580 1_555
Fe23 O22 1.965402 1_555
Fe23 O44 1.979226 1_455
Fe23 O59 2.061483 1_555
Fe23 O49 2.219066 1_555
