# generated using pymatgen
data_CaCo5O7
_symmetry_space_group_name_H-M   'P 1'
_cell_length_a   5.28486965
_cell_length_b   5.28486965
_cell_length_c   17.55299100
_cell_angle_alpha   90.00000000
_cell_angle_beta   90.00000000
_cell_angle_gamma   146.57955508
_symmetry_Int_Tables_number   1
_chemical_formula_structural   CaCo5O7
_chemical_formula_sum   'Ca2 Co10 O14'
_cell_volume   270.02050919
_cell_formula_units_Z   2
loop_
 _symmetry_equiv_pos_site_id
 _symmetry_equiv_pos_as_xyz
  1  'x, y, z'
loop_
 _atom_site_type_symbol
 _atom_site_label
 _atom_site_symmetry_multiplicity
 _atom_site_fract_x
 _atom_site_fract_y
 _atom_site_fract_z
 _atom_site_occupancy
  Ca  Ca0  1  0.19593900  0.80406100  0.75000000  1
  Ca  Ca1  1  0.80406100  0.19593900  0.25000000  1
  Co  Co0  1  0.71862700  0.28137300  0.57260900  1
  Co  Co1  1  0.55254000  0.44746000  0.14986800  1
  Co  Co2  1  0.00000000  0.00000000  0.50000000  1
  Co  Co3  1  0.00000000  0.00000000  0.00000000  1
  Co  Co4  1  0.44746000  0.55254000  0.85013200  1
  Co  Co5  1  0.28137300  0.71862700  0.42739100  1
  Co  Co6  1  0.28137300  0.71862700  0.07260900  1
  Co  Co7  1  0.71862700  0.28137300  0.92739100  1
  Co  Co8  1  0.44746000  0.55254000  0.64986800  1
  Co  Co9  1  0.55254000  0.44746000  0.35013200  1
  O  O0  1  0.36399300  0.63600700  0.96178000  1
  O  O1  1  0.63600700  0.36399300  0.03822000  1
  O  O2  1  0.63600700  0.36399300  0.46178000  1
  O  O3  1  0.36399300  0.63600700  0.53822000  1
  O  O4  1  0.81966500  0.18033500  0.82889800  1
  O  O5  1  0.18033500  0.81966500  0.17110200  1
  O  O6  1  0.18033500  0.81966500  0.32889800  1
  O  O7  1  0.81966500  0.18033500  0.67110200  1
  O  O8  1  0.07766100  0.92233900  0.88969000  1
  O  O9  1  0.92233900  0.07766100  0.11031000  1
  O  O10  1  0.92233900  0.07766100  0.38969000  1
  O  O11  1  0.07766100  0.92233900  0.61031000  1
  O  O12  1  0.51979000  0.48021000  0.75000000  1
  O  O13  1  0.48021000  0.51979000  0.25000000  1
loop_
_geom_bond_atom_site_label_1
_geom_bond_atom_site_label_2
_geom_bond_distance
_geom_bond_site_symmetry_2
Ca0 O12 2.342856 1_455
Ca0 O12 2.342856 1_565
Ca0 O4 2.407455 1_455
Ca0 O4 2.407455 1_565
Ca0 O7 2.407455 1_455
Ca0 O7 2.407455 1_565
Ca0 O11 2.728717 1_555
Ca0 O8 2.728717 1_555
Ca1 O13 2.342856 1_545
Ca1 O13 2.342856 1_655
Ca1 O6 2.407455 1_545
Ca1 O6 2.407455 1_655
Ca1 O5 2.407455 1_545
Ca1 O5 2.407455 1_655
Ca1 O9 2.728717 1_555
Ca1 O10 2.728717 1_555
Co0 O7 2.008763 1_555
Co0 O2 2.117560 1_555
Co0 O11 2.187121 1_655
Co0 O11 2.187121 1_545
Co0 O3 2.199784 1_655
Co0 O3 2.199784 1_545
Co1 O13 1.904040 1_555
Co1 O5 2.030199 1_655
Co1 O5 2.030199 1_545
Co1 O9 2.128037 1_565
Co1 O9 2.128037 1_455
Co1 O1 2.134155 1_555
Co2 O10 2.089795 1_455
Co2 O11 2.089795 1_545
Co2 O2 2.157516 1_555
Co2 O2 2.157516 1_445
Co2 O3 2.157516 1_555
Co2 O3 2.157516 1_445
Co3 O8 2.089795 1_544
Co3 O9 2.089795 1_455
Co3 O0 2.157516 1_554
Co3 O0 2.157516 1_444
Co3 O1 2.157516 1_555
Co3 O1 2.157516 1_445
Co4 O12 1.904040 1_555
Co4 O4 2.030199 1_565
Co4 O4 2.030199 1_455
Co4 O8 2.128037 1_655
Co4 O8 2.128037 1_545
Co4 O0 2.134155 1_555
Co5 O6 2.008763 1_555
Co5 O3 2.117560 1_555
Co5 O10 2.187121 1_565
Co5 O10 2.187121 1_455
Co5 O2 2.199784 1_565
Co5 O2 2.199784 1_455
Co6 O5 2.008763 1_555
Co6 O0 2.117560 1_554
Co6 O9 2.187121 1_565
Co6 O9 2.187121 1_455
Co6 O1 2.199784 1_565
Co6 O1 2.199784 1_455
Co7 O4 2.008763 1_555
Co7 O1 2.117560 1_556
Co7 O8 2.187121 1_655
Co7 O8 2.187121 1_545
Co7 O0 2.199784 1_545
Co7 O0 2.199784 1_655
Co8 O12 1.904040 1_555
Co8 O7 2.030199 1_565
Co8 O7 2.030199 1_455
Co8 O11 2.128037 1_655
Co8 O11 2.128037 1_545
Co8 O3 2.134155 1_555
Co9 O13 1.904040 1_555
Co9 O6 2.030199 1_655
Co9 O6 2.030199 1_545
Co9 O10 2.128037 1_565
Co9 O10 2.128037 1_455
Co9 O2 2.134155 1_555
