# generated using pymatgen
data_PrMgS3
_symmetry_space_group_name_H-M   'P 1'
_cell_length_a   6.97442942
_cell_length_b   6.97442942
_cell_length_c   6.57092636
_cell_angle_alpha   76.89383711
_cell_angle_beta   76.89383711
_cell_angle_gamma   114.63545303
_symmetry_Int_Tables_number   1
_chemical_formula_structural   PrMgS3
_chemical_formula_sum   'Pr2 Mg2 S6'
_cell_volume   263.67577899
_cell_formula_units_Z   2
loop_
 _symmetry_equiv_pos_site_id
 _symmetry_equiv_pos_as_xyz
  1  'x, y, z'
loop_
 _atom_site_type_symbol
 _atom_site_label
 _atom_site_symmetry_multiplicity
 _atom_site_fract_x
 _atom_site_fract_y
 _atom_site_fract_z
 _atom_site_occupancy
  Pr  Pr0  1  0.19560200  0.19560200  0.67384300  1
  Pr  Pr1  1  0.80439800  0.80439800  0.32615700  1
  Mg  Mg0  1  0.33276800  0.66723200  0.00000000  1
  Mg  Mg1  1  0.66723200  0.33276800  0.00000000  1
  S  S0  1  0.09860300  0.75557200  0.78939000  1
  S  S1  1  0.90139700  0.24442800  0.21061000  1
  S  S2  1  0.24442800  0.90139700  0.21061000  1
  S  S3  1  0.75557200  0.09860300  0.78939000  1
  S  S4  1  0.47726200  0.47726200  0.24804500  1
  S  S5  1  0.52273800  0.52273800  0.75195500  1
loop_
_geom_bond_atom_site_label_1
_geom_bond_atom_site_label_2
_geom_bond_distance
_geom_bond_site_symmetry_2
Pr0 S4 2.709926 1_555
Pr0 S5 2.719749 1_555
Pr0 S0 2.726182 1_545
Pr0 S3 2.726182 1_455
Pr1 S5 2.709926 1_555
Pr1 S4 2.719749 1_555
Pr1 S1 2.726182 1_565
Pr1 S2 2.726182 1_655
Mg0 S5 2.511229 1_554
Mg0 S4 2.511229 1_555
Mg0 S0 2.537562 1_554
Mg0 S2 2.537562 1_555
Mg0 S1 2.920103 1_455
Mg0 S3 2.920103 1_564
Mg1 S5 2.511229 1_554
Mg1 S4 2.511229 1_555
Mg1 S3 2.537562 1_554
Mg1 S1 2.537562 1_555
Mg1 S0 2.920103 1_654
Mg1 S2 2.920103 1_545
