# generated using pymatgen
data_Zn(BiO2)2
_symmetry_space_group_name_H-M   'P 1'
_cell_length_a   3.40066100
_cell_length_b   10.69482900
_cell_length_c   11.47874900
_cell_angle_alpha   90.00000000
_cell_angle_beta   90.00000000
_cell_angle_gamma   90.00000000
_symmetry_Int_Tables_number   1
_chemical_formula_structural   Zn(BiO2)2
_chemical_formula_sum   'Zn4 Bi8 O16'
_cell_volume   417.47622266
_cell_formula_units_Z   4
loop_
 _symmetry_equiv_pos_site_id
 _symmetry_equiv_pos_as_xyz
  1  'x, y, z'
loop_
 _atom_site_type_symbol
 _atom_site_label
 _atom_site_symmetry_multiplicity
 _atom_site_fract_x
 _atom_site_fract_y
 _atom_site_fract_z
 _atom_site_occupancy
  Zn  Zn0  1  0.85762600  0.35822100  0.75000000  1
  Zn  Zn1  1  0.85762600  0.14177900  0.25000000  1
  Zn  Zn2  1  0.14237400  0.85822100  0.75000000  1
  Zn  Zn3  1  0.14237400  0.64177900  0.25000000  1
  Bi  Bi0  1  0.67119000  0.12222100  0.91262300  1
  Bi  Bi1  1  0.67119000  0.37777900  0.41262300  1
  Bi  Bi2  1  0.32881000  0.87777900  0.41262300  1
  Bi  Bi3  1  0.67119000  0.37777900  0.08737700  1
  Bi  Bi4  1  0.32881000  0.87777900  0.08737700  1
  Bi  Bi5  1  0.67119000  0.12222100  0.58737700  1
  Bi  Bi6  1  0.32881000  0.62222100  0.58737700  1
  Bi  Bi7  1  0.32881000  0.62222100  0.91262300  1
  O  O0  1  0.24044100  0.96501500  0.60365500  1
  O  O1  1  0.75955900  0.03498500  0.39634500  1
  O  O2  1  0.24369200  0.25000000  0.50000000  1
  O  O3  1  0.75955900  0.46501500  0.60365500  1
  O  O4  1  0.75955900  0.46501500  0.89634500  1
  O  O5  1  0.36042700  0.25309400  0.25000000  1
  O  O6  1  0.24044100  0.53498500  0.39634500  1
  O  O7  1  0.63957300  0.75309400  0.25000000  1
  O  O8  1  0.24369200  0.25000000  0.00000000  1
  O  O9  1  0.75630800  0.75000000  0.50000000  1
  O  O10  1  0.24044100  0.96501500  0.89634500  1
  O  O11  1  0.63957300  0.74690600  0.75000000  1
  O  O12  1  0.36042700  0.24690600  0.75000000  1
  O  O13  1  0.75630800  0.75000000  0.00000000  1
  O  O14  1  0.24044100  0.53498500  0.10365500  1
  O  O15  1  0.75955900  0.03498500  0.10365500  1
loop_
_geom_bond_atom_site_label_1
_geom_bond_atom_site_label_2
_geom_bond_distance
_geom_bond_site_symmetry_2
Bi0 O8 2.233149 1_556
Bi0 O10 2.237719 1_545
Bi0 O15 2.401907 1_556
Bi0 O12 2.525789 1_555
Bi0 O10 2.570815 1_645
Bi0 O8 2.581444 1_656
Bi1 O2 2.233149 1_555
Bi1 O6 2.237719 1_555
Bi1 O3 2.401907 1_555
Bi1 O5 2.525789 1_555
Bi1 O6 2.570815 1_655
Bi1 O2 2.581444 1_655
Bi2 O9 2.233149 1_555
Bi2 O1 2.237719 1_565
Bi2 O0 2.401907 1_555
Bi2 O7 2.525789 1_555
Bi2 O1 2.570815 1_465
Bi2 O9 2.581444 1_455
Bi3 O8 2.233149 1_555
Bi3 O14 2.237719 1_555
Bi3 O4 2.401907 1_554
Bi3 O5 2.525789 1_555
Bi3 O14 2.570815 1_655
Bi3 O8 2.581444 1_655
Bi4 O13 2.233149 1_555
Bi4 O15 2.237719 1_565
Bi4 O10 2.401907 1_554
Bi4 O7 2.525789 1_555
Bi4 O15 2.570815 1_465
Bi4 O13 2.581444 1_455
Bi5 O2 2.233149 1_555
Bi5 O0 2.237719 1_545
Bi5 O1 2.401907 1_555
Bi5 O12 2.525789 1_555
Bi5 O0 2.570815 1_645
Bi5 O2 2.581444 1_655
Bi6 O9 2.233149 1_555
Bi6 O3 2.237719 1_555
Bi6 O6 2.401907 1_555
Bi6 O11 2.525789 1_555
Bi6 O3 2.570815 1_455
Bi6 O9 2.581444 1_455
Bi7 O13 2.233149 1_556
Bi7 O4 2.237719 1_555
Bi7 O14 2.401907 1_556
Bi7 O11 2.525789 1_555
Bi7 O4 2.570815 1_455
Bi7 O13 2.581444 1_456
O0 Zn2 2.058551 1_555
O1 Zn1 2.058551 1_555
O3 Zn0 2.058551 1_555
O4 Zn0 2.058551 1_555
O5 Zn1 2.067873 1_555
O5 Zn1 2.083479 1_455
O6 Zn3 2.058551 1_555
O7 Zn3 2.067873 1_555
O7 Zn3 2.083479 1_655
O10 Zn2 2.058551 1_555
O11 Zn2 2.067873 1_555
O11 Zn2 2.083479 1_655
O12 Zn0 2.067873 1_555
O12 Zn0 2.083479 1_455
O14 Zn3 2.058551 1_555
O15 Zn1 2.058551 1_555
