# generated using pymatgen
data_GdAlCu4
_symmetry_space_group_name_H-M   'P 1'
_cell_length_a   5.14269692
_cell_length_b   5.14269692
_cell_length_c   4.01674315
_cell_angle_alpha   90.00000000
_cell_angle_beta   90.00000000
_cell_angle_gamma   119.99609891
_symmetry_Int_Tables_number   1
_chemical_formula_structural   GdAlCu4
_chemical_formula_sum   'Gd1 Al1 Cu4'
_cell_volume   92.00334672
_cell_formula_units_Z   1
loop_
 _symmetry_equiv_pos_site_id
 _symmetry_equiv_pos_as_xyz
  1  'x, y, z'
loop_
 _atom_site_type_symbol
 _atom_site_label
 _atom_site_symmetry_multiplicity
 _atom_site_fract_x
 _atom_site_fract_y
 _atom_site_fract_z
 _atom_site_occupancy
  Gd  Gd0  1  0.33333373  0.66666627  0.00000000  1
  Al  Al0  1  -0.00000186  0.00000186  0.00000000  1
  Cu  Cu0  1  0.66666698  0.33333302  0.00000000  1
  Cu  Cu1  1  0.83230715  0.16769285  0.50000000  1
  Cu  Cu2  1  0.83231360  0.66462060  0.50000000  1
  Cu  Cu3  1  0.33537940  0.16768640  0.50000000  1
loop_
_geom_bond_atom_site_label_1
_geom_bond_atom_site_label_2
_geom_bond_distance
_geom_bond_site_symmetry_2
Al0 Cu1 2.502916 1_455
Al0 Cu1 2.502916 1_454
Al0 Cu2 2.502966 1_444
Al0 Cu2 2.502966 1_445
Al0 Cu3 2.502966 1_554
Al0 Cu3 2.502966 1_555
Al0 Cu0 2.969060 1_455
Al0 Gd0 2.969099 1_545
Al0 Gd0 2.969244 1_445
Al0 Gd0 2.969244 1_555
Al0 Cu0 2.969264 1_555
Al0 Cu0 2.969264 1_445
Cu0 Cu1 2.492058 1_554
Cu0 Cu1 2.492058 1_555
Cu0 Cu3 2.492128 1_554
Cu0 Cu2 2.492128 1_555
Cu0 Cu3 2.492128 1_555
Cu0 Cu2 2.492128 1_554
Cu0 Gd0 2.969078 1_555
Cu0 Gd0 2.969255 1_545
Cu0 Gd0 2.969255 1_655
Cu1 Cu3 2.555532 1_555
Cu1 Cu2 2.555532 1_555
Cu1 Cu2 2.587165 1_545
Cu1 Cu3 2.587165 1_655
Cu1 Gd0 3.262860 1_546
Cu1 Gd0 3.262860 1_545
Cu1 Gd0 3.262860 1_655
Cu1 Gd0 3.262860 1_656
Cu2 Cu3 2.555733 1_555
Cu2 Cu3 2.587267 1_665
Cu2 Gd0 3.262730 1_656
Cu2 Gd0 3.262730 1_655
Cu2 Gd0 3.262750 1_555
Cu2 Gd0 3.262750 1_556
Cu3 Gd0 3.262730 1_546
Cu3 Gd0 3.262730 1_545
Cu3 Gd0 3.262750 1_555
Cu3 Gd0 3.262750 1_556
