# generated using pymatgen
data_Th2P2S
_symmetry_space_group_name_H-M   'P 1'
_cell_length_a   3.65179400
_cell_length_b   3.65179400
_cell_length_c   12.65296100
_cell_angle_alpha   90.00000000
_cell_angle_beta   90.00000000
_cell_angle_gamma   90.00000000
_symmetry_Int_Tables_number   1
_chemical_formula_structural   Th2P2S
_chemical_formula_sum   'Th2 P2 S1'
_cell_volume   168.73481935
_cell_formula_units_Z   1
loop_
 _symmetry_equiv_pos_site_id
 _symmetry_equiv_pos_as_xyz
  1  'x, y, z'
loop_
 _atom_site_type_symbol
 _atom_site_label
 _atom_site_symmetry_multiplicity
 _atom_site_fract_x
 _atom_site_fract_y
 _atom_site_fract_z
 _atom_site_occupancy
  Th  Th0  1  0.50000000  0.50000000  0.20510700  1
  Th  Th1  1  0.50000000  0.50000000  0.79489300  1
  P  P0  1  0.50000000  0.50000000  0.57814900  1
  P  P1  1  0.50000000  0.50000000  0.42185100  1
  S  S0  1  0.50000000  0.50000000  0.00000000  1
loop_
_geom_bond_atom_site_label_1
_geom_bond_atom_site_label_2
_geom_bond_distance
_geom_bond_site_symmetry_2
P0 P1 1.977632 1_555
P0 Th1 2.742453 1_555
P1 Th0 2.742453 1_555
S0 Th0 2.595211 1_555
S0 Th1 2.595211 1_554
