# generated using pymatgen
data_YbAlF5
_symmetry_space_group_name_H-M   'P 1'
_cell_length_a   6.94169679
_cell_length_b   10.42298091
_cell_length_c   10.37872491
_cell_angle_alpha   83.73175262
_cell_angle_beta   70.26198832
_cell_angle_gamma   70.01753166
_symmetry_Int_Tables_number   1
_chemical_formula_structural   YbAlF5
_chemical_formula_sum   'Yb8 Al8 F40'
_cell_volume   664.24524066
_cell_formula_units_Z   8
loop_
 _symmetry_equiv_pos_site_id
 _symmetry_equiv_pos_as_xyz
  1  'x, y, z'
loop_
 _atom_site_type_symbol
 _atom_site_label
 _atom_site_symmetry_multiplicity
 _atom_site_fract_x
 _atom_site_fract_y
 _atom_site_fract_z
 _atom_site_occupancy
  Yb  Yb0  1  0.02754000  0.66797700  0.19655900  1
  Yb  Yb1  1  0.23443300  0.27727400  0.17762600  1
  Yb  Yb2  1  0.23231400  0.79941700  0.66218400  1
  Yb  Yb3  1  0.41146400  0.81935300  0.27299200  1
  Yb  Yb4  1  0.50631700  0.18131200  0.72099200  1
  Yb  Yb5  1  0.68525500  0.20241900  0.33195900  1
  Yb  Yb6  1  0.68284200  0.72394600  0.81654900  1
  Yb  Yb7  1  0.88932300  0.33375300  0.79774500  1
  Al  Al0  1  0.45575100  0.00065100  0.99695200  1
  Al  Al1  1  0.95908600  0.50039800  0.49724600  1
  Al  Al2  1  0.12233400  0.14499000  0.51464000  1
  Al  Al3  1  0.26454600  0.51787400  0.85129300  1
  Al  Al4  1  0.95559900  0.00113600  0.99701800  1
  Al  Al5  1  0.45888400  0.50059500  0.49755100  1
  Al  Al6  1  0.65231700  0.48310400  0.14327500  1
  Al  Al7  1  0.79572500  0.85572500  0.47898400  1
  F  F0  1  0.99907500  0.17957300  0.37435700  1
  F  F1  1  0.37550200  0.03396100  0.17816700  1
  F  F2  1  0.98431400  0.33166700  0.55652700  1
  F  F3  1  0.03048900  0.45778700  0.31825400  1
  F  F4  1  0.21283700  0.49465100  0.03163000  1
  F  F5  1  0.04462700  0.86211300  0.34484300  1
  F  F6  1  0.22990700  0.16047200  0.65276800  1
  F  F7  1  0.48287100  0.82224500  0.03235700  1
  F  F8  1  0.00428900  0.65319200  0.86925700  1
  F  F9  1  0.34406100  0.19115900  0.38315000  1
  F  F10  1  0.24078500  0.47141900  0.46450100  1
  F  F11  1  0.17712200  0.37555900  0.82416500  1
  F  F12  1  0.43032900  0.17888300  0.96161800  1
  F  F13  1  0.37955900  0.61391400  0.19524000  1
  F  F14  1  0.52199200  0.34906900  0.16762500  1
  F  F15  1  0.79628900  0.06210600  0.16882600  1
  F  F16  1  0.24063200  0.96452000  0.49036600  1
  F  F17  1  0.29035600  0.55843700  0.66583300  1
  F  F18  1  0.37748300  0.67955800  0.45201200  1
  F  F19  1  0.54065200  0.32148100  0.54263600  1
  F  F20  1  0.62664000  0.44334500  0.32899000  1
  F  F21  1  0.67712200  0.03606600  0.50257700  1
  F  F22  1  0.39439500  0.65233800  0.82751800  1
  F  F23  1  0.53761100  0.38737300  0.79873000  1
  F  F24  1  0.74065000  0.62510200  0.16963300  1
  F  F25  1  0.53710600  0.96709800  0.81562500  1
  F  F26  1  0.67719800  0.52925700  0.53079000  1
  F  F27  1  0.57411100  0.80940300  0.61055100  1
  F  F28  1  0.91173300  0.34685800  0.12594300  1
  F  F29  1  0.85304900  0.16931500  0.93223800  1
  F  F30  1  0.68867400  0.83928100  0.34070900  1
  F  F31  1  0.05744800  0.83280600  0.06161500  1
  F  F32  1  0.87331500  0.13805200  0.64803800  1
  F  F33  1  0.70427100  0.50601800  0.96287600  1
  F  F34  1  0.88754300  0.54345400  0.67618600  1
  F  F35  1  0.93391700  0.66916500  0.43806100  1
  F  F36  1  0.17408400  0.05055900  0.01467200  1
  F  F37  1  0.73773500  0.95141500  0.97885800  1
  F  F38  1  0.91851700  0.82235900  0.61945300  1
  F  F39  1  0.11638200  0.94004800  0.82544300  1
loop_
_geom_bond_atom_site_label_1
_geom_bond_atom_site_label_2
_geom_bond_distance
_geom_bond_site_symmetry_2
Al0 F36 1.791722 1_556
Al0 F37 1.793438 1_545
Al0 F1 1.808572 1_556
Al0 F25 1.809369 1_545
Al0 F7 1.812883 1_546
Al0 F12 1.813172 1_555
Al1 F2 1.768662 1_555
Al1 F35 1.768787 1_555
Al1 F10 1.788979 1_655
Al1 F26 1.789168 1_555
Al1 F3 1.817082 1_655
Al1 F34 1.817638 1_555
Al2 F16 1.784411 1_545
Al2 F32 1.832279 1_455
Al2 F9 1.845821 1_555
Al2 F6 1.869436 1_555
Al2 F0 1.870263 1_455
Al2 F2 1.876719 1_455
Al3 F4 1.788084 1_556
Al3 F8 1.837474 1_555
Al3 F23 1.855320 1_555
Al3 F11 1.862726 1_555
Al3 F22 1.864208 1_555
Al3 F17 1.885996 1_555
Al4 F39 1.800435 1_645
Al4 F15 1.800452 1_556
Al4 F31 1.800864 1_646
Al4 F29 1.801276 1_555
Al4 F37 1.827791 1_545
Al4 F36 1.827969 1_656
Al5 F20 1.774744 1_555
Al5 F17 1.774913 1_555
Al5 F26 1.786047 1_555
Al5 F10 1.786192 1_555
Al5 F18 1.813728 1_555
Al5 F19 1.814069 1_555
Al6 F33 1.788238 1_554
Al6 F28 1.838755 1_555
Al6 F13 1.855060 1_555
Al6 F24 1.861004 1_555
Al6 F14 1.861808 1_555
Al6 F20 1.887514 1_555
Al7 F21 1.782601 1_565
Al7 F5 1.833474 1_655
Al7 F27 1.846378 1_555
Al7 F38 1.870557 1_555
Al7 F30 1.871431 1_555
Al7 F35 1.874033 1_555
F0 Yb5 2.294777 1_555
F0 Yb1 2.511006 1_655
F1 Yb3 2.310409 1_545
F1 Yb1 2.386162 1_555
F2 Yb7 2.364323 1_555
F3 Yb1 2.248995 1_555
F3 Yb0 2.403725 1_555
F4 Yb0 2.334141 1_555
F4 Yb1 2.573623 1_555
F5 Yb3 2.292054 1_555
F5 Yb0 2.728443 1_555
F6 Yb4 2.338010 1_555
F6 Yb7 2.527419 1_455
F7 Yb6 2.328612 1_554
F7 Yb3 2.375214 1_555
F8 Yb6 2.331072 1_455
F8 Yb2 2.843076 1_555
F9 Yb5 2.287378 1_555
F9 Yb1 2.479170 1_555
F11 Yb7 2.290721 1_455
F11 Yb4 2.475129 1_555
F12 Yb1 2.327382 1_556
F12 Yb4 2.370946 1_555
F13 Yb0 2.308013 1_555
F13 Yb3 2.471341 1_555
F14 Yb1 2.327956 1_555
F14 Yb5 2.466202 1_555
F15 Yb5 2.118584 1_555
F16 Yb2 2.339434 1_555
F16 Yb3 2.549020 1_555
F17 Yb2 2.402171 1_555
F18 Yb3 2.231276 1_555
F18 Yb2 2.363108 1_555
F19 Yb4 2.228744 1_555
F19 Yb5 2.363754 1_555
F20 Yb5 2.401187 1_555
F21 Yb5 2.339703 1_555
F21 Yb4 2.558038 1_555
F22 Yb6 2.329843 1_555
F22 Yb2 2.472095 1_555
F23 Yb7 2.307612 1_555
F23 Yb4 2.475224 1_555
F24 Yb0 2.292452 1_655
F24 Yb3 2.475527 1_555
F25 Yb4 2.309172 1_565
F25 Yb6 2.386518 1_555
F27 Yb2 2.285888 1_555
F27 Yb6 2.479662 1_555
F28 Yb1 2.334089 1_655
F28 Yb5 2.820312 1_555
F29 Yb7 2.117676 1_555
F30 Yb3 2.336364 1_555
F30 Yb0 2.509048 1_655
F31 Yb0 2.116163 1_555
F32 Yb4 2.292026 1_555
F32 Yb7 2.747890 1_555
F33 Yb7 2.328053 1_555
F33 Yb6 2.580007 1_555
F34 Yb6 2.248056 1_555
F34 Yb7 2.399812 1_555
F35 Yb0 2.367697 1_655
F38 Yb2 2.296113 1_655
F38 Yb6 2.518224 1_555
F39 Yb2 2.117155 1_555
