# generated using pymatgen
data_Ca8Al3(FeO4)5
_symmetry_space_group_name_H-M   'P 1'
_cell_length_a   5.49865100
_cell_length_b   8.41133436
_cell_length_c   10.71762105
_cell_angle_alpha   108.56508598
_cell_angle_beta   90.01020006
_cell_angle_gamma   108.97686447
_symmetry_Int_Tables_number   1
_chemical_formula_structural   Ca8Al3(FeO4)5
_chemical_formula_sum   'Ca8 Al3 Fe5 O20'
_cell_volume   441.38236285
_cell_formula_units_Z   1
loop_
 _symmetry_equiv_pos_site_id
 _symmetry_equiv_pos_as_xyz
  1  'x, y, z'
loop_
 _atom_site_type_symbol
 _atom_site_label
 _atom_site_symmetry_multiplicity
 _atom_site_fract_x
 _atom_site_fract_y
 _atom_site_fract_z
 _atom_site_occupancy
  Ca  Ca0  1  0.37254800  0.78861900  0.44480400  1
  Ca  Ca1  1  0.37405400  0.78882900  0.94356300  1
  Ca  Ca2  1  0.62741200  0.21094600  0.54961900  1
  Ca  Ca3  1  0.62598200  0.21166700  0.05015700  1
  Ca  Ca4  1  0.08337300  0.21197900  0.30125800  1
  Ca  Ca5  1  0.08380400  0.21116300  0.79734800  1
  Ca  Ca6  1  0.91543000  0.78810400  0.69123200  1
  Ca  Ca7  1  0.91736900  0.78869800  0.19583600  1
  Al  Al0  1  0.50002400  0.00010100  0.74838600  1
  Al  Al1  1  0.49998800  0.99988000  0.25508700  1
  Al  Al2  1  0.00002200  0.99997600  0.50119600  1
  Fe  Fe0  1  0.00003300  0.00007300  0.00200100  1
  Fe  Fe1  1  0.31558500  0.50444300  0.10339000  1
  Fe  Fe2  1  0.31265400  0.49971700  0.60171500  1
  Fe  Fe3  1  0.68502000  0.49652900  0.85063700  1
  Fe  Fe4  1  0.68664400  0.49939500  0.35243700  1
  O  O0  1  0.30339100  0.72865600  0.69131000  1
  O  O1  1  0.30810600  0.73246700  0.19791500  1
  O  O2  1  0.69528300  0.27180700  0.33312500  1
  O  O3  1  0.69319900  0.26709300  0.82541200  1
  O  O4  1  0.07773700  0.27029300  0.57958600  1
  O  O5  1  0.07095100  0.28238500  0.08662800  1
  O  O6  1  0.92206400  0.72953300  0.44376500  1
  O  O7  1  0.92928000  0.71775800  0.94603500  1
  O  O8  1  0.25767200  0.02311000  0.38316700  1
  O  O9  1  0.26672800  0.02559500  0.87805900  1
  O  O10  1  0.73259800  0.97302600  0.86485500  1
  O  O11  1  0.74302700  0.97809700  0.37191300  1
  O  O12  1  0.73580500  0.97684900  0.61903500  1
  O  O13  1  0.72600700  0.97376800  0.12386400  1
  O  O14  1  0.27489500  0.02747300  0.13730100  1
  O  O15  1  0.26342600  0.02197100  0.63035500  1
  O  O16  1  0.36027900  0.49975500  0.42094500  1
  O  O17  1  0.36083500  0.49962400  0.92080500  1
  O  O18  1  0.63952900  0.50047200  0.67052700  1
  O  O19  1  0.63924400  0.50014900  0.17153300  1
loop_
_geom_bond_atom_site_label_1
_geom_bond_atom_site_label_2
_geom_bond_distance
_geom_bond_site_symmetry_2
Ca0 O16 2.339080 1_555
Ca0 O6 2.361934 1_455
Ca0 O11 2.445836 1_555
Ca0 O12 2.458192 1_555
Ca0 O8 2.522994 1_565
Ca0 O1 2.538759 1_555
Ca0 O15 2.539347 1_565
Ca0 O0 2.846586 1_555
Ca1 O7 2.323480 1_455
Ca1 O17 2.342968 1_555
Ca1 O10 2.417672 1_555
Ca1 O13 2.454768 1_556
Ca1 O9 2.542008 1_565
Ca1 O14 2.587713 1_566
Ca1 O0 2.591667 1_555
Ca1 O1 2.915315 1_556
Ca2 O18 2.345059 1_555
Ca2 O4 2.361678 1_655
Ca2 O8 2.434546 1_555
Ca2 O15 2.467480 1_555
Ca2 O11 2.510481 1_545
Ca2 O2 2.533288 1_555
Ca2 O12 2.545957 1_545
Ca2 O3 2.844385 1_555
Ca3 O5 2.323393 1_655
Ca3 O19 2.336760 1_555
Ca3 O9 2.429740 1_554
Ca3 O14 2.444659 1_555
Ca3 O10 2.558200 1_544
Ca3 O13 2.579329 1_545
Ca3 O3 2.599857 1_554
Ca3 O2 2.914785 1_555
Ca4 O16 2.334127 1_555
Ca4 O2 2.347971 1_455
Ca4 O14 2.435673 1_555
Ca4 O8 2.467987 1_555
Ca4 O11 2.549612 1_445
Ca4 O13 2.550101 1_445
Ca4 O5 2.557451 1_555
Ca4 O4 2.866732 1_555
Ca5 O3 2.343526 1_455
Ca5 O17 2.347236 1_555
Ca5 O15 2.433196 1_555
Ca5 O9 2.465124 1_555
Ca5 O12 2.519082 1_445
Ca5 O4 2.538787 1_555
Ca5 O10 2.583137 1_445
Ca5 O5 2.970057 1_556
Ca6 O18 2.339878 1_555
Ca6 O0 2.344114 1_655
Ca6 O12 2.428277 1_555
Ca6 O10 2.463205 1_555
Ca6 O15 2.515244 1_665
Ca6 O6 2.541299 1_555
Ca6 O9 2.583251 1_665
Ca6 O7 2.978555 1_555
Ca7 O19 2.341078 1_555
Ca7 O1 2.346908 1_655
Ca7 O13 2.440308 1_555
Ca7 O11 2.469365 1_555
Ca7 O8 2.549211 1_665
Ca7 O14 2.554792 1_665
Ca7 O7 2.556631 1_554
Ca7 O6 2.856477 1_555
Al0 O9 1.900755 1_555
Al0 O10 1.901407 1_545
Al0 O15 1.905218 1_555
Al0 O12 1.906287 1_545
Al0 O3 2.030010 1_555
Al0 O0 2.064258 1_545
Al1 O13 1.884729 1_555
Al1 O14 1.884740 1_565
Al1 O11 1.921453 1_555
Al1 O8 1.922763 1_565
Al1 O1 2.031429 1_555
Al1 O2 2.066009 1_565
Al2 O11 1.902233 1_455
Al2 O8 1.903488 1_565
Al2 O15 1.926176 1_565
Al2 O12 1.927930 1_455
Al2 O4 2.051794 1_565
Al2 O6 2.052171 1_455
Fe0 O9 1.984610 1_554
Fe0 O10 1.985820 1_444
Fe0 O13 1.998264 1_445
Fe0 O14 2.000000 1_555
Fe0 O5 2.154001 1_555
Fe0 O7 2.154571 1_444
Fe1 O5 1.866175 1_555
Fe1 O1 1.876361 1_555
Fe1 O19 1.939102 1_555
Fe1 O17 1.961923 1_554
Fe2 O0 1.875972 1_555
Fe2 O4 1.880437 1_555
Fe2 O18 1.940004 1_555
Fe2 O16 1.955176 1_555
Fe3 O7 1.864012 1_555
Fe3 O3 1.877155 1_555
Fe3 O17 1.939592 1_555
Fe3 O18 1.958549 1_555
Fe4 O2 1.875249 1_555
Fe4 O6 1.882630 1_555
Fe4 O16 1.939634 1_555
Fe4 O19 1.958539 1_555
