# generated using pymatgen
data_Mn2V3NiO8
_symmetry_space_group_name_H-M   'P 1'
_cell_length_a   5.88398540
_cell_length_b   6.05925635
_cell_length_c   10.54369537
_cell_angle_alpha   106.70023466
_cell_angle_beta   107.99519296
_cell_angle_gamma   59.00587652
_symmetry_Int_Tables_number   1
_chemical_formula_structural   Mn2V3NiO8
_chemical_formula_sum   'Mn4 V6 Ni2 O16'
_cell_volume   302.65716484
_cell_formula_units_Z   2
loop_
 _symmetry_equiv_pos_site_id
 _symmetry_equiv_pos_as_xyz
  1  'x, y, z'
loop_
 _atom_site_type_symbol
 _atom_site_label
 _atom_site_symmetry_multiplicity
 _atom_site_fract_x
 _atom_site_fract_y
 _atom_site_fract_z
 _atom_site_occupancy
  Mn  Mn0  1  0.13472132  0.12299405  0.38040052  1
  Mn  Mn1  1  0.61259841  0.62857609  0.87061591  1
  Mn  Mn2  1  0.01239798  -0.00356769  0.00472513  1
  Mn  Mn3  1  0.48955219  0.50195241  0.49481257  1
  V  V0  1  0.04831049  0.56865991  0.18521104  1
  V  V1  1  0.57670859  0.05612475  0.68949027  1
  V  V2  1  0.57099706  0.05892489  0.18754014  1
  V  V3  1  0.05326572  0.56640670  0.68748669  1
  V  V4  1  0.57096722  0.55795748  0.18759028  1
  V  V5  1  0.05398228  0.06731977  0.68768883  1
  Ni  Ni0  1  0.31356294  0.31220672  0.93736492  1
  Ni  Ni1  1  0.81319270  0.81220376  0.43739779  1
  O  O0  1  0.42905321  0.43128256  0.29149803  1
  O  O1  1  0.93909714  0.93097303  0.80137741  1
  O  O2  1  0.68562653  0.69422946  0.07373782  1
  O  O3  1  0.19556451  0.19406273  0.58361289  1
  O  O4  1  0.67538263  0.20284497  0.08064642  1
  O  O5  1  0.16693928  0.70799762  0.58321245  1
  O  O6  1  0.20700084  0.65629235  0.07345092  1
  O  O7  1  0.70005630  0.16054531  0.56762143  1
  O  O8  1  0.20710940  0.21059753  0.07339323  1
  O  O9  1  0.69996634  0.70617004  0.56743854  1
  O  O10  1  0.45768764  0.91737095  0.29195138  1
  O  O11  1  0.94988999  0.42218802  0.79460996  1
  O  O12  1  0.92509553  0.46417574  0.30729695  1
  O  O13  1  0.41844693  0.96833364  0.80134972  1
  O  O14  1  0.92501525  0.91860574  0.30730981  1
  O  O15  1  0.41781355  0.41457247  0.80117195  1
loop_
_geom_bond_atom_site_label_1
_geom_bond_atom_site_label_2
_geom_bond_distance
_geom_bond_site_symmetry_2
Mn0 O10 2.005502 1_545
Mn0 O3 2.014678 1_555
Mn0 O14 2.021858 1_445
Mn0 O12 2.022739 1_455
Mn1 O11 1.998861 1_555
Mn1 O15 1.999386 1_555
Mn1 O13 2.000763 1_555
Mn1 O2 2.011808 1_556
Mn2 O4 1.997099 1_455
Mn2 O6 1.999769 1_545
Mn2 O8 1.999859 1_555
Mn2 O1 2.014027 1_444
Mn3 O5 2.003600 1_555
Mn3 O0 2.015786 1_555
Mn3 O7 2.022177 1_555
Mn3 O9 2.024308 1_555
Ni0 O15 2.066645 1_555
Ni0 O13 2.069812 1_545
Ni0 O8 2.070796 1_556
Ni0 O6 2.070985 1_556
Ni0 O4 2.094985 1_556
Ni0 O11 2.099127 1_455
Ni1 O12 2.056146 1_555
Ni1 O14 2.057330 1_555
Ni1 O7 2.058025 1_565
Ni1 O9 2.061095 1_555
Ni1 O5 2.078916 1_655
Ni1 O10 2.083308 1_555
O0 V0 2.007975 1_555
O0 V2 2.047698 1_555
O0 V4 2.048245 1_555
O1 V1 1.951411 1_565
O1 V3 2.053904 1_655
O1 V5 2.054596 1_665
O2 V0 1.950990 1_655
O2 V2 2.054008 1_565
O2 V4 2.054693 1_555
O3 V1 2.008270 1_555
O3 V3 2.047345 1_555
O3 V5 2.048419 1_555
O4 V4 1.987689 1_555
O4 V2 1.988010 1_555
O5 V5 1.994777 1_565
O5 V3 1.994904 1_555
O6 V4 1.973613 1_555
O6 V0 2.022970 1_555
O7 V5 1.956796 1_655
O7 V1 2.023506 1_555
O8 V2 1.973416 1_555
O8 V0 2.023090 1_555
O9 V3 1.953950 1_655
O9 V1 2.025567 1_565
O10 V2 1.994301 1_565
O10 V4 1.994673 1_555
O11 V5 1.986619 1_655
O11 V3 1.987083 1_655
O12 V4 1.955879 1_555
O12 V0 2.025122 1_655
O13 V5 1.973651 1_565
O13 V1 2.022493 1_565
O14 V2 1.955604 1_565
O14 V0 2.025754 1_655
O15 V3 1.974071 1_555
O15 V1 2.024101 1_555
