# generated using pymatgen
data_LaTiNO2
_symmetry_space_group_name_H-M   'P 1'
_cell_length_a   5.59143847
_cell_length_b   5.59143847
_cell_length_c   5.59143847
_cell_angle_alpha   119.40306596
_cell_angle_beta   119.18423774
_cell_angle_gamma   91.22795004
_symmetry_Int_Tables_number   1
_chemical_formula_structural   LaTiNO2
_chemical_formula_sum   'La2 Ti2 N2 O4'
_cell_volume   124.89870304
_cell_formula_units_Z   2
loop_
 _symmetry_equiv_pos_site_id
 _symmetry_equiv_pos_as_xyz
  1  'x, y, z'
loop_
 _atom_site_type_symbol
 _atom_site_label
 _atom_site_symmetry_multiplicity
 _atom_site_fract_x
 _atom_site_fract_y
 _atom_site_fract_z
 _atom_site_occupancy
  La  La0  1  0.99099700  0.75000000  0.74099700  1
  La  La1  1  0.50900300  0.25000000  0.75900300  1
  Ti  Ti0  1  0.25000000  0.52027100  0.27027100  1
  Ti  Ti1  1  0.75000000  0.97972900  0.22972900  1
  N  N0  1  0.96120200  0.71120200  0.25000000  1
  N  N1  1  0.53879800  0.78879800  0.75000000  1
  O  O0  1  0.42001000  0.75000000  0.17001000  1
  O  O1  1  0.07999000  0.25000000  0.32999000  1
  O  O2  1  0.95274500  0.20274500  0.75000000  1
  O  O3  1  0.54725500  0.29725500  0.25000000  1
loop_
_geom_bond_atom_site_label_1
_geom_bond_atom_site_label_2
_geom_bond_distance
_geom_bond_site_symmetry_2
La0 O0 2.428317 1_656
La0 O2 2.522961 1_565
La0 O3 2.522961 1_555
La0 N0 2.565060 1_555
La0 N1 2.565060 1_555
La1 O1 2.428317 1_555
La1 O2 2.522961 1_555
La1 O3 2.522961 1_556
La1 N0 2.565060 1_556
La1 N1 2.565060 1_545
N0 Ti0 1.942767 1_655
N0 Ti1 1.942767 1_555
N1 Ti0 1.942767 1_555
N1 Ti1 1.942767 1_556
O0 Ti0 2.010559 1_555
O0 Ti1 2.010559 1_555
O1 Ti0 2.010559 1_555
O1 Ti1 2.010559 1_445
O2 Ti0 2.112842 1_656
O2 Ti1 2.112842 1_545
O3 Ti1 2.112842 1_545
O3 Ti0 2.112842 1_555
