# generated using pymatgen
data_Ca6MnSi6Pb2(SO16)2
_symmetry_space_group_name_H-M   'P 1'
_cell_length_a   7.80374188
_cell_length_b   7.80374188
_cell_length_c   13.00696531
_cell_angle_alpha   78.04736794
_cell_angle_beta   78.04736794
_cell_angle_gamma   63.38624284
_symmetry_Int_Tables_number   1
_chemical_formula_structural   Ca6MnSi6Pb2(SO16)2
_chemical_formula_sum   'Ca6 Mn1 Si6 Pb2 S2 O32'
_cell_volume   686.87949930
_cell_formula_units_Z   1
loop_
 _symmetry_equiv_pos_site_id
 _symmetry_equiv_pos_as_xyz
  1  'x, y, z'
loop_
 _atom_site_type_symbol
 _atom_site_label
 _atom_site_symmetry_multiplicity
 _atom_site_fract_x
 _atom_site_fract_y
 _atom_site_fract_z
 _atom_site_occupancy
  Ca  Ca0  1  0.44539000  0.44539000  0.23174700  1
  Ca  Ca1  1  0.55461000  0.55461000  0.76825300  1
  Ca  Ca2  1  0.93124600  0.46612300  0.32381800  1
  Ca  Ca3  1  0.46612300  0.93124600  0.32381800  1
  Ca  Ca4  1  0.06875400  0.53387700  0.67618200  1
  Ca  Ca5  1  0.53387700  0.06875400  0.67618200  1
  Mn  Mn0  1  0.50000000  0.50000000  0.50000000  1
  Si  Si0  1  0.23867300  0.23867300  0.48500600  1
  Si  Si1  1  0.76132700  0.76132700  0.51499400  1
  Si  Si2  1  0.11463100  0.76193900  0.37223000  1
  Si  Si3  1  0.76193900  0.11463100  0.37223000  1
  Si  Si4  1  0.88536900  0.23806100  0.62777000  1
  Si  Si5  1  0.23806100  0.88536900  0.62777000  1
  Pb  Pb0  1  0.89255200  0.89255200  0.13042900  1
  Pb  Pb1  1  0.10744800  0.10744800  0.86957100  1
  S  S0  1  0.23276100  0.23276100  0.10845800  1
  S  S1  1  0.76723900  0.76723900  0.89154200  1
  O  O0  1  0.27507100  0.27507100  0.35812600  1
  O  O1  1  0.72492900  0.72492900  0.64187400  1
  O  O2  1  0.67435500  0.67435500  0.44729100  1
  O  O3  1  0.32564500  0.32564500  0.55270900  1
  O  O4  1  0.00118800  0.68215300  0.48013000  1
  O  O5  1  0.68215300  0.00118800  0.48013000  1
  O  O6  1  0.99881200  0.31784700  0.51987000  1
  O  O7  1  0.31784700  0.99881200  0.51987000  1
  O  O8  1  0.09771400  0.68416000  0.26995200  1
  O  O9  1  0.68416000  0.09771400  0.26995200  1
  O  O10  1  0.90228600  0.31584000  0.73004800  1
  O  O11  1  0.31584000  0.90228600  0.73004800  1
  O  O12  1  0.67986700  0.34288700  0.38581600  1
  O  O13  1  0.34288700  0.67986700  0.38581600  1
  O  O14  1  0.32013300  0.65711300  0.61418400  1
  O  O15  1  0.65711300  0.32013300  0.61418400  1
  O  O16  1  0.00239800  0.00239800  0.36268300  1
  O  O17  1  0.99760200  0.99760200  0.63731700  1
  O  O18  1  0.21956000  0.21956000  0.00032000  1
  O  O19  1  0.78044000  0.78044000  0.99968000  1
  O  O20  1  0.34524800  0.34524800  0.10836800  1
  O  O21  1  0.65475200  0.65475200  0.89163200  1
  O  O22  1  0.03473200  0.33186900  0.16746100  1
  O  O23  1  0.33186900  0.03473200  0.16746100  1
  O  O24  1  0.96526800  0.66813100  0.83253900  1
  O  O25  1  0.66813100  0.96526800  0.83253900  1
  O  O26  1  0.72966900  0.72966900  0.22480900  1
  O  O27  1  0.27033100  0.27033100  0.77519100  1
  O  O28  1  0.73697000  0.36089300  0.09899700  1
  O  O29  1  0.36089300  0.73697000  0.09899700  1
  O  O30  1  0.26303000  0.63910700  0.90100300  1
  O  O31  1  0.63910700  0.26303000  0.90100300  1
loop_
_geom_bond_atom_site_label_1
_geom_bond_atom_site_label_2
_geom_bond_distance
_geom_bond_site_symmetry_2
Ca0 O20 2.320099 1_555
Ca0 O0 2.451137 1_555
Ca0 O29 2.468536 1_555
Ca0 O28 2.468536 1_555
Ca0 O8 2.525031 1_555
Ca0 O9 2.525031 1_555
Ca0 O13 2.747254 1_555
Ca0 O12 2.747254 1_555
Ca1 O21 2.320099 1_555
Ca1 O1 2.451137 1_555
Ca1 O30 2.468536 1_555
Ca1 O31 2.468536 1_555
Ca1 O11 2.525031 1_555
Ca1 O10 2.525031 1_555
Ca1 O14 2.747254 1_555
Ca1 O15 2.747254 1_555
Ca2 O26 2.281709 1_555
Ca2 O22 2.308699 1_655
Ca2 O2 2.463220 1_555
Ca2 O12 2.477340 1_555
Ca2 O8 2.486603 1_655
Ca2 O0 2.501480 1_655
Ca2 O6 2.628257 1_555
Ca3 O26 2.281709 1_555
Ca3 O23 2.308699 1_565
Ca3 O2 2.463220 1_555
Ca3 O13 2.477340 1_555
Ca3 O9 2.486603 1_565
Ca3 O0 2.501480 1_565
Ca3 O7 2.628257 1_555
Ca4 O27 2.281709 1_555
Ca4 O24 2.308699 1_455
Ca4 O3 2.463220 1_555
Ca4 O14 2.477340 1_555
Ca4 O10 2.486603 1_455
Ca4 O1 2.501480 1_455
Ca4 O4 2.628257 1_555
Ca5 O27 2.281709 1_555
Ca5 O25 2.308699 1_545
Ca5 O3 2.463220 1_555
Ca5 O15 2.477340 1_555
Ca5 O11 2.486603 1_545
Ca5 O1 2.501480 1_545
Ca5 O5 2.628257 1_555
Mn0 O14 2.007013 1_555
Mn0 O15 2.007013 1_555
Mn0 O13 2.007013 1_555
Mn0 O12 2.007013 1_555
Mn0 O3 2.249112 1_555
Mn0 O2 2.249112 1_555
O0 Si0 1.602774 1_555
O1 Si1 1.602774 1_555
O2 Si1 1.613876 1_555
O3 Si0 1.613876 1_555
O4 Si2 1.660824 1_555
O4 Si1 1.679096 1_455
O5 Si3 1.660824 1_555
O5 Si1 1.679096 1_545
O6 Si4 1.660824 1_555
O6 Si0 1.679096 1_655
O7 Si5 1.660824 1_555
O7 Si0 1.679096 1_565
O8 Si2 1.623145 1_555
O8 Pb0 2.479850 1_455
O9 Si3 1.623145 1_555
O9 Pb0 2.479850 1_545
O10 Si4 1.623145 1_555
O10 Pb1 2.479850 1_655
O11 Si5 1.623145 1_555
O11 Pb1 2.479850 1_565
O12 Si3 1.635743 1_555
O13 Si2 1.635743 1_555
O14 Si5 1.635743 1_555
O15 Si4 1.635743 1_555
O16 Si3 1.667255 1_455
O16 Si2 1.667255 1_545
O17 Si4 1.667255 1_565
O17 Si5 1.667255 1_655
O18 S0 1.459159 1_555
O18 Pb1 2.518224 1_554
O19 S1 1.459159 1_555
O19 Pb0 2.518224 1_556
O20 S0 1.493543 1_555
O21 S1 1.493543 1_555
O22 S0 1.503021 1_555
O23 S0 1.503021 1_555
O24 S1 1.503021 1_555
O25 S1 1.503021 1_555
O26 Pb0 2.212078 1_555
O27 Pb1 2.212078 1_555
