# generated using pymatgen
data_Cd3NO8
_symmetry_space_group_name_H-M   'P 1'
_cell_length_a   3.51971000
_cell_length_b   10.61074000
_cell_length_c   10.62985821
_cell_angle_alpha   87.95739564
_cell_angle_beta   90.00000000
_cell_angle_gamma   90.00000000
_symmetry_Int_Tables_number   1
_chemical_formula_structural   Cd3NO8
_chemical_formula_sum   'Cd6 N2 O16'
_cell_volume   396.73817226
_cell_formula_units_Z   2
loop_
 _symmetry_equiv_pos_site_id
 _symmetry_equiv_pos_as_xyz
  1  'x, y, z'
loop_
 _atom_site_type_symbol
 _atom_site_label
 _atom_site_symmetry_multiplicity
 _atom_site_fract_x
 _atom_site_fract_y
 _atom_site_fract_z
 _atom_site_occupancy
  Cd  Cd0  1  0.25000000  0.23638200  0.35015900  1
  Cd  Cd1  1  0.75000000  0.76361800  0.64984100  1
  Cd  Cd2  1  0.25000000  0.60142200  0.89089200  1
  Cd  Cd3  1  0.25000000  0.90719500  0.89101000  1
  Cd  Cd4  1  0.75000000  0.39857800  0.10910800  1
  Cd  Cd5  1  0.75000000  0.09280500  0.10899000  1
  N  N0  1  0.25000000  0.28443700  0.65007500  1
  N  N1  1  0.75000000  0.71556300  0.34992500  1
  O  O0  1  0.25000000  0.19714900  0.56887700  1
  O  O1  1  0.75000000  0.80285100  0.43112300  1
  O  O2  1  0.75000000  0.75577200  0.88269500  1
  O  O3  1  0.25000000  0.24422800  0.11730500  1
  O  O4  1  0.75000000  0.46867800  0.91068100  1
  O  O5  1  0.75000000  0.03787500  0.90976000  1
  O  O6  1  0.25000000  0.53132200  0.08931900  1
  O  O7  1  0.25000000  0.96212500  0.09024000  1
  O  O8  1  0.25000000  0.64313900  0.68592400  1
  O  O9  1  0.25000000  0.88358800  0.68492000  1
  O  O10  1  0.75000000  0.35686100  0.31407600  1
  O  O11  1  0.75000000  0.11641200  0.31508000  1
  O  O12  1  0.25000000  0.25048400  0.76352900  1
  O  O13  1  0.75000000  0.74951600  0.23647100  1
  O  O14  1  0.25000000  0.39729800  0.61405800  1
  O  O15  1  0.75000000  0.60270200  0.38594200  1
loop_
_geom_bond_atom_site_label_1
_geom_bond_atom_site_label_2
_geom_bond_distance
_geom_bond_site_symmetry_2
Cd0 O10 2.200792 1_455
Cd0 O10 2.200792 1_555
Cd0 O11 2.211430 1_455
Cd0 O11 2.211430 1_555
Cd0 O0 2.347266 1_555
Cd0 O3 2.473637 1_555
Cd1 O8 2.200792 1_555
Cd1 O8 2.200792 1_655
Cd1 O9 2.211430 1_655
Cd1 O9 2.211430 1_555
Cd1 O1 2.347266 1_555
Cd1 O2 2.473637 1_555
Cd2 O8 2.207776 1_555
Cd2 O6 2.211415 1_556
Cd2 O4 2.259231 1_455
Cd2 O4 2.259231 1_555
Cd2 O2 2.403496 1_555
Cd2 O2 2.403496 1_455
Cd3 O9 2.213834 1_555
Cd3 O7 2.216466 1_556
Cd3 O5 2.253709 1_565
Cd3 O5 2.253709 1_465
Cd3 O2 2.386743 1_455
Cd3 O2 2.386743 1_555
Cd4 O10 2.207776 1_555
Cd4 O4 2.211415 1_554
Cd4 O6 2.259231 1_555
Cd4 O6 2.259231 1_655
Cd4 O3 2.403496 1_555
Cd4 O3 2.403496 1_655
Cd5 O11 2.213834 1_555
Cd5 O5 2.216466 1_554
Cd5 O7 2.253709 1_545
Cd5 O7 2.253709 1_645
Cd5 O3 2.386743 1_555
Cd5 O3 2.386743 1_655
N0 O14 1.244184 1_555
N0 O12 1.246297 1_555
N0 O0 1.288331 1_555
N1 O15 1.244184 1_555
N1 O13 1.246297 1_555
N1 O1 1.288331 1_555
