# generated using pymatgen
data_V9O22
_symmetry_space_group_name_H-M   'P 1'
_cell_length_a   9.76014400
_cell_length_b   5.55045500
_cell_length_c   14.16998461
_cell_angle_alpha   88.12997166
_cell_angle_beta   90.00000000
_cell_angle_gamma   90.00000000
_symmetry_Int_Tables_number   1
_chemical_formula_structural   V9O22
_chemical_formula_sum   'V18 O44'
_cell_volume   767.22515369
_cell_formula_units_Z   2
loop_
 _symmetry_equiv_pos_site_id
 _symmetry_equiv_pos_as_xyz
  1  'x, y, z'
loop_
 _atom_site_type_symbol
 _atom_site_label
 _atom_site_symmetry_multiplicity
 _atom_site_fract_x
 _atom_site_fract_y
 _atom_site_fract_z
 _atom_site_occupancy
  V  V0  1  0.98347700  0.23068500  0.38721300  1
  V  V1  1  0.67431500  0.24914300  0.03465200  1
  V  V2  1  0.98902600  0.21668000  0.89252800  1
  V  V3  1  0.22495000  0.01820200  0.74511200  1
  V  V4  1  0.72495000  0.98179800  0.25488800  1
  V  V5  1  0.48347700  0.76931500  0.61278700  1
  V  V6  1  0.48902600  0.78332000  0.10747200  1
  V  V7  1  0.82514400  0.75210200  0.53103500  1
  V  V8  1  0.00791500  0.75061000  0.24007800  1
  V  V9  1  0.50256700  0.71583800  0.39685100  1
  V  V10  1  0.17431500  0.75085700  0.96534800  1
  V  V11  1  0.51885600  0.73137600  0.89388600  1
  V  V12  1  0.27469200  0.49816400  0.25233100  1
  V  V13  1  0.77469200  0.50183600  0.74766900  1
  V  V14  1  0.00256700  0.28416200  0.60314900  1
  V  V15  1  0.32514400  0.24789800  0.46896500  1
  V  V16  1  0.01885600  0.26862400  0.10611400  1
  V  V17  1  0.50791500  0.24939000  0.75992200  1
  O  O0  1  0.14842600  0.24704300  0.49555300  1
  O  O1  1  0.33063700  0.23423300  0.69217000  1
  O  O2  1  0.83522500  0.23347700  0.32607800  1
  O  O3  1  0.68125100  0.23647100  0.15462700  1
  O  O4  1  0.15185100  0.22267300  0.83083500  1
  O  O5  1  0.09165600  0.00899600  0.66667000  1
  O  O6  1  0.56127000  0.00422900  0.66521500  1
  O  O7  1  0.91474700  0.01797100  0.49656600  1
  O  O8  1  0.08390600  0.01529100  0.99925400  1
  O  O9  1  0.93114000  0.00269200  0.16764400  1
  O  O10  1  0.06127000  0.99577100  0.33478500  1
  O  O11  1  0.41474700  0.98202900  0.50343400  1
  O  O12  1  0.59165600  0.99100400  0.33333000  1
  O  O13  1  0.41237400  0.00151400  0.15539700  1
  O  O14  1  0.91237400  0.99848600  0.84460300  1
  O  O15  1  0.43114000  0.99730800  0.83235600  1
  O  O16  1  0.58390600  0.98470900  0.00074600  1
  O  O17  1  0.33522500  0.76652300  0.67392200  1
  O  O18  1  0.65185100  0.77732700  0.16916500  1
  O  O19  1  0.83063700  0.76576700  0.30783000  1
  O  O20  1  0.64842600  0.75295700  0.50444700  1
  O  O21  1  0.82344600  0.74402000  0.65186600  1
  O  O22  1  0.18125100  0.76352900  0.84537300  1
  O  O23  1  0.16601400  0.75200100  0.18680000  1
  O  O24  1  0.34502700  0.72881300  0.33517200  1
  O  O25  1  0.34864000  0.74770400  0.99914500  1
  O  O26  1  0.66536300  0.73032700  0.83231800  1
  O  O27  1  0.41458100  0.51095700  0.50357300  1
  O  O28  1  0.57457800  0.50323500  0.67607700  1
  O  O29  1  0.08337200  0.49581600  0.65267500  1
  O  O30  1  0.58337200  0.50418400  0.34732500  1
  O  O31  1  0.40804100  0.51376700  0.16975200  1
  O  O32  1  0.07457800  0.49676500  0.32392300  1
  O  O33  1  0.58279600  0.51525500  0.00154000  1
  O  O34  1  0.93555100  0.50447000  0.16128000  1
  O  O35  1  0.91458100  0.48904300  0.49642700  1
  O  O36  1  0.43555100  0.49553000  0.83872000  1
  O  O37  1  0.08279600  0.48474500  0.99846000  1
  O  O38  1  0.90804100  0.48623300  0.83024800  1
  O  O39  1  0.84502700  0.27118700  0.66482800  1
  O  O40  1  0.32344600  0.25598000  0.34813400  1
  O  O41  1  0.16536300  0.26967300  0.16768200  1
  O  O42  1  0.84864000  0.25229600  0.00085500  1
  O  O43  1  0.66601400  0.24799900  0.81320000  1
loop_
_geom_bond_atom_site_label_1
_geom_bond_atom_site_label_2
_geom_bond_distance
_geom_bond_site_symmetry_2
O0 V15 1.765434 1_555
O0 V14 2.100978 1_555
O0 V0 2.228445 1_455
O1 V3 1.733747 1_555
O1 V17 1.981875 1_555
O2 V0 1.686269 1_555
O2 V4 2.054121 1_545
O3 V1 1.700551 1_555
O3 V4 2.016767 1_545
O4 V2 1.813548 1_455
O4 V3 1.833708 1_555
O5 V3 1.712985 1_555
O5 V14 1.951704 1_555
O6 V5 1.700506 1_545
O6 V17 2.010715 1_555
O7 V7 1.770313 1_545
O7 V0 2.031156 1_555
O7 V14 2.311754 1_655
O8 V10 1.791569 1_545
O8 V2 2.069728 1_455
O8 V16 2.193632 1_556
O9 V8 1.865188 1_645
O9 V16 1.894157 1_655
O9 V4 2.362695 1_545
O10 V0 1.700506 1_465
O10 V8 2.010715 1_555
O11 V15 1.770313 1_565
O11 V5 2.031156 1_555
O11 V9 2.311754 1_555
O12 V4 1.712985 1_555
O12 V9 1.951704 1_555
O13 V6 1.594133 1_545
O14 V2 1.594133 1_565
O15 V17 1.865188 1_565
O15 V11 1.894157 1_555
O15 V3 2.362695 1_565
O16 V1 1.791569 1_565
O16 V6 2.069728 1_555
O16 V11 2.193632 1_554
O17 V5 1.686269 1_555
O17 V3 2.054121 1_565
O18 V6 1.813548 1_555
O18 V4 1.833708 1_555
O19 V4 1.733747 1_555
O19 V8 1.981875 1_655
O20 V7 1.765434 1_555
O20 V9 2.100978 1_555
O20 V5 2.228445 1_555
O21 V7 1.711377 1_555
O21 V13 1.938342 1_555
O22 V10 1.700551 1_555
O22 V3 2.016767 1_565
O23 V8 1.717757 1_555
O23 V12 1.971549 1_555
O24 V9 1.768952 1_555
O24 V12 1.893726 1_555
O25 V10 1.767483 1_555
O25 V6 2.071834 1_556
O25 V11 2.236446 1_555
O26 V11 1.675164 1_555
O26 V13 2.070038 1_555
O27 V15 1.783560 1_555
O27 V9 2.050685 1_555
O27 V5 2.246846 1_555
O28 V5 1.920827 1_555
O28 V17 1.926338 1_555
O28 V13 2.200780 1_555
O29 V14 1.596372 1_555
O30 V9 1.596372 1_555
O31 V12 1.750439 1_555
O31 V6 1.885698 1_555
O32 V0 1.920827 1_455
O32 V8 1.926338 1_555
O32 V12 2.200780 1_555
O33 V1 1.776076 1_555
O33 V11 2.008982 1_554
O33 V6 2.334594 1_555
O34 V16 1.747152 1_655
O34 V8 1.926548 1_655
O35 V7 1.783560 1_555
O35 V14 2.050685 1_655
O35 V0 2.246846 1_555
O36 V11 1.747152 1_555
O36 V17 1.926548 1_555
O37 V10 1.776076 1_555
O37 V16 2.008982 1_556
O37 V2 2.334594 1_455
O38 V13 1.750439 1_555
O38 V2 1.885698 1_555
O39 V14 1.768952 1_655
O39 V13 1.893726 1_555
O40 V15 1.711377 1_555
O40 V12 1.938342 1_555
O41 V16 1.675164 1_555
O41 V12 2.070038 1_555
O42 V1 1.767483 1_555
O42 V2 2.071834 1_554
O42 V16 2.236446 1_655
O43 V17 1.717757 1_555
O43 V13 1.971549 1_555
