# generated using pymatgen
data_Hf9Ni11
_symmetry_space_group_name_H-M   'P 1'
_cell_length_a   6.37896600
_cell_length_b   7.69553330
_cell_length_c   7.69553330
_cell_angle_alpha   80.10888943
_cell_angle_beta   65.51474855
_cell_angle_gamma   65.51474855
_symmetry_Int_Tables_number   1
_chemical_formula_structural   Hf9Ni11
_chemical_formula_sum   'Hf9 Ni11'
_cell_volume   312.87827382
_cell_formula_units_Z   1
loop_
 _symmetry_equiv_pos_site_id
 _symmetry_equiv_pos_as_xyz
  1  'x, y, z'
loop_
 _atom_site_type_symbol
 _atom_site_label
 _atom_site_symmetry_multiplicity
 _atom_site_fract_x
 _atom_site_fract_y
 _atom_site_fract_z
 _atom_site_occupancy
  Hf  Hf0  1  0.00000000  0.00000000  0.00000000  1
  Hf  Hf1  1  0.69071300  0.40187500  0.21670000  1
  Hf  Hf2  1  0.30928700  0.59812500  0.78330000  1
  Hf  Hf3  1  0.09258700  0.21670000  0.59812500  1
  Hf  Hf4  1  0.90741300  0.78330000  0.40187500  1
  Hf  Hf5  1  0.75621500  0.65619000  0.83138100  1
  Hf  Hf6  1  0.24378500  0.34381000  0.16861900  1
  Hf  Hf7  1  0.41240500  0.83138100  0.34381000  1
  Hf  Hf8  1  0.58759500  0.16861900  0.65619000  1
  Ni  Ni0  1  0.50000000  0.00000000  0.00000000  1
  Ni  Ni1  1  0.25000000  0.50000000  0.50000000  1
  Ni  Ni2  1  0.75000000  0.50000000  0.50000000  1
  Ni  Ni3  1  0.67466900  0.33647500  0.89438600  1
  Ni  Ni4  1  0.90553100  0.66352500  0.10561400  1
  Ni  Ni5  1  0.01114500  0.89438600  0.66352500  1
  Ni  Ni6  1  0.56905600  0.10561400  0.33647500  1
  Ni  Ni7  1  0.32533100  0.66352500  0.10561400  1
  Ni  Ni8  1  0.09446900  0.33647500  0.89438600  1
  Ni  Ni9  1  0.98885500  0.10561400  0.33647500  1
  Ni  Ni10  1  0.43094400  0.89438600  0.66352500  1
loop_
_geom_bond_atom_site_label_1
_geom_bond_atom_site_label_2
_geom_bond_distance
_geom_bond_site_symmetry_2
Hf0 Ni9 2.809432 1_455
Hf0 Ni8 2.809432 1_554
Hf0 Ni6 2.809432 1_455
Hf0 Ni10 2.809432 1_544
Hf0 Ni4 2.809432 1_445
Hf0 Ni5 2.809432 1_544
Hf0 Ni3 2.809435 1_454
Hf0 Ni7 2.809435 1_545
Hf0 Ni0 3.189483 1_555
Hf0 Ni0 3.189483 1_455
Hf1 Ni9 2.607953 1_555
Hf1 Ni6 2.607956 1_555
Hf1 Ni2 2.636670 1_555
Hf1 Ni1 2.636673 1_555
Hf1 Ni8 2.664208 1_654
Hf1 Ni3 2.664215 1_554
Hf1 Ni4 2.718022 1_555
Hf1 Ni7 2.718022 1_555
Hf2 Ni5 2.607953 1_555
Hf2 Ni10 2.607956 1_555
Hf2 Ni1 2.636670 1_555
Hf2 Ni2 2.636673 1_555
Hf2 Ni4 2.664208 1_456
Hf2 Ni7 2.664215 1_556
Hf2 Ni3 2.718022 1_555
Hf2 Ni8 2.718022 1_555
Hf3 Ni8 2.607956 1_555
Hf3 Ni3 2.607956 1_455
Hf3 Ni2 2.636670 1_455
Hf3 Ni1 2.636673 1_555
Hf3 Ni5 2.664208 1_545
Hf3 Ni10 2.664211 1_545
Hf3 Ni9 2.718022 1_455
Hf3 Ni6 2.718027 1_555
Hf4 Ni4 2.607956 1_555
Hf4 Ni7 2.607956 1_655
Hf4 Ni1 2.636670 1_655
Hf4 Ni2 2.636673 1_555
Hf4 Ni9 2.664208 1_565
Hf4 Ni6 2.664211 1_565
Hf4 Ni5 2.718022 1_655
Hf4 Ni10 2.718027 1_555
Hf5 Ni8 2.645955 1_655
Hf5 Ni3 2.645961 1_555
Hf5 Ni7 2.667537 1_556
Hf5 Ni4 2.667537 1_556
Hf5 Ni0 2.681855 1_566
Hf5 Ni5 2.754876 1_655
Hf5 Ni10 2.754880 1_555
Hf5 Ni1 3.020913 1_655
Hf5 Ni2 3.020916 1_555
Hf6 Ni4 2.645955 1_455
Hf6 Ni7 2.645961 1_555
Hf6 Ni3 2.667537 1_554
Hf6 Ni8 2.667537 1_554
Hf6 Ni0 2.681855 1_555
Hf6 Ni9 2.754876 1_455
Hf6 Ni6 2.754880 1_555
Hf6 Ni2 3.020913 1_455
Hf6 Ni1 3.020916 1_555
Hf7 Ni10 2.645955 1_555
Hf7 Ni5 2.645958 1_555
Hf7 Ni6 2.667537 1_565
Hf7 Ni9 2.667542 1_465
Hf7 Ni0 2.681855 1_565
Hf7 Ni7 2.754876 1_555
Hf7 Ni4 2.754876 1_555
Hf7 Ni2 3.020913 1_555
Hf7 Ni1 3.020916 1_555
Hf8 Ni6 2.645955 1_555
Hf8 Ni9 2.645958 1_555
Hf8 Ni10 2.667537 1_545
Hf8 Ni5 2.667542 1_645
Hf8 Ni0 2.681855 1_556
Hf8 Ni3 2.754876 1_555
Hf8 Ni8 2.754876 1_555
Hf8 Ni1 3.020913 1_555
Hf8 Ni2 3.020916 1_555
