# generated using pymatgen
data_FeN3Cl5
_symmetry_space_group_name_H-M   'P 1'
_cell_length_a   8.72816800
_cell_length_b   8.75366800
_cell_length_c   14.78545600
_cell_angle_alpha   90.00000000
_cell_angle_beta   90.00000000
_cell_angle_gamma   90.00000000
_symmetry_Int_Tables_number   1
_chemical_formula_structural   FeN3Cl5
_chemical_formula_sum   'Fe4 N12 Cl20'
_cell_volume   1129.66036453
_cell_formula_units_Z   4
loop_
 _symmetry_equiv_pos_site_id
 _symmetry_equiv_pos_as_xyz
  1  'x, y, z'
loop_
 _atom_site_type_symbol
 _atom_site_label
 _atom_site_symmetry_multiplicity
 _atom_site_fract_x
 _atom_site_fract_y
 _atom_site_fract_z
 _atom_site_occupancy
  Fe  Fe0  1  0.25000000  0.81074000  0.38842300  1
  Fe  Fe1  1  0.25000000  0.31074000  0.11157700  1
  Fe  Fe2  1  0.75000000  0.18926000  0.61157700  1
  Fe  Fe3  1  0.75000000  0.68926000  0.88842300  1
  N  N0  1  0.25000000  0.04083800  0.86147300  1
  N  N1  1  0.25000000  0.54083800  0.63852700  1
  N  N2  1  0.75000000  0.95916200  0.13852700  1
  N  N3  1  0.75000000  0.45916200  0.36147300  1
  N  N4  1  0.11807700  0.79985500  0.69366200  1
  N  N5  1  0.38192300  0.29985500  0.80633800  1
  N  N6  1  0.61807700  0.20014500  0.30633800  1
  N  N7  1  0.88192300  0.70014500  0.19366200  1
  N  N8  1  0.88192300  0.20014500  0.30633800  1
  N  N9  1  0.61807700  0.70014500  0.19366200  1
  N  N10  1  0.38192300  0.79985500  0.69366200  1
  N  N11  1  0.11807700  0.29985500  0.80633800  1
  Cl  Cl0  1  0.25000000  0.81229500  0.24447900  1
  Cl  Cl1  1  0.25000000  0.31229500  0.25552100  1
  Cl  Cl2  1  0.75000000  0.18770500  0.75552100  1
  Cl  Cl3  1  0.75000000  0.68770500  0.74447900  1
  Cl  Cl4  1  0.25000000  0.49692100  0.01971000  1
  Cl  Cl5  1  0.25000000  0.99692100  0.48029000  1
  Cl  Cl6  1  0.75000000  0.50307900  0.98029000  1
  Cl  Cl7  1  0.75000000  0.00307900  0.51971000  1
  Cl  Cl8  1  0.25000000  0.69687100  0.67188600  1
  Cl  Cl9  1  0.25000000  0.19687100  0.82811400  1
  Cl  Cl10  1  0.75000000  0.30312900  0.32811400  1
  Cl  Cl11  1  0.75000000  0.80312900  0.17188600  1
  Cl  Cl12  1  0.03396000  0.71091500  0.41720000  1
  Cl  Cl13  1  0.46604000  0.21091500  0.08280000  1
  Cl  Cl14  1  0.53396000  0.28908500  0.58280000  1
  Cl  Cl15  1  0.96604000  0.78908500  0.91720000  1
  Cl  Cl16  1  0.96604000  0.28908500  0.58280000  1
  Cl  Cl17  1  0.53396000  0.78908500  0.91720000  1
  Cl  Cl18  1  0.46604000  0.71091500  0.41720000  1
  Cl  Cl19  1  0.03396000  0.21091500  0.08280000  1
loop_
_geom_bond_atom_site_label_1
_geom_bond_atom_site_label_2
_geom_bond_distance
_geom_bond_site_symmetry_2
Cl0 Fe0 2.128321 1_555
Cl1 Fe1 2.128321 1_555
Cl2 Fe2 2.128321 1_555
Cl3 Fe3 2.128321 1_555
Cl4 Fe1 2.121581 1_555
Cl5 Fe0 2.121581 1_555
Cl6 Fe3 2.121581 1_555
Cl7 Fe2 2.121581 1_555
Cl8 N1 1.452188 1_555
Cl8 N10 1.497388 1_555
Cl8 N4 1.497388 1_555
Cl9 N0 1.452188 1_555
Cl9 N5 1.497388 1_555
Cl9 N11 1.497388 1_555
Cl10 N3 1.452188 1_555
Cl10 N8 1.497388 1_555
Cl10 N6 1.497388 1_555
Cl11 N2 1.452188 1_555
Cl11 N7 1.497388 1_555
Cl11 N9 1.497388 1_555
Cl12 Fe0 2.121376 1_555
Cl13 Fe1 2.121376 1_555
Cl14 Fe2 2.121376 1_555
Cl15 Fe3 2.121376 1_555
Cl16 Fe2 2.121376 1_555
Cl17 Fe3 2.121376 1_555
Cl18 Fe0 2.121376 1_555
Cl19 Fe1 2.121376 1_555
