# generated using pymatgen
data_TaAlNi6
_symmetry_space_group_name_H-M   'P 1'
_cell_length_a   5.07235193
_cell_length_b   5.07235193
_cell_length_c   8.21770529
_cell_angle_alpha   90.00000000
_cell_angle_beta   90.00000000
_cell_angle_gamma   120.00000690
_symmetry_Int_Tables_number   1
_chemical_formula_structural   TaAlNi6
_chemical_formula_sum   'Ta2 Al2 Ni12'
_cell_volume   183.10488033
_cell_formula_units_Z   2
loop_
 _symmetry_equiv_pos_site_id
 _symmetry_equiv_pos_as_xyz
  1  'x, y, z'
loop_
 _atom_site_type_symbol
 _atom_site_label
 _atom_site_symmetry_multiplicity
 _atom_site_fract_x
 _atom_site_fract_y
 _atom_site_fract_z
 _atom_site_occupancy
  Ta  Ta0  1  -0.00000000  -0.00000000  0.00000000  1
  Ta  Ta1  1  -0.00000000  -0.00000000  0.50000000  1
  Al  Al0  1  0.33333300  0.66666700  0.75000000  1
  Al  Al1  1  0.66666700  0.33333300  0.25000000  1
  Ni  Ni0  1  0.82645787  0.65291574  0.75000000  1
  Ni  Ni1  1  0.34708426  0.17354213  0.75000000  1
  Ni  Ni2  1  0.82645787  0.17354213  0.75000000  1
  Ni  Ni3  1  0.17354213  0.34708426  0.25000000  1
  Ni  Ni4  1  0.65291574  0.82645787  0.25000000  1
  Ni  Ni5  1  0.17354213  0.82645787  0.25000000  1
  Ni  Ni6  1  0.50000000  0.50000000  0.00000000  1
  Ni  Ni7  1  0.50000000  -0.00000000  0.00000000  1
  Ni  Ni8  1  -0.00000000  0.50000000  0.00000000  1
  Ni  Ni9  1  0.50000000  0.50000000  0.50000000  1
  Ni  Ni10  1  0.50000000  -0.00000000  0.50000000  1
  Ni  Ni11  1  -0.00000000  0.50000000  0.50000000  1
loop_
_geom_bond_atom_site_label_1
_geom_bond_atom_site_label_2
_geom_bond_distance
_geom_bond_site_symmetry_2
Al0 Ni11 2.522841 1_555
Al0 Ni10 2.522841 1_565
Al0 Ni8 2.522841 1_556
Al0 Ni7 2.522841 1_566
Al0 Ni6 2.522843 1_556
Al0 Ni9 2.522843 1_555
Al0 Ni0 2.536893 1_455
Al0 Ni1 2.536893 1_565
Al0 Ni2 2.536895 1_455
Al0 Ni2 2.536895 1_565
Al0 Ni1 2.536898 1_555
Al0 Ni0 2.536898 1_555
Al1 Ni7 2.522841 1_555
Al1 Ni11 2.522841 1_655
Al1 Ni8 2.522841 1_655
Al1 Ni10 2.522841 1_555
Al1 Ni9 2.522843 1_555
Al1 Ni6 2.522843 1_555
Al1 Ni4 2.536893 1_545
Al1 Ni3 2.536893 1_655
Al1 Ni5 2.536895 1_655
Al1 Ni5 2.536895 1_545
Al1 Ni3 2.536898 1_555
Al1 Ni4 2.536898 1_555
Ni0 Ni1 2.431551 1_555
Ni0 Ni2 2.431552 1_555
Ni0 Ni6 2.505979 1_556
Ni0 Ni9 2.505979 1_555
Ni0 Ni8 2.505979 1_656
Ni0 Ni11 2.505979 1_655
Ni0 Ta0 2.558374 1_666
Ni0 Ta1 2.558374 1_665
Ni0 Ni1 2.640800 1_665
Ni0 Ni2 2.640800 1_565
Ni1 Ni2 2.431552 1_555
Ni1 Ni6 2.505979 1_556
Ni1 Ni9 2.505979 1_555
Ni1 Ni7 2.505979 1_556
Ni1 Ni10 2.505979 1_555
Ni1 Ta0 2.558374 1_556
Ni1 Ta1 2.558374 1_555
Ni1 Ni2 2.640800 1_455
Ni2 Ni7 2.505979 1_556
Ni2 Ni8 2.505979 1_656
Ni2 Ta1 2.558374 1_655
Ni2 Ta0 2.558374 1_656
Ni3 Ni4 2.431551 1_555
Ni3 Ni5 2.431552 1_555
Ni3 Ni9 2.505979 1_555
Ni3 Ni6 2.505979 1_555
Ni3 Ni8 2.505979 1_555
Ni3 Ta0 2.558374 1_555
Ni3 Ta1 2.558374 1_555
Ni3 Ni4 2.640800 1_445
Ni3 Ni5 2.640800 1_545
Ni4 Ni5 2.431552 1_555
Ni4 Ni6 2.505979 1_555
Ni4 Ni9 2.505979 1_555
Ni4 Ni7 2.505979 1_565
Ni4 Ta1 2.558374 1_665
Ni4 Ta0 2.558374 1_665
Ni4 Ni5 2.640800 1_655
Ni5 Ni7 2.505979 1_565
Ni5 Ni8 2.505979 1_555
Ni5 Ta0 2.558374 1_565
Ni5 Ta1 2.558374 1_565
Ni6 Ta0 2.536176 1_555
Ni6 Ta0 2.536176 1_665
Ni6 Ni8 2.536176 1_555
Ni6 Ni7 2.536176 1_565
Ni6 Ni8 2.536176 1_655
Ni6 Ni7 2.536176 1_555
Ni7 Ni8 2.536176 1_655
Ni7 Ni8 2.536176 1_545
Ni7 Ta0 2.536176 1_655
Ni7 Ta0 2.536176 1_555
Ni8 Ta0 2.536176 1_565
Ni8 Ta0 2.536176 1_555
Ni9 Ta1 2.536176 1_665
Ni9 Ta1 2.536176 1_555
Ni10 Ni5 2.505979 1_545
Ni10 Ni2 2.505979 1_555
Ni10 Ni4 2.505979 1_545
Ni10 Ni11 2.536176 1_545
Ni10 Ni11 2.536176 1_655
Ni10 Ni9 2.536176 1_555
Ni10 Ta1 2.536176 1_655
Ni10 Ni9 2.536176 1_545
Ni10 Ta1 2.536176 1_555
Ni11 Ni2 2.505979 1_455
Ni11 Ni5 2.505979 1_555
Ni11 Ni3 2.505979 1_555
Ni11 Ni9 2.536176 1_455
Ni11 Ni9 2.536176 1_555
Ni11 Ta1 2.536176 1_565
Ni11 Ta1 2.536176 1_555
