# generated using pymatgen
data_Th(Al10V)2
_symmetry_space_group_name_H-M   'P 1'
_cell_length_a   10.21676635
_cell_length_b   10.21678134
_cell_length_c   10.21678040
_cell_angle_alpha   59.99987806
_cell_angle_beta   60.00002885
_cell_angle_gamma   60.00002990
_symmetry_Int_Tables_number   1
_chemical_formula_structural   Th(Al10V)2
_chemical_formula_sum   'Th2 Al40 V4'
_cell_volume   754.09561169
_cell_formula_units_Z   2
loop_
 _symmetry_equiv_pos_site_id
 _symmetry_equiv_pos_as_xyz
  1  'x, y, z'
loop_
 _atom_site_type_symbol
 _atom_site_label
 _atom_site_symmetry_multiplicity
 _atom_site_fract_x
 _atom_site_fract_y
 _atom_site_fract_z
 _atom_site_occupancy
  Th  Th0  1  0.50000182  0.49999638  0.49999955  1
  Th  Th1  1  0.74999943  0.74999998  0.75000170  1
  Al  Al0  1  0.12500518  0.62499699  0.62499874  1
  Al  Al1  1  0.62499853  0.12500474  0.62499806  1
  Al  Al2  1  0.62499909  0.62499690  0.12500492  1
  Al  Al3  1  0.62499903  0.62499708  0.62499867  1
  Al  Al4  1  0.86285543  0.86285106  0.13714320  1
  Al  Al5  1  0.13714910  0.13714423  0.86285038  1
  Al  Al6  1  0.86285547  0.13714420  0.86285032  1
  Al  Al7  1  0.13714937  0.86285123  0.13714321  1
  Al  Al8  1  0.13714532  0.86285498  0.86285418  1
  Al  Al9  1  0.86285440  0.13714616  0.13714488  1
  Al  Al10  1  0.38717069  0.38717936  0.11282493  1
  Al  Al11  1  0.11282547  0.11282573  0.38717958  1
  Al  Al12  1  0.38717005  0.11282574  0.38717967  1
  Al  Al13  1  0.11282591  0.38717937  0.11282488  1
  Al  Al14  1  0.11282240  0.38717721  0.38717816  1
  Al  Al15  1  0.38717222  0.11282855  0.11282726  1
  Al  Al16  1  0.56820928  0.29892967  0.29892955  1
  Al  Al17  1  0.29893134  0.56820849  0.83392859  1
  Al  Al18  1  0.29893094  0.83392858  0.56820939  1
  Al  Al19  1  0.83393160  0.29892968  0.29892946  1
  Al  Al20  1  0.29893079  0.29892805  0.56820796  1
  Al  Al21  1  0.56820878  0.83392829  0.29893108  1
  Al  Al22  1  0.83393313  0.56820695  0.29892839  1
  Al  Al23  1  0.29893074  0.29893123  0.83392813  1
  Al  Al24  1  0.29893132  0.56820693  0.29892843  1
  Al  Al25  1  0.83393300  0.29892807  0.56820795  1
  Al  Al26  1  0.56820888  0.29893115  0.83392816  1
  Al  Al27  1  0.29893082  0.83392829  0.29893113  1
  Al  Al28  1  0.68183678  0.95104382  0.95104280  1
  Al  Al29  1  0.95104235  0.68183690  0.41607850  1
  Al  Al30  1  0.95104244  0.41607756  0.68183776  1
  Al  Al31  1  0.41607645  0.95104390  0.95104278  1
  Al  Al32  1  0.95104222  0.95104531  0.68183809  1
  Al  Al33  1  0.68183787  0.41607835  0.95104201  1
  Al  Al34  1  0.41607521  0.68183764  0.95104469  1
  Al  Al35  1  0.95104227  0.95104256  0.41607858  1
  Al  Al36  1  0.95104261  0.68183761  0.95104471  1
  Al  Al37  1  0.41607453  0.95104536  0.68183807  1
  Al  Al38  1  0.68183745  0.95104262  0.41607860  1
  Al  Al39  1  0.95104276  0.41607836  0.95104193  1
  V  V0  1  0.62499061  0.12500393  0.12500295  1
  V  V1  1  0.12500227  0.62499341  0.12500256  1
  V  V2  1  0.12500197  0.12500350  0.62499247  1
  V  V3  1  0.12500267  0.12500393  0.12500297  1
loop_
_geom_bond_atom_site_label_1
_geom_bond_atom_site_label_2
_geom_bond_distance
_geom_bond_site_symmetry_2
Al0 Al39 3.094218 1_455
Al0 Al30 3.094224 1_455
Al0 Al23 3.094225 1_555
Al0 Al29 3.094228 1_455
Al0 Al35 3.094237 1_455
Al0 Al17 3.094239 1_555
Al0 Al27 3.094242 1_555
Al0 Al18 3.094248 1_555
Al0 Al36 3.094262 1_455
Al0 Al20 3.094268 1_555
Al0 Al24 3.094277 1_555
Al0 Al32 3.094278 1_455
Al0 Th0 3.128207 1_555
Al0 Th1 3.128283 1_455
Al1 Al38 3.094226 1_545
Al1 Al35 3.094230 1_545
Al1 Al37 3.094232 1_545
Al1 Al32 3.094235 1_545
Al1 Al31 3.094235 1_545
Al1 Al28 3.094235 1_545
Al1 Al26 3.094244 1_555
Al1 Al23 3.094248 1_555
Al1 Al20 3.094249 1_555
Al1 Al25 3.094249 1_555
Al1 Al16 3.094251 1_555
Al1 Al19 3.094253 1_555
Al1 Th0 3.128165 1_555
Al1 Th1 3.128275 1_545
Al2 Al33 3.094225 1_554
Al2 Al39 3.094229 1_554
Al2 Al34 3.094235 1_554
Al2 Al36 3.094236 1_554
Al2 Al22 3.094247 1_555
Al2 Al24 3.094249 1_555
Al2 Al21 3.094251 1_555
Al2 Al28 3.094252 1_554
Al2 Al31 3.094253 1_554
Al2 Al27 3.094255 1_555
Al2 Th0 3.128190 1_555
Al2 Th1 3.128262 1_554
Al3 Al33 3.094223 1_555
Al3 Al30 3.094226 1_555
Al3 Al38 3.094241 1_555
Al3 Al34 3.094262 1_555
Al3 Al37 3.094277 1_555
Al3 Th0 3.128212 1_555
Al3 Th1 3.128289 1_555
Al4 V1 2.560238 1_655
Al4 V0 2.560305 1_565
Al4 Al8 2.802354 1_654
Al4 Al6 2.802386 1_564
Al4 Al7 2.802398 1_655
Al4 Al9 2.802416 1_565
Al5 V2 2.560234 1_555
Al5 V3 2.560308 1_556
Al5 Al8 2.802353 1_545
Al5 Al7 2.802385 1_546
Al5 Al6 2.802394 1_455
Al5 Al9 2.802407 1_456
Al6 V2 2.560237 1_655
Al6 V0 2.560303 1_556
Al6 Al8 2.802355 1_645
Al6 Al9 2.802412 1_556
Al7 V1 2.560232 1_555
Al7 V3 2.560309 1_565
Al7 Al8 2.802352 1_554
Al7 Al9 2.802411 1_465
Al8 V1 2.560260 1_556
Al8 V2 2.560262 1_565
Al9 V0 2.560269 1_555
Al9 V3 2.560273 1_655
Al10 V1 2.560158 1_555
Al10 V0 2.560224 1_555
Al10 Al34 2.703155 1_554
Al10 Al33 2.703213 1_554
Al10 Al13 2.802917 1_555
Al10 Al15 2.802963 1_555
Al10 Al14 2.802981 1_555
Al10 Al12 2.803011 1_555
Al10 Al24 2.825569 1_555
Al10 Al17 2.825601 1_554
Al10 Al16 2.825629 1_555
Al10 Al26 2.825656 1_554
Al11 V2 2.560146 1_555
Al11 V3 2.560237 1_555
Al11 Al32 2.703159 1_445
Al11 Al35 2.703216 1_445
Al11 Al12 2.802915 1_555
Al11 Al14 2.802966 1_555
Al11 Al15 2.802968 1_555
Al11 Al13 2.803011 1_555
Al11 Al25 2.825569 1_455
Al11 Al18 2.825602 1_545
Al11 Al19 2.825634 1_455
Al11 Al27 2.825663 1_545
Al12 V2 2.560150 1_555
Al12 V0 2.560234 1_555
Al12 Al37 2.703156 1_545
Al12 Al38 2.703215 1_545
Al12 Al14 2.802969 1_555
Al12 Al15 2.802973 1_555
Al12 Al20 2.825565 1_555
Al12 Al18 2.825607 1_545
Al12 Al16 2.825627 1_555
Al12 Al21 2.825664 1_545
Al13 V1 2.560157 1_555
Al13 V3 2.560228 1_555
Al13 Al36 2.703157 1_454
Al13 Al39 2.703213 1_454
Al13 Al15 2.802959 1_555
Al13 Al14 2.802978 1_555
Al13 Al22 2.825572 1_455
Al13 Al17 2.825595 1_554
Al13 Al19 2.825635 1_455
Al13 Al23 2.825655 1_554
Al14 V2 2.560185 1_555
Al14 V1 2.560204 1_555
Al14 Al30 2.703156 1_455
Al14 Al29 2.703157 1_455
Al14 Al20 2.825589 1_555
Al14 Al24 2.825591 1_555
Al14 Al25 2.825591 1_455
Al14 Al22 2.825593 1_455
Al15 V0 2.560181 1_555
Al15 V3 2.560182 1_555
Al15 Al28 2.703216 1_544
Al15 Al31 2.703218 1_544
Al15 Al26 2.825628 1_554
Al15 Al23 2.825635 1_554
Al15 Al21 2.825638 1_545
Al15 Al27 2.825644 1_545
Al16 Al9 2.703112 1_555
Al16 Al19 2.714822 1_555
Al16 Al24 2.751150 1_555
Al16 Al20 2.751158 1_555
Al16 V0 2.783462 1_555
Al16 Al38 2.902134 1_545
Al16 Al33 2.902137 1_554
Al16 Al2 3.094243 1_555
Al16 Th0 3.206656 1_555
Al17 Al8 2.703134 1_555
Al17 Al18 2.714794 1_555
Al17 Al26 2.751148 1_555
Al17 Al23 2.751152 1_555
Al17 V1 2.783503 1_556
Al17 Al36 2.902148 1_455
Al17 Al34 2.902152 1_555
Al17 Al3 3.094240 1_555
Al17 Th0 3.206674 1_555
Al18 Al8 2.703121 1_555
Al18 Al21 2.751154 1_555
Al18 Al27 2.751159 1_555
Al18 V2 2.783503 1_565
Al18 Al32 2.902148 1_455
Al18 Al37 2.902151 1_555
Al18 Al3 3.094247 1_555
Al18 Th0 3.206692 1_555
Al19 Al9 2.703114 1_555
Al19 Al22 2.751149 1_555
Al19 Al25 2.751158 1_555
Al19 V3 2.783461 1_655
Al19 Al35 2.902134 1_545
Al19 Al39 2.902137 1_554
Al19 Al2 3.094242 1_555
Al19 Th0 3.206658 1_555
Al20 Al5 2.703083 1_555
Al20 Al23 2.714821 1_555
Al20 Al24 2.751162 1_555
Al20 V2 2.783451 1_555
Al20 Al37 2.902097 1_545
Al20 Al30 2.902144 1_455
Al20 Th0 3.206669 1_555
Al21 Al4 2.703120 1_555
Al21 Al22 2.714831 1_555
Al21 Al27 2.751150 1_555
Al21 V0 2.783498 1_565
Al21 Al28 2.902144 1_554
Al21 Al38 2.902164 1_555
Al21 Al3 3.094246 1_555
Al21 Th0 3.206670 1_555
Al22 Al4 2.703096 1_555
Al22 Al25 2.751162 1_555
Al22 V1 2.783462 1_655
Al22 Al36 2.902105 1_554
Al22 Al29 2.902153 1_555
Al22 Al3 3.094277 1_555
Al22 Th0 3.206680 1_555
Al23 Al5 2.703116 1_555
Al23 Al26 2.751152 1_555
Al23 V3 2.783485 1_556
Al23 Al31 2.902136 1_545
Al23 Al39 2.902142 1_455
Al23 Th0 3.206643 1_555
Al24 Al7 2.703099 1_555
Al24 Al27 2.714828 1_555
Al24 V1 2.783456 1_555
Al24 Al34 2.902105 1_554
Al24 Al29 2.902150 1_455
Al24 Th0 3.206679 1_555
Al25 Al6 2.703081 1_555
Al25 Al26 2.714824 1_555
Al25 V2 2.783452 1_655
Al25 Al32 2.902098 1_545
Al25 Al30 2.902149 1_555
Al25 Al3 3.094268 1_555
Al25 Th0 3.206670 1_555
Al26 Al6 2.703117 1_555
Al26 V0 2.783490 1_556
Al26 Al28 2.902136 1_545
Al26 Al33 2.902160 1_555
Al26 Al3 3.094231 1_555
Al26 Th0 3.206641 1_555
Al27 Al7 2.703119 1_555
Al27 V3 2.783493 1_565
Al27 Al31 2.902144 1_554
Al27 Al35 2.902146 1_455
Al27 Th0 3.206672 1_555
Al28 Al31 2.715211 1_555
Al28 Al32 2.750408 1_555
Al28 Al36 2.750418 1_555
Al28 V0 2.783770 1_566
Al28 Al4 2.825624 1_556
Al28 Al6 2.825625 1_565
Al28 Th1 3.206400 1_555
Al29 Al30 2.715200 1_555
Al29 Al38 2.750411 1_555
Al29 Al35 2.750415 1_555
Al29 V1 2.783773 1_655
Al29 Al7 2.825667 1_655
Al29 Al4 2.825671 1_555
Al29 Al3 3.094228 1_555
Al29 Th1 3.206408 1_555
Al30 Al33 2.750402 1_555
Al30 Al39 2.750406 1_555
Al30 V2 2.783765 1_655
Al30 Al5 2.825650 1_655
Al30 Al6 2.825655 1_555
Al30 Th1 3.206406 1_555
Al31 Al37 2.750408 1_555
Al31 Al34 2.750418 1_555
Al31 V3 2.783767 1_566
Al31 Al7 2.825630 1_556
Al31 Al5 2.825631 1_565
Al31 Th1 3.206402 1_555
Al32 Al35 2.715220 1_555
Al32 Al36 2.750425 1_555
Al32 V2 2.783746 1_665
Al32 Al6 2.825584 1_565
Al32 Al8 2.825634 1_655
Al32 Th1 3.206416 1_555
Al33 Al34 2.715221 1_555
Al33 Al39 2.750403 1_555
Al33 V0 2.783771 1_556
Al33 Al9 2.825646 1_556
Al33 Al6 2.825693 1_555
Al33 Th1 3.206381 1_555
Al34 Al37 2.750426 1_555
Al34 V1 2.783745 1_556
Al34 Al7 2.825594 1_556
Al34 Al8 2.825643 1_555
Al34 Th1 3.206407 1_555
Al35 Al38 2.750402 1_555
Al35 V3 2.783776 1_665
Al35 Al9 2.825662 1_565
Al35 Al7 2.825701 1_655
Al35 Th1 3.206397 1_555
Al36 Al39 2.715218 1_555
Al36 V1 2.783748 1_656
Al36 Al4 2.825590 1_556
Al36 Al8 2.825641 1_655
Al36 Th1 3.206405 1_555
Al37 Al38 2.715223 1_555
Al37 V2 2.783747 1_565
Al37 Al5 2.825588 1_565
Al37 Al8 2.825637 1_555
Al37 Th1 3.206419 1_555
Al38 V0 2.783779 1_565
Al38 Al9 2.825657 1_565
Al38 Al4 2.825702 1_555
Al38 Th1 3.206396 1_555
Al39 V3 2.783767 1_656
Al39 Al9 2.825652 1_556
Al39 Al5 2.825692 1_655
Al39 Th1 3.206382 1_555
