# generated using pymatgen
data_Mg6CdIn
_symmetry_space_group_name_H-M   'P 1'
_cell_length_a   6.28673584
_cell_length_b   6.28673584
_cell_length_c   5.08272054
_cell_angle_alpha   90.00000000
_cell_angle_beta   90.00000000
_cell_angle_gamma   120.00000168
_symmetry_Int_Tables_number   1
_chemical_formula_structural   Mg6CdIn
_chemical_formula_sum   'Mg6 Cd1 In1'
_cell_volume   173.97116857
_cell_formula_units_Z   1
loop_
 _symmetry_equiv_pos_site_id
 _symmetry_equiv_pos_as_xyz
  1  'x, y, z'
loop_
 _atom_site_type_symbol
 _atom_site_label
 _atom_site_symmetry_multiplicity
 _atom_site_fract_x
 _atom_site_fract_y
 _atom_site_fract_z
 _atom_site_occupancy
  Mg  Mg0  1  0.66681908  0.83340954  0.50000000  1
  Mg  Mg1  1  0.16659046  0.83340954  0.50000000  1
  Mg  Mg2  1  0.16659046  0.33318092  0.50000000  1
  Mg  Mg3  1  0.33493189  0.16746594  -0.00000000  1
  Mg  Mg4  1  0.83253406  0.16746594  0.00000000  1
  Mg  Mg5  1  0.83253406  0.66506811  0.00000000  1
  Cd  Cd0  1  0.66666700  0.33333300  0.50000000  1
  In  In0  1  0.33333300  0.66666700  0.00000000  1
loop_
_geom_bond_atom_site_label_1
_geom_bond_atom_site_label_2
_geom_bond_distance
_geom_bond_site_symmetry_2
Mg0 Mg4 3.125135 1_565
Mg0 Mg4 3.125135 1_566
Mg0 Mg5 3.125136 1_556
Mg0 Mg5 3.125136 1_555
Mg0 Mg2 3.141931 1_665
Mg0 Mg1 3.141931 1_655
Mg0 Mg2 3.144805 1_555
Mg0 Mg1 3.144805 1_555
Mg1 Mg5 3.125135 1_456
Mg1 Mg5 3.125135 1_455
Mg1 Mg3 3.125135 1_566
Mg1 Mg3 3.125135 1_565
Mg1 Mg2 3.141931 1_565
Mg1 Mg2 3.144805 1_555
Mg2 Mg4 3.125135 1_456
Mg2 Mg4 3.125135 1_455
Mg2 Mg3 3.125136 1_555
Mg2 Mg3 3.125136 1_556
Mg3 Mg5 3.128293 1_555
Mg3 Mg4 3.128293 1_555
Mg3 Mg5 3.158442 1_445
Mg3 Mg4 3.158442 1_455
Mg4 Mg5 3.128293 1_555
Mg4 Mg5 3.158442 1_545
Cd0 Mg4 3.117783 1_555
Cd0 Mg4 3.117783 1_556
Cd0 Mg5 3.117786 1_556
Cd0 Mg3 3.117786 1_556
Cd0 Mg5 3.117786 1_555
Cd0 Mg3 3.117786 1_555
Cd0 Mg0 3.143365 1_545
Cd0 Mg2 3.143365 1_655
Cd0 Mg1 3.143368 1_545
Cd0 Mg1 3.143368 1_655
Cd0 Mg2 3.143371 1_555
Cd0 Mg0 3.143371 1_555
In0 Mg1 3.123315 1_555
In0 Mg1 3.123315 1_554
In0 Mg0 3.123318 1_554
In0 Mg0 3.123318 1_555
In0 Mg2 3.123318 1_554
In0 Mg2 3.123318 1_555
In0 Mg5 3.143377 1_455
In0 Mg3 3.143377 1_565
In0 Mg4 3.143380 1_565
In0 Mg4 3.143380 1_455
In0 Mg5 3.143383 1_555
In0 Mg3 3.143383 1_555
