# generated using pymatgen
data_FeSi2N3
_symmetry_space_group_name_H-M   'P 1'
_cell_length_a   5.39651014
_cell_length_b   5.40140306
_cell_length_c   4.80548900
_cell_angle_alpha   90.00000000
_cell_angle_beta   90.00000000
_cell_angle_gamma   120.02999428
_symmetry_Int_Tables_number   1
_chemical_formula_structural   FeSi2N3
_chemical_formula_sum   'Fe2 Si4 N6'
_cell_volume   121.27086093
_cell_formula_units_Z   2
loop_
 _symmetry_equiv_pos_site_id
 _symmetry_equiv_pos_as_xyz
  1  'x, y, z'
loop_
 _atom_site_type_symbol
 _atom_site_label
 _atom_site_symmetry_multiplicity
 _atom_site_fract_x
 _atom_site_fract_y
 _atom_site_fract_z
 _atom_site_occupancy
  Fe  Fe0  1  0.00000000  0.60493400  0.47685700  1
  Fe  Fe1  1  0.00000000  0.39506600  0.97685700  1
  Si  Si0  1  0.33355600  0.32405100  0.49992700  1
  Si  Si1  1  0.66644400  0.99049400  0.49992700  1
  Si  Si2  1  0.66644400  0.67594900  0.99992700  1
  Si  Si3  1  0.33355600  0.00950600  0.99992700  1
  N  N0  1  0.39658200  0.34344200  0.86260600  1
  N  N1  1  0.60341800  0.94686000  0.86260600  1
  N  N2  1  0.60341800  0.65655800  0.36260600  1
  N  N3  1  0.39658200  0.05314000  0.36260600  1
  N  N4  1  0.00000000  0.76187200  0.88607700  1
  N  N5  1  0.00000000  0.23812800  0.38607800  1
loop_
_geom_bond_atom_site_label_1
_geom_bond_atom_site_label_2
_geom_bond_distance
_geom_bond_site_symmetry_2
Fe0 N5 2.028724 1_555
Fe0 N4 2.141425 1_555
Fe0 N2 2.357281 1_455
Fe0 N3 2.357282 1_565
Fe1 N4 2.028725 1_555
Fe1 N5 2.141430 1_556
Fe1 N0 2.357281 1_555
Fe1 N1 2.357282 1_445
N0 Si0 1.768763 1_555
N0 Si2 1.778770 1_555
N0 Si3 1.786203 1_555
N1 Si1 1.768763 1_555
N1 Si3 1.778774 1_565
N1 Si2 1.786208 1_555
N2 Si2 1.768763 1_554
N2 Si0 1.778770 1_555
N2 Si1 1.786203 1_555
N3 Si3 1.768763 1_554
N3 Si1 1.778774 1_545
N3 Si0 1.786208 1_555
N4 Si2 1.708418 1_455
N4 Si3 1.708419 1_565
N5 Si0 1.708416 1_555
N5 Si1 1.708418 1_445
