# generated using pymatgen
data_TiNi
_symmetry_space_group_name_H-M   'P 1'
_cell_length_a   5.79743543
_cell_length_b   7.97408068
_cell_length_c   9.79016313
_cell_angle_alpha   90.00000000
_cell_angle_beta   107.01033474
_cell_angle_gamma   90.00000000
_symmetry_Int_Tables_number   1
_chemical_formula_structural   TiNi
_chemical_formula_sum   'Ti16 Ni16'
_cell_volume   432.79160922
_cell_formula_units_Z   16
loop_
 _symmetry_equiv_pos_site_id
 _symmetry_equiv_pos_as_xyz
  1  'x, y, z'
loop_
 _atom_site_type_symbol
 _atom_site_label
 _atom_site_symmetry_multiplicity
 _atom_site_fract_x
 _atom_site_fract_y
 _atom_site_fract_z
 _atom_site_occupancy
  Ti  Ti0_0  1  0.17930789  0.12500000  0.35761687  1
  Ti  Ti0_1  1  0.17930789  0.12500000  0.85761687  1
  Ti  Ti0_2  1  0.17930789  0.62500000  0.35761687  1
  Ti  Ti0_3  1  0.17930789  0.62500000  0.85761687  1
  Ti  Ti0_4  1  0.67930789  0.12500000  0.35761687  1
  Ti  Ti0_5  1  0.67930789  0.12500000  0.85761686  1
  Ti  Ti0_6  1  0.67930789  0.62500000  0.35761687  1
  Ti  Ti0_7  1  0.67930789  0.62500000  0.85761686  1
  Ti  Ti1_0  1  0.32069211  0.37500000  0.14238313  1
  Ti  Ti1_1  1  0.32069211  0.37500000  0.64238313  1
  Ti  Ti1_2  1  0.32069211  0.87500000  0.14238313  1
  Ti  Ti1_3  1  0.32069211  0.87500000  0.64238313  1
  Ti  Ti1_4  1  0.82069211  0.37500000  0.14238313  1
  Ti  Ti1_5  1  0.82069211  0.37500000  0.64238313  1
  Ti  Ti1_6  1  0.82069211  0.87500000  0.14238313  1
  Ti  Ti1_7  1  0.82069211  0.87500000  0.64238313  1
  Ni  Ni0_0  1  0.04231883  0.12500000  0.08536248  1
  Ni  Ni0_1  1  0.04231883  0.12500000  0.58536248  1
  Ni  Ni0_2  1  0.04231883  0.62500000  0.08536248  1
  Ni  Ni0_3  1  0.04231883  0.62500000  0.58536248  1
  Ni  Ni0_4  1  0.54231883  0.12500000  0.08536248  1
  Ni  Ni0_5  1  0.54231883  0.12500000  0.58536248  1
  Ni  Ni0_6  1  0.54231883  0.62500000  0.08536248  1
  Ni  Ni0_7  1  0.54231883  0.62500000  0.58536248  1
  Ni  Ni1_0  1  0.45768117  0.37500000  0.41463752  1
  Ni  Ni1_1  1  0.45768117  0.37500000  0.91463752  1
  Ni  Ni1_2  1  0.45768117  0.87500000  0.41463752  1
  Ni  Ni1_3  1  0.45768117  0.87500000  0.91463752  1
  Ni  Ni1_4  1  0.95768117  0.37500000  0.41463752  1
  Ni  Ni1_5  1  0.95768117  0.37500000  0.91463752  1
  Ni  Ni1_6  1  0.95768117  0.87500000  0.41463752  1
  Ni  Ni1_7  1  0.95768117  0.87500000  0.91463752  1
loop_
_geom_bond_atom_site_label_1
_geom_bond_atom_site_label_2
_geom_bond_distance
_geom_bond_site_symmetry_2
Ni0_0 Ti1_4 2.521171 1_455
Ni0_0 Ti1_6 2.521171 1_445
Ni0_0 Ti1_2 2.522529 1_545
Ni0_0 Ti1_0 2.522529 1_555
Ni0_0 Ti0_0 2.548849 1_555
Ni0_0 Ni1_7 2.555132 1_444
Ni0_0 Ni1_5 2.555132 1_454
Ni0_0 Ti0_1 2.576470 1_554
Ni0_0 Ti0_5 2.579728 1_454
Ni0_0 Ni0_4 2.898718 1_555
Ni0_0 Ni0_4 2.898718 1_455
Ni0_1 Ti1_5 2.521171 1_455
Ni0_1 Ti1_7 2.521171 1_445
Ni0_1 Ti1_1 2.522529 1_555
Ni0_1 Ti1_3 2.522529 1_545
Ni0_1 Ti0_1 2.548849 1_555
Ni0_1 Ni1_4 2.555132 1_455
Ni0_1 Ni1_6 2.555132 1_445
Ni0_1 Ti0_0 2.576470 1_555
Ni0_1 Ti0_4 2.579728 1_455
Ni0_1 Ni0_5 2.898718 1_455
Ni0_1 Ni0_5 2.898718 1_555
Ni0_2 Ti1_6 2.521171 1_455
Ni0_2 Ti1_4 2.521171 1_455
Ni0_2 Ti1_2 2.522529 1_555
Ni0_2 Ti1_0 2.522529 1_555
Ni0_2 Ti0_2 2.548849 1_555
Ni0_2 Ni1_5 2.555132 1_454
Ni0_2 Ni1_7 2.555132 1_454
Ni0_2 Ti0_3 2.576470 1_554
Ni0_2 Ti0_7 2.579728 1_454
Ni0_2 Ni0_6 2.898718 1_455
Ni0_2 Ni0_6 2.898718 1_555
Ni0_3 Ti1_5 2.521171 1_455
Ni0_3 Ti1_7 2.521171 1_455
Ni0_3 Ti1_1 2.522529 1_555
Ni0_3 Ti1_3 2.522529 1_555
Ni0_3 Ti0_3 2.548849 1_555
Ni0_3 Ni1_6 2.555132 1_455
Ni0_3 Ni1_4 2.555132 1_455
Ni0_3 Ti0_2 2.576470 1_555
Ni0_3 Ti0_6 2.579728 1_455
Ni0_3 Ni0_7 2.898718 1_455
Ni0_3 Ni0_7 2.898718 1_555
Ni0_4 Ti1_0 2.521171 1_555
Ni0_4 Ti1_2 2.521171 1_545
Ni0_4 Ti1_4 2.522529 1_555
Ni0_4 Ti1_6 2.522529 1_545
Ni0_4 Ti0_4 2.548849 1_555
Ni0_4 Ni1_3 2.555132 1_544
Ni0_4 Ni1_1 2.555132 1_554
Ni0_4 Ti0_5 2.576470 1_554
Ni0_4 Ti0_1 2.579728 1_554
Ni0_5 Ti1_1 2.521171 1_555
Ni0_5 Ti1_3 2.521171 1_545
Ni0_5 Ti1_5 2.522529 1_555
Ni0_5 Ti1_7 2.522529 1_545
Ni0_5 Ti0_5 2.548849 1_555
Ni0_5 Ni1_2 2.555132 1_545
Ni0_5 Ni1_0 2.555132 1_555
Ni0_5 Ti0_4 2.576470 1_555
Ni0_5 Ti0_0 2.579728 1_555
Ni0_6 Ti1_0 2.521171 1_555
Ni0_6 Ti1_2 2.521171 1_555
Ni0_6 Ti1_4 2.522529 1_555
Ni0_6 Ti1_6 2.522529 1_555
Ni0_6 Ti0_6 2.548849 1_555
Ni0_6 Ni1_3 2.555132 1_554
Ni0_6 Ni1_1 2.555132 1_554
Ni0_6 Ti0_7 2.576470 1_554
Ni0_6 Ti0_3 2.579728 1_554
Ni0_7 Ti1_1 2.521171 1_555
Ni0_7 Ti1_3 2.521171 1_555
Ni0_7 Ti1_7 2.522529 1_555
Ni0_7 Ti1_5 2.522529 1_555
Ni0_7 Ti0_7 2.548849 1_555
Ni0_7 Ni1_0 2.555132 1_555
Ni0_7 Ni1_2 2.555132 1_555
Ni0_7 Ti0_6 2.576470 1_555
Ni0_7 Ti0_2 2.579728 1_555
Ni1_0 Ti0_6 2.521171 1_555
Ni1_0 Ti0_4 2.521171 1_555
Ni1_0 Ti0_0 2.522529 1_555
Ni1_0 Ti0_2 2.522529 1_555
Ni1_0 Ti1_0 2.548849 1_555
Ni1_0 Ti1_1 2.576470 1_555
Ni1_0 Ti1_5 2.579728 1_555
Ni1_0 Ni1_4 2.898718 1_555
Ni1_0 Ni1_4 2.898718 1_455
Ni1_1 Ti0_7 2.521171 1_555
Ni1_1 Ti0_5 2.521171 1_555
Ni1_1 Ti0_1 2.522529 1_555
Ni1_1 Ti0_3 2.522529 1_555
Ni1_1 Ti1_1 2.548849 1_555
Ni1_1 Ti1_0 2.576470 1_556
Ni1_1 Ti1_4 2.579728 1_556
Ni1_1 Ni1_5 2.898718 1_455
Ni1_1 Ni1_5 2.898718 1_555
Ni1_2 Ti0_4 2.521171 1_565
Ni1_2 Ti0_6 2.521171 1_555
Ni1_2 Ti0_0 2.522529 1_565
Ni1_2 Ti0_2 2.522529 1_555
Ni1_2 Ti1_2 2.548849 1_555
Ni1_2 Ti1_3 2.576470 1_555
Ni1_2 Ti1_7 2.579728 1_555
Ni1_2 Ni1_6 2.898718 1_455
Ni1_2 Ni1_6 2.898718 1_555
Ni1_3 Ti0_7 2.521171 1_555
Ni1_3 Ti0_5 2.521171 1_565
Ni1_3 Ti0_1 2.522529 1_565
Ni1_3 Ti0_3 2.522529 1_555
Ni1_3 Ti1_3 2.548849 1_555
Ni1_3 Ti1_2 2.576470 1_556
Ni1_3 Ti1_6 2.579728 1_556
Ni1_3 Ni1_7 2.898718 1_455
Ni1_3 Ni1_7 2.898718 1_555
Ni1_4 Ti0_2 2.521171 1_655
Ni1_4 Ti0_0 2.521171 1_655
Ni1_4 Ti0_4 2.522529 1_555
Ni1_4 Ti0_6 2.522529 1_555
Ni1_4 Ti1_4 2.548849 1_555
Ni1_4 Ti1_5 2.576470 1_555
Ni1_4 Ti1_1 2.579728 1_655
Ni1_5 Ti0_1 2.521171 1_655
Ni1_5 Ti0_3 2.521171 1_655
Ni1_5 Ti0_5 2.522529 1_555
Ni1_5 Ti0_7 2.522529 1_555
Ni1_5 Ti1_5 2.548849 1_555
Ni1_5 Ti1_4 2.576470 1_556
Ni1_5 Ti1_0 2.579728 1_656
Ni1_6 Ti0_2 2.521171 1_655
Ni1_6 Ti0_0 2.521171 1_665
Ni1_6 Ti0_6 2.522529 1_555
Ni1_6 Ti0_4 2.522529 1_565
Ni1_6 Ti1_6 2.548849 1_555
Ni1_6 Ti1_7 2.576470 1_555
Ni1_6 Ti1_3 2.579728 1_655
Ni1_7 Ti0_1 2.521171 1_665
Ni1_7 Ti0_3 2.521171 1_655
Ni1_7 Ti0_5 2.522529 1_565
Ni1_7 Ti0_7 2.522529 1_555
Ni1_7 Ti1_7 2.548849 1_555
Ni1_7 Ti1_6 2.576470 1_556
Ni1_7 Ti1_2 2.579728 1_656
