# generated using pymatgen
data_Zr3Mn
_symmetry_space_group_name_H-M   'P 1'
_cell_length_a   5.45465047
_cell_length_b   5.45465047
_cell_length_c   5.45465047
_cell_angle_alpha   133.43310640
_cell_angle_beta   133.43310640
_cell_angle_gamma   67.97479439
_symmetry_Int_Tables_number   1
_chemical_formula_structural   Zr3Mn
_chemical_formula_sum   'Zr3 Mn1'
_cell_volume   84.10259424
_cell_formula_units_Z   1
loop_
 _symmetry_equiv_pos_site_id
 _symmetry_equiv_pos_as_xyz
  1  'x, y, z'
loop_
 _atom_site_type_symbol
 _atom_site_label
 _atom_site_symmetry_multiplicity
 _atom_site_fract_x
 _atom_site_fract_y
 _atom_site_fract_z
 _atom_site_occupancy
  Zr  Zr0  1  0.75000000  0.25000000  0.50000000  1
  Zr  Zr1  1  0.25000000  0.75000000  0.50000000  1
  Zr  Zr2  1  0.50000000  0.50000000  0.00000000  1
  Mn  Mn0  1  0.00000000  0.00000000  0.00000000  1
loop_
_geom_bond_atom_site_label_1
_geom_bond_atom_site_label_2
_geom_bond_distance
_geom_bond_site_symmetry_2
Zr0 Zr1 3.049207 1_555
Zr0 Zr1 3.049207 1_645
Zr0 Zr1 3.049207 1_656
Zr0 Zr1 3.049207 1_544
Zr0 Zr2 3.124535 1_556
Zr0 Zr2 3.124535 1_555
Zr0 Zr2 3.124535 1_545
Zr0 Zr2 3.124535 1_656
Zr1 Zr2 3.124535 1_556
Zr1 Zr2 3.124535 1_555
Zr1 Zr2 3.124535 1_455
Zr1 Zr2 3.124535 1_566
Mn0 Zr2 3.049207 1_545
Mn0 Zr2 3.049207 1_455
Mn0 Zr2 3.049207 1_556
Mn0 Zr2 3.049207 1_444
Mn0 Zr1 3.124535 1_444
Mn0 Zr1 3.124535 1_544
Mn0 Zr0 3.124535 1_455
Mn0 Zr0 3.124535 1_555
Mn0 Zr1 3.124535 1_555
Mn0 Zr0 3.124535 1_444
Mn0 Zr1 3.124535 1_545
Mn0 Zr0 3.124535 1_454
