# generated using pymatgen
data_Co3Mo
_symmetry_space_group_name_H-M   'P 1'
_cell_length_a   5.25427929
_cell_length_b   5.26584400
_cell_length_c   16.47849000
_cell_angle_alpha   90.00000000
_cell_angle_beta   90.00000000
_cell_angle_gamma   59.92716451
_symmetry_Int_Tables_number   1
_chemical_formula_structural   Co3Mo
_chemical_formula_sum   'Co24 Mo8'
_cell_volume   394.55720095
_cell_formula_units_Z   8
loop_
 _symmetry_equiv_pos_site_id
 _symmetry_equiv_pos_as_xyz
  1  'x, y, z'
loop_
 _atom_site_type_symbol
 _atom_site_label
 _atom_site_symmetry_multiplicity
 _atom_site_fract_x
 _atom_site_fract_y
 _atom_site_fract_z
 _atom_site_occupancy
  Co  Co0_0  1  0.16703700  0.16648150  0.43750000  1
  Co  Co0_1  1  0.16703700  0.16648150  0.93750000  1
  Co  Co0_2  1  0.16703700  0.66648150  0.43750000  1
  Co  Co0_3  1  0.16703700  0.66648150  0.93750000  1
  Co  Co0_4  1  0.66703700  0.16648150  0.43750000  1
  Co  Co0_5  1  0.66703700  0.16648150  0.93750000  1
  Co  Co0_6  1  0.66703700  0.66648150  0.43750000  1
  Co  Co0_7  1  0.66703700  0.66648150  0.93750000  1
  Co  Co1_0  1  0.33298200  0.33350900  0.05549000  1
  Co  Co1_1  1  0.33298200  0.33350900  0.55549000  1
  Co  Co1_2  1  0.33298200  0.83350900  0.05549000  1
  Co  Co1_3  1  0.33298200  0.83350900  0.55549000  1
  Co  Co1_4  1  0.83298200  0.33350900  0.05549000  1
  Co  Co1_5  1  0.83298200  0.33350900  0.55549000  1
  Co  Co1_6  1  0.83298200  0.83350900  0.05549000  1
  Co  Co1_7  1  0.83298200  0.83350900  0.55549000  1
  Co  Co2_0  1  0.33298200  0.33350900  0.31951000  1
  Co  Co2_1  1  0.33298200  0.33350900  0.81951000  1
  Co  Co2_2  1  0.33298200  0.83350900  0.31951000  1
  Co  Co2_3  1  0.33298200  0.83350900  0.81951000  1
  Co  Co2_4  1  0.83298200  0.33350900  0.31951000  1
  Co  Co2_5  1  0.83298200  0.33350900  0.81951000  1
  Co  Co2_6  1  0.83298200  0.83350900  0.31951000  1
  Co  Co2_7  1  0.83298200  0.83350900  0.81951000  1
  Mo  Mo0_0  1  0.16699900  0.16650050  0.18750000  1
  Mo  Mo0_1  1  0.16699900  0.16650050  0.68750000  1
  Mo  Mo0_2  1  0.16699900  0.66650050  0.18750000  1
  Mo  Mo0_3  1  0.16699900  0.66650050  0.68750000  1
  Mo  Mo0_4  1  0.66699900  0.16650050  0.18750000  1
  Mo  Mo0_5  1  0.66699900  0.16650050  0.68750000  1
  Mo  Mo0_6  1  0.66699900  0.66650050  0.18750000  1
  Mo  Mo0_7  1  0.66699900  0.66650050  0.68750000  1
loop_
_geom_bond_atom_site_label_1
_geom_bond_atom_site_label_2
_geom_bond_distance
_geom_bond_site_symmetry_2
Co0_0 Co2_0 2.466315 1_555
Co0_0 Co2_2 2.466315 1_545
Co0_0 Co1_1 2.466315 1_555
Co0_0 Co1_3 2.466315 1_545
Co0_0 Co2_4 2.467284 1_455
Co0_0 Co1_5 2.467284 1_455
Co0_0 Co0_4 2.627140 1_455
Co0_0 Co0_4 2.627140 1_555
Co0_0 Co0_6 2.627140 1_455
Co0_0 Co0_6 2.627140 1_545
Co0_0 Co0_2 2.632922 1_545
Co0_0 Co0_2 2.632922 1_555
Co0_1 Co2_1 2.466315 1_555
Co0_1 Co1_2 2.466315 1_546
Co0_1 Co2_3 2.466315 1_545
Co0_1 Co1_0 2.466315 1_556
Co0_1 Co2_5 2.467284 1_455
Co0_1 Co1_4 2.467284 1_456
Co0_1 Co0_5 2.627140 1_455
Co0_1 Co0_5 2.627140 1_555
Co0_1 Co0_7 2.627140 1_455
Co0_1 Co0_7 2.627140 1_545
Co0_1 Co0_3 2.632922 1_545
Co0_1 Co0_3 2.632922 1_555
Co0_2 Co2_2 2.466315 1_555
Co0_2 Co2_0 2.466315 1_555
Co0_2 Co1_3 2.466315 1_555
Co0_2 Co1_1 2.466315 1_555
Co0_2 Co2_6 2.467284 1_455
Co0_2 Co1_7 2.467284 1_455
Co0_2 Co0_6 2.627140 1_555
Co0_2 Co0_4 2.627140 1_465
Co0_2 Co0_6 2.627140 1_455
Co0_2 Co0_4 2.627140 1_555
Co0_3 Co2_1 2.466315 1_555
Co0_3 Co1_0 2.466315 1_556
Co0_3 Co2_3 2.466315 1_555
Co0_3 Co1_2 2.466315 1_556
Co0_3 Co2_7 2.467284 1_455
Co0_3 Co1_6 2.467284 1_456
Co0_3 Co0_7 2.627140 1_555
Co0_3 Co0_5 2.627140 1_465
Co0_3 Co0_7 2.627140 1_455
Co0_3 Co0_5 2.627140 1_555
Co0_4 Co2_4 2.466315 1_555
Co0_4 Co2_6 2.466315 1_545
Co0_4 Co1_7 2.466315 1_545
Co0_4 Co1_5 2.466315 1_555
Co0_4 Co2_0 2.467284 1_555
Co0_4 Co1_1 2.467284 1_555
Co0_4 Co0_6 2.632922 1_545
Co0_4 Co0_6 2.632922 1_555
Co0_5 Co2_7 2.466315 1_545
Co0_5 Co1_6 2.466315 1_546
Co0_5 Co1_4 2.466315 1_556
Co0_5 Co2_5 2.466315 1_555
Co0_5 Co2_1 2.467284 1_555
Co0_5 Co1_0 2.467284 1_556
Co0_5 Co0_7 2.632922 1_545
Co0_5 Co0_7 2.632922 1_555
Co0_6 Co2_4 2.466315 1_555
Co0_6 Co2_6 2.466315 1_555
Co0_6 Co1_7 2.466315 1_555
Co0_6 Co1_5 2.466315 1_555
Co0_6 Co2_2 2.467284 1_555
Co0_6 Co1_3 2.467284 1_555
Co0_7 Co1_6 2.466315 1_556
Co0_7 Co1_4 2.466315 1_556
Co0_7 Co2_5 2.466315 1_555
Co0_7 Co2_7 2.466315 1_555
Co0_7 Co2_3 2.467284 1_555
Co0_7 Co1_2 2.467284 1_556
Co1_0 Co1_4 2.627140 1_455
Co1_0 Co1_4 2.627140 1_555
Co1_0 Co1_6 2.627140 1_545
Co1_0 Co1_6 2.627140 1_455
Co1_0 Co1_2 2.632922 1_545
Co1_0 Co1_2 2.632922 1_555
Co1_0 Mo0_2 2.652304 1_555
Co1_0 Mo0_0 2.652304 1_555
Co1_0 Mo0_4 2.653058 1_555
Co1_1 Co1_5 2.627140 1_555
Co1_1 Co1_5 2.627140 1_455
Co1_1 Co1_7 2.627140 1_545
Co1_1 Co1_7 2.627140 1_455
Co1_1 Co1_3 2.632922 1_545
Co1_1 Co1_3 2.632922 1_555
Co1_1 Mo0_3 2.652304 1_555
Co1_1 Mo0_1 2.652304 1_555
Co1_1 Mo0_5 2.653058 1_555
Co1_2 Co1_6 2.627140 1_455
Co1_2 Co1_6 2.627140 1_555
Co1_2 Co1_4 2.627140 1_555
Co1_2 Co1_4 2.627140 1_465
Co1_2 Mo0_0 2.652304 1_565
Co1_2 Mo0_2 2.652304 1_555
Co1_2 Mo0_6 2.653058 1_555
Co1_3 Co1_7 2.627140 1_455
Co1_3 Co1_7 2.627140 1_555
Co1_3 Co1_5 2.627140 1_465
Co1_3 Co1_5 2.627140 1_555
Co1_3 Mo0_1 2.652304 1_565
Co1_3 Mo0_3 2.652304 1_555
Co1_3 Mo0_7 2.653058 1_555
Co1_4 Co1_6 2.632922 1_545
Co1_4 Co1_6 2.632922 1_555
Co1_4 Mo0_6 2.652304 1_555
Co1_4 Mo0_4 2.652304 1_555
Co1_4 Mo0_0 2.653058 1_655
Co1_5 Co1_7 2.632922 1_545
Co1_5 Co1_7 2.632922 1_555
Co1_5 Mo0_7 2.652304 1_555
Co1_5 Mo0_5 2.652304 1_555
Co1_5 Mo0_1 2.653058 1_655
Co1_6 Mo0_4 2.652304 1_565
Co1_6 Mo0_6 2.652304 1_555
Co1_6 Mo0_2 2.653058 1_655
Co1_7 Mo0_5 2.652304 1_565
Co1_7 Mo0_7 2.652304 1_555
Co1_7 Mo0_3 2.653058 1_655
Co2_0 Co2_4 2.627140 1_455
Co2_0 Co2_4 2.627140 1_555
Co2_0 Co2_6 2.627140 1_455
Co2_0 Co2_6 2.627140 1_545
Co2_0 Co2_2 2.632922 1_545
Co2_0 Co2_2 2.632922 1_555
Co2_0 Mo0_2 2.652304 1_555
Co2_0 Mo0_0 2.652304 1_555
Co2_0 Mo0_4 2.653058 1_555
Co2_1 Co2_5 2.627140 1_555
Co2_1 Co2_5 2.627140 1_455
Co2_1 Co2_7 2.627140 1_545
Co2_1 Co2_7 2.627140 1_455
Co2_1 Co2_3 2.632922 1_545
Co2_1 Co2_3 2.632922 1_555
Co2_1 Mo0_3 2.652304 1_555
Co2_1 Mo0_1 2.652304 1_555
Co2_1 Mo0_5 2.653058 1_555
Co2_2 Co2_6 2.627140 1_455
Co2_2 Co2_6 2.627140 1_555
Co2_2 Co2_4 2.627140 1_555
Co2_2 Co2_4 2.627140 1_465
Co2_2 Mo0_0 2.652304 1_565
Co2_2 Mo0_2 2.652304 1_555
Co2_2 Mo0_6 2.653058 1_555
Co2_3 Co2_7 2.627140 1_555
Co2_3 Co2_7 2.627140 1_455
Co2_3 Co2_5 2.627140 1_555
Co2_3 Co2_5 2.627140 1_465
Co2_3 Mo0_1 2.652304 1_565
Co2_3 Mo0_3 2.652304 1_555
Co2_3 Mo0_7 2.653058 1_555
Co2_4 Co2_6 2.632922 1_545
Co2_4 Co2_6 2.632922 1_555
Co2_4 Mo0_6 2.652304 1_555
Co2_4 Mo0_4 2.652304 1_555
Co2_4 Mo0_0 2.653058 1_655
Co2_5 Co2_7 2.632922 1_545
Co2_5 Co2_7 2.632922 1_555
Co2_5 Mo0_7 2.652304 1_555
Co2_5 Mo0_5 2.652304 1_555
Co2_5 Mo0_1 2.653058 1_655
Co2_6 Mo0_4 2.652304 1_565
Co2_6 Mo0_6 2.652304 1_555
Co2_6 Mo0_2 2.653058 1_655
Co2_7 Mo0_5 2.652304 1_565
Co2_7 Mo0_7 2.652304 1_555
Co2_7 Mo0_3 2.653058 1_655
Mo0_0 Mo0_6 2.627140 1_545
Mo0_0 Mo0_4 2.627140 1_555
Mo0_0 Mo0_4 2.627140 1_455
Mo0_0 Mo0_6 2.627140 1_455
Mo0_0 Mo0_2 2.632922 1_555
Mo0_0 Mo0_2 2.632922 1_545
Mo0_1 Mo0_7 2.627140 1_545
Mo0_1 Mo0_5 2.627140 1_555
Mo0_1 Mo0_5 2.627140 1_455
Mo0_1 Mo0_7 2.627140 1_455
Mo0_1 Mo0_3 2.632922 1_555
Mo0_1 Mo0_3 2.632922 1_545
Mo0_2 Mo0_6 2.627140 1_455
Mo0_2 Mo0_4 2.627140 1_555
Mo0_2 Mo0_6 2.627140 1_555
Mo0_2 Mo0_4 2.627140 1_465
Mo0_3 Mo0_7 2.627140 1_455
Mo0_3 Mo0_7 2.627140 1_555
Mo0_3 Mo0_5 2.627140 1_555
Mo0_3 Mo0_5 2.627140 1_465
Mo0_4 Mo0_6 2.632922 1_545
Mo0_4 Mo0_6 2.632922 1_555
Mo0_5 Mo0_7 2.632922 1_545
Mo0_5 Mo0_7 2.632922 1_555
