# generated using pymatgen
data_PrEuHfMnO6
_symmetry_space_group_name_H-M   'P 1'
_cell_length_a   5.65096020
_cell_length_b   5.65098934
_cell_length_c   5.65097244
_cell_angle_alpha   59.99969067
_cell_angle_beta   60.00003311
_cell_angle_gamma   60.00032092
_symmetry_Int_Tables_number   1
_chemical_formula_structural   PrEuHfMnO6
_chemical_formula_sum   'Pr1 Eu1 Hf1 Mn1 O6'
_cell_volume   127.60129293
_cell_formula_units_Z   1
loop_
 _symmetry_equiv_pos_site_id
 _symmetry_equiv_pos_as_xyz
  1  'x, y, z'
loop_
 _atom_site_type_symbol
 _atom_site_label
 _atom_site_symmetry_multiplicity
 _atom_site_fract_x
 _atom_site_fract_y
 _atom_site_fract_z
 _atom_site_occupancy
  Pr  Pr0  1  0.74999904  0.74999960  0.75000099  1
  Eu  Eu0  1  0.25000076  0.25000178  0.24999809  1
  Hf  Hf0  1  0.00000025  0.99999966  0.99999954  1
  Mn  Mn0  1  0.50000026  0.50000005  0.50000026  1
  O  O0  1  0.74669097  0.25330987  0.25330889  1
  O  O1  1  0.25330965  0.74668950  0.74669114  1
  O  O2  1  0.74668652  0.25331249  0.74668833  1
  O  O3  1  0.25331285  0.74668705  0.25331261  1
  O  O4  1  0.74668719  0.74668727  0.25331261  1
  O  O5  1  0.25331250  0.25331274  0.74668755  1
loop_
_geom_bond_atom_site_label_1
_geom_bond_atom_site_label_2
_geom_bond_distance
_geom_bond_site_symmetry_2
Eu0 O1 2.825586 1_554
Eu0 O2 2.825596 1_554
Eu0 O0 2.825602 1_555
Eu0 O5 2.825605 1_554
Eu0 O0 2.825606 1_455
Eu0 O3 2.825611 1_555
Eu0 O5 2.825615 1_555
Eu0 O1 2.825616 1_545
Eu0 O2 2.825621 1_455
Eu0 O4 2.825623 1_455
Eu0 O3 2.825627 1_545
Eu0 O4 2.825628 1_545
Hf0 O1 2.024380 1_555
Hf0 O0 2.024384 1_466
Hf0 O5 2.024386 1_565
Hf0 O4 2.024386 1_456
Hf0 O2 2.024390 1_465
Hf0 O3 2.024393 1_556
Mn0 O4 1.971437 1_555
Mn0 O5 1.971440 1_555
Mn0 O2 1.971443 1_555
Mn0 O3 1.971446 1_555
Mn0 O1 1.971482 1_555
Mn0 O0 1.971487 1_555
O0 Pr0 2.825594 1_554
O0 Pr0 2.825608 1_545
O1 Pr0 2.825600 1_555
O1 Pr0 2.825608 1_455
O2 Pr0 2.825617 1_555
O2 Pr0 2.825620 1_545
O3 Pr0 2.825602 1_554
O3 Pr0 2.825615 1_455
O4 Pr0 2.825607 1_554
O4 Pr0 2.825613 1_555
O5 Pr0 2.825624 1_545
O5 Pr0 2.825626 1_455
