# generated using pymatgen
data_Ca2Cu(CO)2
_symmetry_space_group_name_H-M   'P 1'
_cell_length_a   3.80430700
_cell_length_b   3.80430700
_cell_length_c   6.86020300
_cell_angle_alpha   90.00000000
_cell_angle_beta   90.00000000
_cell_angle_gamma   90.00000000
_symmetry_Int_Tables_number   1
_chemical_formula_structural   Ca2Cu(CO)2
_chemical_formula_sum   'Ca2 Cu1 C2 O2'
_cell_volume   99.28601498
_cell_formula_units_Z   1
loop_
 _symmetry_equiv_pos_site_id
 _symmetry_equiv_pos_as_xyz
  1  'x, y, z'
loop_
 _atom_site_type_symbol
 _atom_site_label
 _atom_site_symmetry_multiplicity
 _atom_site_fract_x
 _atom_site_fract_y
 _atom_site_fract_z
 _atom_site_occupancy
  Ca  Ca0  1  0.50000000  0.50000000  0.72567000  1
  Ca  Ca1  1  0.50000000  0.50000000  0.27433000  1
  Cu  Cu0  1  0.00000000  0.00000000  0.50000000  1
  C  C0  1  0.00000000  0.00000000  0.90792600  1
  C  C1  1  0.00000000  0.00000000  0.09207400  1
  O  O0  1  0.00000000  0.50000000  0.50000000  1
  O  O1  1  0.50000000  0.00000000  0.50000000  1
loop_
_geom_bond_atom_site_label_1
_geom_bond_atom_site_label_2
_geom_bond_distance
_geom_bond_site_symmetry_2
Ca0 O1 2.452536 1_555
Ca0 O1 2.452536 1_565
Ca0 O0 2.452536 1_555
Ca0 O0 2.452536 1_655
Ca1 O0 2.452536 1_655
Ca1 O1 2.452536 1_555
Ca1 O1 2.452536 1_565
Ca1 O0 2.452536 1_555
Cu0 O0 1.902154 1_555
Cu0 O1 1.902154 1_455
Cu0 O1 1.902154 1_555
Cu0 O0 1.902154 1_545
C0 C1 1.263293 1_556
C0 Ca0 2.966422 1_545
C0 Ca0 2.966422 1_445
C0 Ca0 2.966422 1_455
C0 Ca0 2.966422 1_555
C1 Ca1 2.966422 1_445
C1 Ca1 2.966422 1_455
C1 Ca1 2.966422 1_545
C1 Ca1 2.966422 1_555
