# generated using pymatgen
data_Ag4C(NO3)3
_symmetry_space_group_name_H-M   'P 1'
_cell_length_a   7.99917944
_cell_length_b   8.07807168
_cell_length_c   8.12514652
_cell_angle_alpha   106.85495138
_cell_angle_beta   104.95891600
_cell_angle_gamma   104.95350346
_symmetry_Int_Tables_number   1
_chemical_formula_structural   Ag4C(NO3)3
_chemical_formula_sum   'Ag8 C2 N6 O18'
_cell_volume   452.89550032
_cell_formula_units_Z   2
loop_
 _symmetry_equiv_pos_site_id
 _symmetry_equiv_pos_as_xyz
  1  'x, y, z'
loop_
 _atom_site_type_symbol
 _atom_site_label
 _atom_site_symmetry_multiplicity
 _atom_site_fract_x
 _atom_site_fract_y
 _atom_site_fract_z
 _atom_site_occupancy
  Ag  Ag0  1  0.74211300  0.74829200  0.74322900  1
  Ag  Ag1  1  0.25788700  0.25170800  0.25677100  1
  Ag  Ag2  1  0.24365600  0.86142600  0.14104700  1
  Ag  Ag3  1  0.13112100  0.24331100  0.85898600  1
  Ag  Ag4  1  0.85899300  0.13280700  0.23475800  1
  Ag  Ag5  1  0.75634400  0.13857400  0.85895300  1
  Ag  Ag6  1  0.86887900  0.75668900  0.14101400  1
  Ag  Ag7  1  0.14100700  0.86719300  0.76524200  1
  C  C0  1  0.02179000  0.96691800  0.06371900  1
  C  C1  1  0.97821000  0.03308200  0.93628100  1
  N  N0  1  0.15917800  0.60640100  0.36880700  1
  N  N1  1  0.37038400  0.15979000  0.61156100  1
  N  N2  1  0.61030900  0.36901000  0.15847500  1
  N  N3  1  0.84082200  0.39359900  0.63119300  1
  N  N4  1  0.62961600  0.84021000  0.38843900  1
  N  N5  1  0.38969100  0.63099000  0.84152500  1
  O  O0  1  0.55255300  0.87061800  0.24751300  1
  O  O1  1  0.24792700  0.55402200  0.87311900  1
  O  O2  1  0.87208200  0.24983200  0.55362400  1
  O  O3  1  0.44744700  0.12938200  0.75248700  1
  O  O4  1  0.75207300  0.44597800  0.12688100  1
  O  O5  1  0.12791800  0.75016800  0.44637600  1
  O  O6  1  0.16839900  0.57408000  0.20965900  1
  O  O7  1  0.20985000  0.16743100  0.58309000  1
  O  O8  1  0.58343000  0.20925100  0.16473700  1
  O  O9  1  0.83160100  0.42592000  0.79034100  1
  O  O10  1  0.79015000  0.83256900  0.41691000  1
  O  O11  1  0.41657000  0.79074900  0.83526300  1
  O  O12  1  0.17944300  0.49494600  0.44786000  1
  O  O13  1  0.45110800  0.18045500  0.50033600  1
  O  O14  1  0.49598700  0.44771600  0.18120500  1
  O  O15  1  0.82055700  0.50505400  0.55214000  1
  O  O16  1  0.54889200  0.81954500  0.49966400  1
  O  O17  1  0.50401300  0.55228400  0.81879500  1
loop_
_geom_bond_atom_site_label_1
_geom_bond_atom_site_label_2
_geom_bond_distance
_geom_bond_site_symmetry_2
Ag0 C1 2.335711 1_565
Ag0 O15 2.456689 1_555
Ag0 O17 2.474409 1_555
Ag0 O16 2.485403 1_555
Ag1 C0 2.335711 1_545
Ag1 O12 2.456689 1_555
Ag1 O14 2.474409 1_555
Ag1 O13 2.485403 1_555
Ag2 C0 2.187695 1_555
Ag2 O0 2.371471 1_555
Ag2 O6 2.502737 1_555
Ag3 C1 2.172019 1_455
Ag3 O1 2.398588 1_555
Ag3 O7 2.434900 1_555
Ag4 O8 2.413013 1_555
Ag4 O2 2.450637 1_555
Ag4 C0 2.485526 1_645
Ag5 C1 2.187695 1_555
Ag5 O3 2.371471 1_555
Ag5 O9 2.502737 1_555
Ag6 C0 2.172019 1_655
Ag6 O4 2.398588 1_555
Ag6 O10 2.434900 1_555
Ag7 O11 2.413013 1_555
Ag7 O5 2.450637 1_555
Ag7 C1 2.485526 1_465
C0 C1 1.307704 1_464
N0 O12 1.267434 1_555
N0 O6 1.268508 1_555
N0 O5 1.270936 1_555
N1 O13 1.262796 1_555
N1 O7 1.265767 1_555
N1 O3 1.276055 1_555
N2 O14 1.262446 1_555
N2 O8 1.270767 1_555
N2 O4 1.271769 1_555
N3 O15 1.267434 1_555
N3 O9 1.268508 1_555
N3 O2 1.270936 1_555
N4 O16 1.262796 1_555
N4 O10 1.265767 1_555
N4 O0 1.276055 1_555
N5 O17 1.262446 1_555
N5 O11 1.270767 1_555
N5 O1 1.271769 1_555
