# generated using pymatgen
data_SrYCoO4
_symmetry_space_group_name_H-M   'P 1'
_cell_length_a   5.38683077
_cell_length_b   5.38807740
_cell_length_c   12.85107838
_cell_angle_alpha   77.89214407
_cell_angle_beta   102.10462817
_cell_angle_gamma   90.02181585
_symmetry_Int_Tables_number   1
_chemical_formula_structural   SrYCoO4
_chemical_formula_sum   'Sr4 Y4 Co4 O16'
_cell_volume   356.22091749
_cell_formula_units_Z   4
loop_
 _symmetry_equiv_pos_site_id
 _symmetry_equiv_pos_as_xyz
  1  'x, y, z'
loop_
 _atom_site_type_symbol
 _atom_site_label
 _atom_site_symmetry_multiplicity
 _atom_site_fract_x
 _atom_site_fract_y
 _atom_site_fract_z
 _atom_site_occupancy
  Sr  Sr0  1  0.82174700  0.17820700  0.64389000  1
  Sr  Sr1  1  0.32240900  0.67760400  0.64527300  1
  Sr  Sr2  1  0.57245000  0.92754900  0.14550200  1
  Sr  Sr3  1  0.07183500  0.42817200  0.14395000  1
  Y  Y0  1  0.93071400  0.56932700  0.86060000  1
  Y  Y1  1  0.43120000  0.06874500  0.86217000  1
  Y  Y2  1  0.68078700  0.31937400  0.36066900  1
  Y  Y3  1  0.18128700  0.81869200  0.36215400  1
  Co  Co0  1  0.74973500  0.75022500  0.49948900  1
  Co  Co1  1  0.49977800  0.50022700  0.99953000  1
  Co  Co2  1  0.25197400  0.24808000  0.50388600  1
  Co  Co3  1  0.00188000  0.99803000  0.00384800  1
  O  O0  1  0.91711600  0.08305800  0.83389700  1
  O  O1  1  0.41959100  0.58018000  0.83932800  1
  O  O2  1  0.66974800  0.83029000  0.33947400  1
  O  O3  1  0.16667600  0.33316400  0.33382200  1
  O  O4  1  0.83783800  0.66207900  0.67600400  1
  O  O5  1  0.34071900  0.15940800  0.68139600  1
  O  O6  1  0.58789300  0.41205700  0.17630100  1
  O  O7  1  0.09061300  0.90940000  0.18141200  1
  O  O8  1  0.73549400  0.74800900  0.98744500  1
  O  O9  1  0.25207700  0.26442400  0.98752300  1
  O  O10  1  0.48730800  0.49880200  0.48924100  1
  O  O11  1  0.00204000  0.01186500  0.48930600  1
  O  O12  1  0.23757100  0.76200700  0.98923600  1
  O  O13  1  0.75181000  0.24874400  0.98931600  1
  O  O14  1  0.98476700  0.51368900  0.48767800  1
  O  O15  1  0.50294400  0.99858900  0.48766600  1
loop_
_geom_bond_atom_site_label_1
_geom_bond_atom_site_label_2
_geom_bond_distance
_geom_bond_site_symmetry_2
Co0 O15 1.847318 1_555
Co0 O14 1.847499 1_555
Co0 O10 1.961181 1_555
Co0 O11 1.961490 1_665
Co0 O2 1.963871 1_555
Co0 O4 2.166377 1_555
Co1 O9 1.847448 1_555
Co1 O8 1.847500 1_555
Co1 O12 1.961356 1_555
Co1 O13 1.961443 1_555
Co1 O1 1.966166 1_555
Co1 O6 2.169519 1_556
Co2 O10 1.859987 1_555
Co2 O11 1.860265 1_555
Co2 O14 1.978419 1_455
Co2 O15 1.978730 1_545
Co2 O3 2.087203 1_555
Co2 O5 2.178588 1_555
Co3 O13 1.861290 1_464
Co3 O12 1.861682 1_554
Co3 O8 1.977157 1_454
Co3 O9 1.977755 1_564
Co3 O0 2.085816 1_464
Co3 O7 2.179251 1_555
O0 Sr0 2.331965 1_555
O0 Y0 2.711882 1_555
O0 Y1 2.715384 1_655
O0 Y0 2.715917 1_545
O0 Y1 2.715967 1_555
O1 Sr1 2.381647 1_555
O1 Y0 2.703436 1_455
O1 Y1 2.708521 1_565
O1 Y0 2.708642 1_555
O1 Y1 2.708650 1_555
O2 Sr2 2.380628 1_555
O2 Y2 2.704870 1_565
O2 Y3 2.706703 1_555
O2 Y2 2.708268 1_555
O2 Y3 2.708819 1_655
O3 Sr3 2.330308 1_555
O3 Y2 2.709829 1_455
O3 Y3 2.714765 1_555
O3 Y2 2.717162 1_555
O3 Y3 2.718010 1_545
O4 Y0 2.265558 1_555
O4 Sr1 2.719368 1_655
O4 Sr1 2.720022 1_555
O4 Sr0 2.722354 1_555
O4 Sr0 2.723080 1_565
O5 Y1 2.218648 1_555
O5 Sr1 2.729576 1_545
O5 Sr1 2.730972 1_555
O5 Sr0 2.731319 1_555
O5 Sr0 2.733615 1_455
O6 Y2 2.262761 1_555
O6 Sr2 2.719949 1_545
O6 Sr2 2.720907 1_555
O6 Sr3 2.721884 1_555
O6 Sr3 2.723162 1_655
O7 Y3 2.218256 1_555
O7 Sr2 2.728143 1_555
O7 Sr2 2.730327 1_455
O7 Sr3 2.732790 1_555
O7 Sr3 2.733190 1_565
O8 Y1 2.448165 1_565
O8 Y0 2.463347 1_555
O8 Sr3 2.705123 1_656
O8 Sr2 2.721422 1_556
O9 Y1 2.450084 1_555
O9 Y0 2.459682 1_455
O9 Sr3 2.706575 1_556
O9 Sr2 2.716939 1_546
O10 Y3 2.459217 1_555
O10 Y2 2.478725 1_555
O10 Sr0 2.690703 1_555
O10 Sr1 2.701109 1_555
O11 Y3 2.462053 1_545
O11 Y2 2.475111 1_455
O11 Sr0 2.692537 1_455
O11 Sr1 2.697532 1_545
O12 Y1 2.463085 1_565
O12 Y0 2.472969 1_455
O12 Sr3 2.688600 1_556
O12 Sr2 2.704341 1_556
O13 Y1 2.464389 1_555
O13 Y0 2.473313 1_555
O13 Sr3 2.687654 1_656
O13 Sr2 2.704088 1_546
O14 Y3 2.454852 1_655
O14 Y2 2.456886 1_555
O14 Sr0 2.698979 1_555
O14 Sr1 2.719207 1_655
O15 Y3 2.454782 1_555
O15 Y2 2.457619 1_565
O15 Sr0 2.698955 1_565
O15 Sr1 2.719294 1_555
