# generated using pymatgen
data_Sr2Ca2Ga(CuO3)3
_symmetry_space_group_name_H-M   'P 1'
_cell_length_a   15.41222772
_cell_length_b   15.41222772
_cell_length_c   15.41222772
_cell_angle_alpha   159.86534473
_cell_angle_beta   159.52327445
_cell_angle_gamma   28.87200104
_symmetry_Int_Tables_number   1
_chemical_formula_structural   Sr2Ca2Ga(CuO3)3
_chemical_formula_sum   'Sr4 Ca4 Ga2 Cu6 O18'
_cell_volume   440.62764385
_cell_formula_units_Z   2
loop_
 _symmetry_equiv_pos_site_id
 _symmetry_equiv_pos_as_xyz
  1  'x, y, z'
loop_
 _atom_site_type_symbol
 _atom_site_label
 _atom_site_symmetry_multiplicity
 _atom_site_fract_x
 _atom_site_fract_y
 _atom_site_fract_z
 _atom_site_occupancy
  Sr  Sr0  1  0.68723200  0.18897600  0.53099200  1
  Sr  Sr1  1  0.31276800  0.84376000  0.50174400  1
  Sr  Sr2  1  0.15798500  0.68897600  0.50174400  1
  Sr  Sr3  1  0.84201500  0.34376000  0.53099200  1
  Ca  Ca0  1  0.55461900  0.06697900  0.50957800  1
  Ca  Ca1  1  0.44538100  0.95496000  0.51236000  1
  Ca  Ca2  1  0.05740000  0.56697900  0.51236000  1
  Ca  Ca3  1  0.94260000  0.45496000  0.50957800  1
  Ga  Ga0  1  0.32082700  0.31125500  0.13208200  1
  Ga  Ga1  1  0.67917300  0.81125500  0.99042800  1
  Cu  Cu0  1  0.00000000  0.00969300  0.00969300  1
  Cu  Cu1  1  0.50000000  0.50969300  0.00969300  1
  Cu  Cu2  1  0.11405200  0.12603200  0.01243900  1
  Cu  Cu3  1  0.88594800  0.89838700  0.01198000  1
  Cu  Cu4  1  0.61359300  0.62603200  0.01198000  1
  Cu  Cu5  1  0.38640700  0.39838700  0.01243900  1
  O  O0  1  0.73612500  0.68736400  0.03780200  1
  O  O1  1  0.26387500  0.30167800  0.95124000  1
  O  O2  1  0.14956200  0.18736400  0.95124000  1
  O  O3  1  0.85043800  0.80167800  0.03780200  1
  O  O4  1  0.85402400  0.86972300  0.51293300  1
  O  O5  1  0.14597600  0.65890900  0.01569900  1
  O  O6  1  0.85679000  0.36972300  0.01569900  1
  O  O7  1  0.14321000  0.15890900  0.51293300  1
  O  O8  1  0.25022700  0.25968700  0.50826000  1
  O  O9  1  0.74977300  0.25803300  0.00946000  1
  O  O10  1  0.25142700  0.75968700  0.00946000  1
  O  O11  1  0.74857300  0.75803300  0.50826000  1
  O  O12  1  0.36458300  0.66250400  0.52708700  1
  O  O13  1  0.63541700  0.16250400  0.29792100  1
  O  O14  1  0.36013600  0.37004100  0.51315500  1
  O  O15  1  0.63986400  0.15301900  0.00990500  1
  O  O16  1  0.35688600  0.87004100  0.00990500  1
  O  O17  1  0.64311400  0.65301900  0.51315500  1
loop_
_geom_bond_atom_site_label_1
_geom_bond_atom_site_label_2
_geom_bond_distance
_geom_bond_site_symmetry_2
Ca0 O4 2.411825 1_545
Ca0 O6 2.440455 1_556
Ca0 O14 2.471851 1_555
Ca0 O16 2.478359 1_545
Ca0 O8 2.522281 1_555
Ca0 O10 2.530854 1_545
Ca0 O9 2.562979 1_556
Ca0 O11 2.571377 1_545
Ca1 O5 2.411834 1_555
Ca1 O7 2.440461 1_565
Ca1 O15 2.471860 1_566
Ca1 O17 2.478372 1_555
Ca1 O9 2.522271 1_566
Ca1 O11 2.530847 1_555
Ca1 O8 2.562966 1_565
Ca1 O10 2.571367 1_555
Ca2 O6 2.411834 1_455
Ca2 O4 2.440461 1_455
Ca2 O16 2.471860 1_556
Ca2 O14 2.478372 1_555
Ca2 O10 2.522271 1_556
Ca2 O8 2.530847 1_555
Ca2 O11 2.562966 1_455
Ca2 O9 2.571367 1_455
Ca3 O7 2.411843 1_655
Ca3 O5 2.440473 1_656
Ca3 O17 2.471869 1_555
Ca3 O15 2.478378 1_555
Ca3 O11 2.522262 1_555
Ca3 O9 2.530835 1_555
Ca3 O10 2.562959 1_656
Ca3 O8 2.571358 1_655
Ga0 O1 1.852361 1_554
Ga0 O2 1.852374 1_554
Ga0 O13 1.900839 1_555
Ga0 O12 1.907750 1_555
Ga1 O0 1.852362 1_556
Ga1 O3 1.852374 1_556
Ga1 O12 1.900839 1_555
Ga1 O13 1.907750 1_566
Cu0 O8 1.915790 1_555
Cu0 O9 1.915790 1_455
Cu0 O11 1.926771 1_444
Cu0 O10 1.926771 1_545
Cu1 O10 1.915790 1_555
Cu1 O11 1.915790 1_555
Cu1 O8 1.926771 1_554
Cu1 O9 1.926771 1_555
Cu2 O16 1.923018 1_545
Cu2 O14 1.930545 1_555
Cu2 O4 1.935884 1_444
Cu2 O6 1.940941 1_455
Cu2 O2 2.372789 1_554
Cu3 O17 1.923018 1_554
Cu3 O15 1.930545 1_565
Cu3 O5 1.935884 1_655
Cu3 O7 1.940941 1_665
Cu3 O3 2.372789 1_555
Cu4 O14 1.923018 1_554
Cu4 O16 1.930545 1_555
Cu4 O6 1.935884 1_555
Cu4 O4 1.940941 1_555
Cu4 O0 2.372804 1_555
Cu5 O15 1.923018 1_555
Cu5 O17 1.930545 1_555
Cu5 O7 1.935884 1_554
Cu5 O5 1.940941 1_555
Cu5 O1 2.372804 1_554
O0 Sr2 2.499129 1_655
O0 Sr0 2.650937 1_554
O0 Sr0 2.880293 1_565
O0 Sr2 3.118013 1_554
O1 Sr3 2.499129 1_455
O1 Sr1 2.650942 1_545
O1 Sr1 2.880288 1_556
O1 Sr3 3.118013 1_556
O2 Sr0 2.499129 1_455
O2 Sr2 2.650935 1_545
O2 Sr2 2.880281 1_556
O2 Sr0 3.118013 1_556
O3 Sr1 2.499129 1_655
O3 Sr3 2.650930 1_554
O3 Sr3 2.880287 1_565
O3 Sr1 3.118013 1_554
O4 Sr2 2.737118 1_655
O4 Sr0 2.740845 1_565
O5 Sr3 2.737115 1_454
O5 Sr1 2.740845 1_555
O6 Sr0 2.737104 1_554
O6 Sr2 2.740856 1_655
O7 Sr1 2.737104 1_545
O7 Sr3 2.740858 1_455
O12 Sr2 2.480221 1_555
O12 Sr1 2.480237 1_555
O13 Sr3 2.480223 1_555
O13 Sr0 2.480237 1_555
O14 Sr0 2.735385 1_555
O14 Sr2 2.770283 1_555
O15 Sr1 2.735385 1_544
O15 Sr3 2.770286 1_555
O16 Sr2 2.735395 1_554
O16 Sr0 2.770276 1_565
O17 Sr3 2.735393 1_555
O17 Sr1 2.770276 1_555
