# generated using pymatgen
data_Rb2Te2Pd
_symmetry_space_group_name_H-M   'P 1'
_cell_length_a   7.05291063
_cell_length_b   7.05291063
_cell_length_c   7.05291063
_cell_angle_alpha   146.56331068
_cell_angle_beta   109.11692081
_cell_angle_gamma   80.67745374
_symmetry_Int_Tables_number   1
_chemical_formula_structural   Rb2Te2Pd
_chemical_formula_sum   'Rb2 Te2 Pd1'
_cell_volume   178.43258674
_cell_formula_units_Z   1
loop_
 _symmetry_equiv_pos_site_id
 _symmetry_equiv_pos_as_xyz
  1  'x, y, z'
loop_
 _atom_site_type_symbol
 _atom_site_label
 _atom_site_symmetry_multiplicity
 _atom_site_fract_x
 _atom_site_fract_y
 _atom_site_fract_z
 _atom_site_occupancy
  Rb  Rb0  1  0.69783263  0.19783263  0.50000000  1
  Rb  Rb1  1  0.30216737  0.80216737  0.50000000  1
  Te  Te0  1  0.21257439  0.50000000  0.71257439  1
  Te  Te1  1  0.78742561  0.50000000  0.28742561  1
  Pd  Pd0  1  -0.00000000  -0.00000000  -0.00000000  1
loop_
_geom_bond_atom_site_label_1
_geom_bond_atom_site_label_2
_geom_bond_distance
_geom_bond_site_symmetry_2
Rb0 Te0 3.684899 1_655
Rb0 Te1 3.684899 1_555
Rb0 Te1 3.764058 1_545
Rb0 Te0 3.764058 1_544
Rb0 Te0 3.764058 1_555
Rb0 Te1 3.764058 1_556
Rb1 Te1 3.684899 1_455
Rb1 Te0 3.684899 1_555
Rb1 Te0 3.764058 1_565
Rb1 Te0 3.764058 1_554
Rb1 Te1 3.764058 1_566
Rb1 Te1 3.764058 1_555
Pd0 Te0 2.672024 1_544
Pd0 Te0 2.672024 1_555
Pd0 Te1 2.672024 1_455
Pd0 Te1 2.672024 1_444
Pd0 Rb0 3.830348 1_455
Pd0 Rb0 3.830348 1_444
Pd0 Rb1 3.830348 1_544
Pd0 Rb1 3.830348 1_555
