# generated using pymatgen
data_RbCeSe2
_symmetry_space_group_name_H-M   'P 1'
_cell_length_a   8.32979897
_cell_length_b   8.32979897
_cell_length_c   8.32979924
_cell_angle_alpha   30.79031876
_cell_angle_beta   30.79031876
_cell_angle_gamma   30.79032741
_symmetry_Int_Tables_number   1
_chemical_formula_structural   RbCeSe2
_chemical_formula_sum   'Rb1 Ce1 Se2'
_cell_volume   134.31111380
_cell_formula_units_Z   1
loop_
 _symmetry_equiv_pos_site_id
 _symmetry_equiv_pos_as_xyz
  1  'x, y, z'
loop_
 _atom_site_type_symbol
 _atom_site_label
 _atom_site_symmetry_multiplicity
 _atom_site_fract_x
 _atom_site_fract_y
 _atom_site_fract_z
 _atom_site_occupancy
  Rb  Rb0  1  -0.00000000  -0.00000000  0.00000000  1
  Ce  Ce0  1  0.50000000  0.50000000  0.50000000  1
  Se  Se0  1  0.23363360  0.23363360  0.23363360  1
  Se  Se1  1  0.76636640  0.76636640  0.76636640  1
loop_
_geom_bond_atom_site_label_1
_geom_bond_atom_site_label_2
_geom_bond_distance
_geom_bond_site_symmetry_2
Rb0 Se1 3.484833 1_445
Rb0 Se0 3.484833 1_554
Rb0 Se1 3.484833 1_454
Rb0 Se0 3.484833 1_455
Rb0 Se0 3.484833 1_545
Rb0 Se1 3.484833 1_544
Ce0 Se1 3.009554 1_554
Ce0 Se0 3.009554 1_556
Ce0 Se1 3.009554 1_455
Ce0 Se1 3.009554 1_545
Ce0 Se0 3.009554 1_565
Ce0 Se0 3.009554 1_655
