# generated using pymatgen
data_Mg(CoO2)2
_symmetry_space_group_name_H-M   'P 1'
_cell_length_a   2.92949400
_cell_length_b   9.61700700
_cell_length_c   9.66946200
_cell_angle_alpha   90.00000000
_cell_angle_beta   90.00000000
_cell_angle_gamma   90.00000000
_symmetry_Int_Tables_number   1
_chemical_formula_structural   Mg(CoO2)2
_chemical_formula_sum   'Mg4 Co8 O16'
_cell_volume   272.41740777
_cell_formula_units_Z   4
loop_
 _symmetry_equiv_pos_site_id
 _symmetry_equiv_pos_as_xyz
  1  'x, y, z'
loop_
 _atom_site_type_symbol
 _atom_site_label
 _atom_site_symmetry_multiplicity
 _atom_site_fract_x
 _atom_site_fract_y
 _atom_site_fract_z
 _atom_site_occupancy
  Mg  Mg0  1  0.76143300  0.25000000  0.86035500  1
  Mg  Mg1  1  0.76143300  0.75000000  0.63964500  1
  Mg  Mg2  1  0.23856700  0.25000000  0.36035500  1
  Mg  Mg3  1  0.23856700  0.75000000  0.13964500  1
  Co  Co0  1  0.25296600  0.07210400  0.61699300  1
  Co  Co1  1  0.25296600  0.57210400  0.88300700  1
  Co  Co2  1  0.74703400  0.57210400  0.38300700  1
  Co  Co3  1  0.25296600  0.92789600  0.88300700  1
  Co  Co4  1  0.74703400  0.92789600  0.38300700  1
  Co  Co5  1  0.25296600  0.42789600  0.61699300  1
  Co  Co6  1  0.74703400  0.42789600  0.11699300  1
  Co  Co7  1  0.74703400  0.07210400  0.11699300  1
  O  O0  1  0.75033400  0.38541900  0.47274600  1
  O  O1  1  0.24966600  0.61458100  0.52725400  1
  O  O2  1  0.75525900  0.50000000  0.75000000  1
  O  O3  1  0.24966600  0.38541900  0.97274600  1
  O  O4  1  0.24966600  0.11458100  0.97274600  1
  O  O5  1  0.26032700  0.75000000  0.79332000  1
  O  O6  1  0.75033400  0.61458100  0.02725400  1
  O  O7  1  0.73967300  0.75000000  0.29332000  1
  O  O8  1  0.75525900  0.00000000  0.75000000  1
  O  O9  1  0.24474100  0.50000000  0.25000000  1
  O  O10  1  0.75033400  0.11458100  0.47274600  1
  O  O11  1  0.73967300  0.25000000  0.20668000  1
  O  O12  1  0.26032700  0.25000000  0.70668000  1
  O  O13  1  0.24474100  0.00000000  0.25000000  1
  O  O14  1  0.75033400  0.88541900  0.02725400  1
  O  O15  1  0.24966600  0.88541900  0.52725400  1
loop_
_geom_bond_atom_site_label_1
_geom_bond_atom_site_label_2
_geom_bond_distance
_geom_bond_site_symmetry_2
Mg0 O12 2.084242 1_655
Mg0 O12 2.088791 1_555
Mg0 O3 2.218736 1_655
Mg0 O4 2.218736 1_655
Mg0 O3 2.263792 1_555
Mg0 O4 2.263792 1_555
Mg0 O2 2.630475 1_555
Mg0 O8 2.630475 1_555
Mg1 O5 2.084242 1_655
Mg1 O5 2.088791 1_555
Mg1 O15 2.218736 1_655
Mg1 O1 2.218736 1_655
Mg1 O15 2.263792 1_555
Mg1 O1 2.263792 1_555
Mg1 O2 2.630475 1_555
Mg1 O8 2.630475 1_565
Mg2 O11 2.084242 1_455
Mg2 O11 2.088791 1_555
Mg2 O0 2.218736 1_455
Mg2 O10 2.218736 1_455
Mg2 O0 2.263792 1_555
Mg2 O10 2.263792 1_555
Mg2 O13 2.630475 1_555
Mg2 O9 2.630475 1_555
Mg3 O7 2.084242 1_455
Mg3 O7 2.088791 1_555
Mg3 O14 2.218736 1_455
Mg3 O6 2.218736 1_455
Mg3 O14 2.263792 1_555
Mg3 O6 2.263792 1_555
Mg3 O13 2.630475 1_565
Mg3 O9 2.630475 1_555
Co0 O12 1.918195 1_555
Co0 O15 1.994074 1_545
Co0 O10 2.057977 1_555
Co0 O8 2.064160 1_455
Co0 O10 2.068924 1_455
Co0 O8 2.073672 1_555
Co1 O5 1.918195 1_555
Co1 O3 1.994074 1_555
Co1 O6 2.057977 1_556
Co1 O2 2.064160 1_455
Co1 O6 2.068924 1_456
Co1 O2 2.073672 1_555
Co2 O7 1.918195 1_555
Co2 O0 1.994074 1_555
Co2 O1 2.057977 1_555
Co2 O9 2.064160 1_655
Co2 O1 2.068924 1_655
Co2 O9 2.073672 1_555
Co3 O5 1.918195 1_555
Co3 O4 1.994074 1_565
Co3 O14 2.057977 1_556
Co3 O8 2.064160 1_465
Co3 O14 2.068924 1_456
Co3 O8 2.073672 1_565
Co4 O7 1.918195 1_555
Co4 O10 1.994074 1_565
Co4 O15 2.057977 1_555
Co4 O13 2.064160 1_665
Co4 O15 2.068924 1_655
Co4 O13 2.073672 1_565
Co5 O12 1.918195 1_555
Co5 O1 1.994074 1_555
Co5 O0 2.057977 1_555
Co5 O2 2.064160 1_455
Co5 O0 2.068924 1_455
Co5 O2 2.073672 1_555
Co6 O11 1.918195 1_555
Co6 O6 1.994074 1_555
Co6 O3 2.057977 1_554
Co6 O9 2.064160 1_655
Co6 O3 2.068924 1_654
Co6 O9 2.073672 1_555
Co7 O11 1.918195 1_555
Co7 O14 1.994074 1_545
Co7 O4 2.057977 1_554
Co7 O13 2.064160 1_655
Co7 O4 2.068924 1_654
Co7 O13 2.073672 1_555
