# generated using pymatgen
data_SbAsRu
_symmetry_space_group_name_H-M   'P 1'
_cell_length_a   6.26658800
_cell_length_b   11.58688705
_cell_length_c   13.06528302
_cell_angle_alpha   87.22737378
_cell_angle_beta   90.00000000
_cell_angle_gamma   90.00000000
_symmetry_Int_Tables_number   1
_chemical_formula_structural   SbAsRu
_chemical_formula_sum   'Sb16 As16 Ru16'
_cell_volume   947.56287798
_cell_formula_units_Z   16
loop_
 _symmetry_equiv_pos_site_id
 _symmetry_equiv_pos_as_xyz
  1  'x, y, z'
loop_
 _atom_site_type_symbol
 _atom_site_label
 _atom_site_symmetry_multiplicity
 _atom_site_fract_x
 _atom_site_fract_y
 _atom_site_fract_z
 _atom_site_occupancy
  Sb  Sb0_0  1  0.00000000  0.09175250  0.17698550  1
  Sb  Sb0_1  1  0.00000000  0.09175250  0.67698550  1
  Sb  Sb0_2  1  0.00000000  0.59175250  0.17698550  1
  Sb  Sb0_3  1  0.00000000  0.59175250  0.67698550  1
  Sb  Sb0_4  1  0.50000000  0.09175250  0.17698550  1
  Sb  Sb0_5  1  0.50000000  0.09175250  0.67698550  1
  Sb  Sb0_6  1  0.50000000  0.59175250  0.17698550  1
  Sb  Sb0_7  1  0.50000000  0.59175250  0.67698550  1
  Sb  Sb1_0  1  0.00000000  0.40824750  0.32301450  1
  Sb  Sb1_1  1  0.00000000  0.40824750  0.82301450  1
  Sb  Sb1_2  1  0.00000000  0.90824750  0.32301450  1
  Sb  Sb1_3  1  0.00000000  0.90824750  0.82301450  1
  Sb  Sb1_4  1  0.50000000  0.40824750  0.32301450  1
  Sb  Sb1_5  1  0.50000000  0.40824750  0.82301450  1
  Sb  Sb1_6  1  0.50000000  0.90824750  0.32301450  1
  Sb  Sb1_7  1  0.50000000  0.90824750  0.82301450  1
  As  As0_0  1  0.25000000  0.33866400  0.06760650  1
  As  As0_1  1  0.25000000  0.33866400  0.56760650  1
  As  As0_2  1  0.25000000  0.83866400  0.06760650  1
  As  As0_3  1  0.25000000  0.83866400  0.56760650  1
  As  As0_4  1  0.75000000  0.33866400  0.06760650  1
  As  As0_5  1  0.75000000  0.33866400  0.56760650  1
  As  As0_6  1  0.75000000  0.83866400  0.06760650  1
  As  As0_7  1  0.75000000  0.83866400  0.56760650  1
  As  As1_0  1  0.25000000  0.16133600  0.43239350  1
  As  As1_1  1  0.25000000  0.16133600  0.93239350  1
  As  As1_2  1  0.25000000  0.66133600  0.43239350  1
  As  As1_3  1  0.25000000  0.66133600  0.93239350  1
  As  As1_4  1  0.75000000  0.16133600  0.43239350  1
  As  As1_5  1  0.75000000  0.16133600  0.93239350  1
  As  As1_6  1  0.75000000  0.66133600  0.43239350  1
  As  As1_7  1  0.75000000  0.66133600  0.93239350  1
  Ru  Ru0_0  1  0.25000000  0.25000000  0.25000000  1
  Ru  Ru0_1  1  0.25000000  0.25000000  0.75000000  1
  Ru  Ru0_2  1  0.25000000  0.75000000  0.25000000  1
  Ru  Ru0_3  1  0.25000000  0.75000000  0.75000000  1
  Ru  Ru0_4  1  0.75000000  0.25000000  0.25000000  1
  Ru  Ru0_5  1  0.75000000  0.25000000  0.75000000  1
  Ru  Ru0_6  1  0.75000000  0.75000000  0.25000000  1
  Ru  Ru0_7  1  0.75000000  0.75000000  0.75000000  1
  Ru  Ru1_0  1  0.00000000  0.00000000  0.00000000  1
  Ru  Ru1_1  1  0.00000000  0.00000000  0.50000000  1
  Ru  Ru1_2  1  0.00000000  0.50000000  0.00000000  1
  Ru  Ru1_3  1  0.00000000  0.50000000  0.50000000  1
  Ru  Ru1_4  1  0.50000000  0.00000000  0.00000000  1
  Ru  Ru1_5  1  0.50000000  0.00000000  0.50000000  1
  Ru  Ru1_6  1  0.50000000  0.50000000  0.00000000  1
  Ru  Ru1_7  1  0.50000000  0.50000000  0.50000000  1
loop_
_geom_bond_atom_site_label_1
_geom_bond_atom_site_label_2
_geom_bond_distance
_geom_bond_site_symmetry_2
Sb0_0 Sb1_2 2.787221 1_545
Sb0_0 Sb0_4 3.133294 1_455
Sb0_0 Sb0_4 3.133294 1_555
Sb0_1 Sb1_3 2.787221 1_545
Sb0_1 Sb0_5 3.133294 1_455
Sb0_1 Sb0_5 3.133294 1_555
Sb0_2 Sb1_0 2.787221 1_555
Sb0_2 Sb0_6 3.133294 1_455
Sb0_2 Sb0_6 3.133294 1_555
Sb0_3 Sb1_1 2.787221 1_555
Sb0_3 Sb0_7 3.133294 1_555
Sb0_3 Sb0_7 3.133294 1_455
Sb0_4 Sb1_6 2.787221 1_545
Sb0_5 Sb1_7 2.787221 1_545
Sb0_6 Sb1_4 2.787221 1_555
Sb0_7 Sb1_5 2.787221 1_555
Sb1_0 Sb1_4 3.133294 1_455
Sb1_0 Sb1_4 3.133294 1_555
Sb1_1 Sb1_5 3.133294 1_555
Sb1_1 Sb1_5 3.133294 1_455
Sb1_2 Sb1_6 3.133294 1_455
Sb1_2 Sb1_6 3.133294 1_555
Sb1_3 Sb1_7 3.133294 1_455
Sb1_3 Sb1_7 3.133294 1_555
As0_0 Ru0_0 2.548995 1_555
As0_0 Ru1_6 2.563092 1_555
As0_0 Ru1_2 2.563092 1_555
As0_0 As1_1 2.773758 1_554
As0_1 Ru0_1 2.548995 1_555
As0_1 Ru1_3 2.563092 1_555
As0_1 Ru1_7 2.563092 1_555
As0_1 As1_0 2.773758 1_555
As0_2 Ru0_2 2.548995 1_555
As0_2 Ru1_4 2.563092 1_565
As0_2 Ru1_0 2.563092 1_565
As0_2 As1_3 2.773758 1_554
As0_3 Ru0_3 2.548995 1_555
As0_3 Ru1_1 2.563092 1_565
As0_3 Ru1_5 2.563092 1_565
As0_3 As1_2 2.773758 1_555
As0_4 Ru0_4 2.548995 1_555
As0_4 Ru1_2 2.563092 1_655
As0_4 Ru1_6 2.563092 1_555
As0_4 As1_5 2.773758 1_554
As0_5 Ru0_5 2.548995 1_555
As0_5 Ru1_3 2.563092 1_655
As0_5 Ru1_7 2.563092 1_555
As0_5 As1_4 2.773758 1_555
As0_6 Ru0_6 2.548995 1_555
As0_6 Ru1_0 2.563092 1_665
As0_6 Ru1_4 2.563092 1_565
As0_6 As1_7 2.773758 1_554
As0_7 Ru0_7 2.548995 1_555
As0_7 Ru1_1 2.563092 1_665
As0_7 Ru1_5 2.563092 1_565
As0_7 As1_6 2.773758 1_555
As1_0 Ru0_0 2.548995 1_555
As1_0 Ru1_1 2.563092 1_555
As1_0 Ru1_5 2.563092 1_555
As1_1 Ru0_1 2.548995 1_555
As1_1 Ru1_0 2.563092 1_556
As1_1 Ru1_4 2.563092 1_556
As1_2 Ru0_2 2.548995 1_555
As1_2 Ru1_3 2.563092 1_555
As1_2 Ru1_7 2.563092 1_555
As1_3 Ru0_3 2.548995 1_555
As1_3 Ru1_2 2.563092 1_556
As1_3 Ru1_6 2.563092 1_556
As1_4 Ru0_4 2.548995 1_555
As1_4 Ru1_1 2.563092 1_655
As1_4 Ru1_5 2.563092 1_555
As1_5 Ru0_5 2.548995 1_555
As1_5 Ru1_0 2.563092 1_656
As1_5 Ru1_4 2.563092 1_556
As1_6 Ru0_6 2.548995 1_555
As1_6 Ru1_3 2.563092 1_655
As1_6 Ru1_7 2.563092 1_555
As1_7 Ru0_7 2.548995 1_555
As1_7 Ru1_2 2.563092 1_656
As1_7 Ru1_6 2.563092 1_556
Ru0_0 Sb1_0 2.625969 1_555
Ru0_0 Sb1_4 2.625969 1_555
Ru0_0 Sb0_0 2.625969 1_555
Ru0_0 Sb0_4 2.625969 1_555
Ru0_1 Sb0_1 2.625969 1_555
Ru0_1 Sb0_5 2.625969 1_555
Ru0_1 Sb1_5 2.625969 1_555
Ru0_1 Sb1_1 2.625969 1_555
Ru0_2 Sb0_2 2.625969 1_555
Ru0_2 Sb0_6 2.625969 1_555
Ru0_2 Sb1_2 2.625969 1_555
Ru0_2 Sb1_6 2.625969 1_555
Ru0_3 Sb0_7 2.625969 1_555
Ru0_3 Sb0_3 2.625969 1_555
Ru0_3 Sb1_3 2.625969 1_555
Ru0_3 Sb1_7 2.625969 1_555
Ru0_4 Sb1_0 2.625969 1_655
Ru0_4 Sb0_0 2.625969 1_655
Ru0_4 Sb0_4 2.625969 1_555
Ru0_4 Sb1_4 2.625969 1_555
Ru0_5 Sb0_1 2.625969 1_655
Ru0_5 Sb0_5 2.625969 1_555
Ru0_5 Sb1_1 2.625969 1_655
Ru0_5 Sb1_5 2.625969 1_555
Ru0_6 Sb0_2 2.625969 1_655
Ru0_6 Sb0_6 2.625969 1_555
Ru0_6 Sb1_2 2.625969 1_655
Ru0_6 Sb1_6 2.625969 1_555
Ru0_7 Sb0_3 2.625969 1_655
Ru0_7 Sb1_3 2.625969 1_655
Ru0_7 Sb0_7 2.625969 1_555
Ru0_7 Sb1_7 2.625969 1_555
Ru1_0 Sb0_0 2.591352 1_555
Ru1_0 Sb1_3 2.591352 1_544
Ru1_1 Sb0_1 2.591352 1_555
Ru1_1 Sb1_2 2.591352 1_545
Ru1_2 Sb0_2 2.591352 1_555
Ru1_2 Sb1_1 2.591352 1_554
Ru1_3 Sb0_3 2.591352 1_555
Ru1_3 Sb1_0 2.591352 1_555
Ru1_4 Sb0_4 2.591352 1_555
Ru1_4 Sb1_7 2.591352 1_544
Ru1_5 Sb0_5 2.591352 1_555
Ru1_5 Sb1_6 2.591352 1_545
Ru1_6 Sb0_6 2.591352 1_555
Ru1_6 Sb1_5 2.591352 1_554
Ru1_7 Sb0_7 2.591352 1_555
Ru1_7 Sb1_4 2.591352 1_555
