# generated using pymatgen
data_Li4V3P8O29
_symmetry_space_group_name_H-M   'P 1'
_cell_length_a   9.75564400
_cell_length_b   9.78288712
_cell_length_c   14.26311501
_cell_angle_alpha   90.15815058
_cell_angle_beta   90.02934060
_cell_angle_gamma   119.82874794
_symmetry_Int_Tables_number   1
_chemical_formula_structural   Li4V3P8O29
_chemical_formula_sum   'Li8 V6 P16 O58'
_cell_volume   1180.89743350
_cell_formula_units_Z   2
loop_
 _symmetry_equiv_pos_site_id
 _symmetry_equiv_pos_as_xyz
  1  'x, y, z'
loop_
 _atom_site_type_symbol
 _atom_site_label
 _atom_site_symmetry_multiplicity
 _atom_site_fract_x
 _atom_site_fract_y
 _atom_site_fract_z
 _atom_site_occupancy
  Li  Li0  1  0.77462200  0.08197400  0.43959700  1
  Li  Li1  1  0.91174400  0.23249400  0.94383700  1
  Li  Li2  1  0.76955000  0.66795800  0.94356700  1
  Li  Li3  1  0.08840900  0.31485400  0.55090800  1
  Li  Li4  1  0.90665800  0.67697800  0.44052400  1
  Li  Li5  1  0.22345700  0.91384700  0.56132800  1
  Li  Li6  1  0.67215700  0.90502700  0.06065600  1
  Li  Li7  1  0.07467600  0.02302100  0.99535300  1
  V  V0  1  0.99742700  0.43429900  0.75364700  1
  V  V1  1  0.00320100  0.57009800  0.24216000  1
  V  V2  1  0.42998700  0.43102900  0.25086700  1
  V  V3  1  0.56329500  0.56427300  0.74985700  1
  V  V4  1  0.43297300  0.00419500  0.75158700  1
  V  V5  1  0.56263300  0.99830100  0.25244000  1
  P  P0  1  0.30795700  0.08455900  0.16321000  1
  P  P1  1  0.31173200  0.22968100  0.65916700  1
  P  P2  1  0.77073500  0.08969300  0.65894800  1
  P  P3  1  0.66716100  0.33613600  0.86965100  1
  P  P4  1  0.67275200  0.33921600  0.36690600  1
  P  P5  1  0.90991800  0.22494000  0.15764400  1
  P  P6  1  0.08830100  0.31952100  0.33718500  1
  P  P7  1  0.76819600  0.68481200  0.15775800  1
  P  P8  1  0.22510700  0.30873200  0.84373100  1
  P  P9  1  0.90765500  0.67912200  0.65872800  1
  P  P10  1  0.08495300  0.77880500  0.83852400  1
  P  P11  1  0.32853200  0.66405600  0.63358600  1
  P  P12  1  0.33652900  0.66372900  0.12993600  1
  P  P13  1  0.22725500  0.90869200  0.34327700  1
  P  P14  1  0.68600700  0.77099300  0.34010000  1
  P  P15  1  0.68490300  0.91270700  0.83924100  1
  O  O0  1  0.23094400  0.97831200  0.43636000  1
  O  O1  1  0.33441800  0.08444600  0.65979900  1
  O  O2  1  0.20707300  0.21400700  0.92794300  1
  O  O3  1  0.34260700  0.25847100  0.17162900  1
  O  O4  1  0.46433100  0.08366200  0.17183900  1
  O  O5  1  0.51836700  0.19537000  0.82783800  1
  O  O6  1  0.61871500  0.09750800  0.67893800  1
  O  O7  1  0.77373800  0.99800700  0.92672700  1
  O  O8  1  0.74046000  0.08158900  0.16394300  1
  O  O9  1  0.52621100  0.34143600  0.32234900  1
  O  O10  1  0.47530100  0.38108500  0.68041000  1
  O  O11  1  0.67139300  0.18631000  0.33086000  1
  O  O12  1  0.68912900  0.34980700  0.97306700  1
  O  O13  1  0.68200900  0.35248400  0.47110800  1
  O  O14  1  0.81570700  0.32706700  0.82661900  1
  O  O15  1  0.61434100  0.52778200  0.17168000  1
  O  O16  1  0.67698000  0.49193700  0.82874800  1
  O  O17  1  0.91975700  0.25884400  0.66622600  1
  O  O18  1  0.99953800  0.20763900  0.24800300  1
  O  O19  1  0.99978400  0.24260500  0.42544200  1
  O  O20  1  0.98581800  0.21926900  0.06791500  1
  O  O21  1  0.90793500  0.38148000  0.17234900  1
  O  O22  1  0.82149900  0.48624400  0.32189500  1
  O  O23  1  0.08430200  0.34386600  0.83788700  1
  O  O24  1  0.89986500  0.51954700  0.68011500  1
  O  O25  1  0.73992600  0.65667200  0.66707100  1
  O  O26  1  0.20509900  0.20749300  0.75052600  1
  O  O27  1  0.23260700  0.24441000  0.57458500  1
  O  O28  1  0.77674400  0.76551600  0.42186100  1
  O  O29  1  0.25600300  0.34159800  0.33581900  1
  O  O30  1  0.09521800  0.47822500  0.31854800  1
  O  O31  1  0.91261900  0.65868500  0.16378800  1
  O  O32  1  0.17940300  0.51735600  0.68037200  1
  O  O33  1  0.08068600  0.61816000  0.82856600  1
  O  O34  1  0.99642500  0.79168800  0.92013600  1
  O  O35  1  0.99092500  0.74861700  0.56844700  1
  O  O36  1  0.00609900  0.79672500  0.74246100  1
  O  O37  1  0.07876500  0.74051700  0.33349200  1
  O  O38  1  0.33020100  0.51603100  0.17883900  1
  O  O39  1  0.38446200  0.46484200  0.83080400  1
  O  O40  1  0.18627200  0.66693700  0.17348900  1
  O  O41  1  0.33014500  0.65339700  0.02604700  1
  O  O42  1  0.32142200  0.64118600  0.53044900  1
  O  O43  1  0.32906800  0.81592100  0.66616800  1
  O  O44  1  0.52587000  0.61940200  0.32287900  1
  O  O45  1  0.47350800  0.66038200  0.68280900  1
  O  O46  1  0.25674900  0.91413200  0.83273100  1
  O  O47  1  0.20985400  0.00706500  0.25966600  1
  O  O48  1  0.20726800  0.00275600  0.08152400  1
  O  O49  1  0.37742100  0.89638900  0.32221800  1
  O  O50  1  0.48836600  0.81141600  0.16730200  1
  O  O51  1  0.52629300  0.90523600  0.82637300  1
  O  O52  1  0.66313700  0.74323100  0.83743100  1
  O  O53  1  0.77025900  0.76646000  0.06756100  1
  O  O54  1  0.78822800  0.79788300  0.24393100  1
  O  O55  1  0.66278400  0.91677500  0.34125200  1
  O  O56  1  0.77030700  0.01641600  0.56785600  1
  O  O57  1  0.79175200  0.99789900  0.74750100  1
loop_
_geom_bond_atom_site_label_1
_geom_bond_atom_site_label_2
_geom_bond_distance
_geom_bond_site_symmetry_2
Li0 O56 1.933753 1_555
Li0 O19 1.975727 1_555
Li0 O55 2.000403 1_545
Li0 O11 2.343317 1_555
Li1 O20 1.940074 1_556
Li1 O7 2.014588 1_545
Li1 O23 2.119360 1_655
Li1 O14 2.323417 1_555
Li2 O34 1.952791 1_555
Li2 O53 2.010055 1_556
Li2 O52 2.162569 1_555
Li2 O16 2.213295 1_555
Li3 O27 1.879661 1_555
Li3 O19 1.957814 1_455
Li3 O17 2.196250 1_455
Li3 O32 2.520124 1_555
Li4 O28 1.876267 1_555
Li4 O35 1.978466 1_555
Li4 O37 2.122643 1_655
Li4 O22 2.339616 1_555
Li5 O0 1.881659 1_555
Li5 O1 2.029299 1_565
Li5 O35 2.030397 1_455
Li5 O43 2.281138 1_555
Li6 O53 2.013587 1_555
Li6 O8 2.106604 1_565
Li6 O7 2.138521 1_554
Li6 O50 2.178131 1_555
Li7 O48 1.864922 1_556
Li7 O2 1.921992 1_555
Li7 O34 2.263282 1_445
O0 P13 1.482704 1_555
O1 P1 1.542944 1_555
O1 V4 2.002511 1_555
O2 P8 1.475320 1_555
O3 P0 1.565251 1_555
O3 V2 1.846785 1_555
O4 P0 1.534795 1_555
O4 V5 1.933784 1_545
O5 P3 1.537897 1_555
O5 V4 1.952565 1_555
O6 P2 1.549095 1_555
O6 V4 1.884694 1_555
O7 P15 1.509365 1_555
O8 P5 1.549907 1_555
O8 V5 1.966841 1_545
O9 P4 1.574215 1_555
O9 V2 1.873868 1_555
O10 P1 1.574081 1_555
O10 V3 1.840816 1_555
O11 P4 1.574206 1_555
O11 V5 1.950843 1_545
O12 P3 1.486478 1_555
O13 P4 1.490324 1_555
O14 P3 1.616531 1_555
O14 V0 1.866652 1_555
O15 P7 1.536355 1_555
O15 V2 1.928894 1_555
O16 P3 1.591349 1_555
O16 V3 1.944440 1_555
O17 P2 1.571072 1_555
O17 V0 1.941256 1_555
O18 P5 1.612860 1_555
O18 P6 1.616838 1_655
O19 P6 1.502150 1_655
O20 P5 1.493560 1_555
O21 P5 1.554765 1_555
O21 V1 1.882274 1_655
O22 P4 1.586324 1_555
O22 V1 1.915495 1_655
O23 P8 1.575346 1_555
O23 V0 1.922337 1_455
O24 P9 1.555797 1_555
O24 V0 1.869443 1_555
O25 P9 1.543606 1_555
O25 V3 1.907624 1_555
O26 P8 1.608243 1_555
O26 P1 1.614180 1_555
O27 P1 1.477390 1_555
O28 P14 1.480832 1_555
O29 P6 1.540193 1_555
O29 V2 1.909240 1_555
O30 P6 1.543956 1_555
O30 V1 1.899414 1_555
O31 P7 1.554378 1_555
O31 V1 1.883535 1_655
O32 P11 1.597098 1_555
O32 V0 1.864336 1_455
O33 P10 1.557377 1_555
O33 V0 1.889969 1_455
O34 P10 1.491733 1_655
O35 P9 1.495576 1_555
O36 P9 1.601363 1_455
O36 P10 1.623038 1_555
O37 P13 1.565991 1_555
O37 V1 1.945329 1_555
O38 P12 1.579548 1_555
O38 V2 1.871790 1_555
O39 P8 1.556634 1_555
O39 V3 1.908649 1_555
O40 P12 1.606921 1_555
O40 V1 1.835828 1_555
O41 P12 1.484111 1_555
O42 P11 1.483749 1_555
O43 P11 1.552962 1_555
O43 V4 2.008313 1_565
O44 P14 1.546935 1_555
O44 V2 1.897283 1_555
O45 P11 1.595065 1_555
O45 V3 1.840983 1_555
O46 P10 1.536831 1_555
O46 V4 1.890015 1_565
O47 P13 1.595560 1_545
O47 P0 1.633624 1_555
O48 P0 1.474594 1_555
O49 P13 1.557720 1_555
O49 V5 1.861316 1_555
O50 P12 1.559341 1_555
O50 V5 2.002800 1_555
O51 P15 1.523295 1_555
O51 V4 1.945599 1_565
O52 P15 1.563371 1_555
O52 V3 1.965764 1_555
O53 P7 1.511018 1_555
O54 P7 1.596764 1_555
O54 P14 1.639380 1_555
O55 P14 1.551406 1_555
O55 V5 1.993700 1_555
O56 P2 1.481164 1_555
O57 P2 1.622622 1_565
O57 P15 1.623728 1_555
