# generated using pymatgen
data_LiVO2
_symmetry_space_group_name_H-M   'P 1'
_cell_length_a   5.07746501
_cell_length_b   5.97959454
_cell_length_c   6.00358383
_cell_angle_alpha   119.85911211
_cell_angle_beta   74.37207683
_cell_angle_gamma   90.00927411
_symmetry_Int_Tables_number   1
_chemical_formula_structural   LiVO2
_chemical_formula_sum   'Li4 V4 O8'
_cell_volume   150.26427172
_cell_formula_units_Z   4
loop_
 _symmetry_equiv_pos_site_id
 _symmetry_equiv_pos_as_xyz
  1  'x, y, z'
loop_
 _atom_site_type_symbol
 _atom_site_label
 _atom_site_symmetry_multiplicity
 _atom_site_fract_x
 _atom_site_fract_y
 _atom_site_fract_z
 _atom_site_occupancy
  Li  Li0  1  0.50000300  0.74985800  0.99787700  1
  Li  Li1  1  0.50002600  0.25195800  0.00210600  1
  Li  Li2  1  0.99991800  0.49816800  0.99810300  1
  Li  Li3  1  0.00007200  0.00003900  0.00188800  1
  V  V0  1  0.99989300  0.49632400  0.50002400  1
  V  V1  1  0.49982800  0.25399200  0.49994700  1
  V  V2  1  0.00006800  0.98901600  0.49994500  1
  V  V3  1  0.50028100  0.76089500  0.49993700  1
  O  O0  1  0.24696900  0.62846100  0.26507800  1
  O  O1  1  0.24401500  0.13122600  0.27201900  1
  O  O2  1  0.74412200  0.39045000  0.27196600  1
  O  O3  1  0.74773800  0.88694900  0.26561400  1
  O  O4  1  0.75607300  0.35930300  0.72803800  1
  O  O5  1  0.75291400  0.86342400  0.73495300  1
  O  O6  1  0.25218900  0.12136100  0.73431100  1
  O  O7  1  0.25589000  0.61857600  0.72819300  1
loop_
_geom_bond_atom_site_label_1
_geom_bond_atom_site_label_2
_geom_bond_distance
_geom_bond_site_symmetry_2
Li0 O5 2.139336 1_555
Li0 O7 2.142257 1_555
Li0 O3 2.148223 1_556
Li0 O1 2.170187 1_566
Li0 O0 2.190824 1_556
Li0 O4 2.206306 1_555
Li1 O0 2.140274 1_555
Li1 O2 2.142955 1_555
Li1 O6 2.148886 1_554
Li1 O4 2.169875 1_554
Li1 O5 2.190842 1_544
Li1 O1 2.205993 1_555
Li2 O6 2.140183 1_655
Li2 O0 2.142192 1_656
Li2 O4 2.142867 1_555
Li2 O2 2.169959 1_556
Li2 O3 2.190576 1_556
Li2 O7 2.204560 1_655
Li3 O3 2.139754 1_445
Li3 O5 2.142445 1_444
Li3 O1 2.143546 1_555
Li3 O7 2.170032 1_544
Li3 O6 2.190376 1_554
Li3 O2 2.205541 1_455
O0 V3 2.033321 1_555
O0 V2 2.056566 1_555
O0 V0 2.084158 1_455
O1 V1 2.013833 1_555
O1 V0 2.070585 1_455
O1 V2 2.091623 1_545
O2 V0 2.014095 1_555
O2 V1 2.067546 1_555
O2 V3 2.093305 1_555
O3 V2 2.027070 1_655
O3 V3 2.056468 1_555
O3 V1 2.086368 1_565
O4 V1 2.016310 1_555
O4 V0 2.069111 1_555
O4 V2 2.092914 1_645
O5 V3 2.031145 1_555
O5 V2 2.056750 1_655
O5 V0 2.084585 1_555
O6 V2 2.026362 1_545
O6 V3 2.058773 1_545
O6 V1 2.085020 1_555
O7 V0 2.015502 1_455
O7 V1 2.067929 1_555
O7 V3 2.094419 1_555
