# generated using pymatgen
data_GdSiAg
_symmetry_space_group_name_H-M   'P 1'
_cell_length_a   7.08168627
_cell_length_b   7.07376308
_cell_length_c   4.23518538
_cell_angle_alpha   90.00000000
_cell_angle_beta   90.00000000
_cell_angle_gamma   119.96298957
_symmetry_Int_Tables_number   1
_chemical_formula_structural   GdSiAg
_chemical_formula_sum   'Gd3 Si3 Ag3'
_cell_volume   183.80278821
_cell_formula_units_Z   3
loop_
 _symmetry_equiv_pos_site_id
 _symmetry_equiv_pos_as_xyz
  1  'x, y, z'
loop_
 _atom_site_type_symbol
 _atom_site_label
 _atom_site_symmetry_multiplicity
 _atom_site_fract_x
 _atom_site_fract_y
 _atom_site_fract_z
 _atom_site_occupancy
  Gd  Gd0  1  0.00000000  0.41737974  0.50000000  1
  Gd  Gd1  1  0.58227872  0.58226140  0.50000000  1
  Gd  Gd2  1  0.41772128  0.99998268  0.50000000  1
  Si  Si0  1  0.33307395  0.66662441  0.00000000  1
  Si  Si1  1  0.66692605  0.33354946  0.00000000  1
  Si  Si2  1  0.00000000  0.00009383  0.50000000  1
  Ag  Ag0  1  0.00000000  0.75116926  0.00000000  1
  Ag  Ag1  1  0.24877851  0.24885936  -0.00000000  1
  Ag  Ag2  1  0.75122149  0.00008085  -0.00000000  1
loop_
_geom_bond_atom_site_label_1
_geom_bond_atom_site_label_2
_geom_bond_distance
_geom_bond_site_symmetry_2
Gd0 Si2 2.951782 1_555
Gd0 Si1 3.000380 1_456
Gd0 Si1 3.000380 1_455
Gd0 Si0 3.000381 1_555
Gd0 Si0 3.000381 1_556
Gd1 Si2 2.958564 1_665
Gd1 Si1 2.998702 1_556
Gd1 Si1 2.998702 1_555
Gd1 Si0 3.001132 1_555
Gd1 Si0 3.001132 1_556
Gd2 Si2 2.958564 1_565
Gd2 Si0 2.998698 1_555
Gd2 Si0 2.998698 1_556
Gd2 Si1 3.001129 1_565
Gd2 Si1 3.001129 1_566
Ag0 Si0 2.707454 1_555
Ag0 Si1 2.707459 1_455
Ag0 Si2 2.754039 1_564
Ag0 Si2 2.754039 1_565
Ag0 Ag2 3.050017 1_465
Ag0 Ag1 3.050017 1_565
Ag0 Gd0 3.171627 1_555
Ag0 Gd0 3.171627 1_554
Ag0 Gd1 3.336472 1_454
Ag0 Gd1 3.336472 1_455
Ag0 Gd2 3.336472 1_554
Ag0 Gd2 3.336472 1_555
Ag1 Si0 2.706892 1_555
Ag1 Si1 2.712110 1_555
Ag1 Si2 2.754610 1_555
Ag1 Si2 2.754610 1_554
Ag1 Ag2 3.052615 1_455
Ag1 Gd1 3.171813 1_554
Ag1 Gd1 3.171813 1_555
Ag1 Gd0 3.332700 1_554
Ag1 Gd0 3.332700 1_555
Ag1 Gd2 3.334488 1_545
Ag1 Gd2 3.334488 1_544
Ag2 Si1 2.706885 1_555
Ag2 Si0 2.712108 1_545
Ag2 Si2 2.754610 1_654
Ag2 Si2 2.754610 1_655
Ag2 Gd2 3.171813 1_545
Ag2 Gd2 3.171813 1_544
Ag2 Gd0 3.332700 1_655
Ag2 Gd0 3.332700 1_654
Ag2 Gd1 3.334488 1_544
Ag2 Gd1 3.334488 1_545
