# generated using pymatgen
data_CaCuF5
_symmetry_space_group_name_H-M   'P 1'
_cell_length_a   5.48663626
_cell_length_b   5.45148645
_cell_length_c   7.63565731
_cell_angle_alpha   96.15270381
_cell_angle_beta   110.77299328
_cell_angle_gamma   109.65364592
_symmetry_Int_Tables_number   1
_chemical_formula_structural   CaCuF5
_chemical_formula_sum   'Ca2 Cu2 F10'
_cell_volume   194.33327249
_cell_formula_units_Z   2
loop_
 _symmetry_equiv_pos_site_id
 _symmetry_equiv_pos_as_xyz
  1  'x, y, z'
loop_
 _atom_site_type_symbol
 _atom_site_label
 _atom_site_symmetry_multiplicity
 _atom_site_fract_x
 _atom_site_fract_y
 _atom_site_fract_z
 _atom_site_occupancy
  Ca  Ca0  1  0.29445308  0.54884883  0.74600670  1
  Ca  Ca1  1  0.70403944  0.45244431  0.25317303  1
  Cu  Cu0  1  0.99941397  0.00082401  -0.00016081  1
  Cu  Cu1  1  0.49951652  0.00053759  0.49978150  1
  F  F0  1  0.33079846  0.07535723  0.25782854  1
  F  F1  1  0.66775974  0.92585169  0.74144841  1
  F  F2  1  0.58380063  0.74788090  0.37785148  1
  F  F3  1  0.87568171  0.20946575  0.11220302  1
  F  F4  1  0.73982838  0.69853878  0.02542866  1
  F  F5  1  0.16091153  0.71910462  0.47171741  1
  F  F6  1  0.25857312  0.30322602  0.97395272  1
  F  F7  1  0.83755453  0.28201237  0.52743582  1
  F  F8  1  0.12254555  0.79258398  0.88657128  1
  F  F9  1  0.41415835  0.25312390  0.62093326  1
loop_
_geom_bond_atom_site_label_1
_geom_bond_atom_site_label_2
_geom_bond_distance
_geom_bond_site_symmetry_2
Ca0 F9 2.183927 1_555
Ca0 F8 2.249996 1_555
Ca0 F7 2.290106 1_455
Ca0 F6 2.329465 1_555
Ca0 F5 2.360160 1_555
Ca0 F1 2.377937 1_555
Ca0 F4 2.403441 1_556
Ca1 F2 2.183343 1_555
Ca1 F3 2.247792 1_555
Ca1 F5 2.289779 1_655
Ca1 F4 2.329709 1_555
Ca1 F7 2.360545 1_555
Ca1 F0 2.378300 1_555
Ca1 F6 2.403232 1_554
Cu0 F8 1.792489 1_644
Cu0 F3 1.792779 1_555
Cu0 F4 1.862769 1_545
Cu0 F6 1.863066 1_654
Cu0 F0 2.035278 1_655
Cu0 F1 2.037435 1_544
Cu1 F2 1.853835 1_545
Cu1 F9 1.854505 1_555
Cu1 F7 1.891401 1_555
Cu1 F5 1.892365 1_545
Cu1 F1 1.904876 1_545
Cu1 F0 1.907572 1_555
