# generated using pymatgen
data_Na3BP4PbO16
_symmetry_space_group_name_H-M   'P 1'
_cell_length_a   7.01202600
_cell_length_b   7.01885183
_cell_length_c   14.75577090
_cell_angle_alpha   103.59885726
_cell_angle_beta   103.43174748
_cell_angle_gamma   89.93279296
_symmetry_Int_Tables_number   1
_chemical_formula_structural   Na3BP4PbO16
_chemical_formula_sum   'Na6 B2 P8 Pb2 O32'
_cell_volume   685.46103484
_cell_formula_units_Z   2
loop_
 _symmetry_equiv_pos_site_id
 _symmetry_equiv_pos_as_xyz
  1  'x, y, z'
loop_
 _atom_site_type_symbol
 _atom_site_label
 _atom_site_symmetry_multiplicity
 _atom_site_fract_x
 _atom_site_fract_y
 _atom_site_fract_z
 _atom_site_occupancy
  Na  Na0  1  0.02813300  0.69525700  0.86257200  1
  Na  Na1  1  0.16705700  0.02851300  0.36025100  1
  Na  Na2  1  0.67890500  0.83464400  0.13514500  1
  Na  Na3  1  0.96501700  0.29414700  0.13451100  1
  Na  Na4  1  0.29589200  0.67289900  0.63520800  1
  Na  Na5  1  0.83591300  0.95920700  0.63344300  1
  B  B0  1  0.62468200  0.37680700  0.74870600  1
  B  B1  1  0.37224100  0.62752000  0.24861000  1
  P  P0  1  0.80162300  0.48495100  0.62223700  1
  P  P1  1  0.32414400  0.13980400  0.62241800  1
  P  P2  1  0.13576200  0.79896200  0.12085000  1
  P  P3  1  0.48424600  0.32415400  0.12272200  1
  P  P4  1  0.19793500  0.52005000  0.38000700  1
  P  P5  1  0.67700300  0.86304800  0.37748400  1
  P  P6  1  0.86285000  0.20072800  0.87790700  1
  P  P7  1  0.51907500  0.68136900  0.87933900  1
  Pb  Pb0  1  0.31992400  0.16220300  0.86445500  1
  Pb  Pb1  1  0.70257700  0.32118000  0.36554000  1
  O  O0  1  0.34862600  0.19147600  0.03285200  1
  O  O1  1  0.17426100  0.82241700  0.02612200  1
  O  O2  1  0.84067500  0.34542800  0.53202100  1
  O  O3  1  0.20401800  0.17146700  0.52715300  1
  O  O4  1  0.65127000  0.80731700  0.97097900  1
  O  O5  1  0.81108900  0.16983600  0.96903700  1
  O  O6  1  0.16318300  0.65173800  0.47211100  1
  O  O7  1  0.79887200  0.81015700  0.46799900  1
  O  O8  1  0.76825700  0.34695000  0.68911900  1
  O  O9  1  0.41949600  0.34631000  0.68988700  1
  O  O10  1  0.34239900  0.77008500  0.18884200  1
  O  O11  1  0.34599300  0.42185400  0.19024600  1
  O  O12  1  0.23023600  0.65317900  0.31046200  1
  O  O13  1  0.57867600  0.65915000  0.30712400  1
  O  O14  1  0.65774900  0.22794300  0.80741400  1
  O  O15  1  0.65239400  0.57867900  0.81020600  1
  O  O16  1  0.48321600  0.99859800  0.60000900  1
  O  O17  1  0.62295800  0.60797000  0.59999100  1
  O  O18  1  0.60471900  0.47785000  0.09806500  1
  O  O19  1  0.99752700  0.61658900  0.10133500  1
  O  O20  1  0.51769600  0.00468000  0.39883600  1
  O  O21  1  0.37968900  0.40034100  0.40446700  1
  O  O22  1  0.40046300  0.52478300  0.90486500  1
  O  O23  1  0.00437300  0.38020500  0.89824700  1
  O  O24  1  0.19655300  0.05680600  0.67824900  1
  O  O25  1  0.97561900  0.63165700  0.67705800  1
  O  O26  1  0.62909500  0.20192500  0.17906800  1
  O  O27  1  0.04915200  0.97959400  0.17356200  1
  O  O28  1  0.80657400  0.95722100  0.32641200  1
  O  O29  1  0.01852400  0.37522100  0.32559300  1
  O  O30  1  0.37599500  0.80648500  0.82379400  1
  O  O31  1  0.95767300  0.02064300  0.82746800  1
loop_
_geom_bond_atom_site_label_1
_geom_bond_atom_site_label_2
_geom_bond_distance
_geom_bond_site_symmetry_2
Na0 O1 2.347557 1_556
Na0 O23 2.404939 1_555
Na0 O31 2.482555 1_465
Na0 O25 2.604939 1_455
Na0 O15 2.640102 1_455
Na0 O30 2.783814 1_555
Na0 O22 2.867793 1_555
Na1 O3 2.383532 1_555
Na1 O20 2.406405 1_555
Na1 O28 2.487604 1_445
Na1 O27 2.624467 1_545
Na1 O12 2.629540 1_545
Na1 O29 2.756810 1_555
Na1 O21 2.866406 1_555
Na2 O4 2.346458 1_554
Na2 O18 2.463312 1_555
Na2 O26 2.550479 1_565
Na2 O27 2.673546 1_655
Na2 O28 2.682005 1_555
Na2 O10 2.727764 1_555
Na2 O19 2.780942 1_555
Na3 O5 2.379956 1_554
Na3 O19 2.446959 1_555
Na3 O27 2.447801 1_645
Na3 O29 2.677510 1_655
Na3 O11 2.693429 1_655
Na3 O26 2.706064 1_555
Na3 O18 2.832269 1_555
Na4 O6 2.339156 1_555
Na4 O17 2.485405 1_555
Na4 O25 2.497689 1_455
Na4 O30 2.643176 1_555
Na4 O9 2.682703 1_555
Na4 O24 2.746949 1_565
Na4 O16 2.846643 1_555
Na5 O7 2.372070 1_555
Na5 O16 2.435542 1_555
Na5 O24 2.513097 1_665
Na5 O25 2.656493 1_555
Na5 O31 2.719618 1_565
Na5 O8 2.726400 1_565
Na5 O17 2.764962 1_555
B0 O8 1.467870 1_555
B0 O15 1.477493 1_555
B0 O9 1.484045 1_555
B0 O14 1.492542 1_555
B1 O10 1.466841 1_555
B1 O12 1.483710 1_555
B1 O11 1.483826 1_555
B1 O13 1.489999 1_555
O0 P3 1.538052 1_555
O0 Pb0 2.405156 1_554
O1 P2 1.528855 1_555
O2 P0 1.536814 1_555
O2 Pb1 2.387463 1_555
O3 P1 1.526860 1_555
O4 P7 1.525352 1_555
O5 P6 1.533289 1_555
O6 P4 1.524265 1_555
O7 P5 1.534314 1_555
O8 P0 1.588779 1_555
O9 P1 1.597970 1_555
O10 P2 1.602082 1_555
O11 P3 1.590181 1_555
O12 P4 1.592759 1_555
O13 P5 1.603889 1_555
O13 Pb1 2.780960 1_555
O14 P6 1.607672 1_555
O14 Pb0 2.764814 1_555
O15 P7 1.590518 1_555
O16 P1 1.533109 1_565
O17 P0 1.537047 1_555
O18 P3 1.529454 1_555
O19 P2 1.536525 1_655
O20 P5 1.532625 1_545
O20 Pb1 2.769985 1_555
O21 P4 1.544956 1_555
O21 Pb1 2.493178 1_555
O22 P7 1.543981 1_555
O22 Pb0 2.506855 1_555
O23 P6 1.532493 1_455
O23 Pb0 2.762530 1_555
O24 P1 1.545257 1_555
O24 Pb0 2.605078 1_555
O25 P0 1.534914 1_555
O26 P3 1.549178 1_555
O26 Pb1 2.606991 1_555
O27 P2 1.528111 1_555
O28 P5 1.544033 1_555
O28 Pb1 2.624620 1_565
O29 P4 1.552609 1_555
O29 Pb1 2.472496 1_455
O30 P7 1.550449 1_555
O30 Pb0 2.480140 1_565
O31 P6 1.542480 1_555
O31 Pb0 2.616129 1_655
