# generated using pymatgen
data_V2OF6
_symmetry_space_group_name_H-M   'P 1'
_cell_length_a   7.46367821
_cell_length_b   7.46367821
_cell_length_c   7.46367821
_cell_angle_alpha   120.29094215
_cell_angle_beta   119.70652169
_cell_angle_gamma   90.00294151
_symmetry_Int_Tables_number   1
_chemical_formula_structural   V2OF6
_chemical_formula_sum   'V4 O2 F12'
_cell_volume   293.99363426
_cell_formula_units_Z   2
loop_
 _symmetry_equiv_pos_site_id
 _symmetry_equiv_pos_as_xyz
  1  'x, y, z'
loop_
 _atom_site_type_symbol
 _atom_site_label
 _atom_site_symmetry_multiplicity
 _atom_site_fract_x
 _atom_site_fract_y
 _atom_site_fract_z
 _atom_site_occupancy
  V  V0  1  0.49897500  0.99990500  0.99906900  1
  V  V1  1  0.99916400  0.00009500  0.49906900  1
  V  V2  1  0.49901300  0.00000000  0.49901300  1
  V  V3  1  0.49901300  0.50000000  0.99901300  1
  O  O0  1  0.85867400  0.64691300  0.71176200  1
  O  O1  1  0.06484900  0.35308700  0.21176200  1
  F  F0  1  0.55989500  0.31022400  0.11983400  1
  F  F1  1  0.18761800  0.93988200  0.37656700  1
  F  F2  1  0.56255200  0.31330500  0.74924600  1
  F  F3  1  0.18846500  0.93956300  0.74890300  1
  F  F4  1  0.18761800  0.31105100  0.74773600  1
  F  F5  1  0.55989500  0.94006100  0.74967100  1
  F  F6  1  0.43668500  0.68894900  0.87656700  1
  F  F7  1  0.80961000  0.05993900  0.61983400  1
  F  F8  1  0.43594100  0.68669500  0.24924600  1
  F  F9  1  0.80934000  0.06043700  0.24890300  1
  F  F10  1  0.80961000  0.68977600  0.24967100  1
  F  F11  1  0.43668500  0.06011800  0.24773600  1
loop_
_geom_bond_atom_site_label_1
_geom_bond_atom_site_label_2
_geom_bond_distance
_geom_bond_site_symmetry_2
F0 V0 1.967567 1_544
F0 V3 1.976963 1_554
F1 V1 1.968888 1_465
F1 V2 1.979718 1_565
F2 V2 1.974219 1_555
F2 V3 1.974226 1_555
F3 V1 1.978921 1_465
F3 V0 1.980644 1_555
F4 V1 1.968888 1_455
F4 V3 1.979718 1_555
F5 V0 1.967562 1_555
F5 V2 1.976963 1_565
F6 V0 1.968888 1_555
F6 V3 1.979718 1_555
F7 V1 1.967567 1_555
F7 V2 1.976963 1_555
F8 V3 1.974221 1_554
F8 V2 1.974221 1_565
F9 V0 1.978918 1_544
F9 V1 1.980633 1_555
F10 V1 1.967567 1_565
F10 V3 1.976963 1_554
F11 V0 1.968893 1_544
F11 V2 1.979718 1_555
