# generated using pymatgen
data_Yb8Al3Ga
_symmetry_space_group_name_H-M   'P 1'
_cell_length_a   10.43642944
_cell_length_b   10.43642944
_cell_length_c   10.43642974
_cell_angle_alpha   33.54932201
_cell_angle_beta   33.54932201
_cell_angle_gamma   33.54932300
_symmetry_Int_Tables_number   1
_chemical_formula_structural   Yb8Al3Ga
_chemical_formula_sum   'Yb8 Al3 Ga1'
_cell_volume   309.24356714
_cell_formula_units_Z   1
loop_
 _symmetry_equiv_pos_site_id
 _symmetry_equiv_pos_as_xyz
  1  'x, y, z'
loop_
 _atom_site_type_symbol
 _atom_site_label
 _atom_site_symmetry_multiplicity
 _atom_site_fract_x
 _atom_site_fract_y
 _atom_site_fract_z
 _atom_site_occupancy
  Yb  Yb0  1  0.56228778  0.06189394  0.56228778  1
  Yb  Yb1  1  0.06232055  0.56361385  0.06232055  1
  Yb  Yb2  1  0.06189394  0.56228778  0.56228778  1
  Yb  Yb3  1  0.56361385  0.06232055  0.06232055  1
  Yb  Yb4  1  0.81259531  0.81259531  0.81259531  1
  Yb  Yb5  1  0.31250040  0.31250040  0.31250040  1
  Yb  Yb6  1  0.56228778  0.56228778  0.06189394  1
  Yb  Yb7  1  0.06232055  0.06232055  0.56361385  1
  Al  Al0  1  0.62472865  0.62472865  0.62472865  1
  Al  Al1  1  0.99854851  0.99854851  0.99854851  1
  Al  Al2  1  0.50194277  0.50194277  0.50194277  1
  Ga  Ga0  1  0.12495893  0.12495893  0.12495893  1
loop_
_geom_bond_atom_site_label_1
_geom_bond_atom_site_label_2
_geom_bond_distance
_geom_bond_site_symmetry_2
Yb0 Yb5 3.005073 1_555
Yb0 Yb6 3.009669 1_546
Yb0 Yb2 3.009669 1_645
Yb0 Yb6 3.014414 1_555
Yb0 Yb2 3.014414 1_555
Yb0 Yb4 3.022363 1_545
Yb1 Yb7 3.004250 1_564
Yb1 Yb3 3.004250 1_465
Yb1 Yb5 3.009114 1_555
Yb1 Yb4 3.013742 1_454
Yb1 Yb7 3.019832 1_555
Yb1 Yb3 3.019832 1_555
Yb2 Yb5 3.005073 1_555
Yb2 Yb6 3.009669 1_456
Yb2 Yb6 3.014414 1_555
Yb2 Yb4 3.022363 1_455
Yb3 Yb7 3.004250 1_654
Yb3 Yb5 3.009114 1_555
Yb3 Yb4 3.013742 1_544
Yb3 Yb7 3.019832 1_555
Yb4 Yb7 3.013742 1_665
Yb4 Yb6 3.022362 1_556
Yb5 Yb6 3.005073 1_555
Yb5 Yb7 3.009114 1_555
Al0 Yb3 3.524145 1_556
Al0 Yb1 3.524145 1_556
Al0 Yb7 3.524145 1_565
Al0 Yb7 3.524145 1_655
Al0 Yb3 3.524145 1_565
Al0 Yb1 3.524145 1_655
Al0 Yb0 3.530099 1_565
Al0 Yb2 3.530099 1_655
Al0 Yb6 3.530099 1_556
Al0 Yb5 3.533365 1_565
Al0 Yb5 3.533365 1_655
Al0 Yb5 3.533365 1_556
Al1 Yb1 3.486713 1_656
Al1 Yb3 3.486713 1_566
Al1 Yb7 3.486713 1_665
Al1 Yb5 3.524749 1_656
Al1 Yb5 3.524749 1_566
Al1 Yb5 3.524749 1_665
Al1 Yb2 3.549376 1_665
Al1 Yb0 3.549376 1_665
Al1 Yb6 3.549376 1_656
Al1 Yb6 3.549376 1_566
Al1 Yb2 3.549376 1_656
Al1 Yb0 3.549376 1_566
Al2 Yb3 3.506368 1_565
Al2 Yb1 3.506368 1_655
Al2 Yb7 3.506368 1_655
Al2 Yb7 3.506368 1_565
Al2 Yb3 3.506368 1_556
Al2 Yb1 3.506368 1_556
Al2 Yb4 3.541862 1_545
Al2 Yb4 3.541862 1_455
Al2 Yb4 3.541862 1_554
Al2 Yb2 3.592190 1_555
Al2 Yb0 3.592190 1_555
Al2 Yb6 3.592191 1_555
Ga0 Yb4 3.532662 1_544
Ga0 Yb4 3.532662 1_454
Ga0 Yb4 3.532662 1_445
Ga0 Yb0 3.536854 1_455
Ga0 Yb2 3.536854 1_545
Ga0 Yb6 3.536854 1_455
Ga0 Yb6 3.536854 1_545
Ga0 Yb2 3.536854 1_554
Ga0 Yb0 3.536854 1_554
Ga0 Yb3 3.542363 1_555
Ga0 Yb1 3.542363 1_555
Ga0 Yb7 3.542363 1_555
