# generated using pymatgen
data_Mg6Si5
_symmetry_space_group_name_H-M   'P 1'
_cell_length_a   4.15829900
_cell_length_b   6.66628133
_cell_length_c   15.08861610
_cell_angle_alpha   86.34452640
_cell_angle_beta   89.12625257
_cell_angle_gamma   89.42531199
_symmetry_Int_Tables_number   1
_chemical_formula_structural   Mg6Si5
_chemical_formula_sum   'Mg12 Si10'
_cell_volume   417.34563917
_cell_formula_units_Z   2
loop_
 _symmetry_equiv_pos_site_id
 _symmetry_equiv_pos_as_xyz
  1  'x, y, z'
loop_
 _atom_site_type_symbol
 _atom_site_label
 _atom_site_symmetry_multiplicity
 _atom_site_fract_x
 _atom_site_fract_y
 _atom_site_fract_z
 _atom_site_occupancy
  Mg  Mg0  1  0.73926400  0.01608100  0.08485100  1
  Mg  Mg1  1  0.68467400  0.42855500  0.50770400  1
  Mg  Mg2  1  0.20422700  0.29880000  0.36630800  1
  Mg  Mg3  1  0.17638600  0.59882700  0.64739400  1
  Mg  Mg4  1  0.69134700  0.57224400  0.83812800  1
  Mg  Mg5  1  0.72559700  0.55278100  0.05607400  1
  Mg  Mg6  1  0.18238900  0.75695900  0.42768700  1
  Mg  Mg7  1  0.19666500  0.11044000  0.57618600  1
  Mg  Mg8  1  0.22479100  0.29662900  0.97632000  1
  Mg  Mg9  1  0.20652200  0.70044600  0.19752100  1
  Mg  Mg10  1  0.22406100  0.79387400  0.96458200  1
  Mg  Mg11  1  0.71127700  0.06628200  0.87649100  1
  Si  Si0  1  0.67053300  0.79929100  0.55279600  1
  Si  Si1  1  0.71081900  0.06468100  0.44117000  1
  Si  Si2  1  0.71580200  0.96017900  0.28997800  1
  Si  Si3  1  0.20261700  0.87939300  0.78243500  1
  Si  Si4  1  0.68570100  0.30021700  0.68760400  1
  Si  Si5  1  0.68657600  0.58414800  0.33433100  1
  Si  Si6  1  0.73180400  0.35789200  0.21735100  1
  Si  Si7  1  0.19527600  0.28838400  0.78642400  1
  Si  Si8  1  0.70032800  0.93060800  0.69368700  1
  Si  Si9  1  0.23327500  0.14699100  0.19860100  1
loop_
_geom_bond_atom_site_label_1
_geom_bond_atom_site_label_2
_geom_bond_distance
_geom_bond_site_symmetry_2
Mg0 Si9 2.859795 1_555
Mg0 Si9 2.874330 1_655
Mg0 Si2 3.093925 1_545
Mg0 Si6 3.125310 1_555
Mg1 Si0 2.604730 1_555
Mg1 Si1 2.684306 1_555
Mg1 Si5 2.751852 1_555
Mg1 Si4 2.793620 1_555
Mg2 Si1 2.773102 1_455
Mg2 Si9 2.785097 1_555
Mg2 Si5 2.793605 1_555
Mg2 Si1 2.816227 1_555
Mg2 Si5 2.883950 1_455
Mg2 Si6 3.011990 1_455
Mg2 Si6 3.126276 1_555
Mg3 Si0 2.787082 1_555
Mg3 Si0 2.835451 1_455
Mg3 Si7 2.852688 1_555
Mg3 Si3 2.856326 1_555
Mg3 Si4 2.895458 1_455
Mg3 Si4 2.935423 1_555
Mg3 Si8 3.060309 1_455
Mg4 Si7 2.939268 1_655
Mg4 Si7 2.959764 1_555
Mg4 Si3 2.962765 1_555
Mg4 Si4 2.995831 1_555
Mg4 Si3 3.038413 1_655
Mg4 Si8 3.129498 1_555
Mg5 Si6 2.684831 1_555
Mg6 Si5 2.788418 1_555
Mg6 Si5 2.811621 1_455
Mg6 Si0 2.821293 1_555
Mg6 Si1 2.838145 1_465
Mg6 Si0 2.847239 1_455
Mg6 Si1 3.038944 1_565
Mg6 Si2 3.102963 1_455
Mg6 Si2 3.260888 1_555
Mg7 Si0 2.880945 1_545
Mg7 Si8 2.916709 1_445
Mg7 Si1 2.922664 1_455
Mg7 Si1 2.957642 1_555
Mg7 Si8 2.959513 1_545
Mg7 Si4 2.998194 1_555
Mg7 Si4 3.008255 1_455
Mg7 Si0 3.069421 1_445
Mg8 Si7 2.873810 1_555
Mg9 Si5 2.955957 1_555
Mg9 Si9 2.981079 1_565
Mg9 Si6 3.030877 1_455
Mg9 Si5 3.038149 1_455
Mg9 Si2 3.042743 1_455
Mg9 Si2 3.146517 1_555
Mg9 Si6 3.147698 1_555
Mg10 Si3 2.773631 1_555
Mg11 Si7 2.794531 1_655
Mg11 Si3 2.797604 1_645
Mg11 Si3 2.899997 1_545
Mg11 Si7 2.900277 1_555
Mg11 Si8 2.958182 1_545
Mg11 Si4 3.163100 1_555
Si0 Si8 2.355507 1_555
Si0 Si1 2.369006 1_565
Si1 Si2 2.427114 1_545
Si2 Si5 2.556568 1_555
Si2 Si9 2.700582 1_565
Si2 Si9 2.797577 1_665
Si2 Si6 2.804523 1_565
Si3 Si8 2.462608 1_555
Si3 Si8 2.506979 1_455
Si3 Si7 2.730802 1_565
Si4 Si8 2.459947 1_545
Si4 Si7 2.506760 1_555
Si4 Si7 2.607201 1_655
Si5 Si6 2.397793 1_555
Si6 Si9 2.525652 1_655
Si6 Si9 2.545820 1_555
