# generated using pymatgen
data_K3GeS3
_symmetry_space_group_name_H-M   'P 1'
_cell_length_a   7.58118704
_cell_length_b   7.58118691
_cell_length_c   8.19867283
_cell_angle_alpha   104.78171156
_cell_angle_beta   104.78171553
_cell_angle_gamma   109.87885425
_symmetry_Int_Tables_number   1
_chemical_formula_structural   K3GeS3
_chemical_formula_sum   'K6 Ge2 S6'
_cell_volume   397.02916433
_cell_formula_units_Z   2
loop_
 _symmetry_equiv_pos_site_id
 _symmetry_equiv_pos_as_xyz
  1  'x, y, z'
loop_
 _atom_site_type_symbol
 _atom_site_label
 _atom_site_symmetry_multiplicity
 _atom_site_fract_x
 _atom_site_fract_y
 _atom_site_fract_z
 _atom_site_occupancy
  K  K0  1  0.21631121  0.21631121  0.68532882  1
  K  K1  1  0.78368879  0.78368879  0.31467118  1
  K  K2  1  0.00000000  0.50000000  0.00000000  1
  K  K3  1  0.50000000  -0.00000000  0.00000000  1
  K  K4  1  0.33215548  0.66784452  0.50000000  1
  K  K5  1  0.66784452  0.33215548  0.50000000  1
  Ge  Ge0  1  0.88173835  0.88173835  0.84401377  1
  Ge  Ge1  1  0.11826165  0.11826165  0.15598623  1
  S  S0  1  0.24336597  0.94980653  0.30034259  1
  S  S1  1  0.05019347  0.75663403  0.69965741  1
  S  S2  1  0.63139711  0.63139711  0.85753130  1
  S  S3  1  0.36860289  0.36860289  0.14246870  1
  S  S4  1  0.75663403  0.05019347  0.69965741  1
  S  S5  1  0.94980653  0.24336597  0.30034259  1
loop_
_geom_bond_atom_site_label_1
_geom_bond_atom_site_label_2
_geom_bond_distance
_geom_bond_site_symmetry_2
K0 S2 3.244994 1_555
K0 S1 3.323262 1_545
K0 S4 3.323262 1_455
K0 S3 3.374968 1_556
K0 S5 3.383035 1_455
K0 S0 3.383035 1_545
K1 S3 3.244994 1_555
K1 S5 3.323262 1_565
K1 S0 3.323262 1_655
K1 S2 3.374968 1_554
K1 S1 3.383035 1_655
K1 S4 3.383035 1_565
K2 S4 3.195990 1_454
K2 S0 3.195990 1_555
K2 S2 3.314640 1_454
K2 S3 3.314640 1_555
K2 S1 3.523192 1_554
K2 S5 3.523192 1_455
K3 S1 3.195990 1_544
K3 S5 3.195990 1_555
K3 S3 3.314640 1_555
K3 S2 3.314640 1_544
K3 S0 3.523192 1_545
K3 S4 3.523192 1_554
K4 S0 3.147027 1_555
K4 S1 3.147027 1_555
K4 S4 3.159867 1_565
K4 S5 3.159867 1_455
K4 S2 3.355839 1_555
K4 S3 3.355839 1_555
K5 S4 3.147027 1_555
K5 S5 3.147027 1_555
K5 S0 3.159867 1_545
K5 S1 3.159867 1_655
K5 S3 3.355839 1_555
K5 S2 3.355839 1_555
Ge0 S4 2.225633 1_565
Ge0 S1 2.225633 1_655
Ge0 S2 2.231882 1_555
Ge1 S0 2.225633 1_545
Ge1 S5 2.225633 1_455
Ge1 S3 2.231882 1_555
