# generated using pymatgen
data_GaP2H15C5(NO4)2
_symmetry_space_group_name_H-M   'P 1'
_cell_length_a   9.13282800
_cell_length_b   9.21404000
_cell_length_c   15.50183800
_cell_angle_alpha   90.00000000
_cell_angle_beta   90.00000000
_cell_angle_gamma   90.00000000
_symmetry_Int_Tables_number   1
_chemical_formula_structural   GaP2H15C5(NO4)2
_chemical_formula_sum   'Ga4 P8 H60 C20 N8 O32'
_cell_volume   1304.48342698
_cell_formula_units_Z   4
loop_
 _symmetry_equiv_pos_site_id
 _symmetry_equiv_pos_as_xyz
  1  'x, y, z'
loop_
 _atom_site_type_symbol
 _atom_site_label
 _atom_site_symmetry_multiplicity
 _atom_site_fract_x
 _atom_site_fract_y
 _atom_site_fract_z
 _atom_site_occupancy
  Ga  Ga0  1  0.50000000  0.25423900  0.00000000  1
  Ga  Ga1  1  0.00000000  0.24576100  0.50000000  1
  Ga  Ga2  1  0.50000000  0.74576100  0.00000000  1
  Ga  Ga3  1  0.00000000  0.75423900  0.50000000  1
  P  P0  1  0.65421900  0.00000000  0.08963200  1
  P  P1  1  0.34578100  0.00000000  0.91036800  1
  P  P2  1  0.84578100  0.50000000  0.58963200  1
  P  P3  1  0.15421900  0.50000000  0.41036800  1
  P  P4  1  0.65930900  0.50000000  0.89320900  1
  P  P5  1  0.34069100  0.50000000  0.10679100  1
  P  P6  1  0.84069100  0.00000000  0.39320900  1
  P  P7  1  0.15930900  0.00000000  0.60679100  1
  H  H0  1  0.79558600  0.00000000  0.20542600  1
  H  H1  1  0.20441400  0.00000000  0.79457400  1
  H  H2  1  0.70441400  0.50000000  0.70542600  1
  H  H3  1  0.29558600  0.50000000  0.29457400  1
  H  H4  1  0.33799500  0.40328000  0.62733700  1
  H  H5  1  0.66200500  0.40328000  0.37266300  1
  H  H6  1  0.16200500  0.09672000  0.12733700  1
  H  H7  1  0.83799500  0.09672000  0.87266300  1
  H  H8  1  0.66200500  0.59672000  0.37266300  1
  H  H9  1  0.33799500  0.59672000  0.62733700  1
  H  H10  1  0.83799500  0.90328000  0.87266300  1
  H  H11  1  0.16200500  0.90328000  0.12733700  1
  H  H12  1  0.11889600  0.50000000  0.68967000  1
  H  H13  1  0.88110400  0.50000000  0.31033000  1
  H  H14  1  0.38110400  0.00000000  0.18967000  1
  H  H15  1  0.61889600  0.00000000  0.81033000  1
  H  H16  1  0.21465400  0.27137600  0.74126900  1
  H  H17  1  0.78534600  0.27137600  0.25873100  1
  H  H18  1  0.28534600  0.22862400  0.24126900  1
  H  H19  1  0.71465400  0.22862400  0.75873100  1
  H  H20  1  0.78534600  0.72862400  0.25873100  1
  H  H21  1  0.21465400  0.72862400  0.74126900  1
  H  H22  1  0.71465400  0.77137600  0.75873100  1
  H  H23  1  0.28534600  0.77137600  0.24126900  1
  H  H24  1  0.31485800  0.36764700  0.82333300  1
  H  H25  1  0.68514200  0.36764700  0.17666700  1
  H  H26  1  0.18514200  0.13235300  0.32333300  1
  H  H27  1  0.81485800  0.13235300  0.67666700  1
  H  H28  1  0.68514200  0.63235300  0.17666700  1
  H  H29  1  0.31485800  0.63235300  0.82333300  1
  H  H30  1  0.81485800  0.86764700  0.67666700  1
  H  H31  1  0.18514200  0.86764700  0.32333300  1
  H  H32  1  0.97977400  0.36142800  0.79650900  1
  H  H33  1  0.02022600  0.36142800  0.20349100  1
  H  H34  1  0.52022600  0.13857200  0.29650900  1
  H  H35  1  0.47977400  0.13857200  0.70349100  1
  H  H36  1  0.02022600  0.63857200  0.20349100  1
  H  H37  1  0.97977400  0.63857200  0.79650900  1
  H  H38  1  0.47977400  0.86142800  0.70349100  1
  H  H39  1  0.52022600  0.86142800  0.29650900  1
  H  H40  1  0.08006800  0.27189300  0.88147100  1
  H  H41  1  0.91993200  0.27189300  0.11852900  1
  H  H42  1  0.41993200  0.22810700  0.38147100  1
  H  H43  1  0.58006800  0.22810700  0.61852900  1
  H  H44  1  0.91993200  0.72810700  0.11852900  1
  H  H45  1  0.08006800  0.72810700  0.88147100  1
  H  H46  1  0.58006800  0.77189300  0.61852900  1
  H  H47  1  0.41993200  0.77189300  0.38147100  1
  H  H48  1  0.13802100  0.50000000  0.94318300  1
  H  H49  1  0.86197900  0.50000000  0.05681700  1
  H  H50  1  0.36197900  0.00000000  0.44318300  1
  H  H51  1  0.63802100  0.00000000  0.55681700  1
  H  H52  1  0.95366300  0.50000000  0.91775100  1
  H  H53  1  0.04633700  0.50000000  0.08224900  1
  H  H54  1  0.54633700  0.00000000  0.41775100  1
  H  H55  1  0.45366300  0.00000000  0.58224900  1
  H  H56  1  0.44667300  0.50000000  0.70544900  1
  H  H57  1  0.55332700  0.50000000  0.29455100  1
  H  H58  1  0.05332700  0.00000000  0.20544900  1
  H  H59  1  0.94667300  0.00000000  0.79455100  1
  C  C0  1  0.21513600  0.36717600  0.78348100  1
  C  C1  1  0.78486400  0.36717600  0.21651900  1
  C  C2  1  0.28486400  0.13282400  0.28348100  1
  C  C3  1  0.71513600  0.13282400  0.71651900  1
  C  C4  1  0.78486400  0.63282400  0.21651900  1
  C  C5  1  0.21513600  0.63282400  0.78348100  1
  C  C6  1  0.71513600  0.86717600  0.71651900  1
  C  C7  1  0.28486400  0.86717600  0.28348100  1
  C  C8  1  0.07708500  0.36571900  0.83800700  1
  C  C9  1  0.92291500  0.36571900  0.16199300  1
  C  C10  1  0.42291500  0.13428100  0.33800700  1
  C  C11  1  0.57708500  0.13428100  0.66199300  1
  C  C12  1  0.92291500  0.63428100  0.16199300  1
  C  C13  1  0.07708500  0.63428100  0.83800700  1
  C  C14  1  0.57708500  0.86571900  0.66199300  1
  C  C15  1  0.42291500  0.86571900  0.33800700  1
  C  C16  1  0.34502500  0.50000000  0.66819800  1
  C  C17  1  0.65497500  0.50000000  0.33180200  1
  C  C18  1  0.15497500  0.00000000  0.16819800  1
  C  C19  1  0.84502500  0.00000000  0.83180200  1
  N  N0  1  0.21844300  0.50000000  0.72802100  1
  N  N1  1  0.78155700  0.50000000  0.27197900  1
  N  N2  1  0.28155700  0.00000000  0.22802100  1
  N  N3  1  0.71844300  0.00000000  0.77197900  1
  N  N4  1  0.06229600  0.50000000  0.89113600  1
  N  N5  1  0.93770400  0.50000000  0.10886400  1
  N  N6  1  0.43770400  0.00000000  0.39113600  1
  N  N7  1  0.56229600  0.00000000  0.60886400  1
  O  O0  1  0.52753100  0.00000000  0.15192200  1
  O  O1  1  0.47246900  0.00000000  0.84807800  1
  O  O2  1  0.97246900  0.50000000  0.65192200  1
  O  O3  1  0.02753100  0.50000000  0.34807800  1
  O  O4  1  0.80576000  0.00000000  0.13854400  1
  O  O5  1  0.19424000  0.00000000  0.86145600  1
  O  O6  1  0.69424000  0.50000000  0.63854400  1
  O  O7  1  0.30576000  0.50000000  0.36145600  1
  O  O8  1  0.65834900  0.13790400  0.03063800  1
  O  O9  1  0.34165100  0.13790400  0.96936200  1
  O  O10  1  0.84165100  0.36209600  0.53063800  1
  O  O11  1  0.15834900  0.36209600  0.46936200  1
  O  O12  1  0.34165100  0.86209600  0.96936200  1
  O  O13  1  0.65834900  0.86209600  0.03063800  1
  O  O14  1  0.15834900  0.63790400  0.46936200  1
  O  O15  1  0.84165100  0.63790400  0.53063800  1
  O  O16  1  0.78588200  0.50000000  0.95907900  1
  O  O17  1  0.21411800  0.50000000  0.04092100  1
  O  O18  1  0.71411800  0.00000000  0.45907900  1
  O  O19  1  0.28588200  0.00000000  0.54092100  1
  O  O20  1  0.71427100  0.50000000  0.80088500  1
  O  O21  1  0.28572900  0.50000000  0.19911500  1
  O  O22  1  0.78572900  0.00000000  0.30088500  1
  O  O23  1  0.21427100  0.00000000  0.69911500  1
  O  O24  1  0.55705700  0.36266900  0.90601900  1
  O  O25  1  0.44294300  0.36266900  0.09398100  1
  O  O26  1  0.94294300  0.13733100  0.40601900  1
  O  O27  1  0.05705700  0.13733100  0.59398100  1
  O  O28  1  0.44294300  0.63733100  0.09398100  1
  O  O29  1  0.55705700  0.63733100  0.90601900  1
  O  O30  1  0.05705700  0.86266900  0.59398100  1
  O  O31  1  0.94294300  0.86266900  0.40601900  1
loop_
_geom_bond_atom_site_label_1
_geom_bond_atom_site_label_2
_geom_bond_distance
_geom_bond_site_symmetry_2
Ga0 O24 1.841789 1_554
Ga0 O25 1.841789 1_555
Ga0 O8 1.861718 1_555
Ga0 O9 1.861718 1_554
Ga1 O27 1.841789 1_555
Ga1 O26 1.841789 1_455
Ga1 O11 1.861718 1_555
Ga1 O10 1.861718 1_455
Ga2 O29 1.841789 1_554
Ga2 O28 1.841789 1_555
Ga2 O13 1.861718 1_555
Ga2 O12 1.861718 1_554
Ga3 O31 1.841789 1_455
Ga3 O30 1.841789 1_555
Ga3 O15 1.861718 1_455
Ga3 O14 1.861718 1_555
H0 O4 1.040949 1_555
H0 O22 1.482526 1_555
H1 O5 1.040949 1_555
H1 O23 1.482526 1_555
H2 O6 1.040949 1_555
H2 O20 1.482526 1_555
H3 O7 1.040949 1_555
H3 O21 1.482526 1_555
H12 N0 1.086273 1_555
H12 O2 1.459715 1_455
H13 N1 1.086273 1_555
H13 O3 1.459715 1_655
H14 N2 1.086273 1_555
H14 O0 1.459715 1_555
H15 N3 1.086273 1_555
H15 O1 1.459715 1_555
H48 N4 1.062663 1_555
H48 O17 1.666908 1_556
H49 N5 1.062663 1_555
H49 O16 1.666908 1_554
H50 N6 1.062663 1_555
H50 O19 1.666908 1_555
H51 N7 1.062663 1_555
H51 O18 1.666908 1_555
H52 N4 1.074494 1_655
H52 O16 1.660854 1_555
H53 N5 1.074494 1_455
H53 O17 1.660854 1_555
H54 N6 1.074494 1_555
H54 O18 1.660854 1_555
H55 N7 1.074494 1_555
H55 O19 1.660854 1_555
C0 H16 1.098808 1_555
C0 H24 1.100511 1_555
C0 N0 1.495944 1_555
C1 H17 1.098808 1_555
C1 H25 1.100511 1_555
C1 N1 1.495944 1_555
C2 H18 1.098808 1_555
C2 H26 1.100511 1_555
C2 N2 1.495944 1_555
C3 H19 1.098808 1_555
C3 H27 1.100511 1_555
C3 N3 1.495944 1_555
C4 H20 1.098808 1_555
C4 H28 1.100511 1_555
C4 N1 1.495944 1_555
C5 H21 1.098808 1_555
C5 H29 1.100511 1_555
C5 N0 1.495944 1_555
C6 H22 1.098808 1_555
C6 H30 1.100511 1_555
C6 N3 1.495944 1_565
C7 H23 1.098808 1_555
C7 H31 1.100511 1_555
C7 N2 1.495944 1_565
C8 H40 1.096403 1_555
C8 H32 1.097827 1_455
C8 N4 1.492445 1_555
C9 H41 1.096403 1_555
C9 H33 1.097827 1_655
C9 N5 1.492445 1_555
C10 H42 1.096403 1_555
C10 H34 1.097827 1_555
C10 N6 1.492445 1_555
C11 H43 1.096403 1_555
C11 H35 1.097827 1_555
C11 N7 1.492445 1_555
C12 H44 1.096403 1_555
C12 H36 1.097827 1_655
C12 N5 1.492445 1_555
C13 H45 1.096403 1_555
C13 H37 1.097827 1_455
C13 N4 1.492445 1_555
C14 H46 1.096403 1_555
C14 H38 1.097827 1_555
C14 N7 1.492445 1_565
C15 H47 1.096403 1_555
C15 H39 1.097827 1_555
C15 N6 1.492445 1_565
C16 H56 1.093281 1_555
C16 H4 1.095239 1_555
C16 H9 1.095239 1_555
C16 N0 1.482047 1_555
C17 H57 1.093281 1_555
C17 H5 1.095239 1_555
C17 H8 1.095239 1_555
C17 N1 1.482047 1_555
C18 H58 1.093281 1_555
C18 H6 1.095239 1_555
C18 H11 1.095239 1_545
C18 N2 1.482047 1_555
C19 H59 1.093281 1_555
C19 H7 1.095239 1_555
C19 H10 1.095239 1_545
C19 N3 1.482047 1_555
O0 P0 1.507016 1_555
O1 P1 1.507016 1_555
O2 P2 1.507016 1_555
O3 P3 1.507016 1_555
O4 P0 1.578086 1_555
O5 P1 1.578086 1_555
O6 P2 1.578086 1_555
O7 P3 1.578086 1_555
O8 P0 1.565989 1_555
O9 P1 1.565989 1_555
O10 P2 1.565989 1_555
O11 P3 1.565989 1_555
O12 P1 1.565989 1_565
O13 P0 1.565989 1_565
O14 P3 1.565989 1_555
O15 P2 1.565989 1_555
O16 P4 1.542376 1_555
O17 P5 1.542376 1_555
O18 P6 1.542376 1_555
O19 P7 1.542376 1_555
O20 P4 1.516665 1_555
O21 P5 1.516665 1_555
O22 P6 1.516665 1_555
O23 P7 1.516665 1_555
O24 P4 1.585143 1_555
O25 P5 1.585143 1_555
O26 P6 1.585143 1_555
O27 P7 1.585143 1_555
O28 P5 1.585143 1_555
O29 P4 1.585143 1_555
O30 P7 1.585143 1_565
O31 P6 1.585143 1_565
