# generated using pymatgen
data_Sr10Cu5Mo4WO30
_symmetry_space_group_name_H-M   'P 1'
_cell_length_a   5.75680656
_cell_length_b   5.75680656
_cell_length_c   19.82755341
_cell_angle_alpha   82.40126258
_cell_angle_beta   82.40126258
_cell_angle_gamma   95.06321839
_symmetry_Int_Tables_number   1
_chemical_formula_structural   Sr10Cu5Mo4WO30
_chemical_formula_sum   'Sr10 Cu5 Mo4 W1 O30'
_cell_volume   641.86151971
_cell_formula_units_Z   1
loop_
 _symmetry_equiv_pos_site_id
 _symmetry_equiv_pos_as_xyz
  1  'x, y, z'
loop_
 _atom_site_type_symbol
 _atom_site_label
 _atom_site_symmetry_multiplicity
 _atom_site_fract_x
 _atom_site_fract_y
 _atom_site_fract_z
 _atom_site_occupancy
  Sr  Sr0  1  0.34992100  0.84995600  0.30010400  1
  Sr  Sr1  1  0.74997900  0.25002100  0.50000000  1
  Sr  Sr2  1  0.15004400  0.65007900  0.69989600  1
  Sr  Sr3  1  0.94970300  0.44974400  0.10062400  1
  Sr  Sr4  1  0.55025600  0.05029700  0.89937600  1
  Sr  Sr5  1  0.84995600  0.34992100  0.30010400  1
  Sr  Sr6  1  0.25002100  0.74997900  0.50000000  1
  Sr  Sr7  1  0.65007900  0.15004400  0.69989600  1
  Sr  Sr8  1  0.44974400  0.94970300  0.10062400  1
  Sr  Sr9  1  0.05029700  0.55025600  0.89937600  1
  Cu  Cu0  1  0.89968400  0.89968400  0.20040400  1
  Cu  Cu1  1  0.29998900  0.29998900  0.39997900  1
  Cu  Cu2  1  0.70001100  0.70001100  0.60002100  1
  Cu  Cu3  1  0.50000000  0.50000000  0.00000000  1
  Cu  Cu4  1  0.10031600  0.10031600  0.79959600  1
  Mo  Mo0  1  0.60007800  0.60007800  0.79993500  1
  Mo  Mo1  1  0.20001200  0.20001200  0.59991900  1
  Mo  Mo2  1  0.79998800  0.79998800  0.40008100  1
  Mo  Mo3  1  0.39992200  0.39992200  0.20006500  1
  W  W0  1  0.00000000  0.00000000  0.00000000  1
  O  O0  1  0.62954200  0.17038700  0.20000000  1
  O  O1  1  0.02955500  0.57038600  0.40000100  1
  O  O2  1  0.42961400  0.97044500  0.59999900  1
  O  O3  1  0.22965200  0.77034800  0.00000000  1
  O  O4  1  0.82961300  0.37045800  0.80000000  1
  O  O5  1  0.57038600  0.02955500  0.40000100  1
  O  O6  1  0.97044500  0.42961400  0.59999900  1
  O  O7  1  0.37045800  0.82961300  0.80000000  1
  O  O8  1  0.17038700  0.62954200  0.20000000  1
  O  O9  1  0.77034800  0.22965200  0.00000000  1
  O  O10  1  0.59637200  0.59637200  0.89841700  1
  O  O11  1  0.19652600  0.19652600  0.69844400  1
  O  O12  1  0.79651800  0.79651800  0.49844200  1
  O  O13  1  0.39645400  0.39645400  0.29847900  1
  O  O14  1  0.99667600  0.99667600  0.09857600  1
  O  O15  1  0.80347400  0.80347400  0.30155600  1
  O  O16  1  0.40362800  0.40362800  0.10158300  1
  O  O17  1  0.00332400  0.00332400  0.90142400  1
  O  O18  1  0.60354600  0.60354600  0.70152100  1
  O  O19  1  0.20348200  0.20348200  0.50155800  1
  O  O20  1  0.65537100  0.65537100  0.18179700  1
  O  O21  1  0.25569900  0.25569900  0.98151100  1
  O  O22  1  0.85548500  0.85548500  0.78166900  1
  O  O23  1  0.45544500  0.45544500  0.58172000  1
  O  O24  1  0.05542900  0.05542900  0.38171000  1
  O  O25  1  0.74430100  0.74430100  0.01848900  1
  O  O26  1  0.34462900  0.34462900  0.81820300  1
  O  O27  1  0.94457100  0.94457100  0.61829000  1
  O  O28  1  0.54455500  0.54455500  0.41828000  1
  O  O29  1  0.14451500  0.14451500  0.21833100  1
loop_
_geom_bond_atom_site_label_1
_geom_bond_atom_site_label_2
_geom_bond_distance
_geom_bond_site_symmetry_2
Cu0 O15 1.998560 1_555
Cu0 O29 2.003437 1_665
Cu0 O20 2.004416 1_555
Cu0 O14 2.012108 1_555
Cu0 O8 2.296716 1_655
Cu0 O0 2.296716 1_565
Cu1 O24 2.003838 1_555
Cu1 O28 2.004117 1_555
Cu1 O13 2.005331 1_555
Cu1 O19 2.006846 1_555
Cu1 O1 2.296643 1_555
Cu1 O5 2.296643 1_555
Cu2 O27 2.003838 1_555
Cu2 O23 2.004117 1_555
Cu2 O18 2.005331 1_555
Cu2 O12 2.006846 1_555
Cu2 O2 2.296643 1_555
Cu2 O6 2.296643 1_555
Cu3 O25 2.003461 1_555
Cu3 O21 2.003461 1_554
Cu3 O16 2.006734 1_555
Cu3 O10 2.006734 1_554
Cu3 O9 2.296070 1_555
Cu3 O3 2.296070 1_555
Cu4 O11 1.998560 1_555
Cu4 O22 2.003437 1_445
Cu4 O26 2.004416 1_555
Cu4 O17 2.012108 1_555
Cu4 O4 2.296716 1_455
Cu4 O7 2.296716 1_545
Mo0 O18 1.946208 1_555
Mo0 O22 1.947215 1_555
Mo0 O10 1.947220 1_555
Mo0 O26 1.947535 1_555
Mo0 O4 1.949806 1_555
Mo0 O7 1.949806 1_555
Mo1 O19 1.945155 1_555
Mo1 O23 1.947432 1_555
Mo1 O27 1.947447 1_445
Mo1 O11 1.948384 1_555
Mo1 O2 1.949866 1_545
Mo1 O6 1.949866 1_455
Mo2 O12 1.945155 1_555
Mo2 O28 1.947432 1_555
Mo2 O24 1.947447 1_665
Mo2 O15 1.948384 1_555
Mo2 O1 1.949866 1_655
Mo2 O5 1.949866 1_565
Mo3 O13 1.946208 1_555
Mo3 O29 1.947215 1_555
Mo3 O16 1.947220 1_555
Mo3 O20 1.947535 1_555
Mo3 O8 1.949806 1_555
Mo3 O0 1.949806 1_555
O0 Sr8 2.745372 1_545
O0 Sr3 2.746649 1_555
O0 Sr5 2.755881 1_555
O0 Sr0 2.756097 1_545
O1 Sr5 2.752787 1_455
O1 Sr0 2.753501 1_555
O1 Sr6 2.754455 1_555
O1 Sr1 2.754633 1_455
O2 Sr7 2.752787 1_565
O2 Sr2 2.753501 1_555
O2 Sr6 2.754455 1_555
O2 Sr1 2.754633 1_565
O3 W0 1.950438 1_565
O3 Sr8 2.763044 1_555
O3 Sr9 2.763044 1_554
O3 Sr3 2.763154 1_455
O3 Sr4 2.763154 1_564
O4 Sr9 2.745372 1_655
O4 Sr4 2.746649 1_555
O4 Sr7 2.755881 1_555
O4 Sr2 2.756097 1_655
O5 Sr0 2.752787 1_545
O5 Sr5 2.753501 1_555
O5 Sr1 2.754455 1_555
O5 Sr6 2.754633 1_545
O6 Sr2 2.752787 1_655
O6 Sr7 2.753501 1_555
O6 Sr1 2.754455 1_555
O6 Sr6 2.754633 1_655
O7 Sr4 2.745372 1_565
O7 Sr9 2.746649 1_555
O7 Sr2 2.755881 1_555
O7 Sr7 2.756097 1_565
O8 Sr3 2.745372 1_455
O8 Sr8 2.746649 1_555
O8 Sr0 2.755881 1_555
O8 Sr5 2.756097 1_455
O9 W0 1.950438 1_655
O9 Sr3 2.763044 1_555
O9 Sr4 2.763044 1_554
O9 Sr8 2.763154 1_545
O9 Sr9 2.763154 1_654
O10 Sr9 2.652112 1_655
O10 Sr4 2.652112 1_565
O11 Sr2 2.651605 1_555
O11 Sr7 2.651605 1_555
O12 Sr6 2.651649 1_655
O12 Sr1 2.651649 1_565
O13 Sr5 2.651807 1_555
O13 Sr0 2.651807 1_555
O14 W0 1.949625 1_665
O14 Sr8 2.650888 1_655
O14 Sr3 2.650888 1_565
O15 Sr0 2.651605 1_555
O15 Sr5 2.651605 1_555
O16 Sr8 2.652112 1_545
O16 Sr3 2.652112 1_455
O17 W0 1.949625 1_556
O17 Sr4 2.650888 1_455
O17 Sr9 2.650888 1_545
O18 Sr7 2.651807 1_555
O18 Sr2 2.651807 1_555
O19 Sr6 2.651649 1_545
O19 Sr1 2.651649 1_455
O20 Sr8 2.645629 1_555
O20 Sr3 2.645629 1_555
O21 W0 1.949390 1_556
O21 Sr4 2.656808 1_555
O21 Sr9 2.656808 1_555
O22 Sr2 2.652619 1_655
O22 Sr7 2.652619 1_565
O23 Sr1 2.651978 1_555
O23 Sr6 2.651978 1_555
O24 Sr5 2.650675 1_455
O24 Sr0 2.650675 1_545
O25 W0 1.949390 1_665
O25 Sr8 2.656808 1_555
O25 Sr3 2.656808 1_555
O26 Sr9 2.645629 1_555
O26 Sr4 2.645629 1_555
O27 Sr7 2.650675 1_565
O27 Sr2 2.650675 1_655
O28 Sr6 2.651978 1_555
O28 Sr1 2.651978 1_555
O29 Sr0 2.652619 1_545
O29 Sr5 2.652619 1_455
