# generated using pymatgen
data_Ba4Ti3PtO12
_symmetry_space_group_name_H-M   'P 1'
_cell_length_a   5.78644580
_cell_length_b   5.78644580
_cell_length_c   28.45836600
_cell_angle_alpha   90.00000000
_cell_angle_beta   90.00000000
_cell_angle_gamma   119.99999769
_symmetry_Int_Tables_number   1
_chemical_formula_structural   Ba4Ti3PtO12
_chemical_formula_sum   'Ba12 Ti9 Pt3 O36'
_cell_volume   825.20980793
_cell_formula_units_Z   3
loop_
 _symmetry_equiv_pos_site_id
 _symmetry_equiv_pos_as_xyz
  1  'x, y, z'
loop_
 _atom_site_type_symbol
 _atom_site_label
 _atom_site_symmetry_multiplicity
 _atom_site_fract_x
 _atom_site_fract_y
 _atom_site_fract_z
 _atom_site_occupancy
  Ba  Ba0  1  0.00000000  0.00000000  0.20615200  1
  Ba  Ba1  1  0.00000000  0.00000000  0.70258300  1
  Ba  Ba2  1  0.66666700  0.33333300  0.29524700  1
  Ba  Ba3  1  0.66666700  0.33333300  0.79599600  1
  Ba  Ba4  1  0.66666700  0.33333300  0.45328100  1
  Ba  Ba5  1  0.66666700  0.33333300  0.95305000  1
  Ba  Ba6  1  0.00000000  0.00000000  0.04777200  1
  Ba  Ba7  1  0.00000000  0.00000000  0.54836200  1
  Ba  Ba8  1  0.33333300  0.66666700  0.37364600  1
  Ba  Ba9  1  0.33333300  0.66666700  0.87367700  1
  Ba  Ba10  1  0.33333300  0.66666700  0.12839400  1
  Ba  Ba11  1  0.33333300  0.66666700  0.62530900  1
  Ti  Ti0  1  0.66666700  0.33333300  0.67395400  1
  Ti  Ti1  1  0.66666700  0.33333300  0.07696000  1
  Ti  Ti2  1  0.66666700  0.33333300  0.57862800  1
  Ti  Ti3  1  0.00000000  0.00000000  0.42570500  1
  Ti  Ti4  1  0.00000000  0.00000000  0.92549700  1
  Ti  Ti5  1  0.33333300  0.66666700  0.25140000  1
  Ti  Ti6  1  0.33333300  0.66666700  0.75075200  1
  Ti  Ti7  1  0.33333300  0.66666700  0.00153300  1
  Ti  Ti8  1  0.33333300  0.66666700  0.50144500  1
  Pt  Pt0  1  0.00000000  0.00000000  0.32993700  1
  Pt  Pt1  1  0.00000000  0.00000000  0.82920600  1
  Pt  Pt2  1  0.66666700  0.33333300  0.16994700  1
  O  O0  1  0.17095200  0.34190300  0.28914200  1
  O  O1  1  0.17055300  0.34110700  0.78849500  1
  O  O2  1  0.17095200  0.82904800  0.28914200  1
  O  O3  1  0.17055300  0.82944700  0.78849500  1
  O  O4  1  0.65809700  0.82904800  0.28914200  1
  O  O5  1  0.65889300  0.82944700  0.78849500  1
  O  O6  1  0.49689800  0.99379600  0.20985700  1
  O  O7  1  0.49961900  0.99923900  0.70880900  1
  O  O8  1  0.49689800  0.50310200  0.20985700  1
  O  O9  1  0.49961900  0.50038100  0.70880900  1
  O  O10  1  0.00620400  0.50310200  0.20985700  1
  O  O11  1  0.00076100  0.50038100  0.70880900  1
  O  O12  1  0.49871400  0.99742900  0.03909800  1
  O  O13  1  0.49815200  0.99630300  0.53965000  1
  O  O14  1  0.49871400  0.50128600  0.03909800  1
  O  O15  1  0.49815200  0.50184800  0.53965000  1
  O  O16  1  0.00257100  0.50128600  0.03909800  1
  O  O17  1  0.00369700  0.50184800  0.53965000  1
  O  O18  1  0.16691100  0.33382100  0.45987600  1
  O  O19  1  0.16677300  0.33354700  0.95986400  1
  O  O20  1  0.16691100  0.83308900  0.45987600  1
  O  O21  1  0.16677300  0.83322700  0.95986400  1
  O  O22  1  0.66617900  0.83308900  0.45987600  1
  O  O23  1  0.66645300  0.83322700  0.95986400  1
  O  O24  1  0.30401000  0.15200500  0.37627500  1
  O  O25  1  0.30350700  0.15175400  0.87608200  1
  O  O26  1  0.84799500  0.69599000  0.37627500  1
  O  O27  1  0.84824600  0.69649300  0.87608200  1
  O  O28  1  0.84799500  0.15200500  0.37627500  1
  O  O29  1  0.84824600  0.15175400  0.87608200  1
  O  O30  1  0.36102600  0.18051300  0.12246400  1
  O  O31  1  0.36967900  0.18484000  0.62424200  1
  O  O32  1  0.81948700  0.63897400  0.12246400  1
  O  O33  1  0.81516000  0.63032100  0.62424200  1
  O  O34  1  0.81948700  0.18051300  0.12246400  1
  O  O35  1  0.81516000  0.18484000  0.62424200  1
loop_
_geom_bond_atom_site_label_1
_geom_bond_atom_site_label_2
_geom_bond_distance
_geom_bond_site_symmetry_2
Ba0 O6 2.895310 1_545
Ba0 O10 2.895310 1_545
Ba0 O10 2.895310 1_555
Ba0 O6 2.895310 1_445
Ba0 O8 2.895311 1_555
Ba0 O8 2.895311 1_445
Ba0 O0 2.917785 1_555
Ba0 O4 2.917785 1_445
Ba0 O2 2.917788 1_545
Ba0 O34 2.990861 1_455
Ba0 O30 2.990861 1_555
Ba0 O32 2.990861 1_445
Ba1 O7 2.898643 1_545
Ba1 O11 2.898643 1_545
Ba1 O9 2.898646 1_445
Ba1 O9 2.898646 1_555
Ba1 O11 2.898649 1_555
Ba1 O7 2.898649 1_445
Ba1 O31 2.898686 1_555
Ba1 O33 2.898686 1_445
Ba1 O35 2.898689 1_455
Ba1 O3 2.983203 1_545
Ba1 O1 2.983206 1_555
Ba1 O5 2.983206 1_445
Ba2 O0 2.898753 1_555
Ba2 O4 2.898753 1_555
Ba2 O4 2.898753 1_545
Ba2 O0 2.898753 1_655
Ba2 O2 2.898753 1_545
Ba2 O2 2.898753 1_655
Ba2 O28 2.935989 1_555
Ba2 O26 2.935992 1_555
Ba2 O24 2.935992 1_555
Ba2 O10 2.966524 1_655
Ba2 O6 2.966524 1_545
Ba2 O8 2.966526 1_555
Ba3 O1 2.901343 1_655
Ba3 O5 2.901343 1_545
Ba3 O3 2.901349 1_655
Ba3 O3 2.901349 1_545
Ba3 O5 2.901354 1_555
Ba3 O1 2.901354 1_555
Ba3 O29 2.916550 1_555
Ba3 O27 2.916557 1_555
Ba3 O25 2.916557 1_555
Ba3 O7 2.993217 1_545
Ba3 O11 2.993217 1_655
Ba3 O9 2.993222 1_555
Ba4 O28 2.846974 1_555
Ba4 O26 2.846977 1_555
Ba4 O24 2.846977 1_555
Ba4 O22 2.899305 1_555
Ba4 O18 2.899305 1_555
Ba4 O18 2.899305 1_655
Ba4 O22 2.899305 1_545
Ba4 O20 2.899305 1_655
Ba4 O20 2.899305 1_545
Ba4 O15 2.982256 1_555
Ba4 O17 2.982256 1_655
Ba4 O13 2.982256 1_545
Ba5 O29 2.847749 1_555
Ba5 O27 2.847755 1_555
Ba5 O25 2.847755 1_555
Ba5 O19 2.899709 1_655
Ba5 O23 2.899709 1_545
Ba5 O21 2.899714 1_655
Ba5 O21 2.899714 1_545
Ba5 O23 2.899720 1_555
Ba5 O19 2.899720 1_555
Ba5 O12 2.971531 1_546
Ba5 O16 2.971531 1_656
Ba5 O14 2.971537 1_556
Ba6 O34 2.791299 1_455
Ba6 O30 2.791299 1_555
Ba6 O32 2.791299 1_445
Ba6 O16 2.903760 1_545
Ba6 O12 2.903760 1_545
Ba6 O14 2.903763 1_555
Ba6 O14 2.903763 1_445
Ba6 O16 2.903766 1_555
Ba6 O12 2.903766 1_445
Ba6 O21 3.008721 1_544
Ba6 O19 3.008724 1_554
Ba6 O23 3.008724 1_444
Ba7 O33 2.845171 1_445
Ba7 O31 2.845171 1_555
Ba7 O35 2.845174 1_455
Ba7 O13 2.903883 1_445
Ba7 O17 2.903883 1_555
Ba7 O15 2.903886 1_555
Ba7 O15 2.903886 1_445
Ba7 O17 2.903888 1_545
Ba7 O13 2.903888 1_545
Ba7 O22 3.023174 1_445
Ba7 O18 3.023174 1_555
Ba7 O20 3.023177 1_545
Ba8 O24 2.897915 1_565
Ba8 O26 2.897915 1_455
Ba8 O28 2.897918 1_565
Ba8 O28 2.897918 1_455
Ba8 O26 2.897921 1_555
Ba8 O24 2.897921 1_555
Ba8 O2 2.903770 1_555
Ba8 O4 2.903775 1_555
Ba8 O0 2.903775 1_555
Ba8 O20 2.967154 1_555
Ba8 O22 2.967160 1_555
Ba8 O18 2.967160 1_555
Ba9 O27 2.897889 1_455
Ba9 O25 2.897889 1_565
Ba9 O25 2.897889 1_555
Ba9 O27 2.897889 1_555
Ba9 O29 2.897889 1_565
Ba9 O29 2.897889 1_455
Ba9 O3 2.922000 1_555
Ba9 O5 2.922000 1_555
Ba9 O1 2.922000 1_555
Ba9 O21 2.966920 1_555
Ba9 O19 2.966920 1_555
Ba9 O23 2.966920 1_555
Ba10 O6 2.839344 1_555
Ba10 O10 2.839344 1_555
Ba10 O8 2.839347 1_555
Ba10 O30 2.901458 1_565
Ba10 O32 2.901458 1_455
Ba10 O34 2.901461 1_565
Ba10 O34 2.901461 1_455
Ba10 O30 2.901464 1_555
Ba10 O32 2.901464 1_555
Ba10 O14 3.034000 1_555
Ba10 O12 3.034000 1_555
Ba10 O16 3.034000 1_555
Ba11 O31 2.899109 1_555
Ba11 O33 2.899109 1_555
Ba11 O33 2.899109 1_455
Ba11 O31 2.899109 1_565
Ba11 O35 2.899109 1_455
Ba11 O35 2.899109 1_565
Ba11 O9 2.902446 1_555
Ba11 O11 2.902446 1_555
Ba11 O7 2.902446 1_555
Ba11 O13 2.944681 1_555
Ba11 O17 2.944681 1_555
Ba11 O15 2.944687 1_555
O0 Ti5 1.949940 1_555
O0 Pt0 2.069634 1_555
O1 Ti6 1.953286 1_555
O1 Pt1 2.064991 1_555
O2 Ti5 1.949931 1_555
O2 Pt0 2.069638 1_565
O3 Ti6 1.953286 1_555
O3 Pt1 2.064987 1_565
O4 Ti5 1.949940 1_555
O4 Pt0 2.069634 1_665
O5 Ti6 1.953286 1_555
O5 Pt1 2.064991 1_665
O6 Ti5 2.021150 1_555
O6 Pt2 2.045740 1_565
O7 Ti0 1.945994 1_565
O7 Ti6 2.049943 1_555
O8 Ti5 2.021154 1_555
O8 Pt2 2.045744 1_555
O9 Ti0 1.946003 1_555
O9 Ti6 2.049943 1_555
O10 Ti5 2.021150 1_555
O10 Pt2 2.045740 1_455
O11 Ti0 1.945994 1_455
O11 Ti6 2.049943 1_555
O12 Ti7 1.972361 1_555
O12 Ti1 1.998608 1_565
O13 Ti8 1.977576 1_555
O13 Ti2 2.020622 1_565
O14 Ti7 1.972361 1_555
O14 Ti1 1.998617 1_555
O15 Ti8 1.977584 1_555
O15 Ti2 2.020622 1_555
O16 Ti7 1.972361 1_555
O16 Ti1 1.998608 1_455
O17 Ti8 1.977576 1_555
O17 Ti2 2.020622 1_455
O18 Ti3 1.934962 1_555
O18 Ti8 2.044884 1_555
O19 Ti4 1.936586 1_555
O19 Ti7 2.047651 1_556
O20 Ti3 1.934966 1_565
O20 Ti8 2.044875 1_555
O21 Ti4 1.936581 1_565
O21 Ti7 2.047650 1_556
O22 Ti3 1.934962 1_665
O22 Ti8 2.044884 1_555
O23 Ti4 1.936586 1_665
O23 Ti7 2.047651 1_556
O24 Pt0 2.014920 1_555
O24 Ti3 2.073577 1_555
O25 Pt1 2.023078 1_555
O25 Ti4 2.071436 1_555
O26 Pt0 2.014920 1_665
O26 Ti3 2.073577 1_665
O27 Pt1 2.023078 1_665
O27 Ti4 2.071436 1_665
O28 Pt0 2.014920 1_655
O28 Ti3 2.073577 1_655
O29 Pt1 2.023082 1_655
O29 Ti4 2.071439 1_655
O30 Ti1 2.005702 1_555
O30 Pt2 2.042517 1_555
O31 Ti2 1.974844 1_555
O31 Ti0 2.053383 1_555
O32 Ti1 2.005702 1_555
O32 Pt2 2.042517 1_555
O33 Ti2 1.974844 1_555
O33 Ti0 2.053383 1_555
O34 Ti1 2.005698 1_555
O34 Pt2 2.042513 1_555
O35 Ti2 1.974836 1_555
O35 Ti0 2.053376 1_555
