# generated using pymatgen
data_Mg149Au
_symmetry_space_group_name_H-M   'P 1'
_cell_length_a   15.87246352
_cell_length_b   15.87246893
_cell_length_c   15.57582258
_cell_angle_alpha   90.00000000
_cell_angle_beta   90.00000000
_cell_angle_gamma   120.00001566
_symmetry_Int_Tables_number   1
_chemical_formula_structural   Mg149Au
_chemical_formula_sum   'Mg149 Au1'
_cell_volume   3398.36778371
_cell_formula_units_Z   1
loop_
 _symmetry_equiv_pos_site_id
 _symmetry_equiv_pos_as_xyz
  1  'x, y, z'
loop_
 _atom_site_type_symbol
 _atom_site_label
 _atom_site_symmetry_multiplicity
 _atom_site_fract_x
 _atom_site_fract_y
 _atom_site_fract_z
 _atom_site_occupancy
  Mg  Mg0  1  0.39902303  0.00003263  -0.00000000  1
  Mg  Mg1  1  0.60100960  0.00003263  0.00000000  1
  Mg  Mg2  1  0.19530960  0.00156771  -0.00000000  1
  Mg  Mg3  1  0.80625911  0.00156771  -0.00000000  1
  Mg  Mg4  1  0.99843229  0.19374189  0.00000000  1
  Mg  Mg5  1  0.19530960  0.19374189  0.00000000  1
  Mg  Mg6  1  0.80076175  0.19923825  -0.00000000  1
  Mg  Mg7  1  0.39847649  0.19923825  -0.00000000  1
  Mg  Mg8  1  0.59983590  0.19967280  -0.00000000  1
  Mg  Mg9  1  0.19874742  0.39749485  0.00000000  1
  Mg  Mg10  1  0.39902303  0.39898940  -0.00000000  1
  Mg  Mg11  1  0.99996737  0.39899040  -0.00000000  1
  Mg  Mg12  1  0.80032720  0.40016410  0.00000000  1
  Mg  Mg13  1  0.59983590  0.40016410  0.00000000  1
  Mg  Mg14  1  0.19975768  0.59987884  0.00000000  1
  Mg  Mg15  1  0.40012116  0.59987884  0.00000000  1
  Mg  Mg16  1  0.99996737  0.60097797  0.00000000  1
  Mg  Mg17  1  0.60100960  0.60097697  0.00000000  1
  Mg  Mg18  1  0.80076175  0.60152351  -0.00000000  1
  Mg  Mg19  1  0.40012116  0.80024232  -0.00000000  1
  Mg  Mg20  1  0.60250515  0.80125258  -0.00000000  1
  Mg  Mg21  1  0.19874742  0.80125258  -0.00000000  1
  Mg  Mg22  1  0.99843229  0.80469040  0.00000000  1
  Mg  Mg23  1  0.80625911  0.80469040  0.00000000  1
  Mg  Mg24  1  0.06486190  0.12972381  0.16193636  1
  Mg  Mg25  1  0.87027619  0.93513810  0.16193636  1
  Mg  Mg26  1  0.06486190  0.93513810  0.16193636  1
  Mg  Mg27  1  0.06602265  0.33151416  0.16578243  1
  Mg  Mg28  1  0.26549152  0.33151416  0.16578243  1
  Mg  Mg29  1  0.06602265  0.73450848  0.16578243  1
  Mg  Mg30  1  0.66848584  0.73450848  0.16578243  1
  Mg  Mg31  1  0.26549152  0.93397735  0.16578243  1
  Mg  Mg32  1  0.66848584  0.93397735  0.16578243  1
  Mg  Mg33  1  0.26630987  0.53261973  0.16622337  1
  Mg  Mg34  1  0.26630987  0.73368913  0.16622337  1
  Mg  Mg35  1  0.46738027  0.73369013  0.16622337  1
  Mg  Mg36  1  0.06661613  0.53330806  0.16627923  1
  Mg  Mg37  1  0.46669194  0.53330806  0.16627923  1
  Mg  Mg38  1  0.46669194  0.93338287  0.16627923  1
  Mg  Mg39  1  0.46704659  0.13348997  0.16659280  1
  Mg  Mg40  1  0.66644338  0.13348997  0.16659280  1
  Mg  Mg41  1  0.46704659  0.33355662  0.16659280  1
  Mg  Mg42  1  0.86651103  0.33355762  0.16659280  1
  Mg  Mg43  1  0.86651103  0.53295341  0.16659280  1
  Mg  Mg44  1  0.66644338  0.53295341  0.16659280  1
  Mg  Mg45  1  0.66666700  0.33333300  0.16669361  1
  Mg  Mg46  1  0.26799883  0.13399992  0.16738901  1
  Mg  Mg47  1  0.86600108  0.13399992  0.16738901  1
  Mg  Mg48  1  0.86600108  0.73200117  0.16738901  1
  Mg  Mg49  1  0.00000000  -0.00000000  0.33162246  1
  Mg  Mg50  1  0.80058705  0.99976300  0.33248376  1
  Mg  Mg51  1  0.19917595  0.99976300  0.33248376  1
  Mg  Mg52  1  0.19917595  0.19941295  0.33248376  1
  Mg  Mg53  1  0.00023700  0.19941395  0.33248376  1
  Mg  Mg54  1  0.00023700  0.80082305  0.33248376  1
  Mg  Mg55  1  0.80058705  0.80082405  0.33248376  1
  Mg  Mg56  1  0.60027672  0.99987135  0.33289718  1
  Mg  Mg57  1  0.39959463  0.99987135  0.33289718  1
  Mg  Mg58  1  0.39959463  0.39972228  0.33289718  1
  Mg  Mg59  1  0.00012865  0.39972328  0.33289718  1
  Mg  Mg60  1  0.60027672  0.60040437  0.33289718  1
  Mg  Mg61  1  0.00012865  0.60040537  0.33289718  1
  Mg  Mg62  1  0.19988072  0.39976244  0.33291636  1
  Mg  Mg63  1  0.60023756  0.80011828  0.33291636  1
  Mg  Mg64  1  0.19988072  0.80011928  0.33291636  1
  Mg  Mg65  1  0.20001614  0.60000757  0.33317832  1
  Mg  Mg66  1  0.39999143  0.60000857  0.33317832  1
  Mg  Mg67  1  0.39999143  0.79998386  0.33317832  1
  Mg  Mg68  1  0.59991920  0.19983741  0.33335446  1
  Mg  Mg69  1  0.80016259  0.40008180  0.33335446  1
  Mg  Mg70  1  0.59991920  0.40008180  0.33335446  1
  Mg  Mg71  1  0.39988094  0.19993997  0.33354319  1
  Mg  Mg72  1  0.80005903  0.19994097  0.33354319  1
  Mg  Mg73  1  0.80005903  0.60011906  0.33354319  1
  Mg  Mg74  1  0.06654975  0.13309950  0.50000000  1
  Mg  Mg75  1  0.26634097  0.13317049  0.50000000  1
  Mg  Mg76  1  0.86682951  0.13317049  0.50000000  1
  Mg  Mg77  1  0.46670156  0.13324701  0.50000000  1
  Mg  Mg78  1  0.66654545  0.13324701  0.50000000  1
  Mg  Mg79  1  0.26652437  0.33295462  0.50000000  1
  Mg  Mg80  1  0.06642925  0.33295462  0.50000000  1
  Mg  Mg81  1  0.66666700  0.33333300  0.50000000  1
  Mg  Mg82  1  0.46670156  0.33345455  0.50000000  1
  Mg  Mg83  1  0.86675299  0.33345555  0.50000000  1
  Mg  Mg84  1  0.26652038  0.53304176  0.50000000  1
  Mg  Mg85  1  0.06652364  0.53326182  0.50000000  1
  Mg  Mg86  1  0.46673818  0.53326182  0.50000000  1
  Mg  Mg87  1  0.66654545  0.53329844  0.50000000  1
  Mg  Mg88  1  0.86675299  0.53329844  0.50000000  1
  Mg  Mg89  1  0.46695824  0.73347862  0.50000000  1
  Mg  Mg90  1  0.26652038  0.73347862  0.50000000  1
  Mg  Mg91  1  0.06642925  0.73347463  0.50000000  1
  Mg  Mg92  1  0.66704538  0.73347463  0.50000000  1
  Mg  Mg93  1  0.86682951  0.73365903  0.50000000  1
  Mg  Mg94  1  0.46673818  0.93347636  0.50000000  1
  Mg  Mg95  1  0.86690050  0.93345025  0.50000000  1
  Mg  Mg96  1  0.06654975  0.93345025  0.50000000  1
  Mg  Mg97  1  0.66704538  0.93357075  0.50000000  1
  Mg  Mg98  1  0.26652437  0.93357075  0.50000000  1
  Mg  Mg99  1  0.39988094  0.19993997  0.66645681  1
  Mg  Mg100  1  0.80005903  0.19994097  0.66645681  1
  Mg  Mg101  1  0.80005903  0.60011906  0.66645681  1
  Mg  Mg102  1  0.59991920  0.19983741  0.66664554  1
  Mg  Mg103  1  0.80016259  0.40008180  0.66664554  1
  Mg  Mg104  1  0.59991920  0.40008180  0.66664554  1
  Mg  Mg105  1  0.20001614  0.60000757  0.66682168  1
  Mg  Mg106  1  0.39999143  0.60000857  0.66682168  1
  Mg  Mg107  1  0.39999143  0.79998386  0.66682168  1
  Mg  Mg108  1  0.19988072  0.39976244  0.66708364  1
  Mg  Mg109  1  0.60023756  0.80011828  0.66708364  1
  Mg  Mg110  1  0.19988072  0.80011928  0.66708364  1
  Mg  Mg111  1  0.60027672  0.99987135  0.66710282  1
  Mg  Mg112  1  0.39959463  0.99987135  0.66710282  1
  Mg  Mg113  1  0.39959463  0.39972228  0.66710282  1
  Mg  Mg114  1  0.00012865  0.39972328  0.66710282  1
  Mg  Mg115  1  0.60027672  0.60040437  0.66710282  1
  Mg  Mg116  1  0.00012865  0.60040537  0.66710282  1
  Mg  Mg117  1  0.80058705  0.99976300  0.66751624  1
  Mg  Mg118  1  0.19917595  0.99976300  0.66751624  1
  Mg  Mg119  1  0.19917595  0.19941295  0.66751624  1
  Mg  Mg120  1  0.00023700  0.19941395  0.66751624  1
  Mg  Mg121  1  0.00023700  0.80082305  0.66751624  1
  Mg  Mg122  1  0.80058705  0.80082405  0.66751624  1
  Mg  Mg123  1  0.00000000  -0.00000000  0.66837754  1
  Mg  Mg124  1  0.26799883  0.13399992  0.83261099  1
  Mg  Mg125  1  0.86600108  0.13399992  0.83261099  1
  Mg  Mg126  1  0.86600108  0.73200117  0.83261099  1
  Mg  Mg127  1  0.66666700  0.33333300  0.83330639  1
  Mg  Mg128  1  0.46704659  0.13348997  0.83340720  1
  Mg  Mg129  1  0.66644338  0.13348997  0.83340720  1
  Mg  Mg130  1  0.46704659  0.33355662  0.83340720  1
  Mg  Mg131  1  0.86651103  0.33355762  0.83340720  1
  Mg  Mg132  1  0.86651103  0.53295341  0.83340720  1
  Mg  Mg133  1  0.66644338  0.53295341  0.83340720  1
  Mg  Mg134  1  0.06661613  0.53330806  0.83372077  1
  Mg  Mg135  1  0.46669194  0.53330806  0.83372077  1
  Mg  Mg136  1  0.46669194  0.93338287  0.83372077  1
  Mg  Mg137  1  0.26630987  0.53261973  0.83377663  1
  Mg  Mg138  1  0.26630987  0.73368913  0.83377663  1
  Mg  Mg139  1  0.46738027  0.73369013  0.83377663  1
  Mg  Mg140  1  0.06602265  0.33151416  0.83421757  1
  Mg  Mg141  1  0.26549152  0.33151416  0.83421757  1
  Mg  Mg142  1  0.06602265  0.73450848  0.83421757  1
  Mg  Mg143  1  0.66848584  0.73450848  0.83421757  1
  Mg  Mg144  1  0.26549152  0.93397735  0.83421757  1
  Mg  Mg145  1  0.66848584  0.93397735  0.83421757  1
  Mg  Mg146  1  0.06486190  0.12972381  0.83806364  1
  Mg  Mg147  1  0.87027619  0.93513810  0.83806364  1
  Mg  Mg148  1  0.06486190  0.93513810  0.83806364  1
  Au  Au0  1  0.00000000  -0.00000000  -0.00000000  1
loop_
_geom_bond_atom_site_label_1
_geom_bond_atom_site_label_2
_geom_bond_distance
_geom_bond_site_symmetry_2
Mg0 Mg7 3.166231 1_555
Mg0 Mg21 3.167065 1_545
Mg0 Mg31 3.168122 1_545
Mg0 Mg144 3.168122 1_544
Mg0 Mg39 3.177877 1_555
Mg0 Mg128 3.177877 1_554
Mg0 Mg8 3.178129 1_555
Mg0 Mg19 3.179916 1_545
Mg0 Mg38 3.180692 1_545
Mg0 Mg136 3.180692 1_544
Mg0 Mg1 3.206024 1_555
Mg0 Mg2 3.245685 1_555
Mg1 Mg6 3.166230 1_555
Mg1 Mg20 3.167066 1_545
Mg1 Mg32 3.168123 1_545
Mg1 Mg145 3.168123 1_544
Mg1 Mg40 3.177877 1_555
Mg1 Mg129 3.177877 1_554
Mg1 Mg8 3.178138 1_555
Mg1 Mg19 3.179915 1_545
Mg1 Mg38 3.180683 1_545
Mg1 Mg136 3.180683 1_544
Mg1 Mg3 3.245701 1_555
Mg2 Mg46 3.181516 1_555
Mg2 Mg7 3.182036 1_555
Mg2 Mg31 3.202295 1_545
Mg2 Mg21 3.207127 1_545
Mg3 Mg47 3.181517 1_555
Mg3 Mg6 3.182045 1_555
Mg3 Mg32 3.202303 1_545
Mg4 Mg47 3.181508 1_555
Mg4 Mg6 3.182036 1_555
Mg4 Mg9 3.207126 1_655
Mg5 Mg7 3.182036 1_555
Mg5 Mg9 3.207127 1_555
Mg6 Mg8 3.192643 1_555
Mg7 Mg8 3.192627 1_555
Mg10 Mg7 3.166215 1_555
Mg10 Mg9 3.167073 1_555
Mg10 Mg28 3.168122 1_555
Mg10 Mg141 3.168122 1_554
Mg10 Mg41 3.177869 1_555
Mg10 Mg130 3.177869 1_554
Mg10 Mg13 3.178113 1_555
Mg10 Mg15 3.179932 1_555
Mg10 Mg135 3.180692 1_554
Mg10 Mg37 3.180692 1_555
Mg10 Mg17 3.206032 1_555
Mg10 Mg5 3.245677 1_555
Mg11 Mg6 3.166230 1_555
Mg11 Mg9 3.167065 1_655
Mg11 Mg27 3.168123 1_655
Mg11 Mg140 3.168123 1_654
Mg11 Mg42 3.177868 1_555
Mg11 Mg131 3.177868 1_554
Mg11 Mg12 3.178137 1_555
Mg11 Mg14 3.179915 1_655
Mg11 Mg134 3.180684 1_654
Mg11 Mg36 3.180684 1_655
Mg11 Mg16 3.206041 1_555
Mg11 Mg4 3.245686 1_555
Mg12 Mg43 3.172520 1_555
Mg12 Mg132 3.172520 1_554
Mg12 Mg42 3.172528 1_555
Mg12 Mg131 3.172528 1_554
Mg12 Mg16 3.178137 1_555
Mg12 Mg127 3.180702 1_554
Mg12 Mg45 3.180702 1_555
Mg12 Mg8 3.182291 1_555
Mg12 Mg13 3.182291 1_555
Mg12 Mg18 3.192628 1_555
Mg12 Mg6 3.192644 1_555
Mg13 Mg41 3.172519 1_555
Mg13 Mg130 3.172519 1_554
Mg13 Mg44 3.172520 1_555
Mg13 Mg133 3.172520 1_554
Mg13 Mg17 3.178122 1_555
Mg13 Mg45 3.180718 1_555
Mg13 Mg8 3.182292 1_555
Mg13 Mg7 3.192634 1_555
Mg13 Mg18 3.192634 1_555
Mg14 Mg36 3.171316 1_555
Mg14 Mg34 3.175926 1_555
Mg14 Mg33 3.175934 1_555
Mg14 Mg16 3.179923 1_455
Mg14 Mg19 3.180262 1_555
Mg14 Mg15 3.180262 1_555
Mg14 Mg9 3.204346 1_555
Mg14 Mg21 3.204346 1_555
Mg15 Mg37 3.171316 1_555
Mg15 Mg33 3.175933 1_555
Mg15 Mg35 3.175934 1_555
Mg15 Mg17 3.179915 1_555
Mg15 Mg19 3.180263 1_555
Mg15 Mg20 3.204345 1_555
Mg15 Mg9 3.204345 1_555
Mg16 Mg18 3.166222 1_555
Mg16 Mg21 3.167057 1_655
Mg16 Mg29 3.168115 1_655
Mg16 Mg43 3.177868 1_555
Mg16 Mg36 3.180692 1_655
Mg16 Mg22 3.245671 1_555
Mg17 Mg18 3.166230 1_555
Mg17 Mg20 3.167066 1_555
Mg17 Mg30 3.168123 1_555
Mg17 Mg44 3.177877 1_555
Mg17 Mg37 3.180683 1_555
Mg17 Mg23 3.245693 1_555
Mg18 Mg48 3.164552 1_555
Mg18 Mg23 3.182029 1_555
Mg18 Mg22 3.182036 1_555
Mg18 Mg44 3.184736 1_555
Mg18 Mg43 3.184744 1_555
Mg19 Mg38 3.171308 1_555
Mg19 Mg34 3.175933 1_555
Mg19 Mg35 3.175934 1_555
Mg19 Mg20 3.204345 1_555
Mg19 Mg21 3.204345 1_555
Mg20 Mg32 3.161696 1_555
Mg20 Mg30 3.161697 1_555
Mg20 Mg35 3.186420 1_555
Mg20 Mg3 3.207134 1_565
Mg20 Mg23 3.207142 1_555
Mg21 Mg29 3.161696 1_555
Mg21 Mg31 3.161696 1_555
Mg21 Mg34 3.186429 1_555
Mg21 Mg22 3.207126 1_455
Mg22 Mg48 3.181508 1_555
Mg22 Mg29 3.202295 1_655
Mg23 Mg48 3.181509 1_555
Mg23 Mg30 3.202302 1_555
Mg24 Mg49 3.188287 1_555
Mg24 Mg46 3.192019 1_555
Mg24 Mg47 3.192019 1_455
Mg24 Mg28 3.194300 1_555
Mg24 Mg27 3.194301 1_555
Mg24 Mg52 3.235258 1_555
Mg24 Mg53 3.235266 1_555
Mg25 Mg49 3.188287 1_665
Mg25 Mg48 3.192028 1_555
Mg25 Mg47 3.192028 1_565
Mg25 Mg30 3.194300 1_555
Mg25 Mg32 3.194300 1_555
Mg25 Mg50 3.235258 1_555
Mg25 Mg55 3.235258 1_555
Mg26 Mg49 3.188287 1_565
Mg26 Mg48 3.192019 1_455
Mg26 Mg46 3.192026 1_565
Mg26 Mg31 3.194300 1_555
Mg26 Mg29 3.194301 1_555
Mg26 Mg51 3.235258 1_555
Mg26 Mg54 3.235266 1_555
Mg27 Mg47 3.155224 1_455
Mg27 Mg9 3.161696 1_555
Mg27 Mg28 3.166062 1_555
Mg27 Mg53 3.168465 1_555
Mg27 Mg42 3.183107 1_455
Mg27 Mg33 3.185573 1_555
Mg27 Mg62 3.187941 1_555
Mg27 Mg59 3.189627 1_555
Mg27 Mg36 3.198277 1_555
Mg27 Mg4 3.202295 1_455
Mg28 Mg46 3.155225 1_555
Mg28 Mg9 3.161697 1_555
Mg28 Mg52 3.168473 1_555
Mg28 Mg41 3.183115 1_555
Mg28 Mg33 3.185575 1_555
Mg28 Mg62 3.187949 1_555
Mg28 Mg58 3.189626 1_555
Mg28 Mg37 3.198276 1_555
Mg28 Mg5 3.202295 1_555
Mg29 Mg48 3.155224 1_455
Mg29 Mg31 3.166062 1_555
Mg29 Mg54 3.168466 1_555
Mg29 Mg43 3.183107 1_455
Mg29 Mg34 3.185581 1_555
Mg29 Mg64 3.187941 1_555
Mg29 Mg61 3.189627 1_555
Mg29 Mg36 3.198277 1_555
Mg30 Mg48 3.155240 1_555
Mg30 Mg32 3.166063 1_555
Mg30 Mg55 3.168473 1_555
Mg30 Mg44 3.183116 1_555
Mg30 Mg35 3.185573 1_555
Mg30 Mg63 3.187941 1_555
Mg30 Mg60 3.189635 1_555
Mg30 Mg37 3.198276 1_555
Mg31 Mg46 3.155241 1_565
Mg31 Mg51 3.168473 1_555
Mg31 Mg39 3.183115 1_565
Mg31 Mg34 3.185590 1_555
Mg31 Mg64 3.187941 1_555
Mg31 Mg57 3.189626 1_555
Mg31 Mg38 3.198284 1_555
Mg32 Mg47 3.155239 1_565
Mg32 Mg50 3.168473 1_555
Mg32 Mg40 3.183116 1_565
Mg32 Mg35 3.185573 1_555
Mg32 Mg63 3.187949 1_555
Mg32 Mg56 3.189627 1_555
Mg32 Mg38 3.198268 1_555
Mg33 Mg62 3.174332 1_555
Mg33 Mg37 3.175109 1_555
Mg33 Mg36 3.175109 1_555
Mg33 Mg66 3.184207 1_555
Mg33 Mg65 3.184207 1_555
Mg33 Mg9 3.186420 1_555
Mg33 Mg34 3.191468 1_555
Mg33 Mg35 3.191482 1_555
Mg34 Mg64 3.174348 1_555
Mg34 Mg36 3.175100 1_555
Mg34 Mg38 3.175108 1_555
Mg34 Mg67 3.184207 1_555
Mg34 Mg65 3.184207 1_555
Mg34 Mg35 3.191475 1_555
Mg35 Mg63 3.174332 1_555
Mg35 Mg38 3.175094 1_555
Mg35 Mg37 3.175110 1_555
Mg35 Mg66 3.184207 1_555
Mg35 Mg67 3.184215 1_555
Mg36 Mg42 3.173354 1_455
Mg36 Mg43 3.173354 1_455
Mg36 Mg59 3.179145 1_555
Mg36 Mg61 3.179145 1_555
Mg36 Mg65 3.181252 1_555
Mg37 Mg44 3.173370 1_555
Mg37 Mg41 3.173371 1_555
Mg37 Mg60 3.179145 1_555
Mg37 Mg58 3.179153 1_555
Mg37 Mg66 3.181261 1_555
Mg38 Mg40 3.173377 1_565
Mg38 Mg39 3.173387 1_565
Mg38 Mg56 3.179145 1_555
Mg38 Mg57 3.179153 1_555
Mg38 Mg67 3.181245 1_555
Mg39 Mg46 3.163457 1_555
Mg39 Mg40 3.164918 1_555
Mg39 Mg45 3.170236 1_555
Mg39 Mg8 3.172519 1_555
Mg39 Mg68 3.175328 1_555
Mg39 Mg57 3.175441 1_545
Mg39 Mg41 3.175552 1_555
Mg39 Mg71 3.183620 1_555
Mg39 Mg7 3.184736 1_555
Mg40 Mg47 3.163457 1_555
Mg40 Mg45 3.170229 1_555
Mg40 Mg8 3.172528 1_555
Mg40 Mg68 3.175321 1_555
Mg40 Mg56 3.175441 1_545
Mg40 Mg42 3.175566 1_555
Mg40 Mg72 3.183619 1_555
Mg40 Mg6 3.184736 1_555
Mg41 Mg46 3.163449 1_555
Mg41 Mg44 3.164918 1_555
Mg41 Mg45 3.170244 1_555
Mg41 Mg70 3.175328 1_555
Mg41 Mg58 3.175433 1_555
Mg41 Mg71 3.183628 1_555
Mg41 Mg7 3.184736 1_555
Mg42 Mg47 3.163458 1_555
Mg42 Mg43 3.164903 1_555
Mg42 Mg45 3.170236 1_555
Mg42 Mg69 3.175328 1_555
Mg42 Mg59 3.175433 1_655
Mg42 Mg72 3.183628 1_555
Mg42 Mg6 3.184744 1_555
Mg43 Mg48 3.163459 1_555
Mg43 Mg45 3.170244 1_555
Mg43 Mg69 3.175320 1_555
Mg43 Mg61 3.175433 1_655
Mg43 Mg44 3.175566 1_555
Mg43 Mg73 3.183636 1_555
Mg44 Mg48 3.163457 1_555
Mg44 Mg45 3.170245 1_555
Mg44 Mg70 3.175320 1_555
Mg44 Mg60 3.175433 1_555
Mg44 Mg73 3.183619 1_555
Mg45 Mg69 3.178979 1_555
Mg45 Mg68 3.178979 1_555
Mg45 Mg70 3.178987 1_555
Mg45 Mg8 3.180702 1_555
Mg46 Mg71 3.159761 1_555
Mg46 Mg7 3.164552 1_555
Mg46 Mg52 3.165129 1_555
Mg46 Mg51 3.165137 1_545
Mg46 Mg5 3.181508 1_555
Mg47 Mg72 3.159769 1_555
Mg47 Mg6 3.164552 1_555
Mg47 Mg53 3.165129 1_655
Mg47 Mg50 3.165137 1_545
Mg48 Mg73 3.159762 1_555
Mg48 Mg54 3.165129 1_655
Mg48 Mg55 3.165137 1_555
Mg49 Mg55 3.163324 1_445
Mg49 Mg52 3.163324 1_555
Mg49 Mg50 3.163324 1_445
Mg49 Mg51 3.163324 1_545
Mg49 Mg53 3.163341 1_555
Mg49 Mg54 3.163341 1_545
Mg49 Mg95 3.197732 1_445
Mg49 Mg74 3.197732 1_555
Mg49 Mg96 3.197733 1_545
Mg50 Mg55 3.157652 1_555
Mg50 Mg53 3.168944 1_665
Mg50 Mg63 3.174468 1_555
Mg50 Mg56 3.180285 1_555
Mg50 Mg72 3.181560 1_565
Mg50 Mg95 3.183008 1_555
Mg50 Mg76 3.189180 1_565
Mg50 Mg97 3.190245 1_555
Mg51 Mg54 3.157659 1_555
Mg51 Mg52 3.168938 1_565
Mg51 Mg64 3.174454 1_555
Mg51 Mg57 3.180285 1_555
Mg51 Mg71 3.181543 1_565
Mg51 Mg96 3.183008 1_555
Mg51 Mg75 3.189180 1_565
Mg51 Mg98 3.190238 1_555
Mg52 Mg53 3.157659 1_555
Mg52 Mg62 3.174470 1_555
Mg52 Mg58 3.180277 1_555
Mg52 Mg71 3.181551 1_555
Mg52 Mg74 3.183008 1_555
Mg52 Mg75 3.189180 1_555
Mg52 Mg79 3.190246 1_555
Mg53 Mg62 3.174453 1_555
Mg53 Mg59 3.180270 1_555
Mg53 Mg72 3.181551 1_455
Mg53 Mg74 3.183016 1_555
Mg53 Mg76 3.189180 1_455
Mg53 Mg80 3.190238 1_555
Mg54 Mg55 3.168944 1_455
Mg54 Mg64 3.174445 1_555
Mg54 Mg61 3.180270 1_555
Mg54 Mg73 3.181543 1_455
Mg54 Mg96 3.183016 1_555
Mg54 Mg93 3.189180 1_455
Mg54 Mg91 3.190238 1_555
Mg55 Mg63 3.174461 1_555
Mg55 Mg60 3.180293 1_555
Mg55 Mg73 3.181544 1_555
Mg55 Mg95 3.183008 1_555
Mg55 Mg93 3.189180 1_555
Mg55 Mg92 3.190245 1_555
Mg56 Mg63 3.170264 1_555
Mg56 Mg72 3.173336 1_565
Mg56 Mg67 3.175871 1_555
Mg56 Mg68 3.176804 1_565
Mg56 Mg97 3.181232 1_555
Mg56 Mg78 3.183660 1_565
Mg56 Mg94 3.184948 1_555
Mg56 Mg57 3.185319 1_555
Mg57 Mg64 3.170254 1_555
Mg57 Mg71 3.173329 1_565
Mg57 Mg67 3.175865 1_555
Mg57 Mg68 3.176811 1_565
Mg57 Mg98 3.181240 1_555
Mg57 Mg77 3.183660 1_565
Mg57 Mg94 3.184949 1_555
Mg58 Mg62 3.170271 1_555
Mg58 Mg71 3.173329 1_555
Mg58 Mg66 3.175897 1_555
Mg58 Mg70 3.176803 1_555
Mg58 Mg79 3.181239 1_555
Mg58 Mg82 3.183652 1_555
Mg58 Mg86 3.184957 1_555
Mg58 Mg60 3.185319 1_555
Mg59 Mg62 3.170247 1_555
Mg59 Mg72 3.173336 1_455
Mg59 Mg65 3.175863 1_555
Mg59 Mg69 3.176811 1_455
Mg59 Mg80 3.181232 1_555
Mg59 Mg83 3.183660 1_455
Mg59 Mg85 3.184949 1_555
Mg59 Mg61 3.185320 1_555
Mg60 Mg63 3.170264 1_555
Mg60 Mg73 3.173320 1_555
Mg60 Mg66 3.175887 1_555
Mg60 Mg70 3.176788 1_555
Mg60 Mg92 3.181240 1_555
Mg60 Mg87 3.183652 1_555
Mg60 Mg86 3.184948 1_555
Mg61 Mg64 3.170254 1_555
Mg61 Mg73 3.173344 1_455
Mg61 Mg65 3.175872 1_555
Mg61 Mg69 3.176803 1_455
Mg61 Mg91 3.181232 1_555
Mg61 Mg88 3.183660 1_455
Mg61 Mg85 3.184949 1_555
Mg62 Mg65 3.177313 1_555
Mg62 Mg66 3.177328 1_555
Mg62 Mg84 3.182647 1_555
Mg62 Mg80 3.184009 1_555
Mg62 Mg79 3.184010 1_555
Mg63 Mg66 3.177320 1_555
Mg63 Mg67 3.177336 1_555
Mg63 Mg89 3.182646 1_555
Mg63 Mg92 3.184010 1_555
Mg63 Mg97 3.184018 1_555
Mg64 Mg67 3.177328 1_555
Mg64 Mg65 3.177345 1_555
Mg64 Mg90 3.182655 1_555
Mg64 Mg91 3.184009 1_555
Mg64 Mg98 3.184010 1_555
Mg65 Mg66 3.174093 1_555
Mg65 Mg67 3.174108 1_555
Mg65 Mg84 3.180825 1_555
Mg65 Mg90 3.180833 1_555
Mg65 Mg85 3.181000 1_555
Mg66 Mg67 3.174102 1_555
Mg66 Mg89 3.180825 1_555
Mg66 Mg84 3.180832 1_555
Mg66 Mg86 3.181009 1_555
Mg67 Mg90 3.180832 1_555
Mg67 Mg89 3.180841 1_555
Mg67 Mg94 3.181001 1_555
Mg68 Mg72 3.175892 1_555
Mg68 Mg71 3.175916 1_555
Mg68 Mg78 3.176573 1_555
Mg68 Mg77 3.176580 1_555
Mg68 Mg69 3.178364 1_555
Mg68 Mg70 3.178373 1_555
Mg68 Mg81 3.178784 1_555
Mg69 Mg73 3.175909 1_555
Mg69 Mg72 3.175909 1_555
Mg69 Mg88 3.176572 1_555
Mg69 Mg83 3.176573 1_555
Mg69 Mg70 3.178356 1_555
Mg69 Mg81 3.178784 1_555
Mg70 Mg73 3.175900 1_555
Mg70 Mg71 3.175923 1_555
Mg70 Mg87 3.176572 1_555
Mg70 Mg82 3.176580 1_555
Mg70 Mg81 3.178793 1_555
Mg71 Mg77 3.176528 1_555
Mg71 Mg82 3.176536 1_555
Mg71 Mg75 3.176737 1_555
Mg72 Mg78 3.176527 1_555
Mg72 Mg83 3.176536 1_555
Mg72 Mg76 3.176745 1_555
Mg73 Mg87 3.176527 1_555
Mg73 Mg88 3.176536 1_555
Mg73 Mg93 3.176737 1_555
Mg74 Mg95 3.168925 1_445
Mg74 Mg96 3.168927 1_545
Mg74 Mg75 3.170616 1_555
Mg74 Mg76 3.170616 1_455
Mg74 Mg79 3.173142 1_555
Mg74 Mg80 3.173151 1_555
Mg75 Mg98 3.169597 1_545
Mg75 Mg79 3.169613 1_555
Mg75 Mg96 3.170615 1_545
Mg75 Mg99 3.176737 1_555
Mg75 Mg82 3.179609 1_555
Mg75 Mg77 3.179609 1_555
Mg76 Mg97 3.169604 1_545
Mg76 Mg80 3.169604 1_655
Mg76 Mg95 3.170617 1_545
Mg76 Mg78 3.179609 1_555
Mg76 Mg83 3.179626 1_555
Mg77 Mg94 3.171144 1_545
Mg77 Mg78 3.172015 1_555
Mg77 Mg98 3.173337 1_545
Mg77 Mg81 3.174901 1_555
Mg77 Mg99 3.176528 1_555
Mg77 Mg82 3.177788 1_555
Mg78 Mg94 3.171143 1_545
Mg78 Mg97 3.173330 1_545
Mg78 Mg81 3.174894 1_555
Mg78 Mg83 3.177795 1_555
Mg79 Mg82 3.173345 1_555
Mg79 Mg84 3.175909 1_555
Mg79 Mg80 3.176002 1_555
Mg79 Mg86 3.178628 1_555
Mg80 Mg83 3.173337 1_455
Mg80 Mg84 3.175907 1_555
Mg80 Mg85 3.178621 1_555
Mg81 Mg83 3.174885 1_555
Mg81 Mg88 3.174901 1_555
Mg81 Mg82 3.174909 1_555
Mg81 Mg87 3.174910 1_555
Mg82 Mg86 3.171144 1_555
Mg82 Mg87 3.172015 1_555
Mg82 Mg99 3.176536 1_555
Mg83 Mg85 3.171135 1_655
Mg83 Mg88 3.172000 1_555
Mg84 Mg85 3.176189 1_555
Mg84 Mg86 3.176205 1_555
Mg84 Mg90 3.181428 1_555
Mg84 Mg89 3.181434 1_555
Mg85 Mg88 3.171143 1_455
Mg85 Mg90 3.176189 1_555
Mg85 Mg91 3.178621 1_555
Mg86 Mg87 3.171143 1_555
Mg86 Mg89 3.176190 1_555
Mg86 Mg92 3.178620 1_555
Mg87 Mg92 3.173330 1_555
Mg87 Mg88 3.177787 1_555
Mg87 Mg93 3.179609 1_555
Mg88 Mg91 3.173329 1_655
Mg88 Mg93 3.179610 1_555
Mg89 Mg92 3.175907 1_555
Mg89 Mg97 3.175915 1_555
Mg89 Mg94 3.176206 1_555
Mg89 Mg90 3.181443 1_555
Mg90 Mg91 3.175907 1_555
Mg90 Mg98 3.175924 1_555
Mg90 Mg94 3.176205 1_555
Mg91 Mg93 3.169604 1_455
Mg91 Mg96 3.173151 1_555
Mg91 Mg98 3.176010 1_555
Mg92 Mg93 3.169604 1_555
Mg92 Mg95 3.173150 1_555
Mg92 Mg97 3.176019 1_555
Mg93 Mg96 3.170615 1_655
Mg93 Mg95 3.170617 1_555
Mg94 Mg97 3.178620 1_555
Mg94 Mg98 3.178636 1_555
Mg95 Mg96 3.168925 1_655
Mg95 Mg97 3.173150 1_555
Mg96 Mg98 3.173134 1_555
Mg100 Mg125 3.159769 1_555
Mg100 Mg114 3.173336 1_655
Mg100 Mg111 3.173336 1_545
Mg100 Mg102 3.175892 1_555
Mg100 Mg103 3.175909 1_555
Mg100 Mg78 3.176527 1_555
Mg100 Mg83 3.176536 1_555
Mg100 Mg76 3.176745 1_555
Mg100 Mg120 3.181551 1_655
Mg100 Mg117 3.181560 1_545
Mg100 Mg129 3.183619 1_555
Mg100 Mg131 3.183628 1_555
Mg101 Mg126 3.159762 1_555
Mg101 Mg115 3.173320 1_555
Mg101 Mg116 3.173344 1_655
Mg101 Mg104 3.175900 1_555
Mg101 Mg103 3.175909 1_555
Mg101 Mg87 3.176527 1_555
Mg101 Mg88 3.176536 1_555
Mg101 Mg93 3.176737 1_555
Mg101 Mg121 3.181543 1_655
Mg101 Mg122 3.181544 1_555
Mg101 Mg133 3.183619 1_555
Mg101 Mg132 3.183636 1_555
Mg102 Mg129 3.175321 1_555
Mg102 Mg128 3.175328 1_555
Mg102 Mg99 3.175916 1_555
Mg102 Mg78 3.176573 1_555
Mg102 Mg77 3.176580 1_555
Mg102 Mg111 3.176804 1_545
Mg102 Mg112 3.176811 1_545
Mg102 Mg103 3.178364 1_555
Mg102 Mg104 3.178373 1_555
Mg102 Mg81 3.178784 1_555
Mg102 Mg127 3.178979 1_555
Mg103 Mg132 3.175320 1_555
Mg103 Mg131 3.175328 1_555
Mg103 Mg88 3.176572 1_555
Mg103 Mg83 3.176573 1_555
Mg103 Mg116 3.176803 1_655
Mg103 Mg114 3.176811 1_655
Mg103 Mg104 3.178356 1_555
Mg103 Mg81 3.178784 1_555
Mg103 Mg127 3.178979 1_555
Mg104 Mg133 3.175320 1_555
Mg104 Mg130 3.175328 1_555
Mg104 Mg99 3.175923 1_555
Mg104 Mg87 3.176572 1_555
Mg104 Mg82 3.176580 1_555
Mg104 Mg115 3.176788 1_555
Mg104 Mg113 3.176803 1_555
Mg104 Mg81 3.178793 1_555
Mg104 Mg127 3.178987 1_555
Mg105 Mg106 3.174093 1_555
Mg105 Mg107 3.174108 1_555
Mg105 Mg114 3.175863 1_555
Mg105 Mg116 3.175872 1_555
Mg105 Mg108 3.177313 1_555
Mg105 Mg110 3.177345 1_555
Mg105 Mg84 3.180825 1_555
Mg105 Mg90 3.180833 1_555
Mg105 Mg85 3.181000 1_555
Mg105 Mg134 3.181252 1_555
Mg105 Mg138 3.184207 1_555
Mg105 Mg137 3.184207 1_555
Mg106 Mg107 3.174102 1_555
Mg106 Mg115 3.175887 1_555
Mg106 Mg113 3.175897 1_555
Mg106 Mg109 3.177320 1_555
Mg106 Mg108 3.177328 1_555
Mg106 Mg89 3.180825 1_555
Mg106 Mg84 3.180832 1_555
Mg106 Mg86 3.181009 1_555
Mg106 Mg135 3.181261 1_555
Mg106 Mg137 3.184207 1_555
Mg106 Mg139 3.184207 1_555
Mg107 Mg112 3.175865 1_555
Mg107 Mg111 3.175871 1_555
Mg107 Mg110 3.177328 1_555
Mg107 Mg109 3.177336 1_555
Mg107 Mg90 3.180832 1_555
Mg107 Mg89 3.180841 1_555
Mg107 Mg94 3.181001 1_555
Mg107 Mg136 3.181245 1_555
Mg107 Mg138 3.184207 1_555
Mg107 Mg139 3.184215 1_555
Mg108 Mg114 3.170247 1_555
Mg108 Mg113 3.170271 1_555
Mg108 Mg137 3.174332 1_555
Mg108 Mg120 3.174453 1_555
Mg108 Mg119 3.174470 1_555
Mg108 Mg84 3.182647 1_555
Mg108 Mg80 3.184009 1_555
Mg108 Mg79 3.184010 1_555
Mg108 Mg140 3.187941 1_555
Mg108 Mg141 3.187949 1_555
Mg109 Mg111 3.170264 1_555
Mg109 Mg115 3.170264 1_555
Mg109 Mg139 3.174332 1_555
Mg109 Mg122 3.174461 1_555
Mg109 Mg117 3.174468 1_555
Mg109 Mg89 3.182646 1_555
Mg109 Mg92 3.184010 1_555
Mg109 Mg97 3.184018 1_555
Mg109 Mg143 3.187941 1_555
Mg109 Mg145 3.187949 1_555
Mg110 Mg116 3.170254 1_555
Mg110 Mg112 3.170254 1_555
Mg110 Mg138 3.174348 1_555
Mg110 Mg121 3.174445 1_555
Mg110 Mg118 3.174454 1_555
Mg110 Mg90 3.182655 1_555
Mg110 Mg91 3.184009 1_555
Mg110 Mg98 3.184010 1_555
Mg110 Mg142 3.187941 1_555
Mg110 Mg144 3.187941 1_555
Mg111 Mg129 3.175441 1_565
Mg111 Mg136 3.179145 1_555
Mg111 Mg117 3.180285 1_555
Mg111 Mg97 3.181232 1_555
Mg111 Mg78 3.183660 1_565
Mg111 Mg94 3.184948 1_555
Mg111 Mg112 3.185319 1_555
Mg111 Mg145 3.189627 1_555
Mg112 Mg99 3.173329 1_565
Mg112 Mg128 3.175441 1_565
Mg112 Mg136 3.179153 1_555
Mg112 Mg118 3.180285 1_555
Mg112 Mg98 3.181240 1_555
Mg112 Mg77 3.183660 1_565
Mg112 Mg94 3.184949 1_555
Mg112 Mg144 3.189626 1_555
Mg113 Mg99 3.173329 1_555
Mg113 Mg130 3.175433 1_555
Mg113 Mg135 3.179153 1_555
Mg113 Mg119 3.180277 1_555
Mg113 Mg79 3.181239 1_555
Mg113 Mg82 3.183652 1_555
Mg113 Mg86 3.184957 1_555
Mg113 Mg115 3.185319 1_555
Mg113 Mg141 3.189626 1_555
Mg114 Mg131 3.175433 1_455
Mg114 Mg134 3.179145 1_555
Mg114 Mg120 3.180270 1_555
Mg114 Mg80 3.181232 1_555
Mg114 Mg83 3.183660 1_455
Mg114 Mg85 3.184949 1_555
Mg114 Mg116 3.185320 1_555
Mg114 Mg140 3.189627 1_555
Mg115 Mg133 3.175433 1_555
Mg115 Mg135 3.179145 1_555
Mg115 Mg122 3.180293 1_555
Mg115 Mg92 3.181240 1_555
Mg115 Mg87 3.183652 1_555
Mg115 Mg86 3.184948 1_555
Mg115 Mg143 3.189635 1_555
Mg116 Mg132 3.175433 1_455
Mg116 Mg134 3.179145 1_555
Mg116 Mg121 3.180270 1_555
Mg116 Mg91 3.181232 1_555
Mg116 Mg88 3.183660 1_455
Mg116 Mg85 3.184949 1_555
Mg116 Mg142 3.189627 1_555
Mg117 Mg122 3.157652 1_555
Mg117 Mg123 3.163324 1_665
Mg117 Mg125 3.165137 1_565
Mg117 Mg145 3.168473 1_555
Mg117 Mg120 3.168944 1_665
Mg117 Mg95 3.183008 1_555
Mg117 Mg76 3.189180 1_565
Mg117 Mg97 3.190245 1_555
Mg117 Mg147 3.235258 1_555
Mg118 Mg121 3.157659 1_555
Mg118 Mg123 3.163324 1_565
Mg118 Mg124 3.165137 1_565
Mg118 Mg144 3.168473 1_555
Mg118 Mg119 3.168938 1_565
Mg118 Mg99 3.181543 1_565
Mg118 Mg96 3.183008 1_555
Mg118 Mg75 3.189180 1_565
Mg118 Mg98 3.190238 1_555
Mg118 Mg148 3.235258 1_555
Mg119 Mg120 3.157659 1_555
Mg119 Mg123 3.163324 1_555
Mg119 Mg124 3.165129 1_555
Mg119 Mg141 3.168473 1_555
Mg119 Mg99 3.181551 1_555
Mg119 Mg74 3.183008 1_555
Mg119 Mg75 3.189180 1_555
Mg119 Mg79 3.190246 1_555
Mg119 Mg146 3.235258 1_555
Mg120 Mg123 3.163341 1_555
Mg120 Mg125 3.165129 1_455
Mg120 Mg140 3.168465 1_555
Mg120 Mg74 3.183016 1_555
Mg120 Mg76 3.189180 1_455
Mg120 Mg80 3.190238 1_555
Mg120 Mg146 3.235266 1_555
Mg121 Mg123 3.163341 1_565
Mg121 Mg126 3.165129 1_455
Mg121 Mg142 3.168466 1_555
Mg121 Mg122 3.168944 1_455
Mg121 Mg96 3.183016 1_555
Mg121 Mg93 3.189180 1_455
Mg121 Mg91 3.190238 1_555
Mg121 Mg148 3.235266 1_555
Mg122 Mg123 3.163324 1_665
Mg122 Mg126 3.165137 1_555
Mg122 Mg143 3.168473 1_555
Mg122 Mg95 3.183008 1_555
Mg122 Mg93 3.189180 1_555
Mg122 Mg92 3.190245 1_555
Mg122 Mg147 3.235258 1_555
Mg123 Mg147 3.188287 1_445
Mg123 Mg148 3.188287 1_545
Mg123 Mg146 3.188287 1_555
Mg123 Mg95 3.197732 1_445
Mg123 Mg74 3.197732 1_555
Mg123 Mg96 3.197733 1_545
Mg124 Mg141 3.155225 1_555
Mg124 Mg144 3.155241 1_545
Mg124 Mg99 3.159761 1_555
Mg124 Mg130 3.163449 1_555
Mg124 Mg128 3.163457 1_555
Mg124 Mg7 3.164552 1_556
Mg124 Mg5 3.181508 1_556
Mg124 Mg2 3.181516 1_556
Mg124 Mg146 3.192019 1_555
Mg124 Mg148 3.192026 1_545
Mg125 Mg140 3.155224 1_655
Mg125 Mg145 3.155239 1_545
Mg125 Mg129 3.163457 1_555
Mg125 Mg131 3.163458 1_555
Mg125 Mg6 3.164552 1_556
Mg125 Mg4 3.181508 1_556
Mg125 Mg3 3.181517 1_556
Mg125 Mg146 3.192019 1_655
Mg125 Mg147 3.192028 1_545
Mg126 Mg142 3.155224 1_655
Mg126 Mg143 3.155240 1_555
Mg126 Mg133 3.163457 1_555
Mg126 Mg132 3.163459 1_555
Mg126 Mg18 3.164552 1_556
Mg126 Mg22 3.181508 1_556
Mg126 Mg23 3.181509 1_556
Mg126 Mg148 3.192019 1_655
Mg126 Mg147 3.192028 1_555
Mg127 Mg129 3.170229 1_555
Mg127 Mg128 3.170236 1_555
Mg127 Mg131 3.170236 1_555
Mg127 Mg132 3.170244 1_555
Mg127 Mg130 3.170244 1_555
Mg127 Mg133 3.170245 1_555
Mg127 Mg8 3.180702 1_556
Mg127 Mg13 3.180718 1_556
Mg128 Mg129 3.164918 1_555
Mg128 Mg8 3.172519 1_556
Mg128 Mg136 3.173387 1_545
Mg128 Mg130 3.175552 1_555
Mg128 Mg144 3.183115 1_545
Mg128 Mg99 3.183620 1_555
Mg128 Mg7 3.184736 1_556
Mg129 Mg8 3.172528 1_556
Mg129 Mg136 3.173377 1_545
Mg129 Mg131 3.175566 1_555
Mg129 Mg145 3.183116 1_545
Mg129 Mg6 3.184736 1_556
Mg130 Mg133 3.164918 1_555
Mg130 Mg135 3.173371 1_555
Mg130 Mg141 3.183115 1_555
Mg130 Mg99 3.183628 1_555
Mg130 Mg7 3.184736 1_556
Mg131 Mg132 3.164903 1_555
Mg131 Mg134 3.173354 1_655
Mg131 Mg140 3.183107 1_655
Mg131 Mg6 3.184744 1_556
Mg132 Mg134 3.173354 1_655
Mg132 Mg133 3.175566 1_555
Mg132 Mg16 3.177868 1_556
Mg132 Mg142 3.183107 1_655
Mg132 Mg18 3.184744 1_556
Mg133 Mg135 3.173370 1_555
Mg133 Mg17 3.177877 1_556
Mg133 Mg143 3.183116 1_555
Mg133 Mg18 3.184736 1_556
Mg134 Mg14 3.171316 1_556
Mg134 Mg138 3.175100 1_555
Mg134 Mg137 3.175109 1_555
Mg134 Mg16 3.180692 1_456
Mg134 Mg140 3.198277 1_555
Mg134 Mg142 3.198277 1_555
Mg135 Mg15 3.171316 1_556
Mg135 Mg137 3.175109 1_555
Mg135 Mg139 3.175110 1_555
Mg135 Mg17 3.180683 1_556
Mg135 Mg143 3.198276 1_555
Mg135 Mg141 3.198276 1_555
Mg136 Mg19 3.171308 1_556
Mg136 Mg139 3.175094 1_555
Mg136 Mg138 3.175108 1_555
Mg136 Mg145 3.198268 1_555
Mg136 Mg144 3.198284 1_555
Mg137 Mg15 3.175933 1_556
Mg137 Mg14 3.175934 1_556
Mg137 Mg140 3.185573 1_555
Mg137 Mg141 3.185575 1_555
Mg137 Mg9 3.186420 1_556
Mg137 Mg138 3.191468 1_555
Mg137 Mg139 3.191482 1_555
Mg138 Mg14 3.175926 1_556
Mg138 Mg19 3.175933 1_556
Mg138 Mg142 3.185581 1_555
Mg138 Mg144 3.185590 1_555
Mg138 Mg21 3.186429 1_556
Mg138 Mg139 3.191475 1_555
Mg139 Mg15 3.175934 1_556
Mg139 Mg19 3.175934 1_556
Mg139 Mg145 3.185573 1_555
Mg139 Mg143 3.185573 1_555
Mg139 Mg20 3.186420 1_556
Mg140 Mg9 3.161696 1_556
Mg140 Mg141 3.166062 1_555
Mg140 Mg146 3.194301 1_555
Mg140 Mg4 3.202295 1_456
Mg141 Mg9 3.161697 1_556
Mg141 Mg146 3.194300 1_555
Mg141 Mg5 3.202295 1_556
Mg142 Mg21 3.161696 1_556
Mg142 Mg144 3.166062 1_555
Mg142 Mg16 3.168115 1_456
Mg142 Mg148 3.194301 1_555
Mg142 Mg22 3.202295 1_456
Mg143 Mg20 3.161697 1_556
Mg143 Mg145 3.166063 1_555
Mg143 Mg17 3.168123 1_556
Mg143 Mg147 3.194300 1_555
Mg143 Mg23 3.202302 1_556
Mg144 Mg21 3.161696 1_556
Mg144 Mg148 3.194300 1_555
Mg144 Mg2 3.202295 1_566
Mg145 Mg20 3.161696 1_556
Mg145 Mg147 3.194300 1_555
Mg145 Mg3 3.202303 1_566
Au0 Mg3 3.087662 1_455
Au0 Mg23 3.087670 1_445
Au0 Mg5 3.087678 1_555
Au0 Mg2 3.087678 1_555
Au0 Mg22 3.087679 1_445
Au0 Mg4 3.087679 1_455
Au0 Mg25 3.088961 1_445
Au0 Mg147 3.088961 1_444
Au0 Mg148 3.088961 1_544
Au0 Mg26 3.088961 1_545
Au0 Mg24 3.088961 1_555
Au0 Mg146 3.088961 1_554
