# generated using pymatgen
data_Cs3Li2Fe(MoO4)4
_symmetry_space_group_name_H-M   'P 1'
_cell_length_a   10.85027865
_cell_length_b   10.85027865
_cell_length_c   10.85027865
_cell_angle_alpha   109.53295020
_cell_angle_beta   109.53295020
_cell_angle_gamma   109.34783191
_symmetry_Int_Tables_number   1
_chemical_formula_structural   Cs3Li2Fe(MoO4)4
_chemical_formula_sum   'Cs6 Li4 Fe2 Mo8 O32'
_cell_volume   983.32996498
_cell_formula_units_Z   2
loop_
 _symmetry_equiv_pos_site_id
 _symmetry_equiv_pos_as_xyz
  1  'x, y, z'
loop_
 _atom_site_type_symbol
 _atom_site_label
 _atom_site_symmetry_multiplicity
 _atom_site_fract_x
 _atom_site_fract_y
 _atom_site_fract_z
 _atom_site_occupancy
  Cs  Cs0  1  0.37500000  0.76055700  0.88555700  1
  Cs  Cs1  1  0.87500000  0.48944300  0.11444300  1
  Cs  Cs2  1  0.23944300  0.12500000  0.61444300  1
  Cs  Cs3  1  0.51055700  0.62500000  0.38555700  1
  Cs  Cs4  1  0.00000000  0.00000000  0.00000000  1
  Cs  Cs5  1  0.75000000  0.25000000  0.50000000  1
  Li  Li0  1  0.37500000  0.24917900  0.37417900  1
  Li  Li1  1  0.87500000  0.00082100  0.62582100  1
  Li  Li2  1  0.75082100  0.12500000  0.12582100  1
  Li  Li3  1  0.99917900  0.62500000  0.87417900  1
  Fe  Fe0  1  0.50000000  0.50000000  0.00000000  1
  Fe  Fe1  1  0.25000000  0.75000000  0.50000000  1
  Mo  Mo0  1  0.12584100  0.37789800  0.44658800  1
  Mo  Mo1  1  0.93131000  0.67925300  0.55341200  1
  Mo  Mo2  1  0.62210200  0.06869000  0.74794300  1
  Mo  Mo3  1  0.81869000  0.87210200  0.24794300  1
  Mo  Mo4  1  0.32074700  0.87415900  0.25205700  1
  Mo  Mo5  1  0.62415900  0.57074700  0.75205700  1
  Mo  Mo6  1  0.42925300  0.18131000  0.05341200  1
  Mo  Mo7  1  0.12789800  0.37584100  0.94658800  1
  O  O0  1  0.37651100  0.24741100  0.19051900  1
  O  O1  1  0.05689200  0.18599200  0.80948100  1
  O  O2  1  0.75258900  0.94310800  0.12910100  1
  O  O3  1  0.69310800  0.00258900  0.62910100  1
  O  O4  1  0.81400800  0.62348900  0.87089900  1
  O  O5  1  0.37348900  0.06400800  0.37089900  1
  O  O6  1  0.93599200  0.30689200  0.30948100  1
  O  O7  1  0.99741100  0.62651100  0.69051900  1
  O  O8  1  0.19652100  0.25958200  0.37849300  1
  O  O9  1  0.88108900  0.81802800  0.62150700  1
  O  O10  1  0.74041800  0.11891100  0.93693900  1
  O  O11  1  0.86891100  0.99041800  0.43693900  1
  O  O12  1  0.18197200  0.80347900  0.06306100  1
  O  O13  1  0.55347900  0.43197200  0.56306100  1
  O  O14  1  0.56802800  0.13108900  0.12150700  1
  O  O15  1  0.00958200  0.44652100  0.87849300  1
  O  O16  1  0.76677300  0.51835000  0.39256100  1
  O  O17  1  0.12578900  0.37421200  0.60743900  1
  O  O18  1  0.48165000  0.87421100  0.24842300  1
  O  O19  1  0.62421100  0.73165000  0.74842300  1
  O  O20  1  0.62578800  0.23322700  0.75157700  1
  O  O21  1  0.98322700  0.87578800  0.25157700  1
  O  O22  1  0.12421200  0.37578900  0.10743900  1
  O  O23  1  0.26835000  0.01677300  0.89256100  1
  O  O24  1  0.25203400  0.57903000  0.50475300  1
  O  O25  1  0.07427700  0.74728100  0.49524700  1
  O  O26  1  0.42097000  0.92572300  0.67300400  1
  O  O27  1  0.67572300  0.67097000  0.17300400  1
  O  O28  1  0.25271900  0.74796600  0.32699600  1
  O  O29  1  0.49796600  0.50271900  0.82699600  1
  O  O30  1  0.49728100  0.32427700  0.99524700  1
  O  O31  1  0.32903000  0.50203400  0.00475300  1
loop_
_geom_bond_atom_site_label_1
_geom_bond_atom_site_label_2
_geom_bond_distance
_geom_bond_site_symmetry_2
Cs0 O14 3.325157 1_566
Cs0 O12 3.325157 1_556
Cs0 O18 3.335033 1_556
Cs0 O23 3.335033 1_565
Cs0 O7 3.402149 1_455
Cs0 O2 3.402151 1_556
Cs0 O31 3.423438 1_556
Cs0 O26 3.423438 1_555
Cs0 O29 3.444122 1_555
Cs0 O24 3.444122 1_555
Cs0 O19 3.544621 1_555
Cs0 O17 3.544621 1_555
Cs1 O15 3.325157 1_654
Cs1 O10 3.325157 1_554
Cs1 O22 3.335033 1_655
Cs1 O20 3.335033 1_554
Cs1 O6 3.402149 1_555
Cs1 O4 3.402158 1_554
Cs1 O28 3.423438 1_655
Cs1 O30 3.423438 1_554
Cs1 O25 3.444122 1_655
Cs1 O27 3.444122 1_555
Cs1 O21 3.544621 1_555
Cs1 O16 3.544621 1_555
Cs2 O11 3.325157 1_445
Cs2 O8 3.325157 1_555
Cs2 O21 3.335033 1_445
Cs2 O17 3.335033 1_555
Cs2 O1 3.402149 1_555
Cs2 O5 3.402158 1_555
Cs2 O29 3.423438 1_555
Cs2 O25 3.423438 1_545
Cs2 O26 3.444122 1_545
Cs2 O30 3.444122 1_555
Cs2 O23 3.544621 1_555
Cs2 O20 3.544621 1_555
Cs3 O13 3.325157 1_555
Cs3 O9 3.325157 1_555
Cs3 O19 3.335033 1_555
Cs3 O16 3.335033 1_555
Cs3 O0 3.402149 1_555
Cs3 O3 3.402151 1_565
Cs3 O24 3.423438 1_555
Cs3 O27 3.423438 1_555
Cs3 O28 3.444122 1_555
Cs3 O31 3.444122 1_555
Cs3 O22 3.544621 1_555
Cs3 O18 3.544621 1_555
Cs4 O4 3.397699 1_444
Cs4 O0 3.397701 1_555
Cs4 O1 3.397701 1_554
Cs4 O2 3.397709 1_445
Cs4 O10 3.431505 1_454
Cs4 O8 3.431505 1_555
Cs4 O12 3.431505 1_545
Cs4 O9 3.431505 1_444
Cs4 O21 3.454041 1_445
Cs4 O19 3.454041 1_444
Cs4 O22 3.454041 1_555
Cs4 O23 3.454041 1_554
Cs5 O5 3.397699 1_555
Cs5 O7 3.397701 1_555
Cs5 O6 3.397701 1_555
Cs5 O3 3.397709 1_555
Cs5 O13 3.431505 1_555
Cs5 O15 3.431505 1_655
Cs5 O14 3.431505 1_555
Cs5 O11 3.431505 1_545
Cs5 O17 3.454041 1_655
Cs5 O20 3.454041 1_555
Cs5 O18 3.454041 1_545
Cs5 O16 3.454041 1_555
Li0 O13 1.991749 1_555
Li0 O8 1.991749 1_555
Li0 O5 1.992038 1_555
Li0 O0 1.992042 1_555
Li1 O9 1.991749 1_545
Li1 O11 1.991749 1_545
Li1 O1 1.992042 1_655
Li1 O3 1.992046 1_555
Li2 O14 1.991749 1_555
Li2 O10 1.991749 1_554
Li2 O6 1.992042 1_555
Li2 O2 1.992046 1_545
Li3 O12 1.991749 1_656
Li3 O15 1.991749 1_655
Li3 O4 1.992038 1_555
Li3 O7 1.992042 1_555
Fe0 O31 1.880101 1_555
Fe0 O29 1.880101 1_554
Fe0 O30 1.880101 1_554
Fe0 O27 1.880101 1_555
Fe1 O28 1.880101 1_555
Fe1 O26 1.880101 1_555
Fe1 O24 1.880101 1_555
Fe1 O25 1.880101 1_555
Mo0 O17 1.759237 1_555
Mo0 O8 1.782990 1_555
Mo0 O6 1.784026 1_455
Mo0 O24 1.885978 1_555
Mo1 O16 1.759237 1_555
Mo1 O9 1.782990 1_555
Mo1 O7 1.784026 1_555
Mo1 O25 1.885978 1_655
Mo2 O20 1.759237 1_555
Mo2 O10 1.782990 1_555
Mo2 O3 1.784018 1_555
Mo2 O26 1.885978 1_545
Mo3 O21 1.759237 1_555
Mo3 O11 1.782990 1_555
Mo3 O2 1.784018 1_555
Mo3 O27 1.885978 1_555
Mo4 O18 1.759237 1_555
Mo4 O12 1.782990 1_555
Mo4 O5 1.784023 1_565
Mo4 O28 1.885978 1_555
Mo5 O19 1.759237 1_555
Mo5 O13 1.782990 1_555
Mo5 O4 1.784023 1_555
Mo5 O29 1.885978 1_555
Mo6 O23 1.759237 1_554
Mo6 O14 1.782990 1_555
Mo6 O0 1.784026 1_555
Mo6 O30 1.885978 1_554
Mo7 O22 1.759237 1_556
Mo7 O15 1.782990 1_555
Mo7 O1 1.784026 1_555
Mo7 O31 1.885978 1_556
