# generated using pymatgen
data_Cu3Ge
_symmetry_space_group_name_H-M   'P 1'
_cell_length_a   4.54115926
_cell_length_b   4.17076720
_cell_length_c   5.21102834
_cell_angle_alpha   90.00000000
_cell_angle_beta   90.00000000
_cell_angle_gamma   90.00000000
_symmetry_Int_Tables_number   1
_chemical_formula_structural   Cu3Ge
_chemical_formula_sum   'Cu6 Ge2'
_cell_volume   98.69749214
_cell_formula_units_Z   2
loop_
 _symmetry_equiv_pos_site_id
 _symmetry_equiv_pos_as_xyz
  1  'x, y, z'
loop_
 _atom_site_type_symbol
 _atom_site_label
 _atom_site_symmetry_multiplicity
 _atom_site_fract_x
 _atom_site_fract_y
 _atom_site_fract_z
 _atom_site_occupancy
  Cu  Cu0  1  0.16331172  0.75000000  0.25000000  1
  Cu  Cu1  1  0.83668828  0.25000000  0.75000000  1
  Cu  Cu2  1  0.33709903  0.25000000  0.50168898  1
  Cu  Cu3  1  0.33709903  0.25000000  0.99831102  1
  Cu  Cu4  1  0.66290097  0.75000000  0.49831102  1
  Cu  Cu5  1  0.66290097  0.75000000  0.00168898  1
  Ge  Ge0  1  0.82485740  0.25000000  0.25000000  1
  Ge  Ge1  1  0.17514260  0.75000000  0.75000000  1
loop_
_geom_bond_atom_site_label_1
_geom_bond_atom_site_label_2
_geom_bond_distance
_geom_bond_site_symmetry_2
Cu0 Cu3 2.586859 1_554
Cu0 Cu2 2.586859 1_555
Cu0 Cu2 2.586859 1_565
Cu0 Cu3 2.586859 1_564
Cu0 Ge0 2.590582 1_455
Cu0 Ge0 2.590582 1_465
Cu0 Ge1 2.606068 1_555
Cu0 Ge1 2.606068 1_554
Cu0 Cu4 2.611778 1_555
Cu0 Cu5 2.611778 1_555
Cu0 Cu5 2.615020 1_455
Cu0 Cu4 2.615020 1_455
Cu1 Cu4 2.586859 1_555
Cu1 Cu4 2.586859 1_545
Cu1 Cu5 2.586859 1_546
Cu1 Cu5 2.586859 1_556
Cu1 Ge1 2.590582 1_645
Cu1 Ge1 2.590582 1_655
Cu1 Ge0 2.606068 1_556
Cu1 Ge0 2.606068 1_555
Cu1 Cu2 2.611778 1_555
Cu1 Cu3 2.611778 1_555
Cu1 Cu3 2.615020 1_655
Cu1 Cu2 2.615020 1_655
Cu2 Cu4 2.556973 1_555
Cu2 Cu4 2.556973 1_545
Cu2 Ge1 2.562043 1_545
Cu2 Ge1 2.562043 1_555
Cu2 Ge0 2.574172 1_555
Cu2 Cu3 2.587912 1_555
Cu2 Cu3 2.623117 1_554
Cu2 Ge0 2.670441 1_455
Cu3 Cu5 2.556973 1_556
Cu3 Cu5 2.556973 1_546
Cu3 Ge1 2.562043 1_545
Cu3 Ge1 2.562043 1_555
Cu3 Ge0 2.574172 1_556
Cu3 Ge0 2.670441 1_456
Cu4 Ge0 2.562043 1_565
Cu4 Ge0 2.562043 1_555
Cu4 Ge1 2.574172 1_555
Cu4 Cu5 2.587912 1_555
Cu4 Cu5 2.623117 1_556
Cu4 Ge1 2.670441 1_655
Cu5 Ge0 2.562043 1_565
Cu5 Ge0 2.562043 1_555
Cu5 Ge1 2.574172 1_554
Cu5 Ge1 2.670441 1_654
