# generated using pymatgen
data_Ca8Mn7CrO22
_symmetry_space_group_name_H-M   'P 1'
_cell_length_a   7.68170700
_cell_length_b   7.68170700
_cell_length_c   7.65423600
_cell_angle_alpha   90.00000000
_cell_angle_beta   90.00000000
_cell_angle_gamma   90.00000000
_symmetry_Int_Tables_number   1
_chemical_formula_structural   Ca8Mn7CrO22
_chemical_formula_sum   'Ca8 Mn7 Cr1 O22'
_cell_volume   451.66592214
_cell_formula_units_Z   1
loop_
 _symmetry_equiv_pos_site_id
 _symmetry_equiv_pos_as_xyz
  1  'x, y, z'
loop_
 _atom_site_type_symbol
 _atom_site_label
 _atom_site_symmetry_multiplicity
 _atom_site_fract_x
 _atom_site_fract_y
 _atom_site_fract_z
 _atom_site_occupancy
  Ca  Ca0  1  0.25070500  0.25070500  0.25264300  1
  Ca  Ca1  1  0.25067800  0.25067800  0.74303400  1
  Ca  Ca2  1  0.25070500  0.74929500  0.25264300  1
  Ca  Ca3  1  0.25067800  0.74932200  0.74303400  1
  Ca  Ca4  1  0.74929500  0.25070500  0.25264300  1
  Ca  Ca5  1  0.74932200  0.25067800  0.74303400  1
  Ca  Ca6  1  0.74929500  0.74929500  0.25264300  1
  Ca  Ca7  1  0.74932200  0.74932200  0.74303400  1
  Mn  Mn0  1  0.00000000  0.00000000  0.49986000  1
  Mn  Mn1  1  0.00000000  0.50000000  0.00635600  1
  Mn  Mn2  1  0.00000000  0.50000000  0.49144200  1
  Mn  Mn3  1  0.50000000  0.00000000  0.00635600  1
  Mn  Mn4  1  0.50000000  0.00000000  0.49144200  1
  Mn  Mn5  1  0.50000000  0.50000000  0.99392400  1
  Mn  Mn6  1  0.50000000  0.50000000  0.50419200  1
  Cr  Cr0  1  0.00000000  0.00000000  0.99340900  1
  O  O0  1  0.00000000  0.00000000  0.75511300  1
  O  O1  1  0.00000000  0.50000000  0.24935200  1
  O  O2  1  0.00000000  0.50000000  0.75009700  1
  O  O3  1  0.50000000  0.00000000  0.24935200  1
  O  O4  1  0.50000000  0.00000000  0.75009700  1
  O  O5  1  0.50000000  0.50000000  0.74978500  1
  O  O6  1  0.24189400  0.00000000  0.02724000  1
  O  O7  1  0.24698800  0.00000000  0.47893800  1
  O  O8  1  0.25440900  0.50000000  0.02268500  1
  O  O9  1  0.25440300  0.50000000  0.47776600  1
  O  O10  1  0.75810600  0.00000000  0.02724000  1
  O  O11  1  0.75301200  0.00000000  0.47893800  1
  O  O12  1  0.74559100  0.50000000  0.02268500  1
  O  O13  1  0.74559700  0.50000000  0.47776600  1
  O  O14  1  0.00000000  0.24189400  0.02724000  1
  O  O15  1  0.00000000  0.24698800  0.47893800  1
  O  O16  1  0.00000000  0.75810600  0.02724000  1
  O  O17  1  0.00000000  0.75301200  0.47893800  1
  O  O18  1  0.50000000  0.25440900  0.02268500  1
  O  O19  1  0.50000000  0.25440300  0.47776600  1
  O  O20  1  0.50000000  0.74559100  0.02268500  1
  O  O21  1  0.50000000  0.74559700  0.47776600  1
loop_
_geom_bond_atom_site_label_1
_geom_bond_atom_site_label_2
_geom_bond_distance
_geom_bond_site_symmetry_2
Ca0 O9 2.576296 1_555
Ca0 O19 2.576296 1_555
Ca0 O14 2.586517 1_555
Ca0 O6 2.586517 1_555
Ca0 O15 2.590349 1_555
Ca0 O7 2.590349 1_555
Ca0 O8 2.601195 1_555
Ca0 O18 2.601195 1_555
Ca0 O1 2.716021 1_555
Ca0 O3 2.716021 1_555
Ca1 O5 2.709021 1_555
Ca1 O4 2.716442 1_555
Ca1 O2 2.716442 1_555
Ca1 O0 2.724828 1_555
Ca1 O9 2.791326 1_555
Ca1 O19 2.791326 1_555
Ca1 O15 2.791979 1_555
Ca1 O7 2.791979 1_555
Ca1 O8 2.872401 1_556
Ca1 O18 2.872401 1_556
Ca1 O6 2.906011 1_556
Ca1 O14 2.906011 1_556
Ca2 O9 2.576296 1_555
Ca2 O21 2.576296 1_555
Ca2 O16 2.586517 1_555
Ca2 O6 2.586517 1_565
Ca2 O17 2.590349 1_555
Ca2 O7 2.590349 1_565
Ca2 O8 2.601195 1_555
Ca2 O20 2.601195 1_555
Ca2 O1 2.716021 1_555
Ca2 O3 2.716021 1_565
Ca3 O5 2.709021 1_555
Ca3 O2 2.716442 1_555
Ca3 O4 2.716442 1_565
Ca3 O0 2.724828 1_565
Ca3 O9 2.791326 1_555
Ca3 O21 2.791326 1_555
Ca3 O17 2.791979 1_555
Ca3 O7 2.791979 1_565
Ca3 O8 2.872401 1_556
Ca3 O20 2.872401 1_556
Ca3 O16 2.906011 1_556
Ca3 O6 2.906011 1_566
Ca4 O19 2.576296 1_555
Ca4 O13 2.576296 1_555
Ca4 O10 2.586517 1_555
Ca4 O14 2.586517 1_655
Ca4 O11 2.590349 1_555
Ca4 O15 2.590349 1_655
Ca4 O18 2.601195 1_555
Ca4 O12 2.601195 1_555
Ca4 O3 2.716021 1_555
Ca4 O1 2.716021 1_655
Ca5 O5 2.709021 1_555
Ca5 O4 2.716442 1_555
Ca5 O2 2.716442 1_655
Ca5 O0 2.724828 1_655
Ca5 O19 2.791326 1_555
Ca5 O13 2.791326 1_555
Ca5 O11 2.791979 1_555
Ca5 O15 2.791979 1_655
Ca5 O18 2.872401 1_556
Ca5 O12 2.872401 1_556
Ca5 O10 2.906011 1_556
Ca5 O14 2.906011 1_656
Ca6 O13 2.576296 1_555
Ca6 O21 2.576296 1_555
Ca6 O16 2.586517 1_655
Ca6 O10 2.586517 1_565
Ca6 O17 2.590349 1_655
Ca6 O11 2.590349 1_565
Ca6 O20 2.601195 1_555
Ca6 O12 2.601195 1_555
Ca6 O1 2.716021 1_655
Ca6 O3 2.716021 1_565
Ca7 O5 2.709021 1_555
Ca7 O4 2.716442 1_565
Ca7 O2 2.716442 1_655
Ca7 O0 2.724828 1_665
Ca7 O13 2.791326 1_555
Ca7 O21 2.791326 1_555
Ca7 O11 2.791979 1_565
Ca7 O17 2.791979 1_655
Ca7 O20 2.872401 1_556
Ca7 O12 2.872401 1_556
Ca7 O16 2.906011 1_656
Ca7 O10 2.906011 1_566
Mn0 O15 1.904036 1_555
Mn0 O7 1.904036 1_555
Mn0 O17 1.904036 1_545
Mn0 O11 1.904036 1_455
Mn0 O0 1.953767 1_555
Mn1 O1 1.859949 1_555
Mn1 O12 1.958288 1_455
Mn1 O8 1.958288 1_555
Mn1 O2 1.961467 1_554
Mn1 O16 1.989128 1_555
Mn1 O14 1.989128 1_555
Mn2 O1 1.853014 1_555
Mn2 O17 1.945919 1_555
Mn2 O15 1.945919 1_555
Mn2 O9 1.957051 1_555
Mn2 O13 1.957051 1_455
Mn2 O2 1.979806 1_555
Mn3 O3 1.859949 1_555
Mn3 O20 1.958288 1_545
Mn3 O18 1.958288 1_555
Mn3 O4 1.961467 1_554
Mn3 O10 1.989128 1_555
Mn3 O6 1.989128 1_555
Mn4 O3 1.853014 1_555
Mn4 O11 1.945919 1_555
Mn4 O7 1.945919 1_555
Mn4 O19 1.957051 1_555
Mn4 O21 1.957051 1_545
Mn4 O4 1.979806 1_555
Mn5 O5 1.868698 1_555
Mn5 O18 1.899359 1_556
Mn5 O8 1.899359 1_556
Mn5 O20 1.899359 1_556
Mn5 O12 1.899359 1_556
Mn6 O5 1.879827 1_555
Mn6 O13 1.897416 1_555
Mn6 O21 1.897416 1_555
Mn6 O9 1.897416 1_555
Mn6 O19 1.897416 1_555
Cr0 O0 1.823974 1_555
Cr0 O14 1.876116 1_556
Cr0 O6 1.876116 1_556
Cr0 O16 1.876116 1_546
Cr0 O10 1.876116 1_456
