# generated using pymatgen
data_Mg14AlGa
_symmetry_space_group_name_H-M   'P 1'
_cell_length_a   6.28787779
_cell_length_b   6.22774682
_cell_length_c   10.34280747
_cell_angle_alpha   90.00000000
_cell_angle_beta   90.00000000
_cell_angle_gamma   119.68416469
_symmetry_Int_Tables_number   1
_chemical_formula_structural   Mg14AlGa
_chemical_formula_sum   'Mg14 Al1 Ga1'
_cell_volume   351.86616286
_cell_formula_units_Z   1
loop_
 _symmetry_equiv_pos_site_id
 _symmetry_equiv_pos_as_xyz
  1  'x, y, z'
loop_
 _atom_site_type_symbol
 _atom_site_label
 _atom_site_symmetry_multiplicity
 _atom_site_fract_x
 _atom_site_fract_y
 _atom_site_fract_z
 _atom_site_occupancy
  Mg  Mg0  1  0.16695453  0.33347677  0.62500000  1
  Mg  Mg1  1  0.16740323  0.83370111  0.62500000  1
  Mg  Mg2  1  0.66593151  0.33389774  0.12500000  1
  Mg  Mg3  1  0.66497101  0.33240344  0.62500000  1
  Mg  Mg4  1  0.66593151  0.83203277  0.12500000  1
  Mg  Mg5  1  0.66497101  0.83256657  0.62500000  1
  Mg  Mg6  1  0.33192616  0.16596260  0.37095668  1
  Mg  Mg7  1  0.33192616  0.16596260  0.87904332  1
  Mg  Mg8  1  0.33192616  0.66596457  0.37095668  1
  Mg  Mg9  1  0.33192616  0.66596457  0.87904332  1
  Mg  Mg10  1  0.83726198  0.16863149  0.37490612  1
  Mg  Mg11  1  0.83726198  0.16863149  0.87509388  1
  Mg  Mg12  1  0.83681912  0.66841006  0.37611372  1
  Mg  Mg13  1  0.83681912  0.66841006  0.87388628  1
  Al  Al0  1  0.16292730  0.33146315  0.12500000  1
  Ga  Ga0  1  0.16504303  0.83252102  0.12500000  1
loop_
_geom_bond_atom_site_label_1
_geom_bond_atom_site_label_2
_geom_bond_distance
_geom_bond_site_symmetry_2
Mg0 Mg1 3.113874 1_555
Mg0 Mg1 3.113874 1_545
Mg0 Mg5 3.134782 1_555
Mg0 Mg3 3.134782 1_555
Mg0 Mg10 3.151909 1_455
Mg0 Mg11 3.151909 1_455
Mg0 Mg5 3.153106 1_445
Mg0 Mg3 3.153106 1_455
Mg0 Mg7 3.184347 1_555
Mg0 Mg6 3.184347 1_555
Mg0 Mg9 3.184353 1_555
Mg0 Mg8 3.184353 1_555
Mg1 Mg3 3.132150 1_565
Mg1 Mg5 3.132150 1_555
Mg1 Mg13 3.144461 1_455
Mg1 Mg12 3.144461 1_455
Mg1 Mg3 3.155739 1_455
Mg1 Mg5 3.155739 1_455
Mg1 Mg9 3.183648 1_555
Mg1 Mg8 3.183648 1_555
Mg1 Mg7 3.183654 1_565
Mg1 Mg6 3.183654 1_565
Mg2 Mg4 3.102259 1_555
Mg2 Mg4 3.125488 1_545
Mg2 Mg6 3.130566 1_555
Mg2 Mg7 3.130566 1_554
Mg3 Mg5 3.112857 1_545
Mg3 Mg5 3.114889 1_555
Mg3 Mg7 3.195907 1_555
Mg3 Mg6 3.195907 1_555
Mg4 Mg8 3.130566 1_555
Mg4 Mg9 3.130566 1_554
Mg5 Mg9 3.195907 1_555
Mg5 Mg8 3.195907 1_555
Mg6 Mg8 3.113861 1_545
Mg6 Mg8 3.113886 1_555
Mg7 Mg9 3.113861 1_545
Mg7 Mg9 3.113886 1_555
Mg10 Mg12 3.113899 1_545
Mg10 Mg12 3.113899 1_555
Mg10 Mg8 3.118920 1_655
Mg10 Mg6 3.118920 1_655
Mg10 Mg2 3.162111 1_555
Mg10 Mg4 3.162117 1_545
Mg10 Mg3 3.162142 1_555
Mg10 Mg5 3.162148 1_545
Mg10 Mg8 3.169555 1_545
Mg10 Mg6 3.169555 1_555
Mg11 Mg13 3.113899 1_545
Mg11 Mg13 3.113899 1_555
Mg11 Mg9 3.118920 1_655
Mg11 Mg7 3.118920 1_655
Mg11 Mg2 3.162111 1_556
Mg11 Mg4 3.162117 1_546
Mg11 Mg3 3.162142 1_555
Mg11 Mg5 3.162148 1_545
Mg11 Mg9 3.169555 1_545
Mg11 Mg7 3.169555 1_555
Mg12 Mg6 3.121198 1_665
Mg12 Mg8 3.121199 1_655
Mg12 Mg5 3.151713 1_555
Mg12 Mg3 3.151719 1_555
Mg12 Mg4 3.165909 1_555
Mg12 Mg2 3.165915 1_555
Mg12 Mg6 3.167640 1_555
Mg12 Mg8 3.167640 1_555
Mg13 Mg7 3.121198 1_665
Mg13 Mg9 3.121199 1_655
Mg13 Mg5 3.151713 1_555
Mg13 Mg3 3.151719 1_555
Mg13 Mg4 3.165909 1_556
Mg13 Mg2 3.165915 1_556
Mg13 Mg7 3.167640 1_555
Mg13 Mg9 3.167640 1_555
Al0 Ga0 3.113895 1_545
Al0 Ga0 3.113895 1_555
Al0 Mg6 3.122126 1_555
Al0 Mg7 3.122126 1_554
Al0 Mg8 3.122133 1_555
Al0 Mg9 3.122133 1_554
Al0 Mg4 3.132585 1_445
Al0 Mg2 3.132585 1_455
Al0 Mg11 3.137790 1_454
Al0 Mg10 3.137790 1_455
Al0 Mg4 3.155348 1_555
Al0 Mg2 3.155348 1_555
Ga0 Mg8 3.118722 1_555
Ga0 Mg9 3.118722 1_554
Ga0 Mg6 3.118728 1_565
Ga0 Mg7 3.118728 1_564
Ga0 Mg2 3.136847 1_455
Ga0 Mg4 3.136848 1_455
Ga0 Mg2 3.151032 1_565
Ga0 Mg4 3.151032 1_555
Ga0 Mg13 3.156006 1_454
Ga0 Mg12 3.156006 1_455
