# generated using pymatgen
data_Na4Ca2SiP4
_symmetry_space_group_name_H-M   'P 1'
_cell_length_a   9.15326153
_cell_length_b   9.15326153
_cell_length_c   6.98564003
_cell_angle_alpha   88.96896085
_cell_angle_beta   88.96896085
_cell_angle_gamma   119.59287499
_symmetry_Int_Tables_number   1
_chemical_formula_structural   Na4Ca2SiP4
_chemical_formula_sum   'Na8 Ca4 Si2 P8'
_cell_volume   508.60155765
_cell_formula_units_Z   2
loop_
 _symmetry_equiv_pos_site_id
 _symmetry_equiv_pos_as_xyz
  1  'x, y, z'
loop_
 _atom_site_type_symbol
 _atom_site_label
 _atom_site_symmetry_multiplicity
 _atom_site_fract_x
 _atom_site_fract_y
 _atom_site_fract_z
 _atom_site_occupancy
  Na  Na0  1  0.47347100  0.94367400  0.38916700  1
  Na  Na1  1  0.94367400  0.47347100  0.88916700  1
  Na  Na2  1  0.86227000  0.71939000  0.18764000  1
  Na  Na3  1  0.28749900  0.13571000  0.21844700  1
  Na  Na4  1  0.84960200  0.13915400  0.20472100  1
  Na  Na5  1  0.13571000  0.28749900  0.71844700  1
  Na  Na6  1  0.71939000  0.86227000  0.68764000  1
  Na  Na7  1  0.13915400  0.84960200  0.70472100  1
  Ca  Ca0  1  0.05252900  0.52839900  0.38824900  1
  Ca  Ca1  1  0.47935600  0.53047600  0.38609200  1
  Ca  Ca2  1  0.52839900  0.05252900  0.88824900  1
  Ca  Ca3  1  0.53047600  0.47935600  0.88609200  1
  Si  Si0  1  0.66273300  0.32946900  0.50040000  1
  Si  Si1  1  0.32946900  0.66273300  0.00040000  1
  P  P0  1  0.66010600  0.33576900  0.17180200  1
  P  P1  1  0.33576900  0.66010600  0.67180200  1
  P  P2  1  0.20279800  0.39321200  0.12383800  1
  P  P3  1  0.60614100  0.80070400  0.08987600  1
  P  P4  1  0.20153100  0.80612400  0.10376200  1
  P  P5  1  0.80070400  0.60614100  0.58987600  1
  P  P6  1  0.39321200  0.20279800  0.62383800  1
  P  P7  1  0.80612400  0.20153100  0.60376200  1
loop_
_geom_bond_atom_site_label_1
_geom_bond_atom_site_label_2
_geom_bond_distance
_geom_bond_site_symmetry_2
Na0 P1 2.952745 1_555
Na0 P4 2.988249 1_555
Na0 P3 3.022428 1_555
Na0 Si0 3.190610 1_565
Na0 P7 3.206676 1_565
Na0 P6 3.266523 1_565
Na1 P0 2.952745 1_556
Na1 P7 2.988249 1_555
Na1 P5 3.022428 1_555
Na1 Si1 3.190610 1_656
Na1 P4 3.206676 1_656
Na1 P2 3.266523 1_656
Na2 P4 2.845983 1_655
Na2 P3 2.877393 1_555
Na2 P5 2.923824 1_555
Na2 P0 3.061056 1_555
Na3 P4 2.850808 1_545
Na3 P2 2.891441 1_555
Na3 P0 2.976839 1_555
Na3 P6 2.984536 1_555
Na4 P7 2.914894 1_555
Na4 P3 2.922689 1_545
Na4 P2 2.939447 1_655
Na4 P0 3.063120 1_555
Na5 P7 2.850808 1_455
Na5 P6 2.891441 1_555
Na5 P1 2.976839 1_555
Na5 P2 2.984536 1_556
Na6 P7 2.845983 1_565
Na6 P5 2.877393 1_555
Na6 P3 2.923824 1_556
Na6 P1 3.061056 1_555
Na7 P4 2.914894 1_556
Na7 P5 2.922689 1_455
Na7 P6 2.939447 1_565
Na7 P1 3.063120 1_555
Ca0 P2 2.916600 1_555
Ca0 P4 2.927138 1_555
Ca0 P1 3.046663 1_555
Ca0 P5 3.056563 1_455
Ca0 P7 3.058733 1_455
Ca1 P2 2.907117 1_555
Ca1 P3 2.939550 1_555
Ca1 P1 2.941047 1_555
Ca1 P5 3.054845 1_555
Ca1 P6 3.132692 1_555
Ca1 Si0 3.144136 1_555
Ca1 P0 3.327675 1_555
Ca2 P6 2.916600 1_555
Ca2 P7 2.927138 1_555
Ca2 P0 3.046663 1_556
Ca2 P3 3.056563 1_546
Ca2 P4 3.058733 1_546
Ca3 P6 2.907117 1_555
Ca3 P5 2.939550 1_555
Ca3 P0 2.941047 1_556
Ca3 P3 3.054845 1_556
Ca3 P2 3.132692 1_556
Ca3 Si1 3.144136 1_556
Ca3 P1 3.327675 1_555
P0 Si0 2.296011 1_555
P1 Si1 2.296011 1_556
P2 Si1 2.288302 1_555
P3 Si1 2.307703 1_555
P4 Si1 2.266512 1_555
P5 Si0 2.307703 1_555
P6 Si0 2.288302 1_555
P7 Si0 2.266512 1_555
