# generated using pymatgen
data_Ca8Mn6Al2O23
_symmetry_space_group_name_H-M   'P 1'
_cell_length_a   10.78228937
_cell_length_b   15.09429576
_cell_length_c   10.67851166
_cell_angle_alpha   89.87478611
_cell_angle_beta   90.33652356
_cell_angle_gamma   90.07437334
_symmetry_Int_Tables_number   1
_chemical_formula_structural   Ca8Mn6Al2O23
_chemical_formula_sum   'Ca32 Mn24 Al8 O92'
_cell_volume   1737.90358147
_cell_formula_units_Z   4
loop_
 _symmetry_equiv_pos_site_id
 _symmetry_equiv_pos_as_xyz
  1  'x, y, z'
loop_
 _atom_site_type_symbol
 _atom_site_label
 _atom_site_symmetry_multiplicity
 _atom_site_fract_x
 _atom_site_fract_y
 _atom_site_fract_z
 _atom_site_occupancy
  Ca  Ca0  1  0.02090232  0.12278142  0.49687309  1
  Ca  Ca1  1  0.01844026  0.12092392  0.99687698  1
  Ca  Ca2  1  0.02235189  0.62447967  0.49541766  1
  Ca  Ca3  1  0.02541411  0.62360633  0.99639896  1
  Ca  Ca4  1  0.51359860  0.13108345  0.50229233  1
  Ca  Ca5  1  0.52570635  0.12487487  0.97916651  1
  Ca  Ca6  1  0.52407080  0.62412710  0.49931425  1
  Ca  Ca7  1  0.51622515  0.62193057  0.99472999  1
  Ca  Ca8  1  0.48636067  0.37537251  0.99821987  1
  Ca  Ca9  1  0.47723673  0.38050971  0.51020819  1
  Ca  Ca10  1  0.48407094  0.87197538  0.99092057  1
  Ca  Ca11  1  0.47952549  0.87129068  0.51208724  1
  Ca  Ca12  1  0.97532527  0.38070481  0.00392199  1
  Ca  Ca13  1  0.98144863  0.37469177  0.50110935  1
  Ca  Ca14  1  0.97902415  0.87638165  0.00827927  1
  Ca  Ca15  1  0.97551207  0.87656425  0.50363875  1
  Ca  Ca16  1  0.23340094  0.38276095  0.25260138  1
  Ca  Ca17  1  0.22865902  0.37351271  0.73610535  1
  Ca  Ca18  1  0.22812058  0.87814619  0.24562051  1
  Ca  Ca19  1  0.23468700  0.87659550  0.75122181  1
  Ca  Ca20  1  0.73596767  0.38030998  0.24655550  1
  Ca  Ca21  1  0.72808247  0.37593970  0.74783740  1
  Ca  Ca22  1  0.73835517  0.86802230  0.24441063  1
  Ca  Ca23  1  0.72354960  0.87475010  0.74490781  1
  Ca  Ca24  1  0.24405479  0.12274417  0.26043086  1
  Ca  Ca25  1  0.27244969  0.12317977  0.73425169  1
  Ca  Ca26  1  0.27219715  0.62509225  0.25166365  1
  Ca  Ca27  1  0.26858910  0.62222427  0.75764079  1
  Ca  Ca28  1  0.77303691  0.12206041  0.25651779  1
  Ca  Ca29  1  0.76775173  0.12347395  0.75555968  1
  Ca  Ca30  1  0.77423349  0.62372821  0.25526327  1
  Ca  Ca31  1  0.77367317  0.62474062  0.75445882  1
  Mn  Mn0  1  -0.00010360  0.00143524  0.25085652  1
  Mn  Mn1  1  0.99762875  0.99909203  0.75194329  1
  Mn  Mn2  1  0.00243177  0.49909655  0.24750796  1
  Mn  Mn3  1  0.00328432  0.49893039  0.75085470  1
  Mn  Mn4  1  0.49922219  0.50125329  0.25078903  1
  Mn  Mn5  1  0.49862270  0.49993741  0.75254066  1
  Mn  Mn6  1  0.25468238  0.00716220  0.00304541  1
  Mn  Mn7  1  0.25123238  0.49999524  0.49986188  1
  Mn  Mn8  1  0.74914325  0.99854002  0.99598964  1
  Mn  Mn9  1  0.74246314  0.00085371  0.50151249  1
  Mn  Mn10  1  0.74885550  0.50107667  0.00063893  1
  Mn  Mn11  1  0.75206584  0.49946668  0.50079552  1
  Mn  Mn12  1  0.25060096  0.74942843  0.00399819  1
  Mn  Mn13  1  0.25076095  0.75173379  0.49927296  1
  Mn  Mn14  1  0.75279262  0.24776375  0.00137127  1
  Mn  Mn15  1  0.75189648  0.24906798  0.50243611  1
  Mn  Mn16  1  0.75004066  0.74877659  0.99915146  1
  Mn  Mn17  1  0.75060379  0.74969599  0.50030372  1
  Mn  Mn18  1  0.99903934  0.24897712  0.74386318  1
  Mn  Mn19  1  0.00181334  0.74954643  0.25010287  1
  Mn  Mn20  1  0.00161234  0.75076436  0.75049031  1
  Mn  Mn21  1  0.50062851  0.24879717  0.74362507  1
  Mn  Mn22  1  0.50110536  0.74923144  0.25217144  1
  Mn  Mn23  1  0.49861213  0.74959659  0.75073166  1
  Al  Al0  1  0.51466356  0.98172065  0.23401484  1
  Al  Al1  1  0.49701569  0.99950112  0.74482992  1
  Al  Al2  1  0.23352828  0.99576613  0.51445193  1
  Al  Al3  1  0.25049370  0.49596857  0.00385880  1
  Al  Al4  1  0.25494914  0.24564083  0.96225273  1
  Al  Al5  1  0.24713081  0.24701696  0.48965147  1
  Al  Al6  1  0.98730270  0.24961457  0.27016684  1
  Al  Al7  1  0.52075354  0.26211036  0.26816441  1
  O  O0  1  0.10513387  0.26375078  0.60180739  1
  O  O1  1  0.10585269  0.77082722  0.10426034  1
  O  O2  1  0.10466116  0.77306355  0.60264503  1
  O  O3  1  0.57695191  0.25196208  0.11155974  1
  O  O4  1  0.60263005  0.27030188  0.59846939  1
  O  O5  1  0.60678473  0.77248343  0.10515845  1
  O  O6  1  0.60493371  0.76694340  0.60389640  1
  O  O7  1  0.39420926  0.21706527  0.34913119  1
  O  O8  1  0.39858627  0.23366331  0.88641395  1
  O  O9  1  0.39686402  0.72769252  0.39769318  1
  O  O10  1  0.39703584  0.73299199  0.89872811  1
  O  O11  1  0.89458127  0.23035467  0.40613901  1
  O  O12  1  0.89839225  0.23139116  0.90269324  1
  O  O13  1  0.89637128  0.73088567  0.39657925  1
  O  O14  1  0.89631189  0.72764288  0.89608490  1
  O  O15  1  0.14148360  0.24052481  0.34685818  1
  O  O16  1  0.14015799  0.22849616  0.84710627  1
  O  O17  1  0.14739791  0.73026922  0.35258427  1
  O  O18  1  0.14874500  0.73263611  0.85350599  1
  O  O19  1  0.65371596  0.23064576  0.35551055  1
  O  O20  1  0.64805114  0.23025779  0.85443498  1
  O  O21  1  0.64779784  0.72748951  0.35360545  1
  O  O22  1  0.64503115  0.72966430  0.85362405  1
  O  O23  1  0.35974341  0.26361122  0.63206160  1
  O  O24  1  0.35575544  0.77276955  0.14829786  1
  O  O25  1  0.35312024  0.77017271  0.64686458  1
  O  O26  1  0.86353543  0.26924579  0.14490939  1
  O  O27  1  0.85047807  0.27081177  0.65048041  1
  O  O28  1  0.85711753  0.76800067  0.14389029  1
  O  O29  1  0.85524084  0.77240961  0.64660124  1
  O  O30  1  0.35711530  0.48451371  0.14584469  1
  O  O31  1  0.35473473  0.47956343  0.64645166  1
  O  O32  1  0.36442447  0.00491250  0.17169757  1
  O  O33  1  0.35940765  0.98650783  0.63347947  1
  O  O34  1  0.85533434  0.48172023  0.14495207  1
  O  O35  1  0.85578487  0.47910832  0.64732868  1
  O  O36  1  0.85429729  0.98042968  0.14618536  1
  O  O37  1  0.85123913  0.97718008  0.64566450  1
  O  O38  1  0.14010519  0.01307839  0.36296384  1
  O  O39  1  0.14635270  0.02785087  0.85971296  1
  O  O40  1  0.14817866  0.51830922  0.35255668  1
  O  O41  1  0.14755826  0.51056906  0.85738042  1
  O  O42  1  0.60739093  0.03323112  0.35310896  1
  O  O43  1  0.64340137  0.01614364  0.85374939  1
  O  O44  1  0.64726840  0.51988797  0.35372281  1
  O  O45  1  0.64510351  0.52061208  0.85476146  1
  O  O46  1  0.39187152  0.02114450  0.89476631  1
  O  O47  1  0.39599231  0.52201834  0.39749593  1
  O  O48  1  0.39240285  0.50919421  0.89710025  1
  O  O49  1  0.88629825  0.02299626  0.39271082  1
  O  O50  1  0.89514398  0.01970786  0.89715707  1
  O  O51  1  0.89817593  0.51714796  0.39592827  1
  O  O52  1  0.89624759  0.51794280  0.89796467  1
  O  O53  1  0.10612677  0.48520572  0.10466222  1
  O  O54  1  0.10536868  0.47844395  0.60350182  1
  O  O55  1  0.10865900  0.98470637  0.10799193  1
  O  O56  1  0.10093791  0.98182520  0.61355823  1
  O  O57  1  0.60566811  0.47802979  0.10629732  1
  O  O58  1  0.60577999  0.48228632  0.60461762  1
  O  O59  1  0.60599752  0.98161506  0.09792684  1
  O  O60  1  0.60417524  0.98122357  0.60370628  1
  O  O61  1  0.01258347  0.37266417  0.27297676  1
  O  O62  1  0.01112090  0.37337113  0.78830879  1
  O  O63  1  0.00639996  0.87514759  0.28743578  1
  O  O64  1  0.01303249  0.87598134  0.79439841  1
  O  O65  1  0.50156780  0.37762889  0.28812567  1
  O  O66  1  0.51005370  0.37451696  0.78384403  1
  O  O67  1  0.50983036  0.87238414  0.29323783  1
  O  O68  1  0.50406159  0.87508379  0.77886201  1
  O  O69  1  0.49658027  0.12478411  0.71793040  1
  O  O70  1  0.49134376  0.62580197  0.20925067  1
  O  O71  1  0.48633920  0.62445006  0.71501596  1
  O  O72  1  0.99849706  0.12966385  0.21586688  1
  O  O73  1  0.98362772  0.12407392  0.70922960  1
  O  O74  1  0.99216467  0.62512279  0.21194668  1
  O  O75  1  0.99370240  0.62500409  0.71202687  1
  O  O76  1  0.24004051  0.14655575  0.05052309  1
  O  O77  1  0.25334061  0.12066627  0.51112673  1
  O  O78  1  0.24551184  0.62601906  0.03292615  1
  O  O79  1  0.23876509  0.62528575  0.54089598  1
  O  O80  1  0.74114764  0.12392350  0.04006111  1
  O  O81  1  0.73516403  0.12482271  0.54220693  1
  O  O82  1  0.73676882  0.62474004  0.04024441  1
  O  O83  1  0.74462274  0.62501353  0.53978886  1
  O  O84  1  0.26067714  0.37318329  0.46632480  1
  O  O85  1  0.25131261  0.35725736  0.01019843  1
  O  O86  1  0.26382162  0.87910680  0.46088357  1
  O  O87  1  0.26450910  0.88226683  0.97094997  1
  O  O88  1  0.76145833  0.37476380  0.46070035  1
  O  O89  1  0.75085480  0.37399670  0.96673890  1
  O  O90  1  0.75480365  0.87637437  0.45847406  1
  O  O91  1  0.76140355  0.87391913  0.95909942  1
loop_
_geom_bond_atom_site_label_1
_geom_bond_atom_site_label_2
_geom_bond_distance
_geom_bond_site_symmetry_2
Ca0 O73 2.305444 1_455
Ca0 O11 2.326759 1_455
Ca0 O49 2.365349 1_455
Ca0 O77 2.510182 1_555
Ca0 O38 2.544826 1_555
Ca0 O0 2.569354 1_555
Ca0 O56 2.608575 1_545
Ca0 O15 2.724192 1_555
Ca1 O50 2.284866 1_455
Ca1 O12 2.334579 1_455
Ca1 O72 2.353612 1_456
Ca1 O39 2.461493 1_555
Ca1 O76 2.483823 1_556
Ca1 O55 2.561778 1_546
Ca1 O16 2.631444 1_555
Ca2 O75 2.335429 1_455
Ca2 O13 2.349501 1_455
Ca2 O51 2.351859 1_455
Ca2 O79 2.380657 1_555
Ca2 O17 2.588822 1_555
Ca2 O40 2.603226 1_555
Ca2 O54 2.640868 1_555
Ca2 O2 2.668867 1_555
Ca3 O74 2.331727 1_456
Ca3 O14 2.352026 1_455
Ca3 O52 2.360645 1_455
Ca3 O78 2.402979 1_556
Ca3 O53 2.537799 1_556
Ca3 O18 2.610031 1_555
Ca3 O41 2.624747 1_555
Ca3 O1 2.647919 1_556
Ca4 O69 2.312806 1_555
Ca4 O42 2.403164 1_555
Ca4 O81 2.426167 1_555
Ca4 O7 2.446791 1_555
Ca4 O4 2.526822 1_555
Ca4 O19 2.647519 1_555
Ca4 O60 2.688114 1_545
Ca4 O77 2.812499 1_555
Ca4 O23 2.953245 1_555
Ca4 O33 3.081128 1_545
Ca5 O46 2.308944 1_555
Ca5 O8 2.353489 1_555
Ca5 O80 2.408620 1_556
Ca5 O3 2.446181 1_556
Ca5 O20 2.459767 1_555
Ca5 O43 2.476417 1_555
Ca5 O59 2.648347 1_546
Ca5 O69 2.805404 1_555
Ca6 O47 2.334288 1_555
Ca6 O71 2.341394 1_555
Ca6 O9 2.341627 1_555
Ca6 O83 2.414539 1_555
Ca6 O58 2.570449 1_555
Ca6 O21 2.577450 1_555
Ca6 O6 2.578505 1_555
Ca6 O44 2.587977 1_555
Ca7 O70 2.308857 1_556
Ca7 O10 2.344231 1_555
Ca7 O48 2.398032 1_555
Ca7 O82 2.424663 1_556
Ca7 O45 2.558076 1_555
Ca7 O22 2.617576 1_555
Ca7 O57 2.654808 1_556
Ca7 O5 2.738724 1_556
Ca8 O66 2.304982 1_555
Ca8 O57 2.317990 1_556
Ca8 O3 2.422790 1_556
Ca8 O48 2.501084 1_555
Ca8 O85 2.552635 1_556
Ca8 O8 2.624708 1_555
Ca8 O30 2.680330 1_556
Ca8 O89 2.873665 1_555
Ca9 O58 2.298308 1_555
Ca9 O4 2.338282 1_555
Ca9 O84 2.381342 1_555
Ca9 O65 2.388005 1_555
Ca9 O31 2.476689 1_555
Ca9 O23 2.532794 1_555
Ca9 O47 2.599932 1_555
Ca10 O68 2.276341 1_555
Ca10 O5 2.339294 1_556
Ca10 O87 2.380961 1_555
Ca10 O59 2.399534 1_556
Ca10 O10 2.498785 1_555
Ca10 O24 2.644183 1_556
Ca10 O46 2.663831 1_565
Ca11 O6 2.292063 1_555
Ca11 O60 2.345821 1_555
Ca11 O67 2.361638 1_555
Ca11 O86 2.389066 1_555
Ca11 O25 2.503319 1_555
Ca11 O33 2.533324 1_555
Ca11 O9 2.641679 1_555
Ca12 O62 2.339670 1_654
Ca12 O53 2.370278 1_655
Ca12 O89 2.452354 1_554
Ca12 O52 2.506267 1_554
Ca12 O34 2.510935 1_555
Ca12 O26 2.560262 1_555
Ca12 O12 2.632755 1_554
Ca12 O61 2.901015 1_655
Ca12 O85 2.997546 1_655
Ca13 O54 2.327714 1_655
Ca13 O0 2.391670 1_655
Ca13 O88 2.408435 1_555
Ca13 O61 2.461353 1_655
Ca13 O11 2.577896 1_555
Ca13 O51 2.583408 1_555
Ca13 O35 2.607505 1_555
Ca13 O27 2.647038 1_555
Ca14 O64 2.315326 1_654
Ca14 O1 2.332620 1_655
Ca14 O55 2.396913 1_655
Ca14 O91 2.401746 1_554
Ca14 O36 2.546108 1_555
Ca14 O28 2.550980 1_555
Ca14 O50 2.624429 1_564
Ca14 O14 2.695411 1_554
Ca15 O63 2.334707 1_655
Ca15 O2 2.340662 1_655
Ca15 O56 2.390610 1_655
Ca15 O90 2.425344 1_555
Ca15 O37 2.537982 1_555
Ca15 O29 2.547818 1_555
Ca15 O13 2.620120 1_555
Ca15 O49 2.682260 1_565
Ca16 O84 2.303657 1_555
Ca16 O30 2.332980 1_555
Ca16 O61 2.396734 1_555
Ca16 O40 2.489123 1_555
Ca16 O15 2.569336 1_555
Ca16 O53 2.596037 1_555
Ca16 O85 2.626073 1_555
Ca16 O65 2.915128 1_555
Ca17 O31 2.308648 1_555
Ca17 O62 2.414073 1_555
Ca17 O23 2.452867 1_555
Ca17 O54 2.500886 1_555
Ca17 O0 2.560801 1_555
Ca17 O41 2.598327 1_555
Ca17 O16 2.665236 1_555
Ca17 O85 2.945380 1_556
Ca18 O86 2.328540 1_555
Ca18 O24 2.352372 1_555
Ca18 O63 2.434921 1_555
Ca18 O55 2.525663 1_555
Ca18 O32 2.538516 1_565
Ca18 O1 2.573419 1_555
Ca18 O38 2.578579 1_565
Ca18 O17 2.653292 1_555
Ca19 O25 2.341546 1_555
Ca19 O87 2.368146 1_555
Ca19 O64 2.436670 1_555
Ca19 O33 2.479244 1_555
Ca19 O56 2.595090 1_555
Ca19 O18 2.601873 1_555
Ca19 O2 2.627537 1_555
Ca19 O39 2.737154 1_565
Ca19 O68 2.917822 1_555
Ca20 O34 2.276132 1_555
Ca20 O88 2.302956 1_555
Ca20 O26 2.431459 1_555
Ca20 O57 2.522645 1_555
Ca20 O65 2.568874 1_555
Ca20 O44 2.586823 1_555
Ca20 O19 2.690550 1_555
Ca21 O27 2.317163 1_555
Ca21 O35 2.340384 1_555
Ca21 O89 2.349091 1_555
Ca21 O66 2.384375 1_555
Ca21 O58 2.574060 1_555
Ca21 O20 2.621353 1_555
Ca21 O4 2.626121 1_555
Ca21 O45 2.626940 1_555
Ca22 O28 2.258223 1_555
Ca22 O90 2.295436 1_555
Ca22 O36 2.354557 1_555
Ca22 O5 2.506514 1_555
Ca22 O67 2.522549 1_555
Ca22 O21 2.609577 1_555
Ca22 O59 2.718777 1_555
Ca23 O91 2.321028 1_555
Ca23 O37 2.326705 1_555
Ca23 O29 2.352614 1_555
Ca23 O68 2.396315 1_555
Ca23 O60 2.546589 1_555
Ca23 O6 2.556131 1_555
Ca23 O43 2.584582 1_565
Ca23 O22 2.618411 1_555
Ca24 O76 2.269530 1_555
Ca24 O38 2.279653 1_555
Ca24 O15 2.293425 1_555
Ca24 O7 2.351000 1_555
Ca24 O32 2.402800 1_555
Ca24 O77 2.678459 1_555
Ca24 O72 2.689470 1_455
Ca25 O77 2.390708 1_555
Ca25 O39 2.392038 1_555
Ca25 O69 2.424024 1_555
Ca25 O16 2.459365 1_555
Ca25 O33 2.513861 1_545
Ca25 O23 2.562551 1_555
Ca25 O46 2.633583 1_555
Ca25 O8 2.692773 1_555
Ca26 O17 2.350009 1_555
Ca26 O78 2.351781 1_555
Ca26 O40 2.355963 1_555
Ca26 O70 2.408533 1_555
Ca26 O47 2.568610 1_555
Ca26 O9 2.572441 1_555
Ca26 O30 2.577887 1_555
Ca26 O24 2.644731 1_555
Ca27 O79 2.335238 1_555
Ca27 O18 2.350282 1_555
Ca27 O41 2.383395 1_555
Ca27 O71 2.394361 1_555
Ca27 O48 2.623404 1_555
Ca27 O31 2.634165 1_555
Ca27 O10 2.638916 1_555
Ca27 O25 2.685693 1_555
Ca27 O78 2.952293 1_556
Ca27 O75 3.001173 1_455
Ca28 O80 2.334985 1_555
Ca28 O19 2.342664 1_555
Ca28 O49 2.411799 1_555
Ca28 O42 2.461910 1_555
Ca28 O72 2.474411 1_555
Ca28 O36 2.598857 1_545
Ca28 O11 2.631252 1_555
Ca28 O26 2.702739 1_555
Ca29 O81 2.303235 1_555
Ca29 O20 2.325382 1_555
Ca29 O43 2.350571 1_555
Ca29 O73 2.382477 1_555
Ca29 O50 2.568477 1_555
Ca29 O27 2.645074 1_555
Ca29 O12 2.661840 1_555
Ca29 O37 2.663181 1_545
Ca30 O82 2.329028 1_555
Ca30 O44 2.332466 1_555
Ca30 O21 2.333205 1_555
Ca30 O74 2.397612 1_555
Ca30 O51 2.569383 1_555
Ca30 O13 2.570894 1_555
Ca30 O34 2.602863 1_555
Ca30 O28 2.636578 1_555
Ca31 O83 2.311829 1_555
Ca31 O45 2.354526 1_555
Ca31 O22 2.363011 1_555
Ca31 O75 2.417910 1_555
Ca31 O14 2.535696 1_555
Ca31 O52 2.581600 1_555
Ca31 O35 2.636790 1_555
Ca31 O29 2.657798 1_555
Mn0 O38 1.930920 1_555
Mn0 O63 1.946266 1_545
Mn0 O55 1.946760 1_545
Mn0 O36 1.947835 1_445
Mn0 O72 1.970513 1_455
Mn0 O49 1.981351 1_455
Mn1 O56 1.874628 1_655
Mn1 O64 1.918989 1_655
Mn1 O50 1.935356 1_565
Mn1 O73 1.945749 1_565
Mn1 O37 1.966730 1_555
Mn1 O39 2.015690 1_665
Mn2 O53 1.908629 1_555
Mn2 O61 1.930257 1_555
Mn2 O34 1.939961 1_455
Mn2 O74 1.942167 1_455
Mn2 O40 1.947191 1_555
Mn2 O51 1.968102 1_455
Mn3 O41 1.929801 1_555
Mn3 O62 1.937963 1_555
Mn3 O75 1.949495 1_455
Mn3 O54 1.951014 1_555
Mn3 O35 1.954618 1_455
Mn3 O52 1.976413 1_455
Mn4 O65 1.907458 1_555
Mn4 O30 1.909846 1_555
Mn4 O70 1.932511 1_555
Mn4 O47 1.953186 1_555
Mn4 O44 1.953199 1_555
Mn4 O57 1.960890 1_555
Mn5 O71 1.925383 1_555
Mn5 O66 1.925679 1_555
Mn5 O48 1.932950 1_555
Mn5 O45 1.939938 1_555
Mn5 O31 1.940254 1_555
Mn5 O58 1.981198 1_555
Mn6 O46 1.894140 1_554
Mn6 O87 1.920018 1_544
Mn6 O39 1.944830 1_554
Mn6 O55 1.966576 1_545
Mn6 O32 2.149308 1_555
Mn6 O76 2.171507 1_555
Mn7 O47 1.938749 1_555
Mn7 O40 1.940046 1_555
Mn7 O31 1.941435 1_555
Mn7 O79 1.947198 1_555
Mn7 O84 1.951019 1_555
Mn7 O54 1.954922 1_555
Mn8 O59 1.910466 1_556
Mn8 O43 1.912146 1_565
Mn8 O50 1.926354 1_565
Mn8 O91 1.927578 1_555
Mn8 O80 1.953343 1_566
Mn8 O36 1.977409 1_556
Mn9 O60 1.875766 1_545
Mn9 O81 1.923760 1_555
Mn9 O90 1.940216 1_545
Mn9 O37 1.962215 1_545
Mn9 O49 1.971016 1_555
Mn9 O42 2.200596 1_555
Mn10 O82 1.919588 1_555
Mn10 O45 1.934782 1_554
Mn10 O34 1.938148 1_555
Mn10 O57 1.948066 1_555
Mn10 O52 1.952115 1_554
Mn10 O89 1.952990 1_554
Mn11 O88 1.934208 1_555
Mn11 O35 1.942108 1_555
Mn11 O83 1.942998 1_555
Mn11 O58 1.949994 1_555
Mn11 O44 1.953531 1_555
Mn11 O51 1.955877 1_555
Mn12 O78 1.888331 1_555
Mn12 O1 1.925853 1_555
Mn12 O24 1.940321 1_555
Mn12 O18 1.957871 1_554
Mn12 O10 1.959907 1_554
Mn12 O87 2.040640 1_554
Mn13 O25 1.939122 1_555
Mn13 O17 1.944607 1_555
Mn13 O9 1.952750 1_555
Mn13 O2 1.956272 1_555
Mn13 O79 1.963042 1_555
Mn13 O86 1.969982 1_555
Mn14 O12 1.912482 1_554
Mn14 O80 1.917628 1_555
Mn14 O89 1.940278 1_554
Mn14 O20 1.946133 1_554
Mn14 O26 1.964685 1_555
Mn14 O3 2.238313 1_555
Mn15 O11 1.877518 1_555
Mn15 O19 1.908194 1_555
Mn15 O27 1.928314 1_555
Mn15 O81 1.930430 1_555
Mn15 O4 1.940825 1_555
Mn15 O88 1.950718 1_555
Mn16 O82 1.927377 1_556
Mn16 O22 1.939229 1_555
Mn16 O91 1.939718 1_555
Mn16 O28 1.945801 1_556
Mn16 O5 1.954247 1_556
Mn16 O14 1.955421 1_555
Mn17 O83 1.928828 1_555
Mn17 O21 1.943194 1_555
Mn17 O6 1.944526 1_555
Mn17 O13 1.949536 1_555
Mn17 O29 1.952349 1_555
Mn17 O90 1.963176 1_555
Mn18 O16 1.899020 1_655
Mn18 O27 1.910508 1_555
Mn18 O0 1.917732 1_655
Mn18 O73 1.928823 1_555
Mn18 O62 1.941724 1_655
Mn18 O12 2.035605 1_555
Mn19 O74 1.925199 1_455
Mn19 O17 1.930272 1_555
Mn19 O63 1.938683 1_555
Mn19 O28 1.943456 1_455
Mn19 O1 1.950491 1_555
Mn19 O13 1.958722 1_455
Mn20 O18 1.944494 1_555
Mn20 O75 1.944724 1_455
Mn20 O29 1.951265 1_455
Mn20 O64 1.951904 1_555
Mn20 O14 1.960975 1_455
Mn20 O2 1.964093 1_555
Mn21 O69 1.892896 1_555
Mn21 O8 1.898735 1_555
Mn21 O4 1.932483 1_555
Mn21 O23 1.937856 1_555
Mn21 O66 1.948951 1_555
Mn21 O20 1.995687 1_555
Mn22 O67 1.912930 1_555
Mn22 O70 1.922205 1_555
Mn22 O21 1.939672 1_555
Mn22 O24 1.947312 1_555
Mn22 O9 1.949647 1_555
Mn22 O5 1.975766 1_555
Mn23 O68 1.919231 1_555
Mn23 O71 1.932147 1_555
Mn23 O25 1.940855 1_555
Mn23 O22 1.941533 1_555
Mn23 O10 1.943664 1_555
Mn23 O6 1.964657 1_555
Al0 O59 1.760249 1_555
Al0 O67 1.766903 1_555
Al0 O32 1.782502 1_565
Al0 O42 1.791331 1_565
Al1 O33 1.906126 1_555
Al1 O69 1.912137 1_565
Al1 O68 1.913572 1_555
Al1 O60 1.924900 1_555
Al1 O43 1.971255 1_565
Al1 O46 1.995012 1_565
Al2 O56 1.795592 1_555
Al2 O33 1.859218 1_555
Al2 O86 1.882215 1_555
Al2 O77 1.897347 1_565
Al2 O38 1.918205 1_565
Al3 O53 1.904305 1_555
Al3 O30 1.905068 1_555
Al3 O48 1.923390 1_554
Al3 O41 1.925037 1_554
Al3 O78 1.988923 1_555
Al3 O85 2.094723 1_555
Al4 O16 1.758829 1_555
Al4 O8 1.761596 1_555
Al4 O85 1.762472 1_556
Al4 O76 1.773753 1_556
Al5 O15 1.900587 1_555
Al5 O77 1.921621 1_555
Al5 O84 1.925545 1_555
Al5 O23 1.956751 1_555
Al5 O0 1.966258 1_555
Al5 O7 2.236898 1_555
Al6 O11 1.790730 1_555
Al6 O15 1.853985 1_655
Al6 O61 1.877172 1_655
Al6 O72 1.906550 1_555
Al6 O26 1.906851 1_555
Al7 O7 1.755109 1_555
Al7 O65 1.769660 1_555
Al7 O19 1.770590 1_555
Al7 O3 1.788995 1_555
