# generated using pymatgen
data_CoAgO2
_symmetry_space_group_name_H-M   'P 1'
_cell_length_a   3.04374879
_cell_length_b   3.04374879
_cell_length_c   24.94070600
_cell_angle_alpha   90.00000000
_cell_angle_beta   90.00000000
_cell_angle_gamma   120.00001712
_symmetry_Int_Tables_number   1
_chemical_formula_structural   CoAgO2
_chemical_formula_sum   'Co4 Ag4 O8'
_cell_volume   200.10452560
_cell_formula_units_Z   4
loop_
 _symmetry_equiv_pos_site_id
 _symmetry_equiv_pos_as_xyz
  1  'x, y, z'
loop_
 _atom_site_type_symbol
 _atom_site_label
 _atom_site_symmetry_multiplicity
 _atom_site_fract_x
 _atom_site_fract_y
 _atom_site_fract_z
 _atom_site_occupancy
  Co  Co0  1  0.66666700  0.33333300  0.87500100  1
  Co  Co1  1  0.33333300  0.66666700  0.12499900  1
  Co  Co2  1  0.33333300  0.66666700  0.37500100  1
  Co  Co3  1  0.66666700  0.33333300  0.62499900  1
  Ag  Ag0  1  0.00000000  0.00000000  0.00000000  1
  Ag  Ag1  1  0.00000000  0.00000000  0.50000000  1
  Ag  Ag2  1  0.33333300  0.66666700  0.75000000  1
  Ag  Ag3  1  0.66666700  0.33333300  0.25000000  1
  O  O0  1  0.00000000  0.00000000  0.91562300  1
  O  O1  1  0.00000000  0.00000000  0.08437700  1
  O  O2  1  0.00000000  0.00000000  0.41562300  1
  O  O3  1  0.00000000  0.00000000  0.58437700  1
  O  O4  1  0.33333300  0.66666700  0.83438600  1
  O  O5  1  0.66666700  0.33333300  0.16561400  1
  O  O6  1  0.66666700  0.33333300  0.33438600  1
  O  O7  1  0.33333300  0.66666700  0.66561400  1
loop_
_geom_bond_atom_site_label_1
_geom_bond_atom_site_label_2
_geom_bond_distance
_geom_bond_site_symmetry_2
Co0 O4 2.028356 1_545
Co0 O4 2.028356 1_655
Co0 O4 2.028361 1_555
Co0 O0 2.028444 1_655
Co0 O0 2.028446 1_665
Co0 O0 2.028446 1_555
Co1 O5 2.028356 1_455
Co1 O5 2.028356 1_565
Co1 O5 2.028361 1_555
Co1 O1 2.028444 1_565
Co1 O1 2.028446 1_665
Co1 O1 2.028446 1_555
Co2 O6 2.028356 1_455
Co2 O6 2.028356 1_565
Co2 O6 2.028361 1_555
Co2 O2 2.028444 1_565
Co2 O2 2.028446 1_665
Co2 O2 2.028446 1_555
Co3 O7 2.028356 1_545
Co3 O7 2.028356 1_655
Co3 O7 2.028361 1_555
Co3 O3 2.028444 1_655
Co3 O3 2.028446 1_555
Co3 O3 2.028446 1_665
Ag0 O1 2.104422 1_555
Ag0 O0 2.104422 1_554
Ag1 O2 2.104422 1_555
Ag1 O3 2.104422 1_555
Ag2 O4 2.104646 1_555
Ag2 O7 2.104646 1_555
Ag3 O5 2.104646 1_555
Ag3 O6 2.104646 1_555
