# generated using pymatgen
data_AlZn10(B4Rh9)2
_symmetry_space_group_name_H-M   'P 1'
_cell_length_a   17.87504400
_cell_length_b   17.87504400
_cell_length_c   2.88495700
_cell_angle_alpha   90.00000000
_cell_angle_beta   90.00000000
_cell_angle_gamma   90.00000000
_symmetry_Int_Tables_number   1
_chemical_formula_structural   AlZn10(B4Rh9)2
_chemical_formula_sum   'Al2 Zn20 B16 Rh36'
_cell_volume   921.79337700
_cell_formula_units_Z   2
loop_
 _symmetry_equiv_pos_site_id
 _symmetry_equiv_pos_as_xyz
  1  'x, y, z'
loop_
 _atom_site_type_symbol
 _atom_site_label
 _atom_site_symmetry_multiplicity
 _atom_site_fract_x
 _atom_site_fract_y
 _atom_site_fract_z
 _atom_site_occupancy
  Al  Al0  1  0.00000000  0.00000000  0.00000000  1
  Al  Al1  1  0.50000000  0.50000000  0.00000000  1
  Zn  Zn0  1  0.55024900  0.05024900  0.00000000  1
  Zn  Zn1  1  0.44975100  0.94975100  0.00000000  1
  Zn  Zn2  1  0.05024900  0.44975100  0.00000000  1
  Zn  Zn3  1  0.94975100  0.55024900  0.00000000  1
  Zn  Zn4  1  0.03194800  0.18823600  0.00000000  1
  Zn  Zn5  1  0.96805200  0.81176400  0.00000000  1
  Zn  Zn6  1  0.18823600  0.96805200  0.00000000  1
  Zn  Zn7  1  0.53194800  0.31176400  0.00000000  1
  Zn  Zn8  1  0.81176400  0.03194800  0.00000000  1
  Zn  Zn9  1  0.46805200  0.68823600  0.00000000  1
  Zn  Zn10  1  0.68823600  0.53194800  0.00000000  1
  Zn  Zn11  1  0.31176400  0.46805200  0.00000000  1
  Zn  Zn12  1  0.20915500  0.70915500  0.00000000  1
  Zn  Zn13  1  0.79084500  0.29084500  0.00000000  1
  Zn  Zn14  1  0.70915500  0.79084500  0.00000000  1
  Zn  Zn15  1  0.29084500  0.20915500  0.00000000  1
  Zn  Zn16  1  0.66887500  0.16887500  0.00000000  1
  Zn  Zn17  1  0.33112500  0.83112500  0.00000000  1
  Zn  Zn18  1  0.16887500  0.33112500  0.00000000  1
  Zn  Zn19  1  0.83112500  0.66887500  0.00000000  1
  B  B0  1  0.33414800  0.03886900  0.00000000  1
  B  B1  1  0.66585200  0.96113100  0.00000000  1
  B  B2  1  0.03886900  0.66585200  0.00000000  1
  B  B3  1  0.83414800  0.46113100  0.00000000  1
  B  B4  1  0.96113100  0.33414800  0.00000000  1
  B  B5  1  0.16585200  0.53886900  0.00000000  1
  B  B6  1  0.53886900  0.83414800  0.00000000  1
  B  B7  1  0.46113100  0.16585200  0.00000000  1
  B  B8  1  0.16643000  0.12420000  0.00000000  1
  B  B9  1  0.83357000  0.87580000  0.00000000  1
  B  B10  1  0.12420000  0.83357000  0.00000000  1
  B  B11  1  0.66643000  0.37580000  0.00000000  1
  B  B12  1  0.87580000  0.16643000  0.00000000  1
  B  B13  1  0.33357000  0.62420000  0.00000000  1
  B  B14  1  0.62420000  0.66643000  0.00000000  1
  B  B15  1  0.37580000  0.33357000  0.00000000  1
  Rh  Rh0  1  0.25491600  0.08740500  0.50000000  1
  Rh  Rh1  1  0.74508400  0.91259500  0.50000000  1
  Rh  Rh2  1  0.08740500  0.74508400  0.50000000  1
  Rh  Rh3  1  0.75491600  0.41259500  0.50000000  1
  Rh  Rh4  1  0.91259500  0.25491600  0.50000000  1
  Rh  Rh5  1  0.24508400  0.58740500  0.50000000  1
  Rh  Rh6  1  0.58740500  0.75491600  0.50000000  1
  Rh  Rh7  1  0.41259500  0.24508400  0.50000000  1
  Rh  Rh8  1  0.04777000  0.32559600  0.50000000  1
  Rh  Rh9  1  0.95223000  0.67440400  0.50000000  1
  Rh  Rh10  1  0.32559600  0.95223000  0.50000000  1
  Rh  Rh11  1  0.54777000  0.17440400  0.50000000  1
  Rh  Rh12  1  0.67440400  0.04777000  0.50000000  1
  Rh  Rh13  1  0.45223000  0.82559600  0.50000000  1
  Rh  Rh14  1  0.82559600  0.54777000  0.50000000  1
  Rh  Rh15  1  0.17440400  0.45223000  0.50000000  1
  Rh  Rh16  1  0.16016000  0.21074100  0.50000000  1
  Rh  Rh17  1  0.83984000  0.78925900  0.50000000  1
  Rh  Rh18  1  0.21074100  0.83984000  0.50000000  1
  Rh  Rh19  1  0.66016000  0.28925900  0.50000000  1
  Rh  Rh20  1  0.78925900  0.16016000  0.50000000  1
  Rh  Rh21  1  0.33984000  0.71074100  0.50000000  1
  Rh  Rh22  1  0.71074100  0.66016000  0.50000000  1
  Rh  Rh23  1  0.28925900  0.33984000  0.50000000  1
  Rh  Rh24  1  0.09776300  0.06686800  0.50000000  1
  Rh  Rh25  1  0.90223700  0.93313200  0.50000000  1
  Rh  Rh26  1  0.06686800  0.90223700  0.50000000  1
  Rh  Rh27  1  0.59776300  0.43313200  0.50000000  1
  Rh  Rh28  1  0.93313200  0.09776300  0.50000000  1
  Rh  Rh29  1  0.40223700  0.56686800  0.50000000  1
  Rh  Rh30  1  0.56686800  0.59776300  0.50000000  1
  Rh  Rh31  1  0.43313200  0.40223700  0.50000000  1
  Rh  Rh32  1  0.08238400  0.58238400  0.50000000  1
  Rh  Rh33  1  0.91761600  0.41761600  0.50000000  1
  Rh  Rh34  1  0.58238400  0.91761600  0.50000000  1
  Rh  Rh35  1  0.41761600  0.08238400  0.50000000  1
loop_
_geom_bond_atom_site_label_1
_geom_bond_atom_site_label_2
_geom_bond_distance
_geom_bond_site_symmetry_2
Al0 Rh24 2.561880 1_554
Al0 Rh24 2.561880 1_555
Al0 Rh25 2.561880 1_444
Al0 Rh28 2.561880 1_454
Al0 Rh25 2.561880 1_445
Al0 Rh26 2.561880 1_544
Al0 Rh26 2.561880 1_545
Al0 Rh28 2.561880 1_455
Al1 Rh31 2.561880 1_554
Al1 Rh31 2.561880 1_555
Al1 Rh29 2.561880 1_555
Al1 Rh29 2.561880 1_554
Al1 Rh27 2.561880 1_555
Al1 Rh27 2.561880 1_554
Al1 Rh30 2.561880 1_555
Al1 Rh30 2.561880 1_554
Zn0 Zn1 2.540502 1_545
Zn2 Zn3 2.540502 1_455
B0 Rh10 2.121912 1_544
B0 Rh10 2.121912 1_545
B0 Rh0 2.199837 1_554
B0 Rh0 2.199837 1_555
B0 Rh35 2.216261 1_555
B0 Rh35 2.216261 1_554
B0 Zn1 2.609149 1_545
B1 Rh12 2.121912 1_565
B1 Rh12 2.121912 1_564
B1 Rh1 2.199837 1_555
B1 Rh1 2.199837 1_554
B1 Rh34 2.216261 1_555
B1 Rh34 2.216261 1_554
B1 Zn0 2.609149 1_565
B2 Rh9 2.121912 1_454
B2 Rh9 2.121912 1_455
B2 Rh2 2.199837 1_554
B2 Rh2 2.199837 1_555
B2 Rh32 2.216261 1_555
B2 Rh32 2.216261 1_554
B2 Zn3 2.609149 1_455
B3 Rh14 2.121912 1_555
B3 Rh14 2.121912 1_554
B3 Rh3 2.199837 1_554
B3 Rh3 2.199837 1_555
B3 Rh33 2.216261 1_555
B3 Rh33 2.216261 1_554
B3 Zn3 2.609149 1_555
B4 Rh8 2.121912 1_655
B4 Rh8 2.121912 1_654
B4 Rh4 2.199837 1_554
B4 Rh4 2.199837 1_555
B4 Rh33 2.216261 1_554
B4 Rh33 2.216261 1_555
B4 Zn2 2.609149 1_655
B5 Rh15 2.121912 1_554
B5 Rh15 2.121912 1_555
B5 Rh5 2.199837 1_555
B5 Rh5 2.199837 1_554
B5 Rh32 2.216261 1_555
B5 Rh32 2.216261 1_554
B5 Zn2 2.609149 1_555
B6 Rh13 2.121912 1_555
B6 Rh13 2.121912 1_554
B6 Rh6 2.199837 1_555
B6 Rh6 2.199837 1_554
B6 Rh34 2.216261 1_555
B6 Rh34 2.216261 1_554
B6 Zn1 2.609149 1_555
B7 Rh11 2.121912 1_554
B7 Rh11 2.121912 1_555
B7 Rh7 2.199837 1_554
B7 Rh7 2.199837 1_555
B7 Rh35 2.216261 1_554
B7 Rh35 2.216261 1_555
B7 Zn0 2.609149 1_555
B8 Rh16 2.118084 1_555
B8 Rh16 2.118084 1_554
B8 Rh24 2.153499 1_555
B8 Rh24 2.153499 1_554
B8 Rh0 2.239437 1_554
B8 Rh0 2.239437 1_555
B8 Zn4 2.662483 1_555
B9 Rh17 2.118084 1_554
B9 Rh17 2.118084 1_555
B9 Rh25 2.153499 1_554
B9 Rh25 2.153499 1_555
B9 Rh1 2.239437 1_555
B9 Rh1 2.239437 1_554
B9 Zn5 2.662483 1_555
B10 Rh18 2.118084 1_554
B10 Rh18 2.118084 1_555
B10 Rh26 2.153499 1_554
B10 Rh26 2.153499 1_555
B10 Rh2 2.239437 1_555
B10 Rh2 2.239437 1_554
B10 Zn6 2.662483 1_555
B11 Rh19 2.118084 1_555
B11 Rh19 2.118084 1_554
B11 Rh27 2.153499 1_555
B11 Rh27 2.153499 1_554
B11 Rh3 2.239437 1_554
B11 Rh3 2.239437 1_555
B11 Zn7 2.662483 1_555
B12 Rh20 2.118084 1_555
B12 Rh20 2.118084 1_554
B12 Rh28 2.153499 1_555
B12 Rh28 2.153499 1_554
B12 Rh4 2.239437 1_555
B12 Rh4 2.239437 1_554
B12 Zn8 2.662483 1_555
B13 Rh21 2.118084 1_554
B13 Rh21 2.118084 1_555
B13 Rh29 2.153499 1_554
B13 Rh29 2.153499 1_555
B13 Rh5 2.239437 1_555
B13 Rh5 2.239437 1_554
B13 Zn9 2.662483 1_555
B14 Rh22 2.118084 1_554
B14 Rh22 2.118084 1_555
B14 Rh30 2.153499 1_555
B14 Rh30 2.153499 1_554
B14 Rh6 2.239437 1_555
B14 Rh6 2.239437 1_554
B14 Zn10 2.662483 1_555
B15 Rh23 2.118084 1_554
B15 Rh23 2.118084 1_555
B15 Rh31 2.153499 1_555
B15 Rh31 2.153499 1_554
B15 Rh7 2.239437 1_554
B15 Rh7 2.239437 1_555
B15 Zn11 2.662483 1_555
Rh0 Zn15 2.688760 1_556
Rh0 Zn15 2.688760 1_555
Rh0 Zn6 2.837773 1_545
Rh0 Zn6 2.837773 1_546
Rh1 Zn14 2.688760 1_555
Rh1 Zn14 2.688760 1_556
Rh1 Zn8 2.837773 1_565
Rh1 Zn8 2.837773 1_566
Rh2 Zn12 2.688760 1_556
Rh2 Zn12 2.688760 1_555
Rh2 Zn5 2.837773 1_455
Rh2 Zn5 2.837773 1_456
Rh3 Zn13 2.688760 1_555
Rh3 Zn13 2.688760 1_556
Rh3 Zn10 2.837773 1_555
Rh3 Zn10 2.837773 1_556
Rh4 Zn13 2.688760 1_556
Rh4 Zn13 2.688760 1_555
Rh4 Zn4 2.837773 1_656
Rh4 Zn4 2.837773 1_655
Rh5 Zn12 2.688760 1_556
Rh5 Zn12 2.688760 1_555
Rh5 Zn11 2.837773 1_555
Rh5 Zn11 2.837773 1_556
Rh6 Zn14 2.688760 1_555
Rh6 Zn14 2.688760 1_556
Rh6 Zn9 2.837773 1_556
Rh6 Zn9 2.837773 1_555
Rh7 Zn15 2.688760 1_556
Rh7 Zn15 2.688760 1_555
Rh7 Zn7 2.837773 1_556
Rh7 Zn7 2.837773 1_555
Rh8 Zn18 2.603207 1_555
Rh8 Zn18 2.603207 1_556
Rh8 Zn2 2.647243 1_555
Rh8 Zn2 2.647243 1_556
Rh8 Zn4 2.861697 1_555
Rh8 Zn4 2.861697 1_556
Rh9 Zn19 2.603207 1_556
Rh9 Zn19 2.603207 1_555
Rh9 Zn3 2.647243 1_555
Rh9 Zn3 2.647243 1_556
Rh9 Zn5 2.861697 1_555
Rh9 Zn5 2.861697 1_556
Rh10 Zn17 2.603207 1_555
Rh10 Zn17 2.603207 1_556
Rh10 Zn1 2.647243 1_555
Rh10 Zn1 2.647243 1_556
Rh10 Zn6 2.861697 1_556
Rh10 Zn6 2.861697 1_555
Rh11 Zn16 2.603207 1_556
Rh11 Zn16 2.603207 1_555
Rh11 Zn0 2.647243 1_555
Rh11 Zn0 2.647243 1_556
Rh11 Zn7 2.861697 1_556
Rh11 Zn7 2.861697 1_555
Rh12 Zn16 2.603207 1_556
Rh12 Zn16 2.603207 1_555
Rh12 Zn0 2.647243 1_555
Rh12 Zn0 2.647243 1_556
Rh12 Zn8 2.861697 1_556
Rh12 Zn8 2.861697 1_555
Rh13 Zn17 2.603207 1_555
Rh13 Zn17 2.603207 1_556
Rh13 Zn1 2.647243 1_555
Rh13 Zn1 2.647243 1_556
Rh13 Zn9 2.861697 1_556
Rh13 Zn9 2.861697 1_555
Rh14 Zn19 2.603207 1_556
Rh14 Zn19 2.603207 1_555
Rh14 Zn3 2.647243 1_555
Rh14 Zn3 2.647243 1_556
Rh14 Zn10 2.861697 1_556
Rh14 Zn10 2.861697 1_555
Rh15 Zn18 2.603207 1_555
Rh15 Zn18 2.603207 1_556
Rh15 Zn2 2.647243 1_555
Rh15 Zn2 2.647243 1_556
Rh15 Zn11 2.861697 1_555
Rh15 Zn11 2.861697 1_556
Rh16 Zn18 2.595294 1_555
Rh16 Zn18 2.595294 1_556
Rh16 Zn4 2.737681 1_555
Rh16 Zn4 2.737681 1_556
Rh16 Zn15 2.745623 1_556
Rh16 Zn15 2.745623 1_555
Rh17 Zn19 2.595294 1_555
Rh17 Zn19 2.595294 1_556
Rh17 Zn5 2.737681 1_556
Rh17 Zn5 2.737681 1_555
Rh17 Zn14 2.745623 1_555
Rh17 Zn14 2.745623 1_556
Rh18 Zn17 2.595294 1_555
Rh18 Zn17 2.595294 1_556
Rh18 Zn6 2.737681 1_555
Rh18 Zn6 2.737681 1_556
Rh18 Zn12 2.745623 1_556
Rh18 Zn12 2.745623 1_555
Rh19 Zn16 2.595294 1_556
Rh19 Zn16 2.595294 1_555
Rh19 Zn7 2.737681 1_555
Rh19 Zn7 2.737681 1_556
Rh19 Zn13 2.745623 1_555
Rh19 Zn13 2.745623 1_556
Rh20 Zn16 2.595294 1_555
Rh20 Zn16 2.595294 1_556
Rh20 Zn8 2.737681 1_555
Rh20 Zn8 2.737681 1_556
Rh20 Zn13 2.745623 1_555
Rh20 Zn13 2.745623 1_556
Rh21 Zn17 2.595294 1_556
Rh21 Zn17 2.595294 1_555
Rh21 Zn9 2.737681 1_556
Rh21 Zn9 2.737681 1_555
Rh21 Zn12 2.745623 1_555
Rh21 Zn12 2.745623 1_556
Rh22 Zn19 2.595294 1_555
Rh22 Zn19 2.595294 1_556
Rh22 Zn10 2.737681 1_556
Rh22 Zn10 2.737681 1_555
Rh22 Zn14 2.745623 1_555
Rh22 Zn14 2.745623 1_556
Rh23 Zn18 2.595294 1_555
Rh23 Zn18 2.595294 1_556
Rh23 Zn11 2.737681 1_556
Rh23 Zn11 2.737681 1_555
Rh23 Zn15 2.745623 1_556
Rh23 Zn15 2.745623 1_555
Rh24 Zn6 2.795723 1_546
Rh24 Zn6 2.795723 1_545
Rh24 Zn4 2.858552 1_556
Rh24 Zn4 2.858552 1_555
Rh25 Zn8 2.795723 1_566
Rh25 Zn8 2.795723 1_565
Rh25 Zn5 2.858552 1_556
Rh25 Zn5 2.858552 1_555
Rh26 Zn5 2.795723 1_455
Rh26 Zn5 2.795723 1_456
Rh26 Zn6 2.858552 1_555
Rh26 Zn6 2.858552 1_556
Rh27 Zn10 2.795723 1_556
Rh27 Zn10 2.795723 1_555
Rh27 Zn7 2.858552 1_555
Rh27 Zn7 2.858552 1_556
Rh28 Zn4 2.795723 1_656
Rh28 Zn4 2.795723 1_655
Rh28 Zn8 2.858552 1_556
Rh28 Zn8 2.858552 1_555
Rh29 Zn11 2.795723 1_556
Rh29 Zn11 2.795723 1_555
Rh29 Zn9 2.858552 1_556
Rh29 Zn9 2.858552 1_555
Rh30 Zn9 2.795723 1_556
Rh30 Zn9 2.795723 1_555
Rh30 Zn10 2.858552 1_556
Rh30 Zn10 2.858552 1_555
Rh31 Zn7 2.795723 1_555
Rh31 Zn7 2.795723 1_556
Rh31 Zn11 2.858552 1_555
Rh31 Zn11 2.858552 1_556
Rh32 Zn2 2.833988 1_555
Rh32 Zn2 2.833988 1_556
Rh32 Zn3 2.833988 1_456
Rh32 Zn3 2.833988 1_455
Rh33 Zn2 2.833988 1_656
Rh33 Zn3 2.833988 1_556
Rh33 Zn3 2.833988 1_555
Rh33 Zn2 2.833988 1_655
Rh34 Zn0 2.833988 1_566
Rh34 Zn1 2.833988 1_555
Rh34 Zn1 2.833988 1_556
Rh34 Zn0 2.833988 1_565
Rh35 Zn0 2.833988 1_555
Rh35 Zn0 2.833988 1_556
Rh35 Zn1 2.833988 1_545
Rh35 Zn1 2.833988 1_546
