# generated using pymatgen
data_Zr(GaFe)6
_symmetry_space_group_name_H-M   'P 1'
_cell_length_a   6.51511834
_cell_length_b   6.51511834
_cell_length_c   6.51511834
_cell_angle_alpha   134.96582230
_cell_angle_beta   99.43781515
_cell_angle_gamma   97.43134418
_symmetry_Int_Tables_number   1
_chemical_formula_structural   Zr(GaFe)6
_chemical_formula_sum   'Zr1 Ga6 Fe6'
_cell_volume   180.71035452
_cell_formula_units_Z   1
loop_
 _symmetry_equiv_pos_site_id
 _symmetry_equiv_pos_as_xyz
  1  'x, y, z'
loop_
 _atom_site_type_symbol
 _atom_site_label
 _atom_site_symmetry_multiplicity
 _atom_site_fract_x
 _atom_site_fract_y
 _atom_site_fract_z
 _atom_site_occupancy
  Zr  Zr0  1  0.00000000  0.00000000  0.00000000  1
  Ga  Ga0  1  0.33171400  0.00000000  0.33171400  1
  Ga  Ga1  1  0.66828600  0.00000000  0.66828600  1
  Ga  Ga2  1  0.65923600  0.65923600  0.00000000  1
  Ga  Ga3  1  0.34076400  0.34076400  0.00000000  1
  Ga  Ga4  1  0.17368600  0.67368600  0.50000000  1
  Ga  Ga5  1  0.82631400  0.32631400  0.50000000  1
  Fe  Fe0  1  0.75492900  0.50000000  0.25492900  1
  Fe  Fe1  1  0.24507100  0.50000000  0.74507100  1
  Fe  Fe2  1  0.00000000  0.00000000  0.50000000  1
  Fe  Fe3  1  0.00000000  0.50000000  0.00000000  1
  Fe  Fe4  1  0.50000000  0.00000000  0.00000000  1
  Fe  Fe5  1  0.50000000  0.50000000  0.50000000  1
loop_
_geom_bond_atom_site_label_1
_geom_bond_atom_site_label_2
_geom_bond_distance
_geom_bond_site_symmetry_2
Ga0 Zr0 2.794539 1_555
Ga0 Ga1 2.835466 1_555
Ga1 Zr0 2.794539 1_656
Ga2 Ga3 2.737999 1_555
Ga2 Ga5 2.878965 1_565
Ga2 Ga5 2.878965 1_554
Ga2 Zr0 2.929650 1_665
Ga3 Ga4 2.878965 1_544
Ga3 Ga4 2.878965 1_555
Ga3 Zr0 2.929650 1_555
Ga4 Zr0 2.907727 1_566
Ga4 Zr0 2.907727 1_555
Ga5 Zr0 2.907727 1_655
Ga5 Zr0 2.907727 1_666
Fe0 Fe3 2.485479 1_655
Fe0 Fe2 2.485479 1_665
Fe0 Fe4 2.485479 1_555
Fe0 Fe5 2.485479 1_555
Fe0 Ga2 2.546882 1_555
Fe0 Ga3 2.546882 1_555
Fe0 Ga4 2.548011 1_655
Fe0 Ga5 2.548011 1_555
Fe0 Ga1 2.599603 1_554
Fe0 Ga1 2.599603 1_565
Fe0 Zr0 3.238481 1_655
Fe0 Zr0 3.238481 1_666
Fe1 Fe5 2.485479 1_555
Fe1 Fe4 2.485479 1_566
Fe1 Fe2 2.485479 1_555
Fe1 Fe3 2.485479 1_556
Fe1 Ga2 2.546882 1_556
Fe1 Ga3 2.546882 1_556
Fe1 Ga5 2.548011 1_455
Fe1 Ga4 2.548011 1_555
Fe1 Ga0 2.599603 1_555
Fe1 Ga0 2.599603 1_566
Fe1 Zr0 3.238481 1_555
Fe1 Zr0 3.238481 1_566
Fe2 Fe3 2.495023 1_556
Fe2 Fe3 2.495023 1_545
Fe2 Ga4 2.534276 1_545
Fe2 Ga5 2.534276 1_455
Fe2 Ga3 2.569241 1_556
Fe2 Ga2 2.569241 1_445
Fe2 Ga0 2.578717 1_555
Fe2 Ga1 2.578717 1_455
Fe2 Zr0 3.257559 1_555
Fe2 Zr0 3.257559 1_556
Fe3 Ga4 2.534276 1_555
Fe3 Ga5 2.534276 1_454
Fe3 Ga3 2.569241 1_555
Fe3 Ga2 2.569241 1_455
Fe3 Ga0 2.578717 1_565
Fe3 Ga1 2.578717 1_454
Fe3 Zr0 3.257559 1_555
Fe3 Zr0 3.257559 1_565
Fe4 Fe5 2.495023 1_555
Fe4 Fe5 2.495023 1_544
Fe4 Ga5 2.534276 1_555
Fe4 Ga4 2.534276 1_544
Fe4 Ga3 2.569241 1_555
Fe4 Ga2 2.569241 1_545
Fe4 Ga0 2.578717 1_555
Fe4 Ga1 2.578717 1_554
Fe4 Zr0 3.257559 1_555
Fe4 Zr0 3.257559 1_655
Fe5 Ga5 2.534276 1_555
Fe5 Ga4 2.534276 1_555
Fe5 Ga3 2.569241 1_555
Fe5 Ga2 2.569241 1_556
Fe5 Ga0 2.578717 1_555
Fe5 Ga1 2.578717 1_565
Fe5 Zr0 3.257559 1_666
Fe5 Zr0 3.257559 1_555
