# generated using pymatgen
data_Cr4InAgS8
_symmetry_space_group_name_H-M   'P 1'
_cell_length_a   7.27502993
_cell_length_b   7.27502993
_cell_length_c   7.27503064
_cell_angle_alpha   59.99999678
_cell_angle_beta   60.00000322
_cell_angle_gamma   60.00000000
_symmetry_Int_Tables_number   1
_chemical_formula_structural   Cr4InAgS8
_chemical_formula_sum   'Cr4 In1 Ag1 S8'
_cell_volume   272.26348443
_cell_formula_units_Z   1
loop_
 _symmetry_equiv_pos_site_id
 _symmetry_equiv_pos_as_xyz
  1  'x, y, z'
loop_
 _atom_site_type_symbol
 _atom_site_label
 _atom_site_symmetry_multiplicity
 _atom_site_fract_x
 _atom_site_fract_y
 _atom_site_fract_z
 _atom_site_occupancy
  Cr  Cr0  1  0.62109200  0.62109200  0.13672400  1
  Cr  Cr1  1  0.62109200  0.13672400  0.62109200  1
  Cr  Cr2  1  0.13672400  0.62109200  0.62109200  1
  Cr  Cr3  1  0.62109200  0.62109200  0.62109200  1
  In  In0  1  0.00000000  0.00000000  0.00000000  1
  Ag  Ag0  1  0.25000000  0.25000000  0.25000000  1
  S  S0  1  0.85980600  0.85980600  0.42058300  1
  S  S1  1  0.85980600  0.42058300  0.85980600  1
  S  S2  1  0.42058300  0.85980600  0.85980600  1
  S  S3  1  0.85980600  0.85980600  0.85980600  1
  S  S4  1  0.39036100  0.39036100  0.82891700  1
  S  S5  1  0.39036100  0.82891700  0.39036100  1
  S  S6  1  0.82891700  0.39036100  0.39036100  1
  S  S7  1  0.39036100  0.39036100  0.39036100  1
loop_
_geom_bond_atom_site_label_1
_geom_bond_atom_site_label_2
_geom_bond_distance
_geom_bond_site_symmetry_2
Cr0 S7 2.379705 1_555
Cr0 S6 2.379705 1_555
Cr0 S5 2.379706 1_555
Cr0 S2 2.471668 1_554
Cr0 S1 2.471668 1_554
Cr0 S3 2.471672 1_554
Cr1 S7 2.379705 1_555
Cr1 S6 2.379705 1_555
Cr1 S4 2.379705 1_555
Cr1 S2 2.471668 1_545
Cr1 S0 2.471668 1_545
Cr1 S3 2.471672 1_545
Cr2 S4 2.379705 1_555
Cr2 S5 2.379705 1_555
Cr2 S7 2.379705 1_555
Cr2 S0 2.471668 1_455
Cr2 S1 2.471668 1_455
Cr2 S3 2.471673 1_455
Cr3 S4 2.379705 1_555
Cr3 S5 2.379705 1_555
Cr3 S6 2.379705 1_555
Cr3 S0 2.471673 1_555
Cr3 S1 2.471673 1_555
Cr3 S2 2.471674 1_555
In0 S3 2.498273 1_444
In0 S1 2.498279 1_454
In0 S2 2.498279 1_544
In0 S0 2.498279 1_445
Ag0 S5 2.501249 1_545
Ag0 S6 2.501249 1_455
Ag0 S7 2.501249 1_555
Ag0 S4 2.501249 1_554
