# generated using pymatgen
data_KEuPO4
_symmetry_space_group_name_H-M   'P 1'
_cell_length_a   5.62252900
_cell_length_b   7.42693300
_cell_length_c   9.77675600
_cell_angle_alpha   90.00000000
_cell_angle_beta   90.00000000
_cell_angle_gamma   90.00000000
_symmetry_Int_Tables_number   1
_chemical_formula_structural   KEuPO4
_chemical_formula_sum   'K4 Eu4 P4 O16'
_cell_volume   408.25920615
_cell_formula_units_Z   4
loop_
 _symmetry_equiv_pos_site_id
 _symmetry_equiv_pos_as_xyz
  1  'x, y, z'
loop_
 _atom_site_type_symbol
 _atom_site_label
 _atom_site_symmetry_multiplicity
 _atom_site_fract_x
 _atom_site_fract_y
 _atom_site_fract_z
 _atom_site_occupancy
  K  K0  1  0.25000000  0.15754800  0.41839900  1
  K  K1  1  0.25000000  0.65754800  0.08160100  1
  K  K2  1  0.75000000  0.84245200  0.58160100  1
  K  K3  1  0.75000000  0.34245200  0.91839900  1
  Eu  Eu0  1  0.25000000  0.00286800  0.80510100  1
  Eu  Eu1  1  0.75000000  0.99713200  0.19489900  1
  Eu  Eu2  1  0.25000000  0.50286800  0.69489900  1
  Eu  Eu3  1  0.75000000  0.49713200  0.30510100  1
  P  P0  1  0.25000000  0.72490100  0.41510900  1
  P  P1  1  0.75000000  0.27509900  0.58489100  1
  P  P2  1  0.75000000  0.77509900  0.91510900  1
  P  P3  1  0.25000000  0.22490100  0.08489100  1
  O  O0  1  0.25000000  0.30809700  0.93763000  1
  O  O1  1  0.75000000  0.69190300  0.06237000  1
  O  O2  1  0.25000000  0.80809700  0.56237000  1
  O  O3  1  0.75000000  0.19190300  0.43763000  1
  O  O4  1  0.25000000  0.01630600  0.07289700  1
  O  O5  1  0.75000000  0.98369400  0.92710300  1
  O  O6  1  0.25000000  0.51630600  0.42710300  1
  O  O7  1  0.75000000  0.48369400  0.57289700  1
  O  O8  1  0.47779400  0.78624500  0.33660500  1
  O  O9  1  0.97779400  0.21375500  0.66339500  1
  O  O10  1  0.02220600  0.28624500  0.16339500  1
  O  O11  1  0.52220600  0.71375500  0.83660500  1
  O  O12  1  0.47779400  0.28624500  0.16339500  1
  O  O13  1  0.97779400  0.71375500  0.83660500  1
  O  O14  1  0.02220600  0.78624500  0.33660500  1
  O  O15  1  0.52220600  0.21375500  0.66339500  1
loop_
_geom_bond_atom_site_label_1
_geom_bond_atom_site_label_2
_geom_bond_distance
_geom_bond_site_symmetry_2
K0 O6 2.665830 1_555
K0 O3 2.829074 1_555
K0 O3 2.829074 1_455
K0 O15 2.872969 1_555
K0 O9 2.872969 1_455
K0 O2 2.952472 1_545
K0 O12 2.961351 1_555
K0 O10 2.961351 1_555
K0 O8 3.143958 1_545
K0 O14 3.143958 1_545
K1 O4 2.665830 1_565
K1 O1 2.829074 1_455
K1 O1 2.829074 1_555
K1 O11 2.872969 1_554
K1 O13 2.872969 1_454
K1 O0 2.952472 1_554
K1 O14 2.961351 1_555
K1 O8 2.961351 1_555
K1 O10 3.143958 1_555
K1 O12 3.143958 1_555
K2 O7 2.665830 1_555
K2 O2 2.829074 1_655
K2 O2 2.829074 1_555
K2 O14 2.872969 1_655
K2 O8 2.872969 1_555
K2 O3 2.952472 1_565
K2 O13 2.961351 1_555
K2 O11 2.961351 1_555
K2 O9 3.143958 1_565
K2 O15 3.143958 1_565
K3 O5 2.665830 1_545
K3 O0 2.829074 1_555
K3 O0 2.829074 1_655
K3 O10 2.872969 1_656
K3 O12 2.872969 1_556
K3 O1 2.952472 1_556
K3 O9 2.961351 1_555
K3 O15 2.961351 1_555
K3 O13 3.143958 1_555
K3 O11 3.143958 1_555
Eu0 O15 2.591314 1_555
Eu0 O9 2.591314 1_455
Eu0 O0 2.611083 1_555
Eu0 O4 2.620078 1_556
Eu0 O11 2.654773 1_545
Eu0 O13 2.654773 1_445
Eu0 O2 2.779248 1_545
Eu0 O5 3.057159 1_445
Eu0 O5 3.057159 1_545
Eu1 O14 2.591314 1_655
Eu1 O8 2.591314 1_555
Eu1 O1 2.611083 1_555
Eu1 O5 2.620078 1_554
Eu1 O10 2.654773 1_665
Eu1 O12 2.654773 1_565
Eu1 O3 2.779248 1_565
Eu1 O4 3.057159 1_565
Eu1 O4 3.057159 1_665
Eu2 O11 2.591314 1_555
Eu2 O13 2.591314 1_455
Eu2 O2 2.611083 1_555
Eu2 O6 2.620078 1_555
Eu2 O15 2.654773 1_555
Eu2 O9 2.654773 1_455
Eu2 O0 2.779248 1_555
Eu2 O7 3.057159 1_455
Eu2 O7 3.057159 1_555
Eu3 O12 2.591314 1_555
Eu3 O10 2.591314 1_655
Eu3 O3 2.611083 1_555
Eu3 O7 2.620078 1_555
Eu3 O14 2.654773 1_655
Eu3 O8 2.654773 1_555
Eu3 O1 2.779248 1_555
Eu3 O6 3.057159 1_655
Eu3 O6 3.057159 1_555
O0 P3 1.566725 1_556
O1 P2 1.566725 1_554
O2 P0 1.566725 1_555
O3 P1 1.566725 1_555
O4 P3 1.553653 1_555
O5 P2 1.553653 1_555
O6 P0 1.553653 1_555
O7 P1 1.553653 1_555
O8 P0 1.561102 1_555
O9 P1 1.561102 1_555
O10 P3 1.561102 1_555
O11 P2 1.561102 1_555
O12 P3 1.561102 1_555
O13 P2 1.561102 1_555
O14 P0 1.561102 1_555
O15 P1 1.561102 1_555
