# generated using pymatgen
data_Ba2DyCoCu2O7
_symmetry_space_group_name_H-M   'P 1'
_cell_length_a   3.85642400
_cell_length_b   3.91213600
_cell_length_c   11.85554400
_cell_angle_alpha   90.00000000
_cell_angle_beta   90.00000000
_cell_angle_gamma   90.00000000
_symmetry_Int_Tables_number   1
_chemical_formula_structural   Ba2DyCoCu2O7
_chemical_formula_sum   'Ba2 Dy1 Co1 Cu2 O7'
_cell_volume   178.86287519
_cell_formula_units_Z   1
loop_
 _symmetry_equiv_pos_site_id
 _symmetry_equiv_pos_as_xyz
  1  'x, y, z'
loop_
 _atom_site_type_symbol
 _atom_site_label
 _atom_site_symmetry_multiplicity
 _atom_site_fract_x
 _atom_site_fract_y
 _atom_site_fract_z
 _atom_site_occupancy
  Ba  Ba0  1  0.50000000  0.50000000  0.18393000  1
  Ba  Ba1  1  0.50000000  0.50000000  0.81607000  1
  Dy  Dy0  1  0.50000000  0.50000000  0.50000000  1
  Co  Co0  1  0.00000000  0.00000000  0.00000000  1
  Cu  Cu0  1  0.00000000  0.00000000  0.36043900  1
  Cu  Cu1  1  0.00000000  0.00000000  0.63956100  1
  O  O0  1  0.50000000  0.00000000  0.37913000  1
  O  O1  1  0.50000000  0.00000000  0.62087000  1
  O  O2  1  0.00000000  0.00000000  0.15234200  1
  O  O3  1  0.00000000  0.00000000  0.84765800  1
  O  O4  1  0.00000000  0.50000000  0.37873600  1
  O  O5  1  0.00000000  0.50000000  0.62126400  1
  O  O6  1  0.00000000  0.50000000  0.00000000  1
loop_
_geom_bond_atom_site_label_1
_geom_bond_atom_site_label_2
_geom_bond_distance
_geom_bond_site_symmetry_2
Ba0 O2 2.772084 1_655
Ba0 O2 2.772084 1_565
Ba0 O2 2.772084 1_665
Ba0 O2 2.772084 1_555
Ba0 O6 2.910838 1_655
Ba0 O6 2.910838 1_555
Ba0 O4 3.008643 1_555
Ba0 O4 3.008643 1_655
Ba0 O0 3.030138 1_555
Ba0 O0 3.030138 1_565
Ba1 O3 2.772084 1_555
Ba1 O3 2.772084 1_565
Ba1 O3 2.772084 1_655
Ba1 O3 2.772084 1_665
Ba1 O6 2.910838 1_656
Ba1 O6 2.910838 1_556
Ba1 O5 3.008643 1_555
Ba1 O5 3.008643 1_655
Ba1 O1 3.030138 1_555
Ba1 O1 3.030138 1_565
Dy0 O4 2.405170 1_555
Dy0 O4 2.405170 1_655
Dy0 O5 2.405170 1_655
Dy0 O5 2.405170 1_555
Dy0 O0 2.424795 1_555
Dy0 O0 2.424795 1_565
Dy0 O1 2.424795 1_555
Dy0 O1 2.424795 1_565
Co0 O3 1.806097 1_554
Co0 O2 1.806097 1_555
Co0 O6 1.956068 1_545
Co0 O6 1.956068 1_555
Cu0 O0 1.940903 1_555
Cu0 O0 1.940903 1_455
Cu0 O4 1.968059 1_555
Cu0 O4 1.968059 1_545
Cu0 O2 2.467103 1_555
Cu1 O1 1.940903 1_555
Cu1 O1 1.940903 1_455
Cu1 O5 1.968059 1_555
Cu1 O5 1.968059 1_545
Cu1 O3 2.467103 1_555
