# generated using pymatgen
data_GdNO5
_symmetry_space_group_name_H-M   'P 1'
_cell_length_a   4.18388800
_cell_length_b   6.18237200
_cell_length_c   8.16721292
_cell_angle_alpha   70.36911797
_cell_angle_beta   90.00000000
_cell_angle_gamma   90.00000000
_symmetry_Int_Tables_number   1
_chemical_formula_structural   GdNO5
_chemical_formula_sum   'Gd2 N2 O10'
_cell_volume   198.97706813
_cell_formula_units_Z   2
loop_
 _symmetry_equiv_pos_site_id
 _symmetry_equiv_pos_as_xyz
  1  'x, y, z'
loop_
 _atom_site_type_symbol
 _atom_site_label
 _atom_site_symmetry_multiplicity
 _atom_site_fract_x
 _atom_site_fract_y
 _atom_site_fract_z
 _atom_site_occupancy
  Gd  Gd0  1  0.23075400  0.23440300  0.03117000  1
  Gd  Gd1  1  0.73075400  0.76559700  0.96883000  1
  N  N0  1  0.88925700  0.20932500  0.56330600  1
  N  N1  1  0.38925700  0.79067500  0.43669400  1
  O  O0  1  0.72865800  0.06579200  0.08390800  1
  O  O1  1  0.22865800  0.93420800  0.91609200  1
  O  O2  1  0.73071600  0.42091000  0.91585700  1
  O  O3  1  0.23071600  0.57909000  0.08414300  1
  O  O4  1  0.72653200  0.07439400  0.68818500  1
  O  O5  1  0.22653200  0.92560600  0.31181500  1
  O  O6  1  0.11155800  0.32434800  0.59510900  1
  O  O7  1  0.61155800  0.67565200  0.40489100  1
  O  O8  1  0.81452300  0.22499200  0.41145700  1
  O  O9  1  0.31452300  0.77500800  0.58854300  1
loop_
_geom_bond_atom_site_label_1
_geom_bond_atom_site_label_2
_geom_bond_distance
_geom_bond_site_symmetry_2
Gd0 O0 2.304362 1_555
Gd0 O3 2.312519 1_555
Gd0 O0 2.320229 1_455
Gd0 O1 2.345185 1_544
Gd0 O2 2.421240 1_554
Gd0 O2 2.421515 1_454
Gd0 O5 2.440991 1_545
Gd1 O1 2.304362 1_655
Gd1 O2 2.312519 1_555
Gd1 O1 2.320229 1_555
Gd1 O0 2.345185 1_566
Gd1 O3 2.421240 1_656
Gd1 O3 2.421515 1_556
Gd1 O4 2.440991 1_565
N0 O6 1.249925 1_655
N0 O8 1.250796 1_555
N0 O4 1.275912 1_555
N1 O7 1.249925 1_555
N1 O9 1.250796 1_555
N1 O5 1.275912 1_555
