# generated using pymatgen
data_LaSc3(BO3)4
_symmetry_space_group_name_H-M   'P 1'
_cell_length_a   6.26298072
_cell_length_b   6.26298099
_cell_length_c   6.26297985
_cell_angle_alpha   103.44839901
_cell_angle_beta   103.44840115
_cell_angle_gamma   103.44839999
_symmetry_Int_Tables_number   1
_chemical_formula_structural   LaSc3(BO3)4
_chemical_formula_sum   'La1 Sc3 B4 O12'
_cell_volume   221.44966945
_cell_formula_units_Z   1
loop_
 _symmetry_equiv_pos_site_id
 _symmetry_equiv_pos_as_xyz
  1  'x, y, z'
loop_
 _atom_site_type_symbol
 _atom_site_label
 _atom_site_symmetry_multiplicity
 _atom_site_fract_x
 _atom_site_fract_y
 _atom_site_fract_z
 _atom_site_occupancy
  La  La0  1  0.50000000  0.50000000  0.50000000  1
  Sc  Sc0  1  0.04874620  0.50000000  0.95125380  1
  Sc  Sc1  1  0.50000000  0.95125380  0.04874620  1
  Sc  Sc2  1  0.95125380  0.04874620  0.50000000  1
  B  B0  1  0.00000000  0.00000000  0.00000000  1
  B  B1  1  0.44926993  -0.00000000  0.55073007  1
  B  B2  1  0.00000000  0.55073007  0.44926993  1
  B  B3  1  0.55073007  0.44926993  0.00000000  1
  O  O0  1  0.85979382  0.00000000  0.14020618  1
  O  O1  1  0.41066274  0.58933726  0.00000000  1
  O  O2  1  0.00000000  0.41066274  0.58933726  1
  O  O3  1  0.58933726  -0.00000000  0.41066274  1
  O  O4  1  0.53074396  0.29744708  0.12551486  1
  O  O5  1  0.12551486  0.53074396  0.29744708  1
  O  O6  1  0.29744708  0.12551486  0.53074396  1
  O  O7  1  0.70255292  0.46925604  0.87448514  1
  O  O8  1  0.87448514  0.70255292  0.46925604  1
  O  O9  1  0.46925604  0.87448514  0.70255292  1
  O  O10  1  0.14020618  0.85979382  -0.00000000  1
  O  O11  1  -0.00000000  0.14020618  0.85979382  1
loop_
_geom_bond_atom_site_label_1
_geom_bond_atom_site_label_2
_geom_bond_distance
_geom_bond_site_symmetry_2
La0 O7 2.467181 1_555
La0 O4 2.467181 1_555
La0 O5 2.467181 1_555
La0 O8 2.467182 1_555
La0 O9 2.467182 1_555
La0 O6 2.467182 1_555
B0 O0 1.378697 1_455
B0 O11 1.378697 1_554
B0 O10 1.378697 1_545
B1 O9 1.369614 1_545
B1 O6 1.369614 1_555
B1 O3 1.377332 1_555
B2 O5 1.369614 1_555
B2 O8 1.369614 1_455
B2 O2 1.377332 1_555
B3 O7 1.369614 1_554
B3 O4 1.369614 1_555
B3 O1 1.377332 1_555
O0 Sc2 2.120690 1_555
O0 Sc1 2.120691 1_545
O1 Sc0 2.133739 1_554
O1 Sc1 2.133739 1_555
O2 Sc0 2.133739 1_555
O2 Sc2 2.133739 1_455
O3 Sc1 2.133739 1_545
O3 Sc2 2.133739 1_555
O4 Sc1 2.060873 1_545
O5 Sc0 2.060873 1_554
O6 Sc2 2.060873 1_455
O7 Sc0 2.060873 1_655
O8 Sc2 2.060873 1_565
O9 Sc1 2.060873 1_556
O10 Sc1 2.120691 1_555
O10 Sc0 2.120691 1_554
O11 Sc2 2.120690 1_455
O11 Sc0 2.120691 1_555
