# generated using pymatgen
data_Rb4Te2H3(S2O3)4
_symmetry_space_group_name_H-M   'P 1'
_cell_length_a   9.54004800
_cell_length_b   12.57985300
_cell_length_c   21.72100100
_cell_angle_alpha   90.00000000
_cell_angle_beta   90.00000000
_cell_angle_gamma   90.00000000
_symmetry_Int_Tables_number   1
_chemical_formula_structural   Rb4Te2H3(S2O3)4
_chemical_formula_sum   'Rb16 Te8 H12 S32 O48'
_cell_volume   2606.78949197
_cell_formula_units_Z   4
loop_
 _symmetry_equiv_pos_site_id
 _symmetry_equiv_pos_as_xyz
  1  'x, y, z'
loop_
 _atom_site_type_symbol
 _atom_site_label
 _atom_site_symmetry_multiplicity
 _atom_site_fract_x
 _atom_site_fract_y
 _atom_site_fract_z
 _atom_site_occupancy
  Rb  Rb0  1  0.25167800  0.03216700  0.23105600  1
  Rb  Rb1  1  0.74832200  0.96783300  0.76894400  1
  Rb  Rb2  1  0.24832200  0.53216700  0.26894400  1
  Rb  Rb3  1  0.25167800  0.46783300  0.76894400  1
  Rb  Rb4  1  0.75167800  0.46783300  0.73105600  1
  Rb  Rb5  1  0.74832200  0.53216700  0.23105600  1
  Rb  Rb6  1  0.24832200  0.96783300  0.73105600  1
  Rb  Rb7  1  0.75167800  0.03216700  0.26894400  1
  Rb  Rb8  1  0.40934700  0.30860600  0.10684500  1
  Rb  Rb9  1  0.59065300  0.69139400  0.89315500  1
  Rb  Rb10  1  0.09065300  0.80860600  0.39315500  1
  Rb  Rb11  1  0.40934700  0.19139400  0.89315500  1
  Rb  Rb12  1  0.90934700  0.19139400  0.60684500  1
  Rb  Rb13  1  0.59065300  0.80860600  0.10684500  1
  Rb  Rb14  1  0.09065300  0.69139400  0.60684500  1
  Rb  Rb15  1  0.90934700  0.30860600  0.39315500  1
  Te  Te0  1  0.49194400  0.35023700  0.42985700  1
  Te  Te1  1  0.50805600  0.64976300  0.57014300  1
  Te  Te2  1  0.00805600  0.85023700  0.07014300  1
  Te  Te3  1  0.49194400  0.14976300  0.57014300  1
  Te  Te4  1  0.99194400  0.14976300  0.92985700  1
  Te  Te5  1  0.50805600  0.85023700  0.42985700  1
  Te  Te6  1  0.00805600  0.64976300  0.92985700  1
  Te  Te7  1  0.99194400  0.35023700  0.07014300  1
  H  H0  1  0.61894200  0.25000000  0.00000000  1
  H  H1  1  0.38105800  0.75000000  0.00000000  1
  H  H2  1  0.88105800  0.75000000  0.50000000  1
  H  H3  1  0.11894200  0.25000000  0.50000000  1
  H  H4  1  0.16774900  0.04447600  0.37190900  1
  H  H5  1  0.83225100  0.95552400  0.62809100  1
  H  H6  1  0.33225100  0.54447600  0.12809100  1
  H  H7  1  0.16774900  0.45552400  0.62809100  1
  H  H8  1  0.66774900  0.45552400  0.87190900  1
  H  H9  1  0.83225100  0.54447600  0.37190900  1
  H  H10  1  0.33225100  0.95552400  0.87190900  1
  H  H11  1  0.66774900  0.04447600  0.12809100  1
  S  S0  1  0.28675100  0.03790100  0.05302300  1
  S  S1  1  0.71324900  0.96209900  0.94697700  1
  S  S2  1  0.21324900  0.53790100  0.44697700  1
  S  S3  1  0.28675100  0.46209900  0.94697700  1
  S  S4  1  0.78675100  0.46209900  0.55302300  1
  S  S5  1  0.71324900  0.53790100  0.05302300  1
  S  S6  1  0.21324900  0.96209900  0.55302300  1
  S  S7  1  0.78675100  0.03790100  0.44697700  1
  S  S8  1  0.03629900  0.27986600  0.23100900  1
  S  S9  1  0.96370100  0.72013400  0.76899100  1
  S  S10  1  0.46370100  0.77986600  0.26899100  1
  S  S11  1  0.03629900  0.22013400  0.76899100  1
  S  S12  1  0.53629900  0.22013400  0.73100900  1
  S  S13  1  0.96370100  0.77986600  0.23100900  1
  S  S14  1  0.46370100  0.72013400  0.73100900  1
  S  S15  1  0.53629900  0.27986600  0.26899100  1
  S  S16  1  0.38213800  0.27068000  0.34224200  1
  S  S17  1  0.61786200  0.72932000  0.65775800  1
  S  S18  1  0.11786200  0.77068000  0.15775800  1
  S  S19  1  0.38213800  0.22932000  0.65775800  1
  S  S20  1  0.88213800  0.22932000  0.84224200  1
  S  S21  1  0.61786200  0.77068000  0.34224200  1
  S  S22  1  0.11786200  0.72932000  0.84224200  1
  S  S23  1  0.88213800  0.27068000  0.15775800  1
  S  S24  1  0.06938100  0.03211900  0.08549300  1
  S  S25  1  0.93061900  0.96788100  0.91450700  1
  S  S26  1  0.43061900  0.53211900  0.41450700  1
  S  S27  1  0.06938100  0.46788100  0.91450700  1
  S  S28  1  0.56938100  0.46788100  0.58549300  1
  S  S29  1  0.93061900  0.53211900  0.08549300  1
  S  S30  1  0.43061900  0.96788100  0.58549300  1
  S  S31  1  0.56938100  0.03211900  0.41450700  1
  O  O0  1  0.50016400  0.18734000  0.23040900  1
  O  O1  1  0.49983600  0.81266000  0.76959100  1
  O  O2  1  0.99983600  0.68734000  0.26959100  1
  O  O3  1  0.50016400  0.31266000  0.76959100  1
  O  O4  1  0.00016400  0.31266000  0.73040900  1
  O  O5  1  0.49983600  0.68734000  0.23040900  1
  O  O6  1  0.99983600  0.81266000  0.73040900  1
  O  O7  1  0.00016400  0.18734000  0.26959100  1
  O  O8  1  0.01221800  0.38244900  0.26230900  1
  O  O9  1  0.98778200  0.61755100  0.73769100  1
  O  O10  1  0.48778200  0.88244900  0.23769100  1
  O  O11  1  0.01221800  0.11755100  0.73769100  1
  O  O12  1  0.51221800  0.11755100  0.76230900  1
  O  O13  1  0.98778200  0.88244900  0.26230900  1
  O  O14  1  0.48778200  0.61755100  0.76230900  1
  O  O15  1  0.51221800  0.38244900  0.23769100  1
  O  O16  1  0.37083600  0.02056000  0.10893800  1
  O  O17  1  0.62916400  0.97944000  0.89106200  1
  O  O18  1  0.12916400  0.52056000  0.39106200  1
  O  O19  1  0.37083600  0.47944000  0.89106200  1
  O  O20  1  0.87083600  0.47944000  0.60893800  1
  O  O21  1  0.62916400  0.52056000  0.10893800  1
  O  O22  1  0.12916400  0.97944000  0.60893800  1
  O  O23  1  0.87083600  0.02056000  0.39106200  1
  O  O24  1  0.17474600  0.27190800  0.20200100  1
  O  O25  1  0.82525400  0.72809200  0.79799900  1
  O  O26  1  0.32525400  0.77190800  0.29799900  1
  O  O27  1  0.17474600  0.22809200  0.79799900  1
  O  O28  1  0.67474600  0.22809200  0.70200100  1
  O  O29  1  0.82525400  0.77190800  0.20200100  1
  O  O30  1  0.32525400  0.72809200  0.70200100  1
  O  O31  1  0.67474600  0.27190800  0.29799900  1
  O  O32  1  0.19673700  0.04329300  0.50597100  1
  O  O33  1  0.80326300  0.95670700  0.49402900  1
  O  O34  1  0.30326300  0.54329300  0.99402900  1
  O  O35  1  0.19673700  0.45670700  0.49402900  1
  O  O36  1  0.69673700  0.45670700  0.00597100  1
  O  O37  1  0.80326300  0.54329300  0.50597100  1
  O  O38  1  0.30326300  0.95670700  0.00597100  1
  O  O39  1  0.69673700  0.04329300  0.99402900  1
  O  O40  1  0.29248200  0.14848500  0.03028200  1
  O  O41  1  0.70751800  0.85151500  0.96971800  1
  O  O42  1  0.20751800  0.64848500  0.46971800  1
  O  O43  1  0.29248200  0.35151500  0.96971800  1
  O  O44  1  0.79248200  0.35151500  0.53028200  1
  O  O45  1  0.70751800  0.64848500  0.03028200  1
  O  O46  1  0.20751800  0.85151500  0.53028200  1
  O  O47  1  0.79248200  0.14848500  0.46971800  1
loop_
_geom_bond_atom_site_label_1
_geom_bond_atom_site_label_2
_geom_bond_distance
_geom_bond_site_symmetry_2
Rb0 S24 3.608512 1_555
Rb1 S25 3.608512 1_555
Rb2 S26 3.608512 1_555
Rb3 S27 3.608512 1_555
Rb4 S28 3.608512 1_555
Rb5 S29 3.608512 1_555
Rb6 S30 3.608512 1_555
Rb7 S31 3.608512 1_555
H0 Rb8 3.150834 1_555
H0 Rb11 3.150834 1_554
H1 Rb13 3.150834 1_555
H1 Rb9 3.150834 1_554
H2 Rb10 3.150834 1_655
H2 Rb14 3.150834 1_655
H3 Rb15 3.150834 1_455
H3 Rb12 3.150834 1_455
H4 Rb10 3.091644 1_545
H4 Rb0 3.166295 1_555
H5 Rb12 3.091644 1_565
H5 Rb1 3.166295 1_555
H6 Rb8 3.091644 1_555
H6 Rb2 3.166295 1_555
H7 Rb14 3.091644 1_555
H7 Rb3 3.166295 1_555
H8 Rb9 3.091644 1_555
H8 Rb4 3.166295 1_555
H9 Rb15 3.091644 1_555
H9 Rb5 3.166295 1_555
H10 Rb11 3.091644 1_565
H10 Rb6 3.166295 1_555
H11 Rb13 3.091644 1_545
H11 Rb7 3.166295 1_555
S0 S24 2.191581 1_555
S1 S25 2.191581 1_555
S2 S26 2.191581 1_555
S10 S21 2.169764 1_555
S11 S20 2.169764 1_455
S12 S19 2.169764 1_555
S13 S18 2.169764 1_655
S14 S17 2.169764 1_555
S15 S16 2.169764 1_555
S16 Te0 2.391806 1_555
S17 Te1 2.391806 1_555
S18 Te2 2.391806 1_555
S19 Te3 2.391806 1_555
S20 Te4 2.391806 1_555
S21 Te5 2.391806 1_555
S22 S9 2.169764 1_455
S22 Te6 2.391806 1_555
S23 S8 2.169764 1_655
S23 Te7 2.391806 1_555
S24 Te2 2.385081 1_545
S25 Te4 2.385081 1_565
S26 Te0 2.385081 1_555
S27 S3 2.191581 1_555
S27 Te6 2.385081 1_555
S28 S4 2.191581 1_555
S28 Te1 2.385081 1_555
S29 S5 2.191581 1_555
S29 Te7 2.385081 1_555
S30 S6 2.191581 1_555
S30 Te3 2.385081 1_565
S31 S7 2.191581 1_555
S31 Te5 2.385081 1_545
O0 S15 1.475114 1_555
O0 Rb0 3.070880 1_555
O0 Rb7 3.204450 1_555
O0 Rb8 3.206450 1_555
O1 S14 1.475114 1_555
O1 Rb1 3.070880 1_555
O1 Rb6 3.204450 1_555
O1 Rb9 3.206450 1_555
O2 S13 1.475114 1_555
O2 Rb2 3.070880 1_655
O2 Rb5 3.204450 1_555
O2 Rb10 3.206450 1_655
O3 S12 1.475114 1_555
O3 Rb3 3.070880 1_555
O3 Rb4 3.204450 1_555
O3 Rb11 3.206450 1_555
O4 S11 1.475114 1_555
O4 Rb4 3.070880 1_455
O4 Rb3 3.204450 1_555
O4 Rb12 3.206450 1_455
O5 S10 1.475114 1_555
O5 Rb5 3.070880 1_555
O5 Rb2 3.204450 1_555
O5 Rb13 3.206450 1_555
O6 S9 1.475114 1_555
O6 Rb6 3.070880 1_655
O6 Rb1 3.204450 1_555
O6 Rb14 3.206450 1_655
O7 S8 1.475114 1_555
O7 Rb7 3.070880 1_455
O7 Rb0 3.204450 1_555
O7 Rb15 3.206450 1_455
O8 S8 1.476595 1_555
O8 Rb2 2.939657 1_555
O8 Rb15 3.147002 1_455
O8 Rb5 3.216575 1_455
O9 S9 1.476595 1_555
O9 Rb4 2.939657 1_555
O9 Rb14 3.147002 1_655
O9 Rb3 3.216575 1_655
O10 S10 1.476595 1_555
O10 Rb0 2.939657 1_565
O10 Rb13 3.147002 1_555
O10 Rb7 3.216575 1_565
O11 S11 1.476595 1_555
O11 Rb6 2.939657 1_545
O11 Rb12 3.147002 1_455
O11 Rb1 3.216575 1_445
O12 S12 1.476595 1_555
O12 Rb1 2.939657 1_545
O12 Rb11 3.147002 1_555
O12 Rb6 3.216575 1_545
O13 S13 1.476595 1_555
O13 Rb7 2.939657 1_565
O13 Rb10 3.147002 1_655
O13 Rb0 3.216575 1_665
O14 S14 1.476595 1_555
O14 Rb3 2.939657 1_555
O14 Rb9 3.147002 1_555
O14 Rb4 3.216575 1_555
O15 S15 1.476595 1_555
O15 Rb5 2.939657 1_555
O15 Rb8 3.147002 1_555
O15 Rb2 3.216575 1_555
O16 S0 1.471786 1_555
O16 Rb0 2.889544 1_555
O16 Rb13 3.392517 1_545
O17 S1 1.471786 1_555
O17 Rb1 2.889544 1_555
O17 Rb11 3.392517 1_565
O18 S2 1.471786 1_555
O18 Rb2 2.889544 1_555
O18 Rb15 3.392517 1_455
O19 S3 1.471786 1_555
O19 Rb3 2.889544 1_555
O19 Rb9 3.392517 1_555
O20 S4 1.471786 1_555
O20 Rb4 2.889544 1_555
O20 Rb14 3.392517 1_655
O21 S5 1.471786 1_555
O21 Rb5 2.889544 1_555
O21 Rb8 3.392517 1_555
O22 S6 1.471786 1_555
O22 Rb6 2.889544 1_555
O22 Rb12 3.392517 1_465
O23 S7 1.471786 1_555
O23 Rb7 2.889544 1_555
O23 Rb10 3.392517 1_645
O24 S8 1.466804 1_555
O24 Rb8 3.081274 1_555
O24 Rb0 3.167435 1_555
O25 S9 1.466804 1_555
O25 Rb9 3.081274 1_555
O25 Rb1 3.167435 1_555
O26 S10 1.466804 1_555
O26 Rb10 3.081274 1_555
O26 Rb2 3.167435 1_555
O27 S11 1.466804 1_555
O27 Rb11 3.081274 1_555
O27 Rb3 3.167435 1_555
O28 S12 1.466804 1_555
O28 Rb12 3.081274 1_555
O28 Rb4 3.167435 1_555
O29 S13 1.466804 1_555
O29 Rb13 3.081274 1_555
O29 Rb5 3.167435 1_555
O30 S14 1.466804 1_555
O30 Rb14 3.081274 1_555
O30 Rb6 3.167435 1_555
O31 S15 1.466804 1_555
O31 Rb15 3.081274 1_555
O31 Rb7 3.167435 1_555
O32 S6 1.453481 1_545
O33 S7 1.453481 1_565
O34 S3 1.453481 1_555
O35 S2 1.453481 1_555
O36 S5 1.453481 1_555
O37 S4 1.453481 1_555
O38 S0 1.453481 1_565
O39 S1 1.453481 1_545
O40 S0 1.477236 1_555
O40 Rb8 2.840079 1_555
O40 Rb11 3.225840 1_554
O41 S1 1.477236 1_555
O41 Rb9 2.840079 1_555
O41 Rb13 3.225840 1_556
O42 S2 1.477236 1_555
O42 Rb10 2.840079 1_555
O42 Rb14 3.225840 1_555
O43 S3 1.477236 1_555
O43 Rb11 2.840079 1_555
O43 Rb8 3.225840 1_556
O44 S4 1.477236 1_555
O44 Rb12 2.840079 1_555
O44 Rb15 3.225840 1_555
O45 S5 1.477236 1_555
O45 Rb13 2.840079 1_555
O45 Rb9 3.225840 1_554
O46 S6 1.477236 1_555
O46 Rb14 2.840079 1_555
O46 Rb10 3.225840 1_555
O47 S7 1.477236 1_555
O47 Rb15 2.840079 1_555
O47 Rb12 3.225840 1_555
