# generated using pymatgen
data_Li2MgCo3O8
_symmetry_space_group_name_H-M   'P 1'
_cell_length_a   5.74430159
_cell_length_b   5.95647941
_cell_length_c   8.20381050
_cell_angle_alpha   88.60756112
_cell_angle_beta   90.00444649
_cell_angle_gamma   89.98949210
_symmetry_Int_Tables_number   1
_chemical_formula_structural   Li2MgCo3O8
_chemical_formula_sum   'Li4 Mg2 Co6 O16'
_cell_volume   280.61716036
_cell_formula_units_Z   2
loop_
 _symmetry_equiv_pos_site_id
 _symmetry_equiv_pos_as_xyz
  1  'x, y, z'
loop_
 _atom_site_type_symbol
 _atom_site_label
 _atom_site_symmetry_multiplicity
 _atom_site_fract_x
 _atom_site_fract_y
 _atom_site_fract_z
 _atom_site_occupancy
  Li  Li0  1  0.00039100  0.49999700  0.00001000  1
  Li  Li1  1  0.50033200  0.99999300  0.50000200  1
  Li  Li2  1  0.49973800  0.50000900  0.99999100  1
  Li  Li3  1  0.99960600  0.00000100  0.50000200  1
  Mg  Mg0  1  0.00023400  0.99999800  0.99999800  1
  Mg  Mg1  1  0.50025500  0.50000100  0.50001100  1
  Co  Co0  1  0.00005800  0.50000100  0.50000100  1
  Co  Co1  1  0.74966400  0.25054400  0.74739100  1
  Co  Co2  1  0.74961800  0.74947400  0.25260600  1
  Co  Co3  1  0.49968700  0.00002500  0.99999300  1
  Co  Co4  1  0.25000900  0.74964500  0.25339900  1
  Co  Co5  1  0.25004900  0.25031400  0.74659900  1
  O  O0  1  0.49958500  0.96190000  0.25450600  1
  O  O1  1  0.00029000  0.46756100  0.73842400  1
  O  O2  1  0.00026000  0.53242500  0.26158000  1
  O  O3  1  0.49977300  0.03808900  0.74546900  1
  O  O4  1  0.99982200  0.94989600  0.24837900  1
  O  O5  1  0.49996100  0.45177900  0.74722100  1
  O  O6  1  0.50002900  0.54821600  0.25278200  1
  O  O7  1  0.99995900  0.05008800  0.75162600  1
  O  O8  1  0.76757300  0.72475200  0.47969300  1
  O  O9  1  0.26678000  0.22759500  0.97674800  1
  O  O10  1  0.23255300  0.72463600  0.47989200  1
  O  O11  1  0.73345900  0.22747200  0.97652200  1
  O  O12  1  0.26672000  0.77234400  0.02339900  1
  O  O13  1  0.76761200  0.27529500  0.52027400  1
  O  O14  1  0.73338900  0.77262100  0.02334300  1
  O  O15  1  0.23259300  0.27533000  0.52014100  1
loop_
_geom_bond_atom_site_label_1
_geom_bond_atom_site_label_2
_geom_bond_distance
_geom_bond_site_symmetry_2
Li0 O2 2.159216 1_555
Li0 O1 2.159352 1_554
Li0 O9 2.241621 1_554
Li0 O12 2.241641 1_555
Li0 O11 2.244859 1_454
Li0 O14 2.245044 1_455
Li1 O3 2.031984 1_565
Li1 O0 2.032220 1_555
Li1 O8 2.254900 1_555
Li1 O13 2.255682 1_565
Li1 O15 2.257138 1_565
Li1 O10 2.257752 1_555
Li2 O5 2.100386 1_555
Li2 O6 2.100535 1_556
Li2 O12 2.115256 1_556
Li2 O9 2.115610 1_555
Li2 O11 2.118792 1_555
Li2 O14 2.119134 1_556
Li3 O7 2.092887 1_555
Li3 O4 2.092896 1_545
Li3 O13 2.122492 1_555
Li3 O8 2.122816 1_545
Li3 O10 2.126131 1_645
Li3 O15 2.126495 1_655
Mg0 O12 2.050720 1_556
Mg0 O9 2.051051 1_565
Mg0 O11 2.051301 1_465
Mg0 O14 2.051531 1_456
Mg0 O7 2.052139 1_465
Mg0 O4 2.052222 1_456
Mg1 O13 2.041105 1_555
Mg1 O5 2.041382 1_555
Mg1 O8 2.041530 1_555
Mg1 O6 2.041531 1_555
Mg1 O10 2.042243 1_555
Mg1 O15 2.042605 1_555
Co0 O15 1.894994 1_555
Co0 O10 1.895027 1_555
Co0 O13 1.895221 1_455
Co0 O8 1.895224 1_455
Co0 O2 1.960797 1_555
Co0 O1 1.960820 1_555
Co1 O13 1.868330 1_555
Co1 O7 1.868529 1_555
Co1 O5 1.869083 1_555
Co1 O11 1.883741 1_555
Co1 O3 1.914117 1_555
Co1 O1 1.935228 1_655
Co2 O8 1.868059 1_555
Co2 O4 1.868338 1_555
Co2 O6 1.869005 1_555
Co2 O14 1.884831 1_555
Co2 O0 1.914264 1_555
Co2 O2 1.935063 1_655
Co3 O9 1.910619 1_555
Co3 O12 1.911806 1_546
Co3 O14 1.913193 1_546
Co3 O11 1.914108 1_555
Co3 O0 2.094796 1_546
Co3 O3 2.094856 1_555
Co4 O10 1.863165 1_555
Co4 O4 1.867303 1_455
Co4 O6 1.871329 1_555
Co4 O12 1.890881 1_555
Co4 O0 1.911822 1_555
Co4 O2 1.932160 1_555
Co5 O15 1.862863 1_555
Co5 O7 1.867121 1_455
Co5 O5 1.871328 1_555
Co5 O9 1.892093 1_555
Co5 O3 1.911998 1_555
Co5 O1 1.931950 1_555
