# generated using pymatgen
data_Mg2Si3
_symmetry_space_group_name_H-M   'P 1'
_cell_length_a   4.93263000
_cell_length_b   5.45857965
_cell_length_c   14.79772680
_cell_angle_alpha   93.90655746
_cell_angle_beta   92.30516816
_cell_angle_gamma   92.32864107
_symmetry_Int_Tables_number   1
_chemical_formula_structural   Mg2Si3
_chemical_formula_sum   'Mg8 Si12'
_cell_volume   396.80753871
_cell_formula_units_Z   4
loop_
 _symmetry_equiv_pos_site_id
 _symmetry_equiv_pos_as_xyz
  1  'x, y, z'
loop_
 _atom_site_type_symbol
 _atom_site_label
 _atom_site_symmetry_multiplicity
 _atom_site_fract_x
 _atom_site_fract_y
 _atom_site_fract_z
 _atom_site_occupancy
  Mg  Mg0  1  0.99337400  0.81074400  0.23364000  1
  Mg  Mg1  1  0.98186900  0.81869100  0.78885400  1
  Mg  Mg2  1  0.86531300  0.61935300  0.03952500  1
  Mg  Mg3  1  0.07713200  0.19433700  0.94486000  1
  Mg  Mg4  1  0.46092600  0.43942600  0.69422400  1
  Mg  Mg5  1  0.46136800  0.22552400  0.27387300  1
  Mg  Mg6  1  0.43752400  0.91952600  0.58571600  1
  Mg  Mg7  1  0.65794100  0.50313500  0.46125600  1
  Si  Si0  1  0.33625100  0.71459600  0.96188200  1
  Si  Si1  1  0.60540000  0.10082200  0.02970100  1
  Si  Si2  1  0.32285700  0.39800700  0.11151200  1
  Si  Si3  1  0.63019500  0.45989400  0.86903000  1
  Si  Si4  1  0.96628400  0.60796400  0.62206200  1
  Si  Si5  1  0.97330900  0.25345100  0.35361200  1
  Si  Si6  1  0.90110200  0.95163300  0.48290100  1
  Si  Si7  1  0.19200300  0.33391700  0.51081300  1
  Si  Si8  1  0.94423600  0.14641000  0.64498500  1
  Si  Si9  1  0.18777900  0.67206200  0.39102600  1
  Si  Si10  1  0.49120900  0.81452800  0.14591900  1
  Si  Si11  1  0.51390500  0.01622600  0.85459000  1
loop_
_geom_bond_atom_site_label_1
_geom_bond_atom_site_label_2
_geom_bond_distance
_geom_bond_site_symmetry_2
Mg0 Si9 2.652583 1_655
Mg0 Si10 2.751377 1_555
Mg0 Si10 2.823388 1_655
Mg0 Si5 2.906932 1_565
Mg0 Mg2 3.022085 1_555
Mg1 Si4 2.647917 1_555
Mg1 Si11 2.770751 1_565
Mg1 Si8 2.877679 1_565
Mg1 Si11 2.901343 1_665
Mg1 Si3 2.908368 1_555
Mg1 Mg3 2.990668 1_665
Mg2 Si10 2.680269 1_555
Mg2 Si0 2.680384 1_654
Mg2 Si3 2.802005 1_554
Mg2 Si2 2.809220 1_655
Mg2 Mg3 2.882393 1_654
Mg2 Si0 2.889837 1_554
Mg2 Si1 2.980398 1_565
Mg2 Si1 3.051272 1_555
Mg2 Si2 3.145804 1_555
Mg3 Si1 2.734392 1_456
Mg3 Si11 2.756074 1_555
Mg3 Si2 2.839556 1_556
Mg3 Si3 2.915964 1_455
Mg3 Si1 2.925563 1_556
Mg3 Si0 2.981722 1_545
Mg3 Si0 3.056737 1_555
Mg3 Si11 3.122968 1_455
Mg4 Si3 2.679569 1_555
Mg4 Si4 2.836609 1_455
Mg4 Si4 2.891718 1_555
Mg4 Si7 2.982073 1_555
Mg4 Si8 2.990864 1_455
Mg4 Si8 3.010538 1_555
Mg5 Si2 2.711835 1_555
Mg5 Si5 2.728554 1_455
Mg5 Si5 2.738022 1_555
Mg5 Si10 2.847855 1_545
Mg6 Si6 2.803194 1_555
Mg6 Si8 2.823868 1_565
Mg6 Si7 2.875422 1_565
Mg6 Si4 2.913528 1_455
Mg6 Si8 2.914112 1_465
Mg6 Si6 3.016090 1_455
Mg7 Si7 2.593940 1_555
Mg7 Si5 2.624979 1_555
Mg7 Si6 2.675507 1_555
Mg7 Si9 2.723813 1_555
Mg7 Si4 2.784891 1_555
Mg7 Si7 2.909519 1_655
Mg7 Si9 2.985613 1_655
Si0 Si3 2.446809 1_555
Si0 Si11 2.519991 1_565
Si0 Si1 2.567388 1_566
Si0 Si10 2.809726 1_556
Si1 Si10 2.467724 1_545
Si1 Si2 2.468066 1_555
Si1 Si11 2.618666 1_554
Si4 Si7 2.476831 1_655
Si4 Si8 2.563506 1_555
Si5 Si9 2.496210 1_655
Si5 Si7 2.527508 1_655
Si5 Si6 2.634007 1_545
Si6 Si7 2.485065 1_665
Si6 Si9 2.494819 1_655
Si6 Si8 2.553713 1_565
Si7 Si8 2.617947 1_455
Si7 Si9 2.644876 1_555
Si10 Si2 2.402700 1_555
Si11 Si3 2.458970 1_555
