# generated using pymatgen
data_K3SI
_symmetry_space_group_name_H-M   'P 1'
_cell_length_a   13.99658237
_cell_length_b   13.99658237
_cell_length_c   8.21329100
_cell_angle_alpha   90.00000000
_cell_angle_beta   90.00000000
_cell_angle_gamma   120.00000173
_symmetry_Int_Tables_number   1
_chemical_formula_structural   K3SI
_chemical_formula_sum   'K18 S6 I6'
_cell_volume   1393.45145314
_cell_formula_units_Z   6
loop_
 _symmetry_equiv_pos_site_id
 _symmetry_equiv_pos_as_xyz
  1  'x, y, z'
loop_
 _atom_site_type_symbol
 _atom_site_label
 _atom_site_symmetry_multiplicity
 _atom_site_fract_x
 _atom_site_fract_y
 _atom_site_fract_z
 _atom_site_occupancy
  K  K0  1  0.15552400  0.00000000  0.18578100  1
  K  K1  1  0.00000000  0.15552400  0.18578100  1
  K  K2  1  0.84447600  0.00000000  0.68578100  1
  K  K3  1  0.00000000  0.84447600  0.68578100  1
  K  K4  1  0.84447600  0.84447600  0.18578100  1
  K  K5  1  0.15552400  0.15552400  0.68578100  1
  K  K6  1  0.17810200  0.51132300  0.14196200  1
  K  K7  1  0.48867700  0.66677900  0.14196200  1
  K  K8  1  0.82189800  0.48867700  0.64196200  1
  K  K9  1  0.48867700  0.82189800  0.64196200  1
  K  K10  1  0.33322100  0.82189800  0.14196200  1
  K  K11  1  0.51132300  0.33322100  0.64196200  1
  K  K12  1  0.33322100  0.51132300  0.64196200  1
  K  K13  1  0.51132300  0.17810200  0.14196200  1
  K  K14  1  0.66677900  0.17810200  0.64196200  1
  K  K15  1  0.66677900  0.48867700  0.14196200  1
  K  K16  1  0.17810200  0.66677900  0.64196200  1
  K  K17  1  0.82189800  0.33322100  0.14196200  1
  S  S0  1  0.33333300  0.66666700  0.39347400  1
  S  S1  1  0.66666700  0.33333300  0.89347400  1
  S  S2  1  0.33333300  0.66666700  0.89347400  1
  S  S3  1  0.66666700  0.33333300  0.39347400  1
  S  S4  1  0.00000000  0.00000000  0.93547200  1
  S  S5  1  0.00000000  0.00000000  0.43547200  1
  I  I0  1  0.66650300  0.00000000  0.18677600  1
  I  I1  1  0.00000000  0.66650300  0.18677600  1
  I  I2  1  0.33349700  0.00000000  0.68677600  1
  I  I3  1  0.00000000  0.33349700  0.68677600  1
  I  I4  1  0.33349700  0.33349700  0.18677600  1
  I  I5  1  0.66650300  0.66650300  0.68677600  1
loop_
_geom_bond_atom_site_label_1
_geom_bond_atom_site_label_2
_geom_bond_distance
_geom_bond_site_symmetry_2
K0 S5 2.990685 1_555
K0 S4 2.994168 1_554
K1 S5 2.990685 1_555
K1 S4 2.994168 1_554
K2 S4 2.990685 1_655
K2 S5 2.994168 1_655
K3 S4 2.990685 1_565
K3 S5 2.994168 1_565
K4 S5 2.990685 1_665
K4 S4 2.994168 1_664
K5 S4 2.990685 1_555
K5 S5 2.994168 1_555
K6 S2 2.981505 1_554
K6 S0 2.998561 1_555
K7 S2 2.981510 1_554
K7 S0 2.998566 1_555
K8 S3 2.981505 1_555
K8 S1 2.998561 1_555
K9 S0 2.981505 1_555
K9 S2 2.998561 1_555
K10 S2 2.981499 1_554
K10 S0 2.998556 1_555
K11 S3 2.981510 1_555
K11 S1 2.998566 1_555
K12 S0 2.981510 1_555
K12 S2 2.998566 1_555
K13 S1 2.981505 1_554
K13 S3 2.998561 1_555
K14 S3 2.981499 1_555
K14 S1 2.998556 1_555
K15 S1 2.981510 1_554
K15 S3 2.998566 1_555
K16 S0 2.981499 1_555
K16 S2 2.998556 1_555
K17 S1 2.981499 1_554
K17 S3 2.998556 1_555
I0 K1 4.045509 1_655
I0 K4 4.045509 1_545
I0 K7 4.058876 1_545
I0 K17 4.058876 1_555
I0 K10 4.059746 1_545
I0 K13 4.059746 1_555
I1 K0 4.045509 1_565
I1 K4 4.045509 1_455
I1 K15 4.058876 1_455
I1 K10 4.058876 1_555
I1 K17 4.059746 1_455
I1 K6 4.059746 1_555
I2 K3 4.045509 1_545
I2 K5 4.045509 1_555
I2 K11 4.058876 1_555
I2 K16 4.058876 1_545
I2 K14 4.059746 1_555
I2 K9 4.059746 1_545
I3 K2 4.045509 1_455
I3 K5 4.045509 1_555
I3 K12 4.058876 1_555
I3 K14 4.058876 1_455
I3 K16 4.059746 1_555
I3 K8 4.059746 1_455
I4 K0 4.045509 1_555
I4 K1 4.045509 1_555
I4 K13 4.058876 1_555
I4 K6 4.058876 1_555
I4 K7 4.059746 1_555
I4 K15 4.059746 1_555
I5 K3 4.045509 1_655
I5 K2 4.045509 1_565
I5 K8 4.058876 1_555
I5 K9 4.058876 1_555
I5 K12 4.059746 1_555
I5 K11 4.059746 1_555
