# generated using pymatgen
data_Ti2ReMo
_symmetry_space_group_name_H-M   'P 1'
_cell_length_a   10.32372464
_cell_length_b   10.32372464
_cell_length_c   10.32372464
_cell_angle_alpha   129.18814471
_cell_angle_beta   117.05840749
_cell_angle_gamma   85.02232921
_symmetry_Int_Tables_number   1
_chemical_formula_structural   Ti2ReMo
_chemical_formula_sum   'Ti2 Re1 Mo1'
_cell_volume   726.66200175
_cell_formula_units_Z   1
loop_
 _symmetry_equiv_pos_site_id
 _symmetry_equiv_pos_as_xyz
  1  'x, y, z'
loop_
 _atom_site_type_symbol
 _atom_site_label
 _atom_site_symmetry_multiplicity
 _atom_site_fract_x
 _atom_site_fract_y
 _atom_site_fract_z
 _atom_site_occupancy
  Ti  Ti0  1  0.00000000  0.25133100  0.25133100  1
  Ti  Ti1  1  0.00000000  0.74866900  0.74866900  1
  Re  Re0  1  0.00000000  0.50000000  0.50000000  1
  Mo  Mo0  1  0.00000000  0.00000000  0.00000000  1
loop_
_geom_bond_atom_site_label_1
_geom_bond_atom_site_label_2
_geom_bond_distance
_geom_bond_site_symmetry_2
Re0 Ti0 2.202796 1_555
Re0 Ti1 2.202796 1_555
Mo0 Ti1 2.226377 1_544
Mo0 Ti0 2.226377 1_555
