# generated using pymatgen
data_PbBrO
_symmetry_space_group_name_H-M   'P 1'
_cell_length_a   3.96747500
_cell_length_b   7.17324200
_cell_length_c   9.78517800
_cell_angle_alpha   90.00000000
_cell_angle_beta   90.00000000
_cell_angle_gamma   90.00000000
_symmetry_Int_Tables_number   1
_chemical_formula_structural   PbBrO
_chemical_formula_sum   'Pb4 Br4 O4'
_cell_volume   278.48282232
_cell_formula_units_Z   4
loop_
 _symmetry_equiv_pos_site_id
 _symmetry_equiv_pos_as_xyz
  1  'x, y, z'
loop_
 _atom_site_type_symbol
 _atom_site_label
 _atom_site_symmetry_multiplicity
 _atom_site_fract_x
 _atom_site_fract_y
 _atom_site_fract_z
 _atom_site_occupancy
  Pb  Pb0  1  0.25000000  0.68547000  0.42933900  1
  Pb  Pb1  1  0.25000000  0.18547000  0.07066100  1
  Pb  Pb2  1  0.75000000  0.31453000  0.57066100  1
  Pb  Pb3  1  0.75000000  0.81453000  0.92933900  1
  Br  Br0  1  0.25000000  0.96056000  0.67366300  1
  Br  Br1  1  0.25000000  0.46056000  0.82633700  1
  Br  Br2  1  0.75000000  0.03944000  0.32633700  1
  Br  Br3  1  0.75000000  0.53944000  0.17366300  1
  O  O0  1  0.25000000  0.87586300  0.03060800  1
  O  O1  1  0.25000000  0.37586300  0.46939200  1
  O  O2  1  0.75000000  0.12413700  0.96939200  1
  O  O3  1  0.75000000  0.62413700  0.53060800  1
loop_
_geom_bond_atom_site_label_1
_geom_bond_atom_site_label_2
_geom_bond_distance
_geom_bond_site_symmetry_2
Br0 Pb0 3.099930 1_555
Br0 Pb3 3.360308 1_555
Br0 Pb3 3.360308 1_455
Br0 Pb2 3.376115 1_565
Br0 Pb2 3.376115 1_465
Br1 Pb1 3.099930 1_556
Br1 Pb2 3.360308 1_455
Br1 Pb2 3.360308 1_555
Br1 Pb3 3.376115 1_455
Br1 Pb3 3.376115 1_555
Br2 Pb2 3.099930 1_555
Br2 Pb1 3.360308 1_655
Br2 Pb1 3.360308 1_555
Br2 Pb0 3.376115 1_645
Br2 Pb0 3.376115 1_545
Br3 Pb3 3.099930 1_554
Br3 Pb0 3.360308 1_655
Br3 Pb0 3.360308 1_555
Br3 Pb1 3.376115 1_655
Br3 Pb1 3.376115 1_555
O0 Pb1 2.255203 1_565
O0 Pb3 2.260692 1_554
O0 Pb3 2.260692 1_454
O1 Pb0 2.255203 1_555
O1 Pb2 2.260692 1_555
O1 Pb2 2.260692 1_455
O2 Pb3 2.255203 1_545
O2 Pb1 2.260692 1_556
O2 Pb1 2.260692 1_656
O3 Pb2 2.255203 1_555
O3 Pb0 2.260692 1_655
O3 Pb0 2.260692 1_555
