# generated using pymatgen
data_Nd2(CoNi)5
_symmetry_space_group_name_H-M   'P 1'
_cell_length_a   3.96866300
_cell_length_b   4.96184000
_cell_length_c   8.58517000
_cell_angle_alpha   90.00000000
_cell_angle_beta   90.00000000
_cell_angle_gamma   90.00000000
_symmetry_Int_Tables_number   1
_chemical_formula_structural   Nd2(CoNi)5
_chemical_formula_sum   'Nd2 Co5 Ni5'
_cell_volume   169.05805861
_cell_formula_units_Z   1
loop_
 _symmetry_equiv_pos_site_id
 _symmetry_equiv_pos_as_xyz
  1  'x, y, z'
loop_
 _atom_site_type_symbol
 _atom_site_label
 _atom_site_symmetry_multiplicity
 _atom_site_fract_x
 _atom_site_fract_y
 _atom_site_fract_z
 _atom_site_occupancy
  Nd  Nd0  1  0.00000000  0.50000000  0.00000000  1
  Nd  Nd1  1  0.00000000  0.00000000  0.50000000  1
  Co  Co0  1  0.00000000  0.50000000  0.33467700  1
  Co  Co1  1  0.00000000  0.00000000  0.83324400  1
  Co  Co2  1  0.00000000  0.00000000  0.16675600  1
  Co  Co3  1  0.00000000  0.50000000  0.66532300  1
  Co  Co4  1  0.50000000  0.50000000  0.50000000  1
  Ni  Ni0  1  0.50000000  0.00000000  0.00000000  1
  Ni  Ni1  1  0.50000000  0.75024600  0.25001200  1
  Ni  Ni2  1  0.50000000  0.24975400  0.74998800  1
  Ni  Ni3  1  0.50000000  0.24975400  0.25001200  1
  Ni  Ni4  1  0.50000000  0.75024600  0.74998800  1
loop_
_geom_bond_atom_site_label_1
_geom_bond_atom_site_label_2
_geom_bond_distance
_geom_bond_site_symmetry_2
Nd0 Ni1 3.175902 1_555
Nd0 Ni2 3.175902 1_454
Nd0 Ni2 3.175902 1_554
Nd0 Ni3 3.175902 1_555
Nd0 Ni4 3.175902 1_554
Nd0 Ni4 3.175902 1_454
Nd0 Ni1 3.175902 1_455
Nd0 Ni3 3.175902 1_455
Nd0 Ni0 3.176875 1_555
Nd0 Ni0 3.176875 1_565
Nd0 Ni0 3.176875 1_465
Nd0 Ni0 3.176875 1_455
Nd1 Ni3 3.174809 1_555
Nd1 Ni4 3.174809 1_545
Nd1 Ni3 3.174809 1_455
Nd1 Ni1 3.174809 1_545
Nd1 Ni2 3.174809 1_455
Nd1 Ni1 3.174809 1_445
Nd1 Ni4 3.174809 1_445
Nd1 Ni2 3.174809 1_555
Co0 Co4 2.439684 1_455
Co0 Co4 2.439684 1_555
Co0 Ni3 2.451055 1_555
Co0 Ni1 2.451055 1_455
Co0 Ni3 2.451055 1_455
Co0 Ni1 2.451055 1_555
Co0 Nd1 2.858225 1_565
Co0 Nd1 2.858225 1_555
Co0 Nd0 2.873259 1_555
Co1 Ni4 2.446258 1_545
Co1 Ni4 2.446258 1_445
Co1 Ni2 2.446258 1_555
Co1 Ni2 2.446258 1_455
Co1 Ni0 2.446862 1_456
Co1 Ni0 2.446862 1_556
Co1 Nd1 2.860956 1_555
Co1 Nd0 2.864354 1_556
Co1 Nd0 2.864354 1_546
Co2 Ni3 2.446258 1_455
Co2 Ni3 2.446258 1_555
Co2 Ni1 2.446258 1_545
Co2 Ni1 2.446258 1_445
Co2 Ni0 2.446862 1_455
Co2 Ni0 2.446862 1_555
Co2 Nd1 2.860956 1_555
Co2 Nd0 2.864354 1_545
Co2 Nd0 2.864354 1_555
Co3 Co4 2.439684 1_455
Co3 Co4 2.439684 1_555
Co3 Ni4 2.451055 1_555
Co3 Ni4 2.451055 1_455
Co3 Ni2 2.451055 1_455
Co3 Ni2 2.451055 1_555
Co3 Nd1 2.858225 1_565
Co3 Nd1 2.858225 1_555
Co3 Nd0 2.873259 1_556
Co4 Ni3 2.479496 1_555
Co4 Ni4 2.479496 1_555
Co4 Ni1 2.479496 1_555
Co4 Ni2 2.479496 1_555
Co4 Nd1 3.176875 1_555
Co4 Nd1 3.176875 1_665
Co4 Nd1 3.176875 1_565
Co4 Nd1 3.176875 1_655
Ni0 Ni3 2.478453 1_555
Ni0 Ni4 2.478453 1_544
Ni0 Ni2 2.478453 1_554
Ni0 Ni1 2.478453 1_545
Ni1 Ni3 2.478479 1_565
Ni1 Ni3 2.483361 1_555
Ni2 Ni4 2.478479 1_545
Ni2 Ni4 2.483361 1_555
