# generated using pymatgen
data_Cs2KRuF6
_symmetry_space_group_name_H-M   'P 1'
_cell_length_a   6.44164774
_cell_length_b   6.44240031
_cell_length_c   6.39512257
_cell_angle_alpha   60.23469455
_cell_angle_beta   60.24640121
_cell_angle_gamma   59.51890424
_symmetry_Int_Tables_number   1
_chemical_formula_structural   Cs2KRuF6
_chemical_formula_sum   'Cs2 K1 Ru1 F6'
_cell_volume   187.64320131
_cell_formula_units_Z   1
loop_
 _symmetry_equiv_pos_site_id
 _symmetry_equiv_pos_as_xyz
  1  'x, y, z'
loop_
 _atom_site_type_symbol
 _atom_site_label
 _atom_site_symmetry_multiplicity
 _atom_site_fract_x
 _atom_site_fract_y
 _atom_site_fract_z
 _atom_site_occupancy
  Cs  Cs0  1  0.75000000  0.75000000  0.75000000  1
  Cs  Cs1  1  0.25000000  0.25000000  0.25000000  1
  K  K0  1  0.50000000  0.50000000  0.50000000  1
  Ru  Ru0  1  0.00000000  -0.00000000  0.00000000  1
  F  F0  1  0.78020992  0.21979008  0.21979008  1
  F  F1  1  0.22401081  0.22401081  0.77598919  1
  F  F2  1  0.21979008  0.78020992  0.78020992  1
  F  F3  1  0.21973460  0.78026540  0.21973460  1
  F  F4  1  0.78026540  0.21973460  0.78026540  1
  F  F5  1  0.77598919  0.77598919  0.22401081  1
loop_
_geom_bond_atom_site_label_1
_geom_bond_atom_site_label_2
_geom_bond_distance
_geom_bond_site_symmetry_2
Cs0 F1 3.206442 1_565
Cs0 F1 3.206442 1_655
Cs0 F5 3.206442 1_555
Cs0 F5 3.206442 1_556
Cs0 F0 3.232394 1_565
Cs0 F2 3.232394 1_555
Cs0 F0 3.232394 1_556
Cs0 F2 3.232394 1_655
Cs0 F4 3.232806 1_555
Cs0 F4 3.232806 1_565
Cs0 F3 3.232806 1_655
Cs0 F3 3.232806 1_556
Cs1 F1 3.206442 1_555
Cs1 F1 3.206442 1_554
Cs1 F5 3.206442 1_455
Cs1 F5 3.206442 1_545
Cs1 F2 3.232394 1_554
Cs1 F2 3.232394 1_545
Cs1 F0 3.232394 1_455
Cs1 F0 3.232394 1_555
Cs1 F3 3.232806 1_545
Cs1 F4 3.232806 1_554
Cs1 F3 3.232806 1_555
Cs1 F4 3.232806 1_455
F0 Ru0 1.988032 1_655
F0 K0 2.534538 1_555
F1 Ru0 2.055579 1_556
F1 K0 2.532545 1_555
F2 Ru0 1.988032 1_566
F2 K0 2.534538 1_555
F3 Ru0 1.987059 1_565
F3 K0 2.534439 1_555
F4 Ru0 1.987059 1_656
F4 K0 2.534439 1_555
F5 Ru0 2.055579 1_665
F5 K0 2.532545 1_555
