# generated using pymatgen
data_Ba7SnN6
_symmetry_space_group_name_H-M   'P 1'
_cell_length_a   12.74679376
_cell_length_b   7.09174822
_cell_length_c   14.88676213
_cell_angle_alpha   90.00000000
_cell_angle_beta   90.00000000
_cell_angle_gamma   90.00000000
_symmetry_Int_Tables_number   1
_chemical_formula_structural   Ba7SnN6
_chemical_formula_sum   'Ba28 Sn4 N24'
_cell_volume   1345.71940975
_cell_formula_units_Z   4
loop_
 _symmetry_equiv_pos_site_id
 _symmetry_equiv_pos_as_xyz
  1  'x, y, z'
loop_
 _atom_site_type_symbol
 _atom_site_label
 _atom_site_symmetry_multiplicity
 _atom_site_fract_x
 _atom_site_fract_y
 _atom_site_fract_z
 _atom_site_occupancy
  Ba  Ba0  1  0.03163588  0.73979076  0.98174987  1
  Ba  Ba1  1  0.46836412  0.76020924  0.48174987  1
  Ba  Ba2  1  0.53163588  0.76020924  0.01825013  1
  Ba  Ba3  1  0.96836412  0.73979076  0.51825013  1
  Ba  Ba4  1  0.96836412  0.26020924  0.01825013  1
  Ba  Ba5  1  0.53163588  0.23979076  0.51825013  1
  Ba  Ba6  1  0.46836412  0.23979076  0.98174987  1
  Ba  Ba7  1  0.03163588  0.26020924  0.48174987  1
  Ba  Ba8  1  0.22859988  0.83364133  0.62757020  1
  Ba  Ba9  1  0.27140012  0.66635867  0.12757020  1
  Ba  Ba10  1  0.72859988  0.66635867  0.37242980  1
  Ba  Ba11  1  0.77140012  0.83364133  0.87242980  1
  Ba  Ba12  1  0.77140012  0.16635867  0.37242980  1
  Ba  Ba13  1  0.72859988  0.33364133  0.87242980  1
  Ba  Ba14  1  0.27140012  0.33364133  0.62757020  1
  Ba  Ba15  1  0.22859988  0.16635867  0.12757020  1
  Ba  Ba16  1  0.28516691  0.59290337  0.87944897  1
  Ba  Ba17  1  0.21483309  0.90709663  0.37944897  1
  Ba  Ba18  1  0.78516691  0.90709663  0.12055103  1
  Ba  Ba19  1  0.71483309  0.59290337  0.62055103  1
  Ba  Ba20  1  0.71483309  0.40709663  0.12055103  1
  Ba  Ba21  1  0.78516691  0.09290337  0.62055103  1
  Ba  Ba22  1  0.21483309  0.09290337  0.87944897  1
  Ba  Ba23  1  0.28516691  0.40709663  0.37944897  1
  Ba  Ba24  1  -0.00000000  0.42894055  0.75000000  1
  Ba  Ba25  1  0.50000000  0.07105945  0.25000000  1
  Ba  Ba26  1  0.00000000  0.57105945  0.25000000  1
  Ba  Ba27  1  0.50000000  0.92894055  0.75000000  1
  Sn  Sn0  1  -0.00000000  0.92370528  0.75000000  1
  Sn  Sn1  1  0.50000000  0.57629472  0.25000000  1
  Sn  Sn2  1  0.00000000  0.07629472  0.25000000  1
  Sn  Sn3  1  0.50000000  0.42370528  0.75000000  1
  N  N0  1  0.12661998  0.74399114  0.79433529  1
  N  N1  1  0.37338002  0.75600886  0.29433529  1
  N  N2  1  0.62661998  0.75600886  0.20566471  1
  N  N3  1  0.87338002  0.74399114  0.70566471  1
  N  N4  1  0.87338002  0.25600886  0.20566471  1
  N  N5  1  0.62661998  0.24399114  0.70566471  1
  N  N6  1  0.37338002  0.24399114  0.79433529  1
  N  N7  1  0.12661998  0.25600886  0.29433529  1
  N  N8  1  0.16394418  0.59582836  0.50335354  1
  N  N9  1  0.33605582  0.90417164  0.00335354  1
  N  N10  1  0.66394418  0.90417164  0.49664646  1
  N  N11  1  0.83605582  0.59582836  0.99664646  1
  N  N12  1  0.83605582  0.40417164  0.49664646  1
  N  N13  1  0.66394418  0.09582836  0.99664646  1
  N  N14  1  0.33605582  0.09582836  0.50335354  1
  N  N15  1  0.16394418  0.40417164  0.00335354  1
  N  N16  1  0.44620464  0.59612655  0.64186353  1
  N  N17  1  0.05379536  0.90387345  0.14186353  1
  N  N18  1  0.94620464  0.90387345  0.35813647  1
  N  N19  1  0.55379536  0.59612655  0.85813647  1
  N  N20  1  0.55379536  0.40387345  0.35813647  1
  N  N21  1  0.94620464  0.09612655  0.85813647  1
  N  N22  1  0.05379536  0.09612655  0.64186353  1
  N  N23  1  0.44620464  0.40387345  0.14186353  1
loop_
_geom_bond_atom_site_label_1
_geom_bond_atom_site_label_2
_geom_bond_distance
_geom_bond_site_symmetry_2
Ba0 N17 2.667443 1_556
Ba0 N11 2.703081 1_455
Ba0 N15 2.934747 1_556
Ba0 N0 3.041523 1_555
Ba0 N21 3.310312 1_465
Ba1 N16 2.667443 1_555
Ba1 N10 2.703081 1_555
Ba1 N14 2.934747 1_565
Ba1 N1 3.041523 1_555
Ba1 N20 3.310312 1_555
Ba2 N19 2.667443 1_554
Ba2 N9 2.703081 1_555
Ba2 N13 2.934747 1_564
Ba2 N2 3.041523 1_555
Ba2 N23 3.310312 1_555
Ba3 N18 2.667443 1_555
Ba3 N8 2.703081 1_655
Ba3 N12 2.934747 1_555
Ba3 N3 3.041523 1_555
Ba3 N22 3.310312 1_665
Ba4 N21 2.667443 1_554
Ba4 N15 2.703081 1_655
Ba4 N11 2.934747 1_554
Ba4 N4 3.041523 1_555
Ba4 N17 3.310312 1_645
Ba5 N20 2.667443 1_555
Ba5 N14 2.703081 1_555
Ba5 N10 2.934747 1_545
Ba5 N5 3.041523 1_555
Ba5 N16 3.310312 1_555
Ba6 N23 2.667443 1_556
Ba6 N13 2.703081 1_555
Ba6 N9 2.934747 1_546
Ba6 N6 3.041523 1_555
Ba6 N19 3.310312 1_555
Ba7 N22 2.667443 1_555
Ba7 N12 2.703081 1_455
Ba7 N8 2.934747 1_555
Ba7 N7 3.041523 1_555
Ba7 N18 3.310312 1_445
Ba8 N8 2.634962 1_555
Ba8 N0 2.873545 1_555
Ba8 N22 2.911227 1_565
Ba8 N14 2.958521 1_565
Ba8 N16 3.252111 1_555
Ba9 N9 2.634962 1_555
Ba9 N1 2.873545 1_555
Ba9 N23 2.911227 1_555
Ba9 N15 2.958521 1_555
Ba9 N17 3.252111 1_555
Ba10 N10 2.634962 1_555
Ba10 N2 2.873545 1_555
Ba10 N20 2.911227 1_555
Ba10 N12 2.958521 1_555
Ba10 N18 3.252111 1_555
Ba11 N11 2.634962 1_555
Ba11 N3 2.873545 1_555
Ba11 N21 2.911227 1_565
Ba11 N13 2.958521 1_565
Ba11 N19 3.252111 1_555
Ba12 N12 2.634962 1_555
Ba12 N4 2.873545 1_555
Ba12 N18 2.911227 1_545
Ba12 N10 2.958521 1_545
Ba12 N20 3.252111 1_555
Ba13 N13 2.634962 1_555
Ba13 N5 2.873545 1_555
Ba13 N19 2.911227 1_555
Ba13 N11 2.958521 1_555
Ba13 N21 3.252111 1_555
Ba14 N14 2.634962 1_555
Ba14 N6 2.873545 1_555
Ba14 N16 2.911227 1_555
Ba14 N8 2.958521 1_555
Ba14 N22 3.252111 1_555
Ba15 N15 2.634962 1_555
Ba15 N7 2.873545 1_555
Ba15 N17 2.911227 1_545
Ba15 N9 2.958521 1_545
Ba15 N23 3.252111 1_555
Ba16 N0 2.614923 1_555
Ba16 N15 2.753431 1_556
Ba16 N9 2.948876 1_556
Ba16 N6 2.998742 1_555
Ba16 N19 3.438895 1_555
Ba17 N1 2.614923 1_555
Ba17 N14 2.753431 1_565
Ba17 N8 2.948876 1_555
Ba17 N7 2.998742 1_565
Ba17 N18 3.438895 1_455
Ba18 N2 2.614923 1_555
Ba18 N13 2.753431 1_564
Ba18 N11 2.948876 1_554
Ba18 N4 2.998742 1_565
Ba18 N17 3.438895 1_655
Ba19 N3 2.614923 1_555
Ba19 N12 2.753431 1_555
Ba19 N10 2.948876 1_555
Ba19 N5 2.998742 1_555
Ba19 N16 3.438895 1_555
Ba20 N4 2.614923 1_555
Ba20 N11 2.753431 1_554
Ba20 N13 2.948876 1_554
Ba20 N2 2.998742 1_555
Ba20 N23 3.438895 1_555
Ba21 N5 2.614923 1_555
Ba21 N10 2.753431 1_545
Ba21 N12 2.948876 1_555
Ba21 N3 2.998742 1_545
Ba21 N22 3.438895 1_655
Ba22 N6 2.614923 1_555
Ba22 N9 2.753431 1_546
Ba22 N15 2.948876 1_556
Ba22 N0 2.998742 1_545
Ba22 N21 3.438895 1_455
Ba23 N7 2.614923 1_555
Ba23 N8 2.753431 1_555
Ba23 N14 2.948876 1_555
Ba23 N1 2.998742 1_555
Ba23 N20 3.438895 1_555
Ba24 N0 2.834170 1_555
Ba24 N3 2.834170 1_455
Ba24 N21 2.938090 1_455
Ba24 N22 2.938090 1_555
Ba25 N2 2.834170 1_545
Ba25 N1 2.834170 1_545
Ba25 N20 2.938090 1_555
Ba25 N23 2.938090 1_555
Ba26 N4 2.834170 1_455
Ba26 N7 2.834170 1_555
Ba26 N18 2.938090 1_455
Ba26 N17 2.938090 1_555
Ba27 N5 2.834170 1_565
Ba27 N6 2.834170 1_565
Ba27 N19 2.938090 1_555
Ba27 N16 2.938090 1_555
N0 Sn0 2.159843 1_555
N1 Sn1 2.159843 1_555
N2 Sn1 2.159843 1_555
N3 Sn0 2.159843 1_655
N4 Sn2 2.159843 1_655
N5 Sn3 2.159843 1_555
N6 Sn3 2.159843 1_555
N7 Sn2 2.159843 1_555
N16 Sn3 2.134674 1_555
N17 Sn2 2.134674 1_565
N18 Sn2 2.134674 1_665
N19 Sn3 2.134674 1_555
N20 Sn1 2.134674 1_555
N21 Sn0 2.134674 1_645
N22 Sn0 2.134674 1_545
N23 Sn1 2.134674 1_555
