# generated using pymatgen
data_K3IrF6
_symmetry_space_group_name_H-M   'P 1'
_cell_length_a   6.73008574
_cell_length_b   8.22063224
_cell_length_c   6.70689373
_cell_angle_alpha   127.96308225
_cell_angle_beta   76.79500855
_cell_angle_gamma   111.82476484
_symmetry_Int_Tables_number   1
_chemical_formula_structural   K3IrF6
_chemical_formula_sum   'K3 Ir1 F6'
_cell_volume   271.58013068
_cell_formula_units_Z   1
loop_
 _symmetry_equiv_pos_site_id
 _symmetry_equiv_pos_as_xyz
  1  'x, y, z'
loop_
 _atom_site_type_symbol
 _atom_site_label
 _atom_site_symmetry_multiplicity
 _atom_site_fract_x
 _atom_site_fract_y
 _atom_site_fract_z
 _atom_site_occupancy
  K  K0  1  0.50000000  0.00000000  0.00000000  1
  K  K1  1  0.00000000  0.50000000  0.50000000  1
  K  K2  1  0.00000000  0.00000000  0.50000000  1
  Ir  Ir0  1  0.00000000  0.00000000  0.00000000  1
  F  F0  1  0.77345900  0.05427100  0.27958900  1
  F  F1  1  0.22654100  0.94572900  0.72041100  1
  F  F2  1  0.78229200  0.77857400  0.70971100  1
  F  F3  1  0.21770800  0.22142600  0.29028900  1
  F  F4  1  0.06888600  0.77562700  0.99756300  1
  F  F5  1  0.93111400  0.22437300  0.00243700  1
loop_
_geom_bond_atom_site_label_1
_geom_bond_atom_site_label_2
_geom_bond_distance
_geom_bond_site_symmetry_2
F0 Ir0 2.051867 1_655
F0 K0 2.653173 1_555
F0 K2 2.656265 1_655
F0 K1 2.854426 1_655
F1 Ir0 2.051867 1_566
F1 K0 2.653173 1_566
F1 K2 2.656265 1_565
F1 K1 2.854426 1_555
F2 Ir0 2.052030 1_666
F2 K1 2.638169 1_655
F2 K0 2.689725 1_566
F2 K2 2.768338 1_665
F3 Ir0 2.052030 1_555
F3 K1 2.638169 1_555
F3 K0 2.689725 1_555
F3 K2 2.768338 1_555
F4 Ir0 2.052461 1_566
F4 K1 2.666123 1_555
F4 K2 2.692137 1_566
F4 K0 2.797523 1_566
F5 Ir0 2.052461 1_655
F5 K1 2.666123 1_655
F5 K2 2.692137 1_654
F5 K0 2.797523 1_555
