# generated using pymatgen
data_Ba2LiLaCu3O7
_symmetry_space_group_name_H-M   'P 1'
_cell_length_a   3.94928200
_cell_length_b   3.94477800
_cell_length_c   12.81756500
_cell_angle_alpha   90.00000000
_cell_angle_beta   90.00000000
_cell_angle_gamma   90.00000000
_symmetry_Int_Tables_number   1
_chemical_formula_structural   Ba2LiLaCu3O7
_chemical_formula_sum   'Ba2 Li1 La1 Cu3 O7'
_cell_volume   199.68536744
_cell_formula_units_Z   1
loop_
 _symmetry_equiv_pos_site_id
 _symmetry_equiv_pos_as_xyz
  1  'x, y, z'
loop_
 _atom_site_type_symbol
 _atom_site_label
 _atom_site_symmetry_multiplicity
 _atom_site_fract_x
 _atom_site_fract_y
 _atom_site_fract_z
 _atom_site_occupancy
  Ba  Ba0  1  0.50000000  0.50000000  0.87974000  1
  Ba  Ba1  1  0.50000000  0.50000000  0.17378000  1
  Li  Li0  1  0.50000000  0.50000000  0.66621100  1
  La  La0  1  0.50000000  0.50000000  0.46703600  1
  Cu  Cu0  1  0.00000000  0.00000000  0.64877600  1
  Cu  Cu1  1  0.00000000  0.00000000  0.34326200  1
  Cu  Cu2  1  0.00000000  0.00000000  0.02211600  1
  O  O0  1  0.50000000  0.00000000  0.60391400  1
  O  O1  1  0.00000000  0.50000000  0.60548400  1
  O  O2  1  0.50000000  0.00000000  0.34869500  1
  O  O3  1  0.00000000  0.50000000  0.34912300  1
  O  O4  1  0.00000000  0.50000000  0.03454500  1
  O  O5  1  0.50000000  0.00000000  0.03427500  1
  O  O6  1  0.00000000  0.00000000  0.81215300  1
loop_
_geom_bond_atom_site_label_1
_geom_bond_atom_site_label_2
_geom_bond_distance
_geom_bond_site_symmetry_2
Ba0 Li0 2.736922 1_555
Ba0 O5 2.795306 1_566
Ba0 O5 2.795306 1_556
Ba0 O4 2.799348 1_656
Ba0 O4 2.799348 1_556
Ba0 O6 2.922328 1_655
Ba0 O6 2.922328 1_555
Ba0 O6 2.922328 1_565
Ba0 O6 2.922328 1_665
Ba1 O4 2.661615 1_655
Ba1 O4 2.661615 1_555
Ba1 O5 2.662268 1_555
Ba1 O5 2.662268 1_565
Ba1 O2 2.986103 1_555
Ba1 O2 2.986103 1_565
Ba1 O3 2.991710 1_655
Ba1 O3 2.991710 1_555
Li0 O1 2.122515 1_655
Li0 O1 2.122515 1_555
Li0 O0 2.127890 1_555
Li0 O0 2.127890 1_565
La0 O3 2.486646 1_555
La0 O3 2.486646 1_655
La0 O2 2.488199 1_555
La0 O2 2.488199 1_565
La0 O0 2.639770 1_555
La0 O0 2.639770 1_565
La0 O1 2.654862 1_555
La0 O1 2.654862 1_655
Cu0 O1 2.048958 1_555
Cu0 O1 2.048958 1_545
Cu0 O0 2.056662 1_555
Cu0 O0 2.056662 1_455
Cu0 O6 2.094095 1_555
Cu1 O3 1.973819 1_555
Cu1 O3 1.973819 1_545
Cu1 O2 1.975869 1_555
Cu1 O2 1.975869 1_455
Cu2 O4 1.978812 1_545
Cu2 O4 1.978812 1_555
Cu2 O5 1.980782 1_455
Cu2 O5 1.980782 1_555
Cu2 O6 2.691214 1_554
