# generated using pymatgen
data_Cs3TlNi3F10
_symmetry_space_group_name_H-M   'P 1'
_cell_length_a   7.89004835
_cell_length_b   7.89004835
_cell_length_c   13.85949819
_cell_angle_alpha   89.75441240
_cell_angle_beta   89.75441240
_cell_angle_gamma   45.94442845
_symmetry_Int_Tables_number   1
_chemical_formula_structural   Cs3TlNi3F10
_chemical_formula_sum   'Cs6 Tl2 Ni6 F20'
_cell_volume   620.05334011
_cell_formula_units_Z   2
loop_
 _symmetry_equiv_pos_site_id
 _symmetry_equiv_pos_as_xyz
  1  'x, y, z'
loop_
 _atom_site_type_symbol
 _atom_site_label
 _atom_site_symmetry_multiplicity
 _atom_site_fract_x
 _atom_site_fract_y
 _atom_site_fract_z
 _atom_site_occupancy
  Cs  Cs0  1  0.95232700  0.95232700  0.63944400  1
  Cs  Cs1  1  0.04767300  0.04767300  0.36055600  1
  Cs  Cs2  1  0.54720700  0.54720700  0.13997100  1
  Cs  Cs3  1  0.45279300  0.45279300  0.86002900  1
  Cs  Cs4  1  0.75545700  0.75545700  0.88866000  1
  Cs  Cs5  1  0.24454300  0.24454300  0.11134000  1
  Tl  Tl0  1  0.74909300  0.74909300  0.38910100  1
  Tl  Tl1  1  0.25090700  0.25090700  0.61089900  1
  Ni  Ni0  1  0.61937000  0.61937000  0.65288800  1
  Ni  Ni1  1  0.38063000  0.38063000  0.34711200  1
  Ni  Ni2  1  0.88112500  0.88112500  0.15398900  1
  Ni  Ni3  1  0.11887500  0.11887500  0.84601100  1
  Ni  Ni4  1  0.50000000  0.50000000  0.50000000  1
  Ni  Ni5  1  0.00000000  0.00000000  0.00000000  1
  F  F0  1  0.38493800  0.81661700  0.53832700  1
  F  F1  1  0.18338300  0.61506200  0.46167300  1
  F  F2  1  0.68597000  0.11589300  0.03852100  1
  F  F3  1  0.88410700  0.31403000  0.96147900  1
  F  F4  1  0.61506200  0.18338300  0.46167300  1
  F  F5  1  0.81661700  0.38493800  0.53832700  1
  F  F6  1  0.31403000  0.88410700  0.96147900  1
  F  F7  1  0.11589300  0.68597000  0.03852100  1
  F  F8  1  0.75368900  0.75368900  0.64715400  1
  F  F9  1  0.24631100  0.24631100  0.35284600  1
  F  F10  1  0.74670900  0.74670900  0.14912600  1
  F  F11  1  0.25329100  0.25329100  0.85087400  1
  F  F12  1  0.36363300  0.86602900  0.74894100  1
  F  F13  1  0.13397100  0.63636700  0.25105900  1
  F  F14  1  0.63636700  0.13397100  0.25105900  1
  F  F15  1  0.86602900  0.36363300  0.74894100  1
  F  F16  1  0.97401600  0.97401600  0.85593800  1
  F  F17  1  0.02598400  0.02598400  0.14406200  1
  F  F18  1  0.52638700  0.52638700  0.35666900  1
  F  F19  1  0.47361300  0.47361300  0.64333100  1
loop_
_geom_bond_atom_site_label_1
_geom_bond_atom_site_label_2
_geom_bond_distance
_geom_bond_site_symmetry_2
Cs0 F8 2.887421 1_555
Cs0 F16 3.018458 1_555
Cs0 F19 3.095349 1_655
Cs0 F19 3.095349 1_565
Cs0 F5 3.106497 1_565
Cs0 F0 3.106497 1_655
Cs0 F4 3.121874 1_565
Cs0 F1 3.121874 1_655
Cs0 F15 3.202888 1_565
Cs0 F12 3.202888 1_655
Cs1 F9 2.887421 1_555
Cs1 F17 3.018458 1_555
Cs1 F18 3.095349 1_455
Cs1 F18 3.095349 1_545
Cs1 F1 3.106497 1_545
Cs1 F4 3.106497 1_455
Cs1 F0 3.121874 1_545
Cs1 F5 3.121874 1_455
Cs1 F14 3.202888 1_455
Cs1 F13 3.202888 1_545
Cs2 F10 2.901860 1_555
Cs2 F18 3.017118 1_555
Cs2 F17 3.095257 1_565
Cs2 F17 3.095257 1_655
Cs2 F7 3.098853 1_555
Cs2 F2 3.098853 1_555
Cs2 F3 3.122787 1_554
Cs2 F6 3.122787 1_554
Cs2 F14 3.205045 1_555
Cs2 F13 3.205045 1_555
Cs3 F11 2.901860 1_555
Cs3 F19 3.017118 1_555
Cs3 F16 3.095257 1_455
Cs3 F16 3.095257 1_545
Cs3 F6 3.098853 1_555
Cs3 F3 3.098853 1_555
Cs3 F7 3.122787 1_556
Cs3 F2 3.122787 1_556
Cs3 F12 3.205045 1_555
Cs3 F15 3.205045 1_555
Cs4 F6 3.039966 1_555
Cs4 F3 3.039966 1_555
Cs4 F11 3.123762 1_565
Cs4 F11 3.123762 1_655
Cs4 F16 3.205497 1_555
Cs4 F15 3.217809 1_555
Cs4 F12 3.217809 1_555
Cs4 F7 3.251855 1_656
Cs4 F2 3.251855 1_566
Cs4 F8 3.347370 1_555
Cs4 F10 3.611573 1_556
Cs5 F2 3.039966 1_555
Cs5 F7 3.039966 1_555
Cs5 F10 3.123762 1_545
Cs5 F10 3.123762 1_455
Cs5 F17 3.205497 1_555
Cs5 F13 3.217809 1_555
Cs5 F14 3.217809 1_555
Cs5 F3 3.251855 1_454
Cs5 F6 3.251855 1_544
Cs5 F9 3.347370 1_555
Cs5 F11 3.611573 1_554
F0 Ni4 2.049440 1_555
F0 Ni0 2.089250 1_555
F1 Ni4 2.049440 1_555
F1 Ni1 2.089250 1_555
F2 Ni5 2.025397 1_655
F2 Ni2 2.095771 1_545
F3 Ni5 2.025397 1_656
F3 Ni3 2.095771 1_655
F4 Ni4 2.049440 1_555
F4 Ni1 2.089250 1_555
F5 Ni4 2.049440 1_555
F5 Ni0 2.089250 1_555
F6 Ni5 2.025397 1_566
F6 Ni3 2.095771 1_565
F7 Ni5 2.025397 1_565
F7 Ni2 2.095771 1_455
F8 Ni0 1.952721 1_555
F9 Ni1 1.952721 1_555
F10 Ni2 1.954358 1_555
F11 Ni3 1.954358 1_555
F12 Ni3 2.040120 1_565
F12 Ni0 2.041848 1_555
F13 Ni2 2.040120 1_455
F13 Ni1 2.041848 1_555
F14 Ni2 2.040120 1_545
F14 Ni1 2.041848 1_555
F15 Ni3 2.040120 1_655
F15 Ni0 2.041848 1_555
F16 Ni5 2.033729 1_666
F16 Ni3 2.108458 1_665
F17 Ni5 2.033729 1_555
F17 Ni2 2.108458 1_445
F18 Ni4 2.021397 1_555
F18 Ni1 2.122405 1_555
F19 Ni4 2.021397 1_555
F19 Ni0 2.122405 1_555
