# generated using pymatgen
data_Li3MnCoO5
_symmetry_space_group_name_H-M   'P 1'
_cell_length_a   7.81370316
_cell_length_b   7.81370316
_cell_length_c   8.24929937
_cell_angle_alpha   74.72207613
_cell_angle_beta   74.72207613
_cell_angle_gamma   21.53792509
_symmetry_Int_Tables_number   1
_chemical_formula_structural   Li3MnCoO5
_chemical_formula_sum   'Li6 Mn2 Co2 O10'
_cell_volume   178.12394206
_cell_formula_units_Z   2
loop_
 _symmetry_equiv_pos_site_id
 _symmetry_equiv_pos_as_xyz
  1  'x, y, z'
loop_
 _atom_site_type_symbol
 _atom_site_label
 _atom_site_symmetry_multiplicity
 _atom_site_fract_x
 _atom_site_fract_y
 _atom_site_fract_z
 _atom_site_occupancy
  Li  Li0  1  0.80600700  0.80600700  0.09935600  1
  Li  Li1  1  0.00000000  0.00000000  0.50000000  1
  Li  Li2  1  0.19399300  0.19399300  0.90064400  1
  Li  Li3  1  0.40033000  0.40033000  0.28757800  1
  Li  Li4  1  0.59967000  0.59967000  0.71242200  1
  Li  Li5  1  0.00000000  0.00000000  0.00000000  1
  Mn  Mn0  1  0.40207900  0.40207900  0.80834000  1
  Mn  Mn1  1  0.59792100  0.59792100  0.19166000  1
  Co  Co0  1  0.80156400  0.80156400  0.59685700  1
  Co  Co1  1  0.19843600  0.19843600  0.40314300  1
  O  O0  1  0.98817300  0.98817300  0.75416500  1
  O  O1  1  0.18818900  0.18818900  0.16236700  1
  O  O2  1  0.39402200  0.39402200  0.56390200  1
  O  O3  1  0.60269700  0.60269700  0.96823800  1
  O  O4  1  0.79517600  0.79517600  0.35778100  1
  O  O5  1  0.60597800  0.60597800  0.43609800  1
  O  O6  1  0.81181100  0.81181100  0.83763300  1
  O  O7  1  0.01182700  0.01182700  0.24583500  1
  O  O8  1  0.20482400  0.20482400  0.64221900  1
  O  O9  1  0.39730300  0.39730300  0.03176200  1
loop_
_geom_bond_atom_site_label_1
_geom_bond_atom_site_label_2
_geom_bond_distance
_geom_bond_site_symmetry_2
Li0 O9 1.996919 1_655
Li0 O9 1.996919 1_565
Li0 O4 2.093363 1_555
Li0 O6 2.136856 1_554
Li0 O1 2.273544 1_655
Li0 O1 2.273544 1_565
Li1 O0 2.055438 1_445
Li1 O7 2.055438 1_555
Li1 O5 2.143934 1_545
Li1 O2 2.143934 1_455
Li1 O2 2.143934 1_545
Li1 O5 2.143934 1_455
Li2 O3 1.996919 1_545
Li2 O3 1.996919 1_455
Li2 O8 2.093363 1_555
Li2 O1 2.136856 1_556
Li2 O6 2.273544 1_545
Li2 O6 2.273544 1_455
Li3 O9 2.123239 1_555
Li3 O4 2.138110 1_455
Li3 O4 2.138110 1_545
Li3 O7 2.205431 1_655
Li3 O7 2.205431 1_565
Li3 O2 2.255434 1_555
Li4 O3 2.123239 1_555
Li4 O8 2.138110 1_655
Li4 O8 2.138110 1_565
Li4 O0 2.205431 1_545
Li4 O0 2.205431 1_455
Li4 O5 2.255434 1_555
Li5 O7 2.084022 1_555
Li5 O0 2.084022 1_444
Li5 O3 2.112898 1_454
Li5 O3 2.112898 1_544
Li5 O9 2.112898 1_455
Li5 O9 2.112898 1_545
Mn0 O9 1.824776 1_556
Mn0 O0 1.939427 1_455
Mn0 O0 1.939427 1_545
Mn0 O6 1.982618 1_545
Mn0 O6 1.982618 1_455
Mn0 O2 2.053081 1_555
Mn1 O3 1.824776 1_554
Mn1 O7 1.939427 1_565
Mn1 O7 1.939427 1_655
Mn1 O1 1.982618 1_655
Mn1 O1 1.982618 1_565
Mn1 O5 2.053081 1_555
Co0 O4 2.000746 1_555
Co0 O2 2.003308 1_655
Co0 O2 2.003308 1_565
Co0 O6 2.034082 1_555
Co0 O8 2.044304 1_565
Co0 O8 2.044304 1_655
Co1 O8 2.000746 1_555
Co1 O5 2.003308 1_545
Co1 O5 2.003308 1_455
Co1 O1 2.034082 1_555
Co1 O4 2.044304 1_545
Co1 O4 2.044304 1_455
