# generated using pymatgen
data_Re2MoSe4
_symmetry_space_group_name_H-M   'P 1'
_cell_length_a   6.73161786
_cell_length_b   6.72947420
_cell_length_c   6.73398488
_cell_angle_alpha   93.24509120
_cell_angle_beta   93.71242598
_cell_angle_gamma   93.73500155
_symmetry_Int_Tables_number   1
_chemical_formula_structural   Re2MoSe4
_chemical_formula_sum   'Re4 Mo2 Se8'
_cell_volume   303.19728636
_cell_formula_units_Z   2
loop_
 _symmetry_equiv_pos_site_id
 _symmetry_equiv_pos_as_xyz
  1  'x, y, z'
loop_
 _atom_site_type_symbol
 _atom_site_label
 _atom_site_symmetry_multiplicity
 _atom_site_fract_x
 _atom_site_fract_y
 _atom_site_fract_z
 _atom_site_occupancy
  Re  Re0  1  0.54753147  0.41295354  0.24107266  1
  Re  Re1  1  0.76052817  0.45434943  0.58857555  1
  Re  Re2  1  0.58537107  0.76134124  0.45140565  1
  Re  Re3  1  0.45154909  0.58748441  0.76078031  1
  Mo  Mo0  1  0.23783589  0.54413380  0.41162123  1
  Mo  Mo1  1  0.41189498  0.23867877  0.54900053  1
  Se  Se0  1  0.37544877  0.72703551  0.12175255  1
  Se  Se1  1  0.12271134  0.37351307  0.73325201  1
  Se  Se2  1  0.73490404  0.12708593  0.37395483  1
  Se  Se3  1  0.62555147  0.27529629  0.87916157  1
  Se  Se4  1  0.87161429  0.62674515  0.27241516  1
  Se  Se5  1  0.27366468  0.87312664  0.62283517  1
  Se  Se6  1  0.21801512  0.21191552  0.21112801  1
  Se  Se7  1  0.78337964  0.78633870  0.78304475  1
loop_
_geom_bond_atom_site_label_1
_geom_bond_atom_site_label_2
_geom_bond_distance
_geom_bond_site_symmetry_2
Re0 Se6 2.512266 1_555
Re0 Se4 2.524060 1_555
Re0 Se2 2.541116 1_555
Re0 Se0 2.616400 1_555
Re0 Se3 2.654618 1_554
Re1 Se7 2.515504 1_555
Re1 Se3 2.541861 1_555
Re1 Se2 2.554713 1_555
Re1 Se4 2.609712 1_555
Re1 Re3 2.628881 1_555
Re1 Se1 2.667304 1_655
Re2 Se7 2.516974 1_555
Re2 Se4 2.527965 1_555
Re2 Se0 2.543877 1_555
Re2 Se5 2.592752 1_555
Re2 Re3 2.627211 1_555
Re2 Se2 2.689543 1_565
Re3 Se7 2.519397 1_555
Re3 Se5 2.519863 1_555
Re3 Se1 2.551306 1_555
Re3 Se3 2.609672 1_555
Re3 Se0 2.649252 1_556
Mo0 Se6 2.536702 1_555
Mo0 Se5 2.551904 1_555
Mo0 Se0 2.557517 1_555
Mo0 Mo1 2.615857 1_555
Mo0 Re0 2.622882 1_555
Mo0 Se1 2.644396 1_555
Mo0 Re2 2.666541 1_555
Mo0 Re3 2.666965 1_555
Mo0 Se4 2.683956 1_455
Mo1 Se6 2.539862 1_555
Mo1 Se3 2.559310 1_555
Mo1 Se1 2.562762 1_555
Mo1 Re0 2.624843 1_555
Mo1 Se5 2.657949 1_545
Mo1 Re3 2.665498 1_555
Mo1 Re1 2.667709 1_555
Mo1 Se2 2.669407 1_555
