# generated using pymatgen
data_Mg5Si6
_symmetry_space_group_name_H-M   'P 1'
_cell_length_a   16.80035177
_cell_length_b   16.80035177
_cell_length_c   5.86562455
_cell_angle_alpha   80.46081326
_cell_angle_beta   80.46081326
_cell_angle_gamma   13.89880942
_symmetry_Int_Tables_number   1
_chemical_formula_structural   Mg5Si6
_chemical_formula_sum   'Mg10 Si12'
_cell_volume   392.10285680
_cell_formula_units_Z   2
loop_
 _symmetry_equiv_pos_site_id
 _symmetry_equiv_pos_as_xyz
  1  'x, y, z'
loop_
 _atom_site_type_symbol
 _atom_site_label
 _atom_site_symmetry_multiplicity
 _atom_site_fract_x
 _atom_site_fract_y
 _atom_site_fract_z
 _atom_site_occupancy
  Mg  Mg0  1  0.25393900  0.25393900  0.97656400  1
  Mg  Mg1  1  0.98537700  0.98537700  0.77616900  1
  Mg  Mg2  1  0.42981600  0.42981600  0.58270500  1
  Mg  Mg3  1  0.08214600  0.08214600  0.35966700  1
  Mg  Mg4  1  0.71061500  0.71061500  0.27933600  1
  Mg  Mg5  1  0.79686700  0.79686700  0.67193200  1
  Mg  Mg6  1  0.43429900  0.43429900  0.07617400  1
  Mg  Mg7  1  0.52387800  0.52387800  0.17466500  1
  Mg  Mg8  1  0.70105200  0.70105200  0.77505400  1
  Mg  Mg9  1  0.80694300  0.80694300  0.18003300  1
  Si  Si0  1  0.25191300  0.25191300  0.47946000  1
  Si  Si1  1  0.16387100  0.16387100  0.51886900  1
  Si  Si2  1  0.54202500  0.54202500  0.66474900  1
  Si  Si3  1  0.96790600  0.96790600  0.29843700  1
  Si  Si4  1  0.34391100  0.34391100  0.86099100  1
  Si  Si5  1  0.16349000  0.16349000  0.09718700  1
  Si  Si6  1  0.62050400  0.62050400  0.64394500  1
  Si  Si7  1  0.88902900  0.88902900  0.32370200  1
  Si  Si8  1  0.34739800  0.34739800  0.43403400  1
  Si  Si9  1  0.06663700  0.06663700  0.86809400  1
  Si  Si10  1  0.62078500  0.62078500  0.05440900  1
  Si  Si11  1  0.88809100  0.88809100  0.89651400  1
loop_
_geom_bond_atom_site_label_1
_geom_bond_atom_site_label_2
_geom_bond_distance
_geom_bond_site_symmetry_2
Mg0 Mg4 2.918417 1_546
Mg0 Mg4 2.918417 1_456
Mg0 Mg5 2.919015 1_455
Mg0 Mg5 2.919015 1_545
Mg0 Si0 2.927865 1_555
Mg0 Si0 2.939273 1_556
Mg0 Si4 2.964081 1_555
Mg0 Si5 2.981462 1_556
Mg0 Mg8 3.055627 1_545
Mg0 Mg8 3.055627 1_455
Mg0 Mg9 3.063701 1_546
Mg0 Mg9 3.063701 1_456
Mg1 Si2 2.777898 1_565
Mg1 Si2 2.777898 1_655
Mg1 Si9 2.850369 1_665
Mg1 Si3 2.955858 1_555
Mg1 Si3 3.021276 1_556
Mg1 Mg2 3.091298 1_565
Mg1 Mg2 3.091298 1_655
Mg1 Si11 3.203533 1_555
Mg2 Si3 2.796236 1_545
Mg2 Si3 2.796236 1_455
Mg2 Mg6 2.923187 1_556
Mg2 Si11 2.932840 1_545
Mg2 Si11 2.932840 1_455
Mg2 Mg6 2.949844 1_555
Mg2 Si7 2.996790 1_545
Mg2 Si7 2.996790 1_455
Mg2 Si8 3.019547 1_555
Mg2 Si4 3.051648 1_555
Mg3 Si10 2.868513 1_455
Mg3 Si10 2.868513 1_545
Mg3 Si2 2.885382 1_545
Mg3 Si2 2.885382 1_455
Mg3 Si5 2.887344 1_555
Mg3 Si9 2.940452 1_555
Mg3 Si9 3.013220 1_554
Mg3 Si1 3.025253 1_555
Mg3 Si6 3.043280 1_545
Mg3 Si6 3.043280 1_455
Mg3 Mg7 3.129015 1_545
Mg3 Mg7 3.129015 1_455
Mg4 Si1 2.793809 1_565
Mg4 Si1 2.793809 1_655
Mg4 Si0 2.819066 1_655
Mg4 Si0 2.819066 1_565
Mg4 Mg8 2.871717 1_555
Mg4 Si5 2.881798 1_565
Mg4 Si5 2.881798 1_655
Mg4 Mg8 3.027557 1_554
Mg4 Mg9 3.168154 1_555
Mg5 Mg9 2.848526 1_555
Mg5 Si8 2.852099 1_565
Mg5 Si8 2.852099 1_655
Mg5 Si0 2.867038 1_655
Mg5 Si0 2.867038 1_565
Mg5 Si4 2.899103 1_565
Mg5 Si4 2.899103 1_655
Mg5 Mg9 3.054463 1_556
Mg5 Mg8 3.151756 1_555
Mg6 Si3 2.752460 1_545
Mg6 Si3 2.752460 1_455
Mg6 Si7 2.790678 1_545
Mg6 Si7 2.790678 1_455
Mg6 Si11 2.856595 1_454
Mg6 Si11 2.856595 1_544
Mg7 Si3 2.773397 1_545
Mg7 Si3 2.773397 1_455
Mg7 Si9 2.922886 1_564
Mg7 Si9 2.922886 1_654
Mg7 Si2 2.950901 1_554
Mg7 Si2 3.034950 1_555
Mg7 Si10 3.191167 1_555
Mg8 Si10 2.896152 1_556
Mg8 Si5 2.912283 1_566
Mg8 Si5 2.912283 1_656
Mg8 Si6 2.915308 1_555
Mg8 Si1 2.924067 1_655
Mg8 Si1 2.924067 1_565
Mg8 Si0 3.005642 1_565
Mg8 Si0 3.005642 1_655
Mg9 Si4 2.895500 1_654
Mg9 Si4 2.895500 1_564
Mg9 Si11 2.930595 1_554
Mg9 Si8 2.973823 1_565
Mg9 Si8 2.973823 1_655
Mg9 Si7 2.996089 1_555
Mg9 Si0 3.083697 1_565
Mg9 Si0 3.083697 1_655
Si1 Si5 2.475582 1_555
Si1 Si6 2.531424 1_455
Si1 Si6 2.531424 1_545
Si2 Si9 2.560354 1_655
Si2 Si9 2.560354 1_565
Si2 Si6 2.599990 1_555
Si3 Si7 2.610204 1_555
Si4 Si8 2.487597 1_555
Si7 Si8 2.485723 1_655
Si7 Si8 2.485723 1_565
Si10 Si6 2.409210 1_554
Si10 Si5 2.518552 1_655
Si10 Si5 2.518552 1_565
Si11 Si7 2.511137 1_556
Si11 Si4 2.539550 1_565
Si11 Si4 2.539550 1_655
