# generated using pymatgen
data_CeMnSn2
_symmetry_space_group_name_H-M   'P 1'
_cell_length_a   9.33188175
_cell_length_b   9.33188175
_cell_length_c   4.78371500
_cell_angle_alpha   90.00000000
_cell_angle_beta   90.00000000
_cell_angle_gamma   151.53637774
_symmetry_Int_Tables_number   1
_chemical_formula_structural   CeMnSn2
_chemical_formula_sum   'Ce2 Mn2 Sn4'
_cell_volume   198.54475610
_cell_formula_units_Z   2
loop_
 _symmetry_equiv_pos_site_id
 _symmetry_equiv_pos_as_xyz
  1  'x, y, z'
loop_
 _atom_site_type_symbol
 _atom_site_label
 _atom_site_symmetry_multiplicity
 _atom_site_fract_x
 _atom_site_fract_y
 _atom_site_fract_z
 _atom_site_occupancy
  Ce  Ce0  1  0.61031700  0.38968300  0.75000000  1
  Ce  Ce1  1  0.38968300  0.61031700  0.25000000  1
  Mn  Mn0  1  0.81641900  0.18358100  0.75000000  1
  Mn  Mn1  1  0.18358100  0.81641900  0.25000000  1
  Sn  Sn0  1  0.95634300  0.04365700  0.75000000  1
  Sn  Sn1  1  0.04365700  0.95634300  0.25000000  1
  Sn  Sn2  1  0.24722700  0.75277300  0.75000000  1
  Sn  Sn3  1  0.75277300  0.24722700  0.25000000  1
loop_
_geom_bond_atom_site_label_1
_geom_bond_atom_site_label_2
_geom_bond_distance
_geom_bond_site_symmetry_2
Ce0 Sn2 3.376102 1_545
Ce0 Sn2 3.376102 1_655
Ce0 Sn3 3.516072 1_556
Ce0 Sn3 3.516072 1_555
Ce0 Sn1 3.526846 1_545
Ce0 Sn1 3.526846 1_546
Ce0 Sn1 3.526846 1_655
Ce0 Sn1 3.526846 1_656
Ce0 Mn1 3.569464 1_545
Ce0 Mn1 3.569464 1_546
Ce0 Mn1 3.569464 1_655
Ce0 Mn1 3.569464 1_656
Ce0 Sn0 3.608681 1_565
Ce0 Sn0 3.608681 1_455
Ce1 Sn3 3.376102 1_455
Ce1 Sn3 3.376102 1_565
Ce1 Sn2 3.516072 1_554
Ce1 Sn2 3.516072 1_555
Ce1 Sn0 3.526846 1_454
Ce1 Sn0 3.526846 1_455
Ce1 Sn0 3.526846 1_565
Ce1 Sn0 3.526846 1_564
Ce1 Mn0 3.569464 1_455
Ce1 Mn0 3.569464 1_454
Ce1 Mn0 3.569464 1_564
Ce1 Mn0 3.569464 1_565
Ce1 Sn1 3.608681 1_545
Ce1 Sn1 3.608681 1_655
Mn0 Sn0 2.531359 1_555
Mn0 Sn2 2.613473 1_655
Mn0 Sn2 2.613473 1_545
Mn0 Sn3 2.654570 1_555
Mn0 Sn3 2.654570 1_556
Mn1 Sn1 2.531359 1_555
Mn1 Sn3 2.613473 1_565
Mn1 Sn3 2.613473 1_455
Mn1 Sn2 2.654570 1_554
Mn1 Sn2 2.654570 1_555
