# generated using pymatgen
data_La3PbC
_symmetry_space_group_name_H-M   'P 1'
_cell_length_a   5.23916418
_cell_length_b   5.23915898
_cell_length_c   5.23918083
_cell_angle_alpha   90.00000000
_cell_angle_beta   90.00000000
_cell_angle_gamma   90.00000000
_symmetry_Int_Tables_number   1
_chemical_formula_structural   La3PbC
_chemical_formula_sum   'La3 Pb1 C1'
_cell_volume   143.80930044
_cell_formula_units_Z   1
loop_
 _symmetry_equiv_pos_site_id
 _symmetry_equiv_pos_as_xyz
  1  'x, y, z'
loop_
 _atom_site_type_symbol
 _atom_site_label
 _atom_site_symmetry_multiplicity
 _atom_site_fract_x
 _atom_site_fract_y
 _atom_site_fract_z
 _atom_site_occupancy
  La  La0  1  0.50000000  -0.00000000  0.50000000  1
  La  La1  1  -0.00000000  0.50000000  0.50000000  1
  La  La2  1  0.50000000  0.50000000  0.00000000  1
  Pb  Pb0  1  0.00000000  -0.00000000  -0.00000000  1
  C  C0  1  0.50000000  0.50000000  0.50000000  1
loop_
_geom_bond_atom_site_label_1
_geom_bond_atom_site_label_2
_geom_bond_distance
_geom_bond_site_symmetry_2
La0 Pb0 3.704654 1_655
La0 Pb0 3.704654 1_656
La0 Pb0 3.704654 1_555
La0 Pb0 3.704654 1_556
La1 Pb0 3.704653 1_565
La1 Pb0 3.704653 1_555
La1 Pb0 3.704653 1_556
La1 Pb0 3.704653 1_566
La2 Pb0 3.704647 1_555
La2 Pb0 3.704647 1_665
La2 Pb0 3.704647 1_655
La2 Pb0 3.704647 1_565
C0 La0 2.619579 1_555
C0 La0 2.619579 1_565
C0 La1 2.619582 1_555
C0 La1 2.619582 1_655
C0 La2 2.619590 1_555
C0 La2 2.619590 1_556
