# generated using pymatgen
data_P3Pb5BrO12
_symmetry_space_group_name_H-M   'P 1'
_cell_length_a   10.20287617
_cell_length_b   10.20287617
_cell_length_c   7.43388500
_cell_angle_alpha   90.00000000
_cell_angle_beta   90.00000000
_cell_angle_gamma   120.00000108
_symmetry_Int_Tables_number   1
_chemical_formula_structural   P3Pb5BrO12
_chemical_formula_sum   'P6 Pb10 Br2 O24'
_cell_volume   670.18036021
_cell_formula_units_Z   2
loop_
 _symmetry_equiv_pos_site_id
 _symmetry_equiv_pos_as_xyz
  1  'x, y, z'
loop_
 _atom_site_type_symbol
 _atom_site_label
 _atom_site_symmetry_multiplicity
 _atom_site_fract_x
 _atom_site_fract_y
 _atom_site_fract_z
 _atom_site_occupancy
  P  P0  1  0.96461900  0.58964800  0.74992300  1
  P  P1  1  0.41035200  0.37497000  0.74992300  1
  P  P2  1  0.62503000  0.03538100  0.74992300  1
  P  P3  1  0.03538100  0.41035200  0.24992300  1
  P  P4  1  0.58964800  0.62503000  0.24992300  1
  P  P5  1  0.37497000  0.96461900  0.24992300  1
  Pb  Pb0  1  0.74645000  0.73808200  0.74930000  1
  Pb  Pb1  1  0.26191800  0.00836700  0.74930000  1
  Pb  Pb2  1  0.99163300  0.25355000  0.74930000  1
  Pb  Pb3  1  0.25355000  0.26191800  0.24930000  1
  Pb  Pb4  1  0.73808200  0.99163300  0.24930000  1
  Pb  Pb5  1  0.00836700  0.74645000  0.24930000  1
  Pb  Pb6  1  0.33333300  0.66666700  0.50371900  1
  Pb  Pb7  1  0.66666700  0.33333300  0.00371900  1
  Pb  Pb8  1  0.66666700  0.33333300  0.49618100  1
  Pb  Pb9  1  0.33333300  0.66666700  0.99618100  1
  Br  Br0  1  0.00000000  0.00000000  0.99039500  1
  Br  Br1  1  0.00000000  0.00000000  0.49039500  1
  O  O0  1  0.90866500  0.63770600  0.58075800  1
  O  O1  1  0.36229400  0.27096000  0.58075800  1
  O  O2  1  0.72904000  0.09133500  0.58075800  1
  O  O3  1  0.09133500  0.36229400  0.08075800  1
  O  O4  1  0.63770600  0.72904000  0.08075800  1
  O  O5  1  0.27096000  0.90866500  0.08075800  1
  O  O6  1  0.09179400  0.36274700  0.41896300  1
  O  O7  1  0.63725300  0.72904700  0.41896300  1
  O  O8  1  0.27095300  0.90820600  0.41896300  1
  O  O9  1  0.90820600  0.63725300  0.91896300  1
  O  O10  1  0.36274700  0.27095300  0.91896300  1
  O  O11  1  0.72904700  0.09179400  0.91896300  1
  O  O12  1  0.87861200  0.41038800  0.74990400  1
  O  O13  1  0.58961200  0.46822400  0.74990400  1
  O  O14  1  0.53177600  0.12138800  0.74990400  1
  O  O15  1  0.12138800  0.58961200  0.24990400  1
  O  O16  1  0.41038800  0.53177600  0.24990400  1
  O  O17  1  0.46822400  0.87861200  0.24990400  1
  O  O18  1  0.13841800  0.65424300  0.75005900  1
  O  O19  1  0.34575700  0.48417500  0.75005900  1
  O  O20  1  0.51582500  0.86158200  0.75005900  1
  O  O21  1  0.86158200  0.34575700  0.25005900  1
  O  O22  1  0.65424300  0.51582500  0.25005900  1
  O  O23  1  0.48417500  0.13841800  0.25005900  1
loop_
_geom_bond_atom_site_label_1
_geom_bond_atom_site_label_2
_geom_bond_distance
_geom_bond_site_symmetry_2
Br0 Pb2 3.183178 1_455
Br0 Pb0 3.183183 1_445
Br0 Pb1 3.183187 1_555
Br0 Pb5 3.259561 1_546
Br0 Pb3 3.259565 1_556
Br0 Pb4 3.259569 1_446
Br1 Pb5 3.183178 1_545
Br1 Pb3 3.183183 1_555
Br1 Pb4 3.183187 1_445
Br1 Pb2 3.259561 1_455
Br1 Pb0 3.259565 1_445
Br1 Pb1 3.259569 1_555
O0 P0 1.558110 1_555
O0 Pb0 2.655720 1_555
O0 Pb5 2.684874 1_655
O1 P1 1.558099 1_555
O1 Pb1 2.655737 1_555
O1 Pb3 2.684874 1_555
O2 P2 1.558100 1_555
O2 Pb2 2.655735 1_555
O2 Pb4 2.684874 1_545
O3 P3 1.558110 1_555
O3 Pb3 2.655720 1_555
O3 Pb2 2.684874 1_454
O4 P4 1.558099 1_555
O4 Pb4 2.655737 1_555
O4 Pb0 2.684874 1_554
O5 P5 1.558100 1_555
O5 Pb5 2.655735 1_555
O5 Pb1 2.684874 1_564
O6 P3 1.557518 1_555
O6 Pb3 2.659068 1_555
O6 Pb2 2.679077 1_455
O7 P4 1.557513 1_555
O7 Pb4 2.659076 1_555
O7 Pb0 2.679079 1_555
O8 P5 1.557513 1_555
O8 Pb5 2.659075 1_555
O8 Pb1 2.679075 1_565
O9 P0 1.557518 1_555
O9 Pb0 2.659068 1_555
O9 Pb5 2.679077 1_656
O10 P1 1.557513 1_555
O10 Pb1 2.659076 1_555
O10 Pb3 2.679079 1_556
O11 P2 1.557513 1_555
O11 Pb2 2.659075 1_555
O11 Pb4 2.679075 1_546
O12 P0 1.584364 1_555
O12 Pb2 2.394919 1_555
O12 Pb8 2.674274 1_555
O12 Pb7 2.674756 1_556
O13 P1 1.584364 1_555
O13 Pb0 2.394911 1_555
O13 Pb8 2.674281 1_555
O13 Pb7 2.674763 1_556
O14 P2 1.584373 1_555
O14 Pb1 2.394910 1_555
O14 Pb8 2.674275 1_555
O14 Pb7 2.674757 1_556
O15 P3 1.584364 1_555
O15 Pb5 2.394919 1_555
O15 Pb9 2.674274 1_554
O15 Pb6 2.674756 1_555
O16 P4 1.584364 1_555
O16 Pb3 2.394911 1_555
O16 Pb9 2.674281 1_554
O16 Pb6 2.674763 1_555
O17 P5 1.584373 1_555
O17 Pb4 2.394910 1_555
O17 Pb9 2.674275 1_554
O17 Pb6 2.674757 1_555
O18 P0 1.552450 1_455
O18 Pb9 2.658284 1_555
O18 Pb6 2.659400 1_555
O19 P1 1.552459 1_555
O19 Pb9 2.658292 1_555
O19 Pb6 2.659407 1_555
O20 P2 1.552451 1_565
O20 Pb9 2.658287 1_555
O20 Pb6 2.659403 1_555
O21 P3 1.552450 1_655
O21 Pb8 2.658284 1_555
O21 Pb7 2.659400 1_555
O22 P4 1.552459 1_555
O22 Pb8 2.658292 1_555
O22 Pb7 2.659407 1_555
O23 P5 1.552451 1_545
O23 Pb8 2.658287 1_555
O23 Pb7 2.659403 1_555
