# generated using pymatgen
data_MgH12(ClO6)2
_symmetry_space_group_name_H-M   'P 1'
_cell_length_a   6.60468500
_cell_length_b   6.57160200
_cell_length_c   14.48922819
_cell_angle_alpha   77.82496994
_cell_angle_beta   90.00000000
_cell_angle_gamma   90.00000000
_symmetry_Int_Tables_number   1
_chemical_formula_structural   MgH12(ClO6)2
_chemical_formula_sum   'Mg2 H24 Cl4 O24'
_cell_volume   614.73634417
_cell_formula_units_Z   2
loop_
 _symmetry_equiv_pos_site_id
 _symmetry_equiv_pos_as_xyz
  1  'x, y, z'
loop_
 _atom_site_type_symbol
 _atom_site_label
 _atom_site_symmetry_multiplicity
 _atom_site_fract_x
 _atom_site_fract_y
 _atom_site_fract_z
 _atom_site_occupancy
  Mg  Mg0  1  0.50000000  0.00000000  0.00000000  1
  Mg  Mg1  1  0.00000000  0.00000000  0.50000000  1
  H  H0  1  0.47884000  0.40917400  0.91790700  1
  H  H1  1  0.97884000  0.59082600  0.58209300  1
  H  H2  1  0.52116000  0.59082600  0.08209300  1
  H  H3  1  0.02116000  0.40917400  0.41790700  1
  H  H4  1  0.71338400  0.34516300  0.91770500  1
  H  H5  1  0.21338400  0.65483700  0.58229500  1
  H  H6  1  0.28661600  0.65483700  0.08229500  1
  H  H7  1  0.78661600  0.34516300  0.41770500  1
  H  H8  1  0.12405700  0.17797600  0.97277200  1
  H  H9  1  0.62405700  0.82202400  0.52722800  1
  H  H10  1  0.87594300  0.82202400  0.02722800  1
  H  H11  1  0.37594300  0.17797600  0.47277200  1
  H  H12  1  0.65437700  0.15953300  0.14407100  1
  H  H13  1  0.15437700  0.84046700  0.35592900  1
  H  H14  1  0.34562300  0.84046700  0.85592900  1
  H  H15  1  0.84562300  0.15953300  0.64407100  1
  H  H16  1  0.58767400  0.92691500  0.19294100  1
  H  H17  1  0.08767400  0.07308500  0.30705900  1
  H  H18  1  0.41232600  0.07308500  0.80705900  1
  H  H19  1  0.91232600  0.92691500  0.69294100  1
  H  H20  1  0.17640700  0.16241600  0.07945900  1
  H  H21  1  0.67640700  0.83758400  0.42054100  1
  H  H22  1  0.82359300  0.83758400  0.92054100  1
  H  H23  1  0.32359300  0.16241600  0.57945900  1
  Cl  Cl0  1  0.56160300  0.46513000  0.68785300  1
  Cl  Cl1  1  0.06160300  0.53487000  0.81214700  1
  Cl  Cl2  1  0.43839700  0.53487000  0.31214700  1
  Cl  Cl3  1  0.93839700  0.46513000  0.18785300  1
  O  O0  1  0.42103700  0.28255000  0.69143600  1
  O  O1  1  0.92103700  0.71745000  0.80856400  1
  O  O2  1  0.57896300  0.71745000  0.30856400  1
  O  O3  1  0.07896300  0.28255000  0.19143600  1
  O  O4  1  0.46698300  0.65040700  0.62276000  1
  O  O5  1  0.96698300  0.34959300  0.87724000  1
  O  O6  1  0.53301700  0.34959300  0.37724000  1
  O  O7  1  0.03301700  0.65040700  0.12276000  1
  O  O8  1  0.75555000  0.41874700  0.64089300  1
  O  O9  1  0.25555000  0.58125300  0.85910700  1
  O  O10  1  0.24445000  0.58125300  0.35910700  1
  O  O11  1  0.74445000  0.41874700  0.14089300  1
  O  O12  1  0.58007900  0.30672700  0.94717200  1
  O  O13  1  0.08007900  0.69327300  0.55282800  1
  O  O14  1  0.41992100  0.69327300  0.05282800  1
  O  O15  1  0.91992100  0.30672700  0.44717200  1
  O  O16  1  0.58815500  0.03204400  0.13357000  1
  O  O17  1  0.08815500  0.96795600  0.36643000  1
  O  O18  1  0.41184500  0.96795600  0.86643000  1
  O  O19  1  0.91184500  0.03204400  0.63357000  1
  O  O20  1  0.20865400  0.10240700  0.02473800  1
  O  O21  1  0.70865400  0.89759300  0.47526200  1
  O  O22  1  0.79134600  0.89759300  0.97526200  1
  O  O23  1  0.29134600  0.10240700  0.52473800  1
loop_
_geom_bond_atom_site_label_1
_geom_bond_atom_site_label_2
_geom_bond_distance
_geom_bond_site_symmetry_2
Mg0 O12 2.068294 1_554
Mg0 O14 2.068294 1_545
Mg0 O18 2.073820 1_544
Mg0 O16 2.073820 1_555
Mg0 O20 2.094243 1_555
Mg0 O22 2.094243 1_544
Mg1 O13 2.068294 1_545
Mg1 O15 2.068294 1_455
Mg1 O19 2.073820 1_455
Mg1 O17 2.073820 1_545
Mg1 O21 2.094243 1_445
Mg1 O23 2.094243 1_555
H0 O12 0.979661 1_555
H1 O13 0.979661 1_655
H2 O14 0.979661 1_555
H3 O15 0.979661 1_455
H4 O12 0.987812 1_555
H5 O13 0.987812 1_555
H6 O14 0.987812 1_555
H7 O15 0.987812 1_555
H8 O20 0.983879 1_556
H9 O21 0.983879 1_555
H10 O22 0.983879 1_554
H11 O23 0.983879 1_555
H12 O16 0.984955 1_555
H13 O17 0.984955 1_555
H14 O18 0.984955 1_555
H15 O19 0.984955 1_555
H16 O16 0.983178 1_565
H17 O17 0.983178 1_545
H18 O18 0.983178 1_545
H19 O19 0.983178 1_565
H20 O20 0.980508 1_555
H21 O21 0.980508 1_555
H22 O22 0.980508 1_555
H23 O23 0.980508 1_555
Cl0 O0 1.509291 1_555
Cl0 O4 1.509361 1_555
Cl0 O8 1.511360 1_555
Cl1 O1 1.509291 1_455
Cl1 O5 1.509361 1_455
Cl1 O9 1.511360 1_555
Cl2 O2 1.509291 1_555
Cl2 O6 1.509361 1_555
Cl2 O10 1.511360 1_555
Cl3 O3 1.509291 1_655
Cl3 O7 1.509361 1_655
Cl3 O11 1.511360 1_555
