# generated using pymatgen
data_SmFe12
_symmetry_space_group_name_H-M   'P 1'
_cell_length_a   4.66286800
_cell_length_b   6.45579046
_cell_length_c   6.45579046
_cell_angle_alpha   82.50608123
_cell_angle_beta   68.82987293
_cell_angle_gamma   68.82987293
_symmetry_Int_Tables_number   1
_chemical_formula_structural   SmFe12
_chemical_formula_sum   'Sm1 Fe12'
_cell_volume   168.99001144
_cell_formula_units_Z   1
loop_
 _symmetry_equiv_pos_site_id
 _symmetry_equiv_pos_as_xyz
  1  'x, y, z'
loop_
 _atom_site_type_symbol
 _atom_site_label
 _atom_site_symmetry_multiplicity
 _atom_site_fract_x
 _atom_site_fract_y
 _atom_site_fract_z
 _atom_site_occupancy
  Sm  Sm0  1  0.00000000  0.00000000  0.00000000  1
  Fe  Fe0  1  0.00000000  0.00000000  0.50000000  1
  Fe  Fe1  1  0.50000000  0.00000000  0.50000000  1
  Fe  Fe2  1  0.50000000  0.50000000  0.00000000  1
  Fe  Fe3  1  0.00000000  0.50000000  0.00000000  1
  Fe  Fe4  1  0.00000000  0.35877800  0.64122200  1
  Fe  Fe5  1  0.00000000  0.64122200  0.35877800  1
  Fe  Fe6  1  0.64122200  0.35877800  0.35877800  1
  Fe  Fe7  1  0.35877800  0.64122200  0.64122200  1
  Fe  Fe8  1  0.50000000  0.76815400  0.23184600  1
  Fe  Fe9  1  0.50000000  0.23184600  0.76815400  1
  Fe  Fe10  1  0.73184600  0.76815400  0.76815400  1
  Fe  Fe11  1  0.26815400  0.23184600  0.23184600  1
loop_
_geom_bond_atom_site_label_1
_geom_bond_atom_site_label_2
_geom_bond_distance
_geom_bond_site_symmetry_2
Fe0 Fe1 2.331434 1_455
Fe0 Fe1 2.331434 1_555
Fe0 Fe11 2.431664 1_555
Fe0 Fe9 2.431664 1_455
Fe0 Fe10 2.431664 1_445
Fe0 Fe8 2.431664 1_545
Fe0 Fe4 2.597455 1_555
Fe0 Fe5 2.597455 1_545
Fe0 Fe6 2.597455 1_455
Fe0 Fe7 2.597455 1_545
Fe0 Sm0 3.227895 1_556
Fe0 Sm0 3.227895 1_555
Fe1 Fe11 2.431664 1_555
Fe1 Fe10 2.431664 1_545
Fe1 Fe9 2.431664 1_555
Fe1 Fe8 2.431664 1_545
Fe1 Fe6 2.597455 1_555
Fe1 Fe4 2.597455 1_555
Fe1 Fe5 2.597455 1_645
Fe1 Fe7 2.597455 1_545
Fe1 Sm0 3.227895 1_556
Fe1 Sm0 3.227895 1_655
Fe2 Fe3 2.331434 1_655
Fe2 Fe3 2.331434 1_555
Fe2 Fe8 2.431664 1_555
Fe2 Fe9 2.431664 1_554
Fe2 Fe4 2.597455 1_654
Fe2 Fe6 2.597455 1_555
Fe2 Fe5 2.597455 1_555
Fe2 Fe7 2.597455 1_554
Fe2 Sm0 3.227895 1_655
Fe2 Sm0 3.227895 1_565
Fe3 Fe8 2.431664 1_455
Fe3 Fe9 2.431664 1_554
Fe3 Fe7 2.597455 1_554
Fe3 Fe5 2.597455 1_555
Fe3 Fe6 2.597455 1_455
Fe3 Fe4 2.597455 1_554
Fe3 Sm0 3.227895 1_555
Fe3 Sm0 3.227895 1_565
Fe4 Fe5 2.404647 1_555
Fe4 Fe9 2.569711 1_555
Fe4 Fe9 2.569711 1_455
Fe4 Fe6 2.885610 1_455
Fe4 Fe7 2.885610 1_455
Fe4 Fe6 2.885610 1_555
Fe4 Fe7 2.885610 1_555
Fe4 Sm0 3.054533 1_556
Fe5 Fe8 2.569711 1_555
Fe5 Fe8 2.569711 1_455
Fe5 Fe6 2.885610 1_455
Fe5 Fe7 2.885610 1_455
Fe5 Fe6 2.885610 1_555
Fe5 Fe7 2.885610 1_555
Fe5 Sm0 3.054533 1_565
Fe6 Fe7 2.404647 1_555
Fe6 Fe8 2.580234 1_555
Fe6 Fe9 2.580234 1_555
Fe6 Sm0 3.054533 1_655
Fe7 Fe9 2.580234 1_555
Fe7 Fe8 2.580234 1_555
Fe7 Sm0 3.054533 1_566
Fe8 Sm0 3.054791 1_565
Fe8 Sm0 3.054791 1_665
Fe9 Sm0 3.054791 1_556
Fe9 Sm0 3.054791 1_656
Fe10 Fe3 2.431664 1_656
Fe10 Fe2 2.431664 1_556
Fe10 Fe7 2.569711 1_655
Fe10 Fe7 2.569711 1_555
Fe10 Fe5 2.580234 1_655
Fe10 Fe4 2.580234 1_655
Fe10 Fe9 2.791474 1_565
Fe10 Fe8 2.791474 1_556
Fe10 Sm0 3.054791 1_566
Fe10 Sm0 3.054791 1_666
Fe11 Fe3 2.431664 1_555
Fe11 Fe2 2.431664 1_555
Fe11 Fe6 2.569711 1_555
Fe11 Fe6 2.569711 1_455
Fe11 Fe5 2.580234 1_555
Fe11 Fe4 2.580234 1_555
Fe11 Fe9 2.791474 1_554
Fe11 Fe8 2.791474 1_545
Fe11 Sm0 3.054791 1_655
Fe11 Sm0 3.054791 1_555
