# generated using pymatgen
data_Y2BeAlBO7
_symmetry_space_group_name_H-M   'P 1'
_cell_length_a   9.55884900
_cell_length_b   7.59853300
_cell_length_c   7.95753400
_cell_angle_alpha   90.00000000
_cell_angle_beta   90.00000000
_cell_angle_gamma   90.00000000
_symmetry_Int_Tables_number   1
_chemical_formula_structural   Y2BeAlBO7
_chemical_formula_sum   'Y8 Be4 Al4 B4 O28'
_cell_volume   577.98139382
_cell_formula_units_Z   4
loop_
 _symmetry_equiv_pos_site_id
 _symmetry_equiv_pos_as_xyz
  1  'x, y, z'
loop_
 _atom_site_type_symbol
 _atom_site_label
 _atom_site_symmetry_multiplicity
 _atom_site_fract_x
 _atom_site_fract_y
 _atom_site_fract_z
 _atom_site_occupancy
  Y  Y0  1  0.10964500  0.18832800  0.21169600  1
  Y  Y1  1  0.25892300  0.78685800  0.75701000  1
  Y  Y2  1  0.39035500  0.31167200  0.71169600  1
  Y  Y3  1  0.24107700  0.71314200  0.25701000  1
  Y  Y4  1  0.75892300  0.21314200  0.24299000  1
  Y  Y5  1  0.60964500  0.81167200  0.78830400  1
  Y  Y6  1  0.74107700  0.28685800  0.74299000  1
  Y  Y7  1  0.89035500  0.68832800  0.28830400  1
  Be  Be0  1  0.90109500  0.63612200  0.83861100  1
  Be  Be1  1  0.59890500  0.86387800  0.33861100  1
  Be  Be2  1  0.40109500  0.36387800  0.16138900  1
  Be  Be3  1  0.09890500  0.13612200  0.66138900  1
  Al  Al0  1  0.97490000  0.95911300  0.94622100  1
  Al  Al1  1  0.47490000  0.04088700  0.05377900  1
  Al  Al2  1  0.52510000  0.54088700  0.44622100  1
  Al  Al3  1  0.02510000  0.45911300  0.55377900  1
  B  B0  1  0.95034200  0.04080300  0.49231800  1
  B  B1  1  0.54965800  0.45919700  0.99231800  1
  B  B2  1  0.45034200  0.95919700  0.50768200  1
  B  B3  1  0.04965800  0.54080300  0.00768200  1
  O  O0  1  0.35765000  0.02657900  0.61998500  1
  O  O1  1  0.08779100  0.65918000  0.45964700  1
  O  O2  1  0.12286300  0.01428700  0.81973000  1
  O  O3  1  0.05970900  0.86723500  0.13429800  1
  O  O4  1  0.16215600  0.32965300  0.64273400  1
  O  O5  1  0.90553600  0.54424900  0.03433300  1
  O  O6  1  0.91522700  0.12744700  0.64033500  1
  O  O7  1  0.58477300  0.37255300  0.14033500  1
  O  O8  1  0.59446400  0.95575100  0.53433300  1
  O  O9  1  0.33784400  0.17034700  0.14273400  1
  O  O10  1  0.44029100  0.63276500  0.63429800  1
  O  O11  1  0.37713700  0.48571300  0.31973000  1
  O  O12  1  0.41220900  0.84082000  0.95964700  1
  O  O13  1  0.14235000  0.47342100  0.11998500  1
  O  O14  1  0.85765000  0.97342100  0.38001500  1
  O  O15  1  0.66215600  0.67034700  0.35726600  1
  O  O16  1  0.55970900  0.13276500  0.86570200  1
  O  O17  1  0.62286300  0.98571300  0.18027000  1
  O  O18  1  0.58779100  0.34082000  0.54035300  1
  O  O19  1  0.41522700  0.87255300  0.35966500  1
  O  O20  1  0.40553600  0.45575100  0.96566700  1
  O  O21  1  0.08477300  0.62744700  0.85966500  1
  O  O22  1  0.09446400  0.04424900  0.46566700  1
  O  O23  1  0.91220900  0.15918000  0.04035300  1
  O  O24  1  0.87713700  0.51428700  0.68027000  1
  O  O25  1  0.94029100  0.36723500  0.36570200  1
  O  O26  1  0.83784400  0.82965300  0.85726600  1
  O  O27  1  0.64235000  0.52657900  0.88001500  1
loop_
_geom_bond_atom_site_label_1
_geom_bond_atom_site_label_2
_geom_bond_distance
_geom_bond_site_symmetry_2
Be0 O24 1.580222 1_555
Be0 O26 1.596906 1_555
Be0 O5 1.707291 1_556
Be0 O21 1.764957 1_655
Be1 O17 1.580222 1_555
Be1 O15 1.596906 1_555
Be1 O8 1.707291 1_555
Be1 O19 1.764957 1_555
Be2 O11 1.580222 1_555
Be2 O9 1.596906 1_555
Be2 O20 1.707291 1_554
Be2 O7 1.764957 1_555
Be3 O2 1.580222 1_555
Be3 O4 1.596906 1_555
Be3 O22 1.707291 1_555
Be3 O6 1.764957 1_455
Al0 O26 1.784686 1_555
Al0 O2 1.785867 1_665
Al0 O23 1.797568 1_566
Al0 O3 1.839699 1_656
Al1 O9 1.784686 1_555
Al1 O17 1.785867 1_545
Al1 O12 1.797568 1_544
Al1 O16 1.839699 1_554
Al2 O15 1.784686 1_555
Al2 O11 1.785867 1_555
Al2 O18 1.797568 1_555
Al2 O10 1.839699 1_555
Al3 O4 1.784686 1_555
Al3 O24 1.785867 1_455
Al3 O1 1.797568 1_555
Al3 O25 1.839699 1_455
B0 O14 1.358608 1_545
B0 O6 1.390484 1_555
B0 O22 1.394114 1_655
B1 O27 1.358608 1_555
B1 O7 1.390484 1_556
B1 O20 1.394114 1_555
B2 O0 1.358608 1_565
B2 O19 1.390484 1_555
B2 O8 1.394114 1_555
B3 O13 1.358608 1_555
B3 O21 1.390484 1_554
B3 O5 1.394114 1_455
O0 Y2 2.307192 1_555
O0 Y1 2.323251 1_545
O1 Y3 2.217019 1_555
O1 Y7 2.338772 1_455
O2 Y1 2.219689 1_545
O3 Y3 2.308700 1_555
O3 Y7 2.443467 1_455
O3 Y0 2.561244 1_565
O4 Y2 2.253435 1_555
O5 Y7 2.303040 1_555
O6 Y6 2.214871 1_555
O7 Y4 2.214871 1_555
O8 Y5 2.303040 1_555
O9 Y0 2.253435 1_555
O10 Y1 2.308700 1_555
O10 Y5 2.443467 1_555
O10 Y2 2.561244 1_555
O11 Y3 2.219689 1_555
O12 Y1 2.217019 1_555
O12 Y5 2.338772 1_555
O13 Y0 2.307192 1_555
O13 Y3 2.323251 1_555
O14 Y7 2.307192 1_555
O14 Y4 2.323251 1_565
O15 Y7 2.253435 1_555
O16 Y6 2.308700 1_555
O16 Y2 2.443467 1_555
O16 Y5 2.561244 1_545
O17 Y4 2.219689 1_565
O18 Y6 2.217019 1_555
O18 Y2 2.338772 1_555
O19 Y3 2.214871 1_555
O20 Y2 2.303040 1_555
O21 Y1 2.214871 1_555
O22 Y0 2.303040 1_555
O23 Y4 2.217019 1_555
O23 Y0 2.338772 1_655
O24 Y6 2.219689 1_555
O25 Y4 2.308700 1_555
O25 Y0 2.443467 1_655
O25 Y7 2.561244 1_555
O26 Y5 2.253435 1_555
O27 Y5 2.307192 1_555
O27 Y6 2.323251 1_555
