# generated using pymatgen
data_TcC5ClO5
_symmetry_space_group_name_H-M   'P 1'
_cell_length_a   6.06677300
_cell_length_b   11.72893000
_cell_length_c   11.78550500
_cell_angle_alpha   90.00000000
_cell_angle_beta   90.00000000
_cell_angle_gamma   90.00000000
_symmetry_Int_Tables_number   1
_chemical_formula_structural   TcC5ClO5
_chemical_formula_sum   'Tc4 C20 Cl4 O20'
_cell_volume   838.61830177
_cell_formula_units_Z   4
loop_
 _symmetry_equiv_pos_site_id
 _symmetry_equiv_pos_as_xyz
  1  'x, y, z'
loop_
 _atom_site_type_symbol
 _atom_site_label
 _atom_site_symmetry_multiplicity
 _atom_site_fract_x
 _atom_site_fract_y
 _atom_site_fract_z
 _atom_site_occupancy
  Tc  Tc0  1  0.05083300  0.87533200  0.25000000  1
  Tc  Tc1  1  0.44916700  0.37533200  0.25000000  1
  Tc  Tc2  1  0.94916700  0.12466800  0.75000000  1
  Tc  Tc3  1  0.55083300  0.62466800  0.75000000  1
  C  C0  1  0.19105000  0.97080100  0.12853900  1
  C  C1  1  0.30895000  0.47080100  0.37146100  1
  C  C2  1  0.80895000  0.02919900  0.62853900  1
  C  C3  1  0.69105000  0.52919900  0.87146100  1
  C  C4  1  0.80895000  0.02919900  0.87146100  1
  C  C5  1  0.69105000  0.52919900  0.62853900  1
  C  C6  1  0.19105000  0.97080100  0.37146100  1
  C  C7  1  0.30895000  0.47080100  0.12853900  1
  C  C8  1  0.91670300  0.77571100  0.37139000  1
  C  C9  1  0.58329700  0.27571100  0.12861000  1
  C  C10  1  0.08329700  0.22428900  0.87139000  1
  C  C11  1  0.41670300  0.72428900  0.62861000  1
  C  C12  1  0.08329700  0.22428900  0.62861000  1
  C  C13  1  0.41670300  0.72428900  0.87139000  1
  C  C14  1  0.91670300  0.77571100  0.12861000  1
  C  C15  1  0.58329700  0.27571100  0.37139000  1
  C  C16  1  0.79540000  0.97198700  0.25000000  1
  C  C17  1  0.70460000  0.47198700  0.25000000  1
  C  C18  1  0.20460000  0.02801300  0.75000000  1
  C  C19  1  0.29540000  0.52801300  0.75000000  1
  Cl  Cl0  1  0.38141200  0.74902400  0.25000000  1
  Cl  Cl1  1  0.11858800  0.24902400  0.25000000  1
  Cl  Cl2  1  0.61858800  0.25097600  0.75000000  1
  Cl  Cl3  1  0.88141200  0.75097600  0.75000000  1
  O  O0  1  0.26471400  0.02431300  0.05594200  1
  O  O1  1  0.23528600  0.52431300  0.44405800  1
  O  O2  1  0.73528600  0.97568700  0.55594200  1
  O  O3  1  0.76471400  0.47568700  0.94405800  1
  O  O4  1  0.73528600  0.97568700  0.94405800  1
  O  O5  1  0.76471400  0.47568700  0.55594200  1
  O  O6  1  0.26471400  0.02431300  0.44405800  1
  O  O7  1  0.23528600  0.52431300  0.05594200  1
  O  O8  1  0.84074900  0.71970600  0.44126200  1
  O  O9  1  0.65925100  0.21970600  0.05873800  1
  O  O10  1  0.15925100  0.28029400  0.94126200  1
  O  O11  1  0.34074900  0.78029400  0.55873800  1
  O  O12  1  0.15925100  0.28029400  0.55873800  1
  O  O13  1  0.34074900  0.78029400  0.94126200  1
  O  O14  1  0.84074900  0.71970600  0.05873800  1
  O  O15  1  0.65925100  0.21970600  0.44126200  1
  O  O16  1  0.64207900  0.03143600  0.25000000  1
  O  O17  1  0.85792100  0.53143600  0.25000000  1
  O  O18  1  0.35792100  0.96856400  0.75000000  1
  O  O19  1  0.14207900  0.46856400  0.75000000  1
loop_
_geom_bond_atom_site_label_1
_geom_bond_atom_site_label_2
_geom_bond_distance
_geom_bond_site_symmetry_2
C0 O0 1.151386 1_565
C0 Tc0 2.006639 1_555
C1 O1 1.151386 1_555
C1 Tc1 2.006639 1_555
C2 O2 1.151386 1_545
C2 Tc2 2.006639 1_555
C3 O3 1.151386 1_555
C3 Tc3 2.006639 1_555
C4 O4 1.151386 1_545
C4 Tc2 2.006639 1_555
C5 O5 1.151386 1_555
C5 Tc3 2.006639 1_555
C6 O6 1.151386 1_565
C6 Tc0 2.006639 1_555
C7 O7 1.151386 1_555
C7 Tc1 2.006639 1_555
C8 O8 1.149755 1_555
C8 Tc0 2.018458 1_655
C9 O9 1.149755 1_555
C9 Tc1 2.018458 1_555
C10 O10 1.149755 1_555
C10 Tc2 2.018458 1_455
C11 O11 1.149755 1_555
C11 Tc3 2.018458 1_555
C12 O12 1.149755 1_555
C12 Tc2 2.018458 1_455
C13 O13 1.149755 1_555
C13 Tc3 2.018458 1_555
C14 O14 1.149755 1_555
C14 Tc0 2.018458 1_655
C15 O15 1.149755 1_555
C15 Tc1 2.018458 1_555
C16 O16 1.162495 1_565
C16 Tc0 1.920055 1_655
C17 O17 1.162495 1_555
C17 Tc1 1.920055 1_555
C18 O18 1.162495 1_545
C18 Tc2 1.920055 1_455
C19 O19 1.162495 1_555
C19 Tc3 1.920055 1_555
Cl0 Tc0 2.493379 1_555
Cl1 Tc1 2.493379 1_555
Cl2 Tc2 2.493379 1_555
Cl3 Tc3 2.493379 1_555
