# generated using pymatgen
data_BaGdNbSnO6
_symmetry_space_group_name_H-M   'P 1'
_cell_length_a   8.44589490
_cell_length_b   8.52535631
_cell_length_c   8.53588301
_cell_angle_alpha   90.00000000
_cell_angle_beta   90.00000000
_cell_angle_gamma   90.00000000
_symmetry_Int_Tables_number   1
_chemical_formula_structural   BaGdNbSnO6
_chemical_formula_sum   'Ba4 Gd4 Nb4 Sn4 O24'
_cell_volume   614.61996843
_cell_formula_units_Z   4
loop_
 _symmetry_equiv_pos_site_id
 _symmetry_equiv_pos_as_xyz
  1  'x, y, z'
loop_
 _atom_site_type_symbol
 _atom_site_label
 _atom_site_symmetry_multiplicity
 _atom_site_fract_x
 _atom_site_fract_y
 _atom_site_fract_z
 _atom_site_occupancy
  Ba  Ba0  1  0.00000000  0.00000000  0.00000000  1
  Ba  Ba1  1  0.50000000  0.50000000  0.50000000  1
  Ba  Ba2  1  0.50000000  0.50000000  0.00000000  1
  Ba  Ba3  1  -0.00000000  0.00000000  0.50000000  1
  Gd  Gd0  1  0.75000000  0.75000000  0.75000000  1
  Gd  Gd1  1  0.25000000  0.25000000  0.75000000  1
  Gd  Gd2  1  0.25000000  0.75000000  0.25000000  1
  Gd  Gd3  1  0.75000000  0.25000000  0.25000000  1
  Nb  Nb0  1  0.25000000  0.25000000  0.25000000  1
  Nb  Nb1  1  0.75000000  0.75000000  0.25000000  1
  Nb  Nb2  1  0.75000000  0.25000000  0.75000000  1
  Nb  Nb3  1  0.25000000  0.75000000  0.75000000  1
  Sn  Sn0  1  0.00000000  0.50000000  0.50000000  1
  Sn  Sn1  1  0.50000000  0.00000000  0.50000000  1
  Sn  Sn2  1  0.50000000  0.00000000  0.00000000  1
  Sn  Sn3  1  -0.00000000  0.50000000  0.00000000  1
  O  O0  1  0.01562567  0.21416032  0.27440511  1
  O  O1  1  0.98437433  0.78583968  0.27440511  1
  O  O2  1  0.98437433  0.21416032  0.72559489  1
  O  O3  1  0.01562567  0.78583968  0.72559489  1
  O  O4  1  0.28133566  0.01628131  0.20309987  1
  O  O5  1  0.28133566  0.98371869  0.79690013  1
  O  O6  1  0.71866434  0.98371869  0.20309987  1
  O  O7  1  0.71866434  0.01628131  0.79690013  1
  O  O8  1  0.21419765  0.29222027  0.01615167  1
  O  O9  1  0.78580235  0.29222027  0.98384833  1
  O  O10  1  0.21419765  0.70777973  0.98384833  1
  O  O11  1  0.78580235  0.70777973  0.01615167  1
  O  O12  1  0.48437433  0.28583968  0.22559489  1
  O  O13  1  0.51562567  0.71416032  0.22559489  1
  O  O14  1  0.51562567  0.28583968  0.77440511  1
  O  O15  1  0.48437433  0.71416032  0.77440511  1
  O  O16  1  0.21866434  0.48371869  0.29690013  1
  O  O17  1  0.21866434  0.51628131  0.70309987  1
  O  O18  1  0.78133566  0.51628131  0.29690013  1
  O  O19  1  0.78133566  0.48371869  0.70309987  1
  O  O20  1  0.28580235  0.20777973  0.48384833  1
  O  O21  1  0.71419765  0.20777973  0.51615167  1
  O  O22  1  0.28580235  0.79222027  0.51615167  1
  O  O23  1  0.71419765  0.79222027  0.48384833  1
loop_
_geom_bond_atom_site_label_1
_geom_bond_atom_site_label_2
_geom_bond_distance
_geom_bond_site_symmetry_2
Ba0 O5 2.944616 1_544
Ba0 O7 2.944616 1_454
Ba0 O6 2.944616 1_445
Ba0 O4 2.944616 1_555
Ba0 O3 2.972753 1_544
Ba0 O1 2.972753 1_445
Ba0 O0 2.972753 1_555
Ba0 O2 2.972753 1_454
Ba0 O10 3.081932 1_544
Ba0 O9 3.081932 1_454
Ba0 O8 3.081932 1_555
Ba0 O11 3.081932 1_445
Ba1 O19 2.944616 1_555
Ba1 O16 2.944616 1_555
Ba1 O17 2.944616 1_555
Ba1 O18 2.944616 1_555
Ba1 O15 2.972753 1_555
Ba1 O13 2.972753 1_555
Ba1 O12 2.972753 1_555
Ba1 O14 2.972753 1_555
Ba1 O22 3.081932 1_555
Ba1 O20 3.081932 1_555
Ba1 O23 3.081932 1_555
Ba1 O21 3.081932 1_555
Ba2 O15 2.656891 1_554
Ba2 O13 2.656891 1_555
Ba2 O12 2.656891 1_555
Ba2 O14 2.656891 1_554
Ba2 O9 2.997258 1_554
Ba2 O8 2.997258 1_555
Ba2 O10 2.997258 1_554
Ba2 O11 2.997258 1_555
Ba3 O3 2.656891 1_545
Ba3 O1 2.656891 1_445
Ba3 O0 2.656891 1_555
Ba3 O2 2.656891 1_455
Ba3 O21 2.997258 1_455
Ba3 O20 2.997258 1_555
Ba3 O23 2.997258 1_445
Ba3 O22 2.997258 1_545
Gd0 O3 2.273721 1_655
Gd0 O15 2.273721 1_555
Gd0 O11 2.319967 1_556
Gd0 O23 2.319967 1_555
Gd0 O19 2.320315 1_555
Gd0 O7 2.320315 1_565
Gd1 O2 2.273721 1_455
Gd1 O14 2.273721 1_555
Gd1 O8 2.319967 1_556
Gd1 O20 2.319967 1_555
Gd1 O5 2.320315 1_545
Gd1 O17 2.320315 1_555
Gd2 O1 2.273721 1_455
Gd2 O13 2.273721 1_555
Gd2 O22 2.319967 1_555
Gd2 O10 2.319967 1_554
Gd2 O16 2.320315 1_555
Gd2 O4 2.320315 1_565
Gd3 O0 2.273721 1_655
Gd3 O12 2.273721 1_555
Gd3 O21 2.319967 1_555
Gd3 O9 2.319967 1_554
Gd3 O18 2.320315 1_555
Gd3 O6 2.320315 1_545
Nb0 O12 2.013748 1_555
Nb0 O0 2.013748 1_555
Nb0 O16 2.049514 1_555
Nb0 O4 2.049514 1_555
Nb0 O8 2.050711 1_555
Nb0 O20 2.050711 1_555
Nb1 O1 2.013748 1_555
Nb1 O13 2.013748 1_555
Nb1 O18 2.049514 1_555
Nb1 O6 2.049514 1_555
Nb1 O23 2.050711 1_555
Nb1 O11 2.050711 1_555
Nb2 O14 2.013748 1_555
Nb2 O2 2.013748 1_555
Nb2 O19 2.049514 1_555
Nb2 O7 2.049514 1_555
Nb2 O9 2.050711 1_555
Nb2 O21 2.050711 1_555
Nb3 O3 2.013748 1_555
Nb3 O15 2.013748 1_555
Nb3 O17 2.049514 1_555
Nb3 O5 2.049514 1_555
Nb3 O22 2.050711 1_555
Nb3 O10 2.050711 1_555
O4 Sn2 2.536827 1_555
O5 Sn2 2.536827 1_566
O6 Sn2 2.536827 1_565
O7 Sn2 2.536827 1_556
O8 Sn3 2.535678 1_555
O9 Sn3 2.535678 1_656
O10 Sn3 2.535678 1_556
O11 Sn3 2.535678 1_655
O16 Sn0 2.536827 1_555
O17 Sn0 2.536827 1_555
O18 Sn0 2.536827 1_655
O19 Sn0 2.536827 1_655
O20 Sn1 2.535678 1_555
O21 Sn1 2.535678 1_555
O22 Sn1 2.535678 1_565
O23 Sn1 2.535678 1_565
