# generated using pymatgen
data_Fe(RhSe2)2
_symmetry_space_group_name_H-M   'P 1'
_cell_length_a   3.67351245
_cell_length_b   6.26576435
_cell_length_c   6.48655093
_cell_angle_alpha   115.87166079
_cell_angle_beta   73.62360700
_cell_angle_gamma   90.06467684
_symmetry_Int_Tables_number   1
_chemical_formula_structural   Fe(RhSe2)2
_chemical_formula_sum   'Fe1 Rh2 Se4'
_cell_volume   127.59760625
_cell_formula_units_Z   1
loop_
 _symmetry_equiv_pos_site_id
 _symmetry_equiv_pos_as_xyz
  1  'x, y, z'
loop_
 _atom_site_type_symbol
 _atom_site_label
 _atom_site_symmetry_multiplicity
 _atom_site_fract_x
 _atom_site_fract_y
 _atom_site_fract_z
 _atom_site_occupancy
  Fe  Fe0  1  0.72218800  0.29473200  0.51832500  1
  Rh  Rh0  1  0.24392200  0.70650000  0.46989300  1
  Rh  Rh1  1  0.97683800  0.99893200  0.00949200  1
  Se  Se0  1  0.09975200  0.54078900  0.76451500  1
  Se  Se1  1  0.86207400  0.45114800  0.23271200  1
  Se  Se2  1  0.61750400  0.02349300  0.72675200  1
  Se  Se3  1  0.34272200  0.98440600  0.27831100  1
loop_
_geom_bond_atom_site_label_1
_geom_bond_atom_site_label_2
_geom_bond_distance
_geom_bond_site_symmetry_2
Fe0 Se1 2.388201 1_555
Fe0 Se0 2.438511 1_655
Fe0 Se0 2.440415 1_555
Fe0 Se2 2.564112 1_555
Fe0 Se3 2.592982 1_545
Fe0 Se3 2.601506 1_645
Rh0 Se1 2.440928 1_455
Rh0 Se1 2.444039 1_555
Rh0 Se0 2.484057 1_555
Rh0 Se3 2.518108 1_555
Rh0 Se2 2.641325 1_465
Rh0 Se2 2.645659 1_565
Rh1 Se3 2.513109 1_655
Rh1 Se3 2.514486 1_555
Rh1 Se1 2.526036 1_565
Rh1 Se0 2.566476 1_654
Rh1 Se2 2.595719 1_664
Rh1 Se2 2.596465 1_564
