# generated using pymatgen
data_Ag3Rh
_symmetry_space_group_name_H-M   'P 1'
_cell_length_a   5.78838349
_cell_length_b   5.78838349
_cell_length_c   4.71287500
_cell_angle_alpha   90.00000000
_cell_angle_beta   90.00000000
_cell_angle_gamma   119.99999415
_symmetry_Int_Tables_number   1
_chemical_formula_structural   Ag3Rh
_chemical_formula_sum   'Ag6 Rh2'
_cell_volume   136.75120768
_cell_formula_units_Z   2
loop_
 _symmetry_equiv_pos_site_id
 _symmetry_equiv_pos_as_xyz
  1  'x, y, z'
loop_
 _atom_site_type_symbol
 _atom_site_label
 _atom_site_symmetry_multiplicity
 _atom_site_fract_x
 _atom_site_fract_y
 _atom_site_fract_z
 _atom_site_occupancy
  Ag  Ag0  1  0.16831400  0.33662900  0.25000000  1
  Ag  Ag1  1  0.66337100  0.83168600  0.25000000  1
  Ag  Ag2  1  0.16831400  0.83168600  0.25000000  1
  Ag  Ag3  1  0.83168600  0.66337100  0.75000000  1
  Ag  Ag4  1  0.33662900  0.16831400  0.75000000  1
  Ag  Ag5  1  0.83168600  0.16831400  0.75000000  1
  Rh  Rh0  1  0.33333300  0.66666700  0.75000000  1
  Rh  Rh1  1  0.66666700  0.33333300  0.25000000  1
loop_
_geom_bond_atom_site_label_1
_geom_bond_atom_site_label_2
_geom_bond_distance
_geom_bond_site_symmetry_2
Ag0 Ag2 2.865580 1_555
Ag0 Ag1 2.865580 1_555
Ag0 Rh0 2.879233 1_554
Ag0 Rh0 2.879233 1_555
Ag0 Rh1 2.894233 1_455
Ag0 Rh1 2.894245 1_555
Ag0 Ag5 2.898341 1_454
Ag0 Ag5 2.898341 1_455
Ag0 Ag4 2.898347 1_555
Ag0 Ag4 2.898347 1_554
Ag0 Ag2 2.922804 1_545
Ag0 Ag1 2.922804 1_445
Ag1 Ag2 2.865580 1_555
Ag1 Rh0 2.879233 1_554
Ag1 Rh0 2.879233 1_555
Ag1 Rh1 2.894233 1_565
Ag1 Rh1 2.894245 1_555
Ag1 Ag5 2.898341 1_565
Ag1 Ag5 2.898341 1_564
Ag1 Ag3 2.898347 1_555
Ag1 Ag3 2.898347 1_554
Ag1 Ag2 2.922804 1_655
Ag2 Rh0 2.879233 1_555
Ag2 Rh0 2.879233 1_554
Ag2 Rh1 2.894239 1_455
Ag2 Rh1 2.894239 1_565
Ag2 Ag3 2.898341 1_455
Ag2 Ag3 2.898341 1_454
Ag2 Ag4 2.898341 1_565
Ag2 Ag4 2.898341 1_564
Ag3 Ag5 2.865580 1_555
Ag3 Ag4 2.865580 1_555
Ag3 Rh1 2.879233 1_555
Ag3 Rh1 2.879233 1_556
Ag3 Rh0 2.894233 1_655
Ag3 Rh0 2.894245 1_555
Ag3 Ag5 2.922804 1_565
Ag3 Ag4 2.922804 1_665
Ag4 Ag5 2.865580 1_555
Ag4 Rh1 2.879233 1_555
Ag4 Rh1 2.879233 1_556
Ag4 Rh0 2.894233 1_545
Ag4 Rh0 2.894245 1_555
Ag4 Ag5 2.922804 1_455
Ag5 Rh1 2.879233 1_555
Ag5 Rh1 2.879233 1_556
Ag5 Rh0 2.894239 1_545
Ag5 Rh0 2.894239 1_655
