# generated using pymatgen
data_Tm2Ga8Co
_symmetry_space_group_name_H-M   'P 1'
_cell_length_a   4.16291909
_cell_length_b   4.16291909
_cell_length_c   10.93305249
_cell_angle_alpha   90.00000000
_cell_angle_beta   90.00000000
_cell_angle_gamma   90.00000000
_symmetry_Int_Tables_number   1
_chemical_formula_structural   Tm2Ga8Co
_chemical_formula_sum   'Tm2 Ga8 Co1'
_cell_volume   189.46865551
_cell_formula_units_Z   1
loop_
 _symmetry_equiv_pos_site_id
 _symmetry_equiv_pos_as_xyz
  1  'x, y, z'
loop_
 _atom_site_type_symbol
 _atom_site_label
 _atom_site_symmetry_multiplicity
 _atom_site_fract_x
 _atom_site_fract_y
 _atom_site_fract_z
 _atom_site_occupancy
  Tm  Tm0  1  -0.00000000  0.00000000  0.69410547  1
  Tm  Tm1  1  0.00000000  -0.00000000  0.30589453  1
  Ga  Ga0  1  0.50000000  -0.00000000  0.50000000  1
  Ga  Ga1  1  0.00000000  0.50000000  0.50000000  1
  Ga  Ga2  1  0.50000000  0.50000000  0.69528196  1
  Ga  Ga3  1  0.50000000  0.50000000  0.30471804  1
  Ga  Ga4  1  0.50000000  0.00000000  0.88357964  1
  Ga  Ga5  1  -0.00000000  0.50000000  0.88357964  1
  Ga  Ga6  1  0.50000000  -0.00000000  0.11642036  1
  Ga  Ga7  1  0.00000000  0.50000000  0.11642036  1
  Co  Co0  1  0.00000000  -0.00000000  0.00000000  1
loop_
_geom_bond_atom_site_label_1
_geom_bond_atom_site_label_2
_geom_bond_distance
_geom_bond_site_symmetry_2
Ga0 Ga1 2.943628 1_555
Ga0 Ga1 2.943628 1_545
Ga0 Ga1 2.943628 1_645
Ga0 Ga1 2.943628 1_655
Ga0 Tm1 2.972551 1_655
Ga0 Tm1 2.972551 1_555
Ga0 Tm0 2.972551 1_555
Ga0 Tm0 2.972551 1_655
Ga0 Ga2 2.981747 1_545
Ga0 Ga2 2.981747 1_555
Ga0 Ga3 2.981747 1_545
Ga0 Ga3 2.981747 1_555
Ga1 Tm1 2.972551 1_565
Ga1 Tm1 2.972551 1_555
Ga1 Tm0 2.972551 1_555
Ga1 Tm0 2.972551 1_565
Ga1 Ga3 2.981747 1_455
Ga1 Ga2 2.981747 1_555
Ga1 Ga2 2.981747 1_455
Ga1 Ga3 2.981747 1_555
Ga2 Ga5 2.927557 1_555
Ga2 Ga4 2.927557 1_555
Ga2 Ga5 2.927557 1_655
Ga2 Ga4 2.927557 1_565
Ga2 Tm0 2.943656 1_665
Ga2 Tm0 2.943656 1_565
Ga2 Tm0 2.943656 1_555
Ga2 Tm0 2.943656 1_655
Ga3 Ga6 2.927557 1_555
Ga3 Ga6 2.927557 1_565
Ga3 Ga7 2.927557 1_555
Ga3 Ga7 2.927557 1_655
Ga3 Tm1 2.943656 1_565
Ga3 Tm1 2.943656 1_655
Ga3 Tm1 2.943656 1_665
Ga3 Tm1 2.943656 1_555
Ga4 Ga6 2.545660 1_556
Ga4 Tm0 2.936616 1_555
Ga4 Tm0 2.936616 1_655
Ga4 Ga5 2.943628 1_545
Ga4 Ga5 2.943628 1_645
Ga4 Ga5 2.943628 1_555
Ga4 Ga5 2.943628 1_655
Ga5 Ga7 2.545660 1_556
Ga5 Tm0 2.936616 1_555
Ga5 Tm0 2.936616 1_565
Ga6 Tm1 2.936616 1_555
Ga6 Tm1 2.936616 1_655
Ga6 Ga7 2.943628 1_645
Ga6 Ga7 2.943628 1_655
Ga6 Ga7 2.943628 1_545
Ga6 Ga7 2.943628 1_555
Ga7 Tm1 2.936616 1_565
Ga7 Tm1 2.936616 1_555
Co0 Ga6 2.439789 1_455
Co0 Ga7 2.439789 1_555
Co0 Ga4 2.439789 1_554
Co0 Ga5 2.439789 1_544
Co0 Ga6 2.439789 1_555
Co0 Ga5 2.439789 1_554
Co0 Ga4 2.439789 1_454
Co0 Ga7 2.439789 1_545
