# generated using pymatgen
data_Pr5Ge3C
_symmetry_space_group_name_H-M   'P 1'
_cell_length_a   8.91750177
_cell_length_b   8.91750177
_cell_length_c   6.85757900
_cell_angle_alpha   90.00000000
_cell_angle_beta   90.00000000
_cell_angle_gamma   119.99999826
_symmetry_Int_Tables_number   1
_chemical_formula_structural   Pr5Ge3C
_chemical_formula_sum   'Pr10 Ge6 C2'
_cell_volume   472.26729007
_cell_formula_units_Z   2
loop_
 _symmetry_equiv_pos_site_id
 _symmetry_equiv_pos_as_xyz
  1  'x, y, z'
loop_
 _atom_site_type_symbol
 _atom_site_label
 _atom_site_symmetry_multiplicity
 _atom_site_fract_x
 _atom_site_fract_y
 _atom_site_fract_z
 _atom_site_occupancy
  Pr  Pr0  1  0.66666700  0.33333300  0.00000000  1
  Pr  Pr1  1  0.33333300  0.66666700  0.00000000  1
  Pr  Pr2  1  0.33333300  0.66666700  0.50000000  1
  Pr  Pr3  1  0.66666700  0.33333300  0.50000000  1
  Pr  Pr4  1  0.77770000  0.77770000  0.75000000  1
  Pr  Pr5  1  0.22230000  0.00000000  0.75000000  1
  Pr  Pr6  1  0.00000000  0.22230000  0.75000000  1
  Pr  Pr7  1  0.22230000  0.22230000  0.25000000  1
  Pr  Pr8  1  0.77770000  0.00000000  0.25000000  1
  Pr  Pr9  1  0.00000000  0.77770000  0.25000000  1
  Ge  Ge0  1  0.40966000  0.40966000  0.75000000  1
  Ge  Ge1  1  0.59034000  0.00000000  0.75000000  1
  Ge  Ge2  1  0.00000000  0.59034000  0.75000000  1
  Ge  Ge3  1  0.59034000  0.59034000  0.25000000  1
  Ge  Ge4  1  0.40966000  0.00000000  0.25000000  1
  Ge  Ge5  1  0.00000000  0.40966000  0.25000000  1
  C  C0  1  0.00000000  0.00000000  0.00000000  1
  C  C1  1  0.00000000  0.00000000  0.50000000  1
loop_
_geom_bond_atom_site_label_1
_geom_bond_atom_site_label_2
_geom_bond_distance
_geom_bond_site_symmetry_2
Ge0 Pr6 3.167549 1_555
Ge0 Pr5 3.167549 1_555
Ge0 Pr2 3.196091 1_555
Ge0 Pr0 3.196091 1_556
Ge0 Pr1 3.196091 1_556
Ge0 Pr3 3.196091 1_555
Ge0 Pr4 3.281997 1_555
Ge0 Pr7 3.814199 1_556
Ge0 Pr7 3.814199 1_555
Ge1 Pr4 3.167549 1_545
Ge1 Pr6 3.167549 1_655
Ge1 Pr3 3.196084 1_555
Ge1 Pr0 3.196084 1_556
Ge1 Pr1 3.196086 1_546
Ge1 Pr2 3.196086 1_545
Ge1 Pr5 3.281997 1_555
Ge1 Pr8 3.814199 1_556
Ge1 Pr8 3.814199 1_555
Ge2 Pr4 3.167549 1_455
Ge2 Pr5 3.167549 1_565
Ge2 Pr1 3.196084 1_556
Ge2 Pr2 3.196084 1_555
Ge2 Pr0 3.196086 1_456
Ge2 Pr3 3.196086 1_455
Ge2 Pr6 3.281997 1_555
Ge2 Pr9 3.814199 1_556
Ge2 Pr9 3.814199 1_555
Ge3 Pr9 3.167549 1_655
Ge3 Pr8 3.167549 1_565
Ge3 Pr2 3.196091 1_555
Ge3 Pr0 3.196091 1_555
Ge3 Pr1 3.196091 1_555
Ge3 Pr3 3.196091 1_555
Ge3 Pr7 3.281997 1_555
Ge3 Pr4 3.814199 1_555
Ge3 Pr4 3.814199 1_554
Ge4 Pr7 3.167549 1_555
Ge4 Pr9 3.167549 1_545
Ge4 Pr2 3.196084 1_545
Ge4 Pr1 3.196084 1_545
Ge4 Pr3 3.196086 1_555
Ge4 Pr0 3.196086 1_555
Ge4 Pr8 3.281997 1_555
Ge4 Pr5 3.814199 1_554
Ge4 Pr5 3.814199 1_555
Ge5 Pr7 3.167549 1_555
Ge5 Pr8 3.167549 1_455
Ge5 Pr0 3.196084 1_455
Ge5 Pr3 3.196084 1_455
Ge5 Pr1 3.196086 1_555
Ge5 Pr2 3.196086 1_555
Ge5 Pr9 3.281997 1_555
Ge5 Pr6 3.814199 1_554
Ge5 Pr6 3.814199 1_555
C0 Pr8 2.620859 1_455
C0 Pr9 2.620859 1_545
C0 Pr6 2.620859 1_554
C0 Pr5 2.620859 1_554
C0 Pr7 2.620859 1_555
C0 Pr4 2.620859 1_444
C1 Pr8 2.620859 1_455
C1 Pr9 2.620859 1_545
C1 Pr6 2.620859 1_555
C1 Pr5 2.620859 1_555
C1 Pr7 2.620859 1_555
C1 Pr4 2.620859 1_445
