# generated using pymatgen
data_BNF4
_symmetry_space_group_name_H-M   'P 1'
_cell_length_a   5.75613700
_cell_length_b   7.78455400
_cell_length_c   7.88318400
_cell_angle_alpha   90.00000000
_cell_angle_beta   90.00000000
_cell_angle_gamma   90.00000000
_symmetry_Int_Tables_number   1
_chemical_formula_structural   BNF4
_chemical_formula_sum   'B4 N4 F16'
_cell_volume   353.23727107
_cell_formula_units_Z   4
loop_
 _symmetry_equiv_pos_site_id
 _symmetry_equiv_pos_as_xyz
  1  'x, y, z'
loop_
 _atom_site_type_symbol
 _atom_site_label
 _atom_site_symmetry_multiplicity
 _atom_site_fract_x
 _atom_site_fract_y
 _atom_site_fract_z
 _atom_site_occupancy
  B  B0  1  0.75000000  0.46427300  0.83041900  1
  B  B1  1  0.75000000  0.96427300  0.66958100  1
  B  B2  1  0.25000000  0.53572700  0.16958100  1
  B  B3  1  0.25000000  0.03572700  0.33041900  1
  N  N0  1  0.75000000  0.49587500  0.26131900  1
  N  N1  1  0.75000000  0.99587500  0.23868100  1
  N  N2  1  0.25000000  0.50412500  0.73868100  1
  N  N3  1  0.25000000  0.00412500  0.76131900  1
  F  F0  1  0.75000000  0.60510200  0.93211300  1
  F  F1  1  0.75000000  0.10510200  0.56788700  1
  F  F2  1  0.25000000  0.39489800  0.06788700  1
  F  F3  1  0.25000000  0.89489800  0.43211300  1
  F  F4  1  0.75000000  0.30983400  0.90966800  1
  F  F5  1  0.75000000  0.80983400  0.59033200  1
  F  F6  1  0.25000000  0.69016600  0.09033200  1
  F  F7  1  0.25000000  0.19016600  0.40966800  1
  F  F8  1  0.94536300  0.47365800  0.70373500  1
  F  F9  1  0.55463700  0.97365800  0.79626500  1
  F  F10  1  0.44536300  0.52634200  0.29626500  1
  F  F11  1  0.05463700  0.02634200  0.20373500  1
  F  F12  1  0.05463700  0.52634200  0.29626500  1
  F  F13  1  0.44536300  0.02634200  0.20373500  1
  F  F14  1  0.55463700  0.47365800  0.70373500  1
  F  F15  1  0.94536300  0.97365800  0.79626500  1
loop_
_geom_bond_atom_site_label_1
_geom_bond_atom_site_label_2
_geom_bond_distance
_geom_bond_site_symmetry_2
B0 F4 1.354869 1_555
B0 F0 1.358136 1_555
B0 F8 1.505745 1_555
B0 F14 1.505745 1_555
B1 F5 1.354869 1_555
B1 F1 1.358136 1_565
B1 F15 1.505745 1_555
B1 F9 1.505745 1_555
B2 F6 1.354869 1_555
B2 F2 1.358136 1_555
B2 F10 1.505745 1_555
B2 F12 1.505745 1_555
B3 F7 1.354869 1_555
B3 F3 1.358136 1_545
B3 F13 1.505745 1_555
B3 F11 1.505745 1_555
F8 N2 1.790815 1_655
F9 N3 1.790815 1_565
F10 N0 1.790815 1_555
F11 N1 1.790815 1_445
F12 N0 1.790815 1_455
F13 N1 1.790815 1_545
F14 N2 1.790815 1_555
F15 N3 1.790815 1_665
