# generated using pymatgen
data_K4TmP8(N4O17)2
_symmetry_space_group_name_H-M   'P 1'
_cell_length_a   10.99431589
_cell_length_b   10.99431589
_cell_length_c   19.17273300
_cell_angle_alpha   84.96222038
_cell_angle_beta   84.96222038
_cell_angle_gamma   59.87561955
_symmetry_Int_Tables_number   1
_chemical_formula_structural   K4TmP8(N4O17)2
_chemical_formula_sum   'K8 Tm2 P16 N16 O68'
_cell_volume   1994.17873906
_cell_formula_units_Z   2
loop_
 _symmetry_equiv_pos_site_id
 _symmetry_equiv_pos_as_xyz
  1  'x, y, z'
loop_
 _atom_site_type_symbol
 _atom_site_label
 _atom_site_symmetry_multiplicity
 _atom_site_fract_x
 _atom_site_fract_y
 _atom_site_fract_z
 _atom_site_occupancy
  K  K0  1  0.00000000  0.50000000  0.00000000  1
  K  K1  1  0.50000000  0.00000000  0.50000000  1
  K  K2  1  0.61243900  0.38756100  0.25000000  1
  K  K3  1  0.38756100  0.61243900  0.75000000  1
  K  K4  1  0.19528000  0.42443500  0.28253100  1
  K  K5  1  0.57556500  0.80472000  0.21746900  1
  K  K6  1  0.80472000  0.57556500  0.71746900  1
  K  K7  1  0.42443500  0.19528000  0.78253100  1
  Tm  Tm0  1  0.24420200  0.75579800  0.25000000  1
  Tm  Tm1  1  0.75579800  0.24420200  0.75000000  1
  P  P0  1  0.00278400  0.88381100  0.11518900  1
  P  P1  1  0.11618900  0.99721600  0.38481100  1
  P  P2  1  0.99721600  0.11618900  0.88481100  1
  P  P3  1  0.88381100  0.00278400  0.61518900  1
  P  P4  1  0.21197200  0.58979900  0.11167800  1
  P  P5  1  0.41020100  0.78802800  0.38832200  1
  P  P6  1  0.78802800  0.41020100  0.88832200  1
  P  P7  1  0.58979900  0.21197200  0.61167800  1
  P  P8  1  0.37993100  0.52634000  0.40537900  1
  P  P9  1  0.47366000  0.62006900  0.09462100  1
  P  P10  1  0.62006900  0.47366000  0.59462100  1
  P  P11  1  0.52634000  0.37993100  0.90537900  1
  P  P12  1  0.07743600  0.67532400  0.40494500  1
  P  P13  1  0.32467600  0.92256400  0.09505500  1
  P  P14  1  0.92256400  0.32467600  0.59505500  1
  P  P15  1  0.67532400  0.07743600  0.90494500  1
  N  N0  1  0.09490900  0.74184800  0.07529600  1
  N  N1  1  0.25815200  0.90509100  0.42470400  1
  N  N2  1  0.90509100  0.25815200  0.92470400  1
  N  N3  1  0.74184800  0.09490900  0.57529600  1
  N  N4  1  0.36855600  0.55991300  0.07700700  1
  N  N5  1  0.44008700  0.63144400  0.42299300  1
  N  N6  1  0.63144400  0.44008700  0.92299300  1
  N  N7  1  0.55991300  0.36855600  0.57700700  1
  N  N8  1  0.00425900  0.88150700  0.42822800  1
  N  N9  1  0.11849300  0.99574100  0.07177200  1
  N  N10  1  0.99574100  0.11849300  0.57177200  1
  N  N11  1  0.88150700  0.00425900  0.92822800  1
  N  N12  1  0.22109900  0.59876000  0.44494600  1
  N  N13  1  0.40124000  0.77890100  0.05505400  1
  N  N14  1  0.77890100  0.40124000  0.55505400  1
  N  N15  1  0.59876000  0.22109900  0.94494600  1
  O  O0  1  0.04027100  0.89141400  0.18801500  1
  O  O1  1  0.10858600  0.95972900  0.31198500  1
  O  O2  1  0.95972900  0.10858600  0.81198500  1
  O  O3  1  0.89141400  0.04027100  0.68801500  1
  O  O4  1  0.22032800  0.59873500  0.19130000  1
  O  O5  1  0.40126500  0.77967200  0.30870000  1
  O  O6  1  0.77967200  0.40126500  0.80870000  1
  O  O7  1  0.59873500  0.22032800  0.69130000  1
  O  O8  1  0.37339100  0.53215000  0.32413900  1
  O  O9  1  0.46785000  0.62660900  0.17586100  1
  O  O10  1  0.62660900  0.46785000  0.67586100  1
  O  O11  1  0.53215000  0.37339100  0.82413900  1
  O  O12  1  0.08638300  0.71074200  0.32657800  1
  O  O13  1  0.28925800  0.91361700  0.17342200  1
  O  O14  1  0.91361700  0.28925800  0.67342200  1
  O  O15  1  0.71074200  0.08638300  0.82657800  1
  O  O16  1  0.01082600  0.13557700  0.41201000  1
  O  O17  1  0.86442300  0.98917400  0.08799000  1
  O  O18  1  0.98917400  0.86442300  0.58799000  1
  O  O19  1  0.13557700  0.01082600  0.91201000  1
  O  O20  1  0.17963900  0.47770300  0.09538000  1
  O  O21  1  0.52229700  0.82036100  0.40462000  1
  O  O22  1  0.82036100  0.52229700  0.90462000  1
  O  O23  1  0.47770300  0.17963900  0.59538000  1
  O  O24  1  0.62103600  0.52862400  0.06397900  1
  O  O25  1  0.47137600  0.37896400  0.43602100  1
  O  O26  1  0.37896400  0.47137600  0.93602100  1
  O  O27  1  0.52862400  0.62103600  0.56397900  1
  O  O28  1  0.95839600  0.65692400  0.43464400  1
  O  O29  1  0.34307600  0.04160400  0.06535600  1
  O  O30  1  0.04160400  0.34307600  0.56535600  1
  O  O31  1  0.65692400  0.95839600  0.93464400  1
  O  O32  1  0.89348700  0.63738000  0.20955200  1
  O  O33  1  0.36262000  0.10651300  0.29044800  1
  O  O34  1  0.10651300  0.36262000  0.79044800  1
  O  O35  1  0.63738000  0.89348700  0.70955200  1
  O  O36  1  0.14953100  0.29612200  0.42454300  1
  O  O37  1  0.70387800  0.85046900  0.07545700  1
  O  O38  1  0.85046900  0.70387800  0.57545700  1
  O  O39  1  0.29612200  0.14953100  0.92454300  1
  O  O40  1  0.79178100  0.49233600  0.34070300  1
  O  O41  1  0.50766400  0.20821900  0.15929700  1
  O  O42  1  0.20821900  0.50766400  0.65929700  1
  O  O43  1  0.49233600  0.79178100  0.84070300  1
  O  O44  1  0.94885000  0.51726600  0.18730500  1
  O  O45  1  0.48273400  0.05115000  0.31269500  1
  O  O46  1  0.05115000  0.48273400  0.81269500  1
  O  O47  1  0.51726600  0.94885000  0.68730500  1
  O  O48  1  0.05193800  0.11280200  0.05068000  1
  O  O49  1  0.88719800  0.94806200  0.44932000  1
  O  O50  1  0.94806200  0.88719800  0.94932000  1
  O  O51  1  0.11280200  0.05193800  0.55068000  1
  O  O52  1  0.73938900  0.72622100  0.06800300  1
  O  O53  1  0.27377900  0.26061100  0.43199700  1
  O  O54  1  0.26061100  0.27377900  0.93199700  1
  O  O55  1  0.72622100  0.73938900  0.56800300  1
  O  O56  1  0.85966100  0.23734900  0.15908600  1
  O  O57  1  0.76265100  0.14033900  0.34091400  1
  O  O58  1  0.14033900  0.76265100  0.84091400  1
  O  O59  1  0.23734900  0.85966100  0.65908600  1
  O  O60  1  0.80720300  0.51518900  0.40018000  1
  O  O61  1  0.48481100  0.19279700  0.09982000  1
  O  O62  1  0.19279700  0.48481100  0.59982000  1
  O  O63  1  0.51518900  0.80720300  0.90018000  1
  O  O64  1  0.94871900  0.23396700  0.19560700  1
  O  O65  1  0.76603300  0.05128100  0.30439300  1
  O  O66  1  0.05128100  0.76603300  0.80439300  1
  O  O67  1  0.23396700  0.94871900  0.69560700  1
loop_
_geom_bond_atom_site_label_1
_geom_bond_atom_site_label_2
_geom_bond_distance
_geom_bond_site_symmetry_2
K0 O22 2.715599 1_454
K0 O20 2.715599 1_555
K0 O52 2.975865 1_455
K0 O54 2.975865 1_554
K1 O21 2.715599 1_545
K1 O23 2.715599 1_555
K1 O55 2.975865 1_545
K1 O53 2.975865 1_555
K2 O9 2.646120 1_555
K2 O8 2.646120 1_555
K2 O57 2.884657 1_555
K2 O56 2.884657 1_555
K2 O40 3.387149 1_555
K2 O41 3.387149 1_555
K3 O11 2.646120 1_555
K3 O10 2.646120 1_555
K3 O58 2.884657 1_555
K3 O59 2.884657 1_555
K3 O43 3.387149 1_555
K3 O42 3.387149 1_555
K4 O4 2.581478 1_555
K4 O12 2.925988 1_555
K4 O8 2.939629 1_555
K4 O33 3.020969 1_555
K4 O36 3.074677 1_555
K4 O44 3.079183 1_455
K4 O53 3.188820 1_555
K5 O5 2.581478 1_555
K5 O13 2.925988 1_555
K5 O9 2.939629 1_555
K5 O32 3.020969 1_555
K5 O37 3.074677 1_555
K5 O45 3.079183 1_565
K5 O52 3.188820 1_555
K6 O6 2.581478 1_555
K6 O14 2.925988 1_555
K6 O10 2.939629 1_555
K6 O35 3.020969 1_555
K6 O38 3.074677 1_555
K6 O46 3.079183 1_655
K6 O55 3.188820 1_555
K7 O7 2.581478 1_555
K7 O15 2.925988 1_555
K7 O11 2.939629 1_555
K7 O34 3.020969 1_555
K7 O39 3.074677 1_555
K7 O47 3.079183 1_545
K7 O54 3.188820 1_555
N0 P0 1.591775 1_555
N0 P4 1.652514 1_555
N1 P1 1.591775 1_555
N1 P5 1.652514 1_555
N2 P2 1.591775 1_555
N2 P6 1.652514 1_555
N3 P3 1.591775 1_555
N3 P7 1.652514 1_555
N4 P9 1.661816 1_555
N4 P4 1.668268 1_555
N5 P8 1.661816 1_555
N5 P5 1.668268 1_555
N6 P11 1.661816 1_555
N6 P6 1.668268 1_555
N7 P10 1.661816 1_555
N7 P7 1.668268 1_555
N8 O49 1.170738 1_455
N8 P12 2.066194 1_555
N8 P1 2.243015 1_555
N9 O48 1.170738 1_565
N9 P13 2.066194 1_555
N9 P0 2.243015 1_555
N10 O51 1.170738 1_655
N10 P14 2.066194 1_555
N10 P3 2.243015 1_555
N11 O50 1.170738 1_545
N11 P15 2.066194 1_555
N11 P2 2.243015 1_555
N12 P12 1.598847 1_555
N12 P8 1.654280 1_555
N13 P13 1.598847 1_555
N13 P9 1.654280 1_555
N14 P14 1.598847 1_555
N14 P10 1.654280 1_555
N15 P15 1.598847 1_555
N15 P11 1.654280 1_555
O0 P0 1.510819 1_555
O0 Tm0 2.337439 1_555
O1 P1 1.510819 1_555
O1 Tm0 2.337439 1_555
O2 P2 1.510819 1_555
O2 Tm1 2.337439 1_555
O3 P3 1.510819 1_555
O3 Tm1 2.337439 1_555
O4 P4 1.551948 1_555
O4 Tm0 2.272772 1_555
O5 P5 1.551948 1_555
O5 Tm0 2.272772 1_555
O6 P6 1.551948 1_555
O6 Tm1 2.272772 1_555
O7 P7 1.551948 1_555
O7 Tm1 2.272772 1_555
O8 P8 1.559786 1_555
O8 Tm0 2.513775 1_555
O9 P9 1.559786 1_555
O9 Tm0 2.513775 1_555
O10 P10 1.559786 1_555
O10 Tm1 2.513775 1_555
O11 P11 1.559786 1_555
O11 Tm1 2.513775 1_555
O12 P12 1.525968 1_555
O12 Tm0 2.387306 1_555
O13 P13 1.525968 1_555
O13 Tm0 2.387306 1_555
O14 P14 1.525968 1_555
O14 Tm1 2.387306 1_555
O15 P15 1.525968 1_555
O15 Tm1 2.387306 1_555
O16 P1 1.480639 1_545
O17 P0 1.480639 1_655
O18 P3 1.480639 1_565
O19 P2 1.480639 1_455
O20 P4 1.506569 1_555
O21 P5 1.506569 1_555
O22 P6 1.506569 1_555
O23 P7 1.506569 1_555
O24 P9 1.510866 1_555
O25 P8 1.510866 1_555
O26 P11 1.510866 1_555
O27 P10 1.510866 1_555
O28 P12 1.480762 1_655
O29 P13 1.480762 1_545
O30 P14 1.480762 1_455
O31 P15 1.480762 1_565
O32 O44 1.242109 1_555
O33 O45 1.242109 1_555
O34 O46 1.242109 1_555
O35 O47 1.242109 1_555
O36 O53 1.236135 1_555
O37 O52 1.236135 1_555
O38 O55 1.236135 1_555
O39 O54 1.236135 1_555
O40 O60 1.232591 1_555
O41 O61 1.232591 1_555
O42 O62 1.232591 1_555
O43 O63 1.232591 1_555
O56 O64 1.236796 1_555
O57 O65 1.236796 1_555
O58 O66 1.236796 1_555
O59 O67 1.236796 1_555
