# generated using pymatgen
data_Rb2GaAs2
_symmetry_space_group_name_H-M   'P 1'
_cell_length_a   14.74004975
_cell_length_b   9.10028189
_cell_length_c   11.75848479
_cell_angle_alpha   61.72328476
_cell_angle_beta   90.00000000
_cell_angle_gamma   90.00000000
_symmetry_Int_Tables_number   1
_chemical_formula_structural   Rb2GaAs2
_chemical_formula_sum   'Rb16 Ga8 As16'
_cell_volume   1389.05145412
_cell_formula_units_Z   8
loop_
 _symmetry_equiv_pos_site_id
 _symmetry_equiv_pos_as_xyz
  1  'x, y, z'
loop_
 _atom_site_type_symbol
 _atom_site_label
 _atom_site_symmetry_multiplicity
 _atom_site_fract_x
 _atom_site_fract_y
 _atom_site_fract_z
 _atom_site_occupancy
  Rb  Rb0  1  0.61637840  0.49317632  0.56834210  1
  Rb  Rb1  1  0.11637840  0.50682368  0.93165790  1
  Rb  Rb2  1  0.38362160  0.50682368  0.43165790  1
  Rb  Rb3  1  0.88362160  0.49317632  0.06834210  1
  Rb  Rb4  1  0.61254532  0.21172688  0.97389534  1
  Rb  Rb5  1  0.11254532  0.78827312  0.52610466  1
  Rb  Rb6  1  0.38745468  0.78827312  0.02610466  1
  Rb  Rb7  1  0.88745468  0.21172688  0.47389534  1
  Rb  Rb8  1  0.86731994  0.58799667  0.59422045  1
  Rb  Rb9  1  0.36731994  0.41200333  0.90577955  1
  Rb  Rb10  1  0.13268006  0.41200333  0.40577955  1
  Rb  Rb11  1  0.63268006  0.58799667  0.09422045  1
  Rb  Rb12  1  0.87151922  0.01567357  0.96350385  1
  Rb  Rb13  1  0.37151922  0.98432643  0.53649615  1
  Rb  Rb14  1  0.12848078  0.98432643  0.03649615  1
  Rb  Rb15  1  0.62848078  0.01567357  0.46350385  1
  Ga  Ga0  1  0.94136440  -0.00049421  0.25809073  1
  Ga  Ga1  1  0.44136440  0.00049421  0.24190927  1
  Ga  Ga2  1  0.55863560  -0.00049421  0.75809073  1
  Ga  Ga3  1  0.78459597  0.85848795  0.75574232  1
  Ga  Ga4  1  0.28459597  0.14151205  0.74425768  1
  Ga  Ga5  1  0.21540403  0.14151205  0.24425768  1
  Ga  Ga6  1  0.71540403  0.85848795  0.25574232  1
  Ga  Ga7  1  0.05863560  0.00049421  0.74190927  1
  As  As0  1  0.55461921  0.80052516  0.25764970  1
  As  As1  1  0.19197085  0.37084200  0.71448190  1
  As  As2  1  0.30802915  0.37084200  0.21448190  1
  As  As3  1  0.69197085  0.62915800  0.78551810  1
  As  As4  1  0.71108079  0.10620522  0.72925621  1
  As  As5  1  0.21108079  0.89379478  0.77074379  1
  As  As6  1  0.28891921  0.89379478  0.27074379  1
  As  As7  1  0.78891921  0.10620522  0.22925621  1
  As  As8  1  0.05461921  0.19947484  0.24235030  1
  As  As9  1  0.44538079  0.19947484  0.74235030  1
  As  As10  1  0.94538079  0.80052516  0.75764970  1
  As  As11  1  0.96390042  0.72815027  0.27940729  1
  As  As12  1  0.53609958  0.72815027  0.77940729  1
  As  As13  1  0.03609958  0.27184973  0.72059271  1
  As  As14  1  0.80802915  0.62915800  0.28551810  1
  As  As15  1  0.46390042  0.27184973  0.22059271  1
loop_
_geom_bond_atom_site_label_1
_geom_bond_atom_site_label_2
_geom_bond_distance
_geom_bond_site_symmetry_2
Ga0 Rb12 3.549262 1_554
Ga0 Rb5 3.775403 1_645
Ga0 Rb14 3.841417 1_645
Ga0 Rb7 3.929825 1_555
Ga1 Rb13 3.549262 1_545
Ga1 Rb4 3.775403 1_554
Ga1 Rb15 3.841417 1_555
Ga1 Rb6 3.929825 1_545
Ga2 Rb15 3.549262 1_555
Ga2 Rb6 3.775403 1_546
Ga2 Rb13 3.841417 1_545
Ga2 Rb4 3.929825 1_555
Ga3 Rb12 3.600931 1_565
Ga3 Rb7 3.677188 1_565
Ga3 Rb15 3.806878 1_565
Ga4 Rb13 3.600931 1_545
Ga4 Rb6 3.677188 1_546
Ga4 Rb14 3.806878 1_546
Ga5 Rb14 3.600931 1_545
Ga5 Rb5 3.677188 1_545
Ga5 Rb13 3.806878 1_545
Ga6 Rb15 3.600931 1_565
Ga6 Rb4 3.677188 1_564
Ga6 Rb12 3.806878 1_564
Ga7 Rb14 3.549262 1_546
Ga7 Rb7 3.775403 1_455
Ga7 Rb12 3.841417 1_455
Ga7 Rb5 3.929825 1_545
As0 Ga1 2.411132 1_565
As0 Ga6 2.425761 1_555
As0 Rb11 3.504112 1_555
As0 Rb0 3.509542 1_555
As0 Rb2 3.535778 1_555
As0 Rb6 3.712689 1_555
As0 Rb4 3.746318 1_564
As0 Rb15 3.920192 1_565
As1 Ga4 2.376922 1_555
As1 As13 2.456444 1_555
As1 Rb1 3.505438 1_555
As1 Rb9 3.560718 1_555
As1 Rb5 3.568637 1_555
As1 Rb10 3.576566 1_555
As1 Rb14 3.868616 1_546
As2 Ga5 2.376922 1_555
As2 Rb2 3.505438 1_555
As2 Rb10 3.560718 1_555
As2 Rb6 3.568637 1_555
As2 Rb9 3.576566 1_554
As2 Rb13 3.868616 1_545
As3 Ga3 2.376922 1_555
As3 Rb0 3.505438 1_555
As3 Rb8 3.560718 1_555
As3 Rb4 3.568637 1_555
As3 Rb11 3.576566 1_556
As3 Rb15 3.868616 1_565
As4 Ga3 2.384930 1_545
As4 Ga2 2.407301 1_555
As4 Rb0 3.408354 1_555
As4 Rb12 3.421702 1_555
As4 Rb4 3.731432 1_555
As4 Rb7 3.736969 1_555
As4 Rb15 3.790115 1_555
As5 Ga4 2.384930 1_565
As5 Ga7 2.407301 1_565
As5 Rb1 3.408354 1_555
As5 Rb13 3.421702 1_555
As5 Rb5 3.731432 1_555
As5 Rb6 3.736969 1_556
As5 Rb14 3.790115 1_556
As6 Ga5 2.384930 1_565
As6 Ga1 2.407301 1_565
As6 Rb2 3.408354 1_555
As6 Rb14 3.421702 1_555
As6 Rb6 3.731432 1_555
As6 Rb5 3.736969 1_555
As6 Rb13 3.790115 1_555
As7 Ga6 2.384930 1_545
As7 Ga0 2.407301 1_555
As7 Rb3 3.408354 1_555
As7 Rb15 3.421702 1_555
As7 Rb7 3.731432 1_555
As7 Rb4 3.736969 1_554
As7 Rb12 3.790115 1_554
As8 Ga0 2.411132 1_455
As8 Ga5 2.425761 1_555
As8 Rb10 3.504112 1_555
As8 Rb1 3.509542 1_554
As8 Rb3 3.535778 1_455
As8 Rb7 3.712689 1_455
As8 Rb5 3.746318 1_545
As8 Rb14 3.920192 1_545
As9 Ga2 2.411132 1_555
As9 Ga4 2.425761 1_555
As9 Rb9 3.504112 1_555
As9 Rb2 3.509542 1_555
As9 Rb0 3.535778 1_555
As9 Rb4 3.712689 1_555
As9 Rb6 3.746318 1_546
As9 Rb13 3.920192 1_545
As10 Ga7 2.411132 1_665
As10 Ga3 2.425761 1_555
As10 Rb8 3.504112 1_555
As10 Rb3 3.509542 1_556
As10 Rb1 3.535778 1_655
As10 Rb5 3.712689 1_655
As10 Rb7 3.746318 1_565
As10 Rb12 3.920192 1_565
As11 Ga0 2.384266 1_565
As11 As14 2.456444 1_555
As11 Rb10 3.553037 1_655
As11 Rb8 3.589274 1_555
As11 Rb14 3.628954 1_655
As11 Rb12 3.645512 1_564
As11 Rb5 3.875343 1_655
As12 Ga2 2.384266 1_565
As12 As3 2.456444 1_555
As12 Rb9 3.553037 1_555
As12 Rb11 3.589274 1_556
As12 Rb13 3.628954 1_555
As12 Rb15 3.645512 1_565
As12 Rb6 3.875343 1_556
As13 Ga7 2.384266 1_555
As13 Rb8 3.553037 1_455
As13 Rb10 3.589274 1_555
As13 Rb12 3.628954 1_455
As13 Rb14 3.645512 1_546
As13 Rb7 3.875343 1_455
As14 Ga6 2.376922 1_555
As14 Rb3 3.505438 1_555
As14 Rb11 3.560718 1_555
As14 Rb7 3.568637 1_555
As14 Rb8 3.576566 1_555
As14 Rb12 3.868616 1_564
As15 Ga1 2.384266 1_555
As15 As2 2.456444 1_555
As15 Rb11 3.553037 1_555
As15 Rb9 3.589274 1_554
As15 Rb15 3.628954 1_555
As15 Rb13 3.645512 1_545
As15 Rb4 3.875343 1_554
