# generated using pymatgen
data_Er2B6Ru
_symmetry_space_group_name_H-M   'P 1'
_cell_length_a   3.62503299
_cell_length_b   9.07369041
_cell_length_c   11.43609044
_cell_angle_alpha   90.00000000
_cell_angle_beta   90.00000000
_cell_angle_gamma   90.00000000
_symmetry_Int_Tables_number   1
_chemical_formula_structural   Er2B6Ru
_chemical_formula_sum   'Er8 B24 Ru4'
_cell_volume   376.16077085
_cell_formula_units_Z   4
loop_
 _symmetry_equiv_pos_site_id
 _symmetry_equiv_pos_as_xyz
  1  'x, y, z'
loop_
 _atom_site_type_symbol
 _atom_site_label
 _atom_site_symmetry_multiplicity
 _atom_site_fract_x
 _atom_site_fract_y
 _atom_site_fract_z
 _atom_site_occupancy
  Er  Er0  1  -0.00000000  0.32180273  0.41432763  1
  Er  Er1  1  -0.00000000  0.67819727  0.58567237  1
  Er  Er2  1  -0.00000000  0.82180273  0.08567237  1
  Er  Er3  1  -0.00000000  0.17819727  0.91432763  1
  Er  Er4  1  0.00000000  0.94386782  0.37279199  1
  Er  Er5  1  -0.00000000  0.05613218  0.62720801  1
  Er  Er6  1  -0.00000000  0.44386782  0.12720801  1
  Er  Er7  1  0.00000000  0.55613218  0.87279199  1
  B  B0  1  0.50000000  0.55372969  0.43311286  1
  B  B1  1  0.50000000  0.44627031  0.56688714  1
  B  B2  1  0.50000000  0.05372969  0.06688714  1
  B  B3  1  0.50000000  0.94627031  0.93311286  1
  B  B4  1  0.50000000  0.74802923  0.41999432  1
  B  B5  1  0.50000000  0.25197077  0.58000568  1
  B  B6  1  0.50000000  0.24802923  0.08000568  1
  B  B7  1  0.50000000  0.75197077  0.91999432  1
  B  B8  1  0.50000000  0.79108010  0.26598909  1
  B  B9  1  0.50000000  0.20891990  0.73401091  1
  B  B10  1  0.50000000  0.29108010  0.23401091  1
  B  B11  1  0.50000000  0.70891990  0.76598909  1
  B  B12  1  0.50000000  0.63181144  0.18501917  1
  B  B13  1  0.50000000  0.36818856  0.81498083  1
  B  B14  1  0.50000000  0.13181144  0.31498083  1
  B  B15  1  0.50000000  0.86818856  0.68501917  1
  B  B16  1  0.50000000  0.98294038  0.21288750  1
  B  B17  1  0.50000000  0.01705962  0.78711250  1
  B  B18  1  0.50000000  0.48294038  0.28711250  1
  B  B19  1  0.50000000  0.51705962  0.71288750  1
  B  B20  1  0.50000000  0.60942244  0.03015237  1
  B  B21  1  0.50000000  0.39057756  0.96984763  1
  B  B22  1  0.50000000  0.10942244  0.46984763  1
  B  B23  1  0.50000000  0.89057756  0.53015237  1
  Ru  Ru0  1  0.00000000  0.63771588  0.32109065  1
  Ru  Ru1  1  -0.00000000  0.36228412  0.67890935  1
  Ru  Ru2  1  0.00000000  0.13771588  0.17890935  1
  Ru  Ru3  1  -0.00000000  0.86228412  0.82109065  1
loop_
_geom_bond_atom_site_label_1
_geom_bond_atom_site_label_2
_geom_bond_distance
_geom_bond_site_symmetry_2
Er0 Ru1 3.047994 1_555
Er0 Ru0 3.058388 1_555
Er0 Ru2 3.168335 1_555
Er1 Ru0 3.047994 1_555
Er1 Ru1 3.058388 1_555
Er1 Ru3 3.168335 1_555
Er2 Ru3 3.047994 1_554
Er2 Ru2 3.058388 1_565
Er2 Ru0 3.168335 1_555
Er3 Ru2 3.047994 1_556
Er3 Ru3 3.058388 1_545
Er3 Ru1 3.168335 1_555
Er4 Ru2 2.830200 1_565
Er4 Ru0 2.840154 1_555
Er5 Ru3 2.830200 1_545
Er5 Ru1 2.840154 1_555
Er6 Ru0 2.830200 1_555
Er6 Ru2 2.840154 1_555
Er7 Ru1 2.830200 1_555
Er7 Ru3 2.840154 1_555
B0 B4 1.769386 1_555
B0 B18 1.788962 1_555
B0 B1 1.814162 1_555
B0 Ru0 2.346735 1_555
B0 Ru0 2.346735 1_655
B0 Er1 2.757651 1_655
B0 Er1 2.757651 1_555
B0 Er0 2.785679 1_655
B0 Er0 2.785679 1_555
B1 B5 1.769386 1_555
B1 B19 1.788962 1_555
B1 Ru1 2.346735 1_655
B1 Ru1 2.346735 1_555
B1 Er0 2.757651 1_555
B1 Er0 2.757651 1_655
B1 Er1 2.785679 1_655
B1 Er1 2.785679 1_555
B2 B6 1.769386 1_555
B2 B3 1.814162 1_544
B2 Ru2 2.346735 1_655
B2 Ru2 2.346735 1_555
B2 Er3 2.757651 1_554
B2 Er3 2.757651 1_654
B2 Er2 2.785679 1_645
B2 Er2 2.785679 1_545
B3 B7 1.769386 1_555
B3 Ru3 2.346735 1_655
B3 Ru3 2.346735 1_555
B3 Er2 2.757651 1_556
B3 Er2 2.757651 1_656
B3 Er3 2.785679 1_665
B3 Er3 2.785679 1_565
B4 B8 1.804018 1_555
B4 Ru0 2.359330 1_555
B4 Ru0 2.359330 1_655
B4 Er4 2.595046 1_555
B4 Er4 2.595046 1_655
B4 Er1 2.697523 1_655
B4 Er1 2.697523 1_555
B5 B9 1.804018 1_555
B5 Ru1 2.359330 1_555
B5 Ru1 2.359330 1_655
B5 Er5 2.595046 1_655
B5 Er5 2.595046 1_555
B5 Er0 2.697523 1_655
B5 Er0 2.697523 1_555
B6 Ru2 2.359330 1_655
B6 Ru2 2.359330 1_555
B6 Er6 2.595046 1_555
B6 Er6 2.595046 1_655
B6 Er3 2.697523 1_554
B6 Er3 2.697523 1_654
B7 Ru3 2.359330 1_655
B7 Ru3 2.359330 1_555
B7 Er7 2.595046 1_655
B7 Er7 2.595046 1_555
B7 Er2 2.697523 1_656
B7 Er2 2.697523 1_556
B8 Ru0 2.370400 1_555
B8 Ru0 2.370400 1_655
B8 Er4 2.588245 1_555
B8 Er4 2.588245 1_655
B8 Er2 2.759576 1_555
B8 Er2 2.759576 1_655
B9 Ru1 2.370400 1_555
B9 Ru1 2.370400 1_655
B9 Er5 2.588245 1_655
B9 Er5 2.588245 1_555
B9 Er3 2.759576 1_555
B9 Er3 2.759576 1_655
B10 B14 1.716365 1_555
B10 B6 1.804018 1_555
B10 B18 1.843759 1_555
B10 Ru2 2.370400 1_655
B10 Ru2 2.370400 1_555
B10 Er6 2.588245 1_555
B10 Er6 2.588245 1_655
B10 Er0 2.759576 1_655
B10 Er0 2.759576 1_555
B11 B15 1.716365 1_555
B11 B7 1.804018 1_555
B11 B19 1.843759 1_555
B11 Ru3 2.370400 1_555
B11 Ru3 2.370400 1_655
B11 Er7 2.588245 1_655
B11 Er7 2.588245 1_555
B11 Er1 2.759576 1_655
B11 Er1 2.759576 1_555
B12 B8 1.716365 1_555
B12 B20 1.782684 1_555
B12 B18 1.785457 1_555
B12 Ru0 2.389480 1_555
B12 Ru0 2.389480 1_655
B12 Er6 2.574977 1_655
B12 Er6 2.574977 1_555
B12 Er2 2.747351 1_555
B12 Er2 2.747351 1_655
B13 B9 1.716365 1_555
B13 B21 1.782684 1_555
B13 B19 1.785457 1_555
B13 Ru1 2.389480 1_555
B13 Ru1 2.389480 1_655
B13 Er7 2.574977 1_655
B13 Er7 2.574977 1_555
B13 Er3 2.747351 1_655
B13 Er3 2.747351 1_555
B14 B22 1.782684 1_555
B14 B16 1.785457 1_545
B14 Ru2 2.389480 1_555
B14 Ru2 2.389480 1_655
B14 Er4 2.574977 1_545
B14 Er4 2.574977 1_645
B14 Er0 2.747351 1_655
B14 Er0 2.747351 1_555
B15 B23 1.782684 1_555
B15 B17 1.785457 1_565
B15 Ru3 2.389480 1_555
B15 Ru3 2.389480 1_655
B15 Er5 2.574977 1_665
B15 Er5 2.574977 1_565
B15 Er1 2.747351 1_655
B15 Er1 2.747351 1_555
B16 B2 1.788962 1_565
B16 B8 1.843759 1_555
B16 Ru2 2.325619 1_565
B16 Ru2 2.325619 1_665
B16 Er4 2.599036 1_555
B16 Er4 2.599036 1_655
B16 Er2 2.745826 1_555
B16 Er2 2.745826 1_655
B17 B3 1.788962 1_545
B17 B9 1.843759 1_555
B17 Ru3 2.325619 1_645
B17 Ru3 2.325619 1_545
B17 Er5 2.599036 1_655
B17 Er5 2.599036 1_555
B17 Er3 2.745826 1_555
B17 Er3 2.745826 1_655
B18 Ru0 2.325619 1_555
B18 Ru0 2.325619 1_655
B18 Er6 2.599036 1_555
B18 Er6 2.599036 1_655
B18 Er0 2.745826 1_555
B18 Er0 2.745826 1_655
B19 Ru1 2.325619 1_655
B19 Ru1 2.325619 1_555
B19 Er7 2.599036 1_655
B19 Er7 2.599036 1_555
B19 Er1 2.745826 1_655
B19 Er1 2.745826 1_555
B20 B7 1.805554 1_554
B20 B21 2.102081 1_554
B20 Er7 2.599527 1_654
B20 Er7 2.599527 1_554
B20 Er6 2.602644 1_555
B20 Er6 2.602644 1_655
B20 Er2 2.720655 1_555
B20 Er2 2.720655 1_655
B21 B6 1.805554 1_556
B21 Er6 2.599527 1_556
B21 Er6 2.599527 1_656
B21 Er7 2.602644 1_655
B21 Er7 2.602644 1_555
B21 Er3 2.720655 1_555
B21 Er3 2.720655 1_655
B22 B5 1.805554 1_555
B22 B23 2.102081 1_545
B22 Er5 2.599527 1_655
B22 Er5 2.599527 1_555
B22 Er4 2.602644 1_645
B22 Er4 2.602644 1_545
B22 Er0 2.720655 1_555
B22 Er0 2.720655 1_655
B23 B4 1.805554 1_555
B23 Er4 2.599527 1_555
B23 Er4 2.599527 1_655
B23 Er5 2.602644 1_665
B23 Er5 2.602644 1_565
B23 Er1 2.720655 1_655
B23 Er1 2.720655 1_555
