# generated using pymatgen
data_Li4Co3O7
_symmetry_space_group_name_H-M   'P 1'
_cell_length_a   2.96304300
_cell_length_b   7.77479995
_cell_length_c   11.28123318
_cell_angle_alpha   80.21396177
_cell_angle_beta   82.98823321
_cell_angle_gamma   81.04239008
_symmetry_Int_Tables_number   1
_chemical_formula_structural   Li4Co3O7
_chemical_formula_sum   'Li8 Co6 O14'
_cell_volume   251.75831245
_cell_formula_units_Z   2
loop_
 _symmetry_equiv_pos_site_id
 _symmetry_equiv_pos_as_xyz
  1  'x, y, z'
loop_
 _atom_site_type_symbol
 _atom_site_label
 _atom_site_symmetry_multiplicity
 _atom_site_fract_x
 _atom_site_fract_y
 _atom_site_fract_z
 _atom_site_occupancy
  Li  Li0  1  0.71426100  0.14255100  0.93337500  1
  Li  Li1  1  0.86049500  0.57070100  0.20830700  1
  Li  Li2  1  0.00000000  0.00000000  0.50000000  1
  Li  Li3  1  0.13950500  0.42929900  0.79169300  1
  Li  Li4  1  0.28573900  0.85744900  0.06662500  1
  Li  Li5  1  0.42955800  0.28483700  0.35385000  1
  Li  Li6  1  0.57044200  0.71516300  0.64615000  1
  Li  Li7  1  0.50000000  0.50000000  0.00000000  1
  Co  Co0  1  0.92917200  0.77235700  0.86187100  1
  Co  Co1  1  0.07082800  0.22764300  0.13812900  1
  Co  Co2  1  0.21096900  0.64349500  0.42421500  1
  Co  Co3  1  0.35278100  0.07024300  0.72147300  1
  Co  Co4  1  0.64721900  0.92975700  0.27852700  1
  Co  Co5  1  0.78903100  0.35650500  0.57578500  1
  O  O0  1  0.28963300  0.95595100  0.88475600  1
  O  O1  1  0.44095800  0.38176000  0.17594700  1
  O  O2  1  0.59080600  0.81895100  0.45387300  1
  O  O3  1  0.76117300  0.24203000  0.75003300  1
  O  O4  1  0.89108200  0.69332600  0.01625800  1
  O  O5  1  0.04825200  0.10871000  0.30601000  1
  O  O6  1  0.17967300  0.52399000  0.60147300  1
  O  O7  1  0.10891800  0.30667400  0.98374200  1
  O  O8  1  0.23882700  0.75797000  0.24996700  1
  O  O9  1  0.40919400  0.18104900  0.54612700  1
  O  O10  1  0.55904200  0.61824000  0.82405300  1
  O  O11  1  0.71036700  0.04404900  0.11524400  1
  O  O12  1  0.82032700  0.47601000  0.39852700  1
  O  O13  1  0.95174800  0.89129000  0.69399000  1
loop_
_geom_bond_atom_site_label_1
_geom_bond_atom_site_label_2
_geom_bond_distance
_geom_bond_site_symmetry_2
Li0 O7 2.047416 1_655
Li0 O11 2.063728 1_556
Li0 O3 2.077249 1_555
Li0 O7 2.110262 1_555
Li0 O0 2.141048 1_645
Li0 O0 2.235183 1_545
Li1 O8 2.113513 1_655
Li1 O1 2.119332 1_655
Li1 O12 2.142196 1_555
Li1 O1 2.167541 1_555
Li1 O4 2.210859 1_555
Li1 O8 2.218084 1_555
Li2 O9 2.139149 1_455
Li2 O2 2.139149 1_545
Li2 O9 2.157950 1_555
Li2 O2 2.157950 1_445
Li2 O5 2.203761 1_555
Li2 O13 2.203761 1_445
Li3 O3 2.113513 1_455
Li3 O10 2.119332 1_455
Li3 O6 2.142196 1_555
Li3 O10 2.167541 1_555
Li3 O7 2.210859 1_555
Li3 O3 2.218084 1_555
Li4 O4 2.047416 1_455
Li4 O0 2.063728 1_554
Li4 O8 2.077249 1_555
Li4 O4 2.110262 1_555
Li4 O11 2.141048 1_465
Li4 O11 2.235183 1_565
Li5 O1 2.018456 1_555
Li5 O5 2.079612 1_555
Li5 O12 2.176447 1_555
Li5 O9 2.179007 1_555
Li5 O5 2.180601 1_655
Li5 O12 2.217852 1_455
Li6 O10 2.018456 1_555
Li6 O13 2.079612 1_555
Li6 O6 2.176447 1_555
Li6 O2 2.179007 1_555
Li6 O13 2.180601 1_455
Li6 O6 2.217852 1_655
Li7 O1 2.039741 1_555
Li7 O10 2.039741 1_554
Li7 O4 2.079341 1_555
Li7 O7 2.079341 1_554
Li7 O7 2.171771 1_654
Li7 O4 2.171771 1_455
Co0 O4 1.741704 1_556
Co0 O10 1.875575 1_555
Co0 O13 1.959437 1_555
Co0 O0 1.977941 1_655
Co0 O10 2.093787 1_655
Co0 O0 2.204223 1_555
Co1 O7 1.741704 1_554
Co1 O1 1.875575 1_555
Co1 O5 1.959437 1_555
Co1 O11 1.977941 1_455
Co1 O1 2.093787 1_455
Co1 O11 2.204223 1_555
Co2 O12 1.949083 1_455
Co2 O2 1.991153 1_555
Co2 O8 2.012853 1_555
Co2 O6 2.054409 1_555
Co2 O12 2.075574 1_555
Co2 O2 2.138671 1_455
Co3 O0 1.904970 1_545
Co3 O9 2.016899 1_555
Co3 O3 2.024038 1_555
Co3 O13 2.048254 1_445
Co3 O3 2.059085 1_455
Co3 O13 2.103579 1_545
Co4 O11 1.904970 1_565
Co4 O2 2.016899 1_555
Co4 O8 2.024038 1_555
Co4 O5 2.048254 1_665
Co4 O8 2.059085 1_655
Co4 O5 2.103579 1_565
Co5 O6 1.949083 1_655
Co5 O9 1.991153 1_555
Co5 O3 2.012853 1_555
Co5 O12 2.054409 1_555
Co5 O6 2.075574 1_555
Co5 O9 2.138671 1_655
