# generated using pymatgen
data_ErFeNi
_symmetry_space_group_name_H-M   'P 1'
_cell_length_a   5.10127510
_cell_length_b   5.10127510
_cell_length_c   5.10127510
_cell_angle_alpha   122.74239629
_cell_angle_beta   119.11665288
_cell_angle_gamma   88.42690877
_symmetry_Int_Tables_number   1
_chemical_formula_structural   ErFeNi
_chemical_formula_sum   'Er2 Fe2 Ni2'
_cell_volume   92.39228439
_cell_formula_units_Z   2
loop_
 _symmetry_equiv_pos_site_id
 _symmetry_equiv_pos_as_xyz
  1  'x, y, z'
loop_
 _atom_site_type_symbol
 _atom_site_label
 _atom_site_symmetry_multiplicity
 _atom_site_fract_x
 _atom_site_fract_y
 _atom_site_fract_z
 _atom_site_occupancy
  Er  Er0  1  0.12830200  0.87830200  0.25000000  1
  Er  Er1  1  0.87169800  0.12169800  0.75000000  1
  Fe  Fe0  1  0.50000000  0.50000000  0.50000000  1
  Fe  Fe1  1  0.50000000  0.00000000  0.00000000  1
  Ni  Ni0  1  0.50000000  0.50000000  0.00000000  1
  Ni  Ni1  1  0.00000000  0.50000000  0.50000000  1
loop_
_geom_bond_atom_site_label_1
_geom_bond_atom_site_label_2
_geom_bond_distance
_geom_bond_site_symmetry_2
Er0 Ni1 2.904498 1_554
Er0 Ni1 2.904498 1_565
Er0 Ni0 2.904498 1_555
Er0 Ni0 2.904498 1_566
Er0 Fe0 2.980195 1_565
Er0 Fe1 2.980195 1_565
Er0 Fe1 3.008992 1_566
Er0 Fe0 3.008992 1_454
Er0 Fe1 3.008992 1_465
Er0 Fe0 3.008992 1_555
Er0 Ni0 3.053353 1_455
Er0 Ni1 3.053353 1_555
Er1 Ni0 2.904498 1_556
Er1 Ni1 2.904498 1_645
Er1 Ni1 2.904498 1_656
Er1 Ni0 2.904498 1_545
Er1 Fe1 2.980195 1_556
Er1 Fe0 2.980195 1_545
Er1 Fe0 3.008992 1_656
Er1 Fe1 3.008992 1_555
Er1 Fe1 3.008992 1_656
Er1 Fe0 3.008992 1_555
Er1 Ni0 3.053353 1_656
Er1 Ni1 3.053353 1_655
Fe0 Fe1 2.444190 1_555
Fe0 Fe1 2.444190 1_566
Fe0 Ni1 2.550638 1_655
Fe0 Ni0 2.550638 1_555
Fe0 Ni0 2.550638 1_556
Fe0 Ni1 2.550638 1_555
Fe1 Ni1 2.550638 1_655
Fe1 Ni0 2.550638 1_555
Fe1 Ni0 2.550638 1_545
Fe1 Ni1 2.550638 1_544
Ni0 Ni1 2.584617 1_655
Ni0 Ni1 2.584617 1_554
