# generated using pymatgen
data_KMgH5(SeO5)2
_symmetry_space_group_name_H-M   'P 1'
_cell_length_a   4.78319553
_cell_length_b   6.05796653
_cell_length_c   8.74319234
_cell_angle_alpha   103.58896445
_cell_angle_beta   97.65803344
_cell_angle_gamma   98.26684019
_symmetry_Int_Tables_number   1
_chemical_formula_structural   KMgH5(SeO5)2
_chemical_formula_sum   'K1 Mg1 H5 Se2 O10'
_cell_volume   239.99295510
_cell_formula_units_Z   1
loop_
 _symmetry_equiv_pos_site_id
 _symmetry_equiv_pos_as_xyz
  1  'x, y, z'
loop_
 _atom_site_type_symbol
 _atom_site_label
 _atom_site_symmetry_multiplicity
 _atom_site_fract_x
 _atom_site_fract_y
 _atom_site_fract_z
 _atom_site_occupancy
  K  K0  1  0.99962300  0.00362500  0.49385300  1
  Mg  Mg0  1  0.00126300  0.00612400  0.00457500  1
  H  H0  1  0.91670000  0.32299500  0.84127200  1
  H  H1  1  0.07374500  0.67175300  0.15929700  1
  H  H2  1  0.62197300  0.26089900  0.90270900  1
  H  H3  1  0.37973600  0.74221000  0.11049600  1
  H  H4  1  0.48491200  0.52880200  0.51167100  1
  Se  Se0  1  0.36660400  0.67912000  0.76290100  1
  Se  Se1  1  0.62239700  0.32244200  0.24449500  1
  O  O0  1  0.47472200  0.69863700  0.58304400  1
  O  O1  1  0.50449800  0.30719000  0.41625200  1
  O  O2  1  0.79660700  0.20472200  0.87727000  1
  O  O3  1  0.19462900  0.78876200  0.12153000  1
  O  O4  1  0.17998800  0.41617200  0.73208700  1
  O  O5  1  0.81804700  0.58246400  0.26972100  1
  O  O6  1  0.17930300  0.89115300  0.79596100  1
  O  O7  1  0.81309600  0.11075600  0.20608500  1
  O  O8  1  0.65127800  0.71915200  0.90430100  1
  O  O9  1  0.35188000  0.27902100  0.09148100  1
loop_
_geom_bond_atom_site_label_1
_geom_bond_atom_site_label_2
_geom_bond_distance
_geom_bond_site_symmetry_2
K0 O5 2.768345 1_545
K0 O4 2.789930 1_655
K0 O7 2.807678 1_555
K0 O6 2.930679 1_645
K0 O1 3.069193 1_655
K0 O0 3.192223 1_545
K0 O0 3.255474 1_645
K0 O1 3.295670 1_555
Mg0 O2 2.078976 1_454
Mg0 O3 2.089462 1_545
Mg0 O7 2.092329 1_455
Mg0 O9 2.096614 1_555
Mg0 O6 2.127137 1_544
Mg0 O8 2.156168 1_444
H0 O2 0.989035 1_555
H1 O3 0.994397 1_555
H1 O5 1.757959 1_455
H2 O2 0.979143 1_555
H3 O3 0.977016 1_555
H4 O0 1.082200 1_555
H4 O1 1.427523 1_555
O0 Se0 1.743784 1_555
O1 Se1 1.690443 1_555
O4 Se0 1.652918 1_555
O5 Se1 1.662384 1_555
O6 Se0 1.661796 1_555
O7 Se1 1.674801 1_555
O8 Se0 1.660364 1_555
O9 Se1 1.675902 1_555
