# generated using pymatgen
data_Sr8MgP4(IO4)4
_symmetry_space_group_name_H-M   'P 1'
_cell_length_a   8.90825080
_cell_length_b   8.96150965
_cell_length_c   9.72303129
_cell_angle_alpha   89.57935890
_cell_angle_beta   115.82020369
_cell_angle_gamma   89.12195607
_symmetry_Int_Tables_number   1
_chemical_formula_structural   Sr8MgP4(IO4)4
_chemical_formula_sum   'Sr8 Mg1 P4 I4 O16'
_cell_volume   698.54417289
_cell_formula_units_Z   1
loop_
 _symmetry_equiv_pos_site_id
 _symmetry_equiv_pos_as_xyz
  1  'x, y, z'
loop_
 _atom_site_type_symbol
 _atom_site_label
 _atom_site_symmetry_multiplicity
 _atom_site_fract_x
 _atom_site_fract_y
 _atom_site_fract_z
 _atom_site_occupancy
  Sr  Sr0  1  0.94254875  0.83175488  0.86883076  1
  Sr  Sr1  1  0.54201897  0.31573942  0.13903821  1
  Sr  Sr2  1  0.05564105  0.20220660  0.14712093  1
  Sr  Sr3  1  0.47964114  0.71027730  0.85811354  1
  Sr  Sr4  1  0.47717134  0.82040596  0.23827384  1
  Sr  Sr5  1  0.02394364  0.31393117  0.75601400  1
  Sr  Sr6  1  0.53753407  0.18034419  0.75919800  1
  Sr  Sr7  1  0.98718033  0.67361211  0.24268087  1
  Mg  Mg0  1  0.03621303  0.68136766  0.60671508  1
  P  P0  1  0.22722761  0.56249006  0.01949668  1
  P  P1  1  0.27806412  0.05781520  0.96712830  1
  P  P2  1  0.76556473  0.45061451  0.95701483  1
  P  P3  1  0.75197677  0.95648528  0.06169510  1
  I  I0  1  0.19779525  0.36189377  0.49733659  1
  I  I1  1  0.32012630  0.89106142  0.49371191  1
  I  I2  1  0.65992550  0.50590977  0.47423793  1
  I  I3  1  0.75686974  0.05235111  0.53828821  1
  O  O0  1  0.12037096  0.58821863  0.84137854  1
  O  O1  1  0.37028719  0.08558001  0.14295526  1
  O  O2  1  0.85918319  0.42767942  0.13405549  1
  O  O3  1  0.66606677  0.93407363  0.88345027  1
  O  O4  1  0.78748821  0.61461984  0.91815603  1
  O  O5  1  0.71889189  0.11747882  0.09522589  1
  O  O6  1  0.20682730  0.39849530  0.05787679  1
  O  O7  1  0.31139794  0.89524756  0.93577814  1
  O  O8  1  0.33135861  0.17614382  0.87955454  1
  O  O9  1  0.17029161  0.67926351  0.10567769  1
  O  O10  1  0.69282618  0.83027232  0.13664396  1
  O  O11  1  0.82994766  0.32871058  0.88069740  1
  O  O12  1  0.94403524  0.93145530  0.11558777  1
  O  O13  1  0.57498823  0.42482733  0.90215837  1
  O  O14  1  0.08654234  0.08253291  0.91811705  1
  O  O15  1  0.41505435  0.58856958  0.06350600  1
loop_
_geom_bond_atom_site_label_1
_geom_bond_atom_site_label_2
_geom_bond_distance
_geom_bond_site_symmetry_2
Mg0 O0 2.219809 1_555
Mg0 Sr7 3.373660 1_455
I0 Sr6 3.371201 1_555
I0 Sr2 3.408435 1_555
I0 Sr5 3.508100 1_555
I0 Mg0 3.556880 1_555
I0 Sr7 3.625661 1_455
I1 Sr4 3.398409 1_555
I1 Sr7 3.534482 1_455
I1 Sr3 3.557648 1_555
I1 Sr6 3.609985 1_565
I2 Sr1 3.432800 1_555
I2 Mg0 3.434813 1_655
I2 Sr4 3.516833 1_555
I2 Sr5 3.605852 1_655
I3 Sr5 3.390192 1_655
I3 Sr0 3.485505 1_545
I3 Sr4 3.599210 1_545
I3 Sr6 3.656527 1_555
O0 P0 1.584280 1_556
O0 Sr5 2.634823 1_555
O0 Sr0 2.759454 1_455
O1 P1 1.564782 1_554
O1 Sr4 2.557779 1_545
O1 Sr1 2.596605 1_555
O1 Sr2 2.993363 1_555
O2 P2 1.562018 1_554
O2 Sr7 2.516957 1_555
O2 Sr2 2.618376 1_655
O2 Sr1 3.032625 1_555
O3 P3 1.576087 1_556
O3 Sr6 2.513889 1_565
O3 Sr3 2.567858 1_555
O3 Sr0 2.676726 1_555
O4 P2 1.551108 1_555
O4 Sr0 2.563232 1_555
O4 Sr3 2.668763 1_555
O4 Sr7 2.926445 1_556
O5 P3 1.533703 1_545
O5 Sr1 2.516104 1_555
O5 Sr2 2.930373 1_655
O5 Sr6 2.991519 1_554
O6 P0 1.546394 1_555
O6 Sr2 2.594083 1_555
O6 Sr5 2.783534 1_554
O6 Sr1 2.821294 1_555
O7 P1 1.541303 1_565
O7 Sr3 2.547995 1_555
O7 Sr4 2.727326 1_556
O8 P1 1.558585 1_555
O8 Sr6 2.572532 1_555
O8 Sr1 2.728733 1_556
O8 Sr5 2.734265 1_555
O9 P0 1.556058 1_555
O9 Sr7 2.516383 1_455
O9 Sr0 2.661896 1_454
O9 Sr4 2.791988 1_555
O10 P3 1.558413 1_555
O10 Sr4 2.516441 1_555
O10 Sr7 2.724096 1_555
O10 Sr3 2.778904 1_554
O11 P2 1.560905 1_555
O11 Sr5 2.508806 1_655
O11 Sr2 2.718096 1_656
O11 Sr6 2.719825 1_555
O12 P3 1.567688 1_555
O12 Sr7 2.555592 1_555
O12 Sr0 2.561036 1_554
O12 Sr2 2.605554 1_665
O13 P2 1.563693 1_555
O13 Sr6 2.550839 1_555
O13 Sr1 2.628996 1_556
O13 Sr3 2.654993 1_555
O14 P1 1.570239 1_555
O14 Sr5 2.499249 1_555
O14 Sr0 2.548396 1_445
O14 Sr2 2.596860 1_556
O15 P0 1.557921 1_555
O15 Sr3 2.548908 1_554
O15 Sr4 2.603488 1_555
O15 Sr1 2.638519 1_555
