# generated using pymatgen
data_Zn3As2(HO)16
_symmetry_space_group_name_H-M   'P 1'
_cell_length_a   4.80182249
_cell_length_b   8.71241719
_cell_length_c   8.71241719
_cell_angle_alpha   106.38182693
_cell_angle_beta   99.20974448
_cell_angle_gamma   99.20974448
_symmetry_Int_Tables_number   1
_chemical_formula_structural   Zn3As2(HO)16
_chemical_formula_sum   'Zn3 As2 H16 O16'
_cell_volume   336.98393539
_cell_formula_units_Z   1
loop_
 _symmetry_equiv_pos_site_id
 _symmetry_equiv_pos_as_xyz
  1  'x, y, z'
loop_
 _atom_site_type_symbol
 _atom_site_label
 _atom_site_symmetry_multiplicity
 _atom_site_fract_x
 _atom_site_fract_y
 _atom_site_fract_z
 _atom_site_occupancy
  Zn  Zn0  1  0.00000000  0.00000000  0.00000000  1
  Zn  Zn1  1  0.00000000  0.61162200  0.38837800  1
  Zn  Zn2  1  0.00000000  0.38837800  0.61162200  1
  As  As0  1  0.37686700  0.31323300  0.31323300  1
  As  As1  1  0.62313300  0.68676700  0.68676700  1
  H  H0  1  0.36564000  0.96302100  0.80344200  1
  H  H1  1  0.36564000  0.80344200  0.96302100  1
  H  H2  1  0.63436000  0.03697900  0.19655800  1
  H  H3  1  0.63436000  0.19655800  0.03697900  1
  H  H4  1  0.05699400  0.93825800  0.69108900  1
  H  H5  1  0.05699400  0.69108900  0.93825800  1
  H  H6  1  0.94300600  0.06174200  0.30891100  1
  H  H7  1  0.94300600  0.30891100  0.06174200  1
  H  H8  1  0.48574000  0.81418700  0.43432400  1
  H  H9  1  0.48574000  0.43432400  0.81418700  1
  H  H10  1  0.51426000  0.18581300  0.56567600  1
  H  H11  1  0.51426000  0.56567600  0.18581300  1
  H  H12  1  0.28864000  0.81474700  0.26665000  1
  H  H13  1  0.28864000  0.26665000  0.81474700  1
  H  H14  1  0.71136000  0.18525300  0.73335000  1
  H  H15  1  0.71136000  0.73335000  0.18525300  1
  O  O0  1  0.38350600  0.14700000  0.14700000  1
  O  O1  1  0.61649400  0.85300000  0.85300000  1
  O  O2  1  0.73226200  0.40620800  0.40620800  1
  O  O3  1  0.26773800  0.59379200  0.59379200  1
  O  O4  1  0.21319800  0.23314900  0.44450000  1
  O  O5  1  0.21319800  0.44450000  0.23314900  1
  O  O6  1  0.78680200  0.76685100  0.55550000  1
  O  O7  1  0.78680200  0.55550000  0.76685100  1
  O  O8  1  0.80306300  0.98349800  0.20935800  1
  O  O9  1  0.80306300  0.20935800  0.98349800  1
  O  O10  1  0.19693700  0.01650200  0.79064200  1
  O  O11  1  0.19693700  0.79064200  0.01650200  1
  O  O12  1  0.71218600  0.18363500  0.62034400  1
  O  O13  1  0.71218600  0.62034400  0.18363500  1
  O  O14  1  0.28781400  0.81636500  0.37965600  1
  O  O15  1  0.28781400  0.37965600  0.81636500  1
loop_
_geom_bond_atom_site_label_1
_geom_bond_atom_site_label_2
_geom_bond_distance
_geom_bond_site_symmetry_2
As0 O2 1.723225 1_555
As0 O4 1.724733 1_555
As0 O5 1.724733 1_555
As0 O0 1.744275 1_555
As1 O3 1.723225 1_555
As1 O7 1.724733 1_555
As1 O6 1.724733 1_555
As1 O1 1.744275 1_555
H0 O10 1.003491 1_565
H0 O1 1.729961 1_555
H1 O11 1.003491 1_556
H1 O1 1.729961 1_555
H2 O8 1.003491 1_545
H2 O0 1.729961 1_555
H3 O9 1.003491 1_554
H3 O0 1.729961 1_555
H4 O10 1.000920 1_565
H5 O11 1.000920 1_556
H6 O8 1.000920 1_545
H7 O9 1.000920 1_554
H8 O14 0.998226 1_555
H9 O15 0.998226 1_555
H10 O12 0.998226 1_555
H11 O13 0.998226 1_555
H12 O14 0.981327 1_555
H13 O15 0.981327 1_555
H14 O12 0.981327 1_555
H15 O13 0.981327 1_555
O0 Zn0 2.058304 1_555
O1 Zn0 2.058304 1_666
O2 Zn1 2.089040 1_655
O2 Zn2 2.089040 1_655
O3 Zn2 2.089040 1_555
O3 Zn1 2.089040 1_555
O4 Zn2 2.192416 1_555
O5 Zn1 2.192416 1_555
O6 Zn1 2.192416 1_655
O7 Zn2 2.192416 1_655
O8 Zn0 2.213256 1_665
O9 Zn0 2.213256 1_656
O10 Zn0 2.213256 1_556
O11 Zn0 2.213256 1_565
O12 Zn2 2.102070 1_655
O13 Zn1 2.102070 1_655
O14 Zn1 2.102070 1_555
O15 Zn2 2.102070 1_555
