# generated using pymatgen
data_SrCa7Mn8O23
_symmetry_space_group_name_H-M   'P 1'
_cell_length_a   7.64193002
_cell_length_b   7.64193002
_cell_length_c   7.71701000
_cell_angle_alpha   90.00000000
_cell_angle_beta   90.00000000
_cell_angle_gamma   90.00910203
_symmetry_Int_Tables_number   1
_chemical_formula_structural   SrCa7Mn8O23
_chemical_formula_sum   'Sr1 Ca7 Mn8 O23'
_cell_volume   450.66639051
_cell_formula_units_Z   1
loop_
 _symmetry_equiv_pos_site_id
 _symmetry_equiv_pos_as_xyz
  1  'x, y, z'
loop_
 _atom_site_type_symbol
 _atom_site_label
 _atom_site_symmetry_multiplicity
 _atom_site_fract_x
 _atom_site_fract_y
 _atom_site_fract_z
 _atom_site_occupancy
  Sr  Sr0  1  0.25643200  0.25643200  0.25000000  1
  Ca  Ca0  1  0.26518500  0.26518500  0.75000000  1
  Ca  Ca1  1  0.25976400  0.74331100  0.25000000  1
  Ca  Ca2  1  0.26518100  0.73809600  0.75000000  1
  Ca  Ca3  1  0.74331100  0.25976400  0.25000000  1
  Ca  Ca4  1  0.73809600  0.26518100  0.75000000  1
  Ca  Ca5  1  0.74231200  0.74231200  0.25000000  1
  Ca  Ca6  1  0.73518800  0.73518800  0.75000000  1
  Mn  Mn0  1  0.99870800  0.99870800  0.99013100  1
  Mn  Mn1  1  0.99870800  0.99870800  0.50986900  1
  Mn  Mn2  1  0.99919300  0.50181900  0.00300200  1
  Mn  Mn3  1  0.99919300  0.50181900  0.49699800  1
  Mn  Mn4  1  0.50181900  0.99919300  0.00300200  1
  Mn  Mn5  1  0.50181900  0.99919300  0.49699800  1
  Mn  Mn6  1  0.50084500  0.50084500  0.00038000  1
  Mn  Mn7  1  0.50084500  0.50084500  0.49962000  1
  O  O0  1  0.99491200  0.99491200  0.75000000  1
  O  O1  1  0.99583000  0.49704700  0.25000000  1
  O  O2  1  0.99784500  0.50471500  0.75000000  1
  O  O3  1  0.49704700  0.99583000  0.25000000  1
  O  O4  1  0.50471500  0.99784500  0.75000000  1
  O  O5  1  0.50302900  0.50302900  0.25000000  1
  O  O6  1  0.50120300  0.50120300  0.75000000  1
  O  O7  1  0.24602000  0.99507100  0.02369400  1
  O  O8  1  0.24602000  0.99507100  0.47630600  1
  O  O9  1  0.24999000  0.50323900  0.98946300  1
  O  O10  1  0.24999000  0.50323900  0.51053700  1
  O  O11  1  0.75447100  0.99922800  0.03559100  1
  O  O12  1  0.75447100  0.99922800  0.46440900  1
  O  O13  1  0.74968000  0.50171000  0.99244600  1
  O  O14  1  0.74968000  0.50171000  0.50755400  1
  O  O15  1  0.99507100  0.24602000  0.02369400  1
  O  O16  1  0.99507100  0.24602000  0.47630600  1
  O  O17  1  0.99922800  0.75447100  0.03559100  1
  O  O18  1  0.99922800  0.75447100  0.46440900  1
  O  O19  1  0.50323900  0.24999000  0.98946300  1
  O  O20  1  0.50323900  0.24999000  0.51053700  1
  O  O21  1  0.50171000  0.74968000  0.99244600  1
  O  O22  1  0.50171000  0.74968000  0.50755400  1
loop_
_geom_bond_atom_site_label_1
_geom_bond_atom_site_label_2
_geom_bond_distance
_geom_bond_site_symmetry_2
Ca0 O6 2.550520 1_555
Ca0 O19 2.595744 1_555
Ca0 O9 2.595744 1_555
Ca0 O10 2.595744 1_555
Ca0 O20 2.595744 1_555
Ca0 O4 2.743289 1_545
Ca0 O2 2.743289 1_455
Ca0 O0 2.920695 1_445
Ca0 O16 2.956891 1_455
Ca0 O8 2.956891 1_545
Ca0 O7 2.956891 1_546
Ca0 O15 2.956891 1_456
Ca1 O17 2.590191 1_455
Ca1 O18 2.590191 1_455
Ca1 O8 2.600489 1_555
Ca1 O7 2.600489 1_555
Ca1 O5 2.613181 1_555
Ca1 O3 2.647794 1_555
Ca1 O21 2.715003 1_554
Ca1 O22 2.715003 1_555
Ca1 O9 2.722815 1_554
Ca1 O10 2.722815 1_555
Ca1 O1 2.758371 1_455
Ca2 O6 2.555679 1_555
Ca2 O10 2.578653 1_555
Ca2 O9 2.578653 1_555
Ca2 O21 2.602972 1_555
Ca2 O22 2.602972 1_555
Ca2 O4 2.699953 1_555
Ca2 O2 2.711705 1_455
Ca2 O0 2.849342 1_455
Ca2 O8 2.887724 1_555
Ca2 O7 2.887724 1_556
Ca2 O17 3.000596 1_456
Ca2 O18 3.000596 1_455
Ca3 O11 2.590191 1_545
Ca3 O12 2.590191 1_545
Ca3 O15 2.600489 1_555
Ca3 O16 2.600489 1_555
Ca3 O5 2.613181 1_555
Ca3 O1 2.647794 1_555
Ca3 O14 2.715003 1_555
Ca3 O13 2.715003 1_554
Ca3 O20 2.722815 1_555
Ca3 O19 2.722815 1_554
Ca3 O3 2.758371 1_545
Ca4 O6 2.555679 1_555
Ca4 O19 2.578653 1_555
Ca4 O20 2.578653 1_555
Ca4 O14 2.602972 1_555
Ca4 O13 2.602972 1_555
Ca4 O2 2.699953 1_555
Ca4 O4 2.711705 1_545
Ca4 O0 2.849342 1_545
Ca4 O16 2.887724 1_555
Ca4 O15 2.887724 1_556
Ca4 O11 3.000596 1_546
Ca4 O12 3.000596 1_545
Ca5 O17 2.569231 1_555
Ca5 O18 2.569231 1_555
Ca5 O11 2.569231 1_555
Ca5 O12 2.569231 1_555
Ca5 O5 2.585803 1_555
Ca5 O1 2.695837 1_555
Ca5 O3 2.695837 1_555
Ca5 O13 2.708178 1_554
Ca5 O22 2.708178 1_555
Ca5 O21 2.708178 1_554
Ca5 O14 2.708178 1_555
Ca6 O6 2.528550 1_555
Ca6 O14 2.587714 1_555
Ca6 O13 2.587714 1_555
Ca6 O21 2.587714 1_555
Ca6 O22 2.587714 1_555
Ca6 O4 2.670587 1_555
Ca6 O2 2.670587 1_555
Ca6 O0 2.806698 1_555
Ca6 O18 2.991697 1_555
Ca6 O12 2.991697 1_555
Ca6 O17 2.991697 1_556
Ca6 O11 2.991697 1_556
Mn0 O0 1.853547 1_555
Mn0 O17 1.899130 1_556
Mn0 O11 1.899130 1_556
Mn0 O7 1.907813 1_656
Mn0 O15 1.907813 1_566
Mn1 O0 1.853547 1_555
Mn1 O18 1.899130 1_555
Mn1 O12 1.899130 1_555
Mn1 O8 1.907813 1_655
Mn1 O16 1.907813 1_565
Mn2 O1 1.906608 1_555
Mn2 O13 1.908500 1_554
Mn2 O9 1.919448 1_654
Mn2 O17 1.947059 1_555
Mn2 O2 1.952572 1_554
Mn2 O15 1.961557 1_555
Mn3 O1 1.906608 1_555
Mn3 O14 1.908500 1_555
Mn3 O10 1.919448 1_655
Mn3 O18 1.947059 1_555
Mn3 O2 1.952572 1_555
Mn3 O16 1.961557 1_555
Mn4 O3 1.906608 1_555
Mn4 O21 1.908500 1_554
Mn4 O19 1.919448 1_564
Mn4 O11 1.947059 1_555
Mn4 O4 1.952572 1_554
Mn4 O7 1.961557 1_555
Mn5 O3 1.906608 1_555
Mn5 O22 1.908500 1_555
Mn5 O20 1.919448 1_565
Mn5 O12 1.947059 1_555
Mn5 O4 1.952572 1_555
Mn5 O8 1.961557 1_555
Mn6 O13 1.902576 1_554
Mn6 O21 1.902576 1_554
Mn6 O9 1.918957 1_554
Mn6 O19 1.918957 1_554
Mn6 O5 1.926465 1_555
Mn6 O6 1.932189 1_554
Mn7 O22 1.902576 1_555
Mn7 O14 1.902576 1_555
Mn7 O10 1.918957 1_555
Mn7 O20 1.918957 1_555
Mn7 O5 1.926465 1_555
Mn7 O6 1.932189 1_555
O1 Sr0 2.710774 1_655
O3 Sr0 2.710774 1_565
O5 Sr0 2.664841 1_555
O7 Sr0 2.654323 1_565
O8 Sr0 2.654323 1_565
O9 Sr0 2.757197 1_556
O10 Sr0 2.757197 1_555
O15 Sr0 2.654323 1_655
O16 Sr0 2.654323 1_655
O19 Sr0 2.757197 1_556
O20 Sr0 2.757197 1_555
