# generated using pymatgen
data_Ca2VFe4BiO12
_symmetry_space_group_name_H-M   'P 1'
_cell_length_a   10.92554300
_cell_length_b   10.94159374
_cell_length_c   10.95890183
_cell_angle_alpha   109.62262878
_cell_angle_beta   109.35204811
_cell_angle_gamma   109.33630554
_symmetry_Int_Tables_number   1
_chemical_formula_structural   Ca2VFe4BiO12
_chemical_formula_sum   'Ca8 V4 Fe16 Bi4 O48'
_cell_volume   1009.75336515
_cell_formula_units_Z   4
loop_
 _symmetry_equiv_pos_site_id
 _symmetry_equiv_pos_as_xyz
  1  'x, y, z'
loop_
 _atom_site_type_symbol
 _atom_site_label
 _atom_site_symmetry_multiplicity
 _atom_site_fract_x
 _atom_site_fract_y
 _atom_site_fract_z
 _atom_site_occupancy
  Ca  Ca0  1  0.37523000  0.74872300  0.87576200  1
  Ca  Ca1  1  0.24760000  0.87152300  0.37406000  1
  Ca  Ca2  1  0.62824900  0.87710500  0.24739600  1
  Ca  Ca3  1  0.87745000  0.75179100  0.37264400  1
  Ca  Ca4  1  0.12255000  0.24820900  0.62735600  1
  Ca  Ca5  1  0.37175100  0.12289500  0.75260400  1
  Ca  Ca6  1  0.75240000  0.12847700  0.62594000  1
  Ca  Ca7  1  0.62477000  0.25127700  0.12423800  1
  V  V0  1  0.50000000  0.00000000  0.00000000  1
  V  V1  1  0.50000000  0.00000000  0.50000000  1
  V  V2  1  0.00000000  0.00000000  0.50000000  1
  V  V3  1  0.50000000  0.50000000  0.50000000  1
  Fe  Fe0  1  0.12703100  0.88044800  0.74780700  1
  Fe  Fe1  1  0.75096400  0.87829500  0.87195100  1
  Fe  Fe2  1  0.62384000  0.74917400  0.62499400  1
  Fe  Fe3  1  0.25198200  0.62813400  0.62304300  1
  Fe  Fe4  1  0.12522300  0.74834700  0.12861500  1
  Fe  Fe5  1  0.50000000  0.50000000  0.00000000  1
  Fe  Fe6  1  0.00000000  0.00000000  0.00000000  1
  Fe  Fe7  1  0.37844700  0.62855900  0.24919900  1
  Fe  Fe8  1  0.62155300  0.37144100  0.75080100  1
  Fe  Fe9  1  0.00000000  0.50000000  0.50000000  1
  Fe  Fe10  1  0.37616000  0.25082600  0.37500600  1
  Fe  Fe11  1  0.74801800  0.37186600  0.37695700  1
  Fe  Fe12  1  0.87477700  0.25165300  0.87138500  1
  Fe  Fe13  1  0.00000000  0.50000000  0.00000000  1
  Fe  Fe14  1  0.24903600  0.12170500  0.12804900  1
  Fe  Fe15  1  0.87296900  0.11955200  0.25219300  1
  Bi  Bi0  1  0.24060700  0.36912600  0.88183400  1
  Bi  Bi1  1  0.87493500  0.61283500  0.75246100  1
  Bi  Bi2  1  0.12506500  0.38716500  0.24753900  1
  Bi  Bi3  1  0.75939300  0.63087400  0.11816600  1
  O  O0  1  0.32912100  0.90491700  0.98412000  1
  O  O1  1  0.07861700  0.89057000  0.59352300  1
  O  O2  1  0.09544900  0.98221000  0.33017800  1
  O  O3  1  0.32910200  0.92292700  0.68913900  1
  O  O4  1  0.59494600  0.92411000  0.88561200  1
  O  O5  1  0.57782400  0.90586600  0.61019200  1
  O  O6  1  0.40634000  0.83000700  0.48054000  1
  O  O7  1  0.20044300  0.58045900  0.82104800  1
  O  O8  1  0.08134400  0.70388600  0.32350600  1
  O  O9  1  0.09640800  0.62356900  0.58284000  1
  O  O10  1  0.87498500  0.97191100  0.20514700  1
  O  O11  1  0.70214800  0.67920400  0.92031800  1
  O  O12  1  0.42599800  0.83021900  0.18937800  1
  O  O13  1  0.82735600  0.81157700  0.57644400  1
  O  O14  1  0.47762200  0.59970700  0.82096200  1
  O  O15  1  0.61071600  0.68630200  0.48527500  1
  O  O16  1  0.97628000  0.68136700  0.90542400  1
  O  O17  1  0.79680400  0.87940100  0.02276600  1
  O  O18  1  0.12317100  0.59280100  0.08466700  1
  O  O19  1  0.31153400  0.48466800  0.60917400  1
  O  O20  1  0.18082300  0.47774800  0.40139600  1
  O  O21  1  0.51954300  0.61511000  0.31076600  1
  O  O22  1  0.97343400  0.79341800  0.12066600  1
  O  O23  1  0.62256900  0.41949300  0.90072100  1
  O  O24  1  0.37743100  0.58050700  0.09927900  1
  O  O25  1  0.02656600  0.20658200  0.87933400  1
  O  O26  1  0.48045700  0.38489000  0.68923400  1
  O  O27  1  0.81917700  0.52225200  0.59860400  1
  O  O28  1  0.68846600  0.51533200  0.39082600  1
  O  O29  1  0.87682900  0.40719900  0.91533300  1
  O  O30  1  0.20319600  0.12059900  0.97723400  1
  O  O31  1  0.02372000  0.31863300  0.09457600  1
  O  O32  1  0.38928400  0.31369800  0.51472500  1
  O  O33  1  0.52237800  0.40029300  0.17903800  1
  O  O34  1  0.17264400  0.18842300  0.42355600  1
  O  O35  1  0.57400200  0.16978100  0.81062200  1
  O  O36  1  0.29785200  0.32079600  0.07968200  1
  O  O37  1  0.12501500  0.02808900  0.79485300  1
  O  O38  1  0.90359200  0.37643100  0.41716000  1
  O  O39  1  0.91865600  0.29611400  0.67649400  1
  O  O40  1  0.79955700  0.41954100  0.17895200  1
  O  O41  1  0.59366000  0.16999300  0.51946000  1
  O  O42  1  0.42217600  0.09413400  0.38980800  1
  O  O43  1  0.40505400  0.07589000  0.11438800  1
  O  O44  1  0.67089800  0.07707300  0.31086100  1
  O  O45  1  0.90455100  0.01779000  0.66982200  1
  O  O46  1  0.92138300  0.10943000  0.40647700  1
  O  O47  1  0.67087900  0.09508300  0.01588000  1
loop_
_geom_bond_atom_site_label_1
_geom_bond_atom_site_label_2
_geom_bond_distance
_geom_bond_site_symmetry_2
Ca0 O7 1.888722 1_555
Ca0 O0 2.046500 1_555
Ca0 Fe3 2.263160 1_555
Ca0 O14 2.294785 1_555
Ca0 O4 2.468858 1_555
Ca1 O8 1.847946 1_555
Ca1 O6 2.027895 1_555
Ca1 O2 2.378222 1_555
Ca1 O42 2.454269 1_565
Ca2 O44 1.891045 1_565
Ca2 O12 1.910320 1_555
Ca3 O1 2.188818 1_655
Ca3 V2 2.218992 1_665
Ca3 O13 2.404489 1_555
Ca3 O8 2.627896 1_655
Ca3 O28 2.842183 1_555
Ca4 O46 2.188818 1_455
Ca4 V2 2.218992 1_555
Ca4 O34 2.404489 1_555
Ca4 O39 2.627896 1_455
Ca4 O19 2.842183 1_555
Ca5 O3 1.891045 1_545
Ca5 O35 1.910320 1_555
Ca6 O39 1.847946 1_555
Ca6 O41 2.027895 1_555
Ca6 O45 2.378222 1_555
Ca6 O5 2.454269 1_545
Ca7 O40 1.888722 1_555
Ca7 O47 2.046500 1_555
Ca7 Fe11 2.263160 1_555
Ca7 O33 2.294785 1_555
Ca7 O43 2.468858 1_555
Fe0 O37 1.532188 1_565
Fe0 O1 1.650045 1_555
Fe0 O0 2.647017 1_555
Fe1 O17 1.554535 1_556
Fe1 O4 1.965677 1_555
Fe1 O11 2.346103 1_555
Fe2 O15 1.385633 1_555
Fe2 O5 1.980401 1_555
Fe3 O9 1.586940 1_555
Fe3 O19 1.868739 1_555
Fe3 O20 2.104490 1_555
Fe4 O18 1.595631 1_555
Fe4 O22 1.864321 1_455
Fe5 O23 2.203633 1_554
Fe5 O24 2.203633 1_555
Fe5 O14 2.529035 1_554
Fe5 O33 2.529035 1_555
Fe6 O17 2.319530 1_445
Fe6 O30 2.319530 1_554
Fe7 O24 1.542640 1_555
Fe7 O21 1.543001 1_555
Fe7 O6 2.582358 1_555
Fe8 O23 1.542640 1_555
Fe8 O26 1.543001 1_555
Fe8 O41 2.582358 1_555
Fe9 O9 1.166370 1_555
Fe9 O38 1.166370 1_455
Fe10 O32 1.385633 1_555
Fe10 O42 1.980401 1_555
Fe11 O38 1.586940 1_555
Fe11 O28 1.868739 1_555
Fe11 O27 2.104490 1_555
Fe12 O29 1.595631 1_555
Fe12 O25 1.864321 1_655
Fe13 O18 1.156586 1_555
Fe13 O29 1.156586 1_454
Fe14 O30 1.554535 1_554
Fe14 O43 1.965677 1_555
Fe14 O36 2.346103 1_555
Fe15 O10 1.532188 1_545
Fe15 O46 1.650045 1_555
Fe15 O47 2.647017 1_555
Bi0 O24 2.215907 1_556
Bi0 Ca4 2.280198 1_555
Bi0 Fe5 2.322484 1_556
Bi0 O36 2.337148 1_556
Bi0 O25 2.408948 1_555
Bi0 O7 2.737867 1_555
Bi1 O16 1.405026 1_555
Bi1 O27 1.411875 1_555
Bi2 O31 1.405026 1_555
Bi2 O20 1.411875 1_555
Bi3 O23 2.215907 1_554
Bi3 Ca3 2.280198 1_555
Bi3 Fe5 2.322484 1_555
Bi3 O11 2.337148 1_554
Bi3 O22 2.408948 1_555
Bi3 O40 2.737867 1_555
O0 O43 1.618479 1_566
O0 V0 1.724806 1_566
O1 V2 2.035600 1_565
O2 V2 2.401311 1_565
O4 O47 1.618479 1_566
O4 V0 2.017447 1_566
O5 O6 1.622279 1_555
O5 V1 1.994219 1_565
O6 V1 1.697266 1_565
O11 O17 1.790742 1_556
O15 V3 2.088517 1_555
O30 O36 1.790742 1_556
O32 V3 2.088517 1_555
O41 O42 1.622279 1_555
O41 V1 1.697266 1_555
O42 V1 1.994219 1_555
O43 V0 2.017447 1_555
O45 V2 2.401311 1_655
O46 V2 2.035600 1_655
O47 V0 1.724806 1_555
