# generated using pymatgen
data_CsTh
_symmetry_space_group_name_H-M   'P 1'
_cell_length_a   15.59430235
_cell_length_b   15.59430235
_cell_length_c   15.59430269
_cell_angle_alpha   27.73373277
_cell_angle_beta   27.73373277
_cell_angle_gamma   27.73373169
_symmetry_Int_Tables_number   1
_chemical_formula_structural   CsTh
_chemical_formula_sum   'Cs8 Th8'
_cell_volume   725.10634979
_cell_formula_units_Z   8
loop_
 _symmetry_equiv_pos_site_id
 _symmetry_equiv_pos_as_xyz
  1  'x, y, z'
loop_
 _atom_site_type_symbol
 _atom_site_label
 _atom_site_symmetry_multiplicity
 _atom_site_fract_x
 _atom_site_fract_y
 _atom_site_fract_z
 _atom_site_occupancy
  Cs  Cs0_0  1  0.00000000  0.00000000  0.00000000  1
  Cs  Cs0_1  1  0.00000000  0.00000000  0.50000000  1
  Cs  Cs0_2  1  1.00000000  0.50000000  0.00000000  1
  Cs  Cs0_3  1  0.00000000  0.50000000  0.50000000  1
  Cs  Cs0_4  1  0.50000000  0.00000000  0.00000000  1
  Cs  Cs0_5  1  0.50000000  0.00000000  0.50000000  1
  Cs  Cs0_6  1  0.50000000  0.50000000  0.00000000  1
  Cs  Cs0_7  1  0.50000000  0.50000000  0.50000000  1
  Th  Th0_0  1  0.25000000  0.25000000  0.25000000  1
  Th  Th0_1  1  0.25000000  0.25000000  0.75000000  1
  Th  Th0_2  1  0.25000000  0.75000000  0.25000000  1
  Th  Th0_3  1  0.25000000  0.75000000  0.75000000  1
  Th  Th0_4  1  0.75000000  0.25000000  0.25000000  1
  Th  Th0_5  1  0.75000000  0.25000000  0.75000000  1
  Th  Th0_6  1  0.75000000  0.75000000  0.25000000  1
  Th  Th0_7  1  0.75000000  0.75000000  0.75000000  1
loop_
_geom_bond_atom_site_label_1
_geom_bond_atom_site_label_2
_geom_bond_distance
_geom_bond_site_symmetry_2
Cs0_0 Cs0_6 3.737434 1_545
Cs0_0 Cs0_6 3.737434 1_455
Cs0_0 Cs0_3 3.737434 1_545
Cs0_0 Cs0_3 3.737434 1_554
Cs0_0 Cs0_5 3.737434 1_455
Cs0_0 Cs0_5 3.737434 1_554
Cs0_0 Th0_1 4.323308 1_554
Cs0_0 Th0_6 4.323308 1_445
Cs0_0 Th0_2 4.323308 1_545
Cs0_0 Th0_4 4.323308 1_455
Cs0_0 Th0_5 4.323308 1_454
Cs0_0 Th0_3 4.323308 1_544
Cs0_1 Cs0_7 3.737434 1_545
Cs0_1 Cs0_7 3.737434 1_455
Cs0_1 Cs0_4 3.737434 1_555
Cs0_1 Cs0_2 3.737434 1_455
Cs0_1 Cs0_2 3.737434 1_446
Cs0_1 Cs0_4 3.737434 1_456
Cs0_1 Th0_0 4.323308 1_555
Cs0_1 Th0_7 4.323308 1_445
Cs0_1 Th0_3 4.323308 1_545
Cs0_1 Th0_5 4.323308 1_455
Cs0_1 Th0_4 4.323308 1_455
Cs0_1 Th0_2 4.323308 1_545
Cs0_2 Cs0_4 3.737434 1_565
Cs0_2 Cs0_4 3.737434 1_655
Cs0_2 Cs0_7 3.737434 1_555
Cs0_2 Cs0_7 3.737434 1_654
Cs0_2 Th0_4 4.323308 1_555
Cs0_2 Th0_3 4.323308 1_654
Cs0_2 Th0_7 4.323308 1_554
Cs0_2 Th0_1 4.323308 1_654
Cs0_2 Th0_6 4.323308 1_555
Cs0_2 Th0_0 4.323308 1_655
Cs0_3 Cs0_5 3.737434 1_465
Cs0_3 Cs0_5 3.737434 1_555
Cs0_3 Cs0_6 3.737434 1_555
Cs0_3 Cs0_6 3.737434 1_456
Cs0_3 Th0_2 4.323308 1_555
Cs0_3 Th0_5 4.323308 1_455
Cs0_3 Th0_0 4.323308 1_555
Cs0_3 Th0_7 4.323308 1_455
Cs0_3 Th0_1 4.323308 1_555
Cs0_3 Th0_6 4.323308 1_455
Cs0_4 Cs0_7 3.737434 1_545
Cs0_4 Cs0_7 3.737434 1_554
Cs0_4 Th0_5 4.323308 1_554
Cs0_4 Th0_2 4.323308 1_545
Cs0_4 Th0_6 4.323308 1_545
Cs0_4 Th0_1 4.323308 1_554
Cs0_4 Th0_0 4.323308 1_555
Cs0_4 Th0_7 4.323308 1_544
Cs0_5 Cs0_6 3.737434 1_546
Cs0_5 Cs0_6 3.737434 1_555
Cs0_5 Th0_4 4.323308 1_555
Cs0_5 Th0_3 4.323308 1_545
Cs0_5 Th0_7 4.323308 1_545
Cs0_5 Th0_0 4.323308 1_555
Cs0_5 Th0_1 4.323308 1_555
Cs0_5 Th0_6 4.323308 1_545
Cs0_6 Th0_0 4.323308 1_555
Cs0_6 Th0_7 4.323308 1_554
Cs0_6 Th0_5 4.323308 1_554
Cs0_6 Th0_2 4.323308 1_555
Cs0_6 Th0_4 4.323308 1_555
Cs0_6 Th0_3 4.323308 1_554
Cs0_7 Th0_1 4.323308 1_555
Cs0_7 Th0_6 4.323308 1_555
Cs0_7 Th0_4 4.323308 1_555
Cs0_7 Th0_3 4.323308 1_555
Cs0_7 Th0_2 4.323308 1_555
Cs0_7 Th0_5 4.323308 1_555
Th0_0 Th0_6 3.737434 1_545
Th0_0 Th0_6 3.737434 1_455
Th0_0 Th0_5 3.737434 1_455
Th0_0 Th0_3 3.737434 1_545
Th0_0 Th0_3 3.737434 1_554
Th0_0 Th0_5 3.737434 1_554
Th0_1 Th0_7 3.737434 1_545
Th0_1 Th0_7 3.737434 1_455
Th0_1 Th0_4 3.737434 1_555
Th0_1 Th0_2 3.737434 1_555
Th0_1 Th0_2 3.737434 1_546
Th0_1 Th0_4 3.737434 1_456
Th0_2 Th0_4 3.737434 1_465
Th0_2 Th0_4 3.737434 1_555
Th0_2 Th0_7 3.737434 1_455
Th0_2 Th0_7 3.737434 1_554
Th0_3 Th0_5 3.737434 1_465
Th0_3 Th0_5 3.737434 1_555
Th0_3 Th0_6 3.737434 1_555
Th0_3 Th0_6 3.737434 1_456
Th0_4 Th0_7 3.737434 1_554
Th0_4 Th0_7 3.737434 1_545
Th0_5 Th0_6 3.737434 1_555
Th0_5 Th0_6 3.737434 1_546
