# generated using pymatgen
data_PrPOsO
_symmetry_space_group_name_H-M   'P 1'
_cell_length_a   4.07527900
_cell_length_b   4.07527900
_cell_length_c   8.35242700
_cell_angle_alpha   90.00000000
_cell_angle_beta   90.00000000
_cell_angle_gamma   90.00000000
_symmetry_Int_Tables_number   1
_chemical_formula_structural   PrPOsO
_chemical_formula_sum   'Pr2 P2 Os2 O2'
_cell_volume   138.71626342
_cell_formula_units_Z   2
loop_
 _symmetry_equiv_pos_site_id
 _symmetry_equiv_pos_as_xyz
  1  'x, y, z'
loop_
 _atom_site_type_symbol
 _atom_site_label
 _atom_site_symmetry_multiplicity
 _atom_site_fract_x
 _atom_site_fract_y
 _atom_site_fract_z
 _atom_site_occupancy
  Pr  Pr0  1  0.00000000  0.50000000  0.85663500  1
  Pr  Pr1  1  0.50000000  0.00000000  0.14336500  1
  P  P0  1  0.00000000  0.50000000  0.35827000  1
  P  P1  1  0.50000000  0.00000000  0.64173000  1
  Os  Os0  1  0.00000000  0.00000000  0.50000000  1
  Os  Os1  1  0.50000000  0.50000000  0.50000000  1
  O  O0  1  0.00000000  0.00000000  0.00000000  1
  O  O1  1  0.50000000  0.50000000  0.00000000  1
loop_
_geom_bond_atom_site_label_1
_geom_bond_atom_site_label_2
_geom_bond_distance
_geom_bond_site_symmetry_2
P0 Pr1 3.394981 1_565
P0 Pr1 3.394981 1_465
P0 Pr1 3.394981 1_555
P0 Pr1 3.394981 1_455
P1 Pr0 3.394981 1_645
P1 Pr0 3.394981 1_555
P1 Pr0 3.394981 1_655
P1 Pr0 3.394981 1_545
Os0 P0 2.356551 1_545
Os0 P0 2.356551 1_555
Os0 P1 2.356551 1_455
Os0 P1 2.356551 1_555
Os1 P0 2.356551 1_655
Os1 P0 2.356551 1_555
Os1 P1 2.356551 1_565
Os1 P1 2.356551 1_555
O0 Pr1 2.363440 1_555
O0 Pr1 2.363440 1_455
O0 Pr0 2.363440 1_554
O0 Pr0 2.363440 1_544
O1 Pr1 2.363440 1_555
O1 Pr1 2.363440 1_565
O1 Pr0 2.363440 1_554
O1 Pr0 2.363440 1_654
