# generated using pymatgen
data_Fe8H10O17
_symmetry_space_group_name_H-M   'P 1'
_cell_length_a   6.16051800
_cell_length_b   10.55606682
_cell_length_c   10.72355882
_cell_angle_alpha   90.66989804
_cell_angle_beta   90.78172386
_cell_angle_gamma   90.29065228
_symmetry_Int_Tables_number   1
_chemical_formula_structural   Fe8H10O17
_chemical_formula_sum   'Fe16 H20 O34'
_cell_volume   697.23992101
_cell_formula_units_Z   2
loop_
 _symmetry_equiv_pos_site_id
 _symmetry_equiv_pos_as_xyz
  1  'x, y, z'
loop_
 _atom_site_type_symbol
 _atom_site_label
 _atom_site_symmetry_multiplicity
 _atom_site_fract_x
 _atom_site_fract_y
 _atom_site_fract_z
 _atom_site_occupancy
  Fe  Fe0  1  0.98298600  0.08947200  0.68661600  1
  Fe  Fe1  1  0.00078400  0.60293500  0.85448500  1
  Fe  Fe2  1  0.75255800  0.58443300  0.15596500  1
  Fe  Fe3  1  0.75591100  0.07676000  0.30058400  1
  Fe  Fe4  1  0.00611400  0.78838500  0.32777300  1
  Fe  Fe5  1  0.00601800  0.28787000  0.10959500  1
  Fe  Fe6  1  0.74246500  0.30969700  0.83219100  1
  Fe  Fe7  1  0.74934100  0.79898700  0.65760700  1
  Fe  Fe8  1  0.50323200  0.09017300  0.68006100  1
  Fe  Fe9  1  0.49714500  0.60517400  0.85636700  1
  Fe  Fe10  1  0.25106900  0.58861800  0.14395200  1
  Fe  Fe11  1  0.24388300  0.98067300  0.17579800  1
  Fe  Fe12  1  0.49333400  0.79000400  0.32793600  1
  Fe  Fe13  1  0.50002200  0.28314900  0.12512800  1
  Fe  Fe14  1  0.25145100  0.30712500  0.82853700  1
  Fe  Fe15  1  0.24827700  0.79465700  0.63561900  1
  H  H0  1  0.00382200  0.36406500  0.62807000  1
  H  H1  1  0.98789100  0.58960800  0.59818200  1
  H  H2  1  0.74517000  0.67347200  0.45622600  1
  H  H3  1  0.04780400  0.51880000  0.34648700  1
  H  H4  1  0.90483400  0.32672300  0.30881200  1
  H  H5  1  0.11997600  0.24170700  0.30643300  1
  H  H6  1  0.76040900  0.20254800  0.53543700  1
  H  H7  1  0.80394800  0.81702400  0.90401600  1
  H  H8  1  0.51043900  0.38359700  0.65034700  1
  H  H9  1  0.49173500  0.59266000  0.59872600  1
  H  H10  1  0.44074800  0.51822400  0.34180100  1
  H  H11  1  0.13882700  0.17813100  0.48529500  1
  H  H12  1  0.18401300  0.03710000  0.44920300  1
  H  H13  1  0.26959800  0.81460700  0.89757500  1
  H  H14  1  0.54952100  0.86599800  0.04719500  1
  H  H15  1  0.52897200  0.99693300  0.97542400  1
  H  H16  1  0.05529100  0.01339500  0.94821300  1
  H  H17  1  0.88391000  0.03581800  0.05347300  1
  H  H18  1  0.42910400  0.17500100  0.40834600  1
  H  H19  1  0.55758300  0.30626900  0.39703700  1
  O  O0  1  0.99089200  0.29446500  0.68580200  1
  O  O1  1  0.00010800  0.29491400  0.93628300  1
  O  O2  1  0.99652700  0.65967500  0.65709000  1
  O  O3  1  0.99966900  0.91051700  0.65970100  1
  O  O4  1  0.74774700  0.76673600  0.21405600  1
  O  O5  1  0.75015400  0.76579500  0.46379000  1
  O  O6  1  0.76022200  0.14892000  0.13798200  1
  O  O7  1  0.76093200  0.39185000  0.18256900  1
  O  O8  1  0.01148600  0.59100300  0.29487400  1
  O  O9  1  0.99547500  0.59910800  0.03649500  1
  O  O10  1  0.99274700  0.26323700  0.35956000  1
  O  O11  1  0.01749400  0.97935300  0.31351000  1
  O  O12  1  0.74121600  0.11423200  0.79794100  1
  O  O13  1  0.74873200  0.11064800  0.54019800  1
  O  O14  1  0.76044800  0.75037600  0.84445500  1
  O  O15  1  0.74457900  0.49542400  0.81521500  1
  O  O16  1  0.49552200  0.30001000  0.68608400  1
  O  O17  1  0.49879000  0.29561300  0.94618000  1
  O  O18  1  0.49980000  0.66155200  0.65901800  1
  O  O19  1  0.49926500  0.91105700  0.65755800  1
  O  O20  1  0.24617000  0.78750100  0.19977600  1
  O  O21  1  0.25114000  0.77972400  0.45416500  1
  O  O22  1  0.24533000  0.16046000  0.14951600  1
  O  O23  1  0.25419200  0.40122800  0.16543400  1
  O  O24  1  0.49772600  0.59022200  0.29688000  1
  O  O25  1  0.50429600  0.60558100  0.03781700  1
  O  O26  1  0.49789800  0.97611700  0.29914100  1
  O  O27  1  0.24851200  0.11692400  0.78183900  1
  O  O28  1  0.23659900  0.10754600  0.50655900  1
  O  O29  1  0.25172400  0.74426200  0.83798300  1
  O  O30  1  0.24927600  0.49318800  0.81582800  1
  O  O31  1  0.44611400  0.92939900  0.01567900  1
  O  O32  1  0.98985000  0.97072100  0.01969100  1
  O  O33  1  0.52004400  0.22832600  0.35253400  1
loop_
_geom_bond_atom_site_label_1
_geom_bond_atom_site_label_2
_geom_bond_distance
_geom_bond_site_symmetry_2
Fe0 O3 1.911138 1_545
Fe0 O27 1.935237 1_655
Fe0 O12 1.938309 1_555
Fe0 O13 2.132491 1_555
Fe0 O0 2.164343 1_555
Fe1 O9 1.953401 1_456
Fe1 O30 1.970154 1_555
Fe1 O15 1.977129 1_455
Fe1 O29 2.153384 1_555
Fe1 O14 2.156165 1_455
Fe1 O2 2.206460 1_455
Fe2 O25 1.987807 1_555
Fe2 O9 1.989830 1_555
Fe2 O4 2.016262 1_555
Fe2 O7 2.056948 1_555
Fe2 O8 2.167898 1_655
Fe2 O24 2.194382 1_555
Fe3 O26 1.907151 1_545
Fe3 O6 1.911397 1_555
Fe3 O11 1.920265 1_645
Fe3 O33 2.237495 1_555
Fe3 O10 2.513995 1_555
Fe3 O13 2.591157 1_555
Fe4 O4 2.002385 1_455
Fe4 O21 2.018023 1_555
Fe4 O11 2.024380 1_555
Fe4 O20 2.031343 1_555
Fe4 O8 2.109665 1_555
Fe4 O5 2.176662 1_455
Fe5 O1 1.860744 1_554
Fe5 O23 2.016834 1_555
Fe5 O7 2.031201 1_455
Fe5 O22 2.045001 1_555
Fe5 O6 2.130128 1_455
Fe6 O1 1.935931 1_655
Fe6 O17 1.954951 1_555
Fe6 O15 1.971092 1_555
Fe6 O12 2.091501 1_555
Fe6 O16 2.170083 1_555
Fe6 O0 2.212364 1_555
Fe7 O3 1.935155 1_555
Fe7 O19 1.947167 1_555
Fe7 O14 2.074456 1_555
Fe7 O5 2.103769 1_555
Fe7 O18 2.108741 1_555
Fe7 O2 2.122338 1_555
Fe8 O19 1.903288 1_545
Fe8 O12 1.936502 1_555
Fe8 O27 1.943548 1_555
Fe8 O13 2.156325 1_555
Fe8 O16 2.216009 1_555
Fe8 O28 2.474082 1_555
Fe9 O25 1.945641 1_556
Fe9 O30 1.967157 1_555
Fe9 O15 1.970990 1_555
Fe9 O29 2.121698 1_555
Fe9 O18 2.205312 1_555
Fe9 O14 2.232003 1_555
Fe10 O9 1.942856 1_455
Fe10 O25 1.952292 1_555
Fe10 O23 1.994303 1_555
Fe10 O20 2.176831 1_555
Fe10 O8 2.205214 1_555
Fe10 O24 2.220303 1_555
Fe11 O22 1.921907 1_565
Fe11 O26 2.036261 1_555
Fe11 O11 2.045145 1_555
Fe11 O20 2.058360 1_555
Fe11 O31 2.199276 1_555
Fe11 O32 2.277119 1_455
Fe12 O26 1.992420 1_555
Fe12 O4 2.014262 1_555
Fe12 O21 2.031541 1_555
Fe12 O20 2.037060 1_555
Fe12 O24 2.131561 1_555
Fe12 O5 2.154247 1_555
Fe13 O17 1.924913 1_554
Fe13 O23 2.014547 1_555
Fe13 O22 2.050874 1_555
Fe13 O7 2.053622 1_555
Fe13 O6 2.148901 1_555
Fe13 O33 2.514442 1_555
Fe14 O1 1.949215 1_555
Fe14 O17 1.970042 1_555
Fe14 O30 1.970506 1_555
Fe14 O27 2.063523 1_555
Fe14 O16 2.158975 1_555
Fe14 O0 2.205284 1_455
Fe15 O21 1.950696 1_555
Fe15 O19 1.979884 1_555
Fe15 O3 1.982562 1_455
Fe15 O18 2.111369 1_555
Fe15 O2 2.117454 1_455
Fe15 O29 2.240194 1_555
H0 O0 0.969946 1_455
H1 O2 0.967829 1_555
H2 O5 0.977284 1_555
H3 O8 0.972382 1_555
H4 O10 1.021155 1_555
H4 O7 1.756827 1_555
H5 O10 1.000762 1_455
H6 O13 0.974387 1_555
H7 O14 0.978590 1_555
H8 O16 0.970513 1_555
H9 O18 0.968046 1_555
H10 O24 0.971262 1_555
H11 O28 0.987292 1_555
H12 O28 1.008792 1_555
H13 O29 0.978802 1_555
H14 O31 0.985746 1_555
H15 O31 0.982159 1_556
H16 O32 0.983685 1_446
H17 O32 1.017134 1_545
H17 O6 1.682285 1_555
H18 O33 1.001378 1_555
H19 O33 0.971627 1_555
