# generated using pymatgen
data_Mg(WO2)2
_symmetry_space_group_name_H-M   'P 1'
_cell_length_a   6.32068657
_cell_length_b   6.32068657
_cell_length_c   21.00593709
_cell_angle_alpha   81.67728087
_cell_angle_beta   81.67728087
_cell_angle_gamma   61.77808478
_symmetry_Int_Tables_number   1
_chemical_formula_structural   Mg(WO2)2
_chemical_formula_sum   'Mg8 W16 O32'
_cell_volume   728.85210673
_cell_formula_units_Z   8
loop_
 _symmetry_equiv_pos_site_id
 _symmetry_equiv_pos_as_xyz
  1  'x, y, z'
loop_
 _atom_site_type_symbol
 _atom_site_label
 _atom_site_symmetry_multiplicity
 _atom_site_fract_x
 _atom_site_fract_y
 _atom_site_fract_z
 _atom_site_occupancy
  Mg  Mg0  1  0.63629500  0.63629500  0.02978000  1
  Mg  Mg1  1  0.11272200  0.11272200  0.12666500  1
  Mg  Mg2  1  0.91021400  0.91021400  0.28097200  1
  Mg  Mg3  1  0.38977000  0.38977000  0.37450500  1
  Mg  Mg4  1  0.62064100  0.62064100  0.62304700  1
  Mg  Mg5  1  0.51713000  0.51713000  0.49509200  1
  Mg  Mg6  1  0.86840400  0.86840400  0.87673800  1
  Mg  Mg7  1  0.74780500  0.74780500  0.74867700  1
  W  W0  1  0.61391700  0.11311300  0.12323200  1
  W  W1  1  0.25336800  0.25336800  0.25143100  1
  W  W2  1  0.11311300  0.61391700  0.12323200  1
  W  W3  1  0.14136700  0.14136700  0.54322300  1
  W  W4  1  0.89719400  0.39658100  0.37903500  1
  W  W5  1  0.59478700  0.59478700  0.22389800  1
  W  W6  1  0.38799900  0.38799900  0.81221400  1
  W  W7  1  0.39658100  0.89719400  0.37903500  1
  W  W8  1  0.12868000  0.62214200  0.61880900  1
  W  W9  1  0.89033900  0.89033900  0.47141300  1
  W  W10  1  0.62214200  0.12868000  0.61880900  1
  W  W11  1  0.87078900  0.36755900  0.87772700  1
  W  W12  1  0.36755900  0.87078900  0.87772700  1
  W  W13  1  0.10376700  0.10376700  0.68567500  1
  W  W14  1  0.98230400  0.98230400  0.00861700  1
  W  W15  1  0.34153300  0.34153300  0.95894700  1
  O  O0  1  0.28100600  0.81728000  0.06469400  1
  O  O1  1  0.92864500  0.92864500  0.18025500  1
  O  O2  1  0.81728000  0.28100600  0.06469400  1
  O  O3  1  0.80146600  0.80146600  0.06475100  1
  O  O4  1  0.42552000  0.42552000  0.17748600  1
  O  O5  1  0.55121100  0.09987300  0.31267600  1
  O  O6  1  0.40443700  0.95641800  0.18742600  1
  O  O7  1  0.21101400  0.21101400  0.43326200  1
  O  O8  1  0.09987300  0.55121100  0.31267600  1
  O  O9  1  0.29498200  0.29498200  0.06937100  1
  O  O10  1  0.07898600  0.07898600  0.31999300  1
  O  O11  1  0.95641800  0.40443700  0.18742600  1
  O  O12  1  0.77910200  0.34580400  0.55857600  1
  O  O13  1  0.70308700  0.70308700  0.43698000  1
  O  O14  1  0.68444900  0.22689800  0.43344600  1
  O  O15  1  0.43910400  0.43910400  0.66989100  1
  O  O16  1  0.34580400  0.77910200  0.55857600  1
  O  O17  1  0.58179600  0.58179600  0.32409900  1
  O  O18  1  0.32977500  0.32977500  0.55315400  1
  O  O19  1  0.22689800  0.68444900  0.43344600  1
  O  O20  1  0.91791200  0.91791200  0.68272300  1
  O  O21  1  0.02675500  0.57744300  0.81341600  1
  O  O22  1  0.91896700  0.46643600  0.68296900  1
  O  O23  1  0.68814500  0.68814500  0.93277200  1
  O  O24  1  0.57744300  0.02675500  0.81341600  1
  O  O25  1  0.80168600  0.80168600  0.56390800  1
  O  O26  1  0.57507000  0.57507000  0.81393200  1
  O  O27  1  0.46643600  0.91896700  0.68296900  1
  O  O28  1  0.14994700  0.14994700  0.94590600  1
  O  O29  1  0.15915800  0.72068100  0.94405000  1
  O  O30  1  0.04847400  0.04847400  0.82850300  1
  O  O31  1  0.72068100  0.15915800  0.94405000  1
loop_
_geom_bond_atom_site_label_1
_geom_bond_atom_site_label_2
_geom_bond_distance
_geom_bond_site_symmetry_2
Mg0 O23 2.020427 1_554
Mg0 O3 2.048010 1_555
Mg0 O2 2.055720 1_555
Mg0 O0 2.055720 1_555
Mg1 O1 2.120524 1_445
Mg1 O9 2.134269 1_555
Mg1 O11 2.144351 1_455
Mg1 O6 2.144351 1_545
Mg1 O2 2.176566 1_455
Mg1 O0 2.176566 1_545
Mg2 O5 2.061685 1_565
Mg2 O8 2.061685 1_655
Mg2 O1 2.091237 1_555
Mg2 O10 2.128455 1_665
Mg3 O7 2.115768 1_555
Mg3 O19 2.132376 1_555
Mg3 O14 2.132376 1_555
Mg3 O5 2.149995 1_555
Mg3 O8 2.149995 1_555
Mg3 O17 2.171776 1_555
Mg4 O15 2.047677 1_555
Mg4 O12 2.120795 1_555
Mg4 O16 2.120795 1_555
Mg4 O25 2.139536 1_555
Mg4 O27 2.164180 1_555
Mg4 O22 2.164180 1_555
Mg5 O12 2.053808 1_555
Mg5 O16 2.053808 1_555
Mg5 O14 2.148705 1_555
Mg5 O19 2.148705 1_555
Mg5 O13 2.174623 1_555
Mg5 O18 2.186851 1_555
Mg6 O30 2.043266 1_665
Mg6 O23 2.105469 1_555
Mg6 O24 2.176029 1_565
Mg6 O21 2.176029 1_655
Mg6 O31 2.235089 1_565
Mg6 O29 2.235089 1_655
Mg7 O20 2.112432 1_555
Mg7 O26 2.126944 1_555
Mg7 O24 2.142929 1_565
Mg7 O21 2.142929 1_655
Mg7 O27 2.167266 1_555
Mg7 O22 2.167266 1_555
O0 W14 2.113223 1_455
O0 W2 2.178340 1_555
O1 W2 2.200767 1_655
O1 W0 2.200767 1_565
O2 W14 2.113223 1_545
O2 W0 2.178340 1_555
O3 W14 2.111556 1_555
O3 W0 2.205679 1_565
O3 W2 2.205679 1_655
O4 W2 2.156547 1_555
O4 W0 2.156547 1_555
O4 W1 2.218537 1_555
O4 W5 2.219526 1_555
O5 W1 2.180102 1_555
O5 W7 2.193685 1_545
O6 W5 2.101928 1_555
O6 W0 2.211141 1_565
O6 W1 2.214977 1_565
O7 W4 2.162102 1_455
O7 W7 2.162102 1_545
O7 W3 2.305962 1_555
O8 W1 2.180102 1_555
O8 W4 2.193685 1_455
O9 W0 2.181144 1_555
O9 W2 2.181144 1_555
O9 W15 2.289153 1_554
O10 W1 2.175741 1_555
O10 W4 2.239389 1_455
O10 W7 2.239389 1_545
O11 W5 2.101928 1_555
O11 W2 2.211141 1_655
O11 W1 2.214977 1_655
O12 W3 2.031076 1_655
O12 W10 2.211367 1_555
O13 W4 2.177702 1_555
O13 W7 2.177702 1_555
O13 W9 2.268328 1_555
O14 W9 2.011466 1_545
O14 W4 2.197503 1_555
O15 W10 2.107813 1_555
O15 W8 2.107813 1_555
O16 W3 2.031076 1_565
O16 W8 2.211367 1_555
O17 W5 2.085676 1_555
O17 W7 2.178070 1_555
O17 W4 2.178070 1_555
O18 W3 2.089248 1_555
O18 W10 2.222930 1_555
O18 W8 2.222930 1_555
O19 W9 2.011466 1_455
O19 W7 2.197503 1_555
O20 W13 2.027603 1_665
O20 W8 2.219355 1_655
O20 W10 2.219355 1_565
O21 W6 2.013502 1_555
O21 W11 2.211155 1_455
O22 W13 2.017781 1_655
O22 W8 2.207864 1_655
O23 W12 2.203432 1_555
O23 W11 2.203432 1_555
O24 W6 2.013502 1_555
O24 W12 2.211155 1_545
O25 W9 2.017327 1_555
O25 W10 2.232137 1_565
O25 W8 2.232137 1_655
O26 W6 2.035811 1_555
O26 W11 2.215281 1_555
O26 W12 2.215281 1_555
O27 W13 2.017781 1_565
O27 W10 2.207864 1_565
O28 W14 2.057814 1_446
O28 W15 2.141689 1_555
O28 W12 2.218618 1_545
O28 W11 2.218618 1_455
O29 W14 2.070196 1_456
O29 W15 2.108184 1_555
O29 W12 2.200982 1_555
O30 W11 2.126823 1_455
O30 W12 2.126823 1_545
O31 W14 2.070196 1_546
O31 W15 2.108184 1_555
O31 W11 2.200982 1_555
