# generated using pymatgen
data_Mn10ZnN8
_symmetry_space_group_name_H-M   'P 1'
_cell_length_a   7.79408643
_cell_length_b   4.04423450
_cell_length_c   7.01721290
_cell_angle_alpha   89.99999539
_cell_angle_beta   68.01016781
_cell_angle_gamma   74.96301135
_symmetry_Int_Tables_number   1
_chemical_formula_structural   Mn10ZnN8
_chemical_formula_sum   'Mn10 Zn1 N8'
_cell_volume   196.90697548
_cell_formula_units_Z   1
loop_
 _symmetry_equiv_pos_site_id
 _symmetry_equiv_pos_as_xyz
  1  'x, y, z'
loop_
 _atom_site_type_symbol
 _atom_site_label
 _atom_site_symmetry_multiplicity
 _atom_site_fract_x
 _atom_site_fract_y
 _atom_site_fract_z
 _atom_site_occupancy
  Mn  Mn0  1  0.38785283  0.80607358  0.80348954  1
  Mn  Mn1  1  0.61214717  0.19392642  0.19651046  1
  Mn  Mn2  1  0.06765253  0.96617374  0.71606884  1
  Mn  Mn3  1  0.93234747  0.03382626  0.28393116  1
  Mn  Mn4  1  0.63747594  0.68126253  0.41129101  1
  Mn  Mn5  1  0.36252406  0.31873747  0.58870899  1
  Mn  Mn6  1  0.81339818  0.59330091  0.98092363  1
  Mn  Mn7  1  0.18660182  0.40669909  0.01907637  1
  Mn  Mn8  1  0.40096729  0.79951686  0.16083603  1
  Mn  Mn9  1  0.59903271  0.20048314  0.83916397  1
  Zn  Zn0  1  -0.00000000  0.50000000  0.50000000  1
  N  N0  1  0.18480631  0.90759684  0.06230756  1
  N  N1  1  0.81519369  0.09240316  0.93769244  1
  N  N2  1  0.35157795  0.82421052  0.55214588  1
  N  N3  1  0.64842205  0.17578948  0.44785412  1
  N  N4  1  0.60669925  0.69664987  0.86373761  1
  N  N5  1  0.39330075  0.30335013  0.13626239  1
  N  N6  1  0.91026093  0.54486903  0.22194793  1
  N  N7  1  0.08973907  0.45513097  0.77805207  1
loop_
_geom_bond_atom_site_label_1
_geom_bond_atom_site_label_2
_geom_bond_distance
_geom_bond_site_symmetry_2
Mn0 N4 1.852669 1_555
Mn0 N0 1.866007 1_556
Mn0 N2 1.886463 1_555
Mn1 N5 1.852669 1_555
Mn1 N1 1.866007 1_554
Mn1 N3 1.886463 1_555
Mn2 N1 1.933416 1_465
Mn2 N2 1.996080 1_555
Mn2 N7 2.088502 1_555
Mn2 N7 2.088506 1_565
Mn3 N0 1.933416 1_645
Mn3 N3 1.996080 1_555
Mn3 N6 2.088502 1_555
Mn3 N6 2.088506 1_545
Mn4 N6 1.966192 1_555
Mn4 N2 1.989650 1_555
Mn4 N3 2.044008 1_555
Mn4 N3 2.044008 1_565
Mn5 N7 1.966192 1_555
Mn5 N3 1.989650 1_555
Mn5 N2 2.044008 1_555
Mn5 N2 2.044008 1_545
Mn6 N7 2.014230 1_655
Mn6 N4 2.022136 1_555
Mn6 N1 2.044013 1_565
Mn6 N1 2.044013 1_555
Mn6 N6 2.085278 1_556
Mn7 N6 2.014230 1_455
Mn7 N5 2.022136 1_555
Mn7 N0 2.044013 1_545
Mn7 N0 2.044013 1_555
Mn7 N7 2.085278 1_554
Mn8 N0 1.999445 1_555
Mn8 N5 2.032176 1_565
Mn8 N5 2.032176 1_555
Mn8 N4 2.059376 1_554
Mn8 N2 2.624236 1_555
Mn9 N1 1.999445 1_555
Mn9 N4 2.032176 1_545
Mn9 N4 2.032176 1_555
Mn9 N5 2.059376 1_556
Mn9 N3 2.624236 1_555
N6 Zn0 2.298972 1_655
N7 Zn0 2.298972 1_555
