# generated using pymatgen
data_TiNi4GeO8
_symmetry_space_group_name_H-M   'P 1'
_cell_length_a   5.91560018
_cell_length_b   5.91560018
_cell_length_c   5.91560018
_cell_angle_alpha   60.00000000
_cell_angle_beta   60.00000000
_cell_angle_gamma   60.00000000
_symmetry_Int_Tables_number   1
_chemical_formula_structural   TiNi4GeO8
_chemical_formula_sum   'Ti1 Ni4 Ge1 O8'
_cell_volume   146.37989860
_cell_formula_units_Z   1
loop_
 _symmetry_equiv_pos_site_id
 _symmetry_equiv_pos_as_xyz
  1  'x, y, z'
loop_
 _atom_site_type_symbol
 _atom_site_label
 _atom_site_symmetry_multiplicity
 _atom_site_fract_x
 _atom_site_fract_y
 _atom_site_fract_z
 _atom_site_occupancy
  Ti  Ti0  1  0.00000000  0.00000000  0.00000000  1
  Ni  Ni0  1  0.62576800  0.62576800  0.12269700  1
  Ni  Ni1  1  0.62576800  0.12269700  0.62576800  1
  Ni  Ni2  1  0.12269700  0.62576800  0.62576800  1
  Ni  Ni3  1  0.62576800  0.62576800  0.62576800  1
  Ge  Ge0  1  0.25000000  0.25000000  0.25000000  1
  O  O0  1  0.87261500  0.87261500  0.38215400  1
  O  O1  1  0.87261500  0.38215400  0.87261500  1
  O  O2  1  0.38215400  0.87261500  0.87261500  1
  O  O3  1  0.87261500  0.87261500  0.87261500  1
  O  O4  1  0.37485700  0.37485700  0.87542800  1
  O  O5  1  0.37485700  0.87542800  0.37485700  1
  O  O6  1  0.87542800  0.37485700  0.37485700  1
  O  O7  1  0.37485700  0.37485700  0.37485700  1
loop_
_geom_bond_atom_site_label_1
_geom_bond_atom_site_label_2
_geom_bond_distance
_geom_bond_site_symmetry_2
Ni0 O3 2.065191 1_554
Ni0 O2 2.065200 1_554
Ni0 O1 2.065200 1_554
Ni0 O5 2.099107 1_555
Ni0 O6 2.099107 1_555
Ni0 O7 2.099115 1_555
Ni1 O3 2.065191 1_545
Ni1 O2 2.065200 1_545
Ni1 O0 2.065200 1_545
Ni1 O4 2.099107 1_555
Ni1 O6 2.099107 1_555
Ni1 O7 2.099115 1_555
Ni2 O3 2.065191 1_455
Ni2 O0 2.065200 1_455
Ni2 O1 2.065200 1_455
Ni2 O4 2.099107 1_555
Ni2 O5 2.099107 1_555
Ni2 O7 2.099115 1_555
Ni3 O1 2.065191 1_555
Ni3 O0 2.065191 1_555
Ni3 O2 2.065191 1_555
Ni3 O4 2.099115 1_555
Ni3 O5 2.099115 1_555
Ni3 O6 2.099115 1_555
Ge0 O7 1.809203 1_555
Ge0 O5 1.809208 1_545
Ge0 O4 1.809208 1_554
Ge0 O6 1.809208 1_455
O0 Ti0 1.845830 1_665
O1 Ti0 1.845830 1_656
O2 Ti0 1.845830 1_566
O3 Ti0 1.845834 1_666
