# generated using pymatgen
data_K(CrS2)2
_symmetry_space_group_name_H-M   'P 1'
_cell_length_a   7.25057822
_cell_length_b   7.25057822
_cell_length_c   7.25057822
_cell_angle_alpha   111.72245216
_cell_angle_beta   111.72245216
_cell_angle_gamma   105.05691092
_symmetry_Int_Tables_number   1
_chemical_formula_structural   K(CrS2)2
_chemical_formula_sum   'K2 Cr4 S8'
_cell_volume   292.13121266
_cell_formula_units_Z   2
loop_
 _symmetry_equiv_pos_site_id
 _symmetry_equiv_pos_as_xyz
  1  'x, y, z'
loop_
 _atom_site_type_symbol
 _atom_site_label
 _atom_site_symmetry_multiplicity
 _atom_site_fract_x
 _atom_site_fract_y
 _atom_site_fract_z
 _atom_site_occupancy
  K  K0  1  0.00000000  0.00000000  0.00000000  1
  K  K1  1  0.75000000  0.25000000  0.50000000  1
  Cr  Cr0  1  0.87500000  0.63866000  0.26366000  1
  Cr  Cr1  1  0.38866000  0.12500000  0.76366000  1
  Cr  Cr2  1  0.37500000  0.61134000  0.73634000  1
  Cr  Cr3  1  0.36134000  0.62500000  0.23634000  1
  S  S0  1  0.53678500  0.37467800  0.18525200  1
  S  S1  1  0.64846600  0.46321500  0.83789300  1
  S  S2  1  0.18942600  0.35153400  0.81474800  1
  S  S3  1  0.62532200  0.81057400  0.16210700  1
  S  S4  1  0.21321500  0.89846600  0.33789300  1
  S  S5  1  0.10153400  0.43942600  0.31474800  1
  S  S6  1  0.56057400  0.87532200  0.66210700  1
  S  S7  1  0.12467800  0.78678500  0.68525200  1
loop_
_geom_bond_atom_site_label_1
_geom_bond_atom_site_label_2
_geom_bond_distance
_geom_bond_site_symmetry_2
K0 S5 2.838443 1_555
K0 S6 2.838445 1_444
K0 S7 2.838445 1_544
K0 S4 2.838450 1_545
K0 S0 3.502557 1_555
K0 S3 3.502557 1_445
K0 S1 3.502559 1_444
K0 S2 3.502563 1_554
K1 S2 2.838443 1_655
K1 S0 2.838445 1_555
K1 S3 2.838445 1_545
K1 S1 2.838450 1_555
K1 S7 3.502557 1_655
K1 S6 3.502557 1_545
K1 S4 3.502559 1_545
K1 S5 3.502563 1_655
Cr0 S4 2.392525 1_655
Cr0 S0 2.392528 1_555
Cr0 S1 2.469865 1_554
Cr0 S5 2.469870 1_655
Cr0 S7 2.497631 1_655
Cr0 S3 2.497631 1_555
Cr1 S1 2.392525 1_555
Cr1 S7 2.392528 1_545
Cr1 S4 2.469865 1_545
Cr1 S2 2.469870 1_555
Cr1 S0 2.497631 1_556
Cr1 S6 2.497631 1_545
Cr2 S2 2.392523 1_555
Cr2 S6 2.392528 1_555
Cr2 S3 2.469865 1_556
Cr2 S7 2.469865 1_555
Cr2 S1 2.497625 1_555
Cr2 S5 2.497629 1_555
Cr3 S5 2.392523 1_555
Cr3 S3 2.392528 1_555
Cr3 S6 2.469865 1_555
Cr3 S0 2.469865 1_555
Cr3 S4 2.497625 1_555
Cr3 S2 2.497629 1_554
