# generated using pymatgen
data_Al(CuSe2)3
_symmetry_space_group_name_H-M   'P 1'
_cell_length_a   16.02921024
_cell_length_b   16.02921024
_cell_length_c   16.02921024
_cell_angle_alpha   160.81614876
_cell_angle_beta   160.81614876
_cell_angle_gamma   27.25989579
_symmetry_Int_Tables_number   1
_chemical_formula_structural   Al(CuSe2)3
_chemical_formula_sum   'Al2 Cu6 Se12'
_cell_volume   444.52433480
_cell_formula_units_Z   2
loop_
 _symmetry_equiv_pos_site_id
 _symmetry_equiv_pos_as_xyz
  1  'x, y, z'
loop_
 _atom_site_type_symbol
 _atom_site_label
 _atom_site_symmetry_multiplicity
 _atom_site_fract_x
 _atom_site_fract_y
 _atom_site_fract_z
 _atom_site_occupancy
  Al  Al0  1  0.75000000  0.25000000  0.50000000  1
  Al  Al1  1  0.00000000  0.00000000  0.00000000  1
  Cu  Cu0  1  0.91573600  0.41573600  0.50000000  1
  Cu  Cu1  1  0.58426400  0.08426400  0.50000000  1
  Cu  Cu2  1  0.25000000  0.75000000  0.50000000  1
  Cu  Cu3  1  0.83426400  0.83426400  0.00000000  1
  Cu  Cu4  1  0.50000000  0.50000000  0.00000000  1
  Cu  Cu5  1  0.16573600  0.16573600  0.00000000  1
  Se  Se0  1  0.13879400  0.62500000  0.01379400  1
  Se  Se1  1  0.82185600  0.32568400  0.05358100  1
  Se  Se2  1  0.47789700  0.92431600  0.99617200  1
  Se  Se3  1  0.67431600  0.72789700  0.49617200  1
  Se  Se4  1  0.37500000  0.38879400  0.51379400  1
  Se  Se5  1  0.07568400  0.07185600  0.55358100  1
  Se  Se6  1  0.23172500  0.17814400  0.50382800  1
  Se  Se7  1  0.87500000  0.86120600  0.48620600  1
  Se  Se8  1  0.51827500  0.52210300  0.44641900  1
  Se  Se9  1  0.61120600  0.12500000  0.98620600  1
  Se  Se10  1  0.27210300  0.76827500  0.94641900  1
  Se  Se11  1  0.92814400  0.48172500  0.00382800  1
loop_
_geom_bond_atom_site_label_1
_geom_bond_atom_site_label_2
_geom_bond_distance
_geom_bond_site_symmetry_2
Al0 Se5 2.409378 1_655
Al0 Se8 2.409378 1_555
Al0 Se11 2.409378 1_556
Al0 Se2 2.409378 1_544
Al1 Se6 2.409378 1_555
Al1 Se10 2.409378 1_544
Al1 Se1 2.409378 1_455
Al1 Se3 2.409378 1_444
Cu0 Se0 2.319475 1_656
Cu0 Se9 2.319475 1_554
Cu0 Se3 2.392069 1_555
Cu0 Se6 2.392069 1_655
Cu1 Se7 2.319475 1_545
Cu1 Se4 2.319475 1_555
Cu1 Se10 2.392069 1_544
Cu1 Se1 2.392069 1_556
Cu2 Se8 2.386601 1_555
Cu2 Se5 2.386601 1_565
Cu2 Se11 2.386601 1_455
Cu2 Se2 2.386601 1_555
Cu3 Se9 2.319475 1_564
Cu3 Se0 2.319475 1_655
Cu3 Se5 2.392069 1_665
Cu3 Se8 2.392069 1_554
Cu4 Se1 2.386601 1_555
Cu4 Se10 2.386601 1_554
Cu4 Se6 2.386601 1_554
Cu4 Se3 2.386601 1_555
Cu5 Se4 2.319475 1_555
Cu5 Se7 2.319475 1_444
Cu5 Se2 2.392069 1_544
Cu5 Se11 2.392069 1_455
