# generated using pymatgen
data_HoB2Os
_symmetry_space_group_name_H-M   'P 1'
_cell_length_a   5.28879004
_cell_length_b   5.86079080
_cell_length_c   6.34624012
_cell_angle_alpha   90.00000000
_cell_angle_beta   90.00000000
_cell_angle_gamma   90.00000000
_symmetry_Int_Tables_number   1
_chemical_formula_structural   HoB2Os
_chemical_formula_sum   'Ho4 B8 Os4'
_cell_volume   196.71118117
_cell_formula_units_Z   4
loop_
 _symmetry_equiv_pos_site_id
 _symmetry_equiv_pos_as_xyz
  1  'x, y, z'
loop_
 _atom_site_type_symbol
 _atom_site_label
 _atom_site_symmetry_multiplicity
 _atom_site_fract_x
 _atom_site_fract_y
 _atom_site_fract_z
 _atom_site_occupancy
  Ho  Ho0  1  0.25000000  0.00978460  0.33459572  1
  Ho  Ho1  1  0.25000000  0.50978460  0.16540428  1
  Ho  Ho2  1  0.75000000  0.99021540  0.66540428  1
  Ho  Ho3  1  0.75000000  0.49021540  0.83459572  1
  B  B0  1  0.08232747  0.36213886  0.53893686  1
  B  B1  1  0.41767253  0.86213886  0.96106314  1
  B  B2  1  0.58232747  0.63786114  0.46106314  1
  B  B3  1  0.91767253  0.13786114  0.03893686  1
  B  B4  1  0.91767253  0.63786114  0.46106314  1
  B  B5  1  0.58232747  0.13786114  0.03893686  1
  B  B6  1  0.41767253  0.36213886  0.53893686  1
  B  B7  1  0.08232747  0.86213886  0.96106314  1
  Os  Os0  1  0.25000000  0.17662593  0.81967837  1
  Os  Os1  1  0.25000000  0.67662593  0.68032163  1
  Os  Os2  1  0.75000000  0.82337307  0.18032163  1
  Os  Os3  1  0.75000000  0.32337307  0.31967837  1
loop_
_geom_bond_atom_site_label_1
_geom_bond_atom_site_label_2
_geom_bond_distance
_geom_bond_site_symmetry_2
Ho0 Os1 2.937080 1_545
Ho1 Os0 2.937080 1_554
Ho2 Os3 2.937076 1_565
Ho3 Os2 2.937076 1_556
B0 B6 1.773570 1_555
B0 B4 1.901019 1_455
B0 Os1 2.233527 1_555
B0 Os3 2.253218 1_455
B0 Os0 2.267773 1_555
B0 Ho0 2.594726 1_555
B0 Ho1 2.674802 1_555
B0 Ho3 2.678287 1_455
B0 Ho2 2.912855 1_445
B1 B7 1.773570 1_555
B1 B5 1.901019 1_566
B1 Os0 2.233527 1_565
B1 Os2 2.253218 1_556
B1 Os1 2.267773 1_555
B1 Ho1 2.594726 1_556
B1 Ho0 2.674802 1_566
B1 Ho2 2.678287 1_555
B1 Ho3 2.912855 1_555
B2 B4 1.773570 1_555
B2 B6 1.901019 1_555
B2 Os3 2.233532 1_555
B2 Os1 2.253218 1_555
B2 Os2 2.267770 1_555
B2 Ho2 2.594726 1_555
B2 Ho3 2.674802 1_555
B2 Ho1 2.678287 1_555
B2 Ho0 2.912855 1_565
B3 B5 1.773570 1_555
B3 B7 1.901019 1_644
B3 Os2 2.233532 1_545
B3 Os0 2.253218 1_654
B3 Os3 2.267770 1_555
B3 Ho3 2.594726 1_554
B3 Ho2 2.674802 1_544
B3 Ho0 2.678287 1_655
B3 Ho1 2.912855 1_655
B4 Os3 2.233532 1_555
B4 Os1 2.253218 1_655
B4 Os2 2.267770 1_555
B4 Ho2 2.594726 1_555
B4 Ho3 2.674802 1_555
B4 Ho1 2.678287 1_655
B4 Ho0 2.912855 1_665
B5 Os2 2.233532 1_545
B5 Os0 2.253218 1_554
B5 Os3 2.267770 1_555
B5 Ho3 2.594726 1_554
B5 Ho2 2.674802 1_544
B5 Ho0 2.678287 1_555
B5 Ho1 2.912855 1_555
B6 Os1 2.233527 1_555
B6 Os3 2.253218 1_555
B6 Os0 2.267773 1_555
B6 Ho0 2.594726 1_555
B6 Ho1 2.674802 1_555
B6 Ho3 2.678287 1_555
B6 Ho2 2.912855 1_545
B7 Os0 2.233527 1_565
B7 Os2 2.253218 1_456
B7 Os1 2.267773 1_555
B7 Ho1 2.594726 1_556
B7 Ho0 2.674802 1_566
B7 Ho2 2.678287 1_455
B7 Ho3 2.912855 1_455
