# generated using pymatgen
data_Ba2Mg2MnF10
_symmetry_space_group_name_H-M   'P 1'
_cell_length_a   9.87873327
_cell_length_b   9.87873327
_cell_length_c   8.19336466
_cell_angle_alpha   70.09272740
_cell_angle_beta   70.09272740
_cell_angle_gamma   35.43019207
_symmetry_Int_Tables_number   1
_chemical_formula_structural   Ba2Mg2MnF10
_chemical_formula_sum   'Ba4 Mg4 Mn2 F20'
_cell_volume   432.90409191
_cell_formula_units_Z   2
loop_
 _symmetry_equiv_pos_site_id
 _symmetry_equiv_pos_as_xyz
  1  'x, y, z'
loop_
 _atom_site_type_symbol
 _atom_site_label
 _atom_site_symmetry_multiplicity
 _atom_site_fract_x
 _atom_site_fract_y
 _atom_site_fract_z
 _atom_site_occupancy
  Ba  Ba0  1  0.71635900  0.71635900  0.69381900  1
  Ba  Ba1  1  0.28364100  0.28364100  0.30618100  1
  Ba  Ba2  1  0.61661300  0.61661300  0.27534400  1
  Ba  Ba3  1  0.38338700  0.38338700  0.72465600  1
  Mg  Mg0  1  0.74509600  0.25490400  0.00000000  1
  Mg  Mg1  1  0.25490400  0.74509600  0.00000000  1
  Mg  Mg2  1  0.82269200  0.82269200  0.01383800  1
  Mg  Mg3  1  0.17730800  0.17730800  0.98616200  1
  Mn  Mn0  1  0.92464400  0.92464400  0.44552700  1
  Mn  Mn1  1  0.07535600  0.07535600  0.55447300  1
  F  F0  1  0.63667800  0.14266100  0.02387500  1
  F  F1  1  0.36332200  0.85733900  0.97612500  1
  F  F2  1  0.85733900  0.36332200  0.97612500  1
  F  F3  1  0.14266100  0.63667800  0.02387500  1
  F  F4  1  0.48428400  0.48428400  0.17306100  1
  F  F5  1  0.51571600  0.51571600  0.82693900  1
  F  F6  1  0.97930300  0.97930300  0.17161900  1
  F  F7  1  0.02069700  0.02069700  0.82838100  1
  F  F8  1  0.50000000  0.00000000  0.00000000  1
  F  F9  1  0.00000000  0.50000000  0.00000000  1
  F  F10  1  0.86260000  0.86260000  0.75146000  1
  F  F11  1  0.13740000  0.13740000  0.24854000  1
  F  F12  1  0.76154000  0.23846000  0.50000000  1
  F  F13  1  0.23846000  0.76154000  0.50000000  1
  F  F14  1  0.59657700  0.09279000  0.48340900  1
  F  F15  1  0.40342300  0.90721000  0.51659100  1
  F  F16  1  0.90721000  0.40342300  0.51659100  1
  F  F17  1  0.09279000  0.59657700  0.48340900  1
  F  F18  1  0.76617700  0.76617700  0.26512200  1
  F  F19  1  0.23382300  0.23382300  0.73487800  1
loop_
_geom_bond_atom_site_label_1
_geom_bond_atom_site_label_2
_geom_bond_distance
_geom_bond_site_symmetry_2
Ba0 F16 2.629513 1_555
Ba0 F15 2.629513 1_555
Ba0 F17 2.837824 1_655
Ba0 F14 2.837824 1_565
Ba0 F2 2.870132 1_555
Ba0 F1 2.870132 1_555
Ba0 F10 2.954268 1_555
Ba0 F19 3.055476 1_565
Ba0 F19 3.055476 1_655
Ba0 F9 3.176260 1_656
Ba0 F8 3.176260 1_566
Ba0 F18 3.295782 1_555
Ba1 F17 2.629513 1_555
Ba1 F14 2.629513 1_555
Ba1 F16 2.837824 1_455
Ba1 F15 2.837824 1_545
Ba1 F0 2.870132 1_555
Ba1 F3 2.870132 1_555
Ba1 F11 2.954268 1_555
Ba1 F18 3.055476 1_545
Ba1 F18 3.055476 1_455
Ba1 F9 3.176260 1_555
Ba1 F8 3.176260 1_555
Ba1 F19 3.295782 1_555
Ba2 F15 2.785720 1_555
Ba2 F16 2.785720 1_555
Ba2 F18 2.786044 1_555
Ba2 F12 2.790911 1_555
Ba2 F13 2.790911 1_555
Ba2 F4 2.897767 1_555
Ba2 F1 2.904616 1_554
Ba2 F2 2.904616 1_554
Ba2 F11 3.029116 1_655
Ba2 F11 3.029116 1_565
Ba2 F9 3.098682 1_655
Ba2 F8 3.098682 1_565
Ba3 F17 2.785720 1_555
Ba3 F14 2.785720 1_555
Ba3 F19 2.786044 1_555
Ba3 F12 2.790911 1_555
Ba3 F13 2.790911 1_555
Ba3 F5 2.897767 1_555
Ba3 F0 2.904616 1_556
Ba3 F3 2.904616 1_556
Ba3 F10 3.029116 1_545
Ba3 F10 3.029116 1_455
Ba3 F9 3.098682 1_556
Ba3 F8 3.098682 1_556
F0 Mg2 1.995790 1_545
F0 Mg0 2.014895 1_555
F1 Mg3 1.995790 1_565
F1 Mg1 2.014895 1_556
F2 Mg3 1.995790 1_655
F2 Mg0 2.014895 1_556
F3 Mg2 1.995790 1_455
F3 Mg1 2.014895 1_555
F4 Mg1 1.992338 1_555
F4 Mg0 1.992338 1_555
F5 Mg0 1.992338 1_556
F5 Mg1 1.992338 1_556
F6 Mg0 2.021335 1_565
F6 Mg1 2.021335 1_655
F6 Mn0 2.108163 1_555
F7 Mg0 2.021335 1_456
F7 Mg1 2.021335 1_546
F7 Mn1 2.108163 1_555
F8 Mg3 2.062616 1_554
F8 Mg2 2.062616 1_545
F9 Mg2 2.062616 1_455
F9 Mg3 2.062616 1_554
F10 Mg2 2.007805 1_556
F10 Mn0 2.356731 1_555
F11 Mg3 2.007805 1_554
F11 Mn1 2.356731 1_555
F12 Mn0 2.172171 1_545
F12 Mn1 2.172171 1_655
F13 Mn0 2.172171 1_455
F13 Mn1 2.172171 1_565
F14 Mn0 2.062033 1_545
F15 Mn1 2.062033 1_565
F16 Mn1 2.062033 1_655
F17 Mn0 2.062033 1_455
F18 Mg2 1.950564 1_555
F19 Mg3 1.950564 1_555
