# generated using pymatgen
data_Li4Ti3(CoO4)3
_symmetry_space_group_name_H-M   'P 1'
_cell_length_a   7.95890984
_cell_length_b   8.33076925
_cell_length_c   7.95828894
_cell_angle_alpha   104.24773988
_cell_angle_beta   65.77344795
_cell_angle_gamma   106.27779891
_symmetry_Int_Tables_number   1
_chemical_formula_structural   Li4Ti3(CoO4)3
_chemical_formula_sum   'Li8 Ti6 Co6 O24'
_cell_volume   456.69526029
_cell_formula_units_Z   2
loop_
 _symmetry_equiv_pos_site_id
 _symmetry_equiv_pos_as_xyz
  1  'x, y, z'
loop_
 _atom_site_type_symbol
 _atom_site_label
 _atom_site_symmetry_multiplicity
 _atom_site_fract_x
 _atom_site_fract_y
 _atom_site_fract_z
 _atom_site_occupancy
  Li  Li0  1  0.91717400  0.58349800  0.41650700  1
  Li  Li1  1  0.41634500  0.08328600  0.91669900  1
  Li  Li2  1  0.17064800  0.83550800  0.16399300  1
  Li  Li3  1  0.66281600  0.33110200  0.66925000  1
  Li  Li4  1  0.72483400  0.71924200  0.27318000  1
  Li  Li5  1  0.23623900  0.23434500  0.75715400  1
  Li  Li6  1  0.59802800  0.93316900  0.07569300  1
  Li  Li7  1  0.10779600  0.44677900  0.56063000  1
  Ti  Ti0  1  0.16267500  0.32066800  0.16093000  1
  Ti  Ti1  1  0.67049200  0.84627700  0.67229300  1
  Ti  Ti2  1  0.33881300  0.18674800  0.34809100  1
  Ti  Ti3  1  0.82752000  0.67263300  0.84272900  1
  Ti  Ti4  1  0.49424400  0.97994600  0.48498100  1
  Ti  Ti5  1  0.00571900  0.49405700  0.99032900  1
  Co  Co0  1  0.91668400  0.08320800  0.41653100  1
  Co  Co1  1  0.58259400  0.41595000  0.07926800  1
  Co  Co2  1  0.25078400  0.75063900  0.75395400  1
  Co  Co3  1  0.41671300  0.58340000  0.91681000  1
  Co  Co4  1  0.08093600  0.91579900  0.58234400  1
  Co  Co5  1  0.75221900  0.25111100  0.25138300  1
  O  O0  1  0.26957300  0.98044700  0.72069000  1
  O  O1  1  0.76951000  0.47798700  0.22071100  1
  O  O2  1  0.06383400  0.68866700  0.61266700  1
  O  O3  1  0.56376000  0.18622800  0.11272600  1
  O  O4  1  0.49851900  0.23172200  0.49037200  1
  O  O5  1  0.00410300  0.73020500  0.98676200  1
  O  O6  1  0.33463900  0.93482300  0.34303000  1
  O  O7  1  0.82945400  0.43632700  0.84647700  1
  O  O8  1  0.89809400  0.83419300  0.44101100  1
  O  O9  1  0.40178100  0.33544200  0.93760400  1
  O  O10  1  0.43156400  0.83119700  0.89574800  1
  O  O11  1  0.93516100  0.33235900  0.39245900  1
  O  O12  1  0.17582400  0.09978200  0.18527500  1
  O  O13  1  0.67386200  0.60081400  0.69113000  1
  O  O14  1  0.15946000  0.56567600  0.14234600  1
  O  O15  1  0.65757000  0.06685800  0.64808100  1
  O  O16  1  0.32560100  0.39948000  0.31700600  1
  O  O17  1  0.82394300  0.90111300  0.82183700  1
  O  O18  1  0.00941900  0.26554500  0.01149800  1
  O  O19  1  0.50767700  0.76721100  0.51640000  1
  O  O20  1  0.60651700  0.65090300  0.07119600  1
  O  O21  1  0.10605700  0.14623700  0.56327800  1
  O  O22  1  0.72719200  0.02049100  0.27012100  1
  O  O23  1  0.22694500  0.51559900  0.76215400  1
loop_
_geom_bond_atom_site_label_1
_geom_bond_atom_site_label_2
_geom_bond_distance
_geom_bond_site_symmetry_2
Li0 O8 2.091856 1_555
Li0 O11 2.093482 1_555
Li0 O2 2.194549 1_655
Li0 O1 2.198052 1_555
Li0 O14 2.247022 1_655
Li0 O13 2.252864 1_555
Li1 O9 2.098215 1_555
Li1 O10 2.099176 1_545
Li1 O0 2.192812 1_545
Li1 O3 2.196651 1_556
Li1 O12 2.212876 1_556
Li1 O15 2.215766 1_555
Li2 O12 2.156105 1_565
Li2 O6 2.181462 1_555
Li2 O5 2.188468 1_554
Li2 O14 2.190995 1_555
Li2 O10 2.288387 1_554
Li2 O8 2.374806 1_455
Li3 O15 2.155874 1_555
Li3 O4 2.182322 1_555
Li3 O7 2.188957 1_555
Li3 O13 2.189952 1_555
Li3 O9 2.289380 1_555
Li3 O11 2.372932 1_555
Li4 O19 2.038221 1_555
Li4 O1 2.050834 1_555
Li4 O20 2.070273 1_555
Li4 O8 2.178125 1_555
Li4 O5 2.444389 1_654
Li4 O22 2.510481 1_565
Li5 O21 2.078721 1_555
Li5 O18 2.104475 1_556
Li5 O0 2.139576 1_545
Li5 O9 2.200668 1_555
Li5 O4 2.287165 1_555
Li5 O23 2.354962 1_555
Li6 O22 2.076612 1_565
Li6 O17 2.099560 1_554
Li6 O3 2.134520 1_565
Li6 O10 2.203420 1_554
Li6 O6 2.294033 1_555
Li6 O20 2.362418 1_555
Li7 O16 2.041540 1_555
Li7 O2 2.054305 1_555
Li7 O23 2.071443 1_555
Li7 O11 2.175921 1_455
Li7 O7 2.437949 1_455
Li7 O21 2.505132 1_555
Co0 O8 2.089630 1_545
Co0 O11 2.089980 1_555
Co0 O12 2.123726 1_655
Co0 O15 2.124725 1_555
Co0 O22 2.146136 1_555
Co0 O21 2.147169 1_655
Co1 O20 1.927301 1_555
Co1 O3 1.952717 1_555
Co1 O9 2.051839 1_554
Co1 O7 2.074076 1_554
Co1 O1 2.098621 1_555
Co1 O16 2.139287 1_555
Co2 O23 1.928404 1_555
Co2 O0 1.952985 1_555
Co2 O10 2.052400 1_555
Co2 O5 2.073370 1_555
Co2 O2 2.097948 1_555
Co2 O19 2.138098 1_555
Co3 O10 2.078664 1_555
Co3 O9 2.079194 1_555
Co3 O14 2.092953 1_556
Co3 O13 2.092976 1_555
Co3 O20 2.194251 1_556
Co3 O23 2.195500 1_555
Co4 O21 1.910932 1_565
Co4 O2 1.926278 1_555
Co4 O8 2.063315 1_455
Co4 O0 2.089909 1_555
Co4 O6 2.131343 1_555
Co4 O17 2.146237 1_455
Co5 O22 1.911858 1_555
Co5 O1 1.924715 1_555
Co5 O11 2.062449 1_555
Co5 O3 2.090422 1_555
Co5 O4 2.130067 1_555
Co5 O18 2.148758 1_655
O0 Ti4 1.990916 1_555
O1 Ti5 2.016105 1_654
O2 Ti3 2.015167 1_455
O3 Ti2 1.990479 1_555
O4 Ti2 1.934830 1_555
O4 Ti4 2.078304 1_545
O5 Ti5 1.978179 1_555
O5 Ti3 2.047615 1_455
O6 Ti4 1.931866 1_555
O6 Ti2 2.080335 1_565
O7 Ti3 1.980612 1_555
O7 Ti5 2.044208 1_655
O8 Ti1 1.988480 1_555
O9 Ti0 1.999005 1_556
O10 Ti1 1.998763 1_555
O11 Ti0 1.988907 1_655
O12 Ti0 1.932544 1_555
O12 Ti2 2.068118 1_555
O13 Ti3 1.937664 1_555
O13 Ti1 2.095168 1_555
O14 Ti5 1.940910 1_554
O14 Ti0 2.090362 1_555
O15 Ti1 1.928992 1_545
O15 Ti4 2.072021 1_545
O16 Ti2 1.885376 1_555
O16 Ti0 2.024475 1_555
O17 Ti1 1.931096 1_555
O17 Ti3 1.959969 1_555
O18 Ti0 1.928877 1_555
O18 Ti5 1.961278 1_554
O19 Ti4 1.887085 1_555
O19 Ti1 2.022595 1_555
O20 Ti3 1.947144 1_554
O21 Ti2 1.951604 1_555
O22 Ti4 1.951087 1_545
O23 Ti5 1.946555 1_555
