# generated using pymatgen
data_Nd2TiFe16
_symmetry_space_group_name_H-M   'P 1'
_cell_length_a   6.47623122
_cell_length_b   6.47623122
_cell_length_c   6.47623069
_cell_angle_alpha   82.91705809
_cell_angle_beta   82.91705809
_cell_angle_gamma   82.91706348
_symmetry_Int_Tables_number   1
_chemical_formula_structural   Nd2TiFe16
_chemical_formula_sum   'Nd2 Ti1 Fe16'
_cell_volume   265.87694977
_cell_formula_units_Z   1
loop_
 _symmetry_equiv_pos_site_id
 _symmetry_equiv_pos_as_xyz
  1  'x, y, z'
loop_
 _atom_site_type_symbol
 _atom_site_label
 _atom_site_symmetry_multiplicity
 _atom_site_fract_x
 _atom_site_fract_y
 _atom_site_fract_z
 _atom_site_occupancy
  Nd  Nd0  1  0.34191700  0.34191700  0.34191700  1
  Nd  Nd1  1  0.65319200  0.65319200  0.65319200  1
  Ti  Ti0  1  0.90675800  0.90675800  0.90675800  1
  Fe  Fe0  1  0.15774000  0.65860900  0.65860900  1
  Fe  Fe1  1  0.65860900  0.65860900  0.15774000  1
  Fe  Fe2  1  0.65860900  0.15774000  0.65860900  1
  Fe  Fe3  1  0.84493200  0.33978300  0.33978300  1
  Fe  Fe4  1  0.33978300  0.33978300  0.84493200  1
  Fe  Fe5  1  0.33978300  0.84493200  0.33978300  1
  Fe  Fe6  1  0.70718900  0.29342400  0.00052800  1
  Fe  Fe7  1  0.29342400  0.00052800  0.70718900  1
  Fe  Fe8  1  0.00052800  0.70718900  0.29342400  1
  Fe  Fe9  1  0.70718900  0.00052800  0.29342400  1
  Fe  Fe10  1  0.00052800  0.29342400  0.70718900  1
  Fe  Fe11  1  0.29342400  0.70718900  0.00052800  1
  Fe  Fe12  1  0.00059900  0.00059900  0.49727500  1
  Fe  Fe13  1  0.00059900  0.49727500  0.00059900  1
  Fe  Fe14  1  0.49727500  0.00059900  0.00059900  1
  Fe  Fe15  1  0.09791900  0.09791900  0.09791900  1
loop_
_geom_bond_atom_site_label_1
_geom_bond_atom_site_label_2
_geom_bond_distance
_geom_bond_site_symmetry_2
Nd1 Ti0 3.175701 1_555
Fe0 Fe13 2.483628 1_556
Fe0 Fe12 2.483628 1_565
Fe0 Fe5 2.499082 1_555
Fe0 Fe4 2.499082 1_555
Fe0 Fe11 2.548392 1_556
Fe0 Fe7 2.548392 1_565
Fe0 Fe8 2.657114 1_555
Fe0 Fe10 2.657114 1_555
Fe0 Ti0 2.675046 1_455
Fe0 Nd0 3.109090 1_555
Fe0 Nd1 3.200430 1_555
Fe0 Nd1 3.276632 1_455
Fe1 Fe13 2.483628 1_655
Fe1 Fe14 2.483628 1_565
Fe1 Fe3 2.499082 1_555
Fe1 Fe5 2.499082 1_555
Fe1 Fe8 2.548392 1_655
Fe1 Fe9 2.548392 1_565
Fe1 Fe11 2.657114 1_555
Fe1 Fe6 2.657114 1_555
Fe1 Ti0 2.675046 1_554
Fe1 Nd0 3.109090 1_555
Fe1 Nd1 3.200430 1_555
Fe1 Nd1 3.276631 1_554
Fe2 Fe3 2.499082 1_555
Fe2 Fe4 2.499082 1_555
Fe2 Fe6 2.548392 1_556
Fe2 Fe9 2.657114 1_555
Fe2 Fe7 2.657114 1_555
Fe2 Ti0 2.675046 1_545
Fe2 Nd0 3.109090 1_555
Fe2 Nd1 3.200430 1_555
Fe2 Nd1 3.276632 1_545
Fe3 Fe6 2.534795 1_555
Fe3 Fe9 2.534795 1_555
Fe3 Fe8 2.666015 1_655
Fe3 Nd1 3.090993 1_555
Fe3 Nd0 3.222063 1_655
Fe3 Nd0 3.254297 1_555
Fe4 Fe7 2.534796 1_555
Fe4 Fe6 2.666015 1_556
Fe4 Nd1 3.090993 1_555
Fe4 Nd0 3.222063 1_556
Fe4 Nd0 3.254297 1_555
Fe5 Fe8 2.534795 1_555
Fe5 Fe7 2.666015 1_565
Fe5 Fe9 2.666015 1_565
Fe5 Nd1 3.090993 1_555
Fe5 Nd0 3.222063 1_565
Fe5 Nd0 3.254297 1_555
Fe6 Fe9 2.511741 1_555
Fe6 Ti0 2.773669 1_544
Fe6 Nd0 3.046470 1_555
Fe6 Nd1 3.051458 1_554
Fe7 Ti0 2.773669 1_445
Fe7 Nd0 3.046470 1_555
Fe7 Nd1 3.051458 1_545
Fe8 Fe9 2.515540 1_465
Fe8 Ti0 2.773669 1_454
Fe8 Nd0 3.046470 1_555
Fe8 Nd1 3.051457 1_455
Fe9 Ti0 2.773669 1_544
Fe9 Nd0 3.046470 1_555
Fe9 Nd1 3.051457 1_545
Fe10 Fe13 2.443897 1_556
Fe10 Fe12 2.465738 1_555
Fe10 Fe7 2.511741 1_555
Fe10 Fe6 2.515540 1_456
Fe10 Fe4 2.534796 1_555
Fe10 Fe2 2.548392 1_455
Fe10 Fe3 2.666015 1_455
Fe10 Ti0 2.773669 1_445
Fe10 Fe15 2.794757 1_556
Fe10 Nd0 3.046470 1_555
Fe10 Nd1 3.051458 1_455
Fe11 Fe14 2.443897 1_565
Fe11 Fe13 2.465738 1_555
Fe11 Fe8 2.511741 1_555
Fe11 Fe7 2.515540 1_564
Fe11 Fe5 2.534795 1_555
Fe11 Fe4 2.666015 1_554
Fe11 Ti0 2.773669 1_454
Fe11 Fe15 2.794758 1_565
Fe11 Nd0 3.046470 1_555
Fe11 Nd1 3.051458 1_554
Fe12 Fe8 2.443898 1_545
Fe12 Fe9 2.443898 1_455
Fe12 Fe5 2.456985 1_545
Fe12 Fe3 2.456985 1_455
Fe12 Fe7 2.465738 1_555
Fe12 Fe2 2.483628 1_455
Fe12 Fe15 2.603364 1_555
Fe12 Ti0 2.658471 1_445
Fe12 Nd0 3.300387 1_555
Fe12 Nd1 3.357294 1_445
Fe13 Fe6 2.443897 1_455
Fe13 Fe3 2.456985 1_455
Fe13 Fe4 2.456985 1_554
Fe13 Fe8 2.465738 1_555
Fe13 Fe15 2.603364 1_555
Fe13 Ti0 2.658471 1_454
Fe13 Nd0 3.300388 1_555
Fe13 Nd1 3.357294 1_454
Fe14 Fe7 2.443897 1_554
Fe14 Fe5 2.456985 1_545
Fe14 Fe4 2.456985 1_554
Fe14 Fe9 2.465738 1_555
Fe14 Fe6 2.465738 1_555
Fe14 Fe2 2.483628 1_554
Fe14 Fe15 2.603364 1_555
Fe14 Ti0 2.658471 1_544
Fe14 Nd0 3.300388 1_555
Fe14 Nd1 3.357294 1_544
Fe15 Ti0 2.394131 1_444
Fe15 Fe4 2.632614 1_554
Fe15 Fe3 2.632614 1_455
Fe15 Fe5 2.632614 1_545
Fe15 Fe7 2.794757 1_554
Fe15 Fe9 2.794757 1_455
Fe15 Fe8 2.794757 1_545
Fe15 Fe6 2.794758 1_455
Fe15 Nd0 3.055870 1_555
