# generated using pymatgen
data_VBO3
_symmetry_space_group_name_H-M   'P 1'
_cell_length_a   5.52213032
_cell_length_b   5.52213065
_cell_length_c   5.52212972
_cell_angle_alpha   49.56772360
_cell_angle_beta   49.56773593
_cell_angle_gamma   49.56773785
_symmetry_Int_Tables_number   1
_chemical_formula_structural   VBO3
_chemical_formula_sum   'V2 B2 O6'
_cell_volume   89.69635939
_cell_formula_units_Z   2
loop_
 _symmetry_equiv_pos_site_id
 _symmetry_equiv_pos_as_xyz
  1  'x, y, z'
loop_
 _atom_site_type_symbol
 _atom_site_label
 _atom_site_symmetry_multiplicity
 _atom_site_fract_x
 _atom_site_fract_y
 _atom_site_fract_z
 _atom_site_occupancy
  V  V0  1  0.50000000  0.50000000  0.50000000  1
  V  V1  1  0.00000000  0.00000000  -0.00000000  1
  B  B0  1  0.75000000  0.75000000  0.75000000  1
  B  B1  1  0.25000000  0.25000000  0.25000000  1
  O  O0  1  0.45198900  0.04801000  0.75000000  1
  O  O1  1  0.75000100  0.45198900  0.04801000  1
  O  O2  1  0.95199000  0.25000000  0.54801100  1
  O  O3  1  0.54801100  0.95199000  0.25000000  1
  O  O4  1  0.24999900  0.54801100  0.95199000  1
  O  O5  1  0.04801000  0.75000000  0.45198900  1
loop_
_geom_bond_atom_site_label_1
_geom_bond_atom_site_label_2
_geom_bond_distance
_geom_bond_site_symmetry_2
B0 O1 1.379703 1_556
B0 O5 1.379704 1_655
B0 O0 1.379704 1_565
B1 O4 1.379703 1_554
B1 O2 1.379704 1_455
B1 O3 1.379704 1_545
O0 V1 2.029781 1_556
O0 V0 2.029788 1_555
O1 V1 2.029782 1_655
O1 V0 2.029787 1_555
O2 V1 2.029780 1_656
O2 V0 2.029788 1_555
O3 V1 2.029781 1_665
O3 V0 2.029788 1_555
O4 V1 2.029782 1_566
O4 V0 2.029787 1_555
O5 V1 2.029780 1_565
O5 V0 2.029788 1_555
