# generated using pymatgen
data_Be3Fe2(SiO4)3
_symmetry_space_group_name_H-M   'P 1'
_cell_length_a   7.49301500
_cell_length_b   8.04748200
_cell_length_c   16.00928605
_cell_angle_alpha   60.14089107
_cell_angle_beta   90.00000000
_cell_angle_gamma   90.00000000
_symmetry_Int_Tables_number   1
_chemical_formula_structural   Be3Fe2(SiO4)3
_chemical_formula_sum   'Be12 Fe8 Si12 O48'
_cell_volume   837.20928494
_cell_formula_units_Z   4
loop_
 _symmetry_equiv_pos_site_id
 _symmetry_equiv_pos_as_xyz
  1  'x, y, z'
loop_
 _atom_site_type_symbol
 _atom_site_label
 _atom_site_symmetry_multiplicity
 _atom_site_fract_x
 _atom_site_fract_y
 _atom_site_fract_z
 _atom_site_occupancy
  Be  Be0  1  0.83765800  0.80567200  0.76833600  1
  Be  Be1  1  0.65964700  0.16191400  0.40244100  1
  Be  Be2  1  0.15964700  0.83808600  0.09755900  1
  Be  Be3  1  0.34035300  0.83808600  0.59755900  1
  Be  Be4  1  0.84035300  0.16191400  0.90244100  1
  Be  Be5  1  0.15835600  0.47253000  0.41727900  1
  Be  Be6  1  0.65835600  0.52747000  0.08272100  1
  Be  Be7  1  0.84164400  0.52747000  0.58272100  1
  Be  Be8  1  0.34164400  0.47253000  0.91727900  1
  Be  Be9  1  0.66234200  0.80567200  0.26833600  1
  Be  Be10  1  0.16234200  0.19432800  0.23166400  1
  Be  Be11  1  0.33765800  0.19432800  0.73166400  1
  Fe  Fe0  1  0.46695100  0.15352400  0.09395100  1
  Fe  Fe1  1  0.03304900  0.15352400  0.59395100  1
  Fe  Fe2  1  0.53304900  0.84647600  0.90604900  1
  Fe  Fe3  1  0.96695100  0.84647600  0.40604900  1
  Fe  Fe4  1  0.54836800  0.81168000  0.43304300  1
  Fe  Fe5  1  0.04836800  0.18832000  0.06695700  1
  Fe  Fe6  1  0.45163200  0.18832000  0.56695700  1
  Fe  Fe7  1  0.95163200  0.81168000  0.93304300  1
  Si  Si0  1  0.22284000  0.80875400  0.76633300  1
  Si  Si1  1  0.72284000  0.19124600  0.73366700  1
  Si  Si2  1  0.77716000  0.19124600  0.23366700  1
  Si  Si3  1  0.27716000  0.80875400  0.26633300  1
  Si  Si4  1  0.72977900  0.46646900  0.92087400  1
  Si  Si5  1  0.22977900  0.53353100  0.57912600  1
  Si  Si6  1  0.27022100  0.53353100  0.07912600  1
  Si  Si7  1  0.77022100  0.46646900  0.42087400  1
  Si  Si8  1  0.23191400  0.15978100  0.90337900  1
  Si  Si9  1  0.73191400  0.84021900  0.59662100  1
  Si  Si10  1  0.76808600  0.84021900  0.09662100  1
  Si  Si11  1  0.26808600  0.15978100  0.40337900  1
  O  O0  1  0.13004700  0.71749500  0.03768200  1
  O  O1  1  0.03129700  0.77900200  0.82476300  1
  O  O2  1  0.53129700  0.22099800  0.67523700  1
  O  O3  1  0.96870300  0.22099800  0.17523700  1
  O  O4  1  0.46870300  0.77900200  0.32476300  1
  O  O5  1  0.53314900  0.36136000  0.96334900  1
  O  O6  1  0.03314900  0.63864000  0.53665100  1
  O  O7  1  0.46685100  0.63864000  0.03665100  1
  O  O8  1  0.96685100  0.36136000  0.46334900  1
  O  O9  1  0.03487900  0.07679500  0.89298700  1
  O  O10  1  0.53487900  0.92320500  0.60701300  1
  O  O11  1  0.96512100  0.92320500  0.10701300  1
  O  O12  1  0.12709200  0.07221000  0.35304700  1
  O  O13  1  0.62709200  0.92779000  0.14695300  1
  O  O14  1  0.87290800  0.92779000  0.64695300  1
  O  O15  1  0.37290800  0.07221000  0.85304700  1
  O  O16  1  0.63004700  0.28250500  0.46231800  1
  O  O17  1  0.46512100  0.07679500  0.39298700  1
  O  O18  1  0.36995300  0.71749500  0.53768200  1
  O  O19  1  0.86995300  0.28250500  0.96231800  1
  O  O20  1  0.76605100  0.94431200  0.47547200  1
  O  O21  1  0.62751900  0.28478100  0.14490000  1
  O  O22  1  0.87248100  0.28478100  0.64490000  1
  O  O23  1  0.37248100  0.71521900  0.85510000  1
  O  O24  1  0.73304300  0.26535600  0.80849900  1
  O  O25  1  0.23304300  0.73464400  0.69150100  1
  O  O26  1  0.26695700  0.73464400  0.19150100  1
  O  O27  1  0.76695700  0.26535600  0.30849900  1
  O  O28  1  0.73323600  0.61758300  0.80918900  1
  O  O29  1  0.23323600  0.38241700  0.69081100  1
  O  O30  1  0.26676400  0.38241700  0.19081100  1
  O  O31  1  0.76676400  0.61758300  0.30918900  1
  O  O32  1  0.23868400  0.38209800  0.86648000  1
  O  O33  1  0.73868400  0.61790200  0.63352000  1
  O  O34  1  0.76131600  0.61790200  0.13352000  1
  O  O35  1  0.26131600  0.38209800  0.36648000  1
  O  O36  1  0.73351500  0.94815900  0.80301500  1
  O  O37  1  0.23351500  0.05184100  0.69698500  1
  O  O38  1  0.26648500  0.05184100  0.19698500  1
  O  O39  1  0.76648500  0.94815900  0.30301500  1
  O  O40  1  0.77246400  0.59113400  0.97823600  1
  O  O41  1  0.27246400  0.40886600  0.52176400  1
  O  O42  1  0.22753600  0.40886600  0.02176400  1
  O  O43  1  0.72753600  0.59113400  0.47823600  1
  O  O44  1  0.73394900  0.94431200  0.97547200  1
  O  O45  1  0.23394900  0.05568800  0.52452800  1
  O  O46  1  0.26605100  0.05568800  0.02452800  1
  O  O47  1  0.12751900  0.71521900  0.35510000  1
loop_
_geom_bond_atom_site_label_1
_geom_bond_atom_site_label_2
_geom_bond_distance
_geom_bond_site_symmetry_2
Be0 O28 1.531446 1_555
Be0 O1 1.665619 1_655
Be0 O36 1.692897 1_555
Be0 O14 1.705933 1_555
Be1 O27 1.534515 1_555
Be1 O17 1.649216 1_555
Be1 O16 1.684092 1_555
Be1 O20 1.740828 1_545
Be2 O26 1.534515 1_555
Be2 O11 1.649216 1_455
Be2 O0 1.684092 1_555
Be2 O46 1.740828 1_565
Be3 O25 1.534515 1_555
Be3 O10 1.649216 1_555
Be3 O18 1.684092 1_555
Be3 O45 1.740828 1_565
Be4 O24 1.534515 1_555
Be4 O9 1.649216 1_655
Be4 O19 1.684092 1_555
Be4 O44 1.740828 1_545
Be5 O35 1.541269 1_555
Be5 O8 1.657229 1_455
Be5 O47 1.709618 1_555
Be5 O41 1.714122 1_555
Be6 O34 1.541269 1_555
Be6 O7 1.657229 1_555
Be6 O21 1.709618 1_555
Be6 O40 1.714122 1_554
Be7 O33 1.541269 1_555
Be7 O6 1.657229 1_655
Be7 O22 1.709618 1_555
Be7 O43 1.714122 1_555
Be8 O32 1.541269 1_555
Be8 O5 1.657229 1_555
Be8 O23 1.709618 1_555
Be8 O42 1.714122 1_556
Be9 O31 1.531446 1_555
Be9 O4 1.665619 1_555
Be9 O39 1.692897 1_555
Be9 O13 1.705933 1_555
Be10 O30 1.531446 1_555
Be10 O3 1.665619 1_455
Be10 O38 1.692897 1_555
Be10 O12 1.705933 1_555
Be11 O29 1.531446 1_555
Be11 O2 1.665619 1_555
Be11 O37 1.692897 1_555
Be11 O15 1.705933 1_555
Fe0 O13 1.981160 1_545
Fe0 O5 1.983170 1_554
Fe0 O21 2.021505 1_555
Fe0 O38 2.074301 1_555
Fe0 O46 2.234396 1_555
Fe0 O42 2.532118 1_555
Fe1 O14 1.981160 1_445
Fe1 O8 1.983170 1_455
Fe1 O22 2.021505 1_455
Fe1 O37 2.074301 1_555
Fe1 O45 2.234396 1_555
Fe1 O41 2.532118 1_555
Fe2 O15 1.981160 1_565
Fe2 O7 1.983170 1_556
Fe2 O23 2.021505 1_555
Fe2 O36 2.074301 1_555
Fe2 O44 2.234396 1_555
Fe2 O40 2.532118 1_555
Fe3 O12 1.981160 1_665
Fe3 O6 1.983170 1_655
Fe3 O47 2.021505 1_655
Fe3 O39 2.074301 1_555
Fe3 O20 2.234396 1_555
Fe3 O43 2.532118 1_555
Fe4 O4 1.970882 1_555
Fe4 O18 1.975773 1_555
Fe4 O17 1.997462 1_565
Fe4 O43 2.048710 1_555
Fe4 O20 2.232274 1_555
Fe4 O39 2.436007 1_555
Fe5 O3 1.970882 1_455
Fe5 O19 1.975773 1_454
Fe5 O11 1.997462 1_445
Fe5 O42 2.048710 1_555
Fe5 O46 2.232274 1_555
Fe5 O38 2.436007 1_555
Fe6 O2 1.970882 1_555
Fe6 O16 1.975773 1_555
Fe6 O10 1.997462 1_545
Fe6 O41 2.048710 1_555
Fe6 O45 2.232274 1_555
Fe6 O37 2.436007 1_555
Fe7 O1 1.970882 1_655
Fe7 O0 1.975773 1_656
Fe7 O9 1.997462 1_665
Fe7 O40 2.048710 1_555
Fe7 O44 2.232274 1_555
Fe7 O36 2.436007 1_555
O0 Si6 1.660437 1_555
O1 Si0 1.664100 1_555
O2 Si1 1.664100 1_555
O3 Si2 1.664100 1_555
O4 Si3 1.664100 1_555
O5 Si4 1.666106 1_555
O6 Si5 1.666106 1_555
O7 Si6 1.666106 1_555
O8 Si7 1.666106 1_555
O9 Si8 1.662535 1_555
O10 Si9 1.662535 1_555
O11 Si10 1.662535 1_555
O12 Si11 1.681512 1_555
O13 Si10 1.681512 1_555
O14 Si9 1.681512 1_555
O15 Si8 1.681512 1_555
O16 Si7 1.660437 1_555
O17 Si11 1.662535 1_555
O18 Si5 1.660437 1_555
O19 Si4 1.660437 1_555
O20 Si9 1.706185 1_555
O21 Si2 1.666794 1_555
O22 Si1 1.666794 1_555
O23 Si0 1.666794 1_555
O24 Si1 1.583730 1_555
O25 Si0 1.583730 1_555
O26 Si3 1.583730 1_555
O27 Si2 1.583730 1_555
O28 Si4 1.584733 1_555
O29 Si5 1.584733 1_555
O30 Si6 1.584733 1_555
O31 Si7 1.584733 1_555
O32 Si8 1.581146 1_555
O33 Si9 1.581146 1_555
O34 Si10 1.581146 1_555
O35 Si11 1.581146 1_555
O36 Si1 1.703894 1_565
O37 Si0 1.703894 1_545
O38 Si3 1.703894 1_545
O39 Si2 1.703894 1_565
O40 Si4 1.693954 1_555
O41 Si5 1.693954 1_555
O42 Si6 1.693954 1_555
O43 Si7 1.693954 1_555
O44 Si10 1.706185 1_556
O45 Si11 1.706185 1_555
O46 Si8 1.706185 1_554
O47 Si3 1.666794 1_555
