# generated using pymatgen
data_Li9Mn2Co5O16
_symmetry_space_group_name_H-M   'P 1'
_cell_length_a   2.86909000
_cell_length_b   5.94263200
_cell_length_c   16.88151187
_cell_angle_alpha   89.54177514
_cell_angle_beta   90.00000000
_cell_angle_gamma   90.00000000
_symmetry_Int_Tables_number   1
_chemical_formula_structural   Li9Mn2Co5O16
_chemical_formula_sum   'Li9 Mn2 Co5 O16'
_cell_volume   287.81966179
_cell_formula_units_Z   1
loop_
 _symmetry_equiv_pos_site_id
 _symmetry_equiv_pos_as_xyz
  1  'x, y, z'
loop_
 _atom_site_type_symbol
 _atom_site_label
 _atom_site_symmetry_multiplicity
 _atom_site_fract_x
 _atom_site_fract_y
 _atom_site_fract_z
 _atom_site_occupancy
  Li  Li0  1  0.50000000  0.74849000  0.87067700  1
  Li  Li1  1  0.50000000  0.24426500  0.61604200  1
  Li  Li2  1  0.50000000  0.75722500  0.37814200  1
  Li  Li3  1  0.00000000  0.00223500  0.74602500  1
  Li  Li4  1  0.00000000  0.51036900  0.49884000  1
  Li  Li5  1  0.00000000  0.00391500  0.25752100  1
  Li  Li6  1  0.50000000  0.25237700  0.12965200  1
  Li  Li7  1  0.00000000  0.49980800  0.99974300  1
  Li  Li8  1  0.00000000  0.99038900  0.49908900  1
  Mn  Mn0  1  0.00000000  0.00045100  0.99938000  1
  Mn  Mn1  1  0.50000000  0.75532100  0.62052900  1
  Co  Co0  1  0.00000000  0.49612900  0.74939600  1
  Co  Co1  1  0.00000000  0.49261900  0.25375000  1
  Co  Co2  1  0.50000000  0.24158500  0.38611400  1
  Co  Co3  1  0.50000000  0.74434500  0.12904500  1
  Co  Co4  1  0.50000000  0.25416000  0.87163000  1
  O  O0  1  0.50000000  0.77807000  0.99885000  1
  O  O1  1  0.50000000  0.26272000  0.74720100  1
  O  O2  1  0.50000000  0.74968400  0.51273000  1
  O  O3  1  0.00000000  0.01591100  0.88369100  1
  O  O4  1  0.00000000  0.52879500  0.62797600  1
  O  O5  1  0.00000000  0.01518800  0.37567100  1
  O  O6  1  0.50000000  0.26249200  0.25010000  1
  O  O7  1  0.00000000  0.51376700  0.12438600  1
  O  O8  1  0.50000000  0.73766400  0.74412100  1
  O  O9  1  0.50000000  0.25385200  0.49645300  1
  O  O10  1  0.50000000  0.73604400  0.24739300  1
  O  O11  1  0.00000000  0.97162300  0.62617900  1
  O  O12  1  0.00000000  0.48420000  0.37265000  1
  O  O13  1  0.00000000  0.98505700  0.11481600  1
  O  O14  1  0.50000000  0.22143700  0.00082100  1
  O  O15  1  0.00000000  0.48981500  0.87139000  1
loop_
_geom_bond_atom_site_label_1
_geom_bond_atom_site_label_2
_geom_bond_distance
_geom_bond_site_symmetry_2
Li0 O15 2.102566 1_655
Li0 O15 2.102566 1_555
Li0 O8 2.137939 1_555
Li0 O3 2.153434 1_565
Li0 O3 2.153434 1_665
Li0 O0 2.172283 1_555
Li1 O9 2.019191 1_555
Li1 O11 2.169759 1_545
Li1 O11 2.169759 1_645
Li1 O1 2.217752 1_555
Li1 O4 2.227769 1_555
Li1 O4 2.227769 1_655
Li2 O5 2.099681 1_565
Li2 O5 2.099681 1_665
Li2 O12 2.168268 1_655
Li2 O12 2.168268 1_555
Li2 O10 2.211832 1_555
Li2 O2 2.272132 1_555
Li3 O11 2.032792 1_545
Li3 O1 2.110688 1_555
Li3 O1 2.110688 1_455
Li3 O8 2.128785 1_445
Li3 O8 2.128785 1_545
Li3 O3 2.326080 1_555
Li4 O2 2.034890 1_555
Li4 O2 2.034890 1_455
Li4 O9 2.093867 1_455
Li4 O9 2.093867 1_555
Li4 O12 2.137187 1_555
Li4 O4 2.183634 1_555
Li5 O5 1.996211 1_555
Li5 O6 2.105175 1_555
Li5 O6 2.105175 1_455
Li5 O10 2.150702 1_545
Li5 O10 2.150702 1_445
Li5 O13 2.412576 1_545
Li6 O6 2.034713 1_555
Li6 O7 2.115772 1_555
Li6 O7 2.115772 1_655
Li6 O13 2.156527 1_545
Li6 O13 2.156527 1_645
Li6 O14 2.184085 1_555
Li7 O7 2.106460 1_556
Li7 O15 2.168081 1_555
Li7 O0 2.189102 1_455
Li7 O0 2.189102 1_555
Li7 O14 2.189597 1_456
Li7 O14 2.189597 1_556
Li8 O2 2.037593 1_455
Li8 O2 2.037593 1_555
Li8 O5 2.087512 1_565
Li8 O9 2.123697 1_565
Li8 O9 2.123697 1_465
Li8 O11 2.147477 1_555
Mn0 O14 1.945152 1_456
Mn0 O14 1.945152 1_556
Mn0 O13 1.950149 1_546
Mn0 O0 1.950545 1_445
Mn0 O0 1.950545 1_545
Mn0 O3 1.954431 1_555
Mn1 O2 1.820386 1_555
Mn1 O11 1.929051 1_655
Mn1 O11 1.929051 1_555
Mn1 O4 1.970575 1_555
Mn1 O4 1.970575 1_655
Mn1 O8 2.088218 1_555
Co0 O1 1.996011 1_555
Co0 O1 1.996011 1_455
Co0 O8 2.030774 1_455
Co0 O8 2.030774 1_555
Co0 O4 2.057379 1_555
Co0 O15 2.059485 1_555
Co1 O6 1.983251 1_455
Co1 O6 1.983251 1_555
Co1 O12 2.007435 1_555
Co1 O10 2.039500 1_455
Co1 O10 2.039500 1_555
Co1 O7 2.186469 1_555
Co2 O9 1.864698 1_555
Co2 O5 1.975570 1_655
Co2 O5 1.975570 1_555
Co2 O12 2.045249 1_655
Co2 O12 2.045249 1_555
Co2 O6 2.298488 1_555
Co3 O7 1.985796 1_655
Co3 O7 1.985796 1_555
Co3 O10 1.998108 1_555
Co3 O13 2.038712 1_555
Co3 O13 2.038712 1_655
Co3 O0 2.205410 1_554
Co4 O15 2.004743 1_555
Co4 O15 2.004743 1_655
Co4 O3 2.024680 1_655
Co4 O3 2.024680 1_555
Co4 O1 2.100759 1_555
Co4 O14 2.188042 1_556
