# generated using pymatgen
data_K4HfC8O21
_symmetry_space_group_name_H-M   'P 1'
_cell_length_a   10.89846236
_cell_length_b   12.18796781
_cell_length_c   15.90268433
_cell_angle_alpha   90.00000000
_cell_angle_beta   94.23542488
_cell_angle_gamma   90.00000000
_symmetry_Int_Tables_number   1
_chemical_formula_structural   K4HfC8O21
_chemical_formula_sum   'K16 Hf4 C32 O84'
_cell_volume   2106.58645169
_cell_formula_units_Z   4
loop_
 _symmetry_equiv_pos_site_id
 _symmetry_equiv_pos_as_xyz
  1  'x, y, z'
loop_
 _atom_site_type_symbol
 _atom_site_label
 _atom_site_symmetry_multiplicity
 _atom_site_fract_x
 _atom_site_fract_y
 _atom_site_fract_z
 _atom_site_occupancy
  K  K0  1  0.10484341  0.14711304  0.75985375  1
  K  K1  1  0.89515659  0.64711304  0.74014625  1
  K  K2  1  0.89515659  0.85288696  0.24014625  1
  K  K3  1  0.10484341  0.35288696  0.25985375  1
  K  K4  1  0.02023231  0.26148008  0.01402951  1
  K  K5  1  0.97976769  0.76148008  0.48597049  1
  K  K6  1  0.97976769  0.73851992  0.98597049  1
  K  K7  1  0.02023231  0.23851992  0.51402951  1
  K  K8  1  0.51970590  0.44345076  0.80219144  1
  K  K9  1  0.48029410  0.94345076  0.69780856  1
  K  K10  1  0.48029410  0.55654924  0.19780856  1
  K  K11  1  0.51970590  0.05654924  0.30219144  1
  K  K12  1  0.39551414  0.15149340  0.92169527  1
  K  K13  1  0.60448586  0.65149340  0.57830473  1
  K  K14  1  0.60448586  0.84850660  0.07830473  1
  K  K15  1  0.39551414  0.34850660  0.42169527  1
  Hf  Hf0  1  0.76056376  0.14987681  0.67419808  1
  Hf  Hf1  1  0.23943624  0.64987681  0.82580192  1
  Hf  Hf2  1  0.23943624  0.85012319  0.32580192  1
  Hf  Hf3  1  0.76056376  0.35012319  0.17419808  1
  C  C0  1  0.68633443  0.08452513  0.85357264  1
  C  C1  1  0.31366557  0.58452513  0.64642736  1
  C  C2  1  0.31366557  0.91547487  0.14642736  1
  C  C3  1  0.68633443  0.41547487  0.35357264  1
  C  C4  1  0.82569638  0.11096731  0.86444987  1
  C  C5  1  0.17430362  0.61096731  0.63555013  1
  C  C6  1  0.17430362  0.88903269  0.13555013  1
  C  C7  1  0.82569638  0.38903269  0.36444987  1
  C  C8  1  0.54028810  0.14297235  0.54188311  1
  C  C9  1  0.45971190  0.64297235  0.95811689  1
  C  C10  1  0.45971190  0.85702765  0.45811689  1
  C  C11  1  0.54028810  0.35702765  0.04188311  1
  C  C12  1  0.65328103  0.17648623  0.49135205  1
  C  C13  1  0.34671897  0.67648623  0.00864795  1
  C  C14  1  0.34671897  0.82351377  0.50864795  1
  C  C15  1  0.65328103  0.32351377  0.99135205  1
  C  C16  1  0.94259671  0.97372221  0.62088159  1
  C  C17  1  0.05740329  0.47372221  0.87911841  1
  C  C18  1  0.05740329  0.02627779  0.37911841  1
  C  C19  1  0.94259671  0.52627779  0.12088159  1
  C  C20  1  0.82443138  0.90923195  0.63845556  1
  C  C21  1  0.17556862  0.40923195  0.86154444  1
  C  C22  1  0.17556862  0.09076805  0.36154444  1
  C  C23  1  0.82443138  0.59076805  0.13845556  1
  C  C24  1  0.88255773  0.37728639  0.68176815  1
  C  C25  1  0.11744227  0.87728639  0.81823185  1
  C  C26  1  0.11744227  0.62271361  0.31823185  1
  C  C27  1  0.88255773  0.12271361  0.18176815  1
  C  C28  1  0.74480378  0.39905206  0.69180139  1
  C  C29  1  0.25519622  0.89905206  0.80819861  1
  C  C30  1  0.25519622  0.60094794  0.30819861  1
  C  C31  1  0.74480378  0.10094794  0.19180139  1
  O  O0  1  0.63821698  0.10133738  0.77878054  1
  O  O1  1  0.36178302  0.60133738  0.72121946  1
  O  O2  1  0.36178302  0.89866262  0.22121946  1
  O  O3  1  0.63821698  0.39866262  0.27878054  1
  O  O4  1  0.86638014  0.14941662  0.79600508  1
  O  O5  1  0.13361986  0.64941662  0.70399492  1
  O  O6  1  0.13361986  0.85058338  0.20399492  1
  O  O7  1  0.86638014  0.35058338  0.29600508  1
  O  O8  1  0.88758234  0.09727241  0.93222872  1
  O  O9  1  0.11241766  0.59727241  0.56777128  1
  O  O10  1  0.11241766  0.90272759  0.06777128  1
  O  O11  1  0.88758234  0.40272759  0.43222872  1
  O  O12  1  0.63242160  0.05181856  0.91606514  1
  O  O13  1  0.36757840  0.55181856  0.58393486  1
  O  O14  1  0.36757840  0.94818144  0.08393486  1
  O  O15  1  0.63242160  0.44818144  0.41606514  1
  O  O16  1  0.56861019  0.12640714  0.62050930  1
  O  O17  1  0.43138981  0.62640714  0.87949070  1
  O  O18  1  0.43138981  0.87359286  0.37949070  1
  O  O19  1  0.56861019  0.37359286  0.12050930  1
  O  O20  1  0.75371224  0.18230540  0.53962658  1
  O  O21  1  0.24628776  0.68230540  0.96037342  1
  O  O22  1  0.24628776  0.81769460  0.46037342  1
  O  O23  1  0.75371224  0.31769460  0.03962658  1
  O  O24  1  0.63996250  0.19485849  0.41474876  1
  O  O25  1  0.36003750  0.69485849  0.08525124  1
  O  O26  1  0.36003750  0.80514151  0.58525124  1
  O  O27  1  0.63996250  0.30514151  0.91474876  1
  O  O28  1  0.43630932  0.13593438  0.50344286  1
  O  O29  1  0.56369068  0.63593438  0.99655714  1
  O  O30  1  0.56369068  0.86406562  0.49655714  1
  O  O31  1  0.43630932  0.36406562  0.00344286  1
  O  O32  1  0.93279672  0.07808419  0.63667963  1
  O  O33  1  0.06720328  0.57808419  0.86332037  1
  O  O34  1  0.06720328  0.92191581  0.36332037  1
  O  O35  1  0.93279672  0.42191581  0.13667963  1
  O  O36  1  0.73889859  0.97145031  0.66480362  1
  O  O37  1  0.26110141  0.47145031  0.83519638  1
  O  O38  1  0.26110141  0.02854969  0.33519638  1
  O  O39  1  0.73889859  0.52854969  0.16480362  1
  O  O40  1  0.81714143  0.80807025  0.62820045  1
  O  O41  1  0.18285857  0.30807025  0.87179955  1
  O  O42  1  0.18285857  0.19192975  0.37179955  1
  O  O43  1  0.81714143  0.69192975  0.12820045  1
  O  O44  1  0.03405589  0.92853429  0.59535967  1
  O  O45  1  0.96594411  0.42853429  0.90464033  1
  O  O46  1  0.96594411  0.07146571  0.40464033  1
  O  O47  1  0.03405589  0.57146571  0.09535967  1
  O  O48  1  0.90486871  0.27540069  0.66520879  1
  O  O49  1  0.09513129  0.77540069  0.83479121  1
  O  O50  1  0.09513129  0.72459931  0.33479121  1
  O  O51  1  0.90486871  0.22459931  0.16520879  1
  O  O52  1  0.68008125  0.31038513  0.69585428  1
  O  O53  1  0.31991875  0.81038513  0.80414572  1
  O  O54  1  0.31991875  0.68961487  0.30414572  1
  O  O55  1  0.68008125  0.18961487  0.19585428  1
  O  O56  1  0.70396397  0.49414221  0.69730205  1
  O  O57  1  0.29603603  0.99414221  0.80269795  1
  O  O58  1  0.29603603  0.50585779  0.30269795  1
  O  O59  1  0.70396397  0.00585779  0.19730205  1
  O  O60  1  0.96034135  0.45067174  0.69037911  1
  O  O61  1  0.03965865  0.95067174  0.80962089  1
  O  O62  1  0.03965865  0.54932826  0.30962089  1
  O  O63  1  0.96034135  0.04932826  0.19037911  1
  O  O64  1  0.19077848  0.05515070  0.00083751  1
  O  O65  1  0.80922152  0.55515070  0.49916249  1
  O  O66  1  0.80922152  0.94484930  0.99916249  1
  O  O67  1  0.19077848  0.44484930  0.50083751  1
  O  O68  1  0.23632757  0.31088547  0.66250487  1
  O  O69  1  0.76367243  0.81088547  0.83749513  1
  O  O70  1  0.76367243  0.68911453  0.33749513  1
  O  O71  1  0.23632757  0.18911453  0.16250487  1
  O  O72  1  0.26345149  0.10430459  0.58718480  1
  O  O73  1  0.73654851  0.60430459  0.91281520  1
  O  O74  1  0.73654851  0.89569541  0.41281520  1
  O  O75  1  0.26345149  0.39569541  0.08718480  1
  O  O76  1  0.32912912  0.27613443  0.70395289  1
  O  O77  1  0.67087088  0.77613443  0.79604711  1
  O  O78  1  0.67087088  0.72386557  0.29604711  1
  O  O79  1  0.32912912  0.22386557  0.20395289  1
  O  O80  1  0.46116234  0.39274276  0.59859786  1
  O  O81  1  0.53883766  0.89274276  0.90140214  1
  O  O82  1  0.53883766  0.60725724  0.40140214  1
  O  O83  1  0.46116234  0.10725724  0.09859786  1
loop_
_geom_bond_atom_site_label_1
_geom_bond_atom_site_label_2
_geom_bond_distance
_geom_bond_site_symmetry_2
K0 O61 2.635601 1_545
K0 O4 2.702996 1_455
K0 O41 2.741718 1_555
K0 O32 2.741896 1_455
K0 O57 2.841187 1_545
K0 O68 2.960062 1_555
K0 O48 2.995901 1_455
K0 O76 3.091758 1_555
K0 O72 3.391356 1_555
K1 O60 2.635601 1_555
K1 O5 2.702996 1_655
K1 O40 2.741718 1_555
K1 O33 2.741896 1_655
K1 O56 2.841187 1_555
K1 O69 2.960062 1_555
K1 O49 2.995901 1_655
K1 O77 3.091758 1_555
K1 O73 3.391356 1_555
K2 O63 2.635601 1_565
K2 O6 2.702996 1_655
K2 O43 2.741718 1_555
K2 O34 2.741896 1_655
K2 O59 2.841187 1_565
K2 O70 2.960062 1_555
K2 O50 2.995901 1_655
K2 O78 3.091758 1_555
K2 O74 3.391356 1_555
K3 O62 2.635601 1_555
K3 O7 2.702996 1_455
K3 O42 2.741718 1_555
K3 O35 2.741896 1_455
K3 O58 2.841187 1_555
K3 O71 2.960062 1_555
K3 O51 2.995901 1_455
K3 O79 3.091758 1_555
K3 O75 3.391356 1_555
K4 O45 2.714715 1_454
K4 O8 2.740412 1_454
K4 O51 2.830066 1_455
K4 O35 2.968237 1_455
K4 O41 3.028500 1_554
K4 O23 3.040857 1_455
K4 O64 3.143284 1_555
K4 O75 3.255778 1_555
K4 O71 3.328380 1_555
K5 O44 2.714715 1_655
K5 O9 2.740412 1_655
K5 O50 2.830066 1_655
K5 O34 2.968237 1_655
K5 O40 3.028500 1_555
K5 O22 3.040857 1_655
K5 O65 3.143284 1_555
K5 O74 3.255778 1_555
K5 O70 3.328380 1_555
K6 O47 2.714715 1_656
K6 O10 2.740412 1_656
K6 O49 2.830066 1_655
K6 O33 2.968237 1_655
K6 O43 3.028500 1_556
K6 O21 3.040857 1_655
K6 O66 3.143284 1_555
K6 O73 3.255778 1_555
K6 O69 3.328380 1_555
K7 O46 2.714715 1_455
K7 O11 2.740412 1_455
K7 O48 2.830066 1_455
K7 O32 2.968237 1_455
K7 O42 3.028500 1_555
K7 O20 3.040857 1_455
K7 O67 3.143284 1_555
K7 O72 3.255778 1_555
K7 O68 3.328380 1_555
K8 O27 2.723374 1_555
K8 O17 2.754014 1_555
K8 O56 2.773331 1_555
K8 O1 2.827716 1_555
K8 O37 2.924684 1_555
K8 O52 2.996901 1_555
K8 O76 3.230137 1_555
K9 O26 2.723374 1_555
K9 O16 2.754014 1_565
K9 O57 2.773331 1_555
K9 O0 2.827716 1_565
K9 O36 2.924684 1_555
K9 O53 2.996901 1_555
K9 O77 3.230137 1_555
K10 O25 2.723374 1_555
K10 O19 2.754014 1_555
K10 O58 2.773331 1_555
K10 O3 2.827716 1_555
K10 O39 2.924684 1_555
K10 O54 2.996901 1_555
K10 O78 3.230137 1_555
K11 O24 2.723374 1_555
K11 O18 2.754014 1_545
K11 O59 2.773331 1_555
K11 O2 2.827716 1_545
K11 O38 2.924684 1_555
K11 O55 2.996901 1_555
K11 O79 3.230137 1_555
K12 O57 2.851555 1_545
K12 O12 2.860827 1_555
K12 O64 2.890732 1_556
K12 O83 2.901639 1_556
K12 O31 2.917993 1_556
K12 O41 3.061232 1_555
K12 O27 3.264967 1_555
K13 O56 2.851555 1_555
K13 O13 2.860827 1_555
K13 O65 2.890732 1_555
K13 O82 2.901639 1_555
K13 O30 2.917993 1_555
K13 O40 3.061232 1_555
K13 O26 3.264967 1_555
K14 O59 2.851555 1_565
K14 O14 2.860827 1_555
K14 O66 2.890732 1_554
K14 O81 2.901639 1_554
K14 O29 2.917993 1_554
K14 O43 3.061232 1_555
K14 O25 3.264967 1_555
K15 O58 2.851555 1_555
K15 O15 2.860827 1_555
K15 O67 2.890732 1_555
K15 O80 2.901639 1_555
K15 O28 2.917993 1_555
K15 O42 3.061232 1_555
K15 O24 3.264967 1_555
Hf0 O20 2.172094 1_555
Hf0 O4 2.179957 1_555
Hf0 O52 2.181647 1_555
Hf0 O36 2.191345 1_545
Hf0 O32 2.193275 1_555
Hf0 O48 2.206257 1_555
Hf0 O16 2.218878 1_555
Hf0 O0 2.285066 1_555
Hf1 O21 2.172094 1_555
Hf1 O5 2.179957 1_555
Hf1 O53 2.181647 1_555
Hf1 O37 2.191345 1_555
Hf1 O33 2.193275 1_555
Hf1 O49 2.206257 1_555
Hf1 O17 2.218878 1_555
Hf1 O1 2.285066 1_555
Hf2 O22 2.172094 1_555
Hf2 O6 2.179957 1_555
Hf2 O54 2.181647 1_555
Hf2 O38 2.191345 1_565
Hf2 O34 2.193275 1_555
Hf2 O50 2.206257 1_555
Hf2 O18 2.218878 1_555
Hf2 O2 2.285066 1_555
Hf3 O23 2.172094 1_555
Hf3 O7 2.179957 1_555
Hf3 O55 2.181647 1_555
Hf3 O39 2.191345 1_555
Hf3 O35 2.193275 1_555
Hf3 O51 2.206257 1_555
Hf3 O19 2.218878 1_555
Hf3 O3 2.285066 1_555
C0 O12 1.256194 1_555
C0 O0 1.280437 1_555
C1 O13 1.256194 1_555
C1 O1 1.280437 1_555
C2 O14 1.256194 1_555
C2 O2 1.280437 1_555
C3 O15 1.256194 1_555
C3 O3 1.280437 1_555
C4 O8 1.239827 1_555
C4 O4 1.293144 1_555
C5 O9 1.239827 1_555
C5 O5 1.293144 1_555
C6 O10 1.239827 1_555
C6 O6 1.293144 1_555
C7 O11 1.239827 1_555
C7 O7 1.293144 1_555
C8 O28 1.250155 1_555
C8 O16 1.281580 1_555
C9 O29 1.250155 1_555
C9 O17 1.281580 1_555
C10 O30 1.250155 1_555
C10 O18 1.281580 1_555
C11 O31 1.250155 1_555
C11 O19 1.281580 1_555
C12 O24 1.236567 1_555
C12 O20 1.291626 1_555
C13 O25 1.236567 1_555
C13 O21 1.291626 1_554
C14 O26 1.236567 1_555
C14 O22 1.291626 1_555
C15 O27 1.236567 1_555
C15 O23 1.291626 1_556
C16 O44 1.233429 1_655
C16 O32 1.302448 1_565
C17 O45 1.233429 1_455
C17 O33 1.302448 1_555
C18 O46 1.233429 1_455
C18 O34 1.302448 1_545
C19 O47 1.233429 1_655
C19 O35 1.302448 1_555
C20 O40 1.245461 1_555
C20 O36 1.295088 1_555
C21 O41 1.245461 1_555
C21 O37 1.295088 1_555
C22 O42 1.245461 1_555
C22 O38 1.295088 1_555
C23 O43 1.245461 1_555
C23 O39 1.295088 1_555
C24 O60 1.232973 1_555
C24 O48 1.296127 1_555
C25 O61 1.232973 1_555
C25 O49 1.296127 1_555
C26 O62 1.232973 1_555
C26 O50 1.296127 1_555
C27 O63 1.232973 1_555
C27 O51 1.296127 1_555
C28 O56 1.246871 1_555
C28 O52 1.294709 1_555
C29 O57 1.246871 1_555
C29 O53 1.294709 1_555
C30 O58 1.246871 1_555
C30 O54 1.294709 1_555
C31 O59 1.246871 1_555
C31 O55 1.294709 1_555
O68 O76 1.240281 1_555
O69 O77 1.240281 1_555
O70 O78 1.240281 1_555
O71 O79 1.240281 1_555
