# generated using pymatgen
data_NaCaGaSi2O7
_symmetry_space_group_name_H-M   'P 1'
_cell_length_a   7.22818400
_cell_length_b   10.55486300
_cell_length_c   9.46854900
_cell_angle_alpha   90.00000000
_cell_angle_beta   90.00000000
_cell_angle_gamma   90.00000000
_symmetry_Int_Tables_number   1
_chemical_formula_structural   NaCaGaSi2O7
_chemical_formula_sum   'Na4 Ca4 Ga4 Si8 O28'
_cell_volume   722.37919750
_cell_formula_units_Z   4
loop_
 _symmetry_equiv_pos_site_id
 _symmetry_equiv_pos_as_xyz
  1  'x, y, z'
loop_
 _atom_site_type_symbol
 _atom_site_label
 _atom_site_symmetry_multiplicity
 _atom_site_fract_x
 _atom_site_fract_y
 _atom_site_fract_z
 _atom_site_occupancy
  Na  Na0  1  0.39269300  0.68115300  0.76339900  1
  Na  Na1  1  0.10730700  0.81884700  0.26339900  1
  Na  Na2  1  0.89269300  0.31884700  0.23660100  1
  Na  Na3  1  0.60730700  0.18115300  0.73660100  1
  Ca  Ca0  1  0.47102600  0.23009200  0.13850100  1
  Ca  Ca1  1  0.02897400  0.26990800  0.63850100  1
  Ca  Ca2  1  0.97102600  0.76990800  0.86149900  1
  Ca  Ca3  1  0.52897400  0.73009200  0.36149900  1
  Ga  Ga0  1  0.89888300  0.02119700  0.10907700  1
  Ga  Ga1  1  0.10111700  0.52119700  0.39092300  1
  Ga  Ga2  1  0.39888300  0.97880300  0.89092300  1
  Ga  Ga3  1  0.60111700  0.47880300  0.60907700  1
  Si  Si0  1  0.67375800  0.10197600  0.41095700  1
  Si  Si1  1  0.73124400  0.89093500  0.61425400  1
  Si  Si2  1  0.82624200  0.39802400  0.91095700  1
  Si  Si3  1  0.76875600  0.60906500  0.11425400  1
  Si  Si4  1  0.23124400  0.10906500  0.38574600  1
  Si  Si5  1  0.17375800  0.89802400  0.58904300  1
  Si  Si6  1  0.26875600  0.39093500  0.88574600  1
  Si  Si7  1  0.32624200  0.60197600  0.08904300  1
  O  O0  1  0.16640100  0.05122300  0.54071300  1
  O  O1  1  0.17129900  0.03846800  0.24409900  1
  O  O2  1  0.27732900  0.81763400  0.46984300  1
  O  O3  1  0.29132800  0.16425300  0.78521100  1
  O  O4  1  0.13491500  0.25455100  0.40307900  1
  O  O5  1  0.04724300  0.35569600  0.89020100  1
  O  O6  1  0.25534600  0.62255300  0.25120100  1
  O  O7  1  0.45275700  0.14430400  0.39020100  1
  O  O8  1  0.24465400  0.87744700  0.75120100  1
  O  O9  1  0.22267100  0.68236600  0.96984300  1
  O  O10  1  0.20867200  0.33574700  0.28521100  1
  O  O11  1  0.32870100  0.46153200  0.74409900  1
  O  O12  1  0.36508500  0.24544900  0.90307900  1
  O  O13  1  0.33359900  0.44877700  0.04071300  1
  O  O14  1  0.66640100  0.94877700  0.45928700  1
  O  O15  1  0.67129900  0.96153200  0.75590100  1
  O  O16  1  0.63491500  0.74544900  0.59692100  1
  O  O17  1  0.79132800  0.83574700  0.21478900  1
  O  O18  1  0.77732900  0.18236600  0.53015700  1
  O  O19  1  0.75534600  0.37744700  0.74879900  1
  O  O20  1  0.54724300  0.64430400  0.10979900  1
  O  O21  1  0.74465400  0.12255300  0.24879900  1
  O  O22  1  0.95275700  0.85569600  0.60979900  1
  O  O23  1  0.86508500  0.75455100  0.09692100  1
  O  O24  1  0.82870100  0.53846800  0.25590100  1
  O  O25  1  0.70867200  0.66425300  0.71478900  1
  O  O26  1  0.72267100  0.31763400  0.03015700  1
  O  O27  1  0.83359900  0.55122300  0.95928700  1
loop_
_geom_bond_atom_site_label_1
_geom_bond_atom_site_label_2
_geom_bond_distance
_geom_bond_site_symmetry_2
Na0 O9 2.308990 1_555
Na0 O8 2.334725 1_555
Na0 O25 2.336688 1_555
Na0 O11 2.370821 1_555
Na0 O16 2.451667 1_555
Na1 O2 2.308990 1_555
Na1 O6 2.334725 1_555
Na1 O17 2.336688 1_455
Na1 O1 2.370821 1_565
Na1 O23 2.451667 1_455
Na2 O26 2.308990 1_555
Na2 O21 2.334725 1_555
Na2 O10 2.336688 1_655
Na2 O24 2.370821 1_555
Na2 O4 2.451667 1_655
Na3 O18 2.308990 1_555
Na3 O19 2.334725 1_555
Na3 O3 2.336688 1_555
Na3 O15 2.370821 1_545
Na3 O12 2.451667 1_555
Ca0 O26 2.283568 1_555
Ca0 O12 2.362535 1_554
Ca0 O21 2.508162 1_555
Ca0 O7 2.552868 1_555
Ca0 O10 2.601810 1_555
Ca0 O13 2.678020 1_555
Ca1 O18 2.283568 1_455
Ca1 O4 2.362535 1_555
Ca1 O19 2.508162 1_455
Ca1 O5 2.552868 1_555
Ca1 O3 2.601810 1_555
Ca1 O0 2.678020 1_555
Ca2 O9 2.283568 1_655
Ca2 O23 2.362535 1_556
Ca2 O8 2.508162 1_655
Ca2 O22 2.552868 1_555
Ca2 O25 2.601810 1_555
Ca2 O27 2.678020 1_555
Ca3 O2 2.283568 1_555
Ca3 O16 2.362535 1_555
Ca3 O6 2.508162 1_555
Ca3 O20 2.552868 1_555
Ca3 O17 2.601810 1_555
Ca3 O14 2.678020 1_555
Ga0 O21 2.034078 1_555
Ga0 O17 2.331884 1_545
Ga0 O1 2.354771 1_655
Ga1 O6 2.034078 1_555
Ga1 O10 2.331884 1_555
Ga1 O24 2.354771 1_455
Ga2 O8 2.034078 1_555
Ga2 O3 2.331884 1_565
Ga2 O15 2.354771 1_555
Ga3 O19 2.034078 1_555
Ga3 O25 2.331884 1_555
Ga3 O11 2.354771 1_555
O0 Si4 1.656928 1_555
O0 Si5 1.681342 1_545
O1 Si4 1.594294 1_555
O2 Si5 1.598206 1_555
O4 Si4 1.694039 1_555
O5 Si6 1.644311 1_555
O5 Si2 1.670337 1_455
O6 Si7 1.633166 1_555
O7 Si4 1.644311 1_555
O7 Si0 1.670337 1_555
O8 Si5 1.633166 1_555
O9 Si7 1.598206 1_556
O10 O4 1.504739 1_555
O11 Si6 1.594294 1_555
O12 O3 1.504739 1_555
O12 Si6 1.694039 1_555
O13 Si6 1.656928 1_554
O13 Si7 1.681342 1_555
O14 Si1 1.656928 1_555
O14 Si0 1.681342 1_565
O15 Si1 1.594294 1_555
O16 O25 1.504739 1_555
O16 Si1 1.694039 1_555
O17 O23 1.504739 1_555
O18 Si0 1.598206 1_555
O19 Si2 1.633166 1_555
O20 Si3 1.644311 1_555
O20 Si7 1.670337 1_555
O21 Si0 1.633166 1_555
O22 Si1 1.644311 1_555
O22 Si5 1.670337 1_655
O23 Si3 1.694039 1_555
O24 Si3 1.594294 1_555
O26 Si2 1.598206 1_554
O27 Si3 1.656928 1_556
O27 Si2 1.681342 1_555
