# generated using pymatgen
data_KMg14Sb
_symmetry_space_group_name_H-M   'P 1'
_cell_length_a   6.52077574
_cell_length_b   6.52077518
_cell_length_c   10.71065206
_cell_angle_alpha   90.00000000
_cell_angle_beta   90.00000000
_cell_angle_gamma   120.00000283
_symmetry_Int_Tables_number   1
_chemical_formula_structural   KMg14Sb
_chemical_formula_sum   'K1 Mg14 Sb1'
_cell_volume   394.40737054
_cell_formula_units_Z   1
loop_
 _symmetry_equiv_pos_site_id
 _symmetry_equiv_pos_as_xyz
  1  'x, y, z'
loop_
 _atom_site_type_symbol
 _atom_site_label
 _atom_site_symmetry_multiplicity
 _atom_site_fract_x
 _atom_site_fract_y
 _atom_site_fract_z
 _atom_site_occupancy
  K  K0  1  0.16666700  0.33333300  0.12500000  1
  Mg  Mg0  1  0.17307264  0.83653582  0.12500000  1
  Mg  Mg1  1  0.16212569  0.83106234  0.62500000  1
  Mg  Mg2  1  0.66346418  0.32692736  0.12500000  1
  Mg  Mg3  1  0.66893766  0.33787431  0.62500000  1
  Mg  Mg4  1  0.66346418  0.83653582  0.12500000  1
  Mg  Mg5  1  0.66893766  0.83106234  0.62500000  1
  Mg  Mg6  1  0.33708212  0.16291788  0.38213728  1
  Mg  Mg7  1  0.33708212  0.16291788  0.86786272  1
  Mg  Mg8  1  0.33708212  0.67416525  0.38213728  1
  Mg  Mg9  1  0.33708212  0.67416525  0.86786272  1
  Mg  Mg10  1  0.82583475  0.16291788  0.38213728  1
  Mg  Mg11  1  0.82583475  0.16291788  0.86786272  1
  Mg  Mg12  1  0.83333300  0.66666700  0.37045375  1
  Mg  Mg13  1  0.83333300  0.66666700  0.87954625  1
  Sb  Sb0  1  0.16666700  0.33333300  0.62500000  1
loop_
_geom_bond_atom_site_label_1
_geom_bond_atom_site_label_2
_geom_bond_distance
_geom_bond_site_symmetry_2
K0 Mg4 3.260588 1_555
K0 Mg0 3.260588 1_555
K0 Mg0 3.260588 1_545
K0 Mg4 3.260588 1_445
K0 Mg2 3.260589 1_555
K0 Mg2 3.260589 1_455
K0 Mg7 3.360010 1_554
K0 Mg6 3.360010 1_555
K0 Mg8 3.360016 1_555
K0 Mg9 3.360016 1_554
K0 Mg10 3.360016 1_455
K0 Mg11 3.360016 1_454
Mg0 Mg2 3.197733 1_565
Mg0 Mg4 3.197733 1_555
Mg0 Mg12 3.254592 1_455
Mg0 Mg13 3.254592 1_454
Mg0 Mg9 3.313945 1_554
Mg0 Mg8 3.313945 1_555
Mg0 Mg7 3.313951 1_564
Mg0 Mg6 3.313951 1_565
Mg0 Mg2 3.323042 1_455
Mg0 Mg4 3.323042 1_455
Mg1 Mg9 3.206523 1_555
Mg1 Mg8 3.206523 1_555
Mg1 Mg7 3.206529 1_565
Mg1 Mg6 3.206529 1_565
Mg1 Mg3 3.215968 1_455
Mg1 Mg5 3.215969 1_455
Mg1 Sb0 3.260488 1_555
Mg1 Sb0 3.260488 1_565
Mg1 Mg12 3.298563 1_455
Mg1 Mg13 3.298563 1_455
Mg1 Mg3 3.304807 1_565
Mg1 Mg5 3.304807 1_555
Mg2 Mg4 3.197733 1_545
Mg2 Mg7 3.313951 1_554
Mg2 Mg6 3.313951 1_555
Mg2 Mg4 3.323042 1_555
Mg3 Mg6 3.206529 1_555
Mg3 Mg7 3.206529 1_555
Mg3 Mg5 3.215968 1_555
Mg3 Sb0 3.260489 1_655
Mg3 Sb0 3.260489 1_555
Mg3 Mg5 3.304807 1_545
Mg4 Mg9 3.313951 1_554
Mg4 Mg8 3.313951 1_555
Mg5 Mg9 3.206529 1_555
Mg5 Mg8 3.206529 1_555
Mg5 Sb0 3.260488 1_665
Mg5 Sb0 3.260488 1_555
Mg6 Mg8 3.187046 1_545
Mg6 Sb0 3.235875 1_555
Mg6 Mg8 3.333729 1_555
Mg7 Mg9 3.187046 1_545
Mg7 Sb0 3.235875 1_555
Mg7 Mg9 3.333729 1_555
Mg8 Sb0 3.235882 1_555
Mg9 Sb0 3.235882 1_555
Mg10 Mg8 3.187046 1_545
Mg10 Mg6 3.187046 1_555
Mg10 Mg3 3.206523 1_555
Mg10 Mg5 3.206529 1_545
Mg10 Sb0 3.235882 1_655
Mg10 Mg12 3.263063 1_555
Mg10 Mg12 3.263063 1_545
Mg10 Mg2 3.313945 1_555
Mg10 Mg4 3.313951 1_545
Mg10 Mg8 3.333729 1_655
Mg10 Mg6 3.333729 1_655
Mg11 Mg9 3.187046 1_545
Mg11 Mg7 3.187046 1_555
Mg11 Mg3 3.206523 1_555
Mg11 Mg5 3.206529 1_545
Mg11 Sb0 3.235882 1_655
Mg11 Mg13 3.263063 1_555
Mg11 Mg13 3.263063 1_545
Mg11 Mg2 3.313945 1_556
Mg11 Mg4 3.313951 1_546
Mg11 Mg9 3.333729 1_655
Mg11 Mg7 3.333729 1_655
Mg12 Mg4 3.254585 1_555
Mg12 Mg2 3.254591 1_555
Mg12 Mg6 3.263063 1_555
Mg12 Mg6 3.263063 1_665
Mg12 Mg8 3.263063 1_655
Mg12 Mg8 3.263063 1_555
Mg12 Mg5 3.298557 1_555
Mg12 Mg3 3.298563 1_555
Mg13 Mg4 3.254585 1_556
Mg13 Mg2 3.254591 1_556
Mg13 Mg7 3.263063 1_555
Mg13 Mg7 3.263063 1_665
Mg13 Mg9 3.263063 1_655
Mg13 Mg9 3.263063 1_555
Mg13 Mg5 3.298557 1_555
Mg13 Mg3 3.298563 1_555
