# generated using pymatgen
data_LaS2
_symmetry_space_group_name_H-M   'P 1'
_cell_length_a   4.04634300
_cell_length_b   4.04634300
_cell_length_c   8.31767800
_cell_angle_alpha   90.00000000
_cell_angle_beta   90.00000000
_cell_angle_gamma   90.00000000
_symmetry_Int_Tables_number   1
_chemical_formula_structural   LaS2
_chemical_formula_sum   'La2 S4'
_cell_volume   136.18444087
_cell_formula_units_Z   2
loop_
 _symmetry_equiv_pos_site_id
 _symmetry_equiv_pos_as_xyz
  1  'x, y, z'
loop_
 _atom_site_type_symbol
 _atom_site_label
 _atom_site_symmetry_multiplicity
 _atom_site_fract_x
 _atom_site_fract_y
 _atom_site_fract_z
 _atom_site_occupancy
  La  La0  1  0.00000000  0.50000000  0.72423300  1
  La  La1  1  0.50000000  0.00000000  0.27576700  1
  S  S0  1  0.00000000  0.50000000  0.36397200  1
  S  S1  1  0.50000000  0.00000000  0.63602800  1
  S  S2  1  0.00000000  0.00000000  0.00000000  1
  S  S3  1  0.50000000  0.50000000  0.00000000  1
loop_
_geom_bond_atom_site_label_1
_geom_bond_atom_site_label_2
_geom_bond_distance
_geom_bond_site_symmetry_2
La0 S1 2.953761 1_465
La0 S1 2.953761 1_455
La0 S1 2.953761 1_555
La0 S1 2.953761 1_565
La0 S0 2.996535 1_555
La0 S2 3.058508 1_566
La0 S3 3.058508 1_456
La0 S2 3.058508 1_556
La0 S3 3.058508 1_556
La1 S0 2.953761 1_545
La1 S0 2.953761 1_645
La1 S0 2.953761 1_555
La1 S0 2.953761 1_655
La1 S1 2.996535 1_555
La1 S2 3.058508 1_655
La1 S3 3.058508 1_545
La1 S2 3.058508 1_555
La1 S3 3.058508 1_555
