# generated using pymatgen
data_Sr2Ca6Mn8O23
_symmetry_space_group_name_H-M   'P 1'
_cell_length_a   7.79350000
_cell_length_b   7.57337400
_cell_length_c   7.64116500
_cell_angle_alpha   90.00000000
_cell_angle_beta   90.00000000
_cell_angle_gamma   90.00000000
_symmetry_Int_Tables_number   1
_chemical_formula_structural   Sr2Ca6Mn8O23
_chemical_formula_sum   'Sr2 Ca6 Mn8 O23'
_cell_volume   451.00517156
_cell_formula_units_Z   1
loop_
 _symmetry_equiv_pos_site_id
 _symmetry_equiv_pos_as_xyz
  1  'x, y, z'
loop_
 _atom_site_type_symbol
 _atom_site_label
 _atom_site_symmetry_multiplicity
 _atom_site_fract_x
 _atom_site_fract_y
 _atom_site_fract_z
 _atom_site_occupancy
  Sr  Sr0  1  0.25904800  0.25828000  0.25000000  1
  Sr  Sr1  1  0.74095200  0.25828000  0.25000000  1
  Ca  Ca0  1  0.25424200  0.26308900  0.75000000  1
  Ca  Ca1  1  0.25560100  0.74973200  0.25000000  1
  Ca  Ca2  1  0.25656000  0.73456600  0.75000000  1
  Ca  Ca3  1  0.74575800  0.26308900  0.75000000  1
  Ca  Ca4  1  0.74439900  0.74973200  0.25000000  1
  Ca  Ca5  1  0.74344000  0.73456600  0.75000000  1
  Mn  Mn0  1  0.00000000  0.99300900  0.98390100  1
  Mn  Mn1  1  0.00000000  0.99300900  0.51609900  1
  Mn  Mn2  1  0.00000000  0.50368000  0.00036100  1
  Mn  Mn3  1  0.00000000  0.50368000  0.49963900  1
  Mn  Mn4  1  0.50000000  0.00024500  0.99993400  1
  Mn  Mn5  1  0.50000000  0.00024500  0.50006600  1
  Mn  Mn6  1  0.50000000  0.50521700  0.99808200  1
  Mn  Mn7  1  0.50000000  0.50521700  0.50191800  1
  O  O0  1  0.00000000  0.92404500  0.75000000  1
  O  O1  1  0.00000000  0.44714900  0.25000000  1
  O  O2  1  0.00000000  0.55757600  0.75000000  1
  O  O3  1  0.50000000  0.94745100  0.25000000  1
  O  O4  1  0.50000000  0.05678800  0.75000000  1
  O  O5  1  0.50000000  0.54969900  0.25000000  1
  O  O6  1  0.50000000  0.45530200  0.75000000  1
  O  O7  1  0.24407500  0.99877900  0.02250100  1
  O  O8  1  0.24407500  0.99877900  0.47749900  1
  O  O9  1  0.25008200  0.50833800  0.99189200  1
  O  O10  1  0.25008200  0.50833800  0.50810800  1
  O  O11  1  0.75592500  0.99877900  0.02250100  1
  O  O12  1  0.75592500  0.99877900  0.47749900  1
  O  O13  1  0.74991800  0.50833800  0.99189200  1
  O  O14  1  0.74991800  0.50833800  0.50810800  1
  O  O15  1  0.00000000  0.24737000  0.94917200  1
  O  O16  1  0.00000000  0.24737000  0.55082800  1
  O  O17  1  0.00000000  0.75381000  0.06708100  1
  O  O18  1  0.00000000  0.75381000  0.43291900  1
  O  O19  1  0.50000000  0.25340200  0.03827200  1
  O  O20  1  0.50000000  0.25340200  0.46172800  1
  O  O21  1  0.50000000  0.75436100  0.94281600  1
  O  O22  1  0.50000000  0.75436100  0.55718400  1
loop_
_geom_bond_atom_site_label_1
_geom_bond_atom_site_label_2
_geom_bond_distance
_geom_bond_site_symmetry_2
Ca0 O6 2.405722 1_555
Ca0 O4 2.471742 1_555
Ca0 O15 2.501291 1_555
Ca0 O16 2.501291 1_555
Ca0 O10 2.620533 1_555
Ca0 O9 2.620533 1_555
Ca0 O7 2.889432 1_546
Ca0 O8 2.889432 1_545
Ca0 O19 2.919906 1_556
Ca0 O20 2.919906 1_555
Ca0 O2 2.983311 1_555
Ca1 O3 2.422845 1_555
Ca1 O17 2.433666 1_555
Ca1 O18 2.433666 1_555
Ca1 O5 2.433715 1_555
Ca1 O8 2.566598 1_555
Ca1 O7 2.566598 1_555
Ca1 O10 2.689572 1_555
Ca1 O9 2.689572 1_554
Ca2 O22 2.406815 1_555
Ca2 O21 2.406815 1_555
Ca2 O2 2.407219 1_555
Ca2 O0 2.461141 1_555
Ca2 O9 2.520779 1_555
Ca2 O10 2.520779 1_555
Ca2 O7 2.889475 1_556
Ca2 O8 2.889475 1_555
Ca3 O6 2.405722 1_555
Ca3 O4 2.471742 1_555
Ca3 O15 2.501291 1_655
Ca3 O16 2.501291 1_655
Ca3 O14 2.620533 1_555
Ca3 O13 2.620533 1_555
Ca3 O11 2.889432 1_546
Ca3 O12 2.889432 1_545
Ca3 O19 2.919906 1_556
Ca3 O20 2.919906 1_555
Ca3 O2 2.983311 1_655
Ca4 O3 2.422845 1_555
Ca4 O18 2.433666 1_655
Ca4 O17 2.433666 1_655
Ca4 O5 2.433715 1_555
Ca4 O12 2.566598 1_555
Ca4 O11 2.566598 1_555
Ca4 O14 2.689572 1_555
Ca4 O13 2.689572 1_554
Ca5 O21 2.406815 1_555
Ca5 O22 2.406815 1_555
Ca5 O2 2.407219 1_655
Ca5 O0 2.461141 1_655
Ca5 O14 2.520779 1_555
Ca5 O13 2.520779 1_555
Ca5 O11 2.889475 1_556
Ca5 O12 2.889475 1_555
Mn0 O0 1.862027 1_555
Mn0 O17 1.919809 1_556
Mn0 O7 1.925426 1_556
Mn0 O11 1.925426 1_456
Mn0 O15 1.944563 1_565
Mn1 O0 1.862027 1_555
Mn1 O18 1.919809 1_555
Mn1 O8 1.925426 1_555
Mn1 O12 1.925426 1_455
Mn1 O16 1.944563 1_565
Mn2 O9 1.950407 1_554
Mn2 O13 1.950407 1_454
Mn2 O1 1.954988 1_555
Mn2 O2 1.956110 1_554
Mn2 O17 1.961732 1_555
Mn2 O15 1.980148 1_554
Mn3 O10 1.950407 1_555
Mn3 O14 1.950407 1_455
Mn3 O1 1.954988 1_555
Mn3 O2 1.956110 1_555
Mn3 O18 1.961732 1_555
Mn3 O16 1.980148 1_555
Mn4 O21 1.912634 1_545
Mn4 O19 1.939504 1_556
Mn4 O3 1.952179 1_546
Mn4 O4 1.957207 1_555
Mn4 O11 2.002022 1_546
Mn4 O7 2.002022 1_546
Mn5 O22 1.912634 1_545
Mn5 O20 1.939504 1_555
Mn5 O3 1.952179 1_545
Mn5 O4 1.957207 1_555
Mn5 O12 2.002022 1_545
Mn5 O8 2.002022 1_545
Mn6 O19 1.931657 1_556
Mn6 O6 1.932961 1_555
Mn6 O21 1.933540 1_555
Mn6 O13 1.948454 1_555
Mn6 O9 1.948454 1_555
Mn6 O5 1.954203 1_556
Mn7 O20 1.931657 1_555
Mn7 O6 1.932961 1_555
Mn7 O22 1.933540 1_555
Mn7 O14 1.948454 1_555
Mn7 O10 1.948454 1_555
Mn7 O5 1.954203 1_555
O1 Sr0 2.474246 1_555
O1 Sr1 2.474246 1_455
O3 Sr1 3.011277 1_565
O3 Sr0 3.011277 1_565
O5 Sr1 2.897812 1_555
O5 Sr0 2.897812 1_555
O7 Sr0 2.626385 1_565
O8 Sr0 2.626385 1_565
O9 Sr0 2.735151 1_556
O10 Sr0 2.735151 1_555
O11 Sr1 2.626385 1_565
O12 Sr1 2.626385 1_565
O13 Sr1 2.735151 1_556
O14 Sr1 2.735151 1_555
O15 Sr0 3.060500 1_556
O15 Sr1 3.060500 1_456
O16 Sr0 3.060500 1_555
O16 Sr1 3.060500 1_455
O19 Sr1 2.478942 1_555
O19 Sr0 2.478942 1_555
O20 Sr1 2.478942 1_555
O20 Sr0 2.478942 1_555
