# generated using pymatgen
data_Al2Mo3
_symmetry_space_group_name_H-M   'P 1'
_cell_length_a   8.99801100
_cell_length_b   7.62817500
_cell_length_c   9.80408772
_cell_angle_alpha   72.06102422
_cell_angle_beta   90.00000000
_cell_angle_gamma   90.00000000
_symmetry_Int_Tables_number   1
_chemical_formula_structural   Al2Mo3
_chemical_formula_sum   'Al16 Mo24'
_cell_volume   640.22216026
_cell_formula_units_Z   8
loop_
 _symmetry_equiv_pos_site_id
 _symmetry_equiv_pos_as_xyz
  1  'x, y, z'
loop_
 _atom_site_type_symbol
 _atom_site_label
 _atom_site_symmetry_multiplicity
 _atom_site_fract_x
 _atom_site_fract_y
 _atom_site_fract_z
 _atom_site_occupancy
  Al  Al0  1  0.46401000  0.58156000  0.32344900  1
  Al  Al1  1  0.96401000  0.91844000  0.67655100  1
  Al  Al2  1  0.53599000  0.41844000  0.67655100  1
  Al  Al3  1  0.03599000  0.08156000  0.32344900  1
  Al  Al4  1  0.87882000  0.96838200  0.92922500  1
  Al  Al5  1  0.37882000  0.53161800  0.07077500  1
  Al  Al6  1  0.12118000  0.03161800  0.07077500  1
  Al  Al7  1  0.62118000  0.46838200  0.92922500  1
  Al  Al8  1  0.90159900  0.43419300  0.24865300  1
  Al  Al9  1  0.40159900  0.06580700  0.75134700  1
  Al  Al10  1  0.09840100  0.56580700  0.75134700  1
  Al  Al11  1  0.59840100  0.93419300  0.24865300  1
  Al  Al12  1  0.48995300  0.20129400  0.47633900  1
  Al  Al13  1  0.98995300  0.29870600  0.52366100  1
  Al  Al14  1  0.51004700  0.79870600  0.52366100  1
  Al  Al15  1  0.01004700  0.70129400  0.47633900  1
  Mo  Mo0  1  0.76453500  0.01798600  0.44792600  1
  Mo  Mo1  1  0.26453500  0.48201400  0.55207400  1
  Mo  Mo2  1  0.23546500  0.98201400  0.55207400  1
  Mo  Mo3  1  0.73546500  0.51798600  0.44792600  1
  Mo  Mo4  1  0.66547700  0.68791100  0.10722500  1
  Mo  Mo5  1  0.16547700  0.81208900  0.89277500  1
  Mo  Mo6  1  0.33452300  0.31208900  0.89277500  1
  Mo  Mo7  1  0.83452300  0.18791100  0.10722500  1
  Mo  Mo8  1  0.61852200  0.31482900  0.21982600  1
  Mo  Mo9  1  0.11852200  0.18517100  0.78017400  1
  Mo  Mo10  1  0.38147800  0.68517100  0.78017400  1
  Mo  Mo11  1  0.88147800  0.81482900  0.21982600  1
  Mo  Mo12  1  0.22507100  0.34512400  0.34089800  1
  Mo  Mo13  1  0.72507100  0.15487600  0.65910200  1
  Mo  Mo14  1  0.77492900  0.65487600  0.65910200  1
  Mo  Mo15  1  0.27492900  0.84512400  0.34089800  1
  Mo  Mo16  1  0.13813900  0.66222900  0.18895400  1
  Mo  Mo17  1  0.63813900  0.83777100  0.81104600  1
  Mo  Mo18  1  0.86186100  0.33777100  0.81104600  1
  Mo  Mo19  1  0.36186100  0.16222900  0.18895400  1
  Mo  Mo20  1  0.10550100  0.38577400  0.05416100  1
  Mo  Mo21  1  0.60550100  0.11422600  0.94583900  1
  Mo  Mo22  1  0.89449900  0.61422600  0.94583900  1
  Mo  Mo23  1  0.39449900  0.88577400  0.05416100  1
loop_
_geom_bond_atom_site_label_1
_geom_bond_atom_site_label_2
_geom_bond_distance
_geom_bond_site_symmetry_2
Al0 Mo15 2.679160 1_555
Al0 Mo3 2.706662 1_555
Al0 Mo4 2.716411 1_555
Al0 Al5 2.729612 1_555
Al0 Mo12 2.777496 1_555
Al0 Mo1 2.788165 1_555
Al0 Al11 2.832089 1_555
Al0 Al12 2.834990 1_555
Al0 Mo8 2.894524 1_555
Al0 Al14 2.961620 1_555
Al0 Mo23 2.995422 1_555
Al0 Mo16 3.196135 1_555
Al1 Mo14 2.679160 1_555
Al1 Mo2 2.706662 1_655
Al1 Mo5 2.716411 1_655
Al1 Al4 2.729612 1_555
Al1 Mo13 2.777496 1_565
Al1 Mo0 2.788165 1_565
Al1 Al10 2.832089 1_655
Al1 Al13 2.834990 1_565
Al1 Mo9 2.894524 1_665
Al1 Al15 2.961620 1_655
Al1 Mo22 2.995422 1_555
Al1 Mo17 3.196135 1_555
Al2 Mo13 2.679160 1_555
Al2 Mo1 2.706662 1_555
Al2 Mo6 2.716411 1_555
Al2 Al7 2.729612 1_555
Al2 Mo14 2.777496 1_555
Al2 Mo3 2.788165 1_555
Al2 Al9 2.832089 1_555
Al2 Mo10 2.894524 1_555
Al2 Mo21 2.995422 1_555
Al2 Mo18 3.196135 1_555
Al3 Mo12 2.679160 1_555
Al3 Mo0 2.706662 1_455
Al3 Mo7 2.716411 1_455
Al3 Al6 2.729612 1_555
Al3 Mo15 2.777496 1_545
Al3 Mo2 2.788165 1_545
Al3 Al8 2.832089 1_455
Al3 Mo11 2.894524 1_445
Al3 Mo20 2.995422 1_555
Al3 Mo19 3.196135 1_555
Al4 Mo22 2.659664 1_555
Al4 Mo18 2.700814 1_565
Al4 Al6 2.706781 1_666
Al4 Mo21 2.724731 1_565
Al4 Mo11 2.726551 1_556
Al4 Mo17 2.781411 1_555
Al4 Mo7 2.794435 1_566
Al4 Mo9 2.834343 1_665
Al4 Mo5 2.909395 1_655
Al4 Mo13 2.937761 1_565
Al4 Mo4 3.001331 1_556
Al5 Mo23 2.659664 1_555
Al5 Mo19 2.700814 1_555
Al5 Al7 2.706781 1_554
Al5 Mo20 2.724731 1_555
Al5 Mo10 2.726551 1_554
Al5 Mo16 2.781411 1_555
Al5 Mo6 2.794435 1_554
Al5 Mo8 2.834343 1_555
Al5 Mo4 2.909395 1_555
Al5 Mo12 2.937761 1_555
Al5 Mo5 3.001331 1_554
Al6 Mo20 2.659664 1_555
Al6 Mo16 2.700814 1_545
Al6 Mo23 2.724731 1_545
Al6 Mo9 2.726551 1_554
Al6 Mo19 2.781411 1_555
Al6 Mo5 2.794435 1_544
Al6 Mo11 2.834343 1_445
Al6 Mo7 2.909395 1_455
Al6 Mo15 2.937761 1_545
Al6 Mo6 3.001331 1_554
Al7 Mo21 2.659664 1_555
Al7 Mo17 2.700814 1_555
Al7 Mo22 2.724731 1_555
Al7 Mo8 2.726551 1_556
Al7 Mo18 2.781411 1_555
Al7 Mo4 2.794435 1_556
Al7 Mo10 2.834343 1_555
Al7 Mo6 2.909395 1_555
Al7 Mo14 2.937761 1_555
Al7 Mo7 3.001331 1_556
Al8 Mo3 2.688749 1_555
Al8 Mo16 2.696534 1_655
Al8 Mo7 2.724144 1_555
Al8 Mo8 2.748696 1_555
Al8 Mo20 2.751796 1_655
Al8 Mo11 2.835102 1_555
Al8 Mo22 2.862239 1_554
Al8 Mo4 2.920499 1_555
Al8 Mo12 3.061476 1_655
Al8 Mo0 3.405433 1_555
Al9 Mo2 2.688749 1_545
Al9 Mo17 2.696534 1_545
Al9 Mo6 2.724144 1_555
Al9 Mo9 2.748696 1_555
Al9 Mo21 2.751796 1_555
Al9 Mo10 2.835102 1_545
Al9 Mo23 2.862239 1_546
Al9 Mo5 2.920499 1_545
Al9 Mo13 3.061476 1_555
Al9 Mo1 3.405433 1_555
Al10 Mo1 2.688749 1_555
Al10 Al15 2.693169 1_555
Al10 Mo18 2.696534 1_455
Al10 Mo5 2.724144 1_555
Al10 Mo10 2.748696 1_555
Al10 Mo22 2.751796 1_455
Al10 Mo9 2.835102 1_555
Al10 Mo20 2.862239 1_556
Al10 Mo6 2.920499 1_555
Al10 Mo14 3.061476 1_455
Al10 Mo2 3.405433 1_555
Al11 Mo0 2.688749 1_565
Al11 Al14 2.693169 1_555
Al11 Mo19 2.696534 1_565
Al11 Mo4 2.724144 1_555
Al11 Mo11 2.748696 1_555
Al11 Mo23 2.751796 1_555
Al11 Mo8 2.835102 1_565
Al11 Mo21 2.862239 1_564
Al11 Mo7 2.920499 1_565
Al11 Mo15 3.061476 1_555
Al11 Mo3 3.405433 1_555
Al12 Mo8 2.659194 1_555
Al12 Al9 2.693169 1_555
Al12 Mo13 2.724136 1_555
Al12 Mo12 2.783919 1_555
Al12 Mo2 2.797814 1_545
Al12 Mo0 2.894325 1_555
Al12 Al2 2.961620 1_555
Al12 Al14 2.966710 1_545
Al12 Mo19 3.142135 1_555
Al12 Mo1 3.198492 1_555
Al12 Mo3 3.221687 1_555
Al13 Mo9 2.659194 1_655
Al13 Al8 2.693169 1_555
Al13 Mo12 2.724136 1_655
Al13 Mo13 2.783919 1_555
Al13 Mo3 2.797814 1_555
Al13 Mo1 2.894325 1_655
Al13 Al3 2.961620 1_655
Al13 Al15 2.966710 1_655
Al13 Mo18 3.142135 1_555
Al13 Mo0 3.198492 1_555
Al13 Mo2 3.221687 1_645
Al14 Mo10 2.659194 1_555
Al14 Mo15 2.724136 1_555
Al14 Mo14 2.783919 1_555
Al14 Mo0 2.797814 1_565
Al14 Al2 2.834990 1_555
Al14 Mo2 2.894325 1_555
Al14 Mo17 3.142135 1_555
Al14 Mo3 3.198492 1_555
Al14 Mo1 3.221687 1_555
Al15 Mo11 2.659194 1_455
Al15 Mo14 2.724136 1_455
Al15 Mo15 2.783919 1_555
Al15 Mo1 2.797814 1_555
Al15 Al3 2.834990 1_565
Al15 Mo3 2.894325 1_455
Al15 Mo16 3.142135 1_555
Al15 Mo2 3.198492 1_555
Al15 Mo0 3.221687 1_465
Mo0 Mo13 2.614340 1_555
Mo0 Mo14 2.904272 1_545
Mo0 Mo8 2.955544 1_555
Mo1 Mo12 2.614340 1_555
Mo1 Mo15 2.904272 1_555
Mo1 Mo9 2.955544 1_555
Mo4 Mo8 2.749764 1_555
Mo5 Mo9 2.749764 1_565
Mo6 Mo9 2.567472 1_555
Mo7 Mo8 2.567472 1_555
Mo10 Mo5 2.567472 1_555
Mo10 Mo17 2.645220 1_555
Mo10 Mo6 2.749764 1_555
Mo10 Mo2 2.955544 1_555
Mo11 Mo4 2.567472 1_555
Mo11 Mo16 2.645220 1_655
Mo11 Mo7 2.749764 1_565
Mo11 Mo3 2.955544 1_555
Mo12 Mo16 2.542142 1_555
Mo12 Mo19 2.638334 1_555
Mo12 Mo2 2.904272 1_545
Mo12 Mo20 2.935904 1_555
Mo13 Mo17 2.542142 1_545
Mo13 Mo18 2.638334 1_555
Mo13 Mo3 2.904272 1_555
Mo13 Mo21 2.935904 1_555
Mo14 Mo18 2.542142 1_555
Mo14 Mo3 2.614340 1_555
Mo14 Mo17 2.638334 1_555
Mo14 Mo22 2.935904 1_555
Mo15 Mo19 2.542142 1_565
Mo15 Mo2 2.614340 1_555
Mo15 Mo16 2.638334 1_555
Mo15 Mo23 2.935904 1_555
Mo16 Mo5 2.784665 1_554
Mo17 Mo4 2.784665 1_556
Mo18 Mo9 2.645220 1_655
Mo18 Mo7 2.784665 1_556
Mo19 Mo8 2.645220 1_555
Mo19 Mo6 2.784665 1_554
Mo20 Mo6 2.759336 1_554
Mo20 Mo7 2.830224 1_455
Mo21 Mo7 2.759336 1_556
Mo21 Mo6 2.830224 1_555
Mo22 Mo4 2.759336 1_556
Mo22 Mo5 2.830224 1_655
Mo23 Mo5 2.759336 1_554
Mo23 Mo4 2.830224 1_555
