# generated using pymatgen
data_La7SmCrFe7O20
_symmetry_space_group_name_H-M   'P 1'
_cell_length_a   11.04541261
_cell_length_b   11.74924441
_cell_length_c   17.85238612
_cell_angle_alpha   109.27226438
_cell_angle_beta   108.06059684
_cell_angle_gamma   89.88921015
_symmetry_Int_Tables_number   1
_chemical_formula_structural   La7SmCrFe7O20
_chemical_formula_sum   'La28 Sm4 Cr4 Fe28 O80'
_cell_volume   2066.16291361
_cell_formula_units_Z   4
loop_
 _symmetry_equiv_pos_site_id
 _symmetry_equiv_pos_as_xyz
  1  'x, y, z'
loop_
 _atom_site_type_symbol
 _atom_site_label
 _atom_site_symmetry_multiplicity
 _atom_site_fract_x
 _atom_site_fract_y
 _atom_site_fract_z
 _atom_site_occupancy
  La  La0  1  0.30065209  0.06532757  0.11418417  1
  La  La1  1  0.30500846  0.06357534  0.61067875  1
  La  La2  1  0.30490503  0.56326282  0.61082133  1
  La  La3  1  0.80503075  0.06419893  0.61109357  1
  La  La4  1  0.80297980  0.56697138  0.11313261  1
  La  La5  1  0.80499887  0.56345684  0.61098833  1
  La  La6  1  0.19369271  0.43500972  0.38824170  1
  La  La7  1  0.19177075  0.43473288  0.88929156  1
  La  La8  1  0.19299123  0.93608479  0.38726311  1
  La  La9  1  0.18930967  0.93566964  0.88717291  1
  La  La10  1  0.69357903  0.43663923  0.38829891  1
  La  La11  1  0.69410432  0.93570002  0.38908993  1
  La  La12  1  0.68929718  0.93360242  0.88522014  1
  La  La13  1  0.05512189  0.29855848  0.11226015  1
  La  La14  1  0.05527830  0.29779121  0.61167068  1
  La  La15  1  0.05450961  0.79721905  0.61071677  1
  La  La16  1  0.55626403  0.29611391  0.11202811  1
  La  La17  1  0.55482987  0.29868965  0.61245302  1
  La  La18  1  0.54832553  0.79919401  0.11256536  1
  La  La19  1  0.55470166  0.79725943  0.61019727  1
  La  La20  1  0.44434567  0.20271950  0.38875768  1
  La  La21  1  0.44491688  0.20368475  0.88999616  1
  La  La22  1  0.44232563  0.70130785  0.38644542  1
  La  La23  1  0.43926759  0.70038354  0.88692312  1
  La  La24  1  0.94341225  0.20139099  0.38769838  1
  La  La25  1  0.94096050  0.20459920  0.88816409  1
  La  La26  1  0.94342775  0.70166110  0.38797218  1
  La  La27  1  0.94416092  0.70148506  0.88741800  1
  Sm  Sm0  1  0.29969156  0.56594958  0.10974542  1
  Sm  Sm1  1  0.80009110  0.06603320  0.11065986  1
  Sm  Sm2  1  0.68891712  0.43595485  0.89146075  1
  Sm  Sm3  1  0.05612457  0.79477566  0.11258451  1
  Cr  Cr0  1  0.00096150  0.99874882  0.00194114  1
  Cr  Cr1  1  -0.00004285  0.50211753  0.00063489  1
  Cr  Cr2  1  0.50192895  0.99923584  0.00034118  1
  Cr  Cr3  1  0.75316719  0.75212627  0.00114460  1
  Fe  Fe0  1  0.00535438  0.99946209  0.49975063  1
  Fe  Fe1  1  0.00526816  0.49948085  0.49992847  1
  Fe  Fe2  1  0.50489553  0.00023444  0.49963333  1
  Fe  Fe3  1  0.50440121  0.50057884  0.00065903  1
  Fe  Fe4  1  0.50486766  0.50020858  0.49947274  1
  Fe  Fe5  1  0.25468690  0.25093395  0.00164127  1
  Fe  Fe6  1  0.25496090  0.24961519  0.49984763  1
  Fe  Fe7  1  0.25348837  0.75049555  0.00072905  1
  Fe  Fe8  1  0.25526024  0.74983475  0.49958532  1
  Fe  Fe9  1  0.75490727  0.24907161  0.00025999  1
  Fe  Fe10  1  0.75502516  0.25006513  0.49993769  1
  Fe  Fe11  1  0.75461485  0.74968685  0.49936382  1
  Fe  Fe12  1  0.10902869  0.10150172  0.24996847  1
  Fe  Fe13  1  0.11250761  0.10397802  0.75062252  1
  Fe  Fe14  1  0.11415928  0.60484259  0.25066642  1
  Fe  Fe15  1  0.11222856  0.60137399  0.74982941  1
  Fe  Fe16  1  0.61573858  0.10278523  0.25165679  1
  Fe  Fe17  1  0.61184406  0.10613098  0.75030048  1
  Fe  Fe18  1  0.60856578  0.60253891  0.24834664  1
  Fe  Fe19  1  0.61237904  0.60086606  0.74972543  1
  Fe  Fe20  1  0.36121723  0.39878329  0.24871170  1
  Fe  Fe21  1  0.36472410  0.39625375  0.75064478  1
  Fe  Fe22  1  0.35952392  0.89487577  0.24901648  1
  Fe  Fe23  1  0.36164596  0.89671250  0.74790194  1
  Fe  Fe24  1  0.86211317  0.39475205  0.24924135  1
  Fe  Fe25  1  0.85848189  0.39639775  0.74932037  1
  Fe  Fe26  1  0.86378162  0.89894467  0.24938288  1
  Fe  Fe27  1  0.86141038  0.89671125  0.74812401  1
  O  O0  1  0.11518537  0.11561178  0.47714551  1
  O  O1  1  0.11331796  0.11699816  0.97910865  1
  O  O2  1  0.11502094  0.61580928  0.47738805  1
  O  O3  1  0.11619412  0.61774742  0.98291110  1
  O  O4  1  0.61510405  0.11656407  0.47700541  1
  O  O5  1  0.61510323  0.11507681  0.97997360  1
  O  O6  1  0.61455904  0.61725042  0.47668783  1
  O  O7  1  0.61505995  0.61908820  0.97590332  1
  O  O8  1  0.13712457  0.38890433  0.02366782  1
  O  O9  1  0.13811158  0.38218102  0.52271902  1
  O  O10  1  0.13514657  0.88339106  0.02456953  1
  O  O11  1  0.13814930  0.88286093  0.52245112  1
  O  O12  1  0.63432950  0.38115421  0.01857372  1
  O  O13  1  0.63707184  0.38343797  0.52207427  1
  O  O14  1  0.64015470  0.88666900  0.02629167  1
  O  O15  1  0.63802695  0.88397165  0.52183119  1
  O  O16  1  0.36553911  0.11158996  0.47771399  1
  O  O17  1  0.36518092  0.10876983  0.97852436  1
  O  O18  1  0.36516230  0.61076147  0.47637649  1
  O  O19  1  0.36537827  0.61080481  0.98053727  1
  O  O20  1  0.86583883  0.11058176  0.47783772  1
  O  O21  1  0.86380386  0.10793125  0.98070415  1
  O  O22  1  0.86518600  0.61033985  0.47711053  1
  O  O23  1  0.85982432  0.60840565  0.97470466  1
  O  O24  1  0.38578808  0.39111231  0.02519250  1
  O  O25  1  0.38760090  0.38947636  0.52201378  1
  O  O26  1  0.38575425  0.88992839  0.02108458  1
  O  O27  1  0.38845161  0.88961151  0.52231430  1
  O  O28  1  0.88200732  0.39130902  0.01836047  1
  O  O29  1  0.88839086  0.38911745  0.52250669  1
  O  O30  1  0.89029642  0.89205324  0.03003307  1
  O  O31  1  0.88745645  0.88813232  0.52134423  1
  O  O32  1  0.10496973  0.12546598  0.14659845  1
  O  O33  1  0.09056934  0.11431039  0.63975197  1
  O  O34  1  0.11185431  0.62332617  0.14612454  1
  O  O35  1  0.09091902  0.61425775  0.63993256  1
  O  O36  1  0.61200003  0.12109113  0.14672083  1
  O  O37  1  0.59069049  0.11528987  0.63926502  1
  O  O38  1  0.59514139  0.61573463  0.13914747  1
  O  O39  1  0.59026236  0.61279920  0.63925986  1
  O  O40  1  0.45020311  0.38593510  0.35890835  1
  O  O41  1  0.46046806  0.38758761  0.86118504  1
  O  O42  1  0.44858834  0.88543293  0.35997817  1
  O  O43  1  0.45743474  0.87644678  0.85380188  1
  O  O44  1  0.95157188  0.38468184  0.36015995  1
  O  O45  1  0.95939353  0.37917670  0.85485203  1
  O  O46  1  0.95018664  0.88574902  0.36015665  1
  O  O47  1  0.95935835  0.87899844  0.85435926  1
  O  O48  1  0.34323480  0.27404088  0.13953678  1
  O  O49  1  0.34141812  0.27526436  0.63965074  1
  O  O50  1  0.34254140  0.77441940  0.13859463  1
  O  O51  1  0.34062036  0.77472002  0.63788776  1
  O  O52  1  0.84107029  0.27440112  0.13799438  1
  O  O53  1  0.83714451  0.27568483  0.63838621  1
  O  O54  1  0.86655637  0.77168702  0.14633634  1
  O  O55  1  0.83935545  0.77461279  0.63793807  1
  O  O56  1  0.20016400  0.22237532  0.36084104  1
  O  O57  1  0.20463560  0.22366618  0.86187675  1
  O  O58  1  0.20083657  0.72646531  0.36167814  1
  O  O59  1  0.20182526  0.72221058  0.86157752  1
  O  O60  1  0.70211909  0.22562450  0.36185803  1
  O  O61  1  0.70168386  0.22686578  0.86163839  1
  O  O62  1  0.69854575  0.72314499  0.35928981  1
  O  O63  1  0.71066148  0.72740868  0.85497738  1
  O  O64  1  0.42228080  0.06734230  0.25073577  1
  O  O65  1  0.41917437  0.07183528  0.75093843  1
  O  O66  1  0.41398359  0.57038057  0.24456767  1
  O  O67  1  0.41848775  0.56855672  0.74949441  1
  O  O68  1  0.91320209  0.07076843  0.24497878  1
  O  O69  1  0.91893066  0.07111533  0.75054098  1
  O  O70  1  0.92069968  0.56739246  0.24974079  1
  O  O71  1  0.91917918  0.56765460  0.74890940  1
  O  O72  1  0.16891659  0.43121234  0.25050350  1
  O  O73  1  0.17197429  0.42984255  0.75096762  1
  O  O74  1  0.16537007  0.92718887  0.24606375  1
  O  O75  1  0.16995447  0.93089890  0.74944895  1
  O  O76  1  0.66928662  0.43139186  0.24967018  1
  O  O77  1  0.66718669  0.42891957  0.75613738  1
  O  O78  1  0.67022853  0.92853755  0.25036127  1
  O  O79  1  0.66971356  0.93309843  0.74849218  1
loop_
_geom_bond_atom_site_label_1
_geom_bond_atom_site_label_2
_geom_bond_distance
_geom_bond_site_symmetry_2
La0 O48 2.362051 1_555
La0 O64 2.383171 1_555
La0 O32 2.450599 1_555
La0 O10 2.532780 1_545
La0 O26 2.567708 1_545
La0 O1 2.886645 1_554
La0 O17 2.919179 1_554
La1 O49 2.375090 1_555
La1 O65 2.398266 1_555
La1 O27 2.506293 1_545
La1 O11 2.528521 1_545
La1 O33 2.605263 1_555
La1 O16 2.875649 1_555
La1 O0 2.882841 1_555
La1 O37 3.064456 1_555
La2 O51 2.377981 1_555
La2 O67 2.383172 1_555
La2 O25 2.504167 1_555
La2 O9 2.530612 1_555
La2 O35 2.601177 1_555
La2 O2 2.884863 1_555
La2 O18 2.896781 1_555
La2 O39 3.057899 1_555
La3 O53 2.373710 1_555
La3 O69 2.389920 1_555
La3 O31 2.526780 1_545
La3 O15 2.528040 1_545
La3 O37 2.598404 1_555
La3 O20 2.873214 1_555
La3 O4 2.891908 1_555
La3 O33 3.059947 1_655
La4 O54 2.331741 1_555
La4 O70 2.379964 1_555
La4 O38 2.508853 1_555
La4 O28 2.547126 1_555
La4 O12 2.592151 1_555
La4 O23 2.914759 1_554
La4 O7 2.918479 1_554
La5 O55 2.373388 1_555
La5 O71 2.377009 1_555
La5 O29 2.509648 1_555
La5 O13 2.531199 1_555
La5 O39 2.600060 1_555
La5 O22 2.883281 1_555
La5 O6 2.905277 1_555
La5 O35 3.064108 1_655
La6 O72 2.373547 1_555
La6 O56 2.387496 1_555
La6 O18 2.519799 1_555
La6 O2 2.533584 1_555
La6 O44 2.594633 1_455
La6 O25 2.871274 1_555
La6 O9 2.902534 1_555
La6 O40 3.057514 1_555
La7 O57 2.376989 1_555
La7 O73 2.391798 1_555
La7 O45 2.480952 1_455
La7 O19 2.542478 1_555
La7 O3 2.568990 1_555
La7 O8 2.856727 1_556
La7 O24 2.886890 1_556
La7 O41 3.178113 1_555
La8 O58 2.358601 1_555
La8 O74 2.409880 1_555
La8 O0 2.525138 1_565
La8 O16 2.529986 1_565
La8 O46 2.605556 1_455
La8 O27 2.899833 1_555
La8 O11 2.913213 1_555
La8 O42 3.035881 1_555
La9 O75 2.382690 1_555
La9 O59 2.408157 1_555
La9 O47 2.462549 1_455
La9 O17 2.535950 1_565
La9 O1 2.544852 1_565
La9 O26 2.887794 1_556
La9 O10 2.942370 1_556
La9 O43 3.228351 1_555
La10 O60 2.373318 1_555
La10 O76 2.385015 1_555
La10 O22 2.507442 1_555
La10 O6 2.528085 1_555
La10 O40 2.604199 1_555
La10 O29 2.892084 1_555
La10 O13 2.897410 1_555
La10 O44 3.069835 1_555
La11 O62 2.379269 1_555
La11 O78 2.380734 1_555
La11 O20 2.516530 1_565
La11 O4 2.526028 1_565
La11 O42 2.627281 1_555
La11 O31 2.861447 1_555
La11 O15 2.868981 1_555
La11 O46 3.051428 1_555
La12 O63 2.330159 1_555
La12 O79 2.380756 1_555
La12 O43 2.488315 1_555
La12 O21 2.547446 1_565
La12 O5 2.559520 1_565
La12 O14 2.950742 1_556
La13 O32 2.329004 1_555
La13 O72 2.375904 1_555
La13 O8 2.539439 1_555
La13 O52 2.577527 1_455
La13 O28 2.619965 1_455
La13 O1 2.865139 1_554
La13 O21 2.909722 1_454
La13 O48 3.094431 1_555
La14 O33 2.374775 1_555
La14 O73 2.392914 1_555
La14 O9 2.507127 1_555
La14 O29 2.526569 1_455
La14 O53 2.626162 1_455
La14 O0 2.893722 1_555
La14 O20 2.893742 1_455
La14 O49 3.068173 1_555
La15 O35 2.379393 1_555
La15 O75 2.389275 1_555
La15 O11 2.510345 1_555
La15 O31 2.526513 1_455
La15 O55 2.599620 1_455
La15 O2 2.878746 1_555
La15 O22 2.889827 1_455
La15 O51 3.069697 1_555
La16 O36 2.364473 1_555
La16 O76 2.377022 1_555
La16 O24 2.553182 1_555
La16 O12 2.553634 1_555
La16 O48 2.578361 1_555
La16 O5 2.852888 1_554
La16 O17 2.901029 1_554
La16 O52 3.057255 1_555
La17 O37 2.364149 1_555
La17 O77 2.429770 1_555
La17 O13 2.528395 1_555
La17 O25 2.537027 1_555
La17 O49 2.582321 1_555
La17 O16 2.898061 1_555
La17 O4 2.906237 1_555
La17 O53 3.032372 1_555
La18 O38 2.378568 1_555
La18 O78 2.379143 1_555
La18 O50 2.492750 1_555
La18 O26 2.520243 1_555
La18 O14 2.544578 1_555
La18 O19 2.856283 1_554
La18 O7 2.945268 1_554
La19 O79 2.391344 1_555
La19 O39 2.394398 1_555
La19 O15 2.517637 1_555
La19 O27 2.518053 1_555
La19 O51 2.592208 1_555
La19 O6 2.869700 1_555
La19 O18 2.890105 1_555
La19 O55 3.052839 1_555
La20 O40 2.387711 1_555
La20 O64 2.388043 1_555
La20 O4 2.503386 1_555
La20 O16 2.531651 1_555
La20 O56 2.610769 1_555
La20 O13 2.871343 1_555
La20 O25 2.887964 1_555
La20 O60 3.057078 1_555
La21 O65 2.380951 1_555
La21 O41 2.398460 1_555
La21 O5 2.534117 1_555
La21 O17 2.558781 1_555
La21 O57 2.569078 1_555
La21 O12 2.805975 1_556
La21 O24 2.926531 1_556
La21 O61 3.059114 1_555
La22 O42 2.367202 1_555
La22 O66 2.412042 1_555
La22 O6 2.516469 1_555
La22 O18 2.532824 1_555
La22 O58 2.597991 1_555
La22 O15 2.911116 1_555
La22 O27 2.912008 1_555
La22 O62 3.040672 1_555
La23 O43 2.356191 1_555
La23 O67 2.369545 1_555
La23 O7 2.507552 1_555
La23 O59 2.546956 1_555
La23 O19 2.564561 1_555
La23 O26 2.897785 1_556
La23 O14 2.984172 1_556
La24 O44 2.369518 1_555
La24 O68 2.419093 1_555
La24 O0 2.518301 1_655
La24 O20 2.540449 1_555
La24 O60 2.592009 1_555
La24 O9 2.893209 1_655
La24 O29 2.902384 1_555
La24 O56 3.042533 1_655
La25 O45 2.341851 1_555
La25 O69 2.375385 1_555
La25 O1 2.549248 1_655
La25 O61 2.565298 1_555
La25 O21 2.619337 1_555
La25 O28 2.864588 1_556
La25 O8 2.923352 1_656
La25 O57 3.109964 1_655
La26 O46 2.379678 1_555
La26 O70 2.385184 1_555
La26 O2 2.517418 1_655
La26 O22 2.532556 1_555
La26 O62 2.620285 1_555
La26 O31 2.883641 1_555
La26 O11 2.892087 1_655
La26 O58 3.051233 1_655
La27 O47 2.366798 1_555
La27 O71 2.382208 1_555
La27 O63 2.503435 1_555
La27 O23 2.553602 1_555
La27 O3 2.564430 1_655
La27 O10 2.893686 1_656
La27 O30 3.003408 1_556
La27 O59 3.043480 1_655
Cr0 O21 2.010437 1_464
Cr0 O30 2.029323 1_455
Cr0 O10 2.044343 1_555
Cr0 O1 2.081036 1_564
Cr0 O32 2.415491 1_565
Cr0 O47 2.436623 1_454
Cr1 O28 2.006629 1_455
Cr1 O23 2.024705 1_454
Cr1 O3 2.033855 1_554
Cr1 O8 2.049598 1_555
Cr1 O45 2.420435 1_454
Cr1 O34 2.424145 1_555
Cr2 O17 2.011948 1_564
Cr2 O26 2.011981 1_555
Cr2 O5 2.040193 1_564
Cr2 O14 2.062261 1_555
Cr2 O43 2.425054 1_554
Cr2 O36 2.433907 1_565
Cr3 O7 2.022715 1_554
Cr3 O14 2.032227 1_555
Cr3 O30 2.056351 1_555
Cr3 O23 2.067124 1_554
Cr3 O63 2.419621 1_554
Cr3 O54 2.436180 1_555
Fe0 O0 2.042146 1_565
Fe0 O11 2.045152 1_555
Fe0 O20 2.046420 1_465
Fe0 O31 2.050878 1_455
Fe0 O46 2.287031 1_455
Fe0 O33 2.296413 1_565
Fe1 O2 2.042427 1_555
Fe1 O29 2.045622 1_455
Fe1 O22 2.051376 1_455
Fe1 O9 2.051852 1_555
Fe1 O44 2.293668 1_455
Fe1 O35 2.296618 1_555
Fe2 O15 2.042937 1_545
Fe2 O27 2.045551 1_545
Fe2 O4 2.046683 1_555
Fe2 O16 2.047163 1_555
Fe2 O42 2.289979 1_545
Fe2 O37 2.292403 1_555
Fe3 O19 2.030172 1_554
Fe3 O12 2.033350 1_555
Fe3 O24 2.072825 1_555
Fe3 O7 2.091832 1_554
Fe3 O38 2.282172 1_555
Fe3 O41 2.295426 1_554
Fe4 O13 2.042002 1_555
Fe4 O18 2.046859 1_555
Fe4 O6 2.050783 1_555
Fe4 O25 2.051240 1_555
Fe4 O39 2.287673 1_555
Fe4 O40 2.303032 1_555
Fe5 O24 2.039818 1_555
Fe5 O1 2.068468 1_554
Fe5 O17 2.073444 1_554
Fe5 O8 2.087168 1_555
Fe5 O48 2.271016 1_555
Fe5 O57 2.291649 1_554
Fe6 O16 2.036266 1_555
Fe6 O9 2.039024 1_555
Fe6 O25 2.055213 1_555
Fe6 O0 2.055939 1_555
Fe6 O56 2.274260 1_555
Fe6 O49 2.293180 1_555
Fe7 O3 2.053303 1_554
Fe7 O10 2.055761 1_555
Fe7 O19 2.056427 1_554
Fe7 O26 2.058463 1_555
Fe7 O50 2.268807 1_555
Fe7 O59 2.276853 1_554
Fe8 O18 2.042672 1_555
Fe8 O11 2.044783 1_555
Fe8 O27 2.055558 1_555
Fe8 O2 2.062286 1_555
Fe8 O58 2.266013 1_555
Fe8 O51 2.269727 1_555
Fe9 O21 2.046718 1_554
Fe9 O12 2.053300 1_555
Fe9 O28 2.058991 1_555
Fe9 O5 2.068938 1_554
Fe9 O52 2.259976 1_555
Fe9 O61 2.282599 1_554
Fe10 O20 2.050461 1_555
Fe10 O29 2.051400 1_555
Fe10 O4 2.051733 1_555
Fe10 O13 2.052246 1_555
Fe10 O60 2.267296 1_555
Fe10 O53 2.267640 1_555
Fe11 O6 2.045342 1_555
Fe11 O31 2.045416 1_555
Fe11 O22 2.047842 1_555
Fe11 O15 2.050160 1_555
Fe11 O55 2.273545 1_555
Fe11 O62 2.293424 1_555
Fe12 O32 1.943820 1_555
Fe12 O56 1.965326 1_555
Fe12 O74 2.124699 1_545
Fe12 O68 2.163134 1_455
Fe13 O33 1.962706 1_555
Fe13 O57 1.966336 1_555
Fe13 O75 2.124502 1_545
Fe13 O69 2.172926 1_455
Fe14 O34 1.941400 1_555
Fe14 O58 1.961017 1_555
Fe14 O72 2.126009 1_555
Fe14 O70 2.176445 1_455
Fe15 O35 1.958833 1_555
Fe15 O59 1.971435 1_555
Fe15 O73 2.123952 1_555
Fe15 O71 2.163615 1_455
Fe16 O36 1.943041 1_555
Fe16 O60 1.957280 1_555
Fe16 O78 2.127612 1_545
Fe16 O64 2.171825 1_555
Fe17 O37 1.961891 1_555
Fe17 O61 1.966963 1_555
Fe17 O79 2.123005 1_545
Fe17 O65 2.170887 1_555
Fe18 O62 1.962340 1_555
Fe18 O38 1.966376 1_555
Fe18 O76 2.123726 1_555
Fe18 O66 2.159388 1_555
Fe19 O63 1.953704 1_555
Fe19 O39 1.962673 1_555
Fe19 O77 2.136800 1_555
Fe19 O67 2.174223 1_555
Fe20 O40 1.963557 1_555
Fe20 O48 1.965117 1_555
Fe20 O66 2.130660 1_555
Fe20 O72 2.165340 1_555
Fe21 O49 1.959372 1_555
Fe21 O41 1.965020 1_555
Fe21 O67 2.119208 1_555
Fe21 O73 2.165936 1_555
Fe22 O42 1.959722 1_555
Fe22 O50 1.963228 1_555
Fe22 O64 2.130427 1_565
Fe22 O74 2.164672 1_555
Fe23 O43 1.950969 1_555
Fe23 O51 1.955992 1_555
Fe23 O65 2.133150 1_565
Fe23 O75 2.161192 1_555
Fe24 O44 1.962756 1_555
Fe24 O52 1.964447 1_555
Fe24 O70 2.126682 1_555
Fe24 O76 2.173942 1_555
Fe25 O45 1.944592 1_555
Fe25 O53 1.961366 1_555
Fe25 O71 2.125145 1_555
Fe25 O77 2.179663 1_555
Fe26 O54 1.959545 1_555
Fe26 O46 1.969075 1_555
Fe26 O68 2.124937 1_565
Fe26 O78 2.169786 1_555
Fe27 O47 1.948877 1_555
Fe27 O55 1.956573 1_555
Fe27 O69 2.129334 1_565
Fe27 O79 2.160868 1_555
O3 Sm0 2.768513 1_556
O3 Sm3 2.809643 1_556
O5 Sm1 2.806642 1_556
O7 Sm2 2.486430 1_555
O8 Sm0 2.471061 1_555
O10 Sm3 2.499714 1_555
O12 Sm2 2.782456 1_554
O14 Sm1 2.469768 1_565
O19 Sm0 2.822505 1_556
O21 Sm1 2.808494 1_556
O23 Sm2 2.482958 1_555
O23 Sm3 2.950606 1_656
O24 Sm0 2.497649 1_555
O28 Sm2 2.782159 1_554
O30 Sm1 2.486388 1_565
O30 Sm3 2.502638 1_655
O34 Sm3 2.314763 1_555
O34 Sm0 2.392039 1_555
O36 Sm1 2.387108 1_555
O38 Sm0 3.163832 1_555
O41 Sm2 2.437076 1_555
O50 Sm0 2.347180 1_555
O50 Sm3 3.072568 1_555
O52 Sm1 2.348453 1_555
O54 Sm3 2.390248 1_655
O61 Sm2 2.349520 1_555
O66 Sm0 2.328750 1_555
O68 Sm1 2.317028 1_555
O74 Sm3 2.309094 1_555
O77 Sm2 2.325827 1_555
