# generated using pymatgen
data_Hf3(CuSi)4
_symmetry_space_group_name_H-M   'P 1'
_cell_length_a   3.89003585
_cell_length_b   6.32216862
_cell_length_c   7.45696328
_cell_angle_alpha   115.09811591
_cell_angle_beta   105.11946872
_cell_angle_gamma   89.99999603
_symmetry_Int_Tables_number   1
_chemical_formula_structural   Hf3(CuSi)4
_chemical_formula_sum   'Hf3 Cu4 Si4'
_cell_volume   159.03914496
_cell_formula_units_Z   1
loop_
 _symmetry_equiv_pos_site_id
 _symmetry_equiv_pos_as_xyz
  1  'x, y, z'
loop_
 _atom_site_type_symbol
 _atom_site_label
 _atom_site_symmetry_multiplicity
 _atom_site_fract_x
 _atom_site_fract_y
 _atom_site_fract_z
 _atom_site_occupancy
  Hf  Hf0  1  0.87568015  0.87589048  0.75136231  1
  Hf  Hf1  1  0.12431985  0.12410952  0.24863769  1
  Hf  Hf2  1  -0.00000000  0.50000000  0.00000000  1
  Cu  Cu0  1  0.32995277  0.52349821  0.65990653  1
  Cu  Cu1  1  0.66968669  0.86276859  0.33937237  1
  Cu  Cu2  1  0.33031331  0.13723141  0.66062763  1
  Cu  Cu3  1  0.67004723  0.47650179  0.34009347  1
  Si  Si0  1  0.49993302  0.80810858  -0.00013196  1
  Si  Si1  1  0.50006698  0.19189142  0.00013196  1
  Si  Si2  1  0.78451048  0.28431418  0.56902197  1
  Si  Si3  1  0.21548952  0.71568582  0.43097803  1
loop_
_geom_bond_atom_site_label_1
_geom_bond_atom_site_label_2
_geom_bond_distance
_geom_bond_site_symmetry_2
Hf0 Si1 2.799546 1_566
Hf0 Si1 2.799556 1_666
Hf0 Si0 2.800134 1_656
Hf0 Si0 2.800134 1_556
Hf0 Si3 2.841756 1_555
Hf0 Si3 2.841765 1_655
Hf1 Si0 2.799546 1_545
Hf1 Si0 2.799556 1_445
Hf1 Si1 2.800134 1_455
Hf1 Si1 2.800134 1_555
Hf1 Si2 2.841756 1_555
Hf1 Si2 2.841765 1_455
Hf2 Si0 2.753012 1_555
Hf2 Si1 2.753012 1_455
Hf2 Si0 2.753018 1_455
Hf2 Si1 2.753018 1_555
Hf2 Si3 2.787016 1_555
Hf2 Si2 2.787016 1_454
Cu0 Si0 2.314601 1_556
Cu0 Si2 2.372422 1_555
Cu0 Si2 2.372422 1_455
Cu0 Si3 2.439657 1_555
Cu0 Cu2 2.444329 1_555
Cu0 Hf0 2.809103 1_555
Cu0 Hf0 2.809106 1_455
Cu0 Cu3 2.927583 1_455
Cu0 Cu3 2.927588 1_555
Cu0 Hf1 2.927767 1_555
Cu0 Hf2 3.181011 1_556
Cu0 Hf2 3.181013 1_656
Cu1 Si0 2.313124 1_555
Cu1 Si3 2.370975 1_655
Cu1 Si3 2.370975 1_555
Cu1 Si2 2.442132 1_565
Cu1 Cu3 2.444329 1_555
Cu1 Hf1 2.808560 1_565
Cu1 Hf1 2.808563 1_665
Cu1 Hf0 2.930344 1_555
Cu1 Cu2 2.935304 1_665
Cu1 Cu2 2.935310 1_565
Cu1 Hf2 3.176159 1_655
Cu1 Hf2 3.176161 1_555
Cu2 Si1 2.313124 1_556
Cu2 Si2 2.370975 1_455
Cu2 Si2 2.370975 1_555
Cu2 Si3 2.442132 1_545
Cu2 Hf0 2.808560 1_545
Cu2 Hf0 2.808563 1_445
Cu2 Hf1 2.930344 1_555
Cu2 Hf2 3.176159 1_556
Cu2 Hf2 3.176161 1_656
Cu3 Si1 2.314601 1_555
Cu3 Si3 2.372422 1_555
Cu3 Si3 2.372422 1_655
Cu3 Si2 2.439657 1_555
Cu3 Hf1 2.809103 1_555
Cu3 Hf1 2.809106 1_655
Cu3 Hf0 2.927767 1_555
Cu3 Hf2 3.181011 1_655
Cu3 Hf2 3.181013 1_555
Si0 Si1 2.425506 1_565
