# generated using pymatgen
data_ErTiFe11
_symmetry_space_group_name_H-M   'P 1'
_cell_length_a   4.70275700
_cell_length_b   6.44162286
_cell_length_c   6.44162286
_cell_angle_alpha   97.54714955
_cell_angle_beta   111.40936598
_cell_angle_gamma   68.59063402
_symmetry_Int_Tables_number   1
_chemical_formula_structural   ErTiFe11
_chemical_formula_sum   'Er1 Ti1 Fe11'
_cell_volume   169.13670168
_cell_formula_units_Z   1
loop_
 _symmetry_equiv_pos_site_id
 _symmetry_equiv_pos_as_xyz
  1  'x, y, z'
loop_
 _atom_site_type_symbol
 _atom_site_label
 _atom_site_symmetry_multiplicity
 _atom_site_fract_x
 _atom_site_fract_y
 _atom_site_fract_z
 _atom_site_occupancy
  Er  Er0  1  0.00558400  0.99441600  0.00558400  1
  Ti  Ti0  1  0.63203500  0.36796500  0.63203500  1
  Fe  Fe0  1  0.72810300  0.77189700  0.22810300  1
  Fe  Fe1  1  0.27736600  0.22263400  0.77736600  1
  Fe  Fe2  1  0.49913000  0.77928900  0.77754900  1
  Fe  Fe3  1  0.49913000  0.22245100  0.22071100  1
  Fe  Fe4  1  0.50028700  0.99782400  0.49986100  1
  Fe  Fe5  1  0.00175100  0.99782400  0.49986100  1
  Fe  Fe6  1  0.50028700  0.50013900  0.00217600  1
  Fe  Fe7  1  0.00175100  0.50013900  0.00217600  1
  Fe  Fe8  1  0.35285700  0.64714300  0.35285700  1
  Fe  Fe9  1  0.00086000  0.35523100  0.35695200  1
  Fe  Fe10  1  0.00086000  0.64304800  0.64476900  1
loop_
_geom_bond_atom_site_label_1
_geom_bond_atom_site_label_2
_geom_bond_distance
_geom_bond_site_symmetry_2
Er0 Fe8 2.942061 1_555
Er0 Fe2 3.011878 1_454
Er0 Fe3 3.011878 1_465
Er0 Fe3 3.011878 1_565
Er0 Fe2 3.011878 1_554
Er0 Fe0 3.013768 1_555
Er0 Fe0 3.013769 1_455
Er0 Fe10 3.023670 1_554
Er0 Fe9 3.023670 1_565
Er0 Fe1 3.044202 1_464
Er0 Fe1 3.044203 1_564
Er0 Ti0 3.164668 1_464
Er0 Fe5 3.187722 1_555
Er0 Fe7 3.187722 1_555
Er0 Fe4 3.187723 1_555
Er0 Fe6 3.187723 1_555
Er0 Fe6 3.254056 1_465
Er0 Fe4 3.254056 1_454
Er0 Fe7 3.254058 1_565
Er0 Fe5 3.254058 1_554
Fe0 Fe4 2.427340 1_555
Fe0 Fe6 2.427340 1_555
Fe0 Fe5 2.427342 1_655
Fe0 Fe7 2.427342 1_655
Fe0 Fe8 2.577988 1_655
Fe0 Fe8 2.577989 1_555
Fe0 Fe9 2.613927 1_655
Fe0 Fe10 2.613927 1_655
Fe0 Fe3 2.702295 1_565
Fe0 Fe2 2.702295 1_554
Fe1 Fe5 2.443638 1_545
Fe1 Fe7 2.443638 1_556
Fe1 Fe4 2.443640 1_545
Fe1 Fe6 2.443640 1_556
Fe1 Fe10 2.642038 1_555
Fe1 Fe9 2.642038 1_555
Fe1 Ti0 2.654224 1_455
Fe1 Ti0 2.654224 1_555
Fe1 Fe2 2.658794 1_545
Fe1 Fe3 2.658794 1_556
Fe2 Fe5 2.419817 1_555
Fe2 Fe4 2.419820 1_555
Fe2 Fe6 2.449033 1_556
Fe2 Fe7 2.449035 1_656
Fe2 Ti0 2.618381 1_555
Fe2 Fe8 2.669041 1_555
Fe3 Fe7 2.419817 1_555
Fe3 Fe6 2.419820 1_555
Fe3 Fe4 2.449033 1_545
Fe3 Fe5 2.449035 1_645
Fe3 Fe9 2.614096 1_655
Fe3 Fe9 2.614100 1_555
Fe3 Ti0 2.618381 1_555
Fe3 Fe8 2.669041 1_555
Fe4 Fe5 2.344494 1_555
Fe4 Fe5 2.358263 1_655
Fe4 Fe8 2.565633 1_555
Fe4 Fe9 2.587441 1_565
Fe4 Ti0 2.637011 1_565
Fe5 Fe8 2.565631 1_555
Fe5 Fe9 2.587437 1_565
Fe5 Ti0 2.637013 1_465
Fe6 Fe7 2.344494 1_555
Fe6 Fe7 2.358263 1_655
Fe6 Fe8 2.565633 1_555
Fe6 Fe9 2.581524 1_655
Fe6 Ti0 2.637011 1_554
Fe7 Fe8 2.565631 1_555
Fe7 Fe9 2.581529 1_555
Fe7 Ti0 2.637013 1_454
Fe8 Ti0 2.365167 1_555
Fe8 Fe9 2.931569 1_655
Fe8 Fe9 2.931573 1_555
Fe9 Ti0 2.873481 1_455
Fe9 Ti0 2.873484 1_555
Fe10 Fe9 2.443718 1_555
Fe10 Fe4 2.581524 1_455
Fe10 Fe5 2.581529 1_555
Fe10 Fe7 2.587437 1_556
Fe10 Fe6 2.587441 1_556
Fe10 Fe2 2.614096 1_455
Fe10 Fe2 2.614100 1_555
Fe10 Ti0 2.873481 1_455
Fe10 Ti0 2.873484 1_555
Fe10 Fe8 2.931569 1_455
Fe10 Fe8 2.931573 1_555
