# generated using pymatgen
data_CaSn3S7
_symmetry_space_group_name_H-M   'P 1'
_cell_length_a   6.58560300
_cell_length_b   6.72816400
_cell_length_c   13.48580800
_cell_angle_alpha   90.00000000
_cell_angle_beta   90.00000000
_cell_angle_gamma   90.00000000
_symmetry_Int_Tables_number   1
_chemical_formula_structural   CaSn3S7
_chemical_formula_sum   'Ca2 Sn6 S14'
_cell_volume   597.54289624
_cell_formula_units_Z   2
loop_
 _symmetry_equiv_pos_site_id
 _symmetry_equiv_pos_as_xyz
  1  'x, y, z'
loop_
 _atom_site_type_symbol
 _atom_site_label
 _atom_site_symmetry_multiplicity
 _atom_site_fract_x
 _atom_site_fract_y
 _atom_site_fract_z
 _atom_site_occupancy
  Ca  Ca0  1  0.88386100  0.50000000  0.00000000  1
  Ca  Ca1  1  0.11613900  0.00000000  0.50000000  1
  Sn  Sn0  1  0.36223900  0.50000000  0.76930400  1
  Sn  Sn1  1  0.36223900  0.50000000  0.23069600  1
  Sn  Sn2  1  0.63776100  0.00000000  0.73069600  1
  Sn  Sn3  1  0.63776100  0.00000000  0.26930400  1
  Sn  Sn4  1  0.39954000  0.00000000  0.00000000  1
  Sn  Sn5  1  0.60046000  0.50000000  0.50000000  1
  S  S0  1  0.04622700  0.00000000  0.00000000  1
  S  S1  1  0.95377300  0.50000000  0.50000000  1
  S  S2  1  0.01715900  0.50000000  0.80833800  1
  S  S3  1  0.01715900  0.50000000  0.19166200  1
  S  S4  1  0.98284100  0.00000000  0.69166200  1
  S  S5  1  0.98284100  0.00000000  0.30833800  1
  S  S6  1  0.57422600  0.24940100  0.87402900  1
  S  S7  1  0.57422600  0.75059900  0.87402900  1
  S  S8  1  0.57422600  0.24940100  0.12597100  1
  S  S9  1  0.57422600  0.75059900  0.12597100  1
  S  S10  1  0.42577400  0.25059900  0.62597100  1
  S  S11  1  0.42577400  0.74940100  0.62597100  1
  S  S12  1  0.42577400  0.25059900  0.37402900  1
  S  S13  1  0.42577400  0.74940100  0.37402900  1
loop_
_geom_bond_atom_site_label_1
_geom_bond_atom_site_label_2
_geom_bond_distance
_geom_bond_site_symmetry_2
Ca0 S3 2.729721 1_655
Ca0 S2 2.729721 1_654
Ca0 S9 3.144343 1_555
Ca0 S7 3.144343 1_554
Ca0 S8 3.144343 1_555
Ca0 S6 3.144343 1_554
Ca1 S5 2.729721 1_455
Ca1 S4 2.729721 1_455
Ca1 S11 3.144343 1_545
Ca1 S10 3.144343 1_555
Ca1 S13 3.144343 1_545
Ca1 S12 3.144343 1_555
S0 Sn4 2.326779 1_555
S1 Sn5 2.326779 1_555
S2 Sn0 2.332730 1_555
S3 Sn1 2.332730 1_555
S4 Sn2 2.332730 1_555
S5 Sn3 2.332730 1_555
S6 Sn2 2.593672 1_555
S6 Sn0 2.605076 1_555
S6 Sn4 2.650502 1_556
S7 Sn2 2.593672 1_565
S7 Sn0 2.605076 1_555
S7 Sn4 2.650502 1_566
S8 Sn3 2.593672 1_555
S8 Sn1 2.605076 1_555
S8 Sn4 2.650502 1_555
S9 Sn3 2.593672 1_565
S9 Sn1 2.605076 1_555
S9 Sn4 2.650502 1_565
S10 Sn0 2.593672 1_555
S10 Sn2 2.605076 1_555
S10 Sn5 2.650502 1_555
S11 Sn0 2.593672 1_555
S11 Sn2 2.605076 1_565
S11 Sn5 2.650502 1_555
S12 Sn1 2.593672 1_555
S12 Sn3 2.605076 1_555
S12 Sn5 2.650502 1_555
S13 Sn1 2.593672 1_555
S13 Sn3 2.605076 1_565
S13 Sn5 2.650502 1_555
