# generated using pymatgen
data_Rb12Sn2As6O
_symmetry_space_group_name_H-M   'P 1'
_cell_length_a   11.98022148
_cell_length_b   11.98022148
_cell_length_c   6.12373900
_cell_angle_alpha   90.00000000
_cell_angle_beta   90.00000000
_cell_angle_gamma   119.99999715
_symmetry_Int_Tables_number   1
_chemical_formula_structural   Rb12Sn2As6O
_chemical_formula_sum   'Rb12 Sn2 As6 O1'
_cell_volume   761.16184618
_cell_formula_units_Z   1
loop_
 _symmetry_equiv_pos_site_id
 _symmetry_equiv_pos_as_xyz
  1  'x, y, z'
loop_
 _atom_site_type_symbol
 _atom_site_label
 _atom_site_symmetry_multiplicity
 _atom_site_fract_x
 _atom_site_fract_y
 _atom_site_fract_z
 _atom_site_occupancy
  Rb  Rb0  1  0.11596400  0.88403600  0.27117400  1
  Rb  Rb1  1  0.11596400  0.23192800  0.27117400  1
  Rb  Rb2  1  0.76807200  0.88403600  0.27117400  1
  Rb  Rb3  1  0.88403600  0.11596400  0.72882600  1
  Rb  Rb4  1  0.88403600  0.76807200  0.72882600  1
  Rb  Rb5  1  0.23192800  0.11596400  0.72882600  1
  Rb  Rb6  1  0.45667700  0.54332300  0.24939800  1
  Rb  Rb7  1  0.45667700  0.91335400  0.24939800  1
  Rb  Rb8  1  0.08664600  0.54332300  0.24939800  1
  Rb  Rb9  1  0.54332300  0.45667700  0.75060200  1
  Rb  Rb10  1  0.54332300  0.08664600  0.75060200  1
  Rb  Rb11  1  0.91335400  0.45667700  0.75060200  1
  Sn  Sn0  1  0.33333300  0.66666700  0.75115500  1
  Sn  Sn1  1  0.66666700  0.33333300  0.24884500  1
  As  As0  1  0.79058600  0.20941400  0.24802800  1
  As  As1  1  0.79058600  0.58117200  0.24802800  1
  As  As2  1  0.41882800  0.20941400  0.24802800  1
  As  As3  1  0.20941400  0.79058600  0.75197200  1
  As  As4  1  0.20941400  0.41882800  0.75197200  1
  As  As5  1  0.58117200  0.79058600  0.75197200  1
  O  O0  1  0.00000000  0.00000000  0.50000000  1
loop_
_geom_bond_atom_site_label_1
_geom_bond_atom_site_label_2
_geom_bond_distance
_geom_bond_site_symmetry_2
As0 Sn1 2.571368 1_555
As0 Rb3 3.525476 1_555
As0 Rb3 3.724129 1_554
As0 Rb2 3.773145 1_545
As0 Rb1 3.773145 1_655
As0 Rb7 3.793971 1_545
As0 Rb8 3.793971 1_655
As0 Rb11 3.982479 1_554
As0 Rb10 3.982479 1_554
As0 Rb11 4.006643 1_555
As0 Rb10 4.006643 1_555
As1 Sn1 2.571378 1_555
As1 Rb4 3.525476 1_555
As1 Rb4 3.724129 1_554
As1 Rb2 3.773145 1_555
As1 Rb0 3.773145 1_655
As1 Rb8 3.793971 1_655
As1 Rb6 3.793971 1_555
As1 Rb11 3.982479 1_554
As1 Rb9 3.982479 1_554
As1 Rb11 4.006643 1_555
As1 Rb9 4.006643 1_555
As2 Sn1 2.571378 1_555
As2 Rb5 3.525476 1_555
As2 Rb5 3.724129 1_554
As2 Rb1 3.773145 1_555
As2 Rb0 3.773145 1_545
As2 Rb7 3.793971 1_545
As2 Rb6 3.793971 1_555
As2 Rb10 3.982479 1_554
As2 Rb9 3.982479 1_554
As2 Rb10 4.006643 1_555
As2 Rb9 4.006643 1_555
As3 Sn0 2.571368 1_555
As3 Rb0 3.525476 1_555
As3 Rb0 3.724129 1_556
As3 Rb4 3.773145 1_455
As3 Rb5 3.773145 1_565
As3 Rb10 3.793971 1_565
As3 Rb11 3.793971 1_455
As3 Rb7 3.982479 1_556
As3 Rb8 3.982479 1_556
As3 Rb8 4.006643 1_555
As3 Rb7 4.006643 1_555
As4 Sn0 2.571378 1_555
As4 Rb1 3.525476 1_555
As4 Rb1 3.724129 1_556
As4 Rb5 3.773145 1_555
As4 Rb3 3.773145 1_455
As4 Rb11 3.793971 1_455
As4 Rb9 3.793971 1_555
As4 Rb8 3.982479 1_556
As4 Rb6 3.982479 1_556
As4 Rb8 4.006643 1_555
As4 Rb6 4.006643 1_555
As5 Sn0 2.571378 1_555
As5 Rb2 3.525476 1_555
As5 Rb2 3.724129 1_556
As5 Rb4 3.773145 1_555
As5 Rb3 3.773145 1_565
As5 Rb10 3.793971 1_565
As5 Rb9 3.793971 1_555
As5 Rb7 3.982479 1_556
As5 Rb6 3.982479 1_556
As5 Rb7 4.006643 1_555
As5 Rb6 4.006643 1_555
O0 Rb0 2.784566 1_545
O0 Rb3 2.784566 1_455
O0 Rb1 2.784566 1_555
O0 Rb5 2.784566 1_555
O0 Rb2 2.784566 1_445
O0 Rb4 2.784566 1_445
