# generated using pymatgen
data_CuCl
_symmetry_space_group_name_H-M   'P 1'
_cell_length_a   3.78106940
_cell_length_b   3.78106940
_cell_length_c   6.21718878
_cell_angle_alpha   90.00000000
_cell_angle_beta   90.00000000
_cell_angle_gamma   119.99997509
_symmetry_Int_Tables_number   1
_chemical_formula_structural   CuCl
_chemical_formula_sum   'Cu2 Cl2'
_cell_volume   76.97577887
_cell_formula_units_Z   2
loop_
 _symmetry_equiv_pos_site_id
 _symmetry_equiv_pos_as_xyz
  1  'x, y, z'
loop_
 _atom_site_type_symbol
 _atom_site_label
 _atom_site_symmetry_multiplicity
 _atom_site_fract_x
 _atom_site_fract_y
 _atom_site_fract_z
 _atom_site_occupancy
  Cu  Cu0  1  -0.00000000  -0.00000000  0.37412427  1
  Cu  Cu1  1  0.33333400  0.66666500  0.87412427  1
  Cl  Cl0  1  0.00000000  -0.00000000  0.00087573  1
  Cl  Cl1  1  0.33333400  0.66666500  0.50087473  1
loop_
_geom_bond_atom_site_label_1
_geom_bond_atom_site_label_2
_geom_bond_distance
_geom_bond_site_symmetry_2
Cl0 Cu0 2.320557 1_555
Cl0 Cu1 2.320879 1_554
Cl0 Cu1 2.320882 1_444
Cl0 Cu1 2.320890 1_544
Cl1 Cu1 2.320563 1_555
Cl1 Cu0 2.320876 1_555
Cl1 Cu0 2.320880 1_665
Cl1 Cu0 2.320888 1_565
