# generated using pymatgen
data_SrLiBO3
_symmetry_space_group_name_H-M   'P 1'
_cell_length_a   6.70980203
_cell_length_b   6.45917767
_cell_length_c   7.66417606
_cell_angle_alpha   57.59677053
_cell_angle_beta   90.00000000
_cell_angle_gamma   90.00000000
_symmetry_Int_Tables_number   1
_chemical_formula_structural   SrLiBO3
_chemical_formula_sum   'Sr4 Li4 B4 O12'
_cell_volume   280.44521046
_cell_formula_units_Z   4
loop_
 _symmetry_equiv_pos_site_id
 _symmetry_equiv_pos_as_xyz
  1  'x, y, z'
loop_
 _atom_site_type_symbol
 _atom_site_label
 _atom_site_symmetry_multiplicity
 _atom_site_fract_x
 _atom_site_fract_y
 _atom_site_fract_z
 _atom_site_occupancy
  Sr  Sr0  1  0.37543317  0.66599019  0.63584745  1
  Sr  Sr1  1  0.87543317  0.33400981  0.86415255  1
  Sr  Sr2  1  0.62456683  0.33400981  0.36415255  1
  Sr  Sr3  1  0.12456683  0.66599019  0.13584745  1
  Li  Li0  1  0.09122149  0.09257305  0.30360752  1
  Li  Li1  1  0.59122149  0.90742695  0.19639248  1
  Li  Li2  1  0.90877851  0.90742695  0.69639248  1
  Li  Li3  1  0.40877851  0.09257305  0.80360752  1
  B  B0  1  0.63566171  0.76471660  0.92538857  1
  B  B1  1  0.13566171  0.23528340  0.57461143  1
  B  B2  1  0.36433829  0.23528340  0.07461143  1
  B  B3  1  0.86433829  0.76471660  0.42538857  1
  O  O0  1  0.38664552  0.05713227  0.28361506  1
  O  O1  1  0.30138786  0.38384799  0.50818478  1
  O  O2  1  0.69861214  0.61615201  0.49181522  1
  O  O3  1  0.19861214  0.38384799  0.00818478  1
  O  O4  1  0.49025539  0.74274689  0.06169952  1
  O  O5  1  0.99025539  0.25725311  0.43830048  1
  O  O6  1  0.50974461  0.25725311  0.93830048  1
  O  O7  1  0.00974461  0.74274689  0.56169952  1
  O  O8  1  0.61335448  0.94286773  0.71638494  1
  O  O9  1  0.11335448  0.05713227  0.78361506  1
  O  O10  1  0.80138786  0.61615201  0.99181522  1
  O  O11  1  0.88664552  0.94286773  0.21638494  1
loop_
_geom_bond_atom_site_label_1
_geom_bond_atom_site_label_2
_geom_bond_distance
_geom_bond_site_symmetry_2
Li0 O5 1.957786 1_455
Li0 O11 1.989702 1_445
Li0 O0 2.010656 1_555
Li0 O7 2.127687 1_545
Li0 O3 2.149397 1_555
Li1 O4 1.957786 1_555
Li1 O0 1.989702 1_565
Li1 O11 2.010656 1_555
Li1 O6 2.127687 1_564
Li1 O2 2.149397 1_555
Li2 O7 1.957786 1_655
Li2 O9 1.989702 1_665
Li2 O8 2.010656 1_555
Li2 O5 2.127687 1_565
Li2 O10 2.149397 1_555
Li3 O6 1.957786 1_555
Li3 O8 1.989702 1_545
Li3 O9 2.010656 1_555
Li3 O4 2.127687 1_546
Li3 O1 2.149397 1_555
B0 O10 1.375848 1_555
B0 O4 1.380058 1_556
B0 O8 1.391734 1_555
B1 O1 1.375848 1_555
B1 O5 1.380058 1_455
B1 O9 1.391734 1_555
B2 O3 1.375848 1_555
B2 O6 1.380058 1_554
B2 O0 1.391734 1_555
B3 O2 1.375848 1_555
B3 O7 1.380058 1_655
B3 O11 1.391734 1_555
O0 Sr0 2.523217 1_545
O0 Sr2 2.703884 1_555
O1 Sr2 2.530869 1_555
O1 Sr0 2.536998 1_555
O1 Sr3 2.701574 1_555
O2 Sr0 2.530869 1_555
O2 Sr2 2.536998 1_555
O2 Sr1 2.701574 1_555
O3 Sr1 2.530869 1_454
O3 Sr3 2.536998 1_555
O3 Sr0 2.701574 1_554
O4 Sr3 2.507473 1_555
O4 Sr2 2.568403 1_555
O5 Sr2 2.507473 1_555
O5 Sr3 2.568403 1_655
O6 Sr1 2.507473 1_555
O6 Sr0 2.568403 1_555
O7 Sr0 2.507473 1_555
O7 Sr1 2.568403 1_455
O8 Sr2 2.523217 1_565
O8 Sr0 2.703884 1_555
O9 Sr3 2.523217 1_546
O9 Sr1 2.703884 1_455
O10 Sr3 2.530869 1_656
O10 Sr1 2.536998 1_555
O10 Sr2 2.701574 1_556
O11 Sr1 2.523217 1_564
O11 Sr3 2.703884 1_655
