# generated using pymatgen
data_Sr2CdPt2
_symmetry_space_group_name_H-M   'P 1'
_cell_length_a   5.92759588
_cell_length_b   5.92759588
_cell_length_c   5.92759588
_cell_angle_alpha   134.68455521
_cell_angle_beta   119.43564240
_cell_angle_gamma   78.77579803
_symmetry_Int_Tables_number   1
_chemical_formula_structural   Sr2CdPt2
_chemical_formula_sum   'Sr2 Cd1 Pt2'
_cell_volume   125.07464162
_cell_formula_units_Z   1
loop_
 _symmetry_equiv_pos_site_id
 _symmetry_equiv_pos_as_xyz
  1  'x, y, z'
loop_
 _atom_site_type_symbol
 _atom_site_label
 _atom_site_symmetry_multiplicity
 _atom_site_fract_x
 _atom_site_fract_y
 _atom_site_fract_z
 _atom_site_occupancy
  Sr  Sr0  1  0.29951345  0.79951345  0.50000000  1
  Sr  Sr1  1  0.70048655  0.20048655  0.50000000  1
  Cd  Cd0  1  0.00000000  -0.00000000  0.00000000  1
  Pt  Pt0  1  0.72607639  0.50000000  0.22607639  1
  Pt  Pt1  1  0.27392361  0.50000000  0.77392361  1
loop_
_geom_bond_atom_site_label_1
_geom_bond_atom_site_label_2
_geom_bond_distance
_geom_bond_site_symmetry_2
Cd0 Pt1 2.809933 1_544
Cd0 Pt1 2.809933 1_555
Cd0 Pt0 2.809933 1_444
Cd0 Pt0 2.809933 1_455
Pt0 Pt1 2.703009 1_554
Pt0 Sr1 3.195726 1_555
Pt0 Sr0 3.195726 1_655
Pt0 Sr1 3.227253 1_565
Pt0 Sr0 3.227253 1_555
Pt0 Sr0 3.227253 1_544
Pt0 Sr1 3.227253 1_554
Pt1 Sr1 3.195726 1_455
Pt1 Sr0 3.195726 1_555
Pt1 Sr1 3.227253 1_566
Pt1 Sr0 3.227253 1_556
Pt1 Sr1 3.227253 1_555
Pt1 Sr0 3.227253 1_545
