# generated using pymatgen
data_K2TcH9
_symmetry_space_group_name_H-M   'P 1'
_cell_length_a   9.50321784
_cell_length_b   9.50323576
_cell_length_c   5.53006414
_cell_angle_alpha   90.00002606
_cell_angle_beta   89.99996880
_cell_angle_gamma   119.99980305
_symmetry_Int_Tables_number   1
_chemical_formula_structural   K2TcH9
_chemical_formula_sum   'K6 Tc3 H27'
_cell_volume   432.51766547
_cell_formula_units_Z   3
loop_
 _symmetry_equiv_pos_site_id
 _symmetry_equiv_pos_as_xyz
  1  'x, y, z'
loop_
 _atom_site_type_symbol
 _atom_site_label
 _atom_site_symmetry_multiplicity
 _atom_site_fract_x
 _atom_site_fract_y
 _atom_site_fract_z
 _atom_site_occupancy
  K  K0  1  0.26233370  0.00000547  0.50000260  1
  K  K1  1  0.00000389  0.26233460  0.50000251  1
  K  K2  1  0.73766106  0.73766255  0.50000297  1
  K  K3  1  0.59131116  -0.00000382  0.00000158  1
  K  K4  1  -0.00000276  0.59131230  0.00000183  1
  K  K5  1  0.40870125  0.40869984  -0.00000568  1
  Tc  Tc0  1  -0.00000025  0.00000160  0.00002339  1
  Tc  Tc1  1  0.33332518  0.66668800  0.50002246  1
  Tc  Tc2  1  0.66668752  0.33332669  0.49998303  1
  H  H0  1  0.87355525  0.00000032  0.21158642  1
  H  H1  1  0.00000064  0.87355253  0.21158639  1
  H  H2  1  0.87355184  0.00000026  0.78840590  1
  H  H3  1  0.00000088  0.87354971  0.78840590  1
  H  H4  1  0.12644814  0.12644760  0.21158488  1
  H  H5  1  0.12645014  0.12644969  0.78840781  1
  H  H6  1  0.17414786  -0.00000032  -0.00000112  1
  H  H7  1  -0.00000020  0.17414501  -0.00000127  1
  H  H8  1  0.82585589  0.82585559  -0.00000092  1
  H  H9  1  0.22462957  0.53238494  0.28158862  1
  H  H10  1  0.46761212  0.69224596  0.28159145  1
  H  H11  1  0.22463193  0.53238741  0.71840556  1
  H  H12  1  0.53238468  0.22462971  0.71841033  1
  H  H13  1  0.30775004  0.77536914  0.28158998  1
  H  H14  1  0.46761042  0.69224597  0.71840391  1
  H  H15  1  0.69224542  0.46761176  0.71840765  1
  H  H16  1  0.53238529  0.22463063  0.28159245  1
  H  H17  1  0.30775028  0.77536638  0.71840357  1
  H  H18  1  0.69224484  0.46761130  0.28159466  1
  H  H19  1  0.77536798  0.30775001  0.71840921  1
  H  H20  1  0.77536672  0.30775060  0.28159400  1
  H  H21  1  0.36835171  0.51283889  0.49999934  1
  H  H22  1  0.48715672  0.85551196  0.49999932  1
  H  H23  1  0.51283751  0.36835170  0.50000050  1
  H  H24  1  0.14448406  0.63164750  0.49999902  1
  H  H25  1  0.85551170  0.48715689  0.50000100  1
  H  H26  1  0.63164681  0.14448263  0.50000078  1
loop_
_geom_bond_atom_site_label_1
_geom_bond_atom_site_label_2
_geom_bond_distance
_geom_bond_site_symmetry_2
H0 Tc0 1.677110 1_655
H0 K1 2.684642 1_655
H0 K2 2.684668 1_545
H0 K3 2.926315 1_555
H1 Tc0 1.677151 1_565
H1 K0 2.684631 1_565
H1 K2 2.684676 1_455
H1 K4 2.926288 1_555
H2 Tc0 1.677344 1_656
H2 K1 2.684600 1_655
H2 K2 2.684622 1_545
H2 K3 2.926309 1_556
H3 Tc0 1.677380 1_566
H3 K0 2.684585 1_565
H3 K2 2.684633 1_455
H3 K4 2.926288 1_556
H4 Tc0 1.677130 1_555
H4 K0 2.684598 1_555
H4 K1 2.684620 1_555
H4 K5 2.926430 1_555
H5 Tc0 1.677353 1_556
H5 K0 2.684556 1_555
H5 K1 2.684580 1_555
H5 K5 2.926403 1_556
H6 Tc0 1.654977 1_555
H6 K0 2.889216 1_554
H6 K0 2.889256 1_555
H7 Tc0 1.654926 1_555
H7 K1 2.889229 1_554
H7 K1 2.889268 1_555
H8 Tc0 1.654944 1_665
H8 K2 2.889246 1_554
H8 K2 2.889287 1_555
H9 Tc1 1.684268 1_555
H9 K1 2.669003 1_555
H9 K4 2.913927 1_555
H9 K5 2.987075 1_555
H10 Tc1 1.684259 1_555
H10 K2 2.669002 1_555
H10 K5 2.913898 1_555
H10 K3 2.987010 1_565
H11 Tc1 1.684051 1_555
H11 K1 2.668996 1_555
H11 K4 2.913959 1_556
H11 K5 2.987059 1_556
H12 Tc2 1.684243 1_555
H12 K0 2.668985 1_555
H12 K3 2.913948 1_556
H12 K5 2.987024 1_556
H13 Tc1 1.684028 1_555
H13 K0 2.669037 1_565
H13 K3 2.913932 1_565
H13 K4 2.987025 1_555
H14 Tc1 1.684052 1_555
H14 K2 2.668989 1_555
H14 K5 2.913884 1_556
H14 K3 2.987030 1_566
H15 Tc2 1.684223 1_555
H15 K2 2.669008 1_555
H15 K5 2.913844 1_556
H15 K4 2.987029 1_656
H16 Tc2 1.684094 1_555
H16 K0 2.668997 1_555
H16 K3 2.913949 1_555
H16 K5 2.987063 1_555
H17 Tc1 1.683804 1_555
H17 K0 2.669034 1_565
H17 K3 2.913967 1_566
H17 K4 2.987052 1_556
H18 Tc2 1.684078 1_555
H18 K2 2.669018 1_555
H18 K5 2.913883 1_555
H18 K4 2.987027 1_655
H19 Tc2 1.684004 1_555
H19 K1 2.669011 1_655
H19 K4 2.913959 1_656
H19 K3 2.987047 1_556
H20 Tc2 1.683845 1_555
H20 K1 2.669030 1_655
H20 K4 2.913957 1_655
H20 K3 2.987049 1_555
H21 Tc1 1.653813 1_555
H21 K5 3.025094 1_556
H21 K5 3.025143 1_555
H22 Tc1 1.653445 1_555
H22 K3 3.025112 1_565
H22 K3 3.025134 1_566
H23 Tc2 1.653810 1_555
H23 K5 3.025072 1_556
H23 K5 3.025136 1_555
H24 Tc1 1.653444 1_555
H24 K4 3.025112 1_555
H24 K4 3.025139 1_556
H25 Tc2 1.653441 1_555
H25 K4 3.025122 1_655
H25 K4 3.025131 1_656
H26 Tc2 1.653474 1_555
H26 K3 3.025121 1_555
H26 K3 3.025129 1_556
