# generated using pymatgen
data_Mg6CrNi
_symmetry_space_group_name_H-M   'P 1'
_cell_length_a   4.82266900
_cell_length_b   6.06537100
_cell_length_c   10.46967700
_cell_angle_alpha   90.00000000
_cell_angle_beta   90.00000000
_cell_angle_gamma   90.00000000
_symmetry_Int_Tables_number   1
_chemical_formula_structural   Mg6CrNi
_chemical_formula_sum   'Mg12 Cr2 Ni2'
_cell_volume   306.25141884
_cell_formula_units_Z   2
loop_
 _symmetry_equiv_pos_site_id
 _symmetry_equiv_pos_as_xyz
  1  'x, y, z'
loop_
 _atom_site_type_symbol
 _atom_site_label
 _atom_site_symmetry_multiplicity
 _atom_site_fract_x
 _atom_site_fract_y
 _atom_site_fract_z
 _atom_site_occupancy
  Mg  Mg0  1  0.50000000  0.24890900  0.08322600  1
  Mg  Mg1  1  0.50000000  0.75109100  0.08322600  1
  Mg  Mg2  1  0.00000000  0.24484800  0.91096500  1
  Mg  Mg3  1  0.00000000  0.75515200  0.91096500  1
  Mg  Mg4  1  0.00000000  0.50000000  0.17488600  1
  Mg  Mg5  1  0.00000000  0.50000000  0.67120100  1
  Mg  Mg6  1  0.50000000  0.74890900  0.58322600  1
  Mg  Mg7  1  0.50000000  0.25109100  0.58322600  1
  Mg  Mg8  1  0.00000000  0.74484800  0.41096500  1
  Mg  Mg9  1  0.00000000  0.25515200  0.41096500  1
  Mg  Mg10  1  0.00000000  0.00000000  0.67488600  1
  Mg  Mg11  1  0.00000000  0.00000000  0.17120100  1
  Cr  Cr0  1  0.50000000  0.50000000  0.83304900  1
  Cr  Cr1  1  0.50000000  0.00000000  0.33304900  1
  Ni  Ni0  1  0.50000000  0.50000000  0.33248600  1
  Ni  Ni1  1  0.50000000  0.00000000  0.83248600  1
loop_
_geom_bond_atom_site_label_1
_geom_bond_atom_site_label_2
_geom_bond_distance
_geom_bond_site_symmetry_2
Mg0 Mg11 2.990347 1_555
Mg0 Mg11 2.990347 1_655
Mg0 Mg4 3.009131 1_655
Mg0 Mg4 3.009131 1_555
Mg0 Mg2 3.011281 1_654
Mg0 Mg2 3.011281 1_554
Mg0 Mg1 3.019451 1_545
Mg0 Ni0 3.021555 1_555
Mg0 Ni1 3.028328 1_554
Mg0 Mg1 3.045920 1_555
Mg1 Mg11 2.990347 1_565
Mg1 Mg11 2.990347 1_665
Mg1 Mg4 3.009131 1_655
Mg1 Mg4 3.009131 1_555
Mg1 Mg3 3.011281 1_554
Mg1 Mg3 3.011281 1_654
Mg1 Ni0 3.021555 1_555
Mg1 Ni1 3.028328 1_564
Mg2 Ni1 2.948753 1_555
Mg2 Ni1 2.948753 1_455
Mg2 Mg5 2.948966 1_555
Mg2 Mg3 2.970188 1_545
Mg2 Mg3 3.095183 1_555
Mg2 Mg4 3.167039 1_556
Mg3 Ni1 2.948753 1_465
Mg3 Ni1 2.948753 1_565
Mg3 Mg5 2.948966 1_555
Mg3 Mg4 3.167039 1_556
Mg4 Mg8 2.883515 1_555
Mg4 Mg9 2.883515 1_555
Mg4 Ni0 2.921832 1_555
Mg4 Ni0 2.921832 1_455
Mg5 Mg6 2.990347 1_455
Mg5 Mg6 2.990347 1_555
Mg5 Mg7 2.990347 1_455
Mg5 Mg7 2.990347 1_555
Mg5 Mg9 3.103043 1_555
Mg5 Mg8 3.103043 1_555
Mg6 Mg8 3.011281 1_555
Mg6 Mg8 3.011281 1_655
Mg6 Mg7 3.019451 1_555
Mg6 Ni1 3.021555 1_565
Mg6 Ni0 3.028328 1_555
Mg6 Mg7 3.045920 1_565
Mg7 Mg9 3.011281 1_655
Mg7 Mg9 3.011281 1_555
Mg7 Ni1 3.021555 1_555
Mg7 Ni0 3.028328 1_555
Mg8 Ni0 2.948753 1_455
Mg8 Ni0 2.948753 1_555
Mg8 Mg9 2.970188 1_555
Mg8 Mg9 3.095183 1_565
Mg9 Ni0 2.948753 1_555
Mg9 Ni0 2.948753 1_455
Mg10 Mg2 2.883515 1_555
Mg10 Mg3 2.883515 1_545
Mg10 Ni1 2.921832 1_455
Mg10 Ni1 2.921832 1_555
Mg10 Mg7 3.009131 1_455
Mg10 Mg7 3.009131 1_555
Mg10 Mg6 3.009131 1_445
Mg10 Mg6 3.009131 1_545
Mg10 Mg5 3.032931 1_545
Mg10 Mg5 3.032931 1_555
Mg10 Mg9 3.167039 1_555
Mg10 Mg8 3.167039 1_545
Mg11 Mg9 2.948966 1_555
Mg11 Mg8 2.948966 1_545
Mg11 Mg4 3.032931 1_555
Mg11 Mg4 3.032931 1_545
Mg11 Mg2 3.103043 1_554
Mg11 Mg3 3.103043 1_544
Cr0 Mg5 2.947177 1_655
Cr0 Mg5 2.947177 1_555
Cr0 Mg3 2.979099 1_655
Cr0 Mg3 2.979099 1_555
Cr0 Mg2 2.979099 1_555
Cr0 Mg2 2.979099 1_655
Cr0 Mg6 3.020009 1_555
Cr0 Mg7 3.020009 1_555
Cr0 Mg0 3.029851 1_556
Cr0 Mg1 3.029851 1_556
Cr0 Ni1 3.032691 1_565
Cr0 Ni1 3.032691 1_555
Cr1 Mg11 2.947177 1_555
Cr1 Mg11 2.947177 1_655
Cr1 Mg9 2.979099 1_555
Cr1 Mg9 2.979099 1_655
Cr1 Mg8 2.979099 1_645
Cr1 Mg8 2.979099 1_545
Cr1 Mg1 3.020009 1_545
Cr1 Mg0 3.020009 1_555
Cr1 Mg7 3.029851 1_555
Cr1 Mg6 3.029851 1_545
Cr1 Ni0 3.032691 1_545
Cr1 Ni0 3.032691 1_555
