# generated using pymatgen
data_Al7Cu2Rh
_symmetry_space_group_name_H-M   'P 1'
_cell_length_a   6.36980923
_cell_length_b   6.36980923
_cell_length_c   14.71936945
_cell_angle_alpha   90.00000000
_cell_angle_beta   90.00000000
_cell_angle_gamma   90.00000000
_symmetry_Int_Tables_number   1
_chemical_formula_structural   Al7Cu2Rh
_chemical_formula_sum   'Al28 Cu8 Rh4'
_cell_volume   597.23060867
_cell_formula_units_Z   4
loop_
 _symmetry_equiv_pos_site_id
 _symmetry_equiv_pos_as_xyz
  1  'x, y, z'
loop_
 _atom_site_type_symbol
 _atom_site_label
 _atom_site_symmetry_multiplicity
 _atom_site_fract_x
 _atom_site_fract_y
 _atom_site_fract_z
 _atom_site_occupancy
  Al  Al0  1  0.14907380  0.64907380  0.25000000  1
  Al  Al1  1  0.85092620  0.35092620  0.75000000  1
  Al  Al2  1  0.85092620  0.35092620  0.25000000  1
  Al  Al3  1  0.35092620  0.14907380  0.25000000  1
  Al  Al4  1  0.14907380  0.64907380  0.75000000  1
  Al  Al5  1  0.64907380  0.85092620  0.75000000  1
  Al  Al6  1  0.64907380  0.85092620  0.25000000  1
  Al  Al7  1  0.35092620  0.14907380  0.75000000  1
  Al  Al8  1  -0.00000000  -0.00000000  0.12743084  1
  Al  Al9  1  -0.00000000  -0.00000000  0.87256916  1
  Al  Al10  1  0.50000000  0.50000000  0.37256916  1
  Al  Al11  1  0.50000000  0.50000000  0.62743084  1
  Al  Al12  1  0.19884026  0.41344856  0.09719174  1
  Al  Al13  1  0.80115974  0.58655144  0.90280826  1
  Al  Al14  1  0.80115974  0.58655144  0.09719174  1
  Al  Al15  1  0.58655144  0.19884026  0.09719174  1
  Al  Al16  1  0.30115974  0.91344856  0.40280826  1
  Al  Al17  1  0.19884026  0.41344856  0.90280826  1
  Al  Al18  1  0.41344856  0.80115974  0.90280826  1
  Al  Al19  1  0.69884026  0.08655144  0.59719174  1
  Al  Al20  1  0.41344856  0.80115974  0.09719174  1
  Al  Al21  1  0.69884026  0.08655144  0.40280826  1
  Al  Al22  1  0.58655144  0.19884026  0.90280826  1
  Al  Al23  1  0.30115974  0.91344856  0.59719174  1
  Al  Al24  1  0.91344856  0.69884026  0.40280826  1
  Al  Al25  1  0.08655144  0.30115974  0.59719174  1
  Al  Al26  1  0.08655144  0.30115974  0.40280826  1
  Al  Al27  1  0.91344856  0.69884026  0.59719174  1
  Cu  Cu0  1  0.26792123  0.09456561  0.00000000  1
  Cu  Cu1  1  0.73207877  0.90543439  0.00000000  1
  Cu  Cu2  1  0.90543439  0.26792123  0.00000000  1
  Cu  Cu3  1  0.23207877  0.59456561  0.50000000  1
  Cu  Cu4  1  0.09456561  0.73207877  0.00000000  1
  Cu  Cu5  1  0.76792123  0.40543439  0.50000000  1
  Cu  Cu6  1  0.59456561  0.76792123  0.50000000  1
  Cu  Cu7  1  0.40543439  0.23207877  0.50000000  1
  Rh  Rh0  1  -0.00000000  -0.00000000  0.29786912  1
  Rh  Rh1  1  -0.00000000  -0.00000000  0.70213088  1
  Rh  Rh2  1  0.50000000  0.50000000  0.20213088  1
  Rh  Rh3  1  0.50000000  0.50000000  0.79786912  1
loop_
_geom_bond_atom_site_label_1
_geom_bond_atom_site_label_2
_geom_bond_distance
_geom_bond_site_symmetry_2
Al0 Rh2 2.528807 1_555
Al0 Rh0 2.528807 1_565
Al0 Al2 2.685794 1_455
Al0 Al12 2.722543 1_555
Al0 Al24 2.722543 1_455
Al0 Al20 2.972119 1_555
Al0 Al16 2.972119 1_555
Al0 Al10 3.025446 1_555
Al0 Al8 3.025446 1_565
Al1 Rh1 2.528807 1_655
Al1 Rh3 2.528807 1_555
Al1 Al4 2.685794 1_655
Al1 Al25 2.722543 1_655
Al1 Al13 2.722543 1_555
Al1 Al19 2.972119 1_555
Al1 Al22 2.972119 1_555
Al1 Al9 3.025446 1_655
Al1 Al11 3.025446 1_555
Al2 Rh0 2.528807 1_655
Al2 Rh2 2.528807 1_555
Al2 Al26 2.722543 1_655
Al2 Al21 2.972119 1_555
Al2 Al8 3.025446 1_655
Al3 Rh0 2.528807 1_555
Al3 Rh2 2.528807 1_555
Al3 Al6 2.685794 1_545
Al3 Al8 3.025446 1_555
Al4 Rh3 2.528807 1_555
Al4 Rh1 2.528807 1_565
Al4 Al9 3.025446 1_565
Al5 Rh3 2.528807 1_555
Al5 Rh1 2.528807 1_665
Al5 Al7 2.685794 1_565
Al5 Al9 3.025446 1_665
Al6 Rh2 2.528807 1_555
Al6 Rh0 2.528807 1_665
Al6 Al8 3.025446 1_665
Al7 Rh1 2.528807 1_555
Al7 Rh3 2.528807 1_555
Al7 Al9 3.025446 1_555
Al8 Rh0 2.508744 1_555
Al8 Cu2 2.606455 1_455
Al8 Cu4 2.606455 1_545
Al8 Cu0 2.606455 1_555
Al8 Cu1 2.606455 1_445
Al9 Rh1 2.508744 1_555
Al9 Cu0 2.606455 1_556
Al9 Cu2 2.606455 1_456
Al9 Cu1 2.606455 1_446
Al9 Cu4 2.606455 1_546
Al10 Rh2 2.508744 1_555
Al10 Cu7 2.606455 1_555
Al10 Cu6 2.606455 1_555
Al10 Cu3 2.606455 1_555
Al10 Cu5 2.606455 1_555
Al10 Al24 2.956030 1_555
Al10 Al16 2.956030 1_555
Al10 Al26 2.956030 1_555
Al10 Al21 2.956030 1_555
Al10 Al6 3.025446 1_555
Al10 Al2 3.025446 1_555
Al10 Al3 3.025446 1_555
Al11 Rh3 2.508744 1_555
Al11 Cu6 2.606455 1_555
Al11 Cu5 2.606455 1_555
Al11 Cu3 2.606455 1_555
Al11 Cu7 2.606455 1_555
Al11 Al19 2.956030 1_555
Al11 Al23 2.956030 1_555
Al11 Al25 2.956030 1_555
Al11 Al27 2.956030 1_555
Al11 Al4 3.025446 1_555
Al11 Al5 3.025446 1_555
Al11 Al7 3.025446 1_555
Al12 Cu0 2.523117 1_555
Al12 Rh2 2.523855 1_555
Al12 Cu2 2.529595 1_455
Al12 Cu4 2.570433 1_555
Al12 Al14 2.762724 1_455
Al12 Al20 2.822743 1_555
Al12 Al15 2.822743 1_555
Al12 Al17 2.861202 1_554
Al12 Al8 2.956030 1_555
Al12 Al3 2.972119 1_555
Al13 Cu1 2.523117 1_556
Al13 Rh3 2.523855 1_555
Al13 Cu4 2.529595 1_656
Al13 Cu2 2.570433 1_556
Al13 Al17 2.762724 1_655
Al13 Al18 2.822743 1_555
Al13 Al22 2.822743 1_555
Al13 Al14 2.861202 1_556
Al13 Al9 2.956030 1_665
Al13 Al5 2.972119 1_555
Al14 Cu1 2.523117 1_555
Al14 Rh2 2.523855 1_555
Al14 Cu4 2.529595 1_655
Al14 Cu2 2.570433 1_555
Al14 Al2 2.722543 1_555
Al14 Al20 2.822743 1_555
Al14 Al15 2.822743 1_555
Al14 Al8 2.956030 1_665
Al14 Al6 2.972119 1_555
Al15 Cu2 2.523117 1_555
Al15 Rh2 2.523855 1_555
Al15 Cu1 2.529595 1_545
Al15 Cu0 2.570433 1_555
Al15 Al3 2.722543 1_555
Al15 Al20 2.762724 1_545
Al15 Al22 2.861202 1_554
Al15 Al8 2.956030 1_655
Al15 Al2 2.972119 1_555
Al16 Cu3 2.523117 1_555
Al16 Rh0 2.523855 1_565
Al16 Cu6 2.529595 1_555
Al16 Cu7 2.570433 1_565
Al16 Al3 2.722543 1_565
Al16 Al21 2.762724 1_565
Al16 Al24 2.822743 1_455
Al16 Al26 2.822743 1_565
Al16 Al23 2.861202 1_555
Al17 Cu0 2.523117 1_556
Al17 Rh3 2.523855 1_555
Al17 Cu2 2.529595 1_456
Al17 Cu4 2.570433 1_556
Al17 Al4 2.722543 1_555
Al17 Al18 2.822743 1_555
Al17 Al22 2.822743 1_555
Al17 Al9 2.956030 1_555
Al17 Al7 2.972119 1_555
Al18 Cu4 2.523117 1_556
Al18 Rh3 2.523855 1_555
Al18 Cu0 2.529595 1_566
Al18 Cu1 2.570433 1_556
Al18 Al5 2.722543 1_555
Al18 Al22 2.762724 1_565
Al18 Al20 2.861202 1_556
Al18 Al9 2.956030 1_565
Al18 Al4 2.972119 1_555
Al19 Cu5 2.523117 1_555
Al19 Rh1 2.523855 1_655
Al19 Cu7 2.529595 1_555
Al19 Cu6 2.570433 1_545
Al19 Al5 2.722543 1_545
Al19 Al23 2.762724 1_545
Al19 Al25 2.822743 1_655
Al19 Al27 2.822743 1_545
Al19 Al21 2.861202 1_555
Al20 Cu4 2.523117 1_555
Al20 Rh2 2.523855 1_555
Al20 Cu0 2.529595 1_565
Al20 Cu1 2.570433 1_555
Al20 Al6 2.722543 1_555
Al20 Al8 2.956030 1_565
Al21 Cu5 2.523117 1_555
Al21 Rh0 2.523855 1_655
Al21 Cu7 2.529595 1_555
Al21 Cu6 2.570433 1_545
Al21 Al6 2.722543 1_545
Al21 Al26 2.822743 1_655
Al21 Al24 2.822743 1_545
Al22 Cu2 2.523117 1_556
Al22 Rh3 2.523855 1_555
Al22 Cu1 2.529595 1_546
Al22 Cu0 2.570433 1_556
Al22 Al7 2.722543 1_555
Al22 Al9 2.956030 1_655
Al23 Cu3 2.523117 1_555
Al23 Rh1 2.523855 1_565
Al23 Cu6 2.529595 1_555
Al23 Cu7 2.570433 1_565
Al23 Al7 2.722543 1_565
Al23 Al27 2.822743 1_455
Al23 Al25 2.822743 1_565
Al23 Al4 2.972119 1_555
Al24 Cu6 2.523117 1_555
Al24 Rh0 2.523855 1_665
Al24 Cu5 2.529595 1_555
Al24 Cu3 2.570433 1_655
Al24 Al26 2.762724 1_655
Al24 Al27 2.861202 1_555
Al24 Al6 2.972119 1_555
Al25 Cu7 2.523117 1_555
Al25 Rh1 2.523855 1_555
Al25 Cu3 2.529595 1_555
Al25 Cu5 2.570433 1_455
Al25 Al27 2.762724 1_455
Al25 Al26 2.861202 1_555
Al25 Al7 2.972119 1_555
Al26 Cu7 2.523117 1_555
Al26 Rh0 2.523855 1_555
Al26 Cu3 2.529595 1_555
Al26 Cu5 2.570433 1_455
Al26 Al3 2.972119 1_555
Al27 Cu6 2.523117 1_555
Al27 Rh1 2.523855 1_665
Al27 Cu5 2.529595 1_555
Al27 Cu3 2.570433 1_655
Al27 Al4 2.722543 1_655
Al27 Al5 2.972119 1_555
Cu0 Cu2 2.559434 1_455
Cu0 Cu4 2.559434 1_545
Cu1 Cu2 2.559434 1_565
Cu1 Cu4 2.559434 1_655
Cu3 Cu7 2.559434 1_555
Cu3 Cu6 2.559434 1_555
Cu5 Cu7 2.559434 1_555
Cu5 Cu6 2.559434 1_555
