# generated using pymatgen
data_MgHg8(NO4)4
_symmetry_space_group_name_H-M   'P 1'
_cell_length_a   6.11895243
_cell_length_b   7.16290861
_cell_length_c   12.36158937
_cell_angle_alpha   96.61364969
_cell_angle_beta   97.77569941
_cell_angle_gamma   87.45301791
_symmetry_Int_Tables_number   1
_chemical_formula_structural   MgHg8(NO4)4
_chemical_formula_sum   'Mg1 Hg8 N4 O16'
_cell_volume   533.01895207
_cell_formula_units_Z   1
loop_
 _symmetry_equiv_pos_site_id
 _symmetry_equiv_pos_as_xyz
  1  'x, y, z'
loop_
 _atom_site_type_symbol
 _atom_site_label
 _atom_site_symmetry_multiplicity
 _atom_site_fract_x
 _atom_site_fract_y
 _atom_site_fract_z
 _atom_site_occupancy
  Mg  Mg0  1  0.81106500  0.36080300  0.72870200  1
  Hg  Hg0  1  0.47123600  0.79090300  0.25124100  1
  Hg  Hg1  1  0.49699100  0.28636100  0.24288400  1
  Hg  Hg2  1  0.45933800  0.16221300  0.75558700  1
  Hg  Hg3  1  0.51267700  0.72015800  0.77122900  1
  Hg  Hg4  1  0.80331700  0.57445800  0.51684800  1
  Hg  Hg5  1  0.16181100  0.92907200  0.97798500  1
  Hg  Hg6  1  0.14621000  0.53978300  0.40948500  1
  Hg  Hg7  1  0.77947400  0.95434000  0.05139300  1
  N  N0  1  0.96304800  0.99809100  0.61933200  1
  N  N1  1  0.12462400  0.45300900  0.87650300  1
  N  N2  1  0.91032500  0.50753700  0.14619100  1
  N  N3  1  0.05931200  0.05581800  0.35617500  1
  O  O0  1  0.07129300  0.54752700  0.79219300  1
  O  O1  1  0.00618400  0.17306000  0.65380200  1
  O  O2  1  0.90443100  0.37560800  0.20792500  1
  O  O3  1  0.06727200  0.89820000  0.29561300  1
  O  O4  1  0.49891200  0.01487400  0.15620200  1
  O  O5  1  0.46328300  0.55102900  0.33828400  1
  O  O6  1  0.45736400  0.90979300  0.90251000  1
  O  O7  1  0.60542700  0.52863400  0.64689600  1
  O  O8  1  0.72936900  0.58382600  0.10636400  1
  O  O9  1  0.23667800  0.14612400  0.38636600  1
  O  O10  1  0.76591500  0.95319000  0.59091000  1
  O  O11  1  0.29841900  0.47654300  0.93774700  1
  O  O12  1  0.09268800  0.55877100  0.12636600  1
  O  O13  1  0.87889200  0.11759300  0.38563800  1
  O  O14  1  0.98365500  0.32970400  0.88749700  1
  O  O15  1  0.12174200  0.88260700  0.61650700  1
loop_
_geom_bond_atom_site_label_1
_geom_bond_atom_site_label_2
_geom_bond_distance
_geom_bond_site_symmetry_2
Mg0 O7 1.962749 1_555
Mg0 O1 1.990170 1_655
Mg0 O14 2.130020 1_555
Mg0 O0 2.132995 1_655
Hg0 O4 2.120088 1_565
Hg0 O5 2.135363 1_555
Hg1 O4 2.109814 1_555
Hg1 O5 2.131522 1_555
Hg2 O6 2.707788 1_545
Hg2 Mg0 2.709319 1_555
Hg3 O6 2.047742 1_555
Hg3 O7 2.060943 1_555
Hg4 O7 2.200443 1_555
Hg5 O6 2.136543 1_555
Hg6 O5 2.244473 1_555
Hg7 O4 2.284756 1_565
Hg7 O6 2.512532 1_554
N0 O15 1.248813 1_655
N0 O10 1.255264 1_555
N0 O1 1.303041 1_665
N1 O11 1.225222 1_555
N1 O14 1.292162 1_455
N1 O0 1.304574 1_555
N2 O12 1.253400 1_655
N2 O8 1.275816 1_555
N2 O2 1.285798 1_555
N3 O13 1.255181 1_455
N3 O9 1.277792 1_555
N3 O3 1.283656 1_545
