# generated using pymatgen
data_CeSe2
_symmetry_space_group_name_H-M   'P 1'
_cell_length_a   6.10085469
_cell_length_b   21.34587574
_cell_length_c   21.34587574
_cell_angle_alpha   119.99999824
_cell_angle_beta   90.00000000
_cell_angle_gamma   90.00000000
_symmetry_Int_Tables_number   1
_chemical_formula_structural   CeSe2
_chemical_formula_sum   'Ce12 Se24'
_cell_volume   2407.40564474
_cell_formula_units_Z   12
loop_
 _symmetry_equiv_pos_site_id
 _symmetry_equiv_pos_as_xyz
  1  'x, y, z'
loop_
 _atom_site_type_symbol
 _atom_site_label
 _atom_site_symmetry_multiplicity
 _atom_site_fract_x
 _atom_site_fract_y
 _atom_site_fract_z
 _atom_site_occupancy
  Ce  Ce0  1  0.17358557  0.47750494  0.13089293  1
  Ce  Ce1  1  0.17358557  0.65338799  0.52249506  1
  Ce  Ce2  1  0.17358557  0.86910707  0.34661201  1
  Ce  Ce3  1  0.17358557  0.52249506  0.86910707  1
  Ce  Ce4  1  0.17358557  0.34661201  0.47750494  1
  Ce  Ce5  1  0.17358557  0.13089293  0.65338799  1
  Ce  Ce6  1  0.82643319  0.34662787  0.86911418  1
  Ce  Ce7  1  0.82643319  0.13088582  0.47751369  1
  Ce  Ce8  1  0.82643319  0.52248631  0.65337213  1
  Ce  Ce9  1  0.82643319  0.65337213  0.13088582  1
  Ce  Ce10  1  0.82643319  0.86911418  0.52248631  1
  Ce  Ce11  1  0.82643319  0.47751369  0.34662787  1
  Se  Se0  1  0.99999476  0.21712760  0.60856859  1
  Se  Se1  1  0.99999476  0.39144099  0.78287240  1
  Se  Se2  1  0.99999476  0.39143141  0.60855901  1
  Se  Se3  1  0.99999476  0.78287240  0.39143141  1
  Se  Se4  1  0.99999476  0.60855901  0.21712760  1
  Se  Se5  1  0.99999476  0.60856859  0.39144099  1
  Se  Se6  1  0.00000066  0.99999487  0.38333463  1
  Se  Se7  1  0.00000066  0.38333976  0.00000513  1
  Se  Se8  1  0.00000066  0.61666537  0.61666024  1
  Se  Se9  1  0.00000066  0.00000513  0.61666537  1
  Se  Se10  1  0.00000066  0.61666024  0.99999487  1
  Se  Se11  1  0.00000066  0.38333463  0.38333976  1
  Se  Se12  1  0.00000598  0.20946279  0.41892369  1
  Se  Se13  1  0.00000598  0.20946090  0.79053721  1
  Se  Se14  1  0.00000598  0.58107631  0.79053910  1
  Se  Se15  1  0.00000598  0.79053721  0.58107631  1
  Se  Se16  1  0.00000598  0.79053910  0.20946279  1
  Se  Se17  1  0.00000598  0.41892369  0.20946090  1
  Se  Se18  1  0.49997985  0.11178605  0.55590103  1
  Se  Se19  1  0.49997985  0.44411498  0.88821395  1
  Se  Se20  1  0.49997985  0.44409897  0.55588502  1
  Se  Se21  1  0.49997985  0.88821395  0.44409897  1
  Se  Se22  1  0.49997985  0.55588502  0.11178605  1
  Se  Se23  1  0.49997985  0.55590103  0.44411498  1
loop_
_geom_bond_atom_site_label_1
_geom_bond_atom_site_label_2
_geom_bond_distance
_geom_bond_site_symmetry_2
Ce0 Se4 2.680733 1_455
Ce0 Se7 2.711430 1_555
Ce0 Se17 2.755894 1_555
Ce0 Se22 2.759197 1_555
Ce1 Se5 2.680733 1_455
Ce1 Se8 2.711430 1_555
Ce1 Se15 2.755894 1_555
Ce1 Se23 2.759197 1_555
Ce2 Se3 2.680733 1_455
Ce2 Se6 2.711430 1_555
Ce2 Se16 2.755894 1_555
Ce2 Se21 2.759197 1_555
Ce3 Se1 2.680733 1_455
Ce3 Se10 2.711430 1_555
Ce3 Se14 2.755894 1_555
Ce3 Se19 2.759197 1_555
Ce4 Se2 2.680733 1_455
Ce4 Se11 2.711430 1_555
Ce4 Se12 2.755894 1_555
Ce4 Se20 2.759197 1_555
Ce5 Se0 2.680733 1_455
Ce5 Se9 2.711430 1_555
Ce5 Se13 2.755894 1_555
Ce5 Se18 2.759197 1_555
Ce6 Se1 2.680700 1_555
Ce6 Se7 2.711500 1_656
Ce6 Se13 2.756180 1_655
Ce6 Se19 2.759494 1_555
Ce7 Se0 2.680700 1_555
Ce7 Se6 2.711500 1_645
Ce7 Se12 2.756180 1_655
Ce7 Se18 2.759494 1_555
Ce8 Se2 2.680700 1_555
Ce8 Se8 2.711500 1_655
Ce8 Se14 2.756180 1_655
Ce8 Se20 2.759494 1_555
Ce9 Se4 2.680700 1_555
Ce9 Se10 2.711500 1_654
Ce9 Se16 2.756180 1_655
Ce9 Se22 2.759494 1_555
Ce10 Se3 2.680700 1_555
Ce10 Se9 2.711500 1_665
Ce10 Se15 2.756180 1_655
Ce10 Se21 2.759494 1_555
Ce11 Se5 2.680700 1_555
Ce11 Se11 2.711500 1_655
Ce11 Se17 2.756180 1_655
Ce11 Se23 2.759494 1_555
