# generated using pymatgen
data_Li4Ti2Co3Sn3O16
_symmetry_space_group_name_H-M   'P 1'
_cell_length_a   6.02581621
_cell_length_b   11.30489954
_cell_length_c   10.64384707
_cell_angle_alpha   63.24163955
_cell_angle_beta   89.65267614
_cell_angle_gamma   104.60057798
_symmetry_Int_Tables_number   1
_chemical_formula_structural   Li4Ti2Co3Sn3O16
_chemical_formula_sum   'Li8 Ti4 Co6 Sn6 O32'
_cell_volume   620.49294256
_cell_formula_units_Z   2
loop_
 _symmetry_equiv_pos_site_id
 _symmetry_equiv_pos_as_xyz
  1  'x, y, z'
loop_
 _atom_site_type_symbol
 _atom_site_label
 _atom_site_symmetry_multiplicity
 _atom_site_fract_x
 _atom_site_fract_y
 _atom_site_fract_z
 _atom_site_occupancy
  Li  Li0  1  0.96056618  0.89087254  0.71571546  1
  Li  Li1  1  0.46158627  0.89175771  0.21462191  1
  Li  Li2  1  0.46772569  0.98908924  0.50979545  1
  Li  Li3  1  0.96433426  0.98880718  0.01145939  1
  Li  Li4  1  0.23221230  0.49810242  0.75831559  1
  Li  Li5  1  0.73280882  0.49855187  0.25636201  1
  Li  Li6  1  0.20086448  0.40206608  0.13291212  1
  Li  Li7  1  0.70004646  0.40184108  0.63374189  1
  Ti  Ti0  1  0.76491019  0.49385181  0.91376345  1
  Ti  Ti1  1  0.26044125  0.49428464  0.41472196  1
  Ti  Ti2  1  0.51341068  0.98946767  0.82499662  1
  Ti  Ti3  1  0.02318056  0.98787965  0.32496013  1
  Co  Co0  1  0.85142525  0.21298905  0.97830311  1
  Co  Co1  1  0.36987669  0.71819698  0.81323810  1
  Co  Co2  1  0.60384559  0.71255533  0.05429847  1
  Co  Co3  1  0.35296778  0.21693077  0.47778754  1
  Co  Co4  1  0.85921401  0.71638919  0.31302172  1
  Co  Co5  1  0.10670138  0.71421301  0.55245194  1
  Sn  Sn0  1  0.11265853  0.71398854  0.05867674  1
  Sn  Sn1  1  0.61353730  0.71222445  0.56053284  1
  Sn  Sn2  1  0.36368115  0.21483786  0.97657811  1
  Sn  Sn3  1  0.86414834  0.21321259  0.47660721  1
  Sn  Sn4  1  0.61212620  0.21502476  0.22137768  1
  Sn  Sn5  1  0.10524089  0.21394179  0.72325527  1
  O  O0  1  0.43968155  0.34163429  0.07293656  1
  O  O1  1  0.93678754  0.34102690  0.57258000  1
  O  O2  1  0.56133437  0.10018965  0.11177212  1
  O  O3  1  0.05394160  0.09742602  0.61585158  1
  O  O4  1  0.14260127  0.31041178  0.84879803  1
  O  O5  1  0.65231884  0.31194650  0.34567704  1
  O  O6  1  0.38363369  0.80232750  0.60018394  1
  O  O7  1  0.88018893  0.80203415  0.10035371  1
  O  O8  1  0.79181069  0.08855504  0.37302385  1
  O  O9  1  0.29226050  0.09009679  0.87252101  1
  O  O10  1  0.04291372  0.59466011  0.80273120  1
  O  O11  1  0.53761706  0.59190200  0.30236882  1
  O  O12  1  0.32170234  0.60761040  0.02768513  1
  O  O13  1  0.82539053  0.60787626  0.52730689  1
  O  O14  1  0.63965871  0.84765323  0.82424290  1
  O  O15  1  0.14721168  0.85018036  0.32574779  1
  O  O16  1  0.54758887  0.59537096  0.78722862  1
  O  O17  1  0.04364645  0.59805661  0.28771729  1
  O  O18  1  0.78525593  0.59786496  0.03903283  1
  O  O19  1  0.28540890  0.59757554  0.53943693  1
  O  O20  1  0.67141713  0.35331146  0.84532009  1
  O  O21  1  0.17134227  0.35458539  0.34530763  1
  O  O22  1  0.89246383  0.35440919  0.06745855  1
  O  O23  1  0.38870716  0.35412731  0.56993570  1
  O  O24  1  0.20682932  0.84728805  0.83928322  1
  O  O25  1  0.70902247  0.84247628  0.33789518  1
  O  O26  1  0.43937057  0.83649150  0.05885566  1
  O  O27  1  0.93913824  0.83727361  0.55749518  1
  O  O28  1  0.04951992  0.09069107  0.12305650  1
  O  O29  1  0.54970052  0.09080962  0.62429854  1
  O  O30  1  0.29291657  0.09059875  0.36291007  1
  O  O31  1  0.78864855  0.08813654  0.86535875  1
loop_
_geom_bond_atom_site_label_1
_geom_bond_atom_site_label_2
_geom_bond_distance
_geom_bond_site_symmetry_2
Li0 O24 1.995855 1_655
Li0 O3 1.998589 1_665
Li0 O27 2.025332 1_555
Li0 O14 2.073831 1_555
Li1 O25 2.009817 1_555
Li1 O26 2.012546 1_555
Li1 O2 2.016709 1_565
Li1 O15 2.057156 1_555
Li2 O6 1.807124 1_555
Li2 O30 1.970947 1_565
Li2 O29 2.008638 1_565
Li2 O8 2.140524 1_565
Li3 O7 1.807225 1_555
Li3 O31 1.961330 1_564
Li3 O28 1.985517 1_665
Li3 O9 2.168370 1_664
Li4 O4 1.815826 1_555
Li4 O10 1.949888 1_555
Li4 O16 2.042949 1_555
Li4 O19 2.060350 1_555
Li5 O5 1.806086 1_555
Li5 O11 1.954749 1_555
Li5 O17 2.041681 1_655
Li5 O18 2.045736 1_555
Li6 O0 1.955092 1_555
Li6 O12 1.994403 1_555
Li6 O22 2.019418 1_455
Li6 O21 2.069990 1_555
Li7 O1 1.953900 1_555
Li7 O13 2.001434 1_555
Li7 O23 2.026565 1_555
Li7 O20 2.058479 1_555
Co0 O4 1.954738 1_655
Co0 O2 1.978573 1_556
Co0 O20 2.135594 1_555
Co0 O28 2.155559 1_656
Co0 O22 2.165013 1_556
Co0 O31 2.201064 1_555
Co1 O14 1.937909 1_555
Co1 O6 2.017385 1_555
Co1 O12 2.024025 1_556
Co1 O16 2.060002 1_555
Co1 O24 2.062945 1_555
Co1 O10 2.144941 1_555
Co2 O7 1.908819 1_555
Co2 O12 1.915673 1_555
Co2 O26 1.925710 1_555
Co2 O18 1.950526 1_555
Co2 O14 2.198874 1_554
Co2 O11 2.336953 1_555
Co3 O5 2.004303 1_555
Co3 O3 2.045575 1_555
Co3 O21 2.123508 1_555
Co3 O23 2.148933 1_555
Co3 O29 2.177735 1_555
Co3 O30 2.232257 1_555
Co4 O25 1.976921 1_555
Co4 O7 2.009644 1_555
Co4 O13 2.024208 1_555
Co4 O17 2.041455 1_655
Co4 O15 2.044917 1_655
Co4 O11 2.126074 1_555
Co5 O13 1.912604 1_455
Co5 O6 1.913902 1_555
Co5 O27 1.931984 1_455
Co5 O19 1.948330 1_555
Co5 O15 2.169958 1_555
Co5 O10 2.356821 1_555
O0 Sn2 2.077229 1_554
O0 Sn4 2.087623 1_555
O0 Ti0 2.303595 1_554
O1 Sn3 2.082922 1_555
O1 Sn5 2.084876 1_655
O1 Ti1 2.294322 1_655
O2 Sn2 2.070914 1_554
O2 Sn4 2.075518 1_555
O3 Sn3 2.060660 1_455
O3 Sn5 2.071803 1_555
O4 Sn2 2.053367 1_555
O4 Sn5 2.053715 1_555
O5 Sn3 2.038745 1_555
O5 Sn4 2.045729 1_555
O6 Sn1 2.055805 1_555
O7 Sn0 2.059805 1_655
O8 Sn3 2.118188 1_555
O8 Sn4 2.131997 1_555
O8 Ti3 2.194639 1_645
O9 Sn2 2.122912 1_555
O9 Sn5 2.137417 1_555
O9 Ti2 2.144797 1_545
O10 Ti0 1.817269 1_455
O11 Ti1 1.815416 1_555
O12 Sn0 2.063417 1_555
O13 Sn1 2.067781 1_555
O14 Ti2 1.943049 1_555
O15 Ti3 1.885944 1_555
O16 Ti0 2.057473 1_555
O16 Sn1 2.139782 1_555
O17 Ti1 2.067920 1_555
O17 Sn0 2.160956 1_555
O18 Ti0 2.125219 1_554
O18 Sn0 2.146092 1_655
O19 Ti1 2.111366 1_555
O19 Sn1 2.148302 1_555
O20 Ti0 1.992061 1_555
O20 Sn2 2.092087 1_555
O21 Ti1 1.989042 1_555
O21 Sn3 2.097574 1_455
O22 Ti0 2.013934 1_554
O22 Sn4 2.078572 1_555
O23 Ti1 2.028070 1_555
O23 Sn5 2.089257 1_555
O24 Ti2 2.073400 1_555
O24 Sn0 2.104781 1_556
O25 Ti3 2.128109 1_655
O25 Sn1 2.128178 1_555
O26 Sn0 2.102756 1_555
O26 Ti2 2.259882 1_554
O27 Sn1 2.099694 1_555
O27 Ti3 2.244278 1_655
O28 Ti3 1.910010 1_545
O28 Sn2 2.153751 1_554
O29 Ti2 1.894200 1_545
O29 Sn3 2.158595 1_555
O30 Ti3 1.905842 1_545
O30 Sn4 2.154193 1_555
O31 Ti2 1.920144 1_545
O31 Sn5 2.147088 1_655
