# generated using pymatgen
data_YB6(HO4)3
_symmetry_space_group_name_H-M   'P 1'
_cell_length_a   8.45310450
_cell_length_b   8.45310450
_cell_length_c   8.45310503
_cell_angle_alpha   60.58577288
_cell_angle_beta   60.58577288
_cell_angle_gamma   60.58577974
_symmetry_Int_Tables_number   1
_chemical_formula_structural   YB6(HO4)3
_chemical_formula_sum   'Y2 B12 H6 O24'
_cell_volume   432.75512431
_cell_formula_units_Z   2
loop_
 _symmetry_equiv_pos_site_id
 _symmetry_equiv_pos_as_xyz
  1  'x, y, z'
loop_
 _atom_site_type_symbol
 _atom_site_label
 _atom_site_symmetry_multiplicity
 _atom_site_fract_x
 _atom_site_fract_y
 _atom_site_fract_z
 _atom_site_occupancy
  Y  Y0  1  0.53435700  0.53435700  0.53435700  1
  Y  Y1  1  0.03435700  0.03435700  0.03435700  1
  B  B0  1  0.63484100  0.41149400  0.15654100  1
  B  B1  1  0.41149400  0.15654100  0.63484100  1
  B  B2  1  0.15654100  0.63484100  0.41149400  1
  B  B3  1  0.13484100  0.65654100  0.91149400  1
  B  B4  1  0.65654100  0.91149400  0.13484100  1
  B  B5  1  0.91149400  0.13484100  0.65654100  1
  B  B6  1  0.44727400  0.74600200  0.16151100  1
  B  B7  1  0.74600200  0.16151100  0.44727400  1
  B  B8  1  0.16151100  0.44727400  0.74600200  1
  B  B9  1  0.94727400  0.66151100  0.24600200  1
  B  B10  1  0.66151100  0.24600200  0.94727400  1
  B  B11  1  0.24600200  0.94727400  0.66151100  1
  H  H0  1  0.53266300  0.88419500  0.53209800  1
  H  H1  1  0.88419500  0.53209800  0.53266300  1
  H  H2  1  0.53209800  0.53266300  0.88419500  1
  H  H3  1  0.03266300  0.03209800  0.38419500  1
  H  H4  1  0.03209800  0.38419500  0.03266300  1
  H  H5  1  0.38419500  0.03266300  0.03209800  1
  O  O0  1  0.19730300  0.59234400  0.76229800  1
  O  O1  1  0.59234400  0.76229800  0.19730300  1
  O  O2  1  0.76229800  0.19730300  0.59234400  1
  O  O3  1  0.69730300  0.26229800  0.09234400  1
  O  O4  1  0.26229800  0.09234400  0.69730300  1
  O  O5  1  0.09234400  0.69730300  0.26229800  1
  O  O6  1  0.43276800  0.84104000  0.55171800  1
  O  O7  1  0.84104000  0.55171800  0.43276800  1
  O  O8  1  0.55171800  0.43276800  0.84104000  1
  O  O9  1  0.93276800  0.05171800  0.34104000  1
  O  O10  1  0.05171800  0.34104000  0.93276800  1
  O  O11  1  0.34104000  0.93276800  0.05171800  1
  O  O12  1  0.31862200  0.67421700  0.36361000  1
  O  O13  1  0.67421700  0.36361000  0.31862200  1
  O  O14  1  0.36361000  0.31862200  0.67421700  1
  O  O15  1  0.81862200  0.86361000  0.17421700  1
  O  O16  1  0.86361000  0.17421700  0.81862200  1
  O  O17  1  0.17421700  0.81862200  0.86361000  1
  O  O18  1  0.53701600  0.59742700  0.06955700  1
  O  O19  1  0.59742700  0.06955700  0.53701600  1
  O  O20  1  0.06955700  0.53701600  0.59742700  1
  O  O21  1  0.03701600  0.56955700  0.09742700  1
  O  O22  1  0.56955700  0.09742700  0.03701600  1
  O  O23  1  0.09742700  0.03701600  0.56955700  1
loop_
_geom_bond_atom_site_label_1
_geom_bond_atom_site_label_2
_geom_bond_distance
_geom_bond_site_symmetry_2
B0 O18 1.371210 1_555
B0 O3 1.378603 1_555
B0 O13 1.386595 1_555
B1 O19 1.371210 1_555
B1 O4 1.378603 1_555
B1 O14 1.386595 1_555
B2 O20 1.371209 1_555
B2 O5 1.378603 1_555
B2 O12 1.386595 1_555
B3 O21 1.371209 1_556
B3 O0 1.378603 1_555
B3 O17 1.386595 1_555
B4 O22 1.371210 1_565
B4 O1 1.378603 1_555
B4 O15 1.386595 1_555
B5 O23 1.371210 1_655
B5 O2 1.378603 1_555
B5 O16 1.386595 1_555
B6 O11 1.465300 1_555
B6 O1 1.478376 1_555
B6 O18 1.483536 1_555
B6 O12 1.508139 1_555
B7 O9 1.465300 1_555
B7 O2 1.478376 1_555
B7 O19 1.483536 1_555
B7 O13 1.508139 1_555
B8 O10 1.465300 1_555
B8 O0 1.478376 1_555
B8 O20 1.483536 1_555
B8 O14 1.508139 1_555
B9 O7 1.465300 1_555
B9 O5 1.478376 1_655
B9 O21 1.483536 1_655
B9 O15 1.508139 1_555
B10 O8 1.465300 1_555
B10 O3 1.478376 1_556
B10 O22 1.483536 1_556
B10 O16 1.508139 1_555
B11 O6 1.465300 1_555
B11 O4 1.478376 1_565
B11 O23 1.483536 1_565
B11 O17 1.508139 1_555
H0 O6 0.989552 1_555
H1 O7 0.989552 1_555
H2 O8 0.989552 1_555
H3 O9 0.989552 1_455
H4 O10 0.989552 1_554
H5 O11 0.989552 1_545
O0 Y0 2.496834 1_555
O1 Y0 2.496834 1_555
O2 Y0 2.496834 1_555
O3 Y1 2.496834 1_655
O4 Y1 2.496834 1_556
O5 Y1 2.496834 1_565
O6 Y0 2.354327 1_555
O7 Y0 2.354327 1_555
O8 Y0 2.354327 1_555
O9 Y1 2.354327 1_655
O10 Y1 2.354327 1_556
O11 Y1 2.354327 1_565
O12 Y0 2.366046 1_555
O13 Y0 2.366046 1_555
O14 Y0 2.366046 1_555
O15 Y1 2.366046 1_665
O16 Y1 2.366046 1_656
O17 Y1 2.366046 1_566
