# generated using pymatgen
data_LiAl4Cd2O8
_symmetry_space_group_name_H-M   'P 1'
_cell_length_a   5.89026737
_cell_length_b   5.89026737
_cell_length_c   6.30234034
_cell_angle_alpha   62.14030945
_cell_angle_beta   62.14030945
_cell_angle_gamma   60.00000000
_symmetry_Int_Tables_number   1
_chemical_formula_structural   LiAl4Cd2O8
_chemical_formula_sum   'Li1 Al4 Cd2 O8'
_cell_volume   159.43140318
_cell_formula_units_Z   1
loop_
 _symmetry_equiv_pos_site_id
 _symmetry_equiv_pos_as_xyz
  1  'x, y, z'
loop_
 _atom_site_type_symbol
 _atom_site_label
 _atom_site_symmetry_multiplicity
 _atom_site_fract_x
 _atom_site_fract_y
 _atom_site_fract_z
 _atom_site_occupancy
  Li  Li0  1  0.00000000  0.00000000  0.50000000  1
  Al  Al0  1  0.50000000  0.50000000  0.00000000  1
  Al  Al1  1  0.50000000  0.00000000  0.50000000  1
  Al  Al2  1  0.00000000  0.50000000  0.50000000  1
  Al  Al3  1  0.50000000  0.50000000  0.50000000  1
  Cd  Cd0  1  0.14962100  0.14962100  0.05113700  1
  Cd  Cd1  1  0.85037900  0.85037900  0.94886300  1
  O  O0  1  0.28125300  0.28125300  0.65624200  1
  O  O1  1  0.26084200  0.70107800  0.27723800  1
  O  O2  1  0.70107800  0.26084200  0.27723800  1
  O  O3  1  0.26084200  0.26084200  0.27723800  1
  O  O4  1  0.71874700  0.71874700  0.34375800  1
  O  O5  1  0.73915800  0.29892200  0.72276200  1
  O  O6  1  0.29892200  0.73915800  0.72276200  1
  O  O7  1  0.73915800  0.73915800  0.72276200  1
loop_
_geom_bond_atom_site_label_1
_geom_bond_atom_site_label_2
_geom_bond_distance
_geom_bond_site_symmetry_2
Li0 O7 2.240727 1_445
Li0 O6 2.240727 1_545
Li0 O2 2.240727 1_455
Li0 O3 2.240727 1_555
Li0 O1 2.240727 1_545
Li0 O5 2.240727 1_455
Al0 O3 2.098899 1_555
Al0 O7 2.098899 1_554
Al0 O2 2.098899 1_555
Al0 O6 2.098899 1_554
Al0 O1 2.098899 1_555
Al0 O5 2.098899 1_554
Al1 O4 1.891711 1_545
Al1 O0 1.891711 1_555
Al1 O6 1.996020 1_545
Al1 O2 1.996020 1_555
Al1 O7 1.996020 1_545
Al1 O3 1.996020 1_555
Al2 O0 1.891711 1_555
Al2 O4 1.891711 1_455
Al2 O7 1.996020 1_455
Al2 O3 1.996020 1_555
Al2 O1 1.996020 1_555
Al2 O5 1.996020 1_455
Al3 O0 1.891706 1_555
Al3 O4 1.891706 1_555
Al3 O6 1.996020 1_555
Al3 O1 1.996020 1_555
Al3 O5 1.996020 1_555
Al3 O2 1.996020 1_555
Cd0 O0 2.095342 1_554
Cd0 O1 2.250123 1_545
Cd0 O2 2.250123 1_455
Cd0 O3 2.250123 1_555
Cd1 O4 2.095342 1_556
Cd1 O7 2.250123 1_555
Cd1 O5 2.250123 1_565
Cd1 O6 2.250123 1_655
