# generated using pymatgen
data_La5Si4
_symmetry_space_group_name_H-M   'P 1'
_cell_length_a   8.04602223
_cell_length_b   8.04602119
_cell_length_c   15.69580815
_cell_angle_alpha   90.00000000
_cell_angle_beta   90.00000000
_cell_angle_gamma   90.00747777
_symmetry_Int_Tables_number   1
_chemical_formula_structural   La5Si4
_chemical_formula_sum   'La20 Si16'
_cell_volume   1016.12252280
_cell_formula_units_Z   4
loop_
 _symmetry_equiv_pos_site_id
 _symmetry_equiv_pos_as_xyz
  1  'x, y, z'
loop_
 _atom_site_type_symbol
 _atom_site_label
 _atom_site_symmetry_multiplicity
 _atom_site_fract_x
 _atom_site_fract_y
 _atom_site_fract_z
 _atom_site_occupancy
  La  La0  1  0.37407419  0.47728986  0.37498333  1
  La  La1  1  0.87403503  0.02245753  0.37512249  1
  La  La2  1  0.97754247  0.12596497  0.12487751  1
  La  La3  1  0.02245753  0.87403503  0.62487751  1
  La  La4  1  0.62592581  0.52271014  0.87498333  1
  La  La5  1  0.47728986  0.37407419  0.62501667  1
  La  La6  1  0.52271014  0.62592581  0.12501667  1
  La  La7  1  0.12596497  0.97754247  0.87512249  1
  La  La8  1  0.98838751  0.62055047  0.05284708  1
  La  La9  1  0.01161249  0.37944953  0.55284708  1
  La  La10  1  0.62055147  0.98838751  0.94715292  1
  La  La11  1  0.12077336  0.51173858  0.80199465  1
  La  La12  1  0.87922664  0.48826142  0.30199465  1
  La  La13  1  0.51173858  0.12077436  0.19800535  1
  La  La14  1  0.48826142  0.87922564  0.69800535  1
  La  La15  1  0.37944853  0.01161249  0.44715292  1
  La  La16  1  0.69265218  0.69265218  0.50000000  1
  La  La17  1  0.80758935  0.19240965  0.75000000  1
  La  La18  1  0.19241065  0.80759035  0.25000000  1
  La  La19  1  0.30734782  0.30734782  -0.00000000  1
  Si  Si0  1  0.08011612  0.71113331  0.44125031  1
  Si  Si1  1  0.91988388  0.28886569  0.94125031  1
  Si  Si2  1  0.71113331  0.08011712  0.55874969  1
  Si  Si3  1  0.21073964  0.41997356  0.19090972  1
  Si  Si4  1  0.78926136  0.58002644  0.69090972  1
  Si  Si5  1  0.41997356  0.21073964  0.80909028  1
  Si  Si6  1  0.58002644  0.78926136  0.30909028  1
  Si  Si7  1  0.28886569  0.91988288  0.05874969  1
  Si  Si8  1  0.82883949  0.80453202  0.79395398  1
  Si  Si9  1  0.17116051  0.19546798  0.29395398  1
  Si  Si10  1  0.80453202  0.82883949  0.20604602  1
  Si  Si11  1  0.30416829  0.67155405  0.54442928  1
  Si  Si12  1  0.69583171  0.32844595  0.04442928  1
  Si  Si13  1  0.67155405  0.30416929  0.45556972  1
  Si  Si14  1  0.32844595  0.69583071  0.95556972  1
  Si  Si15  1  0.19546798  0.17116051  0.70604602  1
loop_
_geom_bond_atom_site_label_1
_geom_bond_atom_site_label_2
_geom_bond_distance
_geom_bond_site_symmetry_2
La0 Si13 3.044668 1_555
La0 Si9 3.069831 1_555
La0 Si11 3.135787 1_555
La0 Si6 3.180455 1_555
La0 Si0 3.196438 1_555
La0 Si3 3.207336 1_555
La1 Si9 3.045547 1_655
La1 Si13 3.063864 1_555
La1 Si10 3.127623 1_545
La1 Si0 3.178430 1_645
La1 Si6 3.192114 1_545
La1 Si2 3.200047 1_555
La2 Si10 3.045547 1_545
La2 Si12 3.063864 1_555
La2 Si9 3.127623 1_655
La2 Si7 3.178428 1_645
La2 Si3 3.192119 1_655
La2 Si1 3.200042 1_554
La3 Si15 3.045547 1_565
La3 Si11 3.063864 1_555
La3 Si8 3.127623 1_455
La3 Si2 3.178434 1_465
La3 Si4 3.192114 1_455
La3 Si0 3.200045 1_555
La4 Si14 3.044668 1_555
La4 Si8 3.069831 1_555
La4 Si12 3.135787 1_556
La4 Si5 3.180449 1_555
La4 Si1 3.196443 1_555
La4 Si4 3.207340 1_555
La5 Si11 3.044678 1_555
La5 Si15 3.069831 1_555
La5 Si13 3.135799 1_555
La5 Si4 3.180455 1_555
La5 Si2 3.196432 1_555
La5 Si5 3.207336 1_555
La6 Si12 3.044678 1_555
La6 Si10 3.069831 1_555
La6 Si14 3.135799 1_554
La6 Si3 3.180449 1_555
La6 Si7 3.196436 1_555
La6 Si6 3.207340 1_555
La7 Si8 3.045547 1_455
La7 Si14 3.063864 1_555
La7 Si15 3.127623 1_565
La7 Si1 3.178424 1_465
La7 Si5 3.192119 1_565
La7 Si7 3.200043 1_556
La8 Si14 3.191246 1_654
La8 Si1 3.239400 1_554
La8 Si3 3.240658 1_655
La8 Si10 3.283236 1_555
La8 Si12 3.328771 1_555
La8 Si7 3.413601 1_655
La9 Si13 3.191246 1_455
La9 Si0 3.239393 1_555
La9 Si4 3.240653 1_455
La9 Si15 3.283236 1_555
La9 Si11 3.328771 1_555
La9 Si2 3.413607 1_455
La10 Si12 3.191238 1_566
La10 Si7 3.239408 1_556
La10 Si5 3.240662 1_565
La10 Si8 3.283231 1_555
La10 Si14 3.328782 1_555
La10 Si1 3.413601 1_565
La11 Si15 3.184159 1_555
La11 Si4 3.233740 1_455
La11 Si1 3.256531 1_455
La11 Si14 3.285697 1_555
La11 Si8 3.329359 1_455
La11 Si5 3.416825 1_555
La12 Si10 3.184159 1_555
La12 Si3 3.233746 1_655
La12 Si0 3.256526 1_655
La12 Si13 3.285697 1_555
La12 Si9 3.329359 1_655
La12 Si6 3.416830 1_555
La13 Si9 3.184158 1_555
La13 Si6 3.233746 1_545
La13 Si7 3.256539 1_545
La13 Si12 3.285708 1_555
La13 Si10 3.329365 1_545
La13 Si3 3.416819 1_555
La14 Si8 3.184158 1_555
La14 Si5 3.233753 1_565
La14 Si2 3.256534 1_565
La14 Si11 3.285708 1_555
La14 Si15 3.329365 1_565
La14 Si4 3.416825 1_555
La15 Si11 3.191238 1_545
La15 Si2 3.239402 1_555
La15 Si6 3.240657 1_545
La15 Si9 3.283231 1_555
La15 Si13 3.328782 1_555
La15 Si0 3.413607 1_545
La16 Si13 3.207064 1_555
La16 Si11 3.207069 1_555
La16 Si4 3.225600 1_555
La16 Si6 3.225600 1_555
La16 Si0 3.254440 1_655
La16 Si2 3.254447 1_565
La17 Si8 3.200807 1_545
La17 Si15 3.200815 1_655
La17 Si2 3.229462 1_555
La17 Si1 3.229467 1_555
La17 Si5 3.257110 1_555
La17 Si4 3.257117 1_555
La18 Si9 3.200807 1_565
La18 Si10 3.200815 1_455
La18 Si7 3.229461 1_555
La18 Si0 3.229469 1_555
La18 Si6 3.257110 1_555
La18 Si3 3.257117 1_555
La19 Si14 3.207064 1_554
La19 Si12 3.207069 1_555
La19 Si3 3.225598 1_555
La19 Si5 3.225598 1_554
La19 Si1 3.254440 1_454
La19 Si7 3.254448 1_545
Si0 Si11 2.444198 1_555
Si1 Si12 2.444199 1_556
Si3 Si9 2.445429 1_555
Si4 Si8 2.445428 1_555
Si10 Si6 2.445428 1_555
Si13 Si2 2.444208 1_555
Si14 Si7 2.444209 1_556
Si15 Si5 2.445429 1_555
