# generated using pymatgen
data_Fe5(O4F)2
_symmetry_space_group_name_H-M   'P 1'
_cell_length_a   4.66147900
_cell_length_b   7.60707122
_cell_length_c   9.78461721
_cell_angle_alpha   70.21895897
_cell_angle_beta   88.51444751
_cell_angle_gamma   88.98942883
_symmetry_Int_Tables_number   1
_chemical_formula_structural   Fe5(O4F)2
_chemical_formula_sum   'Fe10 O16 F4'
_cell_volume   326.36688378
_cell_formula_units_Z   2
loop_
 _symmetry_equiv_pos_site_id
 _symmetry_equiv_pos_as_xyz
  1  'x, y, z'
loop_
 _atom_site_type_symbol
 _atom_site_label
 _atom_site_symmetry_multiplicity
 _atom_site_fract_x
 _atom_site_fract_y
 _atom_site_fract_z
 _atom_site_occupancy
  Fe  Fe0  1  0.51360900  0.68800000  0.89849100  1
  Fe  Fe1  1  0.47560400  0.89769300  0.29597100  1
  Fe  Fe2  1  0.52136800  0.10552200  0.69348600  1
  Fe  Fe3  1  0.47459300  0.29538100  0.09525000  1
  Fe  Fe4  1  0.48719500  0.50145600  0.49209200  1
  Fe  Fe5  1  0.01273100  0.39059200  0.80590300  1
  Fe  Fe6  1  0.03009800  0.80375100  0.61254700  1
  Fe  Fe7  1  0.02621500  0.20844200  0.40897400  1
  Fe  Fe8  1  0.00006900  0.60905700  0.19497600  1
  Fe  Fe9  1  0.97079600  0.00034000  0.00355200  1
  O  O0  1  0.18171800  0.22073000  0.98218500  1
  O  O1  1  0.20889100  0.04246700  0.58010800  1
  O  O2  1  0.18823900  0.45189100  0.36860900  1
  O  O3  1  0.19994200  0.62740800  0.78313600  1
  O  O4  1  0.17493800  0.85027900  0.16949400  1
  O  O5  1  0.31538700  0.34383100  0.67398000  1
  O  O6  1  0.30433100  0.53240500  0.07717500  1
  O  O7  1  0.30573700  0.14038500  0.28010200  1
  O  O8  1  0.30830700  0.74079300  0.47769400  1
  O  O9  1  0.70058000  0.85936800  0.72312300  1
  O  O10  1  0.70522000  0.27353900  0.51681800  1
  O  O11  1  0.68345000  0.66573800  0.32025400  1
  O  O12  1  0.67512300  0.06259500  0.12861600  1
  O  O13  1  0.69500700  0.44669700  0.92669700  1
  O  O14  1  0.80945100  0.15459700  0.82492300  1
  O  O15  1  0.80303300  0.76477900  0.01926500  1
  F  F0  1  0.30473600  0.93501900  0.87741300  1
  F  F1  1  0.81078800  0.56304600  0.62130200  1
  F  F2  1  0.81250200  0.96350200  0.42523500  1
  F  F3  1  0.80034100  0.36069500  0.22262600  1
loop_
_geom_bond_atom_site_label_1
_geom_bond_atom_site_label_2
_geom_bond_distance
_geom_bond_site_symmetry_2
Fe0 O13 1.942960 1_555
Fe0 O9 1.962615 1_555
Fe0 O6 1.990230 1_556
Fe0 O3 2.021334 1_555
Fe0 O15 2.033575 1_556
Fe1 O12 1.921417 1_565
Fe1 O8 1.928425 1_555
Fe1 O11 1.943317 1_555
Fe1 O7 1.954547 1_565
Fe1 O4 2.008926 1_555
Fe2 O10 1.955152 1_555
Fe2 O9 1.969294 1_545
Fe2 O5 1.989635 1_555
Fe2 O14 2.007205 1_555
Fe2 O1 2.012723 1_555
Fe3 O6 1.911329 1_555
Fe3 O12 1.918933 1_555
Fe3 O13 1.941523 1_554
Fe3 O7 1.948498 1_555
Fe3 O0 1.985224 1_554
Fe4 O5 1.939611 1_555
Fe4 O11 1.940117 1_555
Fe4 O10 1.940132 1_555
Fe4 O8 1.951645 1_555
Fe4 O2 1.989531 1_555
Fe5 O0 1.947122 1_555
Fe5 O3 1.957105 1_555
Fe5 O14 1.995027 1_455
Fe5 O5 1.995451 1_555
Fe5 O13 2.000254 1_455
Fe6 O3 1.930779 1_555
Fe6 O1 1.934557 1_565
Fe6 O9 1.977312 1_455
Fe6 O8 1.992326 1_555
Fe7 O2 1.922208 1_555
Fe7 O1 1.930841 1_555
Fe7 O10 1.960439 1_455
Fe7 O7 1.971980 1_555
Fe8 O2 1.936650 1_555
Fe8 O4 1.956114 1_555
Fe8 O15 1.966654 1_455
Fe8 O6 2.005283 1_555
Fe8 O11 2.026894 1_455
Fe9 O0 1.905618 1_654
Fe9 O4 1.905841 1_645
Fe9 O14 1.909535 1_554
Fe9 O15 1.924300 1_545
Fe9 O12 1.975637 1_555
F0 Fe0 2.050632 1_555
F0 Fe2 2.076740 1_565
F0 Fe9 2.116977 1_466
F1 Fe5 2.076160 1_655
F1 Fe6 2.088194 1_655
F1 Fe4 2.148944 1_555
F2 Fe7 2.084745 1_665
F2 Fe6 2.100023 1_655
F2 Fe1 2.208146 1_555
F3 Fe8 2.052440 1_655
F3 Fe7 2.098040 1_655
F3 Fe3 2.156339 1_555
