# generated using pymatgen
data_Eu4Zn51
_symmetry_space_group_name_H-M   'P 1'
_cell_length_a   8.60652190
_cell_length_b   8.60652190
_cell_length_c   14.80378362
_cell_angle_alpha   73.10093896
_cell_angle_beta   90.00000000
_cell_angle_gamma   120.00000000
_symmetry_Int_Tables_number   1
_chemical_formula_structural   Eu4Zn51
_chemical_formula_sum   'Eu4 Zn51'
_cell_volume   894.54574824
_cell_formula_units_Z   1
loop_
 _symmetry_equiv_pos_site_id
 _symmetry_equiv_pos_as_xyz
  1  'x, y, z'
loop_
 _atom_site_type_symbol
 _atom_site_label
 _atom_site_symmetry_multiplicity
 _atom_site_fract_x
 _atom_site_fract_y
 _atom_site_fract_z
 _atom_site_occupancy
  Eu  Eu0  1  0.87493000  0.74986000  0.37521000  1
  Eu  Eu1  1  0.37456800  0.74913600  0.87629600  1
  Eu  Eu2  1  0.62507000  0.25014000  0.12479000  1
  Eu  Eu3  1  0.12543200  0.25086400  0.62370400  1
  Zn  Zn0  1  0.33842900  0.44208700  0.10272600  1
  Zn  Zn1  1  0.84257400  0.44151200  0.59871600  1
  Zn  Zn2  1  0.16157100  0.55791300  0.39727400  1
  Zn  Zn3  1  0.65742600  0.55848800  0.90128400  1
  Zn  Zn4  1  0.98454100  0.20472800  0.22160000  1
  Zn  Zn5  1  0.47861000  0.19743100  0.72087600  1
  Zn  Zn6  1  0.51545900  0.79527300  0.27840000  1
  Zn  Zn7  1  0.02139000  0.80256900  0.77912400  1
  Zn  Zn8  1  0.71051900  0.06001600  0.34914100  1
  Zn  Zn9  1  0.20954500  0.05920900  0.84978600  1
  Zn  Zn10  1  0.78948100  0.93998400  0.15085900  1
  Zn  Zn11  1  0.29045500  0.94079100  0.65021400  1
  Zn  Zn12  1  0.66840000  0.69923000  0.02943100  1
  Zn  Zn13  1  0.16918600  0.69959500  0.52920400  1
  Zn  Zn14  1  0.83160000  0.30077000  0.47056900  1
  Zn  Zn15  1  0.33081400  0.30040500  0.97079600  1
  Zn  Zn16  1  0.04481200  0.20638300  0.39727400  1
  Zn  Zn17  1  0.54022800  0.19765400  0.90128400  1
  Zn  Zn18  1  0.45518800  0.79361700  0.10272600  1
  Zn  Zn19  1  0.95977200  0.80234600  0.59871600  1
  Zn  Zn20  1  0.92632800  0.44178700  0.27840000  1
  Zn  Zn21  1  0.41830700  0.43969700  0.77912400  1
  Zn  Zn22  1  0.57367200  0.55821300  0.22160000  1
  Zn  Zn23  1  0.08169300  0.56030300  0.72087600  1
  Zn  Zn24  1  0.90915700  0.69863800  0.15085900  1
  Zn  Zn25  1  0.40899500  0.69945000  0.65021400  1
  Zn  Zn26  1  0.59084300  0.30136200  0.34914100  1
  Zn  Zn27  1  0.09100500  0.30055000  0.84978600  1
  Zn  Zn28  1  0.22866100  0.06026100  0.47056900  1
  Zn  Zn29  1  0.72880000  0.05961400  0.97079600  1
  Zn  Zn30  1  0.27133900  0.93973900  0.02943100  1
  Zn  Zn31  1  0.77120000  0.94038600  0.52920400  1
  Zn  Zn32  1  0.22018600  0.79385900  0.22160000  1
  Zn  Zn33  1  0.71882100  0.80051400  0.72087600  1
  Zn  Zn34  1  0.27981400  0.20614100  0.27840000  1
  Zn  Zn35  1  0.78117900  0.19948600  0.77912400  1
  Zn  Zn36  1  0.10365800  0.55884500  0.10272600  1
  Zn  Zn37  1  0.59893700  0.55871000  0.59871600  1
  Zn  Zn38  1  0.39634200  0.44115500  0.39727400  1
  Zn  Zn39  1  0.90106300  0.44129000  0.90128400  1
  Zn  Zn40  1  0.03083000  0.30216900  0.02943100  1
  Zn  Zn41  1  0.53041000  0.30161000  0.52920400  1
  Zn  Zn42  1  0.46917000  0.69783100  0.47056900  1
  Zn  Zn43  1  0.96959000  0.69839000  0.97079600  1
  Zn  Zn44  1  0.34949700  0.94034000  0.34914100  1
  Zn  Zn45  1  0.84966400  0.94066900  0.84978600  1
  Zn  Zn46  1  0.15050300  0.05966000  0.15085900  1
  Zn  Zn47  1  0.65033600  0.05933100  0.65021400  1
  Zn  Zn48  1  0.75000000  0.50000000  0.75000000  1
  Zn  Zn49  1  0.00001200  0.00002300  0.99996500  1
  Zn  Zn50  1  0.49998800  0.99997700  0.50003500  1
loop_
_geom_bond_atom_site_label_1
_geom_bond_atom_site_label_2
_geom_bond_distance
_geom_bond_site_symmetry_2
Eu0 Zn19 3.496291 1_555
Eu0 Zn1 3.496291 1_555
Eu0 Zn37 3.496295 1_555
Eu0 Zn24 3.506117 1_555
Eu0 Zn10 3.506117 1_555
Eu0 Zn46 3.506117 1_665
Eu0 Zn31 3.509989 1_555
Eu0 Zn41 3.509989 1_555
Eu0 Zn13 3.509992 1_655
Eu0 Zn26 3.529157 1_555
Eu0 Zn44 3.529157 1_655
Eu0 Zn8 3.529157 1_565
Eu0 Zn28 3.529506 1_665
Eu0 Zn42 3.529506 1_555
Eu0 Zn14 3.529506 1_555
Eu0 Zn32 3.538106 1_655
Eu0 Zn22 3.538113 1_555
Eu0 Zn4 3.538113 1_565
Eu0 Zn20 3.558340 1_555
Eu0 Zn6 3.558344 1_555
Eu0 Zn34 3.558344 1_665
Eu0 Zn16 3.561386 1_665
Eu0 Zn2 3.561393 1_655
Eu0 Zn38 3.561393 1_555
Eu1 Zn30 3.498424 1_556
Eu1 Zn12 3.498424 1_556
Eu1 Zn40 3.498424 1_556
Eu1 Zn36 3.513464 1_556
Eu1 Zn0 3.513464 1_556
Eu1 Zn18 3.513467 1_556
Eu1 Zn23 3.516524 1_555
Eu1 Zn33 3.516524 1_555
Eu1 Zn5 3.516524 1_565
Eu1 Zn39 3.520945 1_455
Eu1 Zn17 3.520952 1_565
Eu1 Zn3 3.520952 1_555
Eu1 Zn15 3.524014 1_555
Eu1 Zn29 3.524022 1_565
Eu1 Zn43 3.524022 1_455
Eu1 Zn25 3.525755 1_555
Eu1 Zn11 3.525755 1_555
Eu1 Zn47 3.525755 1_565
Eu1 Zn27 3.531887 1_555
Eu1 Zn45 3.531887 1_555
Eu1 Zn9 3.531887 1_565
Eu1 Zn21 3.540258 1_555
Eu1 Zn7 3.540258 1_555
Eu1 Zn35 3.540258 1_565
Eu2 Zn17 3.496291 1_554
Eu2 Zn3 3.496291 1_554
Eu2 Zn39 3.496295 1_554
Eu2 Zn26 3.506117 1_555
Eu2 Zn8 3.506117 1_555
Eu2 Zn44 3.506117 1_545
Eu2 Zn29 3.509989 1_554
Eu2 Zn43 3.509989 1_554
Eu2 Zn15 3.509992 1_554
Eu2 Zn24 3.529157 1_555
Eu2 Zn46 3.529157 1_555
Eu2 Zn10 3.529157 1_545
Eu2 Zn30 3.529506 1_545
Eu2 Zn40 3.529506 1_655
Eu2 Zn12 3.529506 1_555
Eu2 Zn34 3.538106 1_555
Eu2 Zn6 3.538106 1_545
Eu2 Zn20 3.538113 1_555
Eu2 Zn22 3.558340 1_555
Eu2 Zn4 3.558340 1_555
Eu2 Zn32 3.558344 1_545
Eu2 Zn18 3.561386 1_545
Eu2 Zn0 3.561393 1_555
Eu2 Zn36 3.561393 1_655
Eu3 Zn28 3.498424 1_555
Eu3 Zn14 3.498424 1_455
Eu3 Zn42 3.498424 1_555
Eu3 Zn38 3.513464 1_555
Eu3 Zn2 3.513464 1_555
Eu3 Zn16 3.513467 1_555
Eu3 Zn21 3.516524 1_555
Eu3 Zn35 3.516524 1_455
Eu3 Zn7 3.516524 1_545
Eu3 Zn37 3.520945 1_555
Eu3 Zn19 3.520952 1_445
Eu3 Zn1 3.520952 1_455
Eu3 Zn13 3.524014 1_555
Eu3 Zn31 3.524022 1_445
Eu3 Zn41 3.524022 1_555
Eu3 Zn27 3.525755 1_555
Eu3 Zn9 3.525755 1_555
Eu3 Zn45 3.525755 1_445
Eu3 Zn25 3.531887 1_555
Eu3 Zn47 3.531887 1_455
Eu3 Zn11 3.531887 1_545
Eu3 Zn23 3.540258 1_555
Eu3 Zn5 3.540258 1_555
Eu3 Zn33 3.540258 1_445
Zn0 Zn12 2.541484 1_555
Zn0 Zn15 2.571052 1_554
Zn0 Zn34 2.654577 1_555
Zn0 Zn36 2.668872 1_555
Zn0 Zn18 2.668878 1_555
Zn0 Zn22 2.682136 1_555
Zn0 Zn40 2.684698 1_555
Zn0 Zn46 2.696270 1_555
Zn0 Zn4 2.869602 1_455
Zn1 Zn14 2.509291 1_555
Zn1 Zn13 2.514301 1_655
Zn1 Zn48 2.638249 1_555
Zn1 Zn41 2.685556 1_555
Zn1 Zn47 2.690318 1_555
Zn1 Zn35 2.723225 1_555
Zn1 Zn23 2.742596 1_655
Zn1 Zn19 2.743949 1_555
Zn1 Zn37 2.743957 1_555
Zn1 Zn5 2.950713 1_555
Zn2 Zn32 2.654577 1_555
Zn2 Zn38 2.668872 1_555
Zn2 Zn20 2.682136 1_455
Zn2 Zn42 2.684698 1_555
Zn2 Zn44 2.696270 1_555
Zn2 Zn6 2.869602 1_555
Zn3 Zn48 2.638249 1_555
Zn3 Zn43 2.685556 1_555
Zn3 Zn45 2.690318 1_555
Zn3 Zn33 2.723225 1_555
Zn3 Zn39 2.743957 1_555
Zn3 Zn7 2.950713 1_655
Zn4 Zn8 2.524599 1_555
Zn4 Zn40 2.689600 1_655
Zn4 Zn46 2.690580 1_655
Zn5 Zn9 2.518907 1_555
Zn6 Zn8 2.582394 1_565
Zn7 Zn9 2.522251 1_565
Zn10 Zn6 2.524600 1_555
Zn10 Zn4 2.582400 1_565
Zn10 Zn49 2.632996 1_664
Zn10 Zn22 2.690581 1_555
Zn10 Zn18 2.696263 1_555
Zn10 Zn29 2.716697 1_564
Zn10 Zn46 2.741330 1_665
Zn10 Zn24 2.741330 1_555
Zn10 Zn40 2.744106 1_665
Zn10 Zn12 2.935453 1_555
Zn11 Zn7 2.518907 1_555
Zn11 Zn5 2.522251 1_565
Zn11 Zn50 2.622451 1_555
Zn11 Zn23 2.677832 1_555
Zn11 Zn19 2.690318 1_455
Zn11 Zn28 2.714722 1_565
Zn11 Zn41 2.733165 1_565
Zn11 Zn25 2.733919 1_555
Zn11 Zn47 2.733919 1_565
Zn11 Zn13 2.933090 1_555
Zn12 Zn3 2.509291 1_554
Zn12 Zn49 2.644346 1_664
Zn12 Zn18 2.684697 1_555
Zn12 Zn22 2.689600 1_555
Zn12 Zn45 2.714722 1_554
Zn12 Zn29 2.732465 1_564
Zn12 Zn43 2.737771 1_554
Zn12 Zn24 2.744106 1_555
Zn13 Zn2 2.571052 1_555
Zn13 Zn50 2.639380 1_555
Zn13 Zn23 2.678638 1_555
Zn13 Zn19 2.685562 1_455
Zn13 Zn44 2.716699 1_555
Zn13 Zn42 2.732460 1_555
Zn13 Zn25 2.733164 1_555
Zn13 Zn28 2.737779 1_565
Zn14 Zn2 2.541484 1_655
Zn14 Zn50 2.644346 1_545
Zn14 Zn16 2.684697 1_655
Zn14 Zn20 2.689600 1_555
Zn14 Zn47 2.714722 1_555
Zn14 Zn31 2.732465 1_545
Zn14 Zn41 2.737771 1_555
Zn14 Zn26 2.744106 1_555
Zn14 Zn8 2.935453 1_555
Zn15 Zn3 2.514301 1_555
Zn15 Zn49 2.639380 1_555
Zn15 Zn21 2.678638 1_555
Zn15 Zn17 2.685562 1_555
Zn15 Zn46 2.716699 1_556
Zn15 Zn40 2.732460 1_556
Zn15 Zn27 2.733164 1_555
Zn15 Zn30 2.737779 1_546
Zn15 Zn9 2.933090 1_555
Zn16 Zn28 2.541485 1_555
Zn16 Zn31 2.571052 1_445
Zn16 Zn4 2.654572 1_455
Zn16 Zn2 2.668878 1_555
Zn16 Zn38 2.668880 1_555
Zn16 Zn34 2.682144 1_555
Zn16 Zn8 2.696263 1_455
Zn16 Zn20 2.869602 1_455
Zn17 Zn30 2.509291 1_546
Zn17 Zn29 2.514303 1_555
Zn17 Zn48 2.638249 1_555
Zn17 Zn9 2.690318 1_555
Zn17 Zn5 2.723225 1_555
Zn17 Zn35 2.742596 1_555
Zn17 Zn3 2.743949 1_555
Zn17 Zn39 2.743956 1_555
Zn17 Zn21 2.950713 1_555
Zn18 Zn30 2.541485 1_555
Zn18 Zn29 2.571052 1_564
Zn18 Zn6 2.654574 1_555
Zn18 Zn36 2.668880 1_555
Zn18 Zn32 2.682144 1_555
Zn18 Zn22 2.869602 1_555
Zn19 Zn28 2.509291 1_665
Zn19 Zn31 2.514303 1_555
Zn19 Zn48 2.638249 1_555
Zn19 Zn7 2.723225 1_655
Zn19 Zn33 2.742596 1_555
Zn19 Zn37 2.743956 1_555
Zn19 Zn23 2.950713 1_655
Zn20 Zn24 2.524599 1_555
Zn20 Zn26 2.582400 1_555
Zn20 Zn36 2.654575 1_655
Zn20 Zn32 2.672122 1_655
Zn20 Zn4 2.672125 1_555
Zn20 Zn8 2.690581 1_555
Zn21 Zn25 2.518907 1_555
Zn21 Zn27 2.522251 1_555
Zn21 Zn48 2.644428 1_555
Zn21 Zn9 2.677832 1_555
Zn21 Zn37 2.723221 1_555
Zn21 Zn5 2.736390 1_555
Zn21 Zn33 2.736390 1_555
Zn21 Zn3 2.742596 1_555
Zn22 Zn26 2.524599 1_555
Zn22 Zn24 2.582400 1_555
Zn22 Zn38 2.654575 1_555
Zn22 Zn34 2.672122 1_555
Zn22 Zn6 2.672133 1_555
Zn23 Zn27 2.518907 1_555
Zn23 Zn25 2.522251 1_555
Zn23 Zn48 2.644428 1_455
Zn23 Zn39 2.723221 1_455
Zn23 Zn7 2.736390 1_555
Zn23 Zn35 2.736390 1_455
Zn24 Zn49 2.632991 1_664
Zn24 Zn32 2.690573 1_655
Zn24 Zn36 2.696270 1_655
Zn24 Zn43 2.716697 1_554
Zn24 Zn46 2.741330 1_665
Zn24 Zn30 2.935453 1_655
Zn25 Zn50 2.622456 1_555
Zn25 Zn33 2.677832 1_555
Zn25 Zn37 2.690311 1_555
Zn25 Zn42 2.714722 1_555
Zn25 Zn47 2.733919 1_565
Zn25 Zn31 2.933084 1_555
Zn26 Zn50 2.632991 1_545
Zn26 Zn34 2.690573 1_555
Zn26 Zn38 2.696270 1_555
Zn26 Zn41 2.716697 1_555
Zn26 Zn44 2.741330 1_545
Zn26 Zn8 2.741330 1_555
Zn26 Zn28 2.935453 1_555
Zn27 Zn49 2.622456 1_555
Zn27 Zn35 2.677832 1_455
Zn27 Zn39 2.690311 1_455
Zn27 Zn40 2.714722 1_556
Zn27 Zn9 2.733919 1_555
Zn27 Zn45 2.733919 1_445
Zn27 Zn29 2.933084 1_455
Zn28 Zn50 2.644341 1_545
Zn28 Zn38 2.684698 1_555
Zn28 Zn34 2.689599 1_555
Zn28 Zn41 2.732465 1_555
Zn28 Zn44 2.744106 1_545
Zn29 Zn49 2.639382 1_655
Zn29 Zn35 2.678638 1_555
Zn29 Zn39 2.685555 1_555
Zn29 Zn45 2.733165 1_545
Zn29 Zn40 2.737771 1_656
Zn30 Zn49 2.644341 1_564
Zn30 Zn36 2.684698 1_555
Zn30 Zn32 2.689599 1_555
Zn30 Zn9 2.714722 1_564
Zn30 Zn43 2.732465 1_454
Zn30 Zn46 2.744106 1_565
Zn31 Zn50 2.639382 1_555
Zn31 Zn33 2.678638 1_555
Zn31 Zn37 2.685555 1_555
Zn31 Zn8 2.716697 1_565
Zn31 Zn47 2.733165 1_565
Zn31 Zn42 2.737771 1_555
Zn32 Zn44 2.524600 1_555
Zn32 Zn46 2.582394 1_565
Zn32 Zn6 2.672130 1_555
Zn32 Zn36 2.869602 1_555
Zn33 Zn45 2.518907 1_555
Zn33 Zn47 2.522251 1_565
Zn33 Zn48 2.644428 1_555
Zn33 Zn7 2.736390 1_655
Zn33 Zn37 2.950713 1_555
Zn34 Zn46 2.524600 1_555
Zn34 Zn44 2.582394 1_545
Zn34 Zn4 2.672133 1_455
Zn34 Zn38 2.869602 1_555
Zn35 Zn47 2.518907 1_555
Zn35 Zn45 2.522251 1_545
Zn35 Zn48 2.644428 1_555
Zn35 Zn5 2.736390 1_555
Zn35 Zn39 2.950713 1_555
Zn36 Zn40 2.541484 1_555
Zn36 Zn43 2.571058 1_454
Zn36 Zn4 2.682136 1_455
Zn37 Zn42 2.509285 1_555
Zn37 Zn41 2.514304 1_555
Zn37 Zn48 2.638254 1_555
Zn37 Zn5 2.742598 1_555
Zn38 Zn42 2.541484 1_555
Zn38 Zn41 2.571058 1_555
Zn38 Zn6 2.682143 1_555
Zn39 Zn40 2.509285 1_656
Zn39 Zn43 2.514304 1_555
Zn39 Zn48 2.638254 1_555
Zn39 Zn7 2.742598 1_655
Zn40 Zn49 2.644350 1_554
Zn40 Zn46 2.935453 1_555
Zn41 Zn50 2.639374 1_545
Zn41 Zn5 2.678638 1_555
Zn41 Zn47 2.933084 1_555
Zn42 Zn50 2.644350 1_555
Zn42 Zn6 2.689599 1_555
Zn42 Zn8 2.744106 1_565
Zn42 Zn44 2.935453 1_555
Zn43 Zn49 2.639374 1_665
Zn43 Zn7 2.678638 1_655
Zn43 Zn9 2.733165 1_665
Zn43 Zn45 2.933084 1_555
Zn44 Zn50 2.632992 1_555
Zn44 Zn6 2.690573 1_555
Zn44 Zn8 2.741330 1_565
Zn45 Zn49 2.622455 1_665
Zn45 Zn7 2.677832 1_655
Zn45 Zn9 2.733919 1_665
Zn46 Zn49 2.632992 1_554
Zn47 Zn50 2.622455 1_545
Zn47 Zn5 2.677832 1_555
Zn48 Zn5 2.644428 1_555
Zn48 Zn7 2.644428 1_655
Zn49 Zn9 2.622451 1_555
Zn50 Zn8 2.632996 1_565
