# generated using pymatgen
data_LiMn(PO3)3
_symmetry_space_group_name_H-M   'P 1'
_cell_length_a   6.88747169
_cell_length_b   6.72550177
_cell_length_c   7.44317303
_cell_angle_alpha   86.92980985
_cell_angle_beta   101.15676062
_cell_angle_gamma   90.89418771
_symmetry_Int_Tables_number   1
_chemical_formula_structural   LiMn(PO3)3
_chemical_formula_sum   'Li2 Mn2 P6 O18'
_cell_volume   337.77424595
_cell_formula_units_Z   2
loop_
 _symmetry_equiv_pos_site_id
 _symmetry_equiv_pos_as_xyz
  1  'x, y, z'
loop_
 _atom_site_type_symbol
 _atom_site_label
 _atom_site_symmetry_multiplicity
 _atom_site_fract_x
 _atom_site_fract_y
 _atom_site_fract_z
 _atom_site_occupancy
  Li  Li0  1  0.43857200  0.15467200  0.18082200  1
  Li  Li1  1  0.56127700  0.84537400  0.81924100  1
  Mn  Mn0  1  0.08029300  0.83468500  0.85431000  1
  Mn  Mn1  1  0.91969800  0.16530600  0.14564400  1
  P  P0  1  0.77774000  0.14000000  0.55724500  1
  P  P1  1  0.22225900  0.86003300  0.44275800  1
  P  P2  1  0.11933900  0.32626600  0.77863200  1
  P  P3  1  0.88070100  0.67369600  0.22133800  1
  P  P4  1  0.55988000  0.35118400  0.80122700  1
  P  P5  1  0.44013300  0.64885900  0.19876100  1
  O  O0  1  0.20888900  0.04600900  0.31800200  1
  O  O1  1  0.79103300  0.95403300  0.68202800  1
  O  O2  1  0.71967900  0.12174900  0.35270200  1
  O  O3  1  0.28026700  0.87824900  0.64730700  1
  O  O4  1  0.10479400  0.16322300  0.92660200  1
  O  O5  1  0.89527800  0.83670000  0.07338400  1
  O  O6  1  0.62700600  0.18752200  0.94795500  1
  O  O7  1  0.37294900  0.81247600  0.05202700  1
  O  O8  1  0.98885500  0.25355500  0.58827900  1
  O  O9  1  0.01120800  0.74633500  0.41170800  1
  O  O10  1  0.63404500  0.29984300  0.61426400  1
  O  O11  1  0.36607100  0.70027300  0.38577000  1
  O  O12  1  0.32781000  0.31720700  0.72002800  1
  O  O13  1  0.67222400  0.68278000  0.27992000  1
  O  O14  1  0.39576000  0.43744400  0.16182900  1
  O  O15  1  0.60424400  0.56258700  0.83822700  1
  O  O16  1  0.93929300  0.46886200  0.19011400  1
  O  O17  1  0.06070300  0.53108000  0.80987800  1
loop_
_geom_bond_atom_site_label_1
_geom_bond_atom_site_label_2
_geom_bond_distance
_geom_bond_site_symmetry_2
Li0 O14 1.922572 1_555
Li0 O2 2.111577 1_555
Li0 O0 2.142014 1_555
Li0 O6 2.357534 1_554
Li0 O7 2.540885 1_545
Li1 O15 1.922838 1_555
Li1 O3 2.111184 1_555
Li1 O1 2.142568 1_555
Li1 O7 2.356539 1_556
Li1 O6 2.540417 1_565
Mn0 O17 2.084079 1_555
Mn0 O7 2.255846 1_556
Mn0 O5 2.256075 1_456
Mn0 O3 2.262092 1_555
Mn0 O1 2.282277 1_455
Mn0 O4 2.298009 1_565
Mn1 O16 2.083810 1_555
Mn1 O6 2.255940 1_554
Mn1 O4 2.256294 1_654
Mn1 O2 2.262641 1_555
Mn1 O0 2.282008 1_655
Mn1 O5 2.298382 1_545
O0 P1 1.510393 1_545
O1 P0 1.510481 1_565
O2 P0 1.508547 1_555
O3 P1 1.508534 1_555
O4 P2 1.528188 1_555
O5 P3 1.527970 1_555
O6 P4 1.519788 1_555
O7 P5 1.519677 1_555
O8 P0 1.614042 1_555
O8 P2 1.619247 1_655
O9 P1 1.614109 1_555
O9 P3 1.619242 1_455
O10 P0 1.599974 1_555
O10 P4 1.627502 1_555
O11 P1 1.600037 1_555
O11 P5 1.627606 1_555
O12 P2 1.582266 1_555
O12 P4 1.613025 1_555
O13 P3 1.582243 1_555
O13 P5 1.613046 1_555
O14 P5 1.478675 1_555
O15 P4 1.478688 1_555
O16 P3 1.484123 1_555
O17 P2 1.484135 1_555
