# generated using pymatgen
data_Rb3Ag9(SbS3)4
_symmetry_space_group_name_H-M   'P 1'
_cell_length_a   9.85931393
_cell_length_b   9.85931393
_cell_length_c   9.85931393
_cell_angle_alpha   111.24154962
_cell_angle_beta   111.24154962
_cell_angle_gamma   105.98578438
_symmetry_Int_Tables_number   1
_chemical_formula_structural   Rb3Ag9(SbS3)4
_chemical_formula_sum   'Rb3 Ag9 Sb4 S12'
_cell_volume   735.73364699
_cell_formula_units_Z   1
loop_
 _symmetry_equiv_pos_site_id
 _symmetry_equiv_pos_as_xyz
  1  'x, y, z'
loop_
 _atom_site_type_symbol
 _atom_site_label
 _atom_site_symmetry_multiplicity
 _atom_site_fract_x
 _atom_site_fract_y
 _atom_site_fract_z
 _atom_site_occupancy
  Rb  Rb0  1  0.00000000  0.00000000  0.00000000  1
  Rb  Rb1  1  0.67175100  0.67175100  0.00000000  1
  Rb  Rb2  1  0.32824900  0.32824900  0.00000000  1
  Ag  Ag0  1  0.25000000  0.75000000  0.50000000  1
  Ag  Ag1  1  0.33430200  0.48676000  0.49371600  1
  Ag  Ag2  1  0.99304400  0.84058500  0.50628400  1
  Ag  Ag3  1  0.50154100  0.00623900  0.16934800  1
  Ag  Ag4  1  0.83689100  0.33219300  0.83065200  1
  Ag  Ag5  1  0.66780700  0.49845900  0.50469800  1
  Ag  Ag6  1  0.99376100  0.16310900  0.49530200  1
  Ag  Ag7  1  0.51324000  0.00695600  0.84754200  1
  Ag  Ag8  1  0.15941500  0.66569800  0.15245800  1
  Sb  Sb0  1  0.12068300  0.60742400  0.74093200  1
  Sb  Sb1  1  0.86649200  0.37975000  0.25906800  1
  Sb  Sb2  1  0.62025000  0.87931700  0.48674200  1
  Sb  Sb3  1  0.39257600  0.13350800  0.51325800  1
  S  S0  1  0.21129900  0.88808300  0.78126000  1
  S  S1  1  0.10682300  0.43003900  0.21874000  1
  S  S2  1  0.90210100  0.10809400  0.68986200  1
  S  S3  1  0.41823200  0.21224000  0.31013800  1
  S  S4  1  0.78776000  0.09789900  0.20599300  1
  S  S5  1  0.89190600  0.58176800  0.79400700  1
  S  S6  1  0.11191700  0.89317700  0.32321600  1
  S  S7  1  0.56996100  0.78870100  0.67678400  1
  S  S8  1  0.33652500  0.69153500  0.02322500  1
  S  S9  1  0.66831000  0.31329900  0.97677500  1
  S  S10  1  0.68670100  0.66347500  0.35501100  1
  S  S11  1  0.30846500  0.33169000  0.64498900  1
loop_
_geom_bond_atom_site_label_1
_geom_bond_atom_site_label_2
_geom_bond_distance
_geom_bond_site_symmetry_2
Rb0 S3 3.493786 1_555
Rb0 S5 3.493787 1_444
Rb0 S2 3.493787 1_454
Rb0 S4 3.493795 1_455
Rb0 S7 3.606368 1_444
Rb0 S6 3.606368 1_545
Rb0 S1 3.606368 1_555
Rb0 S0 3.606368 1_544
Rb1 S8 3.447501 1_555
Rb1 S9 3.447511 1_554
Rb1 S11 3.481271 1_554
Rb1 S10 3.481275 1_555
Rb1 S5 3.545784 1_554
Rb1 S4 3.545787 1_565
Rb1 S7 3.670718 1_554
Rb1 S6 3.670718 1_655
Rb2 S10 3.447508 1_555
Rb2 S11 3.447511 1_554
Rb2 S8 3.481268 1_555
Rb2 S9 3.481271 1_554
Rb2 S3 3.545778 1_555
Rb2 S2 3.545784 1_454
Rb2 S1 3.670718 1_555
Rb2 S0 3.670718 1_544
Ag0 S0 2.829488 1_555
Ag0 S6 2.829488 1_555
Ag0 S1 2.829488 1_555
Ag0 S7 2.829488 1_555
Ag1 S11 2.517905 1_555
Ag1 S1 2.549022 1_555
Ag1 S7 2.603158 1_555
Ag1 S3 3.171031 1_555
Ag2 S10 2.517905 1_555
Ag2 S0 2.549017 1_655
Ag2 S6 2.603161 1_655
Ag2 S2 3.171045 1_565
Ag3 S3 2.535486 1_555
Ag3 S4 2.555480 1_555
Ag3 S8 2.575227 1_545
Ag4 S2 2.535479 1_555
Ag4 S5 2.555490 1_555
Ag4 S9 2.575228 1_555
Ag5 S5 2.535479 1_555
Ag5 S3 2.555484 1_555
Ag5 S10 2.575220 1_555
Ag6 S4 2.535482 1_555
Ag6 S2 2.555490 1_555
Ag6 S11 2.575228 1_655
Ag7 S9 2.517905 1_555
Ag7 S7 2.549022 1_545
Ag7 S0 2.603158 1_545
Ag7 S4 3.171035 1_556
Ag8 S8 2.517905 1_555
Ag8 S6 2.549028 1_555
Ag8 S1 2.603158 1_555
Ag8 S5 3.171042 1_454
S0 Sb0 2.489351 1_555
S1 Sb1 2.489351 1_455
S2 Sb2 2.462183 1_545
S3 Sb3 2.462186 1_555
S4 Sb1 2.462179 1_555
S5 Sb0 2.462189 1_655
S6 Sb3 2.489351 1_565
S7 Sb2 2.489345 1_555
S8 Sb0 2.454887 1_554
S9 Sb1 2.454887 1_556
S10 Sb2 2.454887 1_555
S11 Sb3 2.454887 1_555
