# generated using pymatgen
data_YH3
_symmetry_space_group_name_H-M   'P 1'
_cell_length_a   6.33228758
_cell_length_b   6.33228823
_cell_length_c   6.60184352
_cell_angle_alpha   90.00000000
_cell_angle_beta   90.00000000
_cell_angle_gamma   120.00001240
_symmetry_Int_Tables_number   1
_chemical_formula_structural   YH3
_chemical_formula_sum   'Y6 H18'
_cell_volume   229.25409839
_cell_formula_units_Z   6
loop_
 _symmetry_equiv_pos_site_id
 _symmetry_equiv_pos_as_xyz
  1  'x, y, z'
loop_
 _atom_site_type_symbol
 _atom_site_label
 _atom_site_symmetry_multiplicity
 _atom_site_fract_x
 _atom_site_fract_y
 _atom_site_fract_z
 _atom_site_occupancy
  Y  Y0  1  0.67072413  0.67072413  0.75040946  1
  Y  Y1  1  0.32927555  0.00000003  0.75040950  1
  Y  Y2  1  0.00000003  0.32927555  0.75040950  1
  Y  Y3  1  0.32927587  0.32927587  0.25040946  1
  Y  Y4  1  0.67072445  -0.00000003  0.25040950  1
  Y  Y5  1  -0.00000003  0.67072445  0.25040950  1
  H  H0  1  0.30139357  0.30139357  0.59074146  1
  H  H1  1  0.69860566  -0.00000039  0.59074123  1
  H  H2  1  -0.00000039  0.69860566  0.59074123  1
  H  H3  1  0.69860643  0.69860643  0.09074146  1
  H  H4  1  0.30139434  0.00000039  0.09074123  1
  H  H5  1  0.00000039  0.30139434  0.09074123  1
  H  H6  1  0.35728262  0.35728262  0.90945278  1
  H  H7  1  0.64271714  0.99999994  0.90945265  1
  H  H8  1  0.99999994  0.64271714  0.90945265  1
  H  H9  1  0.64271738  0.64271738  0.40945278  1
  H  H10  1  0.35728286  0.00000006  0.40945265  1
  H  H11  1  0.00000006  0.35728286  0.40945265  1
  H  H12  1  -0.00000048  -0.00000048  0.81528708  1
  H  H13  1  0.00000048  0.00000048  0.31528708  1
  H  H14  1  0.33333314  0.66666668  0.70545173  1
  H  H15  1  0.66666668  0.33333314  0.70545173  1
  H  H16  1  0.66666686  0.33333332  0.20545173  1
  H  H17  1  0.33333332  0.66666686  0.20545173  1
loop_
_geom_bond_atom_site_label_1
_geom_bond_atom_site_label_2
_geom_bond_distance
_geom_bond_site_symmetry_2
H0 Y3 2.253745 1_555
H0 Y2 2.263113 1_555
H0 Y1 2.263113 1_555
H0 Y0 2.565284 1_555
H1 Y4 2.253743 1_555
H1 Y0 2.263114 1_545
H1 Y2 2.263117 1_655
H1 Y1 2.565284 1_555
H2 Y5 2.253743 1_555
H2 Y0 2.263114 1_455
H2 Y1 2.263117 1_565
H2 Y2 2.565284 1_555
H3 Y0 2.253745 1_554
H3 Y5 2.263113 1_655
H3 Y4 2.263113 1_565
H3 Y3 2.565284 1_555
H4 Y1 2.253743 1_554
H4 Y3 2.263114 1_555
H4 Y5 2.263117 1_545
H4 Y4 2.565284 1_555
H5 Y2 2.253743 1_554
H5 Y3 2.263114 1_555
H5 Y4 2.263117 1_455
H5 Y5 2.565284 1_555
H6 Y0 2.245416 1_555
H6 Y3 2.257918 1_556
H6 Y2 2.418925 1_555
H6 Y1 2.418925 1_555
H7 Y1 2.245416 1_565
H7 Y4 2.257920 1_566
H7 Y2 2.418925 1_665
H7 Y0 2.418926 1_555
H8 Y2 2.245417 1_655
H8 Y5 2.257920 1_656
H8 Y1 2.418926 1_665
H8 Y0 2.418926 1_555
H9 Y3 2.245416 1_555
H9 Y0 2.257918 1_555
H9 Y5 2.418925 1_655
H9 Y4 2.418925 1_565
H10 Y4 2.245416 1_555
H10 Y1 2.257920 1_555
H10 Y5 2.418925 1_545
H10 Y3 2.418926 1_555
H11 Y5 2.245417 1_555
H11 Y2 2.257920 1_555
H11 Y4 2.418926 1_455
H11 Y3 2.418926 1_555
H12 Y0 2.128603 1_445
H12 Y1 2.128606 1_555
H12 Y2 2.128606 1_555
H13 Y3 2.128603 1_555
H13 Y4 2.128606 1_455
H13 Y5 2.128606 1_545
H14 Y2 2.144366 1_555
H14 Y1 2.144366 1_565
H14 Y0 2.144367 1_555
H15 Y1 2.144366 1_555
H15 Y2 2.144366 1_655
H15 Y0 2.144367 1_555
H16 Y5 2.144366 1_655
H16 Y4 2.144366 1_555
H16 Y3 2.144367 1_555
H17 Y4 2.144366 1_565
H17 Y5 2.144366 1_555
H17 Y3 2.144367 1_555
