# generated using pymatgen
data_Si6BiH54C18N4Cl
_symmetry_space_group_name_H-M   'P 1'
_cell_length_a   9.41066221
_cell_length_b   10.05076457
_cell_length_c   47.74110105
_cell_angle_alpha   90.32324630
_cell_angle_beta   90.00000001
_cell_angle_gamma   117.91470187
_symmetry_Int_Tables_number   1
_chemical_formula_structural   Si6BiH54C18N4Cl
_chemical_formula_sum   'Si24 Bi4 H216 C72 N16 Cl4'
_cell_volume   3990.07399984
_cell_formula_units_Z   4
loop_
 _symmetry_equiv_pos_site_id
 _symmetry_equiv_pos_as_xyz
  1  'x, y, z'
loop_
 _atom_site_type_symbol
 _atom_site_label
 _atom_site_symmetry_multiplicity
 _atom_site_fract_x
 _atom_site_fract_y
 _atom_site_fract_z
 _atom_site_occupancy
  Si  Si0  1  0.75413567  0.57547736  0.43435077  1
  Si  Si1  1  0.17865831  0.42452264  0.06564923  1
  Si  Si2  1  0.24586433  0.42452264  0.56564923  1
  Si  Si3  1  0.82134169  0.57547736  0.93435077  1
  Si  Si4  1  0.06538770  0.00590183  0.42241958  1
  Si  Si5  1  0.05948587  0.99409817  0.07758042  1
  Si  Si6  1  0.93461230  0.99409817  0.57758042  1
  Si  Si7  1  0.94051413  0.00590183  0.92241958  1
  Si  Si8  1  0.20673889  0.81654165  0.45434157  1
  Si  Si9  1  0.39019724  0.18345835  0.04565843  1
  Si  Si10  1  0.79326111  0.18345835  0.54565843  1
  Si  Si11  1  0.60980276  0.81654165  0.95434157  1
  Si  Si12  1  0.71337925  0.39632842  0.33077186  1
  Si  Si13  1  0.31705083  0.60367158  0.16922814  1
  Si  Si14  1  0.28662075  0.60367158  0.66922814  1
  Si  Si15  1  0.68294917  0.39632842  0.83077186  1
  Si  Si16  1  0.84191648  0.80092475  0.31054152  1
  Si  Si17  1  0.04099173  0.19907525  0.18945848  1
  Si  Si18  1  0.15808352  0.19907525  0.68945848  1
  Si  Si19  1  0.95900827  0.80092475  0.81054152  1
  Si  Si20  1  0.11752498  0.71435424  0.29866316  1
  Si  Si21  1  0.40317074  0.28564576  0.20133684  1
  Si  Si22  1  0.88247502  0.28564576  0.70133684  1
  Si  Si23  1  0.59682926  0.71435424  0.79866316  1
  Bi  Bi0  1  0.03421146  0.67488351  0.37652354  1
  Bi  Bi1  1  0.35932795  0.32511649  0.12347646  1
  Bi  Bi2  1  0.96578854  0.32511649  0.62347646  1
  Bi  Bi3  1  0.64067205  0.67488351  0.87652354  1
  H  H0  1  0.59755929  0.50793503  0.38936429  1
  H  H1  1  0.08962426  0.49206497  0.11063571  1
  H  H2  1  0.40244071  0.49206497  0.61063571  1
  H  H3  1  0.91037574  0.50793503  0.88936429  1
  H  H4  1  0.46966383  0.45676121  0.41892575  1
  H  H5  1  0.01290262  0.54323879  0.08107425  1
  H  H6  1  0.53033617  0.54323879  0.58107425  1
  H  H7  1  0.98709738  0.45676121  0.91892575  1
  H  H8  1  0.56983709  0.64736259  0.40797110  1
  H  H9  1  0.92247450  0.35263741  0.09202890  1
  H  H10  1  0.43016291  0.35263741  0.59202890  1
  H  H11  1  0.07752550  0.64736259  0.90797110  1
  H  H12  1  0.79294879  0.38055869  0.46107349  1
  H  H13  1  0.41239011  0.61944131  0.03892651  1
  H  H14  1  0.20705121  0.61944131  0.53892651  1
  H  H15  1  0.58760989  0.38055869  0.96107349  1
  H  H16  1  0.60929644  0.29956629  0.44202934  1
  H  H17  1  0.30973015  0.70043371  0.05797066  1
  H  H18  1  0.39070356  0.70043371  0.55797066  1
  H  H19  1  0.69026985  0.29956629  0.94202934  1
  H  H20  1  0.79411807  0.34787581  0.42461156  1
  H  H21  1  0.44624226  0.65212419  0.07538844  1
  H  H22  1  0.20588193  0.65212419  0.57538844  1
  H  H23  1  0.55375774  0.34787581  0.92461156  1
  H  H24  1  0.73642191  0.76485541  0.46638705  1
  H  H25  1  0.97156650  0.23514459  0.03361295  1
  H  H26  1  0.26357809  0.23514459  0.53361295  1
  H  H27  1  0.02843350  0.76485541  0.96638705  1
  H  H28  1  0.61367706  0.57723256  0.47798420  1
  H  H29  1  0.03644450  0.42276744  0.02201580  1
  H  H30  1  0.38632294  0.42276744  0.52201580  1
  H  H31  1  0.96355550  0.57723256  0.97798420  1
  H  H32  1  0.82475018  0.66500214  0.48369217  1
  H  H33  1  0.15974803  0.33499786  0.01630783  1
  H  H34  1  0.17524982  0.33499786  0.51630783  1
  H  H35  1  0.84025197  0.66500214  0.98369217  1
  H  H36  1  0.31804634  0.18575335  0.44865997  1
  H  H37  1  0.13229299  0.81424665  0.05134003  1
  H  H38  1  0.68195366  0.81424665  0.55134003  1
  H  H39  1  0.86770701  0.18575335  0.94865997  1
  H  H40  1  0.19298146  0.26606970  0.43899571  1
  H  H41  1  0.92691176  0.73393030  0.06100429  1
  H  H42  1  0.80701854  0.73393030  0.56100429  1
  H  H43  1  0.07308824  0.26606970  0.93899571  1
  H  H44  1  0.14188366  0.14541159  0.46837263  1
  H  H45  1  0.99647207  0.85458841  0.03162737  1
  H  H46  1  0.85811634  0.85458841  0.53162737  1
  H  H47  1  0.00352793  0.14541159  0.96837263  1
  H  H48  1  0.81607008  0.99335756  0.44320431  1
  H  H49  1  0.82271252  0.00664244  0.05679569  1
  H  H50  1  0.18392992  0.00664244  0.55679569  1
  H  H51  1  0.17728748  0.99335756  0.94320431  1
  H  H52  1  0.86906061  0.09408201  0.41128795  1
  H  H53  1  0.77497860  0.90591799  0.08871205  1
  H  H54  1  0.13093939  0.90591799  0.58871205  1
  H  H55  1  0.22502140  0.09408201  0.91128795  1
  H  H56  1  0.77133356  0.89411555  0.41067324  1
  H  H57  1  0.87721801  0.10588445  0.08932676  1
  H  H58  1  0.22866644  0.10588445  0.58932676  1
  H  H59  1  0.12278199  0.89411555  0.91067324  1
  H  H60  1  0.08555501  0.98723183  0.36982482  1
  H  H61  1  0.09832319  0.01276817  0.13017518  1
  H  H62  1  0.91444499  0.01276817  0.63017518  1
  H  H63  1  0.90167681  0.98723183  0.86982482  1
  H  H64  1  0.16025537  0.17503321  0.38145534  1
  H  H65  1  0.98522216  0.82496679  0.11854466  1
  H  H66  1  0.83974463  0.82496679  0.61854466  1
  H  H67  1  0.01477784  0.17503321  0.88145534  1
  H  H68  1  0.27951359  0.08139034  0.38557015  1
  H  H69  1  0.19812325  0.91860966  0.11442985  1
  H  H70  1  0.72048641  0.91860966  0.61442985  1
  H  H71  1  0.80187675  0.08139034  0.88557015  1
  H  H72  1  0.12738547  0.90276757  0.49867887  1
  H  H73  1  0.22461791  0.09723243  0.00132113  1
  H  H74  1  0.87261453  0.09723243  0.50132113  1
  H  H75  1  0.77538209  0.90276757  0.99867887  1
  H  H76  1  0.30088919  0.87852327  0.50307603  1
  H  H77  1  0.42236592  0.12147673  0.99692397  1
  H  H78  1  0.69911081  0.12147673  0.49692397  1
  H  H79  1  0.57763408  0.87852327  0.00307603  1
  H  H80  1  0.31810175  0.04340206  0.48689290  1
  H  H81  1  0.27469969  0.95659794  0.01310710  1
  H  H82  1  0.68189825  0.95659794  0.51310710  1
  H  H83  1  0.72530031  0.04340206  0.98689290  1
  H  H84  1  0.11868332  0.54367680  0.44449645  1
  H  H85  1  0.57500652  0.45632320  0.05550355  1
  H  H86  1  0.88131668  0.45632320  0.55550355  1
  H  H87  1  0.42499348  0.54367680  0.94449645  1
  H  H88  1  0.24413459  0.61353598  0.47457991  1
  H  H89  1  0.63059861  0.38646402  0.02542009  1
  H  H90  1  0.75586541  0.38646402  0.52542009  1
  H  H91  1  0.36940139  0.61353598  0.97457991  1
  H  H92  1  0.03800718  0.56727413  0.47693946  1
  H  H93  1  0.47073304  0.43272587  0.02306054  1
  H  H94  1  0.96199282  0.43272587  0.52306054  1
  H  H95  1  0.52926696  0.56727413  0.97693946  1
  H  H96  1  0.45205221  0.01039604  0.42940719  1
  H  H97  1  0.44165616  0.98960396  0.07059281  1
  H  H98  1  0.54794779  0.98960396  0.57059281  1
  H  H99  1  0.55834384  0.01039604  0.92940719  1
  H  H100  1  0.49701126  0.88895144  0.45010734  1
  H  H101  1  0.60805982  0.11104856  0.04989266  1
  H  H102  1  0.50298874  0.11104856  0.54989266  1
  H  H103  1  0.39194018  0.88895144  0.95010734  1
  H  H104  1  0.39850626  0.82473921  0.41739977  1
  H  H105  1  0.57376705  0.17526079  0.08260023  1
  H  H106  1  0.60149374  0.17526079  0.58260023  1
  H  H107  1  0.42623295  0.82473921  0.91739977  1
  H  H108  1  0.66976109  0.28760488  0.37934000  1
  H  H109  1  0.38215620  0.71239512  0.12066000  1
  H  H110  1  0.33023891  0.71239512  0.62066000  1
  H  H111  1  0.61784380  0.28760488  0.87934000  1
  H  H112  1  0.59593112  0.14934249  0.35256071  1
  H  H113  1  0.44658864  0.85065751  0.14743929  1
  H  H114  1  0.40406888  0.85065751  0.64743929  1
  H  H115  1  0.55341136  0.14934249  0.85256071  1
  H  H116  1  0.80599231  0.24500964  0.36027716  1
  H  H117  1  0.56098268  0.75499036  0.13972284  1
  H  H118  1  0.19400769  0.75499036  0.63972284  1
  H  H119  1  0.43901732  0.24500964  0.86027716  1
  H  H120  1  0.50350895  0.46395811  0.31250387  1
  H  H121  1  0.03955084  0.53604189  0.18749613  1
  H  H122  1  0.49649105  0.53604189  0.68749613  1
  H  H123  1  0.96044916  0.46395811  0.81250387  1
  H  H124  1  0.41956524  0.27430049  0.32333314  1
  H  H125  1  0.14526475  0.72569951  0.17666686  1
  H  H126  1  0.58043476  0.72569951  0.67666686  1
  H  H127  1  0.85473525  0.27430049  0.82333314  1
  H  H128  1  0.47372026  0.41954591  0.34868183  1
  H  H129  1  0.05417434  0.58045409  0.15131817  1
  H  H130  1  0.52627974  0.58045409  0.65131817  1
  H  H131  1  0.94582566  0.41954591  0.84868183  1
  H  H132  1  0.84492927  0.29917901  0.29641387  1
  H  H133  1  0.54575026  0.70082099  0.20358613  1
  H  H134  1  0.15507073  0.70082099  0.70358613  1
  H  H135  1  0.45424974  0.29917901  0.79641387  1
  H  H136  1  0.63490383  0.22115272  0.29020902  1
  H  H137  1  0.41375111  0.77884728  0.20979098  1
  H  H138  1  0.36509617  0.77884728  0.70979098  1
  H  H139  1  0.58624889  0.22115272  0.79020902  1
  H  H140  1  0.76645679  0.40740693  0.27912617  1
  H  H141  1  0.35904987  0.59259307  0.22087383  1
  H  H142  1  0.23354321  0.59259307  0.72087383  1
  H  H143  1  0.64095013  0.40740693  0.77912617  1
  H  H144  1  0.62076741  0.60571905  0.28045185  1
  H  H145  1  0.01504835  0.39428095  0.21954815  1
  H  H146  1  0.37923259  0.39428095  0.71954815  1
  H  H147  1  0.98495165  0.60571905  0.78045185  1
  H  H148  1  0.63014937  0.78563579  0.27772035  1
  H  H149  1  0.84451358  0.21436421  0.22227965  1
  H  H150  1  0.36985063  0.21436421  0.72227965  1
  H  H151  1  0.15548642  0.78563579  0.77772035  1
  H  H152  1  0.77146605  0.74703034  0.25963620  1
  H  H153  1  0.02443571  0.25296966  0.24036380  1
  H  H154  1  0.22853395  0.25296966  0.74036380  1
  H  H155  1  0.97556429  0.74703034  0.75963620  1
  H  H156  1  0.06167596  0.00872499  0.28272796  1
  H  H157  1  0.05295098  0.99127501  0.21727204  1
  H  H158  1  0.93832404  0.99127501  0.71727204  1
  H  H159  1  0.94704902  0.00872499  0.78272796  1
  H  H160  1  0.92074665  0.06096145  0.29668896  1
  H  H161  1  0.85978520  0.93903855  0.20331104  1
  H  H162  1  0.07925335  0.93903855  0.70331104  1
  H  H163  1  0.14021480  0.06096145  0.79668896  1
  H  H164  1  0.07277602  0.06111708  0.31869360  1
  H  H165  1  0.01165894  0.93888292  0.18130640  1
  H  H166  1  0.92722398  0.93888292  0.68130640  1
  H  H167  1  0.98834106  0.06111708  0.81869360  1
  H  H168  1  0.79156254  0.83219506  0.36123487  1
  H  H169  1  0.95936748  0.16780494  0.13876513  1
  H  H170  1  0.20843746  0.16780494  0.63876513  1
  H  H171  1  0.04063252  0.83219506  0.86123487  1
  H  H172  1  0.69007716  0.89731330  0.33829622  1
  H  H173  1  0.79276386  0.10268670  0.16170378  1
  H  H174  1  0.30992284  0.10268670  0.66170378  1
  H  H175  1  0.20723614  0.89731330  0.83829622  1
  H  H176  1  0.61154580  0.70121650  0.34438021  1
  H  H177  1  0.91032930  0.29878350  0.15561979  1
  H  H178  1  0.38845420  0.29878350  0.65561979  1
  H  H179  1  0.08967070  0.70121650  0.84438021  1
  H  H180  1  0.05304049  0.80593900  0.25372172  1
  H  H181  1  0.24710150  0.19406100  0.24627828  1
  H  H182  1  0.94695951  0.19406100  0.74627828  1
  H  H183  1  0.75289850  0.80593900  0.75372172  1
  H  H184  1  0.18990865  0.73325085  0.24844676  1
  H  H185  1  0.45665781  0.26674915  0.25155324  1
  H  H186  1  0.81009135  0.26674915  0.75155324  1
  H  H187  1  0.54334219  0.73325085  0.74844676  1
  H  H188  1  0.98176084  0.60811679  0.25261085  1
  H  H189  1  0.37364405  0.39188321  0.24738915  1
  H  H190  1  0.01823916  0.39188321  0.74738915  1
  H  H191  1  0.62635595  0.60811679  0.75261085  1
  H  H192  1  0.08431115  0.45155516  0.29807830  1
  H  H193  1  0.63275600  0.54844484  0.20192170  1
  H  H194  1  0.91568885  0.54844484  0.70192170  1
  H  H195  1  0.36724400  0.45155516  0.79807830  1
  H  H196  1  0.28809077  0.59217965  0.29632690  1
  H  H197  1  0.69591112  0.40782035  0.20367310  1
  H  H198  1  0.71190923  0.40782035  0.70367310  1
  H  H199  1  0.30408888  0.59217965  0.79632690  1
  H  H200  1  0.18640112  0.54785653  0.32894736  1
  H  H201  1  0.63854458  0.45214347  0.17105264  1
  H  H202  1  0.81359888  0.45214347  0.67105264  1
  H  H203  1  0.36145542  0.54785653  0.82894736  1
  H  H204  1  0.34011585  0.90122041  0.32899814  1
  H  H205  1  0.43889544  0.09877959  0.17100186  1
  H  H206  1  0.65988415  0.09877959  0.67100186  1
  H  H207  1  0.56110456  0.90122041  0.82899814  1
  H  H208  1  0.40231796  0.90334029  0.29384580  1
  H  H209  1  0.49897767  0.09665971  0.20615420  1
  H  H210  1  0.59768204  0.09665971  0.70615420  1
  H  H211  1  0.50102233  0.90334029  0.79384580  1
  H  H212  1  0.28848871  0.99690768  0.30285246  1
  H  H213  1  0.29158103  0.00309232  0.19714754  1
  H  H214  1  0.71151129  0.00309232  0.69714754  1
  H  H215  1  0.70841897  0.99690768  0.80285246  1
  C  C0  1  0.73714782  0.38344364  0.44105045  1
  C  C1  1  0.35370418  0.61655636  0.05894955  1
  C  C2  1  0.26285218  0.61655636  0.55894955  1
  C  C3  1  0.64629582  0.38344364  0.94105045  1
  C  C4  1  0.73090147  0.65407624  0.46879820  1
  C  C5  1  0.07682523  0.34592376  0.03120180  1
  C  C6  1  0.26909853  0.34592376  0.53120180  1
  C  C7  1  0.92317477  0.65407624  0.96879820  1
  C  C8  1  0.19240704  0.16366854  0.44714366  1
  C  C9  1  0.02873850  0.83633146  0.05285634  1
  C  C10  1  0.80759296  0.83633146  0.55285634  1
  C  C11  1  0.97126150  0.16366854  0.94714366  1
  C  C12  1  0.86052397  0.99378202  0.42191262  1
  C  C13  1  0.86674195  0.00621798  0.07808738  1
  C  C14  1  0.13947603  0.00621798  0.57808738  1
  C  C15  1  0.13325805  0.99378202  0.92191262  1
  C  C16  1  0.15615510  0.06649901  0.38651732  1
  C  C17  1  0.08965609  0.93350099  0.11348268  1
  C  C18  1  0.84384490  0.93350099  0.61348268  1
  C  C19  1  0.91034391  0.06649901  0.88651732  1
  C  C20  1  0.24060513  0.92155558  0.48873239  1
  C  C21  1  0.31904956  0.07844442  0.01126761  1
  C  C22  1  0.75939487  0.07844442  0.51126761  1
  C  C23  1  0.68095044  0.92155558  0.98873239  1
  C  C24  1  0.14350590  0.61542744  0.46316308  1
  C  C25  1  0.52807846  0.38457256  0.03683692  1
  C  C26  1  0.85649410  0.38457256  0.53683692  1
  C  C27  1  0.47192154  0.61542744  0.96316308  1
  C  C28  1  0.40648639  0.89281480  0.43601491  1
  C  C29  1  0.51367158  0.10718520  0.06398509  1
  C  C30  1  0.59351361  0.10718520  0.56398509  1
  C  C31  1  0.48632842  0.89281480  0.93601491  1
  C  C32  1  0.69708455  0.25852542  0.35852348  1
  C  C33  1  0.43855913  0.74147458  0.14147652  1
  C  C34  1  0.30291545  0.74147458  0.64147652  1
  C  C35  1  0.56144087  0.25852542  0.85852348  1
  C  C36  1  0.50990112  0.38987568  0.32869893  1
  C  C37  1  0.12002543  0.61012432  0.17130107  1
  C  C38  1  0.49009888  0.61012432  0.67130107  1
  C  C39  1  0.87997457  0.38987568  0.82869893  1
  C  C40  1  0.74391356  0.32514189  0.29582748  1
  C  C41  1  0.41877167  0.67485811  0.20417252  1
  C  C42  1  0.25608644  0.67485811  0.70417252  1
  C  C43  1  0.58122833  0.32514189  0.79582748  1
  C  C44  1  0.70340474  0.72681425  0.27923809  1
  C  C45  1  0.97659049  0.27318575  0.22076191  1
  C  C46  1  0.29659526  0.27318575  0.72076191  1
  C  C47  1  0.02340951  0.72681425  0.77923809  1
  C  C48  1  0.99004707  0.00080572  0.30141358  1
  C  C49  1  0.98924135  0.99919428  0.19858642  1
  C  C50  1  0.00995293  0.99919428  0.69858642  1
  C  C51  1  0.01075865  0.00080572  0.80141358  1
  C  C52  1  0.72294901  0.80688028  0.34158908  1
  C  C53  1  0.91606873  0.19311972  0.15841092  1
  C  C54  1  0.27705099  0.19311972  0.65841092  1
  C  C55  1  0.08393127  0.80688028  0.84158908  1
  C  C56  1  0.08082837  0.71539437  0.25984952  1
  C  C57  1  0.36543401  0.28460563  0.24015048  1
  C  C58  1  0.91917163  0.28460563  0.74015048  1
  C  C59  1  0.63456599  0.71539437  0.75984952  1
  C  C60  1  0.17186547  0.56133263  0.30648500  1
  C  C61  1  0.61053284  0.43866737  0.19351500  1
  C  C62  1  0.82813453  0.43866737  0.69351500  1
  C  C63  1  0.38946716  0.56133263  0.80648500  1
  C  C64  1  0.30316816  0.89670648  0.30701038  1
  C  C65  1  0.40646168  0.10329352  0.19298962  1
  C  C66  1  0.69683184  0.10329352  0.69298962  1
  C  C67  1  0.59353832  0.89670648  0.80701038  1
  C  C68  1  0.58291423  0.54495109  0.41035721  1
  C  C69  1  0.03796314  0.45504891  0.08964279  1
  C  C70  1  0.41708577  0.45504891  0.58964279  1
  C  C71  1  0.96203686  0.54495109  0.91035721  1
  N  N0  1  0.93639967  0.70207790  0.41820349  1
  N  N1  1  0.23432177  0.29792210  0.08179651  1
  N  N2  1  0.06360033  0.29792210  0.58179651  1
  N  N3  1  0.76567823  0.70207790  0.91820349  1
  N  N4  1  0.06029368  0.83287502  0.43254441  1
  N  N5  1  0.22741866  0.16712498  0.06745559  1
  N  N6  1  0.93970632  0.16712498  0.56745559  1
  N  N7  1  0.77258134  0.83287502  0.93254441  1
  N  N8  1  0.87558927  0.57424120  0.33880993  1
  N  N9  1  0.30134807  0.42575880  0.16119007  1
  N  N10  1  0.12441073  0.42575880  0.66119007  1
  N  N11  1  0.69865193  0.57424120  0.83880993  1
  N  N12  1  0.94436867  0.69318159  0.31799884  1
  N  N13  1  0.25118708  0.30681841  0.18200116  1
  N  N14  1  0.05563133  0.30681841  0.68200116  1
  N  N15  1  0.74881292  0.69318159  0.81799884  1
  Cl  Cl0  1  0.10004819  0.45936959  0.38780731  1
  Cl  Cl1  1  0.64067860  0.54063041  0.11219269  1
  Cl  Cl2  1  0.89995181  0.54063041  0.61219269  1
  Cl  Cl3  1  0.35932140  0.45936959  0.88780731  1
loop_
_geom_bond_atom_site_label_1
_geom_bond_atom_site_label_2
_geom_bond_distance
_geom_bond_site_symmetry_2
Bi0 N8 2.249198 1_455
Bi0 N0 2.260729 1_455
Bi0 Cl0 2.575983 1_555
Bi1 N9 2.249198 1_555
Bi1 N1 2.260729 1_555
Bi1 Cl1 2.575983 1_555
Bi2 N10 2.249198 1_655
Bi2 N2 2.260729 1_655
Bi2 Cl2 2.575983 1_555
Bi3 N11 2.249198 1_555
Bi3 N3 2.260729 1_555
Bi3 Cl3 2.575983 1_555
C0 H12 1.097703 1_555
C0 H20 1.098836 1_555
C0 H16 1.100559 1_555
C0 Si0 1.889749 1_555
C1 H13 1.097703 1_555
C1 H21 1.098836 1_555
C1 H17 1.100559 1_555
C1 Si1 1.889749 1_555
C2 H14 1.097703 1_555
C2 H22 1.098836 1_555
C2 H18 1.100559 1_555
C2 Si2 1.889749 1_555
C3 H15 1.097703 1_555
C3 H23 1.098836 1_555
C3 H19 1.100559 1_555
C3 Si3 1.889749 1_555
C4 H24 1.096782 1_555
C4 H32 1.098168 1_555
C4 H28 1.100847 1_555
C4 Si0 1.877103 1_555
C5 H25 1.096782 1_455
C5 H33 1.098168 1_555
C5 H29 1.100847 1_555
C5 Si1 1.877103 1_555
C6 H26 1.096782 1_555
C6 H34 1.098168 1_555
C6 H30 1.100847 1_555
C6 Si2 1.877103 1_555
C7 H27 1.096782 1_655
C7 H35 1.098168 1_555
C7 H31 1.100847 1_555
C7 Si3 1.877103 1_555
C8 H36 1.098430 1_555
C8 H44 1.098778 1_555
C8 H40 1.099966 1_555
C8 Si4 1.881652 1_555
C9 H37 1.098430 1_555
C9 H45 1.098778 1_455
C9 H41 1.099966 1_455
C9 Si5 1.881652 1_555
C10 H38 1.098430 1_555
C10 H46 1.098778 1_555
C10 H42 1.099966 1_555
C10 Si6 1.881652 1_555
C11 H39 1.098430 1_555
C11 H47 1.098778 1_655
C11 H43 1.099966 1_655
C11 Si7 1.881652 1_555
C12 H56 1.096612 1_555
C12 H48 1.098478 1_555
C12 H52 1.099968 1_565
C12 Si4 1.874117 1_665
C13 H57 1.096612 1_555
C13 H49 1.098478 1_555
C13 H53 1.099968 1_545
C13 Si5 1.874117 1_645
C14 H58 1.096612 1_555
C14 H50 1.098478 1_555
C14 H54 1.099968 1_545
C14 Si6 1.874117 1_445
C15 H59 1.096612 1_555
C15 H51 1.098478 1_555
C15 H55 1.099968 1_565
C15 Si7 1.874117 1_465
C16 H60 1.099295 1_545
C16 H68 1.099769 1_555
C16 H64 1.101550 1_555
C16 Si4 1.887613 1_555
C17 H61 1.099295 1_565
C17 H69 1.099769 1_555
C17 H65 1.101550 1_455
C17 Si5 1.887613 1_555
C18 H62 1.099295 1_565
C18 H70 1.099769 1_555
C18 H66 1.101550 1_555
C18 Si6 1.887613 1_555
C19 H63 1.099295 1_545
C19 H71 1.099769 1_555
C19 H67 1.101550 1_655
C19 Si7 1.887613 1_555
C20 H80 1.097413 1_565
C20 H72 1.099548 1_555
C20 H76 1.100416 1_555
C20 Si8 1.891234 1_555
C21 H81 1.097413 1_545
C21 H73 1.099548 1_555
C21 H77 1.100415 1_554
C21 Si9 1.891234 1_555
C22 H82 1.097413 1_545
C22 H74 1.099548 1_555
C22 H78 1.100416 1_555
C22 Si10 1.891234 1_555
C23 H83 1.097413 1_565
C23 H75 1.099548 1_555
C23 H79 1.100415 1_556
C23 Si11 1.891234 1_555
C24 H84 1.097186 1_555
C24 H92 1.098260 1_555
C24 H88 1.100542 1_555
C24 Si8 1.871017 1_555
C25 H85 1.097186 1_555
C25 H93 1.098260 1_555
C25 H89 1.100542 1_555
C25 Si9 1.871017 1_555
C26 H86 1.097186 1_555
C26 H94 1.098260 1_555
C26 H90 1.100542 1_555
C26 Si10 1.871017 1_555
C27 H87 1.097186 1_555
C27 H95 1.098260 1_555
C27 H91 1.100542 1_555
C27 Si11 1.871017 1_555
C28 H104 1.099370 1_555
C28 H96 1.099874 1_565
C28 H100 1.100523 1_555
C28 Si8 1.882815 1_555
C29 H105 1.099370 1_555
C29 H97 1.099874 1_545
C29 H101 1.100523 1_555
C29 Si9 1.882814 1_555
C30 H106 1.099370 1_555
C30 H98 1.099874 1_545
C30 H102 1.100523 1_555
C30 Si10 1.882815 1_555
C31 H107 1.099370 1_555
C31 H99 1.099874 1_565
C31 H103 1.100523 1_555
C31 Si11 1.882814 1_555
C32 H108 1.098305 1_555
C32 H116 1.098343 1_555
C32 H112 1.099912 1_555
C32 Si12 1.875899 1_555
C33 H109 1.098305 1_555
C33 H117 1.098343 1_555
C33 H113 1.099912 1_555
C33 Si13 1.875899 1_555
C34 H110 1.098305 1_555
C34 H118 1.098343 1_555
C34 H114 1.099912 1_555
C34 Si14 1.875899 1_555
C35 H111 1.098305 1_555
C35 H119 1.098343 1_555
C35 H115 1.099912 1_555
C35 Si15 1.875899 1_555
C36 H120 1.097384 1_555
C36 H128 1.098565 1_555
C36 H124 1.099865 1_555
C36 Si12 1.887949 1_555
C37 H121 1.097384 1_555
C37 H129 1.098565 1_555
C37 H125 1.099865 1_555
C37 Si13 1.887949 1_555
C38 H122 1.097384 1_555
C38 H130 1.098565 1_555
C38 H126 1.099865 1_555
C38 Si14 1.887949 1_555
C39 H123 1.097384 1_555
C39 H131 1.098565 1_555
C39 H127 1.099865 1_555
C39 Si15 1.887949 1_555
C40 H132 1.097684 1_555
C40 H140 1.098908 1_555
C40 H136 1.099834 1_555
C40 Si12 1.885916 1_555
C41 H133 1.097684 1_555
C41 H141 1.098908 1_555
C41 H137 1.099834 1_555
C41 Si13 1.885916 1_555
C42 H134 1.097684 1_555
C42 H142 1.098908 1_555
C42 H138 1.099834 1_555
C42 Si14 1.885916 1_555
C43 H135 1.097684 1_555
C43 H143 1.098908 1_555
C43 H139 1.099834 1_555
C43 Si15 1.885916 1_555
C44 H144 1.097285 1_555
C44 H152 1.098895 1_555
C44 H148 1.100957 1_555
C44 Si16 1.888297 1_555
C45 H145 1.097285 1_655
C45 H153 1.098895 1_655
C45 H149 1.100957 1_555
C45 Si17 1.888297 1_655
C46 H146 1.097285 1_555
C46 H154 1.098895 1_555
C46 H150 1.100957 1_555
C46 Si18 1.888297 1_555
C47 H147 1.097285 1_455
C47 H155 1.098895 1_455
C47 H151 1.100957 1_555
C47 Si19 1.888297 1_455
C48 H164 1.098462 1_655
C48 H156 1.098668 1_655
C48 H160 1.101126 1_555
C48 Si16 1.885948 1_545
C49 H165 1.098462 1_655
C49 H157 1.098668 1_655
C49 H161 1.101126 1_555
C49 Si17 1.885948 1_665
C50 H166 1.098462 1_455
C50 H158 1.098668 1_455
C50 H162 1.101126 1_555
C50 Si18 1.885948 1_565
C51 H167 1.098462 1_455
C51 H159 1.098668 1_455
C51 H163 1.101126 1_555
C51 Si19 1.885948 1_445
C52 H176 1.097190 1_555
C52 H168 1.097645 1_555
C52 H172 1.100646 1_555
C52 Si16 1.875046 1_555
C53 H177 1.097190 1_555
C53 H169 1.097645 1_555
C53 H173 1.100646 1_555
C53 Si17 1.875046 1_655
C54 H178 1.097190 1_555
C54 H170 1.097645 1_555
C54 H174 1.100646 1_555
C54 Si18 1.875046 1_555
C55 H179 1.097190 1_555
C55 H171 1.097645 1_555
C55 H175 1.100646 1_555
C55 Si19 1.875046 1_455
C56 H188 1.098068 1_455
C56 H180 1.099078 1_555
C56 H184 1.100411 1_555
C56 Si20 1.885895 1_555
C57 H189 1.098068 1_555
C57 H181 1.099078 1_555
C57 H185 1.100411 1_555
C57 Si21 1.885895 1_555
C58 H190 1.098068 1_655
C58 H182 1.099078 1_555
C58 H186 1.100411 1_555
C58 Si22 1.885895 1_555
C59 H191 1.098068 1_555
C59 H183 1.099078 1_555
C59 H187 1.100411 1_555
C59 Si23 1.885895 1_555
C60 H192 1.095966 1_555
C60 H200 1.098197 1_555
C60 H196 1.100818 1_555
C60 Si20 1.873295 1_555
C61 H193 1.095966 1_555
C61 H201 1.098197 1_555
C61 H197 1.100818 1_555
C61 Si21 1.873295 1_555
C62 H194 1.095966 1_555
C62 H202 1.098197 1_555
C62 H198 1.100818 1_555
C62 Si22 1.873295 1_555
C63 H195 1.095966 1_555
C63 H203 1.098197 1_555
C63 H199 1.100818 1_555
C63 Si23 1.873295 1_555
C64 H212 1.097841 1_555
C64 H204 1.099800 1_555
C64 H208 1.101036 1_555
C64 Si20 1.887790 1_555
C65 H213 1.097841 1_555
C65 H205 1.099800 1_555
C65 H209 1.101036 1_555
C65 Si21 1.887790 1_555
C66 H214 1.097841 1_555
C66 H206 1.099800 1_555
C66 H210 1.101036 1_555
C66 Si22 1.887790 1_555
C67 H215 1.097841 1_555
C67 H207 1.099800 1_555
C67 H211 1.101036 1_555
C67 Si23 1.887790 1_555
C68 H0 1.098028 1_555
C68 H8 1.098880 1_555
C68 H4 1.099290 1_555
C68 Si0 1.880350 1_555
C69 H1 1.098028 1_555
C69 H9 1.098880 1_455
C69 H5 1.099290 1_555
C69 Si1 1.880350 1_555
C70 H2 1.098028 1_555
C70 H10 1.098880 1_555
C70 H6 1.099290 1_555
C70 Si2 1.880350 1_555
C71 H3 1.098028 1_555
C71 H11 1.098880 1_655
C71 H7 1.099290 1_555
C71 Si3 1.880350 1_555
N0 N4 1.452946 1_655
N0 Si0 1.767175 1_555
N1 N5 1.452946 1_555
N1 Si1 1.767175 1_555
N2 N6 1.452946 1_455
N2 Si2 1.767175 1_555
N3 N7 1.452946 1_555
N3 Si3 1.767175 1_555
N4 Si4 1.786526 1_565
N4 Si8 1.795240 1_555
N5 Si5 1.786525 1_545
N5 Si9 1.795240 1_555
N6 Si6 1.786526 1_545
N6 Si10 1.795240 1_555
N7 Si7 1.786525 1_565
N7 Si11 1.795240 1_555
N8 Si12 1.763932 1_555
N9 Si13 1.763932 1_555
N10 N14 1.457421 1_555
N10 Si14 1.763932 1_555
N11 N15 1.457421 1_555
N11 Si15 1.763932 1_555
N12 N8 1.457421 1_555
N12 Si16 1.791905 1_555
N12 Si20 1.797295 1_655
N13 N9 1.457421 1_555
N13 Si17 1.791905 1_555
N13 Si21 1.797295 1_555
N14 Si18 1.791905 1_555
N14 Si22 1.797295 1_455
N15 Si19 1.791905 1_555
N15 Si23 1.797295 1_555
