# generated using pymatgen
data_Ce4Ge3
_symmetry_space_group_name_H-M   'P 1'
_cell_length_a   7.97271200
_cell_length_b   7.97271200
_cell_length_c   7.97271200
_cell_angle_alpha   109.47122063
_cell_angle_beta   109.47122063
_cell_angle_gamma   109.47122063
_symmetry_Int_Tables_number   1
_chemical_formula_structural   Ce4Ge3
_chemical_formula_sum   'Ce8 Ge6'
_cell_volume   390.11831363
_cell_formula_units_Z   2
loop_
 _symmetry_equiv_pos_site_id
 _symmetry_equiv_pos_as_xyz
  1  'x, y, z'
loop_
 _atom_site_type_symbol
 _atom_site_label
 _atom_site_symmetry_multiplicity
 _atom_site_fract_x
 _atom_site_fract_y
 _atom_site_fract_z
 _atom_site_occupancy
  Ce  Ce0  1  0.36312118  0.36312118  0.36312118  1
  Ce  Ce1  1  0.13687882  0.50000000  0.00000000  1
  Ce  Ce2  1  0.00000000  0.13687882  0.50000000  1
  Ce  Ce3  1  0.86312118  0.86312118  0.86312118  1
  Ce  Ce4  1  0.50000000  -0.00000000  0.13687882  1
  Ce  Ce5  1  0.63687882  0.50000000  0.00000000  1
  Ce  Ce6  1  0.50000000  0.00000000  0.63687882  1
  Ce  Ce7  1  0.00000000  0.63687882  0.50000000  1
  Ge  Ge0  1  0.12500000  0.87500000  0.25000000  1
  Ge  Ge1  1  0.37500000  0.62500000  0.75000000  1
  Ge  Ge2  1  0.87500000  0.25000000  0.12500000  1
  Ge  Ge3  1  0.62500000  0.75000000  0.37500000  1
  Ge  Ge4  1  0.25000000  0.12500000  0.87500000  1
  Ge  Ge5  1  0.75000000  0.37500000  0.62500000  1
loop_
_geom_bond_atom_site_label_1
_geom_bond_atom_site_label_2
_geom_bond_distance
_geom_bond_site_symmetry_2
Ce0 Ge3 3.043401 1_555
Ce0 Ge5 3.043401 1_555
Ce0 Ge1 3.043401 1_555
Ce0 Ge4 3.340019 1_554
Ce0 Ge2 3.340019 1_455
Ce0 Ge0 3.340019 1_545
Ce1 Ge5 3.043401 1_454
Ce1 Ge0 3.043401 1_555
Ce1 Ge2 3.043401 1_455
Ce1 Ge4 3.340019 1_554
Ce1 Ge3 3.340019 1_555
Ce1 Ge1 3.340019 1_554
Ce2 Ge0 3.043401 1_545
Ce2 Ge3 3.043401 1_445
Ce2 Ge4 3.043401 1_555
Ce2 Ge5 3.340019 1_455
Ce2 Ge2 3.340019 1_455
Ce2 Ge1 3.340019 1_555
Ce3 Ge2 3.043401 1_566
Ce3 Ge0 3.043401 1_656
Ce3 Ge4 3.043401 1_665
Ce3 Ge1 3.340019 1_555
Ce3 Ge5 3.340019 1_555
Ce3 Ge3 3.340019 1_555
Ce4 Ge4 3.043401 1_554
Ce4 Ge2 3.043401 1_555
Ce4 Ge1 3.043401 1_544
Ce4 Ge5 3.340019 1_555
Ce4 Ge0 3.340019 1_545
Ce4 Ge3 3.340019 1_545
Ce5 Ge3 3.043401 1_555
Ce5 Ge1 3.043401 1_554
Ce5 Ge4 3.043401 1_554
Ce5 Ge5 3.340019 1_554
Ce5 Ge0 3.340019 1_655
Ce5 Ge2 3.340019 1_555
Ce6 Ge5 3.043401 1_555
Ce6 Ge0 3.043401 1_545
Ce6 Ge3 3.043401 1_545
Ce6 Ge4 3.340019 1_555
Ce6 Ge2 3.340019 1_556
Ce6 Ge1 3.340019 1_545
Ce7 Ge1 3.043401 1_555
Ce7 Ge5 3.043401 1_455
Ce7 Ge2 3.043401 1_455
Ce7 Ge3 3.340019 1_455
Ce7 Ge0 3.340019 1_555
Ce7 Ge4 3.340019 1_565
