# generated using pymatgen
data_La2AgS2O
_symmetry_space_group_name_H-M   'P 1'
_cell_length_a   5.26209100
_cell_length_b   5.26209100
_cell_length_c   13.99021800
_cell_angle_alpha   90.00000000
_cell_angle_beta   90.00000000
_cell_angle_gamma   90.00000000
_symmetry_Int_Tables_number   1
_chemical_formula_structural   La2AgS2O
_chemical_formula_sum   'La2 Ag1 S2 O1'
_cell_volume   387.38356401
_cell_formula_units_Z   1
loop_
 _symmetry_equiv_pos_site_id
 _symmetry_equiv_pos_as_xyz
  1  'x, y, z'
loop_
 _atom_site_type_symbol
 _atom_site_label
 _atom_site_symmetry_multiplicity
 _atom_site_fract_x
 _atom_site_fract_y
 _atom_site_fract_z
 _atom_site_occupancy
  La  La0  1  0.50000000  0.50000000  0.65328100  1
  La  La1  1  0.50000000  0.50000000  0.34671900  1
  Ag  Ag0  1  0.50000000  0.50000000  0.00000000  1
  S  S0  1  0.50000000  0.50000000  0.16775700  1
  S  S1  1  0.50000000  0.50000000  0.83224300  1
  O  O0  1  0.50000000  0.50000000  0.50000000  1
loop_
_geom_bond_atom_site_label_1
_geom_bond_atom_site_label_2
_geom_bond_distance
_geom_bond_site_symmetry_2
La0 O0 2.144435 1_555
La0 S1 2.503717 1_555
La1 O0 2.144435 1_555
La1 S0 2.503717 1_555
Ag0 S0 2.346957 1_555
Ag0 S1 2.346957 1_554
