# generated using pymatgen
data_ZnNiBiO5
_symmetry_space_group_name_H-M   'P 1'
_cell_length_a   5.25255900
_cell_length_b   10.41087100
_cell_length_c   15.23885700
_cell_angle_alpha   90.00000000
_cell_angle_beta   90.00000000
_cell_angle_gamma   90.00000000
_symmetry_Int_Tables_number   1
_chemical_formula_structural   ZnNiBiO5
_chemical_formula_sum   'Zn8 Ni8 Bi8 O40'
_cell_volume   833.31730045
_cell_formula_units_Z   8
loop_
 _symmetry_equiv_pos_site_id
 _symmetry_equiv_pos_as_xyz
  1  'x, y, z'
loop_
 _atom_site_type_symbol
 _atom_site_label
 _atom_site_symmetry_multiplicity
 _atom_site_fract_x
 _atom_site_fract_y
 _atom_site_fract_z
 _atom_site_occupancy
  Zn  Zn0  1  0.47315000  0.36320200  0.53662500  1
  Zn  Zn1  1  0.97315100  0.13679800  0.53662500  1
  Zn  Zn2  1  0.97315100  0.63679800  0.96337500  1
  Zn  Zn3  1  0.02685000  0.36320200  0.03662500  1
  Zn  Zn4  1  0.52684900  0.13679800  0.03662500  1
  Zn  Zn5  1  0.02685000  0.86320200  0.46337500  1
  Zn  Zn6  1  0.52684900  0.63679800  0.46337500  1
  Zn  Zn7  1  0.47315000  0.86320200  0.96337500  1
  Ni  Ni0  1  0.96681500  0.37937000  0.40778500  1
  Ni  Ni1  1  0.53318500  0.87937000  0.59221500  1
  Ni  Ni2  1  0.03318500  0.62063000  0.59221500  1
  Ni  Ni3  1  0.46681500  0.12063000  0.40778500  1
  Ni  Ni4  1  0.03318500  0.12063000  0.90778500  1
  Ni  Ni5  1  0.96681500  0.87937000  0.09221500  1
  Ni  Ni6  1  0.53318500  0.37937000  0.90778500  1
  Ni  Ni7  1  0.46681500  0.62063000  0.09221500  1
  Bi  Bi0  1  0.04738700  0.85596600  0.76462400  1
  Bi  Bi1  1  0.95261300  0.14403400  0.23537600  1
  Bi  Bi2  1  0.45261300  0.35596600  0.23537600  1
  Bi  Bi3  1  0.95261300  0.64403400  0.26462400  1
  Bi  Bi4  1  0.54738700  0.14403400  0.73537600  1
  Bi  Bi5  1  0.54738700  0.64403400  0.76462400  1
  Bi  Bi6  1  0.45261300  0.85596600  0.26462400  1
  Bi  Bi7  1  0.04738700  0.35596600  0.73537600  1
  O  O0  1  0.78023600  0.29916000  0.31386500  1
  O  O1  1  0.27623300  0.02682600  0.96685800  1
  O  O2  1  0.22376700  0.52682600  0.03314200  1
  O  O3  1  0.36909000  0.79947800  0.84305700  1
  O  O4  1  0.13091000  0.29947800  0.15694300  1
  O  O5  1  0.78023600  0.79916000  0.18613500  1
  O  O6  1  0.13091000  0.79947800  0.34305700  1
  O  O7  1  0.71976400  0.79916000  0.68613500  1
  O  O8  1  0.27623300  0.52682600  0.53314200  1
  O  O9  1  0.21976400  0.70084000  0.68613500  1
  O  O10  1  0.71976400  0.29916000  0.81386500  1
  O  O11  1  0.66417300  0.21934200  0.48135600  1
  O  O12  1  0.77623300  0.97317400  0.53314200  1
  O  O13  1  0.63091000  0.70052200  0.34305700  1
  O  O14  1  0.17710300  0.98402300  0.17650200  1
  O  O15  1  0.77623300  0.47317400  0.96685800  1
  O  O16  1  0.21976400  0.20084000  0.81386500  1
  O  O17  1  0.86909000  0.20052200  0.65694300  1
  O  O18  1  0.16417300  0.78065800  0.01864400  1
  O  O19  1  0.22376700  0.02682600  0.46685800  1
  O  O20  1  0.33582700  0.78065800  0.51864400  1
  O  O21  1  0.82289700  0.01597700  0.82349800  1
  O  O22  1  0.63091000  0.20052200  0.15694300  1
  O  O23  1  0.67710300  0.01597700  0.32349800  1
  O  O24  1  0.33582700  0.28065800  0.98135600  1
  O  O25  1  0.16417300  0.28065800  0.48135600  1
  O  O26  1  0.72376700  0.47317400  0.46685800  1
  O  O27  1  0.72376700  0.97317400  0.03314200  1
  O  O28  1  0.67710300  0.51597700  0.17650200  1
  O  O29  1  0.83582700  0.71934200  0.51864400  1
  O  O30  1  0.83582700  0.21934200  0.98135600  1
  O  O31  1  0.66417300  0.71934200  0.01864400  1
  O  O32  1  0.82289700  0.51597700  0.67650200  1
  O  O33  1  0.86909000  0.70052200  0.84305700  1
  O  O34  1  0.36909000  0.29947800  0.65694300  1
  O  O35  1  0.17710300  0.48402300  0.32349800  1
  O  O36  1  0.32289700  0.48402300  0.82349800  1
  O  O37  1  0.28023600  0.20084000  0.31386500  1
  O  O38  1  0.32289700  0.98402300  0.67650200  1
  O  O39  1  0.28023600  0.70084000  0.18613500  1
loop_
_geom_bond_atom_site_label_1
_geom_bond_atom_site_label_2
_geom_bond_distance
_geom_bond_site_symmetry_2
Ni0 O25 1.840566 1_655
Ni0 O26 1.842240 1_555
Ni0 O0 1.925145 1_555
Ni0 O35 2.014171 1_655
Ni1 O20 1.840566 1_555
Ni1 O12 1.842240 1_555
Ni1 O7 1.925145 1_555
Ni1 O38 2.014171 1_555
Ni2 O29 1.840566 1_455
Ni2 O8 1.842240 1_555
Ni2 O9 1.925145 1_555
Ni2 O32 2.014171 1_455
Ni3 O11 1.840566 1_555
Ni3 O19 1.842240 1_555
Ni3 O37 1.925145 1_555
Ni3 O23 2.014171 1_555
Ni4 O30 1.840566 1_455
Ni4 O1 1.842240 1_555
Ni4 O16 1.925145 1_555
Ni4 O21 2.014171 1_455
Ni5 O18 1.840566 1_655
Ni5 O27 1.842240 1_555
Ni5 O5 1.925145 1_555
Ni5 O14 2.014171 1_655
Ni6 O24 1.840566 1_555
Ni6 O15 1.842240 1_555
Ni6 O10 1.925145 1_555
Ni6 O36 2.014171 1_555
Ni7 O31 1.840566 1_555
Ni7 O2 1.842240 1_555
Ni7 O39 1.925145 1_555
Ni7 O28 2.014171 1_555
Bi0 O3 2.151679 1_555
Bi0 O7 2.177550 1_455
Bi0 O9 2.204226 1_555
Bi0 O33 2.219133 1_455
Bi0 O21 2.229434 1_465
Bi0 O38 2.382204 1_555
Bi1 O22 2.151679 1_555
Bi1 O37 2.177550 1_655
Bi1 O0 2.204226 1_555
Bi1 O4 2.219133 1_655
Bi1 O14 2.229434 1_645
Bi1 O23 2.382204 1_555
Bi2 O4 2.151679 1_555
Bi2 O0 2.177550 1_555
Bi2 O37 2.204226 1_555
Bi2 O22 2.219133 1_555
Bi2 O28 2.229434 1_555
Bi2 O35 2.382204 1_555
Bi3 O13 2.151679 1_555
Bi3 O39 2.177550 1_655
Bi3 O5 2.204226 1_555
Bi3 O6 2.219133 1_655
Bi3 O35 2.229434 1_655
Bi3 O28 2.382204 1_555
Bi4 O17 2.151679 1_555
Bi4 O16 2.177550 1_555
Bi4 O10 2.204226 1_555
Bi4 O34 2.219133 1_555
Bi4 O38 2.229434 1_545
Bi4 O21 2.382204 1_555
Bi5 O33 2.151679 1_555
Bi5 O9 2.177550 1_555
Bi5 O7 2.204226 1_555
Bi5 O3 2.219133 1_555
Bi5 O36 2.229434 1_555
Bi5 O32 2.382204 1_555
Bi6 O6 2.151679 1_555
Bi6 O5 2.177550 1_555
Bi6 O39 2.204226 1_555
Bi6 O13 2.219133 1_555
Bi6 O23 2.229434 1_565
Bi6 O14 2.382204 1_555
Bi7 O34 2.151679 1_555
Bi7 O10 2.177550 1_455
Bi7 O16 2.204226 1_555
Bi7 O17 2.219133 1_455
Bi7 O32 2.229434 1_455
Bi7 O36 2.382204 1_555
O1 Zn7 1.993599 1_545
O1 Zn4 2.043032 1_556
O2 Zn3 1.993599 1_555
O2 Zn2 2.043032 1_454
O3 Zn7 2.025002 1_555
O4 Zn3 2.025002 1_555
O6 Zn5 2.025002 1_555
O8 Zn0 1.993599 1_555
O8 Zn6 2.043032 1_555
O11 Zn0 1.989779 1_555
O11 Zn1 2.020331 1_555
O12 Zn1 1.993601 1_565
O12 Zn5 2.043035 1_655
O13 Zn6 2.025004 1_555
O15 Zn2 1.993601 1_555
O15 Zn3 2.043035 1_656
O17 Zn1 2.025004 1_555
O18 Zn2 1.989777 1_454
O18 Zn7 2.020327 1_554
O19 Zn5 1.993599 1_545
O19 Zn1 2.043032 1_455
O20 Zn6 1.989777 1_555
O20 Zn5 2.020327 1_555
O22 Zn4 2.025004 1_555
O24 Zn4 1.989777 1_556
O24 Zn3 2.020327 1_556
O25 Zn1 1.989777 1_455
O25 Zn0 2.020327 1_555
O26 Zn6 1.993601 1_555
O26 Zn0 2.043035 1_555
O27 Zn4 1.993601 1_565
O27 Zn7 2.043035 1_554
O29 Zn5 1.989779 1_655
O29 Zn6 2.020331 1_555
O30 Zn3 1.989779 1_656
O30 Zn4 2.020331 1_556
O31 Zn7 1.989779 1_554
O31 Zn2 2.020331 1_554
O33 Zn2 2.025004 1_555
O34 Zn0 2.025002 1_555
