# generated using pymatgen
data_Li3MnV(PO4)3
_symmetry_space_group_name_H-M   'P 1'
_cell_length_a   8.74775100
_cell_length_b   8.69916700
_cell_length_c   12.29348149
_cell_angle_alpha   88.78028217
_cell_angle_beta   90.00000000
_cell_angle_gamma   90.00000000
_symmetry_Int_Tables_number   1
_chemical_formula_structural   Li3MnV(PO4)3
_chemical_formula_sum   'Li12 Mn4 V4 P12 O48'
_cell_volume   935.29918877
_cell_formula_units_Z   4
loop_
 _symmetry_equiv_pos_site_id
 _symmetry_equiv_pos_as_xyz
  1  'x, y, z'
loop_
 _atom_site_type_symbol
 _atom_site_label
 _atom_site_symmetry_multiplicity
 _atom_site_fract_x
 _atom_site_fract_y
 _atom_site_fract_z
 _atom_site_occupancy
  Li  Li0  1  0.90453000  0.17349300  0.44723600  1
  Li  Li1  1  0.29667200  0.17260000  0.50704300  1
  Li  Li2  1  0.22684000  0.04133500  0.92768500  1
  Li  Li3  1  0.72684000  0.95866500  0.07231500  1
  Li  Li4  1  0.79667200  0.82740000  0.49295700  1
  Li  Li5  1  0.40453000  0.82650700  0.55276400  1
  Li  Li6  1  0.59585400  0.66733800  0.94769400  1
  Li  Li7  1  0.20305800  0.66310100  0.00989600  1
  Li  Li8  1  0.27485400  0.53911400  0.42586700  1
  Li  Li9  1  0.77485400  0.46088600  0.57413300  1
  Li  Li10  1  0.70305700  0.33689900  0.99010400  1
  Li  Li11  1  0.09585400  0.33266200  0.05230600  1
  Mn  Mn0  1  0.95709800  0.50313500  0.36052700  1
  Mn  Mn1  1  0.03525100  0.50381500  0.85337000  1
  Mn  Mn2  1  0.45709800  0.49686500  0.63947300  1
  Mn  Mn3  1  0.53525100  0.49618500  0.14663000  1
  V  V0  1  0.46809900  0.00311500  0.36020700  1
  V  V1  1  0.54300800  0.00273700  0.86132100  1
  V  V2  1  0.96809900  0.99688500  0.63979300  1
  V  V3  1  0.04300800  0.99726300  0.13867900  1
  P  P0  1  0.75266700  0.21069100  0.24266900  1
  P  P1  1  0.61136400  0.14551000  0.60262700  1
  P  P2  1  0.90205900  0.14670900  0.89814200  1
  P  P3  1  0.11136400  0.85449000  0.39737300  1
  P  P4  1  0.40205900  0.85329100  0.10185800  1
  P  P5  1  0.25266700  0.78930900  0.75733100  1
  P  P6  1  0.75197700  0.71009200  0.74583900  1
  P  P7  1  0.59656400  0.64535400  0.40596100  1
  P  P8  1  0.88810400  0.64354200  0.10964400  1
  P  P9  1  0.09656400  0.35464600  0.59403900  1
  P  P10  1  0.38810400  0.35645800  0.89035600  1
  P  P11  1  0.25197700  0.28990800  0.25416100  1
  O  O0  1  0.13675100  0.20075300  0.18283100  1
  O  O1  1  0.32782800  0.18403500  0.34179300  1
  O  O2  1  0.40636400  0.18120200  0.91310200  1
  O  O3  1  0.10113600  0.17534200  0.59279800  1
  O  O4  1  0.64144500  0.13405400  0.32362900  1
  O  O5  1  0.58562700  0.10103000  0.72189000  1
  O  O6  1  0.77764800  0.10151400  0.56831600  1
  O  O7  1  0.02429000  0.09989000  0.98662600  1
  O  O8  1  0.74044400  0.09310900  0.93618200  1
  O  O9  1  0.83431600  0.08352200  0.17901100  1
  O  O10  1  0.95003000  0.08197800  0.79026700  1
  O  O11  1  0.49104300  0.05888200  0.53228800  1
  O  O12  1  0.99104300  0.94111800  0.46771200  1
  O  O13  1  0.45003000  0.91802200  0.20973300  1
  O  O14  1  0.33431600  0.91647800  0.82098900  1
  O  O15  1  0.24044400  0.90689100  0.06381800  1
  O  O16  1  0.27764800  0.89848600  0.43168400  1
  O  O17  1  0.52429000  0.90011000  0.01337400  1
  O  O18  1  0.08562700  0.89897000  0.27811000  1
  O  O19  1  0.14144500  0.86594600  0.67637100  1
  O  O20  1  0.60113600  0.82465800  0.40720200  1
  O  O21  1  0.90636400  0.81879800  0.08689800  1
  O  O22  1  0.82782800  0.81596500  0.65820700  1
  O  O23  1  0.63675100  0.79924700  0.81716900  1
  O  O24  1  0.36612500  0.70029300  0.68558800  1
  O  O25  1  0.17476400  0.68523500  0.84580000  1
  O  O26  1  0.09483100  0.67884800  0.41761500  1
  O  O27  1  0.39472500  0.67350700  0.09910900  1
  O  O28  1  0.86459300  0.64192700  0.83158000  1
  O  O29  1  0.90170500  0.61285300  0.23308500  1
  O  O30  1  0.47170600  0.60199100  0.49500800  1
  O  O31  1  0.72108700  0.60016300  0.07280200  1
  O  O32  1  0.75708200  0.59665100  0.44494200  1
  O  O33  1  0.67346600  0.58088800  0.68426800  1
  O  O34  1  0.54516000  0.57824500  0.30026100  1
  O  O35  1  0.00983300  0.55367300  0.04596000  1
  O  O36  1  0.50983300  0.44632700  0.95404000  1
  O  O37  1  0.04516000  0.42175500  0.69973900  1
  O  O38  1  0.17346600  0.41911200  0.31573200  1
  O  O39  1  0.25708200  0.40334900  0.55505800  1
  O  O40  1  0.97170600  0.39800900  0.50499200  1
  O  O41  1  0.22108700  0.39983700  0.92719800  1
  O  O42  1  0.40170500  0.38714700  0.76691500  1
  O  O43  1  0.36459300  0.35807300  0.16842000  1
  O  O44  1  0.89472500  0.32649300  0.90089100  1
  O  O45  1  0.59483100  0.32115200  0.58238500  1
  O  O46  1  0.67476400  0.31476500  0.15420000  1
  O  O47  1  0.86612500  0.29970700  0.31441200  1
loop_
_geom_bond_atom_site_label_1
_geom_bond_atom_site_label_2
_geom_bond_distance
_geom_bond_site_symmetry_2
Li0 O6 1.949349 1_555
Li0 O47 1.976945 1_555
Li0 O12 2.168127 1_545
Li0 O40 2.173269 1_555
Li0 O3 2.482254 1_655
Li1 O11 1.988194 1_555
Li1 O3 2.009688 1_555
Li1 O1 2.050014 1_555
Li1 O39 2.132640 1_555
Li2 O14 1.960808 1_545
Li2 O7 1.984865 1_555
Li2 O2 1.992368 1_555
Li2 O15 2.024709 1_546
Li3 O9 1.960808 1_565
Li3 O17 1.984865 1_555
Li3 O21 1.992368 1_555
Li3 O8 2.024709 1_564
Li4 O12 1.988194 1_555
Li4 O20 2.009688 1_555
Li4 O22 2.050014 1_555
Li4 O32 2.132640 1_555
Li5 O16 1.949349 1_555
Li5 O24 1.976945 1_555
Li5 O11 2.168127 1_565
Li5 O30 2.173269 1_555
Li5 O20 2.482254 1_555
Li6 O31 1.966937 1_556
Li6 O23 1.985224 1_555
Li6 O36 2.064553 1_555
Li6 O17 2.283370 1_556
Li7 O35 1.985404 1_555
Li7 O27 2.006596 1_555
Li7 O25 2.037484 1_554
Li7 O15 2.259180 1_555
Li7 O41 2.530312 1_554
Li8 O38 1.941576 1_555
Li8 O39 1.965089 1_555
Li8 O26 1.990637 1_555
Li8 O30 2.001693 1_555
Li9 O33 1.941576 1_555
Li9 O32 1.965089 1_555
Li9 O45 1.990637 1_555
Li9 O40 2.001693 1_555
Li10 O36 1.985397 1_555
Li10 O44 2.006604 1_555
Li10 O46 2.037483 1_556
Li10 O8 2.259181 1_555
Li10 O31 2.530313 1_556
Li11 O41 1.966937 1_554
Li11 O0 1.985224 1_555
Li11 O35 2.064553 1_555
Li11 O7 2.283370 1_554
Mn0 O29 1.880610 1_555
Mn0 O40 1.984341 1_555
Mn0 O47 2.032016 1_555
Mn0 O26 2.079992 1_655
Mn0 O38 2.106440 1_655
Mn0 O32 2.199111 1_555
Mn1 O28 1.931381 1_455
Mn1 O25 1.995638 1_555
Mn1 O37 2.035076 1_555
Mn1 O44 2.047813 1_455
Mn1 O41 2.061476 1_555
Mn1 O35 2.426275 1_556
Mn2 O42 1.880610 1_555
Mn2 O30 1.984341 1_555
Mn2 O24 2.032016 1_555
Mn2 O45 2.079992 1_555
Mn2 O33 2.106440 1_555
Mn2 O39 2.199111 1_555
Mn3 O43 1.931381 1_555
Mn3 O46 1.995638 1_555
Mn3 O34 2.035076 1_555
Mn3 O27 2.047813 1_555
Mn3 O31 2.061476 1_555
Mn3 O36 2.426275 1_554
O0 P11 1.554160 1_555
O0 V3 2.035084 1_545
O1 P11 1.551406 1_555
O1 V0 2.004684 1_555
O2 P10 1.552387 1_555
O2 V1 2.070350 1_555
O3 P9 1.560707 1_555
O3 V2 2.014942 1_445
O4 P0 1.534083 1_555
O4 V0 1.943525 1_555
O5 P1 1.525082 1_555
O5 V1 1.935420 1_555
O6 P1 1.564341 1_555
O6 V2 2.083775 1_545
O7 P2 1.572757 1_455
O7 V3 2.060810 1_546
O8 P2 1.557421 1_555
O8 V1 2.116307 1_555
O9 P0 1.543779 1_555
O9 V3 2.038998 1_645
O10 P2 1.511183 1_555
O10 V2 2.013250 1_545
O11 P1 1.565632 1_555
O11 V0 2.189647 1_555
O12 P3 1.565632 1_655
O12 V2 2.189647 1_555
O13 P4 1.511183 1_555
O13 V0 2.013250 1_565
O14 P5 1.543779 1_555
O14 V1 2.038998 1_565
O15 P4 1.557421 1_555
O15 V3 2.116307 1_555
O16 P3 1.564341 1_555
O16 V0 2.083775 1_565
O17 P4 1.572757 1_555
O17 V1 2.060810 1_564
O18 P3 1.525082 1_555
O18 V3 1.935420 1_555
O19 P5 1.534083 1_555
O19 V2 1.943525 1_455
O20 P7 1.560707 1_555
O20 V0 2.014942 1_565
O21 P8 1.552387 1_555
O21 V3 2.070350 1_655
O22 P6 1.551406 1_555
O22 V2 2.004684 1_555
O23 P6 1.554160 1_555
O23 V1 2.035084 1_565
O24 P5 1.546496 1_555
O25 P5 1.557247 1_555
O26 P3 1.549597 1_555
O27 P4 1.566370 1_555
O28 P6 1.551303 1_555
O29 P8 1.539820 1_555
O30 P7 1.586202 1_555
O31 P8 1.577783 1_555
O32 P7 1.540195 1_555
O33 P6 1.531058 1_555
O34 P7 1.504595 1_555
O35 P8 1.544050 1_455
O36 P10 1.544050 1_555
O37 P9 1.504595 1_555
O38 P11 1.531058 1_555
O39 P9 1.540195 1_555
O40 P9 1.586202 1_655
O41 P10 1.577783 1_555
O42 P10 1.539820 1_555
O43 P11 1.551303 1_555
O44 P2 1.566370 1_555
O45 P1 1.549597 1_555
O46 P0 1.557247 1_555
O47 P0 1.546496 1_555
