# generated using pymatgen
data_FePH5CO8
_symmetry_space_group_name_H-M   'P 1'
_cell_length_a   9.40213100
_cell_length_b   7.36355100
_cell_length_c   9.58405838
_cell_angle_alpha   77.07035820
_cell_angle_beta   90.00000000
_cell_angle_gamma   90.00000000
_symmetry_Int_Tables_number   1
_chemical_formula_structural   FePH5CO8
_chemical_formula_sum   'Fe4 P4 H20 C4 O32'
_cell_volume   646.71027138
_cell_formula_units_Z   4
loop_
 _symmetry_equiv_pos_site_id
 _symmetry_equiv_pos_as_xyz
  1  'x, y, z'
loop_
 _atom_site_type_symbol
 _atom_site_label
 _atom_site_symmetry_multiplicity
 _atom_site_fract_x
 _atom_site_fract_y
 _atom_site_fract_z
 _atom_site_occupancy
  Fe  Fe0  1  0.67845500  0.31179400  0.45933900  1
  Fe  Fe1  1  0.17845500  0.68820600  0.04066100  1
  Fe  Fe2  1  0.32154500  0.68820600  0.54066100  1
  Fe  Fe3  1  0.82154500  0.31179400  0.95933900  1
  P  P0  1  0.61255600  0.53078200  0.70901700  1
  P  P1  1  0.11255600  0.46921800  0.79098300  1
  P  P2  1  0.38744400  0.46921800  0.29098300  1
  P  P3  1  0.88744400  0.53078200  0.20901700  1
  H  H0  1  0.65041300  0.76206400  0.81644500  1
  H  H1  1  0.15041300  0.23793600  0.68355500  1
  H  H2  1  0.34958700  0.23793600  0.18355500  1
  H  H3  1  0.84958700  0.76206400  0.31644500  1
  H  H4  1  0.82651600  0.09042400  0.69140000  1
  H  H5  1  0.32651600  0.90957600  0.80860000  1
  H  H6  1  0.17348400  0.90957600  0.30860000  1
  H  H7  1  0.67348400  0.09042400  0.19140000  1
  H  H8  1  0.83663400  0.99690700  0.55360300  1
  H  H9  1  0.33663400  0.00309300  0.94639700  1
  H  H10  1  0.16336600  0.00309300  0.44639700  1
  H  H11  1  0.66336600  0.99690700  0.05360300  1
  H  H12  1  0.50864100  0.78989500  0.99356500  1
  H  H13  1  0.00864100  0.21010500  0.50643500  1
  H  H14  1  0.49135900  0.21010500  0.00643500  1
  H  H15  1  0.99135900  0.78989500  0.49356500  1
  H  H16  1  0.65718000  0.70340200  0.04833700  1
  H  H17  1  0.15718000  0.29659800  0.45166300  1
  H  H18  1  0.34282000  0.29659800  0.95166300  1
  H  H19  1  0.84282000  0.70340200  0.54833700  1
  C  C0  1  0.46765700  0.02825700  0.56568100  1
  C  C1  1  0.96765700  0.97174300  0.93431900  1
  C  C2  1  0.53234300  0.97174300  0.43431900  1
  C  C3  1  0.03234300  0.02825700  0.06568100  1
  O  O0  1  0.69676100  0.49171500  0.58060900  1
  O  O1  1  0.19676100  0.50828500  0.91939100  1
  O  O2  1  0.30323900  0.50828500  0.41939100  1
  O  O3  1  0.80323900  0.49171500  0.08060900  1
  O  O4  1  0.45138100  0.54172700  0.68282000  1
  O  O5  1  0.95138100  0.45827300  0.81718000  1
  O  O6  1  0.54861900  0.45827300  0.31718000  1
  O  O7  1  0.04861900  0.54172700  0.18282000  1
  O  O8  1  0.85396200  0.38746400  0.34850700  1
  O  O9  1  0.35396200  0.61253600  0.15149300  1
  O  O10  1  0.14603800  0.61253600  0.65149300  1
  O  O11  1  0.64603800  0.38746400  0.84850700  1
  O  O12  1  0.82081300  0.11636100  0.58498500  1
  O  O13  1  0.32081300  0.88363900  0.91501500  1
  O  O14  1  0.17918700  0.88363900  0.41501500  1
  O  O15  1  0.67918700  0.11636100  0.08498500  1
  O  O16  1  0.51578500  0.17292400  0.59780800  1
  O  O17  1  0.01578500  0.82707600  0.90219200  1
  O  O18  1  0.48421500  0.82707600  0.40219200  1
  O  O19  1  0.98421500  0.17292400  0.09780800  1
  O  O20  1  0.63060800  0.07700800  0.36946100  1
  O  O21  1  0.13060800  0.92299200  0.13053900  1
  O  O22  1  0.36939200  0.92299200  0.63053900  1
  O  O23  1  0.86939200  0.07700800  0.86946100  1
  O  O24  1  0.66939200  0.73098100  0.72098400  1
  O  O25  1  0.16939200  0.26901900  0.77901600  1
  O  O26  1  0.33060800  0.26901900  0.27901600  1
  O  O27  1  0.83060800  0.73098100  0.22098400  1
  O  O28  1  0.61211600  0.80870400  0.98117800  1
  O  O29  1  0.11211600  0.19129600  0.51882200  1
  O  O30  1  0.38788400  0.19129600  0.01882200  1
  O  O31  1  0.88788400  0.80870400  0.48117800  1
loop_
_geom_bond_atom_site_label_1
_geom_bond_atom_site_label_2
_geom_bond_distance
_geom_bond_site_symmetry_2
Fe0 O0 1.955710 1_555
Fe0 O6 1.962713 1_555
Fe0 O8 1.974051 1_555
Fe0 O12 2.130033 1_555
Fe0 O16 2.130434 1_555
Fe0 O20 2.144709 1_555
Fe1 O1 1.955710 1_554
Fe1 O7 1.962713 1_555
Fe1 O9 1.974051 1_555
Fe1 O13 2.130033 1_554
Fe1 O17 2.130434 1_554
Fe1 O21 2.144709 1_555
Fe2 O2 1.955710 1_555
Fe2 O4 1.962713 1_555
Fe2 O10 1.974051 1_555
Fe2 O14 2.130033 1_555
Fe2 O18 2.130434 1_555
Fe2 O22 2.144709 1_555
Fe3 O3 1.955710 1_556
Fe3 O5 1.962713 1_555
Fe3 O11 1.974051 1_555
Fe3 O15 2.130033 1_556
Fe3 O19 2.130434 1_556
Fe3 O23 2.144709 1_555
H0 O24 1.007466 1_555
H1 O25 1.007466 1_555
H2 O26 1.007466 1_555
H3 O27 1.007466 1_555
H4 O12 0.996169 1_555
H4 O23 1.734684 1_555
H5 O13 0.996169 1_555
H5 O22 1.734684 1_555
H6 O14 0.996169 1_555
H6 O21 1.734684 1_555
H7 O15 0.996169 1_555
H7 O20 1.734684 1_555
H8 O12 1.002340 1_565
H9 O13 1.002340 1_545
H10 O14 1.002340 1_545
H11 O15 1.002340 1_565
H12 O28 0.986116 1_555
H13 O29 0.986116 1_555
H14 O30 0.986116 1_555
H15 O31 0.986116 1_555
H16 O28 0.985751 1_554
H17 O29 0.985751 1_555
H18 O30 0.985751 1_556
H19 O31 0.985751 1_555
C0 O16 1.257433 1_555
C0 O22 1.274826 1_545
C1 O17 1.257433 1_655
C1 O23 1.274826 1_565
C2 O18 1.257433 1_555
C2 O20 1.274826 1_565
C3 O19 1.257433 1_455
C3 O21 1.274826 1_545
O0 P0 1.543546 1_555
O1 P1 1.543546 1_555
O2 P2 1.543546 1_555
O3 P3 1.543546 1_555
O4 P0 1.535213 1_555
O5 P1 1.535213 1_655
O6 P2 1.535213 1_555
O7 P3 1.535213 1_455
O8 P3 1.539059 1_555
O9 P2 1.539059 1_555
O10 P1 1.539059 1_555
O11 P0 1.539059 1_555
O24 P0 1.596112 1_555
O25 P1 1.596112 1_555
O26 P2 1.596112 1_555
O27 P3 1.596112 1_555
