# generated using pymatgen
data_TbMgIn
_symmetry_space_group_name_H-M   'P 1'
_cell_length_a   7.51864075
_cell_length_b   7.51864075
_cell_length_c   4.67191755
_cell_angle_alpha   90.00000000
_cell_angle_beta   90.00000000
_cell_angle_gamma   120.00000941
_symmetry_Int_Tables_number   1
_chemical_formula_structural   TbMgIn
_chemical_formula_sum   'Tb3 Mg3 In3'
_cell_volume   228.72015075
_cell_formula_units_Z   3
loop_
 _symmetry_equiv_pos_site_id
 _symmetry_equiv_pos_as_xyz
  1  'x, y, z'
loop_
 _atom_site_type_symbol
 _atom_site_label
 _atom_site_symmetry_multiplicity
 _atom_site_fract_x
 _atom_site_fract_y
 _atom_site_fract_z
 _atom_site_occupancy
  Tb  Tb0  1  0.56745938  0.00000000  -0.00000000  1
  Tb  Tb1  1  0.00000000  0.56745938  -0.00000000  1
  Tb  Tb2  1  0.43254062  0.43254062  0.00000000  1
  Mg  Mg0  1  0.24233703  0.00000000  0.50000000  1
  Mg  Mg1  1  0.00000000  0.24233703  0.50000000  1
  Mg  Mg2  1  0.75766297  0.75766297  0.50000000  1
  In  In0  1  0.33333300  0.66666700  0.50000000  1
  In  In1  1  0.66666700  0.33333300  0.50000000  1
  In  In2  1  0.00000000  0.00000000  0.00000000  1
loop_
_geom_bond_atom_site_label_1
_geom_bond_atom_site_label_2
_geom_bond_distance
_geom_bond_site_symmetry_2
Tb0 Tb1 3.860602 1_655
Tb0 Tb1 3.860602 1_545
Tb0 Tb2 3.860603 1_545
Tb0 Tb2 3.860603 1_555
Tb1 Tb2 3.860603 1_455
Tb1 Tb2 3.860603 1_555
Mg0 Mg2 3.155874 1_445
Mg0 Mg1 3.155875 1_555
Mg0 Tb0 3.381150 1_556
Mg0 Tb0 3.381150 1_555
Mg0 Tb1 3.664330 1_546
Mg0 Tb1 3.664330 1_545
Mg0 Tb2 3.664330 1_555
Mg0 Tb2 3.664330 1_556
Mg1 Mg2 3.155874 1_445
Mg1 Tb1 3.381150 1_555
Mg1 Tb1 3.381150 1_556
Mg1 Tb0 3.664330 1_456
Mg1 Tb0 3.664330 1_455
Mg1 Tb2 3.664330 1_555
Mg1 Tb2 3.664330 1_556
Mg2 Tb2 3.381150 1_556
Mg2 Tb2 3.381150 1_555
Mg2 Tb0 3.664330 1_565
Mg2 Tb0 3.664330 1_566
Mg2 Tb1 3.664330 1_656
Mg2 Tb1 3.664330 1_655
In0 Mg0 2.909268 1_565
In0 Mg1 2.909273 1_555
In0 Mg2 2.909275 1_555
In0 Tb1 3.228742 1_555
In0 Tb1 3.228742 1_556
In0 Tb0 3.228743 1_565
In0 Tb0 3.228743 1_566
In0 Tb2 3.228747 1_555
In0 Tb2 3.228747 1_556
In1 Mg1 2.909268 1_655
In1 Mg0 2.909273 1_555
In1 Mg2 2.909275 1_555
In1 Tb0 3.228742 1_555
In1 Tb0 3.228742 1_556
In1 Tb1 3.228743 1_655
In1 Tb1 3.228743 1_656
In1 Tb2 3.228747 1_555
In1 Tb2 3.228747 1_556
In2 Mg2 2.962524 1_444
In2 Mg2 2.962524 1_445
In2 Mg0 2.962525 1_554
In2 Mg1 2.962525 1_554
In2 Mg1 2.962525 1_555
In2 Mg0 2.962525 1_555
In2 Tb2 3.252117 1_555
In2 Tb0 3.252118 1_455
In2 Tb1 3.252118 1_545
