# generated using pymatgen
data_Hf5Si4
_symmetry_space_group_name_H-M   'P 1'
_cell_length_a   7.03351426
_cell_length_b   7.03351426
_cell_length_c   12.82076349
_cell_angle_alpha   90.00000000
_cell_angle_beta   90.00000000
_cell_angle_gamma   90.00000000
_symmetry_Int_Tables_number   1
_chemical_formula_structural   Hf5Si4
_chemical_formula_sum   'Hf20 Si16'
_cell_volume   634.24730898
_cell_formula_units_Z   4
loop_
 _symmetry_equiv_pos_site_id
 _symmetry_equiv_pos_as_xyz
  1  'x, y, z'
loop_
 _atom_site_type_symbol
 _atom_site_label
 _atom_site_symmetry_multiplicity
 _atom_site_fract_x
 _atom_site_fract_y
 _atom_site_fract_z
 _atom_site_occupancy
  Hf  Hf0  1  0.50080239  0.64620579  0.62639464  1
  Hf  Hf1  1  0.00080239  0.85379421  0.12360536  1
  Hf  Hf2  1  0.14620579  0.99919761  0.37639464  1
  Hf  Hf3  1  0.85379421  0.00080239  0.87639464  1
  Hf  Hf4  1  0.49919761  0.35379421  0.12639464  1
  Hf  Hf5  1  0.64620579  0.50080239  0.37360536  1
  Hf  Hf6  1  0.35379421  0.49919761  0.87360536  1
  Hf  Hf7  1  0.99919761  0.14620579  0.62360536  1
  Hf  Hf8  1  0.65211976  0.00230204  0.28340669  1
  Hf  Hf9  1  0.34788024  0.99769796  0.78340669  1
  Hf  Hf10  1  0.00230204  0.65211976  0.71659331  1
  Hf  Hf11  1  0.50230204  0.84788024  0.03340669  1
  Hf  Hf12  1  0.49769796  0.15211976  0.53340669  1
  Hf  Hf13  1  0.84788024  0.50230204  0.96659331  1
  Hf  Hf14  1  0.15211976  0.49769796  0.46659331  1
  Hf  Hf15  1  0.99769796  0.34788024  0.21659331  1
  Hf  Hf16  1  0.82529449  0.82529449  0.50000000  1
  Hf  Hf17  1  0.67470551  0.32529449  0.75000000  1
  Hf  Hf18  1  0.32529449  0.67470551  0.25000000  1
  Hf  Hf19  1  0.17470551  0.17470551  -0.00000000  1
  Si  Si0  1  0.64686377  0.70417168  0.82279939  1
  Si  Si1  1  0.35313623  0.29582832  0.32279939  1
  Si  Si2  1  0.70417168  0.64686377  0.17720061  1
  Si  Si3  1  0.20417168  0.85313623  0.57279939  1
  Si  Si4  1  0.79582832  0.14686377  0.07279939  1
  Si  Si5  1  0.85313623  0.20417168  0.42720061  1
  Si  Si6  1  0.14686377  0.79582832  0.92720061  1
  Si  Si7  1  0.29582832  0.35313623  0.67720061  1
  Si  Si8  1  0.69797243  0.95138637  0.68662075  1
  Si  Si9  1  0.30202757  0.04861363  0.18662075  1
  Si  Si10  1  0.95138637  0.69797243  0.31337925  1
  Si  Si11  1  0.45138637  0.80202757  0.43662075  1
  Si  Si12  1  0.54861363  0.19797243  0.93662075  1
  Si  Si13  1  0.80202757  0.45138637  0.56337925  1
  Si  Si14  1  0.19797243  0.54861363  0.06337925  1
  Si  Si15  1  0.04861363  0.30202757  0.81337925  1
loop_
_geom_bond_atom_site_label_1
_geom_bond_atom_site_label_2
_geom_bond_distance
_geom_bond_site_symmetry_2
Hf0 Si7 2.598412 1_555
Hf0 Si3 2.635026 1_555
Hf0 Si13 2.649360 1_555
Hf0 Si8 2.669615 1_555
Hf0 Si11 2.691037 1_555
Hf0 Si0 2.749953 1_555
Hf1 Si4 2.598412 1_465
Hf1 Si2 2.635026 1_455
Hf1 Si9 2.649360 1_565
Hf1 Si14 2.669615 1_555
Hf1 Si10 2.691037 1_455
Hf1 Si6 2.749953 1_554
Hf2 Si5 2.598412 1_465
Hf2 Si1 2.635026 1_565
Hf2 Si10 2.649360 1_455
Hf2 Si11 2.669615 1_555
Hf2 Si9 2.691037 1_565
Hf2 Si3 2.749953 1_555
Hf3 Si6 2.598412 1_645
Hf3 Si0 2.635026 1_545
Hf3 Si15 2.649360 1_655
Hf3 Si12 2.669615 1_555
Hf3 Si8 2.691037 1_545
Hf3 Si4 2.749953 1_556
Hf4 Si2 2.598412 1_555
Hf4 Si4 2.635026 1_555
Hf4 Si14 2.649360 1_555
Hf4 Si9 2.669615 1_555
Hf4 Si12 2.691037 1_554
Hf4 Si1 2.749953 1_555
Hf5 Si1 2.598412 1_555
Hf5 Si5 2.635026 1_555
Hf5 Si11 2.649360 1_555
Hf5 Si10 2.669615 1_555
Hf5 Si13 2.691037 1_555
Hf5 Si2 2.749953 1_555
Hf6 Si0 2.598412 1_555
Hf6 Si6 2.635026 1_555
Hf6 Si12 2.649360 1_555
Hf6 Si15 2.669615 1_555
Hf6 Si14 2.691037 1_556
Hf6 Si7 2.749953 1_555
Hf7 Si3 2.598412 1_645
Hf7 Si7 2.635026 1_655
Hf7 Si8 2.649360 1_545
Hf7 Si13 2.669615 1_555
Hf7 Si15 2.691037 1_655
Hf7 Si5 2.749953 1_555
Hf8 Si5 2.722798 1_555
Hf8 Si9 2.776539 1_555
Hf8 Si11 2.799314 1_545
Hf8 Si2 2.870193 1_545
Hf8 Si1 2.989904 1_555
Hf8 Si10 3.026553 1_545
Hf8 Si4 3.057171 1_555
Hf9 Si6 2.722798 1_555
Hf9 Si8 2.776539 1_555
Hf9 Si12 2.799314 1_565
Hf9 Si7 2.870193 1_565
Hf9 Si0 2.989904 1_555
Hf9 Si15 3.026553 1_565
Hf9 Si3 3.057171 1_555
Hf10 Si3 2.722798 1_555
Hf10 Si15 2.776539 1_555
Hf10 Si13 2.799314 1_455
Hf10 Si0 2.870193 1_455
Hf10 Si7 2.989904 1_555
Hf10 Si8 3.026553 1_455
Hf10 Si6 3.057171 1_555
Hf11 Si2 2.722798 1_555
Hf11 Si12 2.776539 1_564
Hf11 Si9 2.799314 1_565
Hf11 Si6 2.870193 1_554
Hf11 Si4 2.989904 1_565
Hf11 Si14 3.026553 1_555
Hf11 Si0 3.057171 1_554
Hf12 Si7 2.722798 1_555
Hf12 Si11 2.776539 1_545
Hf12 Si8 2.799314 1_545
Hf12 Si5 2.870193 1_555
Hf12 Si3 2.989904 1_545
Hf12 Si13 3.026553 1_555
Hf12 Si1 3.057171 1_555
Hf13 Si0 2.722798 1_555
Hf13 Si14 2.776539 1_656
Hf13 Si15 2.799314 1_655
Hf13 Si4 2.870193 1_556
Hf13 Si6 2.989904 1_655
Hf13 Si12 3.026553 1_555
Hf13 Si2 3.057171 1_556
Hf14 Si1 2.722798 1_555
Hf14 Si13 2.776539 1_455
Hf14 Si10 2.799314 1_455
Hf14 Si3 2.870193 1_555
Hf14 Si5 2.989904 1_455
Hf14 Si11 3.026553 1_555
Hf14 Si7 3.057171 1_555
Hf15 Si4 2.722798 1_555
Hf15 Si10 2.776539 1_555
Hf15 Si14 2.799314 1_655
Hf15 Si1 2.870193 1_655
Hf15 Si2 2.989904 1_555
Hf15 Si9 3.026553 1_655
Hf15 Si5 3.057171 1_555
Hf16 Si10 2.704280 1_555
Hf16 Si8 2.704280 1_555
Hf16 Si13 2.757420 1_555
Hf16 Si11 2.757420 1_555
Hf16 Si3 2.830343 1_655
Hf16 Si5 2.830343 1_565
Hf17 Si12 2.704280 1_555
Hf17 Si13 2.704280 1_555
Hf17 Si15 2.757420 1_655
Hf17 Si8 2.757420 1_545
Hf17 Si0 2.830343 1_555
Hf17 Si7 2.830343 1_555
Hf18 Si11 2.704280 1_555
Hf18 Si14 2.704280 1_555
Hf18 Si9 2.757420 1_565
Hf18 Si10 2.757420 1_455
Hf18 Si1 2.830343 1_555
Hf18 Si2 2.830343 1_555
Hf19 Si15 2.704280 1_554
Hf19 Si9 2.704280 1_555
Hf19 Si12 2.757420 1_554
Hf19 Si14 2.757420 1_555
Hf19 Si4 2.830343 1_455
Hf19 Si6 2.830343 1_544
Si0 Si8 2.490145 1_555
Si1 Si9 2.490145 1_555
Si10 Si2 2.490145 1_555
Si11 Si3 2.490145 1_555
Si12 Si4 2.490145 1_556
Si13 Si5 2.490145 1_555
Si14 Si6 2.490145 1_554
Si15 Si7 2.490145 1_555
