# generated using pymatgen
data_K2Ge(S2O7)3
_symmetry_space_group_name_H-M   'P 1'
_cell_length_a   9.85016241
_cell_length_b   9.85016241
_cell_length_c   11.17653900
_cell_angle_alpha   90.00000000
_cell_angle_beta   90.00000000
_cell_angle_gamma   120.00000277
_symmetry_Int_Tables_number   1
_chemical_formula_structural   K2Ge(S2O7)3
_chemical_formula_sum   'K4 Ge2 S12 O42'
_cell_volume   939.12789401
_cell_formula_units_Z   2
loop_
 _symmetry_equiv_pos_site_id
 _symmetry_equiv_pos_as_xyz
  1  'x, y, z'
loop_
 _atom_site_type_symbol
 _atom_site_label
 _atom_site_symmetry_multiplicity
 _atom_site_fract_x
 _atom_site_fract_y
 _atom_site_fract_z
 _atom_site_occupancy
  K  K0  1  0.66666700  0.33333300  0.44098300  1
  K  K1  1  0.33333300  0.66666700  0.55901700  1
  K  K2  1  0.66666700  0.33333300  0.87152800  1
  K  K3  1  0.33333300  0.66666700  0.12847200  1
  Ge  Ge0  1  0.00000000  0.00000000  0.24139600  1
  Ge  Ge1  1  0.00000000  0.00000000  0.75860400  1
  S  S0  1  0.92879100  0.26226000  0.66059100  1
  S  S1  1  0.73774000  0.66653100  0.66059100  1
  S  S2  1  0.33346900  0.07120900  0.66059100  1
  S  S3  1  0.07120900  0.73774000  0.33940900  1
  S  S4  1  0.26226000  0.33346900  0.33940900  1
  S  S5  1  0.66653100  0.92879100  0.33940900  1
  S  S6  1  0.84044600  0.65230900  0.15205700  1
  S  S7  1  0.34769100  0.18813700  0.15205700  1
  S  S8  1  0.81186300  0.15955400  0.15205700  1
  S  S9  1  0.15955400  0.34769100  0.84794300  1
  S  S10  1  0.65230900  0.81186300  0.84794300  1
  S  S11  1  0.18813700  0.84044600  0.84794300  1
  O  O0  1  0.88320100  0.82418500  0.13905800  1
  O  O1  1  0.17581500  0.05901600  0.13905800  1
  O  O2  1  0.94098400  0.11679900  0.13905800  1
  O  O3  1  0.11679900  0.17581500  0.86094200  1
  O  O4  1  0.82418500  0.94098400  0.86094200  1
  O  O5  1  0.05901600  0.88320100  0.86094200  1
  O  O6  1  0.94504500  0.11698100  0.65253200  1
  O  O7  1  0.88301900  0.82806400  0.65253200  1
  O  O8  1  0.17193600  0.05495500  0.65253200  1
  O  O9  1  0.05495500  0.88301900  0.34746800  1
  O  O10  1  0.11698100  0.17193600  0.34746800  1
  O  O11  1  0.82806400  0.94504500  0.34746800  1
  O  O12  1  0.76825700  0.22437000  0.66942000  1
  O  O13  1  0.77563000  0.54388700  0.66942000  1
  O  O14  1  0.45611300  0.23174300  0.66942000  1
  O  O15  1  0.23174300  0.77563000  0.33058000  1
  O  O16  1  0.22437000  0.45611300  0.33058000  1
  O  O17  1  0.54388700  0.76825700  0.33058000  1
  O  O18  1  0.82619300  0.58618400  0.03542100  1
  O  O19  1  0.41381600  0.24000900  0.03542100  1
  O  O20  1  0.75999100  0.17380700  0.03542100  1
  O  O21  1  0.17380700  0.41381600  0.96457900  1
  O  O22  1  0.58618400  0.75999100  0.96457900  1
  O  O23  1  0.24000900  0.82619300  0.96457900  1
  O  O24  1  0.72129100  0.56962100  0.24005300  1
  O  O25  1  0.43037900  0.15167000  0.24005300  1
  O  O26  1  0.84833000  0.27870900  0.24005300  1
  O  O27  1  0.27870900  0.43037900  0.75994700  1
  O  O28  1  0.56962100  0.84833000  0.75994700  1
  O  O29  1  0.15167000  0.72129100  0.75994700  1
  O  O30  1  0.99375400  0.33057900  0.79740700  1
  O  O31  1  0.66942100  0.66317500  0.79740700  1
  O  O32  1  0.33682500  0.00624600  0.79740700  1
  O  O33  1  0.00624600  0.66942100  0.20259300  1
  O  O34  1  0.33057900  0.33682500  0.20259300  1
  O  O35  1  0.66317500  0.99375400  0.20259300  1
  O  O36  1  0.02745200  0.37642300  0.57409600  1
  O  O37  1  0.62357700  0.65102900  0.57409600  1
  O  O38  1  0.34897100  0.97254800  0.57409600  1
  O  O39  1  0.97254800  0.62357700  0.42590400  1
  O  O40  1  0.37642300  0.34897100  0.42590400  1
  O  O41  1  0.65102900  0.02745200  0.42590400  1
loop_
_geom_bond_atom_site_label_1
_geom_bond_atom_site_label_2
_geom_bond_distance
_geom_bond_site_symmetry_2
K0 O41 2.943816 1_555
K0 O39 2.943821 1_555
K0 O40 2.943826 1_555
K0 O26 3.081797 1_555
K0 O25 3.081801 1_555
K0 O24 3.081803 1_555
K0 O12 3.121837 1_555
K0 O13 3.121842 1_555
K0 O14 3.121842 1_555
K1 O38 2.943816 1_555
K1 O36 2.943821 1_555
K1 O37 2.943826 1_555
K1 O29 3.081797 1_555
K1 O28 3.081801 1_555
K1 O27 3.081803 1_555
K1 O15 3.121837 1_555
K1 O16 3.121842 1_555
K1 O17 3.121842 1_555
K2 O20 2.848510 1_556
K2 O18 2.848516 1_556
K2 O19 2.848517 1_556
K2 O12 2.886148 1_555
K2 O13 2.886153 1_555
K2 O14 2.886154 1_555
K3 O23 2.848510 1_554
K3 O21 2.848516 1_554
K3 O22 2.848517 1_554
K3 O15 2.886148 1_555
K3 O16 2.886153 1_555
K3 O17 2.886154 1_555
Ge0 O0 1.907511 1_445
Ge0 O1 1.907511 1_555
Ge0 O2 1.907511 1_455
Ge0 O10 1.910491 1_555
Ge0 O11 1.910491 1_445
Ge0 O9 1.910491 1_545
Ge1 O3 1.907511 1_555
Ge1 O4 1.907511 1_445
Ge1 O5 1.907511 1_545
Ge1 O7 1.910491 1_445
Ge1 O8 1.910491 1_555
Ge1 O6 1.910491 1_455
O0 S6 1.533539 1_555
O1 S7 1.533539 1_555
O2 S8 1.533539 1_555
O3 S9 1.533539 1_555
O4 S10 1.533539 1_555
O5 S11 1.533539 1_555
O6 S0 1.520093 1_555
O7 S1 1.520093 1_555
O8 S2 1.520093 1_555
O9 S3 1.520093 1_555
O10 S4 1.520093 1_555
O11 S5 1.520093 1_555
O12 S0 1.435035 1_555
O13 S1 1.435035 1_555
O14 S2 1.435035 1_555
O15 S3 1.435035 1_555
O16 S4 1.435035 1_555
O17 S5 1.435035 1_555
O18 S6 1.432428 1_555
O19 S7 1.432428 1_555
O20 S8 1.432428 1_555
O21 S9 1.432428 1_555
O22 S10 1.432428 1_555
O23 S11 1.432428 1_555
O24 S6 1.432567 1_555
O25 S7 1.432567 1_555
O26 S8 1.432567 1_555
O27 S9 1.432567 1_555
O28 S10 1.432567 1_555
O29 S11 1.432567 1_555
O30 S9 1.655099 1_655
O30 S0 1.664317 1_555
O31 S10 1.655099 1_555
O31 S1 1.664317 1_555
O32 S11 1.655099 1_545
O32 S2 1.664317 1_555
O33 S6 1.655099 1_455
O33 S3 1.664317 1_555
O34 S7 1.655099 1_555
O34 S4 1.664317 1_555
O35 S8 1.655099 1_565
O35 S5 1.664317 1_555
O36 S0 1.432025 1_455
O37 S1 1.432025 1_555
O38 S2 1.432025 1_565
O39 S3 1.432025 1_655
O40 S4 1.432025 1_555
O41 S5 1.432025 1_545
