# generated using pymatgen
data_Mg3Bi
_symmetry_space_group_name_H-M   'P 1'
_cell_length_a   6.38063716
_cell_length_b   6.38063716
_cell_length_c   5.48799833
_cell_angle_alpha   90.00000000
_cell_angle_beta   90.00000000
_cell_angle_gamma   120.00000721
_symmetry_Int_Tables_number   1
_chemical_formula_structural   Mg3Bi
_chemical_formula_sum   'Mg6 Bi2'
_cell_volume   193.49630125
_cell_formula_units_Z   2
loop_
 _symmetry_equiv_pos_site_id
 _symmetry_equiv_pos_as_xyz
  1  'x, y, z'
loop_
 _atom_site_type_symbol
 _atom_site_label
 _atom_site_symmetry_multiplicity
 _atom_site_fract_x
 _atom_site_fract_y
 _atom_site_fract_z
 _atom_site_occupancy
  Mg  Mg0  1  0.67447245  0.83723722  0.75000000  1
  Mg  Mg1  1  0.16276278  0.32552755  0.75000000  1
  Mg  Mg2  1  0.16276278  0.83723722  0.75000000  1
  Mg  Mg3  1  0.83723722  0.67447245  0.25000000  1
  Mg  Mg4  1  0.83723722  0.16276278  0.25000000  1
  Mg  Mg5  1  0.32552755  0.16276278  0.25000000  1
  Bi  Bi0  1  0.66666700  0.33333300  0.75000000  1
  Bi  Bi1  1  0.33333300  0.66666700  0.25000000  1
loop_
_geom_bond_atom_site_label_1
_geom_bond_atom_site_label_2
_geom_bond_distance
_geom_bond_site_symmetry_2
Mg0 Mg1 3.115603 1_665
Mg0 Mg2 3.115603 1_655
Mg0 Mg1 3.265033 1_555
Mg0 Mg2 3.265034 1_555
Mg0 Mg4 3.281031 1_565
Mg0 Mg4 3.281031 1_566
Mg0 Mg3 3.281043 1_556
Mg0 Mg3 3.281043 1_555
Mg1 Mg2 3.115603 1_545
Mg1 Mg2 3.265034 1_555
Mg1 Mg4 3.281031 1_456
Mg1 Mg4 3.281031 1_455
Mg1 Mg5 3.281043 1_555
Mg1 Mg5 3.281043 1_556
Mg2 Mg3 3.281031 1_455
Mg2 Mg5 3.281031 1_566
Mg2 Mg5 3.281031 1_565
Mg2 Mg3 3.281031 1_456
Mg3 Mg5 3.115603 1_665
Mg3 Mg4 3.115603 1_565
Mg3 Mg5 3.265033 1_555
Mg3 Mg4 3.265034 1_555
Mg4 Mg5 3.115603 1_655
Mg4 Mg5 3.265034 1_555
Bi0 Mg0 3.190601 1_545
Bi0 Mg1 3.190601 1_655
Bi0 Mg2 3.190610 1_545
Bi0 Mg2 3.190610 1_655
Bi0 Mg1 3.190620 1_555
Bi0 Mg0 3.190620 1_555
Bi0 Mg5 3.329115 1_556
Bi0 Mg5 3.329115 1_555
Bi0 Mg3 3.329115 1_556
Bi0 Mg3 3.329115 1_555
Bi0 Mg4 3.329118 1_555
Bi0 Mg4 3.329118 1_556
Bi1 Mg5 3.190601 1_565
Bi1 Mg3 3.190601 1_455
Bi1 Mg4 3.190610 1_565
Bi1 Mg4 3.190610 1_455
Bi1 Mg3 3.190620 1_555
Bi1 Mg5 3.190620 1_555
Bi1 Mg1 3.329115 1_555
Bi1 Mg0 3.329115 1_554
Bi1 Mg0 3.329115 1_555
Bi1 Mg1 3.329115 1_554
Bi1 Mg2 3.329118 1_554
Bi1 Mg2 3.329118 1_555
