# generated using pymatgen
data_Zn3(PO6)2
_symmetry_space_group_name_H-M   'P 1'
_cell_length_a   5.15794471
_cell_length_b   5.92916935
_cell_length_c   7.84372885
_cell_angle_alpha   93.43755877
_cell_angle_beta   95.95229910
_cell_angle_gamma   90.36992938
_symmetry_Int_Tables_number   1
_chemical_formula_structural   Zn3(PO6)2
_chemical_formula_sum   'Zn3 P2 O12'
_cell_volume   238.13750677
_cell_formula_units_Z   1
loop_
 _symmetry_equiv_pos_site_id
 _symmetry_equiv_pos_as_xyz
  1  'x, y, z'
loop_
 _atom_site_type_symbol
 _atom_site_label
 _atom_site_symmetry_multiplicity
 _atom_site_fract_x
 _atom_site_fract_y
 _atom_site_fract_z
 _atom_site_occupancy
  Zn  Zn0  1  0.00000000  0.00000000  0.00000000  1
  Zn  Zn1  1  0.17235200  0.74227500  0.38740700  1
  Zn  Zn2  1  0.82764800  0.25772500  0.61259300  1
  P  P0  1  0.70667000  0.75691900  0.63218200  1
  P  P1  1  0.29333000  0.24308100  0.36781800  1
  O  O0  1  0.78907200  0.54982200  0.73408500  1
  O  O1  1  0.21092800  0.45017800  0.26591500  1
  O  O2  1  0.40716400  0.76469300  0.60190100  1
  O  O3  1  0.59283600  0.23530700  0.39809900  1
  O  O4  1  0.81121800  0.97741200  0.74031500  1
  O  O5  1  0.18878200  0.02258800  0.25968500  1
  O  O6  1  0.81836200  0.75154900  0.45748300  1
  O  O7  1  0.18163800  0.24845100  0.54251700  1
  O  O8  1  0.69482300  0.84134300  0.08408400  1
  O  O9  1  0.30517700  0.15865700  0.91591600  1
  O  O10  1  0.29681100  0.79967500  0.94331400  1
  O  O11  1  0.70318900  0.20032500  0.05668600  1
loop_
_geom_bond_atom_site_label_1
_geom_bond_atom_site_label_2
_geom_bond_distance
_geom_bond_site_symmetry_2
O0 P0 1.543139 1_555
O0 Zn2 1.947566 1_555
O1 P1 1.543139 1_555
O1 Zn1 1.947566 1_555
O2 P0 1.539866 1_555
O2 Zn1 1.965608 1_555
O3 P1 1.539866 1_555
O3 Zn2 1.965608 1_555
O4 P0 1.575557 1_555
O4 Zn2 1.997149 1_565
O4 Zn0 2.160853 1_666
O5 P1 1.575557 1_555
O5 Zn1 1.997149 1_545
O5 Zn0 2.160853 1_555
O6 P0 1.539265 1_555
O6 Zn1 1.960799 1_655
O7 P1 1.539265 1_555
O7 Zn2 1.960799 1_455
O8 Zn0 2.016991 1_665
O9 Zn0 2.016991 1_556
O10 Zn0 2.013345 1_566
O11 Zn0 2.013345 1_655
