# generated using pymatgen
data_CaH8(ClO6)2
_symmetry_space_group_name_H-M   'P 1'
_cell_length_a   5.55026100
_cell_length_b   8.03872645
_cell_length_c   11.83439144
_cell_angle_alpha   79.62691465
_cell_angle_beta   89.61725038
_cell_angle_gamma   89.42596537
_symmetry_Int_Tables_number   1
_chemical_formula_structural   CaH8(ClO6)2
_chemical_formula_sum   'Ca2 H16 Cl4 O24'
_cell_volume   519.35314885
_cell_formula_units_Z   2
loop_
 _symmetry_equiv_pos_site_id
 _symmetry_equiv_pos_as_xyz
  1  'x, y, z'
loop_
 _atom_site_type_symbol
 _atom_site_label
 _atom_site_symmetry_multiplicity
 _atom_site_fract_x
 _atom_site_fract_y
 _atom_site_fract_z
 _atom_site_occupancy
  Ca  Ca0  1  0.01134300  0.75919200  0.25526800  1
  Ca  Ca1  1  0.98865700  0.24080800  0.74473200  1
  H  H0  1  0.57668400  0.93495500  0.33847600  1
  H  H1  1  0.42331600  0.06504500  0.66152400  1
  H  H2  1  0.29746700  0.32573700  0.94187600  1
  H  H3  1  0.70253300  0.67426300  0.05812400  1
  H  H4  1  0.54849300  0.43939000  0.79426500  1
  H  H5  1  0.45150700  0.56061000  0.20573500  1
  H  H6  1  0.18288500  0.49573900  0.87900900  1
  H  H7  1  0.81711500  0.50426100  0.12099100  1
  H  H8  1  0.82356800  0.91581300  0.68733500  1
  H  H9  1  0.17643200  0.08418700  0.31266500  1
  H  H10  1  0.70379500  0.55926500  0.70219900  1
  H  H11  1  0.29620500  0.44073500  0.29780100  1
  H  H12  1  0.68432600  0.81101500  0.44380900  1
  H  H13  1  0.31567400  0.18898500  0.55619100  1
  H  H14  1  0.69416500  0.92018400  0.80430400  1
  H  H15  1  0.30583500  0.07981600  0.19569600  1
  Cl  Cl0  1  0.17847300  0.67783300  0.57772200  1
  Cl  Cl1  1  0.82152700  0.32216700  0.42227800  1
  Cl  Cl2  1  0.26133000  0.83440500  0.94285600  1
  Cl  Cl3  1  0.73867000  0.16559500  0.05714400  1
  O  O0  1  0.50298700  0.76760200  0.92462500  1
  O  O1  1  0.49701300  0.23239800  0.07537500  1
  O  O2  1  0.05832500  0.25548700  0.39436400  1
  O  O3  1  0.94167500  0.74451300  0.60563600  1
  O  O4  1  0.25088900  0.38750500  0.86538800  1
  O  O5  1  0.74911100  0.61249500  0.13461200  1
  O  O6  1  0.17784200  0.49336200  0.61098100  1
  O  O7  1  0.82215800  0.50663800  0.38901900  1
  O  O8  1  0.36817200  0.74730000  0.63797700  1
  O  O9  1  0.63182800  0.25270000  0.36202300  1
  O  O10  1  0.72332800  0.87210600  0.36702000  1
  O  O11  1  0.27667200  0.12789400  0.63298000  1
  O  O12  1  0.23441900  0.84726800  0.06381200  1
  O  O13  1  0.76558100  0.15273200  0.93618800  1
  O  O14  1  0.74143400  0.99250600  0.73158200  1
  O  O15  1  0.25856600  0.00749400  0.26841800  1
  O  O16  1  0.07950300  0.72180900  0.91090300  1
  O  O17  1  0.92049700  0.27819100  0.08909700  1
  O  O18  1  0.22173600  0.72265700  0.45404900  1
  O  O19  1  0.77826400  0.27734300  0.54595100  1
  O  O20  1  0.28814000  0.54312000  0.23911800  1
  O  O21  1  0.71186000  0.45688000  0.76088200  1
  O  O22  1  0.23719600  0.00223800  0.87269200  1
  O  O23  1  0.76280400  0.99776200  0.12730800  1
loop_
_geom_bond_atom_site_label_1
_geom_bond_atom_site_label_2
_geom_bond_distance
_geom_bond_site_symmetry_2
Ca0 O20 2.340056 1_555
Ca0 O10 2.345912 1_455
Ca0 O15 2.461860 1_565
Ca0 O5 2.493272 1_455
Ca0 O12 2.563267 1_555
Ca0 O7 2.567691 1_455
Ca0 O18 2.600946 1_555
Ca0 O23 2.608277 1_455
Ca1 O21 2.340056 1_555
Ca1 O11 2.345912 1_655
Ca1 O14 2.461860 1_545
Ca1 O4 2.493272 1_655
Ca1 O13 2.563267 1_555
Ca1 O6 2.567691 1_655
Ca1 O19 2.600946 1_555
Ca1 O22 2.608277 1_655
H0 O10 0.982747 1_555
H1 O11 0.982747 1_555
H2 O4 0.985619 1_555
H3 O5 0.985619 1_555
H4 O21 0.987811 1_555
H5 O20 0.987811 1_555
H6 O4 0.984159 1_555
H7 O5 0.984159 1_555
H8 O14 0.984648 1_555
H9 O15 0.984648 1_555
H10 O21 0.977521 1_555
H11 O20 0.977521 1_555
H12 O10 0.976038 1_555
H13 O11 0.976038 1_555
H14 O14 0.983542 1_555
H15 O15 0.983542 1_555
Cl0 O8 1.447097 1_555
Cl0 O18 1.461755 1_555
Cl0 O6 1.464192 1_555
Cl0 O3 1.472297 1_455
Cl1 O9 1.447097 1_555
Cl1 O19 1.461755 1_555
Cl1 O7 1.464192 1_555
Cl1 O2 1.472297 1_655
Cl2 O22 1.456743 1_565
Cl2 O16 1.458550 1_555
Cl2 O12 1.460192 1_556
Cl2 O0 1.468786 1_555
Cl3 O23 1.456743 1_545
Cl3 O17 1.458550 1_555
Cl3 O13 1.460192 1_554
Cl3 O1 1.468786 1_555
