# generated using pymatgen
data_LaCu(MoO4)2
_symmetry_space_group_name_H-M   'P 1'
_cell_length_a   10.12380500
_cell_length_b   10.18545500
_cell_length_c   13.88108200
_cell_angle_alpha   90.00000000
_cell_angle_beta   90.00000000
_cell_angle_gamma   90.00000000
_symmetry_Int_Tables_number   1
_chemical_formula_structural   LaCu(MoO4)2
_chemical_formula_sum   'La8 Cu8 Mo16 O64'
_cell_volume   1431.35554739
_cell_formula_units_Z   8
loop_
 _symmetry_equiv_pos_site_id
 _symmetry_equiv_pos_as_xyz
  1  'x, y, z'
loop_
 _atom_site_type_symbol
 _atom_site_label
 _atom_site_symmetry_multiplicity
 _atom_site_fract_x
 _atom_site_fract_y
 _atom_site_fract_z
 _atom_site_occupancy
  La  La0  1  0.37905500  0.95683800  0.62665000  1
  La  La1  1  0.62094500  0.04316200  0.37335000  1
  La  La2  1  0.12094500  0.45683800  0.37335000  1
  La  La3  1  0.62094500  0.54316200  0.12665000  1
  La  La4  1  0.87905500  0.54316200  0.62665000  1
  La  La5  1  0.37905500  0.45683800  0.87335000  1
  La  La6  1  0.87905500  0.04316200  0.87335000  1
  La  La7  1  0.12094500  0.95683800  0.12665000  1
  Cu  Cu0  1  0.41916900  0.77304600  0.98697900  1
  Cu  Cu1  1  0.58083100  0.22695400  0.01302100  1
  Cu  Cu2  1  0.08083100  0.27304600  0.01302100  1
  Cu  Cu3  1  0.58083100  0.72695400  0.48697900  1
  Cu  Cu4  1  0.91916900  0.72695400  0.98697900  1
  Cu  Cu5  1  0.41916900  0.27304600  0.51302100  1
  Cu  Cu6  1  0.91916900  0.22695400  0.51302100  1
  Cu  Cu7  1  0.08083100  0.77304600  0.48697900  1
  Mo  Mo0  1  0.28679600  0.58379500  0.58164800  1
  Mo  Mo1  1  0.71320400  0.41620500  0.41835200  1
  Mo  Mo2  1  0.21320400  0.08379500  0.41835200  1
  Mo  Mo3  1  0.71320400  0.91620500  0.08164800  1
  Mo  Mo4  1  0.78679600  0.91620500  0.58164800  1
  Mo  Mo5  1  0.28679600  0.08379500  0.91835200  1
  Mo  Mo6  1  0.78679600  0.41620500  0.91835200  1
  Mo  Mo7  1  0.21320400  0.58379500  0.08164800  1
  Mo  Mo8  1  0.13227700  0.73607400  0.79582800  1
  Mo  Mo9  1  0.86772300  0.26392600  0.20417200  1
  Mo  Mo10  1  0.36772300  0.23607400  0.20417200  1
  Mo  Mo11  1  0.86772300  0.76392600  0.29582800  1
  Mo  Mo12  1  0.63227700  0.76392600  0.79582800  1
  Mo  Mo13  1  0.13227700  0.23607400  0.70417200  1
  Mo  Mo14  1  0.63227700  0.26392600  0.70417200  1
  Mo  Mo15  1  0.36772300  0.73607400  0.29582800  1
  O  O0  1  0.33937100  0.94330800  0.98852700  1
  O  O1  1  0.66062900  0.05669200  0.01147300  1
  O  O2  1  0.16062900  0.44330800  0.01147300  1
  O  O3  1  0.66062900  0.55669200  0.48852700  1
  O  O4  1  0.83937100  0.55669200  0.98852700  1
  O  O5  1  0.33937100  0.44330800  0.51147300  1
  O  O6  1  0.83937100  0.05669200  0.51147300  1
  O  O7  1  0.16062900  0.94330800  0.48852700  1
  O  O8  1  0.40039300  0.72037000  0.55966000  1
  O  O9  1  0.59960700  0.27963000  0.44034000  1
  O  O10  1  0.09960700  0.22037000  0.44034000  1
  O  O11  1  0.59960700  0.77963000  0.05966000  1
  O  O12  1  0.90039300  0.77963000  0.55966000  1
  O  O13  1  0.40039300  0.22037000  0.94034000  1
  O  O14  1  0.90039300  0.27963000  0.94034000  1
  O  O15  1  0.09960700  0.72037000  0.05966000  1
  O  O16  1  0.10929500  0.59434300  0.54253200  1
  O  O17  1  0.89070500  0.40565700  0.45746800  1
  O  O18  1  0.39070500  0.09434300  0.45746800  1
  O  O19  1  0.89070500  0.90565700  0.04253200  1
  O  O20  1  0.60929500  0.90565700  0.54253200  1
  O  O21  1  0.10929500  0.09434300  0.95746800  1
  O  O22  1  0.60929500  0.40565700  0.95746800  1
  O  O23  1  0.39070500  0.59434300  0.04253200  1
  O  O24  1  0.01546400  0.61684800  0.75543200  1
  O  O25  1  0.98453600  0.38315200  0.24456800  1
  O  O26  1  0.48453600  0.11684800  0.24456800  1
  O  O27  1  0.98453600  0.88315200  0.25543200  1
  O  O28  1  0.51546400  0.88315200  0.75543200  1
  O  O29  1  0.01546400  0.11684800  0.74456800  1
  O  O30  1  0.51546400  0.38315200  0.74456800  1
  O  O31  1  0.48453600  0.61684800  0.25543200  1
  O  O32  1  0.20699900  0.80997700  0.69067000  1
  O  O33  1  0.79300100  0.19002300  0.30933000  1
  O  O34  1  0.29300100  0.30997700  0.30933000  1
  O  O35  1  0.79300100  0.69002300  0.19067000  1
  O  O36  1  0.70699900  0.69002300  0.69067000  1
  O  O37  1  0.20699900  0.30997700  0.80933000  1
  O  O38  1  0.70699900  0.19002300  0.80933000  1
  O  O39  1  0.29300100  0.80997700  0.19067000  1
  O  O40  1  0.29648600  0.53913700  0.70493500  1
  O  O41  1  0.70351400  0.46086300  0.29506500  1
  O  O42  1  0.20351400  0.03913700  0.29506500  1
  O  O43  1  0.70351400  0.96086300  0.20493500  1
  O  O44  1  0.79648600  0.96086300  0.70493500  1
  O  O45  1  0.29648600  0.03913700  0.79506500  1
  O  O46  1  0.79648600  0.46086300  0.79506500  1
  O  O47  1  0.20351400  0.53913700  0.20493500  1
  O  O48  1  0.03864700  0.85475100  0.86276500  1
  O  O49  1  0.96135300  0.14524900  0.13723500  1
  O  O50  1  0.46135300  0.35475100  0.13723500  1
  O  O51  1  0.96135300  0.64524900  0.36276500  1
  O  O52  1  0.53864700  0.64524900  0.86276500  1
  O  O53  1  0.03864700  0.35475100  0.63723500  1
  O  O54  1  0.53864700  0.14524900  0.63723500  1
  O  O55  1  0.46135300  0.85475100  0.36276500  1
  O  O56  1  0.25112700  0.66551200  0.87888900  1
  O  O57  1  0.74887300  0.33448800  0.12111100  1
  O  O58  1  0.24887300  0.16551200  0.12111100  1
  O  O59  1  0.74887300  0.83448800  0.37888900  1
  O  O60  1  0.75112700  0.83448800  0.87888900  1
  O  O61  1  0.25112700  0.16551200  0.62111100  1
  O  O62  1  0.75112700  0.33448800  0.62111100  1
  O  O63  1  0.24887300  0.66551200  0.37888900  1
loop_
_geom_bond_atom_site_label_1
_geom_bond_atom_site_label_2
_geom_bond_distance
_geom_bond_site_symmetry_2
La0 O28 2.380341 1_555
La0 O32 2.461984 1_555
La0 O61 2.490128 1_565
La0 O54 2.512920 1_565
La0 O8 2.590831 1_555
La0 O45 2.620428 1_565
La0 O20 2.658623 1_555
La0 O18 2.736891 1_565
La0 O7 2.929996 1_555
La1 O26 2.380341 1_555
La1 O33 2.461984 1_555
La1 O59 2.490128 1_545
La1 O55 2.512920 1_545
La1 O9 2.590831 1_555
La1 O43 2.620428 1_545
La1 O18 2.658623 1_555
La1 O20 2.736891 1_545
La1 O6 2.929996 1_555
La2 O25 2.380341 1_455
La2 O34 2.461984 1_555
La2 O63 2.490128 1_555
La2 O51 2.512920 1_455
La2 O10 2.590831 1_555
La2 O47 2.620428 1_555
La2 O17 2.658623 1_455
La2 O16 2.736891 1_555
La2 O5 2.929996 1_555
La3 O31 2.380341 1_555
La3 O35 2.461984 1_555
La3 O57 2.490128 1_555
La3 O50 2.512920 1_555
La3 O11 2.590831 1_555
La3 O41 2.620428 1_555
La3 O23 2.658623 1_555
La3 O22 2.736891 1_554
La3 O4 2.929996 1_554
La4 O24 2.380341 1_655
La4 O36 2.461984 1_555
La4 O62 2.490128 1_555
La4 O53 2.512920 1_655
La4 O12 2.590831 1_555
La4 O46 2.620428 1_555
La4 O16 2.658623 1_655
La4 O17 2.736891 1_555
La4 O3 2.929996 1_555
La5 O30 2.380341 1_555
La5 O37 2.461984 1_555
La5 O56 2.490128 1_555
La5 O52 2.512920 1_555
La5 O13 2.590831 1_555
La5 O40 2.620428 1_555
La5 O22 2.658623 1_555
La5 O23 2.736891 1_556
La5 O2 2.929996 1_556
La6 O29 2.380341 1_655
La6 O38 2.461984 1_555
La6 O60 2.490128 1_545
La6 O48 2.512920 1_645
La6 O14 2.590831 1_555
La6 O44 2.620428 1_545
La6 O21 2.658623 1_655
La6 O19 2.736891 1_546
La6 O1 2.929996 1_556
La7 O27 2.380341 1_455
La7 O39 2.461984 1_555
La7 O58 2.490128 1_565
La7 O49 2.512920 1_465
La7 O15 2.590831 1_555
La7 O42 2.620428 1_565
La7 O19 2.658623 1_455
La7 O21 2.736891 1_564
La7 O0 2.929996 1_554
Cu0 O0 1.913252 1_555
Cu0 O23 1.997677 1_556
Cu0 O11 2.087884 1_556
Cu0 O52 2.475957 1_555
Cu0 O56 2.518934 1_555
Cu1 O1 1.913252 1_555
Cu1 O22 1.997677 1_554
Cu1 O13 2.087884 1_554
Cu1 O50 2.475957 1_555
Cu1 O57 2.518934 1_555
Cu2 O2 1.913252 1_555
Cu2 O21 1.997677 1_554
Cu2 O14 2.087884 1_454
Cu2 O49 2.475957 1_455
Cu2 O58 2.518934 1_555
Cu3 O3 1.913252 1_555
Cu3 O20 1.997677 1_555
Cu3 O8 2.087884 1_555
Cu3 O55 2.475957 1_555
Cu3 O59 2.518934 1_555
Cu4 O4 1.913252 1_555
Cu4 O19 1.997677 1_556
Cu4 O15 2.087884 1_656
Cu4 O48 2.475957 1_655
Cu4 O60 2.518934 1_555
Cu5 O5 1.913252 1_555
Cu5 O18 1.997677 1_555
Cu5 O9 2.087884 1_555
Cu5 O54 2.475957 1_555
Cu5 O61 2.518934 1_555
Cu6 O6 1.913252 1_555
Cu6 O17 1.997677 1_555
Cu6 O10 2.087884 1_655
Cu6 O53 2.475957 1_655
Cu6 O62 2.518934 1_555
Cu7 O7 1.913252 1_555
Cu7 O16 1.997677 1_555
Cu7 O12 2.087884 1_455
Cu7 O51 2.475957 1_455
Cu7 O63 2.518934 1_555
Mo0 O40 1.773490 1_555
Mo0 O5 1.811001 1_555
Mo0 O8 1.830529 1_555
Mo0 O16 1.880297 1_555
Mo1 O41 1.773490 1_555
Mo1 O3 1.811001 1_555
Mo1 O9 1.830529 1_555
Mo1 O17 1.880297 1_555
Mo2 O42 1.773490 1_555
Mo2 O7 1.811001 1_545
Mo2 O10 1.830529 1_555
Mo2 O18 1.880297 1_555
Mo3 O43 1.773490 1_555
Mo3 O1 1.811001 1_565
Mo3 O11 1.830529 1_555
Mo3 O19 1.880297 1_555
Mo4 O44 1.773490 1_555
Mo4 O6 1.811001 1_565
Mo4 O12 1.830529 1_555
Mo4 O20 1.880297 1_555
Mo5 O45 1.773490 1_555
Mo5 O0 1.811001 1_545
Mo5 O13 1.830529 1_555
Mo5 O21 1.880297 1_555
Mo6 O46 1.773490 1_555
Mo6 O4 1.811001 1_555
Mo6 O14 1.830529 1_555
Mo6 O22 1.880297 1_555
Mo7 O47 1.773490 1_555
Mo7 O2 1.811001 1_555
Mo7 O15 1.830529 1_555
Mo7 O23 1.880297 1_555
Mo8 O24 1.785399 1_555
Mo8 O48 1.795266 1_555
Mo8 O32 1.808204 1_555
Mo8 O56 1.814833 1_555
Mo9 O25 1.785399 1_555
Mo9 O49 1.795266 1_555
Mo9 O33 1.808204 1_555
Mo9 O57 1.814833 1_555
Mo10 O26 1.785399 1_555
Mo10 O50 1.795266 1_555
Mo10 O34 1.808204 1_555
Mo10 O58 1.814833 1_555
Mo11 O27 1.785399 1_555
Mo11 O51 1.795266 1_555
Mo11 O35 1.808204 1_555
Mo11 O59 1.814833 1_555
Mo12 O28 1.785399 1_555
Mo12 O52 1.795266 1_555
Mo12 O36 1.808204 1_555
Mo12 O60 1.814833 1_555
Mo13 O29 1.785399 1_555
Mo13 O53 1.795266 1_555
Mo13 O37 1.808204 1_555
Mo13 O61 1.814833 1_555
Mo14 O30 1.785399 1_555
Mo14 O54 1.795266 1_555
Mo14 O38 1.808204 1_555
Mo14 O62 1.814833 1_555
Mo15 O31 1.785399 1_555
Mo15 O55 1.795266 1_555
Mo15 O39 1.808204 1_555
Mo15 O63 1.814833 1_555
