# generated using pymatgen
data_TbPa
_symmetry_space_group_name_H-M   'P 1'
_cell_length_a   6.59290370
_cell_length_b   6.59290370
_cell_length_c   11.65207400
_cell_angle_alpha   90.00000000
_cell_angle_beta   90.00000000
_cell_angle_gamma   119.99999697
_symmetry_Int_Tables_number   1
_chemical_formula_structural   TbPa
_chemical_formula_sum   'Tb8 Pa8'
_cell_volume   438.61890183
_cell_formula_units_Z   8
loop_
 _symmetry_equiv_pos_site_id
 _symmetry_equiv_pos_as_xyz
  1  'x, y, z'
loop_
 _atom_site_type_symbol
 _atom_site_label
 _atom_site_symmetry_multiplicity
 _atom_site_fract_x
 _atom_site_fract_y
 _atom_site_fract_z
 _atom_site_occupancy
  Tb  Tb0_0  1  0.00000000  0.00000000  0.00000000  1
  Tb  Tb0_1  1  0.00000000  0.00000000  0.50000000  1
  Tb  Tb0_2  1  0.00000000  0.50000000  0.00000000  1
  Tb  Tb0_3  1  0.00000000  0.50000000  0.50000000  1
  Tb  Tb0_4  1  0.50000000  0.00000000  0.00000000  1
  Tb  Tb0_5  1  0.50000000  0.00000000  0.50000000  1
  Tb  Tb0_6  1  0.50000000  0.50000000  0.00000000  1
  Tb  Tb0_7  1  0.50000000  0.50000000  0.50000000  1
  Pa  Pa0_0  1  0.16666650  0.33333350  0.25000000  1
  Pa  Pa0_1  1  0.16666650  0.33333350  0.75000000  1
  Pa  Pa0_2  1  0.16666650  0.83333350  0.25000000  1
  Pa  Pa0_3  1  0.16666650  0.83333350  0.75000000  1
  Pa  Pa0_4  1  0.66666650  0.33333350  0.25000000  1
  Pa  Pa0_5  1  0.66666650  0.33333350  0.75000000  1
  Pa  Pa0_6  1  0.66666650  0.83333350  0.25000000  1
  Pa  Pa0_7  1  0.66666650  0.83333350  0.75000000  1
loop_
_geom_bond_atom_site_label_1
_geom_bond_atom_site_label_2
_geom_bond_distance
_geom_bond_site_symmetry_2
Tb0_0 Tb0_2 3.296452 1_555
Tb0_0 Tb0_2 3.296452 1_545
Tb0_0 Tb0_4 3.296452 1_555
Tb0_0 Tb0_4 3.296452 1_455
Tb0_0 Tb0_6 3.296452 1_555
Tb0_0 Tb0_6 3.296452 1_445
Tb0_1 Tb0_3 3.296452 1_555
Tb0_1 Tb0_3 3.296452 1_545
Tb0_1 Tb0_5 3.296452 1_455
Tb0_1 Tb0_5 3.296452 1_555
Tb0_1 Tb0_7 3.296452 1_445
Tb0_1 Tb0_7 3.296452 1_555
Tb0_2 Tb0_6 3.296452 1_555
Tb0_2 Tb0_6 3.296452 1_455
Tb0_2 Tb0_4 3.296452 1_565
Tb0_2 Tb0_4 3.296452 1_455
Tb0_3 Tb0_7 3.296452 1_455
Tb0_3 Tb0_7 3.296452 1_555
Tb0_3 Tb0_5 3.296452 1_455
Tb0_3 Tb0_5 3.296452 1_565
Tb0_4 Tb0_6 3.296452 1_555
Tb0_4 Tb0_6 3.296452 1_545
Tb0_5 Tb0_7 3.296452 1_545
Tb0_5 Tb0_7 3.296452 1_555
Pa0_0 Pa0_4 3.296452 1_455
Pa0_0 Pa0_2 3.296452 1_545
Pa0_0 Pa0_4 3.296452 1_555
Pa0_0 Pa0_2 3.296452 1_555
Pa0_0 Pa0_6 3.296452 1_445
Pa0_0 Pa0_6 3.296452 1_555
Pa0_0 Tb0_3 3.479636 1_555
Pa0_0 Tb0_2 3.479636 1_555
Pa0_0 Tb0_0 3.479638 1_555
Pa0_0 Tb0_6 3.479638 1_555
Pa0_0 Tb0_7 3.479638 1_555
Pa0_0 Tb0_1 3.479638 1_555
Pa0_1 Pa0_5 3.296452 1_455
Pa0_1 Pa0_3 3.296452 1_545
Pa0_1 Pa0_5 3.296452 1_555
Pa0_1 Pa0_3 3.296452 1_555
Pa0_1 Pa0_7 3.296452 1_445
Pa0_1 Pa0_7 3.296452 1_555
Pa0_1 Tb0_3 3.479636 1_555
Pa0_1 Tb0_2 3.479636 1_556
Pa0_1 Tb0_6 3.479638 1_556
Pa0_1 Tb0_1 3.479638 1_555
Pa0_1 Tb0_7 3.479638 1_555
Pa0_1 Tb0_0 3.479638 1_556
Pa0_2 Pa0_6 3.296452 1_455
Pa0_2 Pa0_6 3.296452 1_555
Pa0_2 Pa0_4 3.296452 1_455
Pa0_2 Pa0_4 3.296452 1_565
Pa0_2 Tb0_0 3.479636 1_565
Pa0_2 Tb0_1 3.479636 1_565
Pa0_2 Tb0_4 3.479638 1_565
Pa0_2 Tb0_2 3.479638 1_555
Pa0_2 Tb0_5 3.479638 1_565
Pa0_2 Tb0_3 3.479638 1_555
Pa0_3 Pa0_7 3.296452 1_555
Pa0_3 Pa0_7 3.296452 1_455
Pa0_3 Pa0_5 3.296452 1_565
Pa0_3 Pa0_5 3.296452 1_455
Pa0_3 Tb0_0 3.479636 1_566
Pa0_3 Tb0_1 3.479636 1_565
Pa0_3 Tb0_2 3.479638 1_556
Pa0_3 Tb0_5 3.479638 1_565
Pa0_3 Tb0_4 3.479638 1_566
Pa0_3 Tb0_3 3.479638 1_555
Pa0_4 Pa0_6 3.296452 1_555
Pa0_4 Pa0_6 3.296452 1_545
Pa0_4 Tb0_6 3.479636 1_555
Pa0_4 Tb0_7 3.479636 1_555
Pa0_4 Tb0_5 3.479638 1_555
Pa0_4 Tb0_2 3.479638 1_655
Pa0_4 Tb0_3 3.479638 1_655
Pa0_4 Tb0_4 3.479638 1_555
Pa0_5 Pa0_7 3.296452 1_555
Pa0_5 Pa0_7 3.296452 1_545
Pa0_5 Tb0_6 3.479636 1_556
Pa0_5 Tb0_7 3.479636 1_555
Pa0_5 Tb0_5 3.479638 1_555
Pa0_5 Tb0_2 3.479638 1_656
Pa0_5 Tb0_3 3.479638 1_655
Pa0_5 Tb0_4 3.479638 1_556
Pa0_6 Tb0_5 3.479636 1_565
Pa0_6 Tb0_4 3.479636 1_565
Pa0_6 Tb0_1 3.479638 1_665
Pa0_6 Tb0_6 3.479638 1_555
Pa0_6 Tb0_7 3.479638 1_555
Pa0_6 Tb0_0 3.479638 1_665
Pa0_7 Tb0_4 3.479636 1_566
Pa0_7 Tb0_5 3.479636 1_565
Pa0_7 Tb0_1 3.479638 1_665
Pa0_7 Tb0_6 3.479638 1_556
Pa0_7 Tb0_7 3.479638 1_555
Pa0_7 Tb0_0 3.479638 1_666
