# generated using pymatgen
data_Er2Al17
_symmetry_space_group_name_H-M   'P 1'
_cell_length_a   9.43256309
_cell_length_b   9.43256309
_cell_length_c   8.83843900
_cell_angle_alpha   90.00000000
_cell_angle_beta   90.00000000
_cell_angle_gamma   119.99999364
_symmetry_Int_Tables_number   1
_chemical_formula_structural   Er2Al17
_chemical_formula_sum   'Er4 Al34'
_cell_volume   681.02909471
_cell_formula_units_Z   2
loop_
 _symmetry_equiv_pos_site_id
 _symmetry_equiv_pos_as_xyz
  1  'x, y, z'
loop_
 _atom_site_type_symbol
 _atom_site_label
 _atom_site_symmetry_multiplicity
 _atom_site_fract_x
 _atom_site_fract_y
 _atom_site_fract_z
 _atom_site_occupancy
  Er  Er0  1  0.00000000  0.00000000  0.25000000  1
  Er  Er1  1  0.00000000  0.00000000  0.75000000  1
  Er  Er2  1  0.33333300  0.66666700  0.75000000  1
  Er  Er3  1  0.66666700  0.33333300  0.25000000  1
  Al  Al0  1  0.33333300  0.66666700  0.39866400  1
  Al  Al1  1  0.66666700  0.33333300  0.60133600  1
  Al  Al2  1  0.66666700  0.33333300  0.89866400  1
  Al  Al3  1  0.33333300  0.66666700  0.10133600  1
  Al  Al4  1  0.50000000  0.50000000  0.50000000  1
  Al  Al5  1  0.50000000  0.00000000  0.50000000  1
  Al  Al6  1  0.00000000  0.50000000  0.50000000  1
  Al  Al7  1  0.50000000  0.50000000  0.00000000  1
  Al  Al8  1  0.50000000  0.00000000  0.00000000  1
  Al  Al9  1  0.00000000  0.50000000  0.00000000  1
  Al  Al10  1  0.32847600  0.36075300  0.25000000  1
  Al  Al11  1  0.63924700  0.96772300  0.25000000  1
  Al  Al12  1  0.03227700  0.67152400  0.25000000  1
  Al  Al13  1  0.63924700  0.67152400  0.25000000  1
  Al  Al14  1  0.03227700  0.36075300  0.25000000  1
  Al  Al15  1  0.32847600  0.96772300  0.25000000  1
  Al  Al16  1  0.67152400  0.63924700  0.75000000  1
  Al  Al17  1  0.36075300  0.03227700  0.75000000  1
  Al  Al18  1  0.96772300  0.32847600  0.75000000  1
  Al  Al19  1  0.36075300  0.32847600  0.75000000  1
  Al  Al20  1  0.96772300  0.63924700  0.75000000  1
  Al  Al21  1  0.67152400  0.03227700  0.75000000  1
  Al  Al22  1  0.16317000  0.83683000  0.52243800  1
  Al  Al23  1  0.16317000  0.32633900  0.52243800  1
  Al  Al24  1  0.67366100  0.83683000  0.52243800  1
  Al  Al25  1  0.83683000  0.16317000  0.47756200  1
  Al  Al26  1  0.83683000  0.67366100  0.47756200  1
  Al  Al27  1  0.32633900  0.16317000  0.47756200  1
  Al  Al28  1  0.83683000  0.16317000  0.02243800  1
  Al  Al29  1  0.83683000  0.67366100  0.02243800  1
  Al  Al30  1  0.32633900  0.16317000  0.02243800  1
  Al  Al31  1  0.16317000  0.83683000  0.97756200  1
  Al  Al32  1  0.16317000  0.32633900  0.97756200  1
  Al  Al33  1  0.67366100  0.83683000  0.97756200  1
loop_
_geom_bond_atom_site_label_1
_geom_bond_atom_site_label_2
_geom_bond_distance
_geom_bond_site_symmetry_2
Al0 Al3 2.627915 1_555
Al0 Al6 2.866464 1_555
Al0 Al5 2.866464 1_565
Al0 Al4 2.866472 1_555
Al0 Al22 2.987566 1_555
Al0 Al24 2.987581 1_555
Al0 Al23 2.987581 1_555
Al0 Er2 3.105262 1_555
Al1 Al2 2.627915 1_555
Al1 Al5 2.866464 1_555
Al1 Al6 2.866464 1_655
Al1 Al4 2.866472 1_555
Al1 Al25 2.987566 1_555
Al1 Al26 2.987581 1_555
Al1 Al27 2.987581 1_555
Al1 Er3 3.105262 1_555
Al2 Al9 2.866464 1_656
Al2 Al8 2.866464 1_556
Al2 Al7 2.866472 1_556
Al2 Al28 2.987566 1_556
Al2 Al29 2.987581 1_556
Al2 Al30 2.987581 1_556
Al2 Er3 3.105262 1_556
Al3 Al8 2.866464 1_565
Al3 Al9 2.866464 1_555
Al3 Al7 2.866472 1_555
Al3 Al31 2.987566 1_554
Al3 Al33 2.987581 1_554
Al3 Al32 2.987581 1_554
Al3 Er2 3.105262 1_554
Al4 Er3 3.506685 1_555
Al4 Er2 3.506685 1_555
Al5 Er2 3.506679 1_545
Al5 Er3 3.506679 1_555
Al6 Er2 3.506679 1_555
Al6 Er3 3.506679 1_455
Al7 Er2 3.506685 1_554
Al7 Er3 3.506685 1_555
Al8 Er2 3.506679 1_544
Al8 Er3 3.506679 1_555
Al9 Er2 3.506679 1_554
Al9 Er3 3.506679 1_455
Al10 Al4 2.664606 1_555
Al10 Al7 2.664606 1_555
Al10 Al30 2.735246 1_555
Al10 Al27 2.735246 1_555
Al10 Al14 2.793916 1_555
Al10 Al23 2.797967 1_555
Al10 Al32 2.797967 1_554
Al10 Al13 2.931367 1_555
Al10 Er0 3.261274 1_555
Al10 Er3 3.326877 1_555
Al11 Al8 2.664606 1_565
Al11 Al5 2.664606 1_565
Al11 Al25 2.735249 1_565
Al11 Al28 2.735249 1_565
Al11 Al13 2.793916 1_555
Al11 Al24 2.797972 1_555
Al11 Al33 2.797972 1_554
Al11 Al15 2.931367 1_555
Al11 Er0 3.261274 1_665
Al11 Er3 3.326868 1_565
Al12 Al9 2.664606 1_555
Al12 Al6 2.664606 1_555
Al12 Al29 2.735252 1_455
Al12 Al26 2.735252 1_455
Al12 Al15 2.793916 1_555
Al12 Al22 2.797968 1_555
Al12 Al31 2.797968 1_554
Al12 Al14 2.931367 1_555
Al12 Er0 3.261274 1_565
Al12 Er3 3.326872 1_455
Al13 Al7 2.664606 1_555
Al13 Al4 2.664606 1_555
Al13 Al29 2.735246 1_555
Al13 Al26 2.735246 1_555
Al13 Al24 2.797967 1_555
Al13 Al33 2.797967 1_554
Al13 Er0 3.261274 1_665
Al13 Er3 3.326877 1_555
Al14 Al9 2.664606 1_555
Al14 Al6 2.664606 1_555
Al14 Al25 2.735249 1_455
Al14 Al28 2.735249 1_455
Al14 Al23 2.797972 1_555
Al14 Al32 2.797972 1_554
Al14 Er0 3.261274 1_555
Al14 Er3 3.326868 1_455
Al15 Al8 2.664606 1_565
Al15 Al5 2.664606 1_565
Al15 Al30 2.735252 1_565
Al15 Al27 2.735252 1_565
Al15 Al22 2.797968 1_555
Al15 Al31 2.797968 1_554
Al15 Er0 3.261274 1_565
Al15 Er3 3.326872 1_565
Al16 Al7 2.664606 1_556
Al16 Al4 2.664606 1_555
Al16 Al33 2.735246 1_555
Al16 Al24 2.735246 1_555
Al16 Al20 2.793916 1_555
Al16 Al29 2.797967 1_556
Al16 Al26 2.797967 1_555
Al16 Al19 2.931367 1_555
Al16 Er1 3.261274 1_665
Al16 Er2 3.326877 1_555
Al17 Al5 2.664606 1_555
Al17 Al8 2.664606 1_556
Al17 Al31 2.735249 1_545
Al17 Al22 2.735249 1_545
Al17 Al19 2.793916 1_555
Al17 Al30 2.797972 1_556
Al17 Al27 2.797972 1_555
Al17 Al21 2.931367 1_555
Al17 Er1 3.261274 1_555
Al17 Er2 3.326868 1_545
Al18 Al9 2.664606 1_656
Al18 Al6 2.664606 1_655
Al18 Al32 2.735252 1_655
Al18 Al23 2.735252 1_655
Al18 Al21 2.793916 1_555
Al18 Al28 2.797968 1_556
Al18 Al25 2.797968 1_555
Al18 Al20 2.931367 1_555
Al18 Er1 3.261274 1_655
Al18 Er2 3.326872 1_655
Al19 Al7 2.664606 1_556
Al19 Al4 2.664606 1_555
Al19 Al32 2.735246 1_555
Al19 Al23 2.735246 1_555
Al19 Al30 2.797967 1_556
Al19 Al27 2.797967 1_555
Al19 Er1 3.261274 1_555
Al19 Er2 3.326877 1_555
Al20 Al6 2.664606 1_655
Al20 Al9 2.664606 1_656
Al20 Al31 2.735249 1_655
Al20 Al22 2.735249 1_655
Al20 Al29 2.797972 1_556
Al20 Al26 2.797972 1_555
Al20 Er1 3.261274 1_665
Al20 Er2 3.326868 1_655
Al21 Al8 2.664606 1_556
Al21 Al5 2.664606 1_555
Al21 Al33 2.735252 1_545
Al21 Al24 2.735252 1_545
Al21 Al28 2.797968 1_556
Al21 Al25 2.797968 1_555
Al21 Er1 3.261274 1_655
Al21 Er2 3.326872 1_545
Al22 Al27 2.695164 1_565
Al22 Al26 2.695164 1_455
Al22 Al5 2.759092 1_565
Al22 Al6 2.759092 1_555
Al22 Er1 3.339444 1_565
Al22 Er2 3.431338 1_555
Al22 Er0 3.592311 1_565
Al23 Al27 2.695148 1_555
Al23 Al25 2.695164 1_455
Al23 Al4 2.759092 1_555
Al23 Al6 2.759100 1_555
Al23 Er1 3.339438 1_555
Al23 Er2 3.431351 1_555
Al23 Er0 3.592306 1_555
Al24 Al26 2.695148 1_555
Al24 Al25 2.695164 1_565
Al24 Al4 2.759092 1_555
Al24 Al5 2.759100 1_565
Al24 Er1 3.339438 1_665
Al24 Er2 3.431351 1_555
Al24 Er0 3.592306 1_665
Al25 Al6 2.759092 1_655
Al25 Al5 2.759092 1_555
Al25 Er0 3.339444 1_655
Al25 Er3 3.431338 1_555
Al25 Er1 3.592311 1_655
Al26 Al4 2.759092 1_555
Al26 Al6 2.759100 1_655
Al26 Er0 3.339438 1_665
Al26 Er3 3.431351 1_555
Al26 Er1 3.592306 1_665
Al27 Al4 2.759092 1_555
Al27 Al5 2.759100 1_555
Al27 Er0 3.339438 1_555
Al27 Er3 3.431351 1_555
Al27 Er1 3.592306 1_555
Al28 Al33 2.695164 1_544
Al28 Al32 2.695164 1_654
Al28 Al9 2.759092 1_655
Al28 Al8 2.759092 1_555
Al28 Er0 3.339444 1_655
Al28 Er3 3.431338 1_555
Al28 Er1 3.592311 1_654
Al29 Al33 2.695148 1_554
Al29 Al31 2.695164 1_654
Al29 Al7 2.759092 1_555
Al29 Al9 2.759100 1_655
Al29 Er0 3.339438 1_665
Al29 Er3 3.431351 1_555
Al29 Er1 3.592306 1_664
Al30 Al32 2.695148 1_554
Al30 Al31 2.695164 1_544
Al30 Al7 2.759092 1_555
Al30 Al8 2.759100 1_555
Al30 Er0 3.339438 1_555
Al30 Er3 3.431351 1_555
Al30 Er1 3.592306 1_554
Al31 Al8 2.759092 1_566
Al31 Al9 2.759092 1_556
Al31 Er1 3.339444 1_565
Al31 Er2 3.431338 1_555
Al31 Er0 3.592311 1_566
Al32 Al7 2.759092 1_556
Al32 Al9 2.759100 1_556
Al32 Er1 3.339438 1_555
Al32 Er2 3.431351 1_555
Al32 Er0 3.592306 1_556
Al33 Al7 2.759092 1_556
Al33 Al8 2.759100 1_566
Al33 Er1 3.339438 1_665
Al33 Er2 3.431351 1_555
Al33 Er0 3.592306 1_666
