# generated using pymatgen
data_RbHfMg6
_symmetry_space_group_name_H-M   'P 1'
_cell_length_a   5.24489300
_cell_length_b   6.69565200
_cell_length_c   11.76603400
_cell_angle_alpha   90.00000000
_cell_angle_beta   90.00000000
_cell_angle_gamma   90.00000000
_symmetry_Int_Tables_number   1
_chemical_formula_structural   RbHfMg6
_chemical_formula_sum   'Rb2 Hf2 Mg12'
_cell_volume   413.19932675
_cell_formula_units_Z   2
loop_
 _symmetry_equiv_pos_site_id
 _symmetry_equiv_pos_as_xyz
  1  'x, y, z'
loop_
 _atom_site_type_symbol
 _atom_site_label
 _atom_site_symmetry_multiplicity
 _atom_site_fract_x
 _atom_site_fract_y
 _atom_site_fract_z
 _atom_site_occupancy
  Rb  Rb0  1  0.00000000  0.50000000  0.42228300  1
  Rb  Rb1  1  0.00000000  0.00000000  0.92228300  1
  Hf  Hf0  1  0.50000000  0.50000000  0.08063200  1
  Hf  Hf1  1  0.50000000  0.00000000  0.58063200  1
  Mg  Mg0  1  0.00000000  0.73272200  0.16514000  1
  Mg  Mg1  1  0.00000000  0.26727800  0.16514000  1
  Mg  Mg2  1  0.00000000  0.00000000  0.42382200  1
  Mg  Mg3  1  0.50000000  0.23587600  0.32316400  1
  Mg  Mg4  1  0.50000000  0.76412400  0.32316400  1
  Mg  Mg5  1  0.50000000  0.00000000  0.09665400  1
  Mg  Mg6  1  0.00000000  0.23272200  0.66514000  1
  Mg  Mg7  1  0.00000000  0.76727800  0.66514000  1
  Mg  Mg8  1  0.00000000  0.50000000  0.92382200  1
  Mg  Mg9  1  0.50000000  0.73587600  0.82316400  1
  Mg  Mg10  1  0.50000000  0.26412400  0.82316400  1
  Mg  Mg11  1  0.50000000  0.50000000  0.59665400  1
loop_
_geom_bond_atom_site_label_1
_geom_bond_atom_site_label_2
_geom_bond_distance
_geom_bond_site_symmetry_2
Hf0 Mg8 3.206457 1_554
Hf0 Mg8 3.206457 1_654
Hf0 Mg1 3.208422 1_655
Hf0 Mg0 3.208422 1_655
Hf0 Mg1 3.208422 1_555
Hf0 Mg0 3.208422 1_555
Hf0 Mg5 3.353129 1_565
Hf0 Mg5 3.353129 1_555
Hf0 Mg3 3.357200 1_555
Hf0 Mg4 3.357200 1_555
Hf0 Mg10 3.416351 1_554
Hf0 Mg9 3.416351 1_554
Hf1 Mg2 3.206457 1_555
Hf1 Mg2 3.206457 1_655
Hf1 Mg6 3.208422 1_555
Hf1 Mg6 3.208422 1_655
Hf1 Mg7 3.208422 1_545
Hf1 Mg7 3.208422 1_645
Hf1 Mg11 3.353129 1_545
Hf1 Mg11 3.353129 1_555
Hf1 Mg9 3.357200 1_545
Hf1 Mg10 3.357200 1_555
Hf1 Mg3 3.416351 1_555
Hf1 Mg4 3.416351 1_545
Mg0 Mg1 3.116451 1_555
Mg0 Mg4 3.221566 1_455
Mg0 Mg4 3.221566 1_555
Mg0 Mg8 3.238828 1_554
Mg0 Mg5 3.275549 1_565
Mg0 Mg5 3.275549 1_465
Mg0 Rb1 3.371612 1_564
Mg0 Rb0 3.403240 1_555
Mg1 Mg3 3.221566 1_455
Mg1 Mg3 3.221566 1_555
Mg1 Mg8 3.238828 1_554
Mg1 Mg5 3.275549 1_555
Mg1 Mg5 3.275549 1_455
Mg1 Rb1 3.371612 1_554
Mg1 Rb0 3.403240 1_555
Mg2 Mg6 3.238828 1_555
Mg2 Mg7 3.238828 1_545
Mg2 Mg4 3.282412 1_545
Mg2 Mg4 3.282412 1_445
Mg2 Mg3 3.282412 1_455
Mg2 Mg3 3.282412 1_555
Mg2 Rb0 3.347875 1_545
Mg2 Rb0 3.347875 1_555
Mg3 Mg5 3.097937 1_555
Mg3 Mg4 3.158687 1_545
Mg3 Rb0 3.371182 1_555
Mg3 Rb0 3.371182 1_655
Mg4 Mg5 3.097937 1_565
Mg4 Rb0 3.371182 1_555
Mg4 Rb0 3.371182 1_655
Mg5 Rb1 3.329642 1_654
Mg5 Rb1 3.329642 1_554
Mg6 Mg7 3.116451 1_545
Mg6 Rb0 3.371612 1_555
Mg6 Rb1 3.403240 1_555
Mg7 Mg9 3.221566 1_455
Mg7 Mg9 3.221566 1_555
Mg7 Rb0 3.371612 1_555
Mg7 Rb1 3.403240 1_565
Mg8 Mg9 3.282412 1_455
Mg8 Mg9 3.282412 1_555
Mg8 Rb1 3.347875 1_565
Mg8 Rb1 3.347875 1_555
Mg9 Rb1 3.371182 1_665
Mg9 Rb1 3.371182 1_565
Mg10 Mg11 3.097937 1_555
Mg10 Mg9 3.158687 1_555
Mg10 Mg6 3.221566 1_555
Mg10 Mg6 3.221566 1_655
Mg10 Mg8 3.282412 1_555
Mg10 Mg8 3.282412 1_655
Mg10 Rb1 3.371182 1_655
Mg10 Rb1 3.371182 1_555
Mg11 Mg9 3.097937 1_555
Mg11 Mg7 3.275549 1_655
Mg11 Mg6 3.275549 1_555
Mg11 Mg6 3.275549 1_655
Mg11 Mg7 3.275549 1_555
Mg11 Rb0 3.329642 1_655
Mg11 Rb0 3.329642 1_555
