# generated using pymatgen
data_MnAsNO5
_symmetry_space_group_name_H-M   'P 1'
_cell_length_a   4.80192900
_cell_length_b   5.44433800
_cell_length_c   9.83885500
_cell_angle_alpha   90.00000000
_cell_angle_beta   90.00000000
_cell_angle_gamma   90.00000000
_symmetry_Int_Tables_number   1
_chemical_formula_structural   MnAsNO5
_chemical_formula_sum   'Mn2 As2 N2 O10'
_cell_volume   257.22037925
_cell_formula_units_Z   2
loop_
 _symmetry_equiv_pos_site_id
 _symmetry_equiv_pos_as_xyz
  1  'x, y, z'
loop_
 _atom_site_type_symbol
 _atom_site_label
 _atom_site_symmetry_multiplicity
 _atom_site_fract_x
 _atom_site_fract_y
 _atom_site_fract_z
 _atom_site_occupancy
  Mn  Mn0  1  0.91040400  0.00000000  0.01619600  1
  Mn  Mn1  1  0.41040400  0.50000000  0.98380400  1
  As  As0  1  0.48024200  0.00000000  0.80487000  1
  As  As1  1  0.98024200  0.50000000  0.19513000  1
  N  N0  1  0.19453500  0.00000000  0.46850600  1
  N  N1  1  0.69453500  0.50000000  0.53149400  1
  O  O0  1  0.12497400  0.00000000  0.84431700  1
  O  O1  1  0.62497400  0.50000000  0.15568300  1
  O  O2  1  0.42430300  0.00000000  0.50276000  1
  O  O3  1  0.92430300  0.50000000  0.49724000  1
  O  O4  1  0.14243300  0.27264000  0.07990500  1
  O  O5  1  0.14243300  0.72736000  0.07990500  1
  O  O6  1  0.64243300  0.22736000  0.92009500  1
  O  O7  1  0.64243300  0.77264000  0.92009500  1
  O  O8  1  0.74167400  0.00000000  0.17637100  1
  O  O9  1  0.24167400  0.50000000  0.82362900  1
loop_
_geom_bond_atom_site_label_1
_geom_bond_atom_site_label_2
_geom_bond_distance
_geom_bond_site_symmetry_2
Mn0 O8 1.772020 1_555
Mn0 O4 1.958979 1_655
Mn0 O5 1.958979 1_645
Mn0 O0 1.980256 1_654
Mn0 O7 2.020401 1_544
Mn0 O6 2.020401 1_554
Mn1 O9 1.772020 1_555
Mn1 O6 1.958979 1_555
Mn1 O7 1.958979 1_555
Mn1 O1 1.980256 1_556
Mn1 O5 2.020401 1_556
Mn1 O4 2.020401 1_556
As0 O0 1.749563 1_555
As0 O7 1.850411 1_545
As0 O6 1.850411 1_555
As1 O1 1.749563 1_555
As1 O4 1.850411 1_655
As1 O5 1.850411 1_655
N0 O2 1.153655 1_555
N1 O3 1.153655 1_555
