# generated using pymatgen
data_Sr3Li
_symmetry_space_group_name_H-M   'P 1'
_cell_length_a   8.11299991
_cell_length_b   8.11299991
_cell_length_c   6.59699700
_cell_angle_alpha   90.00000000
_cell_angle_beta   90.00000000
_cell_angle_gamma   119.99999929
_symmetry_Int_Tables_number   1
_chemical_formula_structural   Sr3Li
_chemical_formula_sum   'Sr6 Li2'
_cell_volume   376.04503935
_cell_formula_units_Z   2
loop_
 _symmetry_equiv_pos_site_id
 _symmetry_equiv_pos_as_xyz
  1  'x, y, z'
loop_
 _atom_site_type_symbol
 _atom_site_label
 _atom_site_symmetry_multiplicity
 _atom_site_fract_x
 _atom_site_fract_y
 _atom_site_fract_z
 _atom_site_occupancy
  Sr  Sr0  1  0.16975900  0.33951800  0.25000000  1
  Sr  Sr1  1  0.66048200  0.83024100  0.25000000  1
  Sr  Sr2  1  0.16975900  0.83024100  0.25000000  1
  Sr  Sr3  1  0.83024100  0.66048200  0.75000000  1
  Sr  Sr4  1  0.33951800  0.16975900  0.75000000  1
  Sr  Sr5  1  0.83024100  0.16975900  0.75000000  1
  Li  Li0  1  0.33333300  0.66666700  0.75000000  1
  Li  Li1  1  0.66666700  0.33333300  0.25000000  1
loop_
_geom_bond_atom_site_label_1
_geom_bond_atom_site_label_2
_geom_bond_distance
_geom_bond_site_symmetry_2
Sr0 Sr2 3.981236 1_555
Sr0 Sr1 3.981236 1_555
Sr0 Sr4 4.070698 1_554
Sr0 Sr4 4.070698 1_555
Sr0 Sr5 4.070698 1_455
Sr0 Sr5 4.070698 1_454
Sr0 Sr2 4.131764 1_545
Sr0 Sr1 4.131764 1_445
Sr1 Sr2 3.981236 1_555
Sr1 Sr3 4.070698 1_554
Sr1 Sr3 4.070698 1_555
Sr1 Sr5 4.070698 1_565
Sr1 Sr5 4.070698 1_564
Sr1 Sr2 4.131764 1_655
Sr2 Sr4 4.070698 1_565
Sr2 Sr3 4.070698 1_455
Sr2 Sr4 4.070698 1_564
Sr2 Sr3 4.070698 1_454
Sr3 Sr5 3.981236 1_555
Sr3 Sr4 3.981236 1_555
Sr3 Sr5 4.131764 1_565
Sr3 Sr4 4.131764 1_665
Sr4 Sr5 3.981236 1_555
Sr4 Sr5 4.131764 1_455
