# generated using pymatgen
data_Na2NiP2(HO3)2
_symmetry_space_group_name_H-M   'P 1'
_cell_length_a   5.41742900
_cell_length_b   9.24882800
_cell_length_c   12.16213600
_cell_angle_alpha   90.00000000
_cell_angle_beta   90.00000000
_cell_angle_gamma   90.00000000
_symmetry_Int_Tables_number   1
_chemical_formula_structural   Na2NiP2(HO3)2
_chemical_formula_sum   'Na8 Ni4 P8 H8 O24'
_cell_volume   609.38223132
_cell_formula_units_Z   4
loop_
 _symmetry_equiv_pos_site_id
 _symmetry_equiv_pos_as_xyz
  1  'x, y, z'
loop_
 _atom_site_type_symbol
 _atom_site_label
 _atom_site_symmetry_multiplicity
 _atom_site_fract_x
 _atom_site_fract_y
 _atom_site_fract_z
 _atom_site_occupancy
  Na  Na0  1  0.25000000  0.72368400  0.09521700  1
  Na  Na1  1  0.25000000  0.77631600  0.59521700  1
  Na  Na2  1  0.75000000  0.27631600  0.90478300  1
  Na  Na3  1  0.75000000  0.22368400  0.40478300  1
  Na  Na4  1  0.25000000  0.17568400  0.72188800  1
  Na  Na5  1  0.25000000  0.32431600  0.22188800  1
  Na  Na6  1  0.75000000  0.82431600  0.27811200  1
  Na  Na7  1  0.75000000  0.67568400  0.77811200  1
  Ni  Ni0  1  0.25000000  0.86464600  0.83993300  1
  Ni  Ni1  1  0.25000000  0.63535400  0.33993300  1
  Ni  Ni2  1  0.75000000  0.13535400  0.16006700  1
  Ni  Ni3  1  0.75000000  0.36464600  0.66006700  1
  P  P0  1  0.75000000  0.87635500  0.98223900  1
  P  P1  1  0.75000000  0.62364500  0.48223900  1
  P  P2  1  0.25000000  0.12364500  0.01776100  1
  P  P3  1  0.25000000  0.37635500  0.51776100  1
  P  P4  1  0.25000000  0.49956300  0.81379900  1
  P  P5  1  0.25000000  0.00043700  0.31379900  1
  P  P6  1  0.75000000  0.50043700  0.18620100  1
  P  P7  1  0.75000000  0.99956300  0.68620100  1
  H  H0  1  0.25000000  0.50602200  0.93021800  1
  H  H1  1  0.25000000  0.99397800  0.43021800  1
  H  H2  1  0.75000000  0.49397800  0.06978200  1
  H  H3  1  0.75000000  0.00602200  0.56978200  1
  H  H4  1  0.75000000  0.00312800  0.91865500  1
  H  H5  1  0.75000000  0.49687200  0.41865500  1
  H  H6  1  0.25000000  0.99687200  0.08134500  1
  H  H7  1  0.25000000  0.50312800  0.58134500  1
  O  O0  1  0.98295900  0.79072000  0.94920200  1
  O  O1  1  0.51704100  0.70928000  0.44920200  1
  O  O2  1  0.48295900  0.20928000  0.05079800  1
  O  O3  1  0.01704100  0.29072000  0.55079800  1
  O  O4  1  0.01704100  0.20928000  0.05079800  1
  O  O5  1  0.48295900  0.29072000  0.55079800  1
  O  O6  1  0.51704100  0.79072000  0.94920200  1
  O  O7  1  0.98295900  0.70928000  0.44920200  1
  O  O8  1  0.25000000  0.65538600  0.76996600  1
  O  O9  1  0.25000000  0.84461400  0.26996600  1
  O  O10  1  0.75000000  0.34461400  0.23003400  1
  O  O11  1  0.75000000  0.15538600  0.73003400  1
  O  O12  1  0.98738100  0.91633600  0.71551200  1
  O  O13  1  0.51261900  0.58366400  0.21551200  1
  O  O14  1  0.48738100  0.08366400  0.28448800  1
  O  O15  1  0.01261900  0.41633600  0.78448800  1
  O  O16  1  0.01261900  0.08366400  0.28448800  1
  O  O17  1  0.48738100  0.41633600  0.78448800  1
  O  O18  1  0.51261900  0.91633600  0.71551200  1
  O  O19  1  0.98738100  0.58366400  0.21551200  1
  O  O20  1  0.25000000  0.07786600  0.89629000  1
  O  O21  1  0.25000000  0.42213400  0.39629000  1
  O  O22  1  0.75000000  0.92213400  0.10371000  1
  O  O23  1  0.75000000  0.57786600  0.60371000  1
loop_
_geom_bond_atom_site_label_1
_geom_bond_atom_site_label_2
_geom_bond_distance
_geom_bond_site_symmetry_2
Na0 O6 2.372959 1_554
Na0 O0 2.372959 1_454
Na0 O9 2.401654 1_555
Na0 O13 2.416963 1_555
Na0 O19 2.416963 1_455
Na1 O1 2.372959 1_555
Na1 O7 2.372959 1_455
Na1 O8 2.401654 1_555
Na1 O18 2.416963 1_555
Na1 O12 2.416963 1_455
Na2 O4 2.372959 1_656
Na2 O2 2.372959 1_556
Na2 O11 2.401654 1_555
Na2 O15 2.416963 1_655
Na2 O17 2.416963 1_555
Na3 O3 2.372959 1_655
Na3 O5 2.372959 1_555
Na3 O10 2.401654 1_555
Na3 O16 2.416963 1_655
Na3 O14 2.416963 1_555
Na4 O20 2.305982 1_555
Na4 O5 2.656038 1_555
Na4 O3 2.656038 1_555
Na4 O17 2.680932 1_555
Na4 O15 2.680932 1_555
Na4 O11 2.717019 1_455
Na4 O11 2.717019 1_555
Na4 O18 2.789935 1_545
Na4 O12 2.789935 1_445
Na5 O21 2.305982 1_555
Na5 O2 2.656038 1_555
Na5 O4 2.656038 1_555
Na5 O14 2.680932 1_555
Na5 O16 2.680932 1_555
Na5 O10 2.717019 1_455
Na5 O10 2.717019 1_555
Na5 O13 2.789935 1_555
Na5 O19 2.789935 1_455
Na6 O22 2.305982 1_555
Na6 O7 2.656038 1_555
Na6 O1 2.656038 1_555
Na6 O19 2.680932 1_555
Na6 O13 2.680932 1_555
Na6 O9 2.717019 1_555
Na6 O9 2.717019 1_655
Na6 O16 2.789935 1_665
Na6 O14 2.789935 1_565
Na7 O23 2.305982 1_555
Na7 O0 2.656038 1_555
Na7 O6 2.656038 1_555
Na7 O12 2.680932 1_555
Na7 O18 2.680932 1_555
Na7 O8 2.717019 1_655
Na7 O8 2.717019 1_555
Na7 O15 2.789935 1_655
Na7 O17 2.789935 1_555
Ni0 O6 2.080012 1_555
Ni0 O0 2.080012 1_455
Ni0 O20 2.087756 1_565
Ni0 O8 2.114219 1_555
Ni0 O18 2.131322 1_555
Ni0 O12 2.131322 1_455
Ni1 O1 2.080012 1_555
Ni1 O7 2.080012 1_455
Ni1 O21 2.087756 1_555
Ni1 O9 2.114219 1_555
Ni1 O13 2.131322 1_555
Ni1 O19 2.131322 1_455
Ni2 O4 2.080012 1_655
Ni2 O2 2.080012 1_555
Ni2 O22 2.087756 1_545
Ni2 O10 2.114219 1_555
Ni2 O16 2.131322 1_655
Ni2 O14 2.131322 1_555
Ni3 O3 2.080012 1_655
Ni3 O5 2.080012 1_555
Ni3 O23 2.087756 1_555
Ni3 O11 2.114219 1_555
Ni3 O15 2.131322 1_655
Ni3 O17 2.131322 1_555
H0 P4 1.417163 1_555
H1 P5 1.417163 1_565
H2 P6 1.417163 1_555
H3 P7 1.417163 1_545
H4 P0 1.404557 1_545
H4 Na2 2.532295 1_555
H5 P1 1.404557 1_555
H5 Na3 2.532295 1_555
H6 P2 1.404557 1_565
H6 Na0 2.532295 1_555
H7 P3 1.404557 1_555
H7 Na1 2.532295 1_555
O0 P0 1.543207 1_555
O1 P1 1.543207 1_555
O2 P2 1.543207 1_555
O3 P3 1.543207 1_555
O4 P2 1.543207 1_555
O5 P3 1.543207 1_555
O6 P0 1.543207 1_555
O7 P1 1.543207 1_555
O8 P4 1.536619 1_555
O9 P5 1.536619 1_565
O10 P6 1.536619 1_555
O11 P7 1.536619 1_545
O12 P7 1.540578 1_555
O13 P6 1.540578 1_555
O14 P5 1.540578 1_555
O15 P4 1.540578 1_555
O16 P5 1.540578 1_555
O17 P4 1.540578 1_555
O18 P7 1.540578 1_555
O19 P6 1.540578 1_555
O20 P2 1.536822 1_556
O21 P3 1.536822 1_555
O22 P0 1.536822 1_554
O23 P1 1.536822 1_555
