# generated using pymatgen
data_CeBS3
_symmetry_space_group_name_H-M   'P 1'
_cell_length_a   6.00989239
_cell_length_b   7.69555744
_cell_length_c   8.97561916
_cell_angle_alpha   90.00000000
_cell_angle_beta   90.00000000
_cell_angle_gamma   90.00000000
_symmetry_Int_Tables_number   1
_chemical_formula_structural   CeBS3
_chemical_formula_sum   'Ce4 B4 S12'
_cell_volume   415.11764788
_cell_formula_units_Z   4
loop_
 _symmetry_equiv_pos_site_id
 _symmetry_equiv_pos_as_xyz
  1  'x, y, z'
loop_
 _atom_site_type_symbol
 _atom_site_label
 _atom_site_symmetry_multiplicity
 _atom_site_fract_x
 _atom_site_fract_y
 _atom_site_fract_z
 _atom_site_occupancy
  Ce  Ce0  1  0.92573125  0.38499769  0.25601484  1
  Ce  Ce1  1  0.07426875  0.61500231  0.75601484  1
  Ce  Ce2  1  0.42573125  0.11500231  0.75601484  1
  Ce  Ce3  1  0.57426875  0.88499769  0.25601484  1
  B  B0  1  0.09539567  0.85220094  0.42695236  1
  B  B1  1  0.90460433  0.14779906  0.92695236  1
  B  B2  1  0.59539567  0.64779906  0.92695236  1
  B  B3  1  0.40460433  0.35220094  0.42695236  1
  S  S0  1  0.59379667  0.50318974  0.76925988  1
  S  S1  1  0.40620333  0.49681026  0.26925988  1
  S  S2  1  0.09379667  -0.00318974  0.26925988  1
  S  S3  1  0.90620333  0.00318974  0.76925988  1
  S  S4  1  0.83551677  0.67192040  0.04889440  1
  S  S5  1  0.16448323  0.32807960  0.54889440  1
  S  S6  1  0.33551677  0.82807960  0.54889440  1
  S  S7  1  0.66448323  0.17192040  0.04889440  1
  S  S8  1  0.36590053  0.79785375  0.95811953  1
  S  S9  1  0.63409947  0.20214625  0.45811953  1
  S  S10  1  0.86590053  0.70214625  0.45811953  1
  S  S11  1  0.13409947  0.29785375  0.95811953  1
loop_
_geom_bond_atom_site_label_1
_geom_bond_atom_site_label_2
_geom_bond_distance
_geom_bond_site_symmetry_2
Ce0 S9 2.888352 1_555
Ce0 S7 2.934265 1_555
Ce0 S4 2.936897 1_555
Ce0 S1 3.015406 1_655
Ce0 S5 3.026744 1_655
Ce0 S11 3.027721 1_654
Ce0 S10 3.062131 1_555
Ce0 S2 3.155696 1_655
Ce0 S1 3.240883 1_555
Ce1 S8 2.888352 1_555
Ce1 S6 2.934265 1_555
Ce1 S5 2.936897 1_555
Ce1 S0 3.015406 1_455
Ce1 S4 3.026744 1_456
Ce1 S10 3.027721 1_455
Ce1 S11 3.062131 1_555
Ce1 S3 3.155696 1_465
Ce1 S0 3.240883 1_555
Ce2 S11 2.888352 1_555
Ce2 S5 2.934265 1_555
Ce2 S6 2.936897 1_545
Ce2 S3 3.015406 1_555
Ce2 S7 3.026744 1_556
Ce2 S9 3.027721 1_555
Ce2 S8 3.062131 1_545
Ce2 S0 3.155696 1_555
Ce2 S3 3.240883 1_455
Ce3 S10 2.888352 1_555
Ce3 S4 2.934265 1_555
Ce3 S7 2.936897 1_565
Ce3 S2 3.015406 1_565
Ce3 S6 3.026744 1_555
Ce3 S8 3.027721 1_554
Ce3 S9 3.062131 1_565
Ce3 S1 3.155696 1_555
Ce3 S2 3.240883 1_665
B0 S2 1.800513 1_565
B0 S10 1.820445 1_455
B0 S6 1.820698 1_555
B1 S3 1.800513 1_555
B1 S11 1.820445 1_655
B1 S7 1.820698 1_556
B2 S0 1.800513 1_555
B2 S8 1.820445 1_555
B2 S4 1.820698 1_556
B3 S1 1.800513 1_555
B3 S9 1.820445 1_555
B3 S5 1.820698 1_555
