# generated using pymatgen
data_CaSmGa3O7
_symmetry_space_group_name_H-M   'P 1'
_cell_length_a   7.93734232
_cell_length_b   7.93734232
_cell_length_c   5.25147600
_cell_angle_alpha   90.00000000
_cell_angle_beta   90.00000000
_cell_angle_gamma   90.21716584
_symmetry_Int_Tables_number   1
_chemical_formula_structural   CaSmGa3O7
_chemical_formula_sum   'Ca2 Sm2 Ga6 O14'
_cell_volume   330.84797983
_cell_formula_units_Z   2
loop_
 _symmetry_equiv_pos_site_id
 _symmetry_equiv_pos_as_xyz
  1  'x, y, z'
loop_
 _atom_site_type_symbol
 _atom_site_label
 _atom_site_symmetry_multiplicity
 _atom_site_fract_x
 _atom_site_fract_y
 _atom_site_fract_z
 _atom_site_occupancy
  Ca  Ca0  1  0.66081400  0.66081400  0.48635800  1
  Ca  Ca1  1  0.33918600  0.33918600  0.48635800  1
  Sm  Sm0  1  0.83749900  0.16250100  0.51057400  1
  Sm  Sm1  1  0.16250100  0.83749900  0.51057400  1
  Ga  Ga0  1  0.50000000  0.00000000  0.00111500  1
  Ga  Ga1  1  0.00000000  0.50000000  0.00111500  1
  Ga  Ga2  1  0.85512100  0.85512100  0.03468300  1
  Ga  Ga3  1  0.64342800  0.35657200  0.96475300  1
  Ga  Ga4  1  0.14487900  0.14487900  0.03468300  1
  Ga  Ga5  1  0.35657200  0.64342800  0.96475300  1
  O  O0  1  0.86694500  0.86694500  0.68909600  1
  O  O1  1  0.64658800  0.35341200  0.30910600  1
  O  O2  1  0.13305500  0.13305500  0.68909600  1
  O  O3  1  0.35341200  0.64658800  0.30910600  1
  O  O4  1  0.50000000  0.50000000  0.79658800  1
  O  O5  1  0.00000000  0.00000000  0.20989400  1
  O  O6  1  0.66255000  0.91448800  0.21643700  1
  O  O7  1  0.84265300  0.40432100  0.78409900  1
  O  O8  1  0.33745000  0.08551200  0.21643700  1
  O  O9  1  0.15734700  0.59567900  0.78409900  1
  O  O10  1  0.40432100  0.84265300  0.78409900  1
  O  O11  1  0.08551200  0.33745000  0.21643700  1
  O  O12  1  0.59567900  0.15734700  0.78409900  1
  O  O13  1  0.91448800  0.66255000  0.21643700  1
loop_
_geom_bond_atom_site_label_1
_geom_bond_atom_site_label_2
_geom_bond_distance
_geom_bond_site_symmetry_2
Ca0 O4 2.429075 1_555
Ca0 O13 2.462399 1_555
Ca0 O6 2.462399 1_555
Ca0 O0 2.543048 1_555
Ca0 O3 2.613522 1_555
Ca0 O1 2.613522 1_555
Ca0 O10 2.948729 1_555
Ca0 O7 2.948729 1_555
Ca1 O4 2.429075 1_555
Ca1 O11 2.462399 1_555
Ca1 O8 2.462399 1_555
Ca1 O2 2.543048 1_555
Ca1 O3 2.613522 1_555
Ca1 O1 2.613522 1_555
Ca1 O12 2.948729 1_555
Ca1 O9 2.948729 1_555
Ga0 O8 1.846779 1_555
Ga0 O6 1.846779 1_545
Ga0 O12 1.851529 1_554
Ga0 O10 1.851529 1_544
Ga1 O11 1.846779 1_555
Ga1 O13 1.846779 1_455
Ga1 O9 1.851529 1_554
Ga1 O7 1.851529 1_454
Ga2 O0 1.819670 1_554
Ga2 O13 1.864095 1_555
Ga2 O6 1.864095 1_555
Ga2 O5 1.865845 1_665
Ga3 O1 1.808711 1_556
Ga3 O4 1.838965 1_555
Ga3 O7 1.881407 1_555
Ga3 O12 1.881407 1_555
Ga4 O2 1.819670 1_554
Ga4 O8 1.864095 1_555
Ga4 O11 1.864095 1_555
Ga4 O5 1.865845 1_555
Ga5 O3 1.808711 1_556
Ga5 O4 1.838965 1_555
Ga5 O10 1.881407 1_555
Ga5 O9 1.881407 1_555
O0 Sm0 2.537928 1_565
O0 Sm1 2.537928 1_655
O1 Sm0 2.393576 1_555
O2 Sm0 2.537928 1_455
O2 Sm1 2.537928 1_545
O3 Sm1 2.393576 1_555
O5 Sm1 2.415202 1_545
O5 Sm0 2.415202 1_455
O6 Sm0 2.858106 1_565
O7 Sm0 2.397599 1_555
O8 Sm1 2.858106 1_545
O9 Sm1 2.397599 1_555
O10 Sm1 2.397599 1_555
O11 Sm0 2.858106 1_455
O12 Sm0 2.397599 1_555
O13 Sm1 2.858106 1_655
