# generated using pymatgen
data_Li9Mn7O16
_symmetry_space_group_name_H-M   'P 1'
_cell_length_a   7.80884182
_cell_length_b   7.80884182
_cell_length_c   13.56370363
_cell_angle_alpha   84.90210829
_cell_angle_beta   84.90210829
_cell_angle_gamma   21.23950436
_symmetry_Int_Tables_number   1
_chemical_formula_structural   Li9Mn7O16
_chemical_formula_sum   'Li9 Mn7 O16'
_cell_volume   298.39983995
_cell_formula_units_Z   1
loop_
 _symmetry_equiv_pos_site_id
 _symmetry_equiv_pos_as_xyz
  1  'x, y, z'
loop_
 _atom_site_type_symbol
 _atom_site_label
 _atom_site_symmetry_multiplicity
 _atom_site_fract_x
 _atom_site_fract_y
 _atom_site_fract_z
 _atom_site_occupancy
  Li  Li0  1  0.56175500  0.56175500  0.80654900  1
  Li  Li1  1  0.43824500  0.43824500  0.19345100  1
  Li  Li2  1  0.31802200  0.31802200  0.55533000  1
  Li  Li3  1  0.18796800  0.18796800  0.93907500  1
  Li  Li4  1  0.06121800  0.06121800  0.32053900  1
  Li  Li5  1  0.93878200  0.93878200  0.67946100  1
  Li  Li6  1  0.81203200  0.81203200  0.06092500  1
  Li  Li7  1  0.68197800  0.68197800  0.44467000  1
  Li  Li8  1  0.50000000  0.50000000  0.50000000  1
  Mn  Mn0  1  0.11967000  0.11967000  0.61478000  1
  Mn  Mn1  1  0.88033000  0.88033000  0.38522000  1
  Mn  Mn2  1  0.00000000  0.00000000  0.00000000  1
  Mn  Mn3  1  0.74816200  0.74816200  0.74145300  1
  Mn  Mn4  1  0.62619900  0.62619900  0.12790300  1
  Mn  Mn5  1  0.37380100  0.37380100  0.87209700  1
  Mn  Mn6  1  0.25183800  0.25183800  0.25854700  1
  O  O0  1  0.53884500  0.53884500  0.65375200  1
  O  O1  1  0.41517300  0.41517300  0.03369200  1
  O  O2  1  0.29443500  0.29443500  0.40614400  1
  O  O3  1  0.16085500  0.16085500  0.76631700  1
  O  O4  1  0.04167500  0.04167500  0.15810100  1
  O  O5  1  0.90267300  0.90267300  0.51418300  1
  O  O6  1  0.78862400  0.78862400  0.90481100  1
  O  O7  1  0.66628400  0.66628400  0.28559500  1
  O  O8  1  0.58482700  0.58482700  0.96630800  1
  O  O9  1  0.46115500  0.46115500  0.34624800  1
  O  O10  1  0.33371600  0.33371600  0.71440500  1
  O  O11  1  0.21137600  0.21137600  0.09518900  1
  O  O12  1  0.09732700  0.09732700  0.48581700  1
  O  O13  1  0.95832500  0.95832500  0.84189900  1
  O  O14  1  0.83914500  0.83914500  0.23368300  1
  O  O15  1  0.70556500  0.70556500  0.59385600  1
loop_
_geom_bond_atom_site_label_1
_geom_bond_atom_site_label_2
_geom_bond_distance
_geom_bond_site_symmetry_2
Li0 O3 2.129022 1_565
Li0 O3 2.129022 1_655
Li0 O0 2.133233 1_555
Li0 O13 2.164241 1_545
Li0 O13 2.164241 1_455
Li0 O8 2.227049 1_555
Li1 O14 2.129022 1_545
Li1 O14 2.129022 1_455
Li1 O9 2.133233 1_555
Li1 O4 2.164241 1_655
Li1 O4 2.164241 1_565
Li1 O1 2.227049 1_555
Li2 O5 1.984894 1_545
Li2 O5 1.984894 1_455
Li2 O2 2.087624 1_555
Li2 O10 2.192591 1_555
Li2 O15 2.271748 1_545
Li2 O15 2.271748 1_455
Li3 O6 2.131769 1_545
Li3 O6 2.131769 1_455
Li3 O8 2.146699 1_545
Li3 O8 2.146699 1_455
Li3 O11 2.179545 1_556
Li3 O3 2.416674 1_555
Li4 O9 2.110685 1_545
Li4 O9 2.110685 1_455
Li4 O7 2.181396 1_545
Li4 O7 2.181396 1_455
Li4 O4 2.250302 1_555
Li4 O12 2.357432 1_555
Li5 O0 2.110685 1_565
Li5 O0 2.110685 1_655
Li5 O10 2.181396 1_565
Li5 O10 2.181396 1_655
Li5 O13 2.250302 1_555
Li5 O5 2.357432 1_555
Li6 O11 2.131769 1_655
Li6 O11 2.131769 1_565
Li6 O1 2.146699 1_565
Li6 O1 2.146699 1_655
Li6 O6 2.179545 1_554
Li6 O14 2.416674 1_555
Li7 O12 1.984894 1_565
Li7 O12 1.984894 1_655
Li7 O15 2.087624 1_555
Li7 O7 2.192591 1_555
Li7 O2 2.271748 1_655
Li7 O2 2.271748 1_565
Li8 O12 2.070755 1_565
Li8 O12 2.070755 1_655
Li8 O5 2.070755 1_545
Li8 O5 2.070755 1_455
Li8 O0 2.220242 1_555
Li8 O9 2.220242 1_555
Mn0 O12 1.812694 1_555
Mn0 O0 1.941935 1_455
Mn0 O0 1.941935 1_545
Mn0 O15 1.955077 1_455
Mn0 O15 1.955077 1_545
Mn0 O3 2.204383 1_555
Mn1 O5 1.812694 1_555
Mn1 O9 1.941935 1_565
Mn1 O9 1.941935 1_655
Mn1 O2 1.955077 1_655
Mn1 O2 1.955077 1_565
Mn1 O14 2.204383 1_555
Mn2 O1 1.966653 1_545
Mn2 O1 1.966653 1_455
Mn2 O8 1.966653 1_544
Mn2 O8 1.966653 1_454
Mn2 O4 2.292572 1_555
Mn2 O13 2.292572 1_444
Mn3 O10 1.960394 1_655
Mn3 O10 1.960394 1_565
Mn3 O3 1.974609 1_655
Mn3 O3 1.974609 1_565
Mn3 O15 2.161501 1_555
Mn3 O6 2.354591 1_555
Mn4 O4 1.956034 1_565
Mn4 O4 1.956034 1_655
Mn4 O11 1.967864 1_565
Mn4 O11 1.967864 1_655
Mn4 O7 2.278467 1_555
Mn4 O8 2.336471 1_554
Mn5 O13 1.956034 1_455
Mn5 O13 1.956034 1_545
Mn5 O6 1.967864 1_545
Mn5 O6 1.967864 1_455
Mn5 O10 2.278467 1_555
Mn5 O1 2.336471 1_556
Mn6 O7 1.960394 1_545
Mn6 O7 1.960394 1_455
Mn6 O14 1.974609 1_545
Mn6 O14 1.974609 1_455
Mn6 O2 2.161501 1_555
Mn6 O11 2.354591 1_555
