# generated using pymatgen
data_Ga2Ge(MoS2)8
_symmetry_space_group_name_H-M   'P 1'
_cell_length_a   6.92828900
_cell_length_b   6.92828900
_cell_length_c   11.68560500
_cell_angle_alpha   90.00000000
_cell_angle_beta   90.00000000
_cell_angle_gamma   90.00000000
_symmetry_Int_Tables_number   1
_chemical_formula_structural   Ga2Ge(MoS2)8
_chemical_formula_sum   'Ga2 Ge1 Mo8 S16'
_cell_volume   560.92292796
_cell_formula_units_Z   1
loop_
 _symmetry_equiv_pos_site_id
 _symmetry_equiv_pos_as_xyz
  1  'x, y, z'
loop_
 _atom_site_type_symbol
 _atom_site_label
 _atom_site_symmetry_multiplicity
 _atom_site_fract_x
 _atom_site_fract_y
 _atom_site_fract_z
 _atom_site_occupancy
  Ga  Ga0  1  0.50000000  0.00000000  0.70813600  1
  Ga  Ga1  1  0.00000000  0.50000000  0.29186400  1
  Ge  Ge0  1  0.50000000  0.50000000  0.00000000  1
  Mo  Mo0  1  0.50000000  0.20507300  0.20779600  1
  Mo  Mo1  1  0.00000000  0.70804400  0.62565900  1
  Mo  Mo2  1  0.70804400  0.00000000  0.37434100  1
  Mo  Mo3  1  0.20507300  0.50000000  0.79220400  1
  Mo  Mo4  1  0.29195600  0.00000000  0.37434100  1
  Mo  Mo5  1  0.79492700  0.50000000  0.79220400  1
  Mo  Mo6  1  0.50000000  0.79492700  0.20779600  1
  Mo  Mo7  1  0.00000000  0.29195600  0.62565900  1
  S  S0  1  0.50000000  0.72522700  0.82269500  1
  S  S1  1  0.00000000  0.22648100  0.40450600  1
  S  S2  1  0.72522700  0.50000000  0.17730500  1
  S  S3  1  0.22648100  0.00000000  0.59549400  1
  S  S4  1  0.27477300  0.50000000  0.17730500  1
  S  S5  1  0.77351900  0.00000000  0.59549400  1
  S  S6  1  0.50000000  0.27477300  0.82269500  1
  S  S7  1  0.00000000  0.77351900  0.40450600  1
  S  S8  1  0.50000000  0.73422300  0.40344900  1
  S  S9  1  0.00000000  0.23348700  0.82585700  1
  S  S10  1  0.23348700  0.00000000  0.17414300  1
  S  S11  1  0.73422300  0.50000000  0.59655100  1
  S  S12  1  0.76651300  0.00000000  0.17414300  1
  S  S13  1  0.26577700  0.50000000  0.59655100  1
  S  S14  1  0.50000000  0.26577700  0.40344900  1
  S  S15  1  0.00000000  0.76651300  0.82585700  1
loop_
_geom_bond_atom_site_label_1
_geom_bond_atom_site_label_2
_geom_bond_distance
_geom_bond_site_symmetry_2
Ga0 S5 2.307318 1_555
Ga0 S3 2.307318 1_555
Ga0 S6 2.327272 1_555
Ga0 S0 2.327272 1_545
Ga1 S7 2.307318 1_555
Ga1 S1 2.307318 1_555
Ga1 S4 2.327272 1_555
Ga1 S2 2.327272 1_455
Ge0 S2 2.593801 1_555
Ge0 S4 2.593801 1_555
Ge0 S0 2.593801 1_554
Ge0 S6 2.593801 1_554
Mo0 S14 2.324685 1_555
Mo0 S12 2.362800 1_555
Mo0 S10 2.362800 1_555
Mo0 S2 2.595603 1_555
Mo0 S4 2.595603 1_555
Mo1 S13 2.363045 1_555
Mo1 S11 2.363045 1_455
Mo1 S15 2.374248 1_555
Mo1 S3 2.584173 1_565
Mo1 S5 2.584173 1_465
Mo1 S7 2.623818 1_555
Mo2 S14 2.363045 1_555
Mo2 S8 2.363045 1_545
Mo2 S12 2.374248 1_555
Mo2 S1 2.584173 1_655
Mo2 S7 2.584173 1_645
Mo2 S5 2.623818 1_555
Mo3 S13 2.324685 1_555
Mo3 S15 2.362800 1_555
Mo3 S9 2.362800 1_555
Mo3 S0 2.595603 1_555
Mo3 S6 2.595603 1_555
Mo4 S14 2.363045 1_555
Mo4 S8 2.363045 1_545
Mo4 S10 2.374248 1_555
Mo4 S1 2.584173 1_555
Mo4 S7 2.584173 1_545
Mo4 S3 2.623818 1_555
Mo5 S11 2.324685 1_555
Mo5 S9 2.362800 1_655
Mo5 S15 2.362800 1_655
Mo5 S0 2.595603 1_555
Mo5 S6 2.595603 1_555
Mo6 S8 2.324685 1_555
Mo6 S10 2.362800 1_565
Mo6 S12 2.362800 1_565
Mo6 S4 2.595603 1_555
Mo6 S2 2.595603 1_555
Mo7 S13 2.363045 1_555
Mo7 S11 2.363045 1_455
Mo7 S9 2.374248 1_555
Mo7 S3 2.584173 1_555
Mo7 S5 2.584173 1_455
Mo7 S1 2.623818 1_555
