# generated using pymatgen
data_Na2Fe2F7
_symmetry_space_group_name_H-M   'P 1'
_cell_length_a   7.55510660
_cell_length_b   7.55510660
_cell_length_c   7.55510660
_cell_angle_alpha   121.56465055
_cell_angle_beta   118.94659221
_cell_angle_gamma   89.57288687
_symmetry_Int_Tables_number   1
_chemical_formula_structural   Na2Fe2F7
_chemical_formula_sum   'Na4 Fe4 F14'
_cell_volume   303.54728292
_cell_formula_units_Z   2
loop_
 _symmetry_equiv_pos_site_id
 _symmetry_equiv_pos_as_xyz
  1  'x, y, z'
loop_
 _atom_site_type_symbol
 _atom_site_label
 _atom_site_symmetry_multiplicity
 _atom_site_fract_x
 _atom_site_fract_y
 _atom_site_fract_z
 _atom_site_occupancy
  Na  Na0  1  0.11070100  0.24762500  0.86307600  1
  Na  Na1  1  0.61545100  0.75237500  0.86307600  1
  Na  Na2  1  0.61225700  0.25086700  0.86312400  1
  Na  Na3  1  0.61225700  0.74913300  0.36139000  1
  Fe  Fe0  1  0.61130500  0.24918400  0.36212000  1
  Fe  Fe1  1  0.11293600  0.75081600  0.36212000  1
  Fe  Fe2  1  0.11220800  0.25043900  0.36264700  1
  Fe  Fe3  1  0.11220800  0.74956100  0.86176800  1
  F  F0  1  0.47155500  0.33883600  0.13271900  1
  F  F1  1  0.79388300  0.66116400  0.13271900  1
  F  F2  1  0.78744200  0.55799600  0.61952300  1
  F  F3  1  0.06152700  0.44200400  0.22944500  1
  F  F4  1  0.06152700  0.83208100  0.61952300  1
  F  F5  1  0.78744200  0.16791900  0.22944500  1
  F  F6  1  0.43719000  0.33233500  0.49504800  1
  F  F7  1  0.16271300  0.66766500  0.10485600  1
  F  F8  1  0.16271300  0.05785700  0.49504800  1
  F  F9  1  0.43719000  0.94214300  0.10485600  1
  F  F10  1  0.00500700  0.00000000  0.00500700  1
  F  F11  1  0.75110200  0.15975400  0.59134800  1
  F  F12  1  0.43159400  0.84024600  0.59134800  1
  F  F13  1  0.21929300  0.50000000  0.71929300  1
loop_
_geom_bond_atom_site_label_1
_geom_bond_atom_site_label_2
_geom_bond_distance
_geom_bond_site_symmetry_2
F0 Fe0 2.006080 1_555
F0 Na0 2.289057 1_554
F0 Na2 2.527542 1_554
F0 Na3 2.527542 1_555
F1 Fe1 2.006080 1_655
F1 Na1 2.289057 1_554
F1 Na2 2.527542 1_554
F1 Na3 2.527542 1_555
F2 Fe0 1.946092 1_555
F2 Fe3 2.097039 1_655
F2 Na1 2.586108 1_555
F2 Na3 2.839322 1_555
F3 Fe1 1.946092 1_555
F3 Fe2 2.097044 1_555
F3 Na0 2.586102 1_554
F3 Na2 2.839321 1_454
F4 Fe1 1.946093 1_555
F4 Fe3 2.097031 1_555
F4 Na0 2.586108 1_565
F4 Na3 2.839322 1_455
F5 Fe0 1.946091 1_555
F5 Fe2 2.097037 1_655
F5 Na1 2.586107 1_544
F5 Na2 2.839316 1_554
F6 Fe0 1.933816 1_555
F6 Fe2 2.099785 1_555
F6 Na1 2.610908 1_555
F6 Na2 2.842679 1_555
F7 Fe1 1.933802 1_555
F7 Fe3 2.099799 1_554
F7 Na0 2.610908 1_554
F7 Na3 2.842679 1_555
F8 Fe1 1.933802 1_545
F8 Fe2 2.099792 1_555
F8 Na0 2.610908 1_555
F8 Na2 2.842679 1_555
F9 Fe0 1.933805 1_565
F9 Fe3 2.099786 1_554
F9 Na1 2.610914 1_554
F9 Na3 2.842680 1_555
F10 Fe2 2.022128 1_555
F10 Fe3 2.022130 1_544
F10 Na0 2.870341 1_554
F10 Na1 2.870341 1_444
F11 Fe0 2.003773 1_555
F11 Na0 2.288555 1_655
F11 Na2 2.526793 1_555
F11 Na3 2.526793 1_545
F12 Fe1 2.003774 1_555
F12 Na1 2.288555 1_555
F12 Na3 2.526793 1_555
F12 Na2 2.526793 1_565
F13 Fe3 2.015849 1_555
F13 Fe2 2.015851 1_555
F13 Na1 2.922872 1_555
F13 Na0 2.922872 1_555
