# generated using pymatgen
data_Rb6Al2(Sb2O7)3
_symmetry_space_group_name_H-M   'P 1'
_cell_length_a   16.00783815
_cell_length_b   16.00783815
_cell_length_c   8.45637593
_cell_angle_alpha   89.88388651
_cell_angle_beta   89.88388651
_cell_angle_gamma   20.52545802
_symmetry_Int_Tables_number   1
_chemical_formula_structural   Rb6Al2(Sb2O7)3
_chemical_formula_sum   'Rb6 Al2 Sb6 O21'
_cell_volume   759.78338726
_cell_formula_units_Z   1
loop_
 _symmetry_equiv_pos_site_id
 _symmetry_equiv_pos_as_xyz
  1  'x, y, z'
loop_
 _atom_site_type_symbol
 _atom_site_label
 _atom_site_symmetry_multiplicity
 _atom_site_fract_x
 _atom_site_fract_y
 _atom_site_fract_z
 _atom_site_occupancy
  Rb  Rb0  1  0.78311100  0.78311100  0.39684400  1
  Rb  Rb1  1  0.10512100  0.10512100  0.39262000  1
  Rb  Rb2  1  0.44887200  0.44887200  0.37815800  1
  Rb  Rb3  1  0.21688900  0.21688900  0.60315600  1
  Rb  Rb4  1  0.55112800  0.55112800  0.62184200  1
  Rb  Rb5  1  0.89487900  0.89487900  0.60738000  1
  Al  Al0  1  0.33387500  0.33387500  0.80124500  1
  Al  Al1  1  0.66612500  0.66612500  0.19875500  1
  Sb  Sb0  1  0.22373200  0.22373200  0.15826000  1
  Sb  Sb1  1  0.55850500  0.55850500  0.13831600  1
  Sb  Sb2  1  0.88637200  0.88637200  0.12862500  1
  Sb  Sb3  1  0.77626800  0.77626800  0.84174000  1
  Sb  Sb4  1  0.11362800  0.11362800  0.87137500  1
  Sb  Sb5  1  0.44149500  0.44149500  0.86168400  1
  O  O0  1  0.55611900  0.05784600  0.72949600  1
  O  O1  1  0.92113700  0.34567500  0.70143400  1
  O  O2  1  0.24739300  0.69310500  0.72334800  1
  O  O3  1  0.94215400  0.44388100  0.27050400  1
  O  O4  1  0.30689500  0.75260700  0.27665200  1
  O  O5  1  0.65432500  0.07886300  0.29856600  1
  O  O6  1  0.05784600  0.55611900  0.72949600  1
  O  O7  1  0.34567500  0.92113700  0.70143400  1
  O  O8  1  0.69310500  0.24739300  0.72334800  1
  O  O9  1  0.72672400  0.72672400  0.71052600  1
  O  O10  1  0.06256500  0.06256500  0.73503100  1
  O  O11  1  0.38771700  0.38771700  0.73738200  1
  O  O12  1  0.44388100  0.94215400  0.27050400  1
  O  O13  1  0.75260700  0.30689500  0.27665200  1
  O  O14  1  0.07886300  0.65432500  0.29856600  1
  O  O15  1  0.34362800  0.34362800  0.00966300  1
  O  O16  1  0.65637200  0.65637200  0.99033700  1
  O  O17  1  0.00000000  0.00000000  0.00000000  1
  O  O18  1  0.27327600  0.27327600  0.28947400  1
  O  O19  1  0.61228300  0.61228300  0.26261800  1
  O  O20  1  0.93743500  0.93743500  0.26496900  1
loop_
_geom_bond_atom_site_label_1
_geom_bond_atom_site_label_2
_geom_bond_distance
_geom_bond_site_symmetry_2
Al0 O6 1.762795 1_555
Al0 O0 1.762795 1_555
Al0 O11 1.779047 1_555
Al0 O15 1.789666 1_556
Al1 O12 1.762795 1_555
Al1 O3 1.762795 1_555
Al1 O19 1.779047 1_555
Al1 O16 1.789666 1_554
O0 Sb3 1.970016 1_545
O0 Rb0 3.245758 1_545
O0 Rb5 3.281729 1_545
O0 Rb3 3.350980 1_555
O1 Sb4 1.978821 1_655
O1 Rb3 3.010745 1_655
O1 Rb1 3.014837 1_655
O1 Rb4 3.142046 1_555
O2 Sb5 1.949499 1_555
O2 Rb4 2.972508 1_555
O2 Rb5 3.017973 1_455
O2 Rb2 3.255516 1_555
O3 Sb0 1.970016 1_655
O3 Rb3 3.245758 1_655
O3 Rb1 3.281729 1_655
O3 Rb0 3.350980 1_555
O4 Sb1 1.949499 1_555
O4 Rb2 2.972508 1_555
O4 Rb1 3.017973 1_565
O4 Rb4 3.255516 1_555
O5 Sb2 1.978821 1_545
O5 Rb0 3.010745 1_545
O5 Rb5 3.014837 1_545
O5 Rb2 3.142046 1_555
O6 Sb3 1.970016 1_455
O6 Rb0 3.245758 1_455
O6 Rb5 3.281729 1_455
O6 Rb3 3.350980 1_555
O7 Sb4 1.978821 1_565
O7 Rb3 3.010745 1_565
O7 Rb1 3.014837 1_565
O7 Rb4 3.142046 1_555
O8 Sb5 1.949499 1_555
O8 Rb4 2.972508 1_555
O8 Rb5 3.017973 1_545
O8 Rb2 3.255516 1_555
O9 Sb3 1.916887 1_555
O9 Rb3 3.009220 1_565
O9 Rb3 3.009220 1_655
O9 Rb0 3.189434 1_555
O10 Sb4 1.981107 1_555
O10 Rb4 3.030060 1_545
O10 Rb4 3.030060 1_455
O10 Rb1 3.188358 1_555
O11 Sb5 1.995628 1_555
O11 Rb5 3.064686 1_455
O11 Rb5 3.064686 1_545
O12 Sb0 1.970016 1_565
O12 Rb3 3.245758 1_565
O12 Rb1 3.281729 1_565
O12 Rb0 3.350980 1_555
O13 Sb1 1.949499 1_555
O13 Rb2 2.972508 1_555
O13 Rb1 3.017973 1_655
O13 Rb4 3.255516 1_555
O14 Sb2 1.978821 1_455
O14 Rb0 3.010745 1_455
O14 Rb5 3.014837 1_455
O14 Rb2 3.142046 1_555
O18 Sb0 1.916887 1_555
O18 Rb0 3.009220 1_545
O18 Rb0 3.009220 1_455
O18 Rb3 3.189434 1_555
O19 Sb1 1.995628 1_555
O19 Rb1 3.064686 1_565
O19 Rb1 3.064686 1_655
O20 Sb2 1.981107 1_555
O20 Rb2 3.030060 1_565
O20 Rb2 3.030060 1_655
O20 Rb5 3.188358 1_555
