# generated using pymatgen
data_Zn3B7IO13
_symmetry_space_group_name_H-M   'P 1'
_cell_length_a   8.69426000
_cell_length_b   8.69605500
_cell_length_c   12.29967700
_cell_angle_alpha   90.00000000
_cell_angle_beta   90.00000000
_cell_angle_gamma   90.00000000
_symmetry_Int_Tables_number   1
_chemical_formula_structural   Zn3B7IO13
_chemical_formula_sum   'Zn12 B28 I4 O52'
_cell_volume   929.92646601
_cell_formula_units_Z   4
loop_
 _symmetry_equiv_pos_site_id
 _symmetry_equiv_pos_as_xyz
  1  'x, y, z'
loop_
 _atom_site_type_symbol
 _atom_site_label
 _atom_site_symmetry_multiplicity
 _atom_site_fract_x
 _atom_site_fract_y
 _atom_site_fract_z
 _atom_site_occupancy
  Zn  Zn0  1  0.26064700  0.75085000  0.11676400  1
  Zn  Zn1  1  0.73935300  0.24915000  0.61676400  1
  Zn  Zn2  1  0.76064700  0.24915000  0.11676400  1
  Zn  Zn3  1  0.23935300  0.75085000  0.61676400  1
  Zn  Zn4  1  0.51131000  0.02669200  0.34430300  1
  Zn  Zn5  1  0.48869000  0.97330800  0.84430300  1
  Zn  Zn6  1  0.01131000  0.97330800  0.34430300  1
  Zn  Zn7  1  0.98869000  0.02669200  0.84430300  1
  Zn  Zn8  1  0.01120900  0.52714400  0.34133800  1
  Zn  Zn9  1  0.98879100  0.47285600  0.84133800  1
  Zn  Zn10  1  0.51120900  0.47285600  0.34133800  1
  Zn  Zn11  1  0.48879100  0.52714400  0.84133800  1
  B  B0  1  0.09467200  0.24983700  0.02262400  1
  B  B1  1  0.90532800  0.75016300  0.52262400  1
  B  B2  1  0.59467200  0.75016300  0.02262400  1
  B  B3  1  0.40532800  0.24983700  0.52262400  1
  B  B4  1  0.24594600  0.40273700  0.17465900  1
  B  B5  1  0.75405400  0.59726300  0.67465900  1
  B  B6  1  0.74594600  0.59726300  0.17465900  1
  B  B7  1  0.25405400  0.40273700  0.67465900  1
  B  B8  1  0.04547400  0.25064900  0.49477200  1
  B  B9  1  0.95452600  0.74935100  0.99477200  1
  B  B10  1  0.54547400  0.74935100  0.49477200  1
  B  B11  1  0.45452600  0.25064900  0.99477200  1
  B  B12  1  0.24362100  0.25291700  0.34774900  1
  B  B13  1  0.75637900  0.74708300  0.84774900  1
  B  B14  1  0.74362100  0.74708300  0.34774900  1
  B  B15  1  0.25637900  0.25291700  0.84774900  1
  B  B16  1  0.50199900  0.00322200  0.09540700  1
  B  B17  1  0.49800100  0.99677800  0.59540700  1
  B  B18  1  0.00199900  0.99677800  0.09540700  1
  B  B19  1  0.99800100  0.00322200  0.59540700  1
  B  B20  1  0.24660600  0.09752000  0.17530300  1
  B  B21  1  0.75339400  0.90248000  0.67530300  1
  B  B22  1  0.74660600  0.90248000  0.17530300  1
  B  B23  1  0.25339400  0.09752000  0.67530300  1
  B  B24  1  0.00118500  0.50216200  0.09480200  1
  B  B25  1  0.99881500  0.49783800  0.59480200  1
  B  B26  1  0.50118500  0.49783800  0.09480200  1
  B  B27  1  0.49881500  0.50216200  0.59480200  1
  I  I0  1  0.73804300  0.25005300  0.33980700  1
  I  I1  1  0.26195700  0.74994700  0.83980700  1
  I  I2  1  0.23804300  0.74994700  0.33980700  1
  I  I3  1  0.76195700  0.25005300  0.83980700  1
  O  O0  1  0.16549000  0.52386700  0.11673800  1
  O  O1  1  0.83451000  0.47613300  0.61673800  1
  O  O2  1  0.66549000  0.47613300  0.11673800  1
  O  O3  1  0.33451000  0.52386700  0.61673800  1
  O  O4  1  0.04962900  0.09134900  0.00212700  1
  O  O5  1  0.95037100  0.90865100  0.50212700  1
  O  O6  1  0.54962900  0.90865100  0.00212700  1
  O  O7  1  0.45037100  0.09134900  0.50212700  1
  O  O8  1  0.35730400  0.32355800  0.42123200  1
  O  O9  1  0.64269600  0.67644200  0.92123200  1
  O  O10  1  0.85730400  0.67644200  0.42123200  1
  O  O11  1  0.14269600  0.32355800  0.92123200  1
  O  O12  1  0.23101200  0.24959400  0.10667100  1
  O  O13  1  0.76898800  0.75040600  0.60667100  1
  O  O14  1  0.73101200  0.75040600  0.10667100  1
  O  O15  1  0.26898800  0.24959400  0.60667100  1
  O  O16  1  0.17376000  0.37286100  0.28000500  1
  O  O17  1  0.82624000  0.62713900  0.78000500  1
  O  O18  1  0.67376000  0.62713900  0.28000500  1
  O  O19  1  0.32624000  0.37286100  0.78000500  1
  O  O20  1  0.83653000  0.01603400  0.11526500  1
  O  O21  1  0.16347000  0.98396600  0.61526500  1
  O  O22  1  0.33653000  0.98396600  0.11526500  1
  O  O23  1  0.66347000  0.01603400  0.61526500  1
  O  O24  1  0.11780700  0.17344200  0.41085700  1
  O  O25  1  0.88219300  0.82655800  0.91085700  1
  O  O26  1  0.61780700  0.82655800  0.41085700  1
  O  O27  1  0.38219300  0.17344200  0.91085700  1
  O  O28  1  0.31981100  0.13624600  0.27886400  1
  O  O29  1  0.68018900  0.86375400  0.77886400  1
  O  O30  1  0.81981100  0.86375400  0.27886400  1
  O  O31  1  0.18018900  0.13624600  0.77886400  1
  O  O32  1  0.03722200  0.40939800  0.49296400  1
  O  O33  1  0.96277800  0.59060200  0.99296400  1
  O  O34  1  0.53722200  0.59060200  0.49296400  1
  O  O35  1  0.46277800  0.40939800  0.99296400  1
  O  O36  1  0.46819800  0.66176900  0.07251500  1
  O  O37  1  0.53180200  0.33823100  0.57251500  1
  O  O38  1  0.96819800  0.33823100  0.07251500  1
  O  O39  1  0.03180200  0.66176900  0.57251500  1
  O  O40  1  0.40892900  0.44329700  0.18821100  1
  O  O41  1  0.59107100  0.55670300  0.68821100  1
  O  O42  1  0.90892900  0.55670300  0.18821100  1
  O  O43  1  0.09107100  0.44329700  0.68821100  1
  O  O44  1  0.08934500  0.04082300  0.19273700  1
  O  O45  1  0.91065500  0.95917700  0.69273700  1
  O  O46  1  0.58934500  0.95917700  0.19273700  1
  O  O47  1  0.41065500  0.04082300  0.69273700  1
  O  O48  1  0.54104600  0.16876500  0.06948600  1
  O  O49  1  0.45895400  0.83123500  0.56948600  1
  O  O50  1  0.04104600  0.83123500  0.06948600  1
  O  O51  1  0.95895400  0.16876500  0.56948600  1
loop_
_geom_bond_atom_site_label_1
_geom_bond_atom_site_label_2
_geom_bond_distance
_geom_bond_site_symmetry_2
B0 O4 1.454789 1_555
B0 O11 1.463062 1_554
B0 O38 1.475310 1_455
B0 O12 1.572819 1_555
B1 O5 1.454789 1_555
B1 O10 1.463062 1_555
B1 O39 1.475310 1_655
B1 O13 1.572819 1_555
B2 O6 1.454789 1_555
B2 O9 1.463062 1_554
B2 O36 1.475310 1_555
B2 O14 1.572819 1_555
B3 O7 1.454789 1_555
B3 O8 1.463062 1_555
B3 O37 1.475310 1_555
B3 O15 1.572819 1_555
B4 O0 1.451340 1_555
B4 O16 1.462969 1_555
B4 O40 1.469737 1_555
B4 O12 1.577869 1_555
B5 O1 1.451340 1_555
B5 O17 1.462969 1_555
B5 O41 1.469737 1_555
B5 O13 1.577869 1_555
B6 O2 1.451340 1_555
B6 O18 1.462969 1_555
B6 O42 1.469737 1_555
B6 O14 1.577869 1_555
B7 O3 1.451340 1_555
B7 O19 1.462969 1_555
B7 O43 1.469737 1_555
B7 O15 1.577869 1_555
B8 O32 1.382532 1_555
B8 O24 1.382589 1_555
B8 O51 1.384691 1_455
B9 O33 1.382532 1_555
B9 O25 1.382589 1_555
B9 O50 1.384691 1_656
B10 O34 1.382532 1_555
B10 O26 1.382589 1_555
B10 O49 1.384691 1_555
B11 O35 1.382532 1_555
B11 O27 1.382589 1_555
B11 O48 1.384691 1_556
B12 O16 1.466671 1_555
B12 O8 1.473486 1_555
B12 O28 1.478518 1_555
B12 O24 1.508865 1_555
B13 O17 1.466671 1_555
B13 O9 1.473486 1_555
B13 O29 1.478518 1_555
B13 O25 1.508865 1_555
B14 O18 1.466671 1_555
B14 O10 1.473486 1_555
B14 O30 1.478518 1_555
B14 O26 1.508865 1_555
B15 O19 1.466671 1_555
B15 O11 1.473486 1_555
B15 O31 1.478518 1_555
B15 O27 1.508865 1_555
B16 O46 1.468509 1_545
B16 O22 1.468793 1_545
B16 O6 1.471104 1_545
B16 O48 1.513030 1_555
B17 O47 1.468509 1_565
B17 O23 1.468793 1_565
B17 O7 1.471104 1_565
B17 O49 1.513030 1_555
B18 O44 1.468509 1_565
B18 O20 1.468793 1_465
B18 O4 1.471104 1_565
B18 O50 1.513030 1_555
B19 O45 1.468509 1_545
B19 O21 1.468793 1_645
B19 O5 1.471104 1_545
B19 O51 1.513030 1_555
B20 O22 1.460018 1_545
B20 O28 1.463208 1_555
B20 O44 1.469181 1_555
B20 O12 1.574748 1_555
B21 O23 1.460018 1_565
B21 O29 1.463208 1_555
B21 O45 1.469181 1_555
B21 O13 1.574748 1_555
B22 O20 1.460018 1_565
B22 O30 1.463208 1_555
B22 O46 1.469181 1_555
B22 O14 1.574748 1_555
B23 O21 1.460018 1_545
B23 O31 1.463208 1_555
B23 O47 1.469181 1_555
B23 O15 1.574748 1_555
B24 O0 1.465968 1_555
B24 O42 1.479285 1_455
B24 O38 1.479729 1_455
B24 O33 1.507292 1_454
B25 O1 1.465968 1_555
B25 O43 1.479285 1_655
B25 O39 1.479729 1_655
B25 O32 1.507292 1_655
B26 O2 1.465968 1_555
B26 O40 1.479285 1_555
B26 O36 1.479729 1_555
B26 O35 1.507292 1_554
B27 O3 1.465968 1_555
B27 O41 1.479285 1_555
B27 O37 1.479729 1_555
B27 O34 1.507292 1_555
I0 Zn2 2.750398 1_555
I0 Zn10 2.764720 1_555
I0 Zn4 2.767986 1_555
I1 Zn3 2.750398 1_555
I1 Zn11 2.764720 1_555
I1 Zn5 2.767986 1_555
I2 Zn0 2.750398 1_555
I2 Zn8 2.764720 1_555
I2 Zn6 2.767986 1_555
I3 Zn1 2.750398 1_555
I3 Zn9 2.764720 1_555
I3 Zn7 2.767986 1_555
O0 Zn0 2.140226 1_555
O1 Zn1 2.140226 1_555
O2 Zn2 2.140226 1_555
O3 Zn3 2.140226 1_555
O4 Zn7 2.089268 1_454
O5 Zn6 2.089268 1_655
O6 Zn5 2.089268 1_554
O7 Zn4 2.089268 1_555
O8 Zn10 2.107538 1_555
O9 Zn11 2.107538 1_555
O10 Zn8 2.107538 1_655
O11 Zn9 2.107538 1_455
O16 Zn8 2.089599 1_555
O17 Zn9 2.089599 1_555
O18 Zn10 2.089599 1_555
O19 Zn11 2.089599 1_555
O20 Zn2 2.131925 1_555
O21 Zn3 2.131925 1_555
O22 Zn0 2.131925 1_555
O23 Zn1 2.131925 1_555
O24 Zn6 2.134553 1_545
O25 Zn7 2.134553 1_565
O26 Zn4 2.134553 1_565
O27 Zn5 2.134553 1_545
O28 Zn4 2.080258 1_555
O29 Zn5 2.080258 1_555
O30 Zn6 2.080258 1_655
O31 Zn7 2.080258 1_455
O32 Zn8 2.139536 1_555
O33 Zn9 2.139536 1_555
O34 Zn10 2.139536 1_555
O35 Zn11 2.139536 1_555
O36 Zn0 2.037774 1_555
O37 Zn1 2.037774 1_555
O38 Zn2 2.037774 1_555
O39 Zn3 2.037774 1_555
O40 Zn10 2.098590 1_555
O41 Zn11 2.098590 1_555
O42 Zn8 2.098590 1_655
O43 Zn9 2.098590 1_455
O44 Zn6 2.068888 1_545
O45 Zn7 2.068888 1_565
O46 Zn4 2.068888 1_565
O47 Zn5 2.068888 1_545
O48 Zn2 2.114734 1_555
O49 Zn3 2.114734 1_555
O50 Zn0 2.114734 1_555
O51 Zn1 2.114734 1_555
