# generated using pymatgen
data_B3H5N3
_symmetry_space_group_name_H-M   'P 1'
_cell_length_a   11.30868165
_cell_length_b   11.30868165
_cell_length_c   5.63808722
_cell_angle_alpha   76.78637705
_cell_angle_beta   76.78637705
_cell_angle_gamma   129.77324647
_symmetry_Int_Tables_number   1
_chemical_formula_structural   B3H5N3
_chemical_formula_sum   'B12 H20 N12'
_cell_volume   466.93017248
_cell_formula_units_Z   4
loop_
 _symmetry_equiv_pos_site_id
 _symmetry_equiv_pos_as_xyz
  1  'x, y, z'
loop_
 _atom_site_type_symbol
 _atom_site_label
 _atom_site_symmetry_multiplicity
 _atom_site_fract_x
 _atom_site_fract_y
 _atom_site_fract_z
 _atom_site_occupancy
  B  B0  1  0.81937000  0.02157100  0.13317800  1
  B  B1  1  0.18063000  0.97842900  0.86682200  1
  B  B2  1  0.97842900  0.18063000  0.36682200  1
  B  B3  1  0.02157100  0.81937000  0.63317800  1
  B  B4  1  0.60673400  0.24121800  0.12889900  1
  B  B5  1  0.39326600  0.75878200  0.87110100  1
  B  B6  1  0.75878200  0.39326600  0.37110100  1
  B  B7  1  0.24121800  0.60673400  0.62889900  1
  B  B8  1  0.79154200  0.20845800  0.25000000  1
  B  B9  1  0.20845800  0.79154200  0.75000000  1
  B  B10  1  0.57607300  0.42392700  0.25000000  1
  B  B11  1  0.42392700  0.57607300  0.75000000  1
  H  H0  1  0.67844600  0.06789400  0.03984700  1
  H  H1  1  0.32155400  0.93210600  0.96015300  1
  H  H2  1  0.93210600  0.32155400  0.46015300  1
  H  H3  1  0.06789400  0.67844600  0.53984700  1
  H  H4  1  0.98269500  0.01730500  0.25000000  1
  H  H5  1  0.01730500  0.98269500  0.75000000  1
  H  H6  1  0.46602900  0.28803300  0.03517500  1
  H  H7  1  0.53397100  0.71196700  0.96482500  1
  H  H8  1  0.71196700  0.53397100  0.46482500  1
  H  H9  1  0.28803300  0.46602900  0.53517500  1
  H  H10  1  0.51740700  0.48259300  0.25000000  1
  H  H11  1  0.48259300  0.51740700  0.75000000  1
  H  H12  1  0.77779400  0.92194600  0.04206100  1
  H  H13  1  0.22220600  0.07805400  0.95793900  1
  H  H14  1  0.07805400  0.22220600  0.45793900  1
  H  H15  1  0.92194600  0.77779400  0.54206100  1
  H  H16  1  0.56346700  0.14447400  0.03174000  1
  H  H17  1  0.43653300  0.85552600  0.96826000  1
  H  H18  1  0.85552600  0.43653300  0.46826000  1
  H  H19  1  0.14447400  0.56346700  0.53174000  1
  N  N0  1  0.71938900  0.28061100  0.25000000  1
  N  N1  1  0.28061100  0.71938900  0.75000000  1
  N  N2  1  0.54368600  0.31742400  0.12347200  1
  N  N3  1  0.45631400  0.68257600  0.87652800  1
  N  N4  1  0.68257600  0.45631400  0.37652800  1
  N  N5  1  0.31742400  0.54368600  0.62347200  1
  N  N6  1  0.75621200  0.09777600  0.12774200  1
  N  N7  1  0.24378800  0.90222400  0.87225800  1
  N  N8  1  0.90222400  0.24378800  0.37225800  1
  N  N9  1  0.09777600  0.75621200  0.62774200  1
  N  N10  1  0.93322300  0.06677700  0.25000000  1
  N  N11  1  0.06677700  0.93322300  0.75000000  1
loop_
_geom_bond_atom_site_label_1
_geom_bond_atom_site_label_2
_geom_bond_distance
_geom_bond_site_symmetry_2
B0 H12 1.204791 1_545
B0 N6 1.428009 1_555
B0 N10 1.432599 1_555
B1 H13 1.204791 1_565
B1 N7 1.428009 1_555
B1 N11 1.432599 1_555
B2 H14 1.204791 1_655
B2 N8 1.428009 1_555
B2 N10 1.432599 1_555
B3 H15 1.204791 1_455
B3 N9 1.428009 1_555
B3 N11 1.432599 1_555
B4 H16 1.203332 1_555
B4 N2 1.426911 1_555
B4 N0 1.448523 1_555
B5 H17 1.203332 1_555
B5 N3 1.426911 1_555
B5 N1 1.448523 1_555
B6 H18 1.203332 1_555
B6 N4 1.426911 1_555
B6 N0 1.448523 1_555
B7 H19 1.203332 1_555
B7 N5 1.426911 1_555
B7 N1 1.448523 1_555
B8 N8 1.442882 1_555
B8 N6 1.442882 1_555
B8 N0 1.477646 1_555
B9 N7 1.442882 1_555
B9 N9 1.442882 1_555
B9 N1 1.477646 1_555
B10 H10 1.201441 1_555
B10 N4 1.428802 1_555
B10 N2 1.428802 1_555
B11 H11 1.201441 1_555
B11 N3 1.428802 1_555
B11 N5 1.428802 1_555
H0 N6 1.014259 1_555
H1 N7 1.014259 1_555
H2 N8 1.014259 1_555
H3 N9 1.014259 1_555
H4 N10 1.013154 1_555
H5 N11 1.013154 1_555
H6 N2 1.015664 1_555
H7 N3 1.015664 1_555
H8 N4 1.015664 1_555
H9 N5 1.015664 1_555
