# generated using pymatgen
data_KEu(GeO3)4
_symmetry_space_group_name_H-M   'P 1'
_cell_length_a   5.43130137
_cell_length_b   5.43130137
_cell_length_c   7.66510716
_cell_angle_alpha   90.00000000
_cell_angle_beta   90.00000000
_cell_angle_gamma   89.30897128
_symmetry_Int_Tables_number   1
_chemical_formula_structural   KEu(GeO3)4
_chemical_formula_sum   'K1 Eu1 Ge4 O12'
_cell_volume   226.09681608
_cell_formula_units_Z   1
loop_
 _symmetry_equiv_pos_site_id
 _symmetry_equiv_pos_as_xyz
  1  'x, y, z'
loop_
 _atom_site_type_symbol
 _atom_site_label
 _atom_site_symmetry_multiplicity
 _atom_site_fract_x
 _atom_site_fract_y
 _atom_site_fract_z
 _atom_site_occupancy
  K  K0  1  0.99498787  0.99498787  0.50000000  1
  Eu  Eu0  1  0.51557959  0.51557959  -0.00000000  1
  Ge  Ge0  1  0.49443095  0.01011519  0.74335150  1
  Ge  Ge1  1  0.49443095  0.01011519  0.25664850  1
  Ge  Ge2  1  0.01011519  0.49443095  0.25664850  1
  Ge  Ge3  1  0.01011519  0.49443095  0.74335150  1
  O  O0  1  0.74643520  0.25182318  0.77920921  1
  O  O1  1  0.25182318  0.74643520  0.77920921  1
  O  O2  1  0.25182318  0.74643520  0.22079079  1
  O  O3  1  0.74643520  0.25182318  0.22079079  1
  O  O4  1  0.71406059  0.71406059  0.76130901  1
  O  O5  1  0.27060415  0.27060415  0.77777304  1
  O  O6  1  0.27060415  0.27060415  0.22222696  1
  O  O7  1  0.71406059  0.71406059  0.23869099  1
  O  O8  1  0.51543796  0.98275754  -0.00000000  1
  O  O9  1  0.49144787  0.02395064  0.50000000  1
  O  O10  1  0.98275754  0.51543796  -0.00000000  1
  O  O11  1  0.02395064  0.49144787  0.50000000  1
loop_
_geom_bond_atom_site_label_1
_geom_bond_atom_site_label_2
_geom_bond_distance
_geom_bond_site_symmetry_2
K0 O11 2.702902 1_665
K0 O9 2.702902 1_665
K0 O9 2.737503 1_565
K0 O11 2.737503 1_655
K0 O0 2.881525 1_565
K0 O2 2.881525 1_655
K0 O1 2.881525 1_655
K0 O3 2.881525 1_565
K0 O7 2.953666 1_555
K0 O4 2.953666 1_555
K0 O6 3.011499 1_665
K0 O5 3.011499 1_665
Eu0 O7 2.387394 1_555
Eu0 O4 2.387394 1_554
Eu0 O8 2.537375 1_555
Eu0 O10 2.537375 1_555
Eu0 O3 2.538729 1_555
Eu0 O1 2.538729 1_554
Eu0 O2 2.538729 1_555
Eu0 O0 2.538729 1_554
Eu0 O5 2.546547 1_554
Eu0 O6 2.546547 1_555
Eu0 O10 2.893927 1_455
Eu0 O8 2.893927 1_545
Ge0 O9 1.866891 1_555
Ge0 O5 1.872866 1_555
Ge0 O0 1.927607 1_555
Ge0 O8 1.976035 1_546
Ge0 O1 1.976946 1_545
Ge0 O4 1.995287 1_545
Ge1 O9 1.866891 1_555
Ge1 O6 1.872866 1_555
Ge1 O3 1.927607 1_555
Ge1 O8 1.976035 1_545
Ge1 O2 1.976946 1_545
Ge1 O7 1.995287 1_545
Ge2 O11 1.866891 1_555
Ge2 O6 1.872866 1_555
Ge2 O2 1.927607 1_555
Ge2 O10 1.976035 1_455
Ge2 O3 1.976946 1_455
Ge2 O7 1.995287 1_455
Ge3 O11 1.866891 1_555
Ge3 O5 1.872866 1_555
Ge3 O1 1.927607 1_555
Ge3 O10 1.976035 1_456
Ge3 O0 1.976946 1_455
Ge3 O4 1.995287 1_455
