# generated using pymatgen
data_Sn3N4
_symmetry_space_group_name_H-M   'P 1'
_cell_length_a   6.39791287
_cell_length_b   6.39791270
_cell_length_c   6.39791241
_cell_angle_alpha   60.00000153
_cell_angle_beta   60.00000242
_cell_angle_gamma   60.00000075
_symmetry_Int_Tables_number   1
_chemical_formula_structural   Sn3N4
_chemical_formula_sum   'Sn6 N8'
_cell_volume   185.18249814
_cell_formula_units_Z   2
loop_
 _symmetry_equiv_pos_site_id
 _symmetry_equiv_pos_as_xyz
  1  'x, y, z'
loop_
 _atom_site_type_symbol
 _atom_site_label
 _atom_site_symmetry_multiplicity
 _atom_site_fract_x
 _atom_site_fract_y
 _atom_site_fract_z
 _atom_site_occupancy
  Sn  Sn0  1  0.50000000  -0.00000000  0.50000000  1
  Sn  Sn1  1  0.00000000  0.50000000  0.50000000  1
  Sn  Sn2  1  0.50000000  0.50000000  0.00000000  1
  Sn  Sn3  1  0.50000000  0.50000000  0.50000000  1
  Sn  Sn4  1  0.87500000  0.87500000  0.87500000  1
  Sn  Sn5  1  0.12500000  0.12500000  0.12500000  1
  N  N0  1  0.74104467  0.74104467  0.74104467  1
  N  N1  1  0.25895533  0.25895533  0.72313501  1
  N  N2  1  0.25895533  0.72313501  0.25895533  1
  N  N3  1  0.72313501  0.25895533  0.25895533  1
  N  N4  1  0.74104467  0.27686499  0.74104467  1
  N  N5  1  0.27686499  0.74104467  0.74104467  1
  N  N6  1  0.25895533  0.25895533  0.25895533  1
  N  N7  1  0.74104467  0.74104467  0.27686499  1
loop_
_geom_bond_atom_site_label_1
_geom_bond_atom_site_label_2
_geom_bond_distance
_geom_bond_site_symmetry_2
N0 Sn4 2.099297 1_555
N0 Sn0 2.183984 1_565
N0 Sn1 2.183984 1_655
N0 Sn2 2.183984 1_556
N1 Sn5 2.099292 1_556
N1 Sn3 2.183984 1_555
N1 Sn0 2.183988 1_555
N1 Sn1 2.183988 1_555
N2 Sn5 2.099292 1_565
N2 Sn3 2.183984 1_555
N2 Sn2 2.183988 1_555
N2 Sn1 2.183988 1_555
N3 Sn5 2.099292 1_655
N3 Sn3 2.183984 1_555
N3 Sn2 2.183988 1_555
N3 Sn0 2.183988 1_555
N4 Sn4 2.099292 1_545
N4 Sn3 2.183984 1_555
N4 Sn2 2.183988 1_556
N4 Sn1 2.183988 1_655
N5 Sn4 2.099292 1_455
N5 Sn3 2.183984 1_555
N5 Sn2 2.183988 1_556
N5 Sn0 2.183988 1_565
N6 Sn5 2.099297 1_555
N6 Sn0 2.183984 1_555
N6 Sn1 2.183984 1_555
N6 Sn2 2.183984 1_555
N7 Sn4 2.099292 1_554
N7 Sn3 2.183984 1_555
N7 Sn0 2.183988 1_565
N7 Sn1 2.183988 1_655
