# generated using pymatgen
data_Li9Mn2Co5O16
_symmetry_space_group_name_H-M   'P 1'
_cell_length_a   2.90911200
_cell_length_b   5.09236973
_cell_length_c   19.47395569
_cell_angle_alpha   94.31319327
_cell_angle_beta   90.93503520
_cell_angle_gamma   91.40487682
_symmetry_Int_Tables_number   1
_chemical_formula_structural   Li9Mn2Co5O16
_chemical_formula_sum   'Li9 Mn2 Co5 O16'
_cell_volume   287.54124620
_cell_formula_units_Z   1
loop_
 _symmetry_equiv_pos_site_id
 _symmetry_equiv_pos_as_xyz
  1  'x, y, z'
loop_
 _atom_site_type_symbol
 _atom_site_label
 _atom_site_symmetry_multiplicity
 _atom_site_fract_x
 _atom_site_fract_y
 _atom_site_fract_z
 _atom_site_occupancy
  Li  Li0  1  0.99588500  0.35884500  0.13953100  1
  Li  Li1  1  0.51112800  0.63075900  0.37236900  1
  Li  Li2  1  0.99450700  0.87338700  0.62179900  1
  Li  Li3  1  0.50552600  0.13063700  0.87176400  1
  Li  Li4  1  0.48773200  0.87150100  0.13114600  1
  Li  Li5  1  0.99916500  0.14364400  0.36894200  1
  Li  Li6  1  0.49882500  0.36734500  0.62366300  1
  Li  Li7  1  0.00089000  0.62054900  0.87208000  1
  Li  Li8  1  0.50056100  0.24938700  0.25096000  1
  Mn  Mn0  1  0.99719100  0.99918700  0.99976200  1
  Mn  Mn1  1  0.00100400  0.75065000  0.25023200  1
  Co  Co0  1  0.00043200  0.50090800  0.49949400  1
  Co  Co1  1  0.49874800  0.74934300  0.74917000  1
  Co  Co2  1  0.49894500  0.49869400  0.00069800  1
  Co  Co3  1  0.49912500  0.00145900  0.49905500  1
  Co  Co4  1  0.00215300  0.24892600  0.75001900  1
  O  O0  1  0.50684900  0.16287800  0.05454500  1
  O  O1  1  0.00075100  0.46621700  0.30858700  1
  O  O2  1  0.48344500  0.67645900  0.55866600  1
  O  O3  1  0.00638000  0.94567000  0.80654400  1
  O  O4  1  0.99644000  0.70186800  0.05486300  1
  O  O5  1  0.51145200  0.91853300  0.30469800  1
  O  O6  1  0.98651300  0.17744000  0.55817600  1
  O  O7  1  0.46579900  0.44324600  0.80878300  1
  O  O8  1  0.49292400  0.57877100  0.19409400  1
  O  O9  1  0.01854800  0.82820600  0.44306100  1
  O  O10  1  0.53674100  0.05853200  0.69308200  1
  O  O11  1  0.00142700  0.29838200  0.94277500  1
  O  O12  1  0.00090700  0.03758600  0.19125600  1
  O  O13  1  0.51967300  0.32645700  0.44210500  1
  O  O14  1  0.99110000  0.55071400  0.69444700  1
  O  O15  1  0.48923400  0.83382100  0.94363200  1
loop_
_geom_bond_atom_site_label_1
_geom_bond_atom_site_label_2
_geom_bond_distance
_geom_bond_site_symmetry_2
Li0 O12 1.984895 1_655
Li0 O8 2.040957 1_655
Li0 O8 2.115719 1_555
Li0 O0 2.316036 1_555
Li0 O0 2.418488 1_655
Li0 O4 2.490601 1_555
Li1 O1 2.042449 1_555
Li1 O5 2.043199 1_555
Li1 O1 2.057526 1_655
Li1 O13 2.136241 1_555
Li1 O9 2.176657 1_655
Li1 O9 2.210516 1_555
Li2 O6 2.054851 1_565
Li2 O2 2.099853 1_555
Li2 O2 2.117057 1_655
Li2 O10 2.124701 1_565
Li2 O10 2.227759 1_665
Li2 O14 2.247428 1_555
Li3 O3 2.074043 1_545
Li3 O7 2.085647 1_555
Li3 O11 2.102373 1_655
Li3 O15 2.135993 1_545
Li3 O3 2.138004 1_645
Li3 O11 2.177728 1_555
Li4 O8 2.000112 1_555
Li4 O12 2.011570 1_665
Li4 O12 2.013753 1_565
Li4 O4 2.161675 1_455
Li4 O0 2.182107 1_565
Li4 O4 2.254883 1_555
Li5 O1 2.090459 1_655
Li5 O5 2.130480 1_545
Li5 O13 2.184356 1_555
Li5 O13 2.202374 1_655
Li5 O9 2.239950 1_645
Li5 O5 2.242593 1_645
Li6 O2 2.093630 1_555
Li6 O6 2.112956 1_455
Li6 O14 2.121158 1_555
Li6 O6 2.124906 1_555
Li6 O10 2.153172 1_555
Li6 O14 2.212271 1_455
Li7 O7 2.027483 1_555
Li7 O7 2.111588 1_455
Li7 O3 2.165037 1_555
Li7 O15 2.184362 1_555
Li7 O11 2.219611 1_555
Li7 O15 2.292585 1_455
Li8 O5 2.049768 1_545
Li8 O1 2.068206 1_655
Li8 O12 2.075396 1_555
Li8 O8 2.078642 1_555
Li8 O1 2.130333 1_555
Li8 O12 2.139479 1_655
Mn0 O4 1.920434 1_556
Mn0 O0 1.945576 1_666
Mn0 O11 1.951147 1_665
Mn0 O15 1.958409 1_555
Mn0 O0 1.960101 1_566
Mn0 O15 1.981059 1_655
Mn1 O1 1.907078 1_555
Mn1 O12 1.925237 1_565
Mn1 O5 1.952162 1_555
Mn1 O5 1.963862 1_455
Mn1 O8 1.971246 1_455
Mn1 O8 1.994418 1_555
Co0 O13 1.932088 1_455
Co0 O2 1.957558 1_555
Co0 O9 2.064360 1_555
Co0 O13 2.071586 1_555
Co0 O6 2.074193 1_455
Co0 O2 2.087219 1_455
Co1 O10 1.984538 1_565
Co1 O14 2.013202 1_455
Co1 O7 2.013729 1_555
Co1 O3 2.033333 1_655
Co1 O14 2.041813 1_555
Co1 O3 2.062513 1_555
Co2 O4 1.997567 1_555
Co2 O11 2.027047 1_554
Co2 O4 2.068915 1_455
Co2 O0 2.072543 1_555
Co2 O11 2.098461 1_654
Co2 O15 2.105908 1_554
Co3 O9 1.914949 1_545
Co3 O6 1.966776 1_555
Co3 O9 2.055520 1_645
Co3 O13 2.060583 1_555
Co3 O6 2.078178 1_455
Co3 O2 2.091838 1_545
Co4 O10 1.930680 1_455
Co4 O14 1.945626 1_455
Co4 O7 1.954964 1_555
Co4 O3 1.962869 1_545
Co4 O10 2.134605 1_555
Co4 O7 2.164952 1_455
