# generated using pymatgen
data_YbPrSe3
_symmetry_space_group_name_H-M   'P 1'
_cell_length_a   4.04234192
_cell_length_b   6.87391925
_cell_length_c   9.96142613
_cell_angle_alpha   90.00000000
_cell_angle_beta   90.00000000
_cell_angle_gamma   107.09966431
_symmetry_Int_Tables_number   1
_chemical_formula_structural   YbPrSe3
_chemical_formula_sum   'Yb2 Pr2 Se6'
_cell_volume   264.55966078
_cell_formula_units_Z   2
loop_
 _symmetry_equiv_pos_site_id
 _symmetry_equiv_pos_as_xyz
  1  'x, y, z'
loop_
 _atom_site_type_symbol
 _atom_site_label
 _atom_site_symmetry_multiplicity
 _atom_site_fract_x
 _atom_site_fract_y
 _atom_site_fract_z
 _atom_site_occupancy
  Yb  Yb0  1  0.00000000  0.00000000  0.00000000  1
  Yb  Yb1  1  0.00000000  0.00000000  0.50000000  1
  Pr  Pr0  1  0.74769642  0.49539284  0.75000000  1
  Pr  Pr1  1  0.25230358  0.50460716  0.25000000  1
  Se  Se0  1  0.91490972  0.82981944  0.25000000  1
  Se  Se1  1  0.08509028  0.17018056  0.75000000  1
  Se  Se2  1  0.35771009  0.71542017  0.56161264  1
  Se  Se3  1  0.64228991  0.28457983  0.43838736  1
  Se  Se4  1  0.35771009  0.71542017  0.93838736  1
  Se  Se5  1  0.64228991  0.28457983  0.06161264  1
loop_
_geom_bond_atom_site_label_1
_geom_bond_atom_site_label_2
_geom_bond_distance
_geom_bond_site_symmetry_2
Pr0 Se1 2.941166 1_655
Pr0 Se1 2.941166 1_555
Pr0 Se4 3.113924 1_655
Pr0 Se2 3.113924 1_655
Pr0 Se4 3.113924 1_555
Pr0 Se2 3.113924 1_555
Pr0 Se5 3.399095 1_556
Pr0 Se3 3.399095 1_555
Pr1 Se0 2.941166 1_455
Pr1 Se0 2.941166 1_555
Pr1 Se3 3.113924 1_455
Pr1 Se5 3.113924 1_455
Pr1 Se3 3.113924 1_555
Pr1 Se5 3.113924 1_555
Pr1 Se2 3.399095 1_555
Pr1 Se4 3.399095 1_554
Se0 Yb0 2.729838 1_665
Se0 Yb1 2.729838 1_665
Se1 Yb0 2.729838 1_556
Se1 Yb1 2.729838 1_555
Se2 Yb1 2.820925 1_565
Se2 Yb1 2.820925 1_665
Se3 Yb1 2.820925 1_655
Se3 Yb1 2.820925 1_555
Se4 Yb0 2.820925 1_566
Se4 Yb0 2.820925 1_666
Se5 Yb0 2.820925 1_655
Se5 Yb0 2.820925 1_555
