# generated using pymatgen
data_CaCr3F6
_symmetry_space_group_name_H-M   'P 1'
_cell_length_a   6.43120819
_cell_length_b   7.03499282
_cell_length_c   7.15652038
_cell_angle_alpha   68.79024978
_cell_angle_beta   121.07094916
_cell_angle_gamma   122.66509811
_symmetry_Int_Tables_number   1
_chemical_formula_structural   CaCr3F6
_chemical_formula_sum   'Ca1 Cr3 F6'
_cell_volume   231.90864560
_cell_formula_units_Z   1
loop_
 _symmetry_equiv_pos_site_id
 _symmetry_equiv_pos_as_xyz
  1  'x, y, z'
loop_
 _atom_site_type_symbol
 _atom_site_label
 _atom_site_symmetry_multiplicity
 _atom_site_fract_x
 _atom_site_fract_y
 _atom_site_fract_z
 _atom_site_occupancy
  Ca  Ca0  1  0.00000000  0.00000000  0.00000000  1
  Cr  Cr0  1  0.00000000  0.00000000  0.50000000  1
  Cr  Cr1  1  0.50000000  0.50000000  0.00000000  1
  Cr  Cr2  1  0.00000000  0.50000000  0.00000000  1
  F  F0  1  0.09165600  0.37702900  0.83755300  1
  F  F1  1  0.90834400  0.62297100  0.16244700  1
  F  F2  1  0.86210400  0.80555600  0.73202000  1
  F  F3  1  0.13789600  0.19444400  0.26798000  1
  F  F4  1  0.56404600  0.81572800  0.95586400  1
  F  F5  1  0.43595400  0.18427200  0.04413600  1
loop_
_geom_bond_atom_site_label_1
_geom_bond_atom_site_label_2
_geom_bond_distance
_geom_bond_site_symmetry_2
Ca0 F4 2.258293 1_444
Ca0 F5 2.258293 1_555
Ca0 F2 2.273496 1_444
Ca0 F3 2.273496 1_555
Ca0 F1 2.350039 1_445
Ca0 F0 2.350039 1_554
Cr0 F3 1.995436 1_555
Cr0 F2 1.995436 1_445
Cr1 F5 1.960101 1_555
Cr1 F4 1.960101 1_554
Cr1 F0 2.029914 1_554
Cr1 F1 2.029914 1_555
Cr2 F0 2.105447 1_554
Cr2 F1 2.105447 1_455
Cr2 F3 2.530718 1_555
Cr2 F2 2.530718 1_454
