# generated using pymatgen
data_CrPdO2
_symmetry_space_group_name_H-M   'P 1'
_cell_length_a   2.94701806
_cell_length_b   10.19534798
_cell_length_c   6.25529487
_cell_angle_alpha   105.78519552
_cell_angle_beta   89.99999443
_cell_angle_gamma   90.00003142
_symmetry_Int_Tables_number   1
_chemical_formula_structural   CrPdO2
_chemical_formula_sum   'Cr4 Pd4 O8'
_cell_volume   180.85805220
_cell_formula_units_Z   4
loop_
 _symmetry_equiv_pos_site_id
 _symmetry_equiv_pos_as_xyz
  1  'x, y, z'
loop_
 _atom_site_type_symbol
 _atom_site_label
 _atom_site_symmetry_multiplicity
 _atom_site_fract_x
 _atom_site_fract_y
 _atom_site_fract_z
 _atom_site_occupancy
  Cr  Cr0  1  -0.00000000  0.75009043  0.50000861  1
  Cr  Cr1  1  0.50000000  -0.00006447  0.50000218  1
  Cr  Cr2  1  -0.00000000  0.25003369  0.49997526  1
  Cr  Cr3  1  0.50000000  0.49994684  0.50001316  1
  Pd  Pd0  1  -0.00000000  0.50004872  0.00007996  1
  Pd  Pd1  1  0.49999600  0.74996277  -0.00006878  1
  Pd  Pd2  1  0.00000100  0.00006392  0.00009546  1
  Pd  Pd3  1  0.50000100  0.24991311  -0.00010156  1
  O  O0  1  0.49999900  0.69450116  0.66597019  1
  O  O1  1  -0.00000000  0.94444946  0.66615878  1
  O  O2  1  0.50000100  0.19446018  0.66591789  1
  O  O3  1  -0.00000000  0.44443452  0.66612163  1
  O  O4  1  0.49999900  0.80557456  0.33387229  1
  O  O5  1  0.00000100  0.05549809  0.33404676  1
  O  O6  1  0.50000000  0.30554400  0.33384249  1
  O  O7  1  -0.00000000  0.55554102  0.33406770  1
loop_
_geom_bond_atom_site_label_1
_geom_bond_atom_site_label_2
_geom_bond_distance
_geom_bond_site_symmetry_2
Cr0 O1 1.971363 1_555
Cr0 O0 1.972377 1_555
Cr0 O0 1.972380 1_455
Cr0 O4 1.972576 1_555
Cr0 O4 1.972581 1_455
Cr0 O7 1.972705 1_555
Cr1 O4 1.971348 1_545
Cr1 O5 1.972236 1_555
Cr1 O5 1.972240 1_655
Cr1 O2 1.972447 1_555
Cr1 O1 1.972663 1_545
Cr1 O1 1.972664 1_645
Cr2 O3 1.971724 1_555
Cr2 O2 1.972235 1_455
Cr2 O2 1.972240 1_555
Cr2 O5 1.972564 1_555
Cr2 O6 1.972679 1_555
Cr2 O6 1.972680 1_455
Cr3 O6 1.971781 1_555
Cr3 O7 1.972339 1_655
Cr3 O7 1.972340 1_555
Cr3 O3 1.972596 1_555
Cr3 O3 1.972597 1_655
Cr3 O0 1.972774 1_555
O0 Pd1 2.010246 1_556
O1 Pd2 2.010098 1_566
O2 Pd3 2.010364 1_556
O3 Pd0 2.010228 1_556
O4 Pd1 2.010124 1_555
O5 Pd2 2.010188 1_555
O6 Pd3 2.010142 1_555
O7 Pd0 2.010406 1_555
