# generated using pymatgen
data_CeSnAu
_symmetry_space_group_name_H-M   'P 1'
_cell_length_a   4.79327396
_cell_length_b   4.79327396
_cell_length_c   7.64067800
_cell_angle_alpha   90.00000000
_cell_angle_beta   90.00000000
_cell_angle_gamma   119.99999939
_symmetry_Int_Tables_number   1
_chemical_formula_structural   CeSnAu
_chemical_formula_sum   'Ce2 Sn2 Au2'
_cell_volume   152.02920866
_cell_formula_units_Z   2
loop_
 _symmetry_equiv_pos_site_id
 _symmetry_equiv_pos_as_xyz
  1  'x, y, z'
loop_
 _atom_site_type_symbol
 _atom_site_label
 _atom_site_symmetry_multiplicity
 _atom_site_fract_x
 _atom_site_fract_y
 _atom_site_fract_z
 _atom_site_occupancy
  Ce  Ce0  1  0.00000000  0.00000000  0.50000000  1
  Ce  Ce1  1  0.00000000  0.00000000  0.00000000  1
  Sn  Sn0  1  0.33333300  0.66666700  0.25000000  1
  Sn  Sn1  1  0.66666700  0.33333300  0.75000000  1
  Au  Au0  1  0.33333300  0.66666700  0.75000000  1
  Au  Au1  1  0.66666700  0.33333300  0.25000000  1
loop_
_geom_bond_atom_site_label_1
_geom_bond_atom_site_label_2
_geom_bond_distance
_geom_bond_site_symmetry_2
Ce0 Sn1 3.362622 1_455
Ce0 Sn0 3.362622 1_545
Ce0 Sn0 3.362625 1_445
Ce0 Sn1 3.362625 1_555
Ce0 Sn1 3.362625 1_445
Ce0 Sn0 3.362625 1_555
Ce0 Ce1 3.820339 1_555
Ce0 Ce1 3.820339 1_556
Ce1 Sn0 3.362622 1_545
Ce1 Sn1 3.362622 1_454
Ce1 Sn0 3.362625 1_445
Ce1 Sn1 3.362625 1_444
Ce1 Sn0 3.362625 1_555
Ce1 Sn1 3.362625 1_554
Au0 Sn1 2.767395 1_455
Au0 Sn1 2.767395 1_565
Au0 Sn1 2.767404 1_555
Au0 Ce1 3.362622 1_566
Au0 Ce0 3.362622 1_565
Au0 Ce0 3.362625 1_555
Au0 Ce1 3.362625 1_666
Au0 Ce0 3.362625 1_665
Au0 Ce1 3.362625 1_556
Au1 Sn0 2.767395 1_545
Au1 Sn0 2.767395 1_655
Au1 Sn0 2.767404 1_555
Au1 Ce0 3.362622 1_655
Au1 Ce1 3.362622 1_655
Au1 Ce1 3.362625 1_665
Au1 Ce0 3.362625 1_555
Au1 Ce0 3.362625 1_665
Au1 Ce1 3.362625 1_555
