# generated using pymatgen
data_Na5Cu2H14S4O19
_symmetry_space_group_name_H-M   'P 1'
_cell_length_a   9.63291167
_cell_length_b   13.92353070
_cell_length_c   15.53571962
_cell_angle_alpha   106.89342828
_cell_angle_beta   90.00000000
_cell_angle_gamma   90.00000000
_symmetry_Int_Tables_number   1
_chemical_formula_structural   Na5Cu2H14S4O19
_chemical_formula_sum   'Na20 Cu8 H56 S16 O76'
_cell_volume   1993.79633359
_cell_formula_units_Z   4
loop_
 _symmetry_equiv_pos_site_id
 _symmetry_equiv_pos_as_xyz
  1  'x, y, z'
loop_
 _atom_site_type_symbol
 _atom_site_label
 _atom_site_symmetry_multiplicity
 _atom_site_fract_x
 _atom_site_fract_y
 _atom_site_fract_z
 _atom_site_occupancy
  Na  Na0  1  0.72203669  0.74456960  0.48037173  1
  Na  Na1  1  0.22203669  0.75543040  0.51962827  1
  Na  Na2  1  0.27796331  0.25543040  0.51962827  1
  Na  Na3  1  0.77796331  0.24456960  0.48037173  1
  Na  Na4  1  0.95855093  0.82531676  0.34295045  1
  Na  Na5  1  0.45855093  0.67468324  0.65704955  1
  Na  Na6  1  0.04144907  0.17468324  0.65704955  1
  Na  Na7  1  0.54144907  0.32531676  0.34295045  1
  Na  Na8  1  0.24586123  0.91662336  0.24568753  1
  Na  Na9  1  0.74586123  0.58337664  0.75431247  1
  Na  Na10  1  0.75413877  0.08337664  0.75431247  1
  Na  Na11  1  0.25413877  0.41662336  0.24568753  1
  Na  Na12  1  0.96168954  0.57133942  0.34726468  1
  Na  Na13  1  0.46168954  0.92866058  0.65273532  1
  Na  Na14  1  0.03831046  0.42866058  0.65273532  1
  Na  Na15  1  0.53831046  0.07133942  0.34726468  1
  Na  Na16  1  0.45784610  0.88288400  0.00680501  1
  Na  Na17  1  0.95784610  0.61711600  0.99319499  1
  Na  Na18  1  0.54215390  0.11711600  0.99319499  1
  Na  Na19  1  0.04215390  0.38288400  0.00680501  1
  Cu  Cu0  1  0.44075379  0.69331588  0.33023171  1
  Cu  Cu1  1  0.94075379  0.80668412  0.66976829  1
  Cu  Cu2  1  0.55924621  0.30668412  0.66976829  1
  Cu  Cu3  1  0.05924621  0.19331588  0.33023171  1
  Cu  Cu4  1  0.74930608  0.99077296  0.46868786  1
  Cu  Cu5  1  0.24930608  0.50922704  0.53131214  1
  Cu  Cu6  1  0.25069392  0.00922704  0.53131214  1
  Cu  Cu7  1  0.75069392  0.49077296  0.46868786  1
  H  H0  1  0.77840859  0.97991826  0.25554304  1
  H  H1  1  0.27840859  0.52008174  0.74445696  1
  H  H2  1  0.22159141  0.02008174  0.74445696  1
  H  H3  1  0.72159141  0.47991826  0.25554304  1
  H  H4  1  0.70002350  0.88047747  0.26109865  1
  H  H5  1  0.20002350  0.61952253  0.73890135  1
  H  H6  1  0.29997650  0.11952253  0.73890135  1
  H  H7  1  0.79997650  0.38047747  0.26109865  1
  H  H8  1  0.47303190  0.05319776  0.15953005  1
  H  H9  1  0.97303190  0.44680224  0.84046995  1
  H  H10  1  0.52696810  0.94680224  0.84046995  1
  H  H11  1  0.02696810  0.55319776  0.15953005  1
  H  H12  1  0.63546812  0.04513247  0.14087797  1
  H  H13  1  0.13546812  0.45486753  0.85912203  1
  H  H14  1  0.36453188  0.95486753  0.85912203  1
  H  H15  1  0.86453188  0.54513247  0.14087797  1
  H  H16  1  0.29684930  0.70318660  0.96630043  1
  H  H17  1  0.79684930  0.79681340  0.03369957  1
  H  H18  1  0.70315070  0.29681340  0.03369957  1
  H  H19  1  0.20315070  0.20318660  0.96630043  1
  H  H20  1  0.28973883  0.73658893  0.87747664  1
  H  H21  1  0.78973883  0.76341107  0.12252336  1
  H  H22  1  0.71026117  0.26341107  0.12252336  1
  H  H23  1  0.21026117  0.23658893  0.87747664  1
  H  H24  1  0.50049535  0.79694312  0.16112826  1
  H  H25  1  0.00049535  0.70305688  0.83887174  1
  H  H26  1  0.49950465  0.20305688  0.83887174  1
  H  H27  1  -0.00049535  0.29694312  0.16112826  1
  H  H28  1  0.36121620  0.75945044  0.11095420  1
  H  H29  1  0.86121620  0.74054956  0.88904580  1
  H  H30  1  0.63878380  0.24054956  0.88904580  1
  H  H31  1  0.13878380  0.25945044  0.11095420  1
  H  H32  1  0.15357729  0.94507859  0.05302418  1
  H  H33  1  0.65357729  0.55492141  0.94697582  1
  H  H34  1  0.84642271  0.05492141  0.94697582  1
  H  H35  1  0.34642271  0.44507859  0.05302418  1
  H  H36  1  0.18190759  0.94032291  0.94998267  1
  H  H37  1  0.68190759  0.55967709  0.05001733  1
  H  H38  1  0.81809241  0.05967709  0.05001733  1
  H  H39  1  0.31809241  0.44032291  0.94998267  1
  H  H40  1  0.73456007  0.91128716  0.95963165  1
  H  H41  1  0.23456007  0.58871284  0.04036835  1
  H  H42  1  0.26543993  0.08871284  0.04036835  1
  H  H43  1  0.76543993  0.41128716  0.95963165  1
  H  H44  1  0.68147945  0.81264650  0.88474080  1
  H  H45  1  0.18147945  0.68735350  0.11525920  1
  H  H46  1  0.31852055  0.18735350  0.11525920  1
  H  H47  1  0.81852055  0.31264650  0.88474080  1
  H  H48  1  0.99107445  0.98281545  0.15940017  1
  H  H49  1  0.49107445  0.51718455  0.84059983  1
  H  H50  1  0.00892555  0.01718455  0.84059983  1
  H  H51  1  0.50892555  0.48281545  0.15940017  1
  H  H52  1  0.98841854  0.86679551  0.11689932  1
  H  H53  1  0.48841854  0.63320449  0.88310068  1
  H  H54  1  0.01158146  0.13320449  0.88310068  1
  H  H55  1  0.51158146  0.36679551  0.11689932  1
  S  S0  1  0.46102937  0.58205169  0.41417657  1
  S  S1  1  0.96102937  0.91794831  0.58582343  1
  S  S2  1  0.53897063  0.41794831  0.58582343  1
  S  S3  1  0.03897063  0.08205169  0.41417657  1
  S  S4  1  0.45920990  0.86039438  0.41356412  1
  S  S5  1  0.95920990  0.63960562  0.58643588  1
  S  S6  1  0.54079010  0.13960562  0.58643588  1
  S  S7  1  0.04079010  0.36039438  0.41356412  1
  S  S8  1  0.65171718  0.67572815  0.25294418  1
  S  S9  1  0.15171718  0.82427185  0.74705582  1
  S  S10  1  0.34828282  0.32427185  0.74705582  1
  S  S11  1  0.84828282  0.17572815  0.25294418  1
  S  S12  1  0.21026447  0.67889903  0.28742084  1
  S  S13  1  0.71026447  0.82110097  0.71257916  1
  S  S14  1  0.78973553  0.32110097  0.71257916  1
  S  S15  1  0.28973553  0.17889903  0.28742084  1
  O  O0  1  0.42419354  0.47688155  0.36259052  1
  O  O1  1  0.92419354  0.02311845  0.63740948  1
  O  O2  1  0.57580646  0.52311845  0.63740948  1
  O  O3  1  0.07580646  0.97688155  0.36259052  1
  O  O4  1  0.61087974  0.58689593  0.44648499  1
  O  O5  1  0.11087974  0.91310407  0.55351501  1
  O  O6  1  0.38912026  0.41310407  0.55351501  1
  O  O7  1  0.88912026  0.08689593  0.44648499  1
  O  O8  1  0.37045243  0.61236424  0.50059309  1
  O  O9  1  0.87045243  0.88763576  0.49940691  1
  O  O10  1  0.62954757  0.38763576  0.49940691  1
  O  O11  1  0.12954757  0.11236424  0.50059309  1
  O  O12  1  0.37234507  0.88546916  0.50143361  1
  O  O13  1  0.87234507  0.61453084  0.49856639  1
  O  O14  1  0.62765493  0.11453084  0.49856639  1
  O  O15  1  0.12765493  0.38546916  0.50143361  1
  O  O16  1  0.61025026  0.87909703  0.44338093  1
  O  O17  1  0.11025026  0.62090297  0.55661907  1
  O  O18  1  0.38974974  0.12090297  0.55661907  1
  O  O19  1  0.88974974  0.37909703  0.44338093  1
  O  O20  1  0.41587950  0.93122355  0.36262304  1
  O  O21  1  0.91587950  0.56877645  0.63737696  1
  O  O22  1  0.58412050  0.06877645  0.63737696  1
  O  O23  1  0.08412050  0.43122355  0.36262304  1
  O  O24  1  0.65880938  0.75277887  0.19934129  1
  O  O25  1  0.15880938  0.74722113  0.80065871  1
  O  O26  1  0.34119062  0.24722113  0.80065871  1
  O  O27  1  0.84119062  0.25277887  0.19934129  1
  O  O28  1  0.66754347  0.57116410  0.18473834  1
  O  O29  1  0.16754347  0.92883590  0.81526166  1
  O  O30  1  0.33245653  0.42883590  0.81526166  1
  O  O31  1  0.83245653  0.07116410  0.18473834  1
  O  O32  1  0.77842660  0.69278325  0.31362613  1
  O  O33  1  0.27842660  0.80721675  0.68637387  1
  O  O34  1  0.22157340  0.30721675  0.68637387  1
  O  O35  1  0.72157340  0.19278325  0.31362613  1
  O  O36  1  0.16528667  0.74682817  0.23103789  1
  O  O37  1  0.66528667  0.75317183  0.76896211  1
  O  O38  1  0.83471333  0.25317183  0.76896211  1
  O  O39  1  0.33471333  0.24682817  0.23103789  1
  O  O40  1  0.16359734  0.57273432  0.23755410  1
  O  O41  1  0.66359734  0.92726568  0.76244590  1
  O  O42  1  0.83640266  0.42726568  0.76244590  1
  O  O43  1  0.33640266  0.07273432  0.23755410  1
  O  O44  1  0.12436648  0.71121208  0.37339122  1
  O  O45  1  0.62436648  0.78878792  0.62660878  1
  O  O46  1  0.87563352  0.28878792  0.62660878  1
  O  O47  1  0.37563352  0.21121208  0.37339122  1
  O  O48  1  0.73055791  0.94855981  0.29648936  1
  O  O49  1  0.23055791  0.55144019  0.70351064  1
  O  O50  1  0.26944209  0.05144019  0.70351064  1
  O  O51  1  0.76944209  0.44855981  0.29648936  1
  O  O52  1  0.54426422  0.03406809  0.11114299  1
  O  O53  1  0.04426422  0.46593191  0.88885701  1
  O  O54  1  0.45573578  0.96593191  0.88885701  1
  O  O55  1  0.95573578  0.53406809  0.11114299  1
  O  O56  1  0.35563257  0.72382454  0.92223319  1
  O  O57  1  0.85563257  0.77617546  0.07776681  1
  O  O58  1  0.64436743  0.27617546  0.07776681  1
  O  O59  1  0.14436743  0.22382454  0.92223319  1
  O  O60  1  0.41780369  0.81990242  0.13426565  1
  O  O61  1  0.91780369  0.68009758  0.86573435  1
  O  O62  1  0.58219631  0.18009758  0.86573435  1
  O  O63  1  0.08219631  0.31990242  0.13426565  1
  O  O64  1  0.22209598  0.96129101  0.01077270  1
  O  O65  1  0.72209598  0.53870899  0.98922730  1
  O  O66  1  0.77790402  0.03870899  0.98922730  1
  O  O67  1  0.27790402  0.46129101  0.01077270  1
  O  O68  1  0.70447848  0.84003650  0.95005180  1
  O  O69  1  0.20447848  0.65996350  0.04994820  1
  O  O70  1  0.29552152  0.15996350  0.04994820  1
  O  O71  1  0.79552152  0.34003650  0.95005180  1
  O  O72  1  0.05378540  0.92460148  0.13770289  1
  O  O73  1  0.55378540  0.57539852  0.86229711  1
  O  O74  1  0.94621460  0.07539852  0.86229711  1
  O  O75  1  0.44621460  0.42460148  0.13770289  1
loop_
_geom_bond_atom_site_label_1
_geom_bond_atom_site_label_2
_geom_bond_distance
_geom_bond_site_symmetry_2
Na0 O4 2.360434 1_555
Na0 O45 2.369143 1_555
Na0 O16 2.371479 1_555
Na0 O13 2.398344 1_555
Na0 O9 2.399389 1_555
Na0 O32 2.537744 1_555
Na1 O5 2.360434 1_555
Na1 O44 2.369143 1_555
Na1 O17 2.371479 1_555
Na1 O12 2.398344 1_555
Na1 O8 2.399389 1_555
Na1 O33 2.537744 1_555
Na2 O6 2.360434 1_555
Na2 O47 2.369143 1_555
Na2 O18 2.371479 1_555
Na2 O15 2.398344 1_555
Na2 O11 2.399389 1_555
Na2 O34 2.537744 1_555
Na3 O7 2.360434 1_555
Na3 O46 2.369143 1_555
Na3 O19 2.371479 1_555
Na3 O14 2.398344 1_555
Na3 O10 2.399389 1_555
Na3 O35 2.537744 1_555
Na4 O3 2.334118 1_655
Na4 O44 2.394941 1_655
Na4 O32 2.476865 1_555
Na4 O9 2.481020 1_555
Na4 O36 2.660607 1_655
Na5 O2 2.334118 1_555
Na5 O45 2.394941 1_555
Na5 O33 2.476865 1_555
Na5 O8 2.481020 1_555
Na5 O37 2.660607 1_555
Na6 O1 2.334118 1_455
Na6 O46 2.394941 1_455
Na6 O34 2.476865 1_555
Na6 O11 2.481020 1_555
Na6 O38 2.660607 1_455
Na7 O0 2.334118 1_555
Na7 O47 2.394941 1_555
Na7 O35 2.476865 1_555
Na7 O10 2.481020 1_555
Na7 O39 2.660607 1_555
Na8 O43 2.379263 1_565
Na8 O3 2.408373 1_555
Na8 O20 2.410249 1_555
Na8 O36 2.435307 1_555
Na8 O60 2.489686 1_555
Na8 O72 2.521602 1_555
Na9 O42 2.379263 1_555
Na9 O2 2.408373 1_555
Na9 O21 2.410249 1_555
Na9 O37 2.435307 1_555
Na9 O61 2.489686 1_555
Na9 O73 2.521602 1_555
Na10 O41 2.379263 1_545
Na10 O1 2.408373 1_555
Na10 O22 2.410249 1_555
Na10 O38 2.435307 1_555
Na10 O62 2.489686 1_555
Na10 O74 2.521602 1_555
Na11 O40 2.379263 1_555
Na11 O0 2.408373 1_555
Na11 O23 2.410249 1_555
Na11 O39 2.435307 1_555
Na11 O63 2.489686 1_555
Na11 O75 2.521602 1_555
Na12 O23 2.350407 1_655
Na12 O13 2.409574 1_555
Na12 O44 2.440046 1_655
Na12 O51 2.488078 1_555
Na12 O40 2.589899 1_655
Na12 O32 2.600462 1_555
Na13 O22 2.350407 1_565
Na13 O12 2.409574 1_555
Na13 O45 2.440046 1_555
Na13 O50 2.488078 1_565
Na13 O41 2.589899 1_555
Na13 O33 2.600462 1_555
Na14 O21 2.350407 1_455
Na14 O15 2.409574 1_555
Na14 O46 2.440046 1_455
Na14 O49 2.488078 1_555
Na14 O42 2.589899 1_455
Na14 O34 2.600462 1_555
Na15 O20 2.350407 1_545
Na15 O14 2.409574 1_555
Na15 O47 2.440046 1_555
Na15 O48 2.488078 1_545
Na15 O43 2.589899 1_555
Na15 O35 2.600462 1_555
Na16 O52 2.401773 1_565
Na16 O60 2.418298 1_555
Na16 O56 2.430920 1_554
Na16 O54 2.434471 1_554
Na16 O64 2.512720 1_555
Na16 O68 2.544007 1_554
Na17 O53 2.401773 1_655
Na17 O61 2.418298 1_555
Na17 O57 2.430920 1_556
Na17 O55 2.434471 1_556
Na17 O65 2.512720 1_555
Na17 O69 2.544007 1_656
Na18 O54 2.401773 1_545
Na18 O62 2.418298 1_555
Na18 O58 2.430920 1_556
Na18 O52 2.434471 1_556
Na18 O66 2.512720 1_555
Na18 O70 2.544007 1_556
Na19 O55 2.401773 1_455
Na19 O63 2.418298 1_555
Na19 O59 2.430920 1_554
Na19 O53 2.434471 1_554
Na19 O67 2.512720 1_555
Na19 O71 2.544007 1_454
Cu0 S0 2.305024 1_555
Cu0 S12 2.309700 1_555
Cu0 S4 2.317128 1_555
Cu0 S8 2.336794 1_555
Cu1 S1 2.305024 1_555
Cu1 S13 2.309700 1_555
Cu1 S5 2.317128 1_555
Cu1 S9 2.336794 1_655
Cu2 S2 2.305024 1_555
Cu2 S14 2.309700 1_555
Cu2 S6 2.317128 1_555
Cu2 S10 2.336794 1_555
Cu3 S3 2.305024 1_555
Cu3 S15 2.309700 1_555
Cu3 S7 2.317128 1_555
Cu3 S11 2.336794 1_455
Cu4 O7 1.998110 1_565
Cu4 O16 2.002837 1_555
Cu4 O9 2.012494 1_555
Cu4 O14 2.023136 1_565
Cu4 O48 2.573144 1_555
Cu5 O6 1.998110 1_555
Cu5 O17 2.002837 1_555
Cu5 O8 2.012494 1_555
Cu5 O15 2.023136 1_555
Cu5 O49 2.573144 1_555
Cu6 O5 1.998110 1_545
Cu6 O18 2.002837 1_555
Cu6 O11 2.012494 1_555
Cu6 O12 2.023136 1_545
Cu6 O50 2.573144 1_555
Cu7 O4 1.998110 1_555
Cu7 O19 2.002837 1_555
Cu7 O10 2.012494 1_555
Cu7 O13 2.023136 1_555
Cu7 O51 2.573144 1_555
H0 O48 0.984474 1_555
H1 O49 0.984474 1_555
H2 O50 0.984474 1_555
H3 O51 0.984474 1_555
H4 O48 0.992223 1_555
H5 O49 0.992223 1_555
H6 O50 0.992223 1_555
H7 O51 0.992223 1_555
H8 O52 0.995242 1_555
H8 O43 1.756106 1_555
H9 O53 0.995242 1_655
H9 O42 1.756106 1_555
H10 O54 0.995242 1_555
H10 O41 1.756106 1_555
H11 O55 0.995242 1_455
H11 O40 1.756106 1_555
H12 O52 0.983687 1_555
H13 O53 0.983687 1_555
H14 O54 0.983687 1_555
H15 O55 0.983687 1_555
H16 O56 0.993101 1_555
H17 O57 0.993101 1_555
H18 O58 0.993101 1_555
H19 O59 0.993101 1_555
H20 O56 0.994882 1_555
H21 O57 0.994882 1_555
H22 O58 0.994882 1_555
H23 O59 0.994882 1_555
H24 O60 0.994184 1_555
H25 O61 0.994184 1_455
H26 O62 0.994184 1_555
H27 O63 0.994184 1_555
H28 O60 0.979592 1_555
H29 O61 0.979592 1_555
H30 O62 0.979592 1_555
H31 O63 0.979592 1_555
H32 O64 1.001792 1_555
H33 O65 1.001792 1_555
H34 O66 1.001792 1_555
H35 O67 1.001792 1_555
H36 O64 0.983251 1_556
H37 O65 0.983251 1_554
H38 O66 0.983251 1_554
H39 O67 0.983251 1_556
H40 O68 1.002244 1_555
H41 O69 1.002244 1_555
H42 O70 1.002244 1_555
H43 O71 1.002244 1_555
H44 O68 0.999576 1_555
H44 O37 1.754919 1_555
H45 O69 0.999576 1_555
H45 O36 1.754919 1_555
H46 O70 0.999576 1_555
H46 O39 1.754919 1_555
H47 O71 0.999576 1_555
H47 O38 1.754919 1_555
H48 O72 0.988301 1_655
H49 O73 0.988301 1_555
H50 O74 0.988301 1_455
H51 O75 0.988301 1_555
H52 O72 0.998782 1_655
H53 O73 0.998782 1_555
H54 O74 0.998782 1_455
H55 O75 0.998782 1_555
O0 S0 1.493462 1_555
O1 S1 1.493462 1_545
O2 S2 1.493462 1_555
O3 S3 1.493462 1_565
O4 S0 1.523316 1_555
O5 S1 1.523316 1_455
O6 S2 1.523316 1_555
O7 S3 1.523316 1_655
O8 S0 1.553231 1_555
O9 S1 1.553231 1_555
O10 S2 1.553231 1_555
O11 S3 1.553231 1_555
O12 S4 1.551969 1_555
O13 S5 1.551969 1_555
O14 S6 1.551969 1_555
O15 S7 1.551969 1_555
O16 S4 1.526167 1_555
O17 S5 1.526167 1_455
O18 S6 1.526167 1_555
O19 S7 1.526167 1_655
O20 S4 1.492221 1_555
O21 S5 1.492221 1_555
O22 S6 1.492221 1_555
O23 S7 1.492221 1_555
O24 S8 1.538936 1_555
O25 S9 1.538936 1_555
O26 S10 1.538936 1_555
O27 S11 1.538936 1_555
O28 S8 1.539187 1_555
O29 S9 1.539187 1_555
O30 S10 1.539187 1_555
O31 S11 1.539187 1_555
O32 S8 1.518174 1_555
O33 S9 1.518174 1_555
O34 S10 1.518174 1_555
O35 S11 1.518174 1_555
O36 S12 1.526786 1_555
O37 S13 1.526786 1_555
O38 S14 1.526786 1_555
O39 S15 1.526786 1_555
O40 S12 1.523729 1_555
O41 S13 1.523729 1_555
O42 S14 1.523729 1_555
O43 S15 1.523729 1_555
O44 S12 1.523716 1_555
O45 S13 1.523716 1_555
O46 S14 1.523716 1_555
O47 S15 1.523716 1_555
