# generated using pymatgen
data_Mn2Co3(PO5)4
_symmetry_space_group_name_H-M   'P 1'
_cell_length_a   9.00108000
_cell_length_b   9.23162573
_cell_length_c   9.67664370
_cell_angle_alpha   99.23298946
_cell_angle_beta   117.71624604
_cell_angle_gamma   90.00000000
_symmetry_Int_Tables_number   1
_chemical_formula_structural   Mn2Co3(PO5)4
_chemical_formula_sum   'Mn4 Co6 P8 O40'
_cell_volume   700.02931756
_cell_formula_units_Z   2
loop_
 _symmetry_equiv_pos_site_id
 _symmetry_equiv_pos_as_xyz
  1  'x, y, z'
loop_
 _atom_site_type_symbol
 _atom_site_label
 _atom_site_symmetry_multiplicity
 _atom_site_fract_x
 _atom_site_fract_y
 _atom_site_fract_z
 _atom_site_occupancy
  Mn  Mn0  1  0.34789600  0.12087000  0.64555200  1
  Mn  Mn1  1  0.65210400  0.87913000  0.35444800  1
  Mn  Mn2  1  0.70234400  0.37913000  0.35444800  1
  Mn  Mn3  1  0.29765600  0.62087000  0.64555200  1
  Co  Co0  1  0.74603400  0.18554300  0.62855400  1
  Co  Co1  1  0.25396600  0.81445700  0.37144600  1
  Co  Co2  1  0.11748000  0.31445700  0.37144600  1
  Co  Co3  1  0.88252000  0.68554300  0.62855400  1
  Co  Co4  1  0.38417200  0.25000000  0.00000000  1
  Co  Co5  1  0.61582800  0.75000000  0.00000000  1
  P  P0  1  0.40704000  0.13407700  0.31669000  1
  P  P1  1  0.59296000  0.86592300  0.68331000  1
  P  P2  1  0.09035000  0.36592300  0.68331000  1
  P  P3  1  0.90965000  0.63407700  0.31669000  1
  P  P4  1  0.60681700  0.39518000  0.83595000  1
  P  P5  1  0.39318300  0.60482000  0.16405000  1
  P  P6  1  0.77086700  0.10482000  0.16405000  1
  P  P7  1  0.22913300  0.89518000  0.83595000  1
  O  O0  1  0.32122700  0.16267500  0.14716800  1
  O  O1  1  0.67877300  0.83732500  0.85283200  1
  O  O2  1  0.17406000  0.33732500  0.85283200  1
  O  O3  1  0.82594000  0.66267500  0.14716800  1
  O  O4  1  0.58312900  0.22778900  0.41270300  1
  O  O5  1  0.41687100  0.77221100  0.58729700  1
  O  O6  1  0.17042600  0.27221100  0.58729700  1
  O  O7  1  0.82957400  0.72778900  0.41270300  1
  O  O8  1  0.30476000  0.17532900  0.40658800  1
  O  O9  1  0.69524000  0.82467100  0.59341200  1
  O  O10  1  0.89817300  0.32467100  0.59341200  1
  O  O11  1  0.10182700  0.67532900  0.40658800  1
  O  O12  1  0.78060800  0.08320200  0.00808700  1
  O  O13  1  0.21939200  0.91679800  0.99191300  1
  O  O14  1  0.77252100  0.41679800  0.99191300  1
  O  O15  1  0.22747900  0.58320200  0.00808700  1
  O  O16  1  0.55507300  0.02993100  0.66850600  1
  O  O17  1  0.44492700  0.97006900  0.33149400  1
  O  O18  1  0.88656700  0.47006900  0.33149400  1
  O  O19  1  0.11343300  0.52993100  0.66850600  1
  O  O20  1  0.63174300  0.33655300  0.69056400  1
  O  O21  1  0.36825700  0.66344700  0.30943600  1
  O  O22  1  0.94117900  0.16344700  0.30943600  1
  O  O23  1  0.05882100  0.83655300  0.69056400  1
  O  O24  1  0.08642400  0.33525900  0.19583700  1
  O  O25  1  0.91357600  0.66474100  0.80416300  1
  O  O26  1  0.89058700  0.16474100  0.80416300  1
  O  O27  1  0.10941300  0.83525900  0.19583700  1
  O  O28  1  0.47489800  0.45522400  0.17887000  1
  O  O29  1  0.52510200  0.54477600  0.82113000  1
  O  O30  1  0.29602800  0.04477600  0.82113000  1
  O  O31  1  0.70397200  0.95522400  0.17887000  1
  O  O32  1  0.27282000  0.46730600  0.47524400  1
  O  O33  1  0.72718000  0.53269400  0.52475600  1
  O  O34  1  0.79757600  0.03269400  0.52475600  1
  O  O35  1  0.20242400  0.96730600  0.47524400  1
  O  O36  1  0.47934400  0.27645300  0.83587100  1
  O  O37  1  0.52065600  0.72354700  0.16412900  1
  O  O38  1  0.64347300  0.22354700  0.16412900  1
  O  O39  1  0.35652700  0.77645300  0.83587100  1
loop_
_geom_bond_atom_site_label_1
_geom_bond_atom_site_label_2
_geom_bond_distance
_geom_bond_site_symmetry_2
Mn0 O35 1.919172 1_545
Mn0 O16 1.976413 1_555
Mn0 O36 1.994692 1_555
Mn0 O6 2.058299 1_555
Mn0 O30 2.172298 1_555
Mn0 O8 2.299667 1_555
Mn1 O34 1.919172 1_565
Mn1 O17 1.976413 1_555
Mn1 O37 1.994692 1_555
Mn1 O7 2.058299 1_555
Mn1 O31 2.172298 1_555
Mn1 O9 2.299667 1_555
Mn2 O33 1.919172 1_555
Mn2 O18 1.976413 1_555
Mn2 O38 1.994692 1_555
Mn2 O4 2.058299 1_555
Mn2 O28 2.172298 1_555
Mn2 O10 2.299670 1_555
Mn3 O32 1.919172 1_555
Mn3 O19 1.976413 1_555
Mn3 O39 1.994692 1_555
Mn3 O5 2.058299 1_555
Mn3 O29 2.172298 1_555
Mn3 O11 2.299670 1_555
Co0 O26 1.632642 1_555
Co0 O34 1.787115 1_555
Co0 O20 1.915087 1_555
Co0 O4 2.019262 1_555
Co0 O10 2.052775 1_555
Co0 O16 2.442119 1_555
Co1 O27 1.632642 1_555
Co1 O35 1.787115 1_555
Co1 O21 1.915087 1_555
Co1 O5 2.019262 1_555
Co1 O11 2.052775 1_555
Co1 O17 2.442119 1_555
Co2 O24 1.632642 1_555
Co2 O32 1.787115 1_555
Co2 O22 1.915087 1_455
Co2 O6 2.019262 1_555
Co2 O8 2.052769 1_555
Co2 O18 2.442119 1_455
Co3 O25 1.632642 1_555
Co3 O33 1.787115 1_555
Co3 O23 1.915087 1_655
Co3 O7 2.019262 1_555
Co3 O9 2.052769 1_555
Co3 O19 2.442119 1_655
Co4 O2 2.029243 1_554
Co4 O0 2.029249 1_555
Co4 O38 2.169319 1_555
Co4 O36 2.169319 1_554
Co4 O28 2.210204 1_555
Co4 O30 2.210204 1_554
Co5 O3 2.029243 1_555
Co5 O1 2.029249 1_554
Co5 O37 2.169319 1_555
Co5 O39 2.169319 1_554
Co5 O31 2.210204 1_555
Co5 O29 2.210204 1_554
O0 P0 1.522370 1_555
O1 P1 1.522370 1_555
O2 P2 1.522370 1_555
O3 P3 1.522370 1_555
O4 P0 1.579907 1_555
O5 P1 1.579907 1_555
O6 P2 1.579907 1_555
O7 P3 1.579907 1_555
O8 P0 1.545309 1_555
O9 P1 1.545309 1_555
O10 P2 1.545301 1_655
O11 P3 1.545301 1_455
O12 P6 1.533503 1_555
O13 P7 1.533503 1_555
O14 P4 1.533503 1_555
O15 P5 1.533503 1_555
O16 P1 1.566319 1_545
O17 P0 1.566319 1_565
O18 P3 1.566319 1_555
O19 P2 1.566319 1_555
O20 P4 1.540049 1_555
O21 P5 1.540049 1_555
O22 P6 1.540049 1_555
O23 P7 1.540049 1_555
O28 P5 1.560192 1_555
O29 P4 1.560192 1_555
O30 P7 1.560192 1_545
O31 P6 1.560192 1_565
O36 P4 1.586424 1_555
O37 P5 1.586424 1_555
O38 P6 1.586424 1_555
O39 P7 1.586424 1_555
