# generated using pymatgen
data_Fe3P2H3O8
_symmetry_space_group_name_H-M   'P 1'
_cell_length_a   8.56088600
_cell_length_b   9.30705200
_cell_length_c   9.65473100
_cell_angle_alpha   90.00000000
_cell_angle_beta   90.00000000
_cell_angle_gamma   90.00000000
_symmetry_Int_Tables_number   1
_chemical_formula_structural   Fe3P2H3O8
_chemical_formula_sum   'Fe12 P8 H12 O32'
_cell_volume   769.25624782
_cell_formula_units_Z   4
loop_
 _symmetry_equiv_pos_site_id
 _symmetry_equiv_pos_as_xyz
  1  'x, y, z'
loop_
 _atom_site_type_symbol
 _atom_site_label
 _atom_site_symmetry_multiplicity
 _atom_site_fract_x
 _atom_site_fract_y
 _atom_site_fract_z
 _atom_site_occupancy
  Fe  Fe0  1  0.48776300  0.07331100  0.28095700  1
  Fe  Fe1  1  0.51223700  0.07331100  0.71904300  1
  Fe  Fe2  1  0.01223700  0.57331100  0.28095700  1
  Fe  Fe3  1  0.98776300  0.57331100  0.71904300  1
  Fe  Fe4  1  0.13212700  0.97824900  0.34681500  1
  Fe  Fe5  1  0.86787300  0.97824900  0.65318500  1
  Fe  Fe6  1  0.36787300  0.47824900  0.34681500  1
  Fe  Fe7  1  0.63212700  0.47824900  0.65318500  1
  Fe  Fe8  1  0.13494400  0.13396900  0.84507300  1
  Fe  Fe9  1  0.86505600  0.13396900  0.15492700  1
  Fe  Fe10  1  0.36505600  0.63396900  0.84507300  1
  Fe  Fe11  1  0.63494400  0.63396900  0.15492700  1
  P  P0  1  0.28333300  0.35169600  0.64309800  1
  P  P1  1  0.71666700  0.35169600  0.35690200  1
  P  P2  1  0.21666700  0.85169600  0.64309800  1
  P  P3  1  0.78333300  0.85169600  0.35690200  1
  P  P4  1  0.20975200  0.27561200  0.15253900  1
  P  P5  1  0.79024800  0.27561200  0.84746100  1
  P  P6  1  0.29024800  0.77561200  0.15253900  1
  P  P7  1  0.70975200  0.77561200  0.84746100  1
  H  H0  1  0.00000000  0.05963300  0.50000000  1
  H  H1  1  0.50000000  0.55963400  0.50000000  1
  H  H2  1  0.26675600  0.08181700  0.42085900  1
  H  H3  1  0.73324400  0.08181700  0.57914100  1
  H  H4  1  0.23324400  0.58181700  0.42085900  1
  H  H5  1  0.76675600  0.58181700  0.57914100  1
  H  H6  1  0.61252200  0.49407100  0.02789900  1
  H  H7  1  0.38747800  0.49407100  0.97210100  1
  H  H8  1  0.88747800  0.99407100  0.02789900  1
  H  H9  1  0.11252200  0.99407100  0.97210100  1
  H  H10  1  0.00000000  0.99634700  0.00000000  1
  H  H11  1  0.50000000  0.49634700  0.00000000  1
  O  O0  1  0.19203000  0.27059300  0.99475600  1
  O  O1  1  0.80797000  0.27059300  0.00524400  1
  O  O2  1  0.30797000  0.77059300  0.99475600  1
  O  O3  1  0.69203000  0.77059300  0.00524400  1
  O  O4  1  0.30703700  0.20191300  0.71510000  1
  O  O5  1  0.69296300  0.20191300  0.28490000  1
  O  O6  1  0.19296300  0.70191300  0.71510000  1
  O  O7  1  0.80703700  0.70191300  0.28490000  1
  O  O8  1  0.18379600  0.43430900  0.20572300  1
  O  O9  1  0.81620400  0.43430900  0.79427700  1
  O  O10  1  0.31620400  0.93430900  0.20572300  1
  O  O11  1  0.68379600  0.93430900  0.79427700  1
  O  O12  1  0.08935800  0.16913700  0.21884300  1
  O  O13  1  0.91064200  0.16913700  0.78115700  1
  O  O14  1  0.41064200  0.66913700  0.21884300  1
  O  O15  1  0.58935800  0.66913700  0.78115700  1
  O  O16  1  0.59640400  0.45952700  0.28997500  1
  O  O17  1  0.40359600  0.45952700  0.71002500  1
  O  O18  1  0.90359600  0.95952700  0.28997500  1
  O  O19  1  0.09640400  0.95952700  0.71002500  1
  O  O20  1  0.32280200  0.33166200  0.48865100  1
  O  O21  1  0.67719800  0.33166200  0.51134900  1
  O  O22  1  0.17719800  0.83166200  0.48865100  1
  O  O23  1  0.82280200  0.83166200  0.51134900  1
  O  O24  1  0.37611500  0.24338600  0.20491100  1
  O  O25  1  0.62388500  0.24338600  0.79508900  1
  O  O26  1  0.12388500  0.74338600  0.20491100  1
  O  O27  1  0.87611500  0.74338600  0.79508900  1
  O  O28  1  0.11776200  0.40525800  0.66971400  1
  O  O29  1  0.88223800  0.40525800  0.33028600  1
  O  O30  1  0.38223800  0.90525800  0.66971400  1
  O  O31  1  0.61776200  0.90525800  0.33028600  1
loop_
_geom_bond_atom_site_label_1
_geom_bond_atom_site_label_2
_geom_bond_distance
_geom_bond_site_symmetry_2
Fe0 O31 1.977808 1_545
Fe0 O24 1.989518 1_555
Fe0 O10 2.087662 1_545
Fe0 O5 2.126030 1_555
Fe0 H2 2.326032 1_555
Fe1 O30 1.977808 1_545
Fe1 O25 1.989518 1_555
Fe1 O11 2.087662 1_545
Fe1 O4 2.126030 1_555
Fe1 H3 2.326032 1_555
Fe2 O29 1.977808 1_455
Fe2 O26 1.989518 1_555
Fe2 O8 2.087662 1_555
Fe2 O7 2.126030 1_455
Fe2 H4 2.326032 1_555
Fe3 O28 1.977808 1_655
Fe3 O27 1.989518 1_555
Fe3 O9 2.087662 1_555
Fe3 O6 2.126030 1_655
Fe3 H5 2.326032 1_555
Fe4 H2 1.663890 1_565
Fe4 O22 1.971141 1_555
Fe4 H0 2.010096 1_565
Fe4 O18 2.039393 1_455
Fe4 O10 2.122778 1_555
Fe4 O12 2.194751 1_565
Fe4 O26 2.580714 1_555
Fe5 H3 1.663890 1_565
Fe5 O23 1.971141 1_555
Fe5 H0 2.010096 1_665
Fe5 O19 2.039393 1_655
Fe5 O11 2.122778 1_555
Fe5 O13 2.194751 1_565
Fe5 O27 2.580714 1_555
Fe6 H4 1.663890 1_555
Fe6 O20 1.971141 1_555
Fe6 H1 2.010100 1_555
Fe6 O16 2.039393 1_555
Fe6 O8 2.122778 1_555
Fe6 O14 2.194751 1_555
Fe6 O24 2.580714 1_555
Fe7 H5 1.663890 1_555
Fe7 O21 1.971141 1_555
Fe7 H1 2.010100 1_555
Fe7 O17 2.039393 1_555
Fe7 O9 2.122778 1_555
Fe7 O15 2.194751 1_555
Fe7 O25 2.580714 1_555
Fe8 H9 1.798960 1_545
Fe8 O0 1.985994 1_555
Fe8 O4 2.035941 1_555
Fe8 O13 2.043329 1_455
Fe8 O19 2.108263 1_545
Fe9 H8 1.798960 1_545
Fe9 O1 1.985994 1_555
Fe9 O5 2.035941 1_555
Fe9 O12 2.043329 1_655
Fe9 O18 2.108263 1_545
Fe10 H7 1.798960 1_555
Fe10 O2 1.985994 1_555
Fe10 O6 2.035941 1_555
Fe10 O15 2.043329 1_555
Fe10 O17 2.108263 1_555
Fe11 H6 1.798960 1_555
Fe11 O3 1.985994 1_555
Fe11 O7 2.035941 1_555
Fe11 O14 2.043329 1_555
Fe11 O16 2.108263 1_555
H10 H8 1.000463 1_455
H10 H9 1.000463 1_554
H11 H6 1.000463 1_555
H11 H7 1.000463 1_554
O0 P4 1.531601 1_556
O1 P5 1.531601 1_554
O2 P6 1.531601 1_556
O3 P7 1.531601 1_554
O4 P0 1.570914 1_555
O5 P1 1.570914 1_555
O6 P2 1.570914 1_555
O7 P3 1.570914 1_555
O8 P4 1.579420 1_555
O9 P5 1.579420 1_555
O10 P6 1.579420 1_555
O11 P7 1.579420 1_555
O12 P4 1.566559 1_555
O13 P5 1.566559 1_555
O14 P6 1.566559 1_555
O15 P7 1.566559 1_555
O16 P1 1.576295 1_555
O17 P0 1.576295 1_555
O18 P3 1.576295 1_555
O19 P2 1.576295 1_555
O20 P0 1.540275 1_555
O21 P1 1.540275 1_555
O22 P2 1.540275 1_555
O23 P3 1.540275 1_555
O24 P4 1.540784 1_555
O25 P5 1.540784 1_555
O26 P6 1.540784 1_555
O27 P7 1.540784 1_555
O28 P0 1.524356 1_555
O29 P1 1.524356 1_555
O30 P2 1.524356 1_555
O31 P3 1.524356 1_555
