# generated using pymatgen
data_Zn3Ag(AsO4)3
_symmetry_space_group_name_H-M   'P 1'
_cell_length_a   8.76227015
_cell_length_b   8.76227015
_cell_length_c   6.90854863
_cell_angle_alpha   74.47447171
_cell_angle_beta   74.47447171
_cell_angle_gamma   94.47252616
_symmetry_Int_Tables_number   1
_chemical_formula_structural   Zn3Ag(AsO4)3
_chemical_formula_sum   'Zn6 Ag2 As6 O24'
_cell_volume   485.97985137
_cell_formula_units_Z   2
loop_
 _symmetry_equiv_pos_site_id
 _symmetry_equiv_pos_as_xyz
  1  'x, y, z'
loop_
 _atom_site_type_symbol
 _atom_site_label
 _atom_site_symmetry_multiplicity
 _atom_site_fract_x
 _atom_site_fract_y
 _atom_site_fract_z
 _atom_site_occupancy
  Zn  Zn0  1  0.71684700  0.28315300  0.75000000  1
  Zn  Zn1  1  0.28315300  0.71684700  0.25000000  1
  Zn  Zn2  1  0.04767500  0.37187500  0.87945400  1
  Zn  Zn3  1  0.62812500  0.95232500  0.62054600  1
  Zn  Zn4  1  0.95232500  0.62812500  0.12054600  1
  Zn  Zn5  1  0.37187500  0.04767500  0.37945400  1
  Ag  Ag0  1  0.00717300  0.99282700  0.75000000  1
  Ag  Ag1  1  0.99282700  0.00717300  0.25000000  1
  As  As0  1  0.30795100  0.69204900  0.75000000  1
  As  As1  1  0.69204900  0.30795100  0.25000000  1
  As  As2  1  0.88957100  0.65548500  0.61481900  1
  As  As3  1  0.34451500  0.11042900  0.88518100  1
  As  As4  1  0.11042900  0.34451500  0.38518100  1
  As  As5  1  0.65548500  0.88957100  0.11481900  1
  O  O0  1  0.13930700  0.13975000  0.91521000  1
  O  O1  1  0.86025000  0.86069300  0.58479000  1
  O  O2  1  0.86069300  0.86025000  0.08479000  1
  O  O3  1  0.13975000  0.13930700  0.41521000  1
  O  O4  1  0.72069900  0.52714400  0.66357400  1
  O  O5  1  0.47285600  0.27930100  0.83642600  1
  O  O6  1  0.27930100  0.47285600  0.33642600  1
  O  O7  1  0.52714400  0.72069900  0.16357400  1
  O  O8  1  0.26990600  0.49272200  0.76537300  1
  O  O9  1  0.50727800  0.73009400  0.73462700  1
  O  O10  1  0.73009400  0.50727800  0.23462700  1
  O  O11  1  0.49272200  0.26990600  0.26537300  1
  O  O12  1  0.97681400  0.32464000  0.63071700  1
  O  O13  1  0.67536000  0.02318600  0.86928300  1
  O  O14  1  0.02318600  0.67536000  0.36928300  1
  O  O15  1  0.32464000  0.97681400  0.13071700  1
  O  O16  1  0.97759700  0.60718800  0.81369300  1
  O  O17  1  0.39281200  0.02240300  0.68630700  1
  O  O18  1  0.02240300  0.39281200  0.18630700  1
  O  O19  1  0.60718800  0.97759700  0.31369300  1
  O  O20  1  0.19396900  0.73036700  0.97705100  1
  O  O21  1  0.26963300  0.80603100  0.52294900  1
  O  O22  1  0.80603100  0.26963300  0.02294900  1
  O  O23  1  0.73036700  0.19396900  0.47705100  1
loop_
_geom_bond_atom_site_label_1
_geom_bond_atom_site_label_2
_geom_bond_distance
_geom_bond_site_symmetry_2
Ag0 O3 2.255284 1_565
Ag0 O2 2.255284 1_456
Ag0 O1 2.358411 1_455
Ag0 O0 2.358411 1_565
Ag1 O1 2.255284 1_545
Ag1 O0 2.255284 1_654
Ag1 O2 2.358411 1_545
Ag1 O3 2.358411 1_655
As0 O8 1.721572 1_555
As0 O9 1.721572 1_555
As0 O20 1.751077 1_555
As0 O21 1.751077 1_555
As1 O11 1.721572 1_555
As1 O10 1.721572 1_555
As1 O23 1.751077 1_555
As1 O22 1.751077 1_555
As2 O4 1.684782 1_555
As2 O16 1.722975 1_555
As2 O14 1.739354 1_655
As2 O1 1.800848 1_555
As3 O5 1.684782 1_555
As3 O17 1.722975 1_555
As3 O15 1.739354 1_546
As3 O0 1.800848 1_555
As4 O6 1.684782 1_555
As4 O18 1.722975 1_555
As4 O12 1.739354 1_455
As4 O3 1.800848 1_555
As5 O7 1.684782 1_555
As5 O19 1.722975 1_555
As5 O13 1.739354 1_564
As5 O2 1.800848 1_555
O0 Zn2 2.221373 1_555
O1 Zn3 2.221373 1_555
O2 Zn4 2.221373 1_555
O3 Zn5 2.221373 1_555
O4 Zn0 2.054975 1_555
O5 Zn0 2.054975 1_555
O6 Zn1 2.054975 1_555
O7 Zn1 2.054975 1_555
O8 Zn2 1.986017 1_555
O9 Zn3 1.986017 1_555
O10 Zn4 1.986017 1_555
O11 Zn5 1.986017 1_555
O12 Zn2 2.102763 1_655
O12 Zn0 2.169252 1_555
O13 Zn3 2.102763 1_545
O13 Zn0 2.169252 1_555
O14 Zn4 2.102763 1_455
O14 Zn1 2.169252 1_555
O15 Zn5 2.102763 1_565
O15 Zn1 2.169252 1_555
O16 Zn4 2.130712 1_556
O16 Zn2 2.163357 1_655
O17 Zn5 2.130712 1_555
O17 Zn3 2.163357 1_545
O18 Zn2 2.130712 1_554
O18 Zn4 2.163357 1_455
O19 Zn3 2.130712 1_555
O19 Zn5 2.163357 1_565
O20 Zn4 2.091305 1_456
O20 Zn1 2.205495 1_556
O21 Zn5 2.091305 1_565
O21 Zn1 2.205495 1_555
O22 Zn2 2.091305 1_654
O22 Zn0 2.205495 1_554
O23 Zn3 2.091305 1_545
O23 Zn0 2.205495 1_555
