# generated using pymatgen
data_V3Zn2O8
_symmetry_space_group_name_H-M   'P 1'
_cell_length_a   5.91271100
_cell_length_b   5.91280860
_cell_length_c   9.54149700
_cell_angle_alpha   90.00011513
_cell_angle_beta   90.00008080
_cell_angle_gamma   119.99913669
_symmetry_Int_Tables_number   1
_chemical_formula_structural   V3Zn2O8
_chemical_formula_sum   'V6 Zn4 O16'
_cell_volume   288.88926292
_cell_formula_units_Z   2
loop_
 _symmetry_equiv_pos_site_id
 _symmetry_equiv_pos_as_xyz
  1  'x, y, z'
loop_
 _atom_site_type_symbol
 _atom_site_label
 _atom_site_symmetry_multiplicity
 _atom_site_fract_x
 _atom_site_fract_y
 _atom_site_fract_z
 _atom_site_occupancy
  V  V0  1  0.83821400  0.16251500  0.74343700  1
  V  V1  1  0.83748500  0.67569100  0.74341400  1
  V  V2  1  0.32428400  0.16178200  0.74342400  1
  V  V3  1  0.67549700  0.83708700  0.24342500  1
  V  V4  1  0.16157700  0.32451400  0.24341800  1
  V  V5  1  0.16293000  0.83842700  0.24342500  1
  Zn  Zn0  1  0.66668500  0.33335400  0.02647700  1
  Zn  Zn1  1  0.33331200  0.66663800  0.52646100  1
  Zn  Zn2  1  0.66667100  0.33334100  0.42324500  1
  Zn  Zn3  1  0.33332000  0.66664600  0.92329700  1
  O  O0  1  0.00000800  0.00001300  0.35385200  1
  O  O1  1  0.99999200  0.99998700  0.85380200  1
  O  O2  1  0.33333000  0.66667000  0.13320300  1
  O  O3  1  0.66667400  0.33333100  0.63316900  1
  O  O4  1  0.84061700  0.16696300  0.14639900  1
  O  O5  1  0.67365300  0.83439700  0.64647000  1
  O  O6  1  0.16074500  0.32632500  0.64648000  1
  O  O7  1  0.83305500  0.67367100  0.14639800  1
  O  O8  1  0.32634400  0.15940300  0.14639300  1
  O  O9  1  0.16560000  0.83925800  0.64647900  1
  O  O10  1  0.51526400  0.48089300  0.86240900  1
  O  O11  1  0.03439400  0.52016400  0.36237200  1
  O  O12  1  0.48576400  0.96561800  0.36237800  1
  O  O13  1  0.51910900  0.03434900  0.86240800  1
  O  O14  1  0.96562900  0.48472100  0.86239900  1
  O  O15  1  0.47985000  0.51424800  0.36237700  1
loop_
_geom_bond_atom_site_label_1
_geom_bond_atom_site_label_2
_geom_bond_distance
_geom_bond_site_symmetry_2
O0 V5 1.967565 1_545
O0 V3 1.967583 1_445
O0 V4 1.967603 1_555
O1 V0 1.966372 1_565
O1 V2 1.966387 1_665
O1 V1 1.966473 1_555
O2 Zn3 2.002817 1_554
O2 V4 2.043450 1_555
O2 V5 2.043453 1_555
O2 V3 2.043502 1_555
O3 Zn2 2.002989 1_555
O3 V1 2.044484 1_555
O3 V0 2.044551 1_555
O3 V2 2.044646 1_555
O4 V4 1.886357 1_655
O4 V3 1.926249 1_545
O4 Zn0 2.084851 1_555
O5 V1 1.893029 1_555
O5 V0 1.918085 1_565
O5 Zn1 2.085317 1_555
O6 V0 1.893067 1_455
O6 V2 1.917789 1_555
O6 Zn1 2.085280 1_555
O7 V3 1.886453 1_555
O7 V5 1.926220 1_655
O7 Zn0 2.084849 1_555
O8 V5 1.886518 1_545
O8 V4 1.926219 1_555
O8 Zn0 2.084907 1_555
O9 V2 1.893000 1_565
O9 V1 1.917905 1_455
O9 Zn1 2.085323 1_555
O10 Zn3 1.970447 1_555
O10 V2 1.998396 1_555
O10 V1 2.012760 1_555
O10 Zn0 2.189583 1_556
O11 Zn2 1.970588 1_455
O11 V5 1.994194 1_555
O11 V4 2.015420 1_555
O11 Zn1 2.189619 1_555
O12 Zn2 1.970597 1_565
O12 V3 1.994201 1_555
O12 V5 2.015412 1_555
O12 Zn1 2.189823 1_555
O13 Zn3 1.970520 1_545
O13 V0 1.998253 1_555
O13 V2 2.012844 1_555
O13 Zn0 2.189770 1_556
O14 Zn3 1.970453 1_655
O14 V1 1.998380 1_555
O14 V0 2.012531 1_555
O14 Zn0 2.189601 1_556
O15 Zn2 1.970587 1_555
O15 V4 1.994279 1_555
O15 V3 2.015461 1_555
O15 Zn1 2.189616 1_555
