# generated using pymatgen
data_Si4P4Os
_symmetry_space_group_name_H-M   'P 1'
_cell_length_a   4.95955407
_cell_length_b   5.63226809
_cell_length_c   6.18560159
_cell_angle_alpha   85.64263871
_cell_angle_beta   68.34546635
_cell_angle_gamma   70.85984348
_symmetry_Int_Tables_number   1
_chemical_formula_structural   Si4P4Os
_chemical_formula_sum   'Si4 P4 Os1'
_cell_volume   151.51440211
_cell_formula_units_Z   1
loop_
 _symmetry_equiv_pos_site_id
 _symmetry_equiv_pos_as_xyz
  1  'x, y, z'
loop_
 _atom_site_type_symbol
 _atom_site_label
 _atom_site_symmetry_multiplicity
 _atom_site_fract_x
 _atom_site_fract_y
 _atom_site_fract_z
 _atom_site_occupancy
  Si  Si0  1  0.99552876  -0.00045325  0.99140973  1
  Si  Si1  1  0.38899495  0.37057307  0.73587945  1
  Si  Si2  1  0.51499584  0.62005703  0.18354031  1
  Si  Si3  1  0.82163172  0.80182236  0.53152246  1
  P  P0  1  0.31273096  0.04177759  0.62254651  1
  P  P1  1  0.49394561  0.25349169  0.06110128  1
  P  P2  1  0.77267754  0.43714006  0.42679522  1
  P  P3  1  0.92045997  0.66723963  0.86690009  1
  Os  Os0  1  0.15193565  0.02495282  0.30260295  1
loop_
_geom_bond_atom_site_label_1
_geom_bond_atom_site_label_2
_geom_bond_distance
_geom_bond_site_symmetry_2
P0 Si1 2.217248 1_555
P0 Si0 2.291550 1_455
P0 Si3 2.311653 1_545
P1 Si1 2.258054 1_554
P1 Si2 2.298769 1_555
P1 Si0 2.321400 1_554
P2 Si1 2.256274 1_555
P2 Si2 2.297591 1_555
P2 Si3 2.311438 1_555
P3 Si1 2.262345 1_655
P3 Si0 2.263278 1_565
P3 Si2 2.305462 1_556
P3 Si3 2.320831 1_555
Os0 Si0 2.354600 1_454
Os0 Si2 2.359872 1_545
Os0 Si3 2.373962 1_445
Os0 P0 2.409227 1_555
Os0 P2 2.420491 1_455
Os0 P1 2.456641 1_555
