# generated using pymatgen
data_MgMn8O13F3
_symmetry_space_group_name_H-M   'P 1'
_cell_length_a   7.11363339
_cell_length_b   5.72867025
_cell_length_c   6.63644909
_cell_angle_alpha   88.78763161
_cell_angle_beta   93.15190251
_cell_angle_gamma   84.95133581
_symmetry_Int_Tables_number   1
_chemical_formula_structural   MgMn8O13F3
_chemical_formula_sum   'Mg1 Mn8 O13 F3'
_cell_volume   268.89764581
_cell_formula_units_Z   1
loop_
 _symmetry_equiv_pos_site_id
 _symmetry_equiv_pos_as_xyz
  1  'x, y, z'
loop_
 _atom_site_type_symbol
 _atom_site_label
 _atom_site_symmetry_multiplicity
 _atom_site_fract_x
 _atom_site_fract_y
 _atom_site_fract_z
 _atom_site_occupancy
  Mg  Mg0  1  0.11117800  0.40143000  0.87764900  1
  Mn  Mn0  1  0.40792800  0.36160500  0.13930700  1
  Mn  Mn1  1  0.13461000  0.70987600  0.38619700  1
  Mn  Mn2  1  0.85996900  0.14177700  0.12417700  1
  Mn  Mn3  1  0.38150700  0.12193700  0.63628500  1
  Mn  Mn4  1  0.13922800  0.87647000  0.87533300  1
  Mn  Mn5  1  0.62506500  0.84540800  0.36734400  1
  Mn  Mn6  1  0.61917100  0.64109800  0.86543400  1
  Mn  Mn7  1  0.83501100  0.31676900  0.60164200  1
  O  O0  1  0.12733000  0.11559700  0.07318300  1
  O  O1  1  0.18658000  0.62289100  0.09700100  1
  O  O2  1  0.59075400  0.61919600  0.15334700  1
  O  O3  1  0.09806200  0.65895900  0.66566100  1
  O  O4  1  0.35828000  0.89617300  0.42315300  1
  O  O5  1  0.09998200  0.13385500  0.67815300  1
  O  O6  1  0.59758400  0.10804300  0.16976800  1
  O  O7  1  0.39983300  0.88706200  0.83791100  1
  O  O8  1  0.63660800  0.07643500  0.58223200  1
  O  O9  1  0.88945100  0.89170500  0.33164400  1
  O  O10  1  0.40386500  0.36010500  0.84705200  1
  O  O11  1  0.66080500  0.59390600  0.57885600  1
  O  O12  1  0.82439800  0.37731600  0.89128600  1
  F  F0  1  0.33298500  0.37881000  0.42545500  1
  F  F1  1  0.93358600  0.39184800  0.34522400  1
  F  F2  1  0.86623400  0.86458500  0.90670500  1
loop_
_geom_bond_atom_site_label_1
_geom_bond_atom_site_label_2
_geom_bond_distance
_geom_bond_site_symmetry_2
Mg0 O3 2.009463 1_555
Mg0 O1 2.031851 1_556
Mg0 O5 2.050504 1_555
Mg0 O0 2.058858 1_556
Mg0 O12 2.063599 1_455
Mg0 O10 2.096200 1_555
Mn0 O6 1.893062 1_555
Mn0 O10 1.938373 1_554
Mn0 O2 2.051331 1_555
Mn0 O1 2.077839 1_555
Mn0 O0 2.566700 1_555
Mn1 O3 1.906797 1_555
Mn1 O9 1.962754 1_455
Mn1 O4 1.999448 1_555
Mn1 O1 2.038264 1_555
Mn2 O6 1.932839 1_555
Mn2 O0 1.943450 1_655
Mn2 O9 1.955472 1_545
Mn2 O12 2.020431 1_554
Mn3 O8 1.866020 1_555
Mn3 O7 1.868593 1_545
Mn3 O4 1.946781 1_545
Mn3 O10 1.984394 1_555
Mn3 O5 2.032354 1_555
Mn4 O7 1.889948 1_555
Mn4 O3 1.915042 1_555
Mn4 O0 1.917208 1_566
Mn4 O5 1.941677 1_565
Mn4 O1 2.038816 1_556
Mn5 O9 1.948797 1_555
Mn5 O4 1.951448 1_555
Mn5 O2 1.962462 1_555
Mn5 O6 1.964104 1_565
Mn5 O8 1.969313 1_565
Mn5 O11 1.980280 1_555
Mn6 O2 1.935007 1_556
Mn6 O11 1.961500 1_555
Mn6 O12 2.004360 1_555
Mn6 O7 2.006016 1_555
Mn6 O10 2.318099 1_555
Mn7 O11 1.924082 1_555
Mn7 O12 1.964803 1_555
Mn7 O8 2.057578 1_555
Mn7 O5 2.105541 1_655
F0 Mn0 2.002537 1_555
F0 Mn3 2.003147 1_555
F0 Mn1 2.263592 1_555
F1 Mn7 1.930243 1_555
F1 Mn2 2.148255 1_555
F1 Mn1 2.423810 1_655
F2 Mn4 1.971395 1_655
F2 Mn2 2.167508 1_566
F2 Mn6 2.271770 1_555
