# generated using pymatgen
data_Na16Ti7(SiO5)8
_symmetry_space_group_name_H-M   'P 1'
_cell_length_a   10.60045866
_cell_length_b   10.60045866
_cell_length_c   10.97778315
_cell_angle_alpha   78.06576199
_cell_angle_beta   78.06576199
_cell_angle_gamma   124.21963915
_symmetry_Int_Tables_number   1
_chemical_formula_structural   Na16Ti7(SiO5)8
_chemical_formula_sum   'Na16 Ti7 Si8 O40'
_cell_volume   914.94413070
_cell_formula_units_Z   1
loop_
 _symmetry_equiv_pos_site_id
 _symmetry_equiv_pos_as_xyz
  1  'x, y, z'
loop_
 _atom_site_type_symbol
 _atom_site_label
 _atom_site_symmetry_multiplicity
 _atom_site_fract_x
 _atom_site_fract_y
 _atom_site_fract_z
 _atom_site_occupancy
  Na  Na0  1  0.75435300  0.00277100  0.25048900  1
  Na  Na1  1  0.27133900  0.50926100  0.24764000  1
  Na  Na2  1  0.99722900  0.24564700  0.74951100  1
  Na  Na3  1  0.49073900  0.72866100  0.75236000  1
  Na  Na4  1  0.72866100  0.49073900  0.75236000  1
  Na  Na5  1  0.24564700  0.99722900  0.74951100  1
  Na  Na6  1  0.50926100  0.27133900  0.24764000  1
  Na  Na7  1  0.00277100  0.75435300  0.25048900  1
  Na  Na8  1  0.16839700  0.16839700  0.24802500  1
  Na  Na9  1  0.67523100  0.67523100  0.24110200  1
  Na  Na10  1  0.83160300  0.83160300  0.75197500  1
  Na  Na11  1  0.32476900  0.32476900  0.75889800  1
  Na  Na12  1  0.00000000  0.50000000  0.50000000  1
  Na  Na13  1  0.50000000  0.00000000  0.50000000  1
  Na  Na14  1  0.73805700  0.26194300  0.00000000  1
  Na  Na15  1  0.26194300  0.73805700  0.00000000  1
  Ti  Ti0  1  0.85445000  0.35861000  0.25451400  1
  Ti  Ti1  1  0.35861000  0.85445000  0.25451400  1
  Ti  Ti2  1  0.64139000  0.14555000  0.74548600  1
  Ti  Ti3  1  0.14555000  0.64139000  0.74548600  1
  Ti  Ti4  1  0.72189100  0.72189100  0.52448400  1
  Ti  Ti5  1  0.27810900  0.27810900  0.47551600  1
  Ti  Ti6  1  0.00000000  0.00000000  0.00000000  1
  Si  Si0  1  0.87590000  0.12410000  0.50000000  1
  Si  Si1  1  0.37672100  0.62327900  0.50000000  1
  Si  Si2  1  0.63293300  0.89399100  0.99212500  1
  Si  Si3  1  0.10600900  0.36706700  0.00787500  1
  Si  Si4  1  0.62327900  0.37672100  0.50000000  1
  Si  Si5  1  0.12410000  0.87590000  0.50000000  1
  Si  Si6  1  0.36706700  0.10600900  0.00787500  1
  Si  Si7  1  0.89399100  0.63293300  0.99212500  1
  O  O0  1  0.20848300  0.38753600  0.10383100  1
  O  O1  1  0.76243900  0.91281700  0.06123500  1
  O  O2  1  0.61246400  0.79151700  0.89616900  1
  O  O3  1  0.08718300  0.23756100  0.93876500  1
  O  O4  1  0.07781300  0.22569500  0.44360500  1
  O  O5  1  0.58004900  0.72842600  0.42983900  1
  O  O6  1  0.77430500  0.92218700  0.55639500  1
  O  O7  1  0.27157400  0.41995100  0.57016100  1
  O  O8  1  0.23756100  0.08718300  0.93876500  1
  O  O9  1  0.79151700  0.61246400  0.89616900  1
  O  O10  1  0.91281700  0.76243900  0.06123500  1
  O  O11  1  0.38753600  0.20848300  0.10383100  1
  O  O12  1  0.41995100  0.27157400  0.57016100  1
  O  O13  1  0.92218700  0.77430500  0.55639500  1
  O  O14  1  0.72842600  0.58004900  0.42983900  1
  O  O15  1  0.22569500  0.07781300  0.44360500  1
  O  O16  1  0.02906700  0.53039700  0.25547400  1
  O  O17  1  0.53039700  0.02906700  0.25547400  1
  O  O18  1  0.46960300  0.97093300  0.74452600  1
  O  O19  1  0.97093300  0.46960300  0.74452600  1
  O  O20  1  0.70526900  0.07932900  0.89141900  1
  O  O21  1  0.19980600  0.54884400  0.88656300  1
  O  O22  1  0.92067100  0.29473100  0.10858100  1
  O  O23  1  0.45115600  0.80019400  0.11343700  1
  O  O24  1  0.83158800  0.18388100  0.61826300  1
  O  O25  1  0.34029900  0.69231700  0.61347900  1
  O  O26  1  0.81611900  0.16841200  0.38173700  1
  O  O27  1  0.30768300  0.65970100  0.38652100  1
  O  O28  1  0.80019400  0.45115600  0.11343700  1
  O  O29  1  0.29473100  0.92067100  0.10858100  1
  O  O30  1  0.54884400  0.19980600  0.88656300  1
  O  O31  1  0.07932900  0.70526900  0.89141900  1
  O  O32  1  0.65970100  0.30768300  0.38652100  1
  O  O33  1  0.16841200  0.81611900  0.38173700  1
  O  O34  1  0.69231700  0.34029900  0.61347900  1
  O  O35  1  0.18388100  0.83158800  0.61826300  1
  O  O36  1  0.42180600  0.42180600  0.31487700  1
  O  O37  1  0.96820800  0.96820800  0.18590800  1
  O  O38  1  0.57819400  0.57819400  0.68512300  1
  O  O39  1  0.03179200  0.03179200  0.81409200  1
loop_
_geom_bond_atom_site_label_1
_geom_bond_atom_site_label_2
_geom_bond_distance
_geom_bond_site_symmetry_2
Na0 O26 2.393976 1_555
Na0 O5 2.414878 1_545
Na0 O22 2.417987 1_555
Na0 O1 2.463860 1_545
Na0 O37 2.480500 1_545
Na0 O17 2.532514 1_555
Na1 O0 2.216252 1_555
Na1 O27 2.360819 1_555
Na1 O23 2.379638 1_555
Na1 O36 2.411509 1_555
Na1 O4 2.537061 1_555
Na1 O16 2.686451 1_555
Na2 O24 2.393976 1_555
Na2 O7 2.414878 1_655
Na2 O20 2.417987 1_555
Na2 O3 2.463860 1_655
Na2 O39 2.480500 1_655
Na2 O19 2.532514 1_555
Na3 O2 2.216252 1_555
Na3 O25 2.360819 1_555
Na3 O21 2.379638 1_555
Na3 O38 2.411509 1_555
Na3 O6 2.537061 1_555
Na3 O18 2.686451 1_555
Na4 O9 2.216252 1_555
Na4 O34 2.360819 1_555
Na4 O30 2.379638 1_555
Na4 O38 2.411509 1_555
Na4 O13 2.537061 1_555
Na4 O19 2.686451 1_555
Na5 O35 2.393976 1_555
Na5 O12 2.414878 1_565
Na5 O31 2.417987 1_555
Na5 O8 2.463860 1_565
Na5 O39 2.480500 1_565
Na5 O18 2.532514 1_555
Na6 O11 2.216252 1_555
Na6 O32 2.360819 1_555
Na6 O28 2.379638 1_555
Na6 O36 2.411509 1_555
Na6 O15 2.537061 1_555
Na6 O17 2.686451 1_555
Na7 O33 2.393976 1_555
Na7 O14 2.414878 1_455
Na7 O29 2.417987 1_555
Na7 O10 2.463860 1_455
Na7 O37 2.480500 1_455
Na7 O16 2.532514 1_555
Na8 O0 2.274480 1_555
Na8 O11 2.274480 1_555
Na8 O37 2.367177 1_445
Na8 O15 2.498676 1_555
Na8 O4 2.498676 1_555
Na9 O36 2.274412 1_555
Na9 O10 2.380357 1_555
Na9 O1 2.380357 1_555
Na9 O5 2.426387 1_555
Na9 O14 2.426387 1_555
Na9 O37 2.693108 1_555
Na10 O2 2.274480 1_555
Na10 O9 2.274480 1_555
Na10 O39 2.367177 1_665
Na10 O13 2.498676 1_555
Na10 O6 2.498676 1_555
Na11 O38 2.274412 1_555
Na11 O8 2.380357 1_555
Na11 O3 2.380357 1_555
Na11 O12 2.426387 1_555
Na11 O7 2.426387 1_555
Na11 O39 2.693108 1_555
Na12 O27 2.508553 1_555
Na12 O34 2.508553 1_455
Na12 O16 2.567693 1_555
Na12 O19 2.567693 1_455
Na12 O24 2.572050 1_455
Na12 O33 2.572050 1_555
Na13 O32 2.508553 1_555
Na13 O25 2.508553 1_545
Na13 O17 2.567693 1_555
Na13 O18 2.567693 1_545
Na13 O26 2.572050 1_555
Na13 O35 2.572050 1_545
Na14 O20 2.378614 1_554
Na14 O22 2.378614 1_555
Na14 O30 2.427739 1_554
Na14 O28 2.427739 1_555
Na14 O17 2.697515 1_555
Na14 O19 2.697515 1_554
Na15 O29 2.378614 1_555
Na15 O31 2.378614 1_554
Na15 O21 2.427739 1_554
Na15 O23 2.427739 1_555
Na15 O16 2.697515 1_555
Na15 O18 2.697515 1_554
O0 Si3 1.624609 1_555
O1 Si2 1.638684 1_554
O1 Ti6 2.018151 1_665
O2 Si2 1.624609 1_555
O3 Si3 1.638684 1_556
O3 Ti6 2.018151 1_556
O4 Si0 1.645575 1_455
O4 Ti5 2.000200 1_555
O5 Si1 1.654545 1_555
O5 Ti4 2.019547 1_555
O6 Si0 1.645575 1_565
O6 Ti4 2.000200 1_555
O7 Si1 1.654545 1_555
O7 Ti5 2.019547 1_555
O8 Si6 1.638684 1_556
O8 Ti6 2.018151 1_556
O9 Si7 1.624609 1_555
O10 Si7 1.638684 1_554
O10 Ti6 2.018151 1_665
O11 Si6 1.624609 1_555
O12 Si4 1.654545 1_555
O12 Ti5 2.019547 1_555
O13 Si5 1.645575 1_655
O13 Ti4 2.000200 1_555
O14 Si4 1.654545 1_555
O14 Ti4 2.019547 1_555
O15 Si5 1.645575 1_545
O15 Ti5 2.000200 1_555
O16 Ti0 1.722590 1_455
O17 Ti1 1.722590 1_545
O18 Ti2 1.722590 1_565
O19 Ti3 1.722590 1_655
O20 Si2 1.651301 1_545
O20 Ti2 2.008966 1_555
O21 Si3 1.646610 1_556
O21 Ti3 2.016517 1_555
O22 Si3 1.651301 1_655
O22 Ti0 2.008966 1_555
O23 Si2 1.646610 1_554
O23 Ti1 2.016517 1_555
O24 Si0 1.652442 1_555
O24 Ti2 1.964684 1_555
O25 Si1 1.653017 1_555
O25 Ti3 1.959336 1_555
O26 Si0 1.652442 1_555
O26 Ti0 1.964684 1_555
O27 Si1 1.653017 1_555
O27 Ti1 1.959336 1_555
O28 Si7 1.646610 1_554
O28 Ti0 2.016517 1_555
O29 Si6 1.651301 1_565
O29 Ti1 2.008966 1_555
O30 Si6 1.646610 1_556
O30 Ti2 2.016517 1_555
O31 Si7 1.651301 1_455
O31 Ti3 2.008966 1_555
O32 Si4 1.653017 1_555
O32 Ti0 1.959336 1_555
O33 Si5 1.652442 1_555
O33 Ti1 1.964684 1_555
O34 Si4 1.653017 1_555
O34 Ti2 1.959336 1_555
O35 Si5 1.652442 1_555
O35 Ti3 1.964684 1_555
O36 Ti5 1.708441 1_555
O37 Ti6 1.922395 1_665
O38 Ti4 1.708441 1_555
O39 Ti6 1.922395 1_556
