# generated using pymatgen
data_Na4CuP6H22(N3O11)2
_symmetry_space_group_name_H-M   'P 1'
_cell_length_a   9.21765294
_cell_length_b   9.40835522
_cell_length_c   9.76366518
_cell_angle_alpha   94.33854028
_cell_angle_beta   108.26172686
_cell_angle_gamma   119.39370824
_symmetry_Int_Tables_number   1
_chemical_formula_structural   Na4CuP6H22(N3O11)2
_chemical_formula_sum   'Na4 Cu1 P6 H22 N6 O22'
_cell_volume   673.09839499
_cell_formula_units_Z   1
loop_
 _symmetry_equiv_pos_site_id
 _symmetry_equiv_pos_as_xyz
  1  'x, y, z'
loop_
 _atom_site_type_symbol
 _atom_site_label
 _atom_site_symmetry_multiplicity
 _atom_site_fract_x
 _atom_site_fract_y
 _atom_site_fract_z
 _atom_site_occupancy
  Na  Na0  1  0.94857200  0.89309500  0.11276100  1
  Na  Na1  1  0.05142800  0.10690500  0.88723900  1
  Na  Na2  1  0.45908600  0.79623500  0.40099300  1
  Na  Na3  1  0.54091400  0.20376500  0.59900700  1
  Cu  Cu0  1  0.50000000  0.50000000  0.50000000  1
  P  P0  1  0.66059700  0.58553800  0.26229400  1
  P  P1  1  0.33940300  0.41446200  0.73770600  1
  P  P2  1  0.78699500  0.34705200  0.24078000  1
  P  P3  1  0.21300500  0.65294800  0.75922000  1
  P  P4  1  0.58553200  0.77041800  0.78638500  1
  P  P5  1  0.41446800  0.22958200  0.21361500  1
  H  H0  1  0.90035900  0.58011800  0.43210400  1
  H  H1  1  0.09964100  0.41988200  0.56789600  1
  H  H2  1  0.54025700  0.06782800  0.18295400  1
  H  H3  1  0.45974300  0.93217200  0.81704600  1
  H  H4  1  0.41457700  0.38267100  0.03743500  1
  H  H5  1  0.58542300  0.61732900  0.96256500  1
  H  H6  1  0.86793000  0.56942300  0.66722000  1
  H  H7  1  0.13207000  0.43057600  0.33278000  1
  H  H8  1  0.79105100  0.55846700  0.79064000  1
  H  H9  1  0.20894900  0.44153300  0.20936000  1
  H  H10  1  0.58111900  0.82025900  0.17398200  1
  H  H11  1  0.41888100  0.17974100  0.82601800  1
  H  H12  1  0.38577300  0.77541600  0.07549100  1
  H  H13  1  0.61422700  0.22458400  0.92450900  1
  H  H14  1  0.22608800  0.82660200  0.53687900  1
  H  H15  1  0.77391200  0.17339800  0.46312100  1
  H  H16  1  0.19395200  0.91786800  0.41669200  1
  H  H17  1  0.80604800  0.08213200  0.58330800  1
  H  H18  1  0.05876600  0.67718900  0.99596600  1
  H  H19  1  0.94123400  0.32281100  0.00403400  1
  H  H20  1  0.91493600  0.56532500  0.05946000  1
  H  H21  1  0.08506400  0.43467500  0.94054000  1
  N  N0  1  0.80930800  0.52628500  0.32121900  1
  N  N1  1  0.19069200  0.47371500  0.67878100  1
  N  N2  1  0.57237600  0.19157400  0.20758600  1
  N  N3  1  0.42762400  0.80842600  0.79241400  1
  N  N4  1  0.46742500  0.40398700  0.15261400  1
  N  N5  1  0.53257500  0.59601300  0.84738600  1
  O  O0  1  0.64337000  0.65148500  0.40059500  1
  O  O1  1  0.35663000  0.34851500  0.59940500  1
  O  O2  1  0.70846000  0.71152600  0.17014600  1
  O  O3  1  0.29154000  0.28847400  0.82985400  1
  O  O4  1  0.92050800  0.32149400  0.35686100  1
  O  O5  1  0.07949200  0.67850600  0.64313900  1
  O  O6  1  0.80476900  0.35767000  0.09098200  1
  O  O7  1  0.19523100  0.64233000  0.90901800  1
  O  O8  1  0.77377900  0.91569800  0.89066500  1
  O  O9  1  0.22622100  0.08430200  0.10933500  1
  O  O10  1  0.55136600  0.71624000  0.62164000  1
  O  O11  1  0.44863400  0.28376000  0.37836000  1
  O  O12  1  0.75598000  0.50447100  0.68571400  1
  O  O13  1  0.24402000  0.49552900  0.31428600  1
  O  O14  1  0.49111800  0.84871300  0.17347100  1
  O  O15  1  0.50888200  0.15128700  0.82652900  1
  O  O16  1  0.28369600  0.89605000  0.47603000  1
  O  O17  1  0.71630400  0.10395000  0.52397000  1
  O  O18  1  0.96347900  0.67010100  0.02635300  1
  O  O19  1  0.03652100  0.32989900  0.97364700  1
  O  O20  1  0.02222300  0.01501400  0.44702200  1
  O  O21  1  0.97777700  0.98498600  0.55297800  1
loop_
_geom_bond_atom_site_label_1
_geom_bond_atom_site_label_2
_geom_bond_distance
_geom_bond_site_symmetry_2
Na0 O18 2.284756 1_555
Na0 O9 2.308809 1_665
Na0 O2 2.311123 1_555
Na0 O8 2.357938 1_554
Na1 O19 2.284756 1_555
Na1 O8 2.308809 1_445
Na1 O3 2.311123 1_555
Na1 O9 2.357938 1_556
Na2 O10 2.378311 1_555
Na2 O14 2.387403 1_555
Na2 O13 2.393977 1_555
Na2 O16 2.482105 1_555
Na2 O17 2.529158 1_565
Na2 O0 2.648451 1_555
Na3 O11 2.378311 1_555
Na3 O15 2.387403 1_555
Na3 O12 2.393977 1_555
Na3 O17 2.482105 1_555
Na3 O16 2.529158 1_545
Na3 O1 2.648451 1_555
Cu0 O0 1.970779 1_555
Cu0 O1 1.970779 1_555
Cu0 O11 2.027360 1_555
Cu0 O10 2.027360 1_555
Cu0 O12 2.463071 1_555
Cu0 O13 2.463071 1_555
H0 N0 1.031185 1_555
H1 N1 1.031185 1_555
H2 N2 1.037122 1_555
H3 N3 1.037122 1_555
H4 N4 1.033842 1_555
H5 N5 1.033842 1_555
H6 O12 0.992653 1_555
H7 O13 0.992654 1_555
H8 O12 0.982141 1_555
H9 O13 0.982141 1_555
H10 O14 0.987693 1_555
H11 O15 0.987693 1_555
H12 O14 0.997155 1_555
H13 O15 0.997155 1_555
H14 O16 0.988801 1_555
H15 O17 0.988801 1_555
H16 O16 0.972839 1_555
H17 O17 0.972839 1_555
H18 O18 0.986273 1_456
H19 O19 0.986273 1_654
H20 O18 0.991123 1_555
H21 O19 0.991123 1_555
N0 P0 1.680823 1_555
N0 P2 1.691339 1_555
N1 P1 1.680823 1_555
N1 P3 1.691339 1_555
N2 P5 1.676715 1_555
N2 P2 1.686487 1_555
N3 P4 1.676715 1_555
N3 P3 1.686487 1_555
N4 P0 1.666614 1_555
N4 P5 1.682044 1_555
N5 P1 1.666614 1_555
N5 P4 1.682044 1_555
O0 P0 1.529015 1_555
O1 P1 1.529015 1_555
O2 P0 1.518525 1_555
O3 P1 1.518525 1_555
O4 P2 1.521345 1_555
O5 P3 1.521345 1_555
O6 P2 1.527144 1_555
O7 P3 1.527144 1_555
O8 P4 1.506616 1_555
O9 P5 1.506616 1_555
O10 P4 1.532064 1_555
O11 P5 1.532064 1_555
O20 O21 1.230493 1_445
