# generated using pymatgen
data_Li9Mn7O16
_symmetry_space_group_name_H-M   'P 1'
_cell_length_a   6.05701100
_cell_length_b   6.51329652
_cell_length_c   8.19371418
_cell_angle_alpha   89.23503419
_cell_angle_beta   89.12536726
_cell_angle_gamma   66.53295439
_symmetry_Int_Tables_number   1
_chemical_formula_structural   Li9Mn7O16
_chemical_formula_sum   'Li9 Mn7 O16'
_cell_volume   296.47090638
_cell_formula_units_Z   1
loop_
 _symmetry_equiv_pos_site_id
 _symmetry_equiv_pos_as_xyz
  1  'x, y, z'
loop_
 _atom_site_type_symbol
 _atom_site_label
 _atom_site_symmetry_multiplicity
 _atom_site_fract_x
 _atom_site_fract_y
 _atom_site_fract_z
 _atom_site_occupancy
  Li  Li0  1  0.75650700  0.49630700  0.99848200  1
  Li  Li1  1  0.12981600  0.25016200  0.24596100  1
  Li  Li2  1  0.37655200  0.75796200  0.75621900  1
  Li  Li3  1  0.00000000  0.00000000  0.50000000  1
  Li  Li4  1  0.62344800  0.24203800  0.24378100  1
  Li  Li5  1  0.24349300  0.50369300  0.00151800  1
  Li  Li6  1  0.87018400  0.74983800  0.75403900  1
  Li  Li7  1  0.50000000  0.00000000  0.50000000  1
  Li  Li8  1  0.50000000  0.00000000  0.00000000  1
  Mn  Mn0  1  0.00000000  0.00000000  0.00000000  1
  Mn  Mn1  1  0.37207700  0.75551500  0.24684700  1
  Mn  Mn2  1  0.75045700  0.49995200  0.49953400  1
  Mn  Mn3  1  0.13733900  0.24230600  0.75246400  1
  Mn  Mn4  1  0.86266100  0.75769400  0.24753600  1
  Mn  Mn5  1  0.24954300  0.50004800  0.50046600  1
  Mn  Mn6  1  0.62792300  0.24448500  0.75315300  1
  O  O0  1  0.11625300  0.23932500  0.98812900  1
  O  O1  1  0.50707300  0.97790600  0.25065900  1
  O  O2  1  0.75455800  0.48421400  0.74086200  1
  O  O3  1  0.36261700  0.74041400  0.48929700  1
  O  O4  1  0.98394000  0.99840000  0.23651100  1
  O  O5  1  0.66510700  0.22528500  0.98887000  1
  O  O6  1  0.24006500  0.49169500  0.74228800  1
  O  O7  1  0.86483600  0.74257100  0.48688800  1
  O  O8  1  0.33489300  0.77471500  0.01113000  1
  O  O9  1  0.75993500  0.50830500  0.25771200  1
  O  O10  1  0.01606000  0.00160000  0.76348900  1
  O  O11  1  0.63738300  0.25958600  0.51070300  1
  O  O12  1  0.24544200  0.51578600  0.25913800  1
  O  O13  1  0.88374700  0.76067500  0.01187100  1
  O  O14  1  0.49292700  0.02209400  0.74934100  1
  O  O15  1  0.13516400  0.25742900  0.51311200  1
loop_
_geom_bond_atom_site_label_1
_geom_bond_atom_site_label_2
_geom_bond_distance
_geom_bond_site_symmetry_2
Li0 O5 2.052354 1_555
Li0 O2 2.113772 1_555
Li0 O9 2.127258 1_556
Li0 O13 2.153027 1_556
Li0 O0 2.156421 1_655
Li0 O8 2.475733 1_556
Li1 O12 2.113685 1_555
Li1 O0 2.118659 1_554
Li1 O4 2.152922 1_445
Li1 O15 2.191115 1_555
Li1 O9 2.202988 1_455
Li1 O1 2.267402 1_545
Li2 O8 2.099090 1_556
Li2 O14 2.102790 1_565
Li2 O10 2.127991 1_565
Li2 O3 2.196249 1_555
Li2 O6 2.203232 1_555
Li2 O2 2.276616 1_555
Li3 O15 2.143347 1_555
Li3 O7 2.143347 1_445
Li3 O4 2.162977 1_445
Li3 O10 2.162977 1_555
Li3 O3 2.175058 1_545
Li3 O11 2.175058 1_455
Li4 O5 2.099090 1_554
Li4 O1 2.102790 1_545
Li4 O4 2.127991 1_545
Li4 O11 2.196249 1_555
Li4 O9 2.203232 1_555
Li4 O12 2.276616 1_555
Li5 O8 2.052354 1_555
Li5 O12 2.113772 1_555
Li5 O6 2.127258 1_554
Li5 O0 2.153027 1_554
Li5 O13 2.156421 1_455
Li5 O5 2.475733 1_554
Li6 O2 2.113685 1_555
Li6 O13 2.118659 1_556
Li6 O10 2.152922 1_665
Li6 O7 2.191115 1_555
Li6 O6 2.202988 1_655
Li6 O14 2.267402 1_565
Li7 O14 2.048604 1_555
Li7 O1 2.048604 1_545
Li7 O11 2.164609 1_555
Li7 O3 2.164609 1_545
Li7 O7 2.180081 1_545
Li7 O15 2.180081 1_555
Li8 O1 2.056852 1_545
Li8 O14 2.056852 1_554
Li8 O5 2.079400 1_554
Li8 O8 2.079400 1_545
Li8 O0 2.226911 1_554
Li8 O13 2.226911 1_545
Mn0 O4 1.938957 1_445
Mn0 O10 1.938957 1_554
Mn0 O0 1.950173 1_554
Mn0 O13 1.950173 1_445
Mn0 O5 1.976751 1_454
Mn0 O8 1.976751 1_545
Mn1 O1 1.926916 1_555
Mn1 O8 1.944495 1_555
Mn1 O3 1.988768 1_555
Mn1 O12 1.995956 1_555
Mn1 O4 2.253266 1_455
Mn1 O9 2.260402 1_555
Mn2 O11 1.943379 1_555
Mn2 O7 1.962973 1_555
Mn2 O2 1.978683 1_555
Mn2 O9 1.982024 1_555
Mn2 O15 2.238075 1_655
Mn2 O3 2.247383 1_555
Mn3 O0 1.933594 1_555
Mn3 O6 1.957639 1_555
Mn3 O15 1.962322 1_555
Mn3 O10 1.979188 1_555
Mn3 O14 2.058073 1_555
Mn3 O2 2.227184 1_455
Mn4 O13 1.933594 1_555
Mn4 O9 1.957639 1_555
Mn4 O7 1.962322 1_555
Mn4 O4 1.979188 1_555
Mn4 O1 2.058073 1_555
Mn4 O12 2.227184 1_655
Mn5 O3 1.943379 1_555
Mn5 O15 1.962973 1_555
Mn5 O12 1.978683 1_555
Mn5 O6 1.982024 1_555
Mn5 O7 2.238075 1_455
Mn5 O11 2.247383 1_555
Mn6 O14 1.926916 1_555
Mn6 O5 1.944495 1_555
Mn6 O11 1.988768 1_555
Mn6 O2 1.995956 1_555
Mn6 O10 2.253266 1_655
Mn6 O6 2.260402 1_555
