# generated using pymatgen
data_GdYCu4
_symmetry_space_group_name_H-M   'P 1'
_cell_length_a   5.43403622
_cell_length_b   5.42786762
_cell_length_c   5.42786762
_cell_angle_alpha   133.39752956
_cell_angle_beta   101.55673945
_cell_angle_gamma   96.44505324
_symmetry_Int_Tables_number   1
_chemical_formula_structural   GdYCu4
_chemical_formula_sum   'Gd1 Y1 Cu4'
_cell_volume   106.71551662
_cell_formula_units_Z   1
loop_
 _symmetry_equiv_pos_site_id
 _symmetry_equiv_pos_as_xyz
  1  'x, y, z'
loop_
 _atom_site_type_symbol
 _atom_site_label
 _atom_site_symmetry_multiplicity
 _atom_site_fract_x
 _atom_site_fract_y
 _atom_site_fract_z
 _atom_site_occupancy
  Gd  Gd0  1  0.45761988  0.45749385  0.00012703  1
  Y  Y0  1  0.04156431  0.54162702  0.49993728  1
  Cu  Cu0  1  0.63730354  0.83450026  0.80280328  1
  Cu  Cu1  1  0.86401919  0.16610553  0.69791367  1
  Cu  Cu2  1  0.46785546  0.16586077  0.30199269  1
  Cu  Cu3  1  0.03195061  0.83472457  0.19722604  1
loop_
_geom_bond_atom_site_label_1
_geom_bond_atom_site_label_2
_geom_bond_distance
_geom_bond_site_symmetry_2
Cu0 Cu2 2.469672 1_566
Cu0 Cu2 2.469679 1_555
Cu0 Cu1 2.504576 1_565
Cu0 Cu3 2.708985 1_656
Cu0 Y0 2.948782 1_666
Cu0 Y0 2.948782 1_655
Cu0 Y0 2.971672 1_555
Cu0 Gd0 3.044693 1_556
Cu0 Gd0 3.117492 1_555
Cu0 Gd0 3.117495 1_566
Cu1 Cu3 2.469598 1_656
Cu1 Cu3 2.469598 1_645
Cu1 Cu2 2.719269 1_555
Cu1 Gd0 2.956327 1_545
Cu1 Gd0 2.956330 1_556
Cu1 Gd0 2.960854 1_656
Cu1 Y0 3.037072 1_655
Cu1 Y0 3.117585 1_656
Cu1 Y0 3.117585 1_645
Cu2 Cu3 2.502951 1_545
Cu2 Gd0 2.954644 1_545
Cu2 Gd0 2.954654 1_556
Cu2 Gd0 2.956459 1_555
Cu2 Y0 3.041827 1_655
Cu2 Y0 3.118837 1_544
Cu2 Y0 3.118843 1_555
Cu3 Y0 2.946589 1_565
Cu3 Y0 2.946589 1_554
Cu3 Y0 2.968083 1_555
Cu3 Gd0 3.048735 1_455
Cu3 Gd0 3.119653 1_555
Cu3 Gd0 3.119656 1_566
