# generated using pymatgen
data_Al2Zn3N4
_symmetry_space_group_name_H-M   'P 1'
_cell_length_a   6.29030077
_cell_length_b   9.00412672
_cell_length_c   5.30788966
_cell_angle_alpha   90.00000091
_cell_angle_beta   93.32165836
_cell_angle_gamma   135.70183421
_symmetry_Int_Tables_number   1
_chemical_formula_structural   Al2Zn3N4
_chemical_formula_sum   'Al4 Zn6 N8'
_cell_volume   209.23512252
_cell_formula_units_Z   2
loop_
 _symmetry_equiv_pos_site_id
 _symmetry_equiv_pos_as_xyz
  1  'x, y, z'
loop_
 _atom_site_type_symbol
 _atom_site_label
 _atom_site_symmetry_multiplicity
 _atom_site_fract_x
 _atom_site_fract_y
 _atom_site_fract_z
 _atom_site_occupancy
  Al  Al0  1  0.55869700  0.16765900  0.61908600  1
  Al  Al1  1  0.44130300  0.60896300  0.88091400  1
  Al  Al2  1  0.44130300  0.83234100  0.38091400  1
  Al  Al3  1  0.55869700  0.39103700  0.11908600  1
  Zn  Zn0  1  0.22649900  0.95036400  0.08960000  1
  Zn  Zn1  1  0.77350100  0.72386500  0.41040000  1
  Zn  Zn2  1  0.77350100  0.04963600  0.91040000  1
  Zn  Zn3  1  0.22649900  0.27613500  0.58960000  1
  Zn  Zn4  1  0.00000000  0.64449800  0.75000000  1
  Zn  Zn5  1  0.00000000  0.35550200  0.25000000  1
  N  N0  1  0.20649200  0.88602900  0.48885400  1
  N  N1  1  0.79350800  0.67953700  0.01114600  1
  N  N2  1  0.79350800  0.11397100  0.51114600  1
  N  N3  1  0.20649200  0.32046300  0.98885400  1
  N  N4  1  0.61162000  0.22777500  0.97831800  1
  N  N5  1  0.38838000  0.61615500  0.52168200  1
  N  N6  1  0.38838000  0.77222500  0.02168200  1
  N  N7  1  0.61162000  0.38384500  0.47831800  1
loop_
_geom_bond_atom_site_label_1
_geom_bond_atom_site_label_2
_geom_bond_distance
_geom_bond_site_symmetry_2
Al0 N7 1.886653 1_555
Al0 N0 1.896645 1_545
Al0 N4 1.925635 1_555
Al0 N2 1.965628 1_555
Al1 N6 1.886645 1_556
Al1 N1 1.896649 1_556
Al1 N5 1.925634 1_555
Al1 N3 1.965636 1_555
Al2 N5 1.886653 1_555
Al2 N2 1.896645 1_565
Al2 N6 1.925635 1_555
Al2 N0 1.965628 1_555
Al3 N4 1.886645 1_554
Al3 N3 1.896649 1_554
Al3 N7 1.925634 1_555
Al3 N1 1.965636 1_555
N0 Zn1 1.974730 1_455
N0 Zn4 2.122092 1_555
N0 Zn0 2.183792 1_555
N1 Zn0 1.974730 1_655
N1 Zn4 2.122092 1_654
N1 Zn1 2.183792 1_555
N2 Zn3 1.974730 1_655
N2 Zn5 2.122092 1_655
N2 Zn2 2.183792 1_555
N3 Zn2 1.974730 1_455
N3 Zn5 2.122092 1_556
N3 Zn3 2.183792 1_555
N4 Zn0 1.990190 1_546
N4 Zn5 2.222723 1_656
N4 Zn2 2.473890 1_555
N5 Zn1 1.990190 1_555
N5 Zn5 2.222723 1_555
N5 Zn3 2.473890 1_555
N6 Zn2 1.990190 1_564
N6 Zn4 2.222723 1_554
N6 Zn0 2.473890 1_555
N7 Zn3 1.990190 1_555
N7 Zn4 2.222723 1_655
N7 Zn1 2.473890 1_555
