# generated using pymatgen
data_Ba4MgTl8O16
_symmetry_space_group_name_H-M   'P 1'
_cell_length_a   11.34784578
_cell_length_b   12.57334524
_cell_length_c   3.49344234
_cell_angle_alpha   90.00000000
_cell_angle_beta   90.00000000
_cell_angle_gamma   88.09625290
_symmetry_Int_Tables_number   1
_chemical_formula_structural   Ba4MgTl8O16
_chemical_formula_sum   'Ba4 Mg1 Tl8 O16'
_cell_volume   498.17057042
_cell_formula_units_Z   1
loop_
 _symmetry_equiv_pos_site_id
 _symmetry_equiv_pos_as_xyz
  1  'x, y, z'
loop_
 _atom_site_type_symbol
 _atom_site_label
 _atom_site_symmetry_multiplicity
 _atom_site_fract_x
 _atom_site_fract_y
 _atom_site_fract_z
 _atom_site_occupancy
  Ba  Ba0  1  0.22533903  0.30963332  0.75000000  1
  Ba  Ba1  1  0.25277454  0.85348686  0.25000000  1
  Ba  Ba2  1  0.75256586  0.14720054  0.75000000  1
  Ba  Ba3  1  0.76550185  0.65561073  0.25000000  1
  Mg  Mg0  1  0.30496672  0.54603605  0.75000000  1
  Tl  Tl0  1  0.04189975  0.59001778  0.75000000  1
  Tl  Tl1  1  0.05976252  0.09626307  0.75000000  1
  Tl  Tl2  1  0.47368493  0.64700130  0.25000000  1
  Tl  Tl3  1  0.41550392  0.09528189  0.25000000  1
  Tl  Tl4  1  0.59162375  0.90642265  0.75000000  1
  Tl  Tl5  1  0.58148822  0.38533409  0.75000000  1
  Tl  Tl6  1  0.93332893  0.88375863  0.25000000  1
  Tl  Tl7  1  0.91264239  0.37585776  0.25000000  1
  O  O0  1  0.02193161  0.70371445  0.25000000  1
  O  O1  1  0.07685587  0.91524323  0.75000000  1
  O  O2  1  0.10476252  0.47310375  0.25000000  1
  O  O3  1  0.18870530  0.14622935  0.25000000  1
  O  O4  1  0.33169726  0.69760583  0.75000000  1
  O  O5  1  0.38931909  0.96749029  0.75000000  1
  O  O6  1  0.35439146  0.49059958  0.25000000  1
  O  O7  1  0.43114793  0.20475022  0.75000000  1
  O  O8  1  0.57295949  0.79750695  0.25000000  1
  O  O9  1  0.59214880  0.59751605  0.75000000  1
  O  O10  1  0.61773423  0.02792560  0.25000000  1
  O  O11  1  0.73669906  0.30737138  0.25000000  1
  O  O12  1  0.81288493  0.83408272  0.75000000  1
  O  O13  1  0.87044673  0.51031070  0.75000000  1
  O  O14  1  0.92168659  0.06478777  0.25000000  1
  O  O15  1  0.99054672  0.27506547  0.75000000  1
loop_
_geom_bond_atom_site_label_1
_geom_bond_atom_site_label_2
_geom_bond_distance
_geom_bond_site_symmetry_2
Ba0 O7 2.643657 1_555
Ba0 O15 2.713817 1_455
Ba0 O3 2.738925 1_555
Ba0 O3 2.738925 1_556
Ba0 O2 2.993481 1_555
Ba0 O2 2.993481 1_556
Ba1 O1 2.745210 1_555
Ba1 O1 2.745210 1_554
Ba1 O4 2.752799 1_554
Ba1 O4 2.752799 1_555
Ba1 O5 2.766615 1_554
Ba1 O5 2.766615 1_555
Ba1 O0 3.276602 1_555
Ba2 O11 2.667412 1_556
Ba2 O11 2.667412 1_555
Ba2 O14 2.770521 1_556
Ba2 O14 2.770521 1_555
Ba2 O10 2.791701 1_556
Ba2 O10 2.791701 1_555
Ba2 O15 3.188450 1_555
Ba3 O9 2.747702 1_555
Ba3 O9 2.747702 1_554
Ba3 O13 2.768088 1_555
Ba3 O13 2.768088 1_554
Ba3 O8 2.774530 1_555
Ba3 O12 2.907887 1_555
Ba3 O12 2.907887 1_554
Ba3 O0 2.991724 1_655
Mg0 O4 1.939655 1_555
Mg0 O6 1.955881 1_556
Mg0 O6 1.955881 1_555
O0 Tl0 2.263728 1_555
O0 Tl0 2.263728 1_554
O0 Tl6 2.446283 1_455
O1 Tl1 2.277846 1_565
O1 Tl6 2.429674 1_456
O1 Tl6 2.429674 1_455
O2 Tl0 2.377213 1_554
O2 Tl0 2.377213 1_555
O2 Tl7 2.534793 1_455
O3 Tl1 2.376515 1_555
O3 Tl1 2.376515 1_554
O3 Tl3 2.631466 1_555
O4 Tl2 2.446201 1_556
O4 Tl2 2.446201 1_555
O5 Tl4 2.396409 1_555
O5 Tl3 2.398490 1_565
O5 Tl3 2.398490 1_566
O6 Tl2 2.424156 1_555
O7 Tl3 2.234550 1_556
O7 Tl3 2.234550 1_555
O8 Tl4 2.233946 1_555
O8 Tl4 2.233946 1_554
O8 Tl2 2.234231 1_555
O9 Tl2 2.278104 1_556
O9 Tl2 2.278104 1_555
O9 Tl5 2.674590 1_555
O10 Tl4 2.345797 1_545
O10 Tl4 2.345797 1_544
O10 Tl3 2.419621 1_555
O11 Tl7 2.200466 1_555
O11 Tl5 2.645643 1_554
O11 Tl5 2.645643 1_555
O12 Tl6 2.316454 1_556
O12 Tl6 2.316454 1_555
O12 Tl4 2.641943 1_555
O13 Tl0 2.217966 1_655
O13 Tl7 2.466658 1_556
O13 Tl7 2.466658 1_555
O14 Tl6 2.275587 1_545
O14 Tl1 2.388287 1_654
O14 Tl1 2.388287 1_655
O15 Tl7 2.316069 1_555
O15 Tl7 2.316069 1_556
O15 Tl1 2.356642 1_655
