# generated using pymatgen
data_Ba2Fe4AsP3
_symmetry_space_group_name_H-M   'P 1'
_cell_length_a   6.81582443
_cell_length_b   6.81582443
_cell_length_c   5.46403600
_cell_angle_alpha   90.00000000
_cell_angle_beta   90.00000000
_cell_angle_gamma   132.79107794
_symmetry_Int_Tables_number   1
_chemical_formula_structural   Ba2Fe4AsP3
_chemical_formula_sum   'Ba2 Fe4 As1 P3'
_cell_volume   186.27267523
_cell_formula_units_Z   1
loop_
 _symmetry_equiv_pos_site_id
 _symmetry_equiv_pos_as_xyz
  1  'x, y, z'
loop_
 _atom_site_type_symbol
 _atom_site_label
 _atom_site_symmetry_multiplicity
 _atom_site_fract_x
 _atom_site_fract_y
 _atom_site_fract_z
 _atom_site_occupancy
  Ba  Ba0  1  0.49716600  0.50283400  0.50000000  1
  Ba  Ba1  1  0.99761900  0.00238100  0.00000000  1
  Fe  Fe0  1  0.50475700  0.00223000  0.24623200  1
  Fe  Fe1  1  0.99777000  0.49524300  0.75376800  1
  Fe  Fe2  1  0.99777000  0.49524300  0.24623200  1
  Fe  Fe3  1  0.50475700  0.00223000  0.75376800  1
  As  As0  1  0.15129400  0.84870600  0.50000000  1
  P  P0  1  0.66273700  0.33726300  0.00000000  1
  P  P1  1  0.33649100  0.66350900  0.00000000  1
  P  P2  1  0.83554000  0.16446000  0.50000000  1
loop_
_geom_bond_atom_site_label_1
_geom_bond_atom_site_label_2
_geom_bond_distance
_geom_bond_site_symmetry_2
Ba0 P1 3.389986 1_556
Ba0 P1 3.389986 1_555
Ba0 P2 3.394763 1_565
Ba0 P2 3.394763 1_455
Ba0 P0 3.426548 1_556
Ba0 P0 3.426548 1_555
Ba1 P1 3.391067 1_545
Ba1 P1 3.391067 1_655
Ba1 P2 3.400399 1_555
Ba1 P2 3.400399 1_554
Ba1 P0 3.420883 1_655
Ba1 P0 3.420883 1_545
Fe0 P2 2.200294 1_555
Fe0 P0 2.200769 1_555
Fe0 P1 2.204094 1_545
Fe1 P2 2.200294 1_555
Fe1 P0 2.200769 1_556
Fe1 P1 2.204094 1_656
Fe2 P2 2.200294 1_555
Fe2 P0 2.200769 1_555
Fe2 P1 2.204094 1_655
Fe3 P2 2.200294 1_555
Fe3 P0 2.200769 1_556
Fe3 P1 2.204094 1_546
As0 Fe3 2.323039 1_565
As0 Fe0 2.323039 1_565
As0 Fe1 2.323039 1_455
As0 Fe2 2.323039 1_455
As0 Ba1 3.338963 1_466
As0 Ba1 3.338963 1_465
As0 Ba0 3.339912 1_565
As0 Ba0 3.339912 1_455
