# generated using pymatgen
data_NdMnB4
_symmetry_space_group_name_H-M   'P 1'
_cell_length_a   6.02007600
_cell_length_b   11.64702500
_cell_length_c   3.51015600
_cell_angle_alpha   90.00000000
_cell_angle_beta   90.00000000
_cell_angle_gamma   90.00000000
_symmetry_Int_Tables_number   1
_chemical_formula_structural   NdMnB4
_chemical_formula_sum   'Nd4 Mn4 B16'
_cell_volume   246.11801271
_cell_formula_units_Z   4
loop_
 _symmetry_equiv_pos_site_id
 _symmetry_equiv_pos_as_xyz
  1  'x, y, z'
loop_
 _atom_site_type_symbol
 _atom_site_label
 _atom_site_symmetry_multiplicity
 _atom_site_fract_x
 _atom_site_fract_y
 _atom_site_fract_z
 _atom_site_occupancy
  Nd  Nd0  1  0.62528300  0.34897900  0.00000000  1
  Nd  Nd1  1  0.37471700  0.65102100  0.00000000  1
  Nd  Nd2  1  0.12528300  0.15102100  0.00000000  1
  Nd  Nd3  1  0.87471700  0.84897900  0.00000000  1
  Mn  Mn0  1  0.62645400  0.08245000  0.00000000  1
  Mn  Mn1  1  0.37354600  0.91755000  0.00000000  1
  Mn  Mn2  1  0.12645400  0.41755000  0.00000000  1
  Mn  Mn3  1  0.87354600  0.58245000  0.00000000  1
  B  B0  1  0.77705100  0.18140800  0.50000000  1
  B  B1  1  0.22294900  0.81859200  0.50000000  1
  B  B2  1  0.27705100  0.31859200  0.50000000  1
  B  B3  1  0.72294900  0.68140800  0.50000000  1
  B  B4  1  0.85835000  0.03260400  0.50000000  1
  B  B5  1  0.14165000  0.96739600  0.50000000  1
  B  B6  1  0.35835000  0.46739600  0.50000000  1
  B  B7  1  0.64165000  0.53260400  0.50000000  1
  B  B8  1  0.88968300  0.45493500  0.50000000  1
  B  B9  1  0.11031700  0.54506500  0.50000000  1
  B  B10  1  0.38968300  0.04506500  0.50000000  1
  B  B11  1  0.61031700  0.95493500  0.50000000  1
  B  B12  1  0.97725400  0.31223000  0.50000000  1
  B  B13  1  0.02274600  0.68777000  0.50000000  1
  B  B14  1  0.47725400  0.18777000  0.50000000  1
  B  B15  1  0.52274600  0.81223000  0.50000000  1
loop_
_geom_bond_atom_site_label_1
_geom_bond_atom_site_label_2
_geom_bond_distance
_geom_bond_site_symmetry_2
B0 B4 1.800904 1_555
B0 B14 1.806321 1_555
B0 B12 1.942735 1_555
B0 Mn0 2.287060 1_555
B0 Mn0 2.287060 1_556
B0 Nd2 2.756878 1_656
B0 Nd2 2.756878 1_655
B0 Nd0 2.779246 1_555
B0 Nd0 2.779246 1_556
B1 B5 1.800904 1_555
B1 B15 1.806321 1_555
B1 B13 1.942735 1_555
B1 Mn1 2.287060 1_555
B1 Mn1 2.287060 1_556
B1 Nd3 2.756878 1_456
B1 Nd3 2.756878 1_455
B1 Nd1 2.779246 1_555
B1 Nd1 2.779246 1_556
B2 B6 1.800904 1_555
B2 Mn2 2.287060 1_555
B2 Mn2 2.287060 1_556
B2 Nd0 2.756878 1_556
B2 Nd0 2.756878 1_555
B2 Nd2 2.779246 1_555
B2 Nd2 2.779246 1_556
B3 B7 1.800904 1_555
B3 Mn3 2.287060 1_555
B3 Mn3 2.287060 1_556
B3 Nd1 2.756878 1_555
B3 Nd1 2.756878 1_556
B3 Nd3 2.779246 1_556
B3 Nd3 2.779246 1_555
B4 B5 1.866948 1_645
B4 Mn0 2.316517 1_555
B4 Mn0 2.316517 1_556
B4 Nd2 2.750421 1_656
B4 Nd2 2.750421 1_655
B4 Nd3 2.768390 1_545
B4 Nd3 2.768390 1_546
B5 Mn1 2.316517 1_555
B5 Mn1 2.316517 1_556
B5 Nd3 2.750421 1_455
B5 Nd3 2.750421 1_456
B5 Nd2 2.768390 1_565
B5 Nd2 2.768390 1_566
B6 B9 1.745825 1_555
B6 B7 1.866948 1_555
B6 Mn2 2.316517 1_555
B6 Mn2 2.316517 1_556
B6 Nd0 2.750421 1_556
B6 Nd0 2.750421 1_555
B6 Nd1 2.768390 1_555
B6 Nd1 2.768390 1_556
B7 B8 1.745825 1_555
B7 Mn3 2.316517 1_556
B7 Mn3 2.316517 1_555
B7 Nd1 2.750421 1_556
B7 Nd1 2.750421 1_555
B7 Nd0 2.768390 1_555
B7 Nd0 2.768390 1_556
B8 B9 1.692977 1_655
B8 Mn3 2.301188 1_556
B8 Mn3 2.301188 1_555
B8 Mn2 2.302520 1_655
B8 Mn2 2.302520 1_656
B8 Nd0 2.671473 1_555
B8 Nd0 2.671473 1_556
B9 Mn2 2.301188 1_556
B9 Mn2 2.301188 1_555
B9 Mn3 2.302520 1_456
B9 Mn3 2.302520 1_455
B9 Nd1 2.671473 1_555
B9 Nd1 2.671473 1_556
B10 B11 1.692977 1_545
B10 B14 1.743692 1_555
B10 B5 1.745825 1_545
B10 Mn1 2.301188 1_545
B10 Mn1 2.301188 1_546
B10 Mn0 2.302520 1_555
B10 Mn0 2.302520 1_556
B10 Nd2 2.671473 1_555
B10 Nd2 2.671473 1_556
B11 B15 1.743692 1_555
B11 B4 1.745825 1_565
B11 Mn0 2.301188 1_566
B11 Mn0 2.301188 1_565
B11 Mn1 2.302520 1_555
B11 Mn1 2.302520 1_556
B11 Nd3 2.671473 1_556
B11 Nd3 2.671473 1_555
B12 B8 1.743692 1_555
B12 B2 1.806321 1_655
B12 Mn2 2.322016 1_656
B12 Mn2 2.322016 1_655
B12 Nd2 2.720265 1_656
B12 Nd2 2.720265 1_655
B12 Nd0 2.784457 1_555
B12 Nd0 2.784457 1_556
B13 B9 1.743692 1_555
B13 B3 1.806321 1_455
B13 Mn3 2.322016 1_456
B13 Mn3 2.322016 1_455
B13 Nd3 2.720265 1_456
B13 Nd3 2.720265 1_455
B13 Nd1 2.784457 1_555
B13 Nd1 2.784457 1_556
B14 B2 1.942735 1_555
B14 Mn0 2.322016 1_555
B14 Mn0 2.322016 1_556
B14 Nd0 2.720265 1_555
B14 Nd0 2.720265 1_556
B14 Nd2 2.784457 1_555
B14 Nd2 2.784457 1_556
B15 B3 1.942735 1_555
B15 Mn1 2.322016 1_555
B15 Mn1 2.322016 1_556
B15 Nd1 2.720265 1_555
B15 Nd1 2.720265 1_556
B15 Nd3 2.784457 1_556
B15 Nd3 2.784457 1_555
