# generated using pymatgen
data_Nb6SnS8
_symmetry_space_group_name_H-M   'P 1'
_cell_length_a   19.29706877
_cell_length_b   19.29706877
_cell_length_c   6.82170400
_cell_angle_alpha   90.00000000
_cell_angle_beta   90.00000000
_cell_angle_gamma   120.00000265
_symmetry_Int_Tables_number   1
_chemical_formula_structural   Nb6SnS8
_chemical_formula_sum   'Nb48 Sn8 S64'
_cell_volume   2199.91641578
_cell_formula_units_Z   8
loop_
 _symmetry_equiv_pos_site_id
 _symmetry_equiv_pos_as_xyz
  1  'x, y, z'
loop_
 _atom_site_type_symbol
 _atom_site_label
 _atom_site_symmetry_multiplicity
 _atom_site_fract_x
 _atom_site_fract_y
 _atom_site_fract_z
 _atom_site_occupancy
  Nb  Nb0_0  1  0.24355400  0.18734150  0.37449050  1
  Nb  Nb0_1  1  0.24355400  0.18734150  0.87449050  1
  Nb  Nb0_2  1  0.24355400  0.68734150  0.37449050  1
  Nb  Nb0_3  1  0.24355400  0.68734150  0.87449050  1
  Nb  Nb0_4  1  0.74355400  0.18734150  0.37449050  1
  Nb  Nb0_5  1  0.74355400  0.18734150  0.87449050  1
  Nb  Nb0_6  1  0.74355400  0.68734150  0.37449050  1
  Nb  Nb0_7  1  0.74355400  0.68734150  0.87449050  1
  Nb  Nb1_0  1  0.31265850  0.05621250  0.37449050  1
  Nb  Nb1_1  1  0.31265850  0.05621250  0.87449050  1
  Nb  Nb1_2  1  0.31265850  0.55621250  0.37449050  1
  Nb  Nb1_3  1  0.31265850  0.55621250  0.87449050  1
  Nb  Nb1_4  1  0.81265850  0.05621250  0.37449050  1
  Nb  Nb1_5  1  0.81265850  0.05621250  0.87449050  1
  Nb  Nb1_6  1  0.81265850  0.55621250  0.37449050  1
  Nb  Nb1_7  1  0.81265850  0.55621250  0.87449050  1
  Nb  Nb2_0  1  0.44378750  0.25644600  0.37449050  1
  Nb  Nb2_1  1  0.44378750  0.25644600  0.87449050  1
  Nb  Nb2_2  1  0.44378750  0.75644600  0.37449050  1
  Nb  Nb2_3  1  0.44378750  0.75644600  0.87449050  1
  Nb  Nb2_4  1  0.94378750  0.25644600  0.37449050  1
  Nb  Nb2_5  1  0.94378750  0.25644600  0.87449050  1
  Nb  Nb2_6  1  0.94378750  0.75644600  0.37449050  1
  Nb  Nb2_7  1  0.94378750  0.75644600  0.87449050  1
  Nb  Nb3_0  1  0.25644600  0.31265850  0.12550950  1
  Nb  Nb3_1  1  0.25644600  0.31265850  0.62550950  1
  Nb  Nb3_2  1  0.25644600  0.81265850  0.12550950  1
  Nb  Nb3_3  1  0.25644600  0.81265850  0.62550950  1
  Nb  Nb3_4  1  0.75644600  0.31265850  0.12550950  1
  Nb  Nb3_5  1  0.75644600  0.31265850  0.62550950  1
  Nb  Nb3_6  1  0.75644600  0.81265850  0.12550950  1
  Nb  Nb3_7  1  0.75644600  0.81265850  0.62550950  1
  Nb  Nb4_0  1  0.18734150  0.44378750  0.12550950  1
  Nb  Nb4_1  1  0.18734150  0.44378750  0.62550950  1
  Nb  Nb4_2  1  0.18734150  0.94378750  0.12550950  1
  Nb  Nb4_3  1  0.18734150  0.94378750  0.62550950  1
  Nb  Nb4_4  1  0.68734150  0.44378750  0.12550950  1
  Nb  Nb4_5  1  0.68734150  0.44378750  0.62550950  1
  Nb  Nb4_6  1  0.68734150  0.94378750  0.12550950  1
  Nb  Nb4_7  1  0.68734150  0.94378750  0.62550950  1
  Nb  Nb5_0  1  0.05621250  0.24355400  0.12550950  1
  Nb  Nb5_1  1  0.05621250  0.24355400  0.62550950  1
  Nb  Nb5_2  1  0.05621250  0.74355400  0.12550950  1
  Nb  Nb5_3  1  0.05621250  0.74355400  0.62550950  1
  Nb  Nb5_4  1  0.55621250  0.24355400  0.12550950  1
  Nb  Nb5_5  1  0.55621250  0.24355400  0.62550950  1
  Nb  Nb5_6  1  0.55621250  0.74355400  0.12550950  1
  Nb  Nb5_7  1  0.55621250  0.74355400  0.62550950  1
  Sn  Sn0_0  1  0.00000000  0.00000000  0.25000000  1
  Sn  Sn0_1  1  0.00000000  0.00000000  0.75000000  1
  Sn  Sn0_2  1  0.00000000  0.50000000  0.25000000  1
  Sn  Sn0_3  1  0.00000000  0.50000000  0.75000000  1
  Sn  Sn0_4  1  0.50000000  0.00000000  0.25000000  1
  Sn  Sn0_5  1  0.50000000  0.00000000  0.75000000  1
  Sn  Sn0_6  1  0.50000000  0.50000000  0.25000000  1
  Sn  Sn0_7  1  0.50000000  0.50000000  0.75000000  1
  S  S0_0  1  0.16666650  0.33333350  0.37514350  1
  S  S0_1  1  0.16666650  0.33333350  0.87514350  1
  S  S0_2  1  0.16666650  0.83333350  0.37514350  1
  S  S0_3  1  0.16666650  0.83333350  0.87514350  1
  S  S0_4  1  0.66666650  0.33333350  0.37514350  1
  S  S0_5  1  0.66666650  0.33333350  0.87514350  1
  S  S0_6  1  0.66666650  0.83333350  0.37514350  1
  S  S0_7  1  0.66666650  0.83333350  0.87514350  1
  S  S1_0  1  0.33333350  0.16666650  0.12485650  1
  S  S1_1  1  0.33333350  0.16666650  0.62485650  1
  S  S1_2  1  0.33333350  0.66666650  0.12485650  1
  S  S1_3  1  0.33333350  0.66666650  0.62485650  1
  S  S1_4  1  0.83333350  0.16666650  0.12485650  1
  S  S1_5  1  0.83333350  0.16666650  0.62485650  1
  S  S1_6  1  0.83333350  0.66666650  0.12485650  1
  S  S1_7  1  0.83333350  0.66666650  0.62485650  1
  S  S2_0  1  0.16983200  0.02727650  0.37570950  1
  S  S2_1  1  0.16983200  0.02727650  0.87570950  1
  S  S2_2  1  0.16983200  0.52727650  0.37570950  1
  S  S2_3  1  0.16983200  0.52727650  0.87570950  1
  S  S2_4  1  0.66983200  0.02727650  0.37570950  1
  S  S2_5  1  0.66983200  0.02727650  0.87570950  1
  S  S2_6  1  0.66983200  0.52727650  0.37570950  1
  S  S2_7  1  0.66983200  0.52727650  0.87570950  1
  S  S3_0  1  0.47272350  0.14255550  0.37570950  1
  S  S3_1  1  0.47272350  0.14255550  0.87570950  1
  S  S3_2  1  0.47272350  0.64255550  0.37570950  1
  S  S3_3  1  0.47272350  0.64255550  0.87570950  1
  S  S3_4  1  0.97272350  0.14255550  0.37570950  1
  S  S3_5  1  0.97272350  0.14255550  0.87570950  1
  S  S3_6  1  0.97272350  0.64255550  0.37570950  1
  S  S3_7  1  0.97272350  0.64255550  0.87570950  1
  S  S4_0  1  0.35744450  0.33016800  0.37570950  1
  S  S4_1  1  0.35744450  0.33016800  0.87570950  1
  S  S4_2  1  0.35744450  0.83016800  0.37570950  1
  S  S4_3  1  0.35744450  0.83016800  0.87570950  1
  S  S4_4  1  0.85744450  0.33016800  0.37570950  1
  S  S4_5  1  0.85744450  0.33016800  0.87570950  1
  S  S4_6  1  0.85744450  0.83016800  0.37570950  1
  S  S4_7  1  0.85744450  0.83016800  0.87570950  1
  S  S5_0  1  0.33016800  0.47272350  0.12429050  1
  S  S5_1  1  0.33016800  0.47272350  0.62429050  1
  S  S5_2  1  0.33016800  0.97272350  0.12429050  1
  S  S5_3  1  0.33016800  0.97272350  0.62429050  1
  S  S5_4  1  0.83016800  0.47272350  0.12429050  1
  S  S5_5  1  0.83016800  0.47272350  0.62429050  1
  S  S5_6  1  0.83016800  0.97272350  0.12429050  1
  S  S5_7  1  0.83016800  0.97272350  0.62429050  1
  S  S6_0  1  0.02727650  0.35744450  0.12429050  1
  S  S6_1  1  0.02727650  0.35744450  0.62429050  1
  S  S6_2  1  0.02727650  0.85744450  0.12429050  1
  S  S6_3  1  0.02727650  0.85744450  0.62429050  1
  S  S6_4  1  0.52727650  0.35744450  0.12429050  1
  S  S6_5  1  0.52727650  0.35744450  0.62429050  1
  S  S6_6  1  0.52727650  0.85744450  0.12429050  1
  S  S6_7  1  0.52727650  0.85744450  0.62429050  1
  S  S7_0  1  0.14255550  0.16983200  0.12429050  1
  S  S7_1  1  0.14255550  0.16983200  0.62429050  1
  S  S7_2  1  0.14255550  0.66983200  0.12429050  1
  S  S7_3  1  0.14255550  0.66983200  0.62429050  1
  S  S7_4  1  0.64255550  0.16983200  0.12429050  1
  S  S7_5  1  0.64255550  0.16983200  0.62429050  1
  S  S7_6  1  0.64255550  0.66983200  0.12429050  1
  S  S7_7  1  0.64255550  0.66983200  0.62429050  1
loop_
_geom_bond_atom_site_label_1
_geom_bond_atom_site_label_2
_geom_bond_distance
_geom_bond_site_symmetry_2
Nb0_0 S7_1 2.481526 1_555
Nb0_0 S7_0 2.483400 1_555
Nb0_0 S4_0 2.523719 1_555
Nb0_0 S1_0 2.598430 1_555
Nb0_0 S1_1 2.601705 1_555
Nb0_0 S2_0 2.677750 1_555
Nb0_1 S7_0 2.481526 1_556
Nb0_1 S7_1 2.483400 1_555
Nb0_1 S4_1 2.523719 1_555
Nb0_1 S1_1 2.598430 1_555
Nb0_1 S1_0 2.601705 1_556
Nb0_1 S2_1 2.677750 1_555
Nb0_2 S7_3 2.481526 1_555
Nb0_2 S7_2 2.483400 1_555
Nb0_2 S4_2 2.523719 1_555
Nb0_2 S1_2 2.598430 1_555
Nb0_2 S1_3 2.601705 1_555
Nb0_2 S2_2 2.677750 1_555
Nb0_3 S7_2 2.481526 1_556
Nb0_3 S7_3 2.483400 1_555
Nb0_3 S4_3 2.523719 1_555
Nb0_3 S1_3 2.598430 1_555
Nb0_3 S1_2 2.601705 1_556
Nb0_3 S2_3 2.677750 1_555
Nb0_4 S7_5 2.481526 1_555
Nb0_4 S7_4 2.483400 1_555
Nb0_4 S4_4 2.523719 1_555
Nb0_4 S1_4 2.598430 1_555
Nb0_4 S1_5 2.601705 1_555
Nb0_4 S2_4 2.677750 1_555
Nb0_5 S7_4 2.481526 1_556
Nb0_5 S7_5 2.483400 1_555
Nb0_5 S4_5 2.523719 1_555
Nb0_5 S1_5 2.598430 1_555
Nb0_5 S1_4 2.601705 1_556
Nb0_5 S2_5 2.677750 1_555
Nb0_6 S7_7 2.481526 1_555
Nb0_6 S7_6 2.483400 1_555
Nb0_6 S4_6 2.523719 1_555
Nb0_6 S1_6 2.598430 1_555
Nb0_6 S1_7 2.601705 1_555
Nb0_6 S2_6 2.677750 1_555
Nb0_7 S7_6 2.481526 1_556
Nb0_7 S7_7 2.483400 1_555
Nb0_7 S4_7 2.523719 1_555
Nb0_7 S1_7 2.598430 1_555
Nb0_7 S1_6 2.601705 1_556
Nb0_7 S2_7 2.677750 1_555
Nb1_0 S5_3 2.481526 1_545
Nb1_0 S5_2 2.483400 1_545
Nb1_0 S2_0 2.523719 1_555
Nb1_0 S1_0 2.598422 1_555
Nb1_0 S1_1 2.601698 1_555
Nb1_0 S3_0 2.677750 1_555
Nb1_1 S5_2 2.481526 1_546
Nb1_1 S5_3 2.483400 1_545
Nb1_1 S2_1 2.523719 1_555
Nb1_1 S1_1 2.598422 1_555
Nb1_1 S1_0 2.601698 1_556
Nb1_1 S3_1 2.677750 1_555
Nb1_2 S5_1 2.481526 1_555
Nb1_2 S5_0 2.483400 1_555
Nb1_2 S2_2 2.523719 1_555
Nb1_2 S1_2 2.598422 1_555
Nb1_2 S1_3 2.601698 1_555
Nb1_2 S3_2 2.677750 1_555
Nb1_3 S5_0 2.481526 1_556
Nb1_3 S5_1 2.483400 1_555
Nb1_3 S2_3 2.523719 1_555
Nb1_3 S1_3 2.598422 1_555
Nb1_3 S1_2 2.601698 1_556
Nb1_3 S3_3 2.677750 1_555
Nb1_4 S5_7 2.481526 1_545
Nb1_4 S5_6 2.483400 1_545
Nb1_4 S2_4 2.523719 1_555
Nb1_4 S1_4 2.598422 1_555
Nb1_4 S1_5 2.601698 1_555
Nb1_4 S3_4 2.677750 1_555
Nb1_5 S5_6 2.481526 1_546
Nb1_5 S5_7 2.483400 1_545
Nb1_5 S2_5 2.523719 1_555
Nb1_5 S1_5 2.598422 1_555
Nb1_5 S1_4 2.601698 1_556
Nb1_5 S3_5 2.677750 1_555
Nb1_6 S5_5 2.481526 1_555
Nb1_6 S5_4 2.483400 1_555
Nb1_6 S2_6 2.523719 1_555
Nb1_6 S1_6 2.598422 1_555
Nb1_6 S1_7 2.601698 1_555
Nb1_6 S3_6 2.677750 1_555
Nb1_7 S5_4 2.481526 1_556
Nb1_7 S5_5 2.483400 1_555
Nb1_7 S2_7 2.523719 1_555
Nb1_7 S1_7 2.598422 1_555
Nb1_7 S1_6 2.601698 1_556
Nb1_7 S3_7 2.677750 1_555
Nb2_0 S6_5 2.481526 1_555
Nb2_0 S6_4 2.483400 1_555
Nb2_0 S3_0 2.523719 1_555
Nb2_0 S1_0 2.598425 1_555
Nb2_0 S1_1 2.601700 1_555
Nb2_0 S4_0 2.677750 1_555
Nb2_1 S6_4 2.481526 1_556
Nb2_1 S6_5 2.483400 1_555
Nb2_1 S3_1 2.523719 1_555
Nb2_1 S1_1 2.598425 1_555
Nb2_1 S1_0 2.601700 1_556
Nb2_1 S4_1 2.677750 1_555
Nb2_2 S6_7 2.481526 1_555
Nb2_2 S6_6 2.483400 1_555
Nb2_2 S3_2 2.523719 1_555
Nb2_2 S1_2 2.598425 1_555
Nb2_2 S1_3 2.601700 1_555
Nb2_2 S4_2 2.677750 1_555
Nb2_3 S6_6 2.481526 1_556
Nb2_3 S6_7 2.483400 1_555
Nb2_3 S3_3 2.523719 1_555
Nb2_3 S1_3 2.598425 1_555
Nb2_3 S1_2 2.601700 1_556
Nb2_3 S4_3 2.677750 1_555
Nb2_4 S6_1 2.481526 1_655
Nb2_4 S6_0 2.483400 1_655
Nb2_4 S3_4 2.523719 1_555
Nb2_4 S1_4 2.598425 1_555
Nb2_4 S1_5 2.601700 1_555
Nb2_4 S4_4 2.677750 1_555
Nb2_5 S6_0 2.481526 1_656
Nb2_5 S6_1 2.483400 1_655
Nb2_5 S3_5 2.523719 1_555
Nb2_5 S1_5 2.598425 1_555
Nb2_5 S1_4 2.601700 1_556
Nb2_5 S4_5 2.677750 1_555
Nb2_6 S6_3 2.481526 1_655
Nb2_6 S6_2 2.483400 1_655
Nb2_6 S3_6 2.523719 1_555
Nb2_6 S1_6 2.598425 1_555
Nb2_6 S1_7 2.601700 1_555
Nb2_6 S4_6 2.677750 1_555
Nb2_7 S6_2 2.481526 1_656
Nb2_7 S6_3 2.483400 1_655
Nb2_7 S3_7 2.523719 1_555
Nb2_7 S1_7 2.598425 1_555
Nb2_7 S1_6 2.601700 1_556
Nb2_7 S4_7 2.677750 1_555
Nb3_0 S4_1 2.481526 1_554
Nb3_0 S4_0 2.483400 1_555
Nb3_0 S7_0 2.523719 1_555
Nb3_0 S0_0 2.598430 1_555
Nb3_0 S0_1 2.601705 1_554
Nb3_0 S5_0 2.677750 1_555
Nb3_1 S4_0 2.481526 1_555
Nb3_1 S4_1 2.483400 1_555
Nb3_1 S7_1 2.523719 1_555
Nb3_1 S0_1 2.598430 1_555
Nb3_1 S0_0 2.601705 1_555
Nb3_1 S5_1 2.677750 1_555
Nb3_2 S4_3 2.481526 1_554
Nb3_2 S4_2 2.483400 1_555
Nb3_2 S7_2 2.523719 1_555
Nb3_2 S0_2 2.598430 1_555
Nb3_2 S0_3 2.601705 1_554
Nb3_2 S5_2 2.677750 1_555
Nb3_3 S4_2 2.481526 1_555
Nb3_3 S4_3 2.483400 1_555
Nb3_3 S7_3 2.523719 1_555
Nb3_3 S0_3 2.598430 1_555
Nb3_3 S0_2 2.601705 1_555
Nb3_3 S5_3 2.677750 1_555
Nb3_4 S4_5 2.481526 1_554
Nb3_4 S4_4 2.483400 1_555
Nb3_4 S7_4 2.523719 1_555
Nb3_4 S0_4 2.598430 1_555
Nb3_4 S0_5 2.601705 1_554
Nb3_4 S5_4 2.677750 1_555
Nb3_5 S4_4 2.481526 1_555
Nb3_5 S4_5 2.483400 1_555
Nb3_5 S7_5 2.523719 1_555
Nb3_5 S0_5 2.598430 1_555
Nb3_5 S0_4 2.601705 1_555
Nb3_5 S5_5 2.677750 1_555
Nb3_6 S4_7 2.481526 1_554
Nb3_6 S4_6 2.483400 1_555
Nb3_6 S7_6 2.523719 1_555
Nb3_6 S0_6 2.598430 1_555
Nb3_6 S0_7 2.601705 1_554
Nb3_6 S5_6 2.677750 1_555
Nb3_7 S4_6 2.481526 1_555
Nb3_7 S4_7 2.483400 1_555
Nb3_7 S7_7 2.523719 1_555
Nb3_7 S0_7 2.598430 1_555
Nb3_7 S0_6 2.601705 1_555
Nb3_7 S5_7 2.677750 1_555
Nb4_0 S2_3 2.481526 1_554
Nb4_0 S2_2 2.483400 1_555
Nb4_0 S5_0 2.523719 1_555
Nb4_0 S0_0 2.598422 1_555
Nb4_0 S0_1 2.601698 1_554
Nb4_0 S6_0 2.677750 1_555
Nb4_1 S2_2 2.481526 1_555
Nb4_1 S2_3 2.483400 1_555
Nb4_1 S5_1 2.523719 1_555
Nb4_1 S0_1 2.598422 1_555
Nb4_1 S0_0 2.601698 1_555
Nb4_1 S6_1 2.677750 1_555
Nb4_2 S2_1 2.481526 1_564
Nb4_2 S2_0 2.483400 1_565
Nb4_2 S5_2 2.523719 1_555
Nb4_2 S0_2 2.598422 1_555
Nb4_2 S0_3 2.601698 1_554
Nb4_2 S6_2 2.677750 1_555
Nb4_3 S2_0 2.481526 1_565
Nb4_3 S2_1 2.483400 1_565
Nb4_3 S5_3 2.523719 1_555
Nb4_3 S0_3 2.598422 1_555
Nb4_3 S0_2 2.601698 1_555
Nb4_3 S6_3 2.677750 1_555
Nb4_4 S2_7 2.481526 1_554
Nb4_4 S2_6 2.483400 1_555
Nb4_4 S5_4 2.523719 1_555
Nb4_4 S0_4 2.598422 1_555
Nb4_4 S0_5 2.601698 1_554
Nb4_4 S6_4 2.677750 1_555
Nb4_5 S2_6 2.481526 1_555
Nb4_5 S2_7 2.483400 1_555
Nb4_5 S5_5 2.523719 1_555
Nb4_5 S0_5 2.598422 1_555
Nb4_5 S0_4 2.601698 1_555
Nb4_5 S6_5 2.677750 1_555
Nb4_6 S2_5 2.481526 1_564
Nb4_6 S2_4 2.483400 1_565
Nb4_6 S5_6 2.523719 1_555
Nb4_6 S0_6 2.598422 1_555
Nb4_6 S0_7 2.601698 1_554
Nb4_6 S6_6 2.677750 1_555
Nb4_7 S2_4 2.481526 1_565
Nb4_7 S2_5 2.483400 1_565
Nb4_7 S5_7 2.523719 1_555
Nb4_7 S0_7 2.598422 1_555
Nb4_7 S0_6 2.601698 1_555
Nb4_7 S6_7 2.677750 1_555
Nb5_0 S3_5 2.481526 1_454
Nb5_0 S3_4 2.483400 1_455
Nb5_0 S6_0 2.523719 1_555
Nb5_0 S0_0 2.598425 1_555
Nb5_0 S0_1 2.601700 1_554
Nb5_0 S7_0 2.677750 1_555
Nb5_1 S3_4 2.481526 1_455
Nb5_1 S3_5 2.483400 1_455
Nb5_1 S6_1 2.523719 1_555
Nb5_1 S0_1 2.598425 1_555
Nb5_1 S0_0 2.601700 1_555
Nb5_1 S7_1 2.677750 1_555
Nb5_2 S3_7 2.481526 1_454
Nb5_2 S3_6 2.483400 1_455
Nb5_2 S6_2 2.523719 1_555
Nb5_2 S0_2 2.598425 1_555
Nb5_2 S0_3 2.601700 1_554
Nb5_2 S7_2 2.677750 1_555
Nb5_3 S3_6 2.481526 1_455
Nb5_3 S3_7 2.483400 1_455
Nb5_3 S6_3 2.523719 1_555
Nb5_3 S0_3 2.598425 1_555
Nb5_3 S0_2 2.601700 1_555
Nb5_3 S7_3 2.677750 1_555
Nb5_4 S3_1 2.481526 1_554
Nb5_4 S3_0 2.483400 1_555
Nb5_4 S6_4 2.523719 1_555
Nb5_4 S0_4 2.598425 1_555
Nb5_4 S0_5 2.601700 1_554
Nb5_4 S7_4 2.677750 1_555
Nb5_5 S3_0 2.481526 1_555
Nb5_5 S3_1 2.483400 1_555
Nb5_5 S6_5 2.523719 1_555
Nb5_5 S0_5 2.598425 1_555
Nb5_5 S0_4 2.601700 1_555
Nb5_5 S7_5 2.677750 1_555
Nb5_6 S3_3 2.481526 1_554
Nb5_6 S3_2 2.483400 1_555
Nb5_6 S6_6 2.523719 1_555
Nb5_6 S0_6 2.598425 1_555
Nb5_6 S0_7 2.601700 1_554
Nb5_6 S7_6 2.677750 1_555
Nb5_7 S3_2 2.481526 1_555
Nb5_7 S3_3 2.483400 1_555
Nb5_7 S6_7 2.523719 1_555
Nb5_7 S0_7 2.598425 1_555
Nb5_7 S0_6 2.601700 1_555
Nb5_7 S7_7 2.677750 1_555
Sn0_0 Sn0_1 3.410852 1_554
Sn0_0 Sn0_1 3.410852 1_555
Sn0_2 Sn0_3 3.410852 1_554
Sn0_2 Sn0_3 3.410852 1_555
Sn0_4 Sn0_5 3.410852 1_554
Sn0_4 Sn0_5 3.410852 1_555
Sn0_6 Sn0_7 3.410852 1_554
Sn0_6 Sn0_7 3.410852 1_555
S2_0 Sn0_0 3.166682 1_555
S2_1 Sn0_1 3.166682 1_555
S2_2 Sn0_2 3.166682 1_555
S2_3 Sn0_3 3.166682 1_555
S2_4 Sn0_4 3.166682 1_555
S2_5 Sn0_5 3.166682 1_555
S2_6 Sn0_6 3.166682 1_555
S2_7 Sn0_7 3.166682 1_555
S3_0 Sn0_4 3.166682 1_555
S3_1 Sn0_5 3.166682 1_555
S3_2 Sn0_6 3.166682 1_555
S3_3 Sn0_7 3.166682 1_555
S3_4 Sn0_0 3.166682 1_655
S3_5 Sn0_1 3.166682 1_655
S3_6 Sn0_2 3.166682 1_655
S3_7 Sn0_3 3.166682 1_655
S4_0 Sn0_6 3.166682 1_555
S4_1 Sn0_7 3.166682 1_555
S4_2 Sn0_4 3.166682 1_565
S4_3 Sn0_5 3.166682 1_565
S4_4 Sn0_2 3.166682 1_655
S4_5 Sn0_3 3.166682 1_655
S4_6 Sn0_0 3.166682 1_665
S4_7 Sn0_1 3.166682 1_665
S5_0 Sn0_6 3.166682 1_555
S5_1 Sn0_7 3.166682 1_555
S5_2 Sn0_4 3.166682 1_565
S5_3 Sn0_5 3.166682 1_565
S5_4 Sn0_2 3.166682 1_655
S5_5 Sn0_3 3.166682 1_655
S5_6 Sn0_0 3.166682 1_665
S5_7 Sn0_1 3.166682 1_665
S6_0 Sn0_2 3.166682 1_555
S6_1 Sn0_3 3.166682 1_555
S6_2 Sn0_0 3.166682 1_565
S6_3 Sn0_1 3.166682 1_565
S6_4 Sn0_6 3.166682 1_555
S6_5 Sn0_7 3.166682 1_555
S6_6 Sn0_4 3.166682 1_565
S6_7 Sn0_5 3.166682 1_565
S7_0 Sn0_0 3.166682 1_555
S7_1 Sn0_1 3.166682 1_555
S7_2 Sn0_2 3.166682 1_555
S7_3 Sn0_3 3.166682 1_555
S7_4 Sn0_4 3.166682 1_555
S7_5 Sn0_5 3.166682 1_555
S7_6 Sn0_6 3.166682 1_555
S7_7 Sn0_7 3.166682 1_555
