# generated using pymatgen
data_CeMg14Cd
_symmetry_space_group_name_H-M   'P 1'
_cell_length_a   6.41704983
_cell_length_b   6.41704930
_cell_length_c   10.17984403
_cell_angle_alpha   90.00000000
_cell_angle_beta   90.00000000
_cell_angle_gamma   120.00000276
_symmetry_Int_Tables_number   1
_chemical_formula_structural   CeMg14Cd
_chemical_formula_sum   'Ce1 Mg14 Cd1'
_cell_volume   363.03001321
_cell_formula_units_Z   1
loop_
 _symmetry_equiv_pos_site_id
 _symmetry_equiv_pos_as_xyz
  1  'x, y, z'
loop_
 _atom_site_type_symbol
 _atom_site_label
 _atom_site_symmetry_multiplicity
 _atom_site_fract_x
 _atom_site_fract_y
 _atom_site_fract_z
 _atom_site_occupancy
  Ce  Ce0  1  0.16666700  0.33333300  0.12500000  1
  Mg  Mg0  1  0.18352628  0.84176264  0.12500000  1
  Mg  Mg1  1  0.15950080  0.82974990  0.62500000  1
  Mg  Mg2  1  0.65823736  0.31647372  0.12500000  1
  Mg  Mg3  1  0.67025010  0.34049920  0.62500000  1
  Mg  Mg4  1  0.65823736  0.84176264  0.12500000  1
  Mg  Mg5  1  0.67025010  0.82974990  0.62500000  1
  Mg  Mg6  1  0.33396840  0.16603160  0.38446081  1
  Mg  Mg7  1  0.33396840  0.16603160  0.86553919  1
  Mg  Mg8  1  0.33396840  0.66793779  0.38446081  1
  Mg  Mg9  1  0.33396840  0.66793779  0.86553919  1
  Mg  Mg10  1  0.83206221  0.16603160  0.38446081  1
  Mg  Mg11  1  0.83206221  0.16603160  0.86553919  1
  Mg  Mg12  1  0.83333300  0.66666700  0.36207772  1
  Mg  Mg13  1  0.83333300  0.66666700  0.88792228  1
  Cd  Cd0  1  0.16666700  0.33333300  0.62500000  1
loop_
_geom_bond_atom_site_label_1
_geom_bond_atom_site_label_2
_geom_bond_distance
_geom_bond_site_symmetry_2
Ce0 Mg4 3.209892 1_555
Ce0 Mg0 3.209892 1_555
Ce0 Mg4 3.209892 1_445
Ce0 Mg0 3.209892 1_545
Ce0 Mg2 3.209893 1_455
Ce0 Mg2 3.209893 1_555
Ce0 Mg6 3.230177 1_555
Ce0 Mg7 3.230177 1_554
Ce0 Mg9 3.230183 1_554
Ce0 Mg8 3.230183 1_555
Ce0 Mg10 3.230183 1_455
Ce0 Mg11 3.230183 1_454
Mg0 Mg2 3.046244 1_565
Mg0 Mg4 3.046245 1_555
Mg0 Mg13 3.100327 1_454
Mg0 Mg12 3.100327 1_455
Mg0 Mg9 3.198336 1_554
Mg0 Mg8 3.198336 1_555
Mg0 Mg6 3.198342 1_565
Mg0 Mg7 3.198342 1_564
Mg0 Mg2 3.370805 1_455
Mg0 Mg4 3.370805 1_455
Mg1 Mg9 3.080587 1_555
Mg1 Mg8 3.080587 1_555
Mg1 Mg7 3.080594 1_565
Mg1 Mg6 3.080594 1_565
Mg1 Mg3 3.139546 1_455
Mg1 Mg5 3.139546 1_455
Mg1 Mg12 3.232536 1_455
Mg1 Mg13 3.232536 1_455
Mg1 Mg3 3.277503 1_565
Mg1 Mg5 3.277504 1_555
Mg2 Mg4 3.046244 1_545
Mg2 Mg6 3.198342 1_555
Mg2 Mg7 3.198342 1_554
Mg2 Mg4 3.370805 1_555
Mg3 Mg6 3.080594 1_555
Mg3 Mg7 3.080594 1_555
Mg3 Mg5 3.139546 1_555
Mg3 Mg5 3.277503 1_545
Mg4 Mg8 3.198342 1_555
Mg4 Mg9 3.198342 1_554
Mg5 Mg8 3.080594 1_555
Mg5 Mg9 3.080594 1_555
Mg6 Mg8 3.196293 1_545
Mg6 Mg8 3.220757 1_555
Mg7 Mg9 3.196293 1_545
Mg7 Mg9 3.220757 1_555
Mg10 Mg3 3.080587 1_555
Mg10 Mg5 3.080594 1_545
Mg10 Mg8 3.196293 1_545
Mg10 Mg6 3.196293 1_555
Mg10 Mg2 3.198336 1_555
Mg10 Mg4 3.198342 1_545
Mg10 Mg12 3.216613 1_545
Mg10 Mg12 3.216613 1_555
Mg10 Mg8 3.220757 1_655
Mg10 Mg6 3.220757 1_655
Mg11 Mg3 3.080587 1_555
Mg11 Mg5 3.080594 1_545
Mg11 Mg9 3.196293 1_545
Mg11 Mg7 3.196293 1_555
Mg11 Mg2 3.198336 1_556
Mg11 Mg4 3.198342 1_546
Mg11 Mg13 3.216613 1_545
Mg11 Mg13 3.216613 1_555
Mg11 Mg9 3.220757 1_655
Mg11 Mg7 3.220757 1_655
Mg12 Mg4 3.100320 1_555
Mg12 Mg2 3.100326 1_555
Mg12 Mg6 3.216613 1_555
Mg12 Mg6 3.216613 1_665
Mg12 Mg8 3.216613 1_555
Mg12 Mg8 3.216613 1_655
Mg12 Mg5 3.232530 1_555
Mg12 Mg3 3.232536 1_555
Mg13 Mg4 3.100320 1_556
Mg13 Mg2 3.100326 1_556
Mg13 Mg7 3.216613 1_555
Mg13 Mg7 3.216613 1_665
Mg13 Mg9 3.216613 1_555
Mg13 Mg9 3.216613 1_655
Mg13 Mg5 3.232530 1_555
Mg13 Mg3 3.232536 1_555
Cd0 Mg7 3.074675 1_555
Cd0 Mg6 3.074675 1_555
Cd0 Mg9 3.074681 1_555
Cd0 Mg8 3.074681 1_555
Cd0 Mg10 3.074681 1_455
Cd0 Mg11 3.074681 1_455
Cd0 Mg5 3.208772 1_445
Cd0 Mg1 3.208772 1_545
Cd0 Mg5 3.208772 1_555
Cd0 Mg1 3.208772 1_555
Cd0 Mg3 3.208772 1_555
Cd0 Mg3 3.208772 1_455
