# generated using pymatgen
data_Lu5In3
_symmetry_space_group_name_H-M   'P 1'
_cell_length_a   6.50061001
_cell_length_b   8.85647000
_cell_length_c   8.86658974
_cell_angle_alpha   119.96225823
_cell_angle_beta   90.00258631
_cell_angle_gamma   89.99483651
_symmetry_Int_Tables_number   1
_chemical_formula_structural   Lu5In3
_chemical_formula_sum   'Lu10 In6'
_cell_volume   442.24919728
_cell_formula_units_Z   2
loop_
 _symmetry_equiv_pos_site_id
 _symmetry_equiv_pos_as_xyz
  1  'x, y, z'
loop_
 _atom_site_type_symbol
 _atom_site_label
 _atom_site_symmetry_multiplicity
 _atom_site_fract_x
 _atom_site_fract_y
 _atom_site_fract_z
 _atom_site_occupancy
  Lu  Lu0  1  0.49999200  0.33330500  0.66665600  1
  Lu  Lu1  1  0.49999200  0.66664900  0.33334400  1
  Lu  Lu2  1  0.00002200  0.66671800  0.33336900  1
  Lu  Lu3  1  0.00002200  0.33334900  0.66663100  1
  Lu  Lu4  1  0.75002900  0.24909300  0.00000000  1
  Lu  Lu5  1  0.75002600  0.75084700  0.75088200  1
  Lu  Lu6  1  0.75002600  0.99996500  0.24911800  1
  Lu  Lu7  1  0.25002300  0.75089800  0.00000000  1
  Lu  Lu8  1  0.25001700  0.24915200  0.24910900  1
  Lu  Lu9  1  0.25001700  0.00004300  0.75089100  1
  In  In0  1  0.74994700  0.60729800  0.00000000  1
  In  In1  1  0.74996800  0.39260300  0.39266000  1
  In  In2  1  0.74996800  0.99994300  0.60734000  1
  In  In3  1  0.24997100  0.39268200  0.00000000  1
  In  In4  1  0.24999100  0.60737300  0.60728800  1
  In  In5  1  0.24999100  0.00008500  0.39271200  1
loop_
_geom_bond_atom_site_label_1
_geom_bond_atom_site_label_2
_geom_bond_distance
_geom_bond_site_symmetry_2
In0 Lu6 3.049619 1_555
In0 Lu5 3.049619 1_554
In0 Lu4 3.172432 1_555
In0 Lu0 3.178150 1_554
In0 Lu1 3.178151 1_555
In0 Lu2 3.178467 1_655
In0 Lu3 3.178467 1_654
In0 Lu7 3.489695 1_555
In0 Lu7 3.490829 1_655
In1 Lu6 3.048170 1_545
In1 Lu4 3.052322 1_555
In1 Lu1 3.175243 1_555
In1 Lu2 3.176147 1_655
In1 Lu5 3.176305 1_555
In1 Lu3 3.176703 1_655
In1 Lu0 3.177005 1_555
In1 Lu8 3.490229 1_555
In1 Lu8 3.490716 1_655
In2 Lu5 3.048170 1_555
In2 Lu4 3.052322 1_566
In2 Lu0 3.175243 1_565
In2 Lu3 3.176147 1_665
In2 Lu6 3.176305 1_555
In2 Lu2 3.176703 1_655
In2 Lu1 3.177005 1_555
In2 Lu9 3.490229 1_565
In2 Lu9 3.490716 1_665
In3 Lu9 3.049413 1_554
In3 Lu8 3.049414 1_555
In3 Lu7 3.172529 1_555
In3 Lu3 3.178278 1_554
In3 Lu2 3.178278 1_555
In3 Lu1 3.178301 1_555
In3 Lu0 3.178301 1_554
In3 Lu4 3.489982 1_455
In3 Lu4 3.490471 1_555
In4 Lu9 3.048351 1_565
In4 Lu7 3.052731 1_556
In4 Lu3 3.175434 1_555
In4 Lu0 3.175743 1_555
In4 Lu8 3.176012 1_555
In4 Lu2 3.176471 1_555
In4 Lu1 3.176591 1_555
In4 Lu5 3.490314 1_455
In4 Lu5 3.490844 1_555
In5 Lu8 3.048352 1_555
In5 Lu7 3.052731 1_545
In5 Lu2 3.175433 1_545
In5 Lu1 3.175743 1_545
In5 Lu9 3.176012 1_555
In5 Lu3 3.176471 1_555
In5 Lu0 3.176590 1_555
In5 Lu6 3.490314 1_445
In5 Lu6 3.490844 1_545
