# generated using pymatgen
data_LuGa
_symmetry_space_group_name_H-M   'P 1'
_cell_length_a   3.96097426
_cell_length_b   4.22494170
_cell_length_c   5.65691412
_cell_angle_alpha   111.92741875
_cell_angle_beta   90.00000000
_cell_angle_gamma   90.00000000
_symmetry_Int_Tables_number   1
_chemical_formula_structural   LuGa
_chemical_formula_sum   'Lu2 Ga2'
_cell_volume   87.81931783
_cell_formula_units_Z   2
loop_
 _symmetry_equiv_pos_site_id
 _symmetry_equiv_pos_as_xyz
  1  'x, y, z'
loop_
 _atom_site_type_symbol
 _atom_site_label
 _atom_site_symmetry_multiplicity
 _atom_site_fract_x
 _atom_site_fract_y
 _atom_site_fract_z
 _atom_site_occupancy
  Lu  Lu0  1  0.25000000  0.13870754  0.27741407  1
  Lu  Lu1  1  0.75000000  0.86129246  0.72258593  1
  Ga  Ga0  1  0.25000000  0.42165357  0.84330614  1
  Ga  Ga1  1  0.75000000  0.57834643  0.15669386  1
loop_
_geom_bond_atom_site_label_1
_geom_bond_atom_site_label_2
_geom_bond_distance
_geom_bond_site_symmetry_2
Ga0 Ga1 2.574277 1_456
Ga0 Ga1 2.574277 1_556
Ga0 Lu1 2.964147 1_555
Ga0 Lu1 2.964147 1_455
Ga0 Lu1 2.964153 1_445
Ga0 Lu1 2.964153 1_545
Ga0 Lu0 2.969620 1_555
Ga0 Lu0 3.106781 1_566
Ga0 Lu0 3.106781 1_556
Ga1 Lu0 2.964147 1_555
Ga1 Lu0 2.964147 1_655
Ga1 Lu0 2.964153 1_565
Ga1 Lu0 2.964153 1_665
Ga1 Lu1 2.969620 1_555
Ga1 Lu1 3.106781 1_544
Ga1 Lu1 3.106781 1_554
