# generated using pymatgen
data_Mg14TiSnO16
_symmetry_space_group_name_H-M   'P 1'
_cell_length_a   8.72050901
_cell_length_b   8.75670452
_cell_length_c   4.35613098
_cell_angle_alpha   90.00000000
_cell_angle_beta   90.00000000
_cell_angle_gamma   90.00000000
_symmetry_Int_Tables_number   1
_chemical_formula_structural   Mg14TiSnO16
_chemical_formula_sum   'Mg14 Ti1 Sn1 O16'
_cell_volume   332.64688443
_cell_formula_units_Z   1
loop_
 _symmetry_equiv_pos_site_id
 _symmetry_equiv_pos_as_xyz
  1  'x, y, z'
loop_
 _atom_site_type_symbol
 _atom_site_label
 _atom_site_symmetry_multiplicity
 _atom_site_fract_x
 _atom_site_fract_y
 _atom_site_fract_z
 _atom_site_occupancy
  Mg  Mg0  1  0.50000000  -0.00000000  -0.00000000  1
  Mg  Mg1  1  0.50000000  0.50000000  -0.00000000  1
  Mg  Mg2  1  -0.00000000  0.25590732  0.50000000  1
  Mg  Mg3  1  -0.00000000  0.74409268  0.50000000  1
  Mg  Mg4  1  0.50000000  0.25072379  0.50000000  1
  Mg  Mg5  1  0.50000000  0.74927621  0.50000000  1
  Mg  Mg6  1  0.25989980  -0.00000000  0.50000000  1
  Mg  Mg7  1  0.25353666  0.50000000  0.50000000  1
  Mg  Mg8  1  0.74010020  -0.00000000  0.50000000  1
  Mg  Mg9  1  0.74646334  0.50000000  0.50000000  1
  Mg  Mg10  1  0.25562292  0.25362124  0.00000000  1
  Mg  Mg11  1  0.25562292  0.74637876  0.00000000  1
  Mg  Mg12  1  0.74437708  0.25362124  0.00000000  1
  Mg  Mg13  1  0.74437708  0.74637876  0.00000000  1
  Ti  Ti0  1  -0.00000000  0.50000000  -0.00000000  1
  Sn  Sn0  1  -0.00000000  -0.00000000  -0.00000000  1
  O  O0  1  0.27298890  -0.00000000  -0.00000000  1
  O  O1  1  0.25766751  0.50000000  -0.00000000  1
  O  O2  1  0.72701110  -0.00000000  0.00000000  1
  O  O3  1  0.74233249  0.50000000  -0.00000000  1
  O  O4  1  0.24865589  0.25015258  0.50000000  1
  O  O5  1  0.24865589  0.74984742  0.50000000  1
  O  O6  1  0.75134411  0.25015258  0.50000000  1
  O  O7  1  0.75134411  0.74984742  0.50000000  1
  O  O8  1  -0.00000000  -0.00000000  0.50000000  1
  O  O9  1  -0.00000000  0.50000000  0.50000000  1
  O  O10  1  0.50000000  -0.00000000  0.50000000  1
  O  O11  1  0.50000000  0.50000000  0.50000000  1
  O  O12  1  -0.00000000  0.26558199  -0.00000000  1
  O  O13  1  -0.00000000  0.73441801  -0.00000000  1
  O  O14  1  0.50000000  0.25370663  0.00000000  1
  O  O15  1  0.50000000  0.74629337  -0.00000000  1
loop_
_geom_bond_atom_site_label_1
_geom_bond_atom_site_label_2
_geom_bond_distance
_geom_bond_site_symmetry_2
Mg0 O0 1.979652 1_555
Mg0 O2 1.979652 1_555
Mg0 O10 2.178065 1_555
Mg0 O10 2.178065 1_554
Mg0 O14 2.221634 1_555
Mg0 O15 2.221634 1_545
Mg1 O3 2.113263 1_555
Mg1 O1 2.113263 1_555
Mg1 O15 2.156718 1_555
Mg1 O14 2.156718 1_555
Mg1 O11 2.178065 1_554
Mg1 O11 2.178065 1_555
Mg2 O9 2.137447 1_555
Mg2 O4 2.168991 1_555
Mg2 O6 2.168991 1_455
Mg2 O12 2.179712 1_556
Mg2 O12 2.179712 1_555
Mg2 O8 2.240905 1_555
Mg3 O9 2.137447 1_555
Mg3 O5 2.168991 1_555
Mg3 O7 2.168991 1_455
Mg3 O13 2.179712 1_555
Mg3 O13 2.179712 1_556
Mg3 O8 2.240905 1_565
Mg4 O14 2.178222 1_556
Mg4 O14 2.178222 1_555
Mg4 O11 2.182838 1_555
Mg4 O4 2.191854 1_555
Mg4 O6 2.191854 1_555
Mg4 O10 2.195514 1_555
Mg5 O15 2.178222 1_556
Mg5 O15 2.178222 1_555
Mg5 O11 2.182838 1_555
Mg5 O5 2.191854 1_555
Mg5 O7 2.191854 1_555
Mg5 O10 2.195514 1_565
Mg6 O10 2.093796 1_555
Mg6 O0 2.181054 1_555
Mg6 O0 2.181054 1_556
Mg6 O5 2.192706 1_545
Mg6 O4 2.192706 1_555
Mg6 O8 2.266459 1_555
Mg7 O11 2.149286 1_555
Mg7 O1 2.178363 1_555
Mg7 O1 2.178363 1_556
Mg7 O4 2.188254 1_555
Mg7 O5 2.188254 1_555
Mg7 O9 2.210969 1_555
Mg8 O10 2.093796 1_555
Mg8 O2 2.181054 1_556
Mg8 O2 2.181054 1_555
Mg8 O7 2.192706 1_545
Mg8 O6 2.192706 1_555
Mg8 O8 2.266459 1_655
Mg9 O11 2.149286 1_555
Mg9 O3 2.178363 1_556
Mg9 O3 2.178363 1_555
Mg9 O6 2.188254 1_555
Mg9 O7 2.188254 1_555
Mg9 O9 2.210969 1_655
Mg10 O14 2.131093 1_555
Mg10 O1 2.157540 1_555
Mg10 O4 2.179124 1_554
Mg10 O4 2.179124 1_555
Mg10 O0 2.226044 1_555
Mg10 O12 2.231621 1_555
Mg11 O15 2.131093 1_555
Mg11 O1 2.157540 1_555
Mg11 O5 2.179124 1_555
Mg11 O5 2.179124 1_554
Mg11 O0 2.226044 1_565
Mg11 O13 2.231621 1_555
Mg12 O14 2.131093 1_555
Mg12 O3 2.157540 1_555
Mg12 O6 2.179124 1_555
Mg12 O6 2.179124 1_554
Mg12 O2 2.226044 1_555
Mg12 O12 2.231621 1_655
Mg13 O15 2.131093 1_555
Mg13 O3 2.157540 1_555
Mg13 O7 2.179124 1_555
Mg13 O7 2.179124 1_554
Mg13 O2 2.226044 1_565
Mg13 O13 2.231621 1_655
O0 Sn0 2.380602 1_555
O1 Ti0 2.246992 1_555
O2 Sn0 2.380602 1_655
O3 Ti0 2.246992 1_655
O8 Sn0 2.178065 1_556
O8 Sn0 2.178065 1_555
O9 Ti0 2.178065 1_556
O9 Ti0 2.178065 1_555
O12 Ti0 2.052729 1_555
O12 Sn0 2.325623 1_555
O13 Ti0 2.052729 1_555
O13 Sn0 2.325623 1_565
