# generated using pymatgen
data_LiMg14B
_symmetry_space_group_name_H-M   'P 1'
_cell_length_a   6.23575958
_cell_length_b   6.31116643
_cell_length_c   10.00454365
_cell_angle_alpha   90.00000000
_cell_angle_beta   90.00000000
_cell_angle_gamma   120.40083956
_symmetry_Int_Tables_number   1
_chemical_formula_structural   LiMg14B
_chemical_formula_sum   'Li1 Mg14 B1'
_cell_volume   339.59284505
_cell_formula_units_Z   1
loop_
 _symmetry_equiv_pos_site_id
 _symmetry_equiv_pos_as_xyz
  1  'x, y, z'
loop_
 _atom_site_type_symbol
 _atom_site_label
 _atom_site_symmetry_multiplicity
 _atom_site_fract_x
 _atom_site_fract_y
 _atom_site_fract_z
 _atom_site_occupancy
  Li  Li0  1  0.17876949  0.33938425  0.12500000  1
  Mg  Mg0  1  0.17232583  0.33616242  0.62500000  1
  Mg  Mg1  1  0.16837706  0.83418803  0.62500000  1
  Mg  Mg2  1  0.72957596  0.36744404  0.12500000  1
  Mg  Mg3  1  0.65980624  0.33202012  0.62500000  1
  Mg  Mg4  1  0.72957596  0.86213093  0.12500000  1
  Mg  Mg5  1  0.65980624  0.82778512  0.62500000  1
  Mg  Mg6  1  0.31591897  0.14573073  0.34271586  1
  Mg  Mg7  1  0.31591897  0.14573073  0.90728414  1
  Mg  Mg8  1  0.31591897  0.67018924  0.34271586  1
  Mg  Mg9  1  0.31591897  0.67018924  0.90728414  1
  Mg  Mg10  1  0.82958094  0.16479097  0.37988587  1
  Mg  Mg11  1  0.82958094  0.16479097  0.87011413  1
  Mg  Mg12  1  0.82995338  0.66497719  0.36948503  1
  Mg  Mg13  1  0.82995338  0.66497719  0.88051497  1
  B  B0  1  0.11901869  0.80950884  0.12500000  1
loop_
_geom_bond_atom_site_label_1
_geom_bond_atom_site_label_2
_geom_bond_distance
_geom_bond_site_symmetry_2
Li0 Mg7 2.833259 1_554
Li0 Mg6 2.833259 1_555
Li0 Mg9 2.833266 1_554
Li0 Mg8 2.833266 1_555
Li0 Mg4 2.894711 1_445
Li0 Mg2 2.894711 1_455
Li0 Mg10 3.166975 1_455
Li0 Mg11 3.166975 1_454
Li0 Mg4 3.348566 1_555
Li0 Mg2 3.348566 1_555
Mg0 Mg5 3.053123 1_555
Mg0 Mg3 3.053123 1_555
Mg0 Mg10 3.067854 1_455
Mg0 Mg11 3.067854 1_455
Mg0 Mg1 3.155655 1_555
Mg0 Mg1 3.155655 1_545
Mg0 Mg5 3.182799 1_445
Mg0 Mg3 3.182799 1_455
Mg0 Mg7 3.363188 1_555
Mg0 Mg6 3.363188 1_555
Mg0 Mg8 3.363194 1_555
Mg0 Mg9 3.363194 1_555
Mg1 Mg3 3.085080 1_565
Mg1 Mg5 3.085080 1_555
Mg1 Mg13 3.138112 1_455
Mg1 Mg12 3.138112 1_455
Mg1 Mg3 3.151069 1_455
Mg1 Mg5 3.151069 1_455
Mg1 Mg8 3.295025 1_555
Mg1 Mg9 3.295025 1_555
Mg1 Mg7 3.295031 1_565
Mg1 Mg6 3.295031 1_565
Mg3 Mg5 3.128855 1_555
Mg3 Mg5 3.182311 1_545
Mg3 Mg6 3.377090 1_555
Mg3 Mg7 3.377090 1_555
Mg5 Mg8 3.377090 1_555
Mg5 Mg9 3.377090 1_555
Mg10 Mg2 3.055238 1_555
Mg10 Mg4 3.055244 1_545
Mg10 Mg3 3.062529 1_555
Mg10 Mg5 3.062536 1_545
Mg10 Mg8 3.117558 1_655
Mg10 Mg6 3.117558 1_655
Mg10 Mg12 3.157299 1_555
Mg10 Mg12 3.157299 1_545
Mg10 Mg8 3.165828 1_545
Mg10 Mg6 3.165828 1_555
Mg11 Mg2 3.055238 1_556
Mg11 Mg4 3.055244 1_546
Mg11 Mg3 3.062529 1_555
Mg11 Mg5 3.062536 1_545
Mg11 Mg9 3.117558 1_655
Mg11 Mg7 3.117558 1_655
Mg11 Mg13 3.157299 1_555
Mg11 Mg13 3.157299 1_545
Mg11 Mg9 3.165828 1_545
Mg11 Mg7 3.165828 1_555
Mg12 Mg4 2.951434 1_555
Mg12 Mg2 2.951441 1_555
Mg12 Mg6 3.025728 1_665
Mg12 Mg8 3.025728 1_655
Mg12 Mg5 3.133620 1_555
Mg12 Mg3 3.133627 1_555
Mg12 Mg6 3.233276 1_555
Mg12 Mg8 3.233276 1_555
Mg13 Mg4 2.951434 1_556
Mg13 Mg2 2.951441 1_556
Mg13 Mg7 3.025728 1_665
Mg13 Mg9 3.025728 1_655
Mg13 Mg5 3.133620 1_555
Mg13 Mg3 3.133627 1_555
Mg13 Mg7 3.233276 1_555
Mg13 Mg9 3.233276 1_555
B0 Mg2 2.612285 1_455
B0 Mg4 2.612285 1_455
B0 Mg9 2.849146 1_554
B0 Mg8 2.849146 1_555
B0 Mg6 2.849153 1_565
B0 Mg7 2.849153 1_564
B0 Mg12 2.898246 1_455
B0 Mg13 2.898246 1_454
