# generated using pymatgen
data_Mg(AgO2)2
_symmetry_space_group_name_H-M   'P 1'
_cell_length_a   5.53002083
_cell_length_b   5.53002083
_cell_length_c   9.88214300
_cell_angle_alpha   90.00000000
_cell_angle_beta   90.00000000
_cell_angle_gamma   147.46139028
_symmetry_Int_Tables_number   1
_chemical_formula_structural   Mg(AgO2)2
_chemical_formula_sum   'Mg2 Ag4 O8'
_cell_volume   162.54747587
_cell_formula_units_Z   2
loop_
 _symmetry_equiv_pos_site_id
 _symmetry_equiv_pos_as_xyz
  1  'x, y, z'
loop_
 _atom_site_type_symbol
 _atom_site_label
 _atom_site_symmetry_multiplicity
 _atom_site_fract_x
 _atom_site_fract_y
 _atom_site_fract_z
 _atom_site_occupancy
  Mg  Mg0  1  0.60937100  0.39062900  0.75000000  1
  Mg  Mg1  1  0.39062900  0.60937100  0.25000000  1
  Ag  Ag0  1  0.13139000  0.86861000  0.07282600  1
  Ag  Ag1  1  0.86861000  0.13139000  0.92717400  1
  Ag  Ag2  1  0.13139000  0.86861000  0.42717400  1
  Ag  Ag3  1  0.86861000  0.13139000  0.57282600  1
  O  O0  1  0.78903200  0.21096800  0.37851800  1
  O  O1  1  0.21096800  0.78903200  0.62148200  1
  O  O2  1  0.21096800  0.78903200  0.87851800  1
  O  O3  1  0.78903200  0.21096800  0.12148200  1
  O  O4  1  0.02511200  0.97488800  0.25000000  1
  O  O5  1  0.97488800  0.02511200  0.75000000  1
  O  O6  1  0.50000000  0.50000000  0.00000000  1
  O  O7  1  0.50000000  0.50000000  0.50000000  1
loop_
_geom_bond_atom_site_label_1
_geom_bond_atom_site_label_2
_geom_bond_distance
_geom_bond_site_symmetry_2
Mg0 O5 2.106860 1_455
Mg0 O5 2.106860 1_565
Mg0 O1 2.275233 1_655
Mg0 O2 2.275233 1_655
Mg0 O2 2.275233 1_545
Mg0 O1 2.275233 1_545
Mg1 O4 2.106860 1_655
Mg1 O4 2.106860 1_545
Mg1 O0 2.275233 1_565
Mg1 O3 2.275233 1_455
Mg1 O0 2.275233 1_455
Mg1 O3 2.275233 1_565
Ag0 O4 2.082960 1_555
Ag0 O2 2.097840 1_554
Ag0 O6 2.205470 1_455
Ag0 O6 2.205470 1_565
Ag0 O3 2.330808 1_455
Ag0 O3 2.330808 1_565
Ag1 O5 2.082960 1_555
Ag1 O3 2.097840 1_556
Ag1 O6 2.205470 1_546
Ag1 O6 2.205470 1_656
Ag1 O2 2.330808 1_655
Ag1 O2 2.330808 1_545
Ag2 O4 2.082960 1_555
Ag2 O1 2.097840 1_555
Ag2 O7 2.205470 1_455
Ag2 O7 2.205470 1_565
Ag2 O0 2.330808 1_455
Ag2 O0 2.330808 1_565
Ag3 O5 2.082960 1_555
Ag3 O0 2.097840 1_555
Ag3 O7 2.205470 1_545
Ag3 O7 2.205470 1_655
Ag3 O1 2.330808 1_655
Ag3 O1 2.330808 1_545
