# generated using pymatgen
data_U2As3Se
_symmetry_space_group_name_H-M   'P 1'
_cell_length_a   3.97396108
_cell_length_b   3.97396317
_cell_length_c   8.50462702
_cell_angle_alpha   90.00000000
_cell_angle_beta   90.00000000
_cell_angle_gamma   90.00000000
_symmetry_Int_Tables_number   1
_chemical_formula_structural   U2As3Se
_chemical_formula_sum   'U2 As3 Se1'
_cell_volume   134.30825889
_cell_formula_units_Z   1
loop_
 _symmetry_equiv_pos_site_id
 _symmetry_equiv_pos_as_xyz
  1  'x, y, z'
loop_
 _atom_site_type_symbol
 _atom_site_label
 _atom_site_symmetry_multiplicity
 _atom_site_fract_x
 _atom_site_fract_y
 _atom_site_fract_z
 _atom_site_occupancy
  U  U0  1  0.50000000  0.50000000  0.72600920  1
  U  U1  1  0.00000000  0.00000000  0.27614890  1
  As  As0  1  0.50000000  0.00000000  0.00046078  1
  As  As1  1  0.00000000  0.50000000  0.00046078  1
  As  As2  1  0.50000000  0.50000000  0.36545780  1
  Se  Se0  1  0.00000000  0.00000000  0.63146155  1
loop_
_geom_bond_atom_site_label_1
_geom_bond_atom_site_label_2
_geom_bond_distance
_geom_bond_site_symmetry_2
As0 As1 2.810016 1_555
As0 As1 2.810016 1_545
As0 As1 2.810016 1_655
As0 As1 2.810016 1_645
As0 U0 3.065315 1_544
As0 U0 3.065315 1_554
As0 U1 3.073330 1_655
As0 U1 3.073330 1_555
As1 U0 3.065315 1_554
As1 U0 3.065315 1_454
As1 U1 3.073331 1_555
As1 U1 3.073331 1_565
As2 U1 2.910857 1_655
As2 U1 2.910857 1_665
As2 U1 2.910857 1_555
As2 U1 2.910857 1_565
As2 U0 3.066355 1_555
Se0 U0 2.922799 1_545
Se0 U0 2.922799 1_555
Se0 U0 2.922799 1_445
Se0 U0 2.922799 1_455
Se0 U1 3.021802 1_555
