# generated using pymatgen
data_Co(HO)2
_symmetry_space_group_name_H-M   'P 1'
_cell_length_a   3.17353949
_cell_length_b   5.95478676
_cell_length_c   5.61292516
_cell_angle_alpha   122.64498192
_cell_angle_beta   90.92543890
_cell_angle_gamma   83.69663290
_symmetry_Int_Tables_number   1
_chemical_formula_structural   Co(HO)2
_chemical_formula_sum   'Co2 H4 O4'
_cell_volume   88.65782314
_cell_formula_units_Z   2
loop_
 _symmetry_equiv_pos_site_id
 _symmetry_equiv_pos_as_xyz
  1  'x, y, z'
loop_
 _atom_site_type_symbol
 _atom_site_label
 _atom_site_symmetry_multiplicity
 _atom_site_fract_x
 _atom_site_fract_y
 _atom_site_fract_z
 _atom_site_occupancy
  Co  Co0  1  0.98225700  0.97568700  0.02984500  1
  Co  Co1  1  0.48220200  0.97591100  0.52994900  1
  H  H0  1  0.53694500  0.57175400  0.95794700  1
  H  H1  1  0.03835400  0.57190200  0.45783100  1
  H  H2  1  0.90760700  0.38050400  0.62095000  1
  H  H3  1  0.40977200  0.38039000  0.12145100  1
  O  O0  1  0.52101200  0.76665000  0.07352100  1
  O  O1  1  0.02137600  0.76683000  0.57370600  1
  O  O2  1  0.94107200  0.18640100  0.49016400  1
  O  O3  1  0.44156300  0.18636400  0.99028500  1
loop_
_geom_bond_atom_site_label_1
_geom_bond_atom_site_label_2
_geom_bond_distance
_geom_bond_site_symmetry_2
Co0 O0 2.093127 1_655
Co0 O3 2.093575 1_564
Co0 O3 2.111960 1_664
Co0 O0 2.119697 1_555
Co0 O1 2.158295 1_654
Co0 O2 2.178176 1_565
Co1 O1 2.094466 1_655
Co1 O2 2.094511 1_465
Co1 O2 2.110655 1_565
Co1 O1 2.119083 1_555
Co1 O0 2.159536 1_555
Co1 O3 2.178343 1_565
H0 O0 0.972738 1_556
H1 O1 0.972718 1_555
H2 O2 0.972777 1_555
H3 O3 0.972735 1_554
