# generated using pymatgen
data_La2Sn3(PbS4)3
_symmetry_space_group_name_H-M   'P 1'
_cell_length_a   4.02560900
_cell_length_b   11.76650100
_cell_length_c   20.70956000
_cell_angle_alpha   90.00000000
_cell_angle_beta   90.00000000
_cell_angle_gamma   90.00000000
_symmetry_Int_Tables_number   1
_chemical_formula_structural   La2Sn3(PbS4)3
_chemical_formula_sum   'La4 Sn6 Pb6 S24'
_cell_volume   980.95661081
_cell_formula_units_Z   2
loop_
 _symmetry_equiv_pos_site_id
 _symmetry_equiv_pos_as_xyz
  1  'x, y, z'
loop_
 _atom_site_type_symbol
 _atom_site_label
 _atom_site_symmetry_multiplicity
 _atom_site_fract_x
 _atom_site_fract_y
 _atom_site_fract_z
 _atom_site_occupancy
  La  La0  1  0.50000000  0.65325300  0.41249500  1
  La  La1  1  0.50000000  0.15325300  0.58750500  1
  La  La2  1  0.50000000  0.82420300  0.89483000  1
  La  La3  1  0.50000000  0.32420300  0.10517000  1
  Sn  Sn0  1  0.00000000  0.00129300  0.74983200  1
  Sn  Sn1  1  0.00000000  0.50129300  0.25016800  1
  Sn  Sn2  1  0.00000000  0.51773400  0.91140600  1
  Sn  Sn3  1  0.00000000  0.01773400  0.08859400  1
  Sn  Sn4  1  0.00000000  0.99487200  0.42295000  1
  Sn  Sn5  1  0.00000000  0.49487200  0.57705000  1
  Pb  Pb0  1  0.50000000  0.40371600  0.74332800  1
  Pb  Pb1  1  0.50000000  0.90371600  0.25667200  1
  Pb  Pb2  1  0.50000000  0.19753500  0.91255000  1
  Pb  Pb3  1  0.50000000  0.69753500  0.08745000  1
  Pb  Pb4  1  0.50000000  0.77145600  0.62302400  1
  Pb  Pb5  1  0.50000000  0.27145600  0.37697600  1
  S  S0  1  0.00000000  0.99935900  0.87420300  1
  S  S1  1  0.00000000  0.49935900  0.12579700  1
  S  S2  1  0.00000000  0.97916500  0.62739500  1
  S  S3  1  0.00000000  0.47916500  0.37260500  1
  S  S4  1  0.00000000  0.68401500  0.51440500  1
  S  S5  1  0.00000000  0.18401500  0.48559500  1
  S  S6  1  0.50000000  0.64370300  0.25658400  1
  S  S7  1  0.50000000  0.14370300  0.74341600  1
  S  S8  1  0.50000000  0.85114800  0.75492800  1
  S  S9  1  0.50000000  0.35114800  0.24507200  1
  S  S10  1  0.50000000  0.59544000  0.84060600  1
  S  S11  1  0.50000000  0.09544000  0.15939400  1
  S  S12  1  0.50000000  0.44159200  0.98092600  1
  S  S13  1  0.50000000  0.94159200  0.01907400  1
  S  S14  1  0.50000000  0.93343500  0.48609200  1
  S  S15  1  0.50000000  0.43343500  0.51390800  1
  S  S16  1  0.00000000  0.33771800  0.84276200  1
  S  S17  1  0.00000000  0.83771800  0.15723800  1
  S  S18  1  0.00000000  0.70723100  0.97274200  1
  S  S19  1  0.00000000  0.20723100  0.02725800  1
  S  S20  1  0.00000000  0.81000300  0.35619300  1
  S  S21  1  0.00000000  0.31000300  0.64380700  1
  S  S22  1  0.00000000  0.60242800  0.67764400  1
  S  S23  1  0.00000000  0.10242800  0.32235600  1
loop_
_geom_bond_atom_site_label_1
_geom_bond_atom_site_label_2
_geom_bond_distance
_geom_bond_site_symmetry_2
La0 S4 2.938819 1_655
La0 S4 2.938819 1_555
La0 S20 2.968623 1_655
La0 S20 2.968623 1_555
La0 S3 2.988277 1_555
La0 S3 2.988277 1_655
La0 S6 3.230803 1_555
La0 S15 3.331793 1_555
La0 S14 3.632039 1_555
La1 S5 2.938819 1_655
La1 S5 2.938819 1_555
La1 S21 2.968623 1_655
La1 S21 2.968623 1_555
La1 S2 2.988277 1_545
La1 S2 2.988277 1_645
La1 S7 3.230803 1_555
La1 S14 3.331793 1_545
La1 S15 3.632039 1_555
La2 S0 2.912297 1_555
La2 S0 2.912297 1_655
La2 S8 2.914604 1_555
La2 S10 2.916589 1_555
La2 S13 2.920343 1_556
La2 S18 2.923898 1_555
La2 S18 2.923898 1_655
La3 S1 2.912297 1_555
La3 S1 2.912297 1_655
La3 S9 2.914604 1_555
La3 S11 2.916589 1_555
La3 S12 2.920343 1_554
La3 S19 2.923898 1_555
La3 S19 2.923898 1_655
Pb0 S16 2.982429 1_555
Pb0 S16 2.982429 1_655
Pb0 S10 3.024521 1_555
Pb0 S7 3.059444 1_555
Pb0 S21 3.084662 1_655
Pb0 S21 3.084662 1_555
Pb1 S17 2.982429 1_555
Pb1 S17 2.982429 1_655
Pb1 S11 3.024521 1_565
Pb1 S6 3.059444 1_555
Pb1 S20 3.084662 1_555
Pb1 S20 3.084662 1_655
Pb2 S16 2.976733 1_555
Pb2 S16 2.976733 1_655
Pb2 S19 3.115710 1_556
Pb2 S19 3.115710 1_656
Pb2 S0 3.181120 1_545
Pb2 S0 3.181120 1_645
Pb2 S12 3.201844 1_555
Pb3 S17 2.976733 1_555
Pb3 S17 2.976733 1_655
Pb3 S18 3.115710 1_654
Pb3 S18 3.115710 1_554
Pb3 S1 3.181120 1_555
Pb3 S1 3.181120 1_655
Pb3 S13 3.201844 1_555
Pb4 S8 2.888134 1_555
Pb4 S22 3.047375 1_655
Pb4 S22 3.047375 1_555
Pb4 S2 3.167452 1_555
Pb4 S2 3.167452 1_655
Pb4 S4 3.189043 1_555
Pb4 S4 3.189043 1_655
Pb5 S9 2.888134 1_555
Pb5 S23 3.047375 1_555
Pb5 S23 3.047375 1_655
Pb5 S3 3.167452 1_655
Pb5 S3 3.167452 1_555
Pb5 S5 3.189043 1_555
Pb5 S5 3.189043 1_655
S0 Sn0 2.575769 1_565
S1 Sn1 2.575769 1_555
S2 Sn0 2.548949 1_565
S3 Sn1 2.548949 1_555
S4 Sn5 2.576082 1_555
S5 Sn4 2.576082 1_545
S6 Sn1 2.622384 1_655
S6 Sn1 2.622384 1_555
S7 Sn0 2.622384 1_655
S7 Sn0 2.622384 1_555
S8 Sn0 2.680239 1_565
S8 Sn0 2.680239 1_665
S9 Sn1 2.680239 1_655
S9 Sn1 2.680239 1_555
S10 Sn2 2.652777 1_655
S10 Sn2 2.652777 1_555
S11 Sn3 2.652777 1_555
S11 Sn3 2.652777 1_655
S12 Sn2 2.631897 1_655
S12 Sn2 2.631897 1_555
S13 Sn3 2.631897 1_565
S13 Sn3 2.631897 1_665
S14 Sn4 2.506770 1_555
S14 Sn4 2.506770 1_655
S15 Sn5 2.506770 1_655
S15 Sn5 2.506770 1_555
S16 Sn2 2.550981 1_555
S17 Sn3 2.550981 1_565
S18 Sn2 2.566155 1_555
S19 Sn3 2.566155 1_555
S20 Sn4 2.577419 1_555
S21 Sn5 2.577419 1_555
S22 Sn5 2.437539 1_555
S23 Sn4 2.437539 1_545
