# generated using pymatgen
data_ReMo3
_symmetry_space_group_name_H-M   'P 1'
_cell_length_a   18.76508155
_cell_length_b   18.76508155
_cell_length_c   18.76508280
_cell_angle_alpha   17.24723356
_cell_angle_beta   17.24723356
_cell_angle_gamma   17.24723048
_symmetry_Int_Tables_number   1
_chemical_formula_structural   ReMo3
_chemical_formula_sum   'Re8 Mo24'
_cell_volume   506.85610994
_cell_formula_units_Z   8
loop_
 _symmetry_equiv_pos_site_id
 _symmetry_equiv_pos_as_xyz
  1  'x, y, z'
loop_
 _atom_site_type_symbol
 _atom_site_label
 _atom_site_symmetry_multiplicity
 _atom_site_fract_x
 _atom_site_fract_y
 _atom_site_fract_z
 _atom_site_occupancy
  Re  Re0_0  1  0.00000000  0.00000000  0.00000000  1
  Re  Re0_1  1  0.00000000  0.00000000  0.50000000  1
  Re  Re0_2  1  0.00000000  0.50000000  0.00000000  1
  Re  Re0_3  1  0.00000000  0.50000000  0.50000000  1
  Re  Re0_4  1  0.50000000  0.00000000  0.00000000  1
  Re  Re0_5  1  0.50000000  0.00000000  0.50000000  1
  Re  Re0_6  1  0.50000000  0.50000000  0.00000000  1
  Re  Re0_7  1  0.50000000  0.50000000  0.50000000  1
  Mo  Mo0_0  1  0.12604050  0.12604050  0.12604050  1
  Mo  Mo0_1  1  0.12604050  0.12604050  0.62604050  1
  Mo  Mo0_2  1  0.12604050  0.62604050  0.12604050  1
  Mo  Mo0_3  1  0.12604050  0.62604050  0.62604050  1
  Mo  Mo0_4  1  0.62604050  0.12604050  0.12604050  1
  Mo  Mo0_5  1  0.62604050  0.12604050  0.62604050  1
  Mo  Mo0_6  1  0.62604050  0.62604050  0.12604050  1
  Mo  Mo0_7  1  0.62604050  0.62604050  0.62604050  1
  Mo  Mo1_0  1  0.25000000  0.25000000  0.25000000  1
  Mo  Mo1_1  1  0.25000000  0.25000000  0.75000000  1
  Mo  Mo1_2  1  0.25000000  0.75000000  0.25000000  1
  Mo  Mo1_3  1  0.25000000  0.75000000  0.75000000  1
  Mo  Mo1_4  1  0.75000000  0.25000000  0.25000000  1
  Mo  Mo1_5  1  0.75000000  0.25000000  0.75000000  1
  Mo  Mo1_6  1  0.75000000  0.75000000  0.25000000  1
  Mo  Mo1_7  1  0.75000000  0.75000000  0.75000000  1
  Mo  Mo2_0  1  0.37395950  0.37395950  0.37395950  1
  Mo  Mo2_1  1  0.37395950  0.37395950  0.87395950  1
  Mo  Mo2_2  1  0.37395950  0.87395950  0.37395950  1
  Mo  Mo2_3  1  0.37395950  0.87395950  0.87395950  1
  Mo  Mo2_4  1  0.87395950  0.37395950  0.37395950  1
  Mo  Mo2_5  1  0.87395950  0.37395950  0.87395950  1
  Mo  Mo2_6  1  0.87395950  0.87395950  0.37395950  1
  Mo  Mo2_7  1  0.87395950  0.87395950  0.87395950  1
loop_
_geom_bond_atom_site_label_1
_geom_bond_atom_site_label_2
_geom_bond_distance
_geom_bond_site_symmetry_2
Re0_0 Re0_6 2.813690 1_545
Re0_0 Re0_6 2.813690 1_455
Re0_0 Re0_5 2.813691 1_455
Re0_0 Re0_3 2.813691 1_545
Re0_0 Re0_5 2.813691 1_554
Re0_0 Re0_3 2.813691 1_554
Re0_1 Re0_7 2.813690 1_545
Re0_1 Re0_7 2.813690 1_455
Re0_1 Re0_2 2.813691 1_555
Re0_1 Re0_4 2.813691 1_555
Re0_1 Re0_4 2.813691 1_456
Re0_1 Re0_2 2.813691 1_546
Re0_2 Re0_4 2.813690 1_465
Re0_2 Re0_4 2.813690 1_555
Re0_2 Re0_7 2.813691 1_455
Re0_2 Re0_7 2.813691 1_554
Re0_3 Re0_5 2.813690 1_555
Re0_3 Re0_5 2.813690 1_465
Re0_3 Re0_6 2.813691 1_555
Re0_3 Re0_6 2.813691 1_456
Re0_4 Re0_7 2.813691 1_545
Re0_4 Re0_7 2.813691 1_554
Re0_5 Re0_6 2.813691 1_555
Re0_5 Re0_6 2.813691 1_546
Mo0_0 Re0_2 2.777192 1_555
Mo0_0 Re0_4 2.777192 1_555
Mo0_0 Re0_1 2.777192 1_555
Mo0_0 Mo0_6 2.813690 1_455
Mo0_0 Mo0_6 2.813690 1_545
Mo0_0 Mo0_3 2.813691 1_554
Mo0_0 Mo0_5 2.813691 1_554
Mo0_0 Mo0_5 2.813691 1_455
Mo0_0 Mo0_3 2.813691 1_545
Mo0_0 Mo1_4 2.871568 1_455
Mo0_0 Mo1_2 2.871568 1_545
Mo0_0 Mo1_1 2.871569 1_554
Mo0_1 Re0_3 2.777192 1_555
Mo0_1 Re0_5 2.777192 1_555
Mo0_1 Re0_0 2.777192 1_556
Mo0_1 Mo0_7 2.813690 1_455
Mo0_1 Mo0_7 2.813690 1_545
Mo0_1 Mo0_4 2.813691 1_555
Mo0_1 Mo0_4 2.813691 1_456
Mo0_1 Mo0_2 2.813691 1_546
Mo0_1 Mo0_2 2.813691 1_555
Mo0_1 Mo1_5 2.871568 1_455
Mo0_1 Mo1_3 2.871568 1_545
Mo0_1 Mo1_0 2.871569 1_555
Mo0_2 Re0_0 2.777192 1_565
Mo0_2 Re0_6 2.777192 1_555
Mo0_2 Re0_3 2.777192 1_555
Mo0_2 Mo0_4 2.813690 1_465
Mo0_2 Mo0_4 2.813690 1_555
Mo0_2 Mo0_7 2.813691 1_554
Mo0_2 Mo0_7 2.813691 1_455
Mo0_2 Mo1_0 2.871568 1_555
Mo0_2 Mo1_6 2.871568 1_455
Mo0_2 Mo1_3 2.871569 1_554
Mo0_3 Re0_7 2.777192 1_555
Mo0_3 Re0_1 2.777192 1_565
Mo0_3 Re0_2 2.777192 1_556
Mo0_3 Mo0_5 2.813690 1_465
Mo0_3 Mo0_5 2.813690 1_555
Mo0_3 Mo0_6 2.813691 1_555
Mo0_3 Mo0_6 2.813691 1_456
Mo0_3 Mo1_7 2.871568 1_455
Mo0_3 Mo1_1 2.871568 1_555
Mo0_3 Mo1_2 2.871569 1_555
Mo0_4 Re0_6 2.777192 1_555
Mo0_4 Re0_0 2.777192 1_655
Mo0_4 Re0_5 2.777192 1_555
Mo0_4 Mo0_7 2.813691 1_554
Mo0_4 Mo0_7 2.813691 1_545
Mo0_4 Mo1_0 2.871568 1_555
Mo0_4 Mo1_6 2.871568 1_545
Mo0_4 Mo1_5 2.871569 1_554
Mo0_5 Re0_7 2.777192 1_555
Mo0_5 Re0_1 2.777192 1_655
Mo0_5 Re0_4 2.777192 1_556
Mo0_5 Mo0_6 2.813691 1_546
Mo0_5 Mo0_6 2.813691 1_555
Mo0_5 Mo1_7 2.871568 1_545
Mo0_5 Mo1_1 2.871568 1_555
Mo0_5 Mo1_4 2.871569 1_555
Mo0_6 Re0_4 2.777192 1_565
Mo0_6 Re0_2 2.777192 1_655
Mo0_6 Re0_7 2.777192 1_555
Mo0_6 Mo1_4 2.871568 1_555
Mo0_6 Mo1_2 2.871568 1_555
Mo0_6 Mo1_7 2.871569 1_554
Mo0_7 Re0_3 2.777192 1_655
Mo0_7 Re0_5 2.777192 1_565
Mo0_7 Re0_6 2.777192 1_556
Mo0_7 Mo1_5 2.871568 1_555
Mo0_7 Mo1_3 2.871568 1_555
Mo0_7 Mo1_6 2.871569 1_555
Mo1_0 Mo1_6 2.813690 1_455
Mo1_0 Mo1_6 2.813690 1_545
Mo1_0 Mo1_5 2.813691 1_455
Mo1_0 Mo1_3 2.813691 1_545
Mo1_0 Mo1_3 2.813691 1_554
Mo1_0 Mo1_5 2.813691 1_554
Mo1_0 Mo2_2 2.871568 1_545
Mo1_0 Mo2_4 2.871568 1_455
Mo1_0 Mo2_1 2.871569 1_554
Mo1_1 Mo1_7 2.813690 1_455
Mo1_1 Mo1_7 2.813690 1_545
Mo1_1 Mo1_4 2.813691 1_555
Mo1_1 Mo1_2 2.813691 1_555
Mo1_1 Mo1_4 2.813691 1_456
Mo1_1 Mo1_2 2.813691 1_546
Mo1_1 Mo2_5 2.871568 1_455
Mo1_1 Mo2_3 2.871568 1_545
Mo1_1 Mo2_0 2.871569 1_555
Mo1_2 Mo1_4 2.813690 1_555
Mo1_2 Mo1_4 2.813690 1_465
Mo1_2 Mo1_7 2.813691 1_455
Mo1_2 Mo1_7 2.813691 1_554
Mo1_2 Mo2_6 2.871568 1_455
Mo1_2 Mo2_0 2.871568 1_555
Mo1_2 Mo2_3 2.871569 1_554
Mo1_3 Mo1_5 2.813690 1_465
Mo1_3 Mo1_5 2.813690 1_555
Mo1_3 Mo1_6 2.813691 1_555
Mo1_3 Mo1_6 2.813691 1_456
Mo1_3 Mo2_7 2.871568 1_455
Mo1_3 Mo2_1 2.871568 1_555
Mo1_3 Mo2_2 2.871569 1_555
Mo1_4 Mo1_7 2.813691 1_545
Mo1_4 Mo1_7 2.813691 1_554
Mo1_4 Mo2_6 2.871568 1_545
Mo1_4 Mo2_0 2.871568 1_555
Mo1_4 Mo2_5 2.871569 1_554
Mo1_5 Mo1_6 2.813691 1_555
Mo1_5 Mo1_6 2.813691 1_546
Mo1_5 Mo2_7 2.871568 1_545
Mo1_5 Mo2_1 2.871568 1_555
Mo1_5 Mo2_4 2.871569 1_555
Mo1_6 Mo2_2 2.871568 1_555
Mo1_6 Mo2_4 2.871568 1_555
Mo1_6 Mo2_7 2.871569 1_554
Mo1_7 Mo2_5 2.871568 1_555
Mo1_7 Mo2_3 2.871568 1_555
Mo1_7 Mo2_6 2.871569 1_555
Mo2_0 Re0_3 2.777192 1_555
Mo2_0 Re0_5 2.777192 1_555
Mo2_0 Re0_6 2.777192 1_555
Mo2_0 Mo2_6 2.813690 1_545
Mo2_0 Mo2_6 2.813690 1_455
Mo2_0 Mo2_5 2.813691 1_455
Mo2_0 Mo2_3 2.813691 1_545
Mo2_0 Mo2_3 2.813691 1_554
Mo2_0 Mo2_5 2.813691 1_554
Mo2_1 Re0_4 2.777192 1_556
Mo2_1 Re0_2 2.777192 1_556
Mo2_1 Re0_7 2.777192 1_555
Mo2_1 Mo2_7 2.813690 1_455
Mo2_1 Mo2_7 2.813690 1_545
Mo2_1 Mo2_2 2.813691 1_555
Mo2_1 Mo2_4 2.813691 1_555
Mo2_1 Mo2_2 2.813691 1_546
Mo2_1 Mo2_4 2.813691 1_456
Mo2_2 Re0_1 2.777192 1_565
Mo2_2 Re0_7 2.777192 1_555
Mo2_2 Re0_4 2.777192 1_565
Mo2_2 Mo2_4 2.813690 1_465
Mo2_2 Mo2_4 2.813690 1_555
Mo2_2 Mo2_7 2.813691 1_455
Mo2_2 Mo2_7 2.813691 1_554
Mo2_3 Re0_6 2.777192 1_556
Mo2_3 Re0_0 2.777192 1_566
Mo2_3 Re0_5 2.777192 1_565
Mo2_3 Mo2_5 2.813690 1_555
Mo2_3 Mo2_5 2.813690 1_465
Mo2_3 Mo2_6 2.813691 1_555
Mo2_3 Mo2_6 2.813691 1_456
Mo2_4 Re0_7 2.777192 1_555
Mo2_4 Re0_1 2.777192 1_655
Mo2_4 Re0_2 2.777192 1_655
Mo2_4 Mo2_7 2.813691 1_545
Mo2_4 Mo2_7 2.813691 1_554
Mo2_5 Re0_0 2.777192 1_656
Mo2_5 Re0_6 2.777192 1_556
Mo2_5 Re0_3 2.777192 1_655
Mo2_5 Mo2_6 2.813691 1_555
Mo2_5 Mo2_6 2.813691 1_546
Mo2_6 Re0_5 2.777192 1_565
Mo2_6 Re0_3 2.777192 1_655
Mo2_6 Re0_0 2.777192 1_665
Mo2_7 Re0_2 2.777192 1_656
Mo2_7 Re0_4 2.777192 1_566
Mo2_7 Re0_1 2.777192 1_665
