# generated using pymatgen
data_Li3VN2
_symmetry_space_group_name_H-M   'P 1'
_cell_length_a   8.34245324
_cell_length_b   9.63303509
_cell_length_c   9.63303547
_cell_angle_alpha   90.00000096
_cell_angle_beta   125.26438879
_cell_angle_gamma   54.73560962
_symmetry_Int_Tables_number   1
_chemical_formula_structural   Li3VN2
_chemical_formula_sum   'Li24 V8 N16'
_cell_volume   446.95053859
_cell_formula_units_Z   8
loop_
 _symmetry_equiv_pos_site_id
 _symmetry_equiv_pos_as_xyz
  1  'x, y, z'
loop_
 _atom_site_type_symbol
 _atom_site_label
 _atom_site_symmetry_multiplicity
 _atom_site_fract_x
 _atom_site_fract_y
 _atom_site_fract_z
 _atom_site_occupancy
  Li  Li0  1  0.22114876  0.04249690  0.98885177  1
  Li  Li1  1  0.77885124  0.76364566  0.51114823  1
  Li  Li2  1  0.77885124  0.45750310  0.76770301  1
  Li  Li3  1  0.22114876  0.73635434  0.73229699  1
  Li  Li4  1  0.24344522  0.76770301  0.27479389  1
  Li  Li5  1  0.75655478  0.73229699  0.03134866  1
  Li  Li6  1  0.24344522  0.98885177  0.46865134  1
  Li  Li7  1  0.75655478  0.51114823  0.22520611  1
  Li  Li8  1  0.69385745  0.03134866  0.73635434  1
  Li  Li9  1  0.69385745  0.27479389  0.45750310  1
  Li  Li10  1  0.30614255  0.22520611  0.76364566  1
  Li  Li11  1  0.30614255  0.46865134  0.04249690  1
  Li  Li12  1  0.77885124  0.95750310  0.01114823  1
  Li  Li13  1  0.22114876  0.23635434  0.48885177  1
  Li  Li14  1  0.22114876  0.54249690  0.23229699  1
  Li  Li15  1  0.77885124  0.26364566  0.26770301  1
  Li  Li16  1  0.75655478  0.23229699  0.72520611  1
  Li  Li17  1  0.24344522  0.26770301  0.96865134  1
  Li  Li18  1  0.75655478  0.01114823  0.53134866  1
  Li  Li19  1  0.24344522  0.48885177  0.77479389  1
  Li  Li20  1  0.30614255  0.96865134  0.26364566  1
  Li  Li21  1  0.30614255  0.72520611  0.54249690  1
  Li  Li22  1  0.69385745  0.77479389  0.23635434  1
  Li  Li23  1  0.69385745  0.53134866  0.95750310  1
  V  V0  1  0.23030973  0.00000000  0.73030973  1
  V  V1  1  0.76969027  0.73030973  0.76969027  1
  V  V2  1  0.76969027  0.50000000  0.50000000  1
  V  V3  1  0.23030973  0.76969027  -0.00000000  1
  V  V4  1  0.76969027  -0.00000000  0.26969027  1
  V  V5  1  0.23030973  0.26969027  0.23030973  1
  V  V6  1  0.23030973  0.50000000  0.50000000  1
  V  V7  1  0.76969027  0.23030973  -0.00000000  1
  N  N0  1  -0.00000000  0.00000000  0.50000000  1
  N  N1  1  -0.00000000  0.50000000  -0.00000000  1
  N  N2  1  -0.00000000  0.50000000  0.50000000  1
  N  N3  1  -0.00000000  0.00000000  -0.00000000  1
  N  N4  1  0.50000000  0.97079167  0.75000000  1
  N  N5  1  0.50000000  0.52920833  0.25000000  1
  N  N6  1  -0.00000000  0.25000000  0.72079167  1
  N  N7  1  0.00000000  0.75000000  0.77920833  1
  N  N8  1  0.55841666  0.72079167  0.52920833  1
  N  N9  1  0.44158334  0.77920833  0.97079167  1
  N  N10  1  0.50000000  0.02920833  0.25000000  1
  N  N11  1  0.50000000  0.47079167  0.75000000  1
  N  N12  1  0.00000000  0.75000000  0.27920833  1
  N  N13  1  -0.00000000  0.25000000  0.22079167  1
  N  N14  1  0.44158334  0.27920833  0.47079167  1
  N  N15  1  0.55841666  0.22079167  0.02920833  1
loop_
_geom_bond_atom_site_label_1
_geom_bond_atom_site_label_2
_geom_bond_distance
_geom_bond_site_symmetry_2
Li0 N6 2.075548 1_555
Li0 N10 2.157595 1_556
Li0 N3 2.164196 1_556
Li0 N9 2.197383 1_545
Li1 N7 2.075548 1_655
Li1 N10 2.157595 1_565
Li1 N2 2.164196 1_655
Li1 N8 2.197383 1_555
Li2 N6 2.075547 1_655
Li2 N11 2.157595 1_555
Li2 N1 2.164196 1_656
Li2 N8 2.197383 1_555
Li3 N7 2.075547 1_555
Li3 N11 2.157595 1_555
Li3 N0 2.164196 1_565
Li3 N9 2.197383 1_555
Li4 N8 2.075547 1_555
Li4 N12 2.157595 1_555
Li4 N3 2.164196 1_565
Li4 N5 2.197383 1_555
Li5 N9 2.075547 1_554
Li5 N12 2.157595 1_655
Li5 N1 2.164196 1_655
Li5 N4 2.197383 1_554
Li6 N8 2.075547 1_555
Li6 N13 2.157595 1_565
Li6 N0 2.164196 1_565
Li6 N4 2.197383 1_555
Li7 N9 2.075547 1_554
Li7 N13 2.157595 1_655
Li7 N2 2.164196 1_655
Li7 N5 2.197383 1_555
Li8 N4 2.075547 1_545
Li8 N14 2.157595 1_555
Li8 N3 2.164196 1_656
Li8 N7 2.197383 1_645
Li9 N5 2.075547 1_555
Li9 N14 2.157595 1_555
Li9 N0 2.164196 1_655
Li9 N6 2.197383 1_655
Li10 N4 2.075547 1_545
Li10 N15 2.157595 1_556
Li10 N2 2.164196 1_555
Li10 N6 2.197383 1_555
Li11 N5 2.075547 1_555
Li11 N15 2.157595 1_555
Li11 N1 2.164196 1_555
Li11 N7 2.197383 1_554
Li12 N12 2.075548 1_655
Li12 N4 2.157595 1_554
Li12 N3 2.164196 1_665
Li12 N15 2.197383 1_565
Li13 N13 2.075548 1_555
Li13 N4 2.157595 1_545
Li13 N2 2.164196 1_555
Li13 N14 2.197383 1_555
Li14 N12 2.075547 1_555
Li14 N5 2.157595 1_555
Li14 N1 2.164196 1_555
Li14 N14 2.197383 1_555
Li15 N13 2.075547 1_655
Li15 N5 2.157595 1_555
Li15 N0 2.164196 1_655
Li15 N15 2.197383 1_555
Li16 N14 2.075547 1_555
Li16 N6 2.157595 1_655
Li16 N3 2.164196 1_656
Li16 N11 2.197383 1_555
Li17 N15 2.075547 1_556
Li17 N6 2.157595 1_555
Li17 N1 2.164196 1_556
Li17 N10 2.197383 1_556
Li18 N14 2.075547 1_555
Li18 N7 2.157595 1_645
Li18 N0 2.164196 1_655
Li18 N10 2.197383 1_555
Li19 N15 2.075547 1_556
Li19 N7 2.157595 1_555
Li19 N2 2.164196 1_555
Li19 N11 2.197383 1_555
Li20 N10 2.075547 1_565
Li20 N8 2.157595 1_555
Li20 N3 2.164196 1_565
Li20 N13 2.197383 1_565
Li21 N11 2.075547 1_555
Li21 N8 2.157595 1_555
Li21 N0 2.164196 1_565
Li21 N12 2.197383 1_555
Li22 N10 2.075547 1_565
Li22 N9 2.157595 1_554
Li22 N2 2.164196 1_655
Li22 N12 2.197383 1_655
Li23 N11 2.075547 1_555
Li23 N9 2.157595 1_555
Li23 N1 2.164196 1_656
Li23 N13 2.197383 1_656
N0 V0 1.921348 1_555
N0 V4 1.921348 1_455
N1 V1 1.921348 1_454
N1 V5 1.921348 1_555
N2 V6 1.921348 1_555
N2 V2 1.921348 1_455
N3 V3 1.921348 1_545
N3 V7 1.921348 1_455
N4 V1 1.988306 1_555
N4 V0 1.988306 1_565
N5 V3 1.988306 1_555
N5 V2 1.988306 1_555
N6 V0 1.988306 1_555
N6 V2 1.988306 1_455
N7 V1 1.988306 1_455
N7 V3 1.988306 1_556
N8 V2 1.988306 1_555
N8 V1 1.988306 1_555
N9 V3 1.988306 1_556
N9 V0 1.988306 1_565
N10 V5 1.988306 1_555
N10 V4 1.988306 1_555
N11 V7 1.988306 1_556
N11 V6 1.988306 1_555
N12 V4 1.988306 1_465
N12 V6 1.988306 1_555
N13 V5 1.988306 1_555
N13 V7 1.988306 1_455
N14 V6 1.988306 1_555
N14 V5 1.988306 1_555
N15 V7 1.988306 1_555
N15 V4 1.988306 1_555
