# generated using pymatgen
data_AcCdAu2
_symmetry_space_group_name_H-M   'P 1'
_cell_length_a   5.20392390
_cell_length_b   5.20392390
_cell_length_c   5.20392390
_cell_angle_alpha   60.00000000
_cell_angle_beta   60.00000000
_cell_angle_gamma   60.00000000
_symmetry_Int_Tables_number   1
_chemical_formula_structural   AcCdAu2
_chemical_formula_sum   'Ac1 Cd1 Au2'
_cell_volume   99.65011717
_cell_formula_units_Z   1
loop_
 _symmetry_equiv_pos_site_id
 _symmetry_equiv_pos_as_xyz
  1  'x, y, z'
loop_
 _atom_site_type_symbol
 _atom_site_label
 _atom_site_symmetry_multiplicity
 _atom_site_fract_x
 _atom_site_fract_y
 _atom_site_fract_z
 _atom_site_occupancy
  Ac  Ac0  1  0.50000000  0.50000000  0.50000000  1
  Cd  Cd0  1  0.00000000  -0.00000000  -0.00000000  1
  Au  Au0  1  0.75000000  0.75000000  0.75000000  1
  Au  Au1  1  0.25000000  0.25000000  0.25000000  1
loop_
_geom_bond_atom_site_label_1
_geom_bond_atom_site_label_2
_geom_bond_distance
_geom_bond_site_symmetry_2
Ac0 Au1 3.186740 1_655
Ac0 Au1 3.186740 1_565
Ac0 Au0 3.186740 1_455
Ac0 Au1 3.186740 1_555
Ac0 Au0 3.186740 1_555
Ac0 Au0 3.186740 1_554
Ac0 Au1 3.186740 1_556
Ac0 Au0 3.186740 1_545
Au0 Cd0 3.186740 1_656
Au0 Cd0 3.186740 1_666
Au0 Cd0 3.186740 1_665
Au0 Cd0 3.186740 1_566
Au1 Cd0 3.186740 1_565
Au1 Cd0 3.186740 1_655
Au1 Cd0 3.186740 1_555
Au1 Cd0 3.186740 1_556
