# generated using pymatgen
data_NaCaNb3(BiO6)2
_symmetry_space_group_name_H-M   'P 1'
_cell_length_a   3.95527674
_cell_length_b   3.95527674
_cell_length_c   16.59223941
_cell_angle_alpha   83.15495428
_cell_angle_beta   83.15495428
_cell_angle_gamma   90.00286806
_symmetry_Int_Tables_number   1
_chemical_formula_structural   NaCaNb3(BiO6)2
_chemical_formula_sum   'Na1 Ca1 Nb3 Bi2 O12'
_cell_volume   255.85857048
_cell_formula_units_Z   1
loop_
 _symmetry_equiv_pos_site_id
 _symmetry_equiv_pos_as_xyz
  1  'x, y, z'
loop_
 _atom_site_type_symbol
 _atom_site_label
 _atom_site_symmetry_multiplicity
 _atom_site_fract_x
 _atom_site_fract_y
 _atom_site_fract_z
 _atom_site_occupancy
  Na  Na0  1  0.93107700  0.93107700  0.13784500  1
  Ca  Ca0  1  0.06360900  0.06360900  0.87278100  1
  Nb  Nb0  1  0.62750500  0.62750500  0.74499000  1
  Nb  Nb1  1  0.37079800  0.37079800  0.25840300  1
  Nb  Nb2  1  0.49815500  0.49815500  0.00369000  1
  Bi  Bi0  1  0.78783900  0.78783900  0.42432100  1
  Bi  Bi1  1  0.21381500  0.21381500  0.57237000  1
  O  O0  1  0.37738700  0.87738700  0.24522600  1
  O  O1  1  0.12016800  0.62016800  0.75966400  1
  O  O2  1  0.62016800  0.12016800  0.75966400  1
  O  O3  1  0.87738700  0.37738700  0.24522600  1
  O  O4  1  0.68549600  0.68549600  0.62900700  1
  O  O5  1  0.31299600  0.31299600  0.37400900  1
  O  O6  1  0.56258200  0.56258200  0.87483700  1
  O  O7  1  0.44013200  0.44013200  0.11973600  1
  O  O8  1  0.25063900  0.75063900  0.49872200  1
  O  O9  1  0.75063900  0.25063900  0.49872200  1
  O  O10  1  0.50480400  0.00480400  0.99039300  1
  O  O11  1  0.00480400  0.50480400  0.99039300  1
loop_
_geom_bond_atom_site_label_1
_geom_bond_atom_site_label_2
_geom_bond_distance
_geom_bond_site_symmetry_2
Na0 O0 2.644859 1_555
Na0 O3 2.644859 1_555
Na0 O3 2.644862 1_565
Na0 O0 2.644862 1_655
Na0 O7 2.812368 1_555
Na0 O7 2.812374 1_665
Na0 O7 2.812510 1_655
Na0 O7 2.812510 1_565
Ca0 O1 2.708059 1_545
Ca0 O2 2.708059 1_455
Ca0 O1 2.708062 1_555
Ca0 O2 2.708062 1_555
Ca0 O11 2.758802 1_545
Ca0 O10 2.758802 1_455
Ca0 O11 2.758807 1_555
Ca0 O10 2.758807 1_555
Ca0 O6 2.796930 1_445
Ca0 O6 2.796941 1_555
Ca0 O6 2.797075 1_545
Ca0 O6 2.797075 1_455
Nb0 O4 1.896883 1_555
Nb0 O1 1.992147 1_555
Nb0 O2 1.992147 1_555
Nb0 O2 1.992147 1_565
Nb0 O1 1.992147 1_655
Nb0 O6 2.123627 1_555
Nb1 O5 1.890717 1_555
Nb1 O0 1.989344 1_545
Nb1 O3 1.989344 1_455
Nb1 O3 1.989348 1_555
Nb1 O0 1.989348 1_555
Nb1 O7 2.267876 1_555
Nb2 O7 1.897913 1_555
Nb2 O11 1.989557 1_554
Nb2 O10 1.989557 1_554
Nb2 O10 1.989561 1_564
Nb2 O11 1.989561 1_654
Nb2 O6 2.107370 1_554
Bi0 O9 2.322001 1_555
Bi0 O8 2.322001 1_555
Bi0 O9 2.322004 1_565
Bi0 O8 2.322004 1_655
Bi1 O8 2.315573 1_545
Bi1 O9 2.315573 1_455
Bi1 O9 2.315573 1_555
Bi1 O8 2.315573 1_555
