# generated using pymatgen
data_YMg6Bi
_symmetry_space_group_name_H-M   'P 1'
_cell_length_a   5.40606800
_cell_length_b   6.33593100
_cell_length_c   11.68615900
_cell_angle_alpha   90.00000000
_cell_angle_beta   90.00000000
_cell_angle_gamma   90.00000000
_symmetry_Int_Tables_number   1
_chemical_formula_structural   YMg6Bi
_chemical_formula_sum   'Y2 Mg12 Bi2'
_cell_volume   400.27985531
_cell_formula_units_Z   2
loop_
 _symmetry_equiv_pos_site_id
 _symmetry_equiv_pos_as_xyz
  1  'x, y, z'
loop_
 _atom_site_type_symbol
 _atom_site_label
 _atom_site_symmetry_multiplicity
 _atom_site_fract_x
 _atom_site_fract_y
 _atom_site_fract_z
 _atom_site_occupancy
  Y  Y0  1  0.50000000  0.00000000  0.17022500  1
  Y  Y1  1  0.50000000  0.50000000  0.67022500  1
  Mg  Mg0  1  0.50000000  0.24797500  0.41769700  1
  Mg  Mg1  1  0.50000000  0.75202500  0.41769700  1
  Mg  Mg2  1  0.00000000  0.75263800  0.07685400  1
  Mg  Mg3  1  0.00000000  0.24736200  0.07685400  1
  Mg  Mg4  1  0.00000000  0.00000000  0.33576700  1
  Mg  Mg5  1  0.00000000  0.50000000  0.33808200  1
  Mg  Mg6  1  0.50000000  0.74797500  0.91769700  1
  Mg  Mg7  1  0.50000000  0.25202500  0.91769700  1
  Mg  Mg8  1  0.00000000  0.25263800  0.57685400  1
  Mg  Mg9  1  0.00000000  0.74736200  0.57685400  1
  Mg  Mg10  1  0.00000000  0.50000000  0.83576700  1
  Mg  Mg11  1  0.00000000  0.00000000  0.83808200  1
  Bi  Bi0  1  0.50000000  0.50000000  0.16681900  1
  Bi  Bi1  1  0.50000000  0.00000000  0.66681900  1
loop_
_geom_bond_atom_site_label_1
_geom_bond_atom_site_label_2
_geom_bond_distance
_geom_bond_site_symmetry_2
Mg0 Mg1 3.142305 1_545
Mg0 Mg1 3.193626 1_555
Mg0 Mg4 3.269804 1_555
Mg0 Mg4 3.269804 1_655
Mg0 Mg5 3.274422 1_555
Mg0 Mg5 3.274422 1_655
Mg0 Mg8 3.281253 1_555
Mg0 Mg8 3.281253 1_655
Mg0 Y0 3.291226 1_555
Mg0 Y1 3.355398 1_555
Mg1 Mg4 3.269804 1_565
Mg1 Mg4 3.269804 1_665
Mg1 Mg5 3.274422 1_555
Mg1 Mg5 3.274422 1_655
Mg1 Mg9 3.281253 1_555
Mg1 Mg9 3.281253 1_655
Mg1 Y0 3.291226 1_565
Mg1 Y1 3.355398 1_555
Mg2 Mg3 3.134537 1_565
Mg2 Mg3 3.201394 1_555
Mg2 Mg6 3.281253 1_454
Mg2 Mg6 3.281253 1_554
Mg2 Y0 3.309581 1_565
Mg2 Y0 3.309581 1_465
Mg2 Mg4 3.407518 1_565
Mg2 Mg5 3.446959 1_555
Mg3 Mg7 3.281253 1_554
Mg3 Mg7 3.281253 1_454
Mg3 Y0 3.309581 1_555
Mg3 Y0 3.309581 1_455
Mg3 Mg4 3.407518 1_555
Mg3 Mg5 3.446959 1_555
Mg4 Mg5 3.168081 1_555
Mg4 Mg5 3.168081 1_545
Mg4 Mg8 3.240350 1_555
Mg4 Mg9 3.240350 1_545
Mg4 Y0 3.323985 1_555
Mg4 Y0 3.323985 1_455
Mg5 Mg9 3.200353 1_555
Mg5 Mg8 3.200353 1_555
Mg6 Mg7 3.142305 1_555
Mg6 Mg7 3.193626 1_565
Mg6 Y1 3.291226 1_555
Mg6 Y0 3.355398 1_566
Mg7 Y1 3.291226 1_555
Mg7 Y0 3.355398 1_556
Mg8 Mg9 3.134537 1_555
Mg8 Mg9 3.201394 1_545
Mg8 Y1 3.309581 1_555
Mg8 Y1 3.309581 1_455
Mg9 Y1 3.309581 1_555
Mg9 Y1 3.309581 1_455
Mg10 Mg11 3.168081 1_565
Mg10 Mg11 3.168081 1_555
Mg10 Mg2 3.240350 1_556
Mg10 Mg3 3.240350 1_556
Mg10 Mg6 3.269804 1_455
Mg10 Mg6 3.269804 1_555
Mg10 Mg7 3.269804 1_455
Mg10 Mg7 3.269804 1_555
Mg10 Y1 3.323985 1_555
Mg10 Y1 3.323985 1_455
Mg10 Mg9 3.407518 1_555
Mg10 Mg8 3.407518 1_555
Mg11 Mg3 3.200353 1_556
Mg11 Mg2 3.200353 1_546
Mg11 Mg6 3.274422 1_445
Mg11 Mg6 3.274422 1_545
Mg11 Mg7 3.274422 1_455
Mg11 Mg7 3.274422 1_555
Mg11 Mg8 3.446959 1_555
Mg11 Mg9 3.446959 1_545
Bi0 Y0 3.168216 1_555
Bi0 Y0 3.168216 1_565
Bi0 Mg6 3.308182 1_554
Bi0 Mg7 3.308182 1_554
Bi0 Mg3 3.312695 1_655
Bi0 Mg3 3.312695 1_555
Bi0 Mg2 3.312695 1_655
Bi0 Mg2 3.312695 1_555
Bi0 Mg1 3.338452 1_555
Bi0 Mg0 3.338452 1_555
Bi0 Mg5 3.363335 1_655
Bi0 Mg5 3.363335 1_555
Bi1 Y1 3.168216 1_545
Bi1 Y1 3.168216 1_555
Bi1 Mg0 3.308182 1_555
Bi1 Mg1 3.308182 1_545
Bi1 Mg8 3.312695 1_555
Bi1 Mg8 3.312695 1_655
Bi1 Mg9 3.312695 1_545
Bi1 Mg9 3.312695 1_645
Bi1 Mg7 3.338452 1_555
Bi1 Mg6 3.338452 1_545
Bi1 Mg11 3.363335 1_555
Bi1 Mg11 3.363335 1_655
