# generated using pymatgen
data_Nd3(Ge3Pt2)2
_symmetry_space_group_name_H-M   'P 1'
_cell_length_a   4.46641500
_cell_length_b   8.94568400
_cell_length_c   26.27278600
_cell_angle_alpha   90.00000000
_cell_angle_beta   90.00000000
_cell_angle_gamma   90.00000000
_symmetry_Int_Tables_number   1
_chemical_formula_structural   Nd3(Ge3Pt2)2
_chemical_formula_sum   'Nd12 Ge24 Pt16'
_cell_volume   1049.73276933
_cell_formula_units_Z   4
loop_
 _symmetry_equiv_pos_site_id
 _symmetry_equiv_pos_as_xyz
  1  'x, y, z'
loop_
 _atom_site_type_symbol
 _atom_site_label
 _atom_site_symmetry_multiplicity
 _atom_site_fract_x
 _atom_site_fract_y
 _atom_site_fract_z
 _atom_site_occupancy
  Nd  Nd0  1  0.25000000  0.37502700  0.27922500  1
  Nd  Nd1  1  0.75000000  0.62497300  0.72077500  1
  Nd  Nd2  1  0.75000000  0.87502700  0.22077500  1
  Nd  Nd3  1  0.25000000  0.12497300  0.77922500  1
  Nd  Nd4  1  0.25000000  0.13253500  0.40769000  1
  Nd  Nd5  1  0.75000000  0.86746500  0.59231000  1
  Nd  Nd6  1  0.75000000  0.63253500  0.09231000  1
  Nd  Nd7  1  0.25000000  0.36746500  0.90769000  1
  Nd  Nd8  1  0.25000000  0.61633500  0.40805800  1
  Nd  Nd9  1  0.75000000  0.38366500  0.59194200  1
  Nd  Nd10  1  0.75000000  0.11633500  0.09194200  1
  Nd  Nd11  1  0.25000000  0.88366500  0.90805800  1
  Ge  Ge0  1  0.25000000  0.72670900  0.28581700  1
  Ge  Ge1  1  0.75000000  0.27329100  0.71418300  1
  Ge  Ge2  1  0.75000000  0.22670900  0.21418300  1
  Ge  Ge3  1  0.25000000  0.77329100  0.78581700  1
  Ge  Ge4  1  0.25000000  0.37310300  0.14146000  1
  Ge  Ge5  1  0.75000000  0.62689700  0.85854000  1
  Ge  Ge6  1  0.75000000  0.87310300  0.35854000  1
  Ge  Ge7  1  0.25000000  0.12689700  0.64146000  1
  Ge  Ge8  1  0.25000000  0.02373300  0.28546200  1
  Ge  Ge9  1  0.75000000  0.97626700  0.71453800  1
  Ge  Ge10  1  0.75000000  0.52373300  0.21453800  1
  Ge  Ge11  1  0.25000000  0.47626700  0.78546200  1
  Ge  Ge12  1  0.25000000  0.87339800  0.13823300  1
  Ge  Ge13  1  0.75000000  0.12660200  0.86176700  1
  Ge  Ge14  1  0.75000000  0.37339800  0.36176700  1
  Ge  Ge15  1  0.25000000  0.62660200  0.63823300  1
  Ge  Ge16  1  0.25000000  0.12809100  0.00234100  1
  Ge  Ge17  1  0.75000000  0.87190900  0.99765900  1
  Ge  Ge18  1  0.75000000  0.62809100  0.49765900  1
  Ge  Ge19  1  0.25000000  0.37190900  0.50234100  1
  Ge  Ge20  1  0.25000000  0.87661300  0.49875900  1
  Ge  Ge21  1  0.75000000  0.12338700  0.50124100  1
  Ge  Ge22  1  0.75000000  0.37661300  0.00124100  1
  Ge  Ge23  1  0.25000000  0.62338700  0.99875900  1
  Pt  Pt0  1  0.25000000  0.62406300  0.18719300  1
  Pt  Pt1  1  0.75000000  0.37593700  0.81280700  1
  Pt  Pt2  1  0.75000000  0.12406300  0.31280700  1
  Pt  Pt3  1  0.25000000  0.87593700  0.68719300  1
  Pt  Pt4  1  0.25000000  0.62748900  0.54370200  1
  Pt  Pt5  1  0.75000000  0.37251100  0.45629800  1
  Pt  Pt6  1  0.75000000  0.12748900  0.95629800  1
  Pt  Pt7  1  0.25000000  0.87251100  0.04370200  1
  Pt  Pt8  1  0.25000000  0.12411900  0.18732900  1
  Pt  Pt9  1  0.75000000  0.87588100  0.81267100  1
  Pt  Pt10  1  0.75000000  0.62411900  0.31267100  1
  Pt  Pt11  1  0.25000000  0.37588100  0.68732900  1
  Pt  Pt12  1  0.25000000  0.37841100  0.04817900  1
  Pt  Pt13  1  0.75000000  0.62158900  0.95182100  1
  Pt  Pt14  1  0.75000000  0.87841100  0.45182100  1
  Pt  Pt15  1  0.25000000  0.12158900  0.54817900  1
loop_
_geom_bond_atom_site_label_1
_geom_bond_atom_site_label_2
_geom_bond_distance
_geom_bond_site_symmetry_2
Nd0 Pt10 3.274855 1_455
Nd0 Pt10 3.274855 1_555
Nd0 Pt2 3.287230 1_555
Nd0 Pt2 3.287230 1_455
Nd0 Pt0 3.287780 1_555
Nd0 Pt8 3.296533 1_555
Nd1 Pt11 3.274855 1_655
Nd1 Pt11 3.274855 1_555
Nd1 Pt3 3.287230 1_555
Nd1 Pt3 3.287230 1_655
Nd1 Pt1 3.287780 1_555
Nd1 Pt9 3.296533 1_555
Nd2 Pt8 3.274855 1_665
Nd2 Pt8 3.274855 1_565
Nd2 Pt0 3.287230 1_555
Nd2 Pt0 3.287230 1_655
Nd2 Pt2 3.287780 1_565
Nd2 Pt10 3.296533 1_555
Nd3 Pt9 3.274855 1_545
Nd3 Pt9 3.274855 1_445
Nd3 Pt1 3.287230 1_555
Nd3 Pt1 3.287230 1_455
Nd3 Pt3 3.287780 1_545
Nd3 Pt11 3.296533 1_555
Nd4 Pt2 3.347718 1_455
Nd4 Pt2 3.347718 1_555
Nd4 Pt5 3.350619 1_455
Nd4 Pt5 3.350619 1_555
Nd4 Pt14 3.391088 1_545
Nd4 Pt14 3.391088 1_445
Nd5 Pt3 3.347718 1_555
Nd5 Pt3 3.347718 1_655
Nd5 Pt4 3.350619 1_555
Nd5 Pt4 3.350619 1_655
Nd5 Pt15 3.391088 1_565
Nd5 Pt15 3.391088 1_665
Nd6 Pt0 3.347718 1_555
Nd6 Pt0 3.347718 1_655
Nd6 Pt7 3.350619 1_555
Nd6 Pt7 3.350619 1_655
Nd6 Pt12 3.391088 1_555
Nd6 Pt12 3.391088 1_655
Nd7 Pt1 3.347718 1_455
Nd7 Pt1 3.347718 1_555
Nd7 Pt6 3.350619 1_555
Nd7 Pt6 3.350619 1_455
Nd7 Pt13 3.391088 1_455
Nd7 Pt13 3.391088 1_555
Nd8 Pt10 3.357456 1_555
Nd8 Pt10 3.357456 1_455
Nd8 Pt5 3.369129 1_455
Nd8 Pt5 3.369129 1_555
Nd8 Pt14 3.435934 1_555
Nd8 Pt14 3.435934 1_455
Nd9 Pt11 3.357456 1_655
Nd9 Pt11 3.357456 1_555
Nd9 Pt4 3.369129 1_655
Nd9 Pt4 3.369129 1_555
Nd9 Pt15 3.435934 1_555
Nd9 Pt15 3.435934 1_655
Nd10 Pt8 3.357456 1_555
Nd10 Pt8 3.357456 1_655
Nd10 Pt7 3.369129 1_645
Nd10 Pt7 3.369129 1_545
Nd10 Pt12 3.435934 1_555
Nd10 Pt12 3.435934 1_655
Nd11 Pt9 3.357456 1_455
Nd11 Pt9 3.357456 1_555
Nd11 Pt6 3.369129 1_465
Nd11 Pt6 3.369129 1_565
Nd11 Pt13 3.435934 1_555
Nd11 Pt13 3.435934 1_455
Ge0 Pt10 2.515399 1_455
Ge0 Pt10 2.515399 1_555
Ge0 Ge8 2.657099 1_565
Ge0 Pt0 2.749018 1_555
Ge0 Nd2 3.109300 1_555
Ge0 Nd2 3.109300 1_455
Ge0 Nd0 3.150800 1_555
Ge0 Nd8 3.359963 1_555
Ge1 Pt11 2.515399 1_655
Ge1 Pt11 2.515399 1_555
Ge1 Ge9 2.657099 1_545
Ge1 Pt1 2.749018 1_555
Ge1 Nd3 3.109300 1_555
Ge1 Nd3 3.109300 1_655
Ge1 Nd1 3.150800 1_555
Ge1 Nd9 3.359963 1_555
Ge2 Pt8 2.515399 1_555
Ge2 Pt8 2.515399 1_655
Ge2 Pt2 2.749018 1_555
Ge2 Nd0 3.109300 1_655
Ge2 Nd0 3.109300 1_555
Ge2 Nd2 3.150800 1_545
Ge2 Nd10 3.359963 1_555
Ge3 Pt9 2.515399 1_555
Ge3 Pt9 2.515399 1_455
Ge3 Pt3 2.749018 1_555
Ge3 Nd1 3.109300 1_455
Ge3 Nd1 3.109300 1_555
Ge3 Nd3 3.150800 1_565
Ge3 Nd11 3.359963 1_555
Ge4 Pt12 2.451212 1_555
Ge4 Pt8 2.532447 1_555
Ge4 Pt0 2.546320 1_555
Ge4 Nd10 3.457717 1_555
Ge4 Nd10 3.457717 1_455
Ge4 Nd6 3.469984 1_555
Ge4 Nd6 3.469984 1_455
Ge5 Pt13 2.451212 1_555
Ge5 Pt9 2.532447 1_555
Ge5 Pt1 2.546320 1_555
Ge5 Nd11 3.457717 1_555
Ge5 Nd11 3.457717 1_655
Ge5 Nd7 3.469984 1_555
Ge5 Nd7 3.469984 1_655
Ge6 Pt14 2.451212 1_555
Ge6 Pt10 2.532447 1_555
Ge6 Pt2 2.546320 1_565
Ge6 Nd8 3.457717 1_555
Ge6 Nd8 3.457717 1_655
Ge6 Nd4 3.469984 1_565
Ge6 Nd4 3.469984 1_665
Ge7 Pt15 2.451212 1_555
Ge7 Pt11 2.532447 1_555
Ge7 Pt3 2.546320 1_545
Ge7 Nd9 3.457717 1_455
Ge7 Nd9 3.457717 1_555
Ge7 Nd5 3.469984 1_445
Ge7 Nd5 3.469984 1_545
Ge8 Pt2 2.511752 1_455
Ge8 Pt2 2.511752 1_555
Ge8 Pt8 2.730146 1_555
Ge8 Nd2 3.105669 1_445
Ge8 Nd2 3.105669 1_545
Ge8 Nd0 3.146834 1_555
Ge8 Nd4 3.355530 1_555
Ge9 Pt3 2.511752 1_555
Ge9 Pt3 2.511752 1_655
Ge9 Pt9 2.730146 1_555
Ge9 Nd3 3.105669 1_565
Ge9 Nd3 3.105669 1_665
Ge9 Nd1 3.146834 1_555
Ge9 Nd5 3.355530 1_555
Ge10 Pt0 2.511752 1_555
Ge10 Pt0 2.511752 1_655
Ge10 Ge2 2.657099 1_555
Ge10 Pt10 2.730146 1_555
Ge10 Nd0 3.105669 1_655
Ge10 Nd0 3.105669 1_555
Ge10 Nd2 3.146834 1_555
Ge10 Nd6 3.355530 1_555
Ge11 Pt1 2.511752 1_455
Ge11 Pt1 2.511752 1_555
Ge11 Ge3 2.657099 1_555
Ge11 Pt11 2.730146 1_555
Ge11 Nd1 3.105669 1_455
Ge11 Nd1 3.105669 1_555
Ge11 Nd3 3.146834 1_555
Ge11 Nd7 3.355530 1_555
Ge12 Pt7 2.483605 1_555
Ge12 Pt0 2.574804 1_555
Ge12 Pt8 2.587331 1_565
Ge12 Nd2 3.112923 1_455
Ge12 Nd2 3.112923 1_555
Ge12 Nd6 3.329502 1_455
Ge12 Nd6 3.329502 1_555
Ge12 Nd10 3.345042 1_465
Ge12 Nd10 3.345042 1_565
Ge13 Pt6 2.483605 1_555
Ge13 Pt1 2.574804 1_555
Ge13 Pt9 2.587331 1_545
Ge13 Nd3 3.112923 1_555
Ge13 Nd3 3.112923 1_655
Ge13 Nd7 3.329502 1_655
Ge13 Nd7 3.329502 1_555
Ge13 Nd11 3.345042 1_545
Ge13 Nd11 3.345042 1_645
Ge14 Pt5 2.483605 1_555
Ge14 Pt2 2.574804 1_555
Ge14 Pt10 2.587331 1_555
Ge14 Nd0 3.112923 1_555
Ge14 Nd0 3.112923 1_655
Ge14 Nd4 3.329502 1_655
Ge14 Nd4 3.329502 1_555
Ge14 Nd8 3.345042 1_555
Ge14 Nd8 3.345042 1_655
Ge15 Pt4 2.483605 1_555
Ge15 Pt3 2.574804 1_555
Ge15 Pt11 2.587331 1_555
Ge15 Nd1 3.112923 1_555
Ge15 Nd1 3.112923 1_455
Ge15 Nd5 3.329502 1_455
Ge15 Nd5 3.329502 1_555
Ge15 Nd9 3.345042 1_555
Ge15 Nd9 3.345042 1_455
Ge16 Pt7 2.531440 1_545
Ge16 Pt6 2.539796 1_454
Ge16 Pt6 2.539796 1_554
Ge16 Pt12 2.542579 1_555
Ge16 Nd10 3.246523 1_455
Ge16 Nd10 3.246523 1_555
Ge16 Nd7 3.281668 1_554
Ge16 Nd11 3.304080 1_544
Ge17 Pt6 2.531440 1_565
Ge17 Pt7 2.539796 1_656
Ge17 Pt7 2.539796 1_556
Ge17 Pt13 2.542579 1_555
Ge17 Nd11 3.246523 1_555
Ge17 Nd11 3.246523 1_655
Ge17 Nd6 3.281668 1_556
Ge17 Nd10 3.304080 1_566
Ge18 Pt5 2.531440 1_555
Ge18 Pt4 2.539796 1_555
Ge18 Pt4 2.539796 1_655
Ge18 Pt14 2.542579 1_555
Ge18 Nd8 3.246523 1_555
Ge18 Nd8 3.246523 1_655
Ge18 Nd5 3.281668 1_555
Ge18 Nd9 3.304080 1_555
Ge19 Pt4 2.531440 1_555
Ge19 Pt5 2.539796 1_455
Ge19 Pt5 2.539796 1_555
Ge19 Pt15 2.542579 1_555
Ge19 Nd9 3.246523 1_455
Ge19 Nd9 3.246523 1_555
Ge19 Nd4 3.281668 1_555
Ge19 Nd8 3.304080 1_555
Ge20 Pt4 2.522068 1_555
Ge20 Pt15 2.547238 1_565
Ge20 Pt14 2.551125 1_455
Ge20 Pt14 2.551125 1_555
Ge20 Nd4 3.311503 1_565
Ge20 Nd5 3.321885 1_455
Ge20 Nd5 3.321885 1_555
Ge20 Nd8 3.331639 1_555
Ge21 Pt5 2.522068 1_555
Ge21 Pt14 2.547238 1_545
Ge21 Pt15 2.551125 1_555
Ge21 Pt15 2.551125 1_655
Ge21 Nd5 3.311503 1_545
Ge21 Nd4 3.321885 1_655
Ge21 Nd4 3.321885 1_555
Ge21 Nd9 3.331639 1_555
Ge22 Pt6 2.522068 1_554
Ge22 Pt13 2.547238 1_554
Ge22 Pt12 2.551125 1_655
Ge22 Pt12 2.551125 1_555
Ge22 Nd6 3.311503 1_555
Ge22 Nd7 3.321885 1_554
Ge22 Nd7 3.321885 1_654
Ge22 Nd10 3.331639 1_555
Ge23 Pt7 2.522068 1_556
Ge23 Pt12 2.547238 1_556
Ge23 Pt13 2.551125 1_555
Ge23 Pt13 2.551125 1_455
Ge23 Nd7 3.311503 1_555
Ge23 Nd6 3.321885 1_556
Ge23 Nd6 3.321885 1_456
Ge23 Nd11 3.331639 1_555
