# generated using pymatgen
data_Ta5GeB2
_symmetry_space_group_name_H-M   'P 1'
_cell_length_a   6.25334187
_cell_length_b   6.25334187
_cell_length_c   7.30085286
_cell_angle_alpha   115.35725270
_cell_angle_beta   115.35725270
_cell_angle_gamma   90.00000000
_symmetry_Int_Tables_number   1
_chemical_formula_structural   Ta5GeB2
_chemical_formula_sum   'Ta10 Ge2 B4'
_cell_volume   227.17640831
_cell_formula_units_Z   2
loop_
 _symmetry_equiv_pos_site_id
 _symmetry_equiv_pos_as_xyz
  1  'x, y, z'
loop_
 _atom_site_type_symbol
 _atom_site_label
 _atom_site_symmetry_multiplicity
 _atom_site_fract_x
 _atom_site_fract_y
 _atom_site_fract_z
 _atom_site_occupancy
  Ta  Ta0  1  0.69690690  0.52854051  0.72544741  1
  Ta  Ta1  1  0.02854051  0.19690690  0.72544741  1
  Ta  Ta2  1  0.52854051  0.02854051  0.72544741  1
  Ta  Ta3  1  0.19690690  0.69690690  0.72544741  1
  Ta  Ta4  1  0.30309310  0.47145949  0.27455259  1
  Ta  Ta5  1  0.97145949  0.80309310  0.27455259  1
  Ta  Ta6  1  0.47145949  0.97145949  0.27455259  1
  Ta  Ta7  1  0.80309310  0.30309310  0.27455259  1
  Ta  Ta8  1  0.50000000  0.50000000  -0.00000000  1
  Ta  Ta9  1  -0.00000000  0.00000000  -0.00000000  1
  Ge  Ge0  1  0.25000000  0.25000000  0.50000000  1
  Ge  Ge1  1  0.75000000  0.75000000  0.50000000  1
  B  B0  1  0.61974639  0.88025361  -0.00000000  1
  B  B1  1  0.38025361  0.11974639  -0.00000000  1
  B  B2  1  0.88025361  0.38025361  -0.00000000  1
  B  B3  1  0.11974639  0.61974639  -0.00000000  1
loop_
_geom_bond_atom_site_label_1
_geom_bond_atom_site_label_2
_geom_bond_distance
_geom_bond_site_symmetry_2
Ge0 Ta4 2.675387 1_555
Ge0 Ta1 2.675387 1_555
Ge0 Ta6 2.675387 1_545
Ge0 Ta2 2.675387 1_555
Ge0 Ta3 2.675387 1_555
Ge0 Ta7 2.675387 1_455
Ge0 Ta0 2.675387 1_555
Ge0 Ta5 2.675387 1_445
Ge0 Ta8 2.904751 1_556
Ge0 Ta9 2.904751 1_555
Ge1 Ta5 2.675387 1_555
Ge1 Ta0 2.675387 1_555
Ge1 Ta6 2.675387 1_555
Ge1 Ta2 2.675387 1_565
Ge1 Ta7 2.675387 1_555
Ge1 Ta3 2.675387 1_655
Ge1 Ta4 2.675387 1_555
Ge1 Ta1 2.675387 1_665
Ge1 Ta8 2.904751 1_555
Ge1 Ta9 2.904751 1_666
B0 B1 2.117969 1_565
B0 Ta2 2.411613 1_564
B0 Ta6 2.411613 1_555
B0 Ta7 2.411613 1_565
B0 Ta3 2.411613 1_554
B0 Ta5 2.477972 1_555
B0 Ta0 2.477972 1_554
B0 Ta8 2.492975 1_555
B0 Ta9 2.492975 1_665
B1 Ta6 2.411613 1_545
B1 Ta2 2.411613 1_554
B1 Ta7 2.411613 1_555
B1 Ta3 2.411613 1_544
B1 Ta1 2.477972 1_554
B1 Ta4 2.477972 1_555
B1 Ta8 2.492975 1_555
B1 Ta9 2.492975 1_555
B2 B3 2.117969 1_655
B2 Ta0 2.411613 1_554
B2 Ta1 2.411613 1_654
B2 Ta4 2.411613 1_655
B2 Ta5 2.411613 1_555
B2 Ta7 2.477972 1_555
B2 Ta2 2.477972 1_554
B2 Ta8 2.492975 1_555
B2 Ta9 2.492975 1_655
B3 Ta4 2.411613 1_555
B3 Ta5 2.411613 1_455
B3 Ta0 2.411613 1_454
B3 Ta1 2.411613 1_554
B3 Ta3 2.477972 1_554
B3 Ta6 2.477972 1_555
B3 Ta9 2.492975 1_565
B3 Ta8 2.492975 1_555
