# generated using pymatgen
data_MnRuN2
_symmetry_space_group_name_H-M   'P 1'
_cell_length_a   5.20167200
_cell_length_b   6.35553500
_cell_length_c   5.16426500
_cell_angle_alpha   90.00000000
_cell_angle_beta   90.00000000
_cell_angle_gamma   90.00000000
_symmetry_Int_Tables_number   1
_chemical_formula_structural   MnRuN2
_chemical_formula_sum   'Mn4 Ru4 N8'
_cell_volume   170.72754600
_cell_formula_units_Z   4
loop_
 _symmetry_equiv_pos_site_id
 _symmetry_equiv_pos_as_xyz
  1  'x, y, z'
loop_
 _atom_site_type_symbol
 _atom_site_label
 _atom_site_symmetry_multiplicity
 _atom_site_fract_x
 _atom_site_fract_y
 _atom_site_fract_z
 _atom_site_occupancy
  Mn  Mn0  1  0.61863900  0.88281800  0.99497000  1
  Mn  Mn1  1  0.38136100  0.11718200  0.49497000  1
  Mn  Mn2  1  0.88136100  0.38281800  0.49497000  1
  Mn  Mn3  1  0.11863900  0.61718200  0.99497000  1
  Ru  Ru0  1  0.56370200  0.34472400  0.99672200  1
  Ru  Ru1  1  0.43629800  0.65527600  0.49672200  1
  Ru  Ru2  1  0.93629800  0.84472400  0.49672200  1
  Ru  Ru3  1  0.06370200  0.15527600  0.99672200  1
  N  N0  1  0.58388700  0.91450800  0.34807100  1
  N  N1  1  0.41611300  0.08549200  0.84807100  1
  N  N2  1  0.91611300  0.41450800  0.84807100  1
  N  N3  1  0.08388700  0.58549200  0.34807100  1
  N  N4  1  0.55135700  0.36072200  0.38223700  1
  N  N5  1  0.44864300  0.63927800  0.88223700  1
  N  N6  1  0.94864300  0.86072200  0.88223700  1
  N  N7  1  0.05135700  0.13927800  0.38223700  1
loop_
_geom_bond_atom_site_label_1
_geom_bond_atom_site_label_2
_geom_bond_distance
_geom_bond_site_symmetry_2
Mn0 N6 1.818043 1_555
Mn0 N1 1.828804 1_565
Mn0 N0 1.843480 1_556
Mn0 N5 1.875267 1_555
Mn1 N7 1.818043 1_555
Mn1 N0 1.828804 1_545
Mn1 N1 1.843480 1_555
Mn1 N4 1.875267 1_555
Mn2 N4 1.818043 1_555
Mn2 N3 1.828804 1_655
Mn2 N2 1.843480 1_555
Mn2 N7 1.875267 1_655
Mn3 N5 1.818043 1_555
Mn3 N2 1.828804 1_455
Mn3 N3 1.843480 1_556
Mn3 N6 1.875267 1_455
N0 Ru1 1.973106 1_555
N0 Ru2 2.036266 1_555
N1 Ru0 1.973106 1_555
N1 Ru3 2.036266 1_555
N2 Ru3 1.973106 1_655
N2 Ru0 2.036266 1_555
N3 Ru2 1.973106 1_455
N3 Ru1 2.036266 1_555
N4 Ru0 1.994530 1_554
N4 Ru1 2.052394 1_555
N5 Ru1 1.994530 1_555
N5 Ru0 2.052394 1_555
N6 Ru2 1.994530 1_555
N6 Ru3 2.052394 1_665
N7 Ru3 1.994530 1_554
N7 Ru2 2.052394 1_445
