# generated using pymatgen
data_Zn(AgO2)2
_symmetry_space_group_name_H-M   'P 1'
_cell_length_a   6.39278234
_cell_length_b   6.39278234
_cell_length_c   15.48787200
_cell_angle_alpha   90.00000000
_cell_angle_beta   90.00000000
_cell_angle_gamma   120.00000347
_symmetry_Int_Tables_number   1
_chemical_formula_structural   Zn(AgO2)2
_chemical_formula_sum   'Zn6 Ag12 O24'
_cell_volume   548.15351389
_cell_formula_units_Z   6
loop_
 _symmetry_equiv_pos_site_id
 _symmetry_equiv_pos_as_xyz
  1  'x, y, z'
loop_
 _atom_site_type_symbol
 _atom_site_label
 _atom_site_symmetry_multiplicity
 _atom_site_fract_x
 _atom_site_fract_y
 _atom_site_fract_z
 _atom_site_occupancy
  Zn  Zn0  1  0.33333300  0.66666700  0.95425300  1
  Zn  Zn1  1  0.00000000  0.00000000  0.62374300  1
  Zn  Zn2  1  0.00000000  0.00000000  0.99799700  1
  Zn  Zn3  1  0.66666700  0.33333300  0.28890600  1
  Zn  Zn4  1  0.33333300  0.66666700  0.71006800  1
  Zn  Zn5  1  0.00000000  0.00000000  0.37717600  1
  Ag  Ag0  1  0.83585400  0.67170800  0.83349800  1
  Ag  Ag1  1  0.32829200  0.16414600  0.83349800  1
  Ag  Ag2  1  0.49997600  0.99995100  0.50013700  1
  Ag  Ag3  1  0.83585400  0.16414600  0.83349800  1
  Ag  Ag4  1  0.66666700  0.33333300  0.66677400  1
  Ag  Ag5  1  0.00004900  0.50002400  0.50013700  1
  Ag  Ag6  1  0.16511400  0.33022900  0.16628400  1
  Ag  Ag7  1  0.49997600  0.50002400  0.50013700  1
  Ag  Ag8  1  0.16511400  0.83488600  0.16628400  1
  Ag  Ag9  1  0.33333300  0.66666700  0.33402700  1
  Ag  Ag10  1  0.66977100  0.83488600  0.16628400  1
  Ag  Ag11  1  0.66666700  0.33333300  0.04193500  1
  O  O0  1  0.68666200  0.84333100  0.91758100  1
  O  O1  1  0.00000000  0.00000000  0.75400700  1
  O  O2  1  0.15666900  0.84333100  0.91758100  1
  O  O3  1  0.15666900  0.31333800  0.91758100  1
  O  O4  1  0.50519400  0.01038800  0.75321600  1
  O  O5  1  0.34166800  0.17083400  0.58171000  1
  O  O6  1  0.50519400  0.49480600  0.75321600  1
  O  O7  1  0.66666700  0.33333300  0.90280900  1
  O  O8  1  0.82916600  0.17083400  0.58171000  1
  O  O9  1  0.66666700  0.33333300  0.41867700  1
  O  O10  1  0.98961200  0.49480600  0.75321600  1
  O  O11  1  0.82916600  0.65833200  0.58171000  1
  O  O12  1  0.17149000  0.34298100  0.41885800  1
  O  O13  1  0.01537800  0.50768900  0.24316800  1
  O  O14  1  0.17149000  0.82851000  0.41885800  1
  O  O15  1  0.33333300  0.66666700  0.58034100  1
  O  O16  1  0.33333300  0.66666700  0.08270300  1
  O  O17  1  0.49231100  0.50768900  0.24316800  1
  O  O18  1  0.65701900  0.82851000  0.41885800  1
  O  O19  1  0.49231100  0.98462200  0.24316800  1
  O  O20  1  0.85447000  0.70893900  0.09047500  1
  O  O21  1  0.00000000  0.00000000  0.25140400  1
  O  O22  1  0.85447000  0.14553000  0.09047500  1
  O  O23  1  0.29106100  0.14553000  0.09047500  1
loop_
_geom_bond_atom_site_label_1
_geom_bond_atom_site_label_2
_geom_bond_distance
_geom_bond_site_symmetry_2
Ag0 O7 2.159120 1_555
Ag0 O1 2.195251 1_665
Ag0 O2 2.203562 1_655
Ag0 O0 2.203562 1_555
Ag0 O6 2.214213 1_555
Ag0 O10 2.214213 1_555
Ag1 O7 2.159120 1_555
Ag1 O1 2.195251 1_555
Ag1 O2 2.203562 1_545
Ag1 O3 2.203562 1_555
Ag1 O6 2.214213 1_555
Ag1 O4 2.214213 1_555
Ag2 O18 2.212253 1_555
Ag2 O14 2.212262 1_555
Ag2 O8 2.217944 1_565
Ag2 O5 2.217949 1_565
Ag2 O15 2.224335 1_555
Ag2 O9 2.235704 1_565
Ag3 O7 2.159115 1_555
Ag3 O1 2.195251 1_655
Ag3 O3 2.203562 1_655
Ag3 O0 2.203562 1_545
Ag3 O4 2.214213 1_555
Ag3 O10 2.214213 1_555
Ag4 O8 2.230055 1_555
Ag4 O5 2.230060 1_555
Ag4 O11 2.230060 1_555
Ag4 O4 2.233622 1_555
Ag4 O10 2.233622 1_555
Ag4 O6 2.233626 1_555
Ag5 O12 2.212253 1_555
Ag5 O14 2.212262 1_555
Ag5 O8 2.217944 1_455
Ag5 O11 2.217949 1_455
Ag5 O15 2.224335 1_555
Ag5 O9 2.235704 1_455
Ag6 O22 2.090841 1_455
Ag6 O23 2.090849 1_555
Ag6 O13 2.169601 1_555
Ag6 O17 2.169606 1_555
Ag6 O21 2.253994 1_555
Ag6 O16 2.268278 1_555
Ag7 O18 2.212262 1_555
Ag7 O12 2.212262 1_555
Ag7 O11 2.217944 1_555
Ag7 O5 2.217944 1_555
Ag7 O15 2.224344 1_555
Ag7 O9 2.235704 1_555
Ag8 O23 2.090840 1_565
Ag8 O20 2.090840 1_455
Ag8 O19 2.169606 1_555
Ag8 O13 2.169606 1_555
Ag8 O21 2.253989 1_565
Ag8 O16 2.268278 1_555
Ag9 O18 2.222063 1_555
Ag9 O12 2.222063 1_555
Ag9 O14 2.222063 1_555
Ag9 O19 2.253641 1_555
Ag9 O13 2.253641 1_555
Ag9 O17 2.253645 1_555
Ag10 O22 2.090841 1_565
Ag10 O20 2.090849 1_555
Ag10 O19 2.169601 1_555
Ag10 O17 2.169606 1_555
Ag10 O21 2.253994 1_665
Ag10 O16 2.268278 1_555
Ag11 O7 2.154766 1_554
Ag11 O23 2.211194 1_555
Ag11 O20 2.211194 1_555
Ag11 O22 2.211194 1_555
O0 Zn0 2.036927 1_555
O0 Zn2 2.135536 1_665
O1 Zn1 2.017512 1_555
O2 Zn0 2.036922 1_555
O2 Zn2 2.135536 1_565
O3 Zn0 2.036927 1_555
O3 Zn2 2.135536 1_555
O4 Zn4 2.016877 1_545
O5 Zn1 2.000470 1_555
O6 Zn4 2.016882 1_555
O8 Zn1 2.000470 1_655
O9 Zn3 2.009877 1_555
O10 Zn4 2.016877 1_655
O11 Zn1 2.000470 1_665
O12 Zn5 2.005588 1_555
O13 Zn3 2.056434 1_455
O14 Zn5 2.005583 1_565
O15 Zn4 2.009195 1_555
O16 Zn0 1.989417 1_554
O17 Zn3 2.056439 1_555
O18 Zn5 2.005588 1_665
O19 Zn3 2.056434 1_565
O20 Zn2 2.155939 1_664
O21 Zn5 1.947941 1_555
O22 Zn2 2.155935 1_654
O23 Zn2 2.155939 1_554
