# generated using pymatgen
data_K2Zn3(SeO3)4
_symmetry_space_group_name_H-M   'P 1'
_cell_length_a   7.29659300
_cell_length_b   7.29659300
_cell_length_c   14.01261095
_cell_angle_alpha   87.33200177
_cell_angle_beta   87.33200177
_cell_angle_gamma   74.51322190
_symmetry_Int_Tables_number   1
_chemical_formula_structural   K2Zn3(SeO3)4
_chemical_formula_sum   'K4 Zn6 Se8 O24'
_cell_volume   717.71765838
_cell_formula_units_Z   2
loop_
 _symmetry_equiv_pos_site_id
 _symmetry_equiv_pos_as_xyz
  1  'x, y, z'
loop_
 _atom_site_type_symbol
 _atom_site_label
 _atom_site_symmetry_multiplicity
 _atom_site_fract_x
 _atom_site_fract_y
 _atom_site_fract_z
 _atom_site_occupancy
  K  K0  1  0.79774100  0.78267000  0.98305200  1
  K  K1  1  0.21733000  0.20225900  0.51694800  1
  K  K2  1  0.20225900  0.21733000  0.01694800  1
  K  K3  1  0.78267000  0.79774100  0.48305200  1
  Zn  Zn0  1  0.32310600  0.62612900  0.89807000  1
  Zn  Zn1  1  0.37387100  0.67689400  0.60193000  1
  Zn  Zn2  1  0.67689400  0.37387100  0.10193000  1
  Zn  Zn3  1  0.62612900  0.32310600  0.39807000  1
  Zn  Zn4  1  0.00064200  0.99935800  0.75000000  1
  Zn  Zn5  1  0.99935800  0.00064200  0.25000000  1
  Se  Se0  1  0.02166900  0.58340400  0.72210700  1
  Se  Se1  1  0.41659600  0.97833100  0.77789300  1
  Se  Se2  1  0.97833100  0.41659600  0.27789300  1
  Se  Se3  1  0.58340400  0.02166900  0.22210700  1
  Se  Se4  1  0.67682100  0.28152400  0.62896100  1
  Se  Se5  1  0.71847600  0.32317900  0.87103900  1
  Se  Se6  1  0.32317900  0.71847600  0.37103900  1
  Se  Se7  1  0.28152400  0.67682100  0.12896100  1
  O  O0  1  0.92328800  0.80248300  0.66785300  1
  O  O1  1  0.19751700  0.07671200  0.83214700  1
  O  O2  1  0.07671200  0.19751700  0.33214700  1
  O  O3  1  0.80248300  0.92328800  0.16785300  1
  O  O4  1  0.23074300  0.49815900  0.65434900  1
  O  O5  1  0.50184100  0.76925700  0.84565100  1
  O  O6  1  0.76925700  0.50184100  0.34565100  1
  O  O7  1  0.49815900  0.23074300  0.15434900  1
  O  O8  1  0.08836000  0.67672600  0.82396200  1
  O  O9  1  0.32327400  0.91164000  0.67603800  1
  O  O10  1  0.91164000  0.32327400  0.17603800  1
  O  O11  1  0.67672600  0.08836000  0.32396200  1
  O  O12  1  0.91912000  0.21190900  0.64561300  1
  O  O13  1  0.78809100  0.08088000  0.85438700  1
  O  O14  1  0.08088000  0.78809100  0.35438700  1
  O  O15  1  0.21190900  0.91912000  0.14561300  1
  O  O16  1  0.65222100  0.17850400  0.52276000  1
  O  O17  1  0.82149600  0.34777900  0.97724000  1
  O  O18  1  0.34777900  0.82149600  0.47724000  1
  O  O19  1  0.17850400  0.65222100  0.02276000  1
  O  O20  1  0.64489400  0.51791100  0.59189500  1
  O  O21  1  0.48208900  0.35510600  0.90810500  1
  O  O22  1  0.35510600  0.48208900  0.40810500  1
  O  O23  1  0.51791100  0.64489400  0.09189500  1
loop_
_geom_bond_atom_site_label_1
_geom_bond_atom_site_label_2
_geom_bond_distance
_geom_bond_site_symmetry_2
K0 O13 2.748621 1_565
K0 O19 2.759849 1_656
K0 O3 2.834490 1_556
K0 O23 2.858191 1_556
K0 O5 2.982528 1_555
K0 O8 2.984759 1_655
K0 O17 3.136086 1_555
K1 O12 2.748621 1_455
K1 O18 2.759849 1_545
K1 O2 2.834490 1_555
K1 O22 2.858191 1_555
K1 O4 2.982528 1_555
K1 O9 2.984759 1_545
K1 O16 3.136086 1_555
K2 O15 2.748621 1_545
K2 O17 2.759849 1_454
K2 O1 2.834490 1_554
K2 O21 2.858191 1_554
K2 O7 2.982528 1_555
K2 O10 2.984759 1_455
K2 O19 3.136086 1_555
K3 O14 2.748621 1_655
K3 O16 2.759849 1_565
K3 O0 2.834490 1_555
K3 O20 2.858191 1_555
K3 O6 2.982528 1_555
K3 O11 2.984759 1_565
K3 O18 3.136086 1_555
O0 Se0 1.724365 1_655
O0 Zn4 2.086765 1_655
O1 Se1 1.724365 1_545
O1 Zn4 2.086765 1_545
O2 Se2 1.724365 1_455
O2 Zn5 2.086765 1_455
O3 Se3 1.724365 1_565
O3 Zn5 2.086765 1_565
O4 Se0 1.740405 1_555
O4 Zn1 1.974276 1_555
O5 Se1 1.740405 1_555
O5 Zn0 1.974276 1_555
O6 Se2 1.740405 1_555
O6 Zn3 1.974276 1_555
O7 Se3 1.740405 1_555
O7 Zn2 1.974276 1_555
O8 Se0 1.752030 1_555
O8 Zn0 1.985123 1_555
O8 Zn4 2.460814 1_555
O9 Se1 1.752030 1_555
O9 Zn1 1.985123 1_555
O9 Zn4 2.460814 1_555
O10 Se2 1.752030 1_555
O10 Zn2 1.985123 1_555
O10 Zn5 2.460814 1_555
O11 Se3 1.752030 1_555
O11 Zn3 1.985123 1_555
O11 Zn5 2.460814 1_555
O12 Se4 1.727983 1_555
O12 Zn4 2.067813 1_645
O13 Se5 1.727983 1_555
O13 Zn4 2.067813 1_645
O14 Se6 1.727983 1_555
O14 Zn5 2.067813 1_465
O15 Se7 1.727983 1_555
O15 Zn5 2.067813 1_465
O16 Se4 1.735779 1_555
O16 Zn3 1.988562 1_555
O17 Se5 1.735779 1_555
O17 Zn2 1.988562 1_556
O18 Se6 1.735779 1_555
O18 Zn1 1.988562 1_555
O19 Se7 1.735779 1_555
O19 Zn0 1.988562 1_554
O20 Se4 1.735604 1_555
O20 Zn1 2.010063 1_555
O21 Se5 1.735604 1_555
O21 Zn0 2.010063 1_555
O22 Se6 1.735604 1_555
O22 Zn3 2.010063 1_555
O23 Se7 1.735604 1_555
O23 Zn2 2.010063 1_555
