# generated using pymatgen
data_Mg14NbSn
_symmetry_space_group_name_H-M   'P 1'
_cell_length_a   6.32948516
_cell_length_b   6.23124913
_cell_length_c   10.26165920
_cell_angle_alpha   90.00000000
_cell_angle_beta   90.00000000
_cell_angle_gamma   119.48790963
_symmetry_Int_Tables_number   1
_chemical_formula_structural   Mg14NbSn
_chemical_formula_sum   'Mg14 Nb1 Sn1'
_cell_volume   352.29761298
_cell_formula_units_Z   1
loop_
 _symmetry_equiv_pos_site_id
 _symmetry_equiv_pos_as_xyz
  1  'x, y, z'
loop_
 _atom_site_type_symbol
 _atom_site_label
 _atom_site_symmetry_multiplicity
 _atom_site_fract_x
 _atom_site_fract_y
 _atom_site_fract_z
 _atom_site_occupancy
  Mg  Mg0  1  0.16663467  0.33331684  0.62500000  1
  Mg  Mg1  1  0.16613813  0.83306856  0.62500000  1
  Mg  Mg2  1  0.66742290  0.33512879  0.12500000  1
  Mg  Mg3  1  0.66585937  0.33321476  0.62500000  1
  Mg  Mg4  1  0.66742290  0.83229311  0.12500000  1
  Mg  Mg5  1  0.66585937  0.83264361  0.62500000  1
  Mg  Mg6  1  0.33119324  0.15975062  0.37242413  1
  Mg  Mg7  1  0.33119324  0.15975062  0.87757587  1
  Mg  Mg8  1  0.33119324  0.67144361  0.37242413  1
  Mg  Mg9  1  0.33119324  0.67144361  0.87757587  1
  Mg  Mg10  1  0.83201186  0.16600643  0.37801496  1
  Mg  Mg11  1  0.83201186  0.16600643  0.87198504  1
  Mg  Mg12  1  0.84114509  0.67057305  0.37181600  1
  Mg  Mg13  1  0.84114509  0.67057305  0.87818400  1
  Nb  Nb0  1  0.16541997  0.83270949  0.12500000  1
  Sn  Sn0  1  0.16415583  0.33207741  0.12500000  1
loop_
_geom_bond_atom_site_label_1
_geom_bond_atom_site_label_2
_geom_bond_distance
_geom_bond_site_symmetry_2
Mg0 Mg1 3.115626 1_555
Mg0 Mg1 3.115626 1_545
Mg0 Mg11 3.134090 1_455
Mg0 Mg10 3.134090 1_455
Mg0 Mg5 3.160148 1_555
Mg0 Mg3 3.160148 1_555
Mg0 Mg5 3.169337 1_445
Mg0 Mg3 3.169337 1_455
Mg0 Mg6 3.175102 1_555
Mg0 Mg7 3.175102 1_555
Mg0 Mg8 3.175108 1_555
Mg0 Mg9 3.175108 1_555
Mg1 Mg9 3.139941 1_555
Mg1 Mg8 3.139941 1_555
Mg1 Mg6 3.139947 1_565
Mg1 Mg7 3.139947 1_565
Mg1 Mg13 3.155344 1_455
Mg1 Mg12 3.155344 1_455
Mg1 Mg3 3.164282 1_565
Mg1 Mg5 3.164282 1_555
Mg1 Mg3 3.165204 1_455
Mg1 Mg5 3.165204 1_455
Mg2 Mg4 3.097955 1_555
Mg2 Mg4 3.133294 1_545
Mg2 Mg7 3.143271 1_554
Mg2 Mg6 3.143271 1_555
Mg2 Nb0 3.150789 1_655
Mg2 Sn0 3.153467 1_655
Mg2 Sn0 3.176105 1_555
Mg2 Nb0 3.178698 1_545
Mg3 Mg5 3.112066 1_555
Mg3 Mg5 3.119184 1_545
Mg3 Mg6 3.181032 1_555
Mg3 Mg7 3.181032 1_555
Mg4 Mg8 3.143271 1_555
Mg4 Mg9 3.143271 1_554
Mg4 Nb0 3.150789 1_655
Mg4 Sn0 3.153466 1_665
Mg4 Sn0 3.176105 1_555
Mg4 Nb0 3.178698 1_555
Mg5 Mg8 3.181032 1_555
Mg5 Mg9 3.181032 1_555
Mg6 Mg8 3.042763 1_545
Mg6 Nb0 3.097618 1_545
Mg6 Sn0 3.136077 1_555
Mg6 Mg8 3.188487 1_555
Mg7 Mg9 3.042763 1_545
Mg7 Nb0 3.097618 1_546
Mg7 Sn0 3.136077 1_556
Mg7 Mg9 3.188487 1_555
Mg8 Nb0 3.097612 1_555
Mg8 Sn0 3.136083 1_555
Mg9 Nb0 3.097612 1_556
Mg9 Sn0 3.136083 1_556
Mg10 Mg3 3.113500 1_555
Mg10 Mg5 3.113507 1_545
Mg10 Mg12 3.116680 1_545
Mg10 Mg12 3.116680 1_555
Mg10 Mg8 3.151441 1_545
Mg10 Mg6 3.151441 1_555
Mg10 Mg2 3.165079 1_555
Mg10 Mg4 3.165085 1_545
Mg10 Sn0 3.176449 1_655
Mg10 Mg8 3.179448 1_655
Mg10 Mg6 3.179448 1_655
Mg11 Mg3 3.113500 1_555
Mg11 Mg5 3.113507 1_545
Mg11 Mg13 3.116680 1_545
Mg11 Mg13 3.116680 1_555
Mg11 Mg9 3.151441 1_545
Mg11 Mg7 3.151441 1_555
Mg11 Mg2 3.165079 1_556
Mg11 Mg4 3.165085 1_546
Mg11 Sn0 3.176449 1_656
Mg11 Mg9 3.179448 1_655
Mg11 Mg7 3.179448 1_655
Mg12 Mg6 3.099092 1_665
Mg12 Mg8 3.099092 1_655
Mg12 Nb0 3.099478 1_655
Mg12 Mg4 3.119326 1_555
Mg12 Mg2 3.119332 1_555
Mg12 Mg5 3.178671 1_555
Mg12 Mg3 3.178677 1_555
Mg12 Mg6 3.230412 1_555
Mg12 Mg8 3.230412 1_555
Mg13 Mg7 3.099092 1_665
Mg13 Mg9 3.099092 1_655
Mg13 Nb0 3.099478 1_656
Mg13 Mg4 3.119326 1_556
Mg13 Mg2 3.119332 1_556
Mg13 Mg5 3.178671 1_555
Mg13 Mg3 3.178677 1_555
Mg13 Mg7 3.230412 1_555
Mg13 Mg9 3.230412 1_555
Nb0 Sn0 3.115632 1_565
Nb0 Sn0 3.115632 1_555
