# generated using pymatgen
data_K2Ca5S6O25
_symmetry_space_group_name_H-M   'P 1'
_cell_length_a   9.49671686
_cell_length_b   9.49671686
_cell_length_c   18.36832253
_cell_angle_alpha   68.51770195
_cell_angle_beta   68.51770195
_cell_angle_gamma   42.80662895
_symmetry_Int_Tables_number   1
_chemical_formula_structural   K2Ca5S6O25
_chemical_formula_sum   'K4 Ca10 S12 O50'
_cell_volume   1034.96053162
_cell_formula_units_Z   2
loop_
 _symmetry_equiv_pos_site_id
 _symmetry_equiv_pos_as_xyz
  1  'x, y, z'
loop_
 _atom_site_type_symbol
 _atom_site_label
 _atom_site_symmetry_multiplicity
 _atom_site_fract_x
 _atom_site_fract_y
 _atom_site_fract_z
 _atom_site_occupancy
  K  K0  1  0.82410100  0.04275000  0.08948700  1
  K  K1  1  0.95725000  0.17589900  0.41051300  1
  K  K2  1  0.17589900  0.95725000  0.91051300  1
  K  K3  1  0.04275000  0.82410100  0.58948700  1
  Ca  Ca0  1  0.42876400  0.27173800  0.48281200  1
  Ca  Ca1  1  0.72826200  0.57123600  0.01718800  1
  Ca  Ca2  1  0.57123600  0.72826200  0.51718800  1
  Ca  Ca3  1  0.27173800  0.42876400  0.98281200  1
  Ca  Ca4  1  0.34028700  0.09441300  0.20634800  1
  Ca  Ca5  1  0.90558700  0.65971300  0.29365200  1
  Ca  Ca6  1  0.65971300  0.90558700  0.79365200  1
  Ca  Ca7  1  0.09441300  0.34028700  0.70634800  1
  Ca  Ca8  1  0.39534000  0.60466000  0.25000000  1
  Ca  Ca9  1  0.60466000  0.39534000  0.75000000  1
  S  S0  1  0.21773900  0.04725500  0.08836600  1
  S  S1  1  0.95274500  0.78226100  0.41163400  1
  S  S2  1  0.78226100  0.95274500  0.91163400  1
  S  S3  1  0.04725500  0.21773900  0.58836600  1
  S  S4  1  0.47687700  0.67574500  0.38242800  1
  S  S5  1  0.32425500  0.52312300  0.11757200  1
  S  S6  1  0.52312300  0.32425500  0.61757200  1
  S  S7  1  0.67574500  0.47687700  0.88242800  1
  S  S8  1  0.39777900  0.17236600  0.34459400  1
  S  S9  1  0.82763400  0.60222100  0.15540600  1
  S  S10  1  0.60222100  0.82763400  0.65540600  1
  S  S11  1  0.17236600  0.39777900  0.84459400  1
  O  O0  1  0.79551500  0.00359600  0.42421900  1
  O  O1  1  0.99640400  0.20448500  0.07578100  1
  O  O2  1  0.20448500  0.99640400  0.57578100  1
  O  O3  1  0.00359600  0.79551500  0.92421900  1
  O  O4  1  0.39955100  0.33116200  0.33943300  1
  O  O5  1  0.66883800  0.60044900  0.16056700  1
  O  O6  1  0.60044900  0.66883800  0.66056700  1
  O  O7  1  0.33116200  0.39955100  0.83943300  1
  O  O8  1  0.23145200  0.94780100  0.17377800  1
  O  O9  1  0.05219900  0.76854800  0.32622200  1
  O  O10  1  0.76854800  0.05219900  0.82622200  1
  O  O11  1  0.94780100  0.23145200  0.67377800  1
  O  O12  1  0.35137600  0.88900500  0.03511600  1
  O  O13  1  0.11099500  0.64862400  0.46488400  1
  O  O14  1  0.64862400  0.11099500  0.96488400  1
  O  O15  1  0.88900500  0.35137600  0.53511600  1
  O  O16  1  0.29565200  0.14832900  0.07467100  1
  O  O17  1  0.85167100  0.70434800  0.42532900  1
  O  O18  1  0.70434800  0.85167100  0.92532900  1
  O  O19  1  0.14832900  0.29565200  0.57467100  1
  O  O20  1  0.56939300  0.02481300  0.28673100  1
  O  O21  1  0.97518700  0.43060700  0.21326900  1
  O  O22  1  0.43060700  0.97518700  0.71326900  1
  O  O23  1  0.02481300  0.56939300  0.78673100  1
  O  O24  1  0.41296700  0.06503500  0.42758800  1
  O  O25  1  0.93496500  0.58703300  0.07241200  1
  O  O26  1  0.58703300  0.93496500  0.57241200  1
  O  O27  1  0.06503500  0.41296700  0.92758800  1
  O  O28  1  0.36781000  0.83713900  0.31332700  1
  O  O29  1  0.16286100  0.63219000  0.18667300  1
  O  O30  1  0.63219000  0.16286100  0.68667300  1
  O  O31  1  0.83713900  0.36781000  0.81332700  1
  O  O32  1  0.38905000  0.32158200  0.12196500  1
  O  O33  1  0.67841800  0.61095000  0.37803500  1
  O  O34  1  0.61095000  0.67841800  0.87803500  1
  O  O35  1  0.32158200  0.38905000  0.62196500  1
  O  O36  1  0.72036300  0.80362200  0.17734200  1
  O  O37  1  0.19637800  0.27963700  0.32265800  1
  O  O38  1  0.27963700  0.19637800  0.82265800  1
  O  O39  1  0.80362200  0.72036300  0.67734200  1
  O  O40  1  0.34396800  0.76305500  0.45725800  1
  O  O41  1  0.23694500  0.65603200  0.04274200  1
  O  O42  1  0.65603200  0.23694500  0.54274200  1
  O  O43  1  0.76305500  0.34396800  0.95725800  1
  O  O44  1  0.50995800  0.47666900  0.12101600  1
  O  O45  1  0.52333100  0.49004200  0.37898400  1
  O  O46  1  0.49004200  0.52333100  0.87898400  1
  O  O47  1  0.47666900  0.50995800  0.62101600  1
  O  O48  1  0.75937900  0.24062100  0.25000000  1
  O  O49  1  0.24062100  0.75937900  0.75000000  1
loop_
_geom_bond_atom_site_label_1
_geom_bond_atom_site_label_2
_geom_bond_distance
_geom_bond_site_symmetry_2
K0 O32 2.781458 1_555
K0 O43 2.815560 1_554
K0 O36 2.857628 1_545
K0 O1 2.864065 1_555
K0 O41 2.883226 1_645
K0 O14 2.925380 1_554
K0 O44 2.942885 1_555
K0 O29 3.072783 1_645
K1 O33 2.781458 1_555
K1 O42 2.815560 1_555
K1 O37 2.857628 1_655
K1 O0 2.864065 1_555
K1 O40 2.883226 1_645
K1 O15 2.925380 1_555
K1 O45 2.942885 1_555
K1 O28 3.072783 1_645
K2 O34 2.781458 1_555
K2 O41 2.815560 1_556
K2 O38 2.857628 1_565
K2 O3 2.864065 1_555
K2 O43 2.883226 1_465
K2 O12 2.925380 1_556
K2 O46 2.942885 1_555
K2 O31 3.072783 1_465
K3 O35 2.781458 1_555
K3 O40 2.815560 1_555
K3 O39 2.857628 1_455
K3 O2 2.864065 1_555
K3 O42 2.883226 1_465
K3 O13 2.925380 1_555
K3 O47 2.942885 1_555
K3 O30 3.072783 1_465
Ca0 O0 2.453911 1_555
Ca0 O13 2.458038 1_555
Ca0 O19 2.468437 1_555
Ca0 O26 2.469744 1_545
Ca0 O42 2.531123 1_555
Ca0 O4 2.558966 1_555
Ca0 O24 2.628080 1_555
Ca0 O45 2.706165 1_555
Ca0 O35 2.706770 1_555
Ca1 O1 2.453911 1_555
Ca1 O12 2.458038 1_555
Ca1 O18 2.468437 1_554
Ca1 O27 2.469744 1_654
Ca1 O43 2.531123 1_554
Ca1 O5 2.558966 1_555
Ca1 O25 2.628080 1_555
Ca1 O44 2.706165 1_555
Ca1 O34 2.706770 1_554
Ca2 O2 2.453911 1_555
Ca2 O15 2.458038 1_555
Ca2 O17 2.468437 1_555
Ca2 O24 2.469744 1_565
Ca2 O40 2.531123 1_555
Ca2 O6 2.558966 1_555
Ca2 O26 2.628080 1_555
Ca2 O47 2.706165 1_555
Ca2 O33 2.706770 1_555
Ca3 O3 2.453911 1_555
Ca3 O14 2.458038 1_555
Ca3 O16 2.468437 1_556
Ca3 O25 2.469744 1_456
Ca3 O41 2.531123 1_556
Ca3 O7 2.558966 1_555
Ca3 O27 2.628080 1_555
Ca3 O46 2.706165 1_555
Ca3 O32 2.706770 1_556
Ca4 O32 2.400444 1_555
Ca4 O16 2.411905 1_555
Ca4 O28 2.412854 1_545
Ca4 O21 2.441912 1_455
Ca4 O36 2.445762 1_545
Ca4 O8 2.557211 1_545
Ca4 O37 2.571533 1_555
Ca4 O20 2.622753 1_555
Ca5 O33 2.400444 1_555
Ca5 O17 2.411905 1_555
Ca5 O29 2.412854 1_655
Ca5 O20 2.441912 1_565
Ca5 O37 2.445762 1_655
Ca5 O9 2.557211 1_655
Ca5 O36 2.571533 1_555
Ca5 O21 2.622753 1_555
Ca6 O34 2.400444 1_555
Ca6 O18 2.411905 1_555
Ca6 O30 2.412854 1_565
Ca6 O23 2.441912 1_655
Ca6 O38 2.445762 1_565
Ca6 O10 2.557211 1_565
Ca6 O39 2.571533 1_555
Ca6 O22 2.622753 1_555
Ca7 O35 2.400444 1_555
Ca7 O19 2.411905 1_555
Ca7 O31 2.412854 1_455
Ca7 O22 2.441912 1_545
Ca7 O39 2.445762 1_455
Ca7 O11 2.557211 1_455
Ca7 O38 2.571533 1_555
Ca7 O23 2.622753 1_555
Ca8 O9 2.411265 1_555
Ca8 O8 2.411265 1_555
Ca8 O4 2.493382 1_555
Ca8 O5 2.493382 1_555
Ca8 O48 2.523258 1_555
Ca8 O44 2.560176 1_555
Ca8 O45 2.560176 1_555
Ca8 O29 2.665898 1_555
Ca8 O28 2.665898 1_555
Ca9 O11 2.411265 1_555
Ca9 O10 2.411265 1_555
Ca9 O7 2.493382 1_555
Ca9 O6 2.493382 1_555
Ca9 O49 2.523258 1_555
Ca9 O46 2.560176 1_555
Ca9 O47 2.560176 1_555
Ca9 O31 2.665898 1_555
Ca9 O30 2.665898 1_555
O0 S1 1.482918 1_545
O1 S0 1.482918 1_655
O2 S3 1.482918 1_565
O3 S2 1.482918 1_455
O4 S8 1.488226 1_555
O5 S9 1.488226 1_555
O6 S10 1.488226 1_555
O7 S11 1.488226 1_555
O8 S0 1.501417 1_565
O9 S1 1.501417 1_455
O10 S2 1.501417 1_545
O11 S3 1.501417 1_655
O12 S0 1.481487 1_565
O13 S1 1.481487 1_455
O14 S2 1.481487 1_545
O15 S3 1.481487 1_655
O16 S0 1.503678 1_555
O17 S1 1.503678 1_555
O18 S2 1.503678 1_555
O19 S3 1.503678 1_555
O20 S8 1.490142 1_555
O21 S9 1.490142 1_555
O22 S10 1.490142 1_555
O23 S11 1.490142 1_555
O24 S8 1.480192 1_555
O25 S9 1.480192 1_555
O26 S10 1.480192 1_555
O27 S11 1.480192 1_555
O28 S4 1.497231 1_555
O29 S5 1.497231 1_555
O30 S6 1.497231 1_555
O31 S7 1.497231 1_555
O32 S5 1.497866 1_555
O33 S4 1.497866 1_555
O34 S7 1.497866 1_555
O35 S6 1.497866 1_555
O36 S9 1.504395 1_555
O37 S8 1.504395 1_555
O38 S11 1.504395 1_555
O39 S10 1.504395 1_555
O40 S4 1.482676 1_555
O41 S5 1.482676 1_555
O42 S6 1.482676 1_555
O43 S7 1.482676 1_555
O44 S5 1.492811 1_555
O45 S4 1.492811 1_555
O46 S7 1.492811 1_555
O47 S6 1.492811 1_555
