# generated using pymatgen
data_La2MgS4
_symmetry_space_group_name_H-M   'P 1'
_cell_length_a   7.48593848
_cell_length_b   7.48593848
_cell_length_c   7.48593848
_cell_angle_alpha   111.09396409
_cell_angle_beta   111.09396409
_cell_angle_gamma   106.27231805
_symmetry_Int_Tables_number   1
_chemical_formula_structural   La2MgS4
_chemical_formula_sum   'La4 Mg2 S8'
_cell_volume   322.18670741
_cell_formula_units_Z   2
loop_
 _symmetry_equiv_pos_site_id
 _symmetry_equiv_pos_as_xyz
  1  'x, y, z'
loop_
 _atom_site_type_symbol
 _atom_site_label
 _atom_site_symmetry_multiplicity
 _atom_site_fract_x
 _atom_site_fract_y
 _atom_site_fract_z
 _atom_site_occupancy
  La  La0  1  0.87500000  0.75807700  0.38307700  1
  La  La1  1  0.50807700  0.12500000  0.88307700  1
  La  La2  1  0.37500000  0.49192300  0.61692300  1
  La  La3  1  0.24192300  0.62500000  0.11692300  1
  Mg  Mg0  1  0.00000000  0.00000000  0.00000000  1
  Mg  Mg1  1  0.75000000  0.25000000  0.50000000  1
  S  S0  1  0.50752200  0.37542200  0.26901000  1
  S  S1  1  0.76148900  0.49247800  0.86790000  1
  S  S2  1  0.10641100  0.23851100  0.73099000  1
  S  S3  1  0.62457800  0.89358900  0.13210000  1
  S  S4  1  0.24247800  0.01148900  0.36790000  1
  S  S5  1  0.98851100  0.35641100  0.23099000  1
  S  S6  1  0.64358900  0.87457800  0.63210000  1
  S  S7  1  0.12542200  0.75752200  0.76901000  1
loop_
_geom_bond_atom_site_label_1
_geom_bond_atom_site_label_2
_geom_bond_distance
_geom_bond_site_symmetry_2
La0 S7 2.824117 1_655
La0 S3 2.824123 1_555
La0 S0 2.938493 1_555
La0 S4 2.938496 1_665
La0 S6 3.039341 1_555
La0 S2 3.039343 1_665
La0 S5 3.274675 1_555
La0 S1 3.274676 1_554
La1 S0 2.824117 1_556
La1 S6 2.824123 1_545
La1 S7 2.938493 1_545
La1 S1 2.938496 1_555
La1 S3 3.039341 1_546
La1 S5 3.039343 1_556
La1 S2 3.274675 1_555
La1 S4 3.274676 1_555
La2 S5 2.824119 1_455
La2 S1 2.824123 1_555
La2 S6 2.938496 1_555
La2 S2 2.938501 1_555
La2 S4 3.039341 1_555
La2 S0 3.039348 1_555
La2 S7 3.274673 1_555
La2 S3 3.274676 1_556
La3 S2 2.824119 1_554
La3 S4 2.824123 1_565
La3 S3 2.938496 1_555
La3 S5 2.938501 1_455
La3 S1 3.039341 1_454
La3 S7 3.039348 1_554
La3 S0 3.274673 1_555
La3 S6 3.274676 1_555
Mg0 S6 2.651575 1_444
Mg0 S4 2.651575 1_555
Mg0 S5 2.651578 1_455
Mg0 S7 2.651579 1_544
Mg1 S1 2.651575 1_555
Mg1 S3 2.651575 1_545
Mg1 S2 2.651578 1_655
Mg1 S0 2.651579 1_555
