# generated using pymatgen
data_Mg3Cr
_symmetry_space_group_name_H-M   'P 1'
_cell_length_a   4.88584000
_cell_length_b   8.28640200
_cell_length_c   8.76013600
_cell_angle_alpha   90.00000000
_cell_angle_beta   90.00000000
_cell_angle_gamma   90.00000000
_symmetry_Int_Tables_number   1
_chemical_formula_structural   Mg3Cr
_chemical_formula_sum   'Mg12 Cr4'
_cell_volume   354.66316699
_cell_formula_units_Z   4
loop_
 _symmetry_equiv_pos_site_id
 _symmetry_equiv_pos_as_xyz
  1  'x, y, z'
loop_
 _atom_site_type_symbol
 _atom_site_label
 _atom_site_symmetry_multiplicity
 _atom_site_fract_x
 _atom_site_fract_y
 _atom_site_fract_z
 _atom_site_occupancy
  Mg  Mg0  1  0.75000000  0.26239700  0.29793000  1
  Mg  Mg1  1  0.75000000  0.23760300  0.79793000  1
  Mg  Mg2  1  0.25000000  0.73760300  0.70207000  1
  Mg  Mg3  1  0.25000000  0.76239700  0.20207000  1
  Mg  Mg4  1  0.75000000  0.95022400  0.09029000  1
  Mg  Mg5  1  0.75000000  0.54977600  0.59029000  1
  Mg  Mg6  1  0.25000000  0.04977600  0.90971000  1
  Mg  Mg7  1  0.25000000  0.45022400  0.40971000  1
  Mg  Mg8  1  0.25000000  0.09682200  0.57162200  1
  Mg  Mg9  1  0.25000000  0.40317800  0.07162200  1
  Mg  Mg10  1  0.75000000  0.90317800  0.42837800  1
  Mg  Mg11  1  0.75000000  0.59682200  0.92837800  1
  Cr  Cr0  1  0.25000000  0.09773400  0.24448800  1
  Cr  Cr1  1  0.25000000  0.40226600  0.74448800  1
  Cr  Cr2  1  0.75000000  0.90226600  0.75551200  1
  Cr  Cr3  1  0.75000000  0.59773400  0.25551200  1
loop_
_geom_bond_atom_site_label_1
_geom_bond_atom_site_label_2
_geom_bond_distance
_geom_bond_site_symmetry_2
Mg0 Mg7 3.057633 1_655
Mg0 Mg7 3.057633 1_555
Mg0 Mg4 3.162291 1_545
Mg0 Mg10 3.188449 1_545
Mg0 Mg9 3.355443 1_555
Mg0 Mg9 3.355443 1_655
Mg0 Mg5 3.497152 1_555
Mg1 Mg6 3.057633 1_555
Mg1 Mg6 3.057633 1_655
Mg1 Mg5 3.162291 1_555
Mg1 Mg11 3.188449 1_555
Mg1 Mg8 3.355443 1_555
Mg1 Mg8 3.355443 1_655
Mg1 Mg4 3.497152 1_546
Mg2 Mg5 3.057633 1_555
Mg2 Mg5 3.057633 1_455
Mg2 Mg6 3.162291 1_565
Mg2 Mg8 3.188449 1_565
Mg2 Mg7 3.497152 1_555
Mg3 Mg4 3.057633 1_555
Mg3 Mg4 3.057633 1_455
Mg3 Mg7 3.162291 1_555
Mg3 Mg9 3.188449 1_555
Mg3 Mg6 3.497152 1_564
Mg4 Mg6 3.025027 1_664
Mg4 Mg6 3.025027 1_564
Mg5 Mg7 3.025027 1_555
Mg5 Mg7 3.025027 1_655
Mg6 Mg8 2.987244 1_555
Mg6 Mg9 3.253842 1_556
Mg7 Mg9 2.987244 1_555
Mg7 Mg8 3.253842 1_555
Mg10 Mg4 2.987244 1_555
Mg10 Mg8 3.180763 1_665
Mg10 Mg8 3.180763 1_565
Mg10 Mg5 3.253842 1_555
Mg10 Mg3 3.355443 1_555
Mg10 Mg3 3.355443 1_655
Mg11 Mg5 2.987244 1_555
Mg11 Mg9 3.180763 1_656
Mg11 Mg9 3.180763 1_556
Mg11 Mg4 3.253842 1_556
Mg11 Mg2 3.355443 1_655
Mg11 Mg2 3.355443 1_555
Cr0 Mg3 2.803472 1_545
Cr0 Mg0 2.837039 1_555
Cr0 Mg0 2.837039 1_455
Cr0 Mg8 2.865748 1_555
Cr0 Mg9 2.949460 1_555
Cr0 Mg6 2.959503 1_554
Cr0 Mg4 3.047391 1_445
Cr0 Mg4 3.047391 1_545
Cr0 Mg7 3.259812 1_555
Cr0 Mg10 3.340951 1_445
Cr0 Mg10 3.340951 1_545
Cr1 Mg2 2.803472 1_555
Cr1 Mg1 2.837039 1_455
Cr1 Mg1 2.837039 1_555
Cr1 Mg9 2.865748 1_556
Cr1 Mg8 2.949460 1_555
Cr1 Mg7 2.959503 1_555
Cr1 Mg5 3.047391 1_455
Cr1 Mg5 3.047391 1_555
Cr1 Mg6 3.259812 1_555
Cr1 Mg11 3.340951 1_455
Cr1 Mg11 3.340951 1_555
Cr2 Mg1 2.803472 1_565
Cr2 Mg2 2.837039 1_555
Cr2 Mg2 2.837039 1_655
Cr2 Mg10 2.865748 1_555
Cr2 Mg11 2.949460 1_555
Cr2 Mg4 2.959503 1_556
Cr2 Mg6 3.047391 1_565
Cr2 Mg6 3.047391 1_665
Cr2 Mg5 3.259812 1_555
Cr2 Mg8 3.340951 1_665
Cr2 Mg8 3.340951 1_565
Cr3 Mg0 2.803472 1_555
Cr3 Mg3 2.837039 1_655
Cr3 Mg3 2.837039 1_555
Cr3 Mg11 2.865748 1_554
Cr3 Mg10 2.949460 1_555
Cr3 Mg5 2.959503 1_555
Cr3 Mg7 3.047391 1_655
Cr3 Mg7 3.047391 1_555
Cr3 Mg4 3.259812 1_555
Cr3 Mg9 3.340951 1_555
Cr3 Mg9 3.340951 1_655
