# generated using pymatgen
data_Li4MnCo2O7
_symmetry_space_group_name_H-M   'P 1'
_cell_length_a   10.30887995
_cell_length_b   10.30887995
_cell_length_c   5.15424728
_cell_angle_alpha   84.97654608
_cell_angle_beta   84.97654608
_cell_angle_gamma   151.33513889
_symmetry_Int_Tables_number   1
_chemical_formula_structural   Li4MnCo2O7
_chemical_formula_sum   'Li8 Mn2 Co4 O14'
_cell_volume   245.76431022
_cell_formula_units_Z   2
loop_
 _symmetry_equiv_pos_site_id
 _symmetry_equiv_pos_as_xyz
  1  'x, y, z'
loop_
 _atom_site_type_symbol
 _atom_site_label
 _atom_site_symmetry_multiplicity
 _atom_site_fract_x
 _atom_site_fract_y
 _atom_site_fract_z
 _atom_site_occupancy
  Li  Li0  1  0.92600300  0.07399700  0.50000000  1
  Li  Li1  1  0.35615400  0.64384600  0.50000000  1
  Li  Li2  1  0.78289200  0.21710800  0.50000000  1
  Li  Li3  1  0.21337800  0.78662200  0.50000000  1
  Li  Li4  1  0.64825600  0.35174400  0.50000000  1
  Li  Li5  1  0.07404700  0.92595300  0.50000000  1
  Li  Li6  1  0.49877300  0.50122700  0.50000000  1
  Li  Li7  1  0.71532600  0.28467400  0.00000000  1
  Mn  Mn0  1  0.99916100  0.00083900  0.00000000  1
  Mn  Mn1  1  0.57431300  0.42568700  0.00000000  1
  Co  Co0  1  0.42814600  0.57185400  0.00000000  1
  Co  Co1  1  0.85492200  0.14507800  0.00000000  1
  Co  Co2  1  0.27989800  0.72010200  0.00000000  1
  Co  Co3  1  0.14462100  0.85537900  0.00000000  1
  O  O0  1  0.70234700  0.84714200  0.22829300  1
  O  O1  1  0.10878300  0.39201000  0.21137600  1
  O  O2  1  0.55775400  0.97223600  0.22820100  1
  O  O3  1  0.98506400  0.55986200  0.24078600  1
  O  O4  1  0.38459800  0.10741800  0.22087700  1
  O  O5  1  0.82299100  0.67871500  0.21632900  1
  O  O6  1  0.28079100  0.28083400  0.23321700  1
  O  O7  1  0.15285800  0.29765300  0.77170700  1
  O  O8  1  0.60799000  0.89121700  0.78862400  1
  O  O9  1  0.02776400  0.44224600  0.77179900  1
  O  O10  1  0.44013800  0.01493600  0.75921400  1
  O  O11  1  0.89258200  0.61540200  0.77912300  1
  O  O12  1  0.32128500  0.17700900  0.78367100  1
  O  O13  1  0.71916600  0.71920900  0.76678300  1
loop_
_geom_bond_atom_site_label_1
_geom_bond_atom_site_label_2
_geom_bond_distance
_geom_bond_site_symmetry_2
Li0 O1 2.079846 1_655
Li0 O8 2.079846 1_545
Li0 O7 2.103106 1_655
Li0 O0 2.103106 1_545
Li0 O13 2.175876 1_545
Li0 O6 2.175876 1_655
Li1 O9 2.013733 1_555
Li1 O2 2.013733 1_555
Li1 O7 2.139012 1_555
Li1 O0 2.139012 1_555
Li1 O8 2.275682 1_555
Li1 O1 2.275682 1_555
Li2 O3 2.091903 1_555
Li2 O10 2.091903 1_555
Li2 O9 2.151466 1_655
Li2 O2 2.151466 1_545
Li2 O8 2.185326 1_545
Li2 O1 2.185326 1_655
Li3 O3 2.057088 1_455
Li3 O10 2.057088 1_565
Li3 O4 2.144832 1_565
Li3 O11 2.144832 1_455
Li3 O2 2.228431 1_555
Li3 O9 2.228431 1_555
Li4 O3 2.014102 1_555
Li4 O10 2.014102 1_555
Li4 O5 2.182819 1_555
Li4 O12 2.182819 1_555
Li4 O11 2.259857 1_555
Li4 O4 2.259857 1_555
Li5 O11 2.007658 1_455
Li5 O4 2.007658 1_565
Li5 O13 2.177138 1_455
Li5 O6 2.177138 1_565
Li5 O12 2.252009 1_565
Li5 O5 2.252009 1_455
Li6 O13 2.056976 1_555
Li6 O6 2.056976 1_555
Li6 O0 2.135310 1_555
Li6 O7 2.135310 1_555
Li6 O12 2.144874 1_555
Li6 O5 2.144874 1_555
Li7 O9 2.053449 1_654
Li7 O2 2.053449 1_545
Li7 O4 2.069357 1_555
Li7 O11 2.069357 1_554
Li7 O10 2.167484 1_554
Li7 O3 2.167484 1_555
Mn0 O0 1.947469 1_545
Mn0 O7 1.947469 1_654
Mn0 O5 1.995582 1_545
Mn0 O12 1.995582 1_654
Mn0 O13 2.172136 1_544
Mn0 O6 2.172136 1_655
Mn1 O11 1.892398 1_554
Mn1 O4 1.892398 1_555
Mn1 O12 1.973399 1_554
Mn1 O5 1.973399 1_555
Mn1 O6 1.987476 1_555
Mn1 O13 1.987476 1_554
Co0 O1 1.941625 1_555
Co0 O8 1.941625 1_554
Co0 O13 1.950417 1_554
Co0 O6 1.950417 1_555
Co0 O7 2.125635 1_554
Co0 O0 2.125635 1_555
Co1 O2 1.834678 1_545
Co1 O9 1.834678 1_654
Co1 O8 1.951934 1_544
Co1 O1 1.951934 1_655
Co1 O7 1.963979 1_654
Co1 O0 1.963979 1_545
Co2 O3 1.917422 1_455
Co2 O10 1.917422 1_564
Co2 O1 2.070336 1_555
Co2 O8 2.070336 1_554
Co2 O2 2.098605 1_555
Co2 O9 2.098605 1_554
Co3 O10 1.927012 1_564
Co3 O3 1.927012 1_455
Co3 O11 1.974427 1_454
Co3 O4 1.974427 1_565
Co3 O5 1.988385 1_455
Co3 O12 1.988385 1_564
