# generated using pymatgen
data_TlIn(PS3)2
_symmetry_space_group_name_H-M   'P 1'
_cell_length_a   9.30097700
_cell_length_b   6.70521600
_cell_length_c   8.98454521
_cell_angle_alpha   89.91795158
_cell_angle_beta   90.00000000
_cell_angle_gamma   90.00000000
_symmetry_Int_Tables_number   1
_chemical_formula_structural   TlIn(PS3)2
_chemical_formula_sum   'Tl2 In2 P4 S12'
_cell_volume   560.32112488
_cell_formula_units_Z   2
loop_
 _symmetry_equiv_pos_site_id
 _symmetry_equiv_pos_as_xyz
  1  'x, y, z'
loop_
 _atom_site_type_symbol
 _atom_site_label
 _atom_site_symmetry_multiplicity
 _atom_site_fract_x
 _atom_site_fract_y
 _atom_site_fract_z
 _atom_site_occupancy
  Tl  Tl0  1  0.80045000  0.20632200  0.00408200  1
  Tl  Tl1  1  0.30045000  0.79367800  0.99591800  1
  In  In0  1  0.43530300  0.29968700  0.48085100  1
  In  In1  1  0.93530300  0.70031300  0.51914900  1
  P  P0  1  0.29322600  0.31272600  0.79071700  1
  P  P1  1  0.79322600  0.68727400  0.20928300  1
  P  P2  1  0.10474700  0.20385600  0.64728600  1
  P  P3  1  0.60474700  0.79614400  0.35271400  1
  S  S0  1  0.93825600  0.39774600  0.69399600  1
  S  S1  1  0.43825600  0.60225400  0.30600400  1
  S  S2  1  0.23034200  0.30419400  0.00160200  1
  S  S3  1  0.73034200  0.69580600  0.99839800  1
  S  S4  1  0.16857600  0.20668500  0.43042800  1
  S  S5  1  0.66857600  0.79331500  0.56957200  1
  S  S6  1  0.46117000  0.12212000  0.73359500  1
  S  S7  1  0.96117000  0.87788000  0.26640500  1
  S  S8  1  0.54338400  0.07033800  0.27201300  1
  S  S9  1  0.04338400  0.92966200  0.72798700  1
  S  S10  1  0.33466600  0.57636500  0.69062100  1
  S  S11  1  0.83466600  0.42363500  0.30937900  1
loop_
_geom_bond_atom_site_label_1
_geom_bond_atom_site_label_2
_geom_bond_distance
_geom_bond_site_symmetry_2
In0 S1 2.564246 1_555
In0 S6 2.573755 1_555
In0 S4 2.597960 1_555
In0 S8 2.627604 1_555
In0 S10 2.807119 1_555
In1 S0 2.564246 1_555
In1 S7 2.573755 1_555
In1 S5 2.597960 1_555
In1 S9 2.627604 1_655
In1 S11 2.807119 1_555
P0 S2 1.983673 1_556
P0 S10 2.019341 1_555
P0 S6 2.082948 1_555
P0 P2 2.295514 1_555
P1 S3 1.983673 1_554
P1 S11 2.019341 1_555
P1 S7 2.082948 1_555
P1 P3 2.295514 1_555
P2 S4 2.036872 1_555
P2 S9 2.056168 1_545
P2 S0 2.065386 1_455
P3 S5 2.036872 1_555
P3 S8 2.056168 1_565
P3 S1 2.065386 1_555
S10 Tl1 3.124061 1_555
S11 Tl0 3.124061 1_555
