# generated using pymatgen
data_LaMg6Bi
_symmetry_space_group_name_H-M   'P 1'
_cell_length_a   5.08468600
_cell_length_b   6.62155100
_cell_length_c   12.62107500
_cell_angle_alpha   90.00000000
_cell_angle_beta   90.00000000
_cell_angle_gamma   90.00000000
_symmetry_Int_Tables_number   1
_chemical_formula_structural   LaMg6Bi
_chemical_formula_sum   'La2 Mg12 Bi2'
_cell_volume   424.93276042
_cell_formula_units_Z   2
loop_
 _symmetry_equiv_pos_site_id
 _symmetry_equiv_pos_as_xyz
  1  'x, y, z'
loop_
 _atom_site_type_symbol
 _atom_site_label
 _atom_site_symmetry_multiplicity
 _atom_site_fract_x
 _atom_site_fract_y
 _atom_site_fract_z
 _atom_site_occupancy
  La  La0  1  0.00000000  0.50000000  0.31483600  1
  La  La1  1  0.00000000  0.00000000  0.81483600  1
  Mg  Mg0  1  0.00000000  0.22866300  0.06932900  1
  Mg  Mg1  1  0.00000000  0.77133700  0.06932900  1
  Mg  Mg2  1  0.00000000  0.00000000  0.34818200  1
  Mg  Mg3  1  0.50000000  0.75427400  0.43049700  1
  Mg  Mg4  1  0.50000000  0.24572600  0.43049700  1
  Mg  Mg5  1  0.50000000  0.00000000  0.19550400  1
  Mg  Mg6  1  0.00000000  0.72866300  0.56932900  1
  Mg  Mg7  1  0.00000000  0.27133700  0.56932900  1
  Mg  Mg8  1  0.00000000  0.50000000  0.84818200  1
  Mg  Mg9  1  0.50000000  0.25427400  0.93049700  1
  Mg  Mg10  1  0.50000000  0.74572600  0.93049700  1
  Mg  Mg11  1  0.50000000  0.50000000  0.69550400  1
  Bi  Bi0  1  0.50000000  0.50000000  0.14182600  1
  Bi  Bi1  1  0.50000000  0.00000000  0.64182600  1
loop_
_geom_bond_atom_site_label_1
_geom_bond_atom_site_label_2
_geom_bond_distance
_geom_bond_site_symmetry_2
La0 Mg2 3.337418 1_555
La0 Mg2 3.337418 1_565
La0 Mg4 3.380715 1_555
La0 Mg3 3.380715 1_455
La0 Mg4 3.380715 1_455
La0 Mg3 3.380715 1_555
La0 Mg7 3.550957 1_555
La0 Mg6 3.550957 1_555
La0 Mg1 3.581776 1_555
La0 Mg0 3.581776 1_555
La1 Mg8 3.337418 1_545
La1 Mg8 3.337418 1_555
La1 Mg9 3.380715 1_455
La1 Mg9 3.380715 1_555
La1 Mg10 3.380715 1_445
La1 Mg10 3.380715 1_545
La1 Mg0 3.550957 1_556
La1 Mg1 3.550957 1_546
La1 Mg6 3.581776 1_545
La1 Mg7 3.581776 1_555
Mg0 Mg1 3.028207 1_545
Mg0 Mg9 3.092330 1_554
Mg0 Mg9 3.092330 1_454
Mg0 Mg8 3.319389 1_554
Mg0 Mg5 3.360351 1_455
Mg0 Mg5 3.360351 1_555
Mg1 Mg10 3.092330 1_554
Mg1 Mg10 3.092330 1_454
Mg1 Mg8 3.319389 1_554
Mg1 Mg5 3.360351 1_465
Mg1 Mg5 3.360351 1_565
Mg2 Mg5 3.190092 1_455
Mg2 Mg5 3.190092 1_555
Mg2 Mg4 3.192216 1_455
Mg2 Mg3 3.192216 1_445
Mg2 Mg3 3.192216 1_545
Mg2 Mg4 3.192216 1_555
Mg2 Mg7 3.319389 1_555
Mg2 Mg6 3.319389 1_545
Mg3 Mg6 3.092330 1_555
Mg3 Mg6 3.092330 1_655
Mg3 Mg4 3.254174 1_565
Mg3 Mg4 3.367377 1_555
Mg3 Mg5 3.382863 1_565
Mg4 Mg7 3.092330 1_655
Mg4 Mg7 3.092330 1_555
Mg4 Mg5 3.382863 1_555
Mg6 Mg7 3.028207 1_555
Mg8 Mg9 3.192216 1_555
Mg8 Mg9 3.192216 1_455
Mg10 Mg8 3.192216 1_555
Mg10 Mg8 3.192216 1_655
Mg10 Mg9 3.254174 1_555
Mg10 Mg9 3.367377 1_565
Mg10 Mg11 3.382863 1_555
Mg11 Mg8 3.190092 1_555
Mg11 Mg8 3.190092 1_655
Mg11 Mg6 3.360351 1_555
Mg11 Mg7 3.360351 1_555
Mg11 Mg6 3.360351 1_655
Mg11 Mg7 3.360351 1_655
Mg11 Mg9 3.382863 1_555
Bi0 Mg9 3.124318 1_554
Bi0 Mg10 3.124318 1_554
Bi0 Mg1 3.244803 1_655
Bi0 Mg1 3.244803 1_555
Bi0 Mg0 3.244803 1_555
Bi0 Mg0 3.244803 1_655
Bi0 La0 3.351342 1_655
Bi0 La0 3.351342 1_555
Bi0 Mg5 3.379379 1_555
Bi0 Mg5 3.379379 1_565
Bi1 Mg4 3.124318 1_555
Bi1 Mg3 3.124318 1_545
Bi1 Mg6 3.244803 1_645
Bi1 Mg6 3.244803 1_545
Bi1 Mg7 3.244803 1_555
Bi1 Mg7 3.244803 1_655
Bi1 La1 3.351342 1_555
Bi1 La1 3.351342 1_655
Bi1 Mg11 3.379379 1_555
Bi1 Mg11 3.379379 1_545
