# generated using pymatgen
data_DyFeNi4
_symmetry_space_group_name_H-M   'P 1'
_cell_length_a   4.93097198
_cell_length_b   4.93097198
_cell_length_c   3.93102700
_cell_angle_alpha   90.00000000
_cell_angle_beta   90.00000000
_cell_angle_gamma   119.99999980
_symmetry_Int_Tables_number   1
_chemical_formula_structural   DyFeNi4
_chemical_formula_sum   'Dy1 Fe1 Ni4'
_cell_volume   82.77548414
_cell_formula_units_Z   1
loop_
 _symmetry_equiv_pos_site_id
 _symmetry_equiv_pos_as_xyz
  1  'x, y, z'
loop_
 _atom_site_type_symbol
 _atom_site_label
 _atom_site_symmetry_multiplicity
 _atom_site_fract_x
 _atom_site_fract_y
 _atom_site_fract_z
 _atom_site_occupancy
  Dy  Dy0  1  0.66666700  0.33333300  0.00000000  1
  Fe  Fe0  1  0.00000000  0.00000000  0.00000000  1
  Ni  Ni0  1  0.33333300  0.66666700  0.00000000  1
  Ni  Ni1  1  0.66599500  0.83299800  0.50000000  1
  Ni  Ni2  1  0.16700200  0.83299800  0.50000000  1
  Ni  Ni3  1  0.16700200  0.33400500  0.50000000  1
loop_
_geom_bond_atom_site_label_1
_geom_bond_atom_site_label_2
_geom_bond_distance
_geom_bond_site_symmetry_2
Dy0 Fe0 2.846895 1_655
Dy0 Ni0 2.846895 1_545
Dy0 Ni0 2.846895 1_655
Dy0 Fe0 2.846899 1_555
Dy0 Fe0 2.846899 1_665
Dy0 Ni0 2.846904 1_555
Dy0 Ni1 3.153070 1_544
Dy0 Ni1 3.153070 1_545
Dy0 Ni3 3.153070 1_655
Dy0 Ni3 3.153070 1_654
Dy0 Ni2 3.153074 1_544
Dy0 Ni2 3.153074 1_545
Dy0 Ni2 3.153074 1_654
Dy0 Ni2 3.153074 1_655
Dy0 Ni1 3.153077 1_554
Dy0 Ni3 3.153077 1_555
Dy0 Ni1 3.153077 1_555
Dy0 Ni3 3.153077 1_554
Fe0 Ni2 2.428500 1_544
Fe0 Ni2 2.428500 1_545
Fe0 Ni1 2.428502 1_444
Fe0 Ni1 2.428502 1_445
Fe0 Ni3 2.428502 1_554
Fe0 Ni3 2.428502 1_555
Fe0 Ni0 2.846895 1_545
Fe0 Ni0 2.846899 1_555
Fe0 Ni0 2.846899 1_445
Ni0 Ni2 2.425139 1_554
Ni0 Ni2 2.425139 1_555
Ni0 Ni3 2.425139 1_554
Ni0 Ni1 2.425139 1_555
Ni0 Ni1 2.425139 1_554
Ni0 Ni3 2.425139 1_555
Ni1 Ni2 2.460521 1_555
Ni1 Ni3 2.460521 1_555
Ni1 Ni2 2.470451 1_655
Ni1 Ni3 2.470451 1_665
Ni2 Ni3 2.460521 1_555
Ni2 Ni3 2.470451 1_565
