# generated using pymatgen
data_Ba4Bi2O
_symmetry_space_group_name_H-M   'P 1'
_cell_length_a   10.22278976
_cell_length_b   10.22278976
_cell_length_c   10.22278976
_cell_angle_alpha   149.79296275
_cell_angle_beta   149.79296275
_cell_angle_gamma   43.24539597
_symmetry_Int_Tables_number   1
_chemical_formula_structural   Ba4Bi2O
_chemical_formula_sum   'Ba4 Bi2 O1'
_cell_volume   269.71607819
_cell_formula_units_Z   1
loop_
 _symmetry_equiv_pos_site_id
 _symmetry_equiv_pos_as_xyz
  1  'x, y, z'
loop_
 _atom_site_type_symbol
 _atom_site_label
 _atom_site_symmetry_multiplicity
 _atom_site_fract_x
 _atom_site_fract_y
 _atom_site_fract_z
 _atom_site_occupancy
  Ba  Ba0  1  0.99715193  0.49715193  0.50000000  1
  Ba  Ba1  1  0.49715193  0.99715193  0.50000000  1
  Ba  Ba2  1  0.83433612  0.83433612  0.00000000  1
  Ba  Ba3  1  0.17906438  0.17906438  0.00000000  1
  Bi  Bi0  1  0.63629819  0.63629819  0.00000000  1
  Bi  Bi1  1  0.36200177  0.36200177  0.00000000  1
  O  O0  1  0.97679668  0.97679668  -0.00000000  1
loop_
_geom_bond_atom_site_label_1
_geom_bond_atom_site_label_2
_geom_bond_distance
_geom_bond_site_symmetry_2
Ba0 O0 2.691639 1_556
Ba0 O0 2.691639 1_545
Ba0 Bi1 3.700521 1_555
Ba0 Bi1 3.700521 1_656
Ba0 Bi0 3.753643 1_555
Ba0 Bi0 3.753643 1_656
Ba1 O0 2.691639 1_556
Ba1 O0 2.691639 1_455
Ba1 Bi1 3.700521 1_555
Ba1 Bi1 3.700521 1_566
Ba1 Bi0 3.753643 1_555
Ba1 Bi0 3.753643 1_566
Ba2 O0 2.707724 1_555
Ba2 Bi0 3.764074 1_555
Ba2 Bi1 3.803549 1_565
Ba2 Bi1 3.803549 1_554
Ba2 Bi1 3.803549 1_655
Ba2 Bi1 3.803549 1_666
Ba3 Bi1 3.477061 1_555
Ba3 Bi0 3.853726 1_556
Ba3 Bi0 3.853726 1_444
Ba3 Bi0 3.853726 1_455
Ba3 Bi0 3.853726 1_545
