# generated using pymatgen
data_Cs3AsSe4O
_symmetry_space_group_name_H-M   'P 1'
_cell_length_a   10.46810600
_cell_length_b   10.55001500
_cell_length_c   15.86837623
_cell_angle_alpha   90.00000000
_cell_angle_beta   130.21441776
_cell_angle_gamma   90.00000000
_symmetry_Int_Tables_number   1
_chemical_formula_structural   Cs3AsSe4O
_chemical_formula_sum   'Cs12 As4 Se16 O4'
_cell_volume   1338.25445304
_cell_formula_units_Z   4
loop_
 _symmetry_equiv_pos_site_id
 _symmetry_equiv_pos_as_xyz
  1  'x, y, z'
loop_
 _atom_site_type_symbol
 _atom_site_label
 _atom_site_symmetry_multiplicity
 _atom_site_fract_x
 _atom_site_fract_y
 _atom_site_fract_z
 _atom_site_occupancy
  Cs  Cs0  1  0.83666300  0.82574500  0.74965900  1
  Cs  Cs1  1  0.83666300  0.67425500  0.24965900  1
  Cs  Cs2  1  0.16333700  0.17425500  0.25034100  1
  Cs  Cs3  1  0.16333700  0.32574500  0.75034100  1
  Cs  Cs4  1  0.25938900  0.07473200  0.54448700  1
  Cs  Cs5  1  0.25938900  0.42526800  0.04448700  1
  Cs  Cs6  1  0.74061100  0.92526800  0.45551300  1
  Cs  Cs7  1  0.74061100  0.57473200  0.95551300  1
  Cs  Cs8  1  0.64169100  0.03908700  0.95727900  1
  Cs  Cs9  1  0.64169100  0.46091300  0.45727900  1
  Cs  Cs10  1  0.35830900  0.96091300  0.04272100  1
  Cs  Cs11  1  0.35830900  0.53908700  0.54272100  1
  As  As0  1  0.25973600  0.78417100  0.73388400  1
  As  As1  1  0.25973600  0.71582900  0.23388400  1
  As  As2  1  0.74026400  0.21582900  0.26611600  1
  As  As3  1  0.74026400  0.28417100  0.76611600  1
  Se  Se0  1  0.48258900  0.80790200  0.73530800  1
  Se  Se1  1  0.48258900  0.69209800  0.23530800  1
  Se  Se2  1  0.51741100  0.19209800  0.26469200  1
  Se  Se3  1  0.51741100  0.30790200  0.76469200  1
  Se  Se4  1  0.15863500  0.98415200  0.73210500  1
  Se  Se5  1  0.15863500  0.51584800  0.23210500  1
  Se  Se6  1  0.84136500  0.01584800  0.26789500  1
  Se  Se7  1  0.84136500  0.48415200  0.76789500  1
  Se  Se8  1  0.05181300  0.65059500  0.59351600  1
  Se  Se9  1  0.05181300  0.84940500  0.09351600  1
  Se  Se10  1  0.94818700  0.34940500  0.40648400  1
  Se  Se11  1  0.94818700  0.15059500  0.90648400  1
  Se  Se12  1  0.36590700  0.67503400  0.90654200  1
  Se  Se13  1  0.36590700  0.82496600  0.40654200  1
  Se  Se14  1  0.63409300  0.32496600  0.09345800  1
  Se  Se15  1  0.63409300  0.17503400  0.59345800  1
  O  O0  1  0.55748000  0.75041000  0.01232400  1
  O  O1  1  0.55748000  0.74959000  0.51232400  1
  O  O2  1  0.44252000  0.24959000  0.98767600  1
  O  O3  1  0.44252000  0.25041000  0.48767600  1
loop_
_geom_bond_atom_site_label_1
_geom_bond_atom_site_label_2
_geom_bond_distance
_geom_bond_site_symmetry_2
Cs0 O1 3.026140 1_555
Cs0 Se0 3.568666 1_555
Cs0 Se7 3.613201 1_555
Cs0 Se4 3.929716 1_655
Cs1 O0 3.026140 1_555
Cs1 Se1 3.568666 1_555
Cs1 Se6 3.613201 1_565
Cs1 Se5 3.929716 1_655
Cs2 O3 3.026140 1_555
Cs2 Se2 3.568666 1_555
Cs2 Se5 3.613201 1_555
Cs2 Se6 3.929716 1_455
Cs3 O2 3.026140 1_555
Cs3 Se3 3.568666 1_555
Cs3 Se4 3.613201 1_545
Cs3 Se7 3.929716 1_455
Cs4 O3 3.186607 1_555
Cs4 Se15 3.629487 1_555
Cs4 Se3 3.656424 1_555
Cs4 Se0 3.662893 1_545
Cs4 Se6 3.741328 1_455
Cs4 Se10 3.820123 1_455
Cs4 Se4 3.865752 1_545
Cs4 Se13 4.016226 1_545
Cs5 O2 3.186607 1_554
Cs5 Se14 3.629487 1_555
Cs5 Se2 3.656424 1_555
Cs5 Se1 3.662893 1_555
Cs5 Se7 3.741328 1_454
Cs5 Se11 3.820123 1_454
Cs5 Se5 3.865752 1_555
Cs5 Se12 4.016226 1_554
Cs6 O1 3.186607 1_555
Cs6 Se13 3.629487 1_555
Cs6 Se1 3.656424 1_555
Cs6 Se2 3.662893 1_565
Cs6 Se4 3.741328 1_655
Cs6 Se8 3.820123 1_655
Cs6 Se6 3.865752 1_565
Cs6 Se15 4.016226 1_565
Cs7 O0 3.186607 1_556
Cs7 Se12 3.629487 1_555
Cs7 Se0 3.656424 1_555
Cs7 Se3 3.662893 1_555
Cs7 Se5 3.741328 1_656
Cs7 Se9 3.820123 1_656
Cs7 Se7 3.865752 1_555
Cs7 Se14 4.016226 1_556
Cs8 O2 3.287898 1_555
Cs8 O0 3.436524 1_546
Cs8 Se0 3.681584 1_545
Cs8 Se3 3.733744 1_555
Cs8 Se14 3.740902 1_556
Cs8 Se9 3.889070 1_646
Cs8 Se4 3.916855 1_545
Cs8 Se6 3.926847 1_556
Cs8 Se11 3.958170 1_555
Cs9 O3 3.287898 1_555
Cs9 O1 3.436524 1_555
Cs9 Se1 3.681584 1_555
Cs9 Se2 3.733744 1_555
Cs9 Se15 3.740902 1_555
Cs9 Se8 3.889070 1_655
Cs9 Se5 3.916855 1_555
Cs9 Se7 3.926847 1_555
Cs9 Se10 3.958170 1_555
Cs10 O0 3.287898 1_555
Cs10 O2 3.436524 1_564
Cs10 Se2 3.681584 1_565
Cs10 Se1 3.733744 1_555
Cs10 Se12 3.740902 1_554
Cs10 Se11 3.889070 1_464
Cs10 Se6 3.916855 1_565
Cs10 Se4 3.926847 1_554
Cs10 Se9 3.958170 1_555
Cs11 O1 3.287898 1_555
Cs11 O3 3.436524 1_555
Cs11 Se3 3.681584 1_555
Cs11 Se0 3.733744 1_555
Cs11 Se13 3.740902 1_555
Cs11 Se10 3.889070 1_455
Cs11 Se7 3.916855 1_555
Cs11 Se5 3.926847 1_555
Cs11 Se8 3.958170 1_555
As0 Se8 2.329025 1_555
As0 Se0 2.331803 1_555
As0 Se4 2.352352 1_555
As0 Se12 2.476974 1_555
As1 Se9 2.329025 1_555
As1 Se1 2.331803 1_555
As1 Se5 2.352352 1_555
As1 Se13 2.476974 1_555
As2 Se10 2.329025 1_555
As2 Se2 2.331803 1_555
As2 Se6 2.352352 1_555
As2 Se14 2.476974 1_555
As3 Se11 2.329025 1_555
As3 Se3 2.331803 1_555
As3 Se7 2.352352 1_555
As3 Se15 2.476974 1_555
O0 Se12 1.767723 1_554
O1 Se13 1.767723 1_555
O2 Se14 1.767723 1_556
O3 Se15 1.767723 1_555
