# generated using pymatgen
data_MgTi3V5O16
_symmetry_space_group_name_H-M   'P 1'
_cell_length_a   5.90824958
_cell_length_b   6.00704855
_cell_length_c   9.87189507
_cell_angle_alpha   89.29823028
_cell_angle_beta   99.61507299
_cell_angle_gamma   120.47612016
_symmetry_Int_Tables_number   1
_chemical_formula_structural   MgTi3V5O16
_chemical_formula_sum   'Mg1 Ti3 V5 O16'
_cell_volume   296.63219044
_cell_formula_units_Z   1
loop_
 _symmetry_equiv_pos_site_id
 _symmetry_equiv_pos_as_xyz
  1  'x, y, z'
loop_
 _atom_site_type_symbol
 _atom_site_label
 _atom_site_symmetry_multiplicity
 _atom_site_fract_x
 _atom_site_fract_y
 _atom_site_fract_z
 _atom_site_occupancy
  Mg  Mg0  1  0.81124600  0.89653700  0.45111800  1
  Ti  Ti0  1  0.28154500  0.89073800  0.20930800  1
  Ti  Ti1  1  0.26640800  0.36955000  0.20621500  1
  Ti  Ti2  1  0.25454700  0.14553800  0.73711300  1
  V  V0  1  0.15513500  0.57836600  0.51639300  1
  V  V1  1  0.73740100  0.85421600  0.16707600  1
  V  V2  1  0.67527600  0.33020600  0.98650900  1
  V  V3  1  0.71226100  0.11466700  0.70446600  1
  V  V4  1  0.74577600  0.60730700  0.72327100  1
  O  O0  1  0.01390400  0.76073200  0.58855900  1
  O  O1  1  0.14517500  0.57348000  0.33618500  1
  O  O2  1  0.34636100  0.67667200  0.09700200  1
  O  O3  1  0.09609100  0.04320900  0.30102600  1
  O  O4  1  0.92067000  0.96448100  0.79879700  1
  O  O5  1  0.00463700  0.24861500  0.58191000  1
  O  O6  1  0.61268100  0.01407800  0.30624400  1
  O  O7  1  0.60068800  0.58008200  0.30696200  1
  O  O8  1  0.36955900  0.18289000  0.10158000  1
  O  O9  1  0.52437900  0.75601700  0.58739600  1
  O  O10  1  0.46419100  0.46045400  0.83905400  1
  O  O11  1  0.45605600  0.02172100  0.83557000  1
  O  O12  1  0.50747500  0.27049000  0.61007600  1
  O  O13  1  0.86244700  0.68320600  0.08769400  1
  O  O14  1  0.90830900  0.46870000  0.82551800  1
  O  O15  1  0.87153600  0.18532600  0.08924900  1
loop_
_geom_bond_atom_site_label_1
_geom_bond_atom_site_label_2
_geom_bond_distance
_geom_bond_site_symmetry_2
Mg0 O6 2.043355 1_565
Mg0 O7 2.064585 1_555
Mg0 O0 2.088320 1_655
Mg0 O5 2.137400 1_665
Mg0 O9 2.162802 1_555
Mg0 O3 2.258521 1_665
O0 V0 1.883829 1_555
O0 V4 2.078529 1_455
O0 Ti2 2.359698 1_565
O1 V0 1.770226 1_555
O1 Ti0 2.138006 1_555
O1 Ti1 2.212575 1_555
O2 Ti0 1.924997 1_555
O2 V1 1.984571 1_555
O2 Ti1 2.006632 1_555
O3 Ti1 2.000071 1_555
O3 V1 2.046644 1_445
O3 Ti0 2.056442 1_545
O4 Ti2 1.911481 1_665
O4 V4 1.939076 1_555
O4 V3 1.980021 1_565
O5 V0 1.872640 1_555
O5 V3 2.087970 1_455
O5 Ti2 2.249318 1_555
O6 Ti0 1.792740 1_545
O6 V1 2.107348 1_545
O7 Ti1 1.824897 1_555
O7 V1 2.058849 1_555
O8 Ti1 1.904596 1_555
O8 Ti0 1.922144 1_545
O8 V2 2.091775 1_554
O9 V0 1.880273 1_555
O9 V3 2.101426 1_565
O9 V4 2.208632 1_555
O10 Ti2 1.838202 1_555
O10 V4 1.993564 1_555
O10 V2 2.154508 1_555
O11 Ti2 1.846430 1_555
O11 V3 2.014355 1_555
O11 V2 2.078482 1_555
O12 Ti2 1.958185 1_555
O12 V3 1.989765 1_555
O12 V4 1.991204 1_555
O13 V1 1.788346 1_555
O13 V2 2.005347 1_554
O13 Ti0 2.244800 1_655
O14 V4 1.760933 1_555
O14 V3 2.096111 1_555
O14 V2 2.156452 1_555
O15 V2 1.933862 1_554
O15 V1 1.934294 1_545
O15 Ti1 2.124468 1_655
