# generated using pymatgen
data_Li2Ca
_symmetry_space_group_name_H-M   'P 1'
_cell_length_a   6.21557401
_cell_length_b   6.21557254
_cell_length_c   6.21557332
_cell_angle_alpha   59.99999825
_cell_angle_beta   59.99999959
_cell_angle_gamma   60.00000153
_symmetry_Int_Tables_number   1
_chemical_formula_structural   Li2Ca
_chemical_formula_sum   'Li4 Ca2'
_cell_volume   169.79643808
_cell_formula_units_Z   2
loop_
 _symmetry_equiv_pos_site_id
 _symmetry_equiv_pos_as_xyz
  1  'x, y, z'
loop_
 _atom_site_type_symbol
 _atom_site_label
 _atom_site_symmetry_multiplicity
 _atom_site_fract_x
 _atom_site_fract_y
 _atom_site_fract_z
 _atom_site_occupancy
  Li  Li0  1  0.50000000  -0.00000000  0.50000000  1
  Li  Li1  1  0.00000000  0.50000000  0.50000000  1
  Li  Li2  1  0.50000000  0.50000000  0.50000000  1
  Li  Li3  1  0.50000000  0.50000000  0.00000000  1
  Ca  Ca0  1  0.12500000  0.12500000  0.12500000  1
  Ca  Ca1  1  0.87500000  0.87500000  0.87500000  1
loop_
_geom_bond_atom_site_label_1
_geom_bond_atom_site_label_2
_geom_bond_distance
_geom_bond_site_symmetry_2
Li0 Li2 3.107786 1_545
Li0 Li2 3.107786 1_555
Li0 Li3 3.107786 1_555
Li0 Li3 3.107786 1_546
Li0 Li1 3.107787 1_555
Li0 Li1 3.107787 1_645
Li1 Li3 3.107787 1_456
Li1 Li3 3.107787 1_555
Li1 Li2 3.107787 1_455
Li1 Li2 3.107787 1_555
Li2 Li3 3.107787 1_556
Li2 Li3 3.107787 1_555
Ca0 Li1 3.644202 1_545
Ca0 Li3 3.644203 1_545
Ca0 Li1 3.644203 1_555
Ca0 Li2 3.644203 1_554
Ca0 Li2 3.644203 1_545
Ca0 Li3 3.644203 1_555
Ca0 Li0 3.644203 1_554
Ca0 Li1 3.644203 1_554
Ca0 Li2 3.644203 1_455
Ca0 Li0 3.644203 1_555
Ca0 Li0 3.644203 1_455
Ca0 Li3 3.644203 1_455
Ca0 Ca1 3.806245 1_454
Ca0 Ca1 3.806246 1_445
Ca0 Ca1 3.806246 1_444
Ca0 Ca1 3.806246 1_544
Ca1 Li1 3.644202 1_665
Ca1 Li3 3.644203 1_566
Ca1 Li1 3.644203 1_655
Ca1 Li2 3.644203 1_556
Ca1 Li2 3.644203 1_565
Ca1 Li3 3.644203 1_556
Ca1 Li0 3.644203 1_566
Ca1 Li1 3.644203 1_656
Ca1 Li2 3.644203 1_655
Ca1 Li0 3.644203 1_565
Ca1 Li0 3.644203 1_665
Ca1 Li3 3.644203 1_656
