# generated using pymatgen
data_KNO2
_symmetry_space_group_name_H-M   'P 1'
_cell_length_a   4.71984481
_cell_length_b   4.72001152
_cell_length_c   4.72005764
_cell_angle_alpha   128.89369311
_cell_angle_beta   104.69766548
_cell_angle_gamma   96.80159591
_symmetry_Int_Tables_number   1
_chemical_formula_structural   KNO2
_chemical_formula_sum   'K1 N1 O2'
_cell_volume   73.57926367
_cell_formula_units_Z   1
loop_
 _symmetry_equiv_pos_site_id
 _symmetry_equiv_pos_as_xyz
  1  'x, y, z'
loop_
 _atom_site_type_symbol
 _atom_site_label
 _atom_site_symmetry_multiplicity
 _atom_site_fract_x
 _atom_site_fract_y
 _atom_site_fract_z
 _atom_site_occupancy
  K  K0  1  0.02940515  0.02938949  0.00002757  1
  N  N0  1  0.49712201  0.49713077  -0.00000484  1
  O  O0  1  0.79072012  0.60556486  0.18514528  1
  O  O1  1  0.42042271  0.60558388  0.81483098  1
loop_
_geom_bond_atom_site_label_1
_geom_bond_atom_site_label_2
_geom_bond_distance
_geom_bond_site_symmetry_2
K0 O1 2.769191 1_555
K0 O1 2.769273 1_544
K0 O0 2.769433 1_455
K0 O0 2.769504 1_444
K0 O1 2.862613 1_444
K0 O0 2.862707 1_445
K0 N0 2.931486 1_555
N0 O0 1.265610 1_555
N0 O1 1.265743 1_554
