# generated using pymatgen
data_LaSbPd
_symmetry_space_group_name_H-M   'P 1'
_cell_length_a   4.62183226
_cell_length_b   4.62174040
_cell_length_c   8.29189500
_cell_angle_alpha   90.00000000
_cell_angle_beta   90.00000000
_cell_angle_gamma   120.00067220
_symmetry_Int_Tables_number   1
_chemical_formula_structural   LaSbPd
_chemical_formula_sum   'La2 Sb2 Pd2'
_cell_volume   153.39147069
_cell_formula_units_Z   2
loop_
 _symmetry_equiv_pos_site_id
 _symmetry_equiv_pos_as_xyz
  1  'x, y, z'
loop_
 _atom_site_type_symbol
 _atom_site_label
 _atom_site_symmetry_multiplicity
 _atom_site_fract_x
 _atom_site_fract_y
 _atom_site_fract_z
 _atom_site_occupancy
  La  La0  1  0.00000000  0.00000000  0.50000000  1
  La  La1  1  0.00000000  0.00000000  0.00000000  1
  Sb  Sb0  1  0.33332542  0.66665384  0.75000000  1
  Sb  Sb1  1  0.66667458  0.33334616  0.25000000  1
  Pd  Pd0  1  0.33333315  0.66666831  0.25000000  1
  Pd  Pd1  1  0.66666685  0.33333169  0.75000000  1
loop_
_geom_bond_atom_site_label_1
_geom_bond_atom_site_label_2
_geom_bond_distance
_geom_bond_site_symmetry_2
La0 Sb1 3.378907 1_445
La0 Sb0 3.378907 1_555
La0 Pd1 3.378953 1_445
La0 Pd0 3.378953 1_555
La0 Pd1 3.378984 1_455
La0 Pd0 3.378984 1_545
La0 Pd0 3.378990 1_445
La0 Pd1 3.378990 1_555
La0 Sb0 3.379005 1_545
La0 Sb1 3.379005 1_455
La0 Sb1 3.379014 1_555
La0 Sb0 3.379014 1_445
La1 Sb1 3.378907 1_445
La1 Sb0 3.378907 1_554
La1 Pd1 3.378953 1_444
La1 Pd0 3.378953 1_555
La1 Pd1 3.378984 1_454
La1 Pd0 3.378984 1_545
La1 Pd0 3.378990 1_445
La1 Pd1 3.378990 1_554
La1 Sb1 3.379005 1_455
La1 Sb0 3.379005 1_544
La1 Sb0 3.379014 1_444
La1 Sb1 3.379014 1_555
Pd0 Sb1 2.668366 1_455
Pd0 Sb1 2.668386 1_555
Pd0 Sb1 2.668390 1_565
Pd1 Sb0 2.668366 1_655
Pd1 Sb0 2.668386 1_555
Pd1 Sb0 2.668390 1_545
