# generated using pymatgen
data_Li4Ti3Mn3(SnO8)2
_symmetry_space_group_name_H-M   'P 1'
_cell_length_a   6.11814342
_cell_length_b   6.11814342
_cell_length_c   9.84774571
_cell_angle_alpha   87.85020209
_cell_angle_beta   87.85020209
_cell_angle_gamma   58.16963651
_symmetry_Int_Tables_number   1
_chemical_formula_structural   Li4Ti3Mn3(SnO8)2
_chemical_formula_sum   'Li4 Ti3 Mn3 Sn2 O16'
_cell_volume   312.89380689
_cell_formula_units_Z   1
loop_
 _symmetry_equiv_pos_site_id
 _symmetry_equiv_pos_as_xyz
  1  'x, y, z'
loop_
 _atom_site_type_symbol
 _atom_site_label
 _atom_site_symmetry_multiplicity
 _atom_site_fract_x
 _atom_site_fract_y
 _atom_site_fract_z
 _atom_site_occupancy
  Li  Li0  1  0.66013000  0.66013000  0.10496100  1
  Li  Li1  1  0.99801700  0.99801700  0.00879300  1
  Li  Li2  1  0.00479100  0.00479100  0.50750700  1
  Li  Li3  1  0.33223500  0.33223500  0.60455300  1
  Ti  Ti0  1  0.16823200  0.16823200  0.28192700  1
  Ti  Ti1  1  0.34024700  0.83378500  0.78552400  1
  Ti  Ti2  1  0.83378500  0.34024700  0.78552400  1
  Mn  Mn0  1  0.83088000  0.83088000  0.78620800  1
  Mn  Mn1  1  0.16787600  0.66009100  0.28782400  1
  Mn  Mn2  1  0.66009100  0.16787600  0.28782400  1
  Sn  Sn0  1  0.67060000  0.67060000  0.50881200  1
  Sn  Sn1  1  0.33461400  0.33461400  0.01042700  1
  O  O0  1  0.33524700  0.85359700  0.39972100  1
  O  O1  1  0.51852800  0.51852800  0.66578900  1
  O  O2  1  0.65002800  0.65002800  0.89422900  1
  O  O3  1  0.01197000  0.01197000  0.69278900  1
  O  O4  1  0.00033500  0.00033500  0.19634100  1
  O  O5  1  0.85359700  0.33524700  0.39972100  1
  O  O6  1  0.49925500  0.96242600  0.65650100  1
  O  O7  1  0.96242600  0.49925500  0.65650100  1
  O  O8  1  0.16522700  0.16522700  0.89446000  1
  O  O9  1  0.84635200  0.84635200  0.40535000  1
  O  O10  1  0.02827200  0.46585800  0.15588200  1
  O  O11  1  0.46585800  0.02827200  0.15588200  1
  O  O12  1  0.33089800  0.33089800  0.38767700  1
  O  O13  1  0.17599600  0.67789700  0.90345400  1
  O  O14  1  0.47655900  0.47655900  0.16452000  1
  O  O15  1  0.67789700  0.17599600  0.90345400  1
loop_
_geom_bond_atom_site_label_1
_geom_bond_atom_site_label_2
_geom_bond_distance
_geom_bond_site_symmetry_2
Li0 O11 1.988324 1_565
Li0 O10 1.988324 1_655
Li0 O14 2.024465 1_555
Li0 O2 2.082670 1_554
Li1 O4 1.848155 1_665
Li1 O15 1.978841 1_564
Li1 O13 1.978841 1_654
Li1 O8 2.071693 1_664
Li2 O3 1.829514 1_555
Li2 O0 2.002470 1_545
Li2 O5 2.002470 1_455
Li2 O9 2.007195 1_445
Li3 O6 1.984607 1_545
Li3 O7 1.984607 1_455
Li3 O1 2.105991 1_555
Li3 O12 2.136401 1_555
Mn0 O3 2.107899 1_665
Mn0 O13 2.164415 1_655
Mn0 O15 2.164415 1_565
Mn0 O2 2.166788 1_555
Mn0 O7 2.188772 1_555
Mn0 O6 2.188772 1_555
Mn1 O12 1.955560 1_555
Mn1 O4 1.968117 1_565
Mn1 O14 1.998840 1_555
Mn1 O9 2.017748 1_455
Mn1 O10 2.258244 1_555
Mn1 O0 2.264009 1_555
Mn2 O12 1.955560 1_555
Mn2 O4 1.968117 1_655
Mn2 O14 1.998840 1_555
Mn2 O9 2.017748 1_545
Mn2 O11 2.258244 1_555
Mn2 O5 2.264009 1_555
O0 Ti0 1.985418 1_565
O0 Sn0 2.066240 1_555
O1 Ti2 2.038449 1_555
O1 Ti1 2.038449 1_555
O1 Sn0 2.195056 1_555
O2 Ti1 1.953553 1_555
O2 Ti2 1.953553 1_555
O3 Ti1 1.951837 1_545
O3 Ti2 1.951837 1_455
O4 Ti0 2.015846 1_555
O5 Ti0 1.985418 1_655
O5 Sn0 2.066240 1_555
O6 Ti1 1.954508 1_555
O6 Sn0 2.123245 1_555
O7 Ti2 1.954508 1_555
O7 Sn0 2.123245 1_555
O8 Ti2 2.048438 1_455
O8 Ti1 2.048438 1_545
O8 Sn1 2.182341 1_556
O9 Sn0 2.098984 1_555
O10 Ti0 1.963459 1_555
O10 Sn1 2.122912 1_555
O11 Ti0 1.963459 1_555
O11 Sn1 2.122912 1_555
O12 Ti0 2.065349 1_555
O13 Ti1 2.026945 1_555
O13 Sn1 2.055087 1_556
O14 Sn1 2.191883 1_555
O15 Ti2 2.026945 1_555
O15 Sn1 2.055087 1_556
