# generated using pymatgen
data_MgCuP2O7
_symmetry_space_group_name_H-M   'P 1'
_cell_length_a   6.20577300
_cell_length_b   6.31596692
_cell_length_c   7.01686848
_cell_angle_alpha   68.31950399
_cell_angle_beta   79.97916656
_cell_angle_gamma   80.75246070
_symmetry_Int_Tables_number   1
_chemical_formula_structural   MgCuP2O7
_chemical_formula_sum   'Mg2 Cu2 P4 O14'
_cell_volume   250.27355998
_cell_formula_units_Z   2
loop_
 _symmetry_equiv_pos_site_id
 _symmetry_equiv_pos_as_xyz
  1  'x, y, z'
loop_
 _atom_site_type_symbol
 _atom_site_label
 _atom_site_symmetry_multiplicity
 _atom_site_fract_x
 _atom_site_fract_y
 _atom_site_fract_z
 _atom_site_occupancy
  Mg  Mg0  1  0.89453500  0.28141100  0.16094200  1
  Mg  Mg1  1  0.10546500  0.71858900  0.83905800  1
  Cu  Cu0  1  0.67916500  0.09520700  0.78312600  1
  Cu  Cu1  1  0.32083500  0.90479300  0.21687400  1
  P  P0  1  0.17212700  0.22999100  0.74933300  1
  P  P1  1  0.82787300  0.77000900  0.25066700  1
  P  P2  1  0.62385000  0.63276900  0.69487600  1
  P  P3  1  0.37615000  0.36723100  0.30512400  1
  O  O0  1  0.76512200  0.60721000  0.48182900  1
  O  O1  1  0.23487800  0.39279000  0.51817100  1
  O  O2  1  0.00414100  0.06903400  0.75580200  1
  O  O3  1  0.99585900  0.93096600  0.24419800  1
  O  O4  1  0.60871500  0.26871900  0.35090900  1
  O  O5  1  0.39128500  0.73128100  0.64909100  1
  O  O6  1  0.35717700  0.61612600  0.15282200  1
  O  O7  1  0.64282300  0.38387400  0.84717800  1
  O  O8  1  0.92605200  0.60895800  0.13301300  1
  O  O9  1  0.07394800  0.39104200  0.86698700  1
  O  O10  1  0.62980200  0.93003900  0.16315300  1
  O  O11  1  0.37019800  0.06996100  0.83684700  1
  O  O12  1  0.24410300  0.21499200  0.24933200  1
  O  O13  1  0.75589700  0.78500800  0.75066800  1
loop_
_geom_bond_atom_site_label_1
_geom_bond_atom_site_label_2
_geom_bond_distance
_geom_bond_site_symmetry_2
Mg0 O4 2.018243 1_555
Mg0 O8 2.042951 1_555
Mg0 O3 2.088285 1_545
Mg0 O9 2.089713 1_654
Mg0 O12 2.291332 1_655
Mg1 O5 2.018243 1_555
Mg1 O9 2.042951 1_555
Mg1 O2 2.088285 1_565
Mg1 O8 2.089713 1_456
Mg1 O13 2.291332 1_455
Cu0 O11 1.909498 1_555
Cu0 O2 1.978125 1_655
Cu0 O7 2.003741 1_555
Cu0 O13 2.027120 1_545
Cu0 O10 2.460879 1_546
Cu1 O10 1.909498 1_555
Cu1 O3 1.978125 1_455
Cu1 O6 2.003741 1_555
Cu1 O12 2.027120 1_565
Cu1 O11 2.460879 1_564
O0 P1 1.586342 1_555
O0 P2 1.645045 1_555
O1 P0 1.586342 1_555
O1 P3 1.645045 1_555
O2 P0 1.553177 1_555
O3 P1 1.553177 1_555
O4 P3 1.516034 1_555
O5 P2 1.516034 1_555
O6 P3 1.539545 1_555
O7 P2 1.539545 1_555
O8 P1 1.527638 1_555
O9 P0 1.527638 1_555
O10 P1 1.521306 1_555
O11 P0 1.521306 1_555
O12 P3 1.546716 1_555
O13 P2 1.546716 1_555
