# generated using pymatgen
data_K3PO5
_symmetry_space_group_name_H-M   'P 1'
_cell_length_a   7.72967813
_cell_length_b   7.72967813
_cell_length_c   7.72967813
_cell_angle_alpha   122.74967596
_cell_angle_beta   122.74967596
_cell_angle_gamma   85.29994705
_symmetry_Int_Tables_number   1
_chemical_formula_structural   K3PO5
_chemical_formula_sum   'K6 P2 O10'
_cell_volume   311.84733828
_cell_formula_units_Z   2
loop_
 _symmetry_equiv_pos_site_id
 _symmetry_equiv_pos_as_xyz
  1  'x, y, z'
loop_
 _atom_site_type_symbol
 _atom_site_label
 _atom_site_symmetry_multiplicity
 _atom_site_fract_x
 _atom_site_fract_y
 _atom_site_fract_z
 _atom_site_occupancy
  K  K0  1  0.25000000  0.25000000  0.00000000  1
  K  K1  1  0.75000000  0.75000000  0.00000000  1
  K  K2  1  0.69412000  0.19412000  0.88823900  1
  K  K3  1  0.30588000  0.80588000  0.11176100  1
  K  K4  1  0.19412000  0.30588000  0.50000000  1
  K  K5  1  0.80588000  0.69412000  0.50000000  1
  P  P0  1  0.75000000  0.25000000  0.50000000  1
  P  P1  1  0.25000000  0.75000000  0.50000000  1
  O  O0  1  0.00000000  0.00000000  0.00000000  1
  O  O1  1  0.50000000  0.50000000  0.00000000  1
  O  O2  1  0.28660700  0.78660700  0.73784200  1
  O  O3  1  0.71339300  0.21339300  0.26215800  1
  O  O4  1  0.04876500  0.54876500  0.26215800  1
  O  O5  1  0.78660700  0.04876500  0.50000000  1
  O  O6  1  0.45123500  0.71339300  0.50000000  1
  O  O7  1  0.95123500  0.45123500  0.73784200  1
  O  O8  1  0.21339300  0.95123500  0.50000000  1
  O  O9  1  0.54876500  0.28660700  0.50000000  1
loop_
_geom_bond_atom_site_label_1
_geom_bond_atom_site_label_2
_geom_bond_distance
_geom_bond_site_symmetry_2
K0 O0 2.842614 1_555
K0 O1 2.842614 1_555
K0 O4 3.101199 1_555
K0 O3 3.101199 1_555
K0 O6 3.101199 1_555
K0 O7 3.101199 1_454
K0 O2 3.101199 1_544
K0 O9 3.101199 1_555
K0 O5 3.101199 1_454
K0 O8 3.101199 1_544
K1 O0 2.842614 1_665
K1 O1 2.842614 1_555
K1 O8 3.101199 1_655
K1 O3 3.101199 1_565
K1 O2 3.101199 1_554
K1 O4 3.101199 1_655
K1 O9 3.101199 1_554
K1 O5 3.101199 1_565
K1 O6 3.101199 1_554
K1 O7 3.101199 1_554
K2 O0 2.683113 1_656
K2 O1 2.683113 1_556
K2 O4 2.733120 1_656
K2 O3 2.733128 1_556
K2 O5 3.052989 1_555
K2 O9 3.052989 1_555
K2 O6 3.052996 1_545
K2 O8 3.052996 1_545
K3 O0 2.683113 1_565
K3 O1 2.683113 1_555
K3 O7 2.733120 1_454
K3 O2 2.733128 1_554
K3 O6 3.052989 1_555
K3 O8 3.052989 1_555
K3 O5 3.052996 1_565
K3 O9 3.052996 1_565
K4 O0 2.683111 1_555
K4 O1 2.683111 1_556
K4 O8 2.733121 1_545
K4 O9 2.733121 1_555
K4 O4 3.052996 1_555
K4 O2 3.052996 1_555
K4 O3 3.052996 1_455
K4 O7 3.052996 1_455
K5 O1 2.683111 1_555
K5 O0 2.683111 1_666
K5 O5 2.733121 1_565
K5 O6 2.733121 1_555
K5 O4 3.052996 1_655
K5 O3 3.052996 1_555
K5 O7 3.052996 1_555
K5 O2 3.052996 1_655
O2 P1 1.558031 1_555
O3 P0 1.558031 1_555
O4 P1 1.558031 1_555
O5 P0 1.558031 1_555
O6 P1 1.558031 1_555
O7 P0 1.558031 1_555
O8 P1 1.558031 1_555
O9 P0 1.558031 1_555
