# generated using pymatgen
data_ZnSbAs2SeO7
_symmetry_space_group_name_H-M   'P 1'
_cell_length_a   13.74142565
_cell_length_b   13.74142565
_cell_length_c   13.74142565
_cell_angle_alpha   98.56810554
_cell_angle_beta   98.56810554
_cell_angle_gamma   134.59011248
_symmetry_Int_Tables_number   1
_chemical_formula_structural   ZnSbAs2SeO7
_chemical_formula_sum   'Zn8 Sb8 As16 Se8 O56'
_cell_volume   1704.64433846
_cell_formula_units_Z   8
loop_
 _symmetry_equiv_pos_site_id
 _symmetry_equiv_pos_as_xyz
  1  'x, y, z'
loop_
 _atom_site_type_symbol
 _atom_site_label
 _atom_site_symmetry_multiplicity
 _atom_site_fract_x
 _atom_site_fract_y
 _atom_site_fract_z
 _atom_site_occupancy
  Zn  Zn0  1  0.19622100  0.79345700  0.13551600  1
  Zn  Zn1  1  0.04345700  0.40794100  0.09723600  1
  Zn  Zn2  1  0.93929500  0.80377900  0.59723600  1
  Zn  Zn3  1  0.20654300  0.34205900  0.40276400  1
  Zn  Zn4  1  0.05377900  0.95654300  0.36448400  1
  Zn  Zn5  1  0.59205900  0.68929500  0.63551600  1
  Zn  Zn6  1  0.31070500  0.94622100  0.90276400  1
  Zn  Zn7  1  0.65794100  0.06070500  0.86448400  1
  Sb  Sb0  1  0.50334500  0.51047100  0.36497000  1
  Sb  Sb1  1  0.14550200  0.13837600  0.63503000  1
  Sb  Sb2  1  0.74665500  0.23952900  0.13503000  1
  Sb  Sb3  1  0.86162400  0.49665500  0.00712600  1
  Sb  Sb4  1  0.10449800  0.61162400  0.86497000  1
  Sb  Sb5  1  0.38837600  0.25334500  0.49287400  1
  Sb  Sb6  1  0.48952900  0.85449800  0.99287400  1
  Sb  Sb7  1  0.76047100  0.89550200  0.50712600  1
  As  As0  1  0.71789100  0.79951100  0.21688200  1
  As  As1  1  0.12019000  0.58356500  0.33915200  1
  As  As2  1  0.00558700  0.96896200  0.83915200  1
  As  As3  1  0.75100900  0.46789100  0.41838000  1
  As  As4  1  0.03103800  0.87019000  0.03662500  1
  As  As5  1  0.58263000  0.50100900  0.78311800  1
  As  As6  1  0.20048900  0.41737000  0.91838000  1
  As  As7  1  0.21896200  0.87981000  0.46337500  1
  As  As8  1  0.04951100  0.33263000  0.58162000  1
  As  As9  1  0.66737000  0.24899100  0.71688200  1
  As  As10  1  0.12981000  0.16643500  0.16084800  1
  As  As11  1  0.83356500  0.99441300  0.96337500  1
  As  As12  1  0.53210900  0.95048900  0.28311800  1
  As  As13  1  0.24441300  0.78103800  0.66084800  1
  As  As14  1  0.41643500  0.75558700  0.53662500  1
  As  As15  1  0.49899100  0.28210900  0.08162000  1
  Se  Se0  1  0.85898400  0.60678300  0.23940100  1
  Se  Se1  1  0.36738200  0.61958300  0.76059900  1
  Se  Se2  1  0.38041700  0.14101600  0.74779800  1
  Se  Se3  1  0.85678300  0.11738200  0.24779800  1
  Se  Se4  1  0.86958300  0.60898400  0.75220100  1
  Se  Se5  1  0.39101600  0.14321700  0.26059900  1
  Se  Se6  1  0.39321700  0.63261800  0.25220200  1
  Se  Se7  1  0.88261800  0.13041700  0.73940100  1
  O  O0  1  0.42403500  0.66429700  0.61439300  1
  O  O1  1  0.84492500  0.89117400  0.87483400  1
  O  O2  1  0.15668800  0.00474500  0.65527200  1
  O  O3  1  0.72596000  0.20015700  0.79468900  1
  O  O4  1  0.25474500  0.09947200  0.34805700  1
  O  O5  1  0.49858400  0.84331200  0.84805700  1
  O  O6  1  0.56819400  0.68138800  0.27621900  1
  O  O7  1  0.84453200  0.81872900  0.29468900  1
  O  O8  1  0.38791700  0.38876000  0.45478800  1
  O  O9  1  0.18127100  0.47596000  0.02580300  1
  O  O10  1  0.61124000  0.06602800  0.99915700  1
  O  O11  1  0.79984300  0.59453200  0.52580300  1
  O  O12  1  0.40507500  0.85882600  0.62516600  1
  O  O13  1  0.75141600  0.90668800  0.65194300  1
  O  O14  1  0.05964200  0.17403500  0.25973800  1
  O  O15  1  0.66976800  0.48291900  0.69912900  1
  O  O16  1  0.23365900  0.77990900  0.37483400  1
  O  O17  1  0.84483100  0.45802500  0.77621900  1
  O  O18  1  0.19035800  0.57596500  0.24026200  1
  O  O19  1  0.82596500  0.08570300  0.88560700  1
  O  O20  1  0.31861200  0.59483100  0.88680600  1
  O  O21  1  0.01634100  0.97009100  0.12516600  1
  O  O22  1  0.52404000  0.54984300  0.70531100  1
  O  O23  1  0.20009600  0.94035800  0.11439300  1
  O  O24  1  0.46621000  0.77936100  0.19912900  1
  O  O25  1  0.63876000  0.68397200  0.50084300  1
  O  O26  1  0.93397200  0.93312900  0.54521200  1
  O  O27  1  0.73291900  0.53379000  0.31315100  1
  O  O28  1  0.06687100  0.61208300  0.00084300  1
  O  O29  1  0.22009100  0.59492500  0.45375000  1
  O  O30  1  0.86208300  0.36124000  0.04521200  1
  O  O31  1  0.93138800  0.15516900  0.61319400  1
  O  O32  1  0.51708100  0.21621000  0.18684900  1
  O  O33  1  0.14117400  0.76634100  0.54624900  1
  O  O34  1  0.45015700  0.15546800  0.97419700  1
  O  O35  1  0.70802500  0.43180600  0.11319400  1
  O  O36  1  0.09331200  0.74525500  0.84472800  1
  O  O37  1  0.02936100  0.33023200  0.81315100  1
  O  O38  1  0.22063900  0.41976800  0.68684900  1
  O  O39  1  0.90052800  0.24858400  0.15527200  1
  O  O40  1  0.68180600  0.06861200  0.22378100  1
  O  O41  1  0.34947200  0.50141600  0.34472800  1
  O  O42  1  0.18312900  0.13791700  0.49915700  1
  O  O43  1  0.54197500  0.31819400  0.38680600  1
  O  O44  1  0.58023200  0.26708100  0.80087100  1
  O  O45  1  0.04990400  0.80964200  0.38560700  1
  O  O46  1  0.78379000  0.97063900  0.30087100  1
  O  O47  1  0.10882600  0.98365900  0.95375100  1
  O  O48  1  0.40546800  0.93127100  0.20531100  1
  O  O49  1  0.40516900  0.29197500  0.72378100  1
  O  O50  1  0.91429700  0.79990400  0.74026200  1
  O  O51  1  0.33570300  0.95009600  0.75973800  1
  O  O52  1  0.99525500  0.65052800  0.15194300  1
  O  O53  1  0.02990900  0.15507500  0.04624900  1
  O  O54  1  0.31602800  0.81687100  0.95478800  1
  O  O55  1  0.06872900  0.27404000  0.47419700  1
loop_
_geom_bond_atom_site_label_1
_geom_bond_atom_site_label_2
_geom_bond_distance
_geom_bond_site_symmetry_2
As0 O7 1.719733 1_555
As0 O46 1.889929 1_555
As0 O6 1.933142 1_555
As1 O18 1.810165 1_555
As1 O29 1.835873 1_555
As1 O16 1.849966 1_555
As2 O50 1.810165 1_455
As2 O47 1.835891 1_555
As2 O1 1.849963 1_455
As3 O11 1.719733 1_555
As3 O27 1.889929 1_555
As3 O43 1.933142 1_555
As4 O23 1.810165 1_555
As4 O21 1.835873 1_555
As4 O47 1.849955 1_554
As5 O22 1.719742 1_555
As5 O15 1.889918 1_555
As5 O49 1.933144 1_555
As6 O9 1.719739 1_556
As6 O37 1.889934 1_555
As6 O20 1.933152 1_555
As7 O45 1.810165 1_555
As7 O16 1.835873 1_555
As7 O33 1.849955 1_555
As8 O55 1.719739 1_555
As8 O38 1.889934 1_555
As8 O31 1.933152 1_455
As9 O3 1.719742 1_555
As9 O44 1.889918 1_555
As9 O17 1.933144 1_555
As10 O14 1.810165 1_555
As10 O53 1.835883 1_555
As10 O21 1.849966 1_545
As11 O19 1.810165 1_565
As11 O1 1.835883 1_555
As11 O53 1.849963 1_666
As12 O48 1.719733 1_555
As12 O24 1.889929 1_555
As12 O40 1.933142 1_565
As13 O51 1.810165 1_555
As13 O33 1.835891 1_555
As13 O12 1.849963 1_555
As14 O0 1.810165 1_555
As14 O12 1.835883 1_555
As14 O29 1.849966 1_555
As15 O34 1.719733 1_554
As15 O32 1.889929 1_555
As15 O35 1.933142 1_555
O0 Zn5 2.047004 1_555
O0 Se1 2.276453 1_555
O2 Sb1 2.002170 1_555
O2 Zn2 2.058423 1_445
O2 Se2 2.148838 1_555
O3 Zn7 1.940485 1_555
O4 Sb5 2.002170 1_555
O4 Zn4 2.058423 1_545
O4 Se5 2.148838 1_555
O5 Sb6 2.002166 1_555
O5 Zn7 2.058423 1_565
O5 Se1 2.148841 1_555
O6 Se6 1.942813 1_555
O6 Sb0 2.456884 1_555
O7 Zn4 1.940485 1_655
O8 Sb5 2.010516 1_555
O8 Zn3 2.054589 1_555
O8 Sb0 2.076074 1_555
O9 Zn1 1.940485 1_555
O10 Sb2 2.010508 1_556
O10 Zn7 2.054589 1_555
O10 Sb6 2.076085 1_545
O11 Zn2 1.940485 1_555
O13 Sb7 2.002166 1_555
O13 Zn5 2.058423 1_555
O13 Se7 2.148841 1_565
O14 Zn3 2.047004 1_555
O14 Se3 2.276451 1_455
O15 Se4 1.849425 1_555
O17 Se4 1.942812 1_555
O17 Sb4 2.456877 1_655
O18 Zn1 2.047004 1_555
O18 Se6 2.276451 1_555
O19 Zn7 2.047004 1_555
O19 Se7 2.276453 1_555
O20 Se1 1.942812 1_555
O20 Sb6 2.456875 1_555
O22 Zn5 1.940485 1_555
O23 Zn0 2.047004 1_555
O23 Se5 2.276453 1_565
O24 Se6 1.849434 1_555
O25 Sb0 2.010508 1_555
O25 Zn5 2.054589 1_555
O25 Sb7 2.076085 1_555
O26 Sb7 2.010516 1_555
O26 Zn2 2.054589 1_555
O26 Sb1 2.076082 1_665
O27 Se0 1.849425 1_555
O28 Sb4 2.010503 1_554
O28 Zn0 2.054589 1_555
O28 Sb3 2.076085 1_455
O30 Sb3 2.010516 1_555
O30 Zn1 2.054589 1_655
O30 Sb2 2.076074 1_555
O31 Se7 1.942812 1_555
O31 Sb7 2.456875 1_545
O32 Se5 1.849425 1_555
O34 Zn6 1.940485 1_545
O35 Se0 1.942812 1_555
O35 Sb3 2.456875 1_555
O36 Sb4 2.002170 1_555
O36 Zn6 2.058423 1_555
O36 Se4 2.148841 1_455
O37 Se7 1.849425 1_455
O38 Se1 1.849425 1_555
O39 Sb2 2.002179 1_555
O39 Zn1 2.058420 1_655
O39 Se3 2.148828 1_555
O40 Se3 1.942813 1_555
O40 Sb2 2.456884 1_555
O41 Sb0 2.002179 1_555
O41 Zn3 2.058420 1_555
O41 Se6 2.148828 1_555
O42 Sb1 2.010503 1_555
O42 Zn4 2.054589 1_545
O42 Sb5 2.076085 1_555
O43 Se5 1.942812 1_555
O43 Sb5 2.456875 1_555
O44 Se2 1.849425 1_555
O45 Zn4 2.047004 1_555
O45 Se0 2.276453 1_455
O46 Se3 1.849434 1_565
O48 Zn0 1.940485 1_555
O49 Se2 1.942807 1_555
O49 Sb1 2.456877 1_555
O50 Zn2 2.047004 1_555
O50 Se4 2.276453 1_555
O51 Zn6 2.047004 1_555
O51 Se2 2.276457 1_565
O52 Sb3 2.002170 1_555
O52 Zn0 2.058423 1_655
O52 Se0 2.148838 1_555
O54 Sb6 2.010516 1_555
O54 Zn6 2.054589 1_555
O54 Sb4 2.076082 1_555
O55 Zn3 1.940485 1_555
