# generated using pymatgen
data_YMg6CO8
_symmetry_space_group_name_H-M   'P 1'
_cell_length_a   9.03745394
_cell_length_b   4.36726019
_cell_length_c   4.36726019
_cell_angle_alpha   90.00000000
_cell_angle_beta   90.00000000
_cell_angle_gamma   90.00000000
_symmetry_Int_Tables_number   1
_chemical_formula_structural   YMg6CO8
_chemical_formula_sum   'Y1 Mg6 C1 O8'
_cell_volume   172.37101166
_cell_formula_units_Z   1
loop_
 _symmetry_equiv_pos_site_id
 _symmetry_equiv_pos_as_xyz
  1  'x, y, z'
loop_
 _atom_site_type_symbol
 _atom_site_label
 _atom_site_symmetry_multiplicity
 _atom_site_fract_x
 _atom_site_fract_y
 _atom_site_fract_z
 _atom_site_occupancy
  Y  Y0  1  0.00000000  0.00000000  0.00000000  1
  Mg  Mg0  1  0.00000000  0.50000000  0.50000000  1
  Mg  Mg1  1  0.50000000  0.50000000  0.50000000  1
  Mg  Mg2  1  0.27611541  0.00000000  0.50000000  1
  Mg  Mg3  1  0.72388459  0.00000000  0.50000000  1
  Mg  Mg4  1  0.27611541  0.50000000  -0.00000000  1
  Mg  Mg5  1  0.72388459  0.50000000  0.00000000  1
  C  C0  1  0.50000000  0.00000000  0.00000000  1
  O  O0  1  0.24408109  -0.00000000  -0.00000000  1
  O  O1  1  0.75591891  0.00000000  0.00000000  1
  O  O2  1  0.25116117  0.50000000  0.50000000  1
  O  O3  1  0.74883883  0.50000000  0.50000000  1
  O  O4  1  0.00000000  0.00000000  0.50000000  1
  O  O5  1  0.50000000  0.00000000  0.50000000  1
  O  O6  1  0.00000000  0.50000000  0.00000000  1
  O  O7  1  0.50000000  0.50000000  0.00000000  1
loop_
_geom_bond_atom_site_label_1
_geom_bond_atom_site_label_2
_geom_bond_distance
_geom_bond_site_symmetry_2
Mg0 O6 2.183630 1_556
Mg0 O6 2.183630 1_555
Mg0 O4 2.183630 1_555
Mg0 O4 2.183630 1_565
Mg0 O3 2.269858 1_455
Mg0 O2 2.269858 1_555
Mg1 O7 2.183630 1_555
Mg1 O7 2.183630 1_556
Mg1 O5 2.183630 1_555
Mg1 O5 2.183630 1_565
Mg1 O2 2.248869 1_555
Mg1 O3 2.248869 1_555
Mg2 O5 2.023347 1_555
Mg2 O2 2.195245 1_555
Mg2 O2 2.195245 1_545
Mg2 O0 2.202738 1_555
Mg2 O0 2.202738 1_556
Mg2 O4 2.495380 1_555
Mg3 O5 2.023347 1_555
Mg3 O3 2.195245 1_555
Mg3 O3 2.195245 1_545
Mg3 O1 2.202738 1_555
Mg3 O1 2.202738 1_556
Mg3 O4 2.495380 1_655
Mg4 O7 2.023347 1_555
Mg4 O2 2.195245 1_555
Mg4 O2 2.195245 1_554
Mg4 O0 2.202738 1_555
Mg4 O0 2.202738 1_565
Mg4 O6 2.495380 1_555
Mg5 O7 2.023347 1_555
Mg5 O3 2.195245 1_555
Mg5 O3 2.195245 1_554
Mg5 O1 2.202738 1_555
Mg5 O1 2.202738 1_565
Mg5 O6 2.495380 1_655
O0 Y0 2.205872 1_555
O1 Y0 2.205872 1_655
O4 Y0 2.183630 1_555
O4 Y0 2.183630 1_556
O6 Y0 2.183630 1_555
O6 Y0 2.183630 1_565
