# generated using pymatgen
data_SrMn7O12
_symmetry_space_group_name_H-M   'P 1'
_cell_length_a   6.49255546
_cell_length_b   6.53609093
_cell_length_c   6.53865303
_cell_angle_alpha   109.58150836
_cell_angle_beta   109.35665689
_cell_angle_gamma   109.35058481
_symmetry_Int_Tables_number   1
_chemical_formula_structural   SrMn7O12
_chemical_formula_sum   'Sr1 Mn7 O12'
_cell_volume   213.92726208
_cell_formula_units_Z   1
loop_
 _symmetry_equiv_pos_site_id
 _symmetry_equiv_pos_as_xyz
  1  'x, y, z'
loop_
 _atom_site_type_symbol
 _atom_site_label
 _atom_site_symmetry_multiplicity
 _atom_site_fract_x
 _atom_site_fract_y
 _atom_site_fract_z
 _atom_site_occupancy
  Sr  Sr0  1  0.00003400  0.00003300  0.00001000  1
  Mn  Mn0  1  0.49988800  0.99985500  0.49989000  1
  Mn  Mn1  1  0.99971900  0.49989800  0.50002600  1
  Mn  Mn2  1  0.49990900  0.49991300  0.99992800  1
  Mn  Mn3  1  0.00011100  0.99987700  0.50001200  1
  Mn  Mn4  1  0.50007800  0.50009600  0.49999200  1
  Mn  Mn5  1  0.00003000  0.50006000  0.00010700  1
  Mn  Mn6  1  0.49997700  0.00003000  0.99989700  1
  O  O0  1  0.13122300  0.82627000  0.32210600  1
  O  O1  1  0.80954200  0.67825400  0.50410300  1
  O  O2  1  0.30514300  0.49584600  0.17376300  1
  O  O3  1  0.86888300  0.17386600  0.67790400  1
  O  O4  1  0.19041700  0.32156500  0.49592900  1
  O  O5  1  0.69490700  0.50425400  0.82624100  1
  O  O6  1  0.51374400  0.83059200  0.69646700  1
  O  O7  1  0.81732200  0.30365200  0.13426200  1
  O  O8  1  0.68387600  0.86602700  0.16992200  1
  O  O9  1  0.48637200  0.16950500  0.30357700  1
  O  O10  1  0.18263700  0.69623500  0.86570100  1
  O  O11  1  0.31618700  0.13417300  0.83016300  1
loop_
_geom_bond_atom_site_label_1
_geom_bond_atom_site_label_2
_geom_bond_distance
_geom_bond_site_symmetry_2
Mn0 O6 1.956175 1_555
Mn0 O9 1.956733 1_565
Mn0 O0 1.959489 1_555
Mn0 O3 1.961198 1_565
Mn1 O10 1.955807 1_655
Mn1 O7 1.956302 1_555
Mn1 O1 1.959368 1_555
Mn1 O4 1.962066 1_655
Mn2 O11 1.955381 1_555
Mn2 O8 1.957370 1_556
Mn2 O2 1.960224 1_556
Mn2 O5 1.960696 1_555
Mn3 O0 1.943489 1_555
Mn3 O3 1.945384 1_465
Mn3 O11 2.059474 1_565
Mn3 O8 2.060515 1_455
Mn3 O4 2.070286 1_565
Mn3 O1 2.070418 1_455
Mn4 O1 1.945858 1_555
Mn4 O4 1.947700 1_555
Mn4 O6 2.064417 1_555
Mn4 O9 2.064696 1_555
Mn4 O2 2.073657 1_555
Mn4 O5 2.073903 1_555
Mn5 O2 1.944306 1_555
Mn5 O5 1.944634 1_454
Mn5 O7 2.063990 1_455
Mn5 O10 2.064134 1_554
Mn5 O0 2.074382 1_555
Mn5 O3 2.075117 1_454
Mn6 O7 1.969014 1_556
Mn6 O10 1.969838 1_545
Mn6 O6 1.970069 1_545
Mn6 O9 1.970896 1_556
Mn6 O11 1.972820 1_555
Mn6 O8 1.973431 1_546
O0 Sr0 2.739734 1_565
O1 Sr0 2.741128 1_666
O2 Sr0 2.739138 1_555
O3 Sr0 2.740094 1_656
O4 Sr0 2.740970 1_555
O5 Sr0 2.738958 1_666
O6 Sr0 2.681340 1_666
O7 Sr0 2.683034 1_655
O8 Sr0 2.680949 1_665
O9 Sr0 2.681575 1_555
O10 Sr0 2.683463 1_566
O11 Sr0 2.680778 1_556
