# generated using pymatgen
data_Y2Cr2O7
_symmetry_space_group_name_H-M   'P 1'
_cell_length_a   7.11401500
_cell_length_b   7.11811266
_cell_length_c   7.14358888
_cell_angle_alpha   119.86862417
_cell_angle_beta   89.92689233
_cell_angle_gamma   119.98042460
_symmetry_Int_Tables_number   1
_chemical_formula_structural   Y2Cr2O7
_chemical_formula_sum   'Y4 Cr4 O14'
_cell_volume   256.53241470
_cell_formula_units_Z   2
loop_
 _symmetry_equiv_pos_site_id
 _symmetry_equiv_pos_as_xyz
  1  'x, y, z'
loop_
 _atom_site_type_symbol
 _atom_site_label
 _atom_site_symmetry_multiplicity
 _atom_site_fract_x
 _atom_site_fract_y
 _atom_site_fract_z
 _atom_site_occupancy
  Y  Y0  1  0.50000000  0.00000000  0.50000000  1
  Y  Y1  1  0.00000000  0.50000000  0.50000000  1
  Y  Y2  1  0.50000000  0.50000000  0.00000000  1
  Y  Y3  1  0.50000000  0.50000000  0.50000000  1
  Cr  Cr0  1  0.00000000  0.50000000  0.00000000  1
  Cr  Cr1  1  0.50000000  0.00000000  0.00000000  1
  Cr  Cr2  1  0.00000000  0.00000000  0.50000000  1
  Cr  Cr3  1  0.00000000  0.00000000  0.00000000  1
  O  O0  1  0.62477500  0.37581400  0.37265700  1
  O  O1  1  0.37522500  0.62418600  0.62734300  1
  O  O2  1  0.32591300  0.07108500  0.08589100  1
  O  O3  1  0.08193600  0.33518600  0.32180700  1
  O  O4  1  0.91837700  0.67205800  0.07598300  1
  O  O5  1  0.92636500  0.08689000  0.66617000  1
  O  O6  1  0.33444400  0.67690100  0.07744500  1
  O  O7  1  0.32675000  0.08201500  0.66680800  1
  O  O8  1  0.91806400  0.66481400  0.67819300  1
  O  O9  1  0.66555600  0.32309900  0.92255500  1
  O  O10  1  0.07363500  0.91311000  0.33383000  1
  O  O11  1  0.67408700  0.92891500  0.91410900  1
  O  O12  1  0.67325000  0.91798500  0.33319200  1
  O  O13  1  0.08162300  0.32794200  0.92401700  1
loop_
_geom_bond_atom_site_label_1
_geom_bond_atom_site_label_2
_geom_bond_distance
_geom_bond_site_symmetry_2
Cr0 O4 1.476333 1_455
Cr0 O13 1.476333 1_554
Cr0 O6 1.966663 1_555
Cr0 O9 1.966663 1_454
Cr1 O2 1.575241 1_555
Cr1 O11 1.575241 1_544
Cr1 O9 2.353952 1_554
Cr1 O6 2.353952 1_545
Cr2 O10 1.287237 1_545
Cr2 O5 1.287237 1_455
Cr2 O12 2.263188 1_445
Cr2 O7 2.263188 1_555
Cr3 O3 2.113642 1_555
Cr3 O8 2.113642 1_444
Cr3 O11 2.128403 1_444
Cr3 O2 2.128403 1_555
Cr3 O13 2.446923 1_554
Cr3 O4 2.446923 1_445
O0 Y3 1.542092 1_555
O1 Y3 1.542092 1_555
O3 Y1 1.590771 1_555
O4 O9 1.853256 1_554
O6 Y2 2.016292 1_555
O6 Y0 2.485054 1_565
O7 Y0 1.817215 1_555
O7 Y2 2.307736 1_556
O8 Y1 1.590771 1_655
O9 Y2 2.016292 1_556
O9 Y0 2.485054 1_555
O12 Y0 1.817215 1_565
O12 Y2 2.307736 1_555
O13 O6 1.853256 1_556
