# generated using pymatgen
data_DyZnCuAs2
_symmetry_space_group_name_H-M   'P 1'
_cell_length_a   4.12493792
_cell_length_b   4.12493792
_cell_length_c   6.73093200
_cell_angle_alpha   90.00000000
_cell_angle_beta   90.00000000
_cell_angle_gamma   119.99999865
_symmetry_Int_Tables_number   1
_chemical_formula_structural   DyZnCuAs2
_chemical_formula_sum   'Dy1 Zn1 Cu1 As2'
_cell_volume   99.18378406
_cell_formula_units_Z   1
loop_
 _symmetry_equiv_pos_site_id
 _symmetry_equiv_pos_as_xyz
  1  'x, y, z'
loop_
 _atom_site_type_symbol
 _atom_site_label
 _atom_site_symmetry_multiplicity
 _atom_site_fract_x
 _atom_site_fract_y
 _atom_site_fract_z
 _atom_site_occupancy
  Dy  Dy0  1  0.00000000  0.00000000  0.01646900  1
  Zn  Zn0  1  0.33333300  0.66666700  0.62341100  1
  Cu  Cu0  1  0.66666700  0.33333300  0.36049100  1
  As  As0  1  0.66666700  0.33333300  0.74902800  1
  As  As1  1  0.33333300  0.66666700  0.25060200  1
loop_
_geom_bond_atom_site_label_1
_geom_bond_atom_site_label_2
_geom_bond_distance
_geom_bond_site_symmetry_2
As0 Zn0 2.527172 1_545
As0 Zn0 2.527172 1_655
As0 Zn0 2.527178 1_555
As0 Cu0 2.615216 1_555
As0 Dy0 2.985323 1_656
As0 Dy0 2.985325 1_666
As0 Dy0 2.985325 1_556
As1 Cu0 2.493749 1_455
As1 Cu0 2.493749 1_565
As1 Cu0 2.493756 1_555
As1 Zn0 2.509352 1_555
As1 Dy0 2.855741 1_565
As1 Dy0 2.855744 1_555
As1 Dy0 2.855744 1_665
