# generated using pymatgen
data_SrEu(CoO3)2
_symmetry_space_group_name_H-M   'P 1'
_cell_length_a   3.78858400
_cell_length_b   3.78858400
_cell_length_c   7.67617800
_cell_angle_alpha   90.00000000
_cell_angle_beta   90.00000000
_cell_angle_gamma   90.00000000
_symmetry_Int_Tables_number   1
_chemical_formula_structural   SrEu(CoO3)2
_chemical_formula_sum   'Sr1 Eu1 Co2 O6'
_cell_volume   110.17901323
_cell_formula_units_Z   1
loop_
 _symmetry_equiv_pos_site_id
 _symmetry_equiv_pos_as_xyz
  1  'x, y, z'
loop_
 _atom_site_type_symbol
 _atom_site_label
 _atom_site_symmetry_multiplicity
 _atom_site_fract_x
 _atom_site_fract_y
 _atom_site_fract_z
 _atom_site_occupancy
  Sr  Sr0  1  0.00000000  0.00000000  0.50000000  1
  Eu  Eu0  1  0.00000000  0.00000000  0.00000000  1
  Co  Co0  1  0.50000000  0.50000000  0.25258200  1
  Co  Co1  1  0.50000000  0.50000000  0.74741800  1
  O  O0  1  0.00000000  0.50000000  0.22945100  1
  O  O1  1  0.00000000  0.50000000  0.77054900  1
  O  O2  1  0.50000000  0.50000000  0.00000000  1
  O  O3  1  0.50000000  0.50000000  0.50000000  1
  O  O4  1  0.50000000  0.00000000  0.22945100  1
  O  O5  1  0.50000000  0.00000000  0.77054900  1
loop_
_geom_bond_atom_site_label_1
_geom_bond_atom_site_label_2
_geom_bond_distance
_geom_bond_site_symmetry_2
Eu0 O5 2.586609 1_454
Eu0 O1 2.586609 1_544
Eu0 O1 2.586609 1_554
Eu0 O5 2.586609 1_554
Eu0 O0 2.586609 1_545
Eu0 O4 2.586609 1_455
Eu0 O0 2.586609 1_555
Eu0 O4 2.586609 1_555
Eu0 O2 2.678933 1_545
Eu0 O2 2.678933 1_555
Eu0 O2 2.678933 1_445
Eu0 O2 2.678933 1_455
Co0 O3 1.899225 1_555
Co0 O4 1.902595 1_565
Co0 O0 1.902595 1_555
Co0 O0 1.902595 1_655
Co0 O4 1.902595 1_555
Co0 O2 1.938864 1_555
Co1 O3 1.899225 1_555
Co1 O5 1.902595 1_565
Co1 O1 1.902595 1_555
Co1 O1 1.902595 1_655
Co1 O5 1.902595 1_555
Co1 O2 1.938864 1_556
O0 Sr0 2.810937 1_555
O0 Sr0 2.810937 1_565
O1 Sr0 2.810937 1_555
O1 Sr0 2.810937 1_565
O3 Sr0 2.678933 1_555
O3 Sr0 2.678933 1_565
O3 Sr0 2.678933 1_665
O3 Sr0 2.678933 1_655
O4 Sr0 2.810937 1_555
O4 Sr0 2.810937 1_655
O5 Sr0 2.810937 1_555
O5 Sr0 2.810937 1_655
