# generated using pymatgen
data_Cs2Re(ClO)3
_symmetry_space_group_name_H-M   'P 1'
_cell_length_a   7.18981000
_cell_length_b   10.81605800
_cell_length_c   12.86761100
_cell_angle_alpha   90.00000000
_cell_angle_beta   90.00000000
_cell_angle_gamma   90.00000000
_symmetry_Int_Tables_number   1
_chemical_formula_structural   Cs2Re(ClO)3
_chemical_formula_sum   'Cs8 Re4 Cl12 O12'
_cell_volume   1000.65494180
_cell_formula_units_Z   4
loop_
 _symmetry_equiv_pos_site_id
 _symmetry_equiv_pos_as_xyz
  1  'x, y, z'
loop_
 _atom_site_type_symbol
 _atom_site_label
 _atom_site_symmetry_multiplicity
 _atom_site_fract_x
 _atom_site_fract_y
 _atom_site_fract_z
 _atom_site_occupancy
  Cs  Cs0  1  0.25000000  0.65538000  0.91093900  1
  Cs  Cs1  1  0.25000000  0.15538000  0.58906100  1
  Cs  Cs2  1  0.75000000  0.34462000  0.08906100  1
  Cs  Cs3  1  0.75000000  0.84462000  0.41093900  1
  Cs  Cs4  1  0.25000000  0.96676200  0.18188900  1
  Cs  Cs5  1  0.25000000  0.46676200  0.31811100  1
  Cs  Cs6  1  0.75000000  0.03323800  0.81811100  1
  Cs  Cs7  1  0.75000000  0.53323800  0.68188900  1
  Re  Re0  1  0.25000000  0.68768500  0.56679200  1
  Re  Re1  1  0.25000000  0.18768500  0.93320800  1
  Re  Re2  1  0.75000000  0.31231500  0.43320800  1
  Re  Re3  1  0.75000000  0.81231500  0.06679200  1
  Cl  Cl0  1  0.25000000  0.87681100  0.44588400  1
  Cl  Cl1  1  0.25000000  0.37681100  0.05411600  1
  Cl  Cl2  1  0.75000000  0.12318900  0.55411600  1
  Cl  Cl3  1  0.75000000  0.62318900  0.94588400  1
  Cl  Cl4  1  0.02040200  0.82102600  0.66720900  1
  Cl  Cl5  1  0.47959800  0.32102600  0.83279100  1
  Cl  Cl6  1  0.52040200  0.17897400  0.33279100  1
  Cl  Cl7  1  0.97959800  0.67897400  0.16720900  1
  Cl  Cl8  1  0.97959800  0.17897400  0.33279100  1
  Cl  Cl9  1  0.52040200  0.67897400  0.16720900  1
  Cl  Cl10  1  0.47959800  0.82102600  0.66720900  1
  Cl  Cl11  1  0.02040200  0.32102600  0.83279100  1
  O  O0  1  0.25000000  0.58745300  0.67309400  1
  O  O1  1  0.25000000  0.08745300  0.82690600  1
  O  O2  1  0.75000000  0.41254700  0.32690600  1
  O  O3  1  0.75000000  0.91254700  0.17309400  1
  O  O4  1  0.06022100  0.63529200  0.49373600  1
  O  O5  1  0.43977900  0.13529200  0.00626400  1
  O  O6  1  0.56022100  0.36470800  0.50626400  1
  O  O7  1  0.93977900  0.86470800  0.99373600  1
  O  O8  1  0.93977900  0.36470800  0.50626400  1
  O  O9  1  0.56022100  0.86470800  0.99373600  1
  O  O10  1  0.43977900  0.63529200  0.49373600  1
  O  O11  1  0.06022100  0.13529200  0.00626400  1
loop_
_geom_bond_atom_site_label_1
_geom_bond_atom_site_label_2
_geom_bond_distance
_geom_bond_site_symmetry_2
Cs0 O0 3.147448 1_555
Cs0 O9 3.352023 1_555
Cs0 O7 3.352023 1_455
Cs1 O1 3.147448 1_555
Cs1 O6 3.352023 1_555
Cs1 O8 3.352023 1_455
Cs2 O2 3.147448 1_555
Cs2 O5 3.352023 1_555
Cs2 O11 3.352023 1_655
Cs3 O3 3.147448 1_555
Cs3 O10 3.352023 1_555
Cs3 O4 3.352023 1_655
Cs4 O11 3.208042 1_565
Cs4 O5 3.208042 1_565
Cs4 O9 3.472012 1_554
Cs4 O7 3.472012 1_454
Cs4 O3 3.644174 1_455
Cs4 O3 3.644174 1_555
Cs5 O4 3.208042 1_555
Cs5 O10 3.208042 1_555
Cs5 O6 3.472012 1_555
Cs5 O8 3.472012 1_455
Cs5 O2 3.644174 1_555
Cs5 O2 3.644174 1_455
Cs6 O7 3.208042 1_545
Cs6 O9 3.208042 1_545
Cs6 O5 3.472012 1_556
Cs6 O11 3.472012 1_656
Cs6 O1 3.644174 1_655
Cs6 O1 3.644174 1_555
Cs7 O8 3.208042 1_555
Cs7 O6 3.208042 1_555
Cs7 O10 3.472012 1_555
Cs7 O4 3.472012 1_655
Cs7 O0 3.644174 1_555
Cs7 O0 3.644174 1_655
Cl0 Re0 2.570015 1_555
Cl0 Cs1 3.531645 1_565
Cl0 Cs4 3.533563 1_555
Cl0 Cs3 3.639610 1_555
Cl0 Cs3 3.639610 1_455
Cl1 Re1 2.570015 1_554
Cl1 Cs0 3.531645 1_554
Cl1 Cs5 3.533563 1_555
Cl1 Cs2 3.639610 1_455
Cl1 Cs2 3.639610 1_555
Cl2 Re2 2.570015 1_555
Cl2 Cs3 3.531645 1_545
Cl2 Cs6 3.533563 1_555
Cl2 Cs1 3.639610 1_655
Cl2 Cs1 3.639610 1_555
Cl3 Re3 2.570015 1_556
Cl3 Cs2 3.531645 1_556
Cl3 Cs7 3.533563 1_555
Cl3 Cs0 3.639610 1_555
Cl3 Cs0 3.639610 1_655
Cl4 Re0 2.544529 1_555
Cl4 Cs6 3.580287 1_465
Cl4 Cs7 3.674841 1_455
Cl4 Cs3 3.836516 1_455
Cl4 Cs0 3.971257 1_555
Cl4 Cs1 4.100550 1_565
Cl5 Re1 2.544529 1_555
Cl5 Cs7 3.580287 1_555
Cl5 Cs6 3.674841 1_555
Cl5 Cs2 3.836516 1_556
Cl5 Cs1 3.971257 1_555
Cl5 Cs0 4.100550 1_555
Cl6 Re2 2.544529 1_555
Cl6 Cs4 3.580287 1_545
Cl6 Cs5 3.674841 1_555
Cl6 Cs1 3.836516 1_555
Cl6 Cs2 3.971257 1_555
Cl6 Cs3 4.100550 1_545
Cl7 Re3 2.544529 1_555
Cl7 Cs5 3.580287 1_655
Cl7 Cs4 3.674841 1_655
Cl7 Cs0 3.836516 1_654
Cl7 Cs3 3.971257 1_555
Cl7 Cs2 4.100550 1_555
Cl8 Re2 2.544529 1_555
Cl8 Cs4 3.580287 1_645
Cl8 Cs5 3.674841 1_655
Cl8 Cs1 3.836516 1_655
Cl8 Cs2 3.971257 1_555
Cl8 Cs3 4.100550 1_545
Cl9 Re3 2.544529 1_555
Cl9 Cs5 3.580287 1_555
Cl9 Cs4 3.674841 1_555
Cl9 Cs0 3.836516 1_554
Cl9 Cs3 3.971257 1_555
Cl9 Cs2 4.100550 1_555
Cl10 Re0 2.544529 1_555
Cl10 Cs6 3.580287 1_565
Cl10 Cs7 3.674841 1_555
Cl10 Cs3 3.836516 1_555
Cl10 Cs0 3.971257 1_555
Cl10 Cs1 4.100550 1_565
Cl11 Re1 2.544529 1_555
Cl11 Cs7 3.580287 1_455
Cl11 Cs6 3.674841 1_455
Cl11 Cs2 3.836516 1_456
Cl11 Cs1 3.971257 1_555
Cl11 Cs0 4.100550 1_555
O0 Re0 1.745373 1_555
O1 Re1 1.745373 1_555
O2 Re2 1.745373 1_555
O3 Re3 1.745373 1_555
O4 Re0 1.751180 1_555
O5 Re1 1.751180 1_554
O6 Re2 1.751180 1_555
O7 Re3 1.751180 1_556
O8 Re2 1.751180 1_555
O9 Re3 1.751180 1_556
O10 Re0 1.751180 1_555
O11 Re1 1.751180 1_554
