# generated using pymatgen
data_B4Os
_symmetry_space_group_name_H-M   'P 1'
_cell_length_a   5.34239767
_cell_length_b   5.34239767
_cell_length_c   6.45108400
_cell_angle_alpha   90.00000000
_cell_angle_beta   90.00000000
_cell_angle_gamma   119.99999587
_symmetry_Int_Tables_number   1
_chemical_formula_structural   B4Os
_chemical_formula_sum   'B16 Os4'
_cell_volume   159.45412940
_cell_formula_units_Z   4
loop_
 _symmetry_equiv_pos_site_id
 _symmetry_equiv_pos_as_xyz
  1  'x, y, z'
loop_
 _atom_site_type_symbol
 _atom_site_label
 _atom_site_symmetry_multiplicity
 _atom_site_fract_x
 _atom_site_fract_y
 _atom_site_fract_z
 _atom_site_occupancy
  B  B0  1  0.33463700  0.33463700  0.50000000  1
  B  B1  1  0.66536300  0.00000000  0.50000000  1
  B  B2  1  0.00000000  0.66536300  0.50000000  1
  B  B3  1  0.66536300  0.66536300  0.50000000  1
  B  B4  1  0.00000000  0.33463700  0.50000000  1
  B  B5  1  0.33463700  0.00000000  0.50000000  1
  B  B6  1  0.66536300  0.66536300  0.00000000  1
  B  B7  1  0.33463700  0.00000000  0.00000000  1
  B  B8  1  0.00000000  0.33463700  0.00000000  1
  B  B9  1  0.33463700  0.33463700  0.00000000  1
  B  B10  1  0.00000000  0.66536300  0.00000000  1
  B  B11  1  0.66536300  0.00000000  0.00000000  1
  B  B12  1  0.33333300  0.66666700  0.88370600  1
  B  B13  1  0.66666700  0.33333300  0.11629400  1
  B  B14  1  0.66666700  0.33333300  0.38370600  1
  B  B15  1  0.33333300  0.66666700  0.61629400  1
  Os  Os0  1  0.33333300  0.66666700  0.25000000  1
  Os  Os1  1  0.66666700  0.33333300  0.75000000  1
  Os  Os2  1  0.00000000  0.00000000  0.25000000  1
  Os  Os3  1  0.00000000  0.00000000  0.75000000  1
loop_
_geom_bond_atom_site_label_1
_geom_bond_atom_site_label_2
_geom_bond_distance
_geom_bond_site_symmetry_2
B0 B3 1.766870 1_555
B0 B5 1.787764 1_555
B0 B4 1.787764 1_555
B0 B14 1.929180 1_555
B0 B15 1.929180 1_555
B0 Os0 2.399986 1_555
B0 Os1 2.399986 1_555
B0 Os2 2.407723 1_555
B0 Os3 2.407723 1_555
B1 B5 1.766870 1_555
B1 B3 1.787764 1_545
B1 B4 1.787764 1_655
B1 B14 1.929175 1_555
B1 B15 1.929177 1_545
B1 Os1 2.399982 1_555
B1 Os0 2.399984 1_545
B1 Os3 2.407723 1_655
B1 Os2 2.407723 1_655
B2 B4 1.766870 1_555
B2 B3 1.787764 1_455
B2 B5 1.787764 1_565
B2 Os0 2.399982 1_555
B2 Os1 2.399984 1_455
B2 Os3 2.407723 1_565
B2 Os2 2.407723 1_565
B3 Os0 2.399986 1_555
B3 Os1 2.399986 1_555
B3 Os3 2.407723 1_665
B3 Os2 2.407723 1_665
B4 Os1 2.399982 1_455
B4 Os0 2.399984 1_555
B4 Os2 2.407723 1_555
B4 Os3 2.407723 1_555
B5 Os0 2.399982 1_545
B5 Os1 2.399984 1_555
B5 Os2 2.407723 1_555
B5 Os3 2.407723 1_555
B6 B9 1.766870 1_555
B6 Os0 2.399986 1_555
B6 Os1 2.399986 1_554
B6 Os3 2.407723 1_664
B6 Os2 2.407723 1_665
B7 B9 1.787764 1_555
B7 Os0 2.399982 1_545
B7 Os1 2.399984 1_554
B7 Os3 2.407723 1_554
B7 Os2 2.407723 1_555
B8 B9 1.787764 1_555
B8 Os1 2.399982 1_454
B8 Os0 2.399984 1_555
B8 Os3 2.407723 1_554
B8 Os2 2.407723 1_555
B9 Os1 2.399986 1_554
B9 Os0 2.399986 1_555
B9 Os2 2.407723 1_555
B9 Os3 2.407723 1_554
B10 B8 1.766870 1_555
B10 B6 1.787764 1_455
B10 B7 1.787764 1_565
B10 B12 1.929175 1_554
B10 B13 1.929177 1_455
B10 Os0 2.399982 1_555
B10 Os1 2.399984 1_454
B10 Os3 2.407723 1_564
B10 Os2 2.407723 1_565
B11 B7 1.766870 1_555
B11 B6 1.787764 1_545
B11 B8 1.787764 1_655
B11 B13 1.929175 1_555
B11 B12 1.929177 1_544
B11 Os1 2.399982 1_554
B11 Os0 2.399984 1_545
B11 Os3 2.407723 1_654
B11 Os2 2.407723 1_655
B12 B15 1.725097 1_555
B12 B7 1.929175 1_566
B12 B8 1.929177 1_556
B12 B9 1.929180 1_556
B12 B6 1.929180 1_556
B12 Os0 2.362993 1_556
B13 B14 1.725097 1_555
B13 B8 1.929175 1_655
B13 B7 1.929177 1_555
B13 B9 1.929180 1_555
B13 B6 1.929180 1_555
B13 Os1 2.362993 1_554
B14 B4 1.929175 1_655
B14 B5 1.929177 1_555
B14 B2 1.929177 1_655
B14 B3 1.929180 1_555
B14 Os1 2.362993 1_555
B15 B2 1.929175 1_555
B15 B5 1.929175 1_565
B15 B4 1.929177 1_555
B15 B3 1.929180 1_555
B15 Os0 2.362993 1_555
