# generated using pymatgen
data_Tb3(Ge3Pt2)2
_symmetry_space_group_name_H-M   'P 1'
_cell_length_a   4.33240808
_cell_length_b   8.73816848
_cell_length_c   26.13037660
_cell_angle_alpha   90.00000000
_cell_angle_beta   90.00000000
_cell_angle_gamma   90.00000000
_symmetry_Int_Tables_number   1
_chemical_formula_structural   Tb3(Ge3Pt2)2
_chemical_formula_sum   'Tb12 Ge24 Pt16'
_cell_volume   989.22581249
_cell_formula_units_Z   4
loop_
 _symmetry_equiv_pos_site_id
 _symmetry_equiv_pos_as_xyz
  1  'x, y, z'
loop_
 _atom_site_type_symbol
 _atom_site_label
 _atom_site_symmetry_multiplicity
 _atom_site_fract_x
 _atom_site_fract_y
 _atom_site_fract_z
 _atom_site_occupancy
  Tb  Tb0  1  0.25000000  0.37480566  0.28065308  1
  Tb  Tb1  1  0.75000000  0.62519434  0.71934692  1
  Tb  Tb2  1  0.75000000  0.87480566  0.21934692  1
  Tb  Tb3  1  0.25000000  0.12519434  0.78065308  1
  Tb  Tb4  1  0.25000000  0.13759923  0.40606401  1
  Tb  Tb5  1  0.75000000  0.86240077  0.59393599  1
  Tb  Tb6  1  0.75000000  0.63759923  0.09393599  1
  Tb  Tb7  1  0.25000000  0.36240077  0.90606401  1
  Tb  Tb8  1  0.25000000  0.61111733  0.40738168  1
  Tb  Tb9  1  0.75000000  0.38888267  0.59261832  1
  Tb  Tb10  1  0.75000000  0.11111733  0.09261832  1
  Tb  Tb11  1  0.25000000  0.88888267  0.90738168  1
  Ge  Ge0  1  0.25000000  0.72666038  0.28329707  1
  Ge  Ge1  1  0.75000000  0.27333962  0.71670293  1
  Ge  Ge2  1  0.75000000  0.22666038  0.21670293  1
  Ge  Ge3  1  0.25000000  0.77333962  0.78329707  1
  Ge  Ge4  1  0.25000000  0.37419136  0.14141030  1
  Ge  Ge5  1  0.75000000  0.62580864  0.85858970  1
  Ge  Ge6  1  0.75000000  0.87419136  0.35858970  1
  Ge  Ge7  1  0.25000000  0.12580864  0.64141030  1
  Ge  Ge8  1  0.25000000  0.02328468  0.28285178  1
  Ge  Ge9  1  0.75000000  0.97671532  0.71714822  1
  Ge  Ge10  1  0.75000000  0.52328468  0.21714822  1
  Ge  Ge11  1  0.25000000  0.47671532  0.78285178  1
  Ge  Ge12  1  0.25000000  0.87456467  0.13842402  1
  Ge  Ge13  1  0.75000000  0.12543533  0.86157598  1
  Ge  Ge14  1  0.75000000  0.37456467  0.36157598  1
  Ge  Ge15  1  0.25000000  0.62543533  0.63842402  1
  Ge  Ge16  1  0.25000000  0.12804630  0.00317959  1
  Ge  Ge17  1  0.75000000  0.87195370  0.99682041  1
  Ge  Ge18  1  0.75000000  0.62804630  0.49682041  1
  Ge  Ge19  1  0.25000000  0.37195370  0.50317959  1
  Ge  Ge20  1  0.25000000  0.87808056  0.49898652  1
  Ge  Ge21  1  0.75000000  0.12191944  0.50101348  1
  Ge  Ge22  1  0.75000000  0.37808056  0.00101348  1
  Ge  Ge23  1  0.25000000  0.62191944  0.99898652  1
  Pt  Pt0  1  0.25000000  0.62463133  0.18736280  1
  Pt  Pt1  1  0.75000000  0.37536867  0.81263720  1
  Pt  Pt2  1  0.75000000  0.12463133  0.31263720  1
  Pt  Pt3  1  0.25000000  0.87536867  0.68736280  1
  Pt  Pt4  1  0.25000000  0.62915114  0.54445519  1
  Pt  Pt5  1  0.75000000  0.37084886  0.45554481  1
  Pt  Pt6  1  0.75000000  0.12915114  0.95554481  1
  Pt  Pt7  1  0.25000000  0.87084886  0.04445519  1
  Pt  Pt8  1  0.25000000  0.12438192  0.18707557  1
  Pt  Pt9  1  0.75000000  0.87561808  0.81292443  1
  Pt  Pt10  1  0.75000000  0.62438192  0.31292443  1
  Pt  Pt11  1  0.25000000  0.37561808  0.68707557  1
  Pt  Pt12  1  0.25000000  0.37914695  0.04951244  1
  Pt  Pt13  1  0.75000000  0.62085305  0.95048756  1
  Pt  Pt14  1  0.75000000  0.87914695  0.45048756  1
  Pt  Pt15  1  0.25000000  0.12085305  0.54951244  1
loop_
_geom_bond_atom_site_label_1
_geom_bond_atom_site_label_2
_geom_bond_distance
_geom_bond_site_symmetry_2
Ge0 Pt10 2.467900 1_455
Ge0 Pt10 2.467900 1_555
Ge0 Ge8 2.591979 1_565
Ge0 Pt0 2.660619 1_555
Ge0 Tb2 3.026648 1_455
Ge0 Tb2 3.026648 1_555
Ge0 Tb0 3.075342 1_555
Ge0 Tb8 3.395935 1_555
Ge1 Pt11 2.467900 1_555
Ge1 Pt11 2.467900 1_655
Ge1 Ge9 2.591979 1_545
Ge1 Pt1 2.660619 1_555
Ge1 Tb3 3.026648 1_655
Ge1 Tb3 3.026648 1_555
Ge1 Tb1 3.075342 1_555
Ge1 Tb9 3.395935 1_555
Ge2 Pt8 2.467900 1_655
Ge2 Pt8 2.467900 1_555
Ge2 Pt2 2.660619 1_555
Ge2 Tb0 3.026648 1_655
Ge2 Tb0 3.026648 1_555
Ge2 Tb2 3.075342 1_545
Ge2 Tb10 3.395935 1_555
Ge3 Pt9 2.467900 1_455
Ge3 Pt9 2.467900 1_555
Ge3 Pt3 2.660619 1_555
Ge3 Tb1 3.026648 1_455
Ge3 Tb1 3.026648 1_555
Ge3 Tb3 3.075342 1_565
Ge3 Tb11 3.395935 1_555
Ge4 Pt12 2.401716 1_555
Ge4 Pt8 2.487730 1_555
Ge4 Pt0 2.496167 1_555
Ge4 Tb6 3.395463 1_555
Ge4 Tb6 3.395463 1_455
Ge4 Tb10 3.406223 1_455
Ge4 Tb10 3.406223 1_555
Ge5 Pt13 2.401716 1_555
Ge5 Pt9 2.487730 1_555
Ge5 Pt1 2.496167 1_555
Ge5 Tb7 3.395463 1_655
Ge5 Tb7 3.395463 1_555
Ge5 Tb11 3.406223 1_555
Ge5 Tb11 3.406223 1_655
Ge6 Pt14 2.401716 1_555
Ge6 Pt10 2.487730 1_555
Ge6 Pt2 2.496167 1_565
Ge6 Tb4 3.395463 1_565
Ge6 Tb4 3.395463 1_665
Ge6 Tb8 3.406223 1_555
Ge6 Tb8 3.406223 1_655
Ge7 Pt15 2.401716 1_555
Ge7 Pt11 2.487730 1_555
Ge7 Pt3 2.496167 1_545
Ge7 Tb5 3.395463 1_545
Ge7 Tb5 3.395463 1_445
Ge7 Tb9 3.406223 1_555
Ge7 Tb9 3.406223 1_455
Ge8 Pt2 2.466264 1_555
Ge8 Pt2 2.466264 1_455
Ge8 Pt8 2.654007 1_555
Ge8 Tb2 3.021490 1_445
Ge8 Tb2 3.021490 1_545
Ge8 Tb0 3.072187 1_555
Ge8 Tb4 3.370980 1_555
Ge9 Pt3 2.466264 1_555
Ge9 Pt3 2.466264 1_655
Ge9 Pt9 2.654007 1_555
Ge9 Tb3 3.021490 1_665
Ge9 Tb3 3.021490 1_565
Ge9 Tb1 3.072187 1_555
Ge9 Tb5 3.370980 1_555
Ge10 Pt0 2.466264 1_555
Ge10 Pt0 2.466264 1_655
Ge10 Ge2 2.591979 1_555
Ge10 Pt10 2.654007 1_555
Ge10 Tb0 3.021490 1_555
Ge10 Tb0 3.021490 1_655
Ge10 Tb2 3.072187 1_555
Ge10 Tb6 3.370980 1_555
Ge11 Pt1 2.466264 1_455
Ge11 Pt1 2.466264 1_555
Ge11 Ge3 2.591979 1_555
Ge11 Pt11 2.654007 1_555
Ge11 Tb1 3.021490 1_455
Ge11 Tb1 3.021490 1_555
Ge11 Tb3 3.072187 1_555
Ge11 Tb7 3.370980 1_555
Ge12 Pt7 2.455656 1_555
Ge12 Pt8 2.526146 1_565
Ge12 Pt0 2.530806 1_555
Ge12 Tb2 3.027168 1_555
Ge12 Tb2 3.027168 1_455
Ge12 Tb6 3.214247 1_455
Ge12 Tb6 3.214247 1_555
Ge12 Tb10 3.224546 1_465
Ge12 Tb10 3.224546 1_565
Ge13 Pt6 2.455656 1_555
Ge13 Pt9 2.526146 1_545
Ge13 Pt1 2.530806 1_555
Ge13 Tb3 3.027168 1_655
Ge13 Tb3 3.027168 1_555
Ge13 Tb7 3.214247 1_655
Ge13 Tb7 3.214247 1_555
Ge13 Tb11 3.224546 1_545
Ge13 Tb11 3.224546 1_645
Ge14 Pt5 2.455656 1_555
Ge14 Pt10 2.526146 1_555
Ge14 Pt2 2.530806 1_555
Ge14 Tb0 3.027168 1_655
Ge14 Tb0 3.027168 1_555
Ge14 Tb4 3.214247 1_555
Ge14 Tb4 3.214247 1_655
Ge14 Tb8 3.224546 1_555
Ge14 Tb8 3.224546 1_655
Ge15 Pt4 2.455656 1_555
Ge15 Pt11 2.526146 1_555
Ge15 Pt3 2.530806 1_555
Ge15 Tb1 3.027168 1_555
Ge15 Tb1 3.027168 1_455
Ge15 Tb5 3.214247 1_455
Ge15 Tb5 3.214247 1_555
Ge15 Tb9 3.224546 1_455
Ge15 Tb9 3.224546 1_555
Ge16 Pt7 2.492835 1_545
Ge16 Pt6 2.498369 1_454
Ge16 Pt6 2.498369 1_554
Ge16 Pt12 2.506017 1_555
Ge16 Tb10 3.190017 1_455
Ge16 Tb10 3.190017 1_555
Ge16 Tb7 3.260883 1_554
Ge16 Tb11 3.260931 1_544
Ge17 Pt6 2.492835 1_565
Ge17 Pt7 2.498369 1_556
Ge17 Pt7 2.498369 1_656
Ge17 Pt13 2.506017 1_555
Ge17 Tb11 3.190017 1_555
Ge17 Tb11 3.190017 1_655
Ge17 Tb6 3.260883 1_556
Ge17 Tb10 3.260931 1_566
Ge18 Pt5 2.492835 1_555
Ge18 Pt4 2.498369 1_555
Ge18 Pt4 2.498369 1_655
Ge18 Pt14 2.506017 1_555
Ge18 Tb8 3.190017 1_555
Ge18 Tb8 3.190017 1_655
Ge18 Tb5 3.260883 1_555
Ge18 Tb9 3.260931 1_555
Ge19 Pt4 2.492835 1_555
Ge19 Pt5 2.498369 1_455
Ge19 Pt5 2.498369 1_555
Ge19 Pt15 2.506017 1_555
Ge19 Tb9 3.190017 1_455
Ge19 Tb9 3.190017 1_555
Ge19 Tb4 3.260883 1_555
Ge19 Tb8 3.260931 1_555
Ge20 Pt4 2.478518 1_555
Ge20 Pt15 2.498674 1_565
Ge20 Pt14 2.509694 1_455
Ge20 Pt14 2.509694 1_555
Ge20 Tb5 3.296498 1_455
Ge20 Tb5 3.296498 1_555
Ge20 Tb4 3.322381 1_565
Ge20 Tb8 3.342374 1_555
Ge21 Pt5 2.478518 1_555
Ge21 Pt14 2.498674 1_545
Ge21 Pt15 2.509694 1_655
Ge21 Pt15 2.509694 1_555
Ge21 Tb4 3.296498 1_655
Ge21 Tb4 3.296498 1_555
Ge21 Tb5 3.322381 1_545
Ge21 Tb9 3.342374 1_555
Ge22 Pt6 2.478518 1_554
Ge22 Pt13 2.498674 1_554
Ge22 Pt12 2.509694 1_555
Ge22 Pt12 2.509694 1_655
Ge22 Tb7 3.296498 1_554
Ge22 Tb7 3.296498 1_654
Ge22 Tb6 3.322381 1_555
Ge22 Tb10 3.342374 1_555
Ge23 Pt7 2.478518 1_556
Ge23 Pt12 2.498674 1_556
Ge23 Pt13 2.509694 1_455
Ge23 Pt13 2.509694 1_555
Ge23 Tb6 3.296498 1_456
Ge23 Tb6 3.296498 1_556
Ge23 Tb7 3.322381 1_555
Ge23 Tb11 3.342374 1_555
Pt0 Tb2 3.189014 1_555
Pt0 Tb2 3.189014 1_455
Pt0 Tb6 3.265749 1_455
Pt0 Tb6 3.265749 1_555
Pt0 Tb0 3.272308 1_555
Pt1 Tb3 3.189014 1_655
Pt1 Tb3 3.189014 1_555
Pt1 Tb7 3.265749 1_655
Pt1 Tb7 3.265749 1_555
Pt1 Tb1 3.272308 1_555
Pt2 Tb0 3.189014 1_655
Pt2 Tb0 3.189014 1_555
Pt2 Tb4 3.265749 1_555
Pt2 Tb4 3.265749 1_655
Pt2 Tb2 3.272308 1_545
Pt3 Tb1 3.189014 1_555
Pt3 Tb1 3.189014 1_455
Pt3 Tb5 3.265749 1_555
Pt3 Tb5 3.265749 1_455
Pt3 Tb3 3.272308 1_565
Pt4 Tb5 3.243196 1_455
Pt4 Tb5 3.243196 1_555
Pt4 Tb9 3.268676 1_455
Pt4 Tb9 3.268676 1_555
Pt5 Tb4 3.243196 1_655
Pt5 Tb4 3.243196 1_555
Pt5 Tb8 3.268676 1_655
Pt5 Tb8 3.268676 1_555
Pt6 Tb7 3.243196 1_655
Pt6 Tb7 3.243196 1_555
Pt6 Tb11 3.268676 1_545
Pt6 Tb11 3.268676 1_645
Pt7 Tb6 3.243196 1_455
Pt7 Tb6 3.243196 1_555
Pt7 Tb10 3.268676 1_465
Pt7 Tb10 3.268676 1_565
Pt8 Tb2 3.187412 1_445
Pt8 Tb2 3.187412 1_545
Pt8 Tb0 3.281386 1_555
Pt8 Tb10 3.286016 1_555
Pt8 Tb10 3.286016 1_455
Pt9 Tb3 3.187412 1_665
Pt9 Tb3 3.187412 1_565
Pt9 Tb1 3.281386 1_555
Pt9 Tb11 3.286016 1_555
Pt9 Tb11 3.286016 1_655
Pt10 Tb0 3.187412 1_655
Pt10 Tb0 3.187412 1_555
Pt10 Tb2 3.281386 1_555
Pt10 Tb8 3.286016 1_555
Pt10 Tb8 3.286016 1_655
Pt11 Tb1 3.187412 1_455
Pt11 Tb1 3.187412 1_555
Pt11 Tb3 3.281386 1_555
Pt11 Tb9 3.286016 1_455
Pt11 Tb9 3.286016 1_555
Pt12 Tb6 3.337705 1_455
Pt12 Tb6 3.337705 1_555
Pt12 Tb10 3.383272 1_455
Pt12 Tb10 3.383272 1_555
Pt13 Tb7 3.337705 1_555
Pt13 Tb7 3.337705 1_655
Pt13 Tb11 3.383272 1_555
Pt13 Tb11 3.383272 1_655
Pt14 Tb4 3.337705 1_565
Pt14 Tb4 3.337705 1_665
Pt14 Tb8 3.383272 1_555
Pt14 Tb8 3.383272 1_655
Pt15 Tb5 3.337705 1_445
Pt15 Tb5 3.337705 1_545
Pt15 Tb9 3.383272 1_455
Pt15 Tb9 3.383272 1_555
