# generated using pymatgen
data_CoBP(HO3)2
_symmetry_space_group_name_H-M   'P 1'
_cell_length_a   7.56508406
_cell_length_b   7.56508406
_cell_length_c   12.72471900
_cell_angle_alpha   90.00000000
_cell_angle_beta   90.00000000
_cell_angle_gamma   120.00000056
_symmetry_Int_Tables_number   1
_chemical_formula_structural   CoBP(HO3)2
_chemical_formula_sum   'Co6 B6 P6 H12 O36'
_cell_volume   630.67606098
_cell_formula_units_Z   6
loop_
 _symmetry_equiv_pos_site_id
 _symmetry_equiv_pos_as_xyz
  1  'x, y, z'
loop_
 _atom_site_type_symbol
 _atom_site_label
 _atom_site_symmetry_multiplicity
 _atom_site_fract_x
 _atom_site_fract_y
 _atom_site_fract_z
 _atom_site_occupancy
  Co  Co0  1  0.00000000  0.13153000  0.16666700  1
  Co  Co1  1  0.13153000  0.00000000  0.83333300  1
  Co  Co2  1  0.86847000  0.86847000  0.50000000  1
  Co  Co3  1  0.24282000  0.00000000  0.33333300  1
  Co  Co4  1  0.75718000  0.75718000  0.00000000  1
  Co  Co5  1  0.00000000  0.24282000  0.66666700  1
  B  B0  1  0.56355400  0.25400700  0.95755500  1
  B  B1  1  0.69045300  0.43644600  0.62422200  1
  B  B2  1  0.74599300  0.30954700  0.29088800  1
  B  B3  1  0.43644600  0.69045300  0.37577800  1
  B  B4  1  0.25400700  0.56355400  0.04244500  1
  B  B5  1  0.30954700  0.74599300  0.70911200  1
  P  P0  1  0.24860400  0.92761200  0.07126200  1
  P  P1  1  0.67900800  0.75139600  0.73792800  1
  P  P2  1  0.07238800  0.32099200  0.40459500  1
  P  P3  1  0.75139600  0.67900800  0.26207200  1
  P  P4  1  0.92761200  0.24860400  0.92873800  1
  P  P5  1  0.32099200  0.07238800  0.59540500  1
  H  H0  1  0.30083600  0.73073700  0.24392700  1
  H  H1  1  0.42990200  0.69916400  0.91059400  1
  H  H2  1  0.26926300  0.57009800  0.57726000  1
  H  H3  1  0.69916400  0.42990200  0.08940600  1
  H  H4  1  0.73073700  0.30083600  0.75607300  1
  H  H5  1  0.57009800  0.26926300  0.42274000  1
  H  H6  1  0.64336300  0.09626900  0.17070000  1
  H  H7  1  0.45290600  0.35663700  0.83736700  1
  H  H8  1  0.90373100  0.54709400  0.50403300  1
  H  H9  1  0.35663700  0.45290600  0.16263300  1
  H  H10  1  0.09626900  0.64336300  0.82930000  1
  H  H11  1  0.54709400  0.90373100  0.49596700  1
  O  O0  1  0.34239400  0.78621000  0.31548800  1
  O  O1  1  0.44381600  0.65760600  0.98215500  1
  O  O2  1  0.21379000  0.55618400  0.64882100  1
  O  O3  1  0.65760600  0.44381600  0.01784500  1
  O  O4  1  0.78621000  0.34239400  0.68451200  1
  O  O5  1  0.55618400  0.21379000  0.35117900  1
  O  O6  1  0.76159100  0.17072800  0.21663200  1
  O  O7  1  0.40913700  0.23840900  0.88329900  1
  O  O8  1  0.82927200  0.59086300  0.54996500  1
  O  O9  1  0.23840900  0.40913700  0.11670100  1
  O  O10  1  0.17072800  0.76159100  0.78336800  1
  O  O11  1  0.59086300  0.82927200  0.45003500  1
  O  O12  1  0.21571400  0.02279600  0.17078800  1
  O  O13  1  0.80708200  0.78428600  0.83745500  1
  O  O14  1  0.97720400  0.19291800  0.50412100  1
  O  O15  1  0.78428600  0.80708200  0.16254500  1
  O  O16  1  0.02279600  0.21571400  0.82921200  1
  O  O17  1  0.19291800  0.97720400  0.49587900  1
  O  O18  1  0.47009600  0.07221100  0.02793700  1
  O  O19  1  0.60211500  0.52990400  0.69460300  1
  O  O20  1  0.92778900  0.39788500  0.36127000  1
  O  O21  1  0.52990400  0.60211500  0.30539700  1
  O  O22  1  0.07221100  0.47009600  0.97206300  1
  O  O23  1  0.39788500  0.92778900  0.63873000  1
  O  O24  1  0.24352100  0.72676400  0.10774000  1
  O  O25  1  0.48324300  0.75647900  0.77440700  1
  O  O26  1  0.27323600  0.51675700  0.44107300  1
  O  O27  1  0.75647900  0.48324300  0.22559300  1
  O  O28  1  0.72676400  0.24352100  0.89226000  1
  O  O29  1  0.51675700  0.27323600  0.55892700  1
  O  O30  1  0.08666400  0.87975800  0.98691500  1
  O  O31  1  0.79309500  0.91333600  0.65358200  1
  O  O32  1  0.12024200  0.20690500  0.32024900  1
  O  O33  1  0.91333600  0.79309500  0.34641800  1
  O  O34  1  0.87975800  0.08666400  0.01308500  1
  O  O35  1  0.20690500  0.12024200  0.67975100  1
loop_
_geom_bond_atom_site_label_1
_geom_bond_atom_site_label_2
_geom_bond_distance
_geom_bond_site_symmetry_2
Co0 O6 2.068794 1_455
Co0 O9 2.068798 1_555
Co0 O32 2.110247 1_555
Co0 O34 2.110247 1_455
Co0 O12 2.164449 1_555
Co0 O15 2.164449 1_445
Co1 O10 2.068794 1_545
Co1 O7 2.068798 1_555
Co1 O35 2.110247 1_555
Co1 O30 2.110247 1_545
Co1 O16 2.164449 1_555
Co1 O13 2.164449 1_445
Co2 O8 2.068794 1_555
Co2 O11 2.068794 1_555
Co2 O33 2.110245 1_555
Co2 O31 2.110245 1_555
Co2 O14 2.164448 1_565
Co2 O17 2.164448 1_655
Co3 O12 2.094082 1_555
Co3 O17 2.094095 1_545
Co3 O0 2.110238 1_545
Co3 O5 2.110240 1_555
Co3 O32 2.188407 1_555
Co3 O33 2.188414 1_445
Co4 O15 2.094082 1_555
Co4 O13 2.094082 1_554
Co4 O1 2.110238 1_554
Co4 O3 2.110238 1_555
Co4 O34 2.188415 1_565
Co4 O30 2.188415 1_654
Co5 O16 2.094082 1_555
Co5 O14 2.094095 1_455
Co5 O4 2.110238 1_455
Co5 O2 2.110240 1_555
Co5 O35 2.188407 1_555
Co5 O31 2.188414 1_445
B0 O7 1.460660 1_555
B0 O3 1.461163 1_556
B0 O18 1.490319 1_556
B0 O28 1.522841 1_555
B1 O8 1.460669 1_555
B1 O4 1.461163 1_555
B1 O19 1.490311 1_555
B1 O29 1.522841 1_555
B2 O6 1.460660 1_555
B2 O5 1.461170 1_555
B2 O20 1.490319 1_555
B2 O27 1.522841 1_555
B3 O11 1.460669 1_555
B3 O0 1.461163 1_555
B3 O21 1.490311 1_555
B3 O26 1.522841 1_555
B4 O9 1.460660 1_555
B4 O1 1.461163 1_554
B4 O22 1.490319 1_554
B4 O24 1.522841 1_555
B5 O10 1.460660 1_555
B5 O2 1.461170 1_555
B5 O23 1.490319 1_555
B5 O25 1.522841 1_555
H0 O0 0.986001 1_555
H1 O1 0.985999 1_555
H2 O2 0.986002 1_555
H3 O3 0.985999 1_555
H4 O4 0.986001 1_555
H5 O5 0.986002 1_555
H6 O6 0.977268 1_555
H7 O7 0.977268 1_555
H8 O8 0.977268 1_555
H9 O9 0.977268 1_555
H10 O10 0.977268 1_555
H11 O11 0.977268 1_555
O12 P0 1.537353 1_545
O13 P1 1.537363 1_555
O14 P2 1.537353 1_655
O15 P3 1.537363 1_555
O16 P4 1.537353 1_455
O17 P5 1.537353 1_565
O18 P0 1.573295 1_545
O19 P1 1.573295 1_555
O20 P2 1.573295 1_655
O21 P3 1.573295 1_555
O22 P4 1.573295 1_455
O23 P5 1.573295 1_565
O24 P0 1.570726 1_555
O25 P1 1.570730 1_555
O26 P2 1.570726 1_555
O27 P3 1.570730 1_555
O28 P4 1.570726 1_555
O29 P5 1.570726 1_555
O30 P0 1.529821 1_556
O31 P1 1.529813 1_555
O32 P2 1.529817 1_555
O33 P3 1.529813 1_555
O34 P4 1.529821 1_554
O35 P5 1.529817 1_555
