# generated using pymatgen
data_Mg2V3O8
_symmetry_space_group_name_H-M   'P 1'
_cell_length_a   4.92362107
_cell_length_b   5.94879600
_cell_length_c   9.86248643
_cell_angle_alpha   90.07707172
_cell_angle_beta   83.29900800
_cell_angle_gamma   90.01730830
_symmetry_Int_Tables_number   1
_chemical_formula_structural   Mg2V3O8
_chemical_formula_sum   'Mg4 V6 O16'
_cell_volume   286.89482302
_cell_formula_units_Z   2
loop_
 _symmetry_equiv_pos_site_id
 _symmetry_equiv_pos_as_xyz
  1  'x, y, z'
loop_
 _atom_site_type_symbol
 _atom_site_label
 _atom_site_symmetry_multiplicity
 _atom_site_fract_x
 _atom_site_fract_y
 _atom_site_fract_z
 _atom_site_occupancy
  Mg  Mg0  1  0.43477400  0.50198000  0.22410300  1
  Mg  Mg1  1  0.92465800  0.99702400  0.72465600  1
  Mg  Mg2  1  0.07479600  0.99699300  0.27559100  1
  Mg  Mg3  1  0.56546500  0.50137000  0.77578100  1
  V  V0  1  0.99920700  0.49890300  0.50004300  1
  V  V1  1  0.50009400  0.00135700  0.00010000  1
  V  V2  1  0.99996400  0.73317700  0.99993600  1
  V  V3  1  0.50161700  0.25596500  0.49956300  1
  V  V4  1  0.49881500  0.78252000  0.50031400  1
  V  V5  1  0.00002300  0.26773000  0.00007100  1
  O  O0  1  0.69047900  0.98568700  0.39503900  1
  O  O1  1  0.18688400  0.50054400  0.89537900  1
  O  O2  1  0.81313100  0.50096600  0.10439500  1
  O  O3  1  0.30953100  0.98589800  0.60524400  1
  O  O4  1  0.67370000  0.50509700  0.39076400  1
  O  O5  1  0.20631100  0.00053800  0.89323400  1
  O  O6  1  0.79374300  0.00070300  0.10681800  1
  O  O7  1  0.32718100  0.50608800  0.60821700  1
  O  O8  1  0.27725800  0.22636000  0.11702600  1
  O  O9  1  0.77971600  0.72650900  0.61417900  1
  O  O10  1  0.27685200  0.77586200  0.11714600  1
  O  O11  1  0.78266800  0.26040100  0.61410100  1
  O  O12  1  0.22096500  0.72632200  0.38542400  1
  O  O13  1  0.72267300  0.22605700  0.88326000  1
  O  O14  1  0.21642000  0.26034900  0.38689200  1
  O  O15  1  0.72307400  0.77559800  0.88272600  1
loop_
_geom_bond_atom_site_label_1
_geom_bond_atom_site_label_2
_geom_bond_distance
_geom_bond_site_symmetry_2
Mg0 O2 2.085894 1_555
Mg0 O4 2.130047 1_555
Mg0 O10 2.137437 1_555
Mg0 O8 2.142599 1_555
Mg0 O12 2.241627 1_555
Mg0 O14 2.324237 1_555
Mg1 O11 2.077389 1_565
Mg1 O3 2.112180 1_655
Mg1 O9 2.112384 1_555
Mg1 O15 2.189558 1_555
Mg1 O13 2.219055 1_565
Mg1 O5 2.285983 1_665
Mg2 O14 2.078203 1_565
Mg2 O0 2.110161 1_455
Mg2 O12 2.114541 1_555
Mg2 O10 2.189641 1_555
Mg2 O8 2.223098 1_565
Mg2 O6 2.285538 1_465
Mg3 O1 2.086308 1_555
Mg3 O7 2.135636 1_555
Mg3 O15 2.135771 1_555
Mg3 O13 2.145225 1_555
Mg3 O9 2.249276 1_555
Mg3 O11 2.310405 1_555
O0 V4 1.789772 1_555
O0 V3 2.070077 1_565
O1 V2 1.897615 1_455
O1 V5 1.900544 1_556
O2 V2 1.896750 1_554
O2 V5 1.899059 1_655
O3 V4 1.781990 1_555
O3 V3 2.082167 1_565
O4 V3 1.963934 1_555
O4 V0 2.033407 1_555
O4 V4 2.100315 1_555
O5 V1 1.886513 1_556
O5 V5 2.101185 1_556
O5 V2 2.103156 1_445
O6 V1 1.885024 1_555
O6 V5 2.101710 1_655
O6 V2 2.102744 1_544
O7 V3 1.970175 1_555
O7 V0 2.037048 1_455
O7 V4 2.084418 1_555
O8 V5 1.903337 1_555
O8 V1 2.006645 1_555
O9 V4 1.910161 1_555
O9 V0 1.995285 1_555
O10 V2 1.904238 1_454
O10 V1 2.011787 1_565
O11 V3 1.885824 1_555
O11 V0 2.034345 1_555
O12 V4 1.904638 1_555
O12 V0 2.003856 1_455
O13 V5 1.902528 1_656
O13 V1 2.006029 1_556
O14 V3 1.889846 1_555
O14 V0 2.030054 1_455
O15 V2 1.904560 1_555
O15 V1 2.012237 1_566
