# generated using pymatgen
data_Nb5Ge2B
_symmetry_space_group_name_H-M   'P 1'
_cell_length_a   6.56211700
_cell_length_b   6.56211700
_cell_length_c   7.57970866
_cell_angle_alpha   115.65009177
_cell_angle_beta   115.65009177
_cell_angle_gamma   90.00000000
_symmetry_Int_Tables_number   1
_chemical_formula_structural   Nb5Ge2B
_chemical_formula_sum   'Nb10 Ge4 B2'
_cell_volume   258.08566530
_cell_formula_units_Z   2
loop_
 _symmetry_equiv_pos_site_id
 _symmetry_equiv_pos_as_xyz
  1  'x, y, z'
loop_
 _atom_site_type_symbol
 _atom_site_label
 _atom_site_symmetry_multiplicity
 _atom_site_fract_x
 _atom_site_fract_y
 _atom_site_fract_z
 _atom_site_occupancy
  Nb  Nb0  1  0.50000000  0.50000000  0.00000000  1
  Nb  Nb1  1  0.00000000  0.00000000  0.00000000  1
  Nb  Nb2  1  0.99071200  0.82495500  0.31566700  1
  Nb  Nb3  1  0.32495500  0.49071200  0.31566700  1
  Nb  Nb4  1  0.82495500  0.32495500  0.31566700  1
  Nb  Nb5  1  0.49071200  0.99071200  0.31566700  1
  Nb  Nb6  1  0.00928800  0.17504500  0.68433300  1
  Nb  Nb7  1  0.67504500  0.50928800  0.68433300  1
  Nb  Nb8  1  0.17504500  0.67504500  0.68433300  1
  Nb  Nb9  1  0.50928800  0.00928800  0.68433300  1
  Ge  Ge0  1  0.63318600  0.86681400  0.00000000  1
  Ge  Ge1  1  0.36681400  0.13318600  0.00000000  1
  Ge  Ge2  1  0.86681400  0.36681400  0.00000000  1
  Ge  Ge3  1  0.13318600  0.63318600  0.00000000  1
  B  B0  1  0.75000000  0.75000000  0.50000000  1
  B  B1  1  0.25000000  0.25000000  0.50000000  1
loop_
_geom_bond_atom_site_label_1
_geom_bond_atom_site_label_2
_geom_bond_distance
_geom_bond_site_symmetry_2
Ge0 Ge1 2.471995 1_565
Ge0 Nb1 2.560832 1_665
Ge0 Nb0 2.560832 1_555
Ge0 Nb2 2.648344 1_555
Ge0 Nb7 2.648344 1_554
Ge0 Nb8 2.740887 1_554
Ge0 Nb4 2.740887 1_565
Ge0 Nb5 2.740887 1_555
Ge0 Nb9 2.740887 1_564
Ge1 Nb1 2.560832 1_555
Ge1 Nb0 2.560832 1_555
Ge1 Nb3 2.648344 1_555
Ge1 Nb6 2.648344 1_554
Ge1 Nb8 2.740887 1_544
Ge1 Nb4 2.740887 1_555
Ge1 Nb5 2.740887 1_545
Ge1 Nb9 2.740887 1_554
Ge2 Ge3 2.471995 1_655
Ge2 Nb0 2.560832 1_555
Ge2 Nb1 2.560832 1_655
Ge2 Nb9 2.648344 1_554
Ge2 Nb4 2.648344 1_555
Ge2 Nb2 2.740887 1_555
Ge2 Nb3 2.740887 1_655
Ge2 Nb7 2.740887 1_554
Ge2 Nb6 2.740887 1_654
Ge3 Nb1 2.560832 1_565
Ge3 Nb0 2.560832 1_555
Ge3 Nb5 2.648344 1_555
Ge3 Nb8 2.648344 1_554
Ge3 Nb7 2.740887 1_454
Ge3 Nb6 2.740887 1_554
Ge3 Nb2 2.740887 1_455
Ge3 Nb3 2.740887 1_555
B0 Nb6 2.682311 1_665
B0 Nb3 2.682311 1_555
B0 Nb8 2.682311 1_655
B0 Nb4 2.682311 1_555
B0 Nb9 2.682311 1_565
B0 Nb5 2.682311 1_555
B0 Nb7 2.682311 1_555
B0 Nb2 2.682311 1_555
B0 Nb1 2.996719 1_666
B0 Nb0 2.996719 1_555
B1 Nb7 2.682311 1_555
B1 Nb2 2.682311 1_445
B1 Nb8 2.682311 1_555
B1 Nb4 2.682311 1_455
B1 Nb5 2.682311 1_545
B1 Nb9 2.682311 1_555
B1 Nb3 2.682311 1_555
B1 Nb6 2.682311 1_555
B1 Nb0 2.996719 1_556
B1 Nb1 2.996719 1_555
