# generated using pymatgen
data_KMg3GaSi3(HO6)2
_symmetry_space_group_name_H-M   'P 1'
_cell_length_a   5.35996000
_cell_length_b   5.36687692
_cell_length_c   10.58563605
_cell_angle_alpha   99.75810636
_cell_angle_beta   85.25203969
_cell_angle_gamma   119.89972483
_symmetry_Int_Tables_number   1
_chemical_formula_structural   KMg3GaSi3(HO6)2
_chemical_formula_sum   'K1 Mg3 Ga1 Si3 H2 O12'
_cell_volume   260.15885396
_cell_formula_units_Z   1
loop_
 _symmetry_equiv_pos_site_id
 _symmetry_equiv_pos_as_xyz
  1  'x, y, z'
loop_
 _atom_site_type_symbol
 _atom_site_label
 _atom_site_symmetry_multiplicity
 _atom_site_fract_x
 _atom_site_fract_y
 _atom_site_fract_z
 _atom_site_occupancy
  K  K0  1  0.99958900  0.00636400  0.01929500  1
  Mg  Mg0  1  0.33460300  0.16292600  0.49556900  1
  Mg  Mg1  1  0.66530500  0.82942000  0.49606800  1
  Mg  Mg2  1  0.00096900  0.50295500  0.49575800  1
  Ga  Ga0  1  0.66584700  0.40912400  0.23165000  1
  Si  Si0  1  0.33386300  0.74113200  0.22522200  1
  Si  Si1  1  0.33148300  0.58941100  0.76576800  1
  Si  Si2  1  0.66490000  0.25276800  0.76564500  1
  H  H0  1  0.99993800  0.10814500  0.31179200  1
  H  H1  1  0.00869600  0.90344000  0.69573100  1
  O  O0  1  0.99912700  0.13567400  0.40501400  1
  O  O1  1  0.00671200  0.87189800  0.60290000  1
  O  O2  1  0.02252600  0.47031700  0.16859600  1
  O  O3  1  0.99813600  0.46572700  0.82398500  1
  O  O4  1  0.66411100  0.46637000  0.40661400  1
  O  O5  1  0.33451800  0.79472100  0.38548500  1
  O  O6  1  0.33046700  0.54205500  0.61107400  1
  O  O7  1  0.66378500  0.19638400  0.61099100  1
  O  O8  1  0.58516600  0.66238600  0.16751400  1
  O  O9  1  0.39244300  0.03206900  0.16774400  1
  O  O10  1  0.47382200  0.41553200  0.82213600  1
  O  O11  1  0.52399200  0.94118100  0.82545000  1
loop_
_geom_bond_atom_site_label_1
_geom_bond_atom_site_label_2
_geom_bond_distance
_geom_bond_site_symmetry_2
K0 O2 2.665693 1_655
K0 O9 2.665894 1_655
K0 O8 2.668434 1_545
Mg0 O4 2.008761 1_555
Mg0 O0 2.036958 1_455
Mg0 O1 2.086497 1_545
Mg0 O5 2.116969 1_545
Mg0 O7 2.145888 1_555
Mg0 O6 2.198360 1_555
Mg1 O4 2.014024 1_555
Mg1 O0 2.037543 1_565
Mg1 O5 2.118731 1_555
Mg1 O1 2.125745 1_655
Mg1 O7 2.135639 1_565
Mg1 O6 2.144034 1_555
Mg2 O4 2.013659 1_455
Mg2 O0 2.036808 1_455
Mg2 O1 2.095644 1_555
Mg2 O5 2.119897 1_555
Mg2 O6 2.133964 1_555
Mg2 O7 2.193664 1_455
Ga0 O4 1.825344 1_555
Ga0 O8 1.855495 1_555
Ga0 O9 1.855726 1_555
Ga0 O2 1.856178 1_655
H0 O0 0.972707 1_555
H1 O1 0.968487 1_555
O2 Si0 1.645817 1_555
O3 Si2 1.669147 1_555
O3 Si1 1.669359 1_655
O5 Si0 1.671939 1_555
O6 Si1 1.614051 1_555
O7 Si2 1.613575 1_555
O8 Si0 1.646183 1_555
O9 Si0 1.645742 1_545
O10 Si1 1.668189 1_555
O10 Si2 1.668250 1_555
O11 Si2 1.669782 1_565
O11 Si1 1.670186 1_555
