# generated using pymatgen
data_Sr4CaMn2Cu3(SO)4
_symmetry_space_group_name_H-M   'P 1'
_cell_length_a   5.99163923
_cell_length_b   5.95646112
_cell_length_c   9.88208364
_cell_angle_alpha   95.70625881
_cell_angle_beta   77.10180209
_cell_angle_gamma   80.98717613
_symmetry_Int_Tables_number   1
_chemical_formula_structural   Sr4CaMn2Cu3(SO)4
_chemical_formula_sum   'Sr4 Ca1 Mn2 Cu3 S4 O4'
_cell_volume   336.21325160
_cell_formula_units_Z   1
loop_
 _symmetry_equiv_pos_site_id
 _symmetry_equiv_pos_as_xyz
  1  'x, y, z'
loop_
 _atom_site_type_symbol
 _atom_site_label
 _atom_site_symmetry_multiplicity
 _atom_site_fract_x
 _atom_site_fract_y
 _atom_site_fract_z
 _atom_site_occupancy
  Sr  Sr0  1  0.17018200  0.91449900  0.37744500  1
  Sr  Sr1  1  0.98159900  0.53015600  0.13928100  1
  Sr  Sr2  1  0.12686400  0.45183300  0.77823700  1
  Sr  Sr3  1  0.67479400  0.00592900  0.77374500  1
  Ca  Ca0  1  0.54415800  0.07405400  0.10953900  1
  Mn  Mn0  1  0.55327600  0.54539500  0.97491800  1
  Mn  Mn1  1  0.09540500  0.99763600  0.96560200  1
  Cu  Cu0  1  0.58774500  0.28012300  0.40554400  1
  Cu  Cu1  1  0.52666400  0.68842100  0.53228000  1
  Cu  Cu2  1  0.89914800  0.42624000  0.48165700  1
  S  S0  1  0.19878600  0.92981200  0.68490100  1
  S  S1  1  0.66220500  0.48464800  0.70016000  1
  S  S2  1  0.24995900  0.40101100  0.35144700  1
  S  S3  1  0.68729500  0.89500400  0.36270900  1
  O  O0  1  0.33159800  0.26567500  0.95997900  1
  O  O1  1  0.82489700  0.77279600  0.96567600  1
  O  O2  1  0.81238700  0.27359300  0.99276100  1
  O  O3  1  0.28137100  0.81317400  0.09412000  1
loop_
_geom_bond_atom_site_label_1
_geom_bond_atom_site_label_2
_geom_bond_distance
_geom_bond_site_symmetry_2
Ca0 O2 2.317431 1_554
Ca0 O1 2.355831 1_544
Ca0 O3 2.396584 1_545
Ca0 O0 2.414435 1_554
Ca0 S2 2.955018 1_555
Ca0 S3 3.055178 1_545
Mn0 O2 2.110431 1_555
Mn0 O3 2.131031 1_556
Mn0 O1 2.267276 1_555
Mn0 O0 2.300860 1_555
Mn0 S1 2.620804 1_555
Mn1 O2 2.117829 1_465
Mn1 O3 2.141823 1_556
Mn1 O1 2.258383 1_455
Mn1 O0 2.290259 1_565
Mn1 S0 2.678272 1_555
Cu0 S2 2.236827 1_555
Cu0 S3 2.250031 1_545
Cu1 S3 2.304243 1_555
Cu1 S0 2.358484 1_555
Cu1 S1 2.361806 1_555
Cu1 Sr0 3.111960 1_555
Cu1 Sr3 3.260719 1_565
Cu2 S2 2.179803 1_655
Cu2 S1 2.264127 1_555
Cu2 Sr0 3.172900 1_645
S0 Sr3 3.012901 1_465
S0 Sr0 3.074289 1_555
S0 Sr2 3.088238 1_565
S0 Sr2 3.141872 1_555
S0 Sr3 3.248776 1_565
S1 Sr3 3.005793 1_555
S1 Sr2 3.033651 1_655
S1 Sr3 3.134375 1_565
S1 Sr2 3.169160 1_555
S2 Sr0 2.996699 1_555
S2 Sr1 3.001880 1_455
S2 Sr0 3.036358 1_545
S3 Sr0 2.948861 1_655
S3 Sr1 2.968880 1_555
S3 Sr0 3.052372 1_555
O0 Sr3 2.599350 1_555
O0 Sr1 2.601928 1_456
O0 Sr2 2.629315 1_555
O1 Sr1 2.588549 1_556
O1 Sr2 2.659956 1_655
O1 Sr3 2.688602 1_565
O2 Sr1 2.482055 1_556
O2 Sr3 2.903115 1_555
O2 Sr2 2.909073 1_655
O3 Sr1 2.647174 1_455
O3 Sr0 2.711543 1_555
