# generated using pymatgen
data_UMn(MoO4)4
_symmetry_space_group_name_H-M   'P 1'
_cell_length_a   6.62569200
_cell_length_b   7.98931200
_cell_length_c   14.08633765
_cell_angle_alpha   55.69694330
_cell_angle_beta   90.00000000
_cell_angle_gamma   90.00000000
_symmetry_Int_Tables_number   1
_chemical_formula_structural   UMn(MoO4)4
_chemical_formula_sum   'U2 Mn2 Mo8 O32'
_cell_volume   615.96301893
_cell_formula_units_Z   2
loop_
 _symmetry_equiv_pos_site_id
 _symmetry_equiv_pos_as_xyz
  1  'x, y, z'
loop_
 _atom_site_type_symbol
 _atom_site_label
 _atom_site_symmetry_multiplicity
 _atom_site_fract_x
 _atom_site_fract_y
 _atom_site_fract_z
 _atom_site_occupancy
  U  U0  1  0.29580900  0.50000000  0.75000000  1
  U  U1  1  0.70419100  0.50000000  0.25000000  1
  Mn  Mn0  1  0.69270000  0.00000000  0.25000000  1
  Mn  Mn1  1  0.30730000  0.00000000  0.75000000  1
  Mo  Mo0  1  0.82951500  0.30278000  0.91056400  1
  Mo  Mo1  1  0.17048500  0.69722000  0.08943600  1
  Mo  Mo2  1  0.82951500  0.69722000  0.58943600  1
  Mo  Mo3  1  0.17048500  0.30278000  0.41056400  1
  Mo  Mo4  1  0.82308600  0.81211300  0.90136400  1
  Mo  Mo5  1  0.17691400  0.18788700  0.09863600  1
  Mo  Mo6  1  0.82308600  0.18788700  0.59863600  1
  Mo  Mo7  1  0.17691400  0.81211300  0.40136400  1
  O  O0  1  0.84690600  0.31351900  0.43374500  1
  O  O1  1  0.15309400  0.68648100  0.56625500  1
  O  O2  1  0.84606500  0.41158600  0.59612600  1
  O  O3  1  0.15393500  0.58841400  0.40387400  1
  O  O4  1  0.84157900  0.09003000  0.90357000  1
  O  O5  1  0.15842100  0.90997000  0.09643000  1
  O  O6  1  0.94007000  0.00000000  0.75000000  1
  O  O7  1  0.05993000  0.00000000  0.25000000  1
  O  O8  1  0.29854000  0.26803300  0.74879100  1
  O  O9  1  0.70146000  0.73196700  0.25120900  1
  O  O10  1  0.43338900  0.86982600  0.36809200  1
  O  O11  1  0.56661100  0.13017400  0.63190800  1
  O  O12  1  0.15309400  0.31351900  0.93374500  1
  O  O13  1  0.84690600  0.68648100  0.06625500  1
  O  O14  1  0.29854000  0.73196700  0.75120900  1
  O  O15  1  0.70146000  0.26803300  0.24879100  1
  O  O16  1  0.84429600  0.18188800  0.06743100  1
  O  O17  1  0.15570400  0.81811200  0.93256900  1
  O  O18  1  0.56959700  0.37375300  0.87260200  1
  O  O19  1  0.43040300  0.62624700  0.12739800  1
  O  O20  1  0.56661100  0.86982600  0.86809200  1
  O  O21  1  0.43338900  0.13017400  0.13190800  1
  O  O22  1  0.15842100  0.09003000  0.40357000  1
  O  O23  1  0.84157900  0.90997000  0.59643000  1
  O  O24  1  0.94079400  0.50000000  0.75000000  1
  O  O25  1  0.05920600  0.50000000  0.25000000  1
  O  O26  1  0.56959700  0.62624700  0.62739800  1
  O  O27  1  0.43040300  0.37375300  0.37260200  1
  O  O28  1  0.84606500  0.58841400  0.90387400  1
  O  O29  1  0.15393500  0.41158600  0.09612600  1
  O  O30  1  0.84429600  0.81811200  0.43256900  1
  O  O31  1  0.15570400  0.18188800  0.56743100  1
loop_
_geom_bond_atom_site_label_1
_geom_bond_atom_site_label_2
_geom_bond_distance
_geom_bond_site_symmetry_2
Mn0 O9 2.132638 1_545
Mn0 O15 2.132638 1_555
Mn0 O21 2.202435 1_555
Mn0 O10 2.202435 1_545
Mn0 O30 2.349907 1_545
Mn0 O16 2.349907 1_555
Mn0 O7 2.433153 1_655
Mn1 O14 2.132638 1_545
Mn1 O8 2.132638 1_555
Mn1 O11 2.202435 1_555
Mn1 O20 2.202435 1_545
Mn1 O17 2.349907 1_545
Mn1 O31 2.349907 1_555
Mn1 O6 2.433153 1_455
Mo0 O4 1.758952 1_555
Mo0 O18 1.797626 1_555
Mo0 O16 1.849213 1_556
Mo0 O24 2.031010 1_555
Mo0 O12 2.177618 1_655
Mo0 O28 2.232963 1_555
Mo1 O5 1.758952 1_555
Mo1 O19 1.797626 1_555
Mo1 O17 1.849213 1_554
Mo1 O25 2.031010 1_555
Mo1 O13 2.177618 1_455
Mo1 O29 2.232963 1_555
Mo2 O23 1.758952 1_555
Mo2 O26 1.797626 1_555
Mo2 O30 1.849213 1_555
Mo2 O24 2.031010 1_555
Mo2 O1 2.177618 1_655
Mo2 O2 2.232963 1_555
Mo3 O22 1.758952 1_555
Mo3 O27 1.797626 1_555
Mo3 O31 1.849213 1_555
Mo3 O25 2.031010 1_555
Mo3 O0 2.177618 1_455
Mo3 O3 2.232963 1_555
Mo4 O20 1.753964 1_555
Mo4 O28 1.774062 1_555
Mo4 O6 1.947481 1_565
Mo4 O13 1.949254 1_556
Mo4 O4 2.241377 1_565
Mo4 O17 2.253021 1_655
Mo5 O21 1.753964 1_555
Mo5 O29 1.774062 1_555
Mo5 O7 1.947481 1_555
Mo5 O12 1.949254 1_554
Mo5 O5 2.241377 1_545
Mo5 O16 2.253021 1_455
Mo6 O11 1.753964 1_555
Mo6 O2 1.774062 1_555
Mo6 O6 1.947481 1_555
Mo6 O0 1.949254 1_555
Mo6 O23 2.241377 1_545
Mo6 O31 2.253021 1_655
Mo7 O10 1.753964 1_555
Mo7 O3 1.774062 1_555
Mo7 O7 1.947481 1_565
Mo7 O1 1.949254 1_555
Mo7 O22 2.241377 1_565
Mo7 O30 2.253021 1_455
O0 U1 2.338078 1_555
O1 U0 2.338078 1_555
O8 U0 1.862996 1_555
O9 U1 1.862996 1_555
O12 U0 2.338078 1_555
O13 U1 2.338078 1_555
O14 U0 1.862996 1_555
O15 U1 1.862996 1_555
O18 U0 2.308083 1_555
O19 U1 2.308083 1_555
O24 U0 2.352220 1_655
O25 U1 2.352220 1_455
O26 U0 2.308083 1_555
O27 U1 2.308083 1_555
