# generated using pymatgen
data_Ga3Ni5Sn2
_symmetry_space_group_name_H-M   'P 1'
_cell_length_a   4.10551400
_cell_length_b   6.53036294
_cell_length_c   11.54636200
_cell_angle_alpha   90.00000000
_cell_angle_beta   90.00000000
_cell_angle_gamma   108.32099988
_symmetry_Int_Tables_number   1
_chemical_formula_structural   Ga3Ni5Sn2
_chemical_formula_sum   'Ga6 Ni10 Sn4'
_cell_volume   293.87201614
_cell_formula_units_Z   2
loop_
 _symmetry_equiv_pos_site_id
 _symmetry_equiv_pos_as_xyz
  1  'x, y, z'
loop_
 _atom_site_type_symbol
 _atom_site_label
 _atom_site_symmetry_multiplicity
 _atom_site_fract_x
 _atom_site_fract_y
 _atom_site_fract_z
 _atom_site_occupancy
  Ga  Ga0  1  0.83153500  0.66307000  0.47363300  1
  Ga  Ga1  1  0.16846500  0.33693000  0.52636700  1
  Ga  Ga2  1  0.83153500  0.66307000  0.02636700  1
  Ga  Ga3  1  0.16846500  0.33693000  0.97363300  1
  Ga  Ga4  1  0.50000000  0.00000000  0.50000000  1
  Ga  Ga5  1  0.50000000  0.00000000  0.00000000  1
  Ni  Ni0  1  0.65916100  0.31832100  0.37745200  1
  Ni  Ni1  1  0.34083900  0.68167900  0.62254800  1
  Ni  Ni2  1  0.65916100  0.31832100  0.12254800  1
  Ni  Ni3  1  0.34083900  0.68167900  0.87745200  1
  Ni  Ni4  1  0.01991400  0.03982800  0.38044500  1
  Ni  Ni5  1  0.98008600  0.96017200  0.61955500  1
  Ni  Ni6  1  0.01991400  0.03982800  0.11955500  1
  Ni  Ni7  1  0.98008600  0.96017200  0.88044500  1
  Ni  Ni8  1  0.83889300  0.67778700  0.25000000  1
  Ni  Ni9  1  0.16110700  0.32221300  0.75000000  1
  Sn  Sn0  1  0.20768400  0.41536800  0.25000000  1
  Sn  Sn1  1  0.79231600  0.58463200  0.75000000  1
  Sn  Sn2  1  0.46785100  0.93570200  0.25000000  1
  Sn  Sn3  1  0.53214900  0.06429800  0.75000000  1
loop_
_geom_bond_atom_site_label_1
_geom_bond_atom_site_label_2
_geom_bond_distance
_geom_bond_site_symmetry_2
Ga0 Ni0 2.408526 1_555
Ga0 Ni5 2.496226 1_555
Ga0 Ni4 2.571576 1_665
Ga0 Ni8 2.583759 1_555
Ga0 Ni1 2.680213 1_655
Ga0 Ni1 2.680216 1_555
Ga1 Ni1 2.408526 1_555
Ga1 Ni4 2.496226 1_555
Ga1 Ni5 2.571576 1_445
Ga1 Ni9 2.583759 1_555
Ga1 Ni0 2.680213 1_455
Ga1 Ni0 2.680216 1_555
Ga2 Ni2 2.408526 1_555
Ga2 Ni7 2.496226 1_554
Ga2 Ni6 2.571576 1_665
Ga2 Ni8 2.583759 1_555
Ga2 Ni3 2.680213 1_654
Ga2 Ni3 2.680216 1_554
Ga3 Ni3 2.408526 1_555
Ga3 Ni6 2.496226 1_556
Ga3 Ni7 2.571576 1_445
Ga3 Ni9 2.583759 1_555
Ga3 Ni2 2.680213 1_456
Ga3 Ni2 2.680216 1_556
Ga4 Ni0 2.428252 1_555
Ga4 Ni1 2.428252 1_545
Ga4 Ni4 2.486031 1_655
Ga4 Ni5 2.486031 1_545
Ga4 Ni4 2.486031 1_555
Ga4 Ni5 2.486031 1_445
Ga4 Sn3 2.913982 1_555
Ga4 Sn2 2.913982 1_545
Ga5 Ni2 2.428252 1_555
Ga5 Ni3 2.428252 1_544
Ga5 Ni6 2.486031 1_655
Ga5 Ni6 2.486031 1_555
Ga5 Ni7 2.486031 1_544
Ga5 Ni7 2.486031 1_444
Ga5 Sn3 2.913982 1_554
Ga5 Sn2 2.913982 1_545
Ni0 Sn0 2.596418 1_655
Ni0 Sn0 2.596421 1_555
Ni0 Ni8 2.670511 1_555
Ni0 Ni4 2.682481 1_655
Ni0 Ni4 2.682485 1_555
Ni0 Sn2 2.791405 1_545
Ni0 Ni2 2.943214 1_555
Ni1 Sn1 2.596418 1_455
Ni1 Sn1 2.596421 1_555
Ni1 Ni9 2.670511 1_555
Ni1 Ni5 2.682481 1_455
Ni1 Ni5 2.682485 1_555
Ni1 Sn3 2.791405 1_565
Ni1 Ni3 2.943214 1_555
Ni2 Sn0 2.596418 1_655
Ni2 Sn0 2.596421 1_555
Ni2 Ni8 2.670511 1_555
Ni2 Ni6 2.682481 1_655
Ni2 Ni6 2.682485 1_555
Ni2 Sn2 2.791405 1_545
Ni3 Sn1 2.596418 1_455
Ni3 Sn1 2.596421 1_555
Ni3 Ni9 2.670511 1_555
Ni3 Ni7 2.682481 1_455
Ni3 Ni7 2.682485 1_555
Ni3 Sn3 2.791405 1_565
Ni4 Sn2 2.626601 1_545
Ni4 Sn2 2.626601 1_445
Ni4 Ni8 2.702949 1_445
Ni4 Sn0 2.772830 1_555
Ni4 Ni5 2.804666 1_445
Ni4 Ni6 3.012330 1_555
Ni5 Sn3 2.626601 1_565
Ni5 Sn3 2.626601 1_665
Ni5 Ni9 2.702949 1_665
Ni5 Sn1 2.772830 1_555
Ni5 Ni7 3.012330 1_555
Ni6 Sn2 2.626601 1_545
Ni6 Sn2 2.626601 1_445
Ni6 Ni8 2.702949 1_445
Ni6 Sn0 2.772830 1_555
Ni6 Ni7 2.804666 1_444
Ni7 Sn3 2.626601 1_565
Ni7 Sn3 2.626601 1_665
Ni7 Ni9 2.702949 1_665
Ni7 Sn1 2.772830 1_555
Ni8 Sn2 2.601979 1_555
Ni8 Sn2 2.601982 1_655
Ni8 Sn0 2.619229 1_555
Ni8 Sn0 2.619232 1_655
Ni9 Sn3 2.601979 1_555
Ni9 Sn3 2.601982 1_455
Ni9 Sn1 2.619229 1_555
Ni9 Sn1 2.619232 1_455
