# generated using pymatgen
data_Sc(CrGe)6
_symmetry_space_group_name_H-M   'P 1'
_cell_length_a   5.05287600
_cell_length_b   5.05287602
_cell_length_c   8.30472600
_cell_angle_alpha   90.00000000
_cell_angle_beta   90.00000000
_cell_angle_gamma   119.99999988
_symmetry_Int_Tables_number   1
_chemical_formula_structural   Sc(CrGe)6
_chemical_formula_sum   'Sc1 Cr6 Ge6'
_cell_volume   183.62559805
_cell_formula_units_Z   1
loop_
 _symmetry_equiv_pos_site_id
 _symmetry_equiv_pos_as_xyz
  1  'x, y, z'
loop_
 _atom_site_type_symbol
 _atom_site_label
 _atom_site_symmetry_multiplicity
 _atom_site_fract_x
 _atom_site_fract_y
 _atom_site_fract_z
 _atom_site_occupancy
  Sc  Sc0  1  0.00000000  0.00000000  0.00000000  1
  Cr  Cr0  1  0.50000000  0.50000000  0.75143600  1
  Cr  Cr1  1  0.50000000  0.00000000  0.75143600  1
  Cr  Cr2  1  0.00000000  0.50000000  0.75143600  1
  Cr  Cr3  1  0.50000000  0.50000000  0.24856400  1
  Cr  Cr4  1  0.50000000  0.00000000  0.24856400  1
  Cr  Cr5  1  0.00000000  0.50000000  0.24856400  1
  Ge  Ge0  1  0.66666700  0.33333300  0.00000000  1
  Ge  Ge1  1  0.33333300  0.66666700  0.00000000  1
  Ge  Ge2  1  0.66666700  0.33333300  0.50000000  1
  Ge  Ge3  1  0.33333300  0.66666700  0.50000000  1
  Ge  Ge4  1  0.00000000  0.00000000  0.65733100  1
  Ge  Ge5  1  0.00000000  0.00000000  0.34266900  1
loop_
_geom_bond_atom_site_label_1
_geom_bond_atom_site_label_2
_geom_bond_distance
_geom_bond_site_symmetry_2
Cr0 Ge0 2.527606 1_556
Cr0 Ge1 2.527606 1_556
Cr0 Ge3 2.547122 1_555
Cr0 Ge2 2.547122 1_555
Cr0 Ge4 2.644552 1_555
Cr0 Ge4 2.644552 1_665
Cr1 Ge1 2.527603 1_546
Cr1 Ge0 2.527603 1_556
Cr1 Ge3 2.547119 1_545
Cr1 Ge2 2.547119 1_555
Cr1 Ge4 2.644552 1_555
Cr1 Ge4 2.644552 1_655
Cr2 Ge0 2.527603 1_456
Cr2 Ge1 2.527603 1_556
Cr2 Ge2 2.547119 1_455
Cr2 Ge3 2.547119 1_555
Cr2 Ge4 2.644552 1_565
Cr2 Ge4 2.644552 1_555
Cr3 Ge1 2.527606 1_555
Cr3 Ge0 2.527606 1_555
Cr3 Ge3 2.547122 1_555
Cr3 Ge2 2.547122 1_555
Cr3 Ge5 2.644552 1_555
Cr3 Ge5 2.644552 1_665
Cr4 Ge1 2.527603 1_545
Cr4 Ge0 2.527603 1_555
Cr4 Ge3 2.547119 1_545
Cr4 Ge2 2.547119 1_555
Cr4 Ge5 2.644552 1_655
Cr4 Ge5 2.644552 1_555
Cr5 Ge1 2.527603 1_555
Cr5 Ge0 2.527603 1_455
Cr5 Ge3 2.547119 1_555
Cr5 Ge2 2.547119 1_455
Cr5 Ge5 2.644552 1_565
Cr5 Ge5 2.644552 1_555
Ge0 Sc0 2.917276 1_655
Ge0 Sc0 2.917281 1_555
Ge0 Sc0 2.917281 1_665
Ge1 Sc0 2.917276 1_565
Ge1 Sc0 2.917281 1_665
Ge1 Sc0 2.917281 1_555
Ge4 Ge5 2.613182 1_555
Ge4 Sc0 2.845772 1_556
Ge5 Sc0 2.845772 1_555
