# generated using pymatgen
data_SmGa5Co
_symmetry_space_group_name_H-M   'P 1'
_cell_length_a   4.20975338
_cell_length_b   4.20975338
_cell_length_c   6.85632741
_cell_angle_alpha   90.00000000
_cell_angle_beta   90.00000000
_cell_angle_gamma   90.00000000
_symmetry_Int_Tables_number   1
_chemical_formula_structural   SmGa5Co
_chemical_formula_sum   'Sm1 Ga5 Co1'
_cell_volume   121.50799562
_cell_formula_units_Z   1
loop_
 _symmetry_equiv_pos_site_id
 _symmetry_equiv_pos_as_xyz
  1  'x, y, z'
loop_
 _atom_site_type_symbol
 _atom_site_label
 _atom_site_symmetry_multiplicity
 _atom_site_fract_x
 _atom_site_fract_y
 _atom_site_fract_z
 _atom_site_occupancy
  Sm  Sm0  1  -0.00000000  0.00000000  -0.00000000  1
  Ga  Ga0  1  0.50000000  0.50000000  -0.00000000  1
  Ga  Ga1  1  0.00000000  0.50000000  0.31490468  1
  Ga  Ga2  1  0.50000000  -0.00000000  0.31490468  1
  Ga  Ga3  1  -0.00000000  0.50000000  0.68509532  1
  Ga  Ga4  1  0.50000000  0.00000000  0.68509532  1
  Co  Co0  1  -0.00000000  0.00000000  0.50000000  1
loop_
_geom_bond_atom_site_label_1
_geom_bond_atom_site_label_2
_geom_bond_distance
_geom_bond_site_symmetry_2
Ga0 Sm0 2.976745 1_665
Ga0 Sm0 2.976745 1_655
Ga0 Sm0 2.976745 1_565
Ga0 Sm0 2.976745 1_555
Ga0 Ga3 3.015323 1_654
Ga0 Ga3 3.015323 1_554
Ga0 Ga1 3.015323 1_555
Ga0 Ga2 3.015323 1_565
Ga0 Ga4 3.015323 1_564
Ga0 Ga1 3.015323 1_655
Ga0 Ga4 3.015323 1_554
Ga0 Ga2 3.015323 1_555
Ga1 Ga3 2.538148 1_555
Ga1 Ga2 2.976745 1_565
Ga1 Ga2 2.976745 1_465
Ga1 Ga2 2.976745 1_455
Ga1 Ga2 2.976745 1_555
Ga1 Sm0 3.015323 1_555
Ga1 Sm0 3.015323 1_565
Ga2 Ga4 2.538148 1_555
Ga2 Sm0 3.015323 1_555
Ga2 Sm0 3.015323 1_655
Ga3 Ga4 2.976745 1_465
Ga3 Ga4 2.976745 1_565
Ga3 Ga4 2.976745 1_555
Ga3 Ga4 2.976745 1_455
Ga3 Sm0 3.015323 1_556
Ga3 Sm0 3.015323 1_566
Ga4 Sm0 3.015323 1_556
Ga4 Sm0 3.015323 1_656
Co0 Ga1 2.457856 1_555
Co0 Ga2 2.457856 1_455
Co0 Ga2 2.457856 1_555
Co0 Ga1 2.457856 1_545
Co0 Ga4 2.457856 1_555
Co0 Ga4 2.457856 1_455
Co0 Ga3 2.457856 1_545
Co0 Ga3 2.457856 1_555
