# generated using pymatgen
data_Hf4Ti(PbO3)5
_symmetry_space_group_name_H-M   'P 1'
_cell_length_a   5.87151700
_cell_length_b   10.08362738
_cell_length_c   13.04588861
_cell_angle_alpha   75.07453275
_cell_angle_beta   77.64841737
_cell_angle_gamma   73.39135534
_symmetry_Int_Tables_number   1
_chemical_formula_structural   Hf4Ti(PbO3)5
_chemical_formula_sum   'Hf8 Ti2 Pb10 O30'
_cell_volume   706.94392443
_cell_formula_units_Z   2
loop_
 _symmetry_equiv_pos_site_id
 _symmetry_equiv_pos_as_xyz
  1  'x, y, z'
loop_
 _atom_site_type_symbol
 _atom_site_label
 _atom_site_symmetry_multiplicity
 _atom_site_fract_x
 _atom_site_fract_y
 _atom_site_fract_z
 _atom_site_occupancy
  Hf  Hf0  1  0.43156400  0.29663300  0.89076000  1
  Hf  Hf1  1  0.23086700  0.89879500  0.69211600  1
  Hf  Hf2  1  0.03154200  0.49630900  0.49307900  1
  Hf  Hf3  1  0.82885300  0.09789100  0.29287800  1
  Hf  Hf4  1  0.03168000  0.99604700  0.99316900  1
  Hf  Hf5  1  0.82924800  0.59786500  0.79302200  1
  Hf  Hf6  1  0.43107800  0.79680000  0.39082300  1
  Hf  Hf7  1  0.23146200  0.39882200  0.19230200  1
  Ti  Ti0  1  0.63923000  0.69666600  0.09068200  1
  Ti  Ti1  1  0.63913300  0.19698900  0.59038000  1
  Pb  Pb0  1  0.27866800  0.64435400  0.93435400  1
  Pb  Pb1  1  0.08785400  0.24209300  0.72698500  1
  Pb  Pb2  1  0.87699500  0.84585800  0.53055600  1
  Pb  Pb3  1  0.67415300  0.44670700  0.32900100  1
  Pb  Pb4  1  0.47769400  0.03782000  0.13026500  1
  Pb  Pb5  1  0.67412100  0.94685400  0.82894900  1
  Pb  Pb6  1  0.47727400  0.53843300  0.62989800  1
  Pb  Pb7  1  0.27881500  0.14390200  0.43475600  1
  Pb  Pb8  1  0.08765400  0.74240400  0.22680200  1
  Pb  Pb9  1  0.87638900  0.34575800  0.03096200  1
  O  O0  1  0.98604600  0.26462100  0.23663500  1
  O  O1  1  0.78215900  0.85406500  0.03993500  1
  O  O2  1  0.58779500  0.46339500  0.83853100  1
  O  O3  1  0.39158800  0.06487600  0.63599800  1
  O  O4  1  0.18893300  0.66069900  0.43740700  1
  O  O5  1  0.90335100  0.02856000  0.15351600  1
  O  O6  1  0.70094400  0.63287000  0.95893000  1
  O  O7  1  0.50592900  0.22918200  0.74911800  1
  O  O8  1  0.30226700  0.83027600  0.55181100  1
  O  O9  1  0.10094000  0.43052000  0.35186400  1
  O  O10  1  0.11045600  0.95821500  0.36056200  1
  O  O11  1  0.89860000  0.56401000  0.15581800  1
  O  O12  1  0.71020000  0.15473600  0.96092900  1
  O  O13  1  0.51034300  0.75966800  0.76028200  1
  O  O14  1  0.31541500  0.35442200  0.55995200  1
  O  O15  1  0.68904400  0.16879800  0.44699500  1
  O  O16  1  0.49334400  0.76658200  0.23685000  1
  O  O17  1  0.28931200  0.36884300  0.03903800  1
  O  O18  1  0.08851300  0.96789800  0.83959500  1
  O  O19  1  0.89091400  0.56615200  0.64077600  1
  O  O20  1  0.49796700  0.23411400  0.24784400  1
  O  O21  1  0.30317300  0.82974100  0.04755200  1
  O  O22  1  0.09752500  0.43276800  0.84773600  1
  O  O23  1  0.88704500  0.04039800  0.64386200  1
  O  O24  1  0.69756500  0.62962500  0.44816500  1
  O  O25  1  0.61311400  0.95052000  0.36387400  1
  O  O26  1  0.41576100  0.55271500  0.16061500  1
  O  O27  1  0.21471000  0.14800000  0.96285500  1
  O  O28  1  0.01122000  0.75250300  0.76180200  1
  O  O29  1  0.80555400  0.34222700  0.56341500  1
loop_
_geom_bond_atom_site_label_1
_geom_bond_atom_site_label_2
_geom_bond_distance
_geom_bond_site_symmetry_2
Hf0 O2 2.039016 1_555
Hf0 O12 2.046860 1_555
Hf0 O7 2.049452 1_555
Hf0 O22 2.140359 1_555
Hf0 O27 2.145818 1_555
Hf0 O17 2.157881 1_556
Hf1 O13 2.029113 1_555
Hf1 O8 2.039873 1_555
Hf1 O3 2.051201 1_565
Hf1 O18 2.134380 1_555
Hf1 O28 2.135635 1_555
Hf1 O23 2.223355 1_465
Hf2 O4 2.024277 1_555
Hf2 O9 2.038131 1_555
Hf2 O14 2.049901 1_555
Hf2 O24 2.138844 1_455
Hf2 O19 2.139258 1_455
Hf2 O29 2.222584 1_455
Hf3 O5 2.031078 1_555
Hf3 O10 2.037140 1_645
Hf3 O0 2.044186 1_555
Hf3 O25 2.129760 1_545
Hf3 O20 2.133893 1_555
Hf3 O15 2.219564 1_555
Hf4 O27 2.026429 1_565
Hf4 O18 2.039299 1_555
Hf4 O21 2.049252 1_556
Hf4 O12 2.136971 1_465
Hf4 O5 2.142167 1_466
Hf4 O1 2.221514 1_456
Hf5 O19 2.032637 1_555
Hf5 O22 2.032734 1_655
Hf5 O28 2.044022 1_655
Hf5 O2 2.127222 1_555
Hf5 O13 2.141785 1_555
Hf5 O6 2.218282 1_555
Hf6 O25 2.043107 1_555
Hf6 O24 2.047647 1_555
Hf6 O16 2.049114 1_555
Hf6 O10 2.141108 1_555
Hf6 O4 2.142508 1_555
Hf6 O8 2.153281 1_555
Hf7 O20 2.027683 1_555
Hf7 O17 2.041255 1_555
Hf7 O26 2.046478 1_555
Hf7 O9 2.131400 1_555
Hf7 O0 2.144093 1_455
Hf7 O11 2.224709 1_455
O0 Pb3 2.539745 1_555
O0 Pb9 2.755093 1_555
O1 Ti0 1.908951 1_555
O1 Pb4 2.519468 1_565
O1 Pb5 2.816939 1_554
O2 Pb0 2.549066 1_555
O2 Pb6 2.795693 1_555
O3 Ti1 2.137727 1_555
O3 Pb1 2.479506 1_555
O3 Pb7 2.707483 1_555
O4 Pb2 2.564945 1_455
O4 Pb8 2.798961 1_555
O5 Pb4 2.554079 1_555
O5 Pb8 2.765441 1_645
O6 Ti0 1.915553 1_556
O6 Pb0 2.533863 1_555
O6 Pb9 2.762933 1_556
O7 Ti1 2.124581 1_555
O7 Pb1 2.495440 1_555
O7 Pb5 2.733162 1_545
O8 Pb2 2.527061 1_455
O8 Pb6 2.815812 1_555
O9 Pb3 2.540854 1_455
O9 Pb7 2.785823 1_555
O10 Pb2 2.524651 1_455
O10 Pb7 2.796599 1_565
O11 Ti0 1.906351 1_555
O11 Pb3 2.545791 1_555
O11 Pb8 2.786579 1_655
O12 Pb4 2.534182 1_556
O12 Pb9 2.803488 1_556
O13 Pb0 2.565528 1_555
O13 Pb5 2.750837 1_555
O14 Ti1 2.136278 1_555
O14 Pb1 2.482895 1_555
O14 Pb6 2.725801 1_555
O15 Ti1 1.912471 1_555
O15 Pb7 2.533978 1_555
O15 Pb3 2.815255 1_555
O16 Ti0 2.124967 1_555
O16 Pb8 2.496529 1_555
O16 Pb4 2.715587 1_565
O17 Pb9 2.527442 1_455
O17 Pb0 2.751358 1_554
O18 Pb5 2.537567 1_455
O18 Pb1 2.776107 1_565
O19 Pb6 2.559839 1_555
O19 Pb2 2.803321 1_555
O20 Pb7 2.571642 1_555
O20 Pb4 2.839322 1_555
O21 Ti0 2.140802 1_555
O21 Pb8 2.481043 1_555
O21 Pb0 2.713455 1_554
O22 Pb9 2.532291 1_456
O22 Pb1 2.800442 1_555
O23 Ti1 1.911008 1_555
O23 Pb5 2.548044 1_545
O23 Pb2 2.762939 1_545
O24 Pb6 2.526762 1_555
O24 Pb3 2.747949 1_555
O25 Pb7 2.544524 1_565
O25 Pb2 2.750883 1_555
O26 Ti0 2.134346 1_555
O26 Pb8 2.479545 1_555
O26 Pb3 2.749401 1_555
O27 Pb9 2.570035 1_456
O27 Pb4 2.756932 1_556
O28 Pb5 2.539824 1_455
O28 Pb0 2.826903 1_555
O29 Ti1 1.905002 1_555
O29 Pb6 2.523992 1_555
O29 Pb1 2.786946 1_655
