# generated using pymatgen
data_Li9Mn2Co5O16
_symmetry_space_group_name_H-M   'P 1'
_cell_length_a   10.63901727
_cell_length_b   10.63901727
_cell_length_c   10.27674159
_cell_angle_alpha   67.07260188
_cell_angle_beta   67.07260188
_cell_angle_gamma   15.61795638
_symmetry_Int_Tables_number   1
_chemical_formula_structural   Li9Mn2Co5O16
_chemical_formula_sum   'Li9 Mn2 Co5 O16'
_cell_volume   287.93588650
_cell_formula_units_Z   1
loop_
 _symmetry_equiv_pos_site_id
 _symmetry_equiv_pos_as_xyz
  1  'x, y, z'
loop_
 _atom_site_type_symbol
 _atom_site_label
 _atom_site_symmetry_multiplicity
 _atom_site_fract_x
 _atom_site_fract_y
 _atom_site_fract_z
 _atom_site_occupancy
  Li  Li0  1  0.61984700  0.61984700  0.81722200  1
  Li  Li1  1  0.88588500  0.88588500  0.42356700  1
  Li  Li2  1  0.11794900  0.11794900  0.08720300  1
  Li  Li3  1  0.12058900  0.12058900  0.56037100  1
  Li  Li4  1  0.37936900  0.37936900  0.18196700  1
  Li  Li5  1  0.62173700  0.62173700  0.31273400  1
  Li  Li6  1  0.87548500  0.87548500  0.93753200  1
  Li  Li7  1  0.38173100  0.38173100  0.68030600  1
  Li  Li8  1  0.49831800  0.49831800  0.25080300  1
  Mn  Mn0  1  0.99836100  0.99836100  0.00978400  1
  Mn  Mn1  1  0.25051300  0.25051300  0.62435700  1
  Co  Co0  1  0.74966900  0.74966900  0.87732500  1
  Co  Co1  1  0.00460900  0.00460900  0.47751500  1
  Co  Co2  1  0.24905000  0.24905000  0.12600900  1
  Co  Co3  1  0.49911300  0.49911300  0.74564700  1
  Co  Co4  1  0.75076300  0.75076300  0.37249300  1
  O  O0  1  0.55625500  0.55625500  0.02735600  1
  O  O1  1  0.80654000  0.80654000  0.64649200  1
  O  O2  1  0.06135600  0.06135600  0.29334100  1
  O  O3  1  0.05542300  0.05542300  0.79305300  1
  O  O4  1  0.30207300  0.30207300  0.41863100  1
  O  O5  1  0.55738900  0.55738900  0.53906200  1
  O  O6  1  0.80774100  0.80774100  0.15221300  1
  O  O7  1  0.30443400  0.30443400  0.90668200  1
  O  O8  1  0.69307700  0.69307700  0.60410100  1
  O  O9  1  0.94130600  0.94130600  0.19971500  1
  O  O10  1  0.19894700  0.19894700  0.83036400  1
  O  O11  1  0.19547300  0.19547300  0.34413800  1
  O  O12  1  0.44540300  0.44540300  0.96861500  1
  O  O13  1  0.69061700  0.69061700  0.09469500  1
  O  O14  1  0.93954400  0.93954400  0.72416200  1
  O  O15  1  0.44143300  0.44143300  0.47254700  1
loop_
_geom_bond_atom_site_label_1
_geom_bond_atom_site_label_2
_geom_bond_distance
_geom_bond_site_symmetry_2
Li0 O0 2.045453 1_556
Li0 O3 2.064214 1_565
Li0 O3 2.064214 1_655
Li0 O8 2.126290 1_555
Li0 O10 2.250647 1_565
Li0 O10 2.250647 1_655
Li1 O15 2.043939 1_565
Li1 O15 2.043939 1_655
Li1 O9 2.131543 1_555
Li1 O1 2.243357 1_555
Li1 O4 2.298752 1_565
Li1 O4 2.298752 1_655
Li2 O2 1.980779 1_555
Li2 O13 2.129541 1_455
Li2 O13 2.129541 1_545
Li2 O0 2.188221 1_455
Li2 O0 2.188221 1_545
Li2 O10 2.517543 1_554
Li3 O5 2.035188 1_455
Li3 O5 2.035188 1_545
Li3 O11 2.161326 1_555
Li3 O3 2.240925 1_555
Li3 O8 2.273031 1_455
Li3 O8 2.273031 1_545
Li4 O9 2.003722 1_455
Li4 O9 2.003722 1_545
Li4 O12 2.084430 1_554
Li4 O6 2.196854 1_545
Li4 O6 2.196854 1_455
Li4 O4 2.335331 1_555
Li5 O2 1.987207 1_565
Li5 O2 1.987207 1_655
Li5 O13 2.137889 1_555
Li5 O5 2.183742 1_555
Li5 O11 2.237055 1_565
Li5 O11 2.237055 1_655
Li6 O14 2.074385 1_555
Li6 O6 2.104540 1_556
Li6 O12 2.175846 1_565
Li6 O12 2.175846 1_655
Li6 O7 2.192473 1_565
Li6 O7 2.192473 1_655
Li7 O15 2.007323 1_555
Li7 O14 2.051824 1_455
Li7 O14 2.051824 1_545
Li7 O7 2.255256 1_555
Li7 O1 2.270675 1_455
Li7 O1 2.270675 1_545
Li8 O9 2.075063 1_455
Li8 O9 2.075063 1_545
Li8 O15 2.117058 1_555
Li8 O2 2.122135 1_655
Li8 O2 2.122135 1_565
Li8 O0 2.135212 1_555
Mn0 O9 1.846674 1_555
Mn0 O0 1.945504 1_655
Mn0 O0 1.945504 1_565
Mn0 O12 1.971381 1_654
Mn0 O12 1.971381 1_564
Mn0 O3 2.073838 1_664
Mn1 O1 1.935863 1_545
Mn1 O1 1.935863 1_455
Mn1 O8 1.948622 1_545
Mn1 O8 1.948622 1_455
Mn1 O4 1.960623 1_555
Mn1 O10 1.963125 1_555
Co0 O7 1.946106 1_655
Co0 O7 1.946106 1_565
Co0 O10 1.967637 1_655
Co0 O10 1.967637 1_565
Co0 O13 2.086354 1_556
Co0 O1 2.197298 1_555
Co1 O2 1.797998 1_555
Co1 O15 1.979727 1_455
Co1 O15 1.979727 1_545
Co1 O5 2.069066 1_545
Co1 O5 2.069066 1_455
Co1 O14 2.360518 1_445
Co2 O6 1.988689 1_545
Co2 O6 1.988689 1_455
Co2 O13 2.005546 1_455
Co2 O13 2.005546 1_545
Co2 O11 2.075953 1_555
Co2 O7 2.091404 1_554
Co3 O14 1.983252 1_545
Co3 O14 1.983252 1_455
Co3 O5 1.991316 1_555
Co3 O3 2.047144 1_655
Co3 O3 2.047144 1_565
Co3 O12 2.119463 1_555
Co4 O11 1.949381 1_655
Co4 O11 1.949381 1_565
Co4 O4 1.971719 1_655
Co4 O4 1.971719 1_565
Co4 O6 2.104517 1_555
Co4 O8 2.206307 1_555
