# generated using pymatgen
data_KNb(BO3)2
_symmetry_space_group_name_H-M   'P 1'
_cell_length_a   7.43501000
_cell_length_b   9.36195700
_cell_length_c   32.33635300
_cell_angle_alpha   90.00000000
_cell_angle_beta   90.00000000
_cell_angle_gamma   90.00000000
_symmetry_Int_Tables_number   1
_chemical_formula_structural   KNb(BO3)2
_chemical_formula_sum   'K16 Nb16 B32 O96'
_cell_volume   2250.81207423
_cell_formula_units_Z   16
loop_
 _symmetry_equiv_pos_site_id
 _symmetry_equiv_pos_as_xyz
  1  'x, y, z'
loop_
 _atom_site_type_symbol
 _atom_site_label
 _atom_site_symmetry_multiplicity
 _atom_site_fract_x
 _atom_site_fract_y
 _atom_site_fract_z
 _atom_site_occupancy
  K  K0  1  0.25198100  0.75095600  0.06350100  1
  K  K1  1  0.74801900  0.25095600  0.93649900  1
  K  K2  1  0.24801900  0.75095600  0.56350100  1
  K  K3  1  0.75198100  0.25095600  0.43649900  1
  K  K4  1  0.74008000  0.26304900  0.06023800  1
  K  K5  1  0.25992000  0.76304900  0.93976200  1
  K  K6  1  0.75992000  0.26304900  0.56023800  1
  K  K7  1  0.24008000  0.76304900  0.43976200  1
  K  K8  1  0.24057500  0.75386000  0.18851600  1
  K  K9  1  0.75942500  0.25386000  0.81148400  1
  K  K10  1  0.25942500  0.75386000  0.68851600  1
  K  K11  1  0.74057500  0.25386000  0.31148400  1
  K  K12  1  0.74479900  0.26344300  0.18597300  1
  K  K13  1  0.25520100  0.76344300  0.81402700  1
  K  K14  1  0.75520100  0.26344300  0.68597300  1
  K  K15  1  0.24479900  0.76344300  0.31402700  1
  Nb  Nb0  1  0.23849500  0.36234200  0.10101400  1
  Nb  Nb1  1  0.76150500  0.86234200  0.89898600  1
  Nb  Nb2  1  0.26150500  0.36234200  0.60101400  1
  Nb  Nb3  1  0.73849500  0.86234200  0.39898600  1
  Nb  Nb4  1  0.21183100  0.35853700  0.34990500  1
  Nb  Nb5  1  0.78816900  0.85853700  0.65009500  1
  Nb  Nb6  1  0.28816900  0.35853700  0.84990500  1
  Nb  Nb7  1  0.71183100  0.85853700  0.15009500  1
  Nb  Nb8  1  0.26796700  0.35928500  0.47613600  1
  Nb  Nb9  1  0.73203300  0.85928500  0.52386400  1
  Nb  Nb10  1  0.23203300  0.35928500  0.97613600  1
  Nb  Nb11  1  0.76796700  0.85928500  0.02386400  1
  Nb  Nb12  1  0.26201600  0.36094900  0.22493100  1
  Nb  Nb13  1  0.73798400  0.86094900  0.77506900  1
  Nb  Nb14  1  0.23798400  0.36094900  0.72493100  1
  Nb  Nb15  1  0.76201600  0.86094900  0.27506900  1
  B  B0  1  0.42260800  0.07337200  0.25873900  1
  B  B1  1  0.57739200  0.57337200  0.74126100  1
  B  B2  1  0.07739200  0.07337200  0.75873900  1
  B  B3  1  0.92260800  0.57337200  0.24126100  1
  B  B4  1  0.11268300  0.05910200  0.00474800  1
  B  B5  1  0.88731700  0.55910200  0.99525200  1
  B  B6  1  0.38731700  0.05910200  0.50474800  1
  B  B7  1  0.61268300  0.55910200  0.49525200  1
  B  B8  1  0.09291800  0.07053500  0.24539600  1
  B  B9  1  0.90708200  0.57053500  0.75460400  1
  B  B10  1  0.40708200  0.07053500  0.74539600  1
  B  B11  1  0.59291800  0.57053500  0.25460400  1
  B  B12  1  0.08545300  0.06185200  0.38225800  1
  B  B13  1  0.91454700  0.56185200  0.61774200  1
  B  B14  1  0.41454700  0.06185200  0.88225800  1
  B  B15  1  0.58545300  0.56185200  0.11774200  1
  B  B16  1  0.03909300  0.08401900  0.13108000  1
  B  B17  1  0.96090700  0.58401900  0.86892000  1
  B  B18  1  0.46090700  0.08401900  0.63108000  1
  B  B19  1  0.53909300  0.58401900  0.36892000  1
  B  B20  1  0.44398000  0.08461800  0.00286500  1
  B  B21  1  0.55602000  0.58461800  0.99713500  1
  B  B22  1  0.05602000  0.08461800  0.50286500  1
  B  B23  1  0.94398000  0.58461800  0.49713500  1
  B  B24  1  0.41766000  0.08062900  0.37193400  1
  B  B25  1  0.58234000  0.58062900  0.62806600  1
  B  B26  1  0.08234000  0.08062900  0.87193400  1
  B  B27  1  0.91766000  0.58062900  0.12806600  1
  B  B28  1  0.36759700  0.06060900  0.12264500  1
  B  B29  1  0.63240300  0.56060900  0.87735500  1
  B  B30  1  0.13240300  0.06060900  0.62264500  1
  B  B31  1  0.86759700  0.56060900  0.37735500  1
  O  O0  1  0.43618300  0.50839900  0.24299700  1
  O  O1  1  0.56381700  0.00839900  0.75700300  1
  O  O2  1  0.06381700  0.50839900  0.74299700  1
  O  O3  1  0.93618300  0.00839900  0.25700300  1
  O  O4  1  0.48487100  0.48340900  0.47438700  1
  O  O5  1  0.51512900  0.98340900  0.52561300  1
  O  O6  1  0.01512900  0.48340900  0.97438700  1
  O  O7  1  0.98487100  0.98340900  0.02561300  1
  O  O8  1  0.45855300  0.48521500  0.09643200  1
  O  O9  1  0.54144700  0.98521500  0.90356800  1
  O  O10  1  0.04144700  0.48521500  0.59643200  1
  O  O11  1  0.95855300  0.98521500  0.40356800  1
  O  O12  1  0.00805000  0.48587500  0.36166300  1
  O  O13  1  0.99195000  0.98587500  0.63833700  1
  O  O14  1  0.49195000  0.48587500  0.86166300  1
  O  O15  1  0.50805000  0.98587500  0.13833700  1
  O  O16  1  0.40997900  0.21157700  0.35355000  1
  O  O17  1  0.59002100  0.71157700  0.64645000  1
  O  O18  1  0.09002100  0.21157700  0.85355000  1
  O  O19  1  0.90997900  0.71157700  0.14645000  1
  O  O20  1  0.25456700  0.00303000  0.25717000  1
  O  O21  1  0.74543300  0.50303000  0.74283000  1
  O  O22  1  0.24543300  0.00303000  0.75717000  1
  O  O23  1  0.75456700  0.50303000  0.24283000  1
  O  O24  1  0.03680300  0.22403600  0.11927900  1
  O  O25  1  0.96319700  0.72403600  0.88072100  1
  O  O26  1  0.46319700  0.22403600  0.61927900  1
  O  O27  1  0.53680300  0.72403600  0.38072100  1
  O  O28  1  0.44785500  0.20792400  0.24367300  1
  O  O29  1  0.55214500  0.70792400  0.75632700  1
  O  O30  1  0.05214500  0.20792400  0.74367300  1
  O  O31  1  0.94785500  0.70792400  0.25632700  1
  O  O32  1  0.23900100  0.35254700  0.42070200  1
  O  O33  1  0.76099900  0.85254700  0.57929800  1
  O  O34  1  0.26099900  0.35254700  0.92070200  1
  O  O35  1  0.73900100  0.85254700  0.07929800  1
  O  O36  1  0.06180600  0.22465900  0.49132500  1
  O  O37  1  0.93819400  0.72465900  0.50867500  1
  O  O38  1  0.43819400  0.22465900  0.99132500  1
  O  O39  1  0.56180600  0.72465900  0.00867500  1
  O  O40  1  0.42469300  0.18124100  0.48347200  1
  O  O41  1  0.57530700  0.68124100  0.51652800  1
  O  O42  1  0.07530700  0.18124100  0.98347200  1
  O  O43  1  0.92469300  0.68124100  0.01652800  1
  O  O44  1  0.19696100  0.00163500  0.13038500  1
  O  O45  1  0.80303900  0.50163500  0.86961500  1
  O  O46  1  0.30303900  0.00163500  0.63038500  1
  O  O47  1  0.69696100  0.50163500  0.36961500  1
  O  O48  1  0.18354900  0.36730400  0.04654400  1
  O  O49  1  0.81645100  0.86730400  0.95345600  1
  O  O50  1  0.31645100  0.36730400  0.54654400  1
  O  O51  1  0.68354900  0.86730400  0.45345600  1
  O  O52  1  0.38698400  0.51878600  0.35439900  1
  O  O53  1  0.61301600  0.01878600  0.64560100  1
  O  O54  1  0.11301600  0.51878600  0.85439900  1
  O  O55  1  0.88698400  0.01878600  0.14560100  1
  O  O56  1  0.18660700  0.35622000  0.29409500  1
  O  O57  1  0.81339300  0.85622000  0.70590500  1
  O  O58  1  0.31339300  0.35622000  0.79409500  1
  O  O59  1  0.68660700  0.85622000  0.20590500  1
  O  O60  1  0.04511000  0.18813600  0.36347100  1
  O  O61  1  0.95489000  0.68813600  0.63652900  1
  O  O62  1  0.45489000  0.18813600  0.86347100  1
  O  O63  1  0.54511000  0.68813600  0.13652900  1
  O  O64  1  0.05889600  0.49966900  0.22218800  1
  O  O65  1  0.94110400  0.99966900  0.77781200  1
  O  O66  1  0.44110400  0.49966900  0.72218800  1
  O  O67  1  0.55889600  0.99966900  0.27781200  1
  O  O68  1  0.26080700  0.00319000  0.38195900  1
  O  O69  1  0.73919300  0.50319000  0.61804100  1
  O  O70  1  0.23919300  0.00319000  0.88195900  1
  O  O71  1  0.76080700  0.50319000  0.11804100  1
  O  O72  1  0.09183400  0.19363600  0.22300500  1
  O  O73  1  0.90816600  0.69363600  0.77699500  1
  O  O74  1  0.40816600  0.19363600  0.72300500  1
  O  O75  1  0.59183400  0.69363600  0.27699500  1
  O  O76  1  0.31801300  0.36231600  0.17029900  1
  O  O77  1  0.68198700  0.86231600  0.82970100  1
  O  O78  1  0.18198700  0.36231600  0.67029900  1
  O  O79  1  0.81801300  0.86231600  0.32970100  1
  O  O80  1  0.39156400  0.18334600  0.10077900  1
  O  O81  1  0.60843600  0.68334600  0.89922100  1
  O  O82  1  0.10843600  0.18334600  0.60077900  1
  O  O83  1  0.89156400  0.68334600  0.39922100  1
  O  O84  1  0.08047100  0.52339900  0.11849500  1
  O  O85  1  0.91952900  0.02339900  0.88150500  1
  O  O86  1  0.41952900  0.52339900  0.61849500  1
  O  O87  1  0.58047100  0.02339900  0.38150500  1
  O  O88  1  0.28775000  0.00130400  0.00689100  1
  O  O89  1  0.71225000  0.50130400  0.99310900  1
  O  O90  1  0.21225000  0.00130400  0.50689100  1
  O  O91  1  0.78775000  0.50130400  0.49310900  1
  O  O92  1  0.60563300  0.02377000  0.01213000  1
  O  O93  1  0.39436700  0.52377000  0.98787000  1
  O  O94  1  0.89436700  0.02377000  0.51213000  1
  O  O95  1  0.10563300  0.52377000  0.48787000  1
loop_
_geom_bond_atom_site_label_1
_geom_bond_atom_site_label_2
_geom_bond_distance
_geom_bond_site_symmetry_2
K0 O39 2.917197 1_555
K0 O43 2.941858 1_455
K0 O88 2.985771 1_565
K0 O84 3.054008 1_555
K0 O8 3.111632 1_555
K0 O7 3.190766 1_455
K0 O44 3.217556 1_565
K0 O63 3.266838 1_555
K1 O38 2.917197 1_555
K1 O42 2.941858 1_655
K1 O89 2.985771 1_555
K1 O85 3.054008 1_555
K1 O9 3.111632 1_545
K1 O6 3.190766 1_655
K1 O45 3.217556 1_555
K1 O62 3.266838 1_555
K2 O37 2.917197 1_455
K2 O41 2.941858 1_555
K2 O90 2.985771 1_565
K2 O86 3.054008 1_555
K2 O10 3.111632 1_555
K2 O5 3.190766 1_555
K2 O46 3.217556 1_565
K2 O61 3.266838 1_455
K3 O36 2.917197 1_655
K3 O40 2.941858 1_555
K3 O91 2.985771 1_555
K3 O87 3.054008 1_555
K3 O11 3.111632 1_545
K3 O4 3.190766 1_555
K3 O47 3.217556 1_555
K3 O60 3.266838 1_655
K4 O92 2.904716 1_555
K4 O71 2.927761 1_555
K4 O24 2.940302 1_655
K4 O80 2.998297 1_555
K4 O89 3.119305 1_554
K4 O8 3.174447 1_555
K4 O38 3.183208 1_554
K5 O93 2.904716 1_555
K5 O70 2.927761 1_565
K5 O25 2.940302 1_455
K5 O81 2.998297 1_555
K5 O88 3.119305 1_566
K5 O9 3.174447 1_555
K5 O39 3.183208 1_556
K6 O94 2.904716 1_555
K6 O69 2.927761 1_555
K6 O26 2.940302 1_555
K6 O82 2.998297 1_655
K6 O91 3.119305 1_555
K6 O10 3.174447 1_655
K6 O36 3.183208 1_655
K7 O95 2.904716 1_555
K7 O68 2.927761 1_565
K7 O27 2.940302 1_555
K7 O83 2.998297 1_455
K7 O90 3.119305 1_565
K7 O11 3.174447 1_455
K7 O37 3.183208 1_455
K8 O19 2.837023 1_455
K8 O63 2.886398 1_555
K8 O64 2.945040 1_555
K8 O44 3.003233 1_565
K8 O31 3.119256 1_455
K8 O20 3.221939 1_565
K8 O0 3.240302 1_555
K9 O18 2.837023 1_655
K9 O62 2.886398 1_555
K9 O65 2.945040 1_545
K9 O45 3.003233 1_555
K9 O30 3.119256 1_655
K9 O21 3.221939 1_555
K9 O1 3.240302 1_555
K10 O17 2.837023 1_555
K10 O61 2.886398 1_455
K10 O66 2.945040 1_555
K10 O46 3.003233 1_565
K10 O29 3.119256 1_555
K10 O22 3.221939 1_565
K10 O2 3.240302 1_555
K11 O16 2.837023 1_555
K11 O60 2.886398 1_655
K11 O67 2.945040 1_545
K11 O47 3.003233 1_555
K11 O28 3.119256 1_555
K11 O23 3.221939 1_555
K11 O3 3.240302 1_555
K12 O55 2.840439 1_555
K12 O23 2.901137 1_555
K12 O72 2.918653 1_655
K12 O28 2.936953 1_555
K12 O24 3.082317 1_655
K12 O71 3.142821 1_555
K12 O76 3.344045 1_555
K13 O54 2.840439 1_555
K13 O22 2.901137 1_565
K13 O73 2.918653 1_455
K13 O29 2.936953 1_555
K13 O25 3.082317 1_455
K13 O70 3.142821 1_565
K13 O77 3.344045 1_555
K14 O53 2.840439 1_555
K14 O21 2.901137 1_555
K14 O74 2.918653 1_555
K14 O30 2.936953 1_655
K14 O26 3.082317 1_555
K14 O69 3.142821 1_555
K14 O78 3.344045 1_655
K15 O52 2.840439 1_555
K15 O20 2.901137 1_565
K15 O75 2.918653 1_555
K15 O31 2.936953 1_455
K15 O27 3.082317 1_555
K15 O68 3.142821 1_565
K15 O79 3.344045 1_455
Nb0 O48 1.808713 1_555
Nb0 O84 1.993347 1_555
Nb0 O8 2.005530 1_555
Nb0 O80 2.025687 1_555
Nb0 O24 2.067396 1_555
Nb0 O76 2.317119 1_555
Nb1 O49 1.808713 1_555
Nb1 O85 1.993347 1_565
Nb1 O9 2.005530 1_555
Nb1 O81 2.025687 1_555
Nb1 O25 2.067396 1_555
Nb1 O77 2.317119 1_555
Nb2 O50 1.808713 1_555
Nb2 O86 1.993347 1_555
Nb2 O10 2.005530 1_555
Nb2 O82 2.025687 1_555
Nb2 O26 2.067396 1_555
Nb2 O78 2.317119 1_555
Nb3 O51 1.808713 1_555
Nb3 O87 1.993347 1_565
Nb3 O11 2.005530 1_555
Nb3 O83 2.025687 1_555
Nb3 O27 2.067396 1_555
Nb3 O79 2.317119 1_555
Nb4 O56 1.814540 1_555
Nb4 O12 1.965022 1_555
Nb4 O52 1.991919 1_555
Nb4 O16 2.019213 1_555
Nb4 O60 2.067345 1_555
Nb4 O32 2.298896 1_555
Nb5 O57 1.814540 1_555
Nb5 O13 1.965022 1_555
Nb5 O53 1.991919 1_565
Nb5 O17 2.019213 1_555
Nb5 O61 2.067345 1_555
Nb5 O33 2.298896 1_555
Nb6 O58 1.814540 1_555
Nb6 O14 1.965022 1_555
Nb6 O54 1.991919 1_555
Nb6 O18 2.019213 1_555
Nb6 O62 2.067345 1_555
Nb6 O34 2.298896 1_555
Nb7 O59 1.814540 1_555
Nb7 O15 1.965022 1_555
Nb7 O55 1.991919 1_565
Nb7 O19 2.019213 1_555
Nb7 O63 2.067345 1_555
Nb7 O35 2.298896 1_555
Nb8 O32 1.806526 1_555
Nb8 O4 1.988540 1_555
Nb8 O95 1.992990 1_555
Nb8 O36 2.044322 1_555
Nb8 O40 2.047550 1_555
Nb8 O50 2.306321 1_555
Nb9 O33 1.806526 1_555
Nb9 O5 1.988540 1_555
Nb9 O94 1.992990 1_565
Nb9 O37 2.044322 1_555
Nb9 O41 2.047550 1_555
Nb9 O51 2.306321 1_555
Nb10 O34 1.806526 1_555
Nb10 O6 1.988540 1_555
Nb10 O93 1.992990 1_555
Nb10 O38 2.044322 1_555
Nb10 O42 2.047550 1_555
Nb10 O48 2.306321 1_556
Nb11 O35 1.806526 1_555
Nb11 O7 1.988540 1_555
Nb11 O92 1.992990 1_565
Nb11 O39 2.044322 1_555
Nb11 O43 2.047550 1_555
Nb11 O49 2.306321 1_554
Nb12 O76 1.815041 1_555
Nb12 O0 1.980831 1_555
Nb12 O64 1.993782 1_555
Nb12 O72 2.014550 1_555
Nb12 O28 2.080580 1_555
Nb12 O56 2.306142 1_555
Nb13 O77 1.815041 1_555
Nb13 O1 1.980831 1_565
Nb13 O65 1.993782 1_555
Nb13 O73 2.014550 1_555
Nb13 O29 2.080580 1_555
Nb13 O57 2.306142 1_555
Nb14 O78 1.815041 1_555
Nb14 O2 1.980831 1_555
Nb14 O66 1.993782 1_555
Nb14 O74 2.014550 1_555
Nb14 O30 2.080580 1_555
Nb14 O58 2.306142 1_555
Nb15 O79 1.815041 1_555
Nb15 O3 1.980831 1_565
Nb15 O67 1.993782 1_555
Nb15 O75 2.014550 1_555
Nb15 O31 2.080580 1_555
Nb15 O59 2.306142 1_555
B0 O28 1.363579 1_555
B0 O67 1.372323 1_545
B0 O20 1.413228 1_555
B1 O29 1.363579 1_555
B1 O66 1.372323 1_555
B1 O21 1.413228 1_555
B2 O30 1.363579 1_555
B2 O65 1.372323 1_445
B2 O22 1.413228 1_555
B3 O31 1.363579 1_555
B3 O64 1.372323 1_655
B3 O23 1.413228 1_555
B4 O42 1.363104 1_554
B4 O7 1.363972 1_445
B4 O88 1.411319 1_555
B5 O43 1.363104 1_556
B5 O6 1.363972 1_655
B5 O89 1.411319 1_555
B6 O40 1.363104 1_555
B6 O5 1.363972 1_545
B6 O90 1.411319 1_555
B7 O41 1.363104 1_555
B7 O4 1.363972 1_555
B7 O91 1.411319 1_555
B8 O3 1.355451 1_455
B8 O72 1.361059 1_555
B8 O20 1.410257 1_555
B9 O2 1.355451 1_655
B9 O73 1.361059 1_555
B9 O21 1.410257 1_555
B10 O1 1.355451 1_555
B10 O74 1.361059 1_555
B10 O22 1.410257 1_555
B11 O0 1.355451 1_555
B11 O75 1.361059 1_555
B11 O23 1.410257 1_555
B12 O60 1.362638 1_555
B12 O11 1.371060 1_445
B12 O68 1.414741 1_555
B13 O61 1.362638 1_555
B13 O10 1.371060 1_655
B13 O69 1.414741 1_555
B14 O62 1.362638 1_555
B14 O9 1.371060 1_545
B14 O70 1.414741 1_555
B15 O63 1.362638 1_555
B15 O8 1.371060 1_555
B15 O71 1.414741 1_555
B16 O24 1.365355 1_555
B16 O55 1.368377 1_455
B16 O44 1.404657 1_555
B17 O25 1.365355 1_555
B17 O54 1.368377 1_655
B17 O45 1.404657 1_555
B18 O26 1.365355 1_555
B18 O53 1.368377 1_555
B18 O46 1.404657 1_555
B19 O27 1.365355 1_555
B19 O52 1.368377 1_555
B19 O47 1.404657 1_555
B20 O92 1.363382 1_555
B20 O38 1.363808 1_554
B20 O88 1.405194 1_555
B21 O93 1.363382 1_555
B21 O39 1.363808 1_556
B21 O89 1.405194 1_555
B22 O94 1.363382 1_455
B22 O36 1.363808 1_555
B22 O90 1.405194 1_555
B23 O95 1.363382 1_655
B23 O37 1.363808 1_555
B23 O91 1.405194 1_555
B24 O87 1.359472 1_555
B24 O16 1.363657 1_555
B24 O68 1.410927 1_555
B25 O86 1.359472 1_555
B25 O17 1.363657 1_555
B25 O69 1.410927 1_555
B26 O85 1.359472 1_455
B26 O18 1.363657 1_555
B26 O70 1.410927 1_555
B27 O84 1.359472 1_655
B27 O19 1.363657 1_555
B27 O71 1.410927 1_555
B28 O15 1.355542 1_545
B28 O80 1.360894 1_555
B28 O44 1.406065 1_555
B29 O14 1.355542 1_555
B29 O81 1.360894 1_555
B29 O45 1.406065 1_555
B30 O13 1.355542 1_445
B30 O82 1.360894 1_555
B30 O46 1.406065 1_555
B31 O12 1.355542 1_655
B31 O83 1.360894 1_555
B31 O47 1.406065 1_555
