# generated using pymatgen
data_UTiFe
_symmetry_space_group_name_H-M   'P 1'
_cell_length_a   5.04668623
_cell_length_b   5.04668623
_cell_length_c   5.04668623
_cell_angle_alpha   114.96186099
_cell_angle_beta   110.26182942
_cell_angle_gamma   103.39566872
_symmetry_Int_Tables_number   1
_chemical_formula_structural   UTiFe
_chemical_formula_sum   'U2 Ti2 Fe2'
_cell_volume   97.93785088
_cell_formula_units_Z   2
loop_
 _symmetry_equiv_pos_site_id
 _symmetry_equiv_pos_as_xyz
  1  'x, y, z'
loop_
 _atom_site_type_symbol
 _atom_site_label
 _atom_site_symmetry_multiplicity
 _atom_site_fract_x
 _atom_site_fract_y
 _atom_site_fract_z
 _atom_site_occupancy
  U  U0  1  0.34367100  0.09367100  0.25000000  1
  U  U1  1  0.65632900  0.90632900  0.75000000  1
  Ti  Ti0  1  0.50000000  0.50000000  0.00000000  1
  Ti  Ti1  1  0.00000000  0.50000000  0.50000000  1
  Fe  Fe0  1  0.00000000  0.50000000  0.00000000  1
  Fe  Fe1  1  0.00000000  0.00000000  0.50000000  1
loop_
_geom_bond_atom_site_label_1
_geom_bond_atom_site_label_2
_geom_bond_distance
_geom_bond_site_symmetry_2
U0 U1 3.114163 1_545
U0 U1 3.114163 1_444
U0 U1 3.344579 1_544
U0 U1 3.344579 1_555
Ti0 Ti1 2.885207 1_554
Ti0 Ti1 2.885207 1_655
Ti0 U1 2.922799 1_554
Ti0 U0 2.922799 1_555
Ti0 U0 3.128077 1_565
Ti0 U0 3.128077 1_554
Ti0 U1 3.128077 1_544
Ti0 U1 3.128077 1_555
Ti1 U1 2.922799 1_555
Ti1 U0 2.922799 1_455
Ti1 U0 3.128077 1_566
Ti1 U1 3.128077 1_455
Ti1 U1 3.128077 1_444
Ti1 U0 3.128077 1_555
Fe0 Ti0 2.523343 1_555
Fe0 Ti1 2.523343 1_554
Fe0 Ti1 2.523343 1_555
Fe0 Ti0 2.523343 1_455
Fe0 U0 2.542156 1_565
Fe0 U1 2.542156 1_444
Fe0 Fe1 2.712999 1_565
Fe0 Fe1 2.712999 1_554
Fe0 U1 3.334812 1_555
Fe0 U1 3.334812 1_454
Fe0 U0 3.334812 1_454
Fe0 U0 3.334812 1_555
Fe1 Ti0 2.523343 1_445
Fe1 Ti1 2.523343 1_555
Fe1 Ti1 2.523343 1_545
Fe1 Ti0 2.523343 1_556
Fe1 U0 2.542156 1_555
Fe1 U1 2.542156 1_445
Fe1 U0 3.334812 1_455
Fe1 U1 3.334812 1_545
Fe1 U1 3.334812 1_444
Fe1 U0 3.334812 1_556
