# generated using pymatgen
data_BaCd3
_symmetry_space_group_name_H-M   'P 1'
_cell_length_a   7.42847398
_cell_length_b   7.42847398
_cell_length_c   5.32422400
_cell_angle_alpha   90.00000000
_cell_angle_beta   90.00000000
_cell_angle_gamma   118.60993470
_symmetry_Int_Tables_number   1
_chemical_formula_structural   BaCd3
_chemical_formula_sum   'Ba2 Cd6'
_cell_volume   257.92922939
_cell_formula_units_Z   2
loop_
 _symmetry_equiv_pos_site_id
 _symmetry_equiv_pos_as_xyz
  1  'x, y, z'
loop_
 _atom_site_type_symbol
 _atom_site_label
 _atom_site_symmetry_multiplicity
 _atom_site_fract_x
 _atom_site_fract_y
 _atom_site_fract_z
 _atom_site_occupancy
  Ba  Ba0  1  0.33276000  0.66724000  0.25000000  1
  Ba  Ba1  1  0.66724000  0.33276000  0.75000000  1
  Cd  Cd0  1  0.14055200  0.28171800  0.75000000  1
  Cd  Cd1  1  0.71828200  0.85944800  0.75000000  1
  Cd  Cd2  1  0.14008400  0.85991600  0.75000000  1
  Cd  Cd3  1  0.85944800  0.71828200  0.25000000  1
  Cd  Cd4  1  0.28171800  0.14055200  0.25000000  1
  Cd  Cd5  1  0.85991600  0.14008400  0.25000000  1
loop_
_geom_bond_atom_site_label_1
_geom_bond_atom_site_label_2
_geom_bond_distance
_geom_bond_site_symmetry_2
Ba0 Cd2 3.625731 1_555
Ba0 Cd2 3.625731 1_554
Ba0 Cd1 3.662111 1_555
Ba0 Cd1 3.662111 1_554
Ba0 Cd0 3.662111 1_555
Ba0 Cd0 3.662111 1_554
Ba0 Cd4 3.712499 1_565
Ba0 Cd3 3.712499 1_455
Ba0 Cd3 3.745747 1_555
Ba0 Cd4 3.745747 1_555
Ba0 Cd5 3.807838 1_565
Ba0 Cd5 3.807838 1_455
Ba1 Cd5 3.625731 1_556
Ba1 Cd5 3.625731 1_555
Ba1 Cd4 3.662111 1_555
Ba1 Cd4 3.662111 1_556
Ba1 Cd3 3.662111 1_555
Ba1 Cd3 3.662111 1_556
Ba1 Cd0 3.712499 1_655
Ba1 Cd1 3.712499 1_545
Ba1 Cd0 3.745747 1_555
Ba1 Cd1 3.745747 1_555
Ba1 Cd2 3.807838 1_655
Ba1 Cd2 3.807838 1_545
Cd0 Cd2 3.131682 1_545
Cd0 Cd1 3.202497 1_445
Cd0 Cd4 3.215478 1_555
Cd0 Cd4 3.215478 1_556
Cd0 Cd5 3.230977 1_455
Cd0 Cd5 3.230977 1_456
Cd1 Cd2 3.131682 1_655
Cd1 Cd3 3.215478 1_555
Cd1 Cd3 3.215478 1_556
Cd1 Cd5 3.230977 1_565
Cd1 Cd5 3.230977 1_566
Cd2 Cd4 3.230977 1_566
Cd2 Cd3 3.230977 1_455
Cd2 Cd4 3.230977 1_565
Cd2 Cd3 3.230977 1_456
Cd3 Cd5 3.131682 1_565
Cd3 Cd4 3.202497 1_665
Cd4 Cd5 3.131682 1_455
