# generated using pymatgen
data_Ge(SeO3)2
_symmetry_space_group_name_H-M   'P 1'
_cell_length_a   7.79815000
_cell_length_b   7.79815000
_cell_length_c   7.79815000
_cell_angle_alpha   90.00000000
_cell_angle_beta   90.00000000
_cell_angle_gamma   90.00000000
_symmetry_Int_Tables_number   1
_chemical_formula_structural   Ge(SeO3)2
_chemical_formula_sum   'Ge4 Se8 O24'
_cell_volume   474.21441808
_cell_formula_units_Z   4
loop_
 _symmetry_equiv_pos_site_id
 _symmetry_equiv_pos_as_xyz
  1  'x, y, z'
loop_
 _atom_site_type_symbol
 _atom_site_label
 _atom_site_symmetry_multiplicity
 _atom_site_fract_x
 _atom_site_fract_y
 _atom_site_fract_z
 _atom_site_occupancy
  Ge  Ge0  1  0.50000000  0.50000000  0.50000000  1
  Ge  Ge1  1  0.50000000  -0.00000000  0.00000000  1
  Ge  Ge2  1  -0.00000000  0.50000000  0.00000000  1
  Ge  Ge3  1  -0.00000000  -0.00000000  0.50000000  1
  Se  Se0  1  0.83009272  0.66990728  0.33009272  1
  Se  Se1  1  0.16990728  0.16990728  0.16990728  1
  Se  Se2  1  0.66990728  0.33009272  0.83009272  1
  Se  Se3  1  0.33009272  0.83009272  0.66990728  1
  Se  Se4  1  0.16990728  0.33009272  0.66990728  1
  Se  Se5  1  0.83009272  0.83009272  0.83009272  1
  Se  Se6  1  0.33009272  0.66990728  0.16990728  1
  Se  Se7  1  0.66990728  0.16990728  0.33009272  1
  O  O0  1  0.73885616  0.52847283  0.47248836  1
  O  O1  1  0.26114384  0.02847283  0.02751164  1
  O  O2  1  0.76114384  0.47152717  0.97248836  1
  O  O3  1  0.23885616  0.97152717  0.52751164  1
  O  O4  1  0.47248836  0.73885616  0.52847283  1
  O  O5  1  0.02751164  0.26114384  0.02847283  1
  O  O6  1  0.97248836  0.76114384  0.47152717  1
  O  O7  1  0.52751164  0.23885616  0.97152717  1
  O  O8  1  0.52847283  0.47248836  0.73885616  1
  O  O9  1  0.02847283  0.02751164  0.26114384  1
  O  O10  1  0.47152717  0.97248836  0.76114384  1
  O  O11  1  0.97152717  0.52751164  0.23885616  1
  O  O12  1  0.26114384  0.47152717  0.52751164  1
  O  O13  1  0.73885616  0.97152717  0.97248836  1
  O  O14  1  0.23885616  0.52847283  0.02751164  1
  O  O15  1  0.76114384  0.02847283  0.47248836  1
  O  O16  1  0.52751164  0.26114384  0.47152717  1
  O  O17  1  0.97248836  0.73885616  0.97152717  1
  O  O18  1  0.02751164  0.23885616  0.52847283  1
  O  O19  1  0.47248836  0.76114384  0.02847283  1
  O  O20  1  0.47152717  0.52751164  0.26114384  1
  O  O21  1  0.97152717  0.97248836  0.73885616  1
  O  O22  1  0.52847283  0.02751164  0.23885616  1
  O  O23  1  0.02847283  0.47248836  0.76114384  1
loop_
_geom_bond_atom_site_label_1
_geom_bond_atom_site_label_2
_geom_bond_distance
_geom_bond_site_symmetry_2
Ge0 O0 1.888052 1_555
Ge0 O4 1.888052 1_555
Ge0 O16 1.888052 1_555
Ge0 O20 1.888052 1_555
Ge0 O8 1.888052 1_555
Ge0 O12 1.888052 1_555
Ge1 O10 1.888052 1_544
Ge1 O1 1.888052 1_555
Ge1 O13 1.888052 1_544
Ge1 O19 1.888052 1_545
Ge1 O22 1.888052 1_555
Ge1 O7 1.888052 1_554
Ge2 O2 1.888052 1_454
Ge2 O17 1.888052 1_454
Ge2 O5 1.888052 1_555
Ge2 O23 1.888052 1_554
Ge2 O14 1.888052 1_555
Ge2 O11 1.888052 1_455
Ge3 O21 1.888052 1_445
Ge3 O9 1.888052 1_555
Ge3 O6 1.888052 1_445
Ge3 O15 1.888052 1_455
Ge3 O18 1.888052 1_555
Ge3 O3 1.888052 1_545
O0 Se0 1.719211 1_555
O1 Se1 1.719211 1_555
O2 Se2 1.719211 1_555
O3 Se3 1.719211 1_555
O4 Se3 1.719211 1_555
O5 Se1 1.719211 1_555
O6 Se0 1.719211 1_555
O7 Se2 1.719211 1_555
O8 Se2 1.719211 1_555
O9 Se1 1.719211 1_555
O10 Se3 1.719211 1_555
O11 Se0 1.719211 1_555
O12 Se4 1.719211 1_555
O13 Se5 1.719211 1_555
O14 Se6 1.719211 1_555
O15 Se7 1.719211 1_555
O16 Se7 1.719211 1_555
O17 Se5 1.719211 1_555
O18 Se4 1.719211 1_555
O19 Se6 1.719211 1_555
O20 Se6 1.719211 1_555
O21 Se5 1.719211 1_555
O22 Se7 1.719211 1_555
O23 Se4 1.719211 1_555
