# generated using pymatgen
data_Gd2ZrSe5
_symmetry_space_group_name_H-M   'P 1'
_cell_length_a   7.65020458
_cell_length_b   8.16887673
_cell_length_c   12.16583973
_cell_angle_alpha   90.00842666
_cell_angle_beta   89.99912286
_cell_angle_gamma   89.98617603
_symmetry_Int_Tables_number   1
_chemical_formula_structural   Gd2ZrSe5
_chemical_formula_sum   'Gd8 Zr4 Se20'
_cell_volume   760.28682514
_cell_formula_units_Z   4
loop_
 _symmetry_equiv_pos_site_id
 _symmetry_equiv_pos_as_xyz
  1  'x, y, z'
loop_
 _atom_site_type_symbol
 _atom_site_label
 _atom_site_symmetry_multiplicity
 _atom_site_fract_x
 _atom_site_fract_y
 _atom_site_fract_z
 _atom_site_occupancy
  Gd  Gd0  1  0.97559262  0.00348050  0.17899085  1
  Gd  Gd1  1  0.52418215  0.49701444  0.67911302  1
  Gd  Gd2  1  0.02433570  0.50345411  0.82061148  1
  Gd  Gd3  1  0.47553468  0.99650329  0.32098712  1
  Gd  Gd4  1  0.02496651  0.99662190  0.82067941  1
  Gd  Gd5  1  0.47542067  0.50351674  0.32102915  1
  Gd  Gd6  1  0.97520874  0.49649367  0.17886265  1
  Gd  Gd7  1  0.52463979  0.00365825  0.67938764  1
  Zr  Zr0  1  0.42091977  0.74993149  0.00589459  1
  Zr  Zr1  1  0.07883447  0.75013938  0.50616605  1
  Zr  Zr2  1  0.57873600  0.25005237  0.99377818  1
  Zr  Zr3  1  0.92067242  0.25015370  0.49410515  1
  Se  Se0  1  0.83796754  0.96255784  0.40742648  1
  Se  Se1  1  0.66271036  0.53744327  0.90823812  1
  Se  Se2  1  0.16183409  0.46250123  0.59207892  1
  Se  Se3  1  0.33766540  0.03721791  0.09268296  1
  Se  Se4  1  0.16276451  0.03745294  0.59234574  1
  Se  Se5  1  0.33756301  0.46259777  0.09260610  1
  Se  Se6  1  0.83733051  0.53739535  0.40739428  1
  Se  Se7  1  0.66257559  0.96248587  0.90769640  1
  Se  Se8  1  0.66605332  0.75008576  0.18133938  1
  Se  Se9  1  0.83477345  0.75032791  0.68155086  1
  Se  Se10  1  0.33354160  0.24906647  0.81888544  1
  Se  Se11  1  0.16596032  0.25005579  0.31866942  1
  Se  Se12  1  0.44976722  0.75090717  0.50310646  1
  Se  Se13  1  0.05001189  0.74982470  0.00350078  1
  Se  Se14  1  0.54997502  0.24964397  0.49628280  1
  Se  Se15  1  0.95010515  0.24993636  0.99648616  1
  Se  Se16  1  0.18756658  0.74984798  0.29187935  1
  Se  Se17  1  0.31218165  0.75011012  0.79196073  1
  Se  Se18  1  0.81284112  0.24953889  0.70823349  1
  Se  Se19  1  0.68776916  0.24998386  0.20803183  1
loop_
_geom_bond_atom_site_label_1
_geom_bond_atom_site_label_2
_geom_bond_distance
_geom_bond_site_symmetry_2
Gd0 Se16 2.967817 1_645
Gd0 Se3 2.975122 1_655
Gd0 Se0 2.990665 1_545
Gd0 Se15 3.003704 1_554
Gd0 Se19 3.004274 1_555
Gd0 Se11 3.011024 1_655
Gd0 Se13 3.028846 1_645
Gd0 Se8 3.145711 1_545
Gd1 Se17 2.964334 1_555
Gd1 Se2 2.980806 1_555
Gd1 Se1 3.000387 1_555
Gd1 Se14 3.011350 1_555
Gd1 Se18 3.014471 1_555
Gd1 Se10 3.020498 1_555
Gd1 Se12 3.035036 1_555
Gd1 Se9 3.151345 1_555
Gd2 Se18 2.964823 1_455
Gd2 Se1 2.977679 1_455
Gd2 Se2 2.991300 1_555
Gd2 Se9 3.005308 1_455
Gd2 Se17 3.005463 1_555
Gd2 Se13 3.006418 1_556
Gd2 Se15 3.031721 1_455
Gd2 Se10 3.148322 1_555
Gd3 Se19 2.968939 1_565
Gd3 Se0 2.978315 1_555
Gd3 Se3 2.989621 1_565
Gd3 Se12 2.995730 1_555
Gd3 Se16 3.006733 1_555
Gd3 Se8 3.010014 1_555
Gd3 Se14 3.024532 1_565
Gd3 Se11 3.146007 1_565
Gd4 Se18 2.961882 1_465
Gd4 Se7 2.980745 1_455
Gd4 Se4 2.989895 1_565
Gd4 Se17 3.000453 1_555
Gd4 Se9 3.005067 1_455
Gd4 Se13 3.008205 1_556
Gd4 Se15 3.030294 1_465
Gd4 Se10 3.134994 1_565
Gd5 Se19 2.969123 1_555
Gd5 Se6 2.974316 1_555
Gd5 Se5 2.991085 1_555
Gd5 Se16 3.003738 1_555
Gd5 Se12 3.004631 1_555
Gd5 Se8 3.012357 1_555
Gd5 Se14 3.028669 1_555
Gd5 Se11 3.145609 1_555
Gd6 Se16 2.968823 1_655
Gd6 Se5 2.976874 1_655
Gd6 Se6 2.992265 1_555
Gd6 Se15 3.002542 1_554
Gd6 Se19 3.003124 1_555
Gd6 Se11 3.012439 1_655
Gd6 Se13 3.027103 1_655
Gd6 Se8 3.143820 1_555
Gd7 Se17 2.968112 1_545
Gd7 Se4 2.976830 1_555
Gd7 Se7 2.990271 1_545
Gd7 Se18 3.003431 1_555
Gd7 Se10 3.005630 1_555
Gd7 Se14 3.006520 1_555
Gd7 Se12 3.031451 1_545
Gd7 Se9 3.148019 1_545
Se0 Zr3 2.651738 1_565
Se0 Zr1 2.801536 1_655
Se1 Zr2 2.647382 1_555
Se1 Zr0 2.800683 1_556
Se2 Zr1 2.648896 1_555
Se2 Zr3 2.799013 1_455
Se3 Zr0 2.650758 1_545
Se3 Zr2 2.806054 1_554
Se4 Zr1 2.649544 1_545
Se4 Zr3 2.806543 1_455
Se5 Zr0 2.651463 1_555
Se5 Zr2 2.803936 1_554
Se6 Zr3 2.650502 1_555
Se6 Zr1 2.806890 1_655
Se7 Zr2 2.650454 1_565
Se7 Zr0 2.803910 1_556
Se8 Zr0 2.841261 1_555
Se9 Zr1 2.835259 1_655
Se10 Zr2 2.836538 1_555
Se11 Zr3 2.841914 1_455
Se12 Zr1 2.837963 1_555
Se13 Zr0 2.837671 1_555
Se14 Zr3 2.836038 1_555
Se15 Zr2 2.841241 1_555
Se16 Zr1 2.736457 1_555
Se17 Zr0 2.732406 1_556
Se18 Zr3 2.732539 1_555
Se19 Zr2 2.736799 1_554
