# generated using pymatgen
data_YbCo5P3
_symmetry_space_group_name_H-M   'P 1'
_cell_length_a   3.60320500
_cell_length_b   10.23192500
_cell_length_c   11.69131300
_cell_angle_alpha   90.00000000
_cell_angle_beta   90.00000000
_cell_angle_gamma   90.00000000
_symmetry_Int_Tables_number   1
_chemical_formula_structural   YbCo5P3
_chemical_formula_sum   'Yb4 Co20 P12'
_cell_volume   431.03209293
_cell_formula_units_Z   4
loop_
 _symmetry_equiv_pos_site_id
 _symmetry_equiv_pos_as_xyz
  1  'x, y, z'
loop_
 _atom_site_type_symbol
 _atom_site_label
 _atom_site_symmetry_multiplicity
 _atom_site_fract_x
 _atom_site_fract_y
 _atom_site_fract_z
 _atom_site_occupancy
  Yb  Yb0  1  0.25000000  0.58306300  0.70375400  1
  Yb  Yb1  1  0.25000000  0.91693700  0.20375400  1
  Yb  Yb2  1  0.75000000  0.41693700  0.29624600  1
  Yb  Yb3  1  0.75000000  0.08306300  0.79624600  1
  Co  Co0  1  0.25000000  0.71682600  0.99047700  1
  Co  Co1  1  0.25000000  0.78317400  0.49047700  1
  Co  Co2  1  0.75000000  0.28317400  0.00952300  1
  Co  Co3  1  0.75000000  0.21682600  0.50952300  1
  Co  Co4  1  0.25000000  0.40723400  0.48817800  1
  Co  Co5  1  0.25000000  0.09276600  0.98817800  1
  Co  Co6  1  0.75000000  0.59276600  0.51182200  1
  Co  Co7  1  0.75000000  0.90723400  0.01182200  1
  Co  Co8  1  0.25000000  0.22032000  0.17584800  1
  Co  Co9  1  0.25000000  0.27968000  0.67584800  1
  Co  Co10  1  0.75000000  0.77968000  0.82415200  1
  Co  Co11  1  0.75000000  0.72032000  0.32415200  1
  Co  Co12  1  0.25000000  0.88252700  0.69850600  1
  Co  Co13  1  0.25000000  0.61747300  0.19850600  1
  Co  Co14  1  0.75000000  0.11747300  0.30149400  1
  Co  Co15  1  0.75000000  0.38252700  0.80149400  1
  Co  Co16  1  0.25000000  0.46720600  0.93173800  1
  Co  Co17  1  0.25000000  0.03279400  0.43173800  1
  Co  Co18  1  0.75000000  0.53279400  0.06826200  1
  Co  Co19  1  0.75000000  0.96720600  0.56826200  1
  P  P0  1  0.25000000  0.41793100  0.11180600  1
  P  P1  1  0.25000000  0.08206900  0.61180600  1
  P  P2  1  0.75000000  0.58206900  0.88819400  1
  P  P3  1  0.75000000  0.91793100  0.38819400  1
  P  P4  1  0.25000000  0.26999400  0.86980100  1
  P  P5  1  0.25000000  0.23000600  0.36980100  1
  P  P6  1  0.75000000  0.73000600  0.13019900  1
  P  P7  1  0.75000000  0.76999400  0.63019900  1
  P  P8  1  0.25000000  0.60090400  0.39071100  1
  P  P9  1  0.25000000  0.89909600  0.89071100  1
  P  P10  1  0.75000000  0.39909600  0.60928900  1
  P  P11  1  0.75000000  0.10090400  0.10928900  1
loop_
_geom_bond_atom_site_label_1
_geom_bond_atom_site_label_2
_geom_bond_distance
_geom_bond_site_symmetry_2
Co0 P9 2.199682 1_555
Co0 P6 2.435650 1_556
Co0 P6 2.435650 1_456
Co0 P2 2.564550 1_555
Co0 P2 2.564550 1_455
Co0 Yb1 3.226426 1_556
Co1 P8 2.199682 1_555
Co1 P7 2.435650 1_455
Co1 P7 2.435650 1_555
Co1 P3 2.564550 1_555
Co1 P3 2.564550 1_455
Co1 Yb0 3.226426 1_555
Co2 P11 2.199682 1_555
Co2 P4 2.435650 1_654
Co2 P4 2.435650 1_554
Co2 P0 2.564550 1_555
Co2 P0 2.564550 1_655
Co2 Yb3 3.226426 1_554
Co3 P10 2.199682 1_555
Co3 P5 2.435650 1_655
Co3 P5 2.435650 1_555
Co3 P1 2.564550 1_655
Co3 P1 2.564550 1_555
Co3 Yb2 3.226426 1_555
Co4 P5 2.281177 1_555
Co4 P8 2.285893 1_555
Co4 P10 2.292948 1_555
Co4 P10 2.292948 1_455
Co4 Yb2 2.879389 1_455
Co4 Yb2 2.879389 1_555
Co4 Yb0 3.096594 1_555
Co5 P4 2.281177 1_555
Co5 P9 2.285893 1_545
Co5 P11 2.292948 1_456
Co5 P11 2.292948 1_556
Co5 Yb3 2.879389 1_455
Co5 Yb3 2.879389 1_555
Co5 Yb1 3.096594 1_546
Co6 P7 2.281177 1_555
Co6 P10 2.285893 1_555
Co6 P8 2.292948 1_655
Co6 P8 2.292948 1_555
Co6 Yb0 2.879389 1_655
Co6 Yb0 2.879389 1_555
Co6 Yb2 3.096594 1_555
Co7 P6 2.281177 1_555
Co7 P11 2.285893 1_565
Co7 P9 2.292948 1_554
Co7 P9 2.292948 1_654
Co7 Yb1 2.879389 1_655
Co7 Yb1 2.879389 1_555
Co7 Yb3 3.096594 1_564
Co8 P0 2.156119 1_555
Co8 P5 2.269730 1_555
Co8 P11 2.311761 1_555
Co8 P11 2.311761 1_455
Co8 Yb2 3.045383 1_555
Co8 Yb2 3.045383 1_455
Co8 Yb1 3.121290 1_545
Co9 P1 2.156119 1_555
Co9 P4 2.269730 1_555
Co9 P10 2.311761 1_555
Co9 P10 2.311761 1_455
Co9 Yb3 3.045383 1_455
Co9 Yb3 3.045383 1_555
Co9 Yb0 3.121290 1_555
Co10 P2 2.156119 1_555
Co10 P7 2.269730 1_555
Co10 P9 2.311761 1_555
Co10 P9 2.311761 1_655
Co10 Yb0 3.045383 1_555
Co10 Yb0 3.045383 1_655
Co10 Yb3 3.121290 1_565
Co11 P3 2.156119 1_555
Co11 P6 2.269730 1_555
Co11 P8 2.311761 1_655
Co11 P8 2.311761 1_555
Co11 Yb1 3.045383 1_655
Co11 Yb1 3.045383 1_555
Co11 Yb2 3.121290 1_555
Co12 P9 2.253515 1_555
Co12 P1 2.279472 1_565
Co12 P7 2.282394 1_455
Co12 P7 2.282394 1_555
Co12 Yb3 2.960021 1_465
Co12 Yb3 2.960021 1_565
Co12 Yb0 3.064707 1_555
Co13 P8 2.253515 1_555
Co13 P0 2.279472 1_555
Co13 P6 2.282394 1_555
Co13 P6 2.282394 1_455
Co13 Yb2 2.960021 1_455
Co13 Yb2 2.960021 1_555
Co13 Yb1 3.064707 1_555
Co14 P11 2.253515 1_555
Co14 P3 2.279472 1_545
Co14 P5 2.282394 1_555
Co14 P5 2.282394 1_655
Co14 Yb1 2.960021 1_645
Co14 Yb1 2.960021 1_545
Co14 Yb2 3.064707 1_555
Co15 P10 2.253515 1_555
Co15 P2 2.279472 1_555
Co15 P4 2.282394 1_555
Co15 P4 2.282394 1_655
Co15 Yb0 2.960021 1_655
Co15 Yb0 2.960021 1_555
Co15 Yb3 3.064707 1_555
Co16 P4 2.143854 1_555
Co16 P0 2.164762 1_556
Co16 P2 2.210475 1_555
Co16 P2 2.210475 1_455
Co16 Yb0 2.917156 1_555
Co17 P5 2.143854 1_555
Co17 P1 2.164762 1_555
Co17 P3 2.210475 1_545
Co17 P3 2.210475 1_445
Co17 Yb1 2.917156 1_545
Co18 P6 2.143854 1_555
Co18 P2 2.164762 1_554
Co18 P0 2.210475 1_555
Co18 P0 2.210475 1_655
Co18 Yb2 2.917156 1_555
Co19 P7 2.143854 1_555
Co19 P3 2.164762 1_555
Co19 P1 2.210475 1_665
Co19 P1 2.210475 1_565
Co19 Yb3 2.917156 1_565
P0 Yb2 2.809929 1_455
P0 Yb2 2.809929 1_555
P1 Yb3 2.809929 1_555
P1 Yb3 2.809929 1_455
P2 Yb0 2.809929 1_555
P2 Yb0 2.809929 1_655
P3 Yb1 2.809929 1_655
P3 Yb1 2.809929 1_555
P4 Yb3 2.764702 1_555
P4 Yb3 2.764702 1_455
P5 Yb2 2.764702 1_555
P5 Yb2 2.764702 1_455
P6 Yb1 2.764702 1_655
P6 Yb1 2.764702 1_555
P7 Yb0 2.764702 1_655
P7 Yb0 2.764702 1_555
P8 Yb2 2.829966 1_455
P8 Yb2 2.829966 1_555
P9 Yb3 2.829966 1_565
P9 Yb3 2.829966 1_465
P10 Yb0 2.829966 1_655
P10 Yb0 2.829966 1_555
P11 Yb1 2.829966 1_545
P11 Yb1 2.829966 1_645
