# generated using pymatgen
data_K6ZnSe4
_symmetry_space_group_name_H-M   'P 1'
_cell_length_a   10.19343568
_cell_length_b   10.19343300
_cell_length_c   7.90388692
_cell_angle_alpha   90.00001327
_cell_angle_beta   89.99998723
_cell_angle_gamma   120.00080966
_symmetry_Int_Tables_number   1
_chemical_formula_structural   K6ZnSe4
_chemical_formula_sum   'K12 Zn2 Se8'
_cell_volume   711.22803305
_cell_formula_units_Z   2
loop_
 _symmetry_equiv_pos_site_id
 _symmetry_equiv_pos_as_xyz
  1  'x, y, z'
loop_
 _atom_site_type_symbol
 _atom_site_label
 _atom_site_symmetry_multiplicity
 _atom_site_fract_x
 _atom_site_fract_y
 _atom_site_fract_z
 _atom_site_occupancy
  K  K0  1  0.85268315  0.70536786  0.54645328  1
  K  K1  1  0.29463216  0.14731664  0.54645316  1
  K  K2  1  0.85268418  0.14731543  0.54645309  1
  K  K3  1  0.14731612  0.29463134  0.04645305  1
  K  K4  1  0.70536864  0.85268405  0.04645333  1
  K  K5  1  0.14731621  0.85268408  0.04645302  1
  K  K6  1  0.47322622  0.94645255  0.36554394  1
  K  K7  1  0.05354756  0.52677381  0.36554381  1
  K  K8  1  0.47322610  0.52677392  0.36554354  1
  K  K9  1  0.52677432  0.05354605  0.86554381  1
  K  K10  1  0.94645381  0.47322565  0.86554395  1
  K  K11  1  0.52677351  0.47322536  0.86554395  1
  Zn  Zn0  1  0.66666685  0.33333257  0.25023274  1
  Zn  Zn1  1  0.33333367  0.66666721  0.75023184  1
  Se  Se0  1  0.66666737  0.33333264  0.57099032  1
  Se  Se1  1  0.33333316  0.66666681  0.07098966  1
  Se  Se2  1  0.80327950  0.60654537  0.15082917  1
  Se  Se3  1  0.39345452  0.19672041  0.15082918  1
  Se  Se4  1  0.80327280  0.19672712  0.15082051  1
  Se  Se5  1  0.19670956  0.39344785  0.65082929  1
  Se  Se6  1  0.60655224  0.80329051  0.65082927  1
  Se  Se7  1  0.19672736  0.80327277  0.65082009  1
loop_
_geom_bond_atom_site_label_1
_geom_bond_atom_site_label_2
_geom_bond_distance
_geom_bond_site_symmetry_2
K0 Se7 3.236576 1_655
K0 Se6 3.236663 1_555
K0 Se2 3.246378 1_555
K0 Se0 3.289936 1_555
K1 Se7 3.236572 1_545
K1 Se5 3.236665 1_555
K1 Se3 3.246376 1_555
K1 Se0 3.289937 1_555
K2 Se6 3.236419 1_545
K2 Se5 3.236424 1_655
K2 Se4 3.246447 1_555
K2 Se0 3.289966 1_555
K3 Se4 3.236570 1_455
K3 Se3 3.236651 1_555
K3 Se5 3.246361 1_554
K3 Se1 3.289938 1_555
K4 Se4 3.236566 1_565
K4 Se2 3.236652 1_555
K4 Se6 3.246363 1_554
K4 Se1 3.289939 1_555
K5 Se3 3.236515 1_565
K5 Se2 3.236519 1_455
K5 Se7 3.246448 1_554
K5 Se1 3.289968 1_555
K6 Se7 3.323304 1_555
K6 Se6 3.323304 1_555
K6 Se1 3.394170 1_555
K6 Se3 3.481927 1_565
K6 Se4 3.481982 1_565
K7 Se5 3.323304 1_555
K7 Se7 3.323305 1_555
K7 Se1 3.394169 1_555
K7 Se2 3.481927 1_455
K7 Se4 3.481983 1_455
K8 Se6 3.323471 1_555
K8 Se5 3.323471 1_555
K8 Se1 3.394191 1_555
K8 Se3 3.482028 1_555
K8 Se2 3.482029 1_555
K9 Se4 3.323305 1_556
K9 Se3 3.323344 1_556
K9 Se0 3.394172 1_555
K9 Se6 3.481856 1_545
K9 Se7 3.481983 1_545
K10 Se4 3.323304 1_556
K10 Se2 3.323343 1_556
K10 Se0 3.394172 1_555
K10 Se5 3.481858 1_655
K10 Se7 3.481985 1_655
K11 Se3 3.323393 1_556
K11 Se2 3.323400 1_556
K11 Se0 3.394194 1_555
K11 Se5 3.482106 1_555
K11 Se6 3.482113 1_555
Se0 Zn0 2.535232 1_555
Se1 Zn1 2.535234 1_554
Se2 Zn0 2.536584 1_555
Se3 Zn0 2.536581 1_555
Se4 Zn0 2.536622 1_555
Se5 Zn1 2.536637 1_555
Se6 Zn1 2.536631 1_555
Se7 Zn1 2.536625 1_555
