# generated using pymatgen
data_SmAg(WO4)2
_symmetry_space_group_name_H-M   'P 1'
_cell_length_a   7.40500965
_cell_length_b   7.40500965
_cell_length_c   7.28810156
_cell_angle_alpha   65.57374352
_cell_angle_beta   65.57374352
_cell_angle_gamma   94.52377412
_symmetry_Int_Tables_number   1
_chemical_formula_structural   SmAg(WO4)2
_chemical_formula_sum   'Sm2 Ag2 W4 O16'
_cell_volume   315.89127339
_cell_formula_units_Z   2
loop_
 _symmetry_equiv_pos_site_id
 _symmetry_equiv_pos_as_xyz
  1  'x, y, z'
loop_
 _atom_site_type_symbol
 _atom_site_label
 _atom_site_symmetry_multiplicity
 _atom_site_fract_x
 _atom_site_fract_y
 _atom_site_fract_z
 _atom_site_occupancy
  Sm  Sm0  1  0.69505827  0.30494173  0.00000000  1
  Sm  Sm1  1  0.30494173  0.69505827  0.00000000  1
  Ag  Ag0  1  0.68817419  0.68817419  0.48469960  1
  Ag  Ag1  1  0.31182581  0.31182581  0.51530040  1
  W  W0  1  0.20832476  0.20832476  0.02871398  1
  W  W1  1  0.79167524  0.79167524  0.97128602  1
  W  W2  1  0.83576449  0.16423551  0.50000000  1
  W  W3  1  0.16423551  0.83576449  0.50000000  1
  O  O0  1  0.34626549  0.10041809  0.24487909  1
  O  O1  1  0.65373451  0.89958191  0.75512091  1
  O  O2  1  0.89958191  0.65373451  0.75512091  1
  O  O3  1  0.10041809  0.34626549  0.24487909  1
  O  O4  1  0.68503372  0.21328252  0.35790685  1
  O  O5  1  0.31496628  0.78671748  0.64209315  1
  O  O6  1  0.78671748  0.31496628  0.64209315  1
  O  O7  1  0.21328252  0.68503372  0.35790685  1
  O  O8  1  0.69806363  0.95365954  0.09216184  1
  O  O9  1  0.30193637  0.04634046  0.90783816  1
  O  O10  1  0.04634046  0.30193637  0.90783816  1
  O  O11  1  0.95365954  0.69806363  0.09216184  1
  O  O12  1  0.97882460  0.97882460  0.33757034  1
  O  O13  1  0.02117540  0.02117540  0.66242966  1
  O  O14  1  0.55959354  0.55959354  0.13623362  1
  O  O15  1  0.44040646  0.44040646  0.86376638  1
loop_
_geom_bond_atom_site_label_1
_geom_bond_atom_site_label_2
_geom_bond_distance
_geom_bond_site_symmetry_2
Ag0 O15 2.334448 1_555
Ag0 O12 2.422026 1_555
Ag0 O8 2.684632 1_555
Ag0 O11 2.684632 1_555
Ag0 O5 2.806138 1_555
Ag0 O6 2.806138 1_555
Ag1 O14 2.334448 1_555
Ag1 O13 2.422026 1_555
Ag1 O10 2.684632 1_555
Ag1 O9 2.684632 1_555
Ag1 O7 2.806138 1_555
Ag1 O4 2.806138 1_555
O0 W3 1.900425 1_545
O0 W0 2.140646 1_555
O0 Sm0 2.342009 1_555
O1 W2 1.900425 1_565
O1 W1 2.140646 1_555
O1 Sm1 2.342009 1_556
O2 W3 1.900425 1_655
O2 W1 2.140646 1_555
O2 Sm0 2.342009 1_556
O3 W2 1.900425 1_455
O3 W0 2.140646 1_555
O3 Sm1 2.342009 1_555
O4 W2 1.777364 1_555
O4 Sm0 2.374432 1_555
O5 W3 1.777364 1_555
O5 Sm1 2.374432 1_556
O6 W2 1.777364 1_555
O6 Sm0 2.374432 1_556
O7 W3 1.777364 1_555
O7 Sm1 2.374432 1_555
O8 W1 1.787579 1_554
O8 Sm0 2.407201 1_565
O9 W0 1.787579 1_556
O9 Sm1 2.407201 1_546
O10 W0 1.787579 1_556
O10 Sm0 2.407201 1_456
O11 W1 1.787579 1_554
O11 Sm1 2.407201 1_655
O12 W0 2.014941 1_665
O12 W2 2.223772 1_565
O12 W3 2.223772 1_655
O13 W1 2.014941 1_445
O13 W3 2.223772 1_545
O13 W2 2.223772 1_455
O14 W1 1.862501 1_554
O14 Sm1 2.563407 1_555
O14 Sm0 2.563407 1_555
O15 W0 1.862501 1_556
O15 Sm0 2.563407 1_556
O15 Sm1 2.563407 1_556
