# generated using pymatgen
data_MgIn2
_symmetry_space_group_name_H-M   'P 1'
_cell_length_a   6.13325754
_cell_length_b   6.13325754
_cell_length_c   6.13325754
_cell_angle_alpha   60.00000000
_cell_angle_beta   60.00000000
_cell_angle_gamma   60.00000000
_symmetry_Int_Tables_number   1
_chemical_formula_structural   MgIn2
_chemical_formula_sum   'Mg2 In4'
_cell_volume   163.13930478
_cell_formula_units_Z   2
loop_
 _symmetry_equiv_pos_site_id
 _symmetry_equiv_pos_as_xyz
  1  'x, y, z'
loop_
 _atom_site_type_symbol
 _atom_site_label
 _atom_site_symmetry_multiplicity
 _atom_site_fract_x
 _atom_site_fract_y
 _atom_site_fract_z
 _atom_site_occupancy
  Mg  Mg0  1  0.00000000  0.00000000  0.00000000  1
  Mg  Mg1  1  0.25000000  0.25000000  0.25000000  1
  In  In0  1  0.12500000  0.62500000  0.62500000  1
  In  In1  1  0.62500000  0.12500000  0.62500000  1
  In  In2  1  0.62500000  0.62500000  0.12500000  1
  In  In3  1  0.62500000  0.62500000  0.62500000  1
loop_
_geom_bond_atom_site_label_1
_geom_bond_atom_site_label_2
_geom_bond_distance
_geom_bond_site_symmetry_2
In0 In1 3.066629 1_465
In0 In2 3.066629 1_555
In0 In3 3.066629 1_555
In0 In3 3.066629 1_455
In0 In2 3.066629 1_456
In0 In1 3.066629 1_555
In0 Mg1 3.595941 1_556
In0 Mg0 3.595941 1_566
In0 Mg1 3.595941 1_565
In0 Mg1 3.595941 1_555
In0 Mg0 3.595941 1_556
In0 Mg0 3.595941 1_565
In1 In2 3.066629 1_555
In1 In3 3.066629 1_555
In1 In2 3.066629 1_546
In1 In3 3.066629 1_545
In1 Mg1 3.595941 1_655
In1 Mg0 3.595941 1_556
In1 Mg1 3.595941 1_556
In1 Mg0 3.595941 1_655
In1 Mg0 3.595941 1_656
In1 Mg1 3.595941 1_555
In2 In3 3.066629 1_554
In2 In3 3.066629 1_555
In2 Mg0 3.595941 1_655
In2 Mg1 3.595941 1_655
In2 Mg1 3.595941 1_565
In2 Mg0 3.595941 1_565
In2 Mg0 3.595941 1_665
In2 Mg1 3.595941 1_555
In3 Mg0 3.595941 1_656
In3 Mg1 3.595941 1_556
In3 Mg0 3.595941 1_566
In3 Mg0 3.595941 1_665
In3 Mg1 3.595941 1_655
In3 Mg1 3.595941 1_565
