# generated using pymatgen
data_Sr2MnNbO6
_symmetry_space_group_name_H-M   'P 1'
_cell_length_a   8.12307514
_cell_length_b   8.11808580
_cell_length_c   9.75441977
_cell_angle_alpha   65.41154209
_cell_angle_beta   65.39761865
_cell_angle_gamma   90.00922979
_symmetry_Int_Tables_number   1
_chemical_formula_structural   Sr2MnNbO6
_chemical_formula_sum   'Sr8 Mn4 Nb4 O24'
_cell_volume   519.98835410
_cell_formula_units_Z   4
loop_
 _symmetry_equiv_pos_site_id
 _symmetry_equiv_pos_as_xyz
  1  'x, y, z'
loop_
 _atom_site_type_symbol
 _atom_site_label
 _atom_site_symmetry_multiplicity
 _atom_site_fract_x
 _atom_site_fract_y
 _atom_site_fract_z
 _atom_site_occupancy
  Sr  Sr0  1  0.87494400  0.37496500  0.75012800  1
  Sr  Sr1  1  0.62506100  0.62508200  0.24988000  1
  Sr  Sr2  1  0.12507400  0.12508200  0.24987800  1
  Sr  Sr3  1  0.37497200  0.87497100  0.75009600  1
  Sr  Sr4  1  0.37505500  0.37504900  0.74985600  1
  Sr  Sr5  1  0.12494700  0.62494600  0.25008400  1
  Sr  Sr6  1  0.62494000  0.12492100  0.25010300  1
  Sr  Sr7  1  0.87505500  0.87504700  0.74986400  1
  Mn  Mn0  1  0.24991700  0.25006500  0.50006100  1
  Mn  Mn1  1  0.00007200  0.50002500  0.00013400  1
  Mn  Mn2  1  0.50000200  0.99996900  0.99987100  1
  Mn  Mn3  1  0.75002000  0.74979900  0.50011800  1
  Nb  Nb0  1  0.49999500  0.49996600  0.00005700  1
  Nb  Nb1  1  0.25001600  0.75003300  0.50000100  1
  Nb  Nb2  1  0.74996900  0.24996900  0.49999700  1
  Nb  Nb3  1  0.99996500  0.99999400  0.00005200  1
  O  O0  1  0.12850800  0.12846000  0.74321900  1
  O  O1  1  0.87851000  0.37840800  0.24325700  1
  O  O2  1  0.37854500  0.87846600  0.24316400  1
  O  O3  1  0.62854300  0.62839500  0.74321800  1
  O  O4  1  0.37145000  0.37160000  0.25678800  1
  O  O5  1  0.12145100  0.62155500  0.75683000  1
  O  O6  1  0.62148300  0.12158400  0.75674900  1
  O  O7  1  0.87148800  0.87152800  0.25678900  1
  O  O8  1  0.99358600  0.28959300  0.50022700  1
  O  O9  1  0.74374700  0.53974000  0.99994600  1
  O  O10  1  0.24374100  0.03972900  0.99996700  1
  O  O11  1  0.49364700  0.78959000  0.50022500  1
  O  O12  1  0.25640200  0.46043600  0.99972900  1
  O  O13  1  0.00624000  0.71026500  0.50002000  1
  O  O14  1  0.50628700  0.21030000  0.50001700  1
  O  O15  1  0.75637600  0.96041800  0.99977200  1
  O  O16  1  0.28979400  0.50617100  0.49985300  1
  O  O17  1  0.03965700  0.75606900  0.00008700  1
  O  O18  1  0.53960900  0.25603500  0.00016100  1
  O  O19  1  0.78975900  0.00619900  0.49985400  1
  O  O20  1  0.96022400  0.24382500  0.00012400  1
  O  O21  1  0.71036400  0.49392900  0.49985000  1
  O  O22  1  0.21036300  0.99399000  0.49985400  1
  O  O23  1  0.46022100  0.74383300  0.00012000  1
loop_
_geom_bond_atom_site_label_1
_geom_bond_atom_site_label_2
_geom_bond_distance
_geom_bond_site_symmetry_2
Mn0 O0 1.917380 1_555
Mn0 O4 1.918287 1_555
Mn0 O16 2.103158 1_555
Mn0 O22 2.104430 1_545
Mn0 O8 2.106266 1_455
Mn0 O14 2.107287 1_555
Mn1 O1 1.917104 1_455
Mn1 O5 1.918532 1_554
Mn1 O17 2.103043 1_555
Mn1 O20 2.104886 1_455
Mn1 O12 2.105525 1_554
Mn1 O9 2.107651 1_454
Mn2 O6 1.917096 1_565
Mn2 O2 1.918445 1_556
Mn2 O23 2.103089 1_556
Mn2 O18 2.104809 1_566
Mn2 O10 2.106229 1_565
Mn2 O15 2.106866 1_555
Mn3 O3 1.916923 1_555
Mn3 O7 1.918729 1_555
Mn3 O21 2.103196 1_555
Mn3 O19 2.105086 1_565
Mn3 O13 2.105612 1_655
Mn3 O11 2.107130 1_555
Nb0 O9 2.005602 1_554
Nb0 O18 2.005930 1_555
Nb0 O12 2.006057 1_554
Nb0 O23 2.006186 1_555
Nb0 O4 2.024408 1_555
Nb0 O3 2.025259 1_554
Nb1 O11 2.005911 1_555
Nb1 O22 2.006045 1_555
Nb1 O13 2.006215 1_555
Nb1 O16 2.006437 1_555
Nb1 O5 2.025180 1_555
Nb1 O2 2.025243 1_555
Nb2 O14 2.005328 1_555
Nb2 O19 2.005698 1_555
Nb2 O8 2.005914 1_555
Nb2 O21 2.006006 1_555
Nb2 O1 2.024478 1_555
Nb2 O6 2.024573 1_555
Nb3 O15 2.005860 1_554
Nb3 O10 2.005865 1_664
Nb3 O20 2.005885 1_565
Nb3 O17 2.006215 1_655
Nb3 O7 2.024455 1_555
Nb3 O0 2.025212 1_664
O0 Sr4 2.870004 1_555
O0 Sr3 2.871530 1_545
O0 Sr0 2.872205 1_455
O0 Sr7 2.872572 1_445
O1 Sr5 2.870198 1_655
O1 Sr2 2.871131 1_655
O1 Sr1 2.872474 1_555
O1 Sr6 2.872544 1_555
O2 Sr6 2.870140 1_565
O2 Sr1 2.871202 1_555
O2 Sr2 2.872280 1_565
O2 Sr5 2.872481 1_555
O3 Sr7 2.870217 1_555
O3 Sr0 2.870835 1_555
O3 Sr4 2.872428 1_555
O3 Sr3 2.872648 1_555
O4 Sr2 2.870221 1_555
O4 Sr5 2.870908 1_555
O4 Sr1 2.872405 1_555
O4 Sr6 2.872746 1_555
O5 Sr0 2.870162 1_455
O5 Sr7 2.871170 1_455
O5 Sr4 2.872450 1_555
O5 Sr3 2.872482 1_555
O6 Sr3 2.870029 1_545
O6 Sr4 2.871188 1_555
O6 Sr7 2.872431 1_545
O6 Sr0 2.872569 1_555
O7 Sr1 2.870095 1_555
O7 Sr6 2.871433 1_565
O7 Sr5 2.872015 1_655
O7 Sr2 2.872657 1_665
O8 Sr0 2.607926 1_555
O8 Sr5 2.609016 1_655
O8 Sr7 3.067426 1_545
O8 Sr2 3.070928 1_655
O9 Sr1 2.608047 1_556
O9 Sr7 2.608566 1_555
O9 Sr0 3.068225 1_555
O9 Sr6 3.070138 1_556
O10 Sr2 2.607908 1_556
O10 Sr4 2.608730 1_555
O10 Sr3 3.068553 1_545
O10 Sr5 3.069834 1_546
O11 Sr3 2.607708 1_555
O11 Sr6 2.608820 1_565
O11 Sr4 3.067375 1_555
O11 Sr1 3.070867 1_555
O12 Sr4 2.607761 1_555
O12 Sr2 2.609035 1_556
O12 Sr3 3.067344 1_555
O12 Sr5 3.070966 1_556
O13 Sr5 2.607939 1_555
O13 Sr0 2.608611 1_455
O13 Sr7 3.068478 1_455
O13 Sr2 3.070091 1_565
O14 Sr6 2.608075 1_555
O14 Sr3 2.608674 1_545
O14 Sr4 3.068238 1_555
O14 Sr1 3.069871 1_555
O15 Sr7 2.607976 1_555
O15 Sr1 2.608805 1_556
O15 Sr0 3.067441 1_565
O15 Sr6 3.070725 1_566
O16 Sr1 2.608718 1_555
O16 Sr4 2.608825 1_555
O16 Sr5 3.069281 1_555
O16 Sr0 3.071692 1_455
O17 Sr5 2.608928 1_555
O17 Sr3 2.609036 1_554
O17 Sr1 3.069173 1_455
O17 Sr7 3.071471 1_454
O18 Sr6 2.608675 1_555
O18 Sr0 2.609280 1_554
O18 Sr2 3.068646 1_555
O18 Sr4 3.071843 1_554
O19 Sr2 2.608988 1_655
O19 Sr7 2.609075 1_545
O19 Sr6 3.068965 1_555
O19 Sr3 3.071240 1_545
O20 Sr6 2.608830 1_555
O20 Sr0 2.608869 1_554
O20 Sr2 3.069180 1_655
O20 Sr4 3.071563 1_654
O21 Sr1 2.608771 1_555
O21 Sr4 2.609058 1_555
O21 Sr5 3.069046 1_655
O21 Sr0 3.071789 1_555
O22 Sr2 2.608739 1_565
O22 Sr7 2.609056 1_455
O22 Sr6 3.068969 1_565
O22 Sr3 3.071665 1_555
O23 Sr5 2.608729 1_555
O23 Sr3 2.608943 1_554
O23 Sr1 3.069166 1_555
O23 Sr7 3.071558 1_554
