# generated using pymatgen
data_RbYSeCl2O3
_symmetry_space_group_name_H-M   'P 1'
_cell_length_a   6.67567800
_cell_length_b   7.09784334
_cell_length_c   8.95885038
_cell_angle_alpha   98.60473786
_cell_angle_beta   105.28882022
_cell_angle_gamma   88.92625932
_symmetry_Int_Tables_number   1
_chemical_formula_structural   RbYSeCl2O3
_chemical_formula_sum   'Rb2 Y2 Se2 Cl4 O6'
_cell_volume   404.76855222
_cell_formula_units_Z   2
loop_
 _symmetry_equiv_pos_site_id
 _symmetry_equiv_pos_as_xyz
  1  'x, y, z'
loop_
 _atom_site_type_symbol
 _atom_site_label
 _atom_site_symmetry_multiplicity
 _atom_site_fract_x
 _atom_site_fract_y
 _atom_site_fract_z
 _atom_site_occupancy
  Rb  Rb0  1  0.73476800  0.71621300  0.61479300  1
  Rb  Rb1  1  0.26523200  0.28378700  0.38520700  1
  Y  Y0  1  0.64107400  0.25288500  0.01880300  1
  Y  Y1  1  0.35892600  0.74711500  0.98119700  1
  Se  Se0  1  0.86690300  0.76053000  0.08754300  1
  Se  Se1  1  0.13309700  0.23947000  0.91245700  1
  Cl  Cl0  1  0.74324500  0.32442800  0.33203300  1
  Cl  Cl1  1  0.25675500  0.67557200  0.66796700  1
  Cl  Cl2  1  0.39100900  0.80702700  0.28703800  1
  Cl  Cl3  1  0.60899100  0.19297300  0.71296200  1
  O  O0  1  0.68072800  0.57734900  0.01581100  1
  O  O1  1  0.31927200  0.42265100  0.98418900  1
  O  O2  1  0.68294300  0.92970800  0.02732700  1
  O  O3  1  0.31705700  0.07029200  0.97267300  1
  O  O4  1  0.99718500  0.25825300  0.05065000  1
  O  O5  1  0.00281500  0.74174700  0.94935000  1
loop_
_geom_bond_atom_site_label_1
_geom_bond_atom_site_label_2
_geom_bond_distance
_geom_bond_site_symmetry_2
Cl0 Y0 2.678604 1_555
Cl0 Rb1 3.371990 1_555
Cl0 Rb1 3.403046 1_655
Cl0 Rb0 3.480677 1_555
Cl1 Y1 2.678604 1_555
Cl1 Rb0 3.371990 1_555
Cl1 Rb0 3.403046 1_455
Cl1 Rb1 3.480677 1_555
Cl2 Y1 2.660731 1_554
Cl2 Rb0 3.355734 1_555
Cl2 Rb1 3.510288 1_565
Cl3 Y0 2.660731 1_556
Cl3 Rb1 3.355734 1_555
Cl3 Rb0 3.510288 1_545
O0 Se0 1.742833 1_555
O0 Y0 2.328012 1_555
O0 Y1 2.413827 1_554
O1 Se1 1.742833 1_555
O1 Y1 2.328012 1_555
O1 Y0 2.413827 1_556
O2 Se0 1.740764 1_555
O2 Y0 2.315789 1_565
O2 Y1 2.450006 1_554
O3 Se1 1.740764 1_555
O3 Y1 2.315789 1_545
O3 Y0 2.450006 1_556
O4 Se1 1.706520 1_654
O4 Y0 2.318786 1_555
O4 Rb1 3.039647 1_655
O5 Se0 1.706520 1_456
O5 Y1 2.318786 1_555
O5 Rb0 3.039647 1_455
