# generated using pymatgen
data_TaMoN3
_symmetry_space_group_name_H-M   'P 1'
_cell_length_a   8.60456501
_cell_length_b   5.46280266
_cell_length_c   8.12136352
_cell_angle_alpha   119.27877664
_cell_angle_beta   94.08256052
_cell_angle_gamma   119.64765641
_symmetry_Int_Tables_number   1
_chemical_formula_structural   TaMoN3
_chemical_formula_sum   'Ta4 Mo4 N12'
_cell_volume   263.54579190
_cell_formula_units_Z   4
loop_
 _symmetry_equiv_pos_site_id
 _symmetry_equiv_pos_as_xyz
  1  'x, y, z'
loop_
 _atom_site_type_symbol
 _atom_site_label
 _atom_site_symmetry_multiplicity
 _atom_site_fract_x
 _atom_site_fract_y
 _atom_site_fract_z
 _atom_site_occupancy
  Ta  Ta0  1  0.19166500  0.08365800  0.99867900  1
  Ta  Ta1  1  0.80833500  0.91634200  0.00132100  1
  Ta  Ta2  1  0.91606500  0.73061400  0.55144700  1
  Ta  Ta3  1  0.08393500  0.26938600  0.44855300  1
  Mo  Mo0  1  0.33440500  0.68082100  0.89243900  1
  Mo  Mo1  1  0.66559500  0.31917900  0.10756100  1
  Mo  Mo2  1  0.53491100  0.79562700  0.36365700  1
  Mo  Mo3  1  0.46508900  0.20437300  0.63634300  1
  N  N0  1  0.80125200  0.85931700  0.41489300  1
  N  N1  1  0.19874800  0.14068300  0.58510700  1
  N  N2  1  0.87559300  0.33159800  0.27380100  1
  N  N3  1  0.12440700  0.66840200  0.72619900  1
  N  N4  1  0.65604600  0.30738700  0.51622200  1
  N  N5  1  0.34395400  0.69261300  0.48377800  1
  N  N6  1  0.55900800  0.79638800  0.83359200  1
  N  N7  1  0.44099200  0.20361200  0.16640800  1
  N  N8  1  0.04142100  0.95949400  0.14958900  1
  N  N9  1  0.95857900  0.04050600  0.85041100  1
  N  N10  1  0.63327700  0.39848600  0.90077900  1
  N  N11  1  0.36672300  0.60151400  0.09922100  1
loop_
_geom_bond_atom_site_label_1
_geom_bond_atom_site_label_2
_geom_bond_distance
_geom_bond_site_symmetry_2
Mo0 N6 1.892488 1_555
Mo0 N11 1.962036 1_556
Mo0 N3 2.129358 1_555
Mo0 N7 2.202441 1_566
Mo0 N1 2.296269 1_555
Mo1 N7 1.892488 1_555
Mo1 N10 1.962036 1_554
Mo1 N2 2.129358 1_555
Mo1 N6 2.202441 1_544
Mo1 N0 2.296269 1_555
Mo2 N11 1.908579 1_555
Mo2 N5 1.954119 1_555
Mo2 N4 1.995598 1_565
Mo2 N0 2.116617 1_555
Mo2 N7 2.416824 1_555
Mo3 N10 1.908579 1_555
Mo3 N4 1.954119 1_555
Mo3 N5 1.995598 1_545
Mo3 N1 2.116617 1_555
Mo3 N6 2.416824 1_555
N0 Ta2 1.998504 1_555
N0 Ta3 2.219229 1_665
N1 Ta3 1.998504 1_555
N1 Ta2 2.219229 1_445
N2 Ta1 1.996645 1_545
N2 Ta2 2.070435 1_555
N2 Ta3 2.460833 1_655
N3 Ta0 1.996645 1_565
N3 Ta3 2.070435 1_555
N3 Ta2 2.460833 1_455
N4 Ta2 2.139463 1_555
N5 Ta3 2.139463 1_555
N6 Ta1 2.051211 1_556
N7 Ta0 2.051211 1_554
N8 Ta0 1.950548 1_564
N8 Ta3 2.033548 1_565
N8 Ta1 2.106826 1_455
N9 Ta1 1.950548 1_546
N9 Ta2 2.033548 1_545
N9 Ta0 2.106826 1_655
N10 Ta1 2.070822 1_556
N11 Ta0 2.070822 1_554
