# generated using pymatgen
data_Li4MnCo2O7
_symmetry_space_group_name_H-M   'P 1'
_cell_length_a   5.05237700
_cell_length_b   5.11907784
_cell_length_c   10.41466350
_cell_angle_alpha   85.00222017
_cell_angle_beta   76.58263969
_cell_angle_gamma   70.42926854
_symmetry_Int_Tables_number   1
_chemical_formula_structural   Li4MnCo2O7
_chemical_formula_sum   'Li8 Mn2 Co4 O14'
_cell_volume   246.85826831
_cell_formula_units_Z   2
loop_
 _symmetry_equiv_pos_site_id
 _symmetry_equiv_pos_as_xyz
  1  'x, y, z'
loop_
 _atom_site_type_symbol
 _atom_site_label
 _atom_site_symmetry_multiplicity
 _atom_site_fract_x
 _atom_site_fract_y
 _atom_site_fract_z
 _atom_site_occupancy
  Li  Li0  1  0.06526100  0.50431200  0.85874800  1
  Li  Li1  1  0.63402700  0.50079600  0.72445600  1
  Li  Li2  1  0.20845700  0.49965900  0.57543800  1
  Li  Li3  1  0.78471300  0.49964000  0.42615800  1
  Li  Li4  1  0.36375600  0.49809100  0.28283200  1
  Li  Li5  1  0.93486700  0.49911200  0.14020600  1
  Li  Li6  1  0.50735000  0.50485200  0.99448900  1
  Li  Li7  1  0.57164300  0.00162600  0.85584800  1
  Mn  Mn0  1  0.00442800  0.99528000  0.99293600  1
  Mn  Mn1  1  0.70805400  0.00189100  0.57926000  1
  Co  Co0  1  0.13937300  0.00126700  0.71624500  1
  Co  Co1  1  0.28161100  0.00331400  0.42642500  1
  Co  Co2  1  0.85908900  0.99617900  0.28474000  1
  Co  Co3  1  0.43532800  0.99999600  0.13408100  1
  O  O0  1  0.76332800  0.76929700  0.00267700  1
  O  O1  1  0.29300000  0.77221400  0.85780800  1
  O  O2  1  0.89467900  0.77671200  0.70651100  1
  O  O3  1  0.45282000  0.78517500  0.57516000  1
  O  O4  1  0.01365400  0.77241500  0.43392600  1
  O  O5  1  0.59543100  0.76814000  0.28461800  1
  O  O6  1  0.16933200  0.76978200  0.13874700  1
  O  O7  1  0.39576800  0.22302600  0.70504000  1
  O  O8  1  0.95478400  0.22262400  0.57875200  1
  O  O9  1  0.55090400  0.22632100  0.43118500  1
  O  O10  1  0.11739800  0.23370500  0.29221700  1
  O  O11  1  0.70250000  0.22458000  0.13700400  1
  O  O12  1  0.24582400  0.22313800  0.00754300  1
  O  O13  1  0.85261800  0.22685700  0.85695100  1
loop_
_geom_bond_atom_site_label_1
_geom_bond_atom_site_label_2
_geom_bond_distance
_geom_bond_site_symmetry_2
Li0 O13 2.051368 1_455
Li0 O1 2.062616 1_555
Li0 O0 2.078658 1_456
Li0 O2 2.155190 1_455
Li0 O12 2.166369 1_556
Li0 O7 2.230383 1_555
Li1 O13 2.103054 1_555
Li1 O1 2.109472 1_555
Li1 O8 2.155440 1_555
Li1 O3 2.179083 1_555
Li1 O7 2.195819 1_555
Li1 O2 2.202288 1_555
Li2 O7 2.021082 1_555
Li2 O2 2.053012 1_455
Li2 O4 2.117616 1_555
Li2 O9 2.178645 1_555
Li2 O8 2.200825 1_455
Li2 O3 2.206126 1_555
Li3 O10 2.081864 1_655
Li3 O5 2.096971 1_555
Li3 O9 2.102759 1_555
Li3 O4 2.107006 1_655
Li3 O8 2.167858 1_555
Li3 O3 2.214041 1_555
Li4 O5 2.092868 1_555
Li4 O10 2.107037 1_555
Li4 O6 2.134533 1_555
Li4 O9 2.153808 1_555
Li4 O11 2.180575 1_555
Li4 O4 2.237451 1_555
Li5 O0 2.035560 1_555
Li5 O12 2.053969 1_655
Li5 O6 2.100227 1_655
Li5 O11 2.118036 1_555
Li5 O10 2.160120 1_655
Li5 O5 2.163637 1_555
Li6 O1 2.110767 1_555
Li6 O11 2.143363 1_556
Li6 O6 2.150732 1_556
Li6 O13 2.156946 1_555
Li6 O0 2.180970 1_556
Li6 O12 2.236770 1_556
Li7 O7 2.050312 1_555
Li7 O2 2.069631 1_545
Li7 O0 2.071118 1_546
Li7 O12 2.084764 1_556
Li7 O13 2.109769 1_555
Li7 O1 2.109883 1_545
Mn0 O13 1.897838 1_465
Mn0 O1 1.903302 1_555
Mn0 O0 1.923181 1_456
Mn0 O12 1.985257 1_566
Mn0 O6 1.992522 1_556
Mn0 O11 2.000289 1_466
Mn1 O2 1.886732 1_545
Mn1 O7 1.894587 1_555
Mn1 O8 1.941729 1_555
Mn1 O3 1.971723 1_545
Mn1 O9 1.994238 1_555
Mn1 O4 2.016185 1_645
Co0 O13 1.941316 1_455
Co0 O1 1.941937 1_545
Co0 O8 1.957884 1_455
Co0 O7 1.967820 1_555
Co0 O2 1.972462 1_445
Co0 O3 1.979973 1_545
Co1 O10 1.904830 1_555
Co1 O3 2.016933 1_545
Co1 O5 2.022049 1_545
Co1 O9 2.058776 1_555
Co1 O4 2.059830 1_545
Co1 O8 2.087210 1_455
Co2 O4 1.997425 1_655
Co2 O11 1.998019 1_565
Co2 O6 2.023829 1_655
Co2 O9 2.029924 1_565
Co2 O5 2.044508 1_555
Co2 O10 2.077135 1_665
Co3 O12 1.883833 1_565
Co3 O0 1.982869 1_555
Co3 O5 2.035224 1_555
Co3 O11 2.051729 1_565
Co3 O6 2.053786 1_555
Co3 O10 2.133550 1_565
