# generated using pymatgen
data_K3VO8
_symmetry_space_group_name_H-M   'P 1'
_cell_length_a   6.19512155
_cell_length_b   6.19512155
_cell_length_c   6.19512155
_cell_angle_alpha   113.31360426
_cell_angle_beta   113.31360426
_cell_angle_gamma   102.03287334
_symmetry_Int_Tables_number   1
_chemical_formula_structural   K3VO8
_chemical_formula_sum   'K3 V1 O8'
_cell_volume   180.76082125
_cell_formula_units_Z   1
loop_
 _symmetry_equiv_pos_site_id
 _symmetry_equiv_pos_as_xyz
  1  'x, y, z'
loop_
 _atom_site_type_symbol
 _atom_site_label
 _atom_site_symmetry_multiplicity
 _atom_site_fract_x
 _atom_site_fract_y
 _atom_site_fract_z
 _atom_site_occupancy
  K  K0  1  0.75000000  0.25000000  0.50000000  1
  K  K1  1  0.25000000  0.75000000  0.50000000  1
  K  K2  1  0.50000000  0.50000000  0.00000000  1
  V  V0  1  0.00000000  0.00000000  0.00000000  1
  O  O0  1  0.22043100  0.22043100  0.40978000  1
  O  O1  1  0.81065100  0.81065100  0.59022000  1
  O  O2  1  0.77956900  0.18934900  0.00000000  1
  O  O3  1  0.18934900  0.77956900  0.00000000  1
  O  O4  1  0.31835600  0.31835600  0.26994400  1
  O  O5  1  0.04841200  0.04841200  0.73005600  1
  O  O6  1  0.68164400  0.95158800  0.00000000  1
  O  O7  1  0.95158800  0.68164400  0.00000000  1
loop_
_geom_bond_atom_site_label_1
_geom_bond_atom_site_label_2
_geom_bond_distance
_geom_bond_site_symmetry_2
K0 O5 2.700845 1_655
K0 O7 2.700845 1_556
K0 O4 2.700845 1_555
K0 O6 2.700845 1_545
K0 O1 3.053884 1_545
K0 O0 3.053884 1_555
K0 O2 3.053884 1_555
K0 O3 3.053884 1_656
K0 O1 3.204751 1_555
K0 O2 3.204751 1_556
K0 O0 3.204751 1_655
K0 O3 3.204751 1_545
K1 O5 2.700845 1_565
K1 O6 2.700845 1_556
K1 O4 2.700845 1_555
K1 O7 2.700845 1_455
K1 O2 3.053884 1_566
K1 O0 3.053884 1_555
K1 O3 3.053884 1_555
K1 O1 3.053884 1_455
K1 O1 3.204751 1_555
K1 O2 3.204751 1_455
K1 O3 3.204751 1_556
K1 O0 3.204751 1_565
K2 O6 2.789353 1_555
K2 O7 2.789353 1_555
K2 O5 2.789353 1_554
K2 O4 2.789353 1_555
K2 O2 2.844863 1_555
K2 O1 2.844863 1_555
K2 O3 2.844863 1_555
K2 O0 2.844863 1_554
O0 O4 1.471416 1_555
O0 V0 1.977064 1_555
O1 O5 1.471416 1_665
O1 V0 1.977064 1_666
O2 O6 1.471416 1_545
O2 V0 1.977064 1_655
O3 O7 1.471416 1_455
O3 V0 1.977064 1_565
O4 V0 1.932125 1_555
O5 V0 1.932125 1_556
O6 V0 1.932125 1_665
O7 V0 1.932125 1_665
