# generated using pymatgen
data_Dy2CuSe2O
_symmetry_space_group_name_H-M   'P 1'
_cell_length_a   3.53479400
_cell_length_b   3.53479400
_cell_length_c   14.05796000
_cell_angle_alpha   90.00000000
_cell_angle_beta   90.00000000
_cell_angle_gamma   90.00000000
_symmetry_Int_Tables_number   1
_chemical_formula_structural   Dy2CuSe2O
_chemical_formula_sum   'Dy2 Cu1 Se2 O1'
_cell_volume   175.65095750
_cell_formula_units_Z   1
loop_
 _symmetry_equiv_pos_site_id
 _symmetry_equiv_pos_as_xyz
  1  'x, y, z'
loop_
 _atom_site_type_symbol
 _atom_site_label
 _atom_site_symmetry_multiplicity
 _atom_site_fract_x
 _atom_site_fract_y
 _atom_site_fract_z
 _atom_site_occupancy
  Dy  Dy0  1  0.50000000  0.50000000  0.64361800  1
  Dy  Dy1  1  0.50000000  0.50000000  0.35638200  1
  Cu  Cu0  1  0.50000000  0.50000000  0.00000000  1
  Se  Se0  1  0.50000000  0.50000000  0.15913800  1
  Se  Se1  1  0.50000000  0.50000000  0.84086200  1
  O  O0  1  0.50000000  0.50000000  0.50000000  1
loop_
_geom_bond_atom_site_label_1
_geom_bond_atom_site_label_2
_geom_bond_distance
_geom_bond_site_symmetry_2
Dy0 O0 2.018976 1_555
Dy0 Se1 2.772848 1_555
Dy1 O0 2.018976 1_555
Dy1 Se0 2.772848 1_555
Cu0 Se0 2.237156 1_555
Cu0 Se1 2.237156 1_554
