# generated using pymatgen
data_HfN2
_symmetry_space_group_name_H-M   'P 1'
_cell_length_a   3.25691601
_cell_length_b   3.25691601
_cell_length_c   7.60669900
_cell_angle_alpha   90.00000000
_cell_angle_beta   90.00000000
_cell_angle_gamma   120.00000011
_symmetry_Int_Tables_number   1
_chemical_formula_structural   HfN2
_chemical_formula_sum   'Hf2 N4'
_cell_volume   69.87792164
_cell_formula_units_Z   2
loop_
 _symmetry_equiv_pos_site_id
 _symmetry_equiv_pos_as_xyz
  1  'x, y, z'
loop_
 _atom_site_type_symbol
 _atom_site_label
 _atom_site_symmetry_multiplicity
 _atom_site_fract_x
 _atom_site_fract_y
 _atom_site_fract_z
 _atom_site_occupancy
  Hf  Hf0  1  0.66666700  0.33333300  0.25000000  1
  Hf  Hf1  1  0.33333300  0.66666700  0.75000000  1
  N  N0  1  0.00000000  0.00000000  0.40592500  1
  N  N1  1  0.00000000  0.00000000  0.59407500  1
  N  N2  1  0.00000000  0.00000000  0.90592500  1
  N  N3  1  0.00000000  0.00000000  0.09407500  1
loop_
_geom_bond_atom_site_label_1
_geom_bond_atom_site_label_2
_geom_bond_distance
_geom_bond_site_symmetry_2
Hf0 N0 2.223196 1_655
Hf0 N3 2.223196 1_655
Hf0 N0 2.223198 1_665
Hf0 N0 2.223198 1_555
Hf0 N3 2.223198 1_555
Hf0 N3 2.223198 1_665
Hf1 N1 2.223196 1_565
Hf1 N2 2.223196 1_565
Hf1 N1 2.223198 1_665
Hf1 N1 2.223198 1_555
Hf1 N2 2.223198 1_665
Hf1 N2 2.223198 1_555
N0 N1 1.431200 1_555
N2 N3 1.431200 1_556
