# generated using pymatgen
data_Er5(Co2Si7)2
_symmetry_space_group_name_H-M   'P 1'
_cell_length_a   7.75724278
_cell_length_b   7.68206878
_cell_length_c   12.33589437
_cell_angle_alpha   81.29643066
_cell_angle_beta   90.00000000
_cell_angle_gamma   90.00000000
_symmetry_Int_Tables_number   1
_chemical_formula_structural   Er5(Co2Si7)2
_chemical_formula_sum   'Er10 Co8 Si28'
_cell_volume   726.65131463
_cell_formula_units_Z   2
loop_
 _symmetry_equiv_pos_site_id
 _symmetry_equiv_pos_as_xyz
  1  'x, y, z'
loop_
 _atom_site_type_symbol
 _atom_site_label
 _atom_site_symmetry_multiplicity
 _atom_site_fract_x
 _atom_site_fract_y
 _atom_site_fract_z
 _atom_site_occupancy
  Er  Er0  1  -0.00000000  0.00000000  0.50000000  1
  Er  Er1  1  0.50000000  0.50000000  0.50000000  1
  Er  Er2  1  0.25233966  0.15802451  0.86325441  1
  Er  Er3  1  0.75233966  0.34197549  0.13674559  1
  Er  Er4  1  0.74766034  0.84197549  0.13674559  1
  Er  Er5  1  0.24766034  0.65802451  0.86325441  1
  Er  Er6  1  0.24906131  0.83916889  0.13643731  1
  Er  Er7  1  0.74906131  0.66083111  0.86356269  1
  Er  Er8  1  0.75093869  0.16083111  0.86356269  1
  Er  Er9  1  0.25093869  0.33916889  0.13643731  1
  Co  Co0  1  0.37219758  0.87100157  0.49970532  1
  Co  Co1  1  0.87219758  0.62899843  0.50029468  1
  Co  Co2  1  0.62780242  0.12899843  0.50029468  1
  Co  Co3  1  0.12780242  0.37100157  0.49970532  1
  Co  Co4  1  0.99981347  0.93985517  0.74831294  1
  Co  Co5  1  0.49981347  0.56014483  0.25168706  1
  Co  Co6  1  0.00018653  0.06014483  0.25168706  1
  Co  Co7  1  0.50018653  0.43985517  0.74831294  1
  Si  Si0  1  0.66388061  0.83654263  0.49998798  1
  Si  Si1  1  0.16388061  0.66345737  0.50001202  1
  Si  Si2  1  0.33611939  0.16345737  0.50001202  1
  Si  Si3  1  0.83611939  0.33654263  0.49998798  1
  Si  Si4  1  0.49966837  0.88582861  0.94402852  1
  Si  Si5  1  0.99966837  0.61417139  0.05597148  1
  Si  Si6  1  0.50033163  0.11417139  0.05597148  1
  Si  Si7  1  0.00033163  0.38582861  0.94402852  1
  Si  Si8  1  0.99408463  0.76817211  0.32370977  1
  Si  Si9  1  0.49408463  0.73182789  0.67629023  1
  Si  Si10  1  0.00591537  0.23182789  0.67629023  1
  Si  Si11  1  0.50591537  0.26817211  0.32370977  1
  Si  Si12  1  0.99395317  0.68221340  0.67669650  1
  Si  Si13  1  0.49395317  0.81778660  0.32330350  1
  Si  Si14  1  0.00604683  0.31778660  0.32330350  1
  Si  Si15  1  0.50604683  0.18221340  0.67669650  1
  Si  Si16  1  0.27401303  0.95032180  0.67615496  1
  Si  Si17  1  0.77401303  0.54967820  0.32384504  1
  Si  Si18  1  0.72598697  0.04967820  0.32384504  1
  Si  Si19  1  0.22598697  0.45032180  0.67615496  1
  Si  Si20  1  0.72583253  0.96271369  0.67628187  1
  Si  Si21  1  0.22583253  0.53728631  0.32371813  1
  Si  Si22  1  0.27416747  0.03728631  0.32371813  1
  Si  Si23  1  0.77416747  0.46271369  0.67628187  1
  Si  Si24  1  0.00048488  0.89233344  0.93853507  1
  Si  Si25  1  0.50048488  0.60766656  0.06146493  1
  Si  Si26  1  0.99951512  0.10766656  0.06146493  1
  Si  Si27  1  0.49951512  0.39233344  0.93853507  1
loop_
_geom_bond_atom_site_label_1
_geom_bond_atom_site_label_2
_geom_bond_distance
_geom_bond_site_symmetry_2
Er0 Si1 2.880971 1_545
Er0 Si3 2.880971 1_455
Er0 Si0 2.893983 1_445
Er0 Si2 2.893983 1_555
Er0 Si10 3.012510 1_555
Er0 Si8 3.012510 1_445
Er0 Si12 3.017057 1_445
Er0 Si14 3.017057 1_555
Er0 Si18 3.022388 1_455
Er0 Si16 3.022388 1_545
Er0 Si22 3.024170 1_555
Er0 Si20 3.024170 1_445
Er1 Si0 2.880971 1_555
Er1 Si2 2.880971 1_555
Er1 Si3 2.893983 1_555
Er1 Si1 2.893983 1_555
Er1 Si11 3.012510 1_555
Er1 Si9 3.012510 1_555
Er1 Si15 3.017057 1_555
Er1 Si13 3.017057 1_555
Er1 Si19 3.022388 1_555
Er1 Si17 3.022388 1_555
Er1 Si21 3.024170 1_555
Er1 Si23 3.024170 1_555
Er2 Si24 2.876040 1_545
Er2 Si27 2.878303 1_555
Er2 Si7 2.899086 1_555
Er2 Si4 2.900976 1_545
Er2 Si19 2.973615 1_555
Er2 Si10 2.983145 1_555
Er2 Si16 3.002624 1_545
Er2 Si15 3.012416 1_555
Er2 Si6 3.037037 1_556
Er2 Si26 3.112605 1_456
Er3 Si25 2.876040 1_555
Er3 Si26 2.878303 1_555
Er3 Si6 2.899086 1_555
Er3 Si5 2.900976 1_555
Er3 Si18 2.973615 1_555
Er3 Si11 2.983145 1_555
Er3 Si17 3.002624 1_555
Er3 Si14 3.012416 1_655
Er3 Si7 3.037037 1_654
Er3 Si27 3.112605 1_554
Er4 Si26 2.876040 1_565
Er4 Si25 2.878303 1_555
Er4 Si5 2.899086 1_555
Er4 Si6 2.900976 1_565
Er4 Si17 2.973615 1_555
Er4 Si8 2.983145 1_555
Er4 Si18 3.002624 1_565
Er4 Si13 3.012416 1_555
Er4 Si4 3.037037 1_554
Er4 Si24 3.112605 1_654
Er5 Si27 2.876040 1_555
Er5 Si24 2.878303 1_555
Er5 Si4 2.899086 1_555
Er5 Si7 2.900976 1_555
Er5 Si16 2.973615 1_555
Er5 Si9 2.983145 1_555
Er5 Si19 3.002624 1_555
Er5 Si12 3.012416 1_455
Er5 Si5 3.037037 1_456
Er5 Si25 3.112605 1_556
Er6 Si5 2.869624 1_455
Er6 Si26 2.877446 1_465
Er6 Si25 2.884402 1_555
Er6 Si6 2.934777 1_565
Er6 Si22 2.959017 1_565
Er6 Si13 2.972366 1_555
Er6 Si21 3.021010 1_555
Er6 Si8 3.027407 1_455
Er6 Si4 3.046946 1_554
Er6 Si24 3.089209 1_554
Er7 Si4 2.869624 1_555
Er7 Si27 2.877446 1_555
Er7 Si24 2.884402 1_655
Er7 Si7 2.934777 1_655
Er7 Si23 2.959017 1_555
Er7 Si12 2.972366 1_555
Er7 Si20 3.021010 1_555
Er7 Si9 3.027407 1_555
Er7 Si5 3.046946 1_556
Er7 Si25 3.089209 1_556
Er8 Si7 2.869624 1_655
Er8 Si24 2.877446 1_645
Er8 Si27 2.884402 1_555
Er8 Si4 2.934777 1_545
Er8 Si20 2.959017 1_545
Er8 Si15 2.972366 1_555
Er8 Si23 3.021010 1_555
Er8 Si10 3.027407 1_655
Er8 Si6 3.046946 1_556
Er8 Si26 3.089209 1_556
Er9 Si6 2.869624 1_555
Er9 Si25 2.877446 1_555
Er9 Si26 2.884402 1_455
Er9 Si5 2.934777 1_455
Er9 Si21 2.959017 1_555
Er9 Si14 2.972366 1_555
Er9 Si22 3.021010 1_555
Er9 Si11 3.027407 1_555
Er9 Si7 3.046946 1_554
Er9 Si27 3.089209 1_554
Co0 Si2 2.264601 1_565
Co0 Si1 2.269701 1_555
Co0 Si0 2.278030 1_555
Co0 Si13 2.462458 1_555
Co0 Si9 2.465226 1_555
Co0 Si22 2.466540 1_565
Co0 Si16 2.467929 1_555
Co0 Co2 2.804281 1_565
Co0 Er1 3.017048 1_555
Co0 Er0 3.052739 1_565
Co1 Si3 2.264601 1_555
Co1 Si0 2.269701 1_555
Co1 Si1 2.278030 1_655
Co1 Si12 2.462458 1_555
Co1 Si8 2.465226 1_555
Co1 Si23 2.466540 1_555
Co1 Si17 2.467929 1_555
Co1 Co3 2.804281 1_655
Co1 Er0 3.017048 1_665
Co1 Er1 3.052739 1_555
Co2 Si0 2.264601 1_545
Co2 Si3 2.269701 1_555
Co2 Si2 2.278030 1_555
Co2 Si15 2.462458 1_555
Co2 Si11 2.465226 1_555
Co2 Si20 2.466540 1_545
Co2 Si18 2.467929 1_555
Co2 Er1 3.017048 1_555
Co2 Er0 3.052739 1_655
Co3 Si1 2.264601 1_555
Co3 Si2 2.269701 1_555
Co3 Si3 2.278030 1_455
Co3 Si14 2.462458 1_555
Co3 Si10 2.465226 1_555
Co3 Si21 2.466540 1_555
Co3 Si19 2.467929 1_555
Co3 Er0 3.017048 1_555
Co3 Er1 3.052739 1_555
Co4 Si10 2.284589 1_665
Co4 Si12 2.286715 1_555
Co4 Si20 2.300048 1_555
Co4 Si16 2.302479 1_655
Co4 Si24 2.319566 1_655
Co4 Er0 3.027889 1_665
Co4 Er8 3.059493 1_565
Co4 Er2 3.062014 1_665
Co4 Er5 3.076560 1_655
Co4 Er7 3.078487 1_555
Co5 Si11 2.284589 1_555
Co5 Si13 2.286715 1_555
Co5 Si21 2.300048 1_555
Co5 Si17 2.302479 1_555
Co5 Si25 2.319566 1_555
Co5 Er1 3.027889 1_555
Co5 Er9 3.059493 1_555
Co5 Er3 3.062014 1_555
Co5 Er4 3.076560 1_555
Co5 Er6 3.078487 1_555
Co6 Si8 2.284589 1_445
Co6 Si14 2.286715 1_555
Co6 Si22 2.300048 1_555
Co6 Si18 2.302479 1_455
Co6 Si26 2.319566 1_455
Co6 Er0 3.027889 1_555
Co6 Er6 3.059493 1_545
Co6 Er4 3.062014 1_445
Co6 Er3 3.076560 1_455
Co6 Er9 3.078487 1_555
Co7 Si9 2.284589 1_555
Co7 Si15 2.286715 1_555
Co7 Si23 2.300048 1_555
Co7 Si19 2.302479 1_555
Co7 Si27 2.319566 1_555
Co7 Er1 3.027889 1_555
Co7 Er7 3.059493 1_555
Co7 Er5 3.062014 1_555
Co7 Er2 3.076560 1_555
Co7 Er8 3.078487 1_555
Si0 Si20 2.556923 1_555
Si0 Si18 2.560785 1_565
Si0 Si9 2.565630 1_555
Si0 Si13 2.569797 1_555
Si1 Si21 2.556923 1_555
Si1 Si19 2.560785 1_555
Si1 Si8 2.565630 1_455
Si1 Si12 2.569797 1_455
Si2 Si22 2.556923 1_555
Si4 Si6 2.391043 1_566
Si5 Si7 2.391043 1_654
Si10 Si19 2.393914 1_555
Si10 Si23 2.525411 1_455
Si10 Si3 2.565630 1_455
Si11 Si18 2.393914 1_555
Si11 Si22 2.525411 1_555
Si11 Si2 2.565630 1_555
Si12 Si23 2.398486 1_555
Si12 Si19 2.533150 1_655
Si13 Si22 2.398486 1_565
Si13 Si18 2.533150 1_565
Si14 Si21 2.398486 1_555
Si14 Si17 2.533150 1_455
Si14 Si3 2.569797 1_455
Si15 Si20 2.398486 1_545
Si15 Si16 2.533150 1_545
Si15 Si2 2.569797 1_555
Si16 Si9 2.393914 1_555
Si16 Si2 2.560785 1_565
Si17 Si8 2.393914 1_555
Si17 Si3 2.560785 1_555
Si20 Si9 2.525411 1_555
Si21 Si8 2.525411 1_455
Si23 Si3 2.556923 1_555
Si24 Si5 2.393327 1_456
Si24 Si26 2.407334 1_466
Si25 Si4 2.393327 1_554
Si25 Si27 2.407334 1_554
Si26 Si7 2.393327 1_654
Si27 Si6 2.393327 1_556
