# generated using pymatgen
data_Y3Mn3Ga2Ge
_symmetry_space_group_name_H-M   'P 1'
_cell_length_a   7.02752100
_cell_length_b   7.02752100
_cell_length_c   4.14445600
_cell_angle_alpha   90.00000000
_cell_angle_beta   90.00000000
_cell_angle_gamma   120.00000941
_symmetry_Int_Tables_number   1
_chemical_formula_structural   Y3Mn3Ga2Ge
_chemical_formula_sum   'Y3 Mn3 Ga2 Ge1'
_cell_volume   177.25660536
_cell_formula_units_Z   1
loop_
 _symmetry_equiv_pos_site_id
 _symmetry_equiv_pos_as_xyz
  1  'x, y, z'
loop_
 _atom_site_type_symbol
 _atom_site_label
 _atom_site_symmetry_multiplicity
 _atom_site_fract_x
 _atom_site_fract_y
 _atom_site_fract_z
 _atom_site_occupancy
  Y  Y0  1  0.91309500  0.66521100  0.50000000  1
  Y  Y1  1  0.75211600  0.08690500  0.50000000  1
  Y  Y2  1  0.33478900  0.24788400  0.50000000  1
  Mn  Mn0  1  0.56270100  0.66308000  0.00000000  1
  Mn  Mn1  1  0.10037900  0.43729900  0.00000000  1
  Mn  Mn2  1  0.33692000  0.89962100  0.00000000  1
  Ga  Ga0  1  0.00000000  0.00000000  0.00000000  1
  Ga  Ga1  1  0.33333300  0.66666700  0.50000000  1
  Ge  Ge0  1  0.66666700  0.33333300  0.00000000  1
loop_
_geom_bond_atom_site_label_1
_geom_bond_atom_site_label_2
_geom_bond_distance
_geom_bond_site_symmetry_2
Mn0 Mn1 2.813951 1_555
Mn0 Mn2 2.813951 1_555
Mn0 Y0 3.212615 1_555
Mn0 Y0 3.212615 1_554
Mn0 Y2 3.271035 1_555
Mn0 Y2 3.271035 1_554
Mn0 Y1 3.312469 1_564
Mn0 Y1 3.312469 1_565
Mn1 Mn2 2.813951 1_555
Mn1 Y1 3.212615 1_455
Mn1 Y1 3.212615 1_454
Mn1 Y0 3.271035 1_454
Mn1 Y0 3.271035 1_455
Mn1 Y2 3.312469 1_555
Mn1 Y2 3.312469 1_554
Mn2 Y2 3.212615 1_565
Mn2 Y2 3.212615 1_564
Mn2 Y1 3.271035 1_564
Mn2 Y1 3.271035 1_565
Mn2 Y0 3.312469 1_454
Mn2 Y0 3.312469 1_455
Ga0 Mn0 2.788170 1_445
Ga0 Mn1 2.788170 1_555
Ga0 Mn2 2.788170 1_545
Ga0 Y2 2.960677 1_555
Ga0 Y2 2.960677 1_554
Ga0 Y0 2.960677 1_444
Ga0 Y0 2.960677 1_445
Ga0 Y1 2.960677 1_455
Ga0 Y1 2.960677 1_454
Ga1 Mn2 2.633165 1_555
Ga1 Mn2 2.633165 1_556
Ga1 Mn1 2.633167 1_555
Ga1 Mn1 2.633167 1_556
Ga1 Mn0 2.633169 1_556
Ga1 Mn0 2.633169 1_555
Ga1 Y0 2.948129 1_455
Ga1 Y1 2.948132 1_565
Ga1 Y2 2.948136 1_555
Ge0 Mn1 2.756219 1_655
Ge0 Mn2 2.756221 1_545
Ge0 Mn0 2.756227 1_555
Ge0 Y1 2.948508 1_555
Ge0 Y1 2.948508 1_554
Ge0 Y0 2.948512 1_554
Ge0 Y0 2.948512 1_555
Ge0 Y2 2.948513 1_554
Ge0 Y2 2.948513 1_555
