# generated using pymatgen
data_GdB4Os
_symmetry_space_group_name_H-M   'P 1'
_cell_length_a   5.99880100
_cell_length_b   11.60540200
_cell_length_c   3.58752500
_cell_angle_alpha   90.00000000
_cell_angle_beta   90.00000000
_cell_angle_gamma   90.00000000
_symmetry_Int_Tables_number   1
_chemical_formula_structural   GdB4Os
_chemical_formula_sum   'Gd4 B16 Os4'
_cell_volume   249.75809889
_cell_formula_units_Z   4
loop_
 _symmetry_equiv_pos_site_id
 _symmetry_equiv_pos_as_xyz
  1  'x, y, z'
loop_
 _atom_site_type_symbol
 _atom_site_label
 _atom_site_symmetry_multiplicity
 _atom_site_fract_x
 _atom_site_fract_y
 _atom_site_fract_z
 _atom_site_occupancy
  Gd  Gd0  1  0.62785300  0.34972400  0.00000000  1
  Gd  Gd1  1  0.37214700  0.65027600  0.00000000  1
  Gd  Gd2  1  0.12785300  0.15027600  0.00000000  1
  Gd  Gd3  1  0.87214700  0.84972400  0.00000000  1
  B  B0  1  0.78749300  0.18539300  0.50000000  1
  B  B1  1  0.21250700  0.81460700  0.50000000  1
  B  B2  1  0.28749300  0.31460700  0.50000000  1
  B  B3  1  0.71250700  0.68539300  0.50000000  1
  B  B4  1  0.86302900  0.03022900  0.50000000  1
  B  B5  1  0.13697100  0.96977100  0.50000000  1
  B  B6  1  0.36302900  0.46977100  0.50000000  1
  B  B7  1  0.63697100  0.53022900  0.50000000  1
  B  B8  1  0.88807600  0.45364200  0.50000000  1
  B  B9  1  0.11192400  0.54635800  0.50000000  1
  B  B10  1  0.38807600  0.04635800  0.50000000  1
  B  B11  1  0.61192400  0.95364200  0.50000000  1
  B  B12  1  0.97484300  0.30941100  0.50000000  1
  B  B13  1  0.02515700  0.69058900  0.50000000  1
  B  B14  1  0.47484300  0.19058900  0.50000000  1
  B  B15  1  0.52515700  0.80941100  0.50000000  1
  Os  Os0  1  0.64044700  0.09285300  0.00000000  1
  Os  Os1  1  0.35955300  0.90714700  0.00000000  1
  Os  Os2  1  0.14044700  0.40714700  0.00000000  1
  Os  Os3  1  0.85955300  0.59285300  0.00000000  1
loop_
_geom_bond_atom_site_label_1
_geom_bond_atom_site_label_2
_geom_bond_distance
_geom_bond_site_symmetry_2
Gd0 Os0 2.982048 1_555
Gd0 Os2 2.998836 1_555
Gd0 Os3 3.145372 1_555
Gd0 Os2 3.146335 1_655
Gd1 Os1 2.982048 1_555
Gd1 Os3 2.998836 1_555
Gd1 Os2 3.145372 1_555
Gd1 Os3 3.146335 1_455
Gd2 Os2 2.982048 1_555
Gd2 Os0 2.998836 1_455
Gd2 Os1 3.145372 1_545
Gd2 Os0 3.146335 1_555
Gd3 Os3 2.982048 1_555
Gd3 Os1 2.998836 1_655
Gd3 Os0 3.145372 1_565
Gd3 Os1 3.146335 1_555
B0 B12 1.826094 1_555
B0 B4 1.856876 1_555
B0 B14 1.876494 1_555
B0 Os0 2.269159 1_555
B0 Os0 2.269159 1_556
B0 Gd2 2.748168 1_655
B0 Gd2 2.748168 1_656
B0 Gd0 2.787797 1_555
B0 Gd0 2.787797 1_556
B1 B13 1.826094 1_555
B1 B5 1.856876 1_555
B1 B15 1.876494 1_555
B1 Os1 2.269159 1_556
B1 Os1 2.269159 1_555
B1 Gd3 2.748168 1_456
B1 Gd3 2.748168 1_455
B1 Gd1 2.787797 1_556
B1 Gd1 2.787797 1_555
B2 B6 1.856876 1_555
B2 Os2 2.269159 1_556
B2 Os2 2.269159 1_555
B2 Gd0 2.748168 1_555
B2 Gd0 2.748168 1_556
B2 Gd2 2.787797 1_555
B2 Gd2 2.787797 1_556
B3 B7 1.856876 1_555
B3 Os3 2.269159 1_556
B3 Os3 2.269159 1_555
B3 Gd1 2.748168 1_556
B3 Gd1 2.748168 1_555
B3 Gd3 2.787797 1_556
B3 Gd3 2.787797 1_555
B4 B5 1.786844 1_645
B4 Os0 2.351301 1_555
B4 Os0 2.351301 1_556
B4 Gd3 2.758424 1_546
B4 Gd3 2.758424 1_545
B4 Gd2 2.771697 1_655
B4 Gd2 2.771697 1_656
B5 Os1 2.351301 1_556
B5 Os1 2.351301 1_555
B5 Gd2 2.758424 1_566
B5 Gd2 2.758424 1_565
B5 Gd3 2.771697 1_455
B5 Gd3 2.771697 1_456
B6 B9 1.749009 1_555
B6 B7 1.786844 1_555
B6 Os2 2.351301 1_556
B6 Os2 2.351301 1_555
B6 Gd1 2.758424 1_555
B6 Gd1 2.758424 1_556
B6 Gd0 2.771697 1_555
B6 Gd0 2.771697 1_556
B7 B8 1.749009 1_555
B7 Os3 2.351301 1_556
B7 Os3 2.351301 1_555
B7 Gd0 2.758424 1_555
B7 Gd0 2.758424 1_556
B7 Gd1 2.771697 1_556
B7 Gd1 2.771697 1_555
B8 B9 1.720742 1_655
B8 Os2 2.408466 1_656
B8 Os2 2.408466 1_655
B8 Os3 2.420129 1_555
B8 Os3 2.420129 1_556
B8 Gd0 2.666242 1_555
B8 Gd0 2.666242 1_556
B9 Os3 2.408466 1_456
B9 Os3 2.408466 1_455
B9 Os2 2.420129 1_556
B9 Os2 2.420129 1_555
B9 Gd1 2.666242 1_556
B9 Gd1 2.666242 1_555
B10 B11 1.720742 1_545
B10 B5 1.749009 1_545
B10 B14 1.752918 1_555
B10 Os0 2.408466 1_555
B10 Os0 2.408466 1_556
B10 Os1 2.420129 1_546
B10 Os1 2.420129 1_545
B10 Gd2 2.666242 1_556
B10 Gd2 2.666242 1_555
B11 B4 1.749009 1_565
B11 B15 1.752918 1_555
B11 Os1 2.408466 1_555
B11 Os1 2.408466 1_556
B11 Os0 2.420129 1_565
B11 Os0 2.420129 1_566
B11 Gd3 2.666242 1_556
B11 Gd3 2.666242 1_555
B12 B8 1.752918 1_555
B12 B2 1.876494 1_655
B12 Os2 2.343296 1_656
B12 Os2 2.343296 1_655
B12 Gd2 2.733285 1_655
B12 Gd2 2.733285 1_656
B12 Gd0 2.787330 1_555
B12 Gd0 2.787330 1_556
B13 B9 1.752918 1_555
B13 B3 1.876494 1_455
B13 Os3 2.343296 1_455
B13 Os3 2.343296 1_456
B13 Gd3 2.733285 1_455
B13 Gd3 2.733285 1_456
B13 Gd1 2.787330 1_556
B13 Gd1 2.787330 1_555
B14 B2 1.826094 1_555
B14 Os0 2.343296 1_556
B14 Os0 2.343296 1_555
B14 Gd0 2.733285 1_555
B14 Gd0 2.733285 1_556
B14 Gd2 2.787330 1_556
B14 Gd2 2.787330 1_555
B15 B3 1.826094 1_555
B15 Os1 2.343296 1_556
B15 Os1 2.343296 1_555
B15 Gd1 2.733285 1_555
B15 Gd1 2.733285 1_556
B15 Gd3 2.787330 1_556
B15 Gd3 2.787330 1_555
Os0 Os1 2.735722 1_545
Os2 Os3 2.735722 1_455
