# generated using pymatgen
data_LiHfMg6O7
_symmetry_space_group_name_H-M   'P 1'
_cell_length_a   8.75485237
_cell_length_b   4.27282977
_cell_length_c   4.27282977
_cell_angle_alpha   90.00000000
_cell_angle_beta   90.00000000
_cell_angle_gamma   90.00000000
_symmetry_Int_Tables_number   1
_chemical_formula_structural   LiHfMg6O7
_chemical_formula_sum   'Li1 Hf1 Mg6 O7'
_cell_volume   159.83798971
_cell_formula_units_Z   1
loop_
 _symmetry_equiv_pos_site_id
 _symmetry_equiv_pos_as_xyz
  1  'x, y, z'
loop_
 _atom_site_type_symbol
 _atom_site_label
 _atom_site_symmetry_multiplicity
 _atom_site_fract_x
 _atom_site_fract_y
 _atom_site_fract_z
 _atom_site_occupancy
  Li  Li0  1  0.00130618  0.00000000  -0.00000000  1
  Hf  Hf0  1  0.00570282  0.50000000  0.50000000  1
  Mg  Mg0  1  0.49931073  0.00000000  0.00000000  1
  Mg  Mg1  1  0.50183685  0.50000000  0.50000000  1
  Mg  Mg2  1  0.25355905  0.00000000  0.50000000  1
  Mg  Mg3  1  0.74554999  0.00000000  0.50000000  1
  Mg  Mg4  1  0.25355905  0.50000000  -0.00000000  1
  Mg  Mg5  1  0.74554999  0.50000000  0.00000000  1
  O  O0  1  0.26023205  0.00000000  0.00000000  1
  O  O1  1  0.74070484  0.00000000  0.00000000  1
  O  O2  1  0.74759996  0.50000000  0.50000000  1
  O  O3  1  0.99648791  0.00000000  0.50000000  1
  O  O4  1  0.50105634  0.00000000  0.50000000  1
  O  O5  1  0.99648791  0.50000000  0.00000000  1
  O  O6  1  0.50105634  0.50000000  -0.00000000  1
loop_
_geom_bond_atom_site_label_1
_geom_bond_atom_site_label_2
_geom_bond_distance
_geom_bond_site_symmetry_2
Li0 O5 2.136831 1_455
Li0 O3 2.136831 1_454
Li0 O3 2.136831 1_455
Li0 O5 2.136831 1_445
Li0 O0 2.266858 1_555
Li0 O1 2.281526 1_455
Hf0 O3 2.137938 1_465
Hf0 O3 2.137938 1_455
Hf0 O5 2.137938 1_456
Hf0 O5 2.137938 1_455
Hf0 O2 2.259652 1_455
Mg0 O0 2.093099 1_555
Mg0 O1 2.113370 1_555
Mg0 O6 2.136470 1_555
Mg0 O4 2.136470 1_555
Mg0 O4 2.136470 1_554
Mg0 O6 2.136470 1_545
Mg1 O4 2.136426 1_555
Mg1 O4 2.136426 1_565
Mg1 O6 2.136426 1_556
Mg1 O6 2.136426 1_555
Mg1 O2 2.151620 1_555
Mg2 O0 2.137214 1_556
Mg2 O0 2.137214 1_555
Mg2 O4 2.166802 1_555
Mg2 O3 2.250620 1_455
Mg3 O2 2.136490 1_545
Mg3 O2 2.136490 1_555
Mg3 O1 2.136836 1_555
Mg3 O1 2.136836 1_556
Mg3 O4 2.140506 1_555
Mg3 O3 2.196924 1_555
Mg4 O0 2.137214 1_555
Mg4 O0 2.137214 1_565
Mg4 O6 2.166802 1_555
Mg4 O5 2.250620 1_455
Mg5 O2 2.136490 1_554
Mg5 O2 2.136490 1_555
Mg5 O1 2.136836 1_555
Mg5 O1 2.136836 1_565
Mg5 O6 2.140506 1_555
Mg5 O5 2.196924 1_555
