# generated using pymatgen
data_Li3La3(MoO6)2
_symmetry_space_group_name_H-M   'P 1'
_cell_length_a   11.04098385
_cell_length_b   11.04098385
_cell_length_c   11.04098385
_cell_angle_alpha   109.47122063
_cell_angle_beta   109.47122063
_cell_angle_gamma   109.47122063
_symmetry_Int_Tables_number   1
_chemical_formula_structural   Li3La3(MoO6)2
_chemical_formula_sum   'Li12 La12 Mo8 O48'
_cell_volume   1036.09942706
_cell_formula_units_Z   4
loop_
 _symmetry_equiv_pos_site_id
 _symmetry_equiv_pos_as_xyz
  1  'x, y, z'
loop_
 _atom_site_type_symbol
 _atom_site_label
 _atom_site_symmetry_multiplicity
 _atom_site_fract_x
 _atom_site_fract_y
 _atom_site_fract_z
 _atom_site_occupancy
  Li  Li0  1  0.75000000  0.37500000  0.62500000  1
  Li  Li1  1  0.87500000  0.12500000  0.75000000  1
  Li  Li2  1  0.12500000  0.75000000  0.87500000  1
  Li  Li3  1  0.62500000  0.75000000  0.37500000  1
  Li  Li4  1  0.25000000  0.12500000  0.87500000  1
  Li  Li5  1  0.62500000  0.37500000  0.25000000  1
  Li  Li6  1  0.37500000  0.62500000  0.75000000  1
  Li  Li7  1  0.75000000  0.87500000  0.12500000  1
  Li  Li8  1  0.37500000  0.25000000  0.62500000  1
  Li  Li9  1  0.87500000  0.25000000  0.12500000  1
  Li  Li10  1  0.12500000  0.87500000  0.25000000  1
  Li  Li11  1  0.25000000  0.62500000  0.37500000  1
  La  La0  1  0.25000000  0.37500000  0.12500000  1
  La  La1  1  0.37500000  0.12500000  0.25000000  1
  La  La2  1  0.37500000  0.75000000  0.12500000  1
  La  La3  1  0.87500000  0.75000000  0.62500000  1
  La  La4  1  0.12500000  0.37500000  0.75000000  1
  La  La5  1  0.75000000  0.12500000  0.37500000  1
  La  La6  1  0.25000000  0.87500000  0.62500000  1
  La  La7  1  0.87500000  0.62500000  0.25000000  1
  La  La8  1  0.12500000  0.25000000  0.37500000  1
  La  La9  1  0.62500000  0.25000000  0.87500000  1
  La  La10  1  0.75000000  0.62500000  0.87500000  1
  La  La11  1  0.62500000  0.87500000  0.75000000  1
  Mo  Mo0  1  0.00000000  0.00000000  0.00000000  1
  Mo  Mo1  1  0.00000000  0.50000000  0.00000000  1
  Mo  Mo2  1  0.50000000  0.00000000  0.50000000  1
  Mo  Mo3  1  0.50000000  0.50000000  0.50000000  1
  Mo  Mo4  1  0.00000000  0.50000000  0.50000000  1
  Mo  Mo5  1  0.00000000  0.00000000  0.50000000  1
  Mo  Mo6  1  0.50000000  0.50000000  0.00000000  1
  Mo  Mo7  1  0.50000000  0.00000000  0.00000000  1
  O  O0  1  0.19351000  0.58012200  0.17087800  1
  O  O1  1  0.32912200  0.91987800  0.30649000  1
  O  O2  1  0.69351000  0.52263100  0.61338800  1
  O  O3  1  0.88661200  0.97736900  0.80649000  1
  O  O4  1  0.61338800  0.69351000  0.52263100  1
  O  O5  1  0.97736900  0.80649000  0.88661200  1
  O  O6  1  0.02263100  0.32912200  0.90924300  1
  O  O7  1  0.59075700  0.17087800  0.47736900  1
  O  O8  1  0.19351000  0.11338800  0.02263100  1
  O  O9  1  0.47736900  0.38661200  0.30649000  1
  O  O10  1  0.11338800  0.59075700  0.91987800  1
  O  O11  1  0.58012200  0.90924300  0.38661200  1
  O  O12  1  0.32912200  0.90924300  0.02263100  1
  O  O13  1  0.47736900  0.59075700  0.17087800  1
  O  O14  1  0.91987800  0.11338800  0.59075700  1
  O  O15  1  0.90924300  0.38661200  0.58012200  1
  O  O16  1  0.30649000  0.32912200  0.91987800  1
  O  O17  1  0.58012200  0.17087800  0.19351000  1
  O  O18  1  0.82912200  0.80649000  0.41987800  1
  O  O19  1  0.08012200  0.69351000  0.67087800  1
  O  O20  1  0.82912200  0.52263100  0.40924300  1
  O  O21  1  0.09075700  0.97736900  0.67087800  1
  O  O22  1  0.38661200  0.58012200  0.90924300  1
  O  O23  1  0.59075700  0.91987800  0.11338800  1
  O  O24  1  0.61338800  0.41987800  0.09075700  1
  O  O25  1  0.40924300  0.08012200  0.88661200  1
  O  O26  1  0.17087800  0.47736900  0.59075700  1
  O  O27  1  0.90924300  0.02263100  0.32912200  1
  O  O28  1  0.91987800  0.30649000  0.32912200  1
  O  O29  1  0.17087800  0.19351000  0.58012200  1
  O  O30  1  0.69351000  0.67087800  0.08012200  1
  O  O31  1  0.41987800  0.82912200  0.80649000  1
  O  O32  1  0.08012200  0.88661200  0.40924300  1
  O  O33  1  0.09075700  0.61338800  0.41987800  1
  O  O34  1  0.52263100  0.40924300  0.82912200  1
  O  O35  1  0.67087800  0.09075700  0.97736900  1
  O  O36  1  0.88661200  0.40924300  0.08012200  1
  O  O37  1  0.41987800  0.09075700  0.61338800  1
  O  O38  1  0.52263100  0.61338800  0.69351000  1
  O  O39  1  0.80649000  0.88661200  0.97736900  1
  O  O40  1  0.97736900  0.67087800  0.09075700  1
  O  O41  1  0.40924300  0.82912200  0.52263100  1
  O  O42  1  0.38661200  0.30649000  0.47736900  1
  O  O43  1  0.02263100  0.19351000  0.11338800  1
  O  O44  1  0.11338800  0.02263100  0.19351000  1
  O  O45  1  0.30649000  0.47736900  0.38661200  1
  O  O46  1  0.67087800  0.08012200  0.69351000  1
  O  O47  1  0.80649000  0.41987800  0.82912200  1
loop_
_geom_bond_atom_site_label_1
_geom_bond_atom_site_label_2
_geom_bond_distance
_geom_bond_site_symmetry_2
Li0 O15 1.956038 1_555
Li0 O2 1.956038 1_555
Li0 O7 1.956044 1_555
Li0 O47 1.956048 1_555
Li1 O3 1.956038 1_545
Li1 O14 1.956038 1_555
Li1 O6 1.956044 1_655
Li1 O46 1.956048 1_555
Li2 O5 1.956038 1_455
Li2 O10 1.956038 1_555
Li2 O12 1.956044 1_556
Li2 O19 1.956048 1_555
Li3 O4 1.956038 1_555
Li3 O11 1.956038 1_555
Li3 O13 1.956044 1_555
Li3 O18 1.956048 1_555
Li4 O25 1.956038 1_555
Li4 O8 1.956038 1_556
Li4 O21 1.956044 1_545
Li4 O16 1.956048 1_555
Li5 O24 1.956038 1_555
Li5 O9 1.956038 1_555
Li5 O20 1.956044 1_555
Li5 O17 1.956048 1_555
Li6 O38 1.956038 1_555
Li6 O22 1.956038 1_555
Li6 O26 1.956044 1_555
Li6 O31 1.956048 1_555
Li7 O39 1.956038 1_554
Li7 O23 1.956038 1_555
Li7 O27 1.956044 1_565
Li7 O30 1.956048 1_555
Li8 O37 1.956038 1_555
Li8 O42 1.956038 1_555
Li8 O34 1.956044 1_555
Li8 O29 1.956048 1_555
Li9 O36 1.956038 1_555
Li9 O43 1.956038 1_655
Li9 O35 1.956044 1_554
Li9 O28 1.956048 1_555
Li10 O32 1.956038 1_555
Li10 O44 1.956038 1_565
Li10 O40 1.956044 1_455
Li10 O1 1.956048 1_555
Li11 O33 1.956038 1_555
Li11 O45 1.956038 1_555
Li11 O41 1.956044 1_555
Li11 O0 1.956048 1_555
La0 O8 2.482377 1_555
La0 O45 2.482377 1_555
La0 O16 2.482378 1_554
La0 O0 2.482378 1_555
La0 O43 2.567946 1_555
La0 O9 2.567946 1_555
La0 O6 2.567951 1_554
La0 O13 2.567951 1_555
La1 O9 2.482377 1_555
La1 O44 2.482377 1_555
La1 O17 2.482378 1_555
La1 O1 2.482378 1_545
La1 O42 2.567946 1_555
La1 O8 2.567946 1_555
La1 O12 2.567951 1_545
La1 O7 2.567951 1_555
La2 O13 2.482374 1_555
La2 O12 2.482374 1_555
La2 O10 2.482377 1_554
La2 O11 2.482377 1_555
La2 O1 2.567938 1_555
La2 O0 2.567938 1_555
La2 O23 2.567946 1_555
La2 O22 2.567946 1_554
La3 O5 2.482377 1_555
La3 O4 2.482377 1_555
La3 O19 2.482378 1_655
La3 O18 2.482378 1_555
La3 O2 2.567946 1_555
La3 O3 2.567946 1_555
La3 O21 2.567951 1_655
La3 O20 2.567951 1_555
La4 O26 2.482374 1_555
La4 O6 2.482374 1_555
La4 O14 2.482377 1_455
La4 O22 2.482377 1_555
La4 O16 2.567938 1_555
La4 O29 2.567938 1_555
La4 O15 2.567946 1_455
La4 O10 2.567946 1_555
La5 O7 2.482374 1_555
La5 O27 2.482374 1_555
La5 O15 2.482377 1_555
La5 O23 2.482377 1_545
La5 O28 2.567938 1_555
La5 O17 2.567938 1_555
La5 O14 2.567946 1_555
La5 O11 2.567946 1_545
La6 O21 2.482374 1_555
La6 O41 2.482374 1_555
La6 O25 2.482377 1_565
La6 O33 2.482377 1_555
La6 O31 2.567938 1_555
La6 O19 2.567938 1_555
La6 O37 2.567946 1_565
La6 O32 2.567946 1_555
La7 O40 2.482374 1_555
La7 O20 2.482374 1_555
La7 O32 2.482377 1_655
La7 O24 2.482377 1_555
La7 O18 2.567938 1_555
La7 O30 2.567938 1_555
La7 O33 2.567946 1_655
La7 O36 2.567946 1_555
La8 O43 2.482377 1_555
La8 O42 2.482377 1_555
La8 O28 2.482378 1_455
La8 O29 2.482378 1_555
La8 O44 2.567946 1_555
La8 O45 2.567946 1_555
La8 O27 2.567951 1_455
La8 O26 2.567951 1_555
La9 O35 2.482374 1_555
La9 O34 2.482374 1_555
La9 O36 2.482377 1_556
La9 O37 2.482377 1_555
La9 O46 2.567938 1_555
La9 O47 2.567938 1_555
La9 O24 2.567946 1_556
La9 O25 2.567946 1_555
La10 O2 2.482377 1_555
La10 O39 2.482377 1_555
La10 O47 2.482378 1_555
La10 O30 2.482378 1_556
La10 O5 2.567946 1_555
La10 O38 2.567946 1_555
La10 O40 2.567951 1_556
La10 O34 2.567951 1_555
La11 O3 2.482377 1_555
La11 O38 2.482377 1_555
La11 O31 2.482378 1_555
La11 O46 2.482378 1_565
La11 O4 2.567946 1_555
La11 O39 2.567946 1_555
La11 O41 2.567951 1_555
La11 O35 2.567951 1_565
Mo0 O39 1.961354 1_444
Mo0 O44 1.961354 1_555
Mo0 O5 1.961354 1_444
Mo0 O43 1.961354 1_555
Mo0 O8 1.961354 1_555
Mo0 O3 1.961354 1_444
Mo1 O6 1.961344 1_554
Mo1 O40 1.961344 1_455
Mo1 O47 1.961349 1_454
Mo1 O0 1.961349 1_555
Mo1 O36 1.961354 1_455
Mo1 O10 1.961354 1_554
Mo2 O41 1.961344 1_545
Mo2 O7 1.961344 1_555
Mo2 O46 1.961349 1_555
Mo2 O1 1.961349 1_545
Mo2 O11 1.961354 1_545
Mo2 O37 1.961354 1_555
Mo3 O4 1.961354 1_555
Mo3 O42 1.961354 1_555
Mo3 O2 1.961354 1_555
Mo3 O38 1.961354 1_555
Mo3 O9 1.961354 1_555
Mo3 O45 1.961354 1_555
Mo4 O20 1.961344 1_455
Mo4 O26 1.961344 1_555
Mo4 O19 1.961349 1_555
Mo4 O28 1.961349 1_455
Mo4 O15 1.961354 1_455
Mo4 O33 1.961354 1_555
Mo5 O21 1.961344 1_545
Mo5 O27 1.961344 1_455
Mo5 O18 1.961349 1_445
Mo5 O29 1.961349 1_555
Mo5 O14 1.961354 1_455
Mo5 O32 1.961354 1_545
Mo6 O34 1.961344 1_554
Mo6 O13 1.961344 1_555
Mo6 O30 1.961349 1_555
Mo6 O16 1.961349 1_554
Mo6 O22 1.961354 1_554
Mo6 O24 1.961354 1_555
Mo7 O35 1.961344 1_554
Mo7 O12 1.961344 1_545
Mo7 O31 1.961349 1_544
Mo7 O17 1.961349 1_555
Mo7 O25 1.961354 1_554
Mo7 O23 1.961354 1_545
