# generated using pymatgen
data_Sm2AgGe6
_symmetry_space_group_name_H-M   'P 1'
_cell_length_a   4.15696300
_cell_length_b   4.17521600
_cell_length_c   11.35648148
_cell_angle_alpha   90.00000000
_cell_angle_beta   100.54580707
_cell_angle_gamma   90.00000000
_symmetry_Int_Tables_number   1
_chemical_formula_structural   Sm2AgGe6
_chemical_formula_sum   'Sm2 Ag1 Ge6'
_cell_volume   193.77624293
_cell_formula_units_Z   1
loop_
 _symmetry_equiv_pos_site_id
 _symmetry_equiv_pos_as_xyz
  1  'x, y, z'
loop_
 _atom_site_type_symbol
 _atom_site_label
 _atom_site_symmetry_multiplicity
 _atom_site_fract_x
 _atom_site_fract_y
 _atom_site_fract_z
 _atom_site_occupancy
  Sm  Sm0  1  0.77841800  0.50000000  0.55683700  1
  Sm  Sm1  1  0.11908500  0.50000000  0.23817000  1
  Ag  Ag0  1  0.55969100  0.00000000  0.11938200  1
  Ge  Ge0  1  0.49101200  0.50000000  0.98202300  1
  Ge  Ge1  1  0.37893800  0.50000000  0.75787600  1
  Ge  Ge2  1  0.99091900  0.00000000  0.98183800  1
  Ge  Ge3  1  0.87857300  0.00000000  0.75714600  1
  Ge  Ge4  1  0.67120900  0.00000000  0.34241800  1
  Ge  Ge5  1  0.23915500  0.00000000  0.47831100  1
loop_
_geom_bond_atom_site_label_1
_geom_bond_atom_site_label_2
_geom_bond_distance
_geom_bond_site_symmetry_2
Ag0 Ge4 2.490121 1_555
Ag0 Ge2 2.584231 1_554
Ag0 Ge2 2.584231 1_454
Ag0 Ge0 2.590354 1_544
Ag0 Ge0 2.590354 1_554
Ag0 Sm1 3.230646 1_555
Ag0 Sm1 3.230646 1_545
Ag0 Sm1 3.230646 1_645
Ag0 Sm1 3.230646 1_655
Ge0 Ge1 2.502525 1_555
Ge0 Ge2 2.945876 1_565
Ge0 Ge2 2.945876 1_555
Ge0 Ge2 2.945879 1_465
Ge0 Ge2 2.945879 1_455
Ge0 Sm1 3.535321 1_656
Ge0 Sm1 3.535324 1_556
Ge1 Ge3 2.945888 1_555
Ge1 Ge3 2.945888 1_565
Ge1 Ge3 2.945888 1_465
Ge1 Ge3 2.945888 1_455
Ge1 Sm0 3.059085 1_555
Ge1 Sm0 3.059088 1_455
Ge2 Ge3 2.508609 1_555
Ge2 Sm1 3.542364 1_656
Ge2 Sm1 3.542364 1_646
Ge3 Sm0 3.059332 1_545
Ge3 Sm0 3.059332 1_555
Ge4 Ge5 2.573319 1_655
Ge4 Ge5 2.573322 1_555
Ge4 Sm1 3.167466 1_655
Ge4 Sm1 3.167466 1_645
Ge4 Sm1 3.167466 1_555
Ge4 Sm1 3.167466 1_545
Ge4 Sm0 3.176308 1_555
Ge4 Sm0 3.176308 1_545
Ge5 Sm0 3.073568 1_445
Ge5 Sm0 3.073568 1_455
Ge5 Sm0 3.073569 1_555
Ge5 Sm0 3.073569 1_545
Ge5 Sm1 3.397994 1_545
Ge5 Sm1 3.397994 1_555
