# generated using pymatgen
data_KMg14Zr
_symmetry_space_group_name_H-M   'P 1'
_cell_length_a   6.56222652
_cell_length_b   6.65217255
_cell_length_c   10.38148949
_cell_angle_alpha   90.00000000
_cell_angle_beta   90.00000000
_cell_angle_gamma   120.45446289
_symmetry_Int_Tables_number   1
_chemical_formula_structural   KMg14Zr
_chemical_formula_sum   'K1 Mg14 Zr1'
_cell_volume   390.65907132
_cell_formula_units_Z   1
loop_
 _symmetry_equiv_pos_site_id
 _symmetry_equiv_pos_as_xyz
  1  'x, y, z'
loop_
 _atom_site_type_symbol
 _atom_site_label
 _atom_site_symmetry_multiplicity
 _atom_site_fract_x
 _atom_site_fract_y
 _atom_site_fract_z
 _atom_site_occupancy
  K  K0  1  0.16368817  0.83184358  0.12500000  1
  Mg  Mg0  1  0.16538589  0.33269244  0.62500000  1
  Mg  Mg1  1  0.16779050  0.83389475  0.62500000  1
  Mg  Mg2  1  0.66294868  0.32855091  0.12500000  1
  Mg  Mg3  1  0.66787561  0.33200406  0.62500000  1
  Mg  Mg4  1  0.66294868  0.83439677  0.12500000  1
  Mg  Mg5  1  0.66787561  0.83587055  0.62500000  1
  Mg  Mg6  1  0.33487512  0.17845128  0.38251106  1
  Mg  Mg7  1  0.33487512  0.17845128  0.86748894  1
  Mg  Mg8  1  0.33487512  0.65642484  0.38251106  1
  Mg  Mg9  1  0.33487512  0.65642484  0.86748894  1
  Mg  Mg10  1  0.83865065  0.16932583  0.37130553  1
  Mg  Mg11  1  0.83865065  0.16932583  0.87869447  1
  Mg  Mg12  1  0.82099348  0.66049724  0.38503381  1
  Mg  Mg13  1  0.82099348  0.66049724  0.86496619  1
  Zr  Zr0  1  0.18269808  0.34134854  0.12500000  1
loop_
_geom_bond_atom_site_label_1
_geom_bond_atom_site_label_2
_geom_bond_distance
_geom_bond_site_symmetry_2
K0 Mg2 3.267685 1_565
K0 Mg4 3.267685 1_555
K0 Mg2 3.294607 1_455
K0 Mg4 3.294607 1_455
K0 Mg12 3.323488 1_455
K0 Mg13 3.323488 1_454
K0 Zr0 3.327824 1_555
K0 Zr0 3.327824 1_565
K0 Mg9 3.331558 1_554
K0 Mg8 3.331558 1_555
K0 Mg6 3.331565 1_565
K0 Mg7 3.331565 1_564
Mg0 Mg6 3.127926 1_555
Mg0 Mg7 3.127926 1_555
Mg0 Mg8 3.127932 1_555
Mg0 Mg9 3.127932 1_555
Mg0 Mg11 3.217561 1_455
Mg0 Mg10 3.217561 1_455
Mg0 Mg5 3.262456 1_445
Mg0 Mg3 3.262457 1_455
Mg0 Mg5 3.299774 1_555
Mg0 Mg3 3.299775 1_555
Mg0 Mg1 3.326114 1_545
Mg0 Mg1 3.326114 1_555
Mg1 Mg13 3.170913 1_455
Mg1 Mg12 3.170913 1_455
Mg1 Mg9 3.200839 1_555
Mg1 Mg8 3.200839 1_555
Mg1 Mg6 3.200846 1_565
Mg1 Mg7 3.200846 1_565
Mg1 Mg3 3.275029 1_565
Mg1 Mg5 3.275030 1_555
Mg1 Mg3 3.287236 1_455
Mg1 Mg5 3.287236 1_455
Mg2 Zr0 3.195505 1_555
Mg2 Mg7 3.255705 1_554
Mg2 Mg6 3.255705 1_555
Mg2 Mg4 3.287199 1_545
Mg2 Mg4 3.364974 1_555
Mg2 Zr0 3.368363 1_655
Mg3 Mg6 3.145339 1_555
Mg3 Mg7 3.145339 1_555
Mg3 Mg5 3.300366 1_545
Mg3 Mg5 3.351807 1_555
Mg4 Zr0 3.195505 1_555
Mg4 Mg9 3.255705 1_554
Mg4 Mg8 3.255705 1_555
Mg4 Zr0 3.368363 1_665
Mg5 Mg8 3.145339 1_555
Mg5 Mg9 3.145339 1_555
Mg6 Mg8 3.179563 1_555
Mg6 Zr0 3.227263 1_555
Mg6 Mg8 3.472610 1_545
Mg7 Mg9 3.179563 1_555
Mg7 Zr0 3.227263 1_556
Mg7 Mg9 3.472610 1_545
Mg8 Zr0 3.227269 1_555
Mg9 Zr0 3.227269 1_556
Mg10 Mg2 3.198064 1_555
Mg10 Mg4 3.198071 1_545
Mg10 Zr0 3.213430 1_655
Mg10 Mg8 3.228090 1_655
Mg10 Mg6 3.228091 1_655
Mg10 Mg3 3.254665 1_555
Mg10 Mg5 3.254672 1_545
Mg10 Mg12 3.330636 1_555
Mg10 Mg12 3.330636 1_545
Mg10 Mg8 3.339094 1_545
Mg10 Mg6 3.339095 1_555
Mg11 Mg2 3.198064 1_556
Mg11 Mg4 3.198071 1_546
Mg11 Zr0 3.213430 1_656
Mg11 Mg9 3.228090 1_655
Mg11 Mg7 3.228091 1_655
Mg11 Mg3 3.254665 1_555
Mg11 Mg5 3.254672 1_545
Mg11 Mg13 3.330636 1_555
Mg11 Mg13 3.330636 1_545
Mg11 Mg9 3.339094 1_545
Mg11 Mg7 3.339095 1_555
Mg12 Mg5 3.124897 1_555
Mg12 Mg3 3.124904 1_555
Mg12 Mg6 3.176482 1_555
Mg12 Mg8 3.176482 1_555
Mg12 Mg4 3.304171 1_555
Mg12 Mg2 3.304178 1_555
Mg12 Mg6 3.386120 1_665
Mg12 Mg8 3.386120 1_655
Mg13 Mg5 3.124897 1_555
Mg13 Mg3 3.124904 1_555
Mg13 Mg7 3.176482 1_555
Mg13 Mg9 3.176482 1_555
Mg13 Mg4 3.304171 1_556
Mg13 Mg2 3.304178 1_556
Mg13 Mg7 3.386120 1_665
Mg13 Mg9 3.386120 1_655
