# generated using pymatgen
data_CaAs(WO2)2
_symmetry_space_group_name_H-M   'P 1'
_cell_length_a   5.50133050
_cell_length_b   6.29317746
_cell_length_c   10.68001433
_cell_angle_alpha   100.67605951
_cell_angle_beta   97.61075198
_cell_angle_gamma   115.12810199
_symmetry_Int_Tables_number   1
_chemical_formula_structural   CaAs(WO2)2
_chemical_formula_sum   'Ca2 As2 W4 O8'
_cell_volume   319.56838130
_cell_formula_units_Z   2
loop_
 _symmetry_equiv_pos_site_id
 _symmetry_equiv_pos_as_xyz
  1  'x, y, z'
loop_
 _atom_site_type_symbol
 _atom_site_label
 _atom_site_symmetry_multiplicity
 _atom_site_fract_x
 _atom_site_fract_y
 _atom_site_fract_z
 _atom_site_occupancy
  Ca  Ca0  1  0.34856500  0.57166300  0.60568300  1
  Ca  Ca1  1  0.24288200  0.96598000  0.39431700  1
  As  As0  1  0.86905400  0.09371300  0.65130100  1
  As  As1  1  0.71775300  0.44241200  0.34869900  1
  W  W0  1  0.15930000  0.01844600  0.92898800  1
  W  W1  1  0.73031200  0.08945800  0.07101200  1
  W  W2  1  0.57847600  0.54262400  0.05430800  1
  W  W3  1  0.02416800  0.48831600  0.94569200  1
  O  O0  1  0.72472000  0.65442000  0.26090100  1
  O  O1  1  0.96381900  0.39351900  0.73909900  1
  O  O2  1  0.11205600  0.14523300  0.56236400  1
  O  O3  1  0.04969200  0.58286900  0.43763600  1
  O  O4  1  0.54389100  0.94725800  0.55422800  1
  O  O5  1  0.48966300  0.39303000  0.44577200  1
  O  O6  1  0.85018400  0.89188900  0.74691700  1
  O  O7  1  0.60326700  0.14497200  0.25308300  1
loop_
_geom_bond_atom_site_label_1
_geom_bond_atom_site_label_2
_geom_bond_distance
_geom_bond_site_symmetry_2
Ca0 O5 2.272430 1_555
Ca0 O3 2.300693 1_555
Ca0 O2 2.350267 1_555
Ca0 O4 2.350373 1_555
Ca0 O6 2.645703 1_555
Ca0 O1 2.672574 1_455
Ca1 O4 2.272430 1_555
Ca1 O2 2.300693 1_565
Ca1 O3 2.350267 1_555
Ca1 O5 2.350372 1_565
Ca1 O7 2.645703 1_565
Ca1 O0 2.672574 1_455
As0 O2 1.696114 1_655
As0 O4 1.696676 1_545
As0 O6 1.750268 1_545
As0 O1 1.757966 1_555
As1 O3 1.696114 1_655
As1 O5 1.696676 1_555
As1 O7 1.750268 1_555
As1 O0 1.757966 1_555
O0 W2 2.117651 1_555
O1 W3 2.117651 1_655
O6 W0 2.169646 1_665
O7 W1 2.169646 1_555
