# generated using pymatgen
data_SrNbO3
_symmetry_space_group_name_H-M   'P 1'
_cell_length_a   5.70922761
_cell_length_b   5.70973949
_cell_length_c   8.19387064
_cell_angle_alpha   90.00000000
_cell_angle_beta   90.00000000
_cell_angle_gamma   90.00000000
_symmetry_Int_Tables_number   1
_chemical_formula_structural   SrNbO3
_chemical_formula_sum   'Sr4 Nb4 O12'
_cell_volume   267.10545309
_cell_formula_units_Z   4
loop_
 _symmetry_equiv_pos_site_id
 _symmetry_equiv_pos_as_xyz
  1  'x, y, z'
loop_
 _atom_site_type_symbol
 _atom_site_label
 _atom_site_symmetry_multiplicity
 _atom_site_fract_x
 _atom_site_fract_y
 _atom_site_fract_z
 _atom_site_occupancy
  Sr  Sr0  1  -0.00000000  -0.00000000  0.00021063  1
  Sr  Sr1  1  -0.00000000  -0.00000000  0.50083206  1
  Sr  Sr2  1  0.50000000  0.50000000  0.49916794  1
  Sr  Sr3  1  0.50000000  0.50000000  -0.00021063  1
  Nb  Nb0  1  0.50000000  -0.00000000  0.24996899  1
  Nb  Nb1  1  0.50000000  -0.00000000  0.74983014  1
  Nb  Nb2  1  -0.00000000  0.50000000  0.25016986  1
  Nb  Nb3  1  -0.00000000  0.50000000  0.75003101  1
  O  O0  1  0.28823381  0.28829012  0.24998955  1
  O  O1  1  0.50000000  -0.00000000  0.49995125  1
  O  O2  1  0.71188178  0.71187182  0.74989253  1
  O  O3  1  0.78823381  0.21170988  0.75001045  1
  O  O4  1  -0.00000000  0.50000000  0.00000750  1
  O  O5  1  -0.00000000  0.50000000  0.50004875  1
  O  O6  1  0.21188178  0.78812818  0.25010747  1
  O  O7  1  0.28811822  0.28812818  0.74989253  1
  O  O8  1  0.50000000  -0.00000000  -0.00000750  1
  O  O9  1  0.71176619  0.71170988  0.24998955  1
  O  O10  1  0.78811822  0.21187182  0.25010747  1
  O  O11  1  0.21176619  0.78829012  0.75001045  1
loop_
_geom_bond_atom_site_label_1
_geom_bond_atom_site_label_2
_geom_bond_distance
_geom_bond_site_symmetry_2
Nb0 O10 2.041876 1_555
Nb0 O6 2.041876 1_545
Nb0 O9 2.042364 1_545
Nb0 O0 2.042364 1_555
Nb0 O8 2.048275 1_555
Nb0 O1 2.048322 1_555
Nb1 O3 2.041860 1_555
Nb1 O11 2.041860 1_545
Nb1 O2 2.042010 1_545
Nb1 O7 2.042010 1_555
Nb1 O1 2.047475 1_555
Nb1 O8 2.049798 1_556
Nb2 O0 2.041860 1_555
Nb2 O9 2.041860 1_455
Nb2 O10 2.042010 1_455
Nb2 O6 2.042010 1_555
Nb2 O5 2.047475 1_555
Nb2 O4 2.049798 1_555
Nb3 O7 2.041876 1_555
Nb3 O2 2.041876 1_455
Nb3 O3 2.042364 1_455
Nb3 O11 2.042364 1_555
Nb3 O4 2.048275 1_556
Nb3 O5 2.048322 1_555
O0 Sr2 2.663012 1_555
O0 Sr3 2.669437 1_555
O0 Sr0 3.099402 1_555
O0 Sr1 3.105164 1_555
O1 Sr1 2.854623 1_655
O1 Sr1 2.854623 1_555
O1 Sr2 2.854877 1_555
O1 Sr2 2.854877 1_545
O2 Sr3 2.668247 1_556
O2 Sr2 2.673455 1_555
O2 Sr1 3.094676 1_665
O2 Sr0 3.101481 1_666
O3 Sr1 2.663012 1_655
O3 Sr0 2.669437 1_656
O3 Sr3 3.099402 1_556
O3 Sr2 3.105164 1_555
O4 Sr3 2.854614 1_455
O4 Sr3 2.854614 1_555
O4 Sr0 2.854870 1_555
O4 Sr0 2.854870 1_565
O5 Sr2 2.854623 1_455
O5 Sr2 2.854623 1_555
O5 Sr1 2.854877 1_555
O5 Sr1 2.854877 1_565
O6 Sr0 2.668247 1_565
O6 Sr1 2.673455 1_565
O6 Sr2 3.094676 1_555
O6 Sr3 3.101481 1_555
O7 Sr3 2.668247 1_556
O7 Sr2 2.673455 1_555
O7 Sr1 3.094676 1_555
O7 Sr0 3.101481 1_556
O8 Sr0 2.854614 1_555
O8 Sr0 2.854614 1_655
O8 Sr3 2.854870 1_555
O8 Sr3 2.854870 1_545
O9 Sr2 2.663012 1_555
O9 Sr3 2.669437 1_555
O9 Sr0 3.099402 1_665
O9 Sr1 3.105164 1_665
O10 Sr0 2.668247 1_655
O10 Sr1 2.673455 1_655
O10 Sr2 3.094676 1_555
O10 Sr3 3.101481 1_555
O11 Sr1 2.663012 1_565
O11 Sr0 2.669437 1_566
O11 Sr3 3.099402 1_556
O11 Sr2 3.105164 1_555
