# generated using pymatgen
data_CeAlGe
_symmetry_space_group_name_H-M   'P 1'
_cell_length_a   4.27007251
_cell_length_b   4.27007251
_cell_length_c   8.02291769
_cell_angle_alpha   105.43335435
_cell_angle_beta   105.43335435
_cell_angle_gamma   90.00000000
_symmetry_Int_Tables_number   1
_chemical_formula_structural   CeAlGe
_chemical_formula_sum   'Ce2 Al2 Ge2'
_cell_volume   135.53091455
_cell_formula_units_Z   2
loop_
 _symmetry_equiv_pos_site_id
 _symmetry_equiv_pos_as_xyz
  1  'x, y, z'
loop_
 _atom_site_type_symbol
 _atom_site_label
 _atom_site_symmetry_multiplicity
 _atom_site_fract_x
 _atom_site_fract_y
 _atom_site_fract_z
 _atom_site_occupancy
  Ce  Ce0  1  0.58183096  0.58183096  0.16366192  1
  Ce  Ce1  1  0.83183096  0.33183096  0.66366192  1
  Al  Al0  1  0.16543332  0.16543332  0.33086664  1
  Al  Al1  1  0.41543332  0.91543332  0.83086664  1
  Ge  Ge0  1  0.99973572  0.99973572  0.99947143  1
  Ge  Ge1  1  0.24973572  0.74973572  0.49947143  1
loop_
_geom_bond_atom_site_label_1
_geom_bond_atom_site_label_2
_geom_bond_distance
_geom_bond_site_symmetry_2
Ce0 Ge0 3.256720 1_444
Ce0 Ge0 3.256721 1_544
Ce0 Ge0 3.256721 1_454
Ce0 Ge0 3.256721 1_554
Ce0 Ge1 3.284640 1_655
Ce0 Ge1 3.284641 1_555
Ce1 Ge1 3.256720 1_545
Ce1 Ge1 3.256721 1_645
Ce1 Ge1 3.256721 1_555
Ce1 Ge1 3.256721 1_655
Ce1 Ge0 3.284640 1_555
Ce1 Ge0 3.284641 1_545
Al0 Ge0 2.463282 1_444
Al0 Ge1 2.475685 1_555
Al0 Ge1 2.475685 1_545
Al0 Ce0 3.265183 1_445
Al0 Ce0 3.265183 1_545
Al0 Ce0 3.265183 1_455
Al0 Ce0 3.265183 1_555
Al0 Ce1 3.267646 1_555
Al0 Ce1 3.267647 1_455
Al1 Ge1 2.463282 1_555
Al1 Ge0 2.475685 1_555
Al1 Ge0 2.475685 1_455
Al1 Ce1 3.265183 1_455
Al1 Ce1 3.265183 1_555
Al1 Ce1 3.265183 1_465
Al1 Ce1 3.265183 1_565
Al1 Ce0 3.267646 1_566
Al1 Ce0 3.267647 1_556
