# generated using pymatgen
data_Ba2GaBiSe5
_symmetry_space_group_name_H-M   'P 1'
_cell_length_a   9.29011400
_cell_length_b   9.45125100
_cell_length_c   12.84130100
_cell_angle_alpha   90.00000000
_cell_angle_beta   90.00000000
_cell_angle_gamma   90.00000000
_symmetry_Int_Tables_number   1
_chemical_formula_structural   Ba2GaBiSe5
_chemical_formula_sum   'Ba8 Ga4 Bi4 Se20'
_cell_volume   1127.50731011
_cell_formula_units_Z   4
loop_
 _symmetry_equiv_pos_site_id
 _symmetry_equiv_pos_as_xyz
  1  'x, y, z'
loop_
 _atom_site_type_symbol
 _atom_site_label
 _atom_site_symmetry_multiplicity
 _atom_site_fract_x
 _atom_site_fract_y
 _atom_site_fract_z
 _atom_site_occupancy
  Ba  Ba0  1  0.00751100  0.11911900  0.82453600  1
  Ba  Ba1  1  0.49248900  0.38088100  0.32453600  1
  Ba  Ba2  1  0.50751100  0.88088100  0.17546400  1
  Ba  Ba3  1  0.99248900  0.61911900  0.67546400  1
  Ba  Ba4  1  0.99248900  0.88088100  0.17546400  1
  Ba  Ba5  1  0.50751100  0.61911900  0.67546400  1
  Ba  Ba6  1  0.49248900  0.11911900  0.82453600  1
  Ba  Ba7  1  0.00751100  0.38088100  0.32453600  1
  Ga  Ga0  1  0.25000000  0.33177600  0.59701900  1
  Ga  Ga1  1  0.25000000  0.16822400  0.09701900  1
  Ga  Ga2  1  0.75000000  0.66822400  0.40298100  1
  Ga  Ga3  1  0.75000000  0.83177600  0.90298100  1
  Bi  Bi0  1  0.25000000  0.97122500  0.52224700  1
  Bi  Bi1  1  0.25000000  0.52877500  0.02224700  1
  Bi  Bi2  1  0.75000000  0.02877500  0.47775300  1
  Bi  Bi3  1  0.75000000  0.47122500  0.97775300  1
  Se  Se0  1  0.04157900  0.17812700  0.55938700  1
  Se  Se1  1  0.45842100  0.32187300  0.05938700  1
  Se  Se2  1  0.54157900  0.82187300  0.44061300  1
  Se  Se3  1  0.95842100  0.67812700  0.94061300  1
  Se  Se4  1  0.95842100  0.82187300  0.44061300  1
  Se  Se5  1  0.54157900  0.67812700  0.94061300  1
  Se  Se6  1  0.45842100  0.17812700  0.55938700  1
  Se  Se7  1  0.04157900  0.32187300  0.05938700  1
  Se  Se8  1  0.25000000  0.87569700  0.72191600  1
  Se  Se9  1  0.25000000  0.62430300  0.22191600  1
  Se  Se10  1  0.75000000  0.12430300  0.27808400  1
  Se  Se11  1  0.75000000  0.37569700  0.77808400  1
  Se  Se12  1  0.25000000  0.39035300  0.78146100  1
  Se  Se13  1  0.25000000  0.10964700  0.28146100  1
  Se  Se14  1  0.75000000  0.60964700  0.21853900  1
  Se  Se15  1  0.75000000  0.89035300  0.71853900  1
  Se  Se16  1  0.25000000  0.96214500  0.99134000  1
  Se  Se17  1  0.25000000  0.53785500  0.49134000  1
  Se  Se18  1  0.75000000  0.03785500  0.00866000  1
  Se  Se19  1  0.75000000  0.46214500  0.50866000  1
loop_
_geom_bond_atom_site_label_1
_geom_bond_atom_site_label_2
_geom_bond_distance
_geom_bond_site_symmetry_2
Ba0 Se16 3.444421 1_545
Ba0 Se18 3.450127 1_456
Ba0 Se12 3.457222 1_555
Ba0 Se11 3.458250 1_455
Ba0 Se0 3.464716 1_555
Ba0 Se8 3.479133 1_545
Ba0 Se15 3.500088 1_445
Ba0 Se7 3.587102 1_556
Ba1 Se17 3.444421 1_555
Ba1 Se19 3.450127 1_555
Ba1 Se13 3.457222 1_555
Ba1 Se10 3.458250 1_555
Ba1 Se1 3.464716 1_555
Ba1 Se9 3.479133 1_555
Ba1 Se14 3.500088 1_555
Ba1 Se6 3.587102 1_555
Ba2 Se18 3.444421 1_565
Ba2 Se16 3.450127 1_554
Ba2 Se14 3.457222 1_555
Ba2 Se9 3.458250 1_555
Ba2 Se2 3.464716 1_555
Ba2 Se10 3.479133 1_565
Ba2 Se13 3.500088 1_565
Ba2 Se5 3.587102 1_554
Ba3 Se19 3.444421 1_555
Ba3 Se17 3.450127 1_655
Ba3 Se15 3.457222 1_555
Ba3 Se8 3.458250 1_655
Ba3 Se3 3.464716 1_555
Ba3 Se11 3.479133 1_555
Ba3 Se12 3.500088 1_655
Ba3 Se4 3.587102 1_555
Ba4 Se18 3.444421 1_565
Ba4 Se16 3.450127 1_654
Ba4 Se14 3.457222 1_555
Ba4 Se9 3.458250 1_655
Ba4 Se4 3.464716 1_555
Ba4 Se10 3.479133 1_565
Ba4 Se13 3.500088 1_665
Ba4 Se3 3.587102 1_554
Ba5 Se19 3.444421 1_555
Ba5 Se17 3.450127 1_555
Ba5 Se15 3.457222 1_555
Ba5 Se8 3.458250 1_555
Ba5 Se5 3.464716 1_555
Ba5 Se11 3.479133 1_555
Ba5 Se12 3.500088 1_555
Ba5 Se2 3.587102 1_555
Ba6 Se16 3.444421 1_545
Ba6 Se18 3.450127 1_556
Ba6 Se12 3.457222 1_555
Ba6 Se11 3.458250 1_555
Ba6 Se6 3.464716 1_555
Ba6 Se8 3.479133 1_545
Ba6 Se15 3.500088 1_545
Ba6 Se1 3.587102 1_556
Ba7 Se17 3.444421 1_555
Ba7 Se19 3.450127 1_455
Ba7 Se13 3.457222 1_555
Ba7 Se10 3.458250 1_455
Ba7 Se7 3.464716 1_555
Ba7 Se9 3.479133 1_555
Ba7 Se14 3.500088 1_455
Ba7 Se0 3.587102 1_555
Ga0 Se17 2.373848 1_555
Ga0 Se12 2.432319 1_555
Ga0 Se0 2.468080 1_555
Ga0 Se6 2.468080 1_555
Ga1 Se16 2.373848 1_544
Ga1 Se13 2.432319 1_555
Ga1 Se7 2.468080 1_555
Ga1 Se1 2.468080 1_555
Ga2 Se19 2.373848 1_555
Ga2 Se14 2.432319 1_555
Ga2 Se4 2.468080 1_555
Ga2 Se2 2.468080 1_555
Ga3 Se18 2.373848 1_566
Ga3 Se15 2.432319 1_555
Ga3 Se5 2.468080 1_555
Ga3 Se3 2.468080 1_555
Bi0 Se8 2.718327 1_555
Bi0 Se0 2.792929 1_565
Bi0 Se6 2.792929 1_565
Bi0 Se4 3.229400 1_455
Bi0 Se2 3.229400 1_555
Bi0 Se13 3.357387 1_565
Bi1 Se9 2.718327 1_555
Bi1 Se7 2.792929 1_555
Bi1 Se1 2.792929 1_555
Bi1 Se5 3.229400 1_554
Bi1 Se3 3.229400 1_454
Bi1 Se12 3.357387 1_554
Bi2 Se10 2.718327 1_555
Bi2 Se2 2.792929 1_545
Bi2 Se4 2.792929 1_545
Bi2 Se6 3.229400 1_555
Bi2 Se0 3.229400 1_655
Bi2 Se15 3.357387 1_545
Bi3 Se11 2.718327 1_555
Bi3 Se3 2.792929 1_555
Bi3 Se5 2.792929 1_555
Bi3 Se1 3.229400 1_556
Bi3 Se7 3.229400 1_656
Bi3 Se14 3.357387 1_556
