# generated using pymatgen
data_OsC2
_symmetry_space_group_name_H-M   'P 1'
_cell_length_a   2.87757024
_cell_length_b   2.87757024
_cell_length_c   7.99429400
_cell_angle_alpha   90.00000000
_cell_angle_beta   90.00000000
_cell_angle_gamma   120.00000555
_symmetry_Int_Tables_number   1
_chemical_formula_structural   OsC2
_chemical_formula_sum   'Os2 C4'
_cell_volume   57.32744554
_cell_formula_units_Z   2
loop_
 _symmetry_equiv_pos_site_id
 _symmetry_equiv_pos_as_xyz
  1  'x, y, z'
loop_
 _atom_site_type_symbol
 _atom_site_label
 _atom_site_symmetry_multiplicity
 _atom_site_fract_x
 _atom_site_fract_y
 _atom_site_fract_z
 _atom_site_occupancy
  Os  Os0  1  0.66666700  0.33333300  0.25000000  1
  Os  Os1  1  0.33333300  0.66666700  0.75000000  1
  C  C0  1  0.00000000  0.00000000  0.41055000  1
  C  C1  1  0.00000000  0.00000000  0.58945000  1
  C  C2  1  0.00000000  0.00000000  0.91055000  1
  C  C3  1  0.00000000  0.00000000  0.08945000  1
loop_
_geom_bond_atom_site_label_1
_geom_bond_atom_site_label_2
_geom_bond_distance
_geom_bond_site_symmetry_2
C0 C1 1.430179 1_555
C0 Os0 2.099396 1_455
C0 Os0 2.099398 1_445
C0 Os0 2.099398 1_555
C1 Os1 2.099396 1_545
C1 Os1 2.099398 1_555
C1 Os1 2.099398 1_445
C2 C3 1.430179 1_556
C2 Os1 2.099396 1_545
C2 Os1 2.099398 1_445
C2 Os1 2.099398 1_555
C3 Os0 2.099396 1_455
C3 Os0 2.099398 1_445
C3 Os0 2.099398 1_555
