# generated using pymatgen
data_LaBe13
_symmetry_space_group_name_H-M   'P 1'
_cell_length_a   7.35919318
_cell_length_b   7.35919318
_cell_length_c   7.35919318
_cell_angle_alpha   60.00000000
_cell_angle_beta   60.00000000
_cell_angle_gamma   60.00000000
_symmetry_Int_Tables_number   1
_chemical_formula_structural   LaBe13
_chemical_formula_sum   'La2 Be26'
_cell_volume   281.82246674
_cell_formula_units_Z   2
loop_
 _symmetry_equiv_pos_site_id
 _symmetry_equiv_pos_as_xyz
  1  'x, y, z'
loop_
 _atom_site_type_symbol
 _atom_site_label
 _atom_site_symmetry_multiplicity
 _atom_site_fract_x
 _atom_site_fract_y
 _atom_site_fract_z
 _atom_site_occupancy
  La  La0  1  0.75000000  0.75000000  0.75000000  1
  La  La1  1  0.25000000  0.25000000  0.25000000  1
  Be  Be0  1  0.50000000  0.50000000  0.50000000  1
  Be  Be1  1  -0.00000000  0.00000000  -0.00000000  1
  Be  Be2  1  0.78742470  0.43702968  0.21257530  1
  Be  Be3  1  0.21257530  0.56297032  0.78742470  1
  Be  Be4  1  0.56297032  0.21257530  0.43702968  1
  Be  Be5  1  0.43702968  0.78742470  0.56297032  1
  Be  Be6  1  0.28742470  0.06297032  0.71257530  1
  Be  Be7  1  0.71257530  0.93702968  0.28742470  1
  Be  Be8  1  0.93702968  0.71257530  0.06297032  1
  Be  Be9  1  0.06297032  0.28742470  0.93702968  1
  Be  Be10  1  0.43702968  0.21257530  0.78742470  1
  Be  Be11  1  0.56297032  0.78742470  0.21257530  1
  Be  Be12  1  0.21257530  0.43702968  0.56297032  1
  Be  Be13  1  0.78742470  0.56297032  0.43702968  1
  Be  Be14  1  0.06297032  0.71257530  0.28742470  1
  Be  Be15  1  0.93702968  0.28742470  0.71257530  1
  Be  Be16  1  0.71257530  0.06297032  0.93702968  1
  Be  Be17  1  0.28742470  0.93702968  0.06297032  1
  Be  Be18  1  0.21257530  0.78742470  0.43702968  1
  Be  Be19  1  0.78742470  0.21257530  0.56297032  1
  Be  Be20  1  0.43702968  0.56297032  0.21257530  1
  Be  Be21  1  0.56297032  0.43702968  0.78742470  1
  Be  Be22  1  0.71257530  0.28742470  0.06297032  1
  Be  Be23  1  0.28742470  0.71257530  0.93702968  1
  Be  Be24  1  0.06297032  0.93702968  0.71257530  1
  Be  Be25  1  0.93702968  0.06297032  0.28742470  1
loop_
_geom_bond_atom_site_label_1
_geom_bond_atom_site_label_2
_geom_bond_distance
_geom_bond_site_symmetry_2
Be0 Be3 2.165382 1_555
Be0 Be10 2.165382 1_555
Be0 Be20 2.165382 1_555
Be0 Be11 2.165382 1_555
Be0 Be2 2.165382 1_555
Be0 Be21 2.165382 1_555
Be0 Be5 2.165382 1_555
Be0 Be18 2.165382 1_555
Be0 Be19 2.165382 1_555
Be0 Be12 2.165382 1_555
Be0 Be4 2.165382 1_555
Be0 Be13 2.165382 1_555
Be1 Be14 2.165382 1_545
Be1 Be17 2.165382 1_545
Be1 Be22 2.165382 1_455
Be1 Be15 2.165382 1_454
Be1 Be9 2.165382 1_554
Be1 Be24 2.165382 1_544
Be1 Be25 2.165382 1_455
Be1 Be8 2.165382 1_445
Be1 Be6 2.165382 1_554
Be1 Be23 2.165382 1_544
Be1 Be7 2.165382 1_445
Be1 Be16 2.165382 1_454
Be2 Be20 2.262383 1_555
Be2 Be25 2.269963 1_555
Be2 Be22 2.269963 1_555
Be2 Be8 2.307398 1_555
Be2 Be9 2.307398 1_654
Be2 Be4 2.336002 1_555
Be2 La0 3.071117 1_554
Be2 La1 3.071117 1_655
Be3 Be9 2.307398 1_555
Be3 Be8 2.307398 1_456
Be3 Be5 2.336002 1_555
Be3 La0 3.071117 1_455
Be3 La1 3.071117 1_556
Be4 Be7 2.307398 1_545
Be4 Be6 2.307398 1_555
Be4 La1 3.071117 1_555
Be4 La0 3.071117 1_545
Be5 Be6 2.307398 1_565
Be5 Be7 2.307398 1_555
Be5 La1 3.071117 1_565
Be5 La0 3.071117 1_555
Be6 Be9 2.336002 1_555
Be6 La1 3.071117 1_555
Be6 La0 3.071117 1_545
Be7 Be8 2.336002 1_555
Be7 La1 3.071117 1_565
Be7 La0 3.071117 1_555
Be8 La0 3.071117 1_554
Be8 La1 3.071117 1_655
Be9 La0 3.071117 1_455
Be9 La1 3.071117 1_556
Be10 Be3 2.262383 1_555
Be10 Be19 2.262383 1_555
Be10 Be4 2.262383 1_555
Be10 Be21 2.262383 1_555
Be10 Be6 2.269963 1_555
Be10 Be9 2.269963 1_555
Be10 Be17 2.307398 1_546
Be10 Be16 2.307398 1_555
Be10 Be12 2.336002 1_555
Be10 La0 3.071117 1_545
Be10 La1 3.071117 1_556
Be11 Be5 2.262383 1_555
Be11 Be2 2.262383 1_555
Be11 Be20 2.262383 1_555
Be11 Be18 2.262383 1_555
Be11 Be8 2.269963 1_555
Be11 Be7 2.269963 1_555
Be11 Be16 2.307398 1_564
Be11 Be17 2.307398 1_555
Be11 Be13 2.336002 1_555
Be11 La0 3.071117 1_554
Be11 La1 3.071117 1_565
Be12 Be3 2.262383 1_555
Be12 Be4 2.262383 1_555
Be12 Be20 2.262383 1_555
Be12 Be18 2.262383 1_555
Be12 Be6 2.269963 1_555
Be12 Be9 2.269963 1_555
Be12 Be14 2.307398 1_555
Be12 Be15 2.307398 1_455
Be12 La1 3.071117 1_555
Be12 La0 3.071117 1_455
Be13 Be5 2.262383 1_555
Be13 Be19 2.262383 1_555
Be13 Be21 2.262383 1_555
Be13 Be2 2.262383 1_555
Be13 Be7 2.269963 1_555
Be13 Be8 2.269963 1_555
Be13 Be14 2.307398 1_655
Be13 Be15 2.307398 1_555
Be13 La1 3.071117 1_655
Be13 La0 3.071117 1_555
Be14 Be7 2.262383 1_455
Be14 Be25 2.262383 1_465
Be14 Be8 2.262383 1_455
Be14 Be23 2.262383 1_554
Be14 Be18 2.269963 1_555
Be14 Be20 2.269963 1_555
Be14 Be17 2.336002 1_555
Be14 La1 3.071117 1_555
Be14 La0 3.071117 1_455
Be15 Be6 2.262383 1_655
Be15 Be24 2.262383 1_645
Be15 Be9 2.262383 1_655
Be15 Be22 2.262383 1_556
Be15 Be21 2.269963 1_555
Be15 Be19 2.269963 1_555
Be15 Be16 2.336002 1_555
Be15 La1 3.071117 1_655
Be15 La0 3.071117 1_555
Be16 Be7 2.262383 1_546
Be16 Be8 2.262383 1_546
Be16 Be24 2.262383 1_645
Be16 Be22 2.262383 1_556
Be16 Be21 2.269963 1_555
Be16 Be19 2.269963 1_555
Be16 La0 3.071117 1_545
Be16 La1 3.071117 1_556
Be17 Be25 2.262383 1_465
Be17 Be9 2.262383 1_564
Be17 Be23 2.262383 1_554
Be17 Be6 2.262383 1_564
Be17 Be18 2.269963 1_555
Be17 Be20 2.269963 1_555
Be17 La0 3.071117 1_554
Be17 La1 3.071117 1_565
Be18 Be5 2.262383 1_555
Be18 Be3 2.262383 1_555
Be18 Be24 2.307398 1_555
Be18 Be25 2.307398 1_465
Be18 Be20 2.336002 1_555
Be18 La1 3.071117 1_565
Be18 La0 3.071117 1_455
Be19 Be4 2.262383 1_555
Be19 Be2 2.262383 1_555
Be19 Be24 2.307398 1_645
Be19 Be25 2.307398 1_555
Be19 Be21 2.336002 1_555
Be19 La0 3.071117 1_545
Be19 La1 3.071117 1_655
Be20 Be4 2.262383 1_555
Be20 Be23 2.307398 1_554
Be20 Be22 2.307398 1_555
Be20 La1 3.071117 1_555
Be20 La0 3.071117 1_554
Be21 Be5 2.262383 1_555
Be21 Be3 2.262383 1_555
Be21 Be23 2.307398 1_555
Be21 Be22 2.307398 1_556
Be21 La0 3.071117 1_555
Be21 La1 3.071117 1_556
Be22 Be9 2.262383 1_654
Be22 Be7 2.262383 1_545
Be22 Be4 2.269963 1_555
Be22 Be25 2.336002 1_555
Be22 La1 3.071117 1_555
Be22 La0 3.071117 1_554
Be23 Be8 2.262383 1_456
Be23 Be6 2.262383 1_565
Be23 Be5 2.269963 1_555
Be23 Be3 2.269963 1_555
Be23 Be24 2.336002 1_555
Be23 La0 3.071117 1_555
Be23 La1 3.071117 1_556
Be24 Be8 2.262383 1_456
Be24 Be6 2.262383 1_565
Be24 Be5 2.269963 1_555
Be24 Be3 2.269963 1_555
Be24 La1 3.071117 1_565
Be24 La0 3.071117 1_455
Be25 Be9 2.262383 1_654
Be25 Be7 2.262383 1_545
Be25 Be4 2.269963 1_555
Be25 La0 3.071117 1_545
Be25 La1 3.071117 1_655
