# generated using pymatgen
data_Al3ZnNi12
_symmetry_space_group_name_H-M   'P 1'
_cell_length_a   3.56964700
_cell_length_b   3.56964700
_cell_length_c   14.26318100
_cell_angle_alpha   90.00000000
_cell_angle_beta   90.00000000
_cell_angle_gamma   90.00000000
_symmetry_Int_Tables_number   1
_chemical_formula_structural   Al3ZnNi12
_chemical_formula_sum   'Al3 Zn1 Ni12'
_cell_volume   181.74686810
_cell_formula_units_Z   1
loop_
 _symmetry_equiv_pos_site_id
 _symmetry_equiv_pos_as_xyz
  1  'x, y, z'
loop_
 _atom_site_type_symbol
 _atom_site_label
 _atom_site_symmetry_multiplicity
 _atom_site_fract_x
 _atom_site_fract_y
 _atom_site_fract_z
 _atom_site_occupancy
  Al  Al0  1  0.00000000  0.00000000  0.24988000  1
  Al  Al1  1  0.00000000  0.00000000  0.50000000  1
  Al  Al2  1  0.00000000  0.00000000  0.75012000  1
  Zn  Zn0  1  0.00000000  0.00000000  0.00000000  1
  Ni  Ni0  1  0.50000000  0.50000000  0.00000000  1
  Ni  Ni1  1  0.50000000  0.50000000  0.25008900  1
  Ni  Ni2  1  0.50000000  0.50000000  0.50000000  1
  Ni  Ni3  1  0.50000000  0.50000000  0.74991100  1
  Ni  Ni4  1  0.50000000  0.00000000  0.12526700  1
  Ni  Ni5  1  0.50000000  0.00000000  0.37497600  1
  Ni  Ni6  1  0.50000000  0.00000000  0.62502400  1
  Ni  Ni7  1  0.50000000  0.00000000  0.87473300  1
  Ni  Ni8  1  0.00000000  0.50000000  0.12526700  1
  Ni  Ni9  1  0.00000000  0.50000000  0.37497600  1
  Ni  Ni10  1  0.00000000  0.50000000  0.62502400  1
  Ni  Ni11  1  0.00000000  0.50000000  0.87473300  1
loop_
_geom_bond_atom_site_label_1
_geom_bond_atom_site_label_2
_geom_bond_distance
_geom_bond_site_symmetry_2
Al0 Ni4 2.518862 1_455
Al0 Ni4 2.518862 1_555
Al0 Ni8 2.518862 1_545
Al0 Ni8 2.518862 1_555
Al0 Ni9 2.523728 1_555
Al0 Ni9 2.523728 1_545
Al0 Ni5 2.523728 1_455
Al0 Ni5 2.523728 1_555
Al0 Ni1 2.524123 1_555
Al0 Ni1 2.524123 1_545
Al0 Ni1 2.524123 1_455
Al0 Ni1 2.524123 1_445
Al1 Ni6 2.523002 1_555
Al1 Ni10 2.523002 1_555
Al1 Ni6 2.523002 1_455
Al1 Ni10 2.523002 1_545
Al1 Ni5 2.523002 1_555
Al1 Ni5 2.523002 1_455
Al1 Ni9 2.523002 1_555
Al1 Ni9 2.523002 1_545
Al1 Ni2 2.524122 1_455
Al1 Ni2 2.524122 1_445
Al1 Ni2 2.524122 1_545
Al1 Ni2 2.524122 1_555
Al2 Ni11 2.518862 1_545
Al2 Ni11 2.518862 1_555
Al2 Ni7 2.518862 1_455
Al2 Ni7 2.518862 1_555
Al2 Ni6 2.523728 1_555
Al2 Ni10 2.523728 1_545
Al2 Ni10 2.523728 1_555
Al2 Ni6 2.523728 1_455
Al2 Ni3 2.524123 1_545
Al2 Ni3 2.524123 1_455
Al2 Ni3 2.524123 1_555
Al2 Ni3 2.524123 1_445
Ni0 Zn0 2.524122 1_655
Ni0 Zn0 2.524122 1_555
Ni0 Zn0 2.524122 1_665
Ni0 Zn0 2.524122 1_565
Ni0 Ni4 2.525453 1_555
Ni0 Ni11 2.525453 1_654
Ni0 Ni7 2.525453 1_554
Ni0 Ni8 2.525453 1_655
Ni0 Ni11 2.525453 1_554
Ni0 Ni7 2.525453 1_564
Ni0 Ni4 2.525453 1_565
Ni0 Ni8 2.525453 1_555
Ni1 Ni8 2.520967 1_655
Ni1 Ni4 2.520967 1_565
Ni1 Ni4 2.520967 1_555
Ni1 Ni8 2.520967 1_555
Ni1 Ni5 2.521621 1_565
Ni1 Ni5 2.521621 1_555
Ni1 Ni9 2.521621 1_555
Ni1 Ni9 2.521621 1_655
Ni2 Ni6 2.523002 1_565
Ni2 Ni6 2.523002 1_555
Ni2 Ni9 2.523002 1_655
Ni2 Ni5 2.523002 1_565
Ni2 Ni5 2.523002 1_555
Ni2 Ni9 2.523002 1_555
Ni3 Ni7 2.520967 1_555
Ni3 Ni7 2.520967 1_565
Ni3 Ni6 2.521621 1_565
Ni3 Ni6 2.521621 1_555
Ni4 Ni8 2.524122 1_555
Ni4 Ni8 2.524122 1_545
Ni4 Ni8 2.524122 1_645
Ni4 Ni8 2.524122 1_655
Ni4 Zn0 2.525453 1_555
Ni4 Zn0 2.525453 1_655
Ni5 Ni9 2.524122 1_655
Ni5 Ni9 2.524122 1_645
Ni5 Ni9 2.524122 1_555
Ni5 Ni9 2.524122 1_545
Ni7 Zn0 2.525453 1_656
Ni7 Zn0 2.525453 1_556
Ni8 Zn0 2.525453 1_565
Ni8 Zn0 2.525453 1_555
Ni10 Ni3 2.521621 1_455
Ni10 Ni3 2.521621 1_555
Ni10 Ni2 2.523002 1_455
Ni10 Ni2 2.523002 1_555
Ni10 Ni6 2.524122 1_455
Ni10 Ni6 2.524122 1_465
Ni10 Ni6 2.524122 1_565
Ni10 Ni6 2.524122 1_555
Ni11 Ni3 2.520967 1_555
Ni11 Ni3 2.520967 1_455
Ni11 Ni7 2.524122 1_455
Ni11 Ni7 2.524122 1_465
Ni11 Ni7 2.524122 1_565
Ni11 Ni7 2.524122 1_555
Ni11 Zn0 2.525453 1_556
Ni11 Zn0 2.525453 1_566
