# generated using pymatgen
data_Ni3(SbTe)2
_symmetry_space_group_name_H-M   'P 1'
_cell_length_a   6.46925017
_cell_length_b   6.46925017
_cell_length_c   6.74282924
_cell_angle_alpha   59.44212632
_cell_angle_beta   59.44212632
_cell_angle_gamma   35.65311040
_symmetry_Int_Tables_number   1
_chemical_formula_structural   Ni3(SbTe)2
_chemical_formula_sum   'Ni3 Sb2 Te2'
_cell_volume   139.06445875
_cell_formula_units_Z   1
loop_
 _symmetry_equiv_pos_site_id
 _symmetry_equiv_pos_as_xyz
  1  'x, y, z'
loop_
 _atom_site_type_symbol
 _atom_site_label
 _atom_site_symmetry_multiplicity
 _atom_site_fract_x
 _atom_site_fract_y
 _atom_site_fract_z
 _atom_site_occupancy
  Ni  Ni0  1  0.25402000  0.25402000  0.73675600  1
  Ni  Ni1  1  0.74607000  0.74607000  0.26337900  1
  Ni  Ni2  1  0.99648000  0.99648000  0.00273300  1
  Sb  Sb0  1  0.87302300  0.87302300  0.46665100  1
  Sb  Sb1  1  0.37015100  0.37015100  0.96461400  1
  Te  Te0  1  0.12954000  0.12954000  0.52921800  1
  Te  Te1  1  0.62795600  0.62795600  0.03665000  1
loop_
_geom_bond_atom_site_label_1
_geom_bond_atom_site_label_2
_geom_bond_distance
_geom_bond_site_symmetry_2
Ni0 Sb0 2.556649 1_545
Ni0 Sb0 2.556649 1_455
Ni0 Te0 2.569226 1_555
Ni0 Sb1 2.598849 1_555
Ni0 Te1 2.658696 1_456
Ni0 Te1 2.658696 1_546
Ni0 Ni2 2.683782 1_446
Ni1 Te0 2.539190 1_655
Ni1 Te0 2.539190 1_565
Ni1 Sb0 2.571588 1_555
Ni1 Ni2 2.610024 1_555
Ni1 Te1 2.613314 1_555
Ni1 Sb1 2.651011 1_654
Ni1 Sb1 2.651011 1_564
Ni2 Sb1 2.614719 1_654
Ni2 Sb1 2.614719 1_564
Ni2 Te1 2.644372 1_565
Ni2 Te1 2.644372 1_655
Ni2 Sb0 2.648925 1_555
Ni2 Te0 2.700201 1_664
