# generated using pymatgen
data_CsKMg6
_symmetry_space_group_name_H-M   'P 1'
_cell_length_a   5.12658500
_cell_length_b   6.67100700
_cell_length_c   16.28991200
_cell_angle_alpha   90.00000000
_cell_angle_beta   90.00000000
_cell_angle_gamma   90.00000000
_symmetry_Int_Tables_number   1
_chemical_formula_structural   CsKMg6
_chemical_formula_sum   'Cs2 K2 Mg12'
_cell_volume   557.10659167
_cell_formula_units_Z   2
loop_
 _symmetry_equiv_pos_site_id
 _symmetry_equiv_pos_as_xyz
  1  'x, y, z'
loop_
 _atom_site_type_symbol
 _atom_site_label
 _atom_site_symmetry_multiplicity
 _atom_site_fract_x
 _atom_site_fract_y
 _atom_site_fract_z
 _atom_site_occupancy
  Cs  Cs0  1  0.00000000  0.50000000  0.31323300  1
  Cs  Cs1  1  0.00000000  0.00000000  0.81323300  1
  K  K0  1  0.00000000  0.00000000  0.32178400  1
  K  K1  1  0.00000000  0.50000000  0.82178400  1
  Mg  Mg0  1  0.00000000  0.75156700  0.07772100  1
  Mg  Mg1  1  0.00000000  0.24843300  0.07772100  1
  Mg  Mg2  1  0.50000000  0.24825500  0.46964700  1
  Mg  Mg3  1  0.50000000  0.75174500  0.46964700  1
  Mg  Mg4  1  0.50000000  0.00000000  0.13814600  1
  Mg  Mg5  1  0.50000000  0.50000000  0.13029300  1
  Mg  Mg6  1  0.00000000  0.25156700  0.57772100  1
  Mg  Mg7  1  0.00000000  0.74843300  0.57772100  1
  Mg  Mg8  1  0.50000000  0.74825500  0.96964700  1
  Mg  Mg9  1  0.50000000  0.25174500  0.96964700  1
  Mg  Mg10  1  0.50000000  0.50000000  0.63814600  1
  Mg  Mg11  1  0.50000000  0.00000000  0.63029300  1
loop_
_geom_bond_atom_site_label_1
_geom_bond_atom_site_label_2
_geom_bond_distance
_geom_bond_site_symmetry_2
Cs0 K0 3.338411 1_555
Cs0 K0 3.338411 1_565
Cs0 Mg5 3.930817 1_455
Cs0 Mg5 3.930817 1_555
Cs0 Mg3 3.985346 1_455
Cs0 Mg3 3.985346 1_555
Cs0 Mg2 3.985346 1_455
Cs0 Mg2 3.985346 1_555
Cs0 Mg1 4.187466 1_555
Cs0 Mg0 4.187466 1_555
Cs1 K1 3.338411 1_555
Cs1 K1 3.338411 1_545
Cs1 Mg11 3.930817 1_455
Cs1 Mg11 3.930817 1_555
Cs1 Mg8 3.985346 1_445
Cs1 Mg8 3.985346 1_545
Cs1 Mg9 3.985346 1_555
Cs1 Mg9 3.985346 1_455
Cs1 Mg6 4.187466 1_555
Cs1 Mg7 4.187466 1_545
K0 Mg2 3.887787 1_455
K0 Mg2 3.887787 1_555
K0 Mg3 3.887787 1_545
K0 Mg3 3.887787 1_445
K0 Mg4 3.939444 1_555
K0 Mg4 3.939444 1_455
K1 Mg8 3.887787 1_455
K1 Mg8 3.887787 1_555
K1 Mg9 3.887787 1_555
K1 Mg9 3.887787 1_455
K1 Mg10 3.939444 1_455
K1 Mg10 3.939444 1_555
Mg0 Mg8 3.109722 1_554
Mg0 Mg8 3.109722 1_454
Mg0 Mg5 3.181234 1_455
Mg0 Mg5 3.181234 1_555
Mg0 Mg4 3.207178 1_565
Mg0 Mg4 3.207178 1_465
Mg0 Mg1 3.314597 1_565
Mg0 Mg1 3.356410 1_555
Mg1 Mg9 3.109722 1_454
Mg1 Mg9 3.109722 1_554
Mg1 Mg5 3.181234 1_455
Mg1 Mg5 3.181234 1_555
Mg1 Mg4 3.207178 1_555
Mg1 Mg4 3.207178 1_455
Mg2 Mg6 3.109722 1_555
Mg2 Mg6 3.109722 1_655
Mg2 Mg3 3.312222 1_545
Mg2 Mg3 3.358785 1_555
Mg3 Mg7 3.109722 1_655
Mg3 Mg7 3.109722 1_555
Mg4 Mg9 3.217837 1_554
Mg4 Mg8 3.217837 1_544
Mg4 Mg5 3.337956 1_545
Mg4 Mg5 3.337956 1_555
Mg5 Mg8 3.096921 1_554
Mg5 Mg9 3.096921 1_554
Mg6 Mg7 3.314597 1_555
Mg6 Mg7 3.356410 1_545
Mg8 Mg9 3.312222 1_555
Mg8 Mg9 3.358785 1_565
Mg10 Mg6 3.207178 1_555
Mg10 Mg6 3.207178 1_655
Mg10 Mg7 3.207178 1_555
Mg10 Mg7 3.207178 1_655
Mg10 Mg3 3.217837 1_555
Mg10 Mg2 3.217837 1_555
Mg10 Mg11 3.337956 1_565
Mg10 Mg11 3.337956 1_555
Mg11 Mg2 3.096921 1_555
Mg11 Mg3 3.096921 1_545
Mg11 Mg6 3.181234 1_555
Mg11 Mg6 3.181234 1_655
Mg11 Mg7 3.181234 1_545
Mg11 Mg7 3.181234 1_645
