# generated using pymatgen
data_NaHf8(NCl)8
_symmetry_space_group_name_H-M   'P 1'
_cell_length_a   3.63272800
_cell_length_b   6.23039700
_cell_length_c   19.81168794
_cell_angle_alpha   84.17737463
_cell_angle_beta   90.00000000
_cell_angle_gamma   90.00000000
_symmetry_Int_Tables_number   1
_chemical_formula_structural   NaHf8(NCl)8
_chemical_formula_sum   'Na1 Hf8 N8 Cl8'
_cell_volume   446.09117961
_cell_formula_units_Z   1
loop_
 _symmetry_equiv_pos_site_id
 _symmetry_equiv_pos_as_xyz
  1  'x, y, z'
loop_
 _atom_site_type_symbol
 _atom_site_label
 _atom_site_symmetry_multiplicity
 _atom_site_fract_x
 _atom_site_fract_y
 _atom_site_fract_z
 _atom_site_occupancy
  Na  Na0  1  0.00000000  0.00000000  0.00000000  1
  Hf  Hf0  1  0.50000000  0.60662500  0.67876500  1
  Hf  Hf1  1  0.00000000  0.10553800  0.67928800  1
  Hf  Hf2  1  0.50000000  0.39337500  0.32123500  1
  Hf  Hf3  1  0.00000000  0.89446200  0.32071200  1
  Hf  Hf4  1  0.00000000  0.40020300  0.80648700  1
  Hf  Hf5  1  0.50000000  0.89748500  0.80777500  1
  Hf  Hf6  1  0.00000000  0.59979700  0.19351300  1
  Hf  Hf7  1  0.50000000  0.10251500  0.19222500  1
  N  N0  1  0.50000000  0.56818200  0.78978100  1
  N  N1  1  0.00000000  0.06999900  0.79038200  1
  N  N2  1  0.50000000  0.43181800  0.21021900  1
  N  N3  1  0.00000000  0.93000100  0.20961800  1
  N  N4  1  0.00000000  0.43436100  0.69998000  1
  N  N5  1  0.50000000  0.93418600  0.70055500  1
  N  N6  1  0.00000000  0.56563900  0.30002000  1
  N  N7  1  0.50000000  0.06581400  0.29944500  1
  Cl  Cl0  1  0.50000000  0.80286500  0.09064900  1
  Cl  Cl1  1  0.00000000  0.30292300  0.09282300  1
  Cl  Cl2  1  0.50000000  0.19713500  0.90935100  1
  Cl  Cl3  1  0.00000000  0.69707700  0.90717700  1
  Cl  Cl4  1  0.50000000  0.69564700  0.41302000  1
  Cl  Cl5  1  0.00000000  0.19547900  0.41306900  1
  Cl  Cl6  1  0.50000000  0.30435300  0.58698000  1
  Cl  Cl7  1  0.00000000  0.80452100  0.58693100  1
loop_
_geom_bond_atom_site_label_1
_geom_bond_atom_site_label_2
_geom_bond_distance
_geom_bond_site_symmetry_2
Hf0 N5 2.128410 1_555
Hf0 N4 2.129841 1_555
Hf0 N4 2.129841 1_655
Hf0 N0 2.188128 1_555
Hf1 N5 2.127248 1_545
Hf1 N5 2.127248 1_445
Hf1 N4 2.129700 1_555
Hf1 N1 2.189605 1_555
Hf2 N7 2.128410 1_555
Hf2 N6 2.129841 1_655
Hf2 N6 2.129841 1_555
Hf2 N2 2.188128 1_555
Hf3 N7 2.127248 1_565
Hf3 N7 2.127248 1_465
Hf3 N6 2.129700 1_555
Hf3 N3 2.189605 1_555
Hf4 N4 2.099197 1_555
Hf4 N0 2.105650 1_455
Hf4 N0 2.105650 1_555
Hf4 N1 2.113642 1_555
Hf5 N5 2.113291 1_555
Hf5 N0 2.117761 1_555
Hf5 N1 2.120856 1_665
Hf5 N1 2.120856 1_565
Hf6 N6 2.099197 1_555
Hf6 N2 2.105650 1_555
Hf6 N2 2.105650 1_455
Hf6 N3 2.113642 1_555
Hf7 N7 2.113291 1_555
Hf7 N2 2.117761 1_555
Hf7 N3 2.120856 1_545
Hf7 N3 2.120856 1_645
Cl0 Na0 2.754173 1_565
Cl0 Na0 2.754173 1_665
Cl0 Hf7 2.880533 1_565
Cl0 Hf6 2.920587 1_555
Cl0 Hf6 2.920587 1_655
Cl1 Na0 2.765516 1_555
Cl1 Hf6 2.854681 1_555
Cl1 Hf7 2.870113 1_555
Cl1 Hf7 2.870113 1_455
Cl2 Na0 2.754173 1_656
Cl2 Na0 2.754173 1_556
Cl2 Hf5 2.880533 1_545
Cl2 Hf4 2.920587 1_655
Cl2 Hf4 2.920587 1_555
Cl3 Na0 2.765516 1_566
Cl3 Hf4 2.854681 1_555
Cl3 Hf5 2.870113 1_455
Cl3 Hf5 2.870113 1_555
Cl4 Hf2 2.747399 1_555
Cl4 Hf3 2.778191 1_655
Cl4 Hf3 2.778191 1_555
Cl5 Hf3 2.749833 1_545
Cl5 Hf2 2.770273 1_555
Cl5 Hf2 2.770273 1_455
Cl6 Hf0 2.747399 1_555
Cl6 Hf1 2.778191 1_555
Cl6 Hf1 2.778191 1_655
Cl7 Hf1 2.749833 1_565
Cl7 Hf0 2.770273 1_555
Cl7 Hf0 2.770273 1_455
