# generated using pymatgen
data_UB4Mo
_symmetry_space_group_name_H-M   'P 1'
_cell_length_a   3.67240800
_cell_length_b   5.94484244
_cell_length_c   5.94484244
_cell_angle_alpha   103.78941931
_cell_angle_beta   90.00000000
_cell_angle_gamma   90.00000000
_symmetry_Int_Tables_number   1
_chemical_formula_structural   UB4Mo
_chemical_formula_sum   'U2 B8 Mo2'
_cell_volume   126.04644407
_cell_formula_units_Z   2
loop_
 _symmetry_equiv_pos_site_id
 _symmetry_equiv_pos_as_xyz
  1  'x, y, z'
loop_
 _atom_site_type_symbol
 _atom_site_label
 _atom_site_symmetry_multiplicity
 _atom_site_fract_x
 _atom_site_fract_y
 _atom_site_fract_z
 _atom_site_occupancy
  U  U0  1  0.00000000  0.30100800  0.69899200  1
  U  U1  1  0.00000000  0.69899200  0.30100800  1
  B  B0  1  0.50000000  0.93516500  0.61644300  1
  B  B1  1  0.50000000  0.06483500  0.38355700  1
  B  B2  1  0.50000000  0.61644300  0.93516500  1
  B  B3  1  0.50000000  0.38355700  0.06483500  1
  B  B4  1  0.50000000  0.61982400  0.61982400  1
  B  B5  1  0.50000000  0.38017600  0.38017600  1
  B  B6  1  0.50000000  0.09315500  0.90684500  1
  B  B7  1  0.50000000  0.90684500  0.09315500  1
  Mo  Mo0  1  0.00000000  0.81741400  0.81741400  1
  Mo  Mo1  1  0.00000000  0.18258600  0.18258600  1
loop_
_geom_bond_atom_site_label_1
_geom_bond_atom_site_label_2
_geom_bond_distance
_geom_bond_site_symmetry_2
B0 B1 1.737746 1_565
B0 B6 1.757729 1_565
B0 B4 1.879545 1_555
B0 Mo0 2.384901 1_655
B0 Mo0 2.384901 1_555
B0 U1 2.757576 1_655
B0 U1 2.757576 1_555
B0 U0 2.798889 1_565
B0 U0 2.798889 1_665
B1 B7 1.757729 1_545
B1 B5 1.879545 1_555
B1 Mo1 2.384901 1_555
B1 Mo1 2.384901 1_655
B1 U0 2.757576 1_655
B1 U0 2.757576 1_555
B1 U1 2.798889 1_645
B1 U1 2.798889 1_545
B2 B3 1.737746 1_556
B2 B7 1.757729 1_556
B2 B4 1.879545 1_555
B2 Mo0 2.384901 1_655
B2 Mo0 2.384901 1_555
B2 U0 2.757576 1_655
B2 U0 2.757576 1_555
B2 U1 2.798889 1_556
B2 U1 2.798889 1_656
B3 B6 1.757729 1_554
B3 B5 1.879545 1_555
B3 Mo1 2.384901 1_555
B3 Mo1 2.384901 1_655
B3 U1 2.757576 1_555
B3 U1 2.757576 1_655
B3 U0 2.798889 1_654
B3 U0 2.798889 1_554
B4 B5 1.758352 1_555
B4 Mo0 2.339542 1_655
B4 Mo0 2.339542 1_555
B4 U1 2.758728 1_555
B4 U1 2.758728 1_655
B4 U0 2.758728 1_655
B4 U0 2.758728 1_555
B5 Mo1 2.339542 1_555
B5 Mo1 2.339542 1_655
B5 U1 2.758728 1_555
B5 U0 2.758728 1_655
B5 U0 2.758728 1_555
B5 U1 2.758728 1_655
B6 B7 1.743066 1_546
B6 Mo1 2.434326 1_656
B6 Mo1 2.434326 1_556
B6 Mo0 2.434326 1_545
B6 Mo0 2.434326 1_645
B6 U0 2.674543 1_655
B6 U0 2.674543 1_555
B7 Mo0 2.434326 1_654
B7 Mo1 2.434326 1_665
B7 Mo0 2.434326 1_554
B7 Mo1 2.434326 1_565
B7 U1 2.674543 1_655
B7 U1 2.674543 1_555
Mo0 Mo1 2.679349 1_566
Mo0 U0 2.981600 1_555
Mo0 U1 2.981600 1_555
Mo0 U1 3.118562 1_556
Mo0 U0 3.118562 1_565
Mo1 U0 2.981600 1_555
Mo1 U1 2.981600 1_555
Mo1 U0 3.118562 1_554
Mo1 U1 3.118562 1_545
