# generated using pymatgen
data_Mo2H13CN3O13
_symmetry_space_group_name_H-M   'P 1'
_cell_length_a   6.22090700
_cell_length_b   12.22915600
_cell_length_c   17.05391400
_cell_angle_alpha   90.00000000
_cell_angle_beta   90.00000000
_cell_angle_gamma   90.00000000
_symmetry_Int_Tables_number   1
_chemical_formula_structural   Mo2H13CN3O13
_chemical_formula_sum   'Mo8 H52 C4 N12 O52'
_cell_volume   1297.40110210
_cell_formula_units_Z   4
loop_
 _symmetry_equiv_pos_site_id
 _symmetry_equiv_pos_as_xyz
  1  'x, y, z'
loop_
 _atom_site_type_symbol
 _atom_site_label
 _atom_site_symmetry_multiplicity
 _atom_site_fract_x
 _atom_site_fract_y
 _atom_site_fract_z
 _atom_site_occupancy
  Mo  Mo0  1  0.70139200  0.25768200  0.86045600  1
  Mo  Mo1  1  0.29860800  0.74231800  0.36045600  1
  Mo  Mo2  1  0.70139200  0.24231800  0.13954400  1
  Mo  Mo3  1  0.29860800  0.75768200  0.63954400  1
  Mo  Mo4  1  0.29860800  0.74231800  0.13954400  1
  Mo  Mo5  1  0.70139200  0.25768200  0.63954400  1
  Mo  Mo6  1  0.29860800  0.75768200  0.86045600  1
  Mo  Mo7  1  0.70139200  0.24231800  0.36045600  1
  H  H0  1  0.39550200  0.10491300  0.95564400  1
  H  H1  1  0.60449800  0.89508700  0.45564400  1
  H  H2  1  0.39550200  0.39508700  0.04435600  1
  H  H3  1  0.60449800  0.60491300  0.54435600  1
  H  H4  1  0.60449800  0.89508700  0.04435600  1
  H  H5  1  0.39550200  0.10491300  0.54435600  1
  H  H6  1  0.60449800  0.60491300  0.95564400  1
  H  H7  1  0.39550200  0.39508700  0.45564400  1
  H  H8  1  0.16426900  0.12548700  0.90303700  1
  H  H9  1  0.83573100  0.87451300  0.40303700  1
  H  H10  1  0.16426900  0.37451300  0.09696300  1
  H  H11  1  0.83573100  0.62548700  0.59696300  1
  H  H12  1  0.83573100  0.87451300  0.09696300  1
  H  H13  1  0.16426900  0.12548700  0.59696300  1
  H  H14  1  0.83573100  0.62548700  0.90303700  1
  H  H15  1  0.16426900  0.37451300  0.40303700  1
  H  H16  1  0.20785200  0.00583300  0.94816400  1
  H  H17  1  0.79214800  0.99416700  0.44816400  1
  H  H18  1  0.20785200  0.49416700  0.05183600  1
  H  H19  1  0.79214800  0.50583300  0.55183600  1
  H  H20  1  0.79214800  0.99416700  0.05183600  1
  H  H21  1  0.20785200  0.00583300  0.55183600  1
  H  H22  1  0.79214800  0.50583300  0.94816400  1
  H  H23  1  0.20785200  0.49416700  0.44816400  1
  H  H24  1  0.15357700  0.11902900  0.00211000  1
  H  H25  1  0.84642300  0.88097100  0.50211000  1
  H  H26  1  0.15357700  0.38097100  0.99789000  1
  H  H27  1  0.84642300  0.61902900  0.49789000  1
  H  H28  1  0.84642300  0.88097100  0.99789000  1
  H  H29  1  0.15357700  0.11902900  0.49789000  1
  H  H30  1  0.84642300  0.61902900  0.00211000  1
  H  H31  1  0.15357700  0.38097100  0.50211000  1
  H  H32  1  0.14982000  0.39141600  0.79930200  1
  H  H33  1  0.85018000  0.60858400  0.29930200  1
  H  H34  1  0.14982000  0.10858400  0.20069800  1
  H  H35  1  0.85018000  0.89141600  0.70069800  1
  H  H36  1  0.85018000  0.60858400  0.20069800  1
  H  H37  1  0.14982000  0.39141600  0.70069800  1
  H  H38  1  0.85018000  0.89141600  0.79930200  1
  H  H39  1  0.14982000  0.10858400  0.29930200  1
  H  H40  1  0.38460300  0.36344500  0.75000000  1
  H  H41  1  0.61539700  0.63655500  0.25000000  1
  H  H42  1  0.38460300  0.13655500  0.25000000  1
  H  H43  1  0.61539700  0.86344500  0.75000000  1
  H  H44  1  0.28208700  0.49086400  0.75000000  1
  H  H45  1  0.71791300  0.50913600  0.25000000  1
  H  H46  1  0.28208700  0.00913600  0.25000000  1
  H  H47  1  0.71791300  0.99086400  0.75000000  1
  H  H48  1  0.24698200  0.09547400  0.75000000  1
  H  H49  1  0.75301800  0.90452600  0.25000000  1
  H  H50  1  0.24698200  0.40452600  0.25000000  1
  H  H51  1  0.75301800  0.59547400  0.75000000  1
  C  C0  1  0.09851500  0.14517200  0.75000000  1
  C  C1  1  0.90148500  0.85482800  0.25000000  1
  C  C2  1  0.09851500  0.35482800  0.25000000  1
  C  C3  1  0.90148500  0.64517200  0.75000000  1
  N  N0  1  0.23124200  0.08884700  0.95302100  1
  N  N1  1  0.76875800  0.91115300  0.45302100  1
  N  N2  1  0.23124200  0.41115300  0.04697900  1
  N  N3  1  0.76875800  0.58884700  0.54697900  1
  N  N4  1  0.76875800  0.91115300  0.04697900  1
  N  N5  1  0.23124200  0.08884700  0.54697900  1
  N  N6  1  0.76875800  0.58884700  0.95302100  1
  N  N7  1  0.23124200  0.41115300  0.45302100  1
  N  N8  1  0.24261000  0.40895700  0.75000000  1
  N  N9  1  0.75739000  0.59104300  0.25000000  1
  N  N10  1  0.24261000  0.09104300  0.25000000  1
  N  N11  1  0.75739000  0.90895700  0.75000000  1
  O  O0  1  0.60197500  0.10672700  0.83861000  1
  O  O1  1  0.39802500  0.89327300  0.33861000  1
  O  O2  1  0.60197500  0.39327300  0.16139000  1
  O  O3  1  0.39802500  0.60672700  0.66139000  1
  O  O4  1  0.39802500  0.89327300  0.16139000  1
  O  O5  1  0.60197500  0.10672700  0.66139000  1
  O  O6  1  0.39802500  0.60672700  0.83861000  1
  O  O7  1  0.60197500  0.39327300  0.33861000  1
  O  O8  1  0.68571600  0.11564100  0.91938100  1
  O  O9  1  0.31428400  0.88435900  0.41938100  1
  O  O10  1  0.68571600  0.38435900  0.08061900  1
  O  O11  1  0.31428400  0.61564100  0.58061900  1
  O  O12  1  0.31428400  0.88435900  0.08061900  1
  O  O13  1  0.68571600  0.11564100  0.58061900  1
  O  O14  1  0.31428400  0.61564100  0.91938100  1
  O  O15  1  0.68571600  0.38435900  0.41938100  1
  O  O16  1  0.92308200  0.31825100  0.93437500  1
  O  O17  1  0.07691800  0.68174900  0.43437500  1
  O  O18  1  0.92308200  0.18174900  0.06562500  1
  O  O19  1  0.07691800  0.81825100  0.56562500  1
  O  O20  1  0.07691800  0.68174900  0.06562500  1
  O  O21  1  0.92308200  0.31825100  0.56562500  1
  O  O22  1  0.07691800  0.81825100  0.93437500  1
  O  O23  1  0.92308200  0.18174900  0.43437500  1
  O  O24  1  0.91006100  0.38332000  0.86169300  1
  O  O25  1  0.08993900  0.61668000  0.36169300  1
  O  O26  1  0.91006100  0.11668000  0.13830700  1
  O  O27  1  0.08993900  0.88332000  0.63830700  1
  O  O28  1  0.08993900  0.61668000  0.13830700  1
  O  O29  1  0.91006100  0.38332000  0.63830700  1
  O  O30  1  0.08993900  0.88332000  0.86169300  1
  O  O31  1  0.91006100  0.11668000  0.36169300  1
  O  O32  1  0.47241800  0.31806600  0.89793200  1
  O  O33  1  0.52758200  0.68193400  0.39793200  1
  O  O34  1  0.47241800  0.18193400  0.10206800  1
  O  O35  1  0.52758200  0.81806600  0.60206800  1
  O  O36  1  0.52758200  0.68193400  0.10206800  1
  O  O37  1  0.47241800  0.31806600  0.60206800  1
  O  O38  1  0.52758200  0.81806600  0.89793200  1
  O  O39  1  0.47241800  0.18193400  0.39793200  1
  O  O40  1  0.64298900  0.29217600  0.75000000  1
  O  O41  1  0.35701100  0.70782400  0.25000000  1
  O  O42  1  0.64298900  0.20782400  0.25000000  1
  O  O43  1  0.35701100  0.79217600  0.75000000  1
  O  O44  1  0.02311400  0.17120700  0.81663500  1
  O  O45  1  0.97688600  0.82879300  0.31663500  1
  O  O46  1  0.02311400  0.32879300  0.18336500  1
  O  O47  1  0.97688600  0.67120700  0.68336500  1
  O  O48  1  0.97688600  0.82879300  0.18336500  1
  O  O49  1  0.02311400  0.17120700  0.68336500  1
  O  O50  1  0.97688600  0.67120700  0.81663500  1
  O  O51  1  0.02311400  0.32879300  0.31663500  1
loop_
_geom_bond_atom_site_label_1
_geom_bond_atom_site_label_2
_geom_bond_distance
_geom_bond_site_symmetry_2
Mo0 O32 1.727066 1_555
Mo0 O40 1.964255 1_555
Mo0 O0 1.982223 1_555
Mo0 O8 2.009142 1_555
Mo0 O16 2.009909 1_555
Mo0 O24 2.011518 1_555
Mo0 O44 2.383787 1_655
Mo1 O33 1.727066 1_555
Mo1 O41 1.964255 1_555
Mo1 O1 1.982223 1_555
Mo1 O9 2.009142 1_555
Mo1 O17 2.009909 1_555
Mo1 O25 2.011518 1_555
Mo1 O45 2.383787 1_455
Mo2 O34 1.727066 1_555
Mo2 O42 1.964255 1_555
Mo2 O2 1.982223 1_555
Mo2 O10 2.009142 1_555
Mo2 O18 2.009909 1_555
Mo2 O26 2.011518 1_555
Mo2 O46 2.383787 1_655
Mo3 O35 1.727066 1_555
Mo3 O43 1.964255 1_555
Mo3 O3 1.982223 1_555
Mo3 O11 2.009142 1_555
Mo3 O19 2.009909 1_555
Mo3 O27 2.011518 1_555
Mo3 O47 2.383787 1_455
Mo4 O36 1.727066 1_555
Mo4 O41 1.964255 1_555
Mo4 O4 1.982223 1_555
Mo4 O12 2.009142 1_555
Mo4 O20 2.009909 1_555
Mo4 O28 2.011518 1_555
Mo4 O48 2.383787 1_455
Mo5 O37 1.727066 1_555
Mo5 O40 1.964255 1_555
Mo5 O5 1.982223 1_555
Mo5 O13 2.009142 1_555
Mo5 O21 2.009909 1_555
Mo5 O29 2.011518 1_555
Mo5 O49 2.383787 1_655
Mo6 O38 1.727066 1_555
Mo6 O43 1.964255 1_555
Mo6 O6 1.982223 1_555
Mo6 O14 2.009142 1_555
Mo6 O22 2.009909 1_555
Mo6 O30 2.011518 1_555
Mo6 O50 2.383787 1_455
Mo7 O39 1.727066 1_555
Mo7 O42 1.964255 1_555
Mo7 O7 1.982223 1_555
Mo7 O15 2.009142 1_555
Mo7 O23 2.009909 1_555
Mo7 O31 2.011518 1_555
Mo7 O51 2.383787 1_655
H0 N0 1.041524 1_555
H1 N1 1.041524 1_555
H2 N2 1.041524 1_555
H3 N3 1.041524 1_555
H4 N4 1.041524 1_555
H5 N5 1.041524 1_555
H6 N6 1.041524 1_555
H7 N7 1.041524 1_555
H8 N0 1.049276 1_555
H9 N1 1.049276 1_555
H10 N2 1.049276 1_555
H11 N3 1.049276 1_555
H12 N4 1.049276 1_555
H13 N5 1.049276 1_555
H14 N6 1.049276 1_555
H15 N7 1.049276 1_555
H16 N0 1.028905 1_555
H17 N1 1.028905 1_555
H18 N2 1.028905 1_555
H19 N3 1.028905 1_555
H20 N4 1.028905 1_555
H21 N5 1.028905 1_555
H22 N6 1.028905 1_555
H23 N7 1.028905 1_555
H24 N0 1.034651 1_554
H25 N1 1.034651 1_555
H26 N2 1.034651 1_556
H27 N3 1.034651 1_555
H28 N4 1.034651 1_556
H29 N5 1.034651 1_555
H30 N6 1.034651 1_554
H31 N7 1.034651 1_555
H32 N8 1.042185 1_555
H33 N9 1.042185 1_555
H34 N10 1.042185 1_555
H35 N11 1.042185 1_555
H36 N9 1.042185 1_555
H37 N8 1.042185 1_555
H38 N11 1.042185 1_555
H39 N10 1.042185 1_555
H40 N8 1.044049 1_555
H41 N9 1.044049 1_555
H42 N10 1.044049 1_555
H43 N11 1.044049 1_555
H44 N8 1.031320 1_555
H45 N9 1.031320 1_555
H46 N10 1.031320 1_555
H47 N11 1.031320 1_555
C0 H48 1.105628 1_555
C0 O49 1.269947 1_555
C0 O44 1.269947 1_555
C1 H49 1.105628 1_555
C1 O48 1.269947 1_555
C1 O45 1.269947 1_555
C2 H50 1.105628 1_555
C2 O46 1.269947 1_555
C2 O51 1.269947 1_555
C3 H51 1.105628 1_555
C3 O47 1.269947 1_555
C3 O50 1.269947 1_555
O0 O8 1.476708 1_555
O1 O9 1.476708 1_555
O10 O2 1.476708 1_555
O11 O3 1.476708 1_555
O12 O4 1.476708 1_555
O13 O5 1.476708 1_555
O14 O6 1.476708 1_555
O15 O7 1.476708 1_555
O16 O24 1.475179 1_555
O17 O25 1.475179 1_555
O18 O26 1.475179 1_555
O19 O27 1.475179 1_555
O20 O28 1.475179 1_555
O21 O29 1.475179 1_555
O22 O30 1.475179 1_555
O23 O31 1.475179 1_555
