# generated using pymatgen
data_Mg7Si
_symmetry_space_group_name_H-M   'P 1'
_cell_length_a   6.26313523
_cell_length_b   6.26313523
_cell_length_c   4.99934900
_cell_angle_alpha   90.00000000
_cell_angle_beta   90.00000000
_cell_angle_gamma   119.99999192
_symmetry_Int_Tables_number   1
_chemical_formula_structural   Mg7Si
_chemical_formula_sum   'Mg7 Si1'
_cell_volume   169.83519763
_cell_formula_units_Z   1
loop_
 _symmetry_equiv_pos_site_id
 _symmetry_equiv_pos_as_xyz
  1  'x, y, z'
loop_
 _atom_site_type_symbol
 _atom_site_label
 _atom_site_symmetry_multiplicity
 _atom_site_fract_x
 _atom_site_fract_y
 _atom_site_fract_z
 _atom_site_occupancy
  Mg  Mg0  1  0.83364800  0.66729600  0.00000000  1
  Mg  Mg1  1  0.33270400  0.16635200  0.00000000  1
  Mg  Mg2  1  0.83364800  0.16635200  0.00000000  1
  Mg  Mg3  1  0.49743600  0.50256400  0.50000000  1
  Mg  Mg4  1  0.00512800  0.50256400  0.50000000  1
  Mg  Mg5  1  0.49743600  0.99487200  0.50000000  1
  Mg  Mg6  1  0.00000000  0.00000000  0.50000000  1
  Si  Si0  1  0.33333300  0.66666700  0.00000000  1
loop_
_geom_bond_atom_site_label_1
_geom_bond_atom_site_label_2
_geom_bond_distance
_geom_bond_site_symmetry_2
Mg0 Mg6 3.083009 1_664
Mg0 Mg6 3.083009 1_665
Mg0 Mg4 3.094257 1_654
Mg0 Mg4 3.094257 1_655
Mg0 Mg3 3.094257 1_555
Mg0 Mg3 3.094257 1_554
Mg0 Mg2 3.125655 1_565
Mg0 Mg1 3.125656 1_665
Mg0 Si0 3.131566 1_655
Mg0 Si0 3.131573 1_555
Mg0 Mg2 3.137480 1_555
Mg0 Mg1 3.137480 1_555
Mg1 Mg6 3.083009 1_555
Mg1 Mg6 3.083009 1_554
Mg1 Mg5 3.094257 1_545
Mg1 Mg5 3.094257 1_544
Mg1 Mg3 3.094257 1_555
Mg1 Mg3 3.094257 1_554
Mg1 Mg2 3.125655 1_455
Mg1 Si0 3.131566 1_545
Mg1 Si0 3.131573 1_555
Mg1 Mg2 3.137480 1_555
Mg2 Mg6 3.083009 1_655
Mg2 Mg6 3.083009 1_654
Mg2 Mg5 3.094257 1_545
Mg2 Mg5 3.094257 1_544
Mg2 Mg4 3.094257 1_654
Mg2 Mg4 3.094257 1_655
Mg2 Si0 3.131570 1_545
Mg2 Si0 3.131570 1_655
Mg3 Si0 3.068792 1_555
Mg3 Si0 3.068792 1_556
Mg3 Mg5 3.083392 1_555
Mg3 Mg4 3.083392 1_555
Mg3 Mg6 3.131692 1_555
Mg3 Mg6 3.131692 1_665
Mg3 Mg5 3.179744 1_545
Mg3 Mg4 3.179744 1_655
Mg4 Si0 3.068789 1_555
Mg4 Si0 3.068789 1_556
Mg4 Mg5 3.083392 1_555
Mg4 Mg6 3.131691 1_565
Mg4 Mg6 3.131691 1_555
Mg4 Mg5 3.179744 1_445
Mg5 Si0 3.068789 1_555
Mg5 Si0 3.068789 1_556
Mg5 Mg6 3.131691 1_565
Mg5 Mg6 3.131691 1_665
