# generated using pymatgen
data_CaLa4Ni3WO12
_symmetry_space_group_name_H-M   'P 1'
_cell_length_a   5.65292432
_cell_length_b   8.86171500
_cell_length_c   5.68509767
_cell_angle_alpha   90.00000000
_cell_angle_beta   90.02781541
_cell_angle_gamma   90.00000000
_symmetry_Int_Tables_number   1
_chemical_formula_structural   CaLa4Ni3WO12
_chemical_formula_sum   'Ca1 La4 Ni3 W1 O12'
_cell_volume   284.79268442
_cell_formula_units_Z   1
loop_
 _symmetry_equiv_pos_site_id
 _symmetry_equiv_pos_as_xyz
  1  'x, y, z'
loop_
 _atom_site_type_symbol
 _atom_site_label
 _atom_site_symmetry_multiplicity
 _atom_site_fract_x
 _atom_site_fract_y
 _atom_site_fract_z
 _atom_site_occupancy
  Ca  Ca0  1  0.00000000  0.00000000  0.50000000  1
  La  La0  1  0.50000000  0.22375800  0.00000000  1
  La  La1  1  0.00000000  0.67160000  0.50000000  1
  La  La2  1  0.50000000  0.77624200  0.00000000  1
  La  La3  1  0.00000000  0.32840000  0.50000000  1
  Ni  Ni0  1  0.00000000  0.00000000  0.00000000  1
  Ni  Ni1  1  0.50000000  0.50000000  0.50000000  1
  Ni  Ni2  1  0.00000000  0.50000000  0.00000000  1
  W  W0  1  0.50000000  0.00000000  0.50000000  1
  O  O0  1  0.00000000  0.24570700  0.00000000  1
  O  O1  1  0.50000000  0.76458500  0.50000000  1
  O  O2  1  0.23276800  0.50000000  0.27127100  1
  O  O3  1  0.72610100  0.00000000  0.77680700  1
  O  O4  1  0.23347500  0.50000000  0.72942700  1
  O  O5  1  0.72582200  0.00000000  0.22297300  1
  O  O6  1  0.00000000  0.75429300  0.00000000  1
  O  O7  1  0.50000000  0.23541500  0.50000000  1
  O  O8  1  0.76723200  0.50000000  0.72872900  1
  O  O9  1  0.27389900  0.00000000  0.22319300  1
  O  O10  1  0.76652500  0.50000000  0.27057300  1
  O  O11  1  0.27417800  0.00000000  0.77702700  1
loop_
_geom_bond_atom_site_label_1
_geom_bond_atom_site_label_2
_geom_bond_distance
_geom_bond_site_symmetry_2
Ca0 O3 2.208199 1_455
Ca0 O9 2.208199 1_555
Ca0 O11 2.209125 1_555
Ca0 O5 2.209125 1_455
La0 O11 2.677069 1_554
La0 O5 2.677069 1_555
La0 O9 2.679001 1_555
La0 O3 2.679001 1_554
La0 O0 2.833147 1_555
La0 O0 2.833147 1_655
La0 O7 2.844425 1_555
La0 O7 2.844425 1_554
La0 O10 3.259830 1_555
La0 O4 3.259830 1_554
La0 O2 3.264243 1_555
La0 O8 3.264243 1_554
La1 O2 2.395075 1_555
La1 O8 2.395075 1_455
La1 O10 2.398733 1_455
La1 O4 2.398733 1_555
La1 O6 2.935487 1_555
La1 O6 2.935487 1_556
La1 O1 2.944126 1_555
La1 O1 2.944126 1_455
La2 O5 2.677069 1_565
La2 O11 2.677069 1_564
La2 O3 2.679001 1_564
La2 O9 2.679001 1_565
La2 O6 2.833147 1_555
La2 O6 2.833147 1_655
La2 O1 2.844425 1_555
La2 O1 2.844425 1_554
La2 O10 3.259830 1_555
La2 O4 3.259830 1_554
La2 O2 3.264243 1_555
La2 O8 3.264243 1_554
La3 O2 2.395075 1_555
La3 O8 2.395075 1_455
La3 O10 2.398733 1_455
La3 O4 2.398733 1_555
La3 O0 2.935487 1_555
La3 O0 2.935487 1_556
La3 O7 2.944126 1_555
La3 O7 2.944126 1_455
Ni0 O3 2.001365 1_454
Ni0 O9 2.001365 1_555
Ni0 O11 2.002746 1_554
Ni0 O5 2.002746 1_455
Ni0 O6 2.177385 1_545
Ni0 O0 2.177385 1_555
Ni1 O2 1.992745 1_555
Ni1 O8 1.992745 1_555
Ni1 O10 1.993270 1_555
Ni1 O4 1.993270 1_555
Ni1 O1 2.344677 1_555
Ni1 O7 2.344677 1_555
Ni2 O2 2.026771 1_555
Ni2 O8 2.026771 1_454
Ni2 O4 2.027326 1_554
Ni2 O10 2.027326 1_455
Ni2 O6 2.253472 1_555
Ni2 O0 2.253472 1_555
O1 W0 2.086181 1_565
O3 W0 2.026850 1_555
O5 W0 2.027791 1_555
O7 W0 2.086181 1_555
O9 W0 2.026850 1_555
O11 W0 2.027791 1_555
