# generated using pymatgen
data_Ga3Te3Br
_symmetry_space_group_name_H-M   'P 1'
_cell_length_a   4.11658704
_cell_length_b   11.12482074
_cell_length_c   19.49617953
_cell_angle_alpha   90.00000000
_cell_angle_beta   90.00000000
_cell_angle_gamma   90.00000000
_symmetry_Int_Tables_number   1
_chemical_formula_structural   Ga3Te3Br
_chemical_formula_sum   'Ga12 Te12 Br4'
_cell_volume   892.85274781
_cell_formula_units_Z   4
loop_
 _symmetry_equiv_pos_site_id
 _symmetry_equiv_pos_as_xyz
  1  'x, y, z'
loop_
 _atom_site_type_symbol
 _atom_site_label
 _atom_site_symmetry_multiplicity
 _atom_site_fract_x
 _atom_site_fract_y
 _atom_site_fract_z
 _atom_site_occupancy
  Ga  Ga0  1  0.75000000  0.82549500  0.50583285  1
  Ga  Ga1  1  0.25000000  0.17450500  0.49416715  1
  Ga  Ga2  1  0.25000000  0.67450500  0.00583285  1
  Ga  Ga3  1  0.75000000  0.32549500  0.99416715  1
  Ga  Ga4  1  0.75000000  0.94112078  0.39981303  1
  Ga  Ga5  1  0.25000000  0.05887922  0.60018697  1
  Ga  Ga6  1  0.25000000  0.55887922  0.89981303  1
  Ga  Ga7  1  0.75000000  0.44112078  0.10018697  1
  Ga  Ga8  1  0.75000000  0.84233707  0.86515865  1
  Ga  Ga9  1  0.25000000  0.15766293  0.13484135  1
  Ga  Ga10  1  0.25000000  0.65766293  0.36515865  1
  Ga  Ga11  1  0.75000000  0.34233707  0.63484135  1
  Te  Te0  1  0.75000000  0.76662917  0.30534901  1
  Te  Te1  1  0.25000000  0.23337083  0.69465099  1
  Te  Te2  1  0.25000000  0.73337083  0.80534901  1
  Te  Te3  1  0.75000000  0.26662917  0.19465099  1
  Te  Te4  1  0.75000000  0.83000308  0.00062002  1
  Te  Te5  1  0.25000000  0.16999692  -0.00062002  1
  Te  Te6  1  0.25000000  0.66999692  0.50062002  1
  Te  Te7  1  0.75000000  0.33000308  0.49937998  1
  Te  Te8  1  0.75000000  0.91561974  0.63181659  1
  Te  Te9  1  0.25000000  0.08438026  0.36818341  1
  Te  Te10  1  0.25000000  0.58438026  0.13181659  1
  Te  Te11  1  0.75000000  0.41561974  0.86818341  1
  Br  Br0  1  0.75000000  0.54439223  0.66839067  1
  Br  Br1  1  0.25000000  0.45560777  0.33160933  1
  Br  Br2  1  0.25000000  0.95560777  0.16839067  1
  Br  Br3  1  0.75000000  0.04439223  0.83160933  1
loop_
_geom_bond_atom_site_label_1
_geom_bond_atom_site_label_2
_geom_bond_distance
_geom_bond_site_symmetry_2
Ga0 Ga4 2.434547 1_555
Ga0 Te8 2.652956 1_555
Ga0 Te6 2.690616 1_555
Ga0 Te6 2.690616 1_655
Ga1 Ga5 2.434547 1_555
Ga1 Te9 2.652956 1_555
Ga1 Te7 2.690616 1_555
Ga1 Te7 2.690616 1_455
Ga2 Ga6 2.434547 1_554
Ga2 Te10 2.652956 1_555
Ga2 Te4 2.690616 1_455
Ga2 Te4 2.690616 1_555
Ga3 Ga7 2.434547 1_556
Ga3 Te11 2.652956 1_555
Ga3 Te5 2.690616 1_556
Ga3 Te5 2.690616 1_656
Ga4 Te9 2.675226 1_565
Ga4 Te9 2.675226 1_665
Ga4 Te0 2.675822 1_555
Ga5 Te8 2.675226 1_545
Ga5 Te8 2.675226 1_445
Ga5 Te1 2.675822 1_555
Ga6 Te11 2.675226 1_555
Ga6 Te11 2.675226 1_455
Ga6 Te2 2.675822 1_555
Ga7 Te10 2.675226 1_555
Ga7 Te10 2.675226 1_655
Ga7 Te3 2.675822 1_555
Ga8 Te4 2.644541 1_556
Ga8 Te2 2.658151 1_655
Ga8 Te2 2.658151 1_555
Ga9 Te5 2.644541 1_555
Ga9 Te3 2.658151 1_555
Ga9 Te3 2.658151 1_455
Ga10 Te6 2.644541 1_555
Ga10 Te0 2.658151 1_555
Ga10 Te0 2.658151 1_455
Ga11 Te7 2.644541 1_555
Ga11 Te1 2.658151 1_555
Ga11 Te1 2.658151 1_655
Br0 Ga11 2.341058 1_555
Br1 Ga10 2.341058 1_555
Br2 Ga9 2.341058 1_565
Br3 Ga8 2.341058 1_545
