# generated using pymatgen
data_Mg(NiO2)2
_symmetry_space_group_name_H-M   'P 1'
_cell_length_a   2.89697300
_cell_length_b   8.65950600
_cell_length_c   10.18709200
_cell_angle_alpha   90.00000000
_cell_angle_beta   90.00000000
_cell_angle_gamma   90.00000000
_symmetry_Int_Tables_number   1
_chemical_formula_structural   Mg(NiO2)2
_chemical_formula_sum   'Mg4 Ni8 O16'
_cell_volume   255.55700710
_cell_formula_units_Z   4
loop_
 _symmetry_equiv_pos_site_id
 _symmetry_equiv_pos_as_xyz
  1  'x, y, z'
loop_
 _atom_site_type_symbol
 _atom_site_label
 _atom_site_symmetry_multiplicity
 _atom_site_fract_x
 _atom_site_fract_y
 _atom_site_fract_z
 _atom_site_occupancy
  Mg  Mg0  1  0.25000000  0.74451000  0.83921400  1
  Mg  Mg1  1  0.75000000  0.25549000  0.16078600  1
  Mg  Mg2  1  0.25000000  0.24451000  0.66078600  1
  Mg  Mg3  1  0.75000000  0.75549000  0.33921400  1
  Ni  Ni0  1  0.75000000  0.91389800  0.60000000  1
  Ni  Ni1  1  0.25000000  0.58610200  0.10000000  1
  Ni  Ni2  1  0.75000000  0.41389800  0.90000000  1
  Ni  Ni3  1  0.25000000  0.08610200  0.40000000  1
  Ni  Ni4  1  0.25000000  0.06061400  0.88466800  1
  Ni  Ni5  1  0.75000000  0.93938600  0.11533200  1
  Ni  Ni6  1  0.25000000  0.56061400  0.61533200  1
  Ni  Ni7  1  0.75000000  0.43938600  0.38466800  1
  O  O0  1  0.75000000  0.40432100  0.57481200  1
  O  O1  1  0.25000000  0.59567900  0.42518800  1
  O  O2  1  0.75000000  0.90432100  0.92518800  1
  O  O3  1  0.25000000  0.09567900  0.07481200  1
  O  O4  1  0.75000000  0.52721100  0.21261800  1
  O  O5  1  0.25000000  0.47278900  0.78738200  1
  O  O6  1  0.75000000  0.02721100  0.28738200  1
  O  O7  1  0.25000000  0.97278900  0.71261800  1
  O  O8  1  0.75000000  0.12131600  0.53250800  1
  O  O9  1  0.25000000  0.87868400  0.46749200  1
  O  O10  1  0.75000000  0.62131600  0.96749200  1
  O  O11  1  0.25000000  0.37868400  0.03250800  1
  O  O12  1  0.25000000  0.28862400  0.32273200  1
  O  O13  1  0.75000000  0.71137600  0.67726800  1
  O  O14  1  0.75000000  0.21137600  0.82273200  1
  O  O15  1  0.25000000  0.78862400  0.17726800  1
loop_
_geom_bond_atom_site_label_1
_geom_bond_atom_site_label_2
_geom_bond_distance
_geom_bond_site_symmetry_2
Mg0 O2 2.186394 1_455
Mg0 O2 2.186394 1_555
Mg0 O13 2.214078 1_455
Mg0 O13 2.214078 1_555
Mg0 O10 2.223476 1_455
Mg0 O10 2.223476 1_555
Mg0 O7 2.360266 1_555
Mg0 O5 2.411487 1_555
Mg1 O3 2.186394 1_555
Mg1 O3 2.186394 1_655
Mg1 O12 2.214078 1_555
Mg1 O12 2.214078 1_655
Mg1 O11 2.223476 1_655
Mg1 O11 2.223476 1_555
Mg1 O6 2.360266 1_555
Mg1 O4 2.411487 1_555
Mg2 O0 2.186394 1_555
Mg2 O0 2.186394 1_455
Mg2 O14 2.214078 1_455
Mg2 O14 2.214078 1_555
Mg2 O8 2.223476 1_455
Mg2 O8 2.223476 1_555
Mg2 O5 2.360266 1_555
Mg2 O7 2.411487 1_545
Mg3 O1 2.186394 1_655
Mg3 O1 2.186394 1_555
Mg3 O15 2.214078 1_655
Mg3 O15 2.214078 1_555
Mg3 O9 2.223476 1_655
Mg3 O9 2.223476 1_555
Mg3 O4 2.360266 1_555
Mg3 O6 2.411487 1_565
Ni0 O7 1.916862 1_655
Ni0 O7 1.916862 1_555
Ni0 O13 1.922287 1_555
Ni0 O8 1.923234 1_565
Ni0 O9 2.003310 1_555
Ni0 O9 2.003310 1_655
Ni1 O4 1.916862 1_455
Ni1 O4 1.916862 1_555
Ni1 O15 1.922287 1_555
Ni1 O11 1.923234 1_555
Ni1 O10 2.003310 1_554
Ni1 O10 2.003310 1_454
Ni2 O5 1.916862 1_655
Ni2 O5 1.916862 1_555
Ni2 O14 1.922287 1_555
Ni2 O10 1.923234 1_555
Ni2 O11 2.003310 1_556
Ni2 O11 2.003310 1_656
Ni3 O6 1.916862 1_555
Ni3 O6 1.916862 1_455
Ni3 O12 1.922287 1_555
Ni3 O9 1.923234 1_545
Ni3 O8 2.003310 1_455
Ni3 O8 2.003310 1_555
Ni4 O7 1.910579 1_545
Ni4 O3 1.960670 1_556
Ni4 O2 2.024907 1_545
Ni4 O2 2.024907 1_445
Ni4 O14 2.049537 1_555
Ni4 O14 2.049537 1_455
Ni5 O6 1.910579 1_565
Ni5 O2 1.960670 1_554
Ni5 O3 2.024907 1_565
Ni5 O3 2.024907 1_665
Ni5 O15 2.049537 1_555
Ni5 O15 2.049537 1_655
Ni6 O5 1.910579 1_555
Ni6 O1 1.960670 1_555
Ni6 O0 2.024907 1_555
Ni6 O0 2.024907 1_455
Ni6 O13 2.049537 1_455
Ni6 O13 2.049537 1_555
Ni7 O4 1.910579 1_555
Ni7 O0 1.960670 1_555
Ni7 O1 2.024907 1_555
Ni7 O1 2.024907 1_655
Ni7 O12 2.049537 1_555
Ni7 O12 2.049537 1_655
