# generated using pymatgen
data_CoAu4
_symmetry_space_group_name_H-M   'P 1'
_cell_length_a   23.57209352
_cell_length_b   23.57209352
_cell_length_c   23.57209394
_cell_angle_alpha   14.16082205
_cell_angle_beta   14.16082205
_cell_angle_gamma   14.16082164
_symmetry_Int_Tables_number   1
_chemical_formula_structural   CoAu4
_chemical_formula_sum   'Co8 Au32'
_cell_volume   682.33987896
_cell_formula_units_Z   8
loop_
 _symmetry_equiv_pos_site_id
 _symmetry_equiv_pos_as_xyz
  1  'x, y, z'
loop_
 _atom_site_type_symbol
 _atom_site_label
 _atom_site_symmetry_multiplicity
 _atom_site_fract_x
 _atom_site_fract_y
 _atom_site_fract_z
 _atom_site_occupancy
  Co  Co0_0  1  0.00000000  0.00000000  0.00000000  1
  Co  Co0_1  1  0.00000000  0.00000000  0.50000000  1
  Co  Co0_2  1  0.00000000  0.50000000  0.00000000  1
  Co  Co0_3  1  0.00000000  0.50000000  0.50000000  1
  Co  Co0_4  1  0.50000000  0.00000000  0.00000000  1
  Co  Co0_5  1  0.50000000  0.00000000  0.50000000  1
  Co  Co0_6  1  0.50000000  0.50000000  0.00000000  1
  Co  Co0_7  1  0.50000000  0.50000000  0.50000000  1
  Au  Au0_0  1  0.30333400  0.30333400  0.30333400  1
  Au  Au0_1  1  0.30333400  0.30333400  0.80333400  1
  Au  Au0_2  1  0.30333400  0.80333400  0.30333400  1
  Au  Au0_3  1  0.30333400  0.80333400  0.80333400  1
  Au  Au0_4  1  0.80333400  0.30333400  0.30333400  1
  Au  Au0_5  1  0.80333400  0.30333400  0.80333400  1
  Au  Au0_6  1  0.80333400  0.80333400  0.30333400  1
  Au  Au0_7  1  0.80333400  0.80333400  0.80333400  1
  Au  Au1_0  1  0.10114150  0.10114150  0.10114150  1
  Au  Au1_1  1  0.10114150  0.10114150  0.60114150  1
  Au  Au1_2  1  0.10114150  0.60114150  0.10114150  1
  Au  Au1_3  1  0.10114150  0.60114150  0.60114150  1
  Au  Au1_4  1  0.60114150  0.10114150  0.10114150  1
  Au  Au1_5  1  0.60114150  0.10114150  0.60114150  1
  Au  Au1_6  1  0.60114150  0.60114150  0.10114150  1
  Au  Au1_7  1  0.60114150  0.60114150  0.60114150  1
  Au  Au2_0  1  0.39885850  0.39885850  0.39885850  1
  Au  Au2_1  1  0.39885850  0.39885850  0.89885850  1
  Au  Au2_2  1  0.39885850  0.89885850  0.39885850  1
  Au  Au2_3  1  0.39885850  0.89885850  0.89885850  1
  Au  Au2_4  1  0.89885850  0.39885850  0.39885850  1
  Au  Au2_5  1  0.89885850  0.39885850  0.89885850  1
  Au  Au2_6  1  0.89885850  0.89885850  0.39885850  1
  Au  Au2_7  1  0.89885850  0.89885850  0.89885850  1
  Au  Au3_0  1  0.19666600  0.19666600  0.19666600  1
  Au  Au3_1  1  0.19666600  0.19666600  0.69666600  1
  Au  Au3_2  1  0.19666600  0.69666600  0.19666600  1
  Au  Au3_3  1  0.19666600  0.69666600  0.69666600  1
  Au  Au3_4  1  0.69666600  0.19666600  0.19666600  1
  Au  Au3_5  1  0.69666600  0.19666600  0.69666600  1
  Au  Au3_6  1  0.69666600  0.69666600  0.19666600  1
  Au  Au3_7  1  0.69666600  0.69666600  0.69666600  1
loop_
_geom_bond_atom_site_label_1
_geom_bond_atom_site_label_2
_geom_bond_distance
_geom_bond_site_symmetry_2
Co0_0 Co0_6 2.905548 1_455
Co0_0 Co0_6 2.905548 1_545
Co0_0 Co0_3 2.905548 1_545
Co0_0 Co0_5 2.905548 1_554
Co0_0 Co0_5 2.905548 1_455
Co0_0 Co0_3 2.905548 1_554
Co0_1 Co0_7 2.905548 1_455
Co0_1 Co0_7 2.905548 1_545
Co0_1 Co0_2 2.905548 1_555
Co0_1 Co0_4 2.905548 1_456
Co0_1 Co0_4 2.905548 1_555
Co0_1 Co0_2 2.905548 1_546
Co0_2 Co0_4 2.905548 1_465
Co0_2 Co0_4 2.905548 1_555
Co0_2 Co0_7 2.905548 1_455
Co0_2 Co0_7 2.905548 1_554
Co0_3 Co0_5 2.905548 1_465
Co0_3 Co0_5 2.905548 1_555
Co0_3 Co0_6 2.905548 1_456
Co0_3 Co0_6 2.905548 1_555
Co0_4 Co0_7 2.905548 1_545
Co0_4 Co0_7 2.905548 1_554
Co0_5 Co0_6 2.905548 1_555
Co0_5 Co0_6 2.905548 1_546
Au0_0 Co0_6 2.687640 1_555
Au0_0 Co0_3 2.687640 1_555
Au0_0 Co0_5 2.687640 1_555
Au0_0 Au0_6 2.905548 1_455
Au0_0 Au0_6 2.905548 1_545
Au0_0 Au0_5 2.905548 1_455
Au0_0 Au0_5 2.905548 1_554
Au0_0 Au0_3 2.905548 1_545
Au0_0 Au0_3 2.905548 1_554
Au0_0 Au1_1 2.999606 1_555
Au0_0 Au1_2 2.999606 1_555
Au0_0 Au1_4 2.999606 1_555
Au0_1 Co0_7 2.687640 1_555
Au0_1 Co0_4 2.687640 1_556
Au0_1 Co0_2 2.687640 1_556
Au0_1 Au0_7 2.905548 1_455
Au0_1 Au0_7 2.905548 1_545
Au0_1 Au0_2 2.905548 1_546
Au0_1 Au0_4 2.905548 1_555
Au0_1 Au0_2 2.905548 1_555
Au0_1 Au0_4 2.905548 1_456
Au0_1 Au1_0 2.999606 1_556
Au0_1 Au1_5 2.999606 1_555
Au0_1 Au1_3 2.999606 1_555
Au0_2 Co0_4 2.687640 1_565
Au0_2 Co0_1 2.687640 1_565
Au0_2 Co0_7 2.687640 1_555
Au0_2 Au0_4 2.905548 1_555
Au0_2 Au0_4 2.905548 1_465
Au0_2 Au0_7 2.905548 1_455
Au0_2 Au0_7 2.905548 1_554
Au0_2 Au1_3 2.999606 1_555
Au0_2 Au1_0 2.999606 1_565
Au0_2 Au1_6 2.999606 1_555
Au0_3 Co0_5 2.687640 1_565
Au0_3 Co0_0 2.687640 1_566
Au0_3 Co0_6 2.687640 1_556
Au0_3 Au0_5 2.905548 1_465
Au0_3 Au0_5 2.905548 1_555
Au0_3 Au0_6 2.905548 1_555
Au0_3 Au0_6 2.905548 1_456
Au0_3 Au1_2 2.999606 1_556
Au0_3 Au1_7 2.999606 1_555
Au0_3 Au1_1 2.999606 1_565
Au0_4 Co0_2 2.687640 1_655
Au0_4 Co0_1 2.687640 1_655
Au0_4 Co0_7 2.687640 1_555
Au0_4 Au0_7 2.905548 1_545
Au0_4 Au0_7 2.905548 1_554
Au0_4 Au1_5 2.999606 1_555
Au0_4 Au1_0 2.999606 1_655
Au0_4 Au1_6 2.999606 1_555
Au0_5 Co0_3 2.687640 1_655
Au0_5 Co0_0 2.687640 1_656
Au0_5 Co0_6 2.687640 1_556
Au0_5 Au0_6 2.905548 1_555
Au0_5 Au0_6 2.905548 1_546
Au0_5 Au1_4 2.999606 1_556
Au0_5 Au1_7 2.999606 1_555
Au0_5 Au1_1 2.999606 1_655
Au0_6 Co0_0 2.687640 1_665
Au0_6 Co0_3 2.687640 1_655
Au0_6 Co0_5 2.687640 1_565
Au0_6 Au1_7 2.999606 1_555
Au0_6 Au1_2 2.999606 1_655
Au0_6 Au1_4 2.999606 1_565
Au0_7 Co0_1 2.687640 1_665
Au0_7 Co0_2 2.687640 1_656
Au0_7 Co0_4 2.687640 1_566
Au0_7 Au1_6 2.999606 1_556
Au0_7 Au1_5 2.999606 1_565
Au0_7 Au1_3 2.999606 1_655
Au1_0 Au1_6 2.905548 1_455
Au1_0 Au1_6 2.905548 1_545
Au1_0 Au1_5 2.905548 1_554
Au1_0 Au1_5 2.905548 1_455
Au1_0 Au1_3 2.905548 1_545
Au1_0 Au1_3 2.905548 1_554
Au1_0 Au2_6 3.004860 1_445
Au1_0 Au2_5 3.004860 1_454
Au1_0 Au2_3 3.004860 1_544
Au1_1 Au1_7 2.905548 1_455
Au1_1 Au1_7 2.905548 1_545
Au1_1 Au1_4 2.905548 1_555
Au1_1 Au1_2 2.905548 1_546
Au1_1 Au1_2 2.905548 1_555
Au1_1 Au1_4 2.905548 1_456
Au1_1 Au2_7 3.004860 1_445
Au1_1 Au2_2 3.004860 1_545
Au1_1 Au2_4 3.004860 1_455
Au1_2 Au1_4 2.905548 1_465
Au1_2 Au1_4 2.905548 1_555
Au1_2 Au1_7 2.905548 1_554
Au1_2 Au1_7 2.905548 1_455
Au1_2 Au2_4 3.004860 1_455
Au1_2 Au2_7 3.004860 1_454
Au1_2 Au2_1 3.004860 1_554
Au1_3 Au1_5 2.905548 1_465
Au1_3 Au1_5 2.905548 1_555
Au1_3 Au1_6 2.905548 1_456
Au1_3 Au1_6 2.905548 1_555
Au1_3 Au2_5 3.004860 1_455
Au1_3 Au2_0 3.004860 1_555
Au1_3 Au2_6 3.004860 1_455
Au1_4 Au1_7 2.905548 1_545
Au1_4 Au1_7 2.905548 1_554
Au1_4 Au2_2 3.004860 1_545
Au1_4 Au2_7 3.004860 1_544
Au1_4 Au2_1 3.004860 1_554
Au1_5 Au1_6 2.905548 1_546
Au1_5 Au1_6 2.905548 1_555
Au1_5 Au2_3 3.004860 1_545
Au1_5 Au2_0 3.004860 1_555
Au1_5 Au2_6 3.004860 1_545
Au1_6 Au2_0 3.004860 1_555
Au1_6 Au2_5 3.004860 1_554
Au1_6 Au2_3 3.004860 1_554
Au1_7 Au2_1 3.004860 1_555
Au1_7 Au2_2 3.004860 1_555
Au1_7 Au2_4 3.004860 1_555
Au2_0 Au2_6 2.905548 1_545
Au2_0 Au2_6 2.905548 1_455
Au2_0 Au2_5 2.905548 1_455
Au2_0 Au2_3 2.905548 1_545
Au2_0 Au2_5 2.905548 1_554
Au2_0 Au2_3 2.905548 1_554
Au2_0 Au3_1 2.999606 1_555
Au2_0 Au3_4 2.999606 1_555
Au2_0 Au3_2 2.999606 1_555
Au2_1 Au2_7 2.905548 1_455
Au2_1 Au2_7 2.905548 1_545
Au2_1 Au2_4 2.905548 1_555
Au2_1 Au2_2 2.905548 1_555
Au2_1 Au2_4 2.905548 1_456
Au2_1 Au2_2 2.905548 1_546
Au2_1 Au3_0 2.999606 1_556
Au2_1 Au3_5 2.999606 1_555
Au2_1 Au3_3 2.999606 1_555
Au2_2 Au2_4 2.905548 1_555
Au2_2 Au2_4 2.905548 1_465
Au2_2 Au2_7 2.905548 1_455
Au2_2 Au2_7 2.905548 1_554
Au2_2 Au3_3 2.999606 1_555
Au2_2 Au3_6 2.999606 1_555
Au2_2 Au3_0 2.999606 1_565
Au2_3 Au2_5 2.905548 1_555
Au2_3 Au2_5 2.905548 1_465
Au2_3 Au2_6 2.905548 1_555
Au2_3 Au2_6 2.905548 1_456
Au2_3 Au3_2 2.999606 1_556
Au2_3 Au3_1 2.999606 1_565
Au2_3 Au3_7 2.999606 1_555
Au2_4 Au2_7 2.905548 1_554
Au2_4 Au2_7 2.905548 1_545
Au2_4 Au3_5 2.999606 1_555
Au2_4 Au3_6 2.999606 1_555
Au2_4 Au3_0 2.999606 1_655
Au2_5 Au2_6 2.905548 1_555
Au2_5 Au2_6 2.905548 1_546
Au2_5 Au3_4 2.999606 1_556
Au2_5 Au3_1 2.999606 1_655
Au2_5 Au3_7 2.999606 1_555
Au2_6 Au3_7 2.999606 1_555
Au2_6 Au3_2 2.999606 1_655
Au2_6 Au3_4 2.999606 1_565
Au2_7 Au3_6 2.999606 1_556
Au2_7 Au3_3 2.999606 1_655
Au2_7 Au3_5 2.999606 1_565
Au3_0 Co0_1 2.687640 1_555
Au3_0 Co0_2 2.687640 1_555
Au3_0 Co0_4 2.687640 1_555
Au3_0 Au3_6 2.905548 1_545
Au3_0 Au3_6 2.905548 1_455
Au3_0 Au3_5 2.905548 1_554
Au3_0 Au3_3 2.905548 1_554
Au3_0 Au3_5 2.905548 1_455
Au3_0 Au3_3 2.905548 1_545
Au3_1 Co0_0 2.687640 1_556
Au3_1 Co0_3 2.687640 1_555
Au3_1 Co0_5 2.687640 1_555
Au3_1 Au3_7 2.905548 1_455
Au3_1 Au3_7 2.905548 1_545
Au3_1 Au3_4 2.905548 1_555
Au3_1 Au3_4 2.905548 1_456
Au3_1 Au3_2 2.905548 1_546
Au3_1 Au3_2 2.905548 1_555
Au3_2 Co0_3 2.687640 1_555
Au3_2 Co0_0 2.687640 1_565
Au3_2 Co0_6 2.687640 1_555
Au3_2 Au3_4 2.905548 1_465
Au3_2 Au3_4 2.905548 1_555
Au3_2 Au3_7 2.905548 1_554
Au3_2 Au3_7 2.905548 1_455
Au3_3 Co0_2 2.687640 1_556
Au3_3 Co0_7 2.687640 1_555
Au3_3 Co0_1 2.687640 1_565
Au3_3 Au3_5 2.905548 1_555
Au3_3 Au3_5 2.905548 1_465
Au3_3 Au3_6 2.905548 1_456
Au3_3 Au3_6 2.905548 1_555
Au3_4 Co0_5 2.687640 1_555
Au3_4 Co0_0 2.687640 1_655
Au3_4 Co0_6 2.687640 1_555
Au3_4 Au3_7 2.905548 1_554
Au3_4 Au3_7 2.905548 1_545
Au3_5 Co0_4 2.687640 1_556
Au3_5 Co0_7 2.687640 1_555
Au3_5 Co0_1 2.687640 1_655
Au3_5 Au3_6 2.905548 1_546
Au3_5 Au3_6 2.905548 1_555
Au3_6 Co0_7 2.687640 1_555
Au3_6 Co0_4 2.687640 1_565
Au3_6 Co0_2 2.687640 1_655
Au3_7 Co0_6 2.687640 1_556
Au3_7 Co0_3 2.687640 1_655
Au3_7 Co0_5 2.687640 1_565
