# generated using pymatgen
data_Mg6ZrBi
_symmetry_space_group_name_H-M   'P 1'
_cell_length_a   5.28577998
_cell_length_b   6.18142834
_cell_length_c   11.22789290
_cell_angle_alpha   90.00000000
_cell_angle_beta   90.00000000
_cell_angle_gamma   90.00000000
_symmetry_Int_Tables_number   1
_chemical_formula_structural   Mg6ZrBi
_chemical_formula_sum   'Mg12 Zr2 Bi2'
_cell_volume   366.85646929
_cell_formula_units_Z   2
loop_
 _symmetry_equiv_pos_site_id
 _symmetry_equiv_pos_as_xyz
  1  'x, y, z'
loop_
 _atom_site_type_symbol
 _atom_site_label
 _atom_site_symmetry_multiplicity
 _atom_site_fract_x
 _atom_site_fract_y
 _atom_site_fract_z
 _atom_site_occupancy
  Mg  Mg0  1  0.50000000  0.74821324  0.91805816  1
  Mg  Mg1  1  0.50000000  0.25178676  0.91805816  1
  Mg  Mg2  1  -0.00000000  0.25947165  0.57813105  1
  Mg  Mg3  1  -0.00000000  0.74052835  0.57813105  1
  Mg  Mg4  1  -0.00000000  0.50000000  0.83140075  1
  Mg  Mg5  1  -0.00000000  -0.00000000  0.83736500  1
  Mg  Mg6  1  0.50000000  0.24821324  0.41805816  1
  Mg  Mg7  1  0.50000000  0.75178676  0.41805816  1
  Mg  Mg8  1  -0.00000000  0.75947165  0.07813105  1
  Mg  Mg9  1  -0.00000000  0.24052835  0.07813105  1
  Mg  Mg10  1  -0.00000000  -0.00000000  0.33140075  1
  Mg  Mg11  1  -0.00000000  0.50000000  0.33736500  1
  Zr  Zr0  1  0.50000000  0.50000000  0.67010027  1
  Zr  Zr1  1  0.50000000  -0.00000000  0.17010027  1
  Bi  Bi0  1  0.50000000  -0.00000000  0.66875156  1
  Bi  Bi1  1  0.50000000  0.50000000  0.16875156  1
loop_
_geom_bond_atom_site_label_1
_geom_bond_atom_site_label_2
_geom_bond_distance
_geom_bond_site_symmetry_2
Mg0 Mg1 3.068625 1_555
Mg0 Mg1 3.112804 1_565
Mg0 Zr0 3.178839 1_555
Mg0 Mg8 3.196863 1_656
Mg0 Mg8 3.196863 1_556
Mg0 Mg5 3.198143 1_665
Mg0 Mg5 3.198143 1_565
Mg0 Mg4 3.207128 1_655
Mg0 Mg4 3.207128 1_555
Mg0 Zr1 3.229664 1_566
Mg1 Zr0 3.178839 1_555
Mg1 Mg9 3.196863 1_556
Mg1 Mg9 3.196863 1_656
Mg1 Mg5 3.198143 1_655
Mg1 Mg5 3.198143 1_555
Mg1 Mg4 3.207128 1_655
Mg1 Mg4 3.207128 1_555
Mg1 Zr1 3.229664 1_556
Mg2 Mg3 2.973618 1_555
Mg2 Mg6 3.196863 1_455
Mg2 Mg6 3.196863 1_555
Mg2 Zr0 3.203400 1_555
Mg2 Zr0 3.203400 1_455
Mg2 Mg3 3.207811 1_545
Mg2 Mg4 3.208916 1_555
Mg2 Mg5 3.323312 1_555
Mg3 Mg7 3.196863 1_555
Mg3 Mg7 3.196863 1_455
Mg3 Zr0 3.203400 1_555
Mg3 Zr0 3.203400 1_455
Mg3 Mg4 3.208916 1_555
Mg3 Mg5 3.323312 1_565
Mg4 Mg5 3.091440 1_555
Mg4 Mg5 3.091440 1_565
Mg4 Mg9 3.201072 1_556
Mg4 Mg8 3.201072 1_556
Mg4 Zr0 3.203876 1_455
Mg4 Zr0 3.203876 1_555
Mg5 Mg8 3.085191 1_546
Mg5 Mg9 3.085191 1_556
Mg6 Mg7 3.068625 1_545
Mg6 Mg7 3.112804 1_555
Mg6 Zr1 3.178839 1_555
Mg6 Zr0 3.229664 1_555
Mg7 Zr1 3.178839 1_565
Mg7 Zr0 3.229664 1_555
Mg8 Mg9 2.973618 1_565
Mg8 Zr1 3.203400 1_465
Mg8 Zr1 3.203400 1_565
Mg8 Mg9 3.207811 1_555
Mg9 Zr1 3.203400 1_455
Mg9 Zr1 3.203400 1_555
Mg10 Mg11 3.091440 1_545
Mg10 Mg11 3.091440 1_555
Mg10 Mg3 3.201072 1_545
Mg10 Mg2 3.201072 1_555
Mg10 Zr1 3.203876 1_455
Mg10 Zr1 3.203876 1_555
Mg10 Mg7 3.207128 1_545
Mg10 Mg7 3.207128 1_445
Mg10 Mg6 3.207128 1_455
Mg10 Mg6 3.207128 1_555
Mg10 Mg8 3.208916 1_545
Mg10 Mg9 3.208916 1_555
Mg11 Mg2 3.085191 1_555
Mg11 Mg3 3.085191 1_555
Mg11 Mg6 3.198143 1_455
Mg11 Mg7 3.198143 1_455
Mg11 Mg6 3.198143 1_555
Mg11 Mg7 3.198143 1_555
Mg11 Mg8 3.323312 1_555
Mg11 Mg9 3.323312 1_555
Bi0 Zr0 3.090751 1_545
Bi0 Zr0 3.090751 1_555
Bi0 Mg0 3.202786 1_545
Bi0 Mg1 3.202786 1_555
Bi0 Mg6 3.205773 1_555
Bi0 Mg7 3.205773 1_545
Bi0 Mg5 3.250996 1_655
Bi0 Mg5 3.250996 1_555
Bi0 Mg3 3.254634 1_545
Bi0 Mg3 3.254634 1_645
Bi0 Mg2 3.254634 1_555
Bi0 Mg2 3.254634 1_655
Bi1 Zr1 3.090751 1_565
Bi1 Zr1 3.090751 1_555
Bi1 Mg7 3.202786 1_555
Bi1 Mg6 3.202786 1_555
Bi1 Mg0 3.205773 1_554
Bi1 Mg1 3.205773 1_554
Bi1 Mg11 3.250996 1_555
Bi1 Mg11 3.250996 1_655
Bi1 Mg9 3.254634 1_555
Bi1 Mg9 3.254634 1_655
Bi1 Mg8 3.254634 1_655
Bi1 Mg8 3.254634 1_555
