# generated using pymatgen
data_CsBHC3OF9
_symmetry_space_group_name_H-M   'P 1'
_cell_length_a   11.54568294
_cell_length_b   11.54568294
_cell_length_c   12.51423300
_cell_angle_alpha   90.00000000
_cell_angle_beta   90.00000000
_cell_angle_gamma   120.00000538
_symmetry_Int_Tables_number   1
_chemical_formula_structural   CsBHC3OF9
_chemical_formula_sum   'Cs6 B6 H6 C18 O6 F54'
_cell_volume   1444.68811119
_cell_formula_units_Z   6
loop_
 _symmetry_equiv_pos_site_id
 _symmetry_equiv_pos_as_xyz
  1  'x, y, z'
loop_
 _atom_site_type_symbol
 _atom_site_label
 _atom_site_symmetry_multiplicity
 _atom_site_fract_x
 _atom_site_fract_y
 _atom_site_fract_z
 _atom_site_occupancy
  Cs  Cs0  1  0.66666700  0.33333300  0.56453500  1
  Cs  Cs1  1  0.33333300  0.66666700  0.06453500  1
  Cs  Cs2  1  0.33333300  0.66666700  0.43546500  1
  Cs  Cs3  1  0.66666700  0.33333300  0.93546500  1
  Cs  Cs4  1  0.00000000  0.00000000  0.50000000  1
  Cs  Cs5  1  0.00000000  0.00000000  0.00000000  1
  B  B0  1  0.36635000  0.03318600  0.75000000  1
  B  B1  1  0.96681400  0.33316400  0.75000000  1
  B  B2  1  0.66683600  0.63365000  0.75000000  1
  B  B3  1  0.63365000  0.96681400  0.25000000  1
  B  B4  1  0.03318600  0.66683600  0.25000000  1
  B  B5  1  0.33316400  0.36635000  0.25000000  1
  H  H0  1  0.55799400  0.06772300  0.75000000  1
  H  H1  1  0.93227700  0.49027100  0.75000000  1
  H  H2  1  0.50972900  0.44200600  0.75000000  1
  H  H3  1  0.44200600  0.93227700  0.25000000  1
  H  H4  1  0.06772300  0.50972900  0.25000000  1
  H  H5  1  0.49027100  0.55799400  0.25000000  1
  C  C0  1  0.31535000  0.93919000  0.64162400  1
  C  C1  1  0.06081000  0.37616000  0.64162400  1
  C  C2  1  0.62384000  0.68465000  0.64162400  1
  C  C3  1  0.68465000  0.06081000  0.14162400  1
  C  C4  1  0.93919000  0.62384000  0.14162400  1
  C  C5  1  0.37616000  0.31535000  0.14162400  1
  C  C6  1  0.68465000  0.06081000  0.35837600  1
  C  C7  1  0.93919000  0.62384000  0.35837600  1
  C  C8  1  0.37616000  0.31535000  0.35837600  1
  C  C9  1  0.31535000  0.93919000  0.85837600  1
  C  C10  1  0.06081000  0.37616000  0.85837600  1
  C  C11  1  0.62384000  0.68465000  0.85837600  1
  C  C12  1  0.30522000  0.13468300  0.75000000  1
  C  C13  1  0.86531700  0.17053700  0.75000000  1
  C  C14  1  0.82946300  0.69478000  0.75000000  1
  C  C15  1  0.69478000  0.86531700  0.25000000  1
  C  C16  1  0.13468300  0.82946300  0.25000000  1
  C  C17  1  0.17053700  0.30522000  0.25000000  1
  O  O0  1  0.51241500  0.11909600  0.75000000  1
  O  O1  1  0.88090400  0.39331900  0.75000000  1
  O  O2  1  0.60668100  0.48758500  0.75000000  1
  O  O3  1  0.48758500  0.88090400  0.25000000  1
  O  O4  1  0.11909600  0.60668100  0.25000000  1
  O  O5  1  0.39331900  0.51241500  0.25000000  1
  F  F0  1  0.17861600  0.85990000  0.62951600  1
  F  F1  1  0.14010000  0.31871600  0.62951600  1
  F  F2  1  0.68128400  0.82138400  0.62951600  1
  F  F3  1  0.82138400  0.14010000  0.12951600  1
  F  F4  1  0.85990000  0.68128400  0.12951600  1
  F  F5  1  0.31871600  0.17861600  0.12951600  1
  F  F6  1  0.82138400  0.14010000  0.37048400  1
  F  F7  1  0.85990000  0.68128400  0.37048400  1
  F  F8  1  0.31871600  0.17861600  0.37048400  1
  F  F9  1  0.17861600  0.85990000  0.87048400  1
  F  F10  1  0.14010000  0.31871600  0.87048400  1
  F  F11  1  0.68128400  0.82138400  0.87048400  1
  F  F12  1  0.36498600  0.85194800  0.63501400  1
  F  F13  1  0.14805200  0.51303800  0.63501400  1
  F  F14  1  0.48696200  0.63501400  0.63501400  1
  F  F15  1  0.63501400  0.14805200  0.13501400  1
  F  F16  1  0.85194800  0.48696200  0.13501400  1
  F  F17  1  0.51303800  0.36498600  0.13501400  1
  F  F18  1  0.63501400  0.14805200  0.36498600  1
  F  F19  1  0.85194800  0.48696200  0.36498600  1
  F  F20  1  0.51303800  0.36498600  0.36498600  1
  F  F21  1  0.36498600  0.85194800  0.86498600  1
  F  F22  1  0.14805200  0.51303800  0.86498600  1
  F  F23  1  0.48696200  0.63501400  0.86498600  1
  F  F24  1  0.35905000  0.01405800  0.54852900  1
  F  F25  1  0.98594200  0.34499300  0.54852900  1
  F  F26  1  0.65500700  0.64095000  0.54852900  1
  F  F27  1  0.64095000  0.98594200  0.04852900  1
  F  F28  1  0.01405800  0.65500700  0.04852900  1
  F  F29  1  0.34499300  0.35905000  0.04852900  1
  F  F30  1  0.64095000  0.98594200  0.45147100  1
  F  F31  1  0.01405800  0.65500700  0.45147100  1
  F  F32  1  0.34499300  0.35905000  0.45147100  1
  F  F33  1  0.35905000  0.01405800  0.95147100  1
  F  F34  1  0.98594200  0.34499300  0.95147100  1
  F  F35  1  0.65500700  0.64095000  0.95147100  1
  F  F36  1  0.16709700  0.07219400  0.75000000  1
  F  F37  1  0.92780600  0.09490400  0.75000000  1
  F  F38  1  0.90509600  0.83290300  0.75000000  1
  F  F39  1  0.83290300  0.92780600  0.25000000  1
  F  F40  1  0.07219400  0.90509600  0.25000000  1
  F  F41  1  0.09490400  0.16709700  0.25000000  1
  F  F42  1  0.34530600  0.21921800  0.66224200  1
  F  F43  1  0.78078200  0.12608800  0.66224200  1
  F  F44  1  0.87391200  0.65469400  0.66224200  1
  F  F45  1  0.65469400  0.78078200  0.16224200  1
  F  F46  1  0.21921800  0.87391200  0.16224200  1
  F  F47  1  0.12608800  0.34530600  0.16224200  1
  F  F48  1  0.65469400  0.78078200  0.33775800  1
  F  F49  1  0.21921800  0.87391200  0.33775800  1
  F  F50  1  0.12608800  0.34530600  0.33775800  1
  F  F51  1  0.34530600  0.21921800  0.83775800  1
  F  F52  1  0.78078200  0.12608800  0.83775800  1
  F  F53  1  0.87391200  0.65469400  0.83775800  1
loop_
_geom_bond_atom_site_label_1
_geom_bond_atom_site_label_2
_geom_bond_distance
_geom_bond_site_symmetry_2
Cs0 F18 3.188096 1_555
Cs0 F19 3.188098 1_555
Cs0 F20 3.188103 1_555
Cs0 O1 3.204941 1_555
Cs0 O0 3.204943 1_555
Cs0 O2 3.204949 1_555
Cs0 F43 3.479794 1_555
Cs0 F44 3.479802 1_555
Cs0 F42 3.479804 1_555
Cs0 F25 3.626350 1_555
Cs0 F24 3.626361 1_555
Cs0 F26 3.626373 1_555
Cs1 F21 3.188096 1_554
Cs1 F22 3.188098 1_554
Cs1 F23 3.188103 1_554
Cs1 O4 3.204941 1_555
Cs1 O3 3.204943 1_555
Cs1 O5 3.204949 1_555
Cs1 F46 3.479794 1_555
Cs1 F47 3.479802 1_555
Cs1 F45 3.479804 1_555
Cs1 F28 3.626350 1_555
Cs1 F27 3.626361 1_555
Cs1 F29 3.626373 1_555
Cs2 F12 3.188096 1_555
Cs2 F13 3.188098 1_555
Cs2 F14 3.188103 1_555
Cs2 O4 3.204941 1_555
Cs2 O3 3.204943 1_555
Cs2 O5 3.204949 1_555
Cs2 F49 3.479794 1_555
Cs2 F50 3.479802 1_555
Cs2 F48 3.479804 1_555
Cs2 F31 3.626350 1_555
Cs2 F30 3.626361 1_555
Cs2 F32 3.626373 1_555
Cs3 F15 3.188096 1_556
Cs3 F16 3.188098 1_556
Cs3 F17 3.188103 1_556
Cs3 O1 3.204941 1_555
Cs3 O0 3.204943 1_555
Cs3 O2 3.204949 1_555
Cs3 F52 3.479794 1_555
Cs3 F53 3.479802 1_555
Cs3 F51 3.479804 1_555
Cs3 F34 3.626350 1_555
Cs3 F33 3.626361 1_555
Cs3 F35 3.626373 1_555
Cs4 F36 3.549164 1_555
Cs4 F39 3.549164 1_445
Cs4 F41 3.549164 1_555
Cs4 F38 3.549164 1_445
Cs4 F37 3.549169 1_455
Cs4 F40 3.549169 1_545
Cs4 F2 3.582188 1_445
Cs4 F8 3.582188 1_555
Cs4 F1 3.582188 1_555
Cs4 F7 3.582188 1_445
Cs4 F0 3.582188 1_545
Cs4 F6 3.582188 1_455
Cs5 F36 3.549164 1_554
Cs5 F39 3.549164 1_445
Cs5 F41 3.549164 1_555
Cs5 F38 3.549164 1_444
Cs5 F37 3.549169 1_454
Cs5 F40 3.549169 1_545
Cs5 F5 3.582188 1_555
Cs5 F11 3.582188 1_444
Cs5 F10 3.582188 1_554
Cs5 F4 3.582188 1_445
Cs5 F9 3.582188 1_544
Cs5 F3 3.582188 1_455
B0 O0 1.468031 1_555
B0 C12 1.642697 1_555
B0 C9 1.650712 1_545
B0 C0 1.650712 1_545
B1 O1 1.468031 1_555
B1 C13 1.642697 1_555
B1 C1 1.650712 1_655
B1 C10 1.650712 1_655
B2 O2 1.468031 1_555
B2 C14 1.642697 1_555
B2 C2 1.650712 1_555
B2 C11 1.650712 1_555
B3 O3 1.468031 1_555
B3 C15 1.642697 1_555
B3 C3 1.650712 1_565
B3 C6 1.650712 1_565
B4 O4 1.468031 1_555
B4 C16 1.642697 1_555
B4 C7 1.650712 1_455
B4 C4 1.650712 1_455
B5 O5 1.468031 1_555
B5 C17 1.642697 1_555
B5 C8 1.650712 1_555
B5 C5 1.650712 1_555
H0 O0 0.969986 1_555
H1 O1 0.969986 1_555
H2 O2 0.969986 1_555
H3 O3 0.969986 1_555
H4 O4 0.969986 1_555
H5 O5 0.969986 1_555
C0 F0 1.381323 1_555
C0 F24 1.386680 1_565
C0 F12 1.388201 1_555
C1 F1 1.381323 1_555
C1 F25 1.386681 1_455
C1 F13 1.388201 1_555
C2 F2 1.381323 1_555
C2 F26 1.386675 1_555
C2 F14 1.388201 1_555
C3 F3 1.381323 1_555
C3 F27 1.386680 1_545
C3 F15 1.388201 1_555
C4 F4 1.381323 1_555
C4 F28 1.386681 1_655
C4 F16 1.388201 1_555
C5 F5 1.381323 1_555
C5 F29 1.386675 1_555
C5 F17 1.388201 1_555
C6 F6 1.381323 1_555
C6 F30 1.386680 1_545
C6 F18 1.388201 1_555
C7 F7 1.381323 1_555
C7 F31 1.386681 1_655
C7 F19 1.388201 1_555
C8 F8 1.381323 1_555
C8 F32 1.386675 1_555
C8 F20 1.388201 1_555
C9 F9 1.381323 1_555
C9 F33 1.386680 1_565
C9 F21 1.388201 1_555
C10 F10 1.381323 1_555
C10 F34 1.386681 1_455
C10 F22 1.388201 1_555
C11 F11 1.381323 1_555
C11 F35 1.386675 1_555
C11 F23 1.388201 1_555
C12 F36 1.383155 1_555
C12 F42 1.386068 1_555
C12 F51 1.386068 1_555
C13 F37 1.383145 1_555
C13 F43 1.386068 1_555
C13 F52 1.386068 1_555
C14 F38 1.383154 1_555
C14 F44 1.386068 1_555
C14 F53 1.386068 1_555
C15 F39 1.383155 1_555
C15 F48 1.386068 1_555
C15 F45 1.386068 1_555
C16 F40 1.383145 1_555
C16 F49 1.386068 1_555
C16 F46 1.386068 1_555
C17 F41 1.383154 1_555
C17 F47 1.386068 1_555
C17 F50 1.386068 1_555
