# generated using pymatgen
data_Tm5Pb4
_symmetry_space_group_name_H-M   'P 1'
_cell_length_a   8.12611600
_cell_length_b   8.17295700
_cell_length_c   15.54545600
_cell_angle_alpha   90.00000000
_cell_angle_beta   90.00000000
_cell_angle_gamma   90.00000000
_symmetry_Int_Tables_number   1
_chemical_formula_structural   Tm5Pb4
_chemical_formula_sum   'Tm20 Pb16'
_cell_volume   1032.44208081
_cell_formula_units_Z   4
loop_
 _symmetry_equiv_pos_site_id
 _symmetry_equiv_pos_as_xyz
  1  'x, y, z'
loop_
 _atom_site_type_symbol
 _atom_site_label
 _atom_site_symmetry_multiplicity
 _atom_site_fract_x
 _atom_site_fract_y
 _atom_site_fract_z
 _atom_site_occupancy
  Tm  Tm0  1  0.37705400  0.84086600  0.87925500  1
  Tm  Tm1  1  0.87705400  0.65913400  0.62074500  1
  Tm  Tm2  1  0.62294600  0.15913400  0.37925500  1
  Tm  Tm3  1  0.12294600  0.34086600  0.12074500  1
  Tm  Tm4  1  0.62294600  0.15913400  0.12074500  1
  Tm  Tm5  1  0.12294600  0.34086600  0.37925500  1
  Tm  Tm6  1  0.37705400  0.84086600  0.62074500  1
  Tm  Tm7  1  0.87705400  0.65913400  0.87925500  1
  Tm  Tm8  1  0.53683000  0.32298200  0.90027200  1
  Tm  Tm9  1  0.03683000  0.17701800  0.59972800  1
  Tm  Tm10  1  0.46317000  0.67701800  0.40027200  1
  Tm  Tm11  1  0.96317000  0.82298200  0.09972800  1
  Tm  Tm12  1  0.46317000  0.67701800  0.09972800  1
  Tm  Tm13  1  0.96317000  0.82298200  0.40027200  1
  Tm  Tm14  1  0.53683000  0.32298200  0.59972800  1
  Tm  Tm15  1  0.03683000  0.17701800  0.90027200  1
  Tm  Tm16  1  0.20836800  0.50433500  0.75000000  1
  Tm  Tm17  1  0.70836800  0.99566500  0.75000000  1
  Tm  Tm18  1  0.79163200  0.49566500  0.25000000  1
  Tm  Tm19  1  0.29163200  0.00433500  0.25000000  1
  Pb  Pb0  1  0.28050700  0.03172300  0.04201400  1
  Pb  Pb1  1  0.78050700  0.46827700  0.45798600  1
  Pb  Pb2  1  0.71949300  0.96827700  0.54201400  1
  Pb  Pb3  1  0.21949300  0.53172300  0.95798600  1
  Pb  Pb4  1  0.71949300  0.96827700  0.95798600  1
  Pb  Pb5  1  0.21949300  0.53172300  0.54201400  1
  Pb  Pb6  1  0.28050700  0.03172300  0.45798600  1
  Pb  Pb7  1  0.78050700  0.46827700  0.04201400  1
  Pb  Pb8  1  0.57083900  0.62729900  0.75000000  1
  Pb  Pb9  1  0.07083900  0.87270100  0.75000000  1
  Pb  Pb10  1  0.42916100  0.37270100  0.25000000  1
  Pb  Pb11  1  0.92916100  0.12729900  0.25000000  1
  Pb  Pb12  1  0.34796100  0.15330300  0.75000000  1
  Pb  Pb13  1  0.84796100  0.34669700  0.75000000  1
  Pb  Pb14  1  0.65203900  0.84669700  0.25000000  1
  Pb  Pb15  1  0.15203900  0.65330300  0.25000000  1
loop_
_geom_bond_atom_site_label_1
_geom_bond_atom_site_label_2
_geom_bond_distance
_geom_bond_site_symmetry_2
Pb0 Tm0 3.074155 1_544
Pb0 Tm3 3.085619 1_555
Pb0 Tm15 3.191596 1_554
Pb0 Tm4 3.213367 1_555
Pb0 Tm11 3.219515 1_445
Pb0 Tm19 3.242237 1_555
Pb0 Tm12 3.378218 1_545
Pb0 Tm8 3.854894 1_554
Pb1 Tm1 3.074155 1_555
Pb1 Tm2 3.085619 1_555
Pb1 Tm14 3.191596 1_555
Pb1 Tm5 3.213367 1_655
Pb1 Tm10 3.219515 1_555
Pb1 Tm18 3.242237 1_555
Pb1 Tm13 3.378218 1_555
Pb1 Tm9 3.854894 1_655
Pb2 Tm2 3.074155 1_565
Pb2 Tm1 3.085619 1_555
Pb2 Tm13 3.191596 1_555
Pb2 Tm6 3.213367 1_555
Pb2 Tm9 3.219515 1_665
Pb2 Tm17 3.242237 1_555
Pb2 Tm14 3.378218 1_565
Pb2 Tm10 3.854894 1_555
Pb3 Tm3 3.074155 1_556
Pb3 Tm0 3.085619 1_555
Pb3 Tm12 3.191596 1_556
Pb3 Tm7 3.213367 1_455
Pb3 Tm8 3.219515 1_555
Pb3 Tm16 3.242237 1_555
Pb3 Tm15 3.378218 1_555
Pb3 Tm11 3.854894 1_456
Pb4 Tm4 3.074155 1_566
Pb4 Tm7 3.085619 1_555
Pb4 Tm11 3.191596 1_556
Pb4 Tm0 3.213367 1_555
Pb4 Tm15 3.219515 1_665
Pb4 Tm17 3.242237 1_555
Pb4 Tm8 3.378218 1_565
Pb4 Tm12 3.854894 1_556
Pb5 Tm5 3.074155 1_555
Pb5 Tm6 3.085619 1_555
Pb5 Tm10 3.191596 1_555
Pb5 Tm1 3.213367 1_455
Pb5 Tm14 3.219515 1_555
Pb5 Tm16 3.242237 1_555
Pb5 Tm9 3.378218 1_555
Pb5 Tm13 3.854894 1_455
Pb6 Tm6 3.074155 1_545
Pb6 Tm5 3.085619 1_555
Pb6 Tm9 3.191596 1_555
Pb6 Tm2 3.213367 1_555
Pb6 Tm13 3.219515 1_445
Pb6 Tm19 3.242237 1_555
Pb6 Tm10 3.378218 1_545
Pb6 Tm14 3.854894 1_555
Pb7 Tm7 3.074155 1_554
Pb7 Tm4 3.085619 1_555
Pb7 Tm8 3.191596 1_554
Pb7 Tm3 3.213367 1_655
Pb7 Tm12 3.219515 1_555
Pb7 Tm18 3.242237 1_555
Pb7 Tm11 3.378218 1_555
Pb7 Tm15 3.854894 1_654
Pb8 Tm0 3.092542 1_555
Pb8 Tm6 3.092542 1_555
Pb8 Tm16 3.112209 1_555
Pb8 Tm7 3.208882 1_555
Pb8 Tm1 3.208882 1_555
Pb8 Tm17 3.211375 1_555
Pb8 Tm8 3.423376 1_555
Pb8 Tm14 3.423376 1_555
Pb9 Tm1 3.092542 1_455
Pb9 Tm7 3.092542 1_455
Pb9 Tm17 3.112209 1_455
Pb9 Tm6 3.208882 1_555
Pb9 Tm0 3.208882 1_555
Pb9 Tm16 3.211375 1_555
Pb9 Tm15 3.423376 1_565
Pb9 Tm9 3.423376 1_565
Pb10 Tm2 3.092542 1_555
Pb10 Tm4 3.092542 1_555
Pb10 Tm18 3.112209 1_555
Pb10 Tm5 3.208882 1_555
Pb10 Tm3 3.208882 1_555
Pb10 Tm19 3.211375 1_555
Pb10 Pb15 3.214127 1_555
Pb10 Tm10 3.423376 1_555
Pb10 Tm12 3.423376 1_555
Pb11 Tm5 3.092542 1_655
Pb11 Tm3 3.092542 1_655
Pb11 Tm19 3.112209 1_655
Pb11 Tm2 3.208882 1_555
Pb11 Tm4 3.208882 1_555
Pb11 Tm18 3.211375 1_555
Pb11 Pb14 3.214127 1_545
Pb11 Tm13 3.423376 1_545
Pb11 Tm11 3.423376 1_545
Pb12 Tm16 3.085082 1_555
Pb12 Tm8 3.120223 1_555
Pb12 Tm14 3.120223 1_555
Pb12 Tm17 3.199567 1_545
Pb12 Pb9 3.214127 1_545
Pb12 Tm6 3.257887 1_545
Pb12 Tm0 3.257887 1_545
Pb12 Tm15 3.447740 1_555
Pb12 Tm9 3.447740 1_555
Pb13 Tm17 3.085082 1_545
Pb13 Tm15 3.120223 1_655
Pb13 Tm9 3.120223 1_655
Pb13 Tm16 3.199567 1_655
Pb13 Pb8 3.214127 1_555
Pb13 Tm1 3.257887 1_555
Pb13 Tm7 3.257887 1_555
Pb13 Tm8 3.447740 1_555
Pb13 Tm14 3.447740 1_555
Pb14 Tm18 3.085082 1_555
Pb14 Tm10 3.120223 1_555
Pb14 Tm12 3.120223 1_555
Pb14 Tm19 3.199567 1_565
Pb14 Tm2 3.257887 1_565
Pb14 Tm4 3.257887 1_565
Pb14 Tm13 3.447740 1_555
Pb14 Tm11 3.447740 1_555
Pb15 Tm19 3.085082 1_565
Pb15 Tm13 3.120223 1_455
Pb15 Tm11 3.120223 1_455
Pb15 Tm18 3.199567 1_455
Pb15 Tm5 3.257887 1_555
Pb15 Tm3 3.257887 1_555
Pb15 Tm10 3.447740 1_555
Pb15 Tm12 3.447740 1_555
