# generated using pymatgen
data_La3SbO7
_symmetry_space_group_name_H-M   'P 1'
_cell_length_a   7.71801800
_cell_length_b   7.80951700
_cell_length_c   11.21108600
_cell_angle_alpha   90.00000000
_cell_angle_beta   90.00000000
_cell_angle_gamma   90.00000000
_symmetry_Int_Tables_number   1
_chemical_formula_structural   La3SbO7
_chemical_formula_sum   'La12 Sb4 O28'
_cell_volume   675.73691659
_cell_formula_units_Z   4
loop_
 _symmetry_equiv_pos_site_id
 _symmetry_equiv_pos_as_xyz
  1  'x, y, z'
loop_
 _atom_site_type_symbol
 _atom_site_label
 _atom_site_symmetry_multiplicity
 _atom_site_fract_x
 _atom_site_fract_y
 _atom_site_fract_z
 _atom_site_occupancy
  La  La0  1  0.76599400  0.49769000  0.25000000  1
  La  La1  1  0.23400600  0.50231000  0.75000000  1
  La  La2  1  0.26599400  0.00231000  0.75000000  1
  La  La3  1  0.73400600  0.99769000  0.25000000  1
  La  La4  1  0.45515900  0.25265000  0.02176200  1
  La  La5  1  0.54484100  0.74735000  0.97823800  1
  La  La6  1  0.95515900  0.24735000  0.97823800  1
  La  La7  1  0.54484100  0.74735000  0.52176200  1
  La  La8  1  0.04484100  0.75265000  0.02176200  1
  La  La9  1  0.45515900  0.25265000  0.47823800  1
  La  La10  1  0.04484100  0.75265000  0.47823800  1
  La  La11  1  0.95515900  0.24735000  0.52176200  1
  Sb  Sb0  1  0.25185000  0.00237500  0.25000000  1
  Sb  Sb1  1  0.74815000  0.99762500  0.75000000  1
  Sb  Sb2  1  0.75185000  0.49762500  0.75000000  1
  Sb  Sb3  1  0.24815000  0.50237500  0.25000000  1
  O  O0  1  0.32923800  0.25304600  0.25000000  1
  O  O1  1  0.67076200  0.74695400  0.75000000  1
  O  O2  1  0.82923800  0.24695400  0.75000000  1
  O  O3  1  0.17076200  0.75304600  0.25000000  1
  O  O4  1  0.07389600  0.03728200  0.12191300  1
  O  O5  1  0.92610400  0.96271800  0.87808700  1
  O  O6  1  0.57389600  0.46271800  0.87808700  1
  O  O7  1  0.92610400  0.96271800  0.62191300  1
  O  O8  1  0.42610400  0.53728200  0.12191300  1
  O  O9  1  0.07389600  0.03728200  0.37808700  1
  O  O10  1  0.42610400  0.53728200  0.37808700  1
  O  O11  1  0.57389600  0.46271800  0.62191300  1
  O  O12  1  0.22649600  0.25024400  0.61911400  1
  O  O13  1  0.77350400  0.74975600  0.38088600  1
  O  O14  1  0.72649600  0.24975600  0.38088600  1
  O  O15  1  0.77350400  0.74975600  0.11911400  1
  O  O16  1  0.27350400  0.75024400  0.61911400  1
  O  O17  1  0.22649600  0.25024400  0.88088600  1
  O  O18  1  0.27350400  0.75024400  0.88088600  1
  O  O19  1  0.72649600  0.24975600  0.11911400  1
  O  O20  1  0.05969100  0.46803000  0.12667500  1
  O  O21  1  0.94030900  0.53197000  0.87332500  1
  O  O22  1  0.55969100  0.03197000  0.87332500  1
  O  O23  1  0.94030900  0.53197000  0.62667500  1
  O  O24  1  0.44030900  0.96803000  0.12667500  1
  O  O25  1  0.05969100  0.46803000  0.37332500  1
  O  O26  1  0.44030900  0.96803000  0.37332500  1
  O  O27  1  0.55969100  0.03197000  0.62667500  1
loop_
_geom_bond_atom_site_label_1
_geom_bond_atom_site_label_2
_geom_bond_distance
_geom_bond_site_symmetry_2
La0 O14 2.448502 1_555
La0 O19 2.448502 1_555
La0 O15 2.455930 1_555
La0 O13 2.455930 1_555
La0 O25 2.665230 1_655
La0 O20 2.665230 1_655
La0 O8 3.006537 1_555
La0 O10 3.006537 1_555
La1 O18 2.448502 1_555
La1 O16 2.448502 1_555
La1 O17 2.455930 1_555
La1 O12 2.455930 1_555
La1 O21 2.665230 1_455
La1 O23 2.665230 1_455
La1 O6 3.006537 1_555
La1 O11 3.006537 1_555
La2 O17 2.448502 1_555
La2 O12 2.448502 1_555
La2 O18 2.455930 1_545
La2 O16 2.455930 1_545
La2 O22 2.665230 1_555
La2 O27 2.665230 1_555
La2 O5 3.006537 1_445
La2 O7 3.006537 1_445
La3 O15 2.448502 1_555
La3 O13 2.448502 1_555
La3 O19 2.455930 1_565
La3 O14 2.455930 1_565
La3 O26 2.665230 1_555
La3 O24 2.665230 1_555
La3 O9 3.006537 1_665
La3 O4 3.006537 1_665
La4 O19 2.361635 1_555
La4 O17 2.368413 1_554
La4 O6 2.475011 1_554
La4 O8 2.500396 1_555
La4 O24 2.517370 1_545
La4 O22 2.527920 1_554
La4 O0 2.737144 1_555
La5 O18 2.361635 1_555
La5 O15 2.368413 1_556
La5 O8 2.475011 1_556
La5 O6 2.500396 1_555
La5 O22 2.517370 1_565
La5 O24 2.527920 1_556
La5 O1 2.737144 1_555
La6 O17 2.361635 1_655
La6 O19 2.368413 1_556
La6 O4 2.475011 1_656
La6 O5 2.500396 1_545
La6 O21 2.517370 1_555
La6 O20 2.527920 1_656
La6 O2 2.737144 1_555
La7 O16 2.361635 1_555
La7 O13 2.368413 1_555
La7 O10 2.475011 1_555
La7 O11 2.500396 1_555
La7 O27 2.517370 1_565
La7 O26 2.527920 1_555
La7 O1 2.737144 1_555
La8 O15 2.361635 1_455
La8 O18 2.368413 1_554
La8 O5 2.475011 1_454
La8 O4 2.500396 1_565
La8 O20 2.517370 1_555
La8 O21 2.527920 1_454
La8 O3 2.737144 1_555
La9 O14 2.361635 1_555
La9 O12 2.368413 1_555
La9 O11 2.475011 1_555
La9 O10 2.500396 1_555
La9 O26 2.517370 1_545
La9 O27 2.527920 1_555
La9 O0 2.737144 1_555
La10 O13 2.361635 1_455
La10 O16 2.368413 1_555
La10 O7 2.475011 1_455
La10 O9 2.500396 1_565
La10 O25 2.517370 1_555
La10 O23 2.527920 1_455
La10 O3 2.737144 1_555
La11 O12 2.361635 1_655
La11 O14 2.368413 1_555
La11 O9 2.475011 1_655
La11 O7 2.500396 1_545
La11 O23 2.517370 1_555
La11 O25 2.527920 1_655
La11 O2 2.737144 1_555
O0 Sb3 2.045244 1_555
O0 Sb0 2.046709 1_555
O1 Sb2 2.045244 1_555
O1 Sb1 2.046709 1_555
O2 Sb1 2.045244 1_545
O2 Sb2 2.046709 1_555
O3 Sb0 2.045244 1_565
O3 Sb3 2.046709 1_555
O4 Sb0 2.005683 1_555
O5 Sb1 2.005683 1_555
O6 Sb2 2.005683 1_555
O7 Sb1 2.005683 1_555
O8 Sb3 2.005683 1_555
O9 Sb0 2.005683 1_555
O10 Sb3 2.005683 1_555
O11 Sb2 2.005683 1_555
O20 Sb3 2.024648 1_555
O21 Sb2 2.024648 1_555
O22 Sb1 2.024648 1_545
O23 Sb2 2.024648 1_555
O24 Sb0 2.024648 1_565
O25 Sb3 2.024648 1_555
O26 Sb0 2.024648 1_565
O27 Sb1 2.024648 1_545
