# generated using pymatgen
data_NaCu(IO2)2
_symmetry_space_group_name_H-M   'P 1'
_cell_length_a   8.18279165
_cell_length_b   8.18279165
_cell_length_c   5.43349158
_cell_angle_alpha   81.11826525
_cell_angle_beta   81.11826525
_cell_angle_gamma   90.77685139
_symmetry_Int_Tables_number   1
_chemical_formula_structural   NaCu(IO2)2
_chemical_formula_sum   'Na2 Cu2 I4 O8'
_cell_volume   354.88282709
_cell_formula_units_Z   2
loop_
 _symmetry_equiv_pos_site_id
 _symmetry_equiv_pos_as_xyz
  1  'x, y, z'
loop_
 _atom_site_type_symbol
 _atom_site_label
 _atom_site_symmetry_multiplicity
 _atom_site_fract_x
 _atom_site_fract_y
 _atom_site_fract_z
 _atom_site_occupancy
  Na  Na0  1  0.63392400  0.36607600  0.25000000  1
  Na  Na1  1  0.36607600  0.63392400  0.75000000  1
  Cu  Cu0  1  0.00591400  0.99408600  0.25000000  1
  Cu  Cu1  1  0.99408600  0.00591400  0.75000000  1
  I  I0  1  0.99956300  0.72613600  0.05732300  1
  I  I1  1  0.27386400  0.00043700  0.44267700  1
  I  I2  1  0.00043700  0.27386400  0.94267700  1
  I  I3  1  0.72613600  0.99956300  0.55732300  1
  O  O0  1  0.68914400  0.56896800  0.72265900  1
  O  O1  1  0.43103200  0.31085600  0.77734100  1
  O  O2  1  0.31085600  0.43103200  0.27734100  1
  O  O3  1  0.56896800  0.68914400  0.22265900  1
  O  O4  1  0.77852900  0.49472500  0.56479400  1
  O  O5  1  0.50527500  0.22147100  0.93520600  1
  O  O6  1  0.22147100  0.50527500  0.43520600  1
  O  O7  1  0.49472500  0.77852900  0.06479400  1
loop_
_geom_bond_atom_site_label_1
_geom_bond_atom_site_label_2
_geom_bond_distance
_geom_bond_site_symmetry_2
Na0 O4 2.565364 1_555
Na0 O5 2.565364 1_554
Na0 O3 2.689686 1_555
Na0 O2 2.689686 1_555
Na0 O0 3.046540 1_554
Na0 O1 3.046540 1_555
Na1 O7 2.565364 1_556
Na1 O6 2.565364 1_555
Na1 O0 2.689686 1_555
Na1 O1 2.689686 1_555
Na1 O2 3.046540 1_556
Na1 O3 3.046540 1_555
Cu0 I0 2.574615 1_455
Cu0 I1 2.574615 1_565
Cu0 I3 2.622400 1_455
Cu0 I2 2.622400 1_564
Cu1 I2 2.574615 1_655
Cu1 I3 2.574615 1_545
Cu1 I0 2.622400 1_546
Cu1 I1 2.622400 1_655
I0 Na1 3.355042 1_654
I1 Na1 3.355042 1_545
I2 Na0 3.355042 1_456
I3 Na0 3.355042 1_565
O0 O4 1.272410 1_555
O1 O5 1.272410 1_555
O2 O6 1.272410 1_555
O3 O7 1.272410 1_555
