# generated using pymatgen
data_NaNi5O6
_symmetry_space_group_name_H-M   'P 1'
_cell_length_a   5.18668659
_cell_length_b   5.18674705
_cell_length_c   9.91314397
_cell_angle_alpha   94.55001394
_cell_angle_beta   94.54833658
_cell_angle_gamma   119.34237754
_symmetry_Int_Tables_number   1
_chemical_formula_structural   NaNi5O6
_chemical_formula_sum   'Na2 Ni10 O12'
_cell_volume   229.58450899
_cell_formula_units_Z   2
loop_
 _symmetry_equiv_pos_site_id
 _symmetry_equiv_pos_as_xyz
  1  'x, y, z'
loop_
 _atom_site_type_symbol
 _atom_site_label
 _atom_site_symmetry_multiplicity
 _atom_site_fract_x
 _atom_site_fract_y
 _atom_site_fract_z
 _atom_site_occupancy
  Na  Na0  1  0.41747100  0.08431800  0.25008100  1
  Na  Na1  1  0.91569100  0.58253900  0.74991900  1
  Ni  Ni0  1  0.50080300  0.49919100  0.49999400  1
  Ni  Ni1  1  0.33218400  0.66782500  0.00000300  1
  Ni  Ni2  1  0.83090900  0.16905700  0.50000500  1
  Ni  Ni3  1  0.74559600  0.75003400  0.25021400  1
  Ni  Ni4  1  0.24998500  0.25442200  0.74977400  1
  Ni  Ni5  1  0.66457900  0.33542100  0.00000900  1
  Ni  Ni6  1  0.17063400  0.82934900  0.49999800  1
  Ni  Ni7  1  0.00308200  0.99691300  0.00000700  1
  Ni  Ni8  1  0.08857500  0.41921300  0.25011300  1
  Ni  Ni9  1  0.58078600  0.91142400  0.74989000  1
  O  O0  1  0.81556500  0.46861700  0.38570200  1
  O  O1  1  0.30125800  0.97987700  0.88600500  1
  O  O2  1  0.02013200  0.69874700  0.11398500  1
  O  O3  1  0.53136400  0.18442600  0.61430700  1
  O  O4  1  0.37740300  0.39940700  0.12277300  1
  O  O5  1  0.87490500  0.90664200  0.61741700  1
  O  O6  1  0.45808100  0.77021600  0.37698200  1
  O  O7  1  0.95626900  0.25901000  0.88310400  1
  O  O8  1  0.74100800  0.04373900  0.11688400  1
  O  O9  1  0.22978800  0.54192400  0.62301200  1
  O  O10  1  0.09332700  0.12508700  0.38259900  1
  O  O11  1  0.60060300  0.62260500  0.87722200  1
loop_
_geom_bond_atom_site_label_1
_geom_bond_atom_site_label_2
_geom_bond_distance
_geom_bond_site_symmetry_2
Na0 O6 2.213716 1_545
Na0 O4 2.219298 1_555
Na0 O0 2.268242 1_555
Na0 O2 2.271236 1_545
Na0 O10 2.291641 1_555
Na0 O8 2.292858 1_555
Na1 O9 2.213697 1_655
Na1 O11 2.219214 1_555
Na1 O3 2.268300 1_555
Na1 O1 2.271181 1_655
Na1 O5 2.291449 1_555
Na1 O7 2.292794 1_555
Ni0 O9 2.011601 1_555
Ni0 O6 2.011621 1_555
Ni0 O0 2.119598 1_555
Ni0 O3 2.119750 1_555
Ni0 O10 2.195135 1_555
Ni0 O5 2.195175 1_555
Ni1 O4 2.004500 1_555
Ni1 O11 2.004537 1_554
Ni1 O2 2.106594 1_555
Ni1 O1 2.106739 1_554
Ni1 O8 2.200083 1_565
Ni1 O7 2.200131 1_454
Ni2 O10 1.942285 1_655
Ni2 O5 1.942406 1_545
Ni2 O3 2.022454 1_555
Ni2 O0 2.022518 1_555
Ni2 O6 2.193467 1_545
Ni2 O9 2.193569 1_655
Ni3 O6 2.059937 1_555
Ni3 O4 2.097485 1_555
Ni3 O8 2.101944 1_565
Ni3 O10 2.130820 1_665
Ni3 O2 2.131032 1_655
Ni3 O0 2.195241 1_555
Ni4 O9 2.059913 1_555
Ni4 O11 2.097478 1_555
Ni4 O7 2.101947 1_455
Ni4 O5 2.130839 1_445
Ni4 O1 2.131095 1_545
Ni4 O3 2.194967 1_555
Ni5 O2 2.038258 1_655
Ni5 O1 2.038341 1_544
Ni5 O4 2.125475 1_555
Ni5 O11 2.125669 1_554
Ni5 O8 2.140403 1_555
Ni5 O7 2.140523 1_554
Ni6 O0 2.032685 1_455
Ni6 O3 2.032751 1_565
Ni6 O9 2.116852 1_555
Ni6 O6 2.116867 1_555
Ni6 O5 2.163351 1_455
Ni6 O10 2.163354 1_565
Ni7 O8 1.943645 1_465
Ni7 O7 1.943918 1_464
Ni7 O2 2.017814 1_555
Ni7 O1 2.017935 1_554
Ni7 O4 2.204215 1_565
Ni7 O11 2.204229 1_454
Ni8 O4 2.068432 1_555
Ni8 O10 2.098197 1_555
Ni8 O6 2.098597 1_555
Ni8 O0 2.116657 1_455
Ni8 O8 2.135501 1_455
Ni8 O2 2.188162 1_555
Ni9 O11 2.068405 1_555
Ni9 O5 2.098088 1_555
Ni9 O9 2.098615 1_555
Ni9 O3 2.116664 1_565
Ni9 O7 2.135485 1_565
Ni9 O1 2.188032 1_555
