# generated using pymatgen
data_RbCr(SO10)2
_symmetry_space_group_name_H-M   'P 1'
_cell_length_a   11.71405700
_cell_length_b   11.71405700
_cell_length_c   11.71405700
_cell_angle_alpha   90.00000000
_cell_angle_beta   90.00000000
_cell_angle_gamma   90.00000000
_symmetry_Int_Tables_number   1
_chemical_formula_structural   RbCr(SO10)2
_chemical_formula_sum   'Rb4 Cr4 S8 O80'
_cell_volume   1607.39272670
_cell_formula_units_Z   4
loop_
 _symmetry_equiv_pos_site_id
 _symmetry_equiv_pos_as_xyz
  1  'x, y, z'
loop_
 _atom_site_type_symbol
 _atom_site_label
 _atom_site_symmetry_multiplicity
 _atom_site_fract_x
 _atom_site_fract_y
 _atom_site_fract_z
 _atom_site_occupancy
  Rb  Rb0  1  0.50000000  0.00000000  0.00000000  1
  Rb  Rb1  1  0.50000000  0.50000000  0.50000000  1
  Rb  Rb2  1  0.00000000  0.00000000  0.50000000  1
  Rb  Rb3  1  0.00000000  0.50000000  0.00000000  1
  Cr  Cr0  1  0.50000000  0.50000000  0.00000000  1
  Cr  Cr1  1  0.50000000  0.00000000  0.50000000  1
  Cr  Cr2  1  0.00000000  0.50000000  0.50000000  1
  Cr  Cr3  1  0.00000000  0.00000000  0.00000000  1
  S  S0  1  0.19633600  0.80366400  0.30366400  1
  S  S1  1  0.80366400  0.30366400  0.19633600  1
  S  S2  1  0.30366400  0.19633600  0.80366400  1
  S  S3  1  0.69633600  0.69633600  0.69633600  1
  S  S4  1  0.80366400  0.19633600  0.69633600  1
  S  S5  1  0.19633600  0.69633600  0.80366400  1
  S  S6  1  0.69633600  0.80366400  0.19633600  1
  S  S7  1  0.30366400  0.30366400  0.30366400  1
  O  O0  1  0.26773200  0.73226800  0.23226800  1
  O  O1  1  0.73226800  0.23226800  0.26773200  1
  O  O2  1  0.23226800  0.26773200  0.73226800  1
  O  O3  1  0.76773200  0.76773200  0.76773200  1
  O  O4  1  0.73226800  0.26773200  0.76773200  1
  O  O5  1  0.26773200  0.76773200  0.73226800  1
  O  O6  1  0.76773200  0.73226800  0.26773200  1
  O  O7  1  0.23226800  0.23226800  0.23226800  1
  O  O8  1  0.57535500  0.81279800  0.23837600  1
  O  O9  1  0.42464500  0.31279800  0.26162400  1
  O  O10  1  0.92464500  0.18720200  0.73837600  1
  O  O11  1  0.07535500  0.68720200  0.76162400  1
  O  O12  1  0.23837600  0.57535500  0.81279800  1
  O  O13  1  0.26162400  0.42464500  0.31279800  1
  O  O14  1  0.73837600  0.92464500  0.18720200  1
  O  O15  1  0.76162400  0.07535500  0.68720200  1
  O  O16  1  0.81279800  0.23837600  0.57535500  1
  O  O17  1  0.31279800  0.26162400  0.42464500  1
  O  O18  1  0.18720200  0.73837600  0.92464500  1
  O  O19  1  0.68720200  0.76162400  0.07535500  1
  O  O20  1  0.42464500  0.18720200  0.76162400  1
  O  O21  1  0.57535500  0.68720200  0.73837600  1
  O  O22  1  0.07535500  0.81279800  0.26162400  1
  O  O23  1  0.92464500  0.31279800  0.23837600  1
  O  O24  1  0.76162400  0.42464500  0.18720200  1
  O  O25  1  0.73837600  0.57535500  0.68720200  1
  O  O26  1  0.26162400  0.07535500  0.81279800  1
  O  O27  1  0.23837600  0.92464500  0.31279800  1
  O  O28  1  0.18720200  0.76162400  0.42464500  1
  O  O29  1  0.68720200  0.73837600  0.57535500  1
  O  O30  1  0.81279800  0.26162400  0.07535500  1
  O  O31  1  0.31279800  0.23837600  0.92464500  1
  O  O32  1  0.47560800  0.67561500  0.97999100  1
  O  O33  1  0.52439200  0.17561500  0.52000900  1
  O  O34  1  0.02439200  0.32438500  0.47999100  1
  O  O35  1  0.97560800  0.82438500  0.02000900  1
  O  O36  1  0.97999100  0.47560800  0.67561500  1
  O  O37  1  0.52000900  0.52439200  0.17561500  1
  O  O38  1  0.47999100  0.02439200  0.32438500  1
  O  O39  1  0.02000900  0.97560800  0.82438500  1
  O  O40  1  0.67561500  0.97999100  0.47560800  1
  O  O41  1  0.17561500  0.52000900  0.52439200  1
  O  O42  1  0.32438500  0.47999100  0.02439200  1
  O  O43  1  0.82438500  0.02000900  0.97560800  1
  O  O44  1  0.52439200  0.32438500  0.02000900  1
  O  O45  1  0.47560800  0.82438500  0.47999100  1
  O  O46  1  0.97560800  0.67561500  0.52000900  1
  O  O47  1  0.02439200  0.17561500  0.97999100  1
  O  O48  1  0.02000900  0.52439200  0.32438500  1
  O  O49  1  0.47999100  0.47560800  0.82438500  1
  O  O50  1  0.52000900  0.97560800  0.67561500  1
  O  O51  1  0.97999100  0.02439200  0.17561500  1
  O  O52  1  0.32438500  0.02000900  0.52439200  1
  O  O53  1  0.82438500  0.47999100  0.47560800  1
  O  O54  1  0.67561500  0.52000900  0.97560800  1
  O  O55  1  0.17561500  0.97999100  0.02439200  1
  O  O56  1  0.25876700  0.52152200  0.09760600  1
  O  O57  1  0.74123200  0.02152200  0.40239400  1
  O  O58  1  0.24123300  0.47847800  0.59760600  1
  O  O59  1  0.75876800  0.97847800  0.90239400  1
  O  O60  1  0.09760600  0.25876700  0.52152200  1
  O  O61  1  0.40239400  0.74123200  0.02152200  1
  O  O62  1  0.59760600  0.24123300  0.47847800  1
  O  O63  1  0.90239400  0.75876800  0.97847800  1
  O  O64  1  0.52152200  0.09760600  0.25876700  1
  O  O65  1  0.02152200  0.40239400  0.74123200  1
  O  O66  1  0.47847800  0.59760600  0.24123300  1
  O  O67  1  0.97847800  0.90239400  0.75876800  1
  O  O68  1  0.74123200  0.47847800  0.90239400  1
  O  O69  1  0.25876700  0.97847800  0.59760600  1
  O  O70  1  0.75876800  0.52152200  0.40239400  1
  O  O71  1  0.24123300  0.02152200  0.09760600  1
  O  O72  1  0.90239400  0.74123200  0.47847800  1
  O  O73  1  0.59760600  0.25876700  0.97847800  1
  O  O74  1  0.40239400  0.75876800  0.52152200  1
  O  O75  1  0.09760600  0.24123300  0.02152200  1
  O  O76  1  0.47847800  0.90239400  0.74123200  1
  O  O77  1  0.97847800  0.59760600  0.25876700  1
  O  O78  1  0.52152200  0.40239400  0.75876800  1
  O  O79  1  0.02152200  0.09760600  0.24123300  1
loop_
_geom_bond_atom_site_label_1
_geom_bond_atom_site_label_2
_geom_bond_distance
_geom_bond_site_symmetry_2
Cr0 O37 2.090096 1_555
Cr0 O54 2.090096 1_554
Cr0 O32 2.090096 1_554
Cr0 O44 2.090096 1_555
Cr0 O42 2.090096 1_555
Cr0 O49 2.090096 1_554
Cr1 O33 2.090096 1_555
Cr1 O50 2.090096 1_545
Cr1 O40 2.090096 1_545
Cr1 O52 2.090096 1_555
Cr1 O38 2.090096 1_555
Cr1 O45 2.090096 1_545
Cr2 O41 2.090096 1_555
Cr2 O36 2.090096 1_455
Cr2 O46 2.090096 1_455
Cr2 O34 2.090096 1_555
Cr2 O48 2.090096 1_555
Cr2 O53 2.090096 1_455
Cr3 O47 2.090096 1_554
Cr3 O51 2.090096 1_455
Cr3 O55 2.090096 1_545
Cr3 O43 2.090096 1_454
Cr3 O35 2.090096 1_445
Cr3 O39 2.090096 1_544
O0 S0 1.448578 1_555
O1 S1 1.448578 1_555
O2 S2 1.448578 1_555
O3 S3 1.448578 1_555
O4 S4 1.448578 1_555
O5 S5 1.448578 1_555
O6 S6 1.448578 1_555
O7 S7 1.448578 1_555
O8 S6 1.504114 1_555
O9 S7 1.504114 1_555
O10 S4 1.504114 1_555
O11 S5 1.504114 1_555
O12 S5 1.504114 1_555
O13 S7 1.504114 1_555
O14 S6 1.504114 1_555
O15 S4 1.504114 1_555
O16 S4 1.504114 1_555
O17 S7 1.504114 1_555
O18 S5 1.504114 1_555
O19 S6 1.504114 1_555
O20 S2 1.504114 1_555
O21 S3 1.504114 1_555
O22 S0 1.504114 1_555
O23 S1 1.504114 1_555
O24 S1 1.504114 1_555
O25 S3 1.504114 1_555
O26 S2 1.504114 1_555
O27 S0 1.504114 1_555
O28 S0 1.504114 1_555
O29 S3 1.504114 1_555
O30 S1 1.504114 1_555
O31 S2 1.504114 1_555
O32 O61 1.250209 1_556
O33 O62 1.250216 1_555
O34 O60 1.250216 1_555
O35 O63 1.250209 1_554
O36 O65 1.250209 1_655
O37 O66 1.250216 1_555
O38 O64 1.250216 1_555
O39 O67 1.250209 1_455
O40 O57 1.250209 1_565
O41 O58 1.250216 1_555
O42 O56 1.250216 1_555
O43 O59 1.250209 1_545
O44 O73 1.250216 1_554
O45 O74 1.250209 1_555
O46 O72 1.250209 1_555
O47 O75 1.250216 1_556
O48 O77 1.250216 1_455
O49 O78 1.250209 1_555
O50 O76 1.250209 1_555
O51 O79 1.250216 1_655
O52 O69 1.250216 1_545
O53 O70 1.250209 1_555
O54 O68 1.250209 1_555
O55 O71 1.250216 1_565
O56 Rb3 3.249474 1_555
O57 Rb2 3.249485 1_655
O58 Rb1 3.249474 1_555
O59 Rb0 3.249485 1_566
O60 Rb2 3.249474 1_555
O61 Rb0 3.249485 1_565
O62 Rb1 3.249474 1_555
O63 Rb3 3.249485 1_656
O64 Rb0 3.249474 1_555
O65 Rb3 3.249485 1_556
O66 Rb1 3.249474 1_555
O67 Rb2 3.249485 1_665
O68 Rb3 3.249485 1_656
O69 Rb2 3.249474 1_565
O70 Rb1 3.249485 1_555
O71 Rb0 3.249474 1_555
O72 Rb2 3.249485 1_665
O73 Rb0 3.249474 1_556
O74 Rb1 3.249485 1_555
O75 Rb3 3.249474 1_555
O76 Rb0 3.249485 1_566
O77 Rb3 3.249474 1_655
O78 Rb1 3.249485 1_555
O79 Rb2 3.249474 1_555
