# generated using pymatgen
data_MgSn(GeO3)2
_symmetry_space_group_name_H-M   'P 1'
_cell_length_a   10.21183300
_cell_length_b   5.47424500
_cell_length_c   10.50980966
_cell_angle_alpha   76.31888033
_cell_angle_beta   90.00000000
_cell_angle_gamma   90.00000000
_symmetry_Int_Tables_number   1
_chemical_formula_structural   MgSn(GeO3)2
_chemical_formula_sum   'Mg4 Sn4 Ge8 O24'
_cell_volume   570.85053107
_cell_formula_units_Z   4
loop_
 _symmetry_equiv_pos_site_id
 _symmetry_equiv_pos_as_xyz
  1  'x, y, z'
loop_
 _atom_site_type_symbol
 _atom_site_label
 _atom_site_symmetry_multiplicity
 _atom_site_fract_x
 _atom_site_fract_y
 _atom_site_fract_z
 _atom_site_occupancy
  Mg  Mg0  1  0.52584200  0.22364300  0.22490700  1
  Mg  Mg1  1  0.02584200  0.27635700  0.77509300  1
  Mg  Mg2  1  0.47415800  0.77635700  0.77509300  1
  Mg  Mg3  1  0.97415800  0.72364300  0.22490700  1
  Sn  Sn0  1  0.37534200  0.71079100  0.26195100  1
  Sn  Sn1  1  0.87534200  0.78920900  0.73804900  1
  Sn  Sn2  1  0.62465800  0.28920900  0.73804900  1
  Sn  Sn3  1  0.12465800  0.21079100  0.26195100  1
  Ge  Ge0  1  0.65920700  0.77722900  0.05455900  1
  Ge  Ge1  1  0.15920700  0.72277100  0.94544100  1
  Ge  Ge2  1  0.34079300  0.22277100  0.94544100  1
  Ge  Ge3  1  0.84079300  0.27722900  0.05455900  1
  Ge  Ge4  1  0.65117100  0.75684900  0.46858200  1
  Ge  Ge5  1  0.15117100  0.74315100  0.53141800  1
  Ge  Ge6  1  0.34882900  0.24315100  0.53141800  1
  Ge  Ge7  1  0.84882900  0.25684900  0.46858200  1
  O  O0  1  0.78937500  0.96214900  0.44407100  1
  O  O1  1  0.28937500  0.53785100  0.55592900  1
  O  O2  1  0.21062500  0.03785100  0.55592900  1
  O  O3  1  0.71062500  0.46214900  0.44407100  1
  O  O4  1  0.69316900  0.07918100  0.09921600  1
  O  O5  1  0.19316900  0.42081900  0.90078400  1
  O  O6  1  0.30683100  0.92081900  0.90078400  1
  O  O7  1  0.80683100  0.57918100  0.09921600  1
  O  O8  1  0.95963700  0.38083300  0.34288200  1
  O  O9  1  0.45963700  0.11916700  0.65711800  1
  O  O10  1  0.04036300  0.61916700  0.65711800  1
  O  O11  1  0.54036300  0.88083300  0.34288200  1
  O  O12  1  0.96154600  0.09444200  0.15191900  1
  O  O13  1  0.46154600  0.40555800  0.84808100  1
  O  O14  1  0.03845400  0.90555800  0.84808100  1
  O  O15  1  0.53845400  0.59444200  0.15191900  1
  O  O16  1  0.61640600  0.85227200  0.89070900  1
  O  O17  1  0.11640600  0.64772800  0.10929100  1
  O  O18  1  0.38359400  0.14772800  0.10929100  1
  O  O19  1  0.88359400  0.35227200  0.89070900  1
  O  O20  1  0.58046900  0.68007500  0.62499700  1
  O  O21  1  0.08046900  0.81992500  0.37500300  1
  O  O22  1  0.41953100  0.31992500  0.37500300  1
  O  O23  1  0.91953100  0.18007500  0.62499700  1
loop_
_geom_bond_atom_site_label_1
_geom_bond_atom_site_label_2
_geom_bond_distance
_geom_bond_site_symmetry_2
Mg0 O11 1.995090 1_545
Mg0 O15 1.997181 1_555
Mg0 O18 1.999532 1_555
Mg0 O22 2.082821 1_555
Mg0 O4 2.405053 1_555
Mg1 O10 1.995090 1_555
Mg1 O14 1.997181 1_545
Mg1 O19 1.999532 1_455
Mg1 O23 2.082821 1_455
Mg1 O5 2.405053 1_555
Mg2 O9 1.995090 1_565
Mg2 O13 1.997181 1_555
Mg2 O16 1.999532 1_555
Mg2 O20 2.082821 1_555
Mg2 O6 2.405053 1_555
Mg3 O8 1.995090 1_555
Mg3 O12 1.997181 1_565
Mg3 O17 1.999532 1_655
Mg3 O21 2.082821 1_655
Mg3 O7 2.405053 1_555
Ge0 O16 1.729323 1_554
Ge0 O15 1.756270 1_555
Ge0 O7 1.851372 1_555
Ge0 O4 1.854672 1_565
Ge1 O17 1.729323 1_556
Ge1 O14 1.756270 1_555
Ge1 O6 1.851372 1_555
Ge1 O5 1.854672 1_555
Ge2 O18 1.729323 1_556
Ge2 O13 1.756270 1_555
Ge2 O5 1.851372 1_555
Ge2 O6 1.854672 1_545
Ge3 O19 1.729323 1_554
Ge3 O12 1.756270 1_555
Ge3 O4 1.851372 1_555
Ge3 O7 1.854672 1_555
Ge4 O11 1.749910 1_555
Ge4 O20 1.753134 1_555
Ge4 O0 1.784458 1_555
Ge4 O3 1.798379 1_555
Ge5 O10 1.749910 1_555
Ge5 O21 1.753134 1_555
Ge5 O1 1.784458 1_555
Ge5 O2 1.798379 1_565
Ge6 O9 1.749910 1_555
Ge6 O22 1.753134 1_555
Ge6 O2 1.784458 1_555
Ge6 O1 1.798379 1_555
Ge7 O8 1.749910 1_555
Ge7 O23 1.753134 1_555
Ge7 O3 1.784458 1_555
Ge7 O0 1.798379 1_545
O8 Sn3 2.191864 1_655
O9 Sn2 2.191864 1_555
O10 Sn1 2.191864 1_455
O11 Sn0 2.191864 1_555
O12 Sn3 2.205866 1_655
O13 Sn2 2.205866 1_555
O14 Sn1 2.205866 1_455
O15 Sn0 2.205866 1_555
O16 Sn2 2.546986 1_565
O17 Sn3 2.546986 1_555
O18 Sn0 2.546986 1_545
O19 Sn1 2.546986 1_555
O20 Sn2 2.234065 1_555
O21 Sn3 2.234065 1_565
O22 Sn0 2.234065 1_555
O23 Sn1 2.234065 1_545
