# generated using pymatgen
data_CsDyBr3
_symmetry_space_group_name_H-M   'P 1'
_cell_length_a   8.01740200
_cell_length_b   8.01740200
_cell_length_c   5.72982200
_cell_angle_alpha   90.00000000
_cell_angle_beta   90.00000000
_cell_angle_gamma   90.00000000
_symmetry_Int_Tables_number   1
_chemical_formula_structural   CsDyBr3
_chemical_formula_sum   'Cs2 Dy2 Br6'
_cell_volume   368.30570896
_cell_formula_units_Z   2
loop_
 _symmetry_equiv_pos_site_id
 _symmetry_equiv_pos_as_xyz
  1  'x, y, z'
loop_
 _atom_site_type_symbol
 _atom_site_label
 _atom_site_symmetry_multiplicity
 _atom_site_fract_x
 _atom_site_fract_y
 _atom_site_fract_z
 _atom_site_occupancy
  Cs  Cs0  1  0.00000000  0.50000000  0.50000000  1
  Cs  Cs1  1  0.50000000  0.00000000  0.50000000  1
  Dy  Dy0  1  0.50000000  0.50000000  0.00000000  1
  Dy  Dy1  1  0.00000000  0.00000000  0.00000000  1
  Br  Br0  1  0.50000000  0.50000000  0.50000000  1
  Br  Br1  1  0.00000000  0.00000000  0.50000000  1
  Br  Br2  1  0.77955700  0.27955700  0.00000000  1
  Br  Br3  1  0.22044300  0.72044300  0.00000000  1
  Br  Br4  1  0.27955700  0.22044300  0.00000000  1
  Br  Br5  1  0.72044300  0.77955700  0.00000000  1
loop_
_geom_bond_atom_site_label_1
_geom_bond_atom_site_label_2
_geom_bond_distance
_geom_bond_site_symmetry_2
Br0 Dy0 2.864911 1_555
Br0 Dy0 2.864911 1_556
Br0 Cs0 4.008701 1_555
Br0 Cs1 4.008701 1_565
Br0 Cs0 4.008701 1_655
Br0 Cs1 4.008701 1_555
Br1 Dy1 2.864911 1_555
Br1 Dy1 2.864911 1_556
Br1 Cs0 4.008701 1_555
Br1 Cs0 4.008701 1_545
Br1 Cs1 4.008701 1_455
Br1 Cs1 4.008701 1_555
Br2 Dy1 2.854322 1_655
Br2 Dy0 2.854322 1_555
Br2 Cs0 3.801971 1_654
Br2 Cs0 3.801971 1_655
Br2 Cs1 4.272558 1_555
Br2 Cs1 4.272558 1_554
Br3 Dy0 2.854322 1_555
Br3 Dy1 2.854322 1_565
Br3 Cs0 3.801971 1_554
Br3 Cs0 3.801971 1_555
Br3 Cs1 4.272558 1_565
Br3 Cs1 4.272558 1_564
Br4 Dy0 2.854322 1_555
Br4 Dy1 2.854322 1_555
Br4 Cs1 3.801971 1_554
Br4 Cs1 3.801971 1_555
Br4 Cs0 4.272558 1_555
Br4 Cs0 4.272558 1_554
Br5 Dy0 2.854322 1_555
Br5 Dy1 2.854322 1_665
Br5 Cs1 3.801971 1_565
Br5 Cs1 3.801971 1_564
Br5 Cs0 4.272558 1_655
Br5 Cs0 4.272558 1_654
