# generated using pymatgen
data_Ba2LiMn2(P2O7)2
_symmetry_space_group_name_H-M   'P 1'
_cell_length_a   5.54458555
_cell_length_b   8.00224883
_cell_length_c   7.64253700
_cell_angle_alpha   104.18285817
_cell_angle_beta   91.11574022
_cell_angle_gamma   91.98164600
_symmetry_Int_Tables_number   1
_chemical_formula_structural   Ba2LiMn2(P2O7)2
_chemical_formula_sum   'Ba2 Li1 Mn2 P4 O14'
_cell_volume   328.42361909
_cell_formula_units_Z   1
loop_
 _symmetry_equiv_pos_site_id
 _symmetry_equiv_pos_as_xyz
  1  'x, y, z'
loop_
 _atom_site_type_symbol
 _atom_site_label
 _atom_site_symmetry_multiplicity
 _atom_site_fract_x
 _atom_site_fract_y
 _atom_site_fract_z
 _atom_site_occupancy
  Ba  Ba0  1  0.21913100  0.78553300  0.94192300  1
  Ba  Ba1  1  0.79318200  0.21660700  0.06642900  1
  Li  Li0  1  0.67510100  0.09480000  0.54259500  1
  Mn  Mn0  1  0.20361200  0.60943300  0.39297300  1
  Mn  Mn1  1  0.80632600  0.41270400  0.62775300  1
  P  P0  1  0.69878100  0.72513200  0.20593800  1
  P  P1  1  0.29455200  0.27575100  0.79261400  1
  P  P2  1  0.71326200  0.79347800  0.60547800  1
  P  P3  1  0.27077800  0.19905100  0.39241700  1
  O  O0  1  0.54034400  0.25230700  0.38155000  1
  O  O1  1  0.47920200  0.68511600  0.60659700  1
  O  O2  1  0.72699700  0.96721400  0.74028200  1
  O  O3  1  0.18124800  0.03973000  0.25272000  1
  O  O4  1  0.10445000  0.35344800  0.40026900  1
  O  O5  1  0.94001700  0.68584100  0.60673700  1
  O  O6  1  0.71335200  0.85225600  0.41268800  1
  O  O7  1  0.26389200  0.14618900  0.58758000  1
  O  O8  1  0.11168300  0.41857000  0.81145400  1
  O  O9  1  0.91262200  0.60640600  0.19506300  1
  O  O10  1  0.55811800  0.34788500  0.80661400  1
  O  O11  1  0.45117400  0.62877400  0.19071500  1
  O  O12  1  0.25335200  0.15758700  0.91948800  1
  O  O13  1  0.71382800  0.84440300  0.07845400  1
loop_
_geom_bond_atom_site_label_1
_geom_bond_atom_site_label_2
_geom_bond_distance
_geom_bond_site_symmetry_2
Ba0 O3 2.739546 1_566
Ba0 O11 2.833613 1_556
Ba0 O5 2.890044 1_455
Ba0 O13 2.896971 1_556
Ba0 O8 2.897135 1_555
Ba0 O1 2.916778 1_555
Ba0 O13 3.020670 1_456
Ba0 O12 3.023555 1_565
Ba0 O9 3.162938 1_456
Ba1 O0 2.769285 1_555
Ba1 O10 2.785884 1_554
Ba1 O2 2.794025 1_544
Ba1 O12 2.815869 1_654
Ba1 O4 3.002659 1_655
Ba1 O13 3.019667 1_545
Ba1 O9 3.076354 1_555
Ba1 O3 3.120723 1_655
Ba1 O12 3.155070 1_554
Ba1 O8 3.317792 1_654
Li0 O6 1.972345 1_545
Li0 O2 2.041340 1_545
Li0 O0 2.109800 1_555
Li0 O7 2.347705 1_555
Li0 O10 2.594813 1_555
Mn0 O4 2.116802 1_555
Mn0 O11 2.117221 1_555
Mn0 O1 2.172893 1_555
Mn0 O9 2.185354 1_455
Mn0 O5 2.200949 1_455
Mn1 O10 2.098310 1_555
Mn1 O8 2.170117 1_655
Mn1 O5 2.327491 1_555
Mn1 O4 2.396224 1_655
Mn1 O0 2.437291 1_555
O0 P3 1.549376 1_555
O1 P2 1.537023 1_555
O2 P2 1.512551 1_555
O3 P3 1.510061 1_555
O4 P3 1.557316 1_555
O5 P2 1.549577 1_555
O6 P2 1.652808 1_555
O6 P0 1.655218 1_555
O7 P3 1.647840 1_555
O7 P1 1.655466 1_555
O8 P1 1.536274 1_555
O9 P0 1.535704 1_555
O10 P1 1.544519 1_555
O11 P0 1.539319 1_555
O12 P1 1.526265 1_555
O13 P0 1.523325 1_555
