# generated using pymatgen
data_Ce2(InSn)3
_symmetry_space_group_name_H-M   'P 1'
_cell_length_a   4.74182373
_cell_length_b   4.84327495
_cell_length_c   9.17884040
_cell_angle_alpha   90.00000000
_cell_angle_beta   90.00000000
_cell_angle_gamma   90.00000000
_symmetry_Int_Tables_number   1
_chemical_formula_structural   Ce2(InSn)3
_chemical_formula_sum   'Ce2 In3 Sn3'
_cell_volume   210.80084557
_cell_formula_units_Z   1
loop_
 _symmetry_equiv_pos_site_id
 _symmetry_equiv_pos_as_xyz
  1  'x, y, z'
loop_
 _atom_site_type_symbol
 _atom_site_label
 _atom_site_symmetry_multiplicity
 _atom_site_fract_x
 _atom_site_fract_y
 _atom_site_fract_z
 _atom_site_occupancy
  Ce  Ce0  1  0.00000000  0.00000000  0.24596467  1
  Ce  Ce1  1  0.00000000  0.00000000  0.75403533  1
  In  In0  1  0.50000000  0.50000000  0.25237751  1
  In  In1  1  0.50000000  0.50000000  0.74762249  1
  In  In2  1  0.00000000  0.50000000  0.50000000  1
  Sn  Sn0  1  0.00000000  0.50000000  0.00000000  1
  Sn  Sn1  1  0.50000000  0.00000000  0.50000000  1
  Sn  Sn2  1  0.50000000  0.00000000  -0.00000000  1
loop_
_geom_bond_atom_site_label_1
_geom_bond_atom_site_label_2
_geom_bond_distance
_geom_bond_site_symmetry_2
Ce0 Sn2 3.273881 1_555
Ce0 Sn2 3.273881 1_455
Ce0 Sn0 3.310801 1_545
Ce0 Sn0 3.310801 1_555
Ce0 Sn1 3.325399 1_555
Ce0 Sn1 3.325399 1_455
Ce0 In2 3.361753 1_555
Ce0 In2 3.361753 1_545
Ce0 In0 3.389545 1_545
Ce0 In0 3.389545 1_555
Ce0 In0 3.389545 1_445
Ce0 In0 3.389545 1_455
Ce1 Sn2 3.273881 1_456
Ce1 Sn2 3.273881 1_556
Ce1 Sn0 3.310801 1_546
Ce1 Sn0 3.310801 1_556
Ce1 Sn1 3.325399 1_555
Ce1 Sn1 3.325399 1_455
Ce1 In2 3.361753 1_555
Ce1 In2 3.361753 1_545
Ce1 In1 3.389545 1_455
Ce1 In1 3.389545 1_445
Ce1 In1 3.389545 1_555
Ce1 In1 3.389545 1_545
In0 In2 3.284393 1_555
In0 In2 3.284393 1_655
In0 Sn0 3.314747 1_555
In0 Sn0 3.314747 1_655
In0 Sn1 3.321196 1_565
In0 Sn1 3.321196 1_555
In0 Sn2 3.351217 1_565
In0 Sn2 3.351217 1_555
In1 In2 3.284393 1_655
In1 In2 3.284393 1_555
In1 Sn0 3.314747 1_556
In1 Sn0 3.314747 1_656
In1 Sn1 3.321196 1_565
In1 Sn1 3.321196 1_555
In1 Sn2 3.351217 1_566
In1 Sn2 3.351217 1_556
In2 Sn1 3.389034 1_455
In2 Sn1 3.389034 1_465
In2 Sn1 3.389034 1_555
In2 Sn1 3.389034 1_565
Sn0 Sn2 3.389034 1_455
Sn0 Sn2 3.389034 1_565
Sn0 Sn2 3.389034 1_555
Sn0 Sn2 3.389034 1_465
