# generated using pymatgen
data_Li9Mn2Co5O16
_symmetry_space_group_name_H-M   'P 1'
_cell_length_a   5.80387600
_cell_length_b   5.87268600
_cell_length_c   8.49082895
_cell_angle_alpha   89.40557498
_cell_angle_beta   90.00000000
_cell_angle_gamma   90.00000000
_symmetry_Int_Tables_number   1
_chemical_formula_structural   Li9Mn2Co5O16
_chemical_formula_sum   'Li9 Mn2 Co5 O16'
_cell_volume   289.38873727
_cell_formula_units_Z   1
loop_
 _symmetry_equiv_pos_site_id
 _symmetry_equiv_pos_as_xyz
  1  'x, y, z'
loop_
 _atom_site_type_symbol
 _atom_site_label
 _atom_site_symmetry_multiplicity
 _atom_site_fract_x
 _atom_site_fract_y
 _atom_site_fract_z
 _atom_site_occupancy
  Li  Li0  1  0.25506500  0.25125700  0.26073800  1
  Li  Li1  1  0.25506500  0.74874300  0.73926200  1
  Li  Li2  1  0.50000000  0.00000000  0.50000000  1
  Li  Li3  1  0.50000000  0.50000000  0.00000000  1
  Li  Li4  1  0.74493500  0.74874300  0.73926200  1
  Li  Li5  1  0.74493500  0.25125700  0.26073800  1
  Li  Li6  1  0.00000000  0.50000000  0.00000000  1
  Li  Li7  1  0.00000000  0.00000000  0.50000000  1
  Li  Li8  1  0.50000000  0.50000000  0.50000000  1
  Mn  Mn0  1  0.00000000  0.00000000  0.00000000  1
  Mn  Mn1  1  0.50000000  0.00000000  0.00000000  1
  Co  Co0  1  0.00000000  0.50000000  0.50000000  1
  Co  Co1  1  0.25696400  0.74391700  0.26221400  1
  Co  Co2  1  0.25696400  0.25608300  0.73778600  1
  Co  Co3  1  0.74303600  0.25608300  0.73778600  1
  Co  Co4  1  0.74303600  0.74391700  0.26221400  1
  O  O0  1  0.24499200  0.22609900  0.99907100  1
  O  O1  1  0.22803600  0.73095300  0.49111900  1
  O  O2  1  0.50000000  0.99340500  0.26073000  1
  O  O3  1  0.50000000  0.47620700  0.75954000  1
  O  O4  1  0.77196400  0.73095300  0.49111900  1
  O  O5  1  0.75500800  0.22609900  0.99907100  1
  O  O6  1  0.00000000  0.49774200  0.72850900  1
  O  O7  1  0.00000000  0.97524400  0.23086400  1
  O  O8  1  0.22803600  0.26904700  0.50888100  1
  O  O9  1  0.24499200  0.77390100  0.00092900  1
  O  O10  1  0.50000000  0.00659500  0.73927000  1
  O  O11  1  0.50000000  0.52379300  0.24046000  1
  O  O12  1  0.75500800  0.77390100  0.00092900  1
  O  O13  1  0.77196400  0.26904700  0.50888100  1
  O  O14  1  0.00000000  0.50225800  0.27149100  1
  O  O15  1  0.00000000  0.02475600  0.76913600  1
loop_
_geom_bond_atom_site_label_1
_geom_bond_atom_site_label_2
_geom_bond_distance
_geom_bond_site_symmetry_2
Li0 O2 2.076999 1_545
Li0 O14 2.091754 1_555
Li0 O8 2.116433 1_555
Li0 O11 2.146265 1_555
Li0 O7 2.211740 1_545
Li0 O0 2.228972 1_554
Li1 O10 2.076999 1_565
Li1 O6 2.091754 1_555
Li1 O1 2.116433 1_555
Li1 O3 2.146265 1_555
Li1 O15 2.211740 1_565
Li1 O9 2.228972 1_556
Li2 O2 2.032371 1_545
Li2 O10 2.032371 1_555
Li2 O8 2.235204 1_555
Li2 O13 2.235204 1_555
Li2 O1 2.235204 1_545
Li2 O4 2.235204 1_545
Li3 O3 2.047926 1_554
Li3 O11 2.047926 1_555
Li3 O9 2.185912 1_555
Li3 O12 2.185912 1_555
Li3 O5 2.185912 1_554
Li3 O0 2.185912 1_554
Li4 O10 2.076999 1_565
Li4 O6 2.091754 1_655
Li4 O4 2.116433 1_555
Li4 O3 2.146265 1_555
Li4 O15 2.211740 1_665
Li4 O12 2.228972 1_556
Li5 O2 2.076999 1_545
Li5 O14 2.091754 1_655
Li5 O13 2.116433 1_555
Li5 O11 2.146265 1_555
Li5 O7 2.211740 1_645
Li5 O5 2.228972 1_554
Li6 O12 2.146979 1_455
Li6 O9 2.146979 1_555
Li6 O0 2.146979 1_554
Li6 O5 2.146979 1_454
Li6 O14 2.305359 1_555
Li6 O6 2.305359 1_554
Li7 O8 2.063076 1_555
Li7 O13 2.063076 1_455
Li7 O1 2.063076 1_545
Li7 O4 2.063076 1_445
Li7 O15 2.291313 1_555
Li7 O7 2.291313 1_545
Li8 O4 2.081980 1_555
Li8 O1 2.081980 1_555
Li8 O8 2.081980 1_555
Li8 O13 2.081980 1_555
Li8 O11 2.206688 1_555
Li8 O3 2.206688 1_555
Mn0 O0 1.945438 1_554
Mn0 O5 1.945438 1_454
Mn0 O9 1.945438 1_545
Mn0 O12 1.945438 1_445
Mn0 O7 1.964106 1_545
Mn0 O15 1.964106 1_554
Mn1 O0 1.988322 1_554
Mn1 O5 1.988322 1_554
Mn1 O12 1.988322 1_545
Mn1 O9 1.988322 1_545
Mn1 O10 2.213751 1_554
Mn1 O2 2.213751 1_545
Co0 O1 1.895992 1_555
Co0 O8 1.895992 1_555
Co0 O4 1.895992 1_455
Co0 O13 1.895992 1_455
Co0 O6 1.940139 1_555
Co0 O14 1.940139 1_555
Co1 O11 1.923499 1_555
Co1 O1 1.951530 1_555
Co1 O7 2.033013 1_555
Co1 O2 2.033749 1_555
Co1 O14 2.059664 1_555
Co1 O9 2.224767 1_555
Co2 O3 1.923499 1_555
Co2 O8 1.951530 1_555
Co2 O15 2.033013 1_555
Co2 O10 2.033749 1_555
Co2 O6 2.059664 1_555
Co2 O0 2.224767 1_555
Co3 O3 1.923499 1_555
Co3 O13 1.951530 1_555
Co3 O15 2.033013 1_655
Co3 O10 2.033749 1_555
Co3 O6 2.059664 1_655
Co3 O5 2.224767 1_555
Co4 O11 1.923499 1_555
Co4 O4 1.951530 1_555
Co4 O7 2.033013 1_655
Co4 O2 2.033749 1_555
Co4 O14 2.059664 1_655
Co4 O12 2.224767 1_555
