# generated using pymatgen
data_InFeNi
_symmetry_space_group_name_H-M   'P 1'
_cell_length_a   5.59022000
_cell_length_b   8.52671006
_cell_length_c   8.52671006
_cell_angle_alpha   59.99880461
_cell_angle_beta   90.00000000
_cell_angle_gamma   90.00000000
_symmetry_Int_Tables_number   1
_chemical_formula_structural   InFeNi
_chemical_formula_sum   'In8 Fe8 Ni8'
_cell_volume   351.97943635
_cell_formula_units_Z   8
loop_
 _symmetry_equiv_pos_site_id
 _symmetry_equiv_pos_as_xyz
  1  'x, y, z'
loop_
 _atom_site_type_symbol
 _atom_site_label
 _atom_site_symmetry_multiplicity
 _atom_site_fract_x
 _atom_site_fract_y
 _atom_site_fract_z
 _atom_site_occupancy
  In  In0_0  1  0.00000000  0.49999650  0.49999650  1
  In  In0_1  1  0.00000000  0.49999650  0.99999650  1
  In  In0_2  1  0.00000000  0.99999650  0.49999650  1
  In  In0_3  1  0.00000000  0.99999650  0.99999650  1
  In  In0_4  1  0.50000000  0.49999650  0.49999650  1
  In  In0_5  1  0.50000000  0.49999650  0.99999650  1
  In  In0_6  1  0.50000000  0.99999650  0.49999650  1
  In  In0_7  1  0.50000000  0.99999650  0.99999650  1
  Fe  Fe0_0  1  0.25000000  0.33332900  0.33332900  1
  Fe  Fe0_1  1  0.25000000  0.33332900  0.83332900  1
  Fe  Fe0_2  1  0.25000000  0.83332900  0.33332900  1
  Fe  Fe0_3  1  0.25000000  0.83332900  0.83332900  1
  Fe  Fe0_4  1  0.75000000  0.33332900  0.33332900  1
  Fe  Fe0_5  1  0.75000000  0.33332900  0.83332900  1
  Fe  Fe0_6  1  0.75000000  0.83332900  0.33332900  1
  Fe  Fe0_7  1  0.75000000  0.83332900  0.83332900  1
  Ni  Ni0_0  1  0.25000000  0.16667450  0.16667450  1
  Ni  Ni0_1  1  0.25000000  0.16667450  0.66667450  1
  Ni  Ni0_2  1  0.25000000  0.66667450  0.16667450  1
  Ni  Ni0_3  1  0.25000000  0.66667450  0.66667450  1
  Ni  Ni0_4  1  0.75000000  0.16667450  0.16667450  1
  Ni  Ni0_5  1  0.75000000  0.16667450  0.66667450  1
  Ni  Ni0_6  1  0.75000000  0.66667450  0.16667450  1
  Ni  Ni0_7  1  0.75000000  0.66667450  0.66667450  1
loop_
_geom_bond_atom_site_label_1
_geom_bond_atom_site_label_2
_geom_bond_distance
_geom_bond_site_symmetry_2
In0_0 In0_4 2.795110 1_555
In0_0 In0_4 2.795110 1_455
In0_0 Ni0_5 2.830430 1_455
In0_0 Ni0_2 2.830430 1_555
In0_0 Ni0_6 2.830430 1_455
In0_0 Ni0_1 2.830430 1_555
In0_0 Ni0_3 2.830687 1_555
In0_0 Ni0_7 2.830687 1_455
In0_1 In0_5 2.795110 1_455
In0_1 In0_5 2.795110 1_555
In0_1 Ni0_0 2.830430 1_556
In0_1 Ni0_4 2.830430 1_456
In0_1 Ni0_3 2.830430 1_555
In0_1 Ni0_7 2.830430 1_455
In0_1 Ni0_2 2.830687 1_556
In0_1 Ni0_6 2.830687 1_456
In0_2 In0_6 2.795110 1_455
In0_2 In0_6 2.795110 1_555
In0_2 Ni0_0 2.830430 1_565
In0_2 Ni0_4 2.830430 1_465
In0_2 Ni0_3 2.830430 1_555
In0_2 Ni0_7 2.830430 1_455
In0_2 Ni0_1 2.830687 1_565
In0_2 Ni0_5 2.830687 1_465
In0_3 In0_7 2.795110 1_455
In0_3 In0_7 2.795110 1_555
In0_3 Ni0_5 2.830430 1_465
In0_3 Ni0_1 2.830430 1_565
In0_3 Ni0_2 2.830430 1_556
In0_3 Ni0_6 2.830430 1_456
In0_3 Ni0_0 2.830687 1_566
In0_3 Ni0_4 2.830687 1_466
In0_4 Ni0_5 2.830430 1_555
In0_4 Ni0_2 2.830430 1_555
In0_4 Ni0_6 2.830430 1_555
In0_4 Ni0_1 2.830430 1_555
In0_4 Ni0_7 2.830687 1_555
In0_4 Ni0_3 2.830687 1_555
In0_5 Ni0_0 2.830430 1_556
In0_5 Ni0_4 2.830430 1_556
In0_5 Ni0_3 2.830430 1_555
In0_5 Ni0_7 2.830430 1_555
In0_5 Ni0_6 2.830687 1_556
In0_5 Ni0_2 2.830687 1_556
In0_6 Ni0_0 2.830430 1_565
In0_6 Ni0_4 2.830430 1_565
In0_6 Ni0_3 2.830430 1_555
In0_6 Ni0_7 2.830430 1_555
In0_6 Ni0_5 2.830687 1_565
In0_6 Ni0_1 2.830687 1_565
In0_7 Ni0_1 2.830430 1_565
In0_7 Ni0_2 2.830430 1_556
In0_7 Ni0_6 2.830430 1_556
In0_7 Ni0_5 2.830430 1_565
In0_7 Ni0_4 2.830687 1_566
In0_7 Ni0_0 2.830687 1_566
Fe0_0 Ni0_0 2.461284 1_555
Fe0_0 Ni0_1 2.461509 1_555
Fe0_0 Ni0_2 2.461509 1_555
Fe0_0 Fe0_4 2.795110 1_555
Fe0_0 Fe0_4 2.795110 1_455
Fe0_0 In0_2 2.830497 1_545
Fe0_0 In0_6 2.830497 1_545
Fe0_0 In0_1 2.830497 1_554
Fe0_0 In0_5 2.830497 1_554
Fe0_0 In0_0 2.830552 1_555
Fe0_0 In0_4 2.830552 1_555
Fe0_1 Ni0_1 2.461284 1_555
Fe0_1 Ni0_3 2.461509 1_555
Fe0_1 Ni0_0 2.461509 1_556
Fe0_1 Fe0_5 2.795110 1_455
Fe0_1 Fe0_5 2.795110 1_555
Fe0_1 In0_3 2.830497 1_545
Fe0_1 In0_0 2.830497 1_555
Fe0_1 In0_4 2.830497 1_555
Fe0_1 In0_7 2.830497 1_545
Fe0_1 In0_1 2.830552 1_555
Fe0_1 In0_5 2.830552 1_555
Fe0_2 Ni0_2 2.461284 1_555
Fe0_2 Ni0_3 2.461509 1_555
Fe0_2 Ni0_0 2.461509 1_565
Fe0_2 Fe0_6 2.795110 1_555
Fe0_2 Fe0_6 2.795110 1_455
Fe0_2 In0_7 2.830497 1_554
Fe0_2 In0_0 2.830497 1_555
Fe0_2 In0_4 2.830497 1_555
Fe0_2 In0_3 2.830497 1_554
Fe0_2 In0_2 2.830552 1_555
Fe0_2 In0_6 2.830552 1_555
Fe0_3 Ni0_3 2.461284 1_555
Fe0_3 Ni0_1 2.461509 1_565
Fe0_3 Ni0_2 2.461509 1_556
Fe0_3 Fe0_7 2.795110 1_455
Fe0_3 Fe0_7 2.795110 1_555
Fe0_3 In0_2 2.830497 1_555
Fe0_3 In0_6 2.830497 1_555
Fe0_3 In0_1 2.830497 1_555
Fe0_3 In0_5 2.830497 1_555
Fe0_3 In0_3 2.830552 1_555
Fe0_3 In0_7 2.830552 1_555
Fe0_4 Ni0_4 2.461284 1_555
Fe0_4 Ni0_6 2.461509 1_555
Fe0_4 Ni0_5 2.461509 1_555
Fe0_4 In0_6 2.830497 1_545
Fe0_4 In0_2 2.830497 1_645
Fe0_4 In0_5 2.830497 1_554
Fe0_4 In0_1 2.830497 1_654
Fe0_4 In0_4 2.830552 1_555
Fe0_4 In0_0 2.830552 1_655
Fe0_5 Ni0_5 2.461284 1_555
Fe0_5 Ni0_7 2.461509 1_555
Fe0_5 Ni0_4 2.461509 1_556
Fe0_5 In0_3 2.830497 1_645
Fe0_5 In0_4 2.830497 1_555
Fe0_5 In0_7 2.830497 1_545
Fe0_5 In0_0 2.830497 1_655
Fe0_5 In0_1 2.830552 1_655
Fe0_5 In0_5 2.830552 1_555
Fe0_6 Ni0_6 2.461284 1_555
Fe0_6 Ni0_7 2.461509 1_555
Fe0_6 Ni0_4 2.461509 1_565
Fe0_6 In0_7 2.830497 1_554
Fe0_6 In0_3 2.830497 1_654
Fe0_6 In0_4 2.830497 1_555
Fe0_6 In0_0 2.830497 1_655
Fe0_6 In0_2 2.830552 1_655
Fe0_6 In0_6 2.830552 1_555
Fe0_7 Ni0_7 2.461284 1_555
Fe0_7 Ni0_6 2.461509 1_556
Fe0_7 Ni0_5 2.461509 1_565
Fe0_7 In0_6 2.830497 1_555
Fe0_7 In0_2 2.830497 1_655
Fe0_7 In0_5 2.830497 1_555
Fe0_7 In0_1 2.830497 1_655
Fe0_7 In0_7 2.830552 1_555
Fe0_7 In0_3 2.830552 1_655
Ni0_0 Ni0_4 2.795110 1_455
Ni0_0 Ni0_4 2.795110 1_555
Ni0_1 Ni0_5 2.795110 1_455
Ni0_1 Ni0_5 2.795110 1_555
Ni0_2 Ni0_6 2.795110 1_555
Ni0_2 Ni0_6 2.795110 1_455
Ni0_3 Ni0_7 2.795110 1_555
Ni0_3 Ni0_7 2.795110 1_455
