# generated using pymatgen
data_Li9Mn2Co5O16
_symmetry_space_group_name_H-M   'P 1'
_cell_length_a   5.10148500
_cell_length_b   5.87285500
_cell_length_c   10.06995992
_cell_angle_alpha   105.50572630
_cell_angle_beta   100.71809932
_cell_angle_gamma   90.36779529
_symmetry_Int_Tables_number   1
_chemical_formula_structural   Li9Mn2Co5O16
_chemical_formula_sum   'Li9 Mn2 Co5 O16'
_cell_volume   285.14374247
_cell_formula_units_Z   1
loop_
 _symmetry_equiv_pos_site_id
 _symmetry_equiv_pos_as_xyz
  1  'x, y, z'
loop_
 _atom_site_type_symbol
 _atom_site_label
 _atom_site_symmetry_multiplicity
 _atom_site_fract_x
 _atom_site_fract_y
 _atom_site_fract_z
 _atom_site_occupancy
  Li  Li0  1  0.24818700  0.61924800  0.74577600  1
  Li  Li1  1  0.00767200  0.25809100  0.50126500  1
  Li  Li2  1  0.25468000  0.12460400  0.74826200  1
  Li  Li3  1  0.99232800  0.74190900  0.49873500  1
  Li  Li4  1  0.50000000  0.00000000  0.00000000  1
  Li  Li5  1  0.50000000  0.50000000  0.00000000  1
  Li  Li6  1  0.75181300  0.38075200  0.25422400  1
  Li  Li7  1  0.74532000  0.87539600  0.25173800  1
  Li  Li8  1  0.50000000  0.50000000  0.50000000  1
  Mn  Mn0  1  0.74723900  0.87149100  0.74488100  1
  Mn  Mn1  1  0.25276100  0.12850900  0.25511900  1
  Co  Co0  1  0.00032000  0.74757600  0.00239500  1
  Co  Co1  1  0.72777800  0.37540900  0.73875000  1
  Co  Co2  1  0.50000000  0.00000000  0.50000000  1
  Co  Co3  1  0.27222200  0.62459100  0.26125000  1
  Co  Co4  1  0.99968000  0.25242400  0.99760500  1
  O  O0  1  0.09497300  0.93215200  0.87355600  1
  O  O1  1  0.87013900  0.58425700  0.63661300  1
  O  O2  1  0.10494100  0.43312800  0.88024100  1
  O  O3  1  0.85451900  0.05705600  0.62733200  1
  O  O4  1  0.35996900  0.30453400  0.13362500  1
  O  O5  1  0.35693400  0.83147400  0.13153500  1
  O  O6  1  0.60876000  0.68132700  0.36600300  1
  O  O7  1  0.59469100  0.17008300  0.37839900  1
  O  O8  1  0.39124000  0.31867300  0.63399700  1
  O  O9  1  0.14548100  0.94294400  0.37266800  1
  O  O10  1  0.40530900  0.82991700  0.62160100  1
  O  O11  1  0.12986100  0.41574300  0.36338700  1
  O  O12  1  0.64003100  0.69546600  0.86637500  1
  O  O13  1  0.64306600  0.16852600  0.86846500  1
  O  O14  1  0.90502700  0.06784800  0.12644400  1
  O  O15  1  0.89505900  0.56687200  0.11975900  1
loop_
_geom_bond_atom_site_label_1
_geom_bond_atom_site_label_2
_geom_bond_distance
_geom_bond_site_symmetry_2
Li0 O1 2.013879 1_455
Li0 O8 2.043365 1_555
Li0 O12 2.113302 1_555
Li0 O2 2.170576 1_555
Li0 O0 2.184449 1_555
Li0 O10 2.219024 1_555
Li1 O11 2.043364 1_555
Li1 O8 2.122738 1_555
Li1 O9 2.161149 1_545
Li1 O3 2.185049 1_455
Li1 O7 2.216115 1_455
Li1 O1 2.235216 1_455
Li2 O8 2.024221 1_555
Li2 O13 2.095679 1_555
Li2 O10 2.100923 1_545
Li2 O3 2.148101 1_455
Li2 O0 2.160126 1_545
Li2 O2 2.177323 1_555
Li3 O1 2.043364 1_555
Li3 O6 2.122738 1_555
Li3 O3 2.161149 1_565
Li3 O9 2.185049 1_655
Li3 O10 2.216115 1_655
Li3 O11 2.235216 1_655
Li4 O5 2.077957 1_545
Li4 O13 2.077957 1_554
Li4 O4 2.146357 1_555
Li4 O12 2.146357 1_544
Li4 O14 2.188369 1_555
Li4 O0 2.188369 1_544
Li5 O15 2.122018 1_555
Li5 O2 2.122018 1_554
Li5 O12 2.193543 1_554
Li5 O4 2.193543 1_555
Li5 O5 2.252981 1_555
Li5 O13 2.252981 1_554
Li6 O11 2.013879 1_655
Li6 O6 2.043365 1_555
Li6 O4 2.113302 1_555
Li6 O15 2.170576 1_555
Li6 O14 2.184449 1_555
Li6 O7 2.219024 1_555
Li7 O6 2.024221 1_555
Li7 O5 2.095679 1_555
Li7 O7 2.100923 1_565
Li7 O9 2.148101 1_655
Li7 O14 2.160126 1_565
Li7 O15 2.177323 1_555
Li8 O8 2.074070 1_555
Li8 O6 2.074070 1_555
Li8 O1 2.088234 1_555
Li8 O11 2.088234 1_555
Li8 O10 2.109599 1_555
Li8 O7 2.109599 1_555
Mn0 O10 1.915860 1_555
Mn0 O1 1.926611 1_555
Mn0 O12 1.944854 1_555
Mn0 O3 1.952278 1_565
Mn0 O0 1.960337 1_655
Mn0 O13 1.992842 1_565
Mn1 O7 1.915860 1_555
Mn1 O11 1.926611 1_555
Mn1 O4 1.944854 1_555
Mn1 O9 1.952278 1_545
Mn1 O14 1.960337 1_455
Mn1 O5 1.992842 1_545
Co0 O15 1.926322 1_455
Co0 O5 2.002383 1_555
Co0 O0 2.017348 1_554
Co0 O12 2.044578 1_454
Co0 O2 2.061696 1_554
Co0 O14 2.077485 1_465
Co1 O8 1.817254 1_555
Co1 O1 2.007626 1_555
Co1 O12 2.078061 1_555
Co1 O3 2.082357 1_555
Co1 O13 2.102610 1_555
Co1 O2 2.135605 1_655
Co2 O7 1.896929 1_555
Co2 O10 1.896929 1_545
Co2 O3 1.981732 1_555
Co2 O9 1.981732 1_545
Co2 O8 2.138399 1_555
Co2 O6 2.138399 1_545
Co3 O6 1.817254 1_555
Co3 O11 2.007626 1_555
Co3 O4 2.078061 1_555
Co3 O9 2.082357 1_555
Co3 O5 2.102610 1_555
Co3 O15 2.135605 1_455
Co4 O2 1.926322 1_655
Co4 O13 2.002383 1_555
Co4 O14 2.017348 1_556
Co4 O4 2.044578 1_656
Co4 O15 2.061696 1_556
Co4 O0 2.077485 1_645
