# generated using pymatgen
data_Mg14VCoO16
_symmetry_space_group_name_H-M   'P 1'
_cell_length_a   8.51980507
_cell_length_b   8.56929481
_cell_length_c   4.27323439
_cell_angle_alpha   90.00000000
_cell_angle_beta   90.00000000
_cell_angle_gamma   90.00000000
_symmetry_Int_Tables_number   1
_chemical_formula_structural   Mg14VCoO16
_chemical_formula_sum   'Mg14 V1 Co1 O16'
_cell_volume   311.98337892
_cell_formula_units_Z   1
loop_
 _symmetry_equiv_pos_site_id
 _symmetry_equiv_pos_as_xyz
  1  'x, y, z'
loop_
 _atom_site_type_symbol
 _atom_site_label
 _atom_site_symmetry_multiplicity
 _atom_site_fract_x
 _atom_site_fract_y
 _atom_site_fract_z
 _atom_site_occupancy
  Mg  Mg0  1  0.50000000  0.00000000  0.00000000  1
  Mg  Mg1  1  0.50000000  0.50000000  0.00000000  1
  Mg  Mg2  1  0.00000000  0.24892209  0.50000000  1
  Mg  Mg3  1  0.00000000  0.75107791  0.50000000  1
  Mg  Mg4  1  0.50000000  0.25028847  0.50000000  1
  Mg  Mg5  1  0.50000000  0.74971153  0.50000000  1
  Mg  Mg6  1  0.25043371  0.00000000  0.50000000  1
  Mg  Mg7  1  0.25063345  0.50000000  0.50000000  1
  Mg  Mg8  1  0.74956629  0.00000000  0.50000000  1
  Mg  Mg9  1  0.74936655  0.50000000  0.50000000  1
  Mg  Mg10  1  0.24921189  0.24964929  0.00000000  1
  Mg  Mg11  1  0.24921189  0.75035071  0.00000000  1
  Mg  Mg12  1  0.75078811  0.24964929  0.00000000  1
  Mg  Mg13  1  0.75078811  0.75035071  0.00000000  1
  V  V0  1  0.00000000  0.50000000  0.00000000  1
  Co  Co0  1  0.00000000  0.00000000  0.00000000  1
  O  O0  1  0.25088122  0.00000000  0.00000000  1
  O  O1  1  0.25590150  0.50000000  0.00000000  1
  O  O2  1  0.74911878  0.00000000  0.00000000  1
  O  O3  1  0.74409850  0.50000000  0.00000000  1
  O  O4  1  0.24953976  0.24946963  0.50000000  1
  O  O5  1  0.24953976  0.75053037  0.50000000  1
  O  O6  1  0.75046024  0.24946963  0.50000000  1
  O  O7  1  0.75046024  0.75053037  0.50000000  1
  O  O8  1  0.00000000  0.00000000  0.50000000  1
  O  O9  1  0.00000000  0.50000000  0.50000000  1
  O  O10  1  0.50000000  0.00000000  0.50000000  1
  O  O11  1  0.50000000  0.50000000  0.50000000  1
  O  O12  1  0.00000000  0.24919318  0.00000000  1
  O  O13  1  0.00000000  0.75080682  0.00000000  1
  O  O14  1  0.50000000  0.24874922  0.00000000  1
  O  O15  1  0.50000000  0.75125078  0.00000000  1
loop_
_geom_bond_atom_site_label_1
_geom_bond_atom_site_label_2
_geom_bond_distance
_geom_bond_site_symmetry_2
Mg0 O0 2.122443 1_555
Mg0 O2 2.122443 1_555
Mg0 O15 2.131605 1_545
Mg0 O14 2.131605 1_555
Mg0 O10 2.136617 1_555
Mg0 O10 2.136617 1_554
Mg1 O1 2.079672 1_555
Mg1 O3 2.079672 1_555
Mg1 O11 2.136617 1_554
Mg1 O11 2.136617 1_555
Mg1 O14 2.153042 1_555
Mg1 O15 2.153042 1_555
Mg2 O4 2.126035 1_555
Mg2 O6 2.126035 1_455
Mg2 O8 2.133087 1_555
Mg2 O12 2.136618 1_556
Mg2 O12 2.136618 1_555
Mg2 O9 2.151561 1_555
Mg3 O5 2.126035 1_555
Mg3 O7 2.126035 1_455
Mg3 O8 2.133087 1_565
Mg3 O13 2.136618 1_555
Mg3 O13 2.136618 1_556
Mg3 O9 2.151561 1_555
Mg4 O6 2.133884 1_555
Mg4 O4 2.133884 1_555
Mg4 O14 2.136658 1_555
Mg4 O14 2.136658 1_556
Mg4 O11 2.139852 1_555
Mg4 O10 2.144796 1_555
Mg5 O7 2.133884 1_555
Mg5 O5 2.133884 1_555
Mg5 O15 2.136658 1_556
Mg5 O15 2.136658 1_555
Mg5 O11 2.139852 1_555
Mg5 O10 2.144796 1_565
Mg6 O10 2.126256 1_555
Mg6 O8 2.133646 1_555
Mg6 O0 2.136621 1_555
Mg6 O0 2.136621 1_556
Mg6 O5 2.137792 1_545
Mg6 O4 2.137792 1_555
Mg7 O11 2.124554 1_555
Mg7 O9 2.135348 1_555
Mg7 O1 2.137089 1_555
Mg7 O1 2.137089 1_556
Mg7 O5 2.146889 1_555
Mg7 O4 2.146889 1_555
Mg8 O10 2.126256 1_555
Mg8 O8 2.133646 1_655
Mg8 O2 2.136621 1_555
Mg8 O2 2.136621 1_556
Mg8 O6 2.137792 1_555
Mg8 O7 2.137792 1_545
Mg9 O11 2.124554 1_555
Mg9 O9 2.135348 1_655
Mg9 O3 2.137089 1_556
Mg9 O3 2.137089 1_555
Mg9 O6 2.146889 1_555
Mg9 O7 2.146889 1_555
Mg10 O12 2.123240 1_555
Mg10 O4 2.136620 1_554
Mg10 O4 2.136620 1_555
Mg10 O14 2.136680 1_555
Mg10 O0 2.139366 1_555
Mg10 O1 2.146086 1_555
Mg11 O13 2.123240 1_555
Mg11 O5 2.136620 1_555
Mg11 O5 2.136620 1_554
Mg11 O15 2.136680 1_555
Mg11 O0 2.139366 1_565
Mg11 O1 2.146086 1_555
Mg12 O12 2.123240 1_655
Mg12 O6 2.136620 1_555
Mg12 O6 2.136620 1_554
Mg12 O14 2.136680 1_555
Mg12 O2 2.139366 1_555
Mg12 O3 2.146086 1_555
Mg13 O13 2.123240 1_655
Mg13 O7 2.136620 1_555
Mg13 O7 2.136620 1_554
Mg13 O15 2.136680 1_555
Mg13 O2 2.139366 1_565
Mg13 O3 2.146086 1_555
Co0 O13 2.135410 1_545
Co0 O12 2.135410 1_555
Co0 O8 2.136617 1_555
Co0 O8 2.136617 1_554
Co0 O0 2.137459 1_555
Co0 O2 2.137459 1_455
O1 V0 2.180231 1_555
O3 V0 2.180231 1_655
O9 V0 2.136617 1_556
O9 V0 2.136617 1_555
O12 V0 2.149238 1_555
O13 V0 2.149238 1_555
