# generated using pymatgen
data_Ce4CI6N
_symmetry_space_group_name_H-M   'P 1'
_cell_length_a   9.61645308
_cell_length_b   14.08859921
_cell_length_c   14.08859921
_cell_angle_alpha   90.00000000
_cell_angle_beta   90.00000000
_cell_angle_gamma   90.00000000
_symmetry_Int_Tables_number   1
_chemical_formula_structural   Ce4CI6N
_chemical_formula_sum   'Ce16 C4 I24 N4'
_cell_volume   1908.75657519
_cell_formula_units_Z   4
loop_
 _symmetry_equiv_pos_site_id
 _symmetry_equiv_pos_as_xyz
  1  'x, y, z'
loop_
 _atom_site_type_symbol
 _atom_site_label
 _atom_site_symmetry_multiplicity
 _atom_site_fract_x
 _atom_site_fract_y
 _atom_site_fract_z
 _atom_site_occupancy
  Ce  Ce0  1  0.50000000  0.09010389  0.90989611  1
  Ce  Ce1  1  0.50000000  0.90989611  0.09010389  1
  Ce  Ce2  1  0.00000000  0.40989611  0.40989611  1
  Ce  Ce3  1  0.00000000  0.59010389  0.59010389  1
  Ce  Ce4  1  0.30922867  0.41309922  0.58690078  1
  Ce  Ce5  1  0.30922867  0.58690078  0.41309922  1
  Ce  Ce6  1  0.80922867  0.08690078  0.08690078  1
  Ce  Ce7  1  0.80922867  0.91309922  0.91309922  1
  Ce  Ce8  1  0.69077133  0.58690078  0.41309922  1
  Ce  Ce9  1  0.69077133  0.41309922  0.58690078  1
  Ce  Ce10  1  0.19077133  0.91309922  0.91309922  1
  Ce  Ce11  1  0.19077133  0.08690078  0.08690078  1
  Ce  Ce12  1  0.50000000  0.34750204  0.34750204  1
  Ce  Ce13  1  0.50000000  0.65249796  0.65249796  1
  Ce  Ce14  1  0.00000000  0.15249796  0.84750204  1
  Ce  Ce15  1  0.00000000  0.84750204  0.15249796  1
  C  C0  1  0.50000000  0.46417357  0.46417357  1
  C  C1  1  0.50000000  0.53582643  0.53582643  1
  C  C2  1  0.00000000  0.03582643  0.96417357  1
  C  C3  1  0.00000000  0.96417357  0.03582643  1
  I  I0  1  0.50000000  0.28050803  0.71949197  1
  I  I1  1  0.50000000  0.71949197  0.28050803  1
  I  I2  1  0.00000000  0.21949197  0.21949197  1
  I  I3  1  0.00000000  0.78050803  0.78050803  1
  I  I4  1  0.50000000  0.17093291  0.17093291  1
  I  I5  1  0.50000000  0.82906709  0.82906709  1
  I  I6  1  0.00000000  0.32906709  0.67093291  1
  I  I7  1  0.00000000  0.67093291  0.32906709  1
  I  I8  1  0.24834235  0.04934762  0.73596669  1
  I  I9  1  0.24834235  0.95065238  0.26403331  1
  I  I10  1  0.74834235  0.45065238  0.23596669  1
  I  I11  1  0.74834235  0.54934762  0.76403331  1
  I  I12  1  0.75165765  0.95065238  0.26403331  1
  I  I13  1  0.75165765  0.04934762  0.73596669  1
  I  I14  1  0.25165765  0.54934762  0.76403331  1
  I  I15  1  0.25165765  0.45065238  0.23596669  1
  I  I16  1  0.24834235  0.73596669  0.04934762  1
  I  I17  1  0.24834235  0.26403331  0.95065238  1
  I  I18  1  0.74834235  0.23596669  0.45065238  1
  I  I19  1  0.74834235  0.76403331  0.54934762  1
  I  I20  1  0.75165765  0.26403331  0.95065238  1
  I  I21  1  0.75165765  0.73596669  0.04934762  1
  I  I22  1  0.25165765  0.76403331  0.54934762  1
  I  I23  1  0.25165765  0.23596669  0.45065238  1
  N  N0  1  0.15158597  0.50000000  0.50000000  1
  N  N1  1  0.65158597  0.00000000  -0.00000000  1
  N  N2  1  0.84841403  0.50000000  0.50000000  1
  N  N3  1  0.34841403  0.00000000  -0.00000000  1
loop_
_geom_bond_atom_site_label_1
_geom_bond_atom_site_label_2
_geom_bond_distance
_geom_bond_site_symmetry_2
Ce0 N1 2.312550 1_556
Ce0 N3 2.312550 1_556
Ce0 I8 3.491552 1_555
Ce0 I17 3.491552 1_555
Ce0 I13 3.491552 1_555
Ce0 I20 3.491552 1_555
Ce0 I0 3.793667 1_555
Ce1 N1 2.312550 1_565
Ce1 N3 2.312550 1_565
Ce1 I16 3.491552 1_555
Ce1 I9 3.491552 1_555
Ce1 I21 3.491552 1_555
Ce1 I12 3.491552 1_555
Ce1 I1 3.793667 1_555
Ce2 N2 2.312550 1_455
Ce2 N0 2.312550 1_555
Ce2 I18 3.491552 1_455
Ce2 I10 3.491552 1_455
Ce2 I15 3.491552 1_555
Ce2 I23 3.491552 1_555
Ce2 I2 3.793667 1_555
Ce3 N2 2.312550 1_455
Ce3 N0 2.312550 1_555
Ce3 I11 3.491552 1_455
Ce3 I19 3.491552 1_455
Ce3 I14 3.491552 1_555
Ce3 I22 3.491552 1_555
Ce3 I3 3.793667 1_555
Ce4 N0 2.301308 1_555
Ce4 I23 3.196708 1_555
Ce4 I14 3.196708 1_555
Ce4 I0 3.216299 1_555
Ce4 I6 3.412624 1_555
Ce5 N0 2.301308 1_555
Ce5 I15 3.196708 1_555
Ce5 I22 3.196708 1_555
Ce5 I1 3.216299 1_555
Ce5 I7 3.412624 1_555
Ce6 N1 2.301308 1_555
Ce6 I20 3.196708 1_554
Ce6 I12 3.196708 1_545
Ce6 I2 3.216299 1_655
Ce6 I4 3.412624 1_555
Ce7 N1 2.301308 1_566
Ce7 I21 3.196708 1_556
Ce7 I13 3.196708 1_565
Ce7 I3 3.216299 1_655
Ce7 I5 3.412624 1_555
Ce8 N2 2.301308 1_555
Ce8 I10 3.196708 1_555
Ce8 I19 3.196708 1_555
Ce8 I1 3.216299 1_555
Ce8 I7 3.412624 1_655
Ce9 N2 2.301308 1_555
Ce9 I18 3.196708 1_555
Ce9 I11 3.196708 1_555
Ce9 I0 3.216299 1_555
Ce9 I6 3.412624 1_655
Ce10 N3 2.301308 1_566
Ce10 I16 3.196708 1_556
Ce10 I8 3.196708 1_565
Ce10 I3 3.216299 1_555
Ce10 I5 3.412624 1_555
Ce11 N3 2.301308 1_555
Ce11 I9 3.196708 1_545
Ce11 I17 3.196708 1_554
Ce11 I2 3.216299 1_555
Ce11 I4 3.412624 1_555
Ce12 I15 3.206947 1_555
Ce12 I23 3.206947 1_555
Ce12 I18 3.206947 1_555
Ce12 I10 3.206947 1_555
Ce12 I4 3.518014 1_555
Ce13 I22 3.206947 1_555
Ce13 I14 3.206947 1_555
Ce13 I11 3.206947 1_555
Ce13 I19 3.206947 1_555
Ce13 I5 3.518014 1_555
Ce14 I20 3.206947 1_455
Ce14 I8 3.206947 1_555
Ce14 I13 3.206947 1_455
Ce14 I17 3.206947 1_555
Ce14 I6 3.518014 1_555
Ce15 I12 3.206947 1_455
Ce15 I9 3.206947 1_555
Ce15 I16 3.206947 1_555
Ce15 I21 3.206947 1_455
Ce15 I7 3.518014 1_555
C0 C1 1.427632 1_555
C0 Ce12 2.324597 1_555
C0 Ce8 2.621632 1_555
C0 Ce9 2.621632 1_555
C0 Ce4 2.621632 1_555
C0 Ce5 2.621632 1_555
C1 Ce13 2.324597 1_555
C1 Ce8 2.621632 1_555
C1 Ce9 2.621632 1_555
C1 Ce4 2.621632 1_555
C1 Ce5 2.621632 1_555
C2 C3 1.427632 1_546
C2 Ce14 2.324597 1_555
C2 Ce6 2.621632 1_456
C2 Ce11 2.621632 1_556
C2 Ce7 2.621632 1_445
C2 Ce10 2.621632 1_545
C3 Ce15 2.324597 1_555
C3 Ce6 2.621632 1_465
C3 Ce11 2.621632 1_565
C3 Ce7 2.621632 1_454
C3 Ce10 2.621632 1_554
