# generated using pymatgen
data_CsMgGaF6
_symmetry_space_group_name_H-M   'P 1'
_cell_length_a   7.36418898
_cell_length_b   7.36418898
_cell_length_c   7.36418898
_cell_angle_alpha   120.23907147
_cell_angle_beta   119.82260431
_cell_angle_gamma   89.94697425
_symmetry_Int_Tables_number   1
_chemical_formula_structural   CsMgGaF6
_chemical_formula_sum   'Cs2 Mg2 Ga2 F12'
_cell_volume   282.26037711
_cell_formula_units_Z   2
loop_
 _symmetry_equiv_pos_site_id
 _symmetry_equiv_pos_as_xyz
  1  'x, y, z'
loop_
 _atom_site_type_symbol
 _atom_site_label
 _atom_site_symmetry_multiplicity
 _atom_site_fract_x
 _atom_site_fract_y
 _atom_site_fract_z
 _atom_site_occupancy
  Cs  Cs0  1  0.37140800  0.62140800  0.75000000  1
  Cs  Cs1  1  0.62859200  0.37859200  0.25000000  1
  Mg  Mg0  1  0.00000000  0.00000000  0.50000000  1
  Mg  Mg1  1  0.00000000  0.50000000  0.00000000  1
  Ga  Ga0  1  0.00000000  0.00000000  0.00000000  1
  Ga  Ga1  1  0.50000000  0.00000000  0.50000000  1
  F  F0  1  0.31612600  0.06612600  0.25000000  1
  F  F1  1  0.93170300  0.68170300  0.25000000  1
  F  F2  1  0.32570600  0.69285800  0.26056400  1
  F  F3  1  0.93229500  0.06514200  0.23943600  1
  F  F4  1  0.32570600  0.06514200  0.63284700  1
  F  F5  1  0.93229500  0.69285800  0.86715300  1
  F  F6  1  0.68387400  0.93387400  0.75000000  1
  F  F7  1  0.06829700  0.31829700  0.75000000  1
  F  F8  1  0.67429400  0.30714200  0.73943600  1
  F  F9  1  0.06770500  0.93485800  0.76056400  1
  F  F10  1  0.67429400  0.93485800  0.36715300  1
  F  F11  1  0.06770500  0.30714200  0.13284700  1
loop_
_geom_bond_atom_site_label_1
_geom_bond_atom_site_label_2
_geom_bond_distance
_geom_bond_site_symmetry_2
Cs0 F7 3.158221 1_555
Cs0 F8 3.212315 1_555
Cs0 F11 3.212321 1_555
Cs0 F9 3.212321 1_555
Cs0 F10 3.212321 1_556
Cs0 F6 3.255694 1_555
Cs1 F1 3.158221 1_555
Cs1 F2 3.212315 1_555
Cs1 F5 3.212321 1_555
Cs1 F4 3.212321 1_554
Cs1 F3 3.212321 1_555
Cs1 F0 3.255694 1_555
F0 Ga1 1.970369 1_555
F0 Ga0 1.970369 1_555
F1 Mg0 1.967582 1_665
F1 Mg1 1.967582 1_655
F2 Ga1 1.899951 1_565
F2 Mg1 2.033665 1_555
F3 Ga0 1.899946 1_655
F3 Mg0 2.033667 1_655
F4 Ga1 1.899946 1_555
F4 Mg0 2.033667 1_555
F5 Ga0 1.899953 1_666
F5 Mg1 2.033660 1_656
F6 Ga1 1.970369 1_565
F6 Ga0 1.970369 1_666
F7 Mg1 1.967582 1_556
F7 Mg0 1.967582 1_555
F8 Ga1 1.899951 1_555
F8 Mg1 2.033665 1_656
F9 Ga0 1.899946 1_566
F9 Mg0 2.033667 1_565
F10 Ga1 1.899946 1_565
F10 Mg0 2.033667 1_665
F11 Ga0 1.899953 1_555
F11 Mg1 2.033660 1_555
