# generated using pymatgen
data_MnInCu4
_symmetry_space_group_name_H-M   'P 1'
_cell_length_a   4.96886300
_cell_length_b   4.97526354
_cell_length_c   7.89676000
_cell_angle_alpha   90.00000000
_cell_angle_beta   90.00000000
_cell_angle_gamma   119.95744628
_symmetry_Int_Tables_number   1
_chemical_formula_structural   MnInCu4
_chemical_formula_sum   'Mn2 In2 Cu8'
_cell_volume   169.13704919
_cell_formula_units_Z   2
loop_
 _symmetry_equiv_pos_site_id
 _symmetry_equiv_pos_as_xyz
  1  'x, y, z'
loop_
 _atom_site_type_symbol
 _atom_site_label
 _atom_site_symmetry_multiplicity
 _atom_site_fract_x
 _atom_site_fract_y
 _atom_site_fract_z
 _atom_site_occupancy
  Mn  Mn0  1  0.66595900  0.33191800  0.56415800  1
  Mn  Mn1  1  0.33404100  0.66808200  0.06415800  1
  In  In0  1  0.66681600  0.33363200  0.93745500  1
  In  In1  1  0.33318400  0.66636800  0.43745500  1
  Cu  Cu0  1  0.16973600  0.33947300  0.75033700  1
  Cu  Cu1  1  0.66034100  0.83002900  0.75062100  1
  Cu  Cu2  1  0.16968800  0.83002900  0.75062100  1
  Cu  Cu3  1  0.83026400  0.66052700  0.25033700  1
  Cu  Cu4  1  0.33965900  0.16997100  0.25062100  1
  Cu  Cu5  1  0.83031200  0.16997200  0.25062100  1
  Cu  Cu6  1  0.99988600  0.99977100  0.50070700  1
  Cu  Cu7  1  0.00011400  0.00022900  0.00070700  1
loop_
_geom_bond_atom_site_label_1
_geom_bond_atom_site_label_2
_geom_bond_distance
_geom_bond_site_symmetry_2
In0 Mn0 2.947846 1_555
In0 Mn1 3.038355 1_546
In0 Mn1 3.041690 1_556
In0 Mn1 3.041691 1_656
In1 Mn1 2.947846 1_555
In1 Mn0 3.038355 1_565
In1 Mn0 3.041690 1_555
In1 Mn0 3.041691 1_455
Cu0 Cu2 2.440766 1_555
Cu0 Cu1 2.440768 1_555
Cu0 Cu6 2.455622 1_445
Cu0 Cu7 2.459141 1_556
Cu0 Cu1 2.534498 1_445
Cu0 Cu2 2.534500 1_545
Cu0 In1 2.844324 1_555
Cu0 Mn1 2.854427 1_556
Cu0 Mn0 2.887034 1_455
Cu0 Mn0 2.887039 1_555
Cu0 In0 2.890744 1_455
Cu0 In0 2.890748 1_555
Cu1 Cu2 2.437988 1_555
Cu1 Cu6 2.455899 1_555
Cu1 Cu7 2.457577 1_666
Cu1 Cu2 2.530875 1_655
Cu1 In1 2.845935 1_555
Cu1 Mn1 2.846660 1_556
Cu1 Mn0 2.886943 1_565
Cu1 In0 2.890778 1_555
Cu1 In0 2.893977 1_565
Cu1 Mn0 2.894759 1_555
Cu2 Cu6 2.455897 1_455
Cu2 Cu7 2.457580 1_566
Cu2 In1 2.845935 1_555
Cu2 Mn1 2.846660 1_556
Cu2 Mn0 2.886944 1_565
Cu2 In0 2.890778 1_455
Cu2 In0 2.893977 1_565
Cu2 Mn0 2.894759 1_455
Cu3 Cu5 2.440761 1_555
Cu3 Cu4 2.440768 1_555
Cu3 Cu7 2.455622 1_665
Cu3 Cu6 2.459141 1_555
Cu3 Cu4 2.534498 1_665
Cu3 Cu5 2.534505 1_565
Cu3 In0 2.844324 1_554
Cu3 Mn0 2.854427 1_555
Cu3 Mn1 2.887034 1_655
Cu3 Mn1 2.887039 1_555
Cu3 In1 2.890744 1_655
Cu3 In1 2.890748 1_555
Cu4 Cu5 2.437985 1_555
Cu4 Cu7 2.455899 1_555
Cu4 Cu6 2.457577 1_445
Cu4 Cu5 2.530878 1_455
Cu4 In0 2.845935 1_554
Cu4 Mn0 2.846660 1_555
Cu4 Mn1 2.886943 1_545
Cu4 In1 2.890778 1_555
Cu4 In1 2.893977 1_545
Cu4 Mn1 2.894759 1_555
Cu5 Cu7 2.455899 1_655
Cu5 Cu6 2.457582 1_545
Cu5 In0 2.845933 1_554
Cu5 Mn0 2.846658 1_555
Cu5 Mn1 2.886946 1_545
Cu5 In1 2.890776 1_655
Cu5 In1 2.893979 1_545
Cu5 Mn1 2.894757 1_655
Cu6 Mn0 2.910896 1_665
Cu6 Mn0 2.910900 1_565
Cu6 In1 2.913293 1_655
Cu6 In1 2.913297 1_555
Cu6 In1 2.916490 1_665
Cu6 Mn0 2.922094 1_555
Cu7 Mn1 2.910896 1_445
Cu7 Mn1 2.910900 1_545
Cu7 In0 2.913293 1_454
Cu7 In0 2.913297 1_554
Cu7 In0 2.916490 1_444
Cu7 Mn1 2.922094 1_555
