# generated using pymatgen
data_MnAlSiO5
_symmetry_space_group_name_H-M   'P 1'
_cell_length_a   5.72409300
_cell_length_b   8.09251600
_cell_length_c   8.20726300
_cell_angle_alpha   90.00000000
_cell_angle_beta   90.00000000
_cell_angle_gamma   90.00000000
_symmetry_Int_Tables_number   1
_chemical_formula_structural   MnAlSiO5
_chemical_formula_sum   'Mn4 Al4 Si4 O20'
_cell_volume   380.17941531
_cell_formula_units_Z   4
loop_
 _symmetry_equiv_pos_site_id
 _symmetry_equiv_pos_as_xyz
  1  'x, y, z'
loop_
 _atom_site_type_symbol
 _atom_site_label
 _atom_site_symmetry_multiplicity
 _atom_site_fract_x
 _atom_site_fract_y
 _atom_site_fract_z
 _atom_site_occupancy
  Mn  Mn0  1  0.25499300  0.00000000  0.00000000  1
  Mn  Mn1  1  0.74500700  0.00000000  0.00000000  1
  Mn  Mn2  1  0.24500700  0.50000000  0.50000000  1
  Mn  Mn3  1  0.75499300  0.50000000  0.50000000  1
  Al  Al0  1  0.00000000  0.62421600  0.13736600  1
  Al  Al1  1  0.00000000  0.37578400  0.86263400  1
  Al  Al2  1  0.50000000  0.87578400  0.63736600  1
  Al  Al3  1  0.50000000  0.12421600  0.36263400  1
  Si  Si0  1  0.00000000  0.25073000  0.24476400  1
  Si  Si1  1  0.00000000  0.74927000  0.75523600  1
  Si  Si2  1  0.50000000  0.24927000  0.74476400  1
  Si  Si3  1  0.50000000  0.75073000  0.25523600  1
  O  O0  1  0.00000000  0.39606300  0.10076200  1
  O  O1  1  0.00000000  0.60393700  0.89923800  1
  O  O2  1  0.50000000  0.10393700  0.60076200  1
  O  O3  1  0.50000000  0.89606300  0.39923800  1
  O  O4  1  0.00000000  0.57499700  0.36138000  1
  O  O5  1  0.00000000  0.42500300  0.63862000  1
  O  O6  1  0.50000000  0.92500300  0.86138000  1
  O  O7  1  0.50000000  0.07499700  0.13862000  1
  O  O8  1  0.23857900  0.25176900  0.35482900  1
  O  O9  1  0.76142100  0.74823100  0.64517100  1
  O  O10  1  0.23857900  0.74823100  0.64517100  1
  O  O11  1  0.26142100  0.24823100  0.85482900  1
  O  O12  1  0.76142100  0.25176900  0.35482900  1
  O  O13  1  0.73857900  0.75176900  0.14517100  1
  O  O14  1  0.26142100  0.75176900  0.14517100  1
  O  O15  1  0.73857900  0.24823100  0.85482900  1
  O  O16  1  0.00000000  0.07530100  0.13893400  1
  O  O17  1  0.00000000  0.92469900  0.86106600  1
  O  O18  1  0.50000000  0.42469900  0.63893400  1
  O  O19  1  0.50000000  0.57530100  0.36106600  1
loop_
_geom_bond_atom_site_label_1
_geom_bond_atom_site_label_2
_geom_bond_distance
_geom_bond_site_symmetry_2
Mn0 O6 1.905133 1_544
Mn0 O7 1.905133 1_555
Mn0 O17 1.949869 1_544
Mn0 O16 1.949869 1_555
Mn0 O14 2.335863 1_545
Mn0 O11 2.335863 1_554
Mn1 O6 1.905133 1_544
Mn1 O7 1.905133 1_555
Mn1 O17 1.949869 1_644
Mn1 O16 1.949869 1_655
Mn1 O13 2.335863 1_545
Mn1 O15 2.335863 1_554
Mn2 O5 1.905133 1_555
Mn2 O4 1.905133 1_555
Mn2 O19 1.949869 1_555
Mn2 O18 1.949869 1_555
Mn2 O8 2.335863 1_555
Mn2 O10 2.335863 1_555
Mn3 O5 1.905133 1_655
Mn3 O4 1.905133 1_655
Mn3 O19 1.949869 1_555
Mn3 O18 1.949869 1_555
Mn3 O9 2.335863 1_555
Mn3 O12 2.335863 1_555
Al0 O13 1.819010 1_455
Al0 O14 1.819010 1_555
Al0 O0 1.870613 1_555
Al0 O4 1.881192 1_555
Al0 O1 1.961257 1_554
Al1 O11 1.819010 1_555
Al1 O15 1.819010 1_455
Al1 O1 1.870613 1_555
Al1 O5 1.881192 1_555
Al1 O0 1.961257 1_556
Al2 O9 1.819010 1_555
Al2 O10 1.819010 1_555
Al2 O2 1.870613 1_565
Al2 O6 1.881192 1_555
Al2 O3 1.961257 1_555
Al3 O8 1.819010 1_555
Al3 O12 1.819010 1_555
Al3 O3 1.870613 1_545
Al3 O7 1.881192 1_555
Al3 O2 1.961257 1_555
O0 Si0 1.667343 1_555
O1 Si1 1.667343 1_555
O2 Si2 1.667343 1_555
O3 Si3 1.667343 1_555
O8 Si0 1.637399 1_555
O9 Si1 1.637399 1_655
O10 Si1 1.637399 1_555
O11 Si2 1.637399 1_555
O12 Si0 1.637399 1_655
O13 Si3 1.637399 1_555
O14 Si3 1.637399 1_555
O15 Si2 1.637399 1_555
O16 Si0 1.664290 1_555
O17 Si1 1.664290 1_555
O18 Si2 1.664290 1_555
O19 Si3 1.664290 1_555
