# generated using pymatgen
data_CoBrO
_symmetry_space_group_name_H-M   'P 1'
_cell_length_a   5.88128900
_cell_length_b   6.36236900
_cell_length_c   12.67645200
_cell_angle_alpha   90.00000000
_cell_angle_beta   90.00000000
_cell_angle_gamma   90.00000000
_symmetry_Int_Tables_number   1
_chemical_formula_structural   CoBrO
_chemical_formula_sum   'Co8 Br8 O8'
_cell_volume   474.33928035
_cell_formula_units_Z   8
loop_
 _symmetry_equiv_pos_site_id
 _symmetry_equiv_pos_as_xyz
  1  'x, y, z'
loop_
 _atom_site_type_symbol
 _atom_site_label
 _atom_site_symmetry_multiplicity
 _atom_site_fract_x
 _atom_site_fract_y
 _atom_site_fract_z
 _atom_site_occupancy
  Co  Co0  1  0.20755900  0.13403600  0.50499500  1
  Co  Co1  1  0.70755900  0.86596400  0.99500500  1
  Co  Co2  1  0.79244100  0.36596400  0.00499500  1
  Co  Co3  1  0.29244100  0.63403600  0.49500500  1
  Co  Co4  1  0.79244100  0.86596400  0.49500500  1
  Co  Co5  1  0.29244100  0.13403600  0.00499500  1
  Co  Co6  1  0.20755900  0.63403600  0.99500500  1
  Co  Co7  1  0.70755900  0.36596400  0.50499500  1
  Br  Br0  1  0.93096500  0.09222300  0.14208700  1
  Br  Br1  1  0.43096500  0.90777700  0.35791300  1
  Br  Br2  1  0.06903500  0.40777700  0.64208700  1
  Br  Br3  1  0.56903500  0.59222300  0.85791300  1
  Br  Br4  1  0.06903500  0.90777700  0.85791300  1
  Br  Br5  1  0.56903500  0.09222300  0.64208700  1
  Br  Br6  1  0.93096500  0.59222300  0.35791300  1
  Br  Br7  1  0.43096500  0.40777700  0.14208700  1
  O  O0  1  0.88868800  0.14441900  0.45158700  1
  O  O1  1  0.38868800  0.85558100  0.04841300  1
  O  O2  1  0.11131200  0.35558100  0.95158700  1
  O  O3  1  0.61131200  0.64441900  0.54841300  1
  O  O4  1  0.11131200  0.85558100  0.54841300  1
  O  O5  1  0.61131200  0.14441900  0.95158700  1
  O  O6  1  0.88868800  0.64441900  0.04841300  1
  O  O7  1  0.38868800  0.35558100  0.45158700  1
loop_
_geom_bond_atom_site_label_1
_geom_bond_atom_site_label_2
_geom_bond_distance
_geom_bond_site_symmetry_2
Co0 O7 1.892089 1_555
Co0 O4 1.939595 1_545
Co0 O0 1.994930 1_455
Co1 O6 1.892089 1_556
Co1 O5 1.939595 1_565
Co1 O1 1.994930 1_556
Co2 O5 1.892089 1_554
Co2 O6 1.939595 1_555
Co2 O2 1.994930 1_654
Co3 O4 1.892089 1_555
Co3 O7 1.939595 1_555
Co3 O3 1.994930 1_555
Co4 O3 1.892089 1_555
Co4 O0 1.939595 1_565
Co4 O4 1.994930 1_655
Co5 O2 1.892089 1_554
Co5 O1 1.939595 1_545
Co5 O5 1.994930 1_554
Co6 O1 1.892089 1_556
Co6 O2 1.939595 1_555
Co6 O6 1.994930 1_456
Co7 O0 1.892089 1_555
Co7 O3 1.939595 1_555
Co7 O7 1.994930 1_555
Br0 Co2 2.591744 1_555
Br0 Co1 2.697209 1_544
Br0 Co5 2.758714 1_655
Br1 Co3 2.591744 1_555
Br1 Co0 2.697209 1_565
Br1 Co4 2.758714 1_555
Br2 Co0 2.591744 1_555
Br2 Co3 2.697209 1_555
Br2 Co7 2.758714 1_455
Br3 Co1 2.591744 1_555
Br3 Co2 2.697209 1_556
Br3 Co6 2.758714 1_555
Br4 Co6 2.591744 1_555
Br4 Co5 2.697209 1_566
Br4 Co1 2.758714 1_455
Br5 Co7 2.591744 1_555
Br5 Co4 2.697209 1_545
Br5 Co0 2.758714 1_555
Br6 Co4 2.591744 1_555
Br6 Co7 2.697209 1_555
Br6 Co3 2.758714 1_655
Br7 Co5 2.591744 1_555
Br7 Co6 2.697209 1_554
Br7 Co2 2.758714 1_555
