# generated using pymatgen
data_Li9Mn2Co5O16
_symmetry_space_group_name_H-M   'P 1'
_cell_length_a   2.87537100
_cell_length_b   5.14987680
_cell_length_c   19.82366519
_cell_angle_alpha   99.86191517
_cell_angle_beta   90.00000000
_cell_angle_gamma   90.00000000
_symmetry_Int_Tables_number   1
_chemical_formula_structural   Li9Mn2Co5O16
_chemical_formula_sum   'Li9 Mn2 Co5 O16'
_cell_volume   289.20739678
_cell_formula_units_Z   1
loop_
 _symmetry_equiv_pos_site_id
 _symmetry_equiv_pos_as_xyz
  1  'x, y, z'
loop_
 _atom_site_type_symbol
 _atom_site_label
 _atom_site_symmetry_multiplicity
 _atom_site_fract_x
 _atom_site_fract_y
 _atom_site_fract_z
 _atom_site_occupancy
  Li  Li0  1  0.50000000  0.23721200  0.11834000  1
  Li  Li1  1  0.50000000  0.75385500  0.37917900  1
  Li  Li2  1  0.50000000  0.25322700  0.62662200  1
  Li  Li3  1  0.50000000  0.76185700  0.87757300  1
  Li  Li4  1  0.00000000  0.70765100  0.10856800  1
  Li  Li5  1  0.00000000  0.25634400  0.37994500  1
  Li  Li6  1  0.00000000  0.75196300  0.62677100  1
  Li  Li7  1  0.00000000  0.27778400  0.88091300  1
  Li  Li8  1  0.50000000  0.49645700  0.99903500  1
  Mn  Mn0  1  0.00000000  0.99883000  0.00038200  1
  Mn  Mn1  1  0.00000000  0.49747700  0.24951200  1
  Co  Co0  1  0.00000000  0.00083500  0.49998800  1
  Co  Co1  1  0.00000000  0.50393200  0.75138100  1
  Co  Co2  1  0.50000000  0.99612900  0.24910100  1
  Co  Co3  1  0.50000000  0.50109100  0.50027500  1
  Co  Co4  1  0.50000000  0.00457400  0.75101200  1
  O  O0  1  0.50000000  0.88116100  0.05654500  1
  O  O1  1  0.50000000  0.39690100  0.30646500  1
  O  O2  1  0.50000000  0.87470400  0.55687400  1
  O  O3  1  0.50000000  0.37724800  0.80902200  1
  O  O4  1  0.00000000  0.34013500  0.05899500  1
  O  O5  1  0.00000000  0.85645700  0.30296300  1
  O  O6  1  0.00000000  0.37355000  0.55683700  1
  O  O7  1  0.00000000  0.87816800  0.80735100  1
  O  O8  1  0.50000000  0.59835100  0.19371400  1
  O  O9  1  0.50000000  0.12473100  0.43981700  1
  O  O10  1  0.50000000  0.62877600  0.69253800  1
  O  O11  1  0.50000000  0.11472400  0.94642800  1
  O  O12  1  0.00000000  0.14052900  0.19808000  1
  O  O13  1  0.00000000  0.62474900  0.44086700  1
  O  O14  1  0.00000000  0.13034600  0.69247700  1
  O  O15  1  0.00000000  0.66024800  0.94243000  1
loop_
_geom_bond_atom_site_label_1
_geom_bond_atom_site_label_2
_geom_bond_distance
_geom_bond_site_symmetry_2
Li0 O4 1.986324 1_555
Li0 O4 1.986324 1_655
Li0 O0 2.023206 1_545
Li0 O8 2.177067 1_555
Li0 O12 2.254593 1_655
Li0 O12 2.254593 1_555
Li1 O13 2.069532 1_555
Li1 O13 2.069532 1_655
Li1 O9 2.075205 1_565
Li1 O1 2.132921 1_555
Li1 O5 2.214127 1_555
Li1 O5 2.214127 1_655
Li2 O14 2.110615 1_655
Li2 O14 2.110615 1_555
Li2 O10 2.140618 1_555
Li2 O6 2.158315 1_655
Li2 O6 2.158315 1_555
Li2 O2 2.188250 1_545
Li3 O15 2.055297 1_555
Li3 O15 2.055297 1_655
Li3 O11 2.077435 1_565
Li3 O7 2.156194 1_555
Li3 O7 2.156194 1_655
Li3 O3 2.201775 1_555
Li4 O4 1.977570 1_555
Li4 O0 2.060241 1_555
Li4 O0 2.060241 1_455
Li4 O8 2.357595 1_455
Li4 O8 2.357595 1_555
Li4 O12 2.600634 1_565
Li5 O9 2.051974 1_455
Li5 O9 2.051974 1_555
Li5 O13 2.067166 1_555
Li5 O1 2.252530 1_455
Li5 O1 2.252530 1_555
Li5 O5 2.343787 1_545
Li6 O10 2.110087 1_455
Li6 O10 2.110087 1_555
Li6 O14 2.150418 1_565
Li6 O2 2.164819 1_555
Li6 O2 2.164819 1_455
Li6 O6 2.189577 1_555
Li7 O15 2.131634 1_555
Li7 O3 2.147186 1_555
Li7 O3 2.147186 1_455
Li7 O11 2.198279 1_455
Li7 O11 2.198279 1_555
Li7 O7 2.309499 1_545
Li8 O11 2.061545 1_555
Li8 O15 2.088496 1_555
Li8 O15 2.088496 1_655
Li8 O0 2.109763 1_556
Li8 O4 2.110839 1_656
Li8 O4 2.110839 1_556
Mn0 O15 1.916755 1_554
Mn0 O4 1.933887 1_565
Mn0 O11 1.945713 1_564
Mn0 O11 1.945713 1_464
Mn0 O0 1.976063 1_455
Mn0 O0 1.976063 1_555
Mn1 O8 1.938336 1_455
Mn1 O8 1.938336 1_555
Mn1 O12 1.943357 1_555
Mn1 O1 1.951976 1_455
Mn1 O1 1.951976 1_555
Mn1 O5 1.967087 1_555
Co0 O2 2.002864 1_445
Co0 O2 2.002864 1_545
Co0 O9 2.039006 1_555
Co0 O9 2.039006 1_455
Co0 O6 2.052630 1_555
Co0 O13 2.084993 1_545
Co1 O3 2.013355 1_555
Co1 O3 2.013355 1_455
Co1 O10 2.024324 1_555
Co1 O10 2.024324 1_455
Co1 O7 2.052543 1_555
Co1 O14 2.072542 1_555
Co2 O12 1.974984 1_565
Co2 O12 1.974984 1_665
Co2 O5 1.996868 1_655
Co2 O5 1.996868 1_555
Co2 O8 2.152084 1_555
Co2 O1 2.179212 1_565
Co3 O6 2.001966 1_555
Co3 O6 2.001966 1_655
Co3 O13 2.028873 1_555
Co3 O13 2.028873 1_655
Co3 O2 2.054605 1_555
Co3 O9 2.096981 1_555
Co4 O7 1.996772 1_545
Co4 O7 1.996772 1_645
Co4 O14 2.022474 1_555
Co4 O14 2.022474 1_655
Co4 O3 2.061513 1_555
Co4 O10 2.078618 1_545
