# generated using pymatgen
data_UNi(OF2)3
_symmetry_space_group_name_H-M   'P 1'
_cell_length_a   6.76630472
_cell_length_b   6.76630472
_cell_length_c   7.96011203
_cell_angle_alpha   83.75789856
_cell_angle_beta   83.75789856
_cell_angle_gamma   59.67290182
_symmetry_Int_Tables_number   1
_chemical_formula_structural   UNi(OF2)3
_chemical_formula_sum   'U2 Ni2 O6 F12'
_cell_volume   312.08526951
_cell_formula_units_Z   2
loop_
 _symmetry_equiv_pos_site_id
 _symmetry_equiv_pos_as_xyz
  1  'x, y, z'
loop_
 _atom_site_type_symbol
 _atom_site_label
 _atom_site_symmetry_multiplicity
 _atom_site_fract_x
 _atom_site_fract_y
 _atom_site_fract_z
 _atom_site_occupancy
  U  U0  1  0.56662100  0.43337900  0.75000000  1
  U  U1  1  0.43337900  0.56662100  0.25000000  1
  Ni  Ni0  1  0.00000000  0.50000000  0.00000000  1
  Ni  Ni1  1  0.50000000  0.00000000  0.50000000  1
  O  O0  1  0.81105500  0.81756400  0.05881300  1
  O  O1  1  0.18243600  0.18894500  0.44118700  1
  O  O2  1  0.18894500  0.18243600  0.94118700  1
  O  O3  1  0.81756400  0.81105500  0.55881300  1
  O  O4  1  0.83985300  0.16014700  0.75000000  1
  O  O5  1  0.16014700  0.83985300  0.25000000  1
  F  F0  1  0.19780700  0.59505500  0.83871900  1
  F  F1  1  0.40494500  0.80219300  0.66128100  1
  F  F2  1  0.80219300  0.40494500  0.16128100  1
  F  F3  1  0.59505500  0.19780700  0.33871900  1
  F  F4  1  0.81737200  0.55165800  0.79759800  1
  F  F5  1  0.44834200  0.18262800  0.70240200  1
  F  F6  1  0.18262800  0.44834200  0.20240200  1
  F  F7  1  0.55165800  0.81737200  0.29759800  1
  F  F8  1  0.70313000  0.45398800  0.49481000  1
  F  F9  1  0.54601200  0.29687000  0.00519000  1
  F  F10  1  0.29687000  0.54601200  0.50519000  1
  F  F11  1  0.45398800  0.70313000  0.99481000  1
loop_
_geom_bond_atom_site_label_1
_geom_bond_atom_site_label_2
_geom_bond_distance
_geom_bond_site_symmetry_2
Ni0 O0 1.945534 1_455
Ni0 O2 1.945534 1_554
Ni1 O3 1.945534 1_545
Ni1 O1 1.945534 1_555
O4 U0 1.839623 1_555
O5 U1 1.839623 1_555
F0 Ni0 2.041896 1_556
F0 U0 2.225055 1_555
F1 Ni1 2.041896 1_565
F1 U0 2.225055 1_555
F2 Ni0 2.041896 1_655
F2 U1 2.225055 1_555
F3 Ni1 2.041896 1_555
F3 U1 2.225055 1_555
F4 Ni0 2.029592 1_656
F4 U0 2.289037 1_555
F5 Ni1 2.029592 1_555
F5 U0 2.289037 1_555
F6 Ni0 2.029592 1_555
F6 U1 2.289037 1_555
F7 Ni1 2.029592 1_565
F7 U1 2.289037 1_555
F8 U0 2.158565 1_555
F8 U1 2.599131 1_555
F9 U0 2.158565 1_554
F9 U1 2.599131 1_555
F10 U1 2.158565 1_555
F10 U0 2.599131 1_555
F11 U1 2.158565 1_556
F11 U0 2.599131 1_555
