# generated using pymatgen
data_YMg6Al
_symmetry_space_group_name_H-M   'P 1'
_cell_length_a   5.09293300
_cell_length_b   6.22348200
_cell_length_c   11.77375700
_cell_angle_alpha   90.00000000
_cell_angle_beta   90.00000000
_cell_angle_gamma   90.00000000
_symmetry_Int_Tables_number   1
_chemical_formula_structural   YMg6Al
_chemical_formula_sum   'Y2 Mg12 Al2'
_cell_volume   373.17837459
_cell_formula_units_Z   2
loop_
 _symmetry_equiv_pos_site_id
 _symmetry_equiv_pos_as_xyz
  1  'x, y, z'
loop_
 _atom_site_type_symbol
 _atom_site_label
 _atom_site_symmetry_multiplicity
 _atom_site_fract_x
 _atom_site_fract_y
 _atom_site_fract_z
 _atom_site_occupancy
  Y  Y0  1  0.50000000  0.50000000  0.17860900  1
  Y  Y1  1  0.50000000  0.00000000  0.67860900  1
  Mg  Mg0  1  0.50000000  0.24790100  0.42551200  1
  Mg  Mg1  1  0.50000000  0.75209900  0.42551200  1
  Mg  Mg2  1  0.00000000  0.75202500  0.07713700  1
  Mg  Mg3  1  0.00000000  0.24797500  0.07713700  1
  Mg  Mg4  1  0.00000000  0.00000000  0.31637700  1
  Mg  Mg5  1  0.00000000  0.50000000  0.33940200  1
  Mg  Mg6  1  0.50000000  0.74790100  0.92551200  1
  Mg  Mg7  1  0.50000000  0.25209900  0.92551200  1
  Mg  Mg8  1  0.00000000  0.25202500  0.57713700  1
  Mg  Mg9  1  0.00000000  0.74797500  0.57713700  1
  Mg  Mg10  1  0.00000000  0.50000000  0.81637700  1
  Mg  Mg11  1  0.00000000  0.00000000  0.83940200  1
  Al  Al0  1  0.50000000  0.00000000  0.16031100  1
  Al  Al1  1  0.50000000  0.50000000  0.66031100  1
loop_
_geom_bond_atom_site_label_1
_geom_bond_atom_site_label_2
_geom_bond_distance
_geom_bond_site_symmetry_2
Mg0 Mg1 3.085615 1_545
Mg0 Mg8 3.109996 1_555
Mg0 Mg8 3.109996 1_655
Mg0 Mg1 3.137867 1_555
Mg0 Mg5 3.158150 1_555
Mg0 Mg5 3.158150 1_655
Mg0 Mg4 3.242806 1_555
Mg0 Mg4 3.242806 1_655
Mg0 Y0 3.303341 1_555
Mg0 Y1 3.355603 1_555
Mg1 Mg9 3.109996 1_555
Mg1 Mg9 3.109996 1_655
Mg1 Mg5 3.158150 1_555
Mg1 Mg5 3.158150 1_655
Mg1 Mg4 3.242806 1_565
Mg1 Mg4 3.242806 1_665
Mg1 Y0 3.303341 1_555
Mg1 Y1 3.355603 1_565
Mg2 Mg3 3.086536 1_565
Mg2 Mg6 3.109996 1_554
Mg2 Mg6 3.109996 1_454
Mg2 Mg3 3.136946 1_555
Mg2 Mg4 3.211818 1_565
Mg2 Y0 3.220547 1_455
Mg2 Y0 3.220547 1_555
Mg2 Mg5 3.463364 1_555
Mg3 Mg7 3.109996 1_554
Mg3 Mg7 3.109996 1_454
Mg3 Mg4 3.211818 1_555
Mg3 Y0 3.220547 1_555
Mg3 Y0 3.220547 1_455
Mg3 Mg5 3.463364 1_555
Mg4 Mg5 3.123527 1_545
Mg4 Mg5 3.123527 1_555
Mg4 Mg8 3.447575 1_555
Mg4 Mg9 3.447575 1_545
Mg5 Y0 3.173084 1_455
Mg5 Y0 3.173084 1_555
Mg5 Mg8 3.196290 1_555
Mg5 Mg9 3.196290 1_555
Mg6 Mg7 3.085615 1_555
Mg6 Mg7 3.137867 1_565
Mg6 Y1 3.303341 1_565
Mg6 Y0 3.355603 1_556
Mg7 Y1 3.303341 1_555
Mg7 Y0 3.355603 1_556
Mg8 Mg9 3.086536 1_555
Mg8 Mg9 3.136946 1_545
Mg8 Y1 3.220547 1_455
Mg8 Y1 3.220547 1_555
Mg9 Y1 3.220547 1_565
Mg9 Y1 3.220547 1_465
Mg10 Mg11 3.123527 1_565
Mg10 Mg11 3.123527 1_555
Mg10 Mg9 3.211818 1_555
Mg10 Mg8 3.211818 1_555
Mg10 Mg6 3.242806 1_555
Mg10 Mg6 3.242806 1_455
Mg10 Mg7 3.242806 1_455
Mg10 Mg7 3.242806 1_555
Mg10 Mg2 3.447575 1_556
Mg10 Mg3 3.447575 1_556
Mg11 Mg7 3.158150 1_455
Mg11 Mg7 3.158150 1_555
Mg11 Mg6 3.158150 1_445
Mg11 Mg6 3.158150 1_545
Mg11 Y1 3.173084 1_455
Mg11 Y1 3.173084 1_555
Mg11 Mg3 3.196290 1_556
Mg11 Mg2 3.196290 1_546
Mg11 Mg8 3.463364 1_555
Mg11 Mg9 3.463364 1_545
Al0 Y0 3.119190 1_555
Al0 Y0 3.119190 1_545
Al0 Mg3 3.134508 1_655
Al0 Mg3 3.134508 1_555
Al0 Mg2 3.134508 1_545
Al0 Mg2 3.134508 1_645
Al0 Mg4 3.140197 1_655
Al0 Mg4 3.140197 1_555
Al0 Mg7 3.178652 1_554
Al0 Mg6 3.178652 1_544
Al1 Y1 3.119190 1_565
Al1 Y1 3.119190 1_555
Al1 Mg8 3.134508 1_655
Al1 Mg9 3.134508 1_555
Al1 Mg9 3.134508 1_655
Al1 Mg8 3.134508 1_555
Al1 Mg10 3.140197 1_555
Al1 Mg10 3.140197 1_655
Al1 Mg1 3.178652 1_555
Al1 Mg0 3.178652 1_555
