# generated using pymatgen
data_RbS
_symmetry_space_group_name_H-M   'P 1'
_cell_length_a   4.70365700
_cell_length_b   4.82681700
_cell_length_c   6.40530340
_cell_angle_alpha   69.53897294
_cell_angle_beta   90.00000000
_cell_angle_gamma   90.00000000
_symmetry_Int_Tables_number   1
_chemical_formula_structural   RbS
_chemical_formula_sum   'Rb2 S2'
_cell_volume   136.24925763
_cell_formula_units_Z   2
loop_
 _symmetry_equiv_pos_site_id
 _symmetry_equiv_pos_as_xyz
  1  'x, y, z'
loop_
 _atom_site_type_symbol
 _atom_site_label
 _atom_site_symmetry_multiplicity
 _atom_site_fract_x
 _atom_site_fract_y
 _atom_site_fract_z
 _atom_site_occupancy
  Rb  Rb0  1  0.25000000  0.38581800  0.75735100  1
  Rb  Rb1  1  0.75000000  0.61418200  0.24264900  1
  S  S0  1  0.25000000  0.06648700  0.34116600  1
  S  S1  1  0.75000000  0.93351300  0.65883400  1
loop_
_geom_bond_atom_site_label_1
_geom_bond_atom_site_label_2
_geom_bond_distance
_geom_bond_site_symmetry_2
Rb0 S1 3.414500 1_545
Rb0 S1 3.414500 1_445
Rb0 S1 3.428080 1_455
Rb0 S1 3.428080 1_555
Rb0 S0 3.431821 1_565
Rb0 S0 3.511401 1_556
Rb0 S0 3.514957 1_555
Rb1 S0 3.414500 1_565
Rb1 S0 3.414500 1_665
Rb1 S0 3.428080 1_555
Rb1 S0 3.428080 1_655
Rb1 S1 3.431821 1_545
Rb1 S1 3.511401 1_554
Rb1 S1 3.514957 1_555
