# generated using pymatgen
data_Sm4MgPd
_symmetry_space_group_name_H-M   'P 1'
_cell_length_a   9.97728093
_cell_length_b   9.97728093
_cell_length_c   9.97728093
_cell_angle_alpha   60.00000000
_cell_angle_beta   60.00000000
_cell_angle_gamma   60.00000000
_symmetry_Int_Tables_number   1
_chemical_formula_structural   Sm4MgPd
_chemical_formula_sum   'Sm16 Mg4 Pd4'
_cell_volume   702.29827866
_cell_formula_units_Z   4
loop_
 _symmetry_equiv_pos_site_id
 _symmetry_equiv_pos_as_xyz
  1  'x, y, z'
loop_
 _atom_site_type_symbol
 _atom_site_label
 _atom_site_symmetry_multiplicity
 _atom_site_fract_x
 _atom_site_fract_y
 _atom_site_fract_z
 _atom_site_occupancy
  Sm  Sm0  1  0.59902600  0.59902600  0.59902600  1
  Sm  Sm1  1  0.59902600  0.59902600  0.20292200  1
  Sm  Sm2  1  0.59902600  0.20292200  0.59902600  1
  Sm  Sm3  1  0.20292200  0.59902600  0.59902600  1
  Sm  Sm4  1  0.06015000  0.43985000  0.43985000  1
  Sm  Sm5  1  0.43985000  0.06015000  0.06015000  1
  Sm  Sm6  1  0.43985000  0.06015000  0.43985000  1
  Sm  Sm7  1  0.06015000  0.43985000  0.06015000  1
  Sm  Sm8  1  0.43985000  0.43985000  0.06015000  1
  Sm  Sm9  1  0.06015000  0.06015000  0.43985000  1
  Sm  Sm10  1  0.18356500  0.81643500  0.81643500  1
  Sm  Sm11  1  0.81643500  0.18356500  0.18356500  1
  Sm  Sm12  1  0.81643500  0.18356500  0.81643500  1
  Sm  Sm13  1  0.18356500  0.81643500  0.18356500  1
  Sm  Sm14  1  0.81643500  0.81643500  0.18356500  1
  Sm  Sm15  1  0.18356500  0.18356500  0.81643500  1
  Mg  Mg0  1  0.82954100  0.82954100  0.82954100  1
  Mg  Mg1  1  0.82954100  0.82954100  0.51137600  1
  Mg  Mg2  1  0.82954100  0.51137600  0.82954100  1
  Mg  Mg3  1  0.51137600  0.82954100  0.82954100  1
  Pd  Pd0  1  0.39274500  0.39274500  0.39274500  1
  Pd  Pd1  1  0.39274500  0.39274500  0.82176500  1
  Pd  Pd2  1  0.39274500  0.82176500  0.39274500  1
  Pd  Pd3  1  0.82176500  0.39274500  0.39274500  1
loop_
_geom_bond_atom_site_label_1
_geom_bond_atom_site_label_2
_geom_bond_distance
_geom_bond_site_symmetry_2
Sm0 Sm12 3.648984 1_555
Sm0 Sm10 3.648984 1_555
Sm0 Sm14 3.648984 1_555
Sm1 Sm13 3.648984 1_555
Sm1 Sm11 3.648984 1_555
Sm1 Sm14 3.648984 1_555
Sm10 Sm3 3.648984 1_555
Sm10 Sm15 3.662959 1_565
Sm10 Sm14 3.662959 1_456
Sm10 Sm13 3.662959 1_556
Sm10 Sm12 3.662959 1_465
Sm10 Sm6 3.747306 1_565
Sm10 Sm8 3.747306 1_556
Sm10 Sm9 3.747306 1_565
Sm10 Sm7 3.747306 1_556
Sm11 Sm2 3.648984 1_555
Sm11 Sm13 3.662959 1_645
Sm11 Sm14 3.662959 1_545
Sm11 Sm15 3.662959 1_654
Sm11 Sm12 3.662959 1_554
Sm11 Sm7 3.747306 1_655
Sm11 Sm9 3.747306 1_655
Sm11 Sm8 3.747306 1_555
Sm11 Sm6 3.747306 1_555
Sm12 Sm2 3.648984 1_555
Sm12 Sm14 3.662959 1_546
Sm12 Sm15 3.662959 1_655
Sm12 Sm8 3.747306 1_556
Sm12 Sm4 3.747306 1_655
Sm12 Sm9 3.747306 1_655
Sm12 Sm5 3.747306 1_556
Sm13 Sm3 3.648984 1_555
Sm13 Sm15 3.662959 1_564
Sm13 Sm14 3.662959 1_455
Sm13 Sm5 3.747306 1_565
Sm13 Sm9 3.747306 1_565
Sm13 Sm4 3.747306 1_555
Sm13 Sm8 3.747306 1_555
Sm14 Sm6 3.747306 1_565
Sm14 Sm4 3.747306 1_655
Sm14 Sm7 3.747306 1_655
Sm14 Sm5 3.747306 1_565
Sm15 Sm3 3.648984 1_555
Sm15 Sm2 3.648984 1_555
Sm15 Sm7 3.747306 1_556
Sm15 Sm5 3.747306 1_556
Sm15 Sm6 3.747306 1_555
Sm15 Sm4 3.747306 1_555
Mg0 Mg1 3.174422 1_555
Mg0 Mg2 3.174422 1_555
Mg0 Mg3 3.174422 1_555
Mg0 Sm12 3.406458 1_565
Mg0 Sm14 3.406458 1_556
Mg0 Sm10 3.406458 1_655
Mg0 Sm1 3.551198 1_556
Mg0 Sm2 3.551198 1_565
Mg0 Sm3 3.551198 1_655
Mg0 Sm5 3.620366 1_566
Mg0 Sm9 3.620366 1_665
Mg0 Sm7 3.620366 1_656
Mg1 Mg2 3.174422 1_555
Mg1 Mg3 3.174422 1_555
Mg1 Sm14 3.406448 1_555
Mg1 Sm11 3.406453 1_565
Mg1 Sm13 3.406453 1_655
Mg1 Sm0 3.551194 1_555
Mg1 Sm2 3.551202 1_565
Mg1 Sm3 3.551202 1_655
Mg1 Sm4 3.620362 1_655
Mg1 Sm6 3.620362 1_565
Mg1 Sm9 3.620370 1_665
Mg2 Mg3 3.174422 1_555
Mg2 Sm12 3.406448 1_555
Mg2 Sm11 3.406453 1_556
Mg2 Sm15 3.406453 1_655
Mg2 Sm0 3.551194 1_555
Mg2 Sm3 3.551202 1_655
Mg2 Sm1 3.551202 1_556
Mg2 Sm8 3.620362 1_556
Mg2 Sm4 3.620362 1_655
Mg2 Sm7 3.620370 1_656
Mg3 Sm10 3.406448 1_555
Mg3 Sm15 3.406453 1_565
Mg3 Sm13 3.406453 1_556
Mg3 Sm0 3.551194 1_555
Mg3 Sm1 3.551202 1_556
Mg3 Sm2 3.551202 1_565
Mg3 Sm8 3.620362 1_556
Mg3 Sm6 3.620362 1_565
Mg3 Sm5 3.620370 1_566
Pd0 Sm2 2.915254 1_555
Pd0 Sm1 2.915254 1_555
Pd0 Sm3 2.915254 1_555
Pd0 Sm8 2.924931 1_555
Pd0 Sm6 2.924931 1_555
Pd0 Sm4 2.924931 1_555
Pd0 Sm13 3.645834 1_555
Pd0 Sm11 3.645834 1_555
Pd0 Sm15 3.645834 1_555
Pd1 Sm0 2.915254 1_555
Pd1 Sm3 2.915254 1_555
Pd1 Sm2 2.915254 1_555
Pd1 Sm8 2.924931 1_556
Pd1 Sm5 2.924931 1_556
Pd1 Sm7 2.924931 1_556
Pd1 Sm10 3.645834 1_555
Pd1 Sm15 3.645834 1_555
Pd1 Sm12 3.645834 1_555
Pd2 Sm0 2.915254 1_555
Pd2 Sm1 2.915254 1_555
Pd2 Sm3 2.915254 1_555
Pd2 Sm6 2.924931 1_565
Pd2 Sm5 2.924931 1_565
Pd2 Sm9 2.924931 1_565
Pd2 Sm13 3.645834 1_555
Pd2 Sm14 3.645834 1_555
Pd2 Sm10 3.645834 1_555
Pd3 Sm0 2.915254 1_555
Pd3 Sm1 2.915254 1_555
Pd3 Sm2 2.915254 1_555
Pd3 Sm4 2.924931 1_655
Pd3 Sm7 2.924931 1_655
Pd3 Sm9 2.924931 1_655
Pd3 Sm11 3.645834 1_555
Pd3 Sm12 3.645834 1_555
Pd3 Sm14 3.645834 1_555
