# generated using pymatgen
data_NaTl3
_symmetry_space_group_name_H-M   'P 1'
_cell_length_a   7.32273000
_cell_length_b   7.32273119
_cell_length_c   5.23565800
_cell_angle_alpha   90.00000000
_cell_angle_beta   90.00000000
_cell_angle_gamma   120.00000367
_symmetry_Int_Tables_number   1
_chemical_formula_structural   NaTl3
_chemical_formula_sum   'Na2 Tl6'
_cell_volume   243.13528979
_cell_formula_units_Z   2
loop_
 _symmetry_equiv_pos_site_id
 _symmetry_equiv_pos_as_xyz
  1  'x, y, z'
loop_
 _atom_site_type_symbol
 _atom_site_label
 _atom_site_symmetry_multiplicity
 _atom_site_fract_x
 _atom_site_fract_y
 _atom_site_fract_z
 _atom_site_occupancy
  Na  Na0  1  0.33333400  0.66666900  0.75000100  1
  Na  Na1  1  0.66666700  0.33333300  0.25000100  1
  Tl  Tl0  1  0.16416200  0.32832300  0.25000100  1
  Tl  Tl1  1  0.67167600  0.83583700  0.25000100  1
  Tl  Tl2  1  0.16416200  0.83583700  0.25000100  1
  Tl  Tl3  1  0.83583800  0.67167800  0.75000100  1
  Tl  Tl4  1  0.32832300  0.16416200  0.75000100  1
  Tl  Tl5  1  0.83583800  0.16416200  0.75000100  1
loop_
_geom_bond_atom_site_label_1
_geom_bond_atom_site_label_2
_geom_bond_distance
_geom_bond_site_symmetry_2
Na0 Tl2 3.384790 1_555
Na0 Tl2 3.384790 1_556
Na0 Tl1 3.384798 1_555
Na0 Tl1 3.384798 1_556
Na0 Tl0 3.384814 1_555
Na0 Tl0 3.384814 1_556
Na0 Tl5 3.661492 1_565
Na0 Tl4 3.661493 1_565
Na0 Tl3 3.661499 1_555
Na0 Tl3 3.661506 1_455
Na0 Tl5 3.661514 1_455
Na0 Tl4 3.661514 1_555
Na1 Tl5 3.384798 1_555
Na1 Tl5 3.384798 1_554
Na1 Tl4 3.384806 1_555
Na1 Tl4 3.384806 1_554
Na1 Tl3 3.384810 1_555
Na1 Tl3 3.384810 1_554
Na1 Tl2 3.661499 1_655
Na1 Tl1 3.661500 1_555
Na1 Tl0 3.661503 1_555
Na1 Tl0 3.661503 1_655
Na1 Tl2 3.661507 1_545
Na1 Tl1 3.661507 1_545
Tl0 Tl4 3.344878 1_555
Tl0 Tl4 3.344878 1_554
Tl0 Tl5 3.344886 1_455
Tl0 Tl5 3.344886 1_454
Tl1 Tl3 3.344874 1_555
Tl1 Tl3 3.344874 1_554
Tl1 Tl5 3.344890 1_565
Tl1 Tl5 3.344890 1_564
Tl2 Tl3 3.344886 1_455
Tl2 Tl3 3.344886 1_454
Tl2 Tl4 3.344890 1_565
Tl2 Tl4 3.344890 1_564
