# generated using pymatgen
data_Mg14CrBi
_symmetry_space_group_name_H-M   'P 1'
_cell_length_a   6.37405871
_cell_length_b   6.36478184
_cell_length_c   10.39044757
_cell_angle_alpha   90.00000000
_cell_angle_beta   90.00000000
_cell_angle_gamma   119.95187245
_symmetry_Int_Tables_number   1
_chemical_formula_structural   Mg14CrBi
_chemical_formula_sum   'Mg14 Cr1 Bi1'
_cell_volume   365.23709665
_cell_formula_units_Z   1
loop_
 _symmetry_equiv_pos_site_id
 _symmetry_equiv_pos_as_xyz
  1  'x, y, z'
loop_
 _atom_site_type_symbol
 _atom_site_label
 _atom_site_symmetry_multiplicity
 _atom_site_fract_x
 _atom_site_fract_y
 _atom_site_fract_z
 _atom_site_occupancy
  Mg  Mg0  1  0.16687278  0.33343589  0.62500000  1
  Mg  Mg1  1  0.16660041  0.83329971  0.62500000  1
  Mg  Mg2  1  0.66786489  0.33298376  0.12500000  1
  Mg  Mg3  1  0.66665416  0.33345717  0.62500000  1
  Mg  Mg4  1  0.66786489  0.83488013  0.12500000  1
  Mg  Mg5  1  0.66665416  0.83319599  0.62500000  1
  Mg  Mg6  1  0.33386342  0.17275031  0.37556032  1
  Mg  Mg7  1  0.33386342  0.17275031  0.87443968  1
  Mg  Mg8  1  0.33386342  0.66111411  0.37556032  1
  Mg  Mg9  1  0.33386342  0.66111411  0.87443968  1
  Mg  Mg10  1  0.83717719  0.16858909  0.37291576  1
  Mg  Mg11  1  0.83717719  0.16858909  0.87708424  1
  Mg  Mg12  1  0.82888513  0.66444306  0.37945424  1
  Mg  Mg13  1  0.82888513  0.66444306  0.87054576  1
  Cr  Cr0  1  0.16607490  0.33303695  0.12500000  1
  Bi  Bi0  1  0.16383548  0.83191724  0.12500000  1
loop_
_geom_bond_atom_site_label_1
_geom_bond_atom_site_label_2
_geom_bond_distance
_geom_bond_site_symmetry_2
Mg0 Mg6 3.159641 1_555
Mg0 Mg7 3.159641 1_555
Mg0 Mg8 3.159647 1_555
Mg0 Mg9 3.159647 1_555
Mg0 Mg1 3.182391 1_545
Mg0 Mg1 3.182391 1_555
Mg0 Mg5 3.185568 1_555
Mg0 Mg3 3.185568 1_555
Mg0 Mg5 3.188490 1_445
Mg0 Mg3 3.188490 1_455
Mg0 Mg10 3.189984 1_455
Mg0 Mg11 3.189984 1_455
Mg1 Mg12 3.160376 1_455
Mg1 Mg13 3.160376 1_455
Mg1 Mg3 3.186357 1_455
Mg1 Mg5 3.186357 1_455
Mg1 Mg3 3.187701 1_565
Mg1 Mg5 3.187702 1_555
Mg1 Mg8 3.197155 1_555
Mg1 Mg9 3.197155 1_555
Mg1 Mg6 3.197161 1_565
Mg1 Mg7 3.197161 1_565
Mg2 Mg4 3.170321 1_545
Mg2 Mg7 3.190975 1_554
Mg2 Mg6 3.190975 1_555
Mg2 Mg4 3.194461 1_555
Mg3 Mg6 3.177525 1_555
Mg3 Mg7 3.177525 1_555
Mg3 Mg5 3.180729 1_555
Mg3 Mg5 3.184053 1_545
Mg4 Mg9 3.190975 1_554
Mg4 Mg8 3.190975 1_555
Mg5 Mg9 3.177524 1_555
Mg5 Mg8 3.177524 1_555
Mg6 Mg8 3.108329 1_555
Mg6 Mg8 3.256453 1_545
Mg7 Mg9 3.108329 1_555
Mg7 Mg9 3.256453 1_545
Mg10 Mg8 3.152887 1_655
Mg10 Mg6 3.152887 1_655
Mg10 Mg2 3.165853 1_555
Mg10 Mg4 3.165859 1_545
Mg10 Mg12 3.183445 1_545
Mg10 Mg12 3.183445 1_555
Mg10 Mg3 3.206557 1_555
Mg10 Mg5 3.206563 1_545
Mg10 Mg8 3.221574 1_545
Mg10 Mg6 3.221574 1_555
Mg11 Mg9 3.152887 1_655
Mg11 Mg7 3.152887 1_655
Mg11 Mg2 3.165853 1_556
Mg11 Mg4 3.165859 1_546
Mg11 Mg13 3.183445 1_545
Mg11 Mg13 3.183445 1_555
Mg11 Mg3 3.206557 1_555
Mg11 Mg5 3.206563 1_545
Mg11 Mg9 3.221574 1_545
Mg11 Mg7 3.221574 1_555
Mg12 Mg5 3.137081 1_555
Mg12 Mg3 3.137087 1_555
Mg12 Mg6 3.145032 1_555
Mg12 Mg8 3.145033 1_555
Mg12 Mg4 3.214360 1_555
Mg12 Mg2 3.214367 1_555
Mg12 Mg6 3.229645 1_665
Mg12 Mg8 3.229645 1_655
Mg13 Mg5 3.137081 1_555
Mg13 Mg3 3.137087 1_555
Mg13 Mg7 3.145032 1_555
Mg13 Mg9 3.145033 1_555
Mg13 Mg4 3.214360 1_556
Mg13 Mg2 3.214367 1_556
Mg13 Mg7 3.229645 1_665
Mg13 Mg9 3.229645 1_655
Cr0 Mg11 3.151976 1_454
Cr0 Mg10 3.151976 1_455
Cr0 Mg7 3.170484 1_554
Cr0 Mg6 3.170484 1_555
Cr0 Mg9 3.170490 1_554
Cr0 Mg8 3.170490 1_555
Cr0 Mg4 3.175451 1_445
Cr0 Mg2 3.175451 1_455
Cr0 Mg4 3.198608 1_555
Cr0 Mg2 3.198608 1_555
Bi0 Mg2 3.170803 1_455
Bi0 Mg4 3.170803 1_455
Bi0 Cr0 3.182415 1_565
Bi0 Cr0 3.182415 1_555
Bi0 Mg2 3.203339 1_565
Bi0 Mg4 3.203339 1_555
Bi0 Mg9 3.211034 1_554
Bi0 Mg8 3.211034 1_555
Bi0 Mg7 3.211040 1_564
Bi0 Mg6 3.211040 1_565
Bi0 Mg13 3.226784 1_454
Bi0 Mg12 3.226784 1_455
