# generated using pymatgen
data_CdH2(BrO3)2
_symmetry_space_group_name_H-M   'P 1'
_cell_length_a   6.20607400
_cell_length_b   9.33623400
_cell_length_c   12.61944600
_cell_angle_alpha   90.00000000
_cell_angle_beta   90.00000000
_cell_angle_gamma   90.00000000
_symmetry_Int_Tables_number   1
_chemical_formula_structural   CdH2(BrO3)2
_chemical_formula_sum   'Cd4 H8 Br8 O24'
_cell_volume   731.18785214
_cell_formula_units_Z   4
loop_
 _symmetry_equiv_pos_site_id
 _symmetry_equiv_pos_as_xyz
  1  'x, y, z'
loop_
 _atom_site_type_symbol
 _atom_site_label
 _atom_site_symmetry_multiplicity
 _atom_site_fract_x
 _atom_site_fract_y
 _atom_site_fract_z
 _atom_site_occupancy
  Cd  Cd0  1  0.43904600  0.43100700  0.22040200  1
  Cd  Cd1  1  0.06095400  0.56899300  0.72040200  1
  Cd  Cd2  1  0.56095400  0.93100700  0.27959800  1
  Cd  Cd3  1  0.93904600  0.06899300  0.77959800  1
  H  H0  1  0.27215000  0.51148400  0.36569600  1
  H  H1  1  0.22785000  0.48851600  0.86569600  1
  H  H2  1  0.72785000  0.01148400  0.13430400  1
  H  H3  1  0.77215000  0.98851600  0.63430400  1
  H  H4  1  0.70261000  0.48208700  0.10188700  1
  H  H5  1  0.79739000  0.51791300  0.60188700  1
  H  H6  1  0.29739000  0.98208700  0.39811300  1
  H  H7  1  0.20261000  0.01791300  0.89811300  1
  Br  Br0  1  0.27892600  0.28251400  0.61132300  1
  Br  Br1  1  0.22107400  0.71748600  0.11132300  1
  Br  Br2  1  0.72107400  0.78251400  0.88867700  1
  Br  Br3  1  0.77892600  0.21748600  0.38867700  1
  Br  Br4  1  0.18626200  0.16117300  0.11950500  1
  Br  Br5  1  0.31373800  0.83882700  0.61950500  1
  Br  Br6  1  0.81373800  0.66117300  0.38049500  1
  Br  Br7  1  0.68626200  0.33882700  0.88049500  1
  O  O0  1  0.56887300  0.22343500  0.29757400  1
  O  O1  1  0.93112700  0.77656500  0.79757400  1
  O  O2  1  0.43112700  0.72343500  0.20242600  1
  O  O3  1  0.06887300  0.27656500  0.70242600  1
  O  O4  1  0.26796300  0.00269600  0.17397200  1
  O  O5  1  0.23203700  0.99730400  0.67397200  1
  O  O6  1  0.73203700  0.50269600  0.32602800  1
  O  O7  1  0.76796300  0.49730400  0.82602800  1
  O  O8  1  0.41011900  0.24577900  0.07633100  1
  O  O9  1  0.08988100  0.75422100  0.57633100  1
  O  O10  1  0.58988100  0.74577900  0.42366900  1
  O  O11  1  0.91011900  0.25422100  0.92366900  1
  O  O12  1  0.10662100  0.26652200  0.21934900  1
  O  O13  1  0.39337900  0.73347800  0.71934900  1
  O  O14  1  0.89337900  0.76652200  0.28065100  1
  O  O15  1  0.60662100  0.23347800  0.78065100  1
  O  O16  1  0.17855500  0.53718200  0.12078500  1
  O  O17  1  0.32144500  0.46281800  0.62078500  1
  O  O18  1  0.82144500  0.03718200  0.37921500  1
  O  O19  1  0.67855500  0.96281800  0.87921500  1
  O  O20  1  0.17405000  0.25492100  0.49255800  1
  O  O21  1  0.32595000  0.74507900  0.99255800  1
  O  O22  1  0.82595000  0.75492100  0.00744200  1
  O  O23  1  0.67405000  0.24507900  0.50744200  1
loop_
_geom_bond_atom_site_label_1
_geom_bond_atom_site_label_2
_geom_bond_distance
_geom_bond_site_symmetry_2
Cd0 H0 2.235884 1_555
Cd0 H4 2.267099 1_555
Cd0 O16 2.275178 1_555
Cd0 O0 2.313701 1_555
Cd0 O6 2.351809 1_555
Cd0 O8 2.515610 1_555
Cd0 O12 2.571897 1_555
Cd0 O2 2.740025 1_555
Cd1 H1 2.235884 1_555
Cd1 H5 2.267099 1_455
Cd1 O17 2.275178 1_555
Cd1 O1 2.313701 1_455
Cd1 O7 2.351809 1_455
Cd1 O9 2.515610 1_555
Cd1 O13 2.571897 1_555
Cd1 O3 2.740025 1_555
Cd2 H2 2.235884 1_565
Cd2 H6 2.267099 1_555
Cd2 O18 2.275178 1_565
Cd2 O2 2.313701 1_555
Cd2 O4 2.351809 1_565
Cd2 O10 2.515610 1_555
Cd2 O14 2.571897 1_555
Cd2 O0 2.740025 1_565
Cd3 H3 2.235884 1_545
Cd3 H7 2.267099 1_655
Cd3 O19 2.275178 1_545
Cd3 O3 2.313701 1_655
Cd3 O5 2.351809 1_645
Cd3 O11 2.515610 1_555
Cd3 O15 2.571897 1_555
Cd3 O1 2.740025 1_545
Br0 O20 1.654159 1_555
Br0 O17 1.708095 1_555
Br0 O3 1.739025 1_555
Br1 O21 1.654159 1_554
Br1 O16 1.708095 1_555
Br1 O2 1.739025 1_555
Br2 O22 1.654159 1_556
Br2 O19 1.708095 1_555
Br2 O1 1.739025 1_555
Br3 O23 1.654159 1_555
Br3 O18 1.708095 1_555
Br3 O0 1.739025 1_555
Br4 O12 1.673089 1_555
Br4 O8 1.688451 1_555
Br4 O4 1.708416 1_555
Br5 O13 1.673089 1_555
Br5 O9 1.688451 1_555
Br5 O5 1.708416 1_555
Br6 O14 1.673089 1_555
Br6 O10 1.688451 1_555
Br6 O6 1.708416 1_555
Br7 O15 1.673089 1_555
Br7 O11 1.688451 1_555
Br7 O7 1.708416 1_555
