# generated using pymatgen
data_KCN2
_symmetry_space_group_name_H-M   'P 1'
_cell_length_a   5.71279351
_cell_length_b   5.71279351
_cell_length_c   5.71279351
_cell_angle_alpha   112.57255156
_cell_angle_beta   112.57255156
_cell_angle_gamma   103.43216681
_symmetry_Int_Tables_number   1
_chemical_formula_structural   KCN2
_chemical_formula_sum   'K2 C2 N4'
_cell_volume   142.34505456
_cell_formula_units_Z   2
loop_
 _symmetry_equiv_pos_site_id
 _symmetry_equiv_pos_as_xyz
  1  'x, y, z'
loop_
 _atom_site_type_symbol
 _atom_site_label
 _atom_site_symmetry_multiplicity
 _atom_site_fract_x
 _atom_site_fract_y
 _atom_site_fract_z
 _atom_site_occupancy
  K  K0  1  0.75000000  0.75000000  0.00000000  1
  K  K1  1  0.25000000  0.25000000  0.00000000  1
  C  C0  1  0.00000000  0.50000000  0.50000000  1
  C  C1  1  0.50000000  0.00000000  0.50000000  1
  N  N0  1  0.13800500  0.63800500  0.77601000  1
  N  N1  1  0.86199500  0.36199500  0.22399000  1
  N  N2  1  0.63800500  0.86199500  0.50000000  1
  N  N3  1  0.36199500  0.13800500  0.50000000  1
loop_
_geom_bond_atom_site_label_1
_geom_bond_atom_site_label_2
_geom_bond_distance
_geom_bond_site_symmetry_2
K0 N0 3.027851 1_554
K0 N2 3.027851 1_554
K0 N1 3.027851 1_555
K0 N3 3.027851 1_665
K0 N1 3.027851 1_565
K0 N3 3.027851 1_554
K0 N0 3.027851 1_654
K0 N2 3.027851 1_555
K1 N0 3.027851 1_554
K1 N1 3.027851 1_555
K1 N2 3.027851 1_555
K1 N3 3.027851 1_555
K1 N3 3.027851 1_554
K1 N1 3.027851 1_455
K1 N2 3.027851 1_444
K1 N0 3.027851 1_544
C0 N1 1.237700 1_455
C0 N0 1.237700 1_555
C1 N2 1.237700 1_545
C1 N3 1.237700 1_555
