# generated using pymatgen
data_CuGe3
_symmetry_space_group_name_H-M   'P 1'
_cell_length_a   5.83155098
_cell_length_b   5.83155098
_cell_length_c   4.69885700
_cell_angle_alpha   90.00000000
_cell_angle_beta   90.00000000
_cell_angle_gamma   119.99998845
_symmetry_Int_Tables_number   1
_chemical_formula_structural   CuGe3
_chemical_formula_sum   'Cu2 Ge6'
_cell_volume   138.38565197
_cell_formula_units_Z   2
loop_
 _symmetry_equiv_pos_site_id
 _symmetry_equiv_pos_as_xyz
  1  'x, y, z'
loop_
 _atom_site_type_symbol
 _atom_site_label
 _atom_site_symmetry_multiplicity
 _atom_site_fract_x
 _atom_site_fract_y
 _atom_site_fract_z
 _atom_site_occupancy
  Cu  Cu0  1  0.66666700  0.33333300  0.25000000  1
  Cu  Cu1  1  0.33333300  0.66666700  0.75000000  1
  Ge  Ge0  1  0.34688100  0.17344000  0.75000000  1
  Ge  Ge1  1  0.82656000  0.17344000  0.75000000  1
  Ge  Ge2  1  0.82656000  0.65311900  0.75000000  1
  Ge  Ge3  1  0.17344000  0.82656000  0.25000000  1
  Ge  Ge4  1  0.17344000  0.34688100  0.25000000  1
  Ge  Ge5  1  0.65311900  0.82656000  0.25000000  1
loop_
_geom_bond_atom_site_label_1
_geom_bond_atom_site_label_2
_geom_bond_distance
_geom_bond_site_symmetry_2
Cu0 Ge1 2.850975 1_554
Cu0 Ge1 2.850975 1_555
Cu0 Ge2 2.850975 1_554
Cu0 Ge0 2.850975 1_555
Cu0 Ge0 2.850975 1_554
Cu0 Ge2 2.850975 1_555
Cu0 Ge4 2.916572 1_655
Cu0 Ge5 2.916572 1_545
Cu0 Ge3 2.916578 1_655
Cu0 Ge3 2.916578 1_545
Cu0 Ge4 2.916584 1_555
Cu0 Ge5 2.916584 1_555
Cu1 Ge3 2.850975 1_556
Cu1 Ge3 2.850975 1_555
Cu1 Ge5 2.850975 1_555
Cu1 Ge5 2.850975 1_556
Cu1 Ge4 2.850975 1_555
Cu1 Ge4 2.850975 1_556
Cu1 Ge2 2.916572 1_455
Cu1 Ge0 2.916572 1_565
Cu1 Ge1 2.916578 1_455
Cu1 Ge1 2.916578 1_565
Cu1 Ge2 2.916584 1_555
Cu1 Ge0 2.916584 1_555
Ge0 Ge1 2.797273 1_555
Ge0 Ge2 2.797273 1_555
Ge0 Ge3 2.930657 1_545
Ge0 Ge3 2.930657 1_546
Ge0 Ge4 2.930663 1_556
Ge0 Ge4 2.930663 1_555
Ge0 Ge1 3.034278 1_455
Ge0 Ge2 3.034279 1_445
Ge1 Ge2 2.797273 1_555
Ge1 Ge4 2.930657 1_656
Ge1 Ge4 2.930657 1_655
Ge1 Ge5 2.930657 1_546
Ge1 Ge5 2.930657 1_545
Ge1 Ge2 3.034278 1_545
Ge2 Ge3 2.930657 1_655
Ge2 Ge3 2.930657 1_656
Ge2 Ge5 2.930663 1_555
Ge2 Ge5 2.930663 1_556
Ge3 Ge4 2.797273 1_555
Ge3 Ge5 2.797273 1_555
Ge3 Ge4 3.034278 1_565
Ge3 Ge5 3.034278 1_455
Ge4 Ge5 2.797273 1_555
Ge4 Ge5 3.034279 1_445
