# generated using pymatgen
data_Nd(BRu)2
_symmetry_space_group_name_H-M   'P 1'
_cell_length_a   5.60166461
_cell_length_b   5.60166461
_cell_length_c   5.96011933
_cell_angle_alpha   108.58552455
_cell_angle_beta   108.58552455
_cell_angle_gamma   108.77000410
_symmetry_Int_Tables_number   1
_chemical_formula_structural   Nd(BRu)2
_chemical_formula_sum   'Nd2 B4 Ru4'
_cell_volume   148.19848044
_cell_formula_units_Z   2
loop_
 _symmetry_equiv_pos_site_id
 _symmetry_equiv_pos_as_xyz
  1  'x, y, z'
loop_
 _atom_site_type_symbol
 _atom_site_label
 _atom_site_symmetry_multiplicity
 _atom_site_fract_x
 _atom_site_fract_y
 _atom_site_fract_z
 _atom_site_occupancy
  Nd  Nd0  1  -0.00000000  -0.00000000  -0.00000000  1
  Nd  Nd1  1  0.25000000  0.75000000  0.50000000  1
  B  B0  1  0.68221481  0.31778519  -0.00000000  1
  B  B1  1  0.31778519  0.68221481  -0.00000000  1
  B  B2  1  0.93225512  0.06774488  0.50000000  1
  B  B3  1  0.56774488  0.43225512  0.50000000  1
  Ru  Ru0  1  0.36314369  0.36314369  0.72628538  1
  Ru  Ru1  1  0.63685631  0.63685631  0.27371462  1
  Ru  Ru2  1  0.88685463  0.38685463  0.77370927  1
  Ru  Ru3  1  0.61314537  0.11314537  0.22629073  1
loop_
_geom_bond_atom_site_label_1
_geom_bond_atom_site_label_2
_geom_bond_distance
_geom_bond_site_symmetry_2
Nd0 Ru2 3.019737 1_454
Nd0 Ru3 3.019737 1_455
Nd0 Ru3 3.019737 1_555
Nd0 Ru2 3.019737 1_444
Nd1 Ru0 3.019723 1_555
Nd1 Ru1 3.019723 1_555
Nd1 Ru1 3.019730 1_455
Nd1 Ru0 3.019730 1_565
B0 Ru2 2.077386 1_554
B0 Ru3 2.077386 1_555
B0 Ru0 2.149024 1_554
B0 Ru1 2.149024 1_555
B0 Nd0 2.894301 1_655
B0 Nd1 3.043337 1_544
B0 Nd1 3.043337 1_655
B1 Ru2 2.077386 1_454
B1 Ru3 2.077386 1_565
B1 Ru0 2.149024 1_554
B1 Ru1 2.149024 1_555
B1 Nd0 2.894301 1_565
B1 Nd1 3.043337 1_555
B1 Nd1 3.043337 1_554
B2 Ru1 2.077268 1_545
B2 Ru0 2.077268 1_655
B2 Ru2 2.149291 1_555
B2 Ru3 2.149291 1_555
B2 Nd1 2.893934 1_645
B2 Nd0 3.043263 1_656
B2 Nd0 3.043263 1_655
B3 Ru0 2.077258 1_555
B3 Ru1 2.077258 1_555
B3 Ru2 2.149291 1_555
B3 Ru3 2.149291 1_555
B3 Nd1 2.893934 1_555
B3 Nd0 3.043263 1_555
B3 Nd0 3.043263 1_666
