# generated using pymatgen
data_Ba2Ti5(Bi2O9)2
_symmetry_space_group_name_H-M   'P 1'
_cell_length_a   3.92666700
_cell_length_b   3.92666700
_cell_length_c   24.60516819
_cell_angle_alpha   85.42330259
_cell_angle_beta   85.42330259
_cell_angle_gamma   90.00000000
_symmetry_Int_Tables_number   1
_chemical_formula_structural   Ba2Ti5(Bi2O9)2
_chemical_formula_sum   'Ba2 Ti5 Bi4 O18'
_cell_volume   376.95679034
_cell_formula_units_Z   1
loop_
 _symmetry_equiv_pos_site_id
 _symmetry_equiv_pos_as_xyz
  1  'x, y, z'
loop_
 _atom_site_type_symbol
 _atom_site_label
 _atom_site_symmetry_multiplicity
 _atom_site_fract_x
 _atom_site_fract_y
 _atom_site_fract_z
 _atom_site_occupancy
  Ba  Ba0  1  0.04178000  0.04178000  0.91644000  1
  Ba  Ba1  1  0.95822000  0.95822000  0.08356000  1
  Ti  Ti0  1  0.33232100  0.33232100  0.33535900  1
  Ti  Ti1  1  0.66767900  0.66767900  0.66464100  1
  Ti  Ti2  1  0.41615000  0.41615000  0.16770000  1
  Ti  Ti3  1  0.58385000  0.58385000  0.83230000  1
  Ti  Ti4  1  0.50000000  0.50000000  0.00000000  1
  Bi  Bi0  1  0.22441500  0.22441500  0.55116900  1
  Bi  Bi1  1  0.77558500  0.77558500  0.44883100  1
  Bi  Bi2  1  0.12736200  0.12736200  0.74527600  1
  Bi  Bi3  1  0.87263800  0.87263800  0.25472400  1
  O  O0  1  0.37706300  0.37706300  0.24587400  1
  O  O1  1  0.62293700  0.62293700  0.75412600  1
  O  O2  1  0.29577800  0.29577800  0.40844300  1
  O  O3  1  0.70422200  0.70422200  0.59155700  1
  O  O4  1  0.58419300  0.08419300  0.83161400  1
  O  O5  1  0.08419300  0.58419300  0.83161400  1
  O  O6  1  0.41580700  0.91580700  0.16838600  1
  O  O7  1  0.91580700  0.41580700  0.16838600  1
  O  O8  1  0.45838400  0.45838400  0.08323100  1
  O  O9  1  0.54161600  0.54161600  0.91676900  1
  O  O10  1  0.65986700  0.15986700  0.68026500  1
  O  O11  1  0.15986700  0.65986700  0.68026500  1
  O  O12  1  0.34013300  0.84013300  0.31973500  1
  O  O13  1  0.84013300  0.34013300  0.31973500  1
  O  O14  1  0.75000000  0.25000000  0.50000000  1
  O  O15  1  0.25000000  0.75000000  0.50000000  1
  O  O16  1  0.50000000  0.00000000  0.00000000  1
  O  O17  1  0.00000000  0.50000000  0.00000000  1
loop_
_geom_bond_atom_site_label_1
_geom_bond_atom_site_label_2
_geom_bond_distance
_geom_bond_site_symmetry_2
Ba0 O9 2.776582 1_445
Ba0 O9 2.776585 1_455
Ba0 O9 2.776585 1_545
Ba0 O9 2.776587 1_555
Ba0 O16 2.833376 1_556
Ba0 O17 2.833376 1_556
Ba0 O17 2.833376 1_546
Ba0 O16 2.833376 1_456
Ba0 O5 2.855772 1_545
Ba0 O4 2.855772 1_455
Ba0 O4 2.855772 1_555
Ba0 O5 2.855772 1_555
Ba1 O8 2.776582 1_665
Ba1 O8 2.776585 1_655
Ba1 O8 2.776585 1_565
Ba1 O8 2.776587 1_555
Ba1 O16 2.833376 1_565
Ba1 O17 2.833376 1_655
Ba1 O16 2.833376 1_665
Ba1 O17 2.833376 1_665
Ba1 O6 2.855772 1_655
Ba1 O7 2.855772 1_565
Ba1 O7 2.855772 1_555
Ba1 O6 2.855772 1_555
Bi0 O14 2.328008 1_455
Bi0 O15 2.328008 1_545
Bi0 O14 2.328011 1_555
Bi0 O15 2.328011 1_555
Bi1 O14 2.328008 1_565
Bi1 O15 2.328008 1_655
Bi1 O14 2.328011 1_555
Bi1 O15 2.328011 1_555
Bi2 O10 2.526030 1_555
Bi2 O11 2.526030 1_555
Bi2 O11 2.526033 1_545
Bi2 O10 2.526033 1_455
Bi2 O1 2.784990 1_555
Bi2 O1 2.784990 1_455
Bi2 O1 2.784990 1_545
Bi2 O1 2.784990 1_445
Bi2 O5 2.882728 1_555
Bi2 O4 2.882728 1_555
Bi2 O5 2.882728 1_545
Bi2 O4 2.882728 1_455
Bi3 O13 2.526030 1_555
Bi3 O12 2.526030 1_555
Bi3 O12 2.526033 1_655
Bi3 O13 2.526033 1_565
Bi3 O0 2.784990 1_555
Bi3 O0 2.784990 1_655
Bi3 O0 2.784990 1_565
Bi3 O0 2.784990 1_665
Bi3 O7 2.882728 1_555
Bi3 O6 2.882728 1_555
Bi3 O6 2.882728 1_655
Bi3 O7 2.882728 1_565
O0 Ti2 1.911198 1_555
O0 Ti0 2.187730 1_555
O1 Ti3 1.911198 1_555
O1 Ti1 2.187730 1_555
O2 Ti0 1.786758 1_555
O3 Ti1 1.786758 1_555
O4 Ti3 1.963405 1_555
O4 Ti3 1.963405 1_545
O5 Ti3 1.963405 1_555
O5 Ti3 1.963405 1_455
O6 Ti2 1.963405 1_555
O6 Ti2 1.963405 1_565
O7 Ti2 1.963405 1_555
O7 Ti2 1.963405 1_655
O8 Ti4 2.034832 1_555
O8 Ti2 2.065099 1_555
O9 Ti4 2.034832 1_556
O9 Ti3 2.065099 1_555
O10 Ti1 2.000146 1_545
O10 Ti1 2.000146 1_555
O11 Ti1 2.000146 1_455
O11 Ti1 2.000146 1_555
O12 Ti0 2.000146 1_565
O12 Ti0 2.000146 1_555
O13 Ti0 2.000146 1_655
O13 Ti0 2.000146 1_555
O16 Ti4 1.963334 1_545
O16 Ti4 1.963334 1_555
O17 Ti4 1.963334 1_555
O17 Ti4 1.963334 1_455
