# generated using pymatgen
data_BaSrDyNbO6
_symmetry_space_group_name_H-M   'P 1'
_cell_length_a   5.97340179
_cell_length_b   5.97785138
_cell_length_c   8.45952130
_cell_angle_alpha   90.22808101
_cell_angle_beta   90.15111408
_cell_angle_gamma   90.50289889
_symmetry_Int_Tables_number   1
_chemical_formula_structural   BaSrDyNbO6
_chemical_formula_sum   'Ba2 Sr2 Dy2 Nb2 O12'
_cell_volume   302.05839368
_cell_formula_units_Z   2
loop_
 _symmetry_equiv_pos_site_id
 _symmetry_equiv_pos_as_xyz
  1  'x, y, z'
loop_
 _atom_site_type_symbol
 _atom_site_label
 _atom_site_symmetry_multiplicity
 _atom_site_fract_x
 _atom_site_fract_y
 _atom_site_fract_z
 _atom_site_occupancy
  Ba  Ba0  1  0.50420588  0.51909292  0.24998060  1
  Ba  Ba1  1  0.49579412  0.48090708  0.75001940  1
  Sr  Sr0  1  0.99653413  0.02322144  0.25059335  1
  Sr  Sr1  1  0.00346587  0.97677856  0.74940665  1
  Dy  Dy0  1  -0.00000000  0.50000000  -0.00000000  1
  Dy  Dy1  1  0.50000000  0.00000000  0.50000000  1
  Nb  Nb0  1  0.50000000  0.00000000  -0.00000000  1
  Nb  Nb1  1  -0.00000000  0.50000000  0.50000000  1
  O  O0  1  0.23166675  0.20488360  0.96641485  1
  O  O1  1  0.26162253  0.71106060  0.52956463  1
  O  O2  1  0.76833325  0.79511640  0.03358515  1
  O  O3  1  0.73837747  0.28893940  0.47043537  1
  O  O4  1  0.29060194  0.73737364  0.96909461  1
  O  O5  1  0.20305621  0.22965576  0.53238404  1
  O  O6  1  0.70939806  0.26262636  0.03090539  1
  O  O7  1  0.79694379  0.77034424  0.46761596  1
  O  O8  1  0.43281951  0.99427355  0.23632906  1
  O  O9  1  0.05402117  0.48473756  0.26365703  1
  O  O10  1  0.56718049  0.00572645  0.76367094  1
  O  O11  1  0.94597883  0.51526244  0.73634297  1
loop_
_geom_bond_atom_site_label_1
_geom_bond_atom_site_label_2
_geom_bond_distance
_geom_bond_site_symmetry_2
Ba0 O9 2.697988 1_555
Ba0 O6 2.703654 1_555
Ba0 O3 2.714405 1_555
Ba0 O8 2.878813 1_555
Ba0 O2 2.925156 1_555
Ba0 O7 2.935659 1_555
Ba0 O4 3.002452 1_554
Ba0 O1 3.006027 1_555
Ba0 O8 3.164039 1_545
Ba0 O9 3.294238 1_655
Ba0 O0 3.438397 1_554
Ba0 O5 3.455124 1_555
Ba1 O11 2.697988 1_555
Ba1 O4 2.703654 1_555
Ba1 O1 2.714405 1_555
Ba1 O10 2.878813 1_555
Ba1 O0 2.925156 1_555
Ba1 O5 2.935659 1_555
Ba1 O6 3.002452 1_556
Ba1 O3 3.006027 1_555
Ba1 O10 3.164039 1_565
Ba1 O11 3.294238 1_455
Ba1 O2 3.438397 1_556
Ba1 O7 3.455124 1_555
Dy0 O6 2.248836 1_455
Dy0 O4 2.248836 1_554
Dy0 O11 2.255112 1_454
Dy0 O9 2.255112 1_555
Dy0 O2 2.269127 1_455
Dy0 O0 2.269127 1_554
Dy1 O1 2.244015 1_545
Dy1 O3 2.244015 1_555
Dy1 O8 2.265371 1_545
Dy1 O10 2.265371 1_555
Dy1 O5 2.268991 1_555
Dy1 O7 2.268991 1_545
Nb0 O4 2.014486 1_544
Nb0 O6 2.014486 1_555
Nb0 O8 2.040507 1_545
Nb0 O10 2.040507 1_554
Nb0 O0 2.045670 1_554
Nb0 O2 2.045670 1_545
Nb1 O3 2.014322 1_455
Nb1 O1 2.014322 1_555
Nb1 O9 2.027884 1_555
Nb1 O11 2.027884 1_455
Nb1 O5 2.047963 1_555
Nb1 O7 2.047963 1_455
O0 Sr1 2.649874 1_545
O0 Sr0 2.990506 1_456
O1 Sr1 2.897306 1_555
O2 Sr0 2.649874 1_565
O2 Sr1 2.990506 1_654
O3 Sr0 2.897306 1_555
O4 Sr1 2.913978 1_555
O5 Sr1 2.660658 1_545
O5 Sr0 2.943063 1_455
O6 Sr0 2.913978 1_555
O7 Sr0 2.660658 1_565
O7 Sr1 2.943063 1_655
O8 Sr0 2.616431 1_465
O9 Sr0 2.778896 1_455
O10 Sr1 2.616431 1_645
O11 Sr1 2.778896 1_655
