# generated using pymatgen
data_Sr10Fe10O29
_symmetry_space_group_name_H-M   'P 1'
_cell_length_a   3.90601300
_cell_length_b   7.85183800
_cell_length_c   19.69593600
_cell_angle_alpha   90.00000000
_cell_angle_beta   90.00000000
_cell_angle_gamma   90.00000000
_symmetry_Int_Tables_number   1
_chemical_formula_structural   Sr10Fe10O29
_chemical_formula_sum   'Sr10 Fe10 O29'
_cell_volume   604.06217128
_cell_formula_units_Z   1
loop_
 _symmetry_equiv_pos_site_id
 _symmetry_equiv_pos_as_xyz
  1  'x, y, z'
loop_
 _atom_site_type_symbol
 _atom_site_label
 _atom_site_symmetry_multiplicity
 _atom_site_fract_x
 _atom_site_fract_y
 _atom_site_fract_z
 _atom_site_occupancy
  Sr  Sr0  1  0.00000000  0.25429500  0.70229500  1
  Sr  Sr1  1  0.00000000  0.25068800  0.90024800  1
  Sr  Sr2  1  0.00000000  0.25068800  0.09975200  1
  Sr  Sr3  1  0.00000000  0.25429500  0.29770500  1
  Sr  Sr4  1  0.00000000  0.26665700  0.50000000  1
  Sr  Sr5  1  0.00000000  0.74570500  0.70229500  1
  Sr  Sr6  1  0.00000000  0.74931200  0.90024800  1
  Sr  Sr7  1  0.00000000  0.74931200  0.09975200  1
  Sr  Sr8  1  0.00000000  0.74570500  0.29770500  1
  Sr  Sr9  1  0.00000000  0.73334300  0.50000000  1
  Fe  Fe0  1  0.50000000  0.00000000  0.60634400  1
  Fe  Fe1  1  0.50000000  0.00000000  0.80146600  1
  Fe  Fe2  1  0.50000000  0.00000000  0.00000000  1
  Fe  Fe3  1  0.50000000  0.00000000  0.19853400  1
  Fe  Fe4  1  0.50000000  0.00000000  0.39365600  1
  Fe  Fe5  1  0.50000000  0.50000000  0.60017200  1
  Fe  Fe6  1  0.50000000  0.50000000  0.80035000  1
  Fe  Fe7  1  0.50000000  0.50000000  0.00000000  1
  Fe  Fe8  1  0.50000000  0.50000000  0.19965000  1
  Fe  Fe9  1  0.50000000  0.50000000  0.39982800  1
  O  O0  1  0.50000000  0.24006900  0.59337100  1
  O  O1  1  0.50000000  0.25056400  0.79882600  1
  O  O2  1  0.50000000  0.24866000  0.00000000  1
  O  O3  1  0.50000000  0.25056400  0.20117400  1
  O  O4  1  0.50000000  0.24006900  0.40662900  1
  O  O5  1  0.50000000  0.75993100  0.59337100  1
  O  O6  1  0.50000000  0.74943600  0.79882600  1
  O  O7  1  0.50000000  0.75134000  0.00000000  1
  O  O8  1  0.50000000  0.74943600  0.20117400  1
  O  O9  1  0.50000000  0.75993100  0.40662900  1
  O  O10  1  0.50000000  0.00000000  0.70159600  1
  O  O11  1  0.50000000  0.00000000  0.89894900  1
  O  O12  1  0.50000000  0.00000000  0.10105100  1
  O  O13  1  0.50000000  0.00000000  0.29840400  1
  O  O14  1  0.50000000  0.50000000  0.69810800  1
  O  O15  1  0.50000000  0.50000000  0.90076200  1
  O  O16  1  0.50000000  0.50000000  0.09923800  1
  O  O17  1  0.50000000  0.50000000  0.30189200  1
  O  O18  1  0.50000000  0.50000000  0.50000000  1
  O  O19  1  0.00000000  0.00000000  0.58690300  1
  O  O20  1  0.00000000  0.00000000  0.79912400  1
  O  O21  1  0.00000000  0.00000000  0.00000000  1
  O  O22  1  0.00000000  0.00000000  0.20087600  1
  O  O23  1  0.00000000  0.00000000  0.41309700  1
  O  O24  1  0.00000000  0.50000000  0.60007700  1
  O  O25  1  0.00000000  0.50000000  0.79866700  1
  O  O26  1  0.00000000  0.50000000  0.00000000  1
  O  O27  1  0.00000000  0.50000000  0.20133300  1
  O  O28  1  0.00000000  0.50000000  0.39992300  1
loop_
_geom_bond_atom_site_label_1
_geom_bond_atom_site_label_2
_geom_bond_distance
_geom_bond_site_symmetry_2
Fe0 O10 1.876077 1_555
Fe0 O0 1.902222 1_555
Fe0 O5 1.902222 1_545
Fe0 O19 1.990189 1_655
Fe0 O19 1.990189 1_555
Fe1 O11 1.920019 1_555
Fe1 O20 1.953551 1_555
Fe1 O20 1.953551 1_655
Fe1 O10 1.967033 1_555
Fe1 O1 1.968075 1_555
Fe1 O6 1.968075 1_545
Fe2 O7 1.952438 1_545
Fe2 O2 1.952438 1_555
Fe2 O21 1.953006 1_655
Fe2 O21 1.953006 1_555
Fe2 O11 1.990294 1_554
Fe2 O12 1.990294 1_555
Fe3 O12 1.920019 1_555
Fe3 O22 1.953551 1_555
Fe3 O22 1.953551 1_655
Fe3 O13 1.967033 1_555
Fe3 O3 1.968075 1_555
Fe3 O8 1.968075 1_545
Fe4 O13 1.876077 1_555
Fe4 O4 1.902222 1_555
Fe4 O9 1.902222 1_545
Fe4 O23 1.990189 1_655
Fe4 O23 1.990189 1_555
Fe5 O14 1.928941 1_555
Fe5 O24 1.953007 1_655
Fe5 O24 1.953007 1_555
Fe5 O18 1.972981 1_555
Fe5 O5 2.045327 1_555
Fe5 O0 2.045327 1_555
Fe6 O25 1.953288 1_555
Fe6 O25 1.953288 1_655
Fe6 O1 1.958761 1_555
Fe6 O6 1.958761 1_555
Fe6 O15 1.977708 1_555
Fe6 O14 2.013752 1_555
Fe7 O26 1.953006 1_555
Fe7 O26 1.953006 1_655
Fe7 O16 1.954585 1_555
Fe7 O15 1.954585 1_554
Fe7 O7 1.973481 1_555
Fe7 O2 1.973481 1_555
Fe8 O27 1.953288 1_555
Fe8 O27 1.953288 1_655
Fe8 O3 1.958761 1_555
Fe8 O8 1.958761 1_555
Fe8 O16 1.977708 1_555
Fe8 O17 2.013752 1_555
Fe9 O17 1.928941 1_555
Fe9 O28 1.953007 1_655
Fe9 O28 1.953007 1_555
Fe9 O18 1.972981 1_555
Fe9 O9 2.045327 1_555
Fe9 O4 2.045327 1_555
O0 Sr4 2.690696 1_555
O0 Sr4 2.690696 1_655
O0 Sr0 2.903322 1_655
O0 Sr0 2.903322 1_555
O1 Sr0 2.725787 1_655
O1 Sr0 2.725787 1_555
O1 Sr1 2.793680 1_555
O1 Sr1 2.793680 1_655
O2 Sr2 2.770301 1_555
O2 Sr2 2.770301 1_655
O2 Sr1 2.770301 1_654
O2 Sr1 2.770301 1_554
O3 Sr3 2.725787 1_555
O3 Sr3 2.725787 1_655
O3 Sr2 2.793680 1_555
O3 Sr2 2.793680 1_655
O4 Sr4 2.690696 1_655
O4 Sr4 2.690696 1_555
O4 Sr3 2.903322 1_555
O4 Sr3 2.903322 1_655
O5 Sr9 2.690696 1_555
O5 Sr9 2.690696 1_655
O5 Sr5 2.903322 1_555
O5 Sr5 2.903322 1_655
O6 Sr5 2.725787 1_555
O6 Sr5 2.725787 1_655
O6 Sr6 2.793680 1_555
O6 Sr6 2.793680 1_655
O7 Sr7 2.770301 1_555
O7 Sr7 2.770301 1_655
O7 Sr6 2.770301 1_654
O7 Sr6 2.770301 1_554
O8 Sr8 2.725787 1_555
O8 Sr8 2.725787 1_655
O8 Sr7 2.793680 1_655
O8 Sr7 2.793680 1_555
O9 Sr9 2.690696 1_555
O9 Sr9 2.690696 1_655
O9 Sr8 2.903322 1_555
O9 Sr8 2.903322 1_655
O10 Sr0 2.793057 1_655
O10 Sr0 2.793057 1_555
O10 Sr5 2.793057 1_545
O10 Sr5 2.793057 1_645
O11 Sr1 2.772965 1_555
O11 Sr1 2.772965 1_655
O11 Sr6 2.772965 1_545
O11 Sr6 2.772965 1_645
O12 Sr2 2.772965 1_555
O12 Sr2 2.772965 1_655
O12 Sr7 2.772965 1_545
O12 Sr7 2.772965 1_645
O13 Sr3 2.793057 1_555
O13 Sr3 2.793057 1_655
O13 Sr8 2.793057 1_545
O13 Sr8 2.793057 1_645
O14 Sr5 2.746450 1_555
O14 Sr5 2.746450 1_655
O14 Sr0 2.746450 1_555
O14 Sr0 2.746450 1_655
O15 Sr6 2.765207 1_555
O15 Sr6 2.765207 1_655
O15 Sr1 2.765207 1_555
O15 Sr1 2.765207 1_655
O16 Sr7 2.765207 1_655
O16 Sr7 2.765207 1_555
O16 Sr2 2.765207 1_555
O16 Sr2 2.765207 1_655
O17 Sr8 2.746450 1_555
O17 Sr8 2.746450 1_655
O17 Sr3 2.746450 1_555
O17 Sr3 2.746450 1_655
O18 Sr4 2.677888 1_655
O18 Sr9 2.677888 1_555
O18 Sr9 2.677888 1_655
O18 Sr4 2.677888 1_555
O19 Sr4 2.704344 1_555
O19 Sr9 2.704344 1_545
O19 Sr0 3.025252 1_555
O19 Sr5 3.025252 1_545
O20 Sr0 2.761144 1_555
O20 Sr5 2.761144 1_545
O20 Sr1 2.800258 1_555
O20 Sr6 2.800258 1_545
O21 Sr2 2.781102 1_555
O21 Sr7 2.781102 1_545
O21 Sr1 2.781102 1_554
O21 Sr6 2.781102 1_544
O22 Sr3 2.761144 1_555
O22 Sr8 2.761144 1_545
O22 Sr2 2.800258 1_555
O22 Sr7 2.800258 1_545
O23 Sr4 2.704344 1_555
O23 Sr9 2.704344 1_545
O23 Sr3 3.025252 1_555
O23 Sr8 3.025252 1_545
O24 Sr9 2.691120 1_555
O24 Sr4 2.691120 1_555
O24 Sr5 2.788412 1_555
O24 Sr0 2.788412 1_555
O25 Sr5 2.706450 1_555
O25 Sr0 2.706450 1_555
O25 Sr6 2.799100 1_555
O25 Sr1 2.799100 1_555
O26 Sr7 2.773466 1_555
O26 Sr2 2.773466 1_555
O26 Sr6 2.773466 1_554
O26 Sr1 2.773466 1_554
O27 Sr8 2.706450 1_555
O27 Sr3 2.706450 1_555
O27 Sr7 2.799100 1_555
O27 Sr2 2.799100 1_555
O28 Sr4 2.691120 1_555
O28 Sr9 2.691120 1_555
O28 Sr8 2.788412 1_555
O28 Sr3 2.788412 1_555
