# generated using pymatgen
data_Yb2Fe3Si5
_symmetry_space_group_name_H-M   'P 1'
_cell_length_a   10.22381041
_cell_length_b   10.22381041
_cell_length_c   5.36760856
_cell_angle_alpha   90.00000000
_cell_angle_beta   90.00000000
_cell_angle_gamma   90.00000000
_symmetry_Int_Tables_number   1
_chemical_formula_structural   Yb2Fe3Si5
_chemical_formula_sum   'Yb8 Fe12 Si20'
_cell_volume   561.05625899
_cell_formula_units_Z   4
loop_
 _symmetry_equiv_pos_site_id
 _symmetry_equiv_pos_as_xyz
  1  'x, y, z'
loop_
 _atom_site_type_symbol
 _atom_site_label
 _atom_site_symmetry_multiplicity
 _atom_site_fract_x
 _atom_site_fract_y
 _atom_site_fract_z
 _atom_site_occupancy
  Yb  Yb0  1  0.56957027  0.73685862  0.50000000  1
  Yb  Yb1  1  0.43042973  0.26314138  0.50000000  1
  Yb  Yb2  1  0.06957027  0.76314138  0.00000000  1
  Yb  Yb3  1  0.93042973  0.23685862  0.00000000  1
  Yb  Yb4  1  0.26314138  0.56957027  0.50000000  1
  Yb  Yb5  1  0.73685862  0.43042973  0.50000000  1
  Yb  Yb6  1  0.23685862  0.06957027  0.00000000  1
  Yb  Yb7  1  0.76314138  0.93042973  0.00000000  1
  Fe  Fe0  1  0.87640045  0.85605238  0.50000000  1
  Fe  Fe1  1  0.12359955  0.14394762  0.50000000  1
  Fe  Fe2  1  0.37640045  0.64394762  0.00000000  1
  Fe  Fe3  1  0.62359955  0.35605238  0.00000000  1
  Fe  Fe4  1  0.14394762  0.87640045  0.50000000  1
  Fe  Fe5  1  0.85605238  0.12359955  0.50000000  1
  Fe  Fe6  1  0.35605238  0.37640045  0.00000000  1
  Fe  Fe7  1  0.64394762  0.62359955  0.00000000  1
  Fe  Fe8  1  0.50000000  0.00000000  0.25000000  1
  Fe  Fe9  1  0.00000000  0.50000000  0.75000000  1
  Fe  Fe10  1  0.00000000  0.50000000  0.25000000  1
  Fe  Fe11  1  0.50000000  0.00000000  0.75000000  1
  Si  Si0  1  0.67779484  0.17779484  0.25000000  1
  Si  Si1  1  0.32220516  0.82220516  0.25000000  1
  Si  Si2  1  0.17779484  0.32220516  0.75000000  1
  Si  Si3  1  0.82220516  0.67779484  0.75000000  1
  Si  Si4  1  0.82220516  0.67779484  0.25000000  1
  Si  Si5  1  0.17779484  0.32220516  0.25000000  1
  Si  Si6  1  0.67779484  0.17779484  0.75000000  1
  Si  Si7  1  0.32220516  0.82220516  0.75000000  1
  Si  Si8  1  0.50000000  0.50000000  0.23660184  1
  Si  Si9  1  0.00000000  0.00000000  0.73660184  1
  Si  Si10  1  0.50000000  0.50000000  0.76339816  1
  Si  Si11  1  0.00000000  0.00000000  0.26339816  1
  Si  Si12  1  0.68033341  0.97758241  0.50000000  1
  Si  Si13  1  0.31966659  0.02241759  0.50000000  1
  Si  Si14  1  0.18033341  0.52241759  0.00000000  1
  Si  Si15  1  0.81966659  0.47758241  0.00000000  1
  Si  Si16  1  0.02241759  0.68033341  0.50000000  1
  Si  Si17  1  0.97758241  0.31966659  0.50000000  1
  Si  Si18  1  0.47758241  0.18033341  0.00000000  1
  Si  Si19  1  0.52241759  0.81966659  0.00000000  1
loop_
_geom_bond_atom_site_label_1
_geom_bond_atom_site_label_2
_geom_bond_distance
_geom_bond_site_symmetry_2
Fe0 Si9 2.318529 1_665
Fe0 Si11 2.318529 1_665
Fe0 Si3 2.330045 1_555
Fe0 Si4 2.330045 1_555
Fe0 Si16 2.335825 1_655
Fe0 Si12 2.358397 1_555
Fe0 Yb7 3.020243 1_555
Fe0 Yb7 3.020243 1_556
Fe1 Si9 2.318529 1_555
Fe1 Si11 2.318529 1_555
Fe1 Si2 2.330045 1_555
Fe1 Si5 2.330045 1_555
Fe1 Si17 2.335825 1_455
Fe1 Si13 2.358397 1_555
Fe1 Yb6 3.020243 1_555
Fe1 Yb6 3.020243 1_556
Fe2 Si8 2.318529 1_555
Fe2 Si10 2.318529 1_554
Fe2 Si7 2.330045 1_554
Fe2 Si1 2.330045 1_555
Fe2 Si19 2.335825 1_555
Fe2 Si14 2.358397 1_555
Fe2 Yb4 3.020243 1_554
Fe2 Yb4 3.020243 1_555
Fe3 Si8 2.318529 1_555
Fe3 Si10 2.318529 1_554
Fe3 Si0 2.330045 1_555
Fe3 Si6 2.330045 1_554
Fe3 Si18 2.335825 1_555
Fe3 Si15 2.358397 1_555
Fe3 Yb5 3.020243 1_555
Fe3 Yb5 3.020243 1_554
Fe4 Si9 2.318529 1_565
Fe4 Si11 2.318529 1_565
Fe4 Si7 2.330045 1_555
Fe4 Si1 2.330045 1_555
Fe4 Si13 2.335825 1_565
Fe4 Si16 2.358397 1_555
Fe4 Yb2 3.020243 1_556
Fe4 Yb2 3.020243 1_555
Fe5 Si9 2.318529 1_655
Fe5 Si11 2.318529 1_655
Fe5 Si6 2.330045 1_555
Fe5 Si0 2.330045 1_555
Fe5 Si12 2.335825 1_545
Fe5 Si17 2.358397 1_555
Fe5 Yb3 3.020243 1_555
Fe5 Yb3 3.020243 1_556
Fe6 Si8 2.318529 1_555
Fe6 Si10 2.318529 1_554
Fe6 Si5 2.330045 1_555
Fe6 Si2 2.330045 1_554
Fe6 Si14 2.335825 1_555
Fe6 Si18 2.358397 1_555
Fe6 Yb1 3.020243 1_554
Fe6 Yb1 3.020243 1_555
Fe7 Si8 2.318529 1_555
Fe7 Si10 2.318529 1_554
Fe7 Si3 2.330045 1_554
Fe7 Si4 2.330045 1_555
Fe7 Si15 2.335825 1_555
Fe7 Si19 2.358397 1_555
Fe7 Yb0 3.020243 1_555
Fe7 Yb0 3.020243 1_554
Fe8 Si18 2.291820 1_555
Fe8 Si12 2.291820 1_545
Fe8 Si19 2.291820 1_545
Fe8 Si13 2.291820 1_555
Fe8 Si0 2.570674 1_555
Fe8 Si1 2.570674 1_545
Fe8 Yb0 3.089396 1_545
Fe8 Yb6 3.089396 1_555
Fe8 Yb1 3.089396 1_555
Fe8 Yb7 3.089396 1_545
Fe9 Si16 2.291820 1_555
Fe9 Si14 2.291820 1_556
Fe9 Si15 2.291820 1_456
Fe9 Si17 2.291820 1_455
Fe9 Si2 2.570674 1_555
Fe9 Si3 2.570674 1_455
Fe9 Yb4 3.089396 1_555
Fe9 Yb2 3.089396 1_556
Fe9 Yb3 3.089396 1_456
Fe9 Yb5 3.089396 1_455
Fe10 Si14 2.291820 1_555
Fe10 Si16 2.291820 1_555
Fe10 Si15 2.291820 1_455
Fe10 Si17 2.291820 1_455
Fe10 Si5 2.570674 1_555
Fe10 Si4 2.570674 1_455
Fe10 Fe9 2.683804 1_555
Fe10 Fe9 2.683804 1_554
Fe10 Yb4 3.089396 1_555
Fe10 Yb2 3.089396 1_555
Fe10 Yb5 3.089396 1_455
Fe10 Yb3 3.089396 1_455
Fe11 Si18 2.291820 1_556
Fe11 Si12 2.291820 1_545
Fe11 Si19 2.291820 1_546
Fe11 Si13 2.291820 1_555
Fe11 Si6 2.570674 1_555
Fe11 Si7 2.570674 1_545
Fe11 Fe8 2.683804 1_555
Fe11 Fe8 2.683804 1_556
Fe11 Yb0 3.089396 1_545
Fe11 Yb6 3.089396 1_556
Fe11 Yb1 3.089396 1_555
Fe11 Yb7 3.089396 1_546
Si0 Si12 2.447716 1_545
Si0 Si18 2.447716 1_555
Si0 Si6 2.683804 1_554
Si0 Si6 2.683804 1_555
Si0 Yb5 2.972654 1_555
Si0 Yb3 2.972654 1_555
Si0 Yb7 2.992989 1_545
Si0 Yb1 2.992989 1_555
Si1 Si13 2.447716 1_565
Si1 Si19 2.447716 1_555
Si1 Si7 2.683804 1_554
Si1 Si7 2.683804 1_555
Si1 Yb2 2.972654 1_555
Si1 Yb4 2.972654 1_555
Si1 Yb6 2.992989 1_565
Si1 Yb0 2.992989 1_555
Si2 Si5 2.683804 1_555
Si2 Si5 2.683804 1_556
Si2 Yb1 2.972654 1_555
Si2 Yb6 2.972654 1_556
Si2 Yb3 2.992989 1_456
Si2 Yb4 2.992989 1_555
Si3 Si4 2.683804 1_555
Si3 Si4 2.683804 1_556
Si3 Yb7 2.972654 1_556
Si3 Yb0 2.972654 1_555
Si3 Yb5 2.992989 1_555
Si3 Yb2 2.992989 1_656
Si4 Yb7 2.972654 1_555
Si4 Yb0 2.972654 1_555
Si4 Yb5 2.992989 1_555
Si4 Yb2 2.992989 1_655
Si5 Yb1 2.972654 1_555
Si5 Yb6 2.972654 1_555
Si5 Yb3 2.992989 1_455
Si5 Yb4 2.992989 1_555
Si6 Yb5 2.972654 1_555
Si6 Yb3 2.972654 1_556
Si6 Yb7 2.992989 1_546
Si6 Yb1 2.992989 1_555
Si7 Yb2 2.972654 1_556
Si7 Yb4 2.972654 1_555
Si7 Yb6 2.992989 1_566
Si7 Yb0 2.992989 1_555
Si8 Yb0 2.892910 1_555
Si8 Yb4 2.892910 1_555
Si8 Yb1 2.892910 1_555
Si8 Yb5 2.892910 1_555
Si9 Yb2 2.892910 1_546
Si9 Yb6 2.892910 1_556
Si9 Yb7 2.892910 1_446
Si9 Yb3 2.892910 1_456
Si10 Yb4 2.892910 1_555
Si10 Yb0 2.892910 1_555
Si10 Yb1 2.892910 1_555
Si10 Yb5 2.892910 1_555
Si11 Yb2 2.892910 1_545
Si11 Yb6 2.892910 1_555
Si11 Yb7 2.892910 1_445
Si11 Yb3 2.892910 1_455
Si12 Si6 2.447716 1_565
Si12 Yb0 2.709144 1_555
Si12 Yb7 2.855164 1_555
Si12 Yb7 2.855164 1_556
Si13 Si7 2.447716 1_545
Si13 Yb1 2.709144 1_555
Si13 Yb6 2.855164 1_555
Si13 Yb6 2.855164 1_556
Si14 Si5 2.447716 1_555
Si14 Si2 2.447716 1_554
Si14 Yb2 2.709144 1_555
Si14 Yb4 2.855164 1_554
Si14 Yb4 2.855164 1_555
Si15 Si4 2.447716 1_555
Si15 Si3 2.447716 1_554
Si15 Yb3 2.709144 1_555
Si15 Yb5 2.855164 1_555
Si15 Yb5 2.855164 1_554
Si16 Si3 2.447716 1_455
Si16 Si4 2.447716 1_455
Si16 Yb4 2.709144 1_555
Si16 Yb2 2.855164 1_556
Si16 Yb2 2.855164 1_555
Si17 Si5 2.447716 1_655
Si17 Si2 2.447716 1_655
Si17 Yb5 2.709144 1_555
Si17 Yb3 2.855164 1_555
Si17 Yb3 2.855164 1_556
Si18 Si6 2.447716 1_554
Si18 Yb6 2.709144 1_555
Si18 Yb1 2.855164 1_555
Si18 Yb1 2.855164 1_554
Si19 Si7 2.447716 1_554
Si19 Yb7 2.709144 1_555
Si19 Yb0 2.855164 1_555
Si19 Yb0 2.855164 1_554
