# generated using pymatgen
data_ZrMnN2
_symmetry_space_group_name_H-M   'P 1'
_cell_length_a   6.38305000
_cell_length_b   7.39048000
_cell_length_c   4.44150600
_cell_angle_alpha   90.00000000
_cell_angle_beta   90.00000000
_cell_angle_gamma   90.00000000
_symmetry_Int_Tables_number   1
_chemical_formula_structural   ZrMnN2
_chemical_formula_sum   'Zr4 Mn4 N8'
_cell_volume   209.52273068
_cell_formula_units_Z   4
loop_
 _symmetry_equiv_pos_site_id
 _symmetry_equiv_pos_as_xyz
  1  'x, y, z'
loop_
 _atom_site_type_symbol
 _atom_site_label
 _atom_site_symmetry_multiplicity
 _atom_site_fract_x
 _atom_site_fract_y
 _atom_site_fract_z
 _atom_site_occupancy
  Zr  Zr0  1  0.59486900  0.37030200  0.93553400  1
  Zr  Zr1  1  0.40513100  0.62969800  0.43553400  1
  Zr  Zr2  1  0.90513100  0.87030200  0.43553400  1
  Zr  Zr3  1  0.09486900  0.12969800  0.93553400  1
  Mn  Mn0  1  0.57822500  0.87303200  0.93580800  1
  Mn  Mn1  1  0.42177500  0.12696800  0.43580800  1
  Mn  Mn2  1  0.92177500  0.37303200  0.43580800  1
  Mn  Mn3  1  0.07822500  0.62696800  0.93580800  1
  N  N0  1  0.58245700  0.37825100  0.43560500  1
  N  N1  1  0.41754300  0.62174900  0.93560500  1
  N  N2  1  0.91754300  0.87825100  0.93560500  1
  N  N3  1  0.08245700  0.12174900  0.43560500  1
  N  N4  1  0.57181800  0.87885300  0.43405200  1
  N  N5  1  0.42818200  0.12114700  0.93405200  1
  N  N6  1  0.92818200  0.37885300  0.93405200  1
  N  N7  1  0.07181800  0.62114700  0.43405200  1
loop_
_geom_bond_atom_site_label_1
_geom_bond_atom_site_label_2
_geom_bond_distance
_geom_bond_site_symmetry_2
Mn0 N5 2.068750 1_565
Mn0 N1 2.121501 1_555
Mn0 N2 2.166227 1_555
Mn0 N4 2.213750 1_556
Mn0 N4 2.229343 1_555
Mn1 N4 2.068750 1_545
Mn1 N0 2.121501 1_555
Mn1 N3 2.166227 1_555
Mn1 N5 2.213750 1_555
Mn1 N5 2.229343 1_554
Mn2 N7 2.068750 1_655
Mn2 N3 2.121501 1_655
Mn2 N0 2.166227 1_555
Mn2 N6 2.213750 1_555
Mn2 N6 2.229343 1_554
Mn3 N6 2.068750 1_455
Mn3 N2 2.121501 1_455
Mn3 N1 2.166227 1_555
Mn3 N7 2.213750 1_556
Mn3 N7 2.229343 1_555
N0 Zr1 2.175887 1_555
N0 Zr0 2.222627 1_555
N0 Zr0 2.223257 1_554
N1 Zr0 2.175887 1_555
N1 Zr1 2.222627 1_556
N1 Zr1 2.223257 1_555
N2 Zr3 2.175887 1_665
N2 Zr2 2.222627 1_556
N2 Zr2 2.223257 1_555
N3 Zr2 2.175887 1_445
N3 Zr3 2.222627 1_555
N3 Zr3 2.223257 1_554
N4 Zr1 2.126674 1_555
N4 Zr2 2.128502 1_555
N5 Zr0 2.126674 1_555
N5 Zr3 2.128502 1_555
N6 Zr3 2.126674 1_655
N6 Zr0 2.128502 1_555
N7 Zr2 2.126674 1_455
N7 Zr1 2.128502 1_555
