# generated using pymatgen
data_Ba3Ge2B7H3O20
_symmetry_space_group_name_H-M   'P 1'
_cell_length_a   8.65216400
_cell_length_b   8.67081030
_cell_length_c   13.36228556
_cell_angle_alpha   74.44866959
_cell_angle_beta   71.10994812
_cell_angle_gamma   60.07111144
_symmetry_Int_Tables_number   1
_chemical_formula_structural   Ba3Ge2B7H3O20
_chemical_formula_sum   'Ba6 Ge4 B14 H6 O40'
_cell_volume   815.01038879
_cell_formula_units_Z   2
loop_
 _symmetry_equiv_pos_site_id
 _symmetry_equiv_pos_as_xyz
  1  'x, y, z'
loop_
 _atom_site_type_symbol
 _atom_site_label
 _atom_site_symmetry_multiplicity
 _atom_site_fract_x
 _atom_site_fract_y
 _atom_site_fract_z
 _atom_site_occupancy
  Ba  Ba0  1  0.89283400  0.01462400  0.00395100  1
  Ba  Ba1  1  0.08859200  0.51462400  0.50395100  1
  Ba  Ba2  1  0.34790100  0.48758900  0.94647400  1
  Ba  Ba3  1  0.21803600  0.98758900  0.44647400  1
  Ba  Ba4  1  0.76803300  0.55465200  0.06040800  1
  Ba  Ba5  1  0.61690800  0.05465200  0.56040800  1
  Ge  Ge0  1  0.75364200  0.52906400  0.75934100  1
  Ge  Ge1  1  0.95795300  0.02906400  0.25934100  1
  Ge  Ge2  1  0.22544600  0.00426000  0.74757600  1
  Ge  Ge3  1  0.02271800  0.50426000  0.24757600  1
  B  B0  1  0.48681900  0.83210000  0.87717300  1
  B  B1  1  0.80390900  0.33210000  0.37717300  1
  B  B2  1  0.17641300  0.20063600  0.12972000  1
  B  B3  1  0.49323100  0.70063600  0.62972000  1
  B  B4  1  0.47679900  0.01766000  0.00275000  1
  B  B5  1  0.50279200  0.51766000  0.50275000  1
  B  B6  1  0.24635100  0.67559900  0.22468200  1
  B  B7  1  0.85336900  0.17559900  0.72468200  1
  B  B8  1  0.12675500  0.35713600  0.78095400  1
  B  B9  1  0.73515500  0.85713600  0.28095400  1
  B  B10  1  0.34784700  0.49369400  0.69515100  1
  B  B11  1  0.46330900  0.99369400  0.19515100  1
  B  B12  1  0.51819200  0.53992200  0.31027900  1
  B  B13  1  0.63160800  0.03992200  0.81027900  1
  H  H0  1  0.14755900  0.23926900  0.93343000  1
  H  H1  1  0.67974200  0.73926900  0.43343000  1
  H  H2  1  0.30203900  0.79318700  0.07227200  1
  H  H3  1  0.83250200  0.29318700  0.57227200  1
  H  H4  1  0.99502700  0.73530700  0.86558400  1
  H  H5  1  0.40408200  0.23530700  0.36558400  1
  O  O0  1  0.60814300  0.63342500  0.87614100  1
  O  O1  1  0.88229100  0.13342500  0.37614100  1
  O  O2  1  0.97677100  0.50763500  0.73151900  1
  O  O3  1  0.78407600  0.00763500  0.23151900  1
  O  O4  1  0.25117500  0.42707000  0.78236500  1
  O  O5  1  0.53939000  0.92707000  0.28236500  1
  O  O6  1  0.23163300  0.21241100  0.70997800  1
  O  O7  1  0.84597800  0.71241100  0.20997800  1
  O  O8  1  0.05237900  0.29434900  0.89123300  1
  O  O9  1  0.76203900  0.79434900  0.39123300  1
  O  O10  1  0.44230200  0.60680000  0.22290800  1
  O  O11  1  0.72799000  0.10680000  0.72290800  1
  O  O12  1  0.74908300  0.32017400  0.79589000  1
  O  O13  1  0.13485400  0.82017400  0.29589000  1
  O  O14  1  0.27610700  0.09736100  0.21517600  1
  O  O15  1  0.41135600  0.59736100  0.71517600  1
  O  O16  1  0.02258700  0.15904900  0.14186200  1
  O  O17  1  0.67650100  0.65904900  0.64186200  1
  O  O18  1  0.56639400  0.95736000  0.09358700  1
  O  O19  1  0.38265900  0.45736000  0.59358700  1
  O  O20  1  0.21945800  0.73840500  0.11434300  1
  O  O21  1  0.92779400  0.23840500  0.61434300  1
  O  O22  1  0.00283200  0.02511400  0.77437100  1
  O  O23  1  0.19768300  0.52511400  0.27437100  1
  O  O24  1  0.70515700  0.43365100  0.29114000  1
  O  O25  1  0.57005200  0.93365100  0.79114000  1
  O  O26  1  0.41461900  0.57831900  0.41147500  1
  O  O27  1  0.59558600  0.07831900  0.91147500  1
  O  O28  1  0.09884000  0.39832300  0.13160000  1
  O  O29  1  0.37123700  0.89832300  0.63160000  1
  O  O30  1  0.30339000  0.87374700  0.86486100  1
  O  O31  1  0.95800200  0.37374700  0.36486100  1
  O  O32  1  0.46854200  0.86351300  0.98345100  1
  O  O33  1  0.68449400  0.36351300  0.48345100  1
  O  O34  1  0.29481600  0.17082700  0.02288700  1
  O  O35  1  0.51147000  0.67082700  0.52288700  1
  O  O36  1  0.99173600  0.70764800  0.94165400  1
  O  O37  1  0.35896200  0.20764800  0.44165400  1
  O  O38  1  0.62136500  0.33447400  0.05926500  1
  O  O39  1  0.98489600  0.83447400  0.55926500  1
loop_
_geom_bond_atom_site_label_1
_geom_bond_atom_site_label_2
_geom_bond_distance
_geom_bond_site_symmetry_2
Ba0 O36 2.638948 1_544
Ba0 O38 2.688801 1_555
Ba0 O3 2.870731 1_555
Ba0 O22 2.893305 1_654
Ba0 O18 2.923775 1_545
Ba0 O27 2.953101 1_554
Ba0 O20 3.154270 1_645
Ba0 O8 3.176898 1_654
Ba0 O30 3.190176 1_644
Ba0 O16 3.194416 1_655
Ba0 O7 3.328540 1_545
Ba0 O12 3.361074 1_554
Ba1 O37 2.638945 1_555
Ba1 O39 2.688798 1_455
Ba1 O2 2.870731 1_455
Ba1 O23 2.893305 1_555
Ba1 O19 2.923767 1_555
Ba1 O26 2.953085 1_555
Ba1 O21 3.154276 1_455
Ba1 O9 3.176904 1_455
Ba1 O31 3.190182 1_455
Ba1 O17 3.194428 1_455
Ba1 O6 3.328538 1_555
Ba1 O13 3.361074 1_555
Ba2 O36 2.708597 1_455
Ba2 O38 2.780991 1_556
Ba2 O4 2.833364 1_555
Ba2 O34 2.872042 1_556
Ba2 O0 2.895842 1_555
Ba2 O28 2.923704 1_556
Ba2 O15 2.933422 1_555
Ba2 O30 3.094516 1_555
Ba2 O20 3.096162 1_556
Ba2 O27 3.171260 1_555
Ba2 O12 3.196923 1_555
Ba3 O37 2.708597 1_565
Ba3 O39 2.780991 1_455
Ba3 O5 2.833364 1_555
Ba3 O35 2.872042 1_555
Ba3 O1 2.895842 1_465
Ba3 O29 2.923704 1_555
Ba3 O14 2.933422 1_565
Ba3 O31 3.094516 1_465
Ba3 O21 3.096162 1_465
Ba3 O26 3.171261 1_555
Ba3 O13 3.196918 1_555
Ba4 O36 2.732906 1_554
Ba4 O38 2.775062 1_555
Ba4 O28 2.852144 1_655
Ba4 O10 2.855597 1_555
Ba4 O32 2.875441 1_554
Ba4 O24 2.941311 1_555
Ba4 O0 2.967120 1_554
Ba4 O7 3.095078 1_555
Ba4 O18 3.111823 1_555
Ba4 O16 3.132630 1_655
Ba4 O8 3.138611 1_654
Ba5 O37 2.732913 1_555
Ba5 O39 2.775055 1_545
Ba5 O29 2.852152 1_545
Ba5 O11 2.855591 1_555
Ba5 O33 2.875436 1_555
Ba5 O25 2.941311 1_545
Ba5 O1 2.967114 1_555
Ba5 O6 3.095084 1_555
Ba5 O19 3.111824 1_555
Ba5 O17 3.132634 1_545
Ba5 O9 3.138613 1_545
Ge0 O12 1.762154 1_555
Ge0 O2 1.764690 1_555
Ge0 O17 1.777385 1_555
Ge0 O0 1.785447 1_555
Ge1 O13 1.762158 1_645
Ge1 O3 1.764682 1_555
Ge1 O16 1.777382 1_655
Ge1 O1 1.785447 1_555
Ge2 O6 1.762243 1_555
Ge2 O22 1.763909 1_555
Ge2 O30 1.778590 1_545
Ge2 O29 1.782647 1_545
Ge3 O7 1.762243 1_455
Ge3 O23 1.763909 1_555
Ge3 O31 1.778590 1_455
Ge3 O28 1.782647 1_555
B0 O32 1.461145 1_555
B0 O25 1.472899 1_555
B0 O30 1.497181 1_555
B0 O0 1.506198 1_555
B1 O33 1.461147 1_555
B1 O24 1.472904 1_555
B1 O31 1.497173 1_555
B1 O1 1.506199 1_555
B2 O34 1.463160 1_555
B2 O14 1.472597 1_555
B2 O16 1.495132 1_555
B2 O28 1.501149 1_555
B3 O35 1.463160 1_555
B3 O15 1.472597 1_555
B3 O17 1.495124 1_555
B3 O29 1.501149 1_555
B4 O34 1.464942 1_555
B4 O32 1.466314 1_544
B4 O27 1.484671 1_554
B4 O18 1.487314 1_545
B5 O35 1.464937 1_555
B5 O33 1.466309 1_555
B5 O26 1.484682 1_555
B5 O19 1.487319 1_555
B6 O20 1.479755 1_555
B6 O10 1.484306 1_555
B6 O23 1.491112 1_555
B6 O13 1.498653 1_555
B7 O21 1.479752 1_555
B7 O11 1.484314 1_555
B7 O22 1.491107 1_655
B7 O12 1.498653 1_555
B8 O8 1.478968 1_555
B8 O4 1.482416 1_555
B8 O2 1.492076 1_455
B8 O6 1.497418 1_555
B9 O9 1.478968 1_555
B9 O5 1.482416 1_555
B9 O3 1.492081 1_565
B9 O7 1.497418 1_555
B10 O4 1.371655 1_555
B10 O15 1.377880 1_555
B10 O19 1.379007 1_555
B11 O5 1.371650 1_555
B11 O14 1.377887 1_565
B11 O18 1.379005 1_555
B12 O10 1.372524 1_555
B12 O26 1.378924 1_555
B12 O24 1.379267 1_555
B13 O11 1.372519 1_555
B13 O27 1.378921 1_555
B13 O25 1.379274 1_545
H0 O8 0.993983 1_555
H1 O9 0.993983 1_555
H2 O20 0.993766 1_555
H3 O21 0.993766 1_555
H4 O36 0.974113 1_555
H5 O37 0.974113 1_555
