# generated using pymatgen
data_EuU2S5
_symmetry_space_group_name_H-M   'P 1'
_cell_length_a   7.42308500
_cell_length_b   7.99609700
_cell_length_c   12.03232800
_cell_angle_alpha   90.00000000
_cell_angle_beta   90.00000000
_cell_angle_gamma   90.00000000
_symmetry_Int_Tables_number   1
_chemical_formula_structural   EuU2S5
_chemical_formula_sum   'Eu4 U8 S20'
_cell_volume   714.18734371
_cell_formula_units_Z   4
loop_
 _symmetry_equiv_pos_site_id
 _symmetry_equiv_pos_as_xyz
  1  'x, y, z'
loop_
 _atom_site_type_symbol
 _atom_site_label
 _atom_site_symmetry_multiplicity
 _atom_site_fract_x
 _atom_site_fract_y
 _atom_site_fract_z
 _atom_site_occupancy
  Eu  Eu0  1  0.92408200  0.75000000  0.99280000  1
  Eu  Eu1  1  0.07591800  0.25000000  0.00720000  1
  Eu  Eu2  1  0.42408200  0.25000000  0.50720000  1
  Eu  Eu3  1  0.57591800  0.75000000  0.49280000  1
  U  U0  1  0.98707800  0.00176100  0.68194600  1
  U  U1  1  0.01292200  0.99823900  0.31805400  1
  U  U2  1  0.48707800  0.99823900  0.81805400  1
  U  U3  1  0.01292200  0.50176100  0.31805400  1
  U  U4  1  0.51292200  0.00176100  0.18194600  1
  U  U5  1  0.98707800  0.49823900  0.68194600  1
  U  U6  1  0.51292200  0.49823900  0.18194600  1
  U  U7  1  0.48707800  0.50176100  0.81805400  1
  S  S0  1  0.70463100  0.75000000  0.71728400  1
  S  S1  1  0.29536900  0.25000000  0.28271600  1
  S  S2  1  0.20463100  0.25000000  0.78271600  1
  S  S3  1  0.79536900  0.75000000  0.21728400  1
  S  S4  1  0.17604800  0.75000000  0.81113800  1
  S  S5  1  0.82395200  0.25000000  0.18886200  1
  S  S6  1  0.67604800  0.25000000  0.68886200  1
  S  S7  1  0.32395200  0.75000000  0.31113800  1
  S  S8  1  0.52775700  0.75000000  0.99890400  1
  S  S9  1  0.47224300  0.25000000  0.00109600  1
  S  S10  1  0.02775700  0.25000000  0.50109600  1
  S  S11  1  0.97224300  0.75000000  0.49890400  1
  S  S12  1  0.83018600  0.45579200  0.88771700  1
  S  S13  1  0.16981400  0.54420800  0.11228300  1
  S  S14  1  0.33018600  0.54420800  0.61228300  1
  S  S15  1  0.16981400  0.95579200  0.11228300  1
  S  S16  1  0.66981400  0.45579200  0.38771700  1
  S  S17  1  0.83018600  0.04420800  0.88771700  1
  S  S18  1  0.66981400  0.04420800  0.38771700  1
  S  S19  1  0.33018600  0.95579200  0.61228300  1
loop_
_geom_bond_atom_site_label_1
_geom_bond_atom_site_label_2
_geom_bond_distance
_geom_bond_site_symmetry_2
Eu0 S12 2.760222 1_555
Eu0 S17 2.760222 1_565
Eu0 S13 2.846391 1_656
Eu0 S15 2.846391 1_656
Eu0 S3 2.865071 1_556
Eu0 S4 2.876814 1_655
Eu0 S8 2.942871 1_555
Eu1 S13 2.760222 1_555
Eu1 S15 2.760222 1_545
Eu1 S12 2.846391 1_454
Eu1 S17 2.846391 1_454
Eu1 S2 2.865071 1_554
Eu1 S5 2.876814 1_455
Eu1 S9 2.942871 1_555
Eu2 S19 2.760222 1_545
Eu2 S14 2.760222 1_555
Eu2 S16 2.846391 1_555
Eu2 S18 2.846391 1_555
Eu2 S1 2.865071 1_555
Eu2 S6 2.876814 1_555
Eu2 S10 2.942871 1_555
Eu3 S18 2.760222 1_565
Eu3 S16 2.760222 1_555
Eu3 S19 2.846391 1_555
Eu3 S14 2.846391 1_555
Eu3 S0 2.865071 1_555
Eu3 S7 2.876814 1_555
Eu3 S11 2.942871 1_555
S0 U7 2.831625 1_555
S0 U2 2.831625 1_555
S0 U0 2.937556 1_565
S0 U5 2.937556 1_555
S1 U4 2.831625 1_555
S1 U6 2.831625 1_555
S1 U3 2.937556 1_555
S1 U1 2.937556 1_545
S2 U5 2.831625 1_455
S2 U0 2.831625 1_455
S2 U7 2.937556 1_555
S2 U2 2.937556 1_545
S3 U1 2.831625 1_655
S3 U3 2.831625 1_655
S3 U4 2.937556 1_565
S3 U6 2.937556 1_555
S4 U0 2.904597 1_465
S4 U5 2.904597 1_455
S4 U7 3.045897 1_555
S4 U2 3.045897 1_555
S5 U1 2.904597 1_645
S5 U3 2.904597 1_655
S5 U6 3.045897 1_555
S5 U4 3.045897 1_555
S6 U7 2.904597 1_555
S6 U2 2.904597 1_545
S6 U5 3.045897 1_555
S6 U0 3.045897 1_555
S7 U4 2.904597 1_565
S7 U6 2.904597 1_555
S7 U3 3.045897 1_555
S7 U1 3.045897 1_555
S8 U7 2.960804 1_555
S8 U2 2.960804 1_555
S8 U4 2.985863 1_566
S8 U6 2.985863 1_556
S9 U6 2.960804 1_555
S9 U4 2.960804 1_555
S9 U7 2.985863 1_554
S9 U2 2.985863 1_544
S10 U0 2.960804 1_455
S10 U5 2.960804 1_455
S10 U1 2.985863 1_545
S10 U3 2.985863 1_555
S11 U3 2.960804 1_655
S11 U1 2.960804 1_655
S11 U0 2.985863 1_565
S11 U5 2.985863 1_555
S12 U7 2.706382 1_555
S12 U5 2.757108 1_555
S13 U6 2.706382 1_555
S13 U3 2.757108 1_555
S14 U5 2.706382 1_455
S14 U7 2.757108 1_555
S15 U4 2.706382 1_565
S15 U1 2.757108 1_555
S16 U3 2.706382 1_655
S16 U6 2.757108 1_555
S17 U2 2.706382 1_545
S17 U0 2.757108 1_555
S18 U1 2.706382 1_645
S18 U4 2.757108 1_555
S19 U0 2.706382 1_465
S19 U2 2.757108 1_555
