# generated using pymatgen
data_HfTa2VC4
_symmetry_space_group_name_H-M   'P 1'
_cell_length_a   10.39004554
_cell_length_b   10.39004554
_cell_length_c   10.39004586
_cell_angle_alpha   17.45201769
_cell_angle_beta   17.45201769
_cell_angle_gamma   17.45201950
_symmetry_Int_Tables_number   1
_chemical_formula_structural   HfTa2VC4
_chemical_formula_sum   'Hf1 Ta2 V1 C4'
_cell_volume   88.04416056
_cell_formula_units_Z   1
loop_
 _symmetry_equiv_pos_site_id
 _symmetry_equiv_pos_as_xyz
  1  'x, y, z'
loop_
 _atom_site_type_symbol
 _atom_site_label
 _atom_site_symmetry_multiplicity
 _atom_site_fract_x
 _atom_site_fract_y
 _atom_site_fract_z
 _atom_site_occupancy
  Hf  Hf0  1  0.00309800  0.00309800  0.00309800  1
  Ta  Ta0  1  0.49682800  0.49682800  0.49682800  1
  Ta  Ta1  1  0.24872700  0.24872700  0.24872700  1
  V  V0  1  0.75161300  0.75161300  0.75161300  1
  C  C0  1  0.62391700  0.62391700  0.62391700  1
  C  C1  1  0.87312900  0.87312900  0.87312900  1
  C  C2  1  0.38031200  0.38031200  0.38031200  1
  C  C3  1  0.12237700  0.12237700  0.12237700  1
loop_
_geom_bond_atom_site_label_1
_geom_bond_atom_site_label_2
_geom_bond_distance
_geom_bond_site_symmetry_2
C0 Ta1 2.227730 1_556
C0 Ta1 2.227730 1_655
C0 Ta1 2.227730 1_565
C0 Hf0 2.300526 1_665
C0 Hf0 2.300527 1_566
C0 Hf0 2.300527 1_656
C1 Ta1 2.234972 1_665
C1 Ta1 2.234973 1_656
C1 Ta1 2.234973 1_566
C1 Ta0 2.247561 1_556
C1 Ta0 2.247561 1_655
C1 Ta0 2.247561 1_565
C2 V0 2.161116 1_554
C2 V0 2.161116 1_455
C2 V0 2.161116 1_545
C2 Hf0 2.264112 1_556
C2 Hf0 2.264113 1_655
C2 Hf0 2.264113 1_565
C3 V0 2.152276 1_445
C3 V0 2.152276 1_544
C3 V0 2.152276 1_454
C3 Ta0 2.214731 1_554
C3 Ta0 2.214731 1_455
C3 Ta0 2.214731 1_545
