# generated using pymatgen
data_ScGa4Fe3Co8
_symmetry_space_group_name_H-M   'P 1'
_cell_length_a   13.56724539
_cell_length_b   13.56724539
_cell_length_c   13.56724548
_cell_angle_alpha   17.34985059
_cell_angle_beta   17.34985059
_cell_angle_gamma   17.34984828
_symmetry_Int_Tables_number   1
_chemical_formula_structural   ScGa4Fe3Co8
_chemical_formula_sum   'Sc1 Ga4 Fe3 Co8'
_cell_volume   193.79485469
_cell_formula_units_Z   1
loop_
 _symmetry_equiv_pos_site_id
 _symmetry_equiv_pos_as_xyz
  1  'x, y, z'
loop_
 _atom_site_type_symbol
 _atom_site_label
 _atom_site_symmetry_multiplicity
 _atom_site_fract_x
 _atom_site_fract_y
 _atom_site_fract_z
 _atom_site_occupancy
  Sc  Sc0  1  0.00000000  0.00000000  0.00000000  1
  Ga  Ga0  1  0.12595500  0.12595500  0.12595500  1
  Ga  Ga1  1  0.37652700  0.37652700  0.37652700  1
  Ga  Ga2  1  0.62347300  0.62347300  0.62347300  1
  Ga  Ga3  1  0.87404500  0.87404500  0.87404500  1
  Fe  Fe0  1  0.24873100  0.24873100  0.24873100  1
  Fe  Fe1  1  0.50000000  0.50000000  0.50000000  1
  Fe  Fe2  1  0.75126900  0.75126900  0.75126900  1
  Co  Co0  1  0.81277300  0.81277300  0.81277300  1
  Co  Co1  1  0.06522000  0.06522000  0.06522000  1
  Co  Co2  1  0.30963000  0.30963000  0.30963000  1
  Co  Co3  1  0.56140100  0.56140100  0.56140100  1
  Co  Co4  1  0.43859900  0.43859900  0.43859900  1
  Co  Co5  1  0.69037000  0.69037000  0.69037000  1
  Co  Co6  1  0.93478000  0.93478000  0.93478000  1
  Co  Co7  1  0.18722700  0.18722700  0.18722700  1
loop_
_geom_bond_atom_site_label_1
_geom_bond_atom_site_label_2
_geom_bond_distance
_geom_bond_site_symmetry_2
Co0 Ga3 2.455763 1_555
Co0 Fe2 2.465062 1_555
Co0 Ga0 2.497111 1_566
Co0 Ga0 2.497111 1_656
Co0 Ga0 2.497112 1_665
Co0 Fe1 2.502461 1_565
Co0 Fe1 2.502461 1_655
Co0 Fe1 2.502462 1_556
Co1 Ga0 2.434240 1_555
Co1 Fe2 2.487313 1_454
Co1 Fe2 2.487313 1_544
Co1 Fe2 2.487314 1_445
Co1 Ga1 2.522420 1_545
Co1 Ga1 2.522420 1_455
Co1 Ga1 2.522420 1_554
Co1 Sc0 2.613998 1_555
Co2 Fe0 2.440813 1_555
Co2 Ga2 2.488669 1_455
Co2 Ga2 2.488669 1_545
Co2 Ga2 2.488669 1_554
Co2 Sc0 2.546722 1_655
Co2 Sc0 2.546722 1_565
Co2 Sc0 2.546722 1_556
Co2 Ga1 2.681211 1_555
Co3 Fe1 2.460933 1_555
Co3 Ga2 2.487827 1_555
Co3 Fe0 2.503824 1_565
Co3 Fe0 2.503824 1_655
Co3 Fe0 2.503824 1_556
Co3 Ga3 2.504169 1_455
Co3 Ga3 2.504169 1_545
Co3 Ga3 2.504169 1_554
Co4 Fe1 2.460933 1_555
Co4 Ga1 2.487827 1_555
Co4 Fe2 2.503824 1_545
Co4 Fe2 2.503824 1_455
Co4 Fe2 2.503824 1_554
Co4 Ga0 2.504169 1_565
Co4 Ga0 2.504169 1_655
Co4 Ga0 2.504169 1_556
Co5 Fe2 2.440813 1_555
Co5 Ga1 2.488669 1_655
Co5 Ga1 2.488669 1_565
Co5 Ga1 2.488669 1_556
Co5 Sc0 2.546722 1_566
Co5 Sc0 2.546722 1_656
Co5 Sc0 2.546722 1_665
Co5 Ga2 2.681211 1_555
Co6 Ga3 2.434240 1_555
Co6 Fe0 2.487313 1_656
Co6 Fe0 2.487313 1_566
Co6 Fe0 2.487314 1_665
Co6 Ga2 2.522420 1_655
Co6 Ga2 2.522420 1_565
Co6 Ga2 2.522420 1_556
Co6 Sc0 2.613998 1_666
Co7 Ga0 2.455763 1_555
Co7 Fe0 2.465062 1_555
Co7 Ga3 2.497111 1_454
Co7 Ga3 2.497111 1_544
Co7 Ga3 2.497112 1_445
Co7 Fe1 2.502461 1_545
Co7 Fe1 2.502461 1_455
Co7 Fe1 2.502462 1_554
