# generated using pymatgen
data_K2Cd3SnAs4
_symmetry_space_group_name_H-M   'P 1'
_cell_length_a   9.33862151
_cell_length_b   9.33862151
_cell_length_c   7.71958624
_cell_angle_alpha   65.59008277
_cell_angle_beta   65.59008277
_cell_angle_gamma   27.54226720
_symmetry_Int_Tables_number   1
_chemical_formula_structural   K2Cd3SnAs4
_chemical_formula_sum   'K2 Cd3 Sn1 As4'
_cell_volume   281.71517205
_cell_formula_units_Z   1
loop_
 _symmetry_equiv_pos_site_id
 _symmetry_equiv_pos_as_xyz
  1  'x, y, z'
loop_
 _atom_site_type_symbol
 _atom_site_label
 _atom_site_symmetry_multiplicity
 _atom_site_fract_x
 _atom_site_fract_y
 _atom_site_fract_z
 _atom_site_occupancy
  K  K0  1  0.50806684  0.50806684  0.48754093  1
  K  K1  1  0.00386007  0.00386007  0.00036779  1
  Cd  Cd0  1  0.80347502  0.80347502  0.51783126  1
  Cd  Cd1  1  0.67685221  0.67685221  0.97609520  1
  Cd  Cd2  1  0.18004415  0.18004415  0.50315844  1
  Sn  Sn0  1  0.31497329  0.31497329  0.03006783  1
  As  As0  1  0.63109266  0.63109266  0.69977911  1
  As  As1  1  0.15328979  0.15328979  0.18466966  1
  As  As2  1  0.36830463  0.36830463  0.30072913  1
  As  As3  1  0.86594534  0.86594534  0.79976164  1
loop_
_geom_bond_atom_site_label_1
_geom_bond_atom_site_label_2
_geom_bond_distance
_geom_bond_site_symmetry_2
As0 Cd1 2.597253 1_555
As0 Cd2 2.624331 1_565
As0 Cd2 2.624331 1_655
As0 Cd0 2.830852 1_555
As0 K0 3.282764 1_555
As0 K1 3.331005 1_566
As0 K1 3.331005 1_656
As1 Sn0 2.654808 1_555
As1 Cd1 2.670438 1_454
As1 Cd1 2.670438 1_544
As1 Cd2 2.701056 1_555
As1 K0 3.479472 1_455
As1 K0 3.479472 1_545
As1 K1 3.557251 1_555
As2 Sn0 2.649847 1_555
As2 Cd0 2.730625 1_545
As2 Cd0 2.730625 1_455
As2 Cd2 3.092487 1_555
As2 K1 3.393041 1_655
As2 K1 3.393041 1_565
As2 K0 3.408667 1_555
As3 Sn0 2.749291 1_566
As3 Sn0 2.749291 1_656
As3 Cd0 2.849510 1_555
As3 Cd1 3.105770 1_555
As3 K1 3.457492 1_666
As3 K0 3.479907 1_565
As3 K0 3.479907 1_655
