# generated using pymatgen
data_Al2ZnSe4
_symmetry_space_group_name_H-M   'P 1'
_cell_length_a   7.47093026
_cell_length_b   7.47093026
_cell_length_c   7.47093026
_cell_angle_alpha   60.00000000
_cell_angle_beta   60.00000000
_cell_angle_gamma   60.00000000
_symmetry_Int_Tables_number   1
_chemical_formula_structural   Al2ZnSe4
_chemical_formula_sum   'Al4 Zn2 Se8'
_cell_volume   294.85537535
_cell_formula_units_Z   2
loop_
 _symmetry_equiv_pos_site_id
 _symmetry_equiv_pos_as_xyz
  1  'x, y, z'
loop_
 _atom_site_type_symbol
 _atom_site_label
 _atom_site_symmetry_multiplicity
 _atom_site_fract_x
 _atom_site_fract_y
 _atom_site_fract_z
 _atom_site_occupancy
  Al  Al0  1  0.00000000  0.00000000  0.50000000  1
  Al  Al1  1  0.00000000  0.50000000  0.00000000  1
  Al  Al2  1  0.50000000  0.00000000  0.00000000  1
  Al  Al3  1  0.00000000  0.00000000  0.00000000  1
  Zn  Zn0  1  0.37500000  0.37500000  0.37500000  1
  Zn  Zn1  1  0.62500000  0.62500000  0.62500000  1
  Se  Se0  1  0.24098706  0.24098706  0.77704081  1
  Se  Se1  1  0.24098706  0.77704081  0.24098706  1
  Se  Se2  1  0.77704081  0.24098706  0.24098706  1
  Se  Se3  1  0.24098706  0.24098706  0.24098706  1
  Se  Se4  1  0.75901294  0.75901294  0.22295919  1
  Se  Se5  1  0.75901294  0.22295919  0.75901294  1
  Se  Se6  1  0.22295919  0.75901294  0.75901294  1
  Se  Se7  1  0.75901294  0.75901294  0.75901294  1
loop_
_geom_bond_atom_site_label_1
_geom_bond_atom_site_label_2
_geom_bond_distance
_geom_bond_site_symmetry_2
Al0 Se1 2.549695 1_545
Al0 Se2 2.549695 1_455
Al0 Se5 2.549695 1_455
Al0 Se6 2.549695 1_545
Al0 Se3 2.549706 1_555
Al0 Se7 2.549706 1_445
Al1 Se2 2.549695 1_455
Al1 Se4 2.549695 1_455
Al1 Se0 2.549695 1_554
Al1 Se6 2.549695 1_554
Al1 Se3 2.549706 1_555
Al1 Se7 2.549706 1_454
Al2 Se5 2.549695 1_554
Al2 Se0 2.549695 1_554
Al2 Se4 2.549695 1_545
Al2 Se1 2.549695 1_545
Al2 Se3 2.549706 1_555
Al2 Se7 2.549706 1_544
Al3 Se0 2.549706 1_554
Al3 Se1 2.549706 1_545
Al3 Se2 2.549706 1_455
Al3 Se6 2.549706 1_544
Al3 Se4 2.549706 1_445
Al3 Se5 2.549706 1_454
Se0 Zn0 2.452445 1_555
Se1 Zn0 2.452445 1_555
Se2 Zn0 2.452445 1_555
Se3 Zn0 2.452432 1_555
Se4 Zn1 2.452445 1_555
Se5 Zn1 2.452445 1_555
Se6 Zn1 2.452445 1_555
Se7 Zn1 2.452432 1_555
