# generated using pymatgen
data_Fe3Pt
_symmetry_space_group_name_H-M   'P 1'
_cell_length_a   16.77568260
_cell_length_b   16.77568260
_cell_length_c   16.77568300
_cell_angle_alpha   18.68158325
_cell_angle_beta   18.68158325
_cell_angle_gamma   18.68158221
_symmetry_Int_Tables_number   1
_chemical_formula_structural   Fe3Pt
_chemical_formula_sum   'Fe24 Pt8'
_cell_volume   423.19253154
_cell_formula_units_Z   8
loop_
 _symmetry_equiv_pos_site_id
 _symmetry_equiv_pos_as_xyz
  1  'x, y, z'
loop_
 _atom_site_type_symbol
 _atom_site_label
 _atom_site_symmetry_multiplicity
 _atom_site_fract_x
 _atom_site_fract_y
 _atom_site_fract_z
 _atom_site_occupancy
  Fe  Fe0_0  1  0.12262500  0.12262500  0.12262500  1
  Fe  Fe0_1  1  0.12262500  0.12262500  0.62262500  1
  Fe  Fe0_2  1  0.12262500  0.62262500  0.12262500  1
  Fe  Fe0_3  1  0.12262500  0.62262500  0.62262500  1
  Fe  Fe0_4  1  0.62262500  0.12262500  0.12262500  1
  Fe  Fe0_5  1  0.62262500  0.12262500  0.62262500  1
  Fe  Fe0_6  1  0.62262500  0.62262500  0.12262500  1
  Fe  Fe0_7  1  0.62262500  0.62262500  0.62262500  1
  Fe  Fe1_0  1  0.25000000  0.25000000  0.25000000  1
  Fe  Fe1_1  1  0.25000000  0.25000000  0.75000000  1
  Fe  Fe1_2  1  0.25000000  0.75000000  0.25000000  1
  Fe  Fe1_3  1  0.25000000  0.75000000  0.75000000  1
  Fe  Fe1_4  1  0.75000000  0.25000000  0.25000000  1
  Fe  Fe1_5  1  0.75000000  0.25000000  0.75000000  1
  Fe  Fe1_6  1  0.75000000  0.75000000  0.25000000  1
  Fe  Fe1_7  1  0.75000000  0.75000000  0.75000000  1
  Fe  Fe2_0  1  0.37737500  0.37737500  0.37737500  1
  Fe  Fe2_1  1  0.37737500  0.37737500  0.87737500  1
  Fe  Fe2_2  1  0.37737500  0.87737500  0.37737500  1
  Fe  Fe2_3  1  0.37737500  0.87737500  0.87737500  1
  Fe  Fe2_4  1  0.87737500  0.37737500  0.37737500  1
  Fe  Fe2_5  1  0.87737500  0.37737500  0.87737500  1
  Fe  Fe2_6  1  0.87737500  0.87737500  0.37737500  1
  Fe  Fe2_7  1  0.87737500  0.87737500  0.87737500  1
  Pt  Pt0_0  1  0.00000000  0.00000000  0.00000000  1
  Pt  Pt0_1  1  0.00000000  0.00000000  0.50000000  1
  Pt  Pt0_2  1  0.00000000  0.50000000  0.00000000  1
  Pt  Pt0_3  1  0.00000000  0.50000000  0.50000000  1
  Pt  Pt0_4  1  0.50000000  0.00000000  0.00000000  1
  Pt  Pt0_5  1  0.50000000  0.00000000  0.50000000  1
  Pt  Pt0_6  1  0.50000000  0.50000000  0.00000000  1
  Pt  Pt0_7  1  0.50000000  0.50000000  0.50000000  1
loop_
_geom_bond_atom_site_label_1
_geom_bond_atom_site_label_2
_geom_bond_distance
_geom_bond_site_symmetry_2
Fe0_0 Fe1_2 2.498822 1_545
Fe0_0 Fe1_4 2.498822 1_455
Fe0_0 Fe1_1 2.498822 1_554
Fe0_0 Pt0_4 2.685418 1_555
Fe0_0 Pt0_2 2.685418 1_555
Fe0_0 Pt0_1 2.685418 1_555
Fe0_0 Fe0_6 2.722800 1_545
Fe0_0 Fe0_6 2.722800 1_455
Fe0_0 Fe0_3 2.722800 1_554
Fe0_0 Fe0_5 2.722800 1_554
Fe0_0 Fe0_5 2.722800 1_455
Fe0_0 Fe0_3 2.722800 1_545
Fe0_1 Fe1_3 2.498822 1_545
Fe0_1 Fe1_5 2.498822 1_455
Fe0_1 Fe1_0 2.498822 1_555
Fe0_1 Pt0_3 2.685418 1_555
Fe0_1 Pt0_5 2.685418 1_555
Fe0_1 Pt0_0 2.685418 1_556
Fe0_1 Fe0_7 2.722800 1_545
Fe0_1 Fe0_7 2.722800 1_455
Fe0_1 Fe0_2 2.722800 1_555
Fe0_1 Fe0_4 2.722800 1_555
Fe0_1 Fe0_2 2.722800 1_546
Fe0_1 Fe0_4 2.722800 1_456
Fe0_2 Fe1_6 2.498822 1_455
Fe0_2 Fe1_0 2.498822 1_555
Fe0_2 Fe1_3 2.498822 1_554
Fe0_2 Pt0_6 2.685418 1_555
Fe0_2 Pt0_0 2.685418 1_565
Fe0_2 Pt0_3 2.685418 1_555
Fe0_2 Fe0_4 2.722800 1_555
Fe0_2 Fe0_4 2.722800 1_465
Fe0_2 Fe0_7 2.722800 1_455
Fe0_2 Fe0_7 2.722800 1_554
Fe0_3 Fe1_7 2.498822 1_455
Fe0_3 Fe1_1 2.498822 1_555
Fe0_3 Fe1_2 2.498822 1_555
Fe0_3 Pt0_7 2.685418 1_555
Fe0_3 Pt0_1 2.685418 1_565
Fe0_3 Pt0_2 2.685418 1_556
Fe0_3 Fe0_5 2.722800 1_555
Fe0_3 Fe0_5 2.722800 1_465
Fe0_3 Fe0_6 2.722800 1_555
Fe0_3 Fe0_6 2.722800 1_456
Fe0_4 Fe1_6 2.498822 1_545
Fe0_4 Fe1_0 2.498822 1_555
Fe0_4 Fe1_5 2.498822 1_554
Fe0_4 Pt0_0 2.685418 1_655
Fe0_4 Pt0_6 2.685418 1_555
Fe0_4 Pt0_5 2.685418 1_555
Fe0_4 Fe0_7 2.722800 1_545
Fe0_4 Fe0_7 2.722800 1_554
Fe0_5 Fe1_7 2.498822 1_545
Fe0_5 Fe1_1 2.498822 1_555
Fe0_5 Fe1_4 2.498822 1_555
Fe0_5 Pt0_7 2.685418 1_555
Fe0_5 Pt0_1 2.685418 1_655
Fe0_5 Pt0_4 2.685418 1_556
Fe0_5 Fe0_6 2.722800 1_555
Fe0_5 Fe0_6 2.722800 1_546
Fe0_6 Fe1_4 2.498822 1_555
Fe0_6 Fe1_2 2.498822 1_555
Fe0_6 Fe1_7 2.498822 1_554
Fe0_6 Pt0_2 2.685418 1_655
Fe0_6 Pt0_4 2.685418 1_565
Fe0_6 Pt0_7 2.685418 1_555
Fe0_7 Fe1_5 2.498822 1_555
Fe0_7 Fe1_3 2.498822 1_555
Fe0_7 Fe1_6 2.498822 1_555
Fe0_7 Pt0_3 2.685418 1_655
Fe0_7 Pt0_5 2.685418 1_565
Fe0_7 Pt0_6 2.685418 1_556
Fe1_0 Fe2_2 2.498822 1_545
Fe1_0 Fe2_4 2.498822 1_455
Fe1_0 Fe2_1 2.498822 1_554
Fe1_0 Fe1_6 2.722800 1_545
Fe1_0 Fe1_6 2.722800 1_455
Fe1_0 Fe1_5 2.722800 1_554
Fe1_0 Fe1_3 2.722800 1_554
Fe1_0 Fe1_5 2.722800 1_455
Fe1_0 Fe1_3 2.722800 1_545
Fe1_1 Fe2_5 2.498822 1_455
Fe1_1 Fe2_3 2.498822 1_545
Fe1_1 Fe2_0 2.498822 1_555
Fe1_1 Fe1_7 2.722800 1_455
Fe1_1 Fe1_7 2.722800 1_545
Fe1_1 Fe1_4 2.722800 1_555
Fe1_1 Fe1_2 2.722800 1_555
Fe1_1 Fe1_4 2.722800 1_456
Fe1_1 Fe1_2 2.722800 1_546
Fe1_2 Fe2_0 2.498822 1_555
Fe1_2 Fe2_6 2.498822 1_455
Fe1_2 Fe2_3 2.498822 1_554
Fe1_2 Fe1_4 2.722800 1_465
Fe1_2 Fe1_4 2.722800 1_555
Fe1_2 Fe1_7 2.722800 1_455
Fe1_2 Fe1_7 2.722800 1_554
Fe1_3 Fe2_1 2.498822 1_555
Fe1_3 Fe2_7 2.498822 1_455
Fe1_3 Fe2_2 2.498822 1_555
Fe1_3 Fe1_5 2.722800 1_555
Fe1_3 Fe1_5 2.722800 1_465
Fe1_3 Fe1_6 2.722800 1_555
Fe1_3 Fe1_6 2.722800 1_456
Fe1_4 Fe2_6 2.498822 1_545
Fe1_4 Fe2_0 2.498822 1_555
Fe1_4 Fe2_5 2.498822 1_554
Fe1_4 Fe1_7 2.722800 1_545
Fe1_4 Fe1_7 2.722800 1_554
Fe1_5 Fe2_1 2.498822 1_555
Fe1_5 Fe2_7 2.498822 1_545
Fe1_5 Fe2_4 2.498822 1_555
Fe1_5 Fe1_6 2.722800 1_555
Fe1_5 Fe1_6 2.722800 1_546
Fe1_6 Fe2_4 2.498822 1_555
Fe1_6 Fe2_2 2.498822 1_555
Fe1_6 Fe2_7 2.498822 1_554
Fe1_7 Fe2_5 2.498822 1_555
Fe1_7 Fe2_3 2.498822 1_555
Fe1_7 Fe2_6 2.498822 1_555
Fe2_0 Pt0_3 2.685418 1_555
Fe2_0 Pt0_5 2.685418 1_555
Fe2_0 Pt0_6 2.685418 1_555
Fe2_0 Fe2_6 2.722800 1_545
Fe2_0 Fe2_6 2.722800 1_455
Fe2_0 Fe2_3 2.722800 1_554
Fe2_0 Fe2_5 2.722800 1_455
Fe2_0 Fe2_3 2.722800 1_545
Fe2_0 Fe2_5 2.722800 1_554
Fe2_1 Pt0_2 2.685418 1_556
Fe2_1 Pt0_4 2.685418 1_556
Fe2_1 Pt0_7 2.685418 1_555
Fe2_1 Fe2_7 2.722800 1_545
Fe2_1 Fe2_7 2.722800 1_455
Fe2_1 Fe2_2 2.722800 1_555
Fe2_1 Fe2_2 2.722800 1_546
Fe2_1 Fe2_4 2.722800 1_456
Fe2_1 Fe2_4 2.722800 1_555
Fe2_2 Pt0_1 2.685418 1_565
Fe2_2 Pt0_7 2.685418 1_555
Fe2_2 Pt0_4 2.685418 1_565
Fe2_2 Fe2_4 2.722800 1_555
Fe2_2 Fe2_4 2.722800 1_465
Fe2_2 Fe2_7 2.722800 1_455
Fe2_2 Fe2_7 2.722800 1_554
Fe2_3 Pt0_0 2.685418 1_566
Fe2_3 Pt0_6 2.685418 1_556
Fe2_3 Pt0_5 2.685418 1_565
Fe2_3 Fe2_5 2.722800 1_555
Fe2_3 Fe2_5 2.722800 1_465
Fe2_3 Fe2_6 2.722800 1_456
Fe2_3 Fe2_6 2.722800 1_555
Fe2_4 Pt0_1 2.685418 1_655
Fe2_4 Pt0_7 2.685418 1_555
Fe2_4 Pt0_2 2.685418 1_655
Fe2_4 Fe2_7 2.722800 1_545
Fe2_4 Fe2_7 2.722800 1_554
Fe2_5 Pt0_6 2.685418 1_556
Fe2_5 Pt0_0 2.685418 1_656
Fe2_5 Pt0_3 2.685418 1_655
Fe2_5 Fe2_6 2.722800 1_555
Fe2_5 Fe2_6 2.722800 1_546
Fe2_6 Pt0_5 2.685418 1_565
Fe2_6 Pt0_3 2.685418 1_655
Fe2_6 Pt0_0 2.685418 1_665
Fe2_7 Pt0_4 2.685418 1_566
Fe2_7 Pt0_2 2.685418 1_656
Fe2_7 Pt0_1 2.685418 1_665
Pt0_0 Pt0_6 2.722800 1_545
Pt0_0 Pt0_6 2.722800 1_455
Pt0_0 Pt0_5 2.722800 1_554
Pt0_0 Pt0_5 2.722800 1_455
Pt0_0 Pt0_3 2.722800 1_545
Pt0_0 Pt0_3 2.722800 1_554
Pt0_1 Pt0_7 2.722800 1_545
Pt0_1 Pt0_7 2.722800 1_455
Pt0_1 Pt0_4 2.722800 1_456
Pt0_1 Pt0_2 2.722800 1_546
Pt0_1 Pt0_4 2.722800 1_555
Pt0_1 Pt0_2 2.722800 1_555
Pt0_2 Pt0_4 2.722800 1_465
Pt0_2 Pt0_4 2.722800 1_555
Pt0_2 Pt0_7 2.722800 1_554
Pt0_2 Pt0_7 2.722800 1_455
Pt0_3 Pt0_5 2.722800 1_555
Pt0_3 Pt0_5 2.722800 1_465
Pt0_3 Pt0_6 2.722800 1_456
Pt0_3 Pt0_6 2.722800 1_555
Pt0_4 Pt0_7 2.722800 1_554
Pt0_4 Pt0_7 2.722800 1_545
Pt0_5 Pt0_6 2.722800 1_546
Pt0_5 Pt0_6 2.722800 1_555
