# generated using pymatgen
data_Li9Co7O16
_symmetry_space_group_name_H-M   'P 1'
_cell_length_a   5.61181413
_cell_length_b   6.30589427
_cell_length_c   7.43912451
_cell_angle_alpha   89.31693329
_cell_angle_beta   100.90357316
_cell_angle_gamma   102.87749775
_symmetry_Int_Tables_number   1
_chemical_formula_structural   Li9Co7O16
_chemical_formula_sum   'Li9 Co7 O16'
_cell_volume   251.87224701
_cell_formula_units_Z   1
loop_
 _symmetry_equiv_pos_site_id
 _symmetry_equiv_pos_as_xyz
  1  'x, y, z'
loop_
 _atom_site_type_symbol
 _atom_site_label
 _atom_site_symmetry_multiplicity
 _atom_site_fract_x
 _atom_site_fract_y
 _atom_site_fract_z
 _atom_site_occupancy
  Li  Li0  1  0.62288017  0.13165158  0.87611107  1
  Li  Li1  1  0.62443786  0.62236630  0.36714669  1
  Li  Li2  1  0.87598446  0.37775240  0.62701746  1
  Li  Li3  1  0.86610408  0.86543631  0.12219989  1
  Li  Li4  1  0.12401554  0.62224760  0.37298254  1
  Li  Li5  1  0.13389592  0.13456369  0.87780011  1
  Li  Li6  1  0.37711983  0.86834842  0.12388893  1
  Li  Li7  1  0.37556214  0.37763370  0.63285331  1
  Li  Li8  1  0.50000000  0.50000000  0.00000000  1
  Co  Co0  1  0.74692158  0.25105048  0.24608994  1
  Co  Co1  1  0.00000000  0.50000000  0.00000000  1
  Co  Co2  1  0.74809445  0.74849155  0.75358349  1
  Co  Co3  1  0.00000000  -0.00000000  0.50000000  1
  Co  Co4  1  0.25307842  0.74894952  0.75391006  1
  Co  Co5  1  0.25190555  0.25150845  0.24641651  1
  Co  Co6  1  0.50000000  -0.00000000  0.50000000  1
  O  O0  1  0.44209917  0.18901524  0.08246616  1
  O  O1  1  0.44512882  0.70467624  0.57691088  1
  O  O2  1  0.70882616  0.45753091  0.81925896  1
  O  O3  1  0.69512067  0.95457969  0.32524227  1
  O  O4  1  0.94614923  0.70702882  0.57748754  1
  O  O5  1  0.94476678  0.20467064  0.07277616  1
  O  O6  1  0.19520626  0.95670916  0.32585906  1
  O  O7  1  0.17973418  0.45773821  0.81932559  1
  O  O8  1  0.80479374  0.04329084  0.67414094  1
  O  O9  1  0.82026582  0.54226179  0.18067441  1
  O  O10  1  0.05385077  0.29297118  0.42251246  1
  O  O11  1  0.05523322  0.79532936  0.92722384  1
  O  O12  1  0.29117384  0.54246909  0.18074104  1
  O  O13  1  0.30487933  0.04542031  0.67475773  1
  O  O14  1  0.55790083  0.81098476  0.91753384  1
  O  O15  1  0.55487118  0.29532376  0.42308912  1
loop_
_geom_bond_atom_site_label_1
_geom_bond_atom_site_label_2
_geom_bond_distance
_geom_bond_site_symmetry_2
Li0 O14 2.003938 1_545
Li0 O2 2.061316 1_555
Li0 O5 2.064203 1_556
Li0 O0 2.069445 1_556
Li0 O13 2.073559 1_555
Li0 O8 2.112783 1_555
Li1 O9 2.056212 1_555
Li1 O15 2.064170 1_555
Li1 O12 2.071232 1_555
Li1 O3 2.074597 1_555
Li1 O4 2.124724 1_555
Li1 O1 2.136146 1_555
Li2 O2 1.978200 1_555
Li2 O7 1.979412 1_655
Li2 O4 2.067459 1_555
Li2 O15 2.094277 1_555
Li2 O8 2.095350 1_555
Li2 O10 2.104360 1_655
Li3 O14 2.044256 1_554
Li3 O9 2.048409 1_555
Li3 O11 2.057318 1_654
Li3 O3 2.080174 1_555
Li3 O6 2.127430 1_655
Li3 O5 2.127876 1_565
Li4 O12 1.978200 1_555
Li4 O9 1.979412 1_455
Li4 O10 2.067459 1_555
Li4 O1 2.094277 1_555
Li4 O6 2.095350 1_555
Li4 O4 2.104360 1_455
Li5 O0 2.044256 1_556
Li5 O7 2.048409 1_555
Li5 O5 2.057318 1_456
Li5 O13 2.080174 1_555
Li5 O8 2.127430 1_455
Li5 O11 2.127876 1_545
Li6 O0 2.003938 1_565
Li6 O12 2.061316 1_555
Li6 O11 2.064203 1_554
Li6 O14 2.069445 1_554
Li6 O3 2.073559 1_555
Li6 O6 2.112783 1_555
Li7 O7 2.056212 1_555
Li7 O1 2.064170 1_555
Li7 O2 2.071232 1_555
Li7 O13 2.074597 1_555
Li7 O10 2.124724 1_555
Li7 O15 2.136146 1_555
Li8 O7 1.997219 1_554
Li8 O9 1.997219 1_555
Li8 O12 1.999364 1_555
Li8 O2 1.999364 1_554
Li8 O0 2.022450 1_555
Li8 O14 2.022450 1_554
Co0 O0 1.867133 1_555
Co0 O9 1.869750 1_555
Co0 O15 1.911278 1_555
Co0 O5 1.917241 1_555
Co0 O10 1.925936 1_655
Co0 O3 1.929396 1_545
Co1 O12 1.879340 1_555
Co1 O2 1.879340 1_454
Co1 O9 1.880447 1_455
Co1 O7 1.880447 1_554
Co1 O11 1.907760 1_554
Co1 O5 1.907760 1_455
Co2 O14 1.863718 1_555
Co2 O2 1.868895 1_555
Co2 O1 1.910039 1_555
Co2 O11 1.914815 1_655
Co2 O8 1.920307 1_565
Co2 O4 1.925693 1_555
Co3 O10 1.904815 1_555
Co3 O4 1.904815 1_445
Co3 O8 1.905614 1_455
Co3 O6 1.905614 1_545
Co3 O13 1.910077 1_555
Co3 O3 1.910077 1_445
Co4 O14 1.867133 1_555
Co4 O7 1.869750 1_555
Co4 O1 1.911278 1_555
Co4 O11 1.917241 1_555
Co4 O4 1.925936 1_455
Co4 O13 1.929396 1_565
Co5 O0 1.863718 1_555
Co5 O12 1.868895 1_555
Co5 O15 1.910039 1_555
Co5 O5 1.914815 1_455
Co5 O6 1.920307 1_545
Co5 O10 1.925693 1_555
Co6 O6 1.907980 1_545
Co6 O8 1.907980 1_555
Co6 O13 1.912679 1_555
Co6 O3 1.912679 1_545
Co6 O15 1.917265 1_555
Co6 O1 1.917265 1_545
