# generated using pymatgen
data_KSi2BO6
_symmetry_space_group_name_H-M   'P 1'
_cell_length_a   4.77684000
_cell_length_b   10.09677300
_cell_length_c   10.56476500
_cell_angle_alpha   90.00000000
_cell_angle_beta   90.00000000
_cell_angle_gamma   90.00000000
_symmetry_Int_Tables_number   1
_chemical_formula_structural   KSi2BO6
_chemical_formula_sum   'K4 Si8 B4 O24'
_cell_volume   509.54568523
_cell_formula_units_Z   4
loop_
 _symmetry_equiv_pos_site_id
 _symmetry_equiv_pos_as_xyz
  1  'x, y, z'
loop_
 _atom_site_type_symbol
 _atom_site_label
 _atom_site_symmetry_multiplicity
 _atom_site_fract_x
 _atom_site_fract_y
 _atom_site_fract_z
 _atom_site_occupancy
  K  K0  1  0.79751000  0.96564300  0.81108500  1
  K  K1  1  0.70249000  0.03435700  0.31108500  1
  K  K2  1  0.29751000  0.53435700  0.18891500  1
  K  K3  1  0.20249000  0.46564300  0.68891500  1
  Si  Si0  1  0.78570100  0.60901300  0.93506300  1
  Si  Si1  1  0.71429900  0.39098700  0.43506300  1
  Si  Si2  1  0.28570100  0.89098700  0.06493700  1
  Si  Si3  1  0.21429900  0.10901300  0.56493700  1
  Si  Si4  1  0.26609900  0.80198400  0.57554700  1
  Si  Si5  1  0.23390100  0.19801600  0.07554700  1
  Si  Si6  1  0.76609900  0.69801600  0.42445300  1
  Si  Si7  1  0.73390100  0.30198400  0.92445300  1
  B  B0  1  0.28908700  0.73133300  0.84310800  1
  B  B1  1  0.21091300  0.26866700  0.34310800  1
  B  B2  1  0.78908700  0.76866700  0.15689200  1
  B  B3  1  0.71091300  0.23133300  0.65689200  1
  O  O0  1  0.98929600  0.69386400  0.84185300  1
  O  O1  1  0.51070400  0.30613600  0.34185300  1
  O  O2  1  0.48929600  0.80613600  0.15814700  1
  O  O3  1  0.01070400  0.19386400  0.65814700  1
  O  O4  1  0.33041700  0.85630600  0.91492300  1
  O  O5  1  0.16958300  0.14369400  0.41492300  1
  O  O6  1  0.83041700  0.64369400  0.08507700  1
  O  O7  1  0.66958300  0.35630600  0.58507700  1
  O  O8  1  0.45737200  0.62148900  0.89475400  1
  O  O9  1  0.04262800  0.37851100  0.39475400  1
  O  O10  1  0.95737200  0.87851100  0.10524600  1
  O  O11  1  0.54262800  0.12148900  0.60524600  1
  O  O12  1  0.38249500  0.75551900  0.71126400  1
  O  O13  1  0.11750500  0.24448100  0.21126400  1
  O  O14  1  0.88249500  0.74448100  0.28873600  1
  O  O15  1  0.61750500  0.25551900  0.78873600  1
  O  O16  1  0.02477900  0.69760700  0.52684900  1
  O  O17  1  0.47522100  0.30239300  0.02684900  1
  O  O18  1  0.52477900  0.80239300  0.47315100  1
  O  O19  1  0.97522100  0.19760700  0.97315100  1
  O  O20  1  0.12920000  0.95044500  0.57927900  1
  O  O21  1  0.37080000  0.04955500  0.07927900  1
  O  O22  1  0.62920000  0.54955500  0.42072100  1
  O  O23  1  0.87080000  0.45044500  0.92072100  1
loop_
_geom_bond_atom_site_label_1
_geom_bond_atom_site_label_2
_geom_bond_distance
_geom_bond_site_symmetry_2
K0 O4 2.720395 1_555
K0 O0 2.911184 1_555
K0 O20 2.920864 1_655
K0 O11 2.947452 1_565
K0 O4 2.983673 1_655
K0 O3 2.992919 1_665
K0 O19 3.022845 1_565
K0 O15 3.059629 1_565
K0 O12 3.089236 1_555
K0 O10 3.318910 1_556
K1 O5 2.720395 1_655
K1 O1 2.911184 1_555
K1 O21 2.920864 1_555
K1 O10 2.947452 1_545
K1 O5 2.983673 1_555
K1 O2 2.992919 1_545
K1 O18 3.022845 1_545
K1 O14 3.059629 1_545
K1 O13 3.089236 1_655
K1 O11 3.318910 1_555
K2 O6 2.720395 1_455
K2 O2 2.911184 1_555
K2 O22 2.920864 1_555
K2 O9 2.947452 1_555
K2 O6 2.983673 1_555
K2 O1 2.992919 1_555
K2 O17 3.022845 1_555
K2 O13 3.059629 1_555
K2 O14 3.089236 1_455
K2 O8 3.318910 1_554
K3 O7 2.720395 1_555
K3 O3 2.911184 1_555
K3 O23 2.920864 1_455
K3 O8 2.947452 1_555
K3 O7 2.983673 1_455
K3 O0 2.992919 1_455
K3 O16 3.022845 1_555
K3 O12 3.059629 1_555
K3 O15 3.089236 1_555
K3 O9 3.318910 1_555
B0 O8 1.474433 1_555
B0 O0 1.481242 1_455
B0 O12 1.482868 1_555
B0 O4 1.485536 1_555
B1 O9 1.474433 1_555
B1 O1 1.481242 1_555
B1 O13 1.482868 1_555
B1 O5 1.485536 1_555
B2 O10 1.474433 1_555
B2 O2 1.481242 1_555
B2 O14 1.482868 1_555
B2 O6 1.485536 1_555
B3 O11 1.474433 1_555
B3 O3 1.481242 1_655
B3 O15 1.482868 1_555
B3 O7 1.485536 1_555
O0 Si0 1.627736 1_555
O1 Si1 1.627736 1_555
O2 Si2 1.627736 1_555
O3 Si3 1.627736 1_555
O4 Si2 1.637080 1_556
O5 Si3 1.637080 1_555
O6 Si0 1.637080 1_554
O7 Si1 1.637080 1_555
O8 Si0 1.630037 1_555
O9 Si1 1.630037 1_455
O10 Si2 1.630037 1_655
O11 Si3 1.630037 1_555
O12 Si4 1.607817 1_555
O13 Si5 1.607817 1_555
O14 Si6 1.607817 1_555
O15 Si7 1.607817 1_555
O16 Si6 1.642307 1_455
O16 Si4 1.644434 1_555
O17 Si7 1.642307 1_554
O17 Si5 1.644434 1_555
O18 Si4 1.642307 1_555
O18 Si6 1.644434 1_555
O19 Si5 1.642307 1_656
O19 Si7 1.644434 1_555
O20 Si4 1.635888 1_555
O20 Si3 1.658760 1_565
O21 Si5 1.635888 1_555
O21 Si2 1.658760 1_545
O22 Si6 1.635888 1_555
O22 Si1 1.658760 1_555
O23 Si7 1.635888 1_555
O23 Si0 1.658760 1_555
