# generated using pymatgen
data_Ca2Mg
_symmetry_space_group_name_H-M   'P 1'
_cell_length_a   11.75067978
_cell_length_b   7.54244686
_cell_length_c   38.44361056
_cell_angle_alpha   90.00000000
_cell_angle_beta   90.00000000
_cell_angle_gamma   90.00000000
_symmetry_Int_Tables_number   1
_chemical_formula_structural   Ca2Mg
_chemical_formula_sum   'Ca64 Mg32'
_cell_volume   3407.21406288
_cell_formula_units_Z   32
loop_
 _symmetry_equiv_pos_site_id
 _symmetry_equiv_pos_as_xyz
  1  'x, y, z'
loop_
 _atom_site_type_symbol
 _atom_site_label
 _atom_site_symmetry_multiplicity
 _atom_site_fract_x
 _atom_site_fract_y
 _atom_site_fract_z
 _atom_site_occupancy
  Ca  Ca0_0  1  0.00000000  0.00000000  0.49874885  1
  Ca  Ca0_1  1  0.00000000  0.00000000  0.99874885  1
  Ca  Ca0_2  1  0.00000000  0.50000000  0.49874885  1
  Ca  Ca0_3  1  0.00000000  0.50000000  0.99874885  1
  Ca  Ca0_4  1  0.50000000  0.00000000  0.49874885  1
  Ca  Ca0_5  1  0.50000000  0.00000000  0.99874885  1
  Ca  Ca0_6  1  0.50000000  0.50000000  0.49874885  1
  Ca  Ca0_7  1  0.50000000  0.50000000  0.99874885  1
  Ca  Ca1_0  1  0.00000000  0.25000000  0.08467085  1
  Ca  Ca1_1  1  0.00000000  0.25000000  0.58467085  1
  Ca  Ca1_2  1  0.00000000  0.75000000  0.08467085  1
  Ca  Ca1_3  1  0.00000000  0.75000000  0.58467085  1
  Ca  Ca1_4  1  0.50000000  0.25000000  0.08467085  1
  Ca  Ca1_5  1  0.50000000  0.25000000  0.58467085  1
  Ca  Ca1_6  1  0.50000000  0.75000000  0.08467085  1
  Ca  Ca1_7  1  0.50000000  0.75000000  0.58467085  1
  Ca  Ca2_0  1  0.00000000  0.00000000  0.16712068  1
  Ca  Ca2_1  1  0.00000000  0.00000000  0.66712069  1
  Ca  Ca2_2  1  0.00000000  0.50000000  0.16712068  1
  Ca  Ca2_3  1  0.00000000  0.50000000  0.66712069  1
  Ca  Ca2_4  1  0.50000000  0.00000000  0.16712068  1
  Ca  Ca2_5  1  0.50000000  0.00000000  0.66712069  1
  Ca  Ca2_6  1  0.50000000  0.50000000  0.16712068  1
  Ca  Ca2_7  1  0.50000000  0.50000000  0.66712069  1
  Ca  Ca3_0  1  0.25000000  0.25000000  0.02759689  1
  Ca  Ca3_1  1  0.25000000  0.25000000  0.52759689  1
  Ca  Ca3_2  1  0.25000000  0.75000000  0.02759689  1
  Ca  Ca3_3  1  0.25000000  0.75000000  0.52759689  1
  Ca  Ca3_4  1  0.75000000  0.25000000  0.02759689  1
  Ca  Ca3_5  1  0.75000000  0.25000000  0.52759689  1
  Ca  Ca3_6  1  0.75000000  0.75000000  0.02759689  1
  Ca  Ca3_7  1  0.75000000  0.75000000  0.52759689  1
  Ca  Ca4_0  1  0.00000000  0.25000000  0.24874886  1
  Ca  Ca4_1  1  0.00000000  0.25000000  0.74874885  1
  Ca  Ca4_2  1  0.00000000  0.75000000  0.24874886  1
  Ca  Ca4_3  1  0.00000000  0.75000000  0.74874885  1
  Ca  Ca4_4  1  0.50000000  0.25000000  0.24874886  1
  Ca  Ca4_5  1  0.50000000  0.25000000  0.74874885  1
  Ca  Ca4_6  1  0.50000000  0.75000000  0.24874886  1
  Ca  Ca4_7  1  0.50000000  0.75000000  0.74874885  1
  Ca  Ca5_0  1  0.00000000  0.00000000  0.33467085  1
  Ca  Ca5_1  1  0.00000000  0.00000000  0.83467085  1
  Ca  Ca5_2  1  0.00000000  0.50000000  0.33467085  1
  Ca  Ca5_3  1  0.00000000  0.50000000  0.83467085  1
  Ca  Ca5_4  1  0.50000000  0.00000000  0.33467085  1
  Ca  Ca5_5  1  0.50000000  0.00000000  0.83467085  1
  Ca  Ca5_6  1  0.50000000  0.50000000  0.33467085  1
  Ca  Ca5_7  1  0.50000000  0.50000000  0.83467085  1
  Ca  Ca6_0  1  0.00000000  0.25000000  0.41712068  1
  Ca  Ca6_1  1  0.00000000  0.25000000  0.91712068  1
  Ca  Ca6_2  1  0.00000000  0.75000000  0.41712068  1
  Ca  Ca6_3  1  0.00000000  0.75000000  0.91712068  1
  Ca  Ca6_4  1  0.50000000  0.25000000  0.41712068  1
  Ca  Ca6_5  1  0.50000000  0.25000000  0.91712068  1
  Ca  Ca6_6  1  0.50000000  0.75000000  0.41712068  1
  Ca  Ca6_7  1  0.50000000  0.75000000  0.91712068  1
  Ca  Ca7_0  1  0.25000000  0.00000000  0.27759690  1
  Ca  Ca7_1  1  0.25000000  0.00000000  0.77759690  1
  Ca  Ca7_2  1  0.25000000  0.50000000  0.27759690  1
  Ca  Ca7_3  1  0.25000000  0.50000000  0.77759690  1
  Ca  Ca7_4  1  0.75000000  0.00000000  0.27759690  1
  Ca  Ca7_5  1  0.75000000  0.00000000  0.77759690  1
  Ca  Ca7_6  1  0.75000000  0.50000000  0.27759690  1
  Ca  Ca7_7  1  0.75000000  0.50000000  0.77759690  1
  Mg  Mg0_0  1  0.25000000  0.25000000  0.19379790  1
  Mg  Mg0_1  1  0.25000000  0.25000000  0.69379791  1
  Mg  Mg0_2  1  0.25000000  0.75000000  0.19379790  1
  Mg  Mg0_3  1  0.25000000  0.75000000  0.69379791  1
  Mg  Mg0_4  1  0.75000000  0.25000000  0.19379790  1
  Mg  Mg0_5  1  0.75000000  0.25000000  0.69379791  1
  Mg  Mg0_6  1  0.75000000  0.75000000  0.19379790  1
  Mg  Mg0_7  1  0.75000000  0.75000000  0.69379791  1
  Mg  Mg1_0  1  0.25000000  0.00000000  0.11139831  1
  Mg  Mg1_1  1  0.25000000  0.00000000  0.61139831  1
  Mg  Mg1_2  1  0.25000000  0.50000000  0.11139831  1
  Mg  Mg1_3  1  0.25000000  0.50000000  0.61139831  1
  Mg  Mg1_4  1  0.75000000  0.00000000  0.11139831  1
  Mg  Mg1_5  1  0.75000000  0.00000000  0.61139831  1
  Mg  Mg1_6  1  0.75000000  0.50000000  0.11139831  1
  Mg  Mg1_7  1  0.75000000  0.50000000  0.61139831  1
  Mg  Mg2_0  1  0.25000000  0.00000000  0.44379790  1
  Mg  Mg2_1  1  0.25000000  0.00000000  0.94379790  1
  Mg  Mg2_2  1  0.25000000  0.50000000  0.44379790  1
  Mg  Mg2_3  1  0.25000000  0.50000000  0.94379790  1
  Mg  Mg2_4  1  0.75000000  0.00000000  0.44379790  1
  Mg  Mg2_5  1  0.75000000  0.00000000  0.94379790  1
  Mg  Mg2_6  1  0.75000000  0.50000000  0.44379790  1
  Mg  Mg2_7  1  0.75000000  0.50000000  0.94379790  1
  Mg  Mg3_0  1  0.25000000  0.25000000  0.36139831  1
  Mg  Mg3_1  1  0.25000000  0.25000000  0.86139831  1
  Mg  Mg3_2  1  0.25000000  0.75000000  0.36139831  1
  Mg  Mg3_3  1  0.25000000  0.75000000  0.86139831  1
  Mg  Mg3_4  1  0.75000000  0.25000000  0.36139831  1
  Mg  Mg3_5  1  0.75000000  0.25000000  0.86139831  1
  Mg  Mg3_6  1  0.75000000  0.75000000  0.36139831  1
  Mg  Mg3_7  1  0.75000000  0.75000000  0.86139831  1
loop_
_geom_bond_atom_site_label_1
_geom_bond_atom_site_label_2
_geom_bond_distance
_geom_bond_site_symmetry_2
Ca0_0 Mg2_4 3.618372 1_455
Ca0_0 Mg2_0 3.618372 1_555
Ca0_0 Ca6_2 3.661023 1_545
Ca0_0 Ca6_0 3.661023 1_555
Ca0_0 Ca3_7 3.662700 1_445
Ca0_0 Ca3_5 3.662700 1_455
Ca0_0 Ca3_1 3.662700 1_555
Ca0_0 Ca3_3 3.662700 1_545
Ca0_0 Ca0_2 3.771223 1_555
Ca0_0 Ca0_2 3.771223 1_545
Ca0_0 Ca1_3 3.803465 1_545
Ca0_0 Ca1_1 3.803465 1_555
Ca0_1 Mg2_5 3.618372 1_455
Ca0_1 Mg2_1 3.618372 1_555
Ca0_1 Ca6_1 3.661023 1_555
Ca0_1 Ca6_3 3.661023 1_545
Ca0_1 Ca3_4 3.662700 1_456
Ca0_1 Ca3_6 3.662700 1_446
Ca0_1 Ca3_0 3.662700 1_556
Ca0_1 Ca3_2 3.662700 1_546
Ca0_1 Ca0_3 3.771223 1_555
Ca0_1 Ca0_3 3.771223 1_545
Ca0_1 Ca1_0 3.803465 1_556
Ca0_1 Ca1_2 3.803465 1_546
Ca0_2 Mg2_6 3.618372 1_455
Ca0_2 Mg2_2 3.618372 1_555
Ca0_2 Ca6_0 3.661023 1_555
Ca0_2 Ca6_2 3.661023 1_555
Ca0_2 Ca3_5 3.662700 1_455
Ca0_2 Ca3_7 3.662700 1_455
Ca0_2 Ca3_1 3.662700 1_555
Ca0_2 Ca3_3 3.662700 1_555
Ca0_2 Ca1_3 3.803465 1_555
Ca0_2 Ca1_1 3.803465 1_555
Ca0_3 Mg2_7 3.618372 1_455
Ca0_3 Mg2_3 3.618372 1_555
Ca0_3 Ca6_1 3.661023 1_555
Ca0_3 Ca6_3 3.661023 1_555
Ca0_3 Ca3_4 3.662700 1_456
Ca0_3 Ca3_6 3.662700 1_456
Ca0_3 Ca3_0 3.662700 1_556
Ca0_3 Ca3_2 3.662700 1_556
Ca0_3 Ca1_0 3.803465 1_556
Ca0_3 Ca1_2 3.803465 1_556
Ca0_4 Mg2_0 3.618372 1_555
Ca0_4 Mg2_4 3.618372 1_555
Ca0_4 Ca6_4 3.661023 1_555
Ca0_4 Ca6_6 3.661023 1_545
Ca0_4 Ca3_1 3.662700 1_555
Ca0_4 Ca3_3 3.662700 1_545
Ca0_4 Ca3_7 3.662700 1_545
Ca0_4 Ca3_5 3.662700 1_555
Ca0_4 Ca0_6 3.771223 1_555
Ca0_4 Ca0_6 3.771223 1_545
Ca0_4 Ca1_7 3.803465 1_545
Ca0_4 Ca1_5 3.803465 1_555
Ca0_5 Mg2_1 3.618372 1_555
Ca0_5 Mg2_5 3.618372 1_555
Ca0_5 Ca6_5 3.661023 1_555
Ca0_5 Ca6_7 3.661023 1_545
Ca0_5 Ca3_0 3.662700 1_556
Ca0_5 Ca3_2 3.662700 1_546
Ca0_5 Ca3_4 3.662700 1_556
Ca0_5 Ca3_6 3.662700 1_546
Ca0_5 Ca0_7 3.771223 1_555
Ca0_5 Ca0_7 3.771223 1_545
Ca0_5 Ca1_4 3.803465 1_556
Ca0_5 Ca1_6 3.803465 1_546
Ca0_6 Mg2_2 3.618372 1_555
Ca0_6 Mg2_6 3.618372 1_555
Ca0_6 Ca6_4 3.661023 1_555
Ca0_6 Ca6_6 3.661023 1_555
Ca0_6 Ca3_1 3.662700 1_555
Ca0_6 Ca3_3 3.662700 1_555
Ca0_6 Ca3_7 3.662700 1_555
Ca0_6 Ca3_5 3.662700 1_555
Ca0_6 Ca1_7 3.803465 1_555
Ca0_6 Ca1_5 3.803465 1_555
Ca0_7 Mg2_3 3.618372 1_555
Ca0_7 Mg2_7 3.618372 1_555
Ca0_7 Ca6_5 3.661023 1_555
Ca0_7 Ca6_7 3.661023 1_555
Ca0_7 Ca3_0 3.662700 1_556
Ca0_7 Ca3_2 3.662700 1_556
Ca0_7 Ca3_4 3.662700 1_556
Ca0_7 Ca3_6 3.662700 1_556
Ca0_7 Ca1_6 3.803465 1_556
Ca0_7 Ca1_4 3.803465 1_556
Ca1_0 Mg1_4 3.638845 1_455
Ca1_0 Mg1_6 3.638845 1_455
Ca1_0 Mg1_2 3.638845 1_555
Ca1_0 Mg1_0 3.638845 1_555
Ca1_0 Ca3_4 3.666621 1_455
Ca1_0 Ca3_0 3.666621 1_555
Ca1_0 Ca2_2 3.688134 1_555
Ca1_0 Ca2_0 3.688134 1_555
Ca1_0 Ca1_2 3.771223 1_545
Ca1_0 Ca1_2 3.771223 1_555
Ca1_1 Mg1_5 3.638845 1_455
Ca1_1 Mg1_7 3.638845 1_455
Ca1_1 Mg1_1 3.638845 1_555
Ca1_1 Mg1_3 3.638845 1_555
Ca1_1 Ca3_5 3.666621 1_455
Ca1_1 Ca3_1 3.666621 1_555
Ca1_1 Ca2_1 3.688134 1_555
Ca1_1 Ca2_3 3.688134 1_555
Ca1_1 Ca1_3 3.771223 1_555
Ca1_1 Ca1_3 3.771223 1_545
Ca1_2 Mg1_4 3.638845 1_465
Ca1_2 Mg1_6 3.638845 1_455
Ca1_2 Mg1_2 3.638845 1_555
Ca1_2 Mg1_0 3.638845 1_565
Ca1_2 Ca3_6 3.666621 1_455
Ca1_2 Ca3_2 3.666621 1_555
Ca1_2 Ca2_2 3.688134 1_555
Ca1_2 Ca2_0 3.688134 1_565
Ca1_3 Mg1_5 3.638845 1_465
Ca1_3 Mg1_7 3.638845 1_455
Ca1_3 Mg1_1 3.638845 1_565
Ca1_3 Mg1_3 3.638845 1_555
Ca1_3 Ca3_7 3.666621 1_455
Ca1_3 Ca3_3 3.666621 1_555
Ca1_3 Ca2_1 3.688134 1_565
Ca1_3 Ca2_3 3.688134 1_555
Ca1_4 Mg1_2 3.638845 1_555
Ca1_4 Mg1_0 3.638845 1_555
Ca1_4 Mg1_4 3.638845 1_555
Ca1_4 Mg1_6 3.638845 1_555
Ca1_4 Ca3_0 3.666621 1_555
Ca1_4 Ca3_4 3.666621 1_555
Ca1_4 Ca2_6 3.688134 1_555
Ca1_4 Ca2_4 3.688134 1_555
Ca1_4 Ca1_6 3.771223 1_545
Ca1_4 Ca1_6 3.771223 1_555
Ca1_5 Mg1_1 3.638845 1_555
Ca1_5 Mg1_3 3.638845 1_555
Ca1_5 Mg1_7 3.638845 1_555
Ca1_5 Mg1_5 3.638845 1_555
Ca1_5 Ca3_1 3.666621 1_555
Ca1_5 Ca3_5 3.666621 1_555
Ca1_5 Ca2_7 3.688134 1_555
Ca1_5 Ca2_5 3.688134 1_555
Ca1_5 Ca1_7 3.771223 1_545
Ca1_5 Ca1_7 3.771223 1_555
Ca1_6 Mg1_2 3.638845 1_555
Ca1_6 Mg1_0 3.638845 1_565
Ca1_6 Mg1_4 3.638845 1_565
Ca1_6 Mg1_6 3.638845 1_555
Ca1_6 Ca3_2 3.666621 1_555
Ca1_6 Ca3_6 3.666621 1_555
Ca1_6 Ca2_6 3.688134 1_555
Ca1_6 Ca2_4 3.688134 1_565
Ca1_7 Mg1_1 3.638845 1_565
Ca1_7 Mg1_3 3.638845 1_555
Ca1_7 Mg1_5 3.638845 1_565
Ca1_7 Mg1_7 3.638845 1_555
Ca1_7 Ca3_3 3.666621 1_555
Ca1_7 Ca3_7 3.666621 1_555
Ca1_7 Ca2_5 3.688134 1_565
Ca1_7 Ca2_7 3.688134 1_555
Ca2_0 Mg1_4 3.635766 1_455
Ca2_0 Mg1_0 3.635766 1_555
Ca2_0 Mg0_6 3.638300 1_445
Ca2_0 Mg0_4 3.638300 1_455
Ca2_0 Mg0_0 3.638300 1_555
Ca2_0 Mg0_2 3.638300 1_545
Ca2_0 Ca4_2 3.661023 1_545
Ca2_0 Ca4_0 3.661023 1_555
Ca2_0 Ca2_2 3.771223 1_555
Ca2_0 Ca2_2 3.771223 1_545
Ca2_1 Mg1_5 3.635766 1_455
Ca2_1 Mg1_1 3.635766 1_555
Ca2_1 Mg0_7 3.638300 1_445
Ca2_1 Mg0_5 3.638300 1_455
Ca2_1 Mg0_3 3.638300 1_545
Ca2_1 Mg0_1 3.638300 1_555
Ca2_1 Ca4_1 3.661023 1_555
Ca2_1 Ca4_3 3.661023 1_545
Ca2_1 Ca2_3 3.771223 1_555
Ca2_1 Ca2_3 3.771223 1_545
Ca2_2 Mg1_6 3.635766 1_455
Ca2_2 Mg1_2 3.635766 1_555
Ca2_2 Mg0_4 3.638300 1_455
Ca2_2 Mg0_6 3.638300 1_455
Ca2_2 Mg0_0 3.638300 1_555
Ca2_2 Mg0_2 3.638300 1_555
Ca2_2 Ca4_0 3.661023 1_555
Ca2_2 Ca4_2 3.661023 1_555
Ca2_3 Mg1_7 3.635766 1_455
Ca2_3 Mg1_3 3.635766 1_555
Ca2_3 Mg0_5 3.638300 1_455
Ca2_3 Mg0_7 3.638300 1_455
Ca2_3 Mg0_1 3.638300 1_555
Ca2_3 Mg0_3 3.638300 1_555
Ca2_3 Ca4_1 3.661023 1_555
Ca2_3 Ca4_3 3.661023 1_555
Ca2_4 Mg1_0 3.635766 1_555
Ca2_4 Mg1_4 3.635766 1_555
Ca2_4 Mg0_0 3.638300 1_555
Ca2_4 Mg0_2 3.638300 1_545
Ca2_4 Mg0_4 3.638300 1_555
Ca2_4 Mg0_6 3.638300 1_545
Ca2_4 Ca4_4 3.661023 1_555
Ca2_4 Ca4_6 3.661023 1_545
Ca2_4 Ca2_6 3.771223 1_555
Ca2_4 Ca2_6 3.771223 1_545
Ca2_5 Mg1_1 3.635766 1_555
Ca2_5 Mg1_5 3.635766 1_555
Ca2_5 Mg0_3 3.638300 1_545
Ca2_5 Mg0_1 3.638300 1_555
Ca2_5 Mg0_7 3.638300 1_545
Ca2_5 Mg0_5 3.638300 1_555
Ca2_5 Ca4_5 3.661023 1_555
Ca2_5 Ca4_7 3.661023 1_545
Ca2_5 Ca2_7 3.771223 1_555
Ca2_5 Ca2_7 3.771223 1_545
Ca2_6 Mg1_2 3.635766 1_555
Ca2_6 Mg1_6 3.635766 1_555
Ca2_6 Mg0_0 3.638300 1_555
Ca2_6 Mg0_2 3.638300 1_555
Ca2_6 Mg0_4 3.638300 1_555
Ca2_6 Mg0_6 3.638300 1_555
Ca2_6 Ca4_4 3.661023 1_555
Ca2_6 Ca4_6 3.661023 1_555
Ca2_7 Mg1_3 3.635766 1_555
Ca2_7 Mg1_7 3.635766 1_555
Ca2_7 Mg0_1 3.638300 1_555
Ca2_7 Mg0_3 3.638300 1_555
Ca2_7 Mg0_5 3.638300 1_555
Ca2_7 Mg0_7 3.638300 1_555
Ca2_7 Ca4_5 3.661023 1_555
Ca2_7 Ca4_7 3.661023 1_555
Ca3_0 Mg2_3 3.732804 1_554
Ca3_0 Mg2_1 3.732804 1_554
Ca3_0 Mg1_2 3.732884 1_555
Ca3_0 Mg1_0 3.732884 1_555
Ca3_0 Ca3_2 3.771223 1_545
Ca3_0 Ca3_2 3.771223 1_555
Ca3_1 Mg2_0 3.732804 1_555
Ca3_1 Mg2_2 3.732804 1_555
Ca3_1 Mg1_3 3.732884 1_555
Ca3_1 Mg1_1 3.732884 1_555
Ca3_1 Ca3_3 3.771223 1_545
Ca3_1 Ca3_3 3.771223 1_555
Ca3_2 Mg2_1 3.732804 1_564
Ca3_2 Mg2_3 3.732804 1_554
Ca3_2 Mg1_0 3.732884 1_565
Ca3_2 Mg1_2 3.732884 1_555
Ca3_3 Mg2_0 3.732804 1_565
Ca3_3 Mg2_2 3.732804 1_555
Ca3_3 Mg1_1 3.732884 1_565
Ca3_3 Mg1_3 3.732884 1_555
Ca3_4 Mg2_7 3.732804 1_554
Ca3_4 Mg2_5 3.732804 1_554
Ca3_4 Mg1_6 3.732884 1_555
Ca3_4 Mg1_4 3.732884 1_555
Ca3_4 Ca3_6 3.771223 1_545
Ca3_4 Ca3_6 3.771223 1_555
Ca3_5 Mg2_6 3.732804 1_555
Ca3_5 Mg2_4 3.732804 1_555
Ca3_5 Mg1_5 3.732884 1_555
Ca3_5 Mg1_7 3.732884 1_555
Ca3_5 Ca3_7 3.771223 1_545
Ca3_5 Ca3_7 3.771223 1_555
Ca3_6 Mg2_5 3.732804 1_564
Ca3_6 Mg2_7 3.732804 1_554
Ca3_6 Mg1_4 3.732884 1_565
Ca3_6 Mg1_6 3.732884 1_555
Ca3_7 Mg2_6 3.732804 1_555
Ca3_7 Mg2_4 3.732804 1_565
Ca3_7 Mg1_5 3.732884 1_565
Ca3_7 Mg1_7 3.732884 1_555
Ca4_0 Mg0_4 3.618372 1_455
Ca4_0 Mg0_0 3.618372 1_555
Ca4_0 Ca7_6 3.662700 1_455
Ca4_0 Ca7_4 3.662700 1_455
Ca4_0 Ca7_0 3.662700 1_555
Ca4_0 Ca7_2 3.662700 1_555
Ca4_0 Ca4_2 3.771223 1_545
Ca4_0 Ca4_2 3.771223 1_555
Ca4_0 Ca5_0 3.803465 1_555
Ca4_0 Ca5_2 3.803465 1_555
Ca4_1 Mg0_5 3.618372 1_455
Ca4_1 Mg0_1 3.618372 1_555
Ca4_1 Ca7_5 3.662700 1_455
Ca4_1 Ca7_7 3.662700 1_455
Ca4_1 Ca7_3 3.662700 1_555
Ca4_1 Ca7_1 3.662700 1_555
Ca4_1 Ca4_3 3.771223 1_555
Ca4_1 Ca4_3 3.771223 1_545
Ca4_1 Ca5_3 3.803465 1_555
Ca4_1 Ca5_1 3.803465 1_555
Ca4_2 Mg0_6 3.618372 1_455
Ca4_2 Mg0_2 3.618372 1_555
Ca4_2 Ca7_4 3.662700 1_465
Ca4_2 Ca7_6 3.662700 1_455
Ca4_2 Ca7_0 3.662700 1_565
Ca4_2 Ca7_2 3.662700 1_555
Ca4_2 Ca5_0 3.803465 1_565
Ca4_2 Ca5_2 3.803465 1_555
Ca4_3 Mg0_7 3.618372 1_455
Ca4_3 Mg0_3 3.618372 1_555
Ca4_3 Ca7_5 3.662700 1_465
Ca4_3 Ca7_7 3.662700 1_455
Ca4_3 Ca7_1 3.662700 1_565
Ca4_3 Ca7_3 3.662700 1_555
Ca4_3 Ca5_1 3.803465 1_565
Ca4_3 Ca5_3 3.803465 1_555
Ca4_4 Mg0_0 3.618372 1_555
Ca4_4 Mg0_4 3.618372 1_555
Ca4_4 Ca7_0 3.662700 1_555
Ca4_4 Ca7_2 3.662700 1_555
Ca4_4 Ca7_6 3.662700 1_555
Ca4_4 Ca7_4 3.662700 1_555
Ca4_4 Ca4_6 3.771223 1_555
Ca4_4 Ca4_6 3.771223 1_545
Ca4_4 Ca5_6 3.803465 1_555
Ca4_4 Ca5_4 3.803465 1_555
Ca4_5 Mg0_1 3.618372 1_555
Ca4_5 Mg0_5 3.618372 1_555
Ca4_5 Ca7_3 3.662700 1_555
Ca4_5 Ca7_1 3.662700 1_555
Ca4_5 Ca7_5 3.662700 1_555
Ca4_5 Ca7_7 3.662700 1_555
Ca4_5 Ca4_7 3.771223 1_545
Ca4_5 Ca4_7 3.771223 1_555
Ca4_5 Ca5_5 3.803465 1_555
Ca4_5 Ca5_7 3.803465 1_555
Ca4_6 Mg0_2 3.618372 1_555
Ca4_6 Mg0_6 3.618372 1_555
Ca4_6 Ca7_0 3.662700 1_565
Ca4_6 Ca7_2 3.662700 1_555
Ca4_6 Ca7_6 3.662700 1_555
Ca4_6 Ca7_4 3.662700 1_565
Ca4_6 Ca5_4 3.803465 1_565
Ca4_6 Ca5_6 3.803465 1_555
Ca4_7 Mg0_3 3.618372 1_555
Ca4_7 Mg0_7 3.618372 1_555
Ca4_7 Ca7_1 3.662700 1_565
Ca4_7 Ca7_3 3.662700 1_555
Ca4_7 Ca7_5 3.662700 1_565
Ca4_7 Ca7_7 3.662700 1_555
Ca4_7 Ca5_5 3.803465 1_565
Ca4_7 Ca5_7 3.803465 1_555
Ca5_0 Mg3_4 3.638845 1_455
Ca5_0 Mg3_6 3.638845 1_445
Ca5_0 Mg3_0 3.638845 1_555
Ca5_0 Mg3_2 3.638845 1_545
Ca5_0 Ca7_4 3.666621 1_455
Ca5_0 Ca7_0 3.666621 1_555
Ca5_0 Ca6_0 3.688134 1_555
Ca5_0 Ca6_2 3.688134 1_545
Ca5_0 Ca5_2 3.771223 1_555
Ca5_0 Ca5_2 3.771223 1_545
Ca5_1 Mg3_7 3.638845 1_445
Ca5_1 Mg3_5 3.638845 1_455
Ca5_1 Mg3_3 3.638845 1_545
Ca5_1 Mg3_1 3.638845 1_555
Ca5_1 Ca7_5 3.666621 1_455
Ca5_1 Ca7_1 3.666621 1_555
Ca5_1 Ca6_1 3.688134 1_555
Ca5_1 Ca6_3 3.688134 1_545
Ca5_1 Ca5_3 3.771223 1_555
Ca5_1 Ca5_3 3.771223 1_545
Ca5_2 Mg3_6 3.638845 1_455
Ca5_2 Mg3_4 3.638845 1_455
Ca5_2 Mg3_0 3.638845 1_555
Ca5_2 Mg3_2 3.638845 1_555
Ca5_2 Ca7_6 3.666621 1_455
Ca5_2 Ca7_2 3.666621 1_555
Ca5_2 Ca6_0 3.688134 1_555
Ca5_2 Ca6_2 3.688134 1_555
Ca5_3 Mg3_5 3.638845 1_455
Ca5_3 Mg3_7 3.638845 1_455
Ca5_3 Mg3_3 3.638845 1_555
Ca5_3 Mg3_1 3.638845 1_555
Ca5_3 Ca7_7 3.666621 1_455
Ca5_3 Ca7_3 3.666621 1_555
Ca5_3 Ca6_1 3.688134 1_555
Ca5_3 Ca6_3 3.688134 1_555
Ca5_4 Mg3_0 3.638845 1_555
Ca5_4 Mg3_2 3.638845 1_545
Ca5_4 Mg3_6 3.638845 1_545
Ca5_4 Mg3_4 3.638845 1_555
Ca5_4 Ca7_0 3.666621 1_555
Ca5_4 Ca7_4 3.666621 1_555
Ca5_4 Ca6_4 3.688134 1_555
Ca5_4 Ca6_6 3.688134 1_545
Ca5_4 Ca5_6 3.771223 1_555
Ca5_4 Ca5_6 3.771223 1_545
Ca5_5 Mg3_3 3.638845 1_545
Ca5_5 Mg3_1 3.638845 1_555
Ca5_5 Mg3_7 3.638845 1_545
Ca5_5 Mg3_5 3.638845 1_555
Ca5_5 Ca7_1 3.666621 1_555
Ca5_5 Ca7_5 3.666621 1_555
Ca5_5 Ca6_7 3.688134 1_545
Ca5_5 Ca6_5 3.688134 1_555
Ca5_5 Ca5_7 3.771223 1_555
Ca5_5 Ca5_7 3.771223 1_545
Ca5_6 Mg3_0 3.638845 1_555
Ca5_6 Mg3_2 3.638845 1_555
Ca5_6 Mg3_6 3.638845 1_555
Ca5_6 Mg3_4 3.638845 1_555
Ca5_6 Ca7_2 3.666621 1_555
Ca5_6 Ca7_6 3.666621 1_555
Ca5_6 Ca6_4 3.688134 1_555
Ca5_6 Ca6_6 3.688134 1_555
Ca5_7 Mg3_3 3.638845 1_555
Ca5_7 Mg3_1 3.638845 1_555
Ca5_7 Mg3_5 3.638845 1_555
Ca5_7 Mg3_7 3.638845 1_555
Ca5_7 Ca7_3 3.666621 1_555
Ca5_7 Ca7_7 3.666621 1_555
Ca5_7 Ca6_5 3.688134 1_555
Ca5_7 Ca6_7 3.688134 1_555
Ca6_0 Mg3_4 3.635766 1_455
Ca6_0 Mg3_0 3.635766 1_555
Ca6_0 Mg2_6 3.638300 1_455
Ca6_0 Mg2_4 3.638300 1_455
Ca6_0 Mg2_2 3.638300 1_555
Ca6_0 Mg2_0 3.638300 1_555
Ca6_0 Ca6_2 3.771223 1_545
Ca6_0 Ca6_2 3.771223 1_555
Ca6_1 Mg3_5 3.635766 1_455
Ca6_1 Mg3_1 3.635766 1_555
Ca6_1 Mg2_7 3.638300 1_455
Ca6_1 Mg2_5 3.638300 1_455
Ca6_1 Mg2_3 3.638300 1_555
Ca6_1 Mg2_1 3.638300 1_555
Ca6_1 Ca6_3 3.771223 1_555
Ca6_1 Ca6_3 3.771223 1_545
Ca6_2 Mg3_6 3.635766 1_455
Ca6_2 Mg3_2 3.635766 1_555
Ca6_2 Mg2_4 3.638300 1_465
Ca6_2 Mg2_6 3.638300 1_455
Ca6_2 Mg2_0 3.638300 1_565
Ca6_2 Mg2_2 3.638300 1_555
Ca6_3 Mg3_7 3.635766 1_455
Ca6_3 Mg3_3 3.635766 1_555
Ca6_3 Mg2_5 3.638300 1_465
Ca6_3 Mg2_7 3.638300 1_455
Ca6_3 Mg2_1 3.638300 1_565
Ca6_3 Mg2_3 3.638300 1_555
Ca6_4 Mg3_0 3.635766 1_555
Ca6_4 Mg3_4 3.635766 1_555
Ca6_4 Mg2_2 3.638300 1_555
Ca6_4 Mg2_0 3.638300 1_555
Ca6_4 Mg2_6 3.638300 1_555
Ca6_4 Mg2_4 3.638300 1_555
Ca6_4 Ca6_6 3.771223 1_545
Ca6_4 Ca6_6 3.771223 1_555
Ca6_5 Mg3_1 3.635766 1_555
Ca6_5 Mg3_5 3.635766 1_555
Ca6_5 Mg2_3 3.638300 1_555
Ca6_5 Mg2_1 3.638300 1_555
Ca6_5 Mg2_5 3.638300 1_555
Ca6_5 Mg2_7 3.638300 1_555
Ca6_5 Ca6_7 3.771223 1_555
Ca6_5 Ca6_7 3.771223 1_545
Ca6_6 Mg3_2 3.635766 1_555
Ca6_6 Mg3_6 3.635766 1_555
Ca6_6 Mg2_0 3.638300 1_565
Ca6_6 Mg2_2 3.638300 1_555
Ca6_6 Mg2_4 3.638300 1_565
Ca6_6 Mg2_6 3.638300 1_555
Ca6_7 Mg3_3 3.635766 1_555
Ca6_7 Mg3_7 3.635766 1_555
Ca6_7 Mg2_1 3.638300 1_565
Ca6_7 Mg2_3 3.638300 1_555
Ca6_7 Mg2_5 3.638300 1_565
Ca6_7 Mg2_7 3.638300 1_555
Ca7_0 Mg0_2 3.732804 1_545
Ca7_0 Mg0_0 3.732804 1_555
Ca7_0 Mg3_2 3.732884 1_545
Ca7_0 Mg3_0 3.732884 1_555
Ca7_0 Ca7_2 3.771223 1_555
Ca7_0 Ca7_2 3.771223 1_545
Ca7_1 Mg0_1 3.732804 1_555
Ca7_1 Mg0_3 3.732804 1_545
Ca7_1 Mg3_3 3.732884 1_545
Ca7_1 Mg3_1 3.732884 1_555
Ca7_1 Ca7_3 3.771223 1_555
Ca7_1 Ca7_3 3.771223 1_545
Ca7_2 Mg0_0 3.732804 1_555
Ca7_2 Mg0_2 3.732804 1_555
Ca7_2 Mg3_0 3.732884 1_555
Ca7_2 Mg3_2 3.732884 1_555
Ca7_3 Mg0_1 3.732804 1_555
Ca7_3 Mg0_3 3.732804 1_555
Ca7_3 Mg3_1 3.732884 1_555
Ca7_3 Mg3_3 3.732884 1_555
Ca7_4 Mg0_4 3.732804 1_555
Ca7_4 Mg0_6 3.732804 1_545
Ca7_4 Mg3_4 3.732884 1_555
Ca7_4 Mg3_6 3.732884 1_545
Ca7_4 Ca7_6 3.771223 1_555
Ca7_4 Ca7_6 3.771223 1_545
Ca7_5 Mg0_7 3.732804 1_545
Ca7_5 Mg0_5 3.732804 1_555
Ca7_5 Mg3_7 3.732884 1_545
Ca7_5 Mg3_5 3.732884 1_555
Ca7_5 Ca7_7 3.771223 1_555
Ca7_5 Ca7_7 3.771223 1_545
Ca7_6 Mg0_4 3.732804 1_555
Ca7_6 Mg0_6 3.732804 1_555
Ca7_6 Mg3_4 3.732884 1_555
Ca7_6 Mg3_6 3.732884 1_555
Ca7_7 Mg0_5 3.732804 1_555
Ca7_7 Mg0_7 3.732804 1_555
Ca7_7 Mg3_5 3.732884 1_555
Ca7_7 Mg3_7 3.732884 1_555
