# generated using pymatgen
data_KNa3Al4(GeO4)4
_symmetry_space_group_name_H-M   'P 1'
_cell_length_a   8.69244200
_cell_length_b   10.20934919
_cell_length_c   10.36372013
_cell_angle_alpha   119.05051575
_cell_angle_beta   90.00000000
_cell_angle_gamma   90.00000000
_symmetry_Int_Tables_number   1
_chemical_formula_structural   KNa3Al4(GeO4)4
_chemical_formula_sum   'K2 Na6 Al8 Ge8 O32'
_cell_volume   804.01162376
_cell_formula_units_Z   2
loop_
 _symmetry_equiv_pos_site_id
 _symmetry_equiv_pos_as_xyz
  1  'x, y, z'
loop_
 _atom_site_type_symbol
 _atom_site_label
 _atom_site_symmetry_multiplicity
 _atom_site_fract_x
 _atom_site_fract_y
 _atom_site_fract_z
 _atom_site_occupancy
  K  K0  1  0.07388500  0.01187100  0.00750800  1
  K  K1  1  0.57388500  0.98812900  0.99249200  1
  Na  Na0  1  0.07124600  0.43609500  0.45332900  1
  Na  Na1  1  0.57124600  0.56390500  0.54667100  1
  Na  Na2  1  0.07100400  0.56199500  0.99958100  1
  Na  Na3  1  0.57100400  0.43800500  0.00041900  1
  Na  Na4  1  0.57074300  0.00771600  0.43789100  1
  Na  Na5  1  0.07074300  0.99228400  0.56210900  1
  Al  Al0  1  0.76287600  0.34736300  0.66417600  1
  Al  Al1  1  0.26287600  0.65263700  0.33582400  1
  Al  Al2  1  0.26151100  0.24412400  0.90209400  1
  Al  Al3  1  0.76151100  0.75587600  0.09790600  1
  Al  Al4  1  0.25860500  0.09160400  0.34237700  1
  Al  Al5  1  0.75860500  0.90839600  0.65762300  1
  Al  Al6  1  0.25306900  0.68006100  0.76341200  1
  Al  Al7  1  0.75306900  0.31993900  0.23658800  1
  Ge  Ge0  1  0.37747600  0.34767000  0.66537200  1
  Ge  Ge1  1  0.87747600  0.65233000  0.33462800  1
  Ge  Ge2  1  0.88002800  0.24236800  0.90035600  1
  Ge  Ge3  1  0.38002800  0.75763200  0.09964400  1
  Ge  Ge4  1  0.88454500  0.09077800  0.34095300  1
  Ge  Ge5  1  0.38454500  0.90922200  0.65904700  1
  Ge  Ge6  1  0.88844400  0.67948200  0.76127900  1
  Ge  Ge7  1  0.38844400  0.32051800  0.23872100  1
  O  O0  1  0.26667200  0.48408000  0.64977500  1
  O  O1  1  0.76667200  0.51592000  0.35022500  1
  O  O2  1  0.07059400  0.73387700  0.72987900  1
  O  O3  1  0.57059400  0.26612300  0.27012100  1
  O  O4  1  0.26075900  0.73803000  0.95393500  1
  O  O5  1  0.76075900  0.26197000  0.04606500  1
  O  O6  1  0.88958400  0.05096600  0.76990700  1
  O  O7  1  0.38958400  0.94903400  0.23009300  1
  O  O8  1  0.39689000  0.77585100  0.72088500  1
  O  O9  1  0.89689000  0.22414900  0.27911500  1
  O  O10  1  0.87065300  0.48476700  0.64604200  1
  O  O11  1  0.37065300  0.51523300  0.35395800  1
  O  O12  1  0.34731700  0.35878200  0.83871900  1
  O  O13  1  0.84731700  0.64121800  0.16128100  1
  O  O14  1  0.88003600  0.73443100  0.95096400  1
  O  O15  1  0.38003600  0.26556900  0.04903600  1
  O  O16  1  0.25384800  0.05149000  0.77109100  1
  O  O17  1  0.75384800  0.94851000  0.22890900  1
  O  O18  1  0.07134300  0.01895600  0.33449200  1
  O  O19  1  0.57134300  0.98104400  0.66550800  1
  O  O20  1  0.06996400  0.30441500  0.96009100  1
  O  O21  1  0.56996400  0.69558500  0.03990900  1
  O  O22  1  0.24450200  0.22490300  0.28025300  1
  O  O23  1  0.74450200  0.77509700  0.71974700  1
  O  O24  1  0.81396900  0.16666800  0.52252400  1
  O  O25  1  0.31396900  0.83333200  0.47747600  1
  O  O26  1  0.56984400  0.39002800  0.64984200  1
  O  O27  1  0.06984400  0.60997200  0.35015800  1
  O  O28  1  0.32983400  0.16681400  0.52418400  1
  O  O29  1  0.82983400  0.83318600  0.47581600  1
  O  O30  1  0.79565500  0.35677700  0.83674000  1
  O  O31  1  0.29565500  0.64322300  0.16326000  1
loop_
_geom_bond_atom_site_label_1
_geom_bond_atom_site_label_2
_geom_bond_distance
_geom_bond_site_symmetry_2
K0 O2 2.898954 1_544
K0 O22 2.991540 1_555
K0 O9 3.010453 1_455
K0 O4 3.042300 1_544
K0 O16 3.094584 1_554
K0 O14 3.097365 1_444
K0 O6 3.121515 1_454
K0 O20 3.253969 1_554
K0 O18 3.354316 1_555
K1 O3 2.898954 1_566
K1 O23 2.991540 1_555
K1 O8 3.010453 1_555
K1 O5 3.042300 1_566
K1 O17 3.094584 1_556
K1 O15 3.097365 1_566
K1 O7 3.121515 1_556
K1 O21 3.253969 1_556
K1 O19 3.354316 1_555
Na0 O27 2.477495 1_555
Na0 O0 2.510377 1_555
Na0 O10 2.512428 1_455
Na0 O22 2.525560 1_555
Na0 O9 2.538672 1_455
Na1 O26 2.477495 1_555
Na1 O1 2.510377 1_555
Na1 O11 2.512428 1_555
Na1 O23 2.525560 1_555
Na1 O8 2.538672 1_555
Na2 O13 2.434509 1_456
Na2 O31 2.452010 1_556
Na2 O20 2.457197 1_555
Na2 O14 2.640084 1_455
Na2 O4 2.645757 1_555
Na3 O12 2.434509 1_554
Na3 O30 2.452010 1_554
Na3 O21 2.457197 1_555
Na3 O15 2.640084 1_555
Na3 O5 2.645757 1_555
Na4 O7 2.494689 1_545
Na4 O19 2.502537 1_545
Na4 O17 2.513579 1_545
Na4 O28 2.532307 1_555
Na4 O24 2.547632 1_555
Na5 O6 2.494689 1_465
Na5 O18 2.502537 1_565
Na5 O16 2.513579 1_565
Na5 O29 2.532307 1_455
Na5 O25 2.547632 1_555
Al0 O26 1.757855 1_555
Al0 O30 1.766886 1_555
Al0 O24 1.767905 1_555
Al0 O10 1.771129 1_555
Al1 O27 1.757855 1_555
Al1 O31 1.766886 1_555
Al1 O25 1.767905 1_555
Al1 O11 1.771129 1_555
Al2 O12 1.761997 1_555
Al2 O15 1.762020 1_556
Al2 O16 1.767034 1_555
Al2 O20 1.775701 1_555
Al3 O13 1.761997 1_555
Al3 O14 1.762020 1_554
Al3 O17 1.767034 1_555
Al3 O21 1.775701 1_555
Al4 O28 1.765811 1_555
Al4 O7 1.767504 1_545
Al4 O22 1.769891 1_555
Al4 O18 1.774129 1_555
Al5 O29 1.765811 1_555
Al5 O6 1.767504 1_565
Al5 O23 1.769891 1_555
Al5 O19 1.774129 1_555
Al6 O0 1.765186 1_555
Al6 O4 1.765958 1_555
Al6 O2 1.767473 1_555
Al6 O8 1.769781 1_555
Al7 O1 1.765186 1_555
Al7 O5 1.765958 1_555
Al7 O3 1.767473 1_555
Al7 O9 1.769781 1_555
Ge0 O26 1.754020 1_555
Ge0 O28 1.760112 1_555
Ge0 O12 1.763845 1_555
Ge0 O0 1.764062 1_555
Ge1 O27 1.754020 1_655
Ge1 O29 1.760112 1_555
Ge1 O13 1.763845 1_555
Ge1 O1 1.764062 1_555
Ge2 O30 1.756349 1_555
Ge2 O6 1.757123 1_555
Ge2 O5 1.761179 1_556
Ge2 O20 1.769040 1_655
Ge3 O31 1.756349 1_555
Ge3 O7 1.757123 1_555
Ge3 O4 1.761179 1_554
Ge3 O21 1.769040 1_555
Ge4 O24 1.761172 1_555
Ge4 O17 1.763728 1_545
Ge4 O9 1.767409 1_555
Ge4 O18 1.769454 1_655
Ge5 O25 1.761172 1_555
Ge5 O16 1.763728 1_565
Ge5 O8 1.767409 1_555
Ge5 O19 1.769454 1_555
Ge6 O10 1.759649 1_555
Ge6 O2 1.759754 1_655
Ge6 O23 1.764012 1_555
Ge6 O14 1.764531 1_555
Ge7 O11 1.759649 1_555
Ge7 O3 1.759754 1_555
Ge7 O22 1.764012 1_555
Ge7 O15 1.764531 1_555
