# generated using pymatgen
data_Sc2PtRh
_symmetry_space_group_name_H-M   'P 1'
_cell_length_a   10.81750051
_cell_length_b   10.81750051
_cell_length_c   10.81750051
_cell_angle_alpha   128.22595952
_cell_angle_beta   117.47279976
_cell_angle_gamma   85.40615445
_symmetry_Int_Tables_number   1
_chemical_formula_structural   Sc2PtRh
_chemical_formula_sum   'Sc2 Pt1 Rh1'
_cell_volume   843.11198692
_cell_formula_units_Z   1
loop_
 _symmetry_equiv_pos_site_id
 _symmetry_equiv_pos_as_xyz
  1  'x, y, z'
loop_
 _atom_site_type_symbol
 _atom_site_label
 _atom_site_symmetry_multiplicity
 _atom_site_fract_x
 _atom_site_fract_y
 _atom_site_fract_z
 _atom_site_occupancy
  Sc  Sc0  1  0.00000000  0.24178100  0.24178100  1
  Sc  Sc1  1  0.00000000  0.75821900  0.75821900  1
  Pt  Pt0  1  0.00000000  0.50000000  0.50000000  1
  Rh  Rh0  1  0.00000000  0.00000000  0.00000000  1
loop_
_geom_bond_atom_site_label_1
_geom_bond_atom_site_label_2
_geom_bond_distance
_geom_bond_site_symmetry_2
Pt0 Sc1 2.439085 1_555
Pt0 Sc0 2.439085 1_555
Rh0 Sc1 2.283814 1_544
Rh0 Sc0 2.283814 1_555
