# generated using pymatgen
data_RbTb(WO4)2
_symmetry_space_group_name_H-M   'P 1'
_cell_length_a   7.64378455
_cell_length_b   7.64378455
_cell_length_c   7.51982135
_cell_angle_alpha   62.47404909
_cell_angle_beta   62.47404909
_cell_angle_gamma   88.51655729
_symmetry_Int_Tables_number   1
_chemical_formula_structural   RbTb(WO4)2
_chemical_formula_sum   'Rb2 Tb2 W4 O16'
_cell_volume   335.53785399
_cell_formula_units_Z   2
loop_
 _symmetry_equiv_pos_site_id
 _symmetry_equiv_pos_as_xyz
  1  'x, y, z'
loop_
 _atom_site_type_symbol
 _atom_site_label
 _atom_site_symmetry_multiplicity
 _atom_site_fract_x
 _atom_site_fract_y
 _atom_site_fract_z
 _atom_site_occupancy
  Rb  Rb0  1  0.20018600  0.79981400  0.75000000  1
  Rb  Rb1  1  0.79981400  0.20018600  0.25000000  1
  Tb  Tb0  1  0.77586400  0.22413600  0.75000000  1
  Tb  Tb1  1  0.22413600  0.77586400  0.25000000  1
  W  W0  1  0.69972800  0.68915700  0.78210100  1
  W  W1  1  0.30027200  0.31084300  0.21789900  1
  W  W2  1  0.31084300  0.30027200  0.71789900  1
  W  W3  1  0.68915700  0.69972800  0.28210100  1
  O  O0  1  0.62117200  0.75175500  0.56114100  1
  O  O1  1  0.37882800  0.24824500  0.43885900  1
  O  O2  1  0.24824500  0.37882800  0.93885900  1
  O  O3  1  0.75175500  0.62117200  0.06114100  1
  O  O4  1  0.37426900  0.06097200  0.87325700  1
  O  O5  1  0.62573100  0.93902800  0.12674300  1
  O  O6  1  0.93902800  0.62573100  0.62674300  1
  O  O7  1  0.06097200  0.37426900  0.37325700  1
  O  O8  1  0.59104000  0.37024900  0.96750800  1
  O  O9  1  0.40896000  0.62975100  0.03249200  1
  O  O10  1  0.62975100  0.40896000  0.53249200  1
  O  O11  1  0.37024900  0.59104000  0.46750800  1
  O  O12  1  0.78282600  0.95396600  0.69228100  1
  O  O13  1  0.21717400  0.04603400  0.30771900  1
  O  O14  1  0.04603400  0.21717400  0.80771900  1
  O  O15  1  0.95396600  0.78282600  0.19228100  1
loop_
_geom_bond_atom_site_label_1
_geom_bond_atom_site_label_2
_geom_bond_distance
_geom_bond_site_symmetry_2
O0 W0 1.876916 1_555
O0 W3 2.141008 1_555
O0 Rb0 2.950226 1_555
O0 Rb1 2.994094 1_565
O1 W1 1.876916 1_555
O1 W2 2.141008 1_555
O1 Rb1 2.950226 1_555
O1 Rb0 2.994094 1_545
O2 W2 1.876916 1_555
O2 W1 2.141008 1_556
O2 Rb0 2.950226 1_555
O2 Rb1 2.994094 1_456
O3 W3 1.876916 1_555
O3 W0 2.141008 1_554
O3 Rb1 2.950226 1_555
O3 Rb0 2.994094 1_654
O4 W2 1.856914 1_555
O4 Tb1 2.347380 1_546
O4 Rb0 3.098771 1_545
O5 W3 1.856914 1_555
O5 Tb0 2.347380 1_564
O5 Rb1 3.098771 1_565
O6 W0 1.856914 1_555
O6 Tb1 2.347380 1_655
O6 Rb0 3.098771 1_655
O7 W1 1.856914 1_555
O7 Tb0 2.347380 1_455
O7 Rb1 3.098771 1_455
O8 W1 2.021189 1_556
O8 W0 2.114033 1_555
O8 Tb0 2.321522 1_555
O8 Rb1 3.036881 1_556
O9 W0 2.021189 1_554
O9 W1 2.114033 1_555
O9 Tb1 2.321522 1_555
O9 Rb0 3.036881 1_554
O10 W3 2.021189 1_555
O10 W2 2.114033 1_555
O10 Tb0 2.321522 1_555
O10 Rb1 3.036881 1_555
O11 W2 2.021189 1_555
O11 W3 2.114033 1_555
O11 Tb1 2.321522 1_555
O11 Rb0 3.036881 1_555
O12 W0 1.833894 1_555
O12 Tb0 2.292900 1_565
O12 Rb1 2.906590 1_565
O13 W1 1.833894 1_555
O13 Tb1 2.292900 1_545
O13 Rb0 2.906590 1_545
O14 W2 1.833894 1_555
O14 Tb0 2.292900 1_455
O14 Rb1 2.906590 1_456
O15 W3 1.833894 1_555
O15 Tb1 2.292900 1_655
O15 Rb0 2.906590 1_654
