# generated using pymatgen
data_MgSiSb2
_symmetry_space_group_name_H-M   'P 1'
_cell_length_a   7.51167337
_cell_length_b   7.51167337
_cell_length_c   7.51167337
_cell_angle_alpha   129.19695377
_cell_angle_beta   129.19695377
_cell_angle_gamma   74.69387262
_symmetry_Int_Tables_number   1
_chemical_formula_structural   MgSiSb2
_chemical_formula_sum   'Mg2 Si2 Sb4'
_cell_volume   248.00269100
_cell_formula_units_Z   2
loop_
 _symmetry_equiv_pos_site_id
 _symmetry_equiv_pos_as_xyz
  1  'x, y, z'
loop_
 _atom_site_type_symbol
 _atom_site_label
 _atom_site_symmetry_multiplicity
 _atom_site_fract_x
 _atom_site_fract_y
 _atom_site_fract_z
 _atom_site_occupancy
  Mg  Mg0  1  0.00000000  0.00000000  0.00000000  1
  Mg  Mg1  1  0.75000000  0.25000000  0.50000000  1
  Si  Si0  1  0.50000000  0.50000000  0.00000000  1
  Si  Si1  1  0.25000000  0.75000000  0.50000000  1
  Sb  Sb0  1  0.87500000  0.40492100  0.02992100  1
  Sb  Sb1  1  0.37500000  0.84507900  0.97007900  1
  Sb  Sb2  1  0.15492100  0.12500000  0.52992100  1
  Sb  Sb3  1  0.59507900  0.62500000  0.47007900  1
loop_
_geom_bond_atom_site_label_1
_geom_bond_atom_site_label_2
_geom_bond_distance
_geom_bond_site_symmetry_2
Mg0 Sb1 2.842277 1_544
Mg0 Sb2 2.842277 1_555
Mg0 Sb0 2.842277 1_455
Mg0 Sb3 2.842277 1_444
Mg1 Sb1 2.842277 1_544
Mg1 Sb3 2.842277 1_555
Mg1 Sb2 2.842277 1_655
Mg1 Sb0 2.842277 1_556
Sb0 Si0 2.614557 1_555
Sb0 Si1 2.614557 1_655
Sb1 Si0 2.614557 1_556
Sb1 Si1 2.614557 1_555
Sb2 Si0 2.614557 1_556
Sb2 Si1 2.614557 1_545
Sb3 Si1 2.614557 1_555
Sb3 Si0 2.614557 1_555
