# generated using pymatgen
data_Ca(SbO2)2
_symmetry_space_group_name_H-M   'P 1'
_cell_length_a   7.09226839
_cell_length_b   7.09226839
_cell_length_c   11.35026729
_cell_angle_alpha   64.50899895
_cell_angle_beta   64.50899895
_cell_angle_gamma   28.30404752
_symmetry_Int_Tables_number   1
_chemical_formula_structural   Ca(SbO2)2
_chemical_formula_sum   'Ca2 Sb4 O8'
_cell_volume   242.57834452
_cell_formula_units_Z   2
loop_
 _symmetry_equiv_pos_site_id
 _symmetry_equiv_pos_as_xyz
  1  'x, y, z'
loop_
 _atom_site_type_symbol
 _atom_site_label
 _atom_site_symmetry_multiplicity
 _atom_site_fract_x
 _atom_site_fract_y
 _atom_site_fract_z
 _atom_site_occupancy
  Ca  Ca0  1  0.73438900  0.73438900  0.75777600  1
  Ca  Ca1  1  0.26561100  0.26561100  0.24222400  1
  Sb  Sb0  1  0.38301200  0.38301200  0.88211100  1
  Sb  Sb1  1  0.88619100  0.88619100  0.41249800  1
  Sb  Sb2  1  0.11380900  0.11380900  0.58750200  1
  Sb  Sb3  1  0.61698800  0.61698800  0.11788900  1
  O  O0  1  0.09734800  0.09734800  0.23499800  1
  O  O1  1  0.58014100  0.58014100  0.70920800  1
  O  O2  1  0.41985900  0.41985900  0.29079200  1
  O  O3  1  0.90265200  0.90265200  0.76500200  1
  O  O4  1  0.77098200  0.77098200  0.10231900  1
  O  O5  1  0.25608700  0.25608700  0.60371900  1
  O  O6  1  0.22901800  0.22901800  0.89768100  1
  O  O7  1  0.74391300  0.74391300  0.39628100  1
loop_
_geom_bond_atom_site_label_1
_geom_bond_atom_site_label_2
_geom_bond_distance
_geom_bond_site_symmetry_2
Ca0 O6 2.330192 1_655
Ca0 O6 2.330192 1_565
Ca0 O3 2.351847 1_555
Ca0 O5 2.385425 1_655
Ca0 O5 2.385425 1_565
Ca0 O1 2.417219 1_555
Ca1 O4 2.330192 1_455
Ca1 O4 2.330192 1_545
Ca1 O0 2.351847 1_555
Ca1 O7 2.385425 1_545
Ca1 O7 2.385425 1_455
Ca1 O2 2.417219 1_555
O0 Sb3 2.127889 1_545
O0 Sb3 2.127889 1_455
O1 Sb2 2.135815 1_655
O1 Sb2 2.135815 1_565
O1 Sb0 2.545456 1_555
O2 Sb1 2.135815 1_545
O2 Sb1 2.135815 1_455
O2 Sb3 2.545456 1_555
O3 Sb0 2.127889 1_565
O3 Sb0 2.127889 1_655
O4 Sb3 2.045742 1_555
O5 Sb2 2.045256 1_555
O6 Sb0 2.045742 1_555
O7 Sb1 2.045256 1_555
