# generated using pymatgen
data_Nb3AlCr8
_symmetry_space_group_name_H-M   'P 1'
_cell_length_a   4.87326587
_cell_length_b   4.87326587
_cell_length_c   8.00431900
_cell_angle_alpha   90.00000000
_cell_angle_beta   90.00000000
_cell_angle_gamma   119.99999817
_symmetry_Int_Tables_number   1
_chemical_formula_structural   Nb3AlCr8
_chemical_formula_sum   'Nb3 Al1 Cr8'
_cell_volume   164.62479185
_cell_formula_units_Z   1
loop_
 _symmetry_equiv_pos_site_id
 _symmetry_equiv_pos_as_xyz
  1  'x, y, z'
loop_
 _atom_site_type_symbol
 _atom_site_label
 _atom_site_symmetry_multiplicity
 _atom_site_fract_x
 _atom_site_fract_y
 _atom_site_fract_z
 _atom_site_occupancy
  Nb  Nb0  1  0.66666700  0.33333300  0.44292800  1
  Nb  Nb1  1  0.66666700  0.33333300  0.06040000  1
  Nb  Nb2  1  0.00000000  0.00000000  0.93611400  1
  Al  Al0  1  0.00000000  0.00000000  0.56345700  1
  Cr  Cr0  1  0.33333300  0.66666700  0.49914200  1
  Cr  Cr1  1  0.33333300  0.66666700  0.99887100  1
  Cr  Cr2  1  0.50208300  0.00416500  0.74791500  1
  Cr  Cr3  1  0.50208300  0.49791700  0.74791500  1
  Cr  Cr4  1  0.99583500  0.49791700  0.74791500  1
  Cr  Cr5  1  0.16286000  0.32572000  0.25178000  1
  Cr  Cr6  1  0.16286000  0.83714000  0.25178000  1
  Cr  Cr7  1  0.67428000  0.83714000  0.25178000  1
loop_
_geom_bond_atom_site_label_1
_geom_bond_atom_site_label_2
_geom_bond_distance
_geom_bond_site_symmetry_2
Nb0 Nb1 3.061876 1_555
Nb1 Nb2 2.984276 1_654
Nb1 Nb2 2.984280 1_664
Nb1 Nb2 2.984280 1_554
Al0 Cr6 2.848425 1_545
Al0 Cr7 2.848425 1_445
Al0 Cr5 2.848425 1_555
Al0 Cr2 2.849107 1_455
Al0 Cr4 2.849107 1_455
Al0 Cr3 2.849110 1_555
Al0 Cr3 2.849110 1_445
Al0 Cr4 2.849112 1_445
Al0 Cr2 2.849112 1_555
Al0 Cr0 2.860287 1_545
Al0 Cr0 2.860291 1_555
Al0 Cr0 2.860291 1_445
Al0 Nb0 2.974386 1_455
Al0 Nb0 2.974390 1_445
Al0 Nb0 2.974390 1_555
Al0 Nb2 2.982866 1_555
Cr0 Cr6 2.447600 1_555
Cr0 Cr7 2.447603 1_555
Cr0 Cr5 2.447603 1_555
Cr0 Cr2 2.448251 1_565
Cr0 Cr4 2.448251 1_455
Cr0 Cr3 2.448256 1_555
Cr0 Nb0 2.849330 1_455
Cr0 Nb0 2.849330 1_565
Cr0 Nb0 2.849339 1_555
Cr1 Cr2 2.462484 1_565
Cr1 Cr4 2.462484 1_455
Cr1 Cr3 2.462488 1_555
Cr1 Cr6 2.483654 1_556
Cr1 Cr5 2.483657 1_556
Cr1 Cr7 2.483657 1_556
Cr1 Nb1 2.856358 1_456
Cr1 Nb1 2.856358 1_566
Cr1 Nb1 2.856366 1_556
Cr1 Nb2 2.858069 1_565
Cr1 Nb2 2.858073 1_665
Cr1 Nb2 2.858073 1_555
Cr2 Cr3 2.406185 1_555
Cr2 Cr4 2.406185 1_555
Cr2 Cr3 2.467081 1_545
Cr2 Cr4 2.467081 1_445
Cr2 Nb0 2.808813 1_555
Cr2 Nb1 2.861129 1_556
Cr2 Nb2 2.864740 1_655
Cr2 Nb2 2.864744 1_555
Cr3 Cr4 2.406185 1_555
Cr3 Cr4 2.467081 1_455
Cr3 Nb0 2.808813 1_555
Cr3 Nb1 2.861129 1_556
Cr3 Nb2 2.864742 1_555
Cr3 Nb2 2.864742 1_665
Cr4 Nb0 2.808813 1_555
Cr4 Nb1 2.861129 1_556
Cr4 Nb2 2.864740 1_655
Cr4 Nb2 2.864744 1_665
Cr5 Cr6 2.380980 1_545
Cr5 Cr7 2.380980 1_445
Cr5 Cr6 2.492286 1_555
Cr5 Cr7 2.492286 1_555
Cr5 Nb2 2.876432 1_554
Cr5 Nb0 2.877348 1_455
Cr5 Nb0 2.877352 1_555
Cr5 Nb1 2.878336 1_455
Cr5 Nb1 2.878340 1_555
Cr6 Cr7 2.380980 1_455
Cr6 Cr7 2.492286 1_555
Cr6 Nb2 2.876431 1_564
Cr6 Nb0 2.877350 1_565
Cr6 Nb0 2.877350 1_455
Cr6 Nb1 2.878338 1_565
Cr6 Nb1 2.878338 1_455
Cr7 Nb2 2.876432 1_664
Cr7 Nb0 2.877348 1_565
Cr7 Nb0 2.877352 1_555
Cr7 Nb1 2.878336 1_565
Cr7 Nb1 2.878340 1_555
