# generated using pymatgen
data_Fe7O3F13
_symmetry_space_group_name_H-M   'P 1'
_cell_length_a   6.16752700
_cell_length_b   6.19914308
_cell_length_c   10.59866803
_cell_angle_alpha   106.70736733
_cell_angle_beta   90.56336224
_cell_angle_gamma   118.57239847
_symmetry_Int_Tables_number   1
_chemical_formula_structural   Fe7O3F13
_chemical_formula_sum   'Fe7 O3 F13'
_cell_volume   335.58026720
_cell_formula_units_Z   1
loop_
 _symmetry_equiv_pos_site_id
 _symmetry_equiv_pos_as_xyz
  1  'x, y, z'
loop_
 _atom_site_type_symbol
 _atom_site_label
 _atom_site_symmetry_multiplicity
 _atom_site_fract_x
 _atom_site_fract_y
 _atom_site_fract_z
 _atom_site_occupancy
  Fe  Fe0  1  0.73400100  0.23415600  0.26347800  1
  Fe  Fe1  1  0.47008300  0.48921600  0.99459700  1
  Fe  Fe2  1  0.24335200  0.26059300  0.75133200  1
  Fe  Fe3  1  0.75441500  0.73421600  0.74793500  1
  Fe  Fe4  1  0.73399500  0.73660900  0.25927300  1
  Fe  Fe5  1  0.01770900  0.99751200  0.49476200  1
  Fe  Fe6  1  0.81774600  0.21015800  0.92778000  1
  O  O0  1  0.63535000  0.40815000  0.87063100  1
  O  O1  1  0.68534900  0.90773400  0.36523400  1
  O  O2  1  0.12153200  0.35070000  0.88507200  1
  F  F0  1  0.43505100  0.16073100  0.13130800  1
  F  F1  1  0.83927800  0.59154000  0.14820300  1
  F  F2  1  0.87436400  0.07954700  0.62283700  1
  F  F3  1  0.41310400  0.62372000  0.65473600  1
  F  F4  1  0.07452300  0.32744100  0.37310000  1
  F  F5  1  0.84545300  0.10878500  0.12672800  1
  F  F6  1  0.32262700  0.12915800  0.61557700  1
  F  F7  1  0.43767700  0.65523800  0.12483700  1
  F  F8  1  0.08680700  0.89109700  0.84917400  1
  F  F9  1  0.64541000  0.39478700  0.36182400  1
  F  F10  1  0.87985000  0.67142000  0.61886600  1
  F  F11  1  0.08012800  0.85956300  0.37090800  1
  F  F12  1  0.65312300  0.87528200  0.87593600  1
loop_
_geom_bond_atom_site_label_1
_geom_bond_atom_site_label_2
_geom_bond_distance
_geom_bond_site_symmetry_2
Fe1 O0 1.776072 1_555
Fe1 O2 2.078022 1_555
Fe2 O2 1.689041 1_555
Fe2 O0 2.332388 1_555
Fe3 O0 2.535034 1_555
Fe4 O1 1.450062 1_555
Fe5 O1 2.193250 1_455
Fe6 O2 1.776616 1_655
Fe6 O0 2.207617 1_555
F0 Fe0 2.085393 1_555
F1 Fe4 1.606574 1_555
F1 Fe1 2.487847 1_554
F2 Fe5 1.714519 1_645
F2 Fe2 2.215952 1_655
F3 Fe3 2.016672 1_555
F3 Fe2 2.510662 1_555
F4 Fe0 2.121094 1_455
F4 Fe5 2.609283 1_545
F5 Fe0 1.749322 1_555
F5 Fe6 2.393275 1_554
F6 Fe2 1.641334 1_555
F6 Fe5 1.930293 1_545
F7 Fe1 1.545948 1_554
F7 Fe4 2.068406 1_555
F8 Fe3 1.936356 1_455
F8 Fe2 2.554251 1_565
F9 Fe0 1.520337 1_555
F9 Fe4 2.489689 1_555
F10 Fe3 1.619890 1_555
F10 Fe5 2.538935 1_655
F11 Fe5 1.510650 1_555
F11 Fe4 2.100848 1_455
F12 Fe3 1.688961 1_555
F12 Fe6 1.720284 1_565
