# generated using pymatgen
data_Ho2MgAg2(WO4)4
_symmetry_space_group_name_H-M   'P 1'
_cell_length_a   7.34215059
_cell_length_b   7.64310919
_cell_length_c   7.64310919
_cell_angle_alpha   92.65614693
_cell_angle_beta   115.72048274
_cell_angle_gamma   115.72048274
_symmetry_Int_Tables_number   1
_chemical_formula_structural   Ho2MgAg2(WO4)4
_chemical_formula_sum   'Ho2 Mg1 Ag2 W4 O16'
_cell_volume   333.25765766
_cell_formula_units_Z   1
loop_
 _symmetry_equiv_pos_site_id
 _symmetry_equiv_pos_as_xyz
  1  'x, y, z'
loop_
 _atom_site_type_symbol
 _atom_site_label
 _atom_site_symmetry_multiplicity
 _atom_site_fract_x
 _atom_site_fract_y
 _atom_site_fract_z
 _atom_site_occupancy
  Ho  Ho0  1  -0.00000000  0.71481789  0.28518211  1
  Ho  Ho1  1  -0.00000000  0.28518211  0.71481789  1
  Mg  Mg0  1  -0.00000000  0.00000000  -0.00000000  1
  Ag  Ag0  1  0.53395003  0.68046378  0.68046378  1
  Ag  Ag1  1  0.46604997  0.31953622  0.31953622  1
  W  W0  1  0.97699561  0.24733773  0.24733773  1
  W  W1  1  0.02300439  0.75266227  0.75266227  1
  W  W2  1  0.50000000  0.84062450  0.15937550  1
  W  W3  1  0.50000000  0.15937550  0.84062450  1
  O  O0  1  0.76042219  0.36414945  0.10188415  1
  O  O1  1  0.23957781  0.63585055  0.89811585  1
  O  O2  1  0.23957781  0.89811585  0.63585055  1
  O  O3  1  0.76042219  0.10188415  0.36414945  1
  O  O4  1  0.65752155  0.70310223  0.21861045  1
  O  O5  1  0.34247845  0.29689777  0.78138955  1
  O  O6  1  0.34247845  0.78138955  0.29689777  1
  O  O7  1  0.65752155  0.21861045  0.70310223  1
  O  O8  1  0.90619655  0.70935062  0.94969560  1
  O  O9  1  0.09380345  0.29064938  0.05030440  1
  O  O10  1  0.09380345  0.05030440  0.29064938  1
  O  O11  1  0.90619655  0.94969560  0.70935062  1
  O  O12  1  0.66981901  0.99429194  0.99429194  1
  O  O13  1  0.33018099  0.00570806  0.00570806  1
  O  O14  1  0.84414944  0.52920046  0.52920046  1
  O  O15  1  0.15585056  0.47079954  0.47079954  1
loop_
_geom_bond_atom_site_label_1
_geom_bond_atom_site_label_2
_geom_bond_distance
_geom_bond_site_symmetry_2
Ho0 O4 2.297741 1_455
Ho0 O6 2.297741 1_555
Ho0 O10 2.341640 1_565
Ho0 O8 2.341640 1_454
Ho0 O2 2.379355 1_555
Ho0 O0 2.379355 1_455
Ho0 O14 2.736617 1_455
Ho0 O15 2.736617 1_555
Ho1 O7 2.297741 1_455
Ho1 O5 2.297741 1_555
Ho1 O9 2.341640 1_556
Ho1 O11 2.341640 1_445
Ho1 O1 2.379355 1_555
Ho1 O3 2.379355 1_455
Ho1 O14 2.736617 1_455
Ho1 O15 2.736617 1_555
Mg0 O11 1.979928 1_444
Mg0 O8 1.979928 1_444
Mg0 O10 1.979928 1_555
Mg0 O9 1.979928 1_555
Mg0 O13 2.386832 1_555
Mg0 O12 2.386832 1_444
Ag0 O15 2.209526 1_555
Ag0 O8 2.511095 1_555
Ag0 O11 2.511095 1_555
Ag0 O12 2.795527 1_555
Ag1 O14 2.209526 1_555
Ag1 O10 2.511095 1_555
Ag1 O9 2.511095 1_555
Ag1 O13 2.795527 1_555
O0 W3 1.972775 1_554
O0 W0 2.085986 1_555
O1 W2 1.972775 1_556
O1 W1 2.085986 1_555
O2 W3 1.972775 1_565
O2 W1 2.085986 1_555
O3 W2 1.972775 1_545
O3 W0 2.085986 1_555
O4 W2 1.814426 1_555
O5 W3 1.814426 1_555
O6 W2 1.814426 1_555
O7 W3 1.814426 1_555
O8 W1 2.008423 1_655
O9 W0 2.008423 1_455
O10 W0 2.008423 1_455
O11 W1 2.008423 1_655
O12 W0 2.156151 1_566
O12 W3 2.181247 1_565
O12 W2 2.181247 1_556
O13 W1 2.156151 1_544
O13 W3 2.181247 1_554
O13 W2 2.181247 1_545
O14 W1 1.842504 1_655
O15 W0 1.842504 1_455
