# generated using pymatgen
data_Lu2Cr2C3
_symmetry_space_group_name_H-M   'P 1'
_cell_length_a   3.29986401
_cell_length_b   5.39201936
_cell_length_c   5.44934434
_cell_angle_alpha   105.54053686
_cell_angle_beta   107.62442720
_cell_angle_gamma   90.00000000
_symmetry_Int_Tables_number   1
_chemical_formula_structural   Lu2Cr2C3
_chemical_formula_sum   'Lu2 Cr2 C3'
_cell_volume   88.68220634
_cell_formula_units_Z   1
loop_
 _symmetry_equiv_pos_site_id
 _symmetry_equiv_pos_as_xyz
  1  'x, y, z'
loop_
 _atom_site_type_symbol
 _atom_site_label
 _atom_site_symmetry_multiplicity
 _atom_site_fract_x
 _atom_site_fract_y
 _atom_site_fract_z
 _atom_site_occupancy
  Lu  Lu0  1  0.60809900  0.31501836  0.21619699  1
  Lu  Lu1  1  0.39190100  0.68498164  0.78380401  1
  Cr  Cr0  1  0.84536609  0.11828732  0.69073017  1
  Cr  Cr1  1  0.15463491  0.88171268  0.30926983  1
  C  C0  1  0.28203655  0.23625342  0.56407210  1
  C  C1  1  0.71796345  0.76374658  0.43592790  1
  C  C2  1  0.00000000  0.00000000  0.00000000  1
loop_
_geom_bond_atom_site_label_1
_geom_bond_atom_site_label_2
_geom_bond_distance
_geom_bond_site_symmetry_2
C0 Cr0 1.948029 1_455
C0 Cr0 1.948032 1_555
C0 Cr1 1.995855 1_545
C0 Lu1 2.367305 1_555
C0 Lu0 2.568707 1_455
C0 Lu0 2.568707 1_555
C1 Cr1 1.948029 1_555
C1 Cr1 1.948032 1_655
C1 Cr0 1.995855 1_565
C1 Lu0 2.367304 1_555
C1 Lu1 2.568710 1_655
C1 Lu1 2.568712 1_555
C2 Cr1 1.887510 1_545
C2 Cr0 1.887510 1_454
C2 Lu1 2.407468 1_544
C2 Lu0 2.407470 1_455
C2 Lu1 2.407472 1_444
C2 Lu0 2.407473 1_555
