# generated using pymatgen
data_BaP2O5
_symmetry_space_group_name_H-M   'P 1'
_cell_length_a   11.75788573
_cell_length_b   11.72529727
_cell_length_c   4.92078590
_cell_angle_alpha   78.27558881
_cell_angle_beta   77.53353566
_cell_angle_gamma   24.19087553
_symmetry_Int_Tables_number   1
_chemical_formula_structural   BaP2O5
_chemical_formula_sum   'Ba2 P4 O10'
_cell_volume   271.40636925
_cell_formula_units_Z   2
loop_
 _symmetry_equiv_pos_site_id
 _symmetry_equiv_pos_as_xyz
  1  'x, y, z'
loop_
 _atom_site_type_symbol
 _atom_site_label
 _atom_site_symmetry_multiplicity
 _atom_site_fract_x
 _atom_site_fract_y
 _atom_site_fract_z
 _atom_site_occupancy
  Ba  Ba0  1  0.41312000  0.58688000  0.41312000  1
  Ba  Ba1  1  0.66312000  0.83688000  0.66312000  1
  P  P0  1  0.06967200  0.29951800  0.19882300  1
  P  P1  1  0.19882300  0.43198800  0.06967200  1
  P  P2  1  0.95048200  0.18032800  0.81801200  1
  P  P3  1  0.81801200  0.05117700  0.95048200  1
  O  O0  1  0.01179900  0.98820100  0.01179900  1
  O  O1  1  0.26179900  0.23820100  0.26179900  1
  O  O2  1  0.64192400  0.48518400  0.87514400  1
  O  O3  1  0.87514400  0.99774800  0.64192400  1
  O  O4  1  0.76481600  0.60807600  0.25225200  1
  O  O5  1  0.25225200  0.37485600  0.76481600  1
  O  O6  1  0.15429700  0.20961800  0.89922200  1
  O  O7  1  0.89922200  0.73686300  0.15429700  1
  O  O8  1  0.04038200  0.09570300  0.51313700  1
  O  O9  1  0.51313700  0.35077800  0.04038200  1
loop_
_geom_bond_atom_site_label_1
_geom_bond_atom_site_label_2
_geom_bond_distance
_geom_bond_site_symmetry_2
Ba0 O8 2.757527 1_565
Ba0 O9 2.757527 1_555
Ba0 O2 2.832502 1_554
Ba0 O3 2.832502 1_455
Ba0 O0 2.836599 1_555
Ba0 O2 3.084589 1_555
Ba0 O3 3.084589 1_545
Ba0 O8 3.275528 1_655
Ba0 O9 3.275528 1_556
Ba1 O7 2.757527 1_555
Ba1 O6 2.757527 1_565
Ba1 O5 2.832502 1_565
Ba1 O4 2.832502 1_555
Ba1 O1 2.836599 1_565
Ba1 O5 3.084589 1_655
Ba1 O4 3.084589 1_556
Ba1 O7 3.275528 1_556
Ba1 O6 3.275528 1_655
O0 P2 1.721836 1_464
O0 P3 1.721845 1_464
O1 P0 1.721834 1_555
O1 P1 1.721843 1_555
O2 P2 1.525639 1_555
O3 P3 1.525637 1_565
O4 P0 1.525638 1_655
O5 P1 1.525641 1_556
O6 P0 1.536044 1_556
O7 P1 1.536041 1_655
O8 P2 1.536040 1_455
O9 P3 1.536042 1_554
