# generated using pymatgen
data_CsVP2S7
_symmetry_space_group_name_H-M   'P 1'
_cell_length_a   6.54141808
_cell_length_b   6.54141808
_cell_length_c   7.17018885
_cell_angle_alpha   85.08386592
_cell_angle_beta   85.08386592
_cell_angle_gamma   96.61383900
_symmetry_Int_Tables_number   1
_chemical_formula_structural   CsVP2S7
_chemical_formula_sum   'Cs1 V1 P2 S7'
_cell_volume   302.23140891
_cell_formula_units_Z   1
loop_
 _symmetry_equiv_pos_site_id
 _symmetry_equiv_pos_as_xyz
  1  'x, y, z'
loop_
 _atom_site_type_symbol
 _atom_site_label
 _atom_site_symmetry_multiplicity
 _atom_site_fract_x
 _atom_site_fract_y
 _atom_site_fract_z
 _atom_site_occupancy
  Cs  Cs0  1  0.10588700  0.89411300  0.00000000  1
  V  V0  1  0.50153000  0.49847000  0.50000000  1
  P  P0  1  0.65863300  0.94512600  0.57505100  1
  P  P1  1  0.05487400  0.34136700  0.42494900  1
  S  S0  1  0.63665500  0.68628000  0.75712000  1
  S  S1  1  0.31372000  0.36334500  0.24288000  1
  S  S2  1  0.52908300  0.84343300  0.34447300  1
  S  S3  1  0.15656700  0.47091700  0.65552700  1
  S  S4  1  0.54924900  0.18195500  0.70053700  1
  S  S5  1  0.81804500  0.45075100  0.29946300  1
  S  S6  1  0.98793800  0.01206200  0.50000000  1
loop_
_geom_bond_atom_site_label_1
_geom_bond_atom_site_label_2
_geom_bond_distance
_geom_bond_site_symmetry_2
Cs0 S4 3.680875 1_564
Cs0 S5 3.680875 1_455
Cs0 S6 3.765717 1_465
Cs0 S6 3.765717 1_464
Cs0 S1 3.829268 1_565
Cs0 S0 3.829268 1_454
Cs0 S2 3.888055 1_555
Cs0 S3 3.888055 1_554
P0 S4 2.026195 1_565
P0 S0 2.030963 1_555
P0 S2 2.047634 1_555
P0 S6 2.159909 1_565
P1 S5 2.026195 1_455
P1 S1 2.030963 1_555
P1 S3 2.047634 1_555
P1 S6 2.159909 1_455
S0 V0 2.471199 1_555
S1 V0 2.471199 1_555
S2 V0 2.410110 1_555
S3 V0 2.410110 1_555
S4 V0 2.483405 1_555
S5 V0 2.483405 1_555
