# generated using pymatgen
data_CeBiPt
_symmetry_space_group_name_H-M   'P 1'
_cell_length_a   4.85659413
_cell_length_b   4.85659413
_cell_length_c   4.85659413
_cell_angle_alpha   60.00000000
_cell_angle_beta   60.00000000
_cell_angle_gamma   60.00000000
_symmetry_Int_Tables_number   1
_chemical_formula_structural   CeBiPt
_chemical_formula_sum   'Ce1 Bi1 Pt1'
_cell_volume   80.99914468
_cell_formula_units_Z   1
loop_
 _symmetry_equiv_pos_site_id
 _symmetry_equiv_pos_as_xyz
  1  'x, y, z'
loop_
 _atom_site_type_symbol
 _atom_site_label
 _atom_site_symmetry_multiplicity
 _atom_site_fract_x
 _atom_site_fract_y
 _atom_site_fract_z
 _atom_site_occupancy
  Ce  Ce0  1  0.50000000  0.50000000  0.50000000  1
  Bi  Bi0  1  -0.00000000  -0.00000000  -0.00000000  1
  Pt  Pt0  1  0.75000000  0.75000000  0.75000000  1
loop_
_geom_bond_atom_site_label_1
_geom_bond_atom_site_label_2
_geom_bond_distance
_geom_bond_site_symmetry_2
Ce0 Pt0 2.974044 1_554
Ce0 Pt0 2.974044 1_555
Ce0 Pt0 2.974044 1_455
Ce0 Pt0 2.974044 1_545
Bi0 Pt0 2.974044 1_445
Bi0 Pt0 2.974044 1_444
Bi0 Pt0 2.974044 1_454
Bi0 Pt0 2.974044 1_544
Bi0 Ce0 3.434131 1_554
Bi0 Ce0 3.434131 1_455
Bi0 Ce0 3.434131 1_454
Bi0 Ce0 3.434131 1_445
Bi0 Ce0 3.434131 1_544
Bi0 Ce0 3.434131 1_545
