# generated using pymatgen
data_BaO2
_symmetry_space_group_name_H-M   'P 1'
_cell_length_a   5.82525600
_cell_length_b   7.68360400
_cell_length_c   11.12830026
_cell_angle_alpha   90.00000000
_cell_angle_beta   121.17026293
_cell_angle_gamma   90.00000000
_symmetry_Int_Tables_number   1
_chemical_formula_structural   BaO2
_chemical_formula_sum   'Ba8 O16'
_cell_volume   426.18322743
_cell_formula_units_Z   8
loop_
 _symmetry_equiv_pos_site_id
 _symmetry_equiv_pos_as_xyz
  1  'x, y, z'
loop_
 _atom_site_type_symbol
 _atom_site_label
 _atom_site_symmetry_multiplicity
 _atom_site_fract_x
 _atom_site_fract_y
 _atom_site_fract_z
 _atom_site_occupancy
  Ba  Ba0  1  0.13754800  0.88842600  0.88756700  1
  Ba  Ba1  1  0.13754800  0.61157400  0.38756700  1
  Ba  Ba2  1  0.86245200  0.11157400  0.11243300  1
  Ba  Ba3  1  0.86245200  0.38842600  0.61243300  1
  Ba  Ba4  1  0.61219700  0.94281500  0.36189400  1
  Ba  Ba5  1  0.61219700  0.55718500  0.86189400  1
  Ba  Ba6  1  0.38780300  0.05718500  0.63810600  1
  Ba  Ba7  1  0.38780300  0.44281500  0.13810600  1
  O  O0  1  0.87346800  0.02281600  0.63199600  1
  O  O1  1  0.87346800  0.47718400  0.13199600  1
  O  O2  1  0.12653200  0.97718400  0.36800400  1
  O  O3  1  0.12653200  0.52281600  0.86800400  1
  O  O4  1  0.36625200  0.09981700  0.11446300  1
  O  O5  1  0.36625200  0.40018300  0.61446300  1
  O  O6  1  0.63374800  0.90018300  0.88553700  1
  O  O7  1  0.63374800  0.59981700  0.38553700  1
  O  O8  1  0.94265700  0.26776200  0.89273800  1
  O  O9  1  0.94265700  0.23223800  0.39273800  1
  O  O10  1  0.05734300  0.73223800  0.10726200  1
  O  O11  1  0.05734300  0.76776200  0.60726200  1
  O  O12  1  0.34365900  0.23870600  0.39138400  1
  O  O13  1  0.34365900  0.26129400  0.89138400  1
  O  O14  1  0.65634100  0.76129400  0.60861600  1
  O  O15  1  0.65634100  0.73870600  0.10861600  1
loop_
_geom_bond_atom_site_label_1
_geom_bond_atom_site_label_2
_geom_bond_distance
_geom_bond_site_symmetry_2
Ba0 O0 2.644331 1_465
Ba0 O4 2.703024 1_566
Ba0 O3 2.815789 1_555
Ba0 O6 2.903654 1_555
Ba0 O6 2.924531 1_455
Ba0 O15 2.968520 1_556
Ba0 O10 2.969534 1_556
Ba0 O11 3.049487 1_555
Ba0 O14 3.072548 1_455
Ba0 O13 3.098165 1_565
Ba0 O8 3.139285 1_465
Ba1 O1 2.644331 1_455
Ba1 O5 2.703024 1_555
Ba1 O2 2.815789 1_555
Ba1 O7 2.903654 1_555
Ba1 O7 2.924531 1_455
Ba1 O14 2.968520 1_555
Ba1 O11 2.969534 1_555
Ba1 O10 3.049487 1_555
Ba1 O15 3.072548 1_455
Ba1 O12 3.098165 1_555
Ba1 O9 3.139285 1_455
Ba2 O2 2.644331 1_645
Ba2 O6 2.703024 1_544
Ba2 O1 2.815789 1_555
Ba2 O4 2.903654 1_555
Ba2 O4 2.924531 1_655
Ba2 O13 2.968520 1_554
Ba2 O8 2.969534 1_554
Ba2 O9 3.049487 1_555
Ba2 O12 3.072548 1_655
Ba2 O15 3.098165 1_545
Ba2 O10 3.139285 1_645
Ba3 O3 2.644331 1_655
Ba3 O7 2.703024 1_555
Ba3 O0 2.815789 1_555
Ba3 O5 2.903654 1_555
Ba3 O5 2.924531 1_655
Ba3 O12 2.968520 1_555
Ba3 O9 2.969534 1_555
Ba3 O8 3.049487 1_555
Ba3 O13 3.072548 1_655
Ba3 O14 3.098165 1_555
Ba3 O11 3.139285 1_655
Ba4 O0 2.644496 1_565
Ba4 O7 2.645080 1_555
Ba4 O4 2.646872 1_565
Ba4 O9 2.843387 1_565
Ba4 O12 2.873152 1_565
Ba4 O2 2.877051 1_555
Ba4 O11 2.942708 1_655
Ba4 O14 2.969656 1_555
Ba4 O2 2.973263 1_655
Ba4 O15 3.349656 1_555
Ba4 O10 3.407843 1_555
Ba5 O1 2.644496 1_556
Ba5 O6 2.645080 1_555
Ba5 O5 2.646872 1_555
Ba5 O8 2.843387 1_555
Ba5 O13 2.873152 1_555
Ba5 O3 2.877051 1_555
Ba5 O10 2.942708 1_656
Ba5 O15 2.969656 1_556
Ba5 O3 2.973263 1_655
Ba5 O14 3.349656 1_555
Ba5 O11 3.407843 1_555
Ba6 O2 2.644496 1_545
Ba6 O5 2.645080 1_555
Ba6 O6 2.646872 1_545
Ba6 O11 2.843387 1_545
Ba6 O14 2.873152 1_545
Ba6 O0 2.877051 1_555
Ba6 O9 2.942708 1_455
Ba6 O12 2.969656 1_555
Ba6 O0 2.973263 1_455
Ba6 O13 3.349656 1_555
Ba6 O8 3.407843 1_555
Ba7 O3 2.644496 1_554
Ba7 O4 2.645080 1_555
Ba7 O7 2.646872 1_555
Ba7 O10 2.843387 1_555
Ba7 O15 2.873152 1_555
Ba7 O1 2.877051 1_555
Ba7 O8 2.942708 1_454
Ba7 O13 2.969656 1_554
Ba7 O1 2.973263 1_455
Ba7 O12 3.349656 1_555
Ba7 O9 3.407843 1_555
