# generated using pymatgen
data_Na2SiF6
_symmetry_space_group_name_H-M   'P 1'
_cell_length_a   9.34512915
_cell_length_b   9.34512915
_cell_length_c   4.58200800
_cell_angle_alpha   90.00000000
_cell_angle_beta   90.00000000
_cell_angle_gamma   119.99999398
_symmetry_Int_Tables_number   1
_chemical_formula_structural   Na2SiF6
_chemical_formula_sum   'Na6 Si3 F18'
_cell_volume   346.54298870
_cell_formula_units_Z   3
loop_
 _symmetry_equiv_pos_site_id
 _symmetry_equiv_pos_as_xyz
  1  'x, y, z'
loop_
 _atom_site_type_symbol
 _atom_site_label
 _atom_site_symmetry_multiplicity
 _atom_site_fract_x
 _atom_site_fract_y
 _atom_site_fract_z
 _atom_site_occupancy
  Na  Na0  1  0.34317900  0.34317900  0.00000000  1
  Na  Na1  1  0.00000000  0.65682100  0.00000000  1
  Na  Na2  1  0.65682100  0.00000000  0.00000000  1
  Na  Na3  1  0.65682100  0.65682100  0.00000000  1
  Na  Na4  1  0.00000000  0.34317900  0.00000000  1
  Na  Na5  1  0.34317900  0.00000000  0.00000000  1
  Si  Si0  1  0.66666700  0.33333300  0.49994100  1
  Si  Si1  1  0.33333300  0.66666700  0.50005900  1
  Si  Si2  1  0.00000000  0.00000000  0.00000000  1
  F  F0  1  0.57918200  0.42081800  0.71611400  1
  F  F1  1  0.57918200  0.15836300  0.71611400  1
  F  F2  1  0.84163700  0.42081800  0.71611400  1
  F  F3  1  0.15836300  0.57918200  0.28388600  1
  F  F4  1  0.42081800  0.84163700  0.28388600  1
  F  F5  1  0.42081800  0.57918200  0.28388600  1
  F  F6  1  0.75413300  0.24586700  0.28566800  1
  F  F7  1  0.75413300  0.50826600  0.28566800  1
  F  F8  1  0.49173400  0.24586700  0.28566800  1
  F  F9  1  0.08826200  0.91173800  0.20935300  1
  F  F10  1  0.08826200  0.17652300  0.20935300  1
  F  F11  1  0.82347700  0.91173800  0.20935300  1
  F  F12  1  0.17652300  0.08826200  0.79064700  1
  F  F13  1  0.91173800  0.82347700  0.79064700  1
  F  F14  1  0.91173800  0.08826200  0.79064700  1
  F  F15  1  0.24586700  0.75413300  0.71433200  1
  F  F16  1  0.24586700  0.49173400  0.71433200  1
  F  F17  1  0.50826600  0.75413300  0.71433200  1
loop_
_geom_bond_atom_site_label_1
_geom_bond_atom_site_label_2
_geom_bond_distance
_geom_bond_site_symmetry_2
F0 Si0 1.728094 1_555
F0 Na0 2.341447 1_556
F0 Na3 2.341447 1_556
F1 Si0 1.728094 1_555
F1 Na2 2.341439 1_556
F1 Na5 2.341445 1_556
F2 Si0 1.728094 1_555
F2 Na4 2.341439 1_656
F2 Na1 2.341445 1_656
F3 Si1 1.728094 1_555
F3 Na1 2.341439 1_555
F3 Na4 2.341445 1_555
F4 Si1 1.728094 1_555
F4 Na5 2.341439 1_565
F4 Na2 2.341445 1_565
F5 Si1 1.728094 1_555
F5 Na0 2.341447 1_555
F5 Na3 2.341447 1_555
F6 Si0 1.722866 1_555
F6 Na2 2.393755 1_555
F6 Na4 2.393755 1_655
F7 Si0 1.722873 1_555
F7 Na3 2.393755 1_555
F7 Na1 2.393755 1_655
F8 Si0 1.722873 1_555
F8 Na0 2.393755 1_555
F8 Na5 2.393755 1_555
F9 Si2 1.720801 1_565
F9 Na1 2.304478 1_555
F9 Na5 2.304478 1_565
F10 Si2 1.720795 1_555
F10 Na0 2.304480 1_555
F10 Na4 2.304486 1_555
F11 Si2 1.720795 1_665
F11 Na3 2.304480 1_555
F11 Na2 2.304486 1_565
F12 Si2 1.720795 1_556
F12 Na0 2.304480 1_556
F12 Na5 2.304486 1_556
F13 Si2 1.720795 1_666
F13 Na3 2.304480 1_556
F13 Na1 2.304486 1_656
F14 Si2 1.720801 1_656
F14 Na2 2.304478 1_556
F14 Na4 2.304478 1_656
F15 Si1 1.722866 1_555
F15 Na1 2.393755 1_556
F15 Na5 2.393755 1_566
F16 Si1 1.722873 1_555
F16 Na0 2.393755 1_556
F16 Na4 2.393755 1_556
F17 Si1 1.722873 1_555
F17 Na3 2.393755 1_556
F17 Na2 2.393755 1_566
