# generated using pymatgen
data_Zr10NiSnSb4
_symmetry_space_group_name_H-M   'P 1'
_cell_length_a   5.56073700
_cell_length_b   8.38363648
_cell_length_c   8.38363648
_cell_angle_alpha   96.31454635
_cell_angle_beta   109.36849051
_cell_angle_gamma   70.63150949
_symmetry_Int_Tables_number   1
_chemical_formula_structural   Zr10NiSnSb4
_chemical_formula_sum   'Zr10 Ni1 Sn1 Sb4'
_cell_volume   347.85139579
_cell_formula_units_Z   1
loop_
 _symmetry_equiv_pos_site_id
 _symmetry_equiv_pos_as_xyz
  1  'x, y, z'
loop_
 _atom_site_type_symbol
 _atom_site_label
 _atom_site_symmetry_multiplicity
 _atom_site_fract_x
 _atom_site_fract_y
 _atom_site_fract_z
 _atom_site_occupancy
  Zr  Zr0  1  0.43256400  0.86034900  0.70702500  1
  Zr  Zr1  1  0.58588800  0.13965100  0.29297500  1
  Zr  Zr2  1  0.91411200  0.29297500  0.13965100  1
  Zr  Zr3  1  0.06743600  0.70702500  0.86034900  1
  Zr  Zr4  1  0.72553800  0.70702500  0.13965100  1
  Zr  Zr5  1  0.29291300  0.29297500  0.86034900  1
  Zr  Zr6  1  0.77446200  0.13965100  0.70702500  1
  Zr  Zr7  1  0.20708700  0.86034900  0.29297500  1
  Zr  Zr8  1  0.25000000  0.50000000  0.50000000  1
  Zr  Zr9  1  0.75000000  0.50000000  0.50000000  1
  Ni  Ni0  1  0.75000000  0.00000000  0.00000000  1
  Sn  Sn0  1  0.25000000  0.00000000  0.00000000  1
  Sb  Sb0  1  0.33628300  0.50000000  0.17256700  1
  Sb  Sb1  1  0.66371700  0.50000000  0.82743300  1
  Sb  Sb2  1  0.83628300  0.82743300  0.50000000  1
  Sb  Sb3  1  0.16371700  0.17256700  0.50000000  1
loop_
_geom_bond_atom_site_label_1
_geom_bond_atom_site_label_2
_geom_bond_distance
_geom_bond_site_symmetry_2
Zr8 Zr9 2.780368 1_555
Zr8 Zr9 2.780368 1_455
Ni0 Sn0 2.780368 1_655
Ni0 Sn0 2.780368 1_555
Ni0 Zr7 2.895157 1_645
Ni0 Zr5 2.895157 1_554
Ni0 Zr0 2.895157 1_544
Ni0 Zr3 2.895157 1_644
Ni0 Zr1 2.895157 1_555
Ni0 Zr2 2.895157 1_555
Ni0 Zr6 2.895159 1_554
Ni0 Zr4 2.895159 1_545
Sn0 Zr6 2.944011 1_454
Sn0 Zr4 2.944011 1_545
Sn0 Zr1 2.944014 1_555
Sn0 Zr2 2.944014 1_455
Sn0 Zr0 2.944014 1_544
Sn0 Zr3 2.944014 1_544
Sn0 Zr7 2.944014 1_545
Sn0 Zr5 2.944014 1_554
Sb0 Zr8 2.939263 1_555
Sb0 Zr9 2.939265 1_555
Sb0 Zr3 2.963368 1_554
Sb0 Zr5 2.963368 1_554
Sb0 Zr7 3.005395 1_555
Sb0 Zr1 3.005395 1_555
Sb0 Zr4 3.193219 1_455
Sb0 Zr2 3.193219 1_555
Sb0 Zr2 3.281340 1_455
Sb0 Zr4 3.281340 1_555
Sb1 Zr9 2.939263 1_555
Sb1 Zr8 2.939265 1_555
Sb1 Zr4 2.963368 1_556
Sb1 Zr2 2.963368 1_556
Sb1 Zr6 3.005395 1_555
Sb1 Zr0 3.005395 1_555
Sb1 Zr3 3.193215 1_655
Sb1 Zr5 3.193220 1_555
Sb1 Zr5 3.281339 1_655
Sb1 Zr3 3.281344 1_555
Sb2 Zr9 2.939263 1_555
Sb2 Zr8 2.939265 1_655
Sb2 Zr6 2.963368 1_565
Sb2 Zr1 2.963368 1_565
Sb2 Zr4 3.005395 1_555
Sb2 Zr3 3.005395 1_655
Sb2 Zr0 3.193215 1_555
Sb2 Zr7 3.193220 1_655
Sb2 Zr7 3.281339 1_555
Sb2 Zr0 3.281344 1_655
Sb3 Zr8 2.939263 1_555
Sb3 Zr9 2.939265 1_455
Sb3 Zr0 2.963368 1_545
Sb3 Zr7 2.963368 1_545
Sb3 Zr5 3.005395 1_555
Sb3 Zr2 3.005395 1_455
Sb3 Zr6 3.193219 1_555
Sb3 Zr1 3.193219 1_455
Sb3 Zr1 3.281340 1_555
Sb3 Zr6 3.281340 1_455
