# generated using pymatgen
data_TbTaTiO6
_symmetry_space_group_name_H-M   'P 1'
_cell_length_a   5.25056500
_cell_length_b   7.45333000
_cell_length_c   11.09021600
_cell_angle_alpha   90.00000000
_cell_angle_beta   90.00000000
_cell_angle_gamma   90.00000000
_symmetry_Int_Tables_number   1
_chemical_formula_structural   TbTaTiO6
_chemical_formula_sum   'Tb4 Ta4 Ti4 O24'
_cell_volume   434.00666036
_cell_formula_units_Z   4
loop_
 _symmetry_equiv_pos_site_id
 _symmetry_equiv_pos_as_xyz
  1  'x, y, z'
loop_
 _atom_site_type_symbol
 _atom_site_label
 _atom_site_symmetry_multiplicity
 _atom_site_fract_x
 _atom_site_fract_y
 _atom_site_fract_z
 _atom_site_occupancy
  Tb  Tb0  1  0.45492400  0.74849500  0.95552300  1
  Tb  Tb1  1  0.04507600  0.74849500  0.45552300  1
  Tb  Tb2  1  0.54507600  0.24849500  0.04447700  1
  Tb  Tb3  1  0.95492400  0.24849500  0.54447700  1
  Ta  Ta0  1  0.46048800  0.50709700  0.64364400  1
  Ta  Ta1  1  0.53951200  0.00709700  0.35635600  1
  Ta  Ta2  1  0.96048800  0.00709700  0.85635600  1
  Ta  Ta3  1  0.03951200  0.50709700  0.14364400  1
  Ti  Ti0  1  0.03708600  0.99192300  0.14228700  1
  Ti  Ti1  1  0.96291400  0.49192300  0.85771300  1
  Ti  Ti2  1  0.53708600  0.49192300  0.35771300  1
  Ti  Ti3  1  0.46291400  0.99192300  0.64228700  1
  O  O0  1  0.24055400  0.04224700  0.97252400  1
  O  O1  1  0.26342400  0.45829600  0.47443500  1
  O  O2  1  0.75944600  0.54224700  0.02747600  1
  O  O3  1  0.73657600  0.95829600  0.52556500  1
  O  O4  1  0.76342400  0.95829600  0.02556500  1
  O  O5  1  0.74055400  0.54224700  0.52747600  1
  O  O6  1  0.23657600  0.45829600  0.97443500  1
  O  O7  1  0.25944600  0.04224700  0.47252400  1
  O  O8  1  0.17491600  0.75234600  0.11776800  1
  O  O9  1  0.32508400  0.75234600  0.61776800  1
  O  O10  1  0.82508400  0.25234600  0.88223200  1
  O  O11  1  0.67491600  0.25234600  0.38223200  1
  O  O12  1  0.62096100  0.56651800  0.79233400  1
  O  O13  1  0.88373700  0.93445700  0.28960900  1
  O  O14  1  0.37903900  0.06651800  0.20766600  1
  O  O15  1  0.11626300  0.43445700  0.71039100  1
  O  O16  1  0.38373700  0.43445700  0.21039100  1
  O  O17  1  0.12096100  0.06651800  0.70766600  1
  O  O18  1  0.61626300  0.93445700  0.78960900  1
  O  O19  1  0.87903900  0.56651800  0.29233400  1
  O  O20  1  0.06059600  0.74862200  0.85597200  1
  O  O21  1  0.43940400  0.74862200  0.35597200  1
  O  O22  1  0.93940400  0.24862200  0.14402800  1
  O  O23  1  0.56059600  0.24862200  0.64402800  1
loop_
_geom_bond_atom_site_label_1
_geom_bond_atom_site_label_2
_geom_bond_distance
_geom_bond_site_symmetry_2
O0 Ta2 1.972514 1_455
O0 Ti0 2.196950 1_546
O0 Tb2 2.357196 1_556
O0 Tb0 2.469018 1_545
O1 Ti2 1.950154 1_555
O1 Ta0 2.173567 1_555
O1 Tb3 2.381669 1_455
O1 Tb1 2.456967 1_555
O2 Ta3 1.972514 1_655
O2 Ti1 2.196950 1_554
O2 Tb0 2.357196 1_554
O2 Tb2 2.469018 1_555
O3 Ti3 1.950154 1_555
O3 Ta1 2.173567 1_565
O3 Tb1 2.381669 1_655
O3 Tb3 2.456967 1_565
O4 Ti0 1.950154 1_655
O4 Ta2 2.173567 1_564
O4 Tb0 2.381669 1_554
O4 Tb2 2.456967 1_565
O5 Ta0 1.972514 1_555
O5 Ti2 2.196950 1_555
O5 Tb1 2.357196 1_655
O5 Tb3 2.469018 1_555
O6 Ti1 1.950154 1_455
O6 Ta3 2.173567 1_556
O6 Tb2 2.381669 1_556
O6 Tb0 2.456967 1_555
O7 Ta1 1.972514 1_555
O7 Ti3 2.196950 1_545
O7 Tb3 2.357196 1_455
O7 Tb1 2.469018 1_545
O8 Ti0 1.945815 1_555
O8 Ta3 1.982195 1_555
O8 Tb0 2.323770 1_554
O9 Ti3 1.945815 1_555
O9 Ta0 1.982195 1_555
O9 Tb1 2.323770 1_555
O10 Ti1 1.945815 1_555
O10 Ta2 1.982195 1_555
O10 Tb2 2.323770 1_556
O11 Ti2 1.945815 1_555
O11 Ta1 1.982195 1_555
O11 Tb3 2.323770 1_555
O12 Ta0 1.904020 1_555
O12 Ti1 2.014563 1_555
O12 Tb0 2.423848 1_555
O13 Ti0 1.871138 1_655
O13 Ta1 2.026742 1_565
O13 Tb1 2.454464 1_655
O14 Ta1 1.904020 1_555
O14 Ti0 2.014563 1_545
O14 Tb2 2.423848 1_555
O15 Ti1 1.871138 1_455
O15 Ta0 2.026742 1_555
O15 Tb3 2.454464 1_455
O16 Ti2 1.871138 1_555
O16 Ta3 2.026742 1_555
O16 Tb2 2.454464 1_555
O17 Ta2 1.904020 1_455
O17 Ti3 2.014563 1_545
O17 Tb3 2.423848 1_455
O18 Ti3 1.871138 1_555
O18 Ta2 2.026742 1_565
O18 Tb0 2.454464 1_555
O19 Ta3 1.904020 1_655
O19 Ti2 2.014563 1_555
O19 Tb1 2.423848 1_655
O20 Ti1 1.980908 1_455
O20 Ta2 1.996922 1_465
O20 Tb0 2.346412 1_555
O21 Ti2 1.980908 1_555
O21 Ta1 1.996922 1_565
O21 Tb1 2.346412 1_555
O22 Ti0 1.980908 1_645
O22 Ta3 1.996922 1_655
O22 Tb2 2.346412 1_555
O23 Ti3 1.980908 1_545
O23 Ta0 1.996922 1_555
O23 Tb3 2.346412 1_555
