# generated using pymatgen
data_Ho3(Ga2Cu)2
_symmetry_space_group_name_H-M   'P 1'
_cell_length_a   4.31956746
_cell_length_b   4.31956746
_cell_length_c   21.98910200
_cell_angle_alpha   90.00000000
_cell_angle_beta   90.00000000
_cell_angle_gamma   119.99999176
_symmetry_Int_Tables_number   1
_chemical_formula_structural   Ho3(Ga2Cu)2
_chemical_formula_sum   'Ho6 Ga8 Cu4'
_cell_volume   355.31920667
_cell_formula_units_Z   2
loop_
 _symmetry_equiv_pos_site_id
 _symmetry_equiv_pos_as_xyz
  1  'x, y, z'
loop_
 _atom_site_type_symbol
 _atom_site_label
 _atom_site_symmetry_multiplicity
 _atom_site_fract_x
 _atom_site_fract_y
 _atom_site_fract_z
 _atom_site_occupancy
  Ho  Ho0  1  0.00000000  0.00000000  0.25640800  1
  Ho  Ho1  1  0.00000000  0.00000000  0.58932700  1
  Ho  Ho2  1  0.00000000  0.00000000  0.92201600  1
  Ho  Ho3  1  0.00000000  0.00000000  0.07858900  1
  Ho  Ho4  1  0.00000000  0.00000000  0.41274900  1
  Ho  Ho5  1  0.00000000  0.00000000  0.74535700  1
  Ga  Ga0  1  0.33333300  0.66666700  0.33962500  1
  Ga  Ga1  1  0.33333300  0.66666700  0.67259100  1
  Ga  Ga2  1  0.33333300  0.66666700  0.15461200  1
  Ga  Ga3  1  0.33333300  0.66666700  0.48743900  1
  Ga  Ga4  1  0.33333300  0.66666700  0.81995600  1
  Ga  Ga5  1  0.66666700  0.33333300  0.18075100  1
  Ga  Ga6  1  0.66666700  0.33333300  0.51323100  1
  Ga  Ga7  1  0.66666700  0.33333300  0.84544600  1
  Cu  Cu0  1  0.66666700  0.33333300  0.32498900  1
  Cu  Cu1  1  0.66666700  0.33333300  0.65726600  1
  Cu  Cu2  1  0.66666700  0.33333300  0.99243500  1
  Cu  Cu3  1  0.33333300  0.66666700  0.00721400  1
loop_
_geom_bond_atom_site_label_1
_geom_bond_atom_site_label_2
_geom_bond_distance
_geom_bond_site_symmetry_2
Ga0 Ho4 2.967319 1_565
Ga0 Ho4 2.967323 1_665
Ga0 Ho4 2.967323 1_555
Ga0 Ho0 3.093211 1_565
Ga0 Ho0 3.093214 1_665
Ga0 Ho0 3.093214 1_555
Ga1 Ho5 2.963061 1_565
Ga1 Ho5 2.963064 1_555
Ga1 Ho5 2.963064 1_665
Ga1 Ho1 3.093823 1_565
Ga1 Ho1 3.093826 1_665
Ga1 Ho1 3.093826 1_555
Ga2 Ga5 2.559279 1_455
Ga2 Ga5 2.559279 1_565
Ga2 Ga5 2.559286 1_555
Ga2 Ho3 3.002340 1_565
Ga2 Ho3 3.002344 1_665
Ga2 Ho3 3.002344 1_555
Ga2 Ho0 3.351117 1_565
Ga2 Ho0 3.351120 1_665
Ga2 Ho0 3.351120 1_555
Ga3 Ga6 2.557576 1_455
Ga3 Ga6 2.557576 1_565
Ga3 Ga6 2.557583 1_555
Ga3 Ho4 2.986119 1_565
Ga3 Ho4 2.986123 1_665
Ga3 Ho4 2.986123 1_555
Ga3 Ho1 3.352469 1_565
Ga3 Ho1 3.352472 1_665
Ga3 Ho1 3.352472 1_555
Ga4 Ga7 2.556111 1_455
Ga4 Ga7 2.556111 1_565
Ga4 Ga7 2.556118 1_555
Ga4 Ho5 2.985019 1_565
Ga4 Ho5 2.985022 1_555
Ga4 Ho5 2.985022 1_665
Ga4 Ho2 3.354998 1_565
Ga4 Ho2 3.355001 1_665
Ga4 Ho2 3.355001 1_555
Ga5 Ho0 2.997867 1_655
Ga5 Ho0 2.997870 1_555
Ga5 Ho0 2.997870 1_665
Ga5 Ho3 3.356498 1_655
Ga5 Ho3 3.356501 1_555
Ga5 Ho3 3.356501 1_665
Ga6 Ho1 3.003234 1_655
Ga6 Ho1 3.003238 1_555
Ga6 Ho1 3.003238 1_665
Ga6 Ho4 3.331887 1_655
Ga6 Ho4 3.331890 1_665
Ga6 Ho4 3.331890 1_555
Ga7 Ho2 3.009054 1_655
Ga7 Ho2 3.009057 1_555
Ga7 Ho2 3.009057 1_665
Ga7 Ho5 3.326163 1_655
Ga7 Ho5 3.326166 1_555
Ga7 Ho5 3.326166 1_665
Cu0 Ga0 2.514581 1_655
Cu0 Ga0 2.514581 1_545
Cu0 Ga0 2.514588 1_555
Cu0 Ho0 2.914397 1_655
Cu0 Ho0 2.914400 1_555
Cu0 Ho0 2.914400 1_665
Cu0 Ho4 3.153336 1_655
Cu0 Ho4 3.153339 1_555
Cu0 Ho4 3.153339 1_665
Cu0 Ga5 3.171664 1_555
Cu1 Ga1 2.516565 1_655
Cu1 Ga1 2.516565 1_545
Cu1 Ga1 2.516572 1_555
Cu1 Ho1 2.907117 1_655
Cu1 Ho1 2.907121 1_555
Cu1 Ho1 2.907121 1_665
Cu1 Ho5 3.157796 1_655
Cu1 Ho5 3.157799 1_555
Cu1 Ho5 3.157799 1_665
Cu1 Ga6 3.167200 1_555
Cu2 Cu3 2.514986 1_656
Cu2 Cu3 2.514986 1_546
Cu2 Cu3 2.514993 1_556
Cu2 Ho2 2.935514 1_655
Cu2 Ho2 2.935517 1_665
Cu2 Ho2 2.935517 1_555
Cu2 Ho3 3.131849 1_656
Cu2 Ho3 3.131852 1_666
Cu2 Ho3 3.131852 1_556
Cu2 Ga7 3.232156 1_555
Cu3 Ho3 2.946656 1_565
Cu3 Ho3 2.946660 1_665
Cu3 Ho3 2.946660 1_555
Cu3 Ho2 3.119178 1_564
Cu3 Ho2 3.119181 1_664
Cu3 Ho2 3.119181 1_554
Cu3 Ga2 3.241150 1_555
