# generated using pymatgen
data_Ba2SmSbO6
_symmetry_space_group_name_H-M   'P 1'
_cell_length_a   8.62566607
_cell_length_b   8.62566607
_cell_length_c   8.62566607
_cell_angle_alpha   90.00000000
_cell_angle_beta   90.00000000
_cell_angle_gamma   90.00000000
_symmetry_Int_Tables_number   1
_chemical_formula_structural   Ba2SmSbO6
_chemical_formula_sum   'Ba8 Sm4 Sb4 O24'
_cell_volume   641.76780020
_cell_formula_units_Z   4
loop_
 _symmetry_equiv_pos_site_id
 _symmetry_equiv_pos_as_xyz
  1  'x, y, z'
loop_
 _atom_site_type_symbol
 _atom_site_label
 _atom_site_symmetry_multiplicity
 _atom_site_fract_x
 _atom_site_fract_y
 _atom_site_fract_z
 _atom_site_occupancy
  Ba  Ba0  1  0.50000000  0.50000000  0.50000000  1
  Ba  Ba1  1  -0.00000000  -0.00000000  -0.00000000  1
  Ba  Ba2  1  0.00000000  -0.00000000  0.50000000  1
  Ba  Ba3  1  -0.00000000  0.50000000  -0.00000000  1
  Ba  Ba4  1  0.50000000  -0.00000000  0.00000000  1
  Ba  Ba5  1  0.50000000  0.50000000  0.00000000  1
  Ba  Ba6  1  0.50000000  -0.00000000  0.50000000  1
  Ba  Ba7  1  0.00000000  0.50000000  0.50000000  1
  Sm  Sm0  1  0.25000000  0.25000000  0.25000000  1
  Sm  Sm1  1  0.25000000  0.75000000  0.75000000  1
  Sm  Sm2  1  0.75000000  0.25000000  0.75000000  1
  Sm  Sm3  1  0.75000000  0.75000000  0.25000000  1
  Sb  Sb0  1  0.75000000  0.75000000  0.75000000  1
  Sb  Sb1  1  0.75000000  0.25000000  0.25000000  1
  Sb  Sb2  1  0.25000000  0.75000000  0.25000000  1
  Sb  Sb3  1  0.25000000  0.25000000  0.75000000  1
  O  O0  1  0.23799870  0.26344875  0.51620020  1
  O  O1  1  0.23799870  0.73655125  0.48379980  1
  O  O2  1  0.76200130  0.26344875  0.48379980  1
  O  O3  1  0.76200130  0.73655125  0.51620020  1
  O  O4  1  0.26344875  0.51620020  0.23799870  1
  O  O5  1  0.73655125  0.48379980  0.23799870  1
  O  O6  1  0.26344875  0.48379980  0.76200130  1
  O  O7  1  0.73655125  0.51620020  0.76200130  1
  O  O8  1  0.51620020  0.23799870  0.26344875  1
  O  O9  1  0.48379980  0.23799870  0.73655125  1
  O  O10  1  0.48379980  0.76200130  0.26344875  1
  O  O11  1  0.51620020  0.76200130  0.73655125  1
  O  O12  1  0.26200130  0.23655125  0.98379980  1
  O  O13  1  0.26200130  0.76344875  0.01620020  1
  O  O14  1  0.73799870  0.23655125  0.01620020  1
  O  O15  1  0.73799870  0.76344875  0.98379980  1
  O  O16  1  0.23655125  0.98379980  0.26200130  1
  O  O17  1  0.76344875  0.01620020  0.26200130  1
  O  O18  1  0.23655125  0.01620020  0.73799870  1
  O  O19  1  0.76344875  0.98379980  0.73799870  1
  O  O20  1  0.98379980  0.26200130  0.23655125  1
  O  O21  1  0.01620020  0.26200130  0.76344875  1
  O  O22  1  0.01620020  0.73799870  0.23655125  1
  O  O23  1  0.98379980  0.73799870  0.76344875  1
loop_
_geom_bond_atom_site_label_1
_geom_bond_atom_site_label_2
_geom_bond_distance
_geom_bond_site_symmetry_2
Ba0 O2 3.047969 1_555
Ba0 O11 3.047969 1_555
Ba0 O6 3.047969 1_555
Ba0 O7 3.047969 1_555
Ba0 O10 3.047969 1_555
Ba0 O3 3.047969 1_555
Ba0 O0 3.047969 1_555
Ba0 O4 3.047969 1_555
Ba0 O1 3.047969 1_555
Ba0 O5 3.047969 1_555
Ba0 O8 3.047969 1_555
Ba0 O9 3.047969 1_555
Ba1 O21 3.047969 1_554
Ba1 O22 3.047969 1_545
Ba1 O20 3.047969 1_455
Ba1 O17 3.047969 1_455
Ba1 O19 3.047969 1_444
Ba1 O16 3.047969 1_545
Ba1 O18 3.047969 1_554
Ba1 O23 3.047969 1_444
Ba1 O12 3.047969 1_554
Ba1 O13 3.047969 1_545
Ba1 O15 3.047969 1_444
Ba1 O14 3.047969 1_455
Ba2 O18 2.897791 1_555
Ba2 O17 2.897791 1_455
Ba2 O19 2.897791 1_445
Ba2 O16 2.897791 1_545
Ba2 O1 3.065585 1_545
Ba2 O0 3.065585 1_555
Ba2 O2 3.065585 1_455
Ba2 O3 3.065585 1_445
Ba2 O22 3.207917 1_545
Ba2 O21 3.207917 1_555
Ba2 O20 3.207917 1_455
Ba2 O23 3.207917 1_445
Ba3 O23 2.897791 1_454
Ba3 O22 2.897791 1_555
Ba3 O20 2.897791 1_455
Ba3 O21 2.897791 1_554
Ba3 O4 3.065585 1_555
Ba3 O5 3.065585 1_455
Ba3 O6 3.065585 1_554
Ba3 O7 3.065585 1_454
Ba3 O14 3.207917 1_455
Ba3 O13 3.207917 1_555
Ba3 O12 3.207917 1_554
Ba3 O15 3.207917 1_454
Ba4 O14 2.897791 1_555
Ba4 O12 2.897791 1_554
Ba4 O13 2.897791 1_545
Ba4 O15 2.897791 1_544
Ba4 O8 3.065585 1_555
Ba4 O9 3.065585 1_554
Ba4 O11 3.065585 1_544
Ba4 O10 3.065585 1_545
Ba4 O17 3.207917 1_555
Ba4 O18 3.207917 1_554
Ba4 O19 3.207917 1_544
Ba4 O16 3.207917 1_545
Ba5 O5 2.897791 1_555
Ba5 O4 2.897791 1_555
Ba5 O6 2.897791 1_554
Ba5 O7 2.897791 1_554
Ba5 O13 3.065585 1_555
Ba5 O14 3.065585 1_555
Ba5 O15 3.065585 1_554
Ba5 O12 3.065585 1_554
Ba5 O10 3.207917 1_555
Ba5 O11 3.207917 1_554
Ba5 O8 3.207917 1_555
Ba5 O9 3.207917 1_554
Ba6 O8 2.897791 1_555
Ba6 O9 2.897791 1_555
Ba6 O10 2.897791 1_545
Ba6 O11 2.897791 1_545
Ba6 O17 3.065585 1_555
Ba6 O18 3.065585 1_555
Ba6 O19 3.065585 1_545
Ba6 O16 3.065585 1_545
Ba6 O3 3.207917 1_545
Ba6 O2 3.207917 1_555
Ba6 O1 3.207917 1_545
Ba6 O0 3.207917 1_555
Ba7 O0 2.897791 1_555
Ba7 O1 2.897791 1_555
Ba7 O3 2.897791 1_455
Ba7 O2 2.897791 1_455
Ba7 O21 3.065585 1_555
Ba7 O22 3.065585 1_555
Ba7 O20 3.065585 1_455
Ba7 O23 3.065585 1_455
Ba7 O6 3.207917 1_555
Ba7 O7 3.207917 1_455
Ba7 O4 3.207917 1_555
Ba7 O5 3.207917 1_455
O0 Sb3 2.022663 1_555
O0 Sm0 2.301412 1_555
O1 Sb2 2.022663 1_555
O1 Sm1 2.301412 1_555
O2 Sb1 2.022663 1_555
O2 Sm2 2.301412 1_555
O3 Sb0 2.022663 1_555
O3 Sm3 2.301412 1_555
O4 Sb2 2.022663 1_555
O4 Sm0 2.301412 1_555
O5 Sb1 2.022663 1_555
O5 Sm3 2.301412 1_555
O6 Sb3 2.022663 1_555
O6 Sm1 2.301412 1_555
O7 Sb0 2.022663 1_555
O7 Sm2 2.301412 1_555
O8 Sb1 2.022663 1_555
O8 Sm0 2.301412 1_555
O9 Sb3 2.022663 1_555
O9 Sm2 2.301412 1_555
O10 Sb2 2.022663 1_555
O10 Sm3 2.301412 1_555
O11 Sb0 2.022663 1_555
O11 Sm1 2.301412 1_555
O12 Sb3 2.022663 1_555
O12 Sm0 2.301412 1_556
O13 Sb2 2.022663 1_555
O13 Sm1 2.301412 1_554
O14 Sb1 2.022663 1_555
O14 Sm2 2.301412 1_554
O15 Sb0 2.022663 1_555
O15 Sm3 2.301412 1_556
O16 Sb2 2.022663 1_555
O16 Sm0 2.301412 1_565
O17 Sb1 2.022663 1_555
O17 Sm3 2.301412 1_545
O18 Sb3 2.022663 1_555
O18 Sm1 2.301412 1_545
O19 Sb0 2.022663 1_555
O19 Sm2 2.301412 1_565
O20 Sb1 2.022663 1_555
O20 Sm0 2.301412 1_655
O21 Sb3 2.022663 1_555
O21 Sm2 2.301412 1_455
O22 Sb2 2.022663 1_555
O22 Sm3 2.301412 1_455
O23 Sb0 2.022663 1_555
O23 Sm1 2.301412 1_655
