# generated using pymatgen
data_La2Cu2O5
_symmetry_space_group_name_H-M   'P 1'
_cell_length_a   6.66076300
_cell_length_b   6.66076300
_cell_length_c   5.59504300
_cell_angle_alpha   90.00000000
_cell_angle_beta   90.00000000
_cell_angle_gamma   90.00000000
_symmetry_Int_Tables_number   1
_chemical_formula_structural   La2Cu2O5
_chemical_formula_sum   'La4 Cu4 O10'
_cell_volume   248.22835587
_cell_formula_units_Z   2
loop_
 _symmetry_equiv_pos_site_id
 _symmetry_equiv_pos_as_xyz
  1  'x, y, z'
loop_
 _atom_site_type_symbol
 _atom_site_label
 _atom_site_symmetry_multiplicity
 _atom_site_fract_x
 _atom_site_fract_y
 _atom_site_fract_z
 _atom_site_occupancy
  La  La0  1  0.73385800  0.11084000  0.50000000  1
  La  La1  1  0.88916000  0.73385800  0.00000000  1
  La  La2  1  0.26614200  0.88916000  0.50000000  1
  La  La3  1  0.11084000  0.26614200  0.00000000  1
  Cu  Cu0  1  0.58957600  0.31289100  0.00000000  1
  Cu  Cu1  1  0.31289100  0.41042400  0.50000000  1
  Cu  Cu2  1  0.41042400  0.68710900  0.00000000  1
  Cu  Cu3  1  0.68710900  0.58957600  0.50000000  1
  O  O0  1  0.59324200  0.78782400  0.25888800  1
  O  O1  1  0.78782400  0.40675800  0.75888800  1
  O  O2  1  0.40675800  0.21217600  0.74111200  1
  O  O3  1  0.40675800  0.21217600  0.25888800  1
  O  O4  1  0.00000000  0.00000000  0.75000000  1
  O  O5  1  0.21217600  0.59324200  0.75888800  1
  O  O6  1  0.21217600  0.59324200  0.24111200  1
  O  O7  1  0.59324200  0.78782400  0.74111200  1
  O  O8  1  0.00000000  0.00000000  0.25000000  1
  O  O9  1  0.78782400  0.40675800  0.24111200  1
loop_
_geom_bond_atom_site_label_1
_geom_bond_atom_site_label_2
_geom_bond_distance
_geom_bond_site_symmetry_2
La0 O4 2.375728 1_655
La0 O8 2.375728 1_655
La0 O9 2.472312 1_555
La0 O1 2.472312 1_555
La0 O2 2.649975 1_555
La0 O3 2.649975 1_555
La0 O0 2.706699 1_545
La0 O7 2.706699 1_545
La1 O4 2.375728 1_664
La1 O8 2.375728 1_665
La1 O7 2.472312 1_554
La1 O0 2.472312 1_555
La1 O1 2.649975 1_554
La1 O9 2.649975 1_555
La1 O5 2.706699 1_654
La1 O6 2.706699 1_655
La2 O8 2.375728 1_565
La2 O4 2.375728 1_565
La2 O5 2.472312 1_555
La2 O6 2.472312 1_555
La2 O7 2.649975 1_555
La2 O0 2.649975 1_555
La2 O2 2.706699 1_565
La2 O3 2.706699 1_565
La3 O8 2.375728 1_555
La3 O4 2.375728 1_554
La3 O3 2.472312 1_555
La3 O2 2.472312 1_554
La3 O5 2.649975 1_554
La3 O6 2.649975 1_555
La3 O9 2.706699 1_455
La3 O1 2.706699 1_454
Cu0 O1 1.988585 1_554
Cu0 O9 1.988585 1_555
Cu0 O3 2.007725 1_555
Cu0 O2 2.007725 1_554
Cu1 O2 1.988585 1_555
Cu1 O3 1.988585 1_555
Cu1 O5 2.007725 1_555
Cu1 O6 2.007725 1_555
Cu2 O5 1.988585 1_554
Cu2 O6 1.988585 1_555
Cu2 O7 2.007725 1_554
Cu2 O0 2.007725 1_555
Cu3 O0 1.988585 1_555
Cu3 O7 1.988585 1_555
Cu3 O1 2.007725 1_555
Cu3 O9 2.007725 1_555
