# generated using pymatgen
data_Li9Mn2Co5O16
_symmetry_space_group_name_H-M   'P 1'
_cell_length_a   5.12169200
_cell_length_b   7.65320107
_cell_length_c   7.85048913
_cell_angle_alpha   81.66618455
_cell_angle_beta   84.58646913
_cell_angle_gamma   71.66493364
_symmetry_Int_Tables_number   1
_chemical_formula_structural   Li9Mn2Co5O16
_chemical_formula_sum   'Li9 Mn2 Co5 O16'
_cell_volume   288.62240059
_cell_formula_units_Z   1
loop_
 _symmetry_equiv_pos_site_id
 _symmetry_equiv_pos_as_xyz
  1  'x, y, z'
loop_
 _atom_site_type_symbol
 _atom_site_label
 _atom_site_symmetry_multiplicity
 _atom_site_fract_x
 _atom_site_fract_y
 _atom_site_fract_z
 _atom_site_occupancy
  Li  Li0  1  0.50094900  0.56049800  0.82596100  1
  Li  Li1  1  0.49922700  0.81522200  0.06204700  1
  Li  Li2  1  0.49905100  0.43950200  0.17403900  1
  Li  Li3  1  0.50040300  0.69024700  0.43505800  1
  Li  Li4  1  0.49959700  0.30975300  0.56494200  1
  Li  Li5  1  0.50077300  0.18477800  0.93795300  1
  Li  Li6  1  0.49818700  0.06349900  0.30796800  1
  Li  Li7  1  0.50181300  0.93650100  0.69203200  1
  Li  Li8  1  0.00000000  0.50000000  0.00000000  1
  Mn  Mn0  1  0.99982300  0.62323800  0.62796900  1
  Mn  Mn1  1  0.00017700  0.37676200  0.37203100  1
  Co  Co0  1  0.00548000  0.86410800  0.88002300  1
  Co  Co1  1  0.99452000  0.13589200  0.11997700  1
  Co  Co2  1  0.99936800  0.75230400  0.23994500  1
  Co  Co3  1  0.00000000  0.00000000  0.50000000  1
  Co  Co4  1  0.00063200  0.24769600  0.76005500  1
  O  O0  1  0.78075800  0.46846100  0.58520300  1
  O  O1  1  0.77542400  0.71315200  0.82229200  1
  O  O2  1  0.76152000  0.32856100  0.97265500  1
  O  O3  1  0.77435000  0.59047100  0.23436700  1
  O  O4  1  0.76870300  0.22547300  0.34765900  1
  O  O5  1  0.77856500  0.09043300  0.72140400  1
  O  O6  1  0.76272900  0.96173200  0.08965500  1
  O  O7  1  0.77829100  0.83921200  0.47581400  1
  O  O8  1  0.23848000  0.67143900  0.02734500  1
  O  O9  1  0.22143500  0.90956700  0.27859600  1
  O  O10  1  0.21924200  0.53153900  0.41479700  1
  O  O11  1  0.23129700  0.77452700  0.65234100  1
  O  O12  1  0.22565000  0.40952900  0.76563300  1
  O  O13  1  0.22457600  0.28684800  0.17770800  1
  O  O14  1  0.22170900  0.16078800  0.52418600  1
  O  O15  1  0.23727100  0.03826800  0.91034500  1
loop_
_geom_bond_atom_site_label_1
_geom_bond_atom_site_label_2
_geom_bond_distance
_geom_bond_site_symmetry_2
Li0 O8 2.073030 1_556
Li0 O1 2.087542 1_555
Li0 O2 2.113089 1_555
Li0 O11 2.175533 1_555
Li0 O12 2.203838 1_555
Li0 O0 2.315603 1_555
Li1 O8 2.036830 1_555
Li1 O6 2.050187 1_555
Li1 O15 2.098466 1_564
Li1 O9 2.165359 1_555
Li1 O3 2.221374 1_555
Li1 O1 2.320032 1_554
Li2 O2 2.073030 1_554
Li2 O13 2.087542 1_555
Li2 O8 2.113089 1_555
Li2 O4 2.175533 1_555
Li2 O3 2.203838 1_555
Li2 O10 2.315603 1_555
Li3 O3 2.071607 1_555
Li3 O0 2.130310 1_555
Li3 O11 2.131052 1_555
Li3 O9 2.142939 1_555
Li3 O7 2.154131 1_555
Li3 O10 2.184931 1_555
Li4 O12 2.071607 1_555
Li4 O10 2.130310 1_555
Li4 O4 2.131052 1_555
Li4 O5 2.142939 1_555
Li4 O14 2.154131 1_555
Li4 O0 2.184931 1_555
Li5 O2 2.036830 1_555
Li5 O15 2.050187 1_555
Li5 O6 2.098466 1_546
Li5 O5 2.165359 1_555
Li5 O12 2.221374 1_555
Li5 O13 2.320032 1_556
Li6 O13 2.046455 1_555
Li6 O9 2.154333 1_545
Li6 O6 2.159760 1_545
Li6 O14 2.165703 1_555
Li6 O4 2.197121 1_555
Li6 O7 2.211904 1_545
Li7 O1 2.046455 1_555
Li7 O5 2.154333 1_565
Li7 O15 2.159760 1_565
Li7 O7 2.165703 1_555
Li7 O11 2.197121 1_555
Li7 O14 2.211904 1_565
Li8 O1 2.095941 1_454
Li8 O13 2.095941 1_555
Li8 O8 2.097338 1_555
Li8 O2 2.097338 1_454
Li8 O12 2.159840 1_554
Li8 O3 2.159840 1_455
Mn0 O1 1.896727 1_555
Mn0 O12 1.927197 1_655
Mn0 O11 1.937355 1_655
Mn0 O0 1.948644 1_555
Mn0 O7 1.987389 1_555
Mn0 O10 2.011330 1_655
Mn1 O13 1.896727 1_555
Mn1 O3 1.927197 1_455
Mn1 O4 1.937355 1_455
Mn1 O10 1.948644 1_555
Mn1 O14 1.987389 1_555
Mn1 O0 2.011330 1_455
Co0 O8 1.896035 1_556
Co0 O1 2.009334 1_455
Co0 O6 2.048976 1_456
Co0 O5 2.069501 1_465
Co0 O15 2.093661 1_565
Co0 O11 2.113957 1_555
Co1 O2 1.896035 1_554
Co1 O13 2.009334 1_655
Co1 O15 2.048976 1_654
Co1 O9 2.069501 1_645
Co1 O6 2.093661 1_545
Co1 O4 2.113957 1_555
Co2 O3 1.946117 1_555
Co2 O9 1.966325 1_655
Co2 O6 1.982270 1_555
Co2 O8 2.026158 1_655
Co2 O10 2.104598 1_655
Co2 O7 2.154252 1_555
Co3 O14 1.956331 1_555
Co3 O7 1.956331 1_445
Co3 O4 2.048002 1_455
Co3 O11 2.048002 1_545
Co3 O9 2.066220 1_545
Co3 O5 2.066220 1_455
Co4 O12 1.946117 1_555
Co4 O5 1.966325 1_455
Co4 O15 1.982270 1_555
Co4 O2 2.026158 1_455
Co4 O0 2.104598 1_455
Co4 O14 2.154252 1_555
