# generated using pymatgen
data_MgSi2
_symmetry_space_group_name_H-M   'P 1'
_cell_length_a   6.54246900
_cell_length_b   6.85855601
_cell_length_c   10.66464715
_cell_angle_alpha   94.14718566
_cell_angle_beta   89.49520982
_cell_angle_gamma   100.15075938
_symmetry_Int_Tables_number   1
_chemical_formula_structural   MgSi2
_chemical_formula_sum   'Mg8 Si16'
_cell_volume   469.81525492
_cell_formula_units_Z   8
loop_
 _symmetry_equiv_pos_site_id
 _symmetry_equiv_pos_as_xyz
  1  'x, y, z'
loop_
 _atom_site_type_symbol
 _atom_site_label
 _atom_site_symmetry_multiplicity
 _atom_site_fract_x
 _atom_site_fract_y
 _atom_site_fract_z
 _atom_site_occupancy
  Mg  Mg0  1  0.25842500  0.16025800  0.26172900  1
  Mg  Mg1  1  0.74157500  0.83974200  0.73827100  1
  Mg  Mg2  1  0.78042400  0.59656800  0.98433100  1
  Mg  Mg3  1  0.59016600  0.35019000  0.73700400  1
  Mg  Mg4  1  0.79338600  0.01794700  0.14419000  1
  Mg  Mg5  1  0.20661400  0.98205300  0.85581000  1
  Mg  Mg6  1  0.40983400  0.64981000  0.26299600  1
  Mg  Mg7  1  0.21957600  0.40343200  0.01566900  1
  Si  Si0  1  0.45809100  0.32598400  0.47108400  1
  Si  Si1  1  0.88382100  0.18664100  0.87696700  1
  Si  Si2  1  0.44607700  0.81911600  0.01927900  1
  Si  Si3  1  0.27169500  0.11865800  0.61950000  1
  Si  Si4  1  0.61804300  0.37024700  0.17360800  1
  Si  Si5  1  0.21949600  0.78610500  0.53275900  1
  Si  Si6  1  0.72830500  0.88134200  0.38050000  1
  Si  Si7  1  0.97696200  0.26779300  0.65961400  1
  Si  Si8  1  0.11617900  0.81335900  0.12303300  1
  Si  Si9  1  0.78050400  0.21389500  0.46724100  1
  Si  Si10  1  0.02303800  0.73220700  0.34038600  1
  Si  Si11  1  0.38195700  0.62975300  0.82639200  1
  Si  Si12  1  0.94043600  0.38257400  0.29164000  1
  Si  Si13  1  0.55392300  0.18088400  0.98072100  1
  Si  Si14  1  0.05956400  0.61742600  0.70836000  1
  Si  Si15  1  0.54190900  0.67401600  0.52891600  1
loop_
_geom_bond_atom_site_label_1
_geom_bond_atom_site_label_2
_geom_bond_distance
_geom_bond_site_symmetry_2
Mg0 Si0 2.672883 1_555
Mg0 Si8 2.729370 1_545
Mg0 Si4 2.730469 1_555
Mg0 Si12 2.791227 1_455
Mg0 Si10 3.230188 1_545
Mg1 Si15 2.672883 1_555
Mg1 Si1 2.729370 1_565
Mg1 Si11 2.730469 1_555
Mg1 Si14 2.791227 1_655
Mg1 Si7 3.230188 1_565
Mg2 Si4 2.728893 1_556
Mg2 Si8 2.795010 1_656
Mg2 Si2 2.886842 1_556
Mg2 Si13 2.970113 1_555
Mg2 Si1 3.140753 1_555
Mg2 Si11 3.166556 1_555
Mg3 Si3 2.650529 1_555
Mg3 Si11 2.659727 1_555
Mg3 Si7 2.793618 1_555
Mg3 Si1 2.868743 1_555
Mg3 Si13 2.913560 1_555
Mg3 Si0 2.956571 1_555
Mg4 Si8 2.733149 1_645
Mg4 Si2 2.737840 1_545
Mg4 Si6 2.755416 1_545
Mg4 Si13 2.773008 1_554
Mg4 Si4 2.848480 1_555
Mg4 Si12 2.874410 1_555
Mg4 Si1 3.164838 1_554
Mg5 Si1 2.733149 1_465
Mg5 Si13 2.737840 1_565
Mg5 Si3 2.755416 1_565
Mg5 Si2 2.773008 1_556
Mg5 Si11 2.848480 1_555
Mg5 Si14 2.874410 1_555
Mg5 Si8 3.164838 1_556
Mg6 Si6 2.650529 1_555
Mg6 Si4 2.659727 1_555
Mg6 Si10 2.793618 1_555
Mg6 Si8 2.868743 1_555
Mg6 Si2 2.913560 1_555
Mg6 Si15 2.956571 1_555
Mg7 Si11 2.728893 1_554
Mg7 Si1 2.795010 1_454
Mg7 Si13 2.886842 1_554
Mg7 Si2 2.970113 1_555
Mg7 Si8 3.140753 1_555
Mg7 Si4 3.166556 1_555
Si0 Si9 2.368050 1_555
Si0 Si3 2.386355 1_555
Si0 Si15 2.389666 1_555
Si1 Si13 2.412170 1_555
Si1 Si7 2.469085 1_555
Si2 Si8 2.412170 1_555
Si3 Si7 2.359002 1_455
Si3 Si5 2.366518 1_545
Si6 Si9 2.366518 1_565
Si7 Si9 2.401462 1_555
Si10 Si6 2.359002 1_455
Si10 Si12 2.383373 1_455
Si10 Si5 2.401462 1_555
Si10 Si8 2.469085 1_555
Si11 Si2 2.351817 1_556
Si11 Si14 2.451347 1_555
Si12 Si9 2.406761 1_555
Si12 Si4 2.451347 1_555
Si13 Si4 2.351817 1_556
Si13 Si2 2.519662 1_546
Si14 Si7 2.383373 1_455
Si14 Si5 2.406761 1_555
Si15 Si5 2.368050 1_555
Si15 Si6 2.386355 1_555
