# generated using pymatgen
data_Na4LiNb5O15
_symmetry_space_group_name_H-M   'P 1'
_cell_length_a   23.65487414
_cell_length_b   23.65487414
_cell_length_c   23.65487443
_cell_angle_alpha   13.41476411
_cell_angle_beta   13.41476411
_cell_angle_gamma   13.41476173
_symmetry_Int_Tables_number   1
_chemical_formula_structural   Na4LiNb5O15
_chemical_formula_sum   'Na8 Li2 Nb10 O30'
_cell_volume   619.78690103
_cell_formula_units_Z   2
loop_
 _symmetry_equiv_pos_site_id
 _symmetry_equiv_pos_as_xyz
  1  'x, y, z'
loop_
 _atom_site_type_symbol
 _atom_site_label
 _atom_site_symmetry_multiplicity
 _atom_site_fract_x
 _atom_site_fract_y
 _atom_site_fract_z
 _atom_site_occupancy
  Na  Na0  1  0.64494700  0.64494700  0.64494700  1
  Na  Na1  1  0.24469700  0.24469700  0.24469700  1
  Na  Na2  1  0.84451100  0.84451100  0.84451100  1
  Na  Na3  1  0.44476700  0.44476700  0.44476700  1
  Na  Na4  1  0.04507100  0.04507100  0.04507100  1
  Na  Na5  1  0.94470600  0.94470600  0.94470600  1
  Na  Na6  1  0.54461800  0.54461800  0.54461800  1
  Na  Na7  1  0.14455600  0.14455600  0.14455600  1
  Li  Li0  1  0.74227800  0.74227800  0.74227800  1
  Li  Li1  1  0.34236900  0.34236900  0.34236900  1
  Nb  Nb0  1  0.29698400  0.29698400  0.29698400  1
  Nb  Nb1  1  0.89663000  0.89663000  0.89663000  1
  Nb  Nb2  1  0.49642600  0.49642600  0.49642600  1
  Nb  Nb3  1  0.09626400  0.09626400  0.09626400  1
  Nb  Nb4  1  0.69672100  0.69672100  0.69672100  1
  Nb  Nb5  1  0.99741200  0.99741200  0.99741200  1
  Nb  Nb6  1  0.59679500  0.59679500  0.59679500  1
  Nb  Nb7  1  0.19652900  0.19652900  0.19652900  1
  Nb  Nb8  1  0.79623900  0.79623900  0.79623900  1
  Nb  Nb9  1  0.39693000  0.39693000  0.39693000  1
  O  O0  1  0.34866500  0.15174500  0.74936600  1
  O  O1  1  0.94907200  0.75177200  0.35013100  1
  O  O2  1  0.52351100  0.38058700  0.94699000  1
  O  O3  1  0.12386800  0.98000500  0.54643900  1
  O  O4  1  0.72312500  0.58040400  0.14616900  1
  O  O5  1  0.15174500  0.74936600  0.34866500  1
  O  O6  1  0.75177200  0.35013100  0.94907200  1
  O  O7  1  0.38058700  0.94699000  0.52351100  1
  O  O8  1  0.98000500  0.54643900  0.12386800  1
  O  O9  1  0.58040400  0.14616900  0.72312500  1
  O  O10  1  0.74936600  0.34866500  0.15174500  1
  O  O11  1  0.35013100  0.94907200  0.75177200  1
  O  O12  1  0.94699000  0.52351100  0.38058700  1
  O  O13  1  0.54643900  0.12386800  0.98000500  1
  O  O14  1  0.14616900  0.72312500  0.58040400  1
  O  O15  1  0.02627900  0.44446200  0.87900100  1
  O  O16  1  0.62757600  0.04470300  0.47906300  1
  O  O17  1  0.22468700  0.64694300  0.08038800  1
  O  O18  1  0.82353100  0.24683400  0.68023900  1
  O  O19  1  0.42376700  0.84630300  0.28000400  1
  O  O20  1  0.44446200  0.87900100  0.02627900  1
  O  O21  1  0.04470300  0.47906300  0.62757600  1
  O  O22  1  0.64694300  0.08038800  0.22468700  1
  O  O23  1  0.24683400  0.68023900  0.82353100  1
  O  O24  1  0.84630300  0.28000400  0.42376700  1
  O  O25  1  0.87900100  0.02627900  0.44446200  1
  O  O26  1  0.47906300  0.62757600  0.04470300  1
  O  O27  1  0.08038800  0.22468700  0.64694300  1
  O  O28  1  0.68023900  0.82353100  0.24683400  1
  O  O29  1  0.28000400  0.42376700  0.84630300  1
loop_
_geom_bond_atom_site_label_1
_geom_bond_atom_site_label_2
_geom_bond_distance
_geom_bond_site_symmetry_2
Na0 O27 2.398283 1_655
Na0 O22 2.398283 1_565
Na0 O17 2.398283 1_556
Na0 O7 2.550057 1_555
Na0 O12 2.550057 1_555
Na0 O2 2.550057 1_555
Na1 O28 2.398453 1_545
Na1 O23 2.398453 1_554
Na1 O18 2.398453 1_455
Na1 O8 2.550063 1_455
Na1 O13 2.550063 1_554
Na1 O3 2.550063 1_545
Na2 O29 2.397286 1_655
Na2 O24 2.397287 1_565
Na2 O19 2.397287 1_556
Na2 O9 2.550391 1_565
Na2 O14 2.550391 1_655
Na2 O4 2.550391 1_556
Na3 O25 2.383729 1_555
Na3 O20 2.383730 1_555
Na3 O15 2.383730 1_555
Na3 O5 2.599410 1_555
Na3 O0 2.599410 1_555
Na3 O10 2.599410 1_555
Na4 O26 2.382878 1_545
Na4 O21 2.382878 1_554
Na4 O16 2.382878 1_455
Na4 O6 2.595580 1_454
Na4 O1 2.595580 1_445
Na4 O11 2.595580 1_544
Na5 O2 2.401207 1_565
Na5 O7 2.401208 1_655
Na5 O12 2.401208 1_556
Na5 O23 2.545921 1_655
Na5 O18 2.545921 1_565
Na5 O28 2.545921 1_556
Na6 O3 2.396698 1_555
Na6 O8 2.396698 1_555
Na6 O13 2.396698 1_555
Na6 O24 2.549870 1_555
Na6 O19 2.549871 1_555
Na6 O29 2.549871 1_555
Na7 O4 2.398222 1_455
Na7 O9 2.398222 1_554
Na7 O14 2.398222 1_545
Na7 O20 2.548931 1_545
Na7 O15 2.548931 1_554
Na7 O25 2.548931 1_455
Li0 O0 2.283028 1_565
Li0 O5 2.283029 1_655
Li0 O10 2.283029 1_556
Li0 O21 2.399332 1_655
Li0 O16 2.399332 1_565
Li0 O26 2.399332 1_556
Li1 O1 2.287218 1_455
Li1 O6 2.287219 1_554
Li1 O11 2.287219 1_545
Li1 O22 2.396739 1_555
Li1 O17 2.396739 1_555
Li1 O27 2.396739 1_555
Nb0 O12 1.903989 1_455
Nb0 O7 1.903989 1_545
Nb0 O2 1.903989 1_554
Nb0 O22 2.166895 1_555
Nb0 O17 2.166895 1_555
Nb0 O27 2.166896 1_555
Nb1 O13 1.902435 1_565
Nb1 O8 1.902435 1_556
Nb1 O3 1.902435 1_655
Nb1 O23 2.162209 1_655
Nb1 O18 2.162209 1_565
Nb1 O28 2.162209 1_556
Nb2 O14 1.902066 1_555
Nb2 O9 1.902066 1_555
Nb2 O4 1.902066 1_555
Nb2 O24 2.162476 1_555
Nb2 O19 2.162476 1_555
Nb2 O29 2.162476 1_555
Nb3 O10 1.919713 1_455
Nb3 O5 1.919713 1_545
Nb3 O0 1.919713 1_554
Nb3 O20 2.160638 1_545
Nb3 O15 2.160638 1_554
Nb3 O25 2.160639 1_455
Nb4 O11 1.920481 1_555
Nb4 O6 1.920481 1_555
Nb4 O1 1.920481 1_555
Nb4 O21 2.163821 1_655
Nb4 O16 2.163821 1_565
Nb4 O26 2.163822 1_556
Nb5 O17 1.910307 1_656
Nb5 O22 1.910307 1_566
Nb5 O27 1.910307 1_665
Nb5 O6 2.175808 1_565
Nb5 O11 2.175808 1_655
Nb5 O1 2.175808 1_556
Nb6 O18 1.903225 1_555
Nb6 O23 1.903225 1_555
Nb6 O28 1.903225 1_555
Nb6 O7 2.161835 1_555
Nb6 O12 2.161835 1_555
Nb6 O2 2.161835 1_555
Nb7 O19 1.901865 1_545
Nb7 O24 1.901865 1_455
Nb7 O29 1.901865 1_554
Nb7 O8 2.161628 1_455
Nb7 O13 2.161628 1_554
Nb7 O3 2.161629 1_545
Nb8 O15 1.904857 1_655
Nb8 O20 1.904857 1_556
Nb8 O25 1.904857 1_565
Nb8 O9 2.164779 1_565
Nb8 O14 2.164779 1_655
Nb8 O4 2.164779 1_556
Nb9 O16 1.912115 1_555
Nb9 O21 1.912115 1_555
Nb9 O26 1.912116 1_555
Nb9 O5 2.177935 1_555
Nb9 O10 2.177935 1_555
Nb9 O0 2.177935 1_555
