# generated using pymatgen
data_Sb3Se2ClO8
_symmetry_space_group_name_H-M   'P 1'
_cell_length_a   7.25222800
_cell_length_b   7.94417400
_cell_length_c   10.64922600
_cell_angle_alpha   90.00000000
_cell_angle_beta   90.00000000
_cell_angle_gamma   90.00000000
_symmetry_Int_Tables_number   1
_chemical_formula_structural   Sb3Se2ClO8
_chemical_formula_sum   'Sb6 Se4 Cl2 O16'
_cell_volume   613.53344349
_cell_formula_units_Z   2
loop_
 _symmetry_equiv_pos_site_id
 _symmetry_equiv_pos_as_xyz
  1  'x, y, z'
loop_
 _atom_site_type_symbol
 _atom_site_label
 _atom_site_symmetry_multiplicity
 _atom_site_fract_x
 _atom_site_fract_y
 _atom_site_fract_z
 _atom_site_occupancy
  Sb  Sb0  1  0.25000000  0.00000000  0.75000000  1
  Sb  Sb1  1  0.25000000  0.00000000  0.25000000  1
  Sb  Sb2  1  0.75000000  0.00000000  0.75000000  1
  Sb  Sb3  1  0.50000000  0.76658400  0.50000000  1
  Sb  Sb4  1  0.00000000  0.23341600  0.00000000  1
  Sb  Sb5  1  0.75000000  0.00000000  0.25000000  1
  Se  Se0  1  0.50000000  0.61806000  0.80833400  1
  Se  Se1  1  0.00000000  0.38194000  0.69166600  1
  Se  Se2  1  0.50000000  0.61806000  0.19166600  1
  Se  Se3  1  0.00000000  0.38194000  0.30833400  1
  Cl  Cl0  1  0.00000000  0.87469400  0.50000000  1
  Cl  Cl1  1  0.50000000  0.12530600  0.00000000  1
  O  O0  1  0.00000000  0.03352100  0.85898100  1
  O  O1  1  0.00000000  0.42223200  0.85339300  1
  O  O2  1  0.50000000  0.57776800  0.35339300  1
  O  O3  1  0.30938400  0.74937000  0.82692700  1
  O  O4  1  0.19061600  0.25063000  0.32692700  1
  O  O5  1  0.80938400  0.25063000  0.32692700  1
  O  O6  1  0.50000000  0.96647900  0.64101900  1
  O  O7  1  0.69061600  0.74937000  0.82692700  1
  O  O8  1  0.69061600  0.74937000  0.17307300  1
  O  O9  1  0.80938400  0.25063000  0.67307300  1
  O  O10  1  0.00000000  0.03352100  0.14101900  1
  O  O11  1  0.50000000  0.96647900  0.35898100  1
  O  O12  1  0.19061600  0.25063000  0.67307300  1
  O  O13  1  0.30938400  0.74937000  0.17307300  1
  O  O14  1  0.50000000  0.57776800  0.64660700  1
  O  O15  1  0.00000000  0.42223200  0.14660700  1
loop_
_geom_bond_atom_site_label_1
_geom_bond_atom_site_label_2
_geom_bond_distance
_geom_bond_site_symmetry_2
O0 Sb0 2.169100 1_555
O0 Sb2 2.169100 1_455
O0 Sb4 2.185630 1_556
O1 Se1 1.751759 1_555
O1 Sb4 2.165056 1_556
O2 Se2 1.751759 1_555
O2 Sb3 2.165056 1_555
O3 Se0 1.743092 1_555
O3 Sb0 2.195645 1_565
O4 Se3 1.743092 1_555
O4 Sb1 2.195645 1_555
O5 Se3 1.743092 1_655
O5 Sb5 2.195645 1_555
O6 Sb2 2.169100 1_565
O6 Sb0 2.169100 1_565
O6 Sb3 2.185630 1_555
O7 Se0 1.743092 1_555
O7 Sb2 2.195645 1_565
O8 Se2 1.743092 1_555
O8 Sb5 2.195645 1_565
O9 Se1 1.743092 1_655
O9 Sb2 2.195645 1_555
O10 Sb5 2.169100 1_455
O10 Sb1 2.169100 1_555
O10 Sb4 2.185630 1_555
O11 Sb1 2.169100 1_565
O11 Sb5 2.169100 1_565
O11 Sb3 2.185630 1_555
O12 Se1 1.743092 1_555
O12 Sb0 2.195645 1_555
O13 Se2 1.743092 1_555
O13 Sb1 2.195645 1_565
O14 Se0 1.751759 1_555
O14 Sb3 2.165056 1_555
O15 Se3 1.751759 1_555
O15 Sb4 2.165056 1_555
