# generated using pymatgen
data_MgSn2
_symmetry_space_group_name_H-M   'P 1'
_cell_length_a   13.30337870
_cell_length_b   13.30337870
_cell_length_c   15.01590544
_cell_angle_alpha   76.27158935
_cell_angle_beta   76.27158935
_cell_angle_gamma   28.83851108
_symmetry_Int_Tables_number   1
_chemical_formula_structural   MgSn2
_chemical_formula_sum   'Mg16 Sn32'
_cell_volume   1242.75293234
_cell_formula_units_Z   16
loop_
 _symmetry_equiv_pos_site_id
 _symmetry_equiv_pos_as_xyz
  1  'x, y, z'
loop_
 _atom_site_type_symbol
 _atom_site_label
 _atom_site_symmetry_multiplicity
 _atom_site_fract_x
 _atom_site_fract_y
 _atom_site_fract_z
 _atom_site_occupancy
  Mg  Mg0_0  1  0.31949400  0.31949400  0.23534600  1
  Mg  Mg0_1  1  0.31949400  0.31949400  0.73534600  1
  Mg  Mg0_2  1  0.31949400  0.81949400  0.23534600  1
  Mg  Mg0_3  1  0.31949400  0.81949400  0.73534600  1
  Mg  Mg0_4  1  0.81949400  0.31949400  0.23534600  1
  Mg  Mg0_5  1  0.81949400  0.31949400  0.73534600  1
  Mg  Mg0_6  1  0.81949400  0.81949400  0.23534600  1
  Mg  Mg0_7  1  0.81949400  0.81949400  0.73534600  1
  Mg  Mg1_0  1  0.18050600  0.18050600  0.26465400  1
  Mg  Mg1_1  1  0.18050600  0.18050600  0.76465400  1
  Mg  Mg1_2  1  0.18050600  0.68050600  0.26465400  1
  Mg  Mg1_3  1  0.18050600  0.68050600  0.76465400  1
  Mg  Mg1_4  1  0.68050600  0.18050600  0.26465400  1
  Mg  Mg1_5  1  0.68050600  0.18050600  0.76465400  1
  Mg  Mg1_6  1  0.68050600  0.68050600  0.26465400  1
  Mg  Mg1_7  1  0.68050600  0.68050600  0.76465400  1
  Sn  Sn0_0  1  0.15088850  0.15088850  0.07365650  1
  Sn  Sn0_1  1  0.15088850  0.15088850  0.57365650  1
  Sn  Sn0_2  1  0.15088850  0.65088850  0.07365650  1
  Sn  Sn0_3  1  0.15088850  0.65088850  0.57365650  1
  Sn  Sn0_4  1  0.65088850  0.15088850  0.07365650  1
  Sn  Sn0_5  1  0.65088850  0.15088850  0.57365650  1
  Sn  Sn0_6  1  0.65088850  0.65088850  0.07365650  1
  Sn  Sn0_7  1  0.65088850  0.65088850  0.57365650  1
  Sn  Sn1_0  1  0.01330550  0.01330550  0.10290700  1
  Sn  Sn1_1  1  0.01330550  0.01330550  0.60290700  1
  Sn  Sn1_2  1  0.01330550  0.51330550  0.10290700  1
  Sn  Sn1_3  1  0.01330550  0.51330550  0.60290700  1
  Sn  Sn1_4  1  0.51330550  0.01330550  0.10290700  1
  Sn  Sn1_5  1  0.51330550  0.01330550  0.60290700  1
  Sn  Sn1_6  1  0.51330550  0.51330550  0.10290700  1
  Sn  Sn1_7  1  0.51330550  0.51330550  0.60290700  1
  Sn  Sn2_0  1  0.48669450  0.48669450  0.39709300  1
  Sn  Sn2_1  1  0.48669450  0.48669450  0.89709300  1
  Sn  Sn2_2  1  0.48669450  0.98669450  0.39709300  1
  Sn  Sn2_3  1  0.48669450  0.98669450  0.89709300  1
  Sn  Sn2_4  1  0.98669450  0.48669450  0.39709300  1
  Sn  Sn2_5  1  0.98669450  0.48669450  0.89709300  1
  Sn  Sn2_6  1  0.98669450  0.98669450  0.39709300  1
  Sn  Sn2_7  1  0.98669450  0.98669450  0.89709300  1
  Sn  Sn3_0  1  0.34911150  0.34911150  0.42634350  1
  Sn  Sn3_1  1  0.34911150  0.34911150  0.92634350  1
  Sn  Sn3_2  1  0.34911150  0.84911150  0.42634350  1
  Sn  Sn3_3  1  0.34911150  0.84911150  0.92634350  1
  Sn  Sn3_4  1  0.84911150  0.34911150  0.42634350  1
  Sn  Sn3_5  1  0.84911150  0.34911150  0.92634350  1
  Sn  Sn3_6  1  0.84911150  0.84911150  0.42634350  1
  Sn  Sn3_7  1  0.84911150  0.84911150  0.92634350  1
loop_
_geom_bond_atom_site_label_1
_geom_bond_atom_site_label_2
_geom_bond_distance
_geom_bond_site_symmetry_2
Mg0_0 Sn3_0 3.143345 1_555
Mg0_0 Sn1_2 3.194687 1_555
Mg0_0 Sn1_4 3.194687 1_555
Mg0_0 Sn0_2 3.246826 1_555
Mg0_0 Sn0_4 3.246826 1_555
Mg0_0 Sn2_2 3.264241 1_545
Mg0_0 Sn2_4 3.264241 1_455
Mg0_0 Mg0_6 3.312746 1_455
Mg0_0 Mg0_6 3.312746 1_545
Mg0_0 Mg1_4 3.425990 1_555
Mg0_0 Mg1_2 3.425990 1_555
Mg0_0 Mg1_0 3.499798 1_555
Mg0_1 Sn3_1 3.143345 1_555
Mg0_1 Sn1_5 3.194687 1_555
Mg0_1 Sn1_3 3.194687 1_555
Mg0_1 Sn0_5 3.246826 1_555
Mg0_1 Sn0_3 3.246826 1_555
Mg0_1 Sn2_3 3.264241 1_545
Mg0_1 Sn2_5 3.264241 1_455
Mg0_1 Mg0_7 3.312746 1_545
Mg0_1 Mg0_7 3.312746 1_455
Mg0_1 Mg1_3 3.425990 1_555
Mg0_1 Mg1_5 3.425990 1_555
Mg0_1 Mg1_1 3.499798 1_555
Mg0_2 Sn3_2 3.143345 1_555
Mg0_2 Sn1_0 3.194687 1_565
Mg0_2 Sn1_6 3.194687 1_555
Mg0_2 Sn0_0 3.246826 1_565
Mg0_2 Sn0_6 3.246826 1_555
Mg0_2 Sn2_6 3.264241 1_455
Mg0_2 Sn2_0 3.264241 1_555
Mg0_2 Mg0_4 3.312746 1_465
Mg0_2 Mg0_4 3.312746 1_555
Mg0_2 Mg1_6 3.425990 1_555
Mg0_2 Mg1_0 3.425990 1_565
Mg0_2 Mg1_2 3.499798 1_555
Mg0_3 Sn3_3 3.143345 1_555
Mg0_3 Sn1_1 3.194687 1_565
Mg0_3 Sn1_7 3.194687 1_555
Mg0_3 Sn0_7 3.246826 1_555
Mg0_3 Sn0_1 3.246826 1_565
Mg0_3 Sn2_1 3.264241 1_555
Mg0_3 Sn2_7 3.264241 1_455
Mg0_3 Mg0_5 3.312746 1_555
Mg0_3 Mg0_5 3.312746 1_465
Mg0_3 Mg1_7 3.425990 1_555
Mg0_3 Mg1_1 3.425990 1_565
Mg0_3 Mg1_3 3.499798 1_555
Mg0_4 Sn3_4 3.143345 1_555
Mg0_4 Sn1_0 3.194687 1_655
Mg0_4 Sn1_6 3.194687 1_555
Mg0_4 Sn0_0 3.246826 1_655
Mg0_4 Sn0_6 3.246826 1_555
Mg0_4 Sn2_6 3.264241 1_545
Mg0_4 Sn2_0 3.264241 1_555
Mg0_4 Mg1_6 3.425990 1_555
Mg0_4 Mg1_0 3.425990 1_655
Mg0_4 Mg1_4 3.499798 1_555
Mg0_5 Sn3_5 3.143345 1_555
Mg0_5 Sn1_7 3.194687 1_555
Mg0_5 Sn1_1 3.194687 1_655
Mg0_5 Sn0_7 3.246826 1_555
Mg0_5 Sn0_1 3.246826 1_655
Mg0_5 Sn2_1 3.264241 1_555
Mg0_5 Sn2_7 3.264241 1_545
Mg0_5 Mg1_7 3.425990 1_555
Mg0_5 Mg1_1 3.425990 1_655
Mg0_5 Mg1_5 3.499798 1_555
Mg0_6 Sn3_6 3.143345 1_555
Mg0_6 Sn1_2 3.194687 1_655
Mg0_6 Sn1_4 3.194687 1_565
Mg0_6 Sn0_2 3.246826 1_655
Mg0_6 Sn0_4 3.246826 1_565
Mg0_6 Sn2_2 3.264241 1_555
Mg0_6 Sn2_4 3.264241 1_555
Mg0_6 Mg1_4 3.425990 1_565
Mg0_6 Mg1_2 3.425990 1_655
Mg0_6 Mg1_6 3.499798 1_555
Mg0_7 Sn3_7 3.143345 1_555
Mg0_7 Sn1_5 3.194687 1_565
Mg0_7 Sn1_3 3.194687 1_655
Mg0_7 Sn0_3 3.246826 1_655
Mg0_7 Sn0_5 3.246826 1_565
Mg0_7 Sn2_5 3.264241 1_555
Mg0_7 Sn2_3 3.264241 1_555
Mg0_7 Mg1_5 3.425990 1_565
Mg0_7 Mg1_3 3.425990 1_655
Mg0_7 Mg1_7 3.499798 1_555
Mg1_0 Sn0_0 3.143345 1_555
Mg1_0 Sn2_4 3.194687 1_455
Mg1_0 Sn2_2 3.194687 1_545
Mg1_0 Sn3_2 3.246826 1_545
Mg1_0 Sn3_4 3.246826 1_455
Mg1_0 Sn1_2 3.264241 1_555
Mg1_0 Sn1_4 3.264241 1_555
Mg1_0 Mg1_6 3.312746 1_455
Mg1_0 Mg1_6 3.312746 1_545
Mg1_1 Sn0_1 3.143345 1_555
Mg1_1 Sn2_5 3.194687 1_455
Mg1_1 Sn2_3 3.194687 1_545
Mg1_1 Sn3_5 3.246826 1_455
Mg1_1 Sn3_3 3.246826 1_545
Mg1_1 Sn1_5 3.264241 1_555
Mg1_1 Sn1_3 3.264241 1_555
Mg1_1 Mg1_7 3.312746 1_455
Mg1_1 Mg1_7 3.312746 1_545
Mg1_2 Sn0_2 3.143345 1_555
Mg1_2 Sn2_0 3.194687 1_555
Mg1_2 Sn2_6 3.194687 1_455
Mg1_2 Sn3_0 3.246826 1_555
Mg1_2 Sn3_6 3.246826 1_455
Mg1_2 Sn1_6 3.264241 1_555
Mg1_2 Sn1_0 3.264241 1_565
Mg1_2 Mg1_4 3.312746 1_465
Mg1_2 Mg1_4 3.312746 1_555
Mg1_3 Sn0_3 3.143345 1_555
Mg1_3 Sn2_7 3.194687 1_455
Mg1_3 Sn2_1 3.194687 1_555
Mg1_3 Sn3_7 3.246826 1_455
Mg1_3 Sn3_1 3.246826 1_555
Mg1_3 Sn1_7 3.264241 1_555
Mg1_3 Sn1_1 3.264241 1_565
Mg1_3 Mg1_5 3.312746 1_465
Mg1_3 Mg1_5 3.312746 1_555
Mg1_4 Sn0_4 3.143345 1_555
Mg1_4 Sn2_0 3.194687 1_555
Mg1_4 Sn2_6 3.194687 1_545
Mg1_4 Sn3_0 3.246826 1_555
Mg1_4 Sn3_6 3.246826 1_545
Mg1_4 Sn1_6 3.264241 1_555
Mg1_4 Sn1_0 3.264241 1_655
Mg1_5 Sn0_5 3.143345 1_555
Mg1_5 Sn2_7 3.194687 1_545
Mg1_5 Sn2_1 3.194687 1_555
Mg1_5 Sn3_1 3.246826 1_555
Mg1_5 Sn3_7 3.246826 1_545
Mg1_5 Sn1_7 3.264241 1_555
Mg1_5 Sn1_1 3.264241 1_655
Mg1_6 Sn0_6 3.143345 1_555
Mg1_6 Sn2_4 3.194687 1_555
Mg1_6 Sn2_2 3.194687 1_555
Mg1_6 Sn3_2 3.246826 1_555
Mg1_6 Sn3_4 3.246826 1_555
Mg1_6 Sn1_2 3.264241 1_655
Mg1_6 Sn1_4 3.264241 1_565
Mg1_7 Sn0_7 3.143345 1_555
Mg1_7 Sn2_5 3.194687 1_555
Mg1_7 Sn2_3 3.194687 1_555
Mg1_7 Sn3_3 3.246826 1_555
Mg1_7 Sn3_5 3.246826 1_555
Mg1_7 Sn1_5 3.264241 1_565
Mg1_7 Sn1_3 3.264241 1_655
Sn0_0 Sn3_5 3.295941 1_454
Sn0_0 Sn3_3 3.295941 1_544
Sn0_0 Sn0_6 3.312746 1_455
Sn0_0 Sn0_6 3.312746 1_545
Sn0_0 Sn2_5 3.433482 1_454
Sn0_0 Sn2_3 3.433482 1_544
Sn0_0 Sn1_2 3.457120 1_555
Sn0_0 Sn1_4 3.457120 1_555
Sn0_0 Sn1_0 3.463973 1_555
Sn0_1 Sn3_4 3.295941 1_455
Sn0_1 Sn3_2 3.295941 1_545
Sn0_1 Sn0_7 3.312746 1_455
Sn0_1 Sn0_7 3.312746 1_545
Sn0_1 Sn2_4 3.433482 1_455
Sn0_1 Sn2_2 3.433482 1_545
Sn0_1 Sn1_3 3.457120 1_555
Sn0_1 Sn1_5 3.457120 1_555
Sn0_1 Sn1_1 3.463973 1_555
Sn0_2 Sn3_1 3.295941 1_554
Sn0_2 Sn3_7 3.295941 1_454
Sn0_2 Sn0_4 3.312746 1_555
Sn0_2 Sn0_4 3.312746 1_465
Sn0_2 Sn2_7 3.433482 1_454
Sn0_2 Sn2_1 3.433482 1_554
Sn0_2 Sn1_6 3.457120 1_555
Sn0_2 Sn1_0 3.457120 1_565
Sn0_2 Sn1_2 3.463973 1_555
Sn0_3 Sn3_0 3.295941 1_555
Sn0_3 Sn3_6 3.295941 1_455
Sn0_3 Sn0_5 3.312746 1_555
Sn0_3 Sn0_5 3.312746 1_465
Sn0_3 Sn2_0 3.433482 1_555
Sn0_3 Sn2_6 3.433482 1_455
Sn0_3 Sn1_7 3.457120 1_555
Sn0_3 Sn1_1 3.457120 1_565
Sn0_3 Sn1_3 3.463973 1_555
Sn0_4 Sn3_1 3.295941 1_554
Sn0_4 Sn3_7 3.295941 1_544
Sn0_4 Sn2_7 3.433482 1_544
Sn0_4 Sn2_1 3.433482 1_554
Sn0_4 Sn1_6 3.457120 1_555
Sn0_4 Sn1_0 3.457120 1_655
Sn0_4 Sn1_4 3.463973 1_555
Sn0_5 Sn3_0 3.295941 1_555
Sn0_5 Sn3_6 3.295941 1_545
Sn0_5 Sn2_0 3.433482 1_555
Sn0_5 Sn2_6 3.433482 1_545
Sn0_5 Sn1_7 3.457120 1_555
Sn0_5 Sn1_1 3.457120 1_655
Sn0_5 Sn1_5 3.463973 1_555
Sn0_6 Sn3_5 3.295941 1_554
Sn0_6 Sn3_3 3.295941 1_554
Sn0_6 Sn2_5 3.433482 1_554
Sn0_6 Sn2_3 3.433482 1_554
Sn0_6 Sn1_4 3.457120 1_565
Sn0_6 Sn1_2 3.457120 1_655
Sn0_6 Sn1_6 3.463973 1_555
Sn0_7 Sn3_2 3.295941 1_555
Sn0_7 Sn3_4 3.295941 1_555
Sn0_7 Sn2_4 3.433482 1_555
Sn0_7 Sn2_2 3.433482 1_555
Sn0_7 Sn1_3 3.457120 1_655
Sn0_7 Sn1_5 3.457120 1_565
Sn0_7 Sn1_7 3.463973 1_555
Sn1_0 Sn1_6 3.312746 1_545
Sn1_0 Sn1_6 3.312746 1_455
Sn1_0 Sn2_7 3.325643 1_444
Sn1_0 Sn3_3 3.433482 1_544
Sn1_0 Sn3_5 3.433482 1_454
Sn1_1 Sn1_7 3.312746 1_455
Sn1_1 Sn1_7 3.312746 1_545
Sn1_1 Sn2_6 3.325643 1_445
Sn1_1 Sn3_4 3.433482 1_455
Sn1_1 Sn3_2 3.433482 1_545
Sn1_2 Sn1_4 3.312746 1_555
Sn1_2 Sn1_4 3.312746 1_465
Sn1_2 Sn2_5 3.325643 1_454
Sn1_2 Sn3_7 3.433482 1_454
Sn1_2 Sn3_1 3.433482 1_554
Sn1_3 Sn1_5 3.312746 1_555
Sn1_3 Sn1_5 3.312746 1_465
Sn1_3 Sn2_4 3.325643 1_455
Sn1_3 Sn3_6 3.433482 1_455
Sn1_3 Sn3_0 3.433482 1_555
Sn1_4 Sn2_3 3.325643 1_544
Sn1_4 Sn3_7 3.433482 1_544
Sn1_4 Sn3_1 3.433482 1_554
Sn1_5 Sn2_2 3.325643 1_545
Sn1_5 Sn3_6 3.433482 1_545
Sn1_5 Sn3_0 3.433482 1_555
Sn1_6 Sn2_1 3.325643 1_554
Sn1_6 Sn3_3 3.433482 1_554
Sn1_6 Sn3_5 3.433482 1_554
Sn1_7 Sn2_0 3.325643 1_555
Sn1_7 Sn3_4 3.433482 1_555
Sn1_7 Sn3_2 3.433482 1_555
Sn2_0 Sn2_6 3.312746 1_455
Sn2_0 Sn2_6 3.312746 1_545
Sn2_0 Sn3_2 3.457120 1_555
Sn2_0 Sn3_4 3.457120 1_555
Sn2_0 Sn3_0 3.463973 1_555
Sn2_1 Sn2_7 3.312746 1_545
Sn2_1 Sn2_7 3.312746 1_455
Sn2_1 Sn3_5 3.457120 1_555
Sn2_1 Sn3_3 3.457120 1_555
Sn2_1 Sn3_1 3.463973 1_555
Sn2_2 Sn2_4 3.312746 1_465
Sn2_2 Sn2_4 3.312746 1_555
Sn2_2 Sn3_6 3.457120 1_555
Sn2_2 Sn3_0 3.457120 1_565
Sn2_2 Sn3_2 3.463973 1_555
Sn2_3 Sn2_5 3.312746 1_555
Sn2_3 Sn2_5 3.312746 1_465
Sn2_3 Sn3_1 3.457120 1_565
Sn2_3 Sn3_7 3.457120 1_555
Sn2_3 Sn3_3 3.463973 1_555
Sn2_4 Sn3_6 3.457120 1_555
Sn2_4 Sn3_0 3.457120 1_655
Sn2_4 Sn3_4 3.463973 1_555
Sn2_5 Sn3_1 3.457120 1_655
Sn2_5 Sn3_7 3.457120 1_555
Sn2_5 Sn3_5 3.463973 1_555
Sn2_6 Sn3_2 3.457120 1_655
Sn2_6 Sn3_4 3.457120 1_565
Sn2_6 Sn3_6 3.463973 1_555
Sn2_7 Sn3_5 3.457120 1_565
Sn2_7 Sn3_3 3.457120 1_655
Sn2_7 Sn3_7 3.463973 1_555
Sn3_0 Sn3_6 3.312746 1_545
Sn3_0 Sn3_6 3.312746 1_455
Sn3_1 Sn3_7 3.312746 1_455
Sn3_1 Sn3_7 3.312746 1_545
Sn3_2 Sn3_4 3.312746 1_465
Sn3_2 Sn3_4 3.312746 1_555
Sn3_3 Sn3_5 3.312746 1_465
Sn3_3 Sn3_5 3.312746 1_555
