# generated using pymatgen
data_Mg14NbNi
_symmetry_space_group_name_H-M   'P 1'
_cell_length_a   6.29567041
_cell_length_b   6.13641452
_cell_length_c   9.88877466
_cell_angle_alpha   90.00000000
_cell_angle_beta   90.00000000
_cell_angle_gamma   119.16668617
_symmetry_Int_Tables_number   1
_chemical_formula_structural   Mg14NbNi
_chemical_formula_sum   'Mg14 Nb1 Ni1'
_cell_volume   333.59202528
_cell_formula_units_Z   1
loop_
 _symmetry_equiv_pos_site_id
 _symmetry_equiv_pos_as_xyz
  1  'x, y, z'
loop_
 _atom_site_type_symbol
 _atom_site_label
 _atom_site_symmetry_multiplicity
 _atom_site_fract_x
 _atom_site_fract_y
 _atom_site_fract_z
 _atom_site_occupancy
  Mg  Mg0  1  0.16796203  0.33398052  0.62500000  1
  Mg  Mg1  1  0.17043322  0.83521611  0.62500000  1
  Mg  Mg2  1  0.65274691  0.33434093  0.12500000  1
  Mg  Mg3  1  0.66492791  0.32954169  0.62500000  1
  Mg  Mg4  1  0.65274691  0.81840498  0.12500000  1
  Mg  Mg5  1  0.66492791  0.83538522  0.62500000  1
  Mg  Mg6  1  0.32834275  0.16492895  0.36017393  1
  Mg  Mg7  1  0.32834275  0.16492895  0.88982607  1
  Mg  Mg8  1  0.32834275  0.66341480  0.36017393  1
  Mg  Mg9  1  0.32834275  0.66341480  0.88982607  1
  Mg  Mg10  1  0.85691930  0.17846015  0.35671590  1
  Mg  Mg11  1  0.85691930  0.17846015  0.89328410  1
  Mg  Mg12  1  0.84272509  0.67136304  0.37518702  1
  Mg  Mg13  1  0.84272509  0.67136304  0.87481298  1
  Nb  Nb0  1  0.14228797  0.82114348  0.12500000  1
  Ni  Ni0  1  0.17130739  0.33565319  0.12500000  1
loop_
_geom_bond_atom_site_label_1
_geom_bond_atom_site_label_2
_geom_bond_distance
_geom_bond_site_symmetry_2
Mg0 Mg1 3.068237 1_555
Mg0 Mg1 3.068237 1_545
Mg0 Mg5 3.142098 1_555
Mg0 Mg3 3.142098 1_555
Mg0 Mg5 3.153752 1_445
Mg0 Mg3 3.153752 1_455
Mg0 Mg10 3.156308 1_455
Mg0 Mg11 3.156308 1_455
Mg0 Mg6 3.158278 1_555
Mg0 Mg7 3.158278 1_555
Mg0 Mg8 3.158284 1_555
Mg0 Mg9 3.158284 1_555
Mg1 Mg13 3.057478 1_455
Mg1 Mg12 3.057478 1_455
Mg1 Mg3 3.112670 1_565
Mg1 Mg5 3.112670 1_555
Mg1 Mg8 3.159028 1_555
Mg1 Mg9 3.159028 1_555
Mg1 Mg7 3.159034 1_565
Mg1 Mg6 3.159034 1_565
Mg1 Mg3 3.183000 1_455
Mg1 Mg5 3.183001 1_455
Mg2 Mg6 2.930998 1_555
Mg2 Mg7 2.930998 1_554
Mg2 Mg4 2.970418 1_555
Mg2 Ni0 3.034917 1_555
Mg2 Nb0 3.073834 1_655
Mg2 Mg4 3.165997 1_545
Mg2 Nb0 3.221904 1_545
Mg2 Ni0 3.260769 1_655
Mg3 Mg5 3.032349 1_545
Mg3 Mg5 3.104066 1_555
Mg3 Mg6 3.206624 1_555
Mg3 Mg7 3.206624 1_555
Mg4 Mg9 2.930998 1_554
Mg4 Mg8 2.930998 1_555
Mg4 Ni0 3.034917 1_555
Mg4 Nb0 3.073834 1_655
Mg4 Nb0 3.221904 1_555
Mg4 Ni0 3.260769 1_665
Mg5 Mg9 3.206624 1_555
Mg5 Mg8 3.206624 1_555
Mg6 Ni0 2.914245 1_555
Mg6 Nb0 2.970229 1_545
Mg6 Mg8 3.058916 1_555
Mg6 Mg8 3.077499 1_545
Mg7 Ni0 2.914245 1_556
Mg7 Nb0 2.970229 1_546
Mg7 Mg9 3.058916 1_555
Mg7 Mg9 3.077499 1_545
Mg8 Ni0 2.914251 1_555
Mg8 Nb0 2.970223 1_555
Mg9 Ni0 2.914251 1_556
Mg9 Nb0 2.970223 1_556
Mg10 Ni0 2.870113 1_655
Mg10 Mg2 3.002689 1_555
Mg10 Mg4 3.002696 1_545
Mg10 Mg8 3.009461 1_655
Mg10 Mg6 3.009461 1_655
Mg10 Mg12 3.074630 1_555
Mg10 Mg12 3.074630 1_545
Mg10 Mg3 3.232827 1_555
Mg10 Mg5 3.232832 1_545
Mg10 Mg8 3.288254 1_545
Mg10 Mg6 3.288255 1_555
Mg11 Ni0 2.870113 1_656
Mg11 Mg2 3.002689 1_556
Mg11 Mg4 3.002696 1_546
Mg11 Mg9 3.009461 1_655
Mg11 Mg7 3.009461 1_655
Mg11 Mg13 3.074630 1_555
Mg11 Mg13 3.074630 1_545
Mg11 Mg3 3.232827 1_555
Mg11 Mg5 3.232832 1_545
Mg11 Mg9 3.288254 1_545
Mg11 Mg7 3.288255 1_555
Mg12 Nb0 2.972021 1_655
Mg12 Mg4 3.068789 1_555
Mg12 Mg2 3.068795 1_555
Mg12 Mg5 3.076808 1_555
Mg12 Mg3 3.076814 1_555
Mg12 Mg6 3.084927 1_665
Mg12 Mg8 3.084927 1_655
Mg12 Mg6 3.218320 1_555
Mg12 Mg8 3.218320 1_555
Mg13 Nb0 2.972021 1_656
Mg13 Mg4 3.068789 1_556
Mg13 Mg2 3.068795 1_556
Mg13 Mg5 3.076808 1_555
Mg13 Mg3 3.076814 1_555
Mg13 Mg7 3.084927 1_665
Mg13 Mg9 3.084927 1_655
Mg13 Mg7 3.218320 1_555
Mg13 Mg9 3.218320 1_555
Nb0 Ni0 3.072352 1_565
Nb0 Ni0 3.072352 1_555
