# generated using pymatgen
data_NaSrLaWO6
_symmetry_space_group_name_H-M   'P 1'
_cell_length_a   8.47058692
_cell_length_b   8.51322307
_cell_length_c   8.47548242
_cell_angle_alpha   90.00000000
_cell_angle_beta   90.00000000
_cell_angle_gamma   90.00000000
_symmetry_Int_Tables_number   1
_chemical_formula_structural   NaSrLaWO6
_chemical_formula_sum   'Na4 Sr4 La4 W4 O24'
_cell_volume   611.18395423
_cell_formula_units_Z   4
loop_
 _symmetry_equiv_pos_site_id
 _symmetry_equiv_pos_as_xyz
  1  'x, y, z'
loop_
 _atom_site_type_symbol
 _atom_site_label
 _atom_site_symmetry_multiplicity
 _atom_site_fract_x
 _atom_site_fract_y
 _atom_site_fract_z
 _atom_site_occupancy
  Na  Na0  1  -0.00000000  0.00000000  -0.00000000  1
  Na  Na1  1  0.50000000  0.50000000  0.50000000  1
  Na  Na2  1  -0.00000000  0.50000000  0.50000000  1
  Na  Na3  1  0.50000000  0.00000000  -0.00000000  1
  Sr  Sr0  1  0.50000000  0.00000000  0.50000000  1
  Sr  Sr1  1  0.50000000  0.50000000  -0.00000000  1
  Sr  Sr2  1  -0.00000000  0.50000000  -0.00000000  1
  Sr  Sr3  1  0.00000000  0.00000000  0.50000000  1
  La  La0  1  0.75000000  0.75000000  0.75000000  1
  La  La1  1  0.25000000  0.25000000  0.75000000  1
  La  La2  1  0.25000000  0.75000000  0.25000000  1
  La  La3  1  0.75000000  0.25000000  0.25000000  1
  W  W0  1  0.25000000  0.25000000  0.25000000  1
  W  W1  1  0.75000000  0.75000000  0.25000000  1
  W  W2  1  0.75000000  0.25000000  0.75000000  1
  W  W3  1  0.25000000  0.75000000  0.75000000  1
  O  O0  1  0.02535697  0.20253536  0.28153654  1
  O  O1  1  0.97464303  0.79746464  0.28153654  1
  O  O2  1  0.97464303  0.20253536  0.71846346  1
  O  O3  1  0.02535697  0.79746464  0.71846346  1
  O  O4  1  0.29312864  0.02714718  0.21268416  1
  O  O5  1  0.29312864  0.97285282  0.78731584  1
  O  O6  1  0.70687136  0.97285282  0.21268416  1
  O  O7  1  0.70687136  0.02714718  0.78731584  1
  O  O8  1  0.21266422  0.29249419  0.02384580  1
  O  O9  1  0.78733578  0.29249419  0.97615420  1
  O  O10  1  0.21266422  0.70750581  0.97615420  1
  O  O11  1  0.78733578  0.70750581  0.02384580  1
  O  O12  1  0.47464303  0.29746464  0.21846346  1
  O  O13  1  0.52535697  0.70253536  0.21846346  1
  O  O14  1  0.52535697  0.29746464  0.78153654  1
  O  O15  1  0.47464303  0.70253536  0.78153654  1
  O  O16  1  0.20687136  0.47285282  0.28731584  1
  O  O17  1  0.20687136  0.52714718  0.71268416  1
  O  O18  1  0.79312864  0.52714718  0.28731584  1
  O  O19  1  0.79312864  0.47285282  0.71268416  1
  O  O20  1  0.28733578  0.20750581  0.47615420  1
  O  O21  1  0.71266422  0.20750581  0.52384580  1
  O  O22  1  0.28733578  0.79249419  0.52384580  1
  O  O23  1  0.71266422  0.79249419  0.47615420  1
loop_
_geom_bond_atom_site_label_1
_geom_bond_atom_site_label_2
_geom_bond_distance
_geom_bond_site_symmetry_2
Na0 O2 2.951753 1_454
Na0 O0 2.951753 1_555
Na0 O3 2.951753 1_544
Na0 O1 2.951753 1_445
Na0 O5 3.077000 1_544
Na0 O4 3.077000 1_555
Na0 O7 3.077000 1_454
Na0 O6 3.077000 1_445
Na0 O8 3.079983 1_555
Na0 O9 3.079983 1_454
Na0 O11 3.079983 1_445
Na0 O10 3.079983 1_544
Na1 O14 2.951753 1_555
Na1 O15 2.951753 1_555
Na1 O12 2.951753 1_555
Na1 O13 2.951753 1_555
Na1 O17 3.077000 1_555
Na1 O16 3.077000 1_555
Na1 O18 3.077000 1_555
Na1 O19 3.077000 1_555
Na1 O23 3.079983 1_555
Na1 O21 3.079983 1_555
Na1 O20 3.079983 1_555
Na1 O22 3.079983 1_555
Na2 O18 2.524562 1_455
Na2 O19 2.524562 1_455
Na2 O17 2.524562 1_555
Na2 O16 2.524562 1_555
Na3 O7 2.524562 1_554
Na3 O6 2.524562 1_545
Na3 O5 2.524562 1_544
Na3 O4 2.524562 1_555
La0 O11 2.370193 1_556
La0 O23 2.370193 1_555
La0 O15 2.382221 1_555
La0 O3 2.382221 1_655
La0 O7 2.408388 1_565
La0 O19 2.408388 1_555
La1 O8 2.370193 1_556
La1 O20 2.370193 1_555
La1 O14 2.382221 1_555
La1 O2 2.382221 1_455
La1 O17 2.408388 1_555
La1 O5 2.408388 1_545
La2 O22 2.370193 1_555
La2 O10 2.370193 1_554
La2 O1 2.382221 1_455
La2 O13 2.382221 1_555
La2 O4 2.408388 1_565
La2 O16 2.408388 1_555
La3 O21 2.370193 1_555
La3 O9 2.370193 1_554
La3 O12 2.382221 1_555
La3 O0 2.382221 1_655
La3 O6 2.408388 1_545
La3 O18 2.408388 1_555
O0 W0 1.963566 1_555
O0 Sr3 2.539185 1_555
O1 W1 1.963566 1_555
O1 Sr3 2.539185 1_665
O2 W2 1.963566 1_555
O2 Sr3 2.539185 1_655
O3 W3 1.963566 1_555
O3 Sr3 2.539185 1_565
O4 W0 1.957764 1_555
O4 Sr0 3.008979 1_555
O5 W3 1.957764 1_555
O5 Sr0 3.008979 1_565
O6 W1 1.957764 1_555
O6 Sr0 3.008979 1_565
O7 W2 1.957764 1_555
O7 Sr0 3.008979 1_555
O8 W0 1.976077 1_555
O8 Sr2 2.531112 1_555
O8 Sr1 3.014200 1_555
O9 W2 1.976077 1_555
O9 Sr2 2.531112 1_656
O9 Sr1 3.014200 1_556
O10 W3 1.976077 1_555
O10 Sr2 2.531112 1_556
O10 Sr1 3.014200 1_556
O11 W1 1.976077 1_555
O11 Sr2 2.531112 1_655
O11 Sr1 3.014200 1_555
O12 W0 1.963566 1_555
O12 Sr1 2.539185 1_555
O13 W1 1.963566 1_555
O13 Sr1 2.539185 1_555
O14 W2 1.963566 1_555
O14 Sr1 2.539185 1_556
O15 W3 1.963566 1_555
O15 Sr1 2.539185 1_556
O16 W0 1.957764 1_555
O16 Sr2 3.008979 1_555
O17 W3 1.957764 1_555
O17 Sr2 3.008979 1_556
O18 W1 1.957764 1_555
O18 Sr2 3.008979 1_655
O19 W2 1.957764 1_555
O19 Sr2 3.008979 1_656
O20 W0 1.976077 1_555
O20 Sr0 2.531112 1_555
O20 Sr3 3.014200 1_555
O21 W2 1.976077 1_555
O21 Sr0 2.531112 1_555
O21 Sr3 3.014200 1_655
O22 W3 1.976077 1_555
O22 Sr0 2.531112 1_565
O22 Sr3 3.014200 1_565
O23 W1 1.976077 1_555
O23 Sr0 2.531112 1_565
O23 Sr3 3.014200 1_665
