# generated using pymatgen
data_LaSi4Ni9
_symmetry_space_group_name_H-M   'P 1'
_cell_length_a   7.96714850
_cell_length_b   7.96714850
_cell_length_c   7.96714850
_cell_angle_alpha   121.00716574
_cell_angle_beta   121.00716574
_cell_angle_gamma   88.26421403
_symmetry_Int_Tables_number   1
_chemical_formula_structural   LaSi4Ni9
_chemical_formula_sum   'La2 Si8 Ni18'
_cell_volume   351.97776140
_cell_formula_units_Z   2
loop_
 _symmetry_equiv_pos_site_id
 _symmetry_equiv_pos_as_xyz
  1  'x, y, z'
loop_
 _atom_site_type_symbol
 _atom_site_label
 _atom_site_symmetry_multiplicity
 _atom_site_fract_x
 _atom_site_fract_y
 _atom_site_fract_z
 _atom_site_occupancy
  La  La0  1  0.75000000  0.75000000  0.00000000  1
  La  La1  1  0.25000000  0.25000000  0.00000000  1
  Si  Si0  1  0.44700600  0.94700600  0.15944000  1
  Si  Si1  1  0.21243400  0.71243400  0.15944000  1
  Si  Si2  1  0.71243400  0.55299400  0.50000000  1
  Si  Si3  1  0.94700600  0.78756600  0.50000000  1
  Si  Si4  1  0.28756600  0.44700600  0.50000000  1
  Si  Si5  1  0.78756600  0.28756600  0.84056000  1
  Si  Si6  1  0.55299400  0.05299400  0.84056000  1
  Si  Si7  1  0.05299400  0.21243400  0.50000000  1
  Ni  Ni0  1  0.56879800  0.70425400  0.27305200  1
  Ni  Ni1  1  0.79574600  0.93120200  0.72694800  1
  Ni  Ni2  1  0.31574200  0.81574200  0.76184400  1
  Ni  Ni3  1  0.81574200  0.05389800  0.50000000  1
  Ni  Ni4  1  0.43120200  0.29574600  0.72694800  1
  Ni  Ni5  1  0.18425800  0.94610200  0.50000000  1
  Ni  Ni6  1  0.44610200  0.68425800  0.50000000  1
  Ni  Ni7  1  0.94610200  0.44610200  0.76184400  1
  Ni  Ni8  1  0.68425800  0.18425800  0.23815600  1
  Ni  Ni9  1  0.05389800  0.55389800  0.23815600  1
  Ni  Ni10  1  0.50000000  0.00000000  0.50000000  1
  Ni  Ni11  1  0.00000000  0.50000000  0.50000000  1
  Ni  Ni12  1  0.29574600  0.56879800  0.86454500  1
  Ni  Ni13  1  0.93120200  0.20425400  0.13545500  1
  Ni  Ni14  1  0.06879800  0.79574600  0.86454500  1
  Ni  Ni15  1  0.20425400  0.06879800  0.27305200  1
  Ni  Ni16  1  0.55389800  0.31574200  0.50000000  1
  Ni  Ni17  1  0.70425400  0.43120200  0.13545500  1
loop_
_geom_bond_atom_site_label_1
_geom_bond_atom_site_label_2
_geom_bond_distance
_geom_bond_site_symmetry_2
La0 Ni9 3.161543 1_655
La0 Ni8 3.161543 1_565
La0 Ni5 3.161543 1_655
La0 Ni16 3.161543 1_554
La0 Ni6 3.161543 1_554
La0 Ni7 3.161543 1_554
La0 Ni3 3.161543 1_565
La0 Ni2 3.161543 1_554
La0 Si3 3.283318 1_555
La0 Si1 3.283318 1_655
La0 Si0 3.283318 1_555
La0 Si6 3.283318 1_564
La0 Si5 3.283318 1_554
La0 Si4 3.283318 1_554
La0 Si7 3.283318 1_665
La0 Si2 3.283318 1_554
La0 Ni14 3.321751 1_654
La0 Ni17 3.321751 1_555
La0 Ni1 3.321757 1_554
La0 Ni15 3.321757 1_665
La0 Ni0 3.321757 1_555
La0 Ni4 3.321757 1_554
La0 Ni13 3.321761 1_565
La0 Ni12 3.321761 1_554
La1 Ni16 3.161543 1_555
La1 Ni6 3.161543 1_555
La1 Ni3 3.161543 1_454
La1 Ni8 3.161543 1_555
La1 Ni7 3.161543 1_454
La1 Ni9 3.161543 1_555
La1 Ni5 3.161543 1_544
La1 Ni2 3.161543 1_544
La1 Si0 3.283318 1_545
La1 Si1 3.283318 1_555
La1 Si7 3.283318 1_554
La1 Si6 3.283318 1_554
La1 Si2 3.283318 1_555
La1 Si5 3.283318 1_454
La1 Si3 3.283318 1_444
La1 Si4 3.283318 1_555
La1 Ni13 3.321751 1_455
La1 Ni12 3.321751 1_554
La1 Ni4 3.321757 1_554
La1 Ni0 3.321757 1_555
La1 Ni15 3.321757 1_555
La1 Ni1 3.321757 1_444
La1 Ni17 3.321761 1_555
La1 Ni14 3.321761 1_544
Si0 Si1 2.682711 1_555
Si2 Si3 2.682711 1_555
Si4 Si7 2.682711 1_555
Si5 Si6 2.682711 1_555
Ni0 Ni10 2.382245 1_565
Ni0 Ni12 2.391355 1_554
Ni0 Ni17 2.391362 1_555
Ni0 Si3 2.461871 1_555
Ni0 Si2 2.461871 1_555
Ni0 Si0 2.507276 1_555
Ni0 Si1 2.507276 1_555
Ni0 Ni1 2.518054 1_555
Ni0 Ni3 2.525382 1_565
Ni0 Ni6 2.525382 1_555
Ni1 Ni10 2.382245 1_565
Ni1 Ni13 2.391355 1_566
Ni1 Ni14 2.391362 1_655
Ni1 Si2 2.461871 1_555
Ni1 Si3 2.461871 1_555
Ni1 Si6 2.507276 1_565
Ni1 Si5 2.507276 1_565
Ni1 Ni6 2.525382 1_555
Ni1 Ni3 2.525382 1_565
Ni2 Si6 2.304983 1_565
Ni2 Si0 2.337039 1_556
Ni2 Si4 2.505218 1_555
Ni2 Si3 2.505218 1_455
Ni2 Ni6 2.538290 1_555
Ni2 Ni5 2.538290 1_555
Ni3 Si7 2.304983 1_655
Ni3 Si3 2.337039 1_545
Ni3 Si5 2.505218 1_555
Ni3 Si0 2.505218 1_545
Ni3 Ni8 2.538290 1_555
Ni3 Ni7 2.538290 1_555
Ni4 Si7 2.461871 1_555
Ni4 Si4 2.461871 1_555
Ni4 Si6 2.507276 1_555
Ni4 Si5 2.507276 1_555
Ni4 Ni5 2.525382 1_545
Ni5 Si3 2.304983 1_455
Ni5 Si7 2.337039 1_565
Ni5 Si6 2.505218 1_565
Ni5 Si1 2.505218 1_555
Ni5 Ni9 2.538290 1_555
Ni6 Si4 2.304983 1_555
Ni6 Si2 2.337039 1_555
Ni6 Si6 2.505218 1_565
Ni6 Si1 2.505218 1_555
Ni6 Ni9 2.538290 1_555
Ni7 Si5 2.304983 1_555
Ni7 Si1 2.337039 1_656
Ni7 Si7 2.505218 1_655
Ni7 Si2 2.505218 1_555
Ni8 Si0 2.304983 1_545
Ni8 Si6 2.337039 1_554
Ni8 Si7 2.505218 1_655
Ni8 Si2 2.505218 1_555
Ni9 Si1 2.304983 1_555
Ni9 Si5 2.337039 1_454
Ni9 Si4 2.505218 1_555
Ni9 Si3 2.505218 1_455
Ni10 Si6 2.317048 1_555
Ni10 Si0 2.317048 1_545
Ni10 Si1 2.317048 1_545
Ni10 Si5 2.317048 1_555
Ni10 Ni15 2.382245 1_555
Ni10 Ni4 2.382245 1_555
Ni10 Ni5 2.564741 1_545
Ni10 Ni3 2.564741 1_555
Ni10 Ni6 2.564741 1_545
Ni10 Ni16 2.564741 1_555
Ni11 Si2 2.317048 1_455
Ni11 Si3 2.317048 1_455
Ni11 Si4 2.317048 1_555
Ni11 Si7 2.317048 1_555
Ni11 Ni17 2.382250 1_455
Ni11 Ni13 2.382250 1_455
Ni11 Ni12 2.382250 1_555
Ni11 Ni14 2.382250 1_555
Ni11 Ni8 2.564741 1_455
Ni11 Ni2 2.564741 1_555
Ni11 Ni7 2.564741 1_455
Ni11 Ni9 2.564741 1_555
Ni12 Ni4 2.391362 1_555
Ni12 Si1 2.461864 1_556
Ni12 Si0 2.461871 1_556
Ni12 Si7 2.507277 1_555
Ni12 Si4 2.507283 1_555
Ni12 Ni14 2.518054 1_555
Ni12 Ni7 2.525378 1_455
Ni12 Ni2 2.525388 1_555
Ni13 Ni15 2.391362 1_655
Ni13 Si5 2.461864 1_554
Ni13 Si6 2.461871 1_554
Ni13 Si4 2.507277 1_655
Ni13 Si7 2.507283 1_655
Ni13 Ni17 2.518054 1_555
Ni13 Ni9 2.525378 1_655
Ni13 Ni8 2.525388 1_555
Ni14 Ni15 2.391355 1_566
Ni14 Si1 2.461864 1_556
Ni14 Si0 2.461871 1_556
Ni14 Si2 2.507277 1_455
Ni14 Si3 2.507283 1_455
Ni14 Ni7 2.525378 1_455
Ni14 Ni2 2.525388 1_555
Ni15 Si7 2.461871 1_555
Ni15 Si4 2.461871 1_555
Ni15 Si1 2.507276 1_545
Ni15 Si0 2.507276 1_545
Ni15 Ni4 2.518054 1_555
Ni15 Ni5 2.525382 1_545
Ni15 Ni16 2.525382 1_555
Ni16 Si2 2.304983 1_555
Ni16 Si4 2.337039 1_555
Ni16 Si5 2.505218 1_555
Ni16 Si0 2.505218 1_545
Ni16 Ni4 2.525382 1_555
Ni16 Ni8 2.538290 1_555
Ni16 Ni7 2.538290 1_555
Ni17 Ni4 2.391355 1_554
Ni17 Si5 2.461864 1_554
Ni17 Si6 2.461871 1_554
Ni17 Si3 2.507277 1_555
Ni17 Si2 2.507283 1_555
Ni17 Ni9 2.525378 1_655
Ni17 Ni8 2.525388 1_555
