# generated using pymatgen
data_GaPbF5
_symmetry_space_group_name_H-M   'P 1'
_cell_length_a   11.08751903
_cell_length_b   11.08751903
_cell_length_c   11.08751903
_cell_angle_alpha   96.58697672
_cell_angle_beta   96.58697672
_cell_angle_gamma   140.40575737
_symmetry_Int_Tables_number   1
_chemical_formula_structural   GaPbF5
_chemical_formula_sum   'Ga8 Pb8 F40'
_cell_volume   817.37477077
_cell_formula_units_Z   8
loop_
 _symmetry_equiv_pos_site_id
 _symmetry_equiv_pos_as_xyz
  1  'x, y, z'
loop_
 _atom_site_type_symbol
 _atom_site_label
 _atom_site_symmetry_multiplicity
 _atom_site_fract_x
 _atom_site_fract_y
 _atom_site_fract_z
 _atom_site_occupancy
  Ga  Ga0  1  0.71570000  0.71570000  0.00000000  1
  Ga  Ga1  1  0.64496700  0.16225100  0.85031500  1
  Ga  Ga2  1  0.31193600  0.79465200  0.14968500  1
  Ga  Ga3  1  0.16225100  0.31193600  0.51728400  1
  Ga  Ga4  1  0.79465200  0.64496700  0.48271600  1
  Ga  Ga5  1  0.21819800  0.21819800  0.00000000  1
  Ga  Ga6  1  0.97217200  0.47217200  0.50000000  1
  Ga  Ga7  1  0.47217200  0.97217200  0.50000000  1
  Pb  Pb0  1  0.93938600  0.21471300  0.17807300  1
  Pb  Pb1  1  0.03664000  0.76131300  0.82192700  1
  Pb  Pb2  1  0.21471300  0.03664000  0.27532700  1
  Pb  Pb3  1  0.76131300  0.93938600  0.72467300  1
  Pb  Pb4  1  0.72727900  0.41707800  0.17433500  1
  Pb  Pb5  1  0.24274300  0.55294500  0.82566500  1
  Pb  Pb6  1  0.41707800  0.24274300  0.68979900  1
  Pb  Pb7  1  0.55294500  0.72727900  0.31020100  1
  F  F0  1  0.51191700  0.90242300  0.81147900  1
  F  F1  1  0.09094400  0.70043800  0.18852100  1
  F  F2  1  0.90242300  0.09094400  0.39050500  1
  F  F3  1  0.70043800  0.51191700  0.60949500  1
  F  F4  1  0.72336200  0.22336200  0.50000000  1
  F  F5  1  0.22336200  0.72336200  0.50000000  1
  F  F6  1  0.46742600  0.46742600  0.00000000  1
  F  F7  1  0.40986800  0.06368400  0.86257300  1
  F  F8  1  0.20111100  0.54729500  0.13742700  1
  F  F9  1  0.06368400  0.20111100  0.65381600  1
  F  F10  1  0.54729500  0.40986800  0.34618400  1
  F  F11  1  0.75525000  0.24543700  0.03062900  1
  F  F12  1  0.21480800  0.72462100  0.96937100  1
  F  F13  1  0.24543700  0.21480800  0.49018700  1
  F  F14  1  0.72462100  0.75525000  0.50981300  1
  F  F15  1  0.55180100  0.90310100  0.14217400  1
  F  F16  1  0.76092700  0.40962600  0.85782600  1
  F  F17  1  0.90310100  0.76092700  0.35130000  1
  F  F18  1  0.40962600  0.55180000  0.64870000  1
  F  F19  1  0.96569000  0.96569000  0.00000000  1
  F  F20  1  0.91222700  0.36305300  0.32175200  1
  F  F21  1  0.04130100  0.59047500  0.67824800  1
  F  F22  1  0.36305300  0.04130100  0.45082600  1
  F  F23  1  0.59047500  0.91222700  0.54917400  1
  F  F24  1  0.33169400  0.16419200  0.07346200  1
  F  F25  1  0.09073100  0.25823200  0.92653800  1
  F  F26  1  0.16419200  0.09073100  0.83249900  1
  F  F27  1  0.25823200  0.33169400  0.16750100  1
  F  F28  1  0.51717300  0.08834700  0.66718100  1
  F  F29  1  0.42116600  0.84999200  0.33281900  1
  F  F30  1  0.08834700  0.42116600  0.57117400  1
  F  F31  1  0.84999200  0.51717300  0.42882600  1
  F  F32  1  0.59884600  0.76442400  0.92251700  1
  F  F33  1  0.84190700  0.67632900  0.07748300  1
  F  F34  1  0.76442400  0.84190700  0.16557800  1
  F  F35  1  0.67632900  0.59884600  0.83442200  1
  F  F36  1  0.43792300  0.05186100  0.19884500  1
  F  F37  1  0.85301600  0.23907800  0.80115500  1
  F  F38  1  0.05186100  0.85301600  0.61393800  1
  F  F39  1  0.23907800  0.43792300  0.38606200  1
loop_
_geom_bond_atom_site_label_1
_geom_bond_atom_site_label_2
_geom_bond_distance
_geom_bond_site_symmetry_2
F0 Ga1 1.918581 1_565
F0 Pb5 2.524139 1_555
F0 Pb3 2.774004 1_555
F1 Ga2 1.918581 1_555
F1 Pb4 2.524146 1_455
F1 Pb2 2.774004 1_565
F2 Ga3 1.918586 1_655
F2 Pb7 2.524143 1_545
F2 Pb0 2.773993 1_555
F3 Ga4 1.918591 1_555
F3 Pb6 2.524139 1_555
F3 Pb1 2.773997 1_655
F4 Ga6 1.868682 1_555
F4 Ga7 1.886557 1_545
F5 Ga7 1.868682 1_555
F5 Ga6 1.886557 1_455
F6 Ga0 1.864656 1_555
F6 Ga5 1.871821 1_555
F7 Ga1 1.931980 1_555
F7 Pb1 2.532109 1_545
F8 Ga2 1.931980 1_555
F8 Pb0 2.532109 1_455
F9 Ga3 1.931980 1_555
F9 Pb3 2.532109 1_445
F10 Ga4 1.931980 1_555
F10 Pb2 2.532109 1_555
F11 Ga1 1.902839 1_554
F11 Pb4 2.565910 1_555
F11 Pb0 2.718573 1_555
F12 Ga2 1.902839 1_556
F12 Pb5 2.565902 1_555
F12 Pb1 2.718573 1_555
F13 Ga3 1.902839 1_555
F13 Pb6 2.565910 1_555
F13 Pb2 2.718573 1_555
F14 Ga4 1.902839 1_555
F14 Pb7 2.565904 1_555
F14 Pb3 2.718573 1_555
F15 Ga2 1.916018 1_555
F15 Pb0 2.640590 1_565
F16 Ga1 1.916008 1_555
F16 Pb1 2.640596 1_655
F17 Ga4 1.916018 1_555
F17 Pb2 2.640590 1_665
F18 Ga3 1.916013 1_555
F18 Pb3 2.640597 1_555
F19 Ga0 1.877544 1_555
F19 Ga5 1.896456 1_665
F20 Ga6 1.929294 1_555
F20 Pb0 2.367658 1_555
F21 Ga6 1.929294 1_455
F21 Pb1 2.367658 1_555
F22 Ga7 1.929294 1_545
F22 Pb2 2.367658 1_555
F23 Ga7 1.929294 1_555
F23 Pb3 2.367658 1_555
F24 Ga5 1.908808 1_555
F24 Pb2 2.693894 1_555
F24 Pb4 2.748118 1_555
F25 Ga5 1.908799 1_556
F25 Pb3 2.693897 1_445
F25 Pb5 2.748129 1_555
F26 Ga5 1.908794 1_556
F26 Pb1 2.693903 1_545
F26 Pb6 2.748127 1_555
F27 Ga5 1.908799 1_555
F27 Pb0 2.693897 1_455
F27 Pb7 2.748119 1_555
F28 Ga7 1.895679 1_545
F28 Ga1 1.992714 1_555
F28 Pb6 2.668026 1_555
F29 Ga7 1.895679 1_555
F29 Ga2 1.992714 1_555
F29 Pb7 2.668036 1_555
F30 Ga6 1.895679 1_455
F30 Ga3 1.992714 1_555
F30 Pb5 2.668025 1_555
F31 Ga6 1.895679 1_555
F31 Ga4 1.992714 1_555
F31 Pb4 2.668026 1_555
F32 Ga0 1.907443 1_556
F32 Pb5 2.534161 1_555
F33 Ga0 1.907443 1_555
F33 Pb4 2.534158 1_555
F34 Ga0 1.907443 1_555
F34 Pb7 2.534151 1_555
F35 Ga0 1.907443 1_556
F35 Pb6 2.534158 1_555
F36 Ga2 1.926262 1_545
F36 Pb2 2.596741 1_555
F36 Pb4 2.682312 1_555
F37 Ga1 1.926262 1_555
F37 Pb3 2.596741 1_545
F37 Pb5 2.682313 1_655
F38 Ga4 1.926262 1_455
F38 Pb1 2.596741 1_555
F38 Pb6 2.682312 1_565
F39 Ga3 1.926262 1_555
F39 Pb0 2.596741 1_455
F39 Pb7 2.682317 1_555
