# generated using pymatgen
data_Cs2TeSO10
_symmetry_space_group_name_H-M   'P 1'
_cell_length_a   7.64300300
_cell_length_b   12.73359600
_cell_length_c   12.80085000
_cell_angle_alpha   69.86308695
_cell_angle_beta   90.00000000
_cell_angle_gamma   90.00000000
_symmetry_Int_Tables_number   1
_chemical_formula_structural   Cs2TeSO10
_chemical_formula_sum   'Cs8 Te4 S4 O40'
_cell_volume   1169.66257640
_cell_formula_units_Z   4
loop_
 _symmetry_equiv_pos_site_id
 _symmetry_equiv_pos_as_xyz
  1  'x, y, z'
loop_
 _atom_site_type_symbol
 _atom_site_label
 _atom_site_symmetry_multiplicity
 _atom_site_fract_x
 _atom_site_fract_y
 _atom_site_fract_z
 _atom_site_occupancy
  Cs  Cs0  1  0.47151000  0.38553200  0.36997500  1
  Cs  Cs1  1  0.52849000  0.61446800  0.63002500  1
  Cs  Cs2  1  0.97151000  0.11446800  0.63002500  1
  Cs  Cs3  1  0.02849000  0.88553200  0.36997500  1
  Cs  Cs4  1  0.99050400  0.64162400  0.12710300  1
  Cs  Cs5  1  0.00949600  0.35837600  0.87289700  1
  Cs  Cs6  1  0.49050400  0.85837600  0.87289700  1
  Cs  Cs7  1  0.50949600  0.14162400  0.12710300  1
  Te  Te0  1  0.00000000  0.50000000  0.50000000  1
  Te  Te1  1  0.50000000  0.00000000  0.50000000  1
  Te  Te2  1  0.00000000  0.00000000  0.00000000  1
  Te  Te3  1  0.50000000  0.50000000  0.00000000  1
  S  S0  1  0.50607100  0.75034200  0.25392900  1
  S  S1  1  0.49392900  0.24965800  0.74607100  1
  S  S2  1  0.00607100  0.74965800  0.74607100  1
  S  S3  1  0.99392900  0.25034200  0.25392900  1
  O  O0  1  0.73333900  0.93792800  0.52430300  1
  O  O1  1  0.26666100  0.06207200  0.47569700  1
  O  O2  1  0.23333900  0.56207200  0.47569700  1
  O  O3  1  0.76666100  0.43792800  0.52430300  1
  O  O4  1  0.58615500  0.65635300  0.22868600  1
  O  O5  1  0.41384500  0.34364700  0.77131400  1
  O  O6  1  0.08615500  0.84364700  0.77131400  1
  O  O7  1  0.91384500  0.15635300  0.22868600  1
  O  O8  1  0.81186900  0.76166700  0.73254400  1
  O  O9  1  0.18813100  0.23833300  0.26745600  1
  O  O10  1  0.31186900  0.73833300  0.26745600  1
  O  O11  1  0.68813100  0.26166700  0.73254400  1
  O  O12  1  0.51758600  0.85823000  0.15808300  1
  O  O13  1  0.48241400  0.14177000  0.84191700  1
  O  O14  1  0.01758600  0.64177000  0.84191700  1
  O  O15  1  0.98241400  0.35823000  0.15808300  1
  O  O16  1  0.38786500  0.59089200  0.07531900  1
  O  O17  1  0.61213500  0.40910800  0.92468100  1
  O  O18  1  0.88786500  0.90910800  0.92468100  1
  O  O19  1  0.11213500  0.09089200  0.07531900  1
  O  O20  1  0.67095300  0.61644100  0.98448400  1
  O  O21  1  0.32904700  0.38355900  0.01551600  1
  O  O22  1  0.17095300  0.88355900  0.01551600  1
  O  O23  1  0.82904700  0.11644100  0.98448400  1
  O  O24  1  0.88839900  0.89998400  0.13075900  1
  O  O25  1  0.11160100  0.10001600  0.86924100  1
  O  O26  1  0.38839900  0.60001600  0.86924100  1
  O  O27  1  0.61160100  0.39998400  0.13075900  1
  O  O28  1  0.59091200  0.75695100  0.35537400  1
  O  O29  1  0.40908800  0.24304900  0.64462600  1
  O  O30  1  0.09091200  0.74304900  0.64462600  1
  O  O31  1  0.90908800  0.25695100  0.35537400  1
  O  O32  1  0.95571800  0.64553200  0.39085800  1
  O  O33  1  0.04428200  0.35446800  0.60914200  1
  O  O34  1  0.45571800  0.85446800  0.60914200  1
  O  O35  1  0.54428200  0.14553200  0.39085800  1
  O  O36  1  0.43569000  0.94700700  0.38048400  1
  O  O37  1  0.56431000  0.05299300  0.61951600  1
  O  O38  1  0.93569000  0.55299300  0.61951600  1
  O  O39  1  0.06431000  0.44700700  0.38048400  1
loop_
_geom_bond_atom_site_label_1
_geom_bond_atom_site_label_2
_geom_bond_distance
_geom_bond_site_symmetry_2
Cs0 O35 3.026193 1_555
Cs0 O27 3.188914 1_555
Cs0 O3 3.216239 1_555
Cs0 O39 3.223252 1_555
Cs0 O29 3.389402 1_555
Cs0 O9 3.408827 1_555
Cs0 O4 3.411277 1_555
Cs0 O2 3.506180 1_555
Cs1 O34 3.026193 1_555
Cs1 O26 3.188914 1_555
Cs1 O2 3.216239 1_555
Cs1 O38 3.223252 1_555
Cs1 O28 3.389402 1_555
Cs1 O8 3.408827 1_555
Cs1 O5 3.411277 1_555
Cs1 O3 3.506180 1_555
Cs2 O33 3.026193 1_655
Cs2 O25 3.188914 1_655
Cs2 O1 3.216239 1_655
Cs2 O37 3.223252 1_555
Cs2 O31 3.389402 1_555
Cs2 O11 3.408827 1_555
Cs2 O6 3.411277 1_645
Cs2 O0 3.506180 1_545
Cs3 O32 3.026193 1_455
Cs3 O24 3.188914 1_455
Cs3 O0 3.216239 1_455
Cs3 O36 3.223252 1_555
Cs3 O30 3.389402 1_555
Cs3 O10 3.408827 1_555
Cs3 O7 3.411277 1_465
Cs3 O1 3.506180 1_565
Cs4 O20 3.131112 1_554
Cs4 O16 3.221044 1_655
Cs4 O22 3.225418 1_655
Cs4 O4 3.383021 1_555
Cs4 O39 3.383111 1_655
Cs4 O24 3.397106 1_555
Cs4 O32 3.404140 1_555
Cs4 O15 3.492553 1_555
Cs4 O10 3.507225 1_655
Cs4 O18 3.585239 1_554
Cs4 O14 3.655848 1_654
Cs5 O21 3.131112 1_556
Cs5 O17 3.221044 1_455
Cs5 O23 3.225418 1_455
Cs5 O5 3.383021 1_555
Cs5 O38 3.383111 1_455
Cs5 O25 3.397106 1_555
Cs5 O33 3.404140 1_555
Cs5 O14 3.492553 1_555
Cs5 O11 3.507225 1_455
Cs5 O19 3.585239 1_556
Cs5 O15 3.655848 1_456
Cs6 O22 3.131112 1_556
Cs6 O18 3.221044 1_555
Cs6 O20 3.225418 1_555
Cs6 O6 3.383021 1_555
Cs6 O37 3.383111 1_565
Cs6 O26 3.397106 1_555
Cs6 O34 3.404140 1_555
Cs6 O13 3.492553 1_565
Cs6 O8 3.507225 1_555
Cs6 O16 3.585239 1_556
Cs6 O12 3.655848 1_556
Cs7 O23 3.131112 1_554
Cs7 O19 3.221044 1_555
Cs7 O21 3.225418 1_555
Cs7 O7 3.383021 1_555
Cs7 O36 3.383111 1_545
Cs7 O27 3.397106 1_555
Cs7 O35 3.404140 1_555
Cs7 O12 3.492553 1_545
Cs7 O9 3.507225 1_555
Cs7 O17 3.585239 1_554
Cs7 O13 3.655848 1_554
O0 Te1 1.932036 1_565
O1 Te1 1.932036 1_555
O2 Te0 1.932036 1_555
O3 Te0 1.932036 1_655
O4 S0 1.475706 1_555
O5 S1 1.475706 1_555
O6 S2 1.475706 1_555
O7 S3 1.475706 1_555
O8 S2 1.496076 1_655
O9 S3 1.496076 1_455
O10 S0 1.496076 1_555
O11 S1 1.496076 1_555
O12 S0 1.496612 1_555
O13 S1 1.496612 1_555
O14 S2 1.496612 1_555
O15 S3 1.496612 1_555
O16 Te3 1.942155 1_555
O17 Te3 1.942155 1_556
O18 Te2 1.942155 1_666
O19 Te2 1.942155 1_555
O20 Te3 1.934504 1_556
O21 Te3 1.934504 1_555
O22 Te2 1.934504 1_565
O23 Te2 1.934504 1_656
O24 Te2 1.919233 1_665
O25 Te2 1.919233 1_556
O26 Te3 1.919233 1_556
O27 Te3 1.919233 1_555
O28 S0 1.479567 1_555
O29 S1 1.479567 1_555
O30 S2 1.479567 1_555
O31 S3 1.479567 1_555
O32 Te0 1.928206 1_655
O33 Te0 1.928206 1_555
O34 Te1 1.928206 1_565
O35 Te1 1.928206 1_555
O36 Te1 1.936070 1_565
O37 Te1 1.936070 1_555
O38 Te0 1.936070 1_655
O39 Te0 1.936070 1_555
