# generated using pymatgen
data_GdMoBrO4
_symmetry_space_group_name_H-M   'P 1'
_cell_length_a   6.97585400
_cell_length_b   7.37872871
_cell_length_c   11.20958052
_cell_angle_alpha   106.30070761
_cell_angle_beta   107.11826499
_cell_angle_gamma   92.33254164
_symmetry_Int_Tables_number   1
_chemical_formula_structural   GdMoBrO4
_chemical_formula_sum   'Gd4 Mo4 Br4 O16'
_cell_volume   524.45797404
_cell_formula_units_Z   4
loop_
 _symmetry_equiv_pos_site_id
 _symmetry_equiv_pos_as_xyz
  1  'x, y, z'
loop_
 _atom_site_type_symbol
 _atom_site_label
 _atom_site_symmetry_multiplicity
 _atom_site_fract_x
 _atom_site_fract_y
 _atom_site_fract_z
 _atom_site_occupancy
  Gd  Gd0  1  0.64199900  0.12361000  0.73013000  1
  Gd  Gd1  1  0.35800100  0.87639000  0.26987000  1
  Gd  Gd2  1  0.39486800  0.64732200  0.76929100  1
  Gd  Gd3  1  0.60513200  0.35267800  0.23070900  1
  Mo  Mo0  1  0.73608300  0.81568700  0.13411600  1
  Mo  Mo1  1  0.26391700  0.18431300  0.86588400  1
  Mo  Mo2  1  0.77466300  0.59102800  0.63085100  1
  Mo  Mo3  1  0.22533700  0.40897200  0.36914900  1
  Br  Br0  1  0.25810400  0.98208700  0.51637700  1
  Br  Br1  1  0.74189600  0.01791300  0.48362300  1
  Br  Br2  1  0.19707100  0.71686200  0.98147500  1
  Br  Br3  1  0.80292900  0.28313800  0.01852500  1
  O  O0  1  0.67352100  0.72786500  0.96067200  1
  O  O1  1  0.32647900  0.27213500  0.03932800  1
  O  O2  1  0.00327300  0.86543100  0.20693600  1
  O  O3  1  0.99672700  0.13456900  0.79306400  1
  O  O4  1  0.62558700  0.65460400  0.20047800  1
  O  O5  1  0.37441300  0.34539600  0.79952200  1
  O  O6  1  0.38901900  0.97661300  0.81814100  1
  O  O7  1  0.61098100  0.02338700  0.18185900  1
  O  O8  1  0.04214100  0.63722400  0.67734100  1
  O  O9  1  0.95785900  0.36277600  0.32265900  1
  O  O10  1  0.69889600  0.42288800  0.70323900  1
  O  O11  1  0.30110400  0.57711200  0.29676100  1
  O  O12  1  0.67834500  0.50582100  0.45587900  1
  O  O13  1  0.32165500  0.49417900  0.54412100  1
  O  O14  1  0.65984800  0.79736500  0.70062900  1
  O  O15  1  0.34015200  0.20263500  0.29937100  1
loop_
_geom_bond_atom_site_label_1
_geom_bond_atom_site_label_2
_geom_bond_distance
_geom_bond_site_symmetry_2
Gd0 O10 2.344719 1_555
Gd0 O14 2.349805 1_545
Gd0 O3 2.356170 1_555
Gd0 O6 2.594986 1_545
Gd0 O5 2.675139 1_555
Gd1 O11 2.344719 1_555
Gd1 O15 2.349805 1_565
Gd1 O2 2.356170 1_555
Gd1 O7 2.594986 1_565
Gd1 O4 2.675139 1_555
Gd2 O0 2.338671 1_555
Gd2 O6 2.340840 1_555
Gd2 O13 2.345564 1_555
Gd2 O5 2.350493 1_555
Gd2 O8 2.360361 1_555
Gd2 O14 2.526705 1_555
Gd2 O10 2.882830 1_555
Gd3 O1 2.338671 1_555
Gd3 O7 2.340840 1_555
Gd3 O12 2.345564 1_555
Gd3 O4 2.350493 1_555
Gd3 O9 2.360361 1_555
Gd3 O15 2.526705 1_555
Gd3 O11 2.882830 1_555
Mo0 O2 1.776385 1_655
Mo0 O0 1.777824 1_554
Mo0 O4 1.821968 1_555
Mo0 O7 1.822127 1_565
Mo1 O3 1.776385 1_455
Mo1 O1 1.777824 1_556
Mo1 O5 1.821968 1_555
Mo1 O6 1.822127 1_545
Mo2 O8 1.773525 1_655
Mo2 O12 1.786410 1_555
Mo2 O10 1.800348 1_555
Mo2 O14 1.835994 1_555
Mo3 O9 1.773525 1_455
Mo3 O13 1.786410 1_555
Mo3 O11 1.800348 1_555
Mo3 O15 1.835994 1_555
Br0 Gd0 2.931498 1_565
Br0 Gd1 2.949142 1_555
Br1 Gd1 2.931498 1_545
Br1 Gd0 2.949142 1_555
Br2 Gd1 2.952387 1_556
Br2 Gd2 3.021406 1_555
Br3 Gd0 2.952387 1_554
Br3 Gd3 3.021406 1_555
