# generated using pymatgen
data_SrLaFeCoO6
_symmetry_space_group_name_H-M   'P 1'
_cell_length_a   5.54358032
_cell_length_b   7.73210587
_cell_length_c   5.54630563
_cell_angle_alpha   89.99964468
_cell_angle_beta   90.81322956
_cell_angle_gamma   89.99974166
_symmetry_Int_Tables_number   1
_chemical_formula_structural   SrLaFeCoO6
_chemical_formula_sum   'Sr2 La2 Fe2 Co2 O12'
_cell_volume   237.71040208
_cell_formula_units_Z   2
loop_
 _symmetry_equiv_pos_site_id
 _symmetry_equiv_pos_as_xyz
  1  'x, y, z'
loop_
 _atom_site_type_symbol
 _atom_site_label
 _atom_site_symmetry_multiplicity
 _atom_site_fract_x
 _atom_site_fract_y
 _atom_site_fract_z
 _atom_site_occupancy
  Sr  Sr0  1  0.00000100  0.75040400  0.50004100  1
  Sr  Sr1  1  0.50000000  0.24954500  0.00003500  1
  La  La0  1  0.00001100  0.24976400  0.50013500  1
  La  La1  1  0.50000200  0.74970200  0.00017600  1
  Fe  Fe0  1  0.00001400  0.49998200  0.00002200  1
  Fe  Fe1  1  0.49998400  0.99990100  0.49997600  1
  Co  Co0  1  0.99999900  0.99999300  0.00001300  1
  Co  Co1  1  0.49999000  0.49991200  0.50000100  1
  O  O0  1  0.50000600  0.24903800  0.49998100  1
  O  O1  1  0.00000900  0.75942200  0.99997800  1
  O  O2  1  0.50000100  0.75096800  0.49992400  1
  O  O3  1  0.99998400  0.24065200  0.99993600  1
  O  O4  1  0.74691000  0.00010700  0.74667400  1
  O  O5  1  0.25628300  0.50015600  0.25560300  1
  O  O6  1  0.25312600  0.00006900  0.25327300  1
  O  O7  1  0.74376700  0.50011600  0.74436900  1
  O  O8  1  0.25242400  0.00008600  0.74733700  1
  O  O9  1  0.75151200  0.50010400  0.24814400  1
  O  O10  1  0.74754600  0.00004200  0.25259100  1
  O  O11  1  0.24843100  0.50003900  0.75179000  1
loop_
_geom_bond_atom_site_label_1
_geom_bond_atom_site_label_2
_geom_bond_distance
_geom_bond_site_symmetry_2
La0 O8 2.740478 1_555
La0 O10 2.741819 1_455
La0 O11 2.744986 1_555
La0 O9 2.746471 1_455
La0 O4 2.760286 1_455
La0 O6 2.761435 1_555
La0 O7 2.766682 1_455
La0 O5 2.767798 1_555
La0 O0 2.771780 1_555
La0 O0 2.771812 1_455
La0 O3 2.772946 1_455
La0 O3 2.775149 1_454
La1 O9 2.739624 1_555
La1 O11 2.741316 1_554
La1 O10 2.745060 1_565
La1 O8 2.746555 1_564
La1 O5 2.758574 1_555
La1 O7 2.760019 1_554
La1 O6 2.765075 1_565
La1 O4 2.766523 1_564
La1 O2 2.771773 1_555
La1 O1 2.772754 1_554
La1 O1 2.772864 1_654
La1 O2 2.774568 1_554
Fe0 O9 1.960966 1_455
Fe0 O11 1.961065 1_554
Fe0 O5 1.992604 1_555
Fe0 O7 1.992798 1_454
Fe0 O3 2.005167 1_454
Fe0 O1 2.006018 1_554
Fe1 O6 1.921405 1_565
Fe1 O4 1.921650 1_565
Fe1 O2 1.924776 1_555
Fe1 O0 1.926354 1_565
Fe1 O8 1.954242 1_565
Fe1 O10 1.954345 1_565
Co0 O1 1.860120 1_654
Co0 O3 1.860801 1_564
Co0 O6 1.971336 1_665
Co0 O4 1.971496 1_564
Co0 O10 1.994162 1_565
Co0 O8 1.994439 1_664
Co1 O5 1.900169 1_555
Co1 O7 1.900324 1_555
Co1 O0 1.939784 1_555
Co1 O2 1.941192 1_555
Co1 O11 1.987517 1_555
Co1 O9 1.987641 1_555
O0 Sr1 2.772856 1_555
O0 Sr1 2.773456 1_556
O1 Sr0 2.773680 1_555
O1 Sr0 2.774379 1_556
O2 Sr0 2.771784 1_655
O2 Sr0 2.771803 1_555
O3 Sr1 2.772562 1_556
O3 Sr1 2.772724 1_656
O4 Sr0 2.760771 1_645
O4 Sr1 2.760901 1_556
O5 Sr1 2.764745 1_555
O5 Sr0 2.766791 1_555
O6 Sr1 2.760650 1_555
O6 Sr0 2.761036 1_545
O7 Sr1 2.764944 1_556
O7 Sr0 2.766563 1_655
O8 Sr0 2.740805 1_545
O8 Sr1 2.741140 1_556
O9 Sr1 2.745276 1_555
O9 Sr0 2.745985 1_655
O10 Sr1 2.740879 1_555
O10 Sr0 2.741055 1_645
O11 Sr1 2.745432 1_556
O11 Sr0 2.745745 1_555
