# generated using pymatgen
data_Zn(SbO2)2
_symmetry_space_group_name_H-M   'P 1'
_cell_length_a   5.97983800
_cell_length_b   6.04485659
_cell_length_c   21.15904019
_cell_angle_alpha   92.49067434
_cell_angle_beta   94.67277838
_cell_angle_gamma   112.57629477
_symmetry_Int_Tables_number   1
_chemical_formula_structural   Zn(SbO2)2
_chemical_formula_sum   'Zn6 Sb12 O24'
_cell_volume   701.55897998
_cell_formula_units_Z   6
loop_
 _symmetry_equiv_pos_site_id
 _symmetry_equiv_pos_as_xyz
  1  'x, y, z'
loop_
 _atom_site_type_symbol
 _atom_site_label
 _atom_site_symmetry_multiplicity
 _atom_site_fract_x
 _atom_site_fract_y
 _atom_site_fract_z
 _atom_site_occupancy
  Zn  Zn0  1  0.87696600  0.17322300  0.93745000  1
  Zn  Zn1  1  0.50947300  0.51178400  0.58443800  1
  Zn  Zn2  1  0.45625500  0.47457000  0.03010500  1
  Zn  Zn3  1  0.17930300  0.78035000  0.30244800  1
  Zn  Zn4  1  0.79449600  0.17924800  0.71596700  1
  Zn  Zn5  1  0.42257500  0.46230300  0.36850800  1
  Sb  Sb0  1  0.80391000  0.64070100  0.83484200  1
  Sb  Sb1  1  0.30747900  0.70230500  0.90732000  1
  Sb  Sb2  1  0.46805800  0.94941900  0.45703200  1
  Sb  Sb3  1  0.34126800  0.14633900  0.81780300  1
  Sb  Sb4  1  0.11654600  0.77645400  0.69078100  1
  Sb  Sb5  1  0.92224600  0.08874800  0.57033000  1
  Sb  Sb6  1  0.23080200  0.21580900  0.21377000  1
  Sb  Sb7  1  0.97215200  0.51347800  0.45650500  1
  Sb  Sb8  1  0.58153500  0.80030000  0.17787700  1
  Sb  Sb9  1  0.84802900  0.16818400  0.32429600  1
  Sb  Sb10  1  0.83492600  0.31537500  0.09448800  1
  Sb  Sb11  1  0.12343800  0.89263900  0.06052700  1
  O  O0  1  0.73031800  0.31062200  0.86754000  1
  O  O1  1  0.44866100  0.49161900  0.80058800  1
  O  O2  1  0.66385200  0.82119200  0.92048000  1
  O  O3  1  0.24079800  0.40275600  0.95109300  1
  O  O4  1  0.47070700  0.00702800  0.74914100  1
  O  O5  1  0.35739400  0.64978900  0.50466000  1
  O  O6  1  0.92373800  0.53390300  0.75035700  1
  O  O7  1  0.24849100  0.90173300  0.97812300  1
  O  O8  1  0.27087500  0.21467100  0.59975400  1
  O  O9  1  0.13203700  0.79397500  0.40552000  1
  O  O10  1  0.03842000  0.03090400  0.73949300  1
  O  O11  1  0.80966900  0.77663700  0.61425300  1
  O  O12  1  0.09687900  0.30689900  0.40351100  1
  O  O13  1  0.19555100  0.11052200  0.30341700  1
  O  O14  1  0.58634800  0.81608000  0.38650500  1
  O  O15  1  0.80307600  0.26605100  0.62707600  1
  O  O16  1  0.90988700  0.10561100  0.03187700  1
  O  O17  1  0.05007000  0.44796300  0.27480900  1
  O  O18  1  0.69488400  0.36182900  0.37908300  1
  O  O19  1  0.36665800  0.93190600  0.21875300  1
  O  O20  1  0.81928200  0.53698400  0.02888900  1
  O  O21  1  0.52159200  0.52391200  0.23309000  1
  O  O22  1  0.47075900  0.21277500  0.08817700  1
  O  O23  1  0.36060100  0.65341200  0.09932600  1
loop_
_geom_bond_atom_site_label_1
_geom_bond_atom_site_label_2
_geom_bond_distance
_geom_bond_site_symmetry_2
O0 Zn0 2.025246 1_555
O0 Sb0 2.036875 1_555
O0 Sb3 2.289635 1_555
O1 Sb3 1.994087 1_555
O1 Sb0 2.018083 1_555
O2 Sb1 1.960967 1_555
O2 Zn0 2.014465 1_565
O2 Sb0 2.439731 1_555
O3 Zn2 1.949339 1_556
O3 Sb1 1.986738 1_555
O3 Zn0 2.070499 1_455
O4 Sb3 1.999082 1_555
O4 Zn4 2.015596 1_555
O4 Sb4 2.260644 1_545
O5 Sb2 2.020153 1_555
O5 Zn1 2.197081 1_555
O5 Sb7 2.260797 1_455
O6 Sb4 2.041450 1_655
O6 Zn4 2.055099 1_555
O6 Sb0 2.142288 1_555
O7 Sb11 1.947185 1_556
O7 Sb1 2.019331 1_555
O8 Zn1 1.877423 1_555
O8 Sb5 1.960119 1_455
O9 Sb7 2.008765 1_455
O9 Sb2 2.052521 1_555
O9 Zn3 2.223895 1_555
O10 Zn4 2.025902 1_455
O10 Sb4 2.034405 1_545
O10 Sb3 2.225400 1_555
O11 Zn1 1.924740 1_555
O11 Sb5 2.038516 1_565
O11 Sb4 2.346716 1_655
O12 Sb7 2.025501 1_455
O12 Zn5 2.028514 1_555
O12 Sb9 2.059185 1_455
O13 Zn3 1.959712 1_545
O13 Sb6 2.028442 1_555
O13 Sb9 2.308168 1_455
O13 Zn5 2.342209 1_555
O14 Sb2 1.970313 1_555
O14 Zn5 1.984387 1_555
O14 Sb9 2.594838 1_565
O15 Sb5 1.926701 1_555
O15 Zn4 1.973923 1_555
O16 Sb10 1.987707 1_555
O16 Zn0 2.065527 1_554
O16 Sb11 2.204445 1_645
O17 Zn3 1.899539 1_555
O17 Sb9 2.051212 1_455
O17 Sb6 2.457608 1_555
O18 Zn5 1.944821 1_555
O18 Sb9 2.104951 1_555
O18 Sb7 2.129060 1_555
O19 Sb8 1.984470 1_555
O19 Sb6 2.165308 1_565
O19 Zn3 2.215124 1_555
O20 Sb10 1.991611 1_555
O20 Zn2 2.058310 1_555
O20 Sb11 2.247744 1_655
O21 Sb6 1.997710 1_555
O21 Sb8 2.015606 1_555
O22 Sb10 2.013228 1_555
O22 Zn2 2.068507 1_555
O22 Sb11 2.240170 1_545
O23 Sb8 1.977256 1_555
O23 Zn2 2.028492 1_555
O23 Sb11 2.502919 1_555
