# generated using pymatgen
data_CuW2O7
_symmetry_space_group_name_H-M   'P 1'
_cell_length_a   9.32502500
_cell_length_b   10.68663800
_cell_length_c   11.81728913
_cell_angle_alpha   86.85367663
_cell_angle_beta   90.00000000
_cell_angle_gamma   90.00000000
_symmetry_Int_Tables_number   1
_chemical_formula_structural   CuW2O7
_chemical_formula_sum   'Cu6 W12 O42'
_cell_volume   1175.85514663
_cell_formula_units_Z   6
loop_
 _symmetry_equiv_pos_site_id
 _symmetry_equiv_pos_as_xyz
  1  'x, y, z'
loop_
 _atom_site_type_symbol
 _atom_site_label
 _atom_site_symmetry_multiplicity
 _atom_site_fract_x
 _atom_site_fract_y
 _atom_site_fract_z
 _atom_site_occupancy
  Cu  Cu0  1  0.93215800  0.41207300  0.19512600  1
  Cu  Cu1  1  0.06784200  0.58792700  0.80487400  1
  Cu  Cu2  1  0.43029200  0.25000000  0.50000000  1
  Cu  Cu3  1  0.93215800  0.08792700  0.80487400  1
  Cu  Cu4  1  0.56970800  0.75000000  0.50000000  1
  Cu  Cu5  1  0.06784200  0.91207300  0.19512600  1
  W  W0  1  0.20861800  0.29082800  0.84097200  1
  W  W1  1  0.75212300  0.38107700  0.83165400  1
  W  W2  1  0.24787700  0.88107700  0.83165400  1
  W  W3  1  0.79138200  0.79082800  0.84097200  1
  W  W4  1  0.29702700  0.96136800  0.53160700  1
  W  W5  1  0.75212300  0.11892300  0.16834600  1
  W  W6  1  0.70297300  0.46136800  0.53160700  1
  W  W7  1  0.24787700  0.61892300  0.16834600  1
  W  W8  1  0.29702700  0.53863200  0.46839300  1
  W  W9  1  0.70297300  0.03863200  0.46839300  1
  W  W10  1  0.79138200  0.70917200  0.15902800  1
  W  W11  1  0.20861800  0.20917200  0.15902800  1
  O  O0  1  0.79232700  0.95779700  0.80330800  1
  O  O1  1  0.79139900  0.28498400  0.16651400  1
  O  O2  1  0.82004200  0.75000000  0.00000000  1
  O  O3  1  0.86963100  0.10246000  0.49779200  1
  O  O4  1  0.36083200  0.58965300  0.05528300  1
  O  O5  1  0.92863000  0.71279100  0.76160500  1
  O  O6  1  0.33438800  0.93771000  0.69043200  1
  O  O7  1  0.13036900  0.60246000  0.49779200  1
  O  O8  1  0.71357500  0.87458900  0.51666200  1
  O  O9  1  0.36083200  0.91034700  0.94471700  1
  O  O10  1  0.71357500  0.62541100  0.48333800  1
  O  O11  1  0.43306500  0.87798000  0.45330100  1
  O  O12  1  0.91763300  0.03184500  0.15040400  1
  O  O13  1  0.07137000  0.21279100  0.76160500  1
  O  O14  1  0.66561200  0.06229000  0.30956800  1
  O  O15  1  0.33438800  0.56229000  0.30956800  1
  O  O16  1  0.92863000  0.78720900  0.23839500  1
  O  O17  1  0.63916800  0.41034700  0.94471700  1
  O  O18  1  0.20767300  0.45779700  0.80330800  1
  O  O19  1  0.56693500  0.12202000  0.54669900  1
  O  O20  1  0.37428300  0.26703900  0.20158200  1
  O  O21  1  0.28642500  0.12541100  0.48333800  1
  O  O22  1  0.08236700  0.53184500  0.15040400  1
  O  O23  1  0.28642500  0.37458900  0.51666200  1
  O  O24  1  0.86963100  0.39754000  0.50220800  1
  O  O25  1  0.56693500  0.37798000  0.45330100  1
  O  O26  1  0.13036900  0.89754000  0.50220800  1
  O  O27  1  0.62571700  0.76703900  0.20158200  1
  O  O28  1  0.62571700  0.73296100  0.79841800  1
  O  O29  1  0.08236700  0.96815500  0.84959600  1
  O  O30  1  0.07137000  0.28720900  0.23839500  1
  O  O31  1  0.79232700  0.54220300  0.19669200  1
  O  O32  1  0.17995800  0.25000000  0.00000000  1
  O  O33  1  0.20860100  0.78498400  0.16651400  1
  O  O34  1  0.63916800  0.08965300  0.05528300  1
  O  O35  1  0.91763300  0.46815500  0.84959600  1
  O  O36  1  0.20767300  0.04220300  0.19669200  1
  O  O37  1  0.79139900  0.21501600  0.83348600  1
  O  O38  1  0.43306500  0.62202000  0.54669900  1
  O  O39  1  0.66561200  0.43771000  0.69043200  1
  O  O40  1  0.20860100  0.71501600  0.83348600  1
  O  O41  1  0.37428300  0.23296100  0.79841800  1
loop_
_geom_bond_atom_site_label_1
_geom_bond_atom_site_label_2
_geom_bond_distance
_geom_bond_site_symmetry_2
Cu0 O31 1.907173 1_555
Cu0 O30 1.911105 1_655
Cu0 O1 1.931886 1_555
Cu0 O22 1.950722 1_655
Cu1 O18 1.907173 1_555
Cu1 O5 1.911105 1_455
Cu1 O40 1.931886 1_555
Cu1 O35 1.950722 1_455
Cu2 O23 1.907896 1_555
Cu2 O21 1.907896 1_555
Cu2 O25 1.927645 1_555
Cu2 O19 1.927645 1_555
Cu3 O0 1.907173 1_545
Cu3 O13 1.911105 1_655
Cu3 O37 1.931886 1_555
Cu3 O29 1.950722 1_645
Cu4 O8 1.907896 1_555
Cu4 O10 1.907896 1_555
Cu4 O11 1.927645 1_555
Cu4 O38 1.927645 1_555
Cu5 O36 1.907173 1_565
Cu5 O16 1.911105 1_455
Cu5 O33 1.931886 1_555
Cu5 O12 1.950722 1_465
O0 W3 1.815175 1_555
O1 W5 1.810998 1_555
O2 W3 1.924443 1_554
O2 W10 1.924443 1_555
O3 W9 1.739878 1_555
O4 W7 1.743082 1_555
O5 W3 1.816313 1_555
O6 W4 1.912038 1_555
O6 W2 1.921277 1_555
O7 W8 1.739878 1_555
O8 W9 1.816210 1_565
O9 W2 1.743082 1_555
O10 W6 1.816210 1_555
O11 W4 1.830351 1_555
O12 W5 1.820608 1_555
O13 W0 1.816313 1_555
O14 W9 1.912038 1_555
O14 W5 1.921277 1_555
O15 W8 1.912038 1_555
O15 W7 1.921277 1_555
O16 W10 1.816313 1_555
O17 W1 1.743082 1_555
O18 W0 1.815175 1_555
O19 W9 1.830351 1_555
O20 W11 1.748125 1_555
O21 W4 1.816210 1_545
O22 W7 1.820608 1_555
O23 W8 1.816210 1_555
O24 W6 1.739878 1_555
O25 W6 1.830351 1_555
O26 W4 1.739878 1_555
O27 W10 1.748125 1_555
O28 W3 1.748125 1_555
O29 W2 1.820608 1_555
O30 W11 1.816313 1_555
O31 W10 1.815175 1_555
O32 W0 1.924443 1_554
O32 W11 1.924443 1_555
O33 W7 1.810998 1_555
O34 W5 1.743082 1_555
O35 W1 1.820608 1_555
O36 W11 1.815175 1_555
O37 W1 1.810998 1_555
O38 W8 1.830351 1_555
O39 W6 1.912038 1_555
O39 W1 1.921277 1_555
O40 W2 1.810998 1_555
O41 W0 1.748125 1_555
