# generated using pymatgen
data_CaLaFeCoO6
_symmetry_space_group_name_H-M   'P 1'
_cell_length_a   5.45918000
_cell_length_b   5.47893300
_cell_length_c   9.50463603
_cell_angle_alpha   54.99418809
_cell_angle_beta   90.00000000
_cell_angle_gamma   90.00000000
_symmetry_Int_Tables_number   1
_chemical_formula_structural   CaLaFeCoO6
_chemical_formula_sum   'Ca2 La2 Fe2 Co2 O12'
_cell_volume   232.85875121
_cell_formula_units_Z   2
loop_
 _symmetry_equiv_pos_site_id
 _symmetry_equiv_pos_as_xyz
  1  'x, y, z'
loop_
 _atom_site_type_symbol
 _atom_site_label
 _atom_site_symmetry_multiplicity
 _atom_site_fract_x
 _atom_site_fract_y
 _atom_site_fract_z
 _atom_site_occupancy
  Ca  Ca0  1  0.71383500  0.74134400  0.74969600  1
  Ca  Ca1  1  0.28616500  0.74134400  0.24969600  1
  La  La0  1  0.22376300  0.25432900  0.75070200  1
  La  La1  1  0.77623700  0.25432900  0.25070200  1
  Fe  Fe0  1  0.74995200  0.00006000  0.99966600  1
  Fe  Fe1  1  0.25004800  0.00006000  0.49966600  1
  Co  Co0  1  0.75074400  0.49986000  0.50027100  1
  Co  Co1  1  0.24925600  0.49986000  0.00027100  1
  O  O0  1  0.23896400  0.17103600  0.25145000  1
  O  O1  1  0.02928500  0.74282200  0.04197000  1
  O  O2  1  0.02404300  0.33258800  0.45964700  1
  O  O3  1  0.97595700  0.33258800  0.95964700  1
  O  O4  1  0.97071500  0.74282200  0.54197000  1
  O  O5  1  0.76103600  0.17103600  0.75145000  1
  O  O6  1  0.73512600  0.82083000  0.24814300  1
  O  O7  1  0.52575000  0.25989400  0.46156200  1
  O  O8  1  0.51914000  0.67724000  0.03689000  1
  O  O9  1  0.48086000  0.67724000  0.53689000  1
  O  O10  1  0.47425000  0.25989400  0.96156200  1
  O  O11  1  0.26487400  0.82083000  0.74814300  1
loop_
_geom_bond_atom_site_label_1
_geom_bond_atom_site_label_2
_geom_bond_distance
_geom_bond_site_symmetry_2
Ca0 O5 2.377860 1_565
Ca0 O4 2.417936 1_555
Ca0 O3 2.432672 1_555
Ca0 O11 2.487911 1_555
Ca0 O10 2.574786 1_555
Ca0 O9 2.578198 1_555
Ca0 O8 2.757576 1_556
Ca0 O7 2.774748 1_565
Ca1 O0 2.377860 1_565
Ca1 O1 2.417936 1_555
Ca1 O2 2.432672 1_555
Ca1 O6 2.487911 1_555
Ca1 O7 2.574786 1_555
Ca1 O8 2.578198 1_555
Ca1 O9 2.757576 1_555
Ca1 O10 2.774748 1_564
La0 O11 2.399666 1_545
La0 O10 2.440815 1_555
La0 O9 2.462968 1_555
La0 O5 2.566286 1_455
La0 O4 2.629732 1_455
La0 O3 2.633423 1_455
La0 O2 2.768490 1_555
La0 O1 2.782777 1_546
La0 O5 2.967741 1_555
La0 O11 3.098072 1_555
La0 O8 3.182584 1_546
La0 O7 3.189846 1_555
La1 O6 2.399666 1_545
La1 O7 2.440815 1_555
La1 O8 2.462968 1_555
La1 O0 2.566286 1_655
La1 O1 2.629732 1_655
La1 O2 2.633423 1_655
La1 O3 2.768490 1_554
La1 O4 2.782777 1_545
La1 O0 2.967741 1_555
La1 O6 3.098072 1_555
La1 O9 3.182584 1_545
La1 O10 3.189846 1_554
Fe0 O1 1.955321 1_646
Fe0 O10 1.957459 1_555
Fe0 O6 1.971700 1_546
Fe0 O5 1.977734 1_555
Fe0 O8 2.030581 1_546
Fe0 O3 2.047238 1_555
Fe1 O4 1.955321 1_445
Fe1 O7 1.957459 1_555
Fe1 O11 1.971700 1_545
Fe1 O0 1.977734 1_555
Fe1 O9 2.030581 1_545
Fe1 O2 2.047238 1_555
Co0 O2 1.902901 1_655
Co0 O9 1.903804 1_555
Co0 O7 1.981819 1_555
Co0 O4 1.994112 1_555
Co0 O6 2.001863 1_555
Co0 O5 2.003429 1_555
Co1 O3 1.902901 1_454
Co1 O8 1.903804 1_555
Co1 O10 1.981819 1_554
Co1 O1 1.994112 1_555
Co1 O11 2.001863 1_554
Co1 O0 2.003429 1_555
