# generated using pymatgen
data_K(NaIn3)3
_symmetry_space_group_name_H-M   'P 1'
_cell_length_a   9.90093006
_cell_length_b   9.90093006
_cell_length_c   17.79098968
_cell_angle_alpha   90.00000000
_cell_angle_beta   90.00000000
_cell_angle_gamma   117.70560704
_symmetry_Int_Tables_number   1
_chemical_formula_structural   K(NaIn3)3
_chemical_formula_sum   'K4 Na12 In36'
_cell_volume   1544.06709420
_cell_formula_units_Z   4
loop_
 _symmetry_equiv_pos_site_id
 _symmetry_equiv_pos_as_xyz
  1  'x, y, z'
loop_
 _atom_site_type_symbol
 _atom_site_label
 _atom_site_symmetry_multiplicity
 _atom_site_fract_x
 _atom_site_fract_y
 _atom_site_fract_z
 _atom_site_occupancy
  K  K0  1  0.46605659  0.53394341  0.34148318  1
  K  K1  1  0.53394341  0.46605659  0.65851682  1
  K  K2  1  0.03394341  0.96605659  0.84148318  1
  K  K3  1  0.96605659  0.03394341  0.15851682  1
  Na  Na0  1  0.95991656  0.42403330  0.08947029  1
  Na  Na1  1  0.42403330  0.95991656  0.91052971  1
  Na  Na2  1  0.92403330  0.45991656  0.58947029  1
  Na  Na3  1  0.45991656  0.92403330  0.41052971  1
  Na  Na4  1  0.04008344  0.57596670  0.91052971  1
  Na  Na5  1  0.57596670  0.04008344  0.08947029  1
  Na  Na6  1  0.07596670  0.54008344  0.41052971  1
  Na  Na7  1  0.54008344  0.07596670  0.58947029  1
  Na  Na8  1  0.86470408  0.63529592  0.25000000  1
  Na  Na9  1  0.63529592  0.86470408  0.75000000  1
  Na  Na10  1  0.13529592  0.36470408  0.75000000  1
  Na  Na11  1  0.36470408  0.13529592  0.25000000  1
  In  In0  1  0.60399987  0.39600013  0.13934259  1
  In  In1  1  0.39600013  0.60399987  0.86065741  1
  In  In2  1  0.89600013  0.10399987  0.63934259  1
  In  In3  1  0.10399987  0.89600013  0.36065741  1
  In  In4  1  0.66266354  0.33733646  0.97709219  1
  In  In5  1  0.33733646  0.66266354  0.02290781  1
  In  In6  1  0.83733646  0.16266354  0.47709219  1
  In  In7  1  0.16266354  0.83733646  0.52290781  1
  In  In8  1  0.83955359  0.67681241  0.03801413  1
  In  In9  1  0.67681241  0.83955359  0.96198587  1
  In  In10  1  0.17681241  0.33955359  0.53801413  1
  In  In11  1  0.33955359  0.17681241  0.46198587  1
  In  In12  1  0.16044641  0.32318759  0.96198587  1
  In  In13  1  0.32318759  0.16044641  0.03801413  1
  In  In14  1  0.82318759  0.66044641  0.46198587  1
  In  In15  1  0.66044641  0.82318759  0.53801413  1
  In  In16  1  0.29276676  0.40667736  0.13021636  1
  In  In17  1  0.40667736  0.29276676  0.86978364  1
  In  In18  1  0.90667736  0.79276676  0.63021636  1
  In  In19  1  0.79276676  0.90667736  0.36978364  1
  In  In20  1  0.70723324  0.59332264  0.86978364  1
  In  In21  1  0.59332264  0.70723324  0.13021636  1
  In  In22  1  0.09332264  0.20723324  0.36978364  1
  In  In23  1  0.20723324  0.09332264  0.63021636  1
  In  In24  1  0.82643615  0.17356385  0.91363905  1
  In  In25  1  0.17356385  0.82643615  0.08636095  1
  In  In26  1  0.67356385  0.32643615  0.41363905  1
  In  In27  1  0.32643615  0.67356385  0.58636095  1
  In  In28  1  0.58704923  0.91295077  0.25000000  1
  In  In29  1  0.91295077  0.58704923  0.75000000  1
  In  In30  1  0.41295077  0.08704923  0.75000000  1
  In  In31  1  0.08704923  0.41295077  0.25000000  1
  In  In32  1  0.74238321  0.25761679  0.25543796  1
  In  In33  1  0.25761679  0.74238321  0.74456204  1
  In  In34  1  0.75761679  0.24238321  0.75543796  1
  In  In35  1  0.24238321  0.75761679  0.24456204  1
loop_
_geom_bond_atom_site_label_1
_geom_bond_atom_site_label_2
_geom_bond_distance
_geom_bond_site_symmetry_2
In0 In4 3.053005 1_554
In0 In32 3.125081 1_555
In0 In21 3.136251 1_555
In0 In16 3.136251 1_555
In0 In13 3.223304 1_555
In0 In8 3.223304 1_555
In0 Na8 3.235001 1_555
In0 Na11 3.235001 1_555
In0 Na0 3.517491 1_555
In0 Na5 3.517491 1_555
In1 In5 3.053005 1_556
In1 In33 3.125081 1_555
In1 In17 3.136251 1_555
In1 In20 3.136251 1_555
In1 In12 3.223304 1_555
In1 In9 3.223304 1_555
In1 Na10 3.235001 1_555
In1 Na9 3.235001 1_555
In1 Na4 3.517491 1_555
In1 Na1 3.517491 1_555
In2 In6 3.053005 1_555
In2 In34 3.125081 1_555
In2 In23 3.136251 1_655
In2 Na10 3.235001 1_655
In2 Na9 3.235001 1_545
In2 Na2 3.517491 1_555
In2 Na7 3.517491 1_555
In3 In7 3.053005 1_555
In3 In35 3.125081 1_555
In3 Na11 3.235001 1_565
In3 Na8 3.235001 1_455
In3 Na3 3.517491 1_555
In3 Na6 3.517491 1_555
In4 In8 3.172626 1_556
In4 Na5 3.323663 1_556
In4 Na0 3.323663 1_556
In4 Na1 3.569135 1_545
In4 Na4 3.569135 1_655
In5 In9 3.172626 1_554
In5 Na4 3.323663 1_554
In5 Na1 3.323663 1_554
In5 Na0 3.569135 1_455
In5 Na5 3.569135 1_565
In6 Na7 3.323663 1_555
In6 Na2 3.323663 1_555
In6 Na6 3.569135 1_655
In6 Na3 3.569135 1_545
In7 Na3 3.323663 1_555
In7 Na6 3.323663 1_555
In7 Na2 3.569135 1_455
In7 Na7 3.569135 1_565
In8 In9 3.071844 1_554
In8 Na0 3.360849 1_555
In8 Na4 3.453458 1_654
In8 K3 3.814393 1_565
In8 Na8 3.814433 1_555
In9 Na1 3.360849 1_555
In9 Na5 3.453458 1_566
In9 K2 3.814393 1_655
In9 Na9 3.814433 1_555
In10 In27 3.052103 1_555
In10 In23 3.067204 1_555
In10 In11 3.071844 1_555
In10 In6 3.172626 1_455
In10 In22 3.217240 1_555
In10 In2 3.223304 1_455
In10 Na2 3.360849 1_455
In10 Na6 3.453458 1_555
In10 K1 3.814393 1_555
In10 Na10 3.814433 1_555
In11 In26 3.052103 1_555
In11 In22 3.067204 1_555
In11 In7 3.172626 1_545
In11 In23 3.217240 1_555
In11 In3 3.223304 1_545
In11 Na3 3.360849 1_545
In11 Na7 3.453458 1_555
In11 K0 3.814393 1_555
In11 Na11 3.814433 1_555
In12 In24 3.052103 1_455
In12 In17 3.067204 1_555
In12 In13 3.071844 1_556
In12 In5 3.172626 1_556
In12 In16 3.217240 1_556
In12 Na4 3.360849 1_555
In12 Na0 3.453458 1_456
In12 K2 3.814393 1_545
In12 Na10 3.814433 1_555
In13 In25 3.052103 1_545
In13 In16 3.067204 1_555
In13 In4 3.172626 1_554
In13 In17 3.217240 1_554
In13 Na5 3.360849 1_555
In13 Na1 3.453458 1_544
In13 K3 3.814393 1_455
In13 Na11 3.814433 1_555
In14 In26 3.052103 1_555
In14 In19 3.067204 1_555
In14 In15 3.071844 1_555
In14 In7 3.172626 1_655
In14 In18 3.217240 1_555
In14 In3 3.223304 1_655
In14 Na6 3.360849 1_655
In14 Na2 3.453458 1_555
In14 K0 3.814393 1_555
In14 Na8 3.814433 1_555
In15 In27 3.052103 1_555
In15 In18 3.067204 1_555
In15 In6 3.172626 1_565
In15 In19 3.217240 1_555
In15 In2 3.223304 1_565
In15 Na7 3.360849 1_565
In15 Na3 3.453458 1_555
In15 K1 3.814393 1_555
In15 Na9 3.814433 1_555
In16 In31 2.968415 1_555
In16 In5 3.036973 1_555
In16 In21 3.078379 1_555
In16 Na0 3.455735 1_455
In16 K3 3.638129 1_455
In16 Na11 3.748047 1_555
In16 K0 4.080271 1_555
In17 In30 2.968415 1_555
In17 In4 3.036973 1_555
In17 In20 3.078379 1_555
In17 Na1 3.455735 1_545
In17 K2 3.638129 1_545
In17 Na10 3.748047 1_555
In17 K1 4.080271 1_555
In18 In29 2.968415 1_555
In18 In7 3.036973 1_655
In18 In23 3.078379 1_665
In18 In2 3.136251 1_565
In18 Na2 3.455735 1_555
In18 K1 3.638129 1_555
In18 Na9 3.748047 1_555
In18 K2 4.080271 1_655
In19 In28 2.968415 1_555
In19 In6 3.036973 1_565
In19 In22 3.078379 1_665
In19 In3 3.136251 1_655
In19 Na3 3.455735 1_555
In19 K0 3.638129 1_555
In19 Na8 3.748047 1_555
In19 K3 4.080271 1_565
In20 In29 2.968415 1_555
In20 In4 3.036973 1_555
In20 In9 3.067204 1_555
In20 In8 3.217240 1_556
In20 Na4 3.455735 1_655
In20 K2 3.638129 1_655
In20 Na9 3.748047 1_555
In20 K1 4.080271 1_555
In21 In28 2.968415 1_555
In21 In5 3.036973 1_555
In21 In8 3.067204 1_555
In21 In9 3.217240 1_554
In21 Na5 3.455735 1_565
In21 K3 3.638129 1_565
In21 Na8 3.748047 1_555
In21 K0 4.080271 1_555
In22 In31 2.968415 1_555
In22 In6 3.036973 1_455
In22 In3 3.136251 1_545
In22 Na6 3.455735 1_555
In22 K0 3.638129 1_555
In22 Na11 3.748047 1_555
In22 K3 4.080271 1_455
In23 In30 2.968415 1_555
In23 In7 3.036973 1_545
In23 Na7 3.455735 1_555
In23 K1 3.638129 1_555
In23 Na10 3.748047 1_555
In23 K2 4.080271 1_545
In24 In4 2.996294 1_555
In24 In34 3.046632 1_555
In24 In9 3.052103 1_545
In24 Na1 3.537591 1_545
In24 Na4 3.537591 1_655
In24 K2 3.743657 1_645
In25 In5 2.996294 1_555
In25 In35 3.046632 1_555
In25 In8 3.052103 1_455
In25 Na0 3.537591 1_455
In25 Na5 3.537591 1_565
In25 K3 3.743657 1_465
In26 In6 2.996294 1_555
In26 In32 3.046632 1_555
In26 Na6 3.537591 1_655
In26 Na3 3.537591 1_545
In26 K0 3.743657 1_555
In27 In7 2.996294 1_555
In27 In33 3.046632 1_555
In27 Na7 3.537591 1_565
In27 Na2 3.537591 1_455
In27 K1 3.743657 1_555
In28 In32 3.023203 1_565
In28 In35 3.023203 1_555
In28 Na3 3.143487 1_555
In28 Na5 3.143487 1_565
In28 K0 3.739722 1_555
In28 K3 3.739722 1_565
In29 In33 3.023203 1_655
In29 In34 3.023203 1_555
In29 Na2 3.143487 1_555
In29 Na4 3.143487 1_655
In29 K2 3.739722 1_655
In29 K1 3.739722 1_555
In30 In34 3.023203 1_555
In30 In33 3.023203 1_545
In30 Na7 3.143487 1_555
In30 Na1 3.143487 1_545
In30 K2 3.739722 1_545
In30 K1 3.739722 1_555
In31 In35 3.023203 1_555
In31 In32 3.023203 1_455
In31 Na6 3.143487 1_555
In31 Na0 3.143487 1_455
In31 K3 3.739722 1_455
In31 K0 3.739722 1_555
In32 Na11 3.353798 1_555
In32 Na8 3.353798 1_555
In32 Na5 3.573851 1_555
In32 Na0 3.573851 1_555
In33 Na10 3.353798 1_555
In33 Na9 3.353798 1_555
In33 Na4 3.573851 1_555
In33 Na1 3.573851 1_555
In34 Na10 3.353798 1_655
In34 Na9 3.353798 1_545
In34 Na2 3.573851 1_555
In34 Na7 3.573851 1_555
In35 Na11 3.353798 1_565
In35 Na8 3.353798 1_455
In35 Na3 3.573851 1_555
In35 Na6 3.573851 1_555
