# generated using pymatgen
data_Mg3Si4
_symmetry_space_group_name_H-M   'P 1'
_cell_length_a   4.07119500
_cell_length_b   8.12380300
_cell_length_c   8.40125641
_cell_angle_alpha   66.32749783
_cell_angle_beta   90.00000000
_cell_angle_gamma   90.00000000
_symmetry_Int_Tables_number   1
_chemical_formula_structural   Mg3Si4
_chemical_formula_sum   'Mg6 Si8'
_cell_volume   254.47928460
_cell_formula_units_Z   2
loop_
 _symmetry_equiv_pos_site_id
 _symmetry_equiv_pos_as_xyz
  1  'x, y, z'
loop_
 _atom_site_type_symbol
 _atom_site_label
 _atom_site_symmetry_multiplicity
 _atom_site_fract_x
 _atom_site_fract_y
 _atom_site_fract_z
 _atom_site_occupancy
  Mg  Mg0  1  0.00000000  0.28825900  0.49171700  1
  Mg  Mg1  1  0.50000000  0.05967100  0.79512100  1
  Mg  Mg2  1  0.50000000  0.62790100  0.85532300  1
  Mg  Mg3  1  0.00000000  0.31079500  0.87191200  1
  Mg  Mg4  1  0.50000000  0.94915000  0.46348500  1
  Mg  Mg5  1  0.50000000  0.65591100  0.25489900  1
  Si  Si0  1  0.00000000  0.89221500  0.68538200  1
  Si  Si1  1  0.00000000  0.67136400  0.52221200  1
  Si  Si2  1  0.50000000  0.30549200  0.24199500  1
  Si  Si3  1  0.00000000  0.46929300  0.11153700  1
  Si  Si4  1  0.00000000  0.79194600  0.00490100  1
  Si  Si5  1  0.50000000  0.09398700  0.10880400  1
  Si  Si6  1  0.50000000  0.46529000  0.61423300  1
  Si  Si7  1  0.00000000  0.91858300  0.22519900  1
loop_
_geom_bond_atom_site_label_1
_geom_bond_atom_site_label_2
_geom_bond_distance
_geom_bond_site_symmetry_2
Mg0 Si2 2.885986 1_455
Mg0 Si2 2.885986 1_555
Mg0 Si6 2.908626 1_455
Mg0 Si6 2.908626 1_555
Mg0 Si3 2.931285 1_555
Mg0 Si0 2.965665 1_545
Mg0 Si1 3.223685 1_555
Mg1 Si5 2.759101 1_556
Mg1 Si0 2.802037 1_545
Mg1 Si0 2.802037 1_645
Mg1 Si4 2.983633 1_646
Mg1 Si4 2.983633 1_546
Mg1 Si6 3.024298 1_555
Mg2 Si6 2.827753 1_555
Mg2 Si3 2.865318 1_656
Mg2 Si3 2.865318 1_556
Mg2 Si0 2.886328 1_655
Mg2 Si0 2.886328 1_555
Mg2 Si4 2.973822 1_556
Mg2 Si4 2.973822 1_656
Mg3 Si3 2.791459 1_556
Mg3 Si6 2.867672 1_455
Mg3 Si6 2.867672 1_555
Mg3 Si5 2.896873 1_556
Mg3 Si5 2.896873 1_456
Mg3 Si1 3.209516 1_555
Mg4 Si0 2.672168 1_655
Mg4 Si0 2.672168 1_555
Mg4 Si5 2.729106 1_565
Mg4 Si2 2.741732 1_565
Mg4 Si1 2.930120 1_655
Mg4 Si1 2.930120 1_555
Mg4 Si7 2.934642 1_655
Mg4 Si7 2.934642 1_555
Mg5 Si6 2.785235 1_555
Mg5 Si4 2.812887 1_655
Mg5 Si4 2.812887 1_555
Mg5 Si7 2.886497 1_555
Mg5 Si7 2.886497 1_655
Mg5 Si2 2.891967 1_555
Mg5 Si3 3.059242 1_655
Mg5 Si3 3.059242 1_555
Mg5 Si1 3.070712 1_555
Mg5 Si1 3.070712 1_655
Si0 Si4 2.472538 1_556
Si0 Si1 2.659541 1_555
Si1 Si7 2.497135 1_555
Si1 Si6 2.550424 1_455
Si1 Si6 2.550424 1_555
Si2 Si5 2.397563 1_555
Si2 Si3 2.438128 1_655
Si2 Si3 2.438128 1_555
Si3 Si4 2.405711 1_555
Si4 Si7 2.452088 1_555
Si5 Si7 2.451820 1_545
Si5 Si7 2.451820 1_645
