# generated using pymatgen
data_Ho4FeSe7
_symmetry_space_group_name_H-M   'P 1'
_cell_length_a   6.61916794
_cell_length_b   6.61916794
_cell_length_c   11.76371167
_cell_angle_alpha   76.49188197
_cell_angle_beta   76.49188197
_cell_angle_gamma   34.39138747
_symmetry_Int_Tables_number   1
_chemical_formula_structural   Ho4FeSe7
_chemical_formula_sum   'Ho4 Fe1 Se7'
_cell_volume   282.28782502
_cell_formula_units_Z   1
loop_
 _symmetry_equiv_pos_site_id
 _symmetry_equiv_pos_as_xyz
  1  'x, y, z'
loop_
 _atom_site_type_symbol
 _atom_site_label
 _atom_site_symmetry_multiplicity
 _atom_site_fract_x
 _atom_site_fract_y
 _atom_site_fract_z
 _atom_site_occupancy
  Ho  Ho0  1  0.69579400  0.69579400  0.21342900  1
  Ho  Ho1  1  0.30562700  0.30562700  0.79745000  1
  Ho  Ho2  1  0.99887100  0.99887100  0.01102300  1
  Ho  Ho3  1  0.10704800  0.10704800  0.55686400  1
  Fe  Fe0  1  0.88845000  0.88845000  0.42813700  1
  Se  Se0  1  0.75072500  0.75072500  0.62529500  1
  Se  Se1  1  0.28220000  0.28220000  0.35963100  1
  Se  Se2  1  0.33435900  0.33435900  0.05363600  1
  Se  Se3  1  0.66067400  0.66067400  0.94721600  1
  Se  Se4  1  0.02745400  0.02745400  0.23824900  1
  Se  Se5  1  0.96844300  0.96844300  0.78342900  1
  Se  Se6  1  0.48035500  0.48035500  0.48564000  1
loop_
_geom_bond_atom_site_label_1
_geom_bond_atom_site_label_2
_geom_bond_distance
_geom_bond_site_symmetry_2
Ho0 Se4 2.853582 1_565
Ho0 Se4 2.853582 1_655
Ho0 Se2 2.970314 1_655
Ho0 Se2 2.970314 1_565
Ho0 Se1 2.983363 1_565
Ho0 Se1 2.983363 1_655
Ho0 Se3 3.268748 1_554
Ho0 Se6 3.662084 1_555
Ho1 Se5 2.816062 1_455
Ho1 Se5 2.816062 1_545
Ho1 Se3 2.952011 1_545
Ho1 Se3 2.952011 1_455
Ho1 Se0 3.016688 1_545
Ho1 Se0 3.016688 1_455
Ho1 Se2 3.122487 1_556
Ho2 Se4 2.783563 1_665
Ho2 Se5 2.796446 1_554
Ho2 Se3 2.797997 1_564
Ho2 Se3 2.797997 1_654
Ho2 Se2 2.810540 1_565
Ho2 Se2 2.810540 1_655
Ho3 Se6 2.784776 1_545
Ho3 Se6 2.784776 1_455
Ho3 Se1 2.788647 1_555
Ho3 Se5 2.809175 1_445
Ho3 Se0 2.914487 1_455
Ho3 Se0 2.914487 1_545
Fe0 Se6 2.454037 1_565
Fe0 Se6 2.454037 1_655
Fe0 Se4 2.481893 1_665
Fe0 Se0 2.537203 1_555
Fe0 Se1 2.610336 1_565
Fe0 Se1 2.610336 1_655
