# generated using pymatgen
data_Mn2Fe5(SiO3)8
_symmetry_space_group_name_H-M   'P 1'
_cell_length_a   5.40011600
_cell_length_b   9.47422400
_cell_length_c   18.45646800
_cell_angle_alpha   90.00000000
_cell_angle_beta   90.00000000
_cell_angle_gamma   90.00000000
_symmetry_Int_Tables_number   1
_chemical_formula_structural   Mn2Fe5(SiO3)8
_chemical_formula_sum   'Mn4 Fe10 Si16 O48'
_cell_volume   944.26812908
_cell_formula_units_Z   2
loop_
 _symmetry_equiv_pos_site_id
 _symmetry_equiv_pos_as_xyz
  1  'x, y, z'
loop_
 _atom_site_type_symbol
 _atom_site_label
 _atom_site_symmetry_multiplicity
 _atom_site_fract_x
 _atom_site_fract_y
 _atom_site_fract_z
 _atom_site_occupancy
  Mn  Mn0  1  0.00000000  0.50000000  0.23970000  1
  Mn  Mn1  1  0.00000000  0.50000000  0.76030000  1
  Mn  Mn2  1  0.50000000  0.00000000  0.26030000  1
  Mn  Mn3  1  0.50000000  0.00000000  0.73970000  1
  Fe  Fe0  1  0.00000000  0.50000000  0.42124100  1
  Fe  Fe1  1  0.00000000  0.50000000  0.57875900  1
  Fe  Fe2  1  0.50000000  0.00000000  0.07875900  1
  Fe  Fe3  1  0.50000000  0.00000000  0.92124100  1
  Fe  Fe4  1  0.00000000  0.00000000  0.00000000  1
  Fe  Fe5  1  0.50000000  0.50000000  0.50000000  1
  Fe  Fe6  1  0.00000000  0.00000000  0.17853300  1
  Fe  Fe7  1  0.00000000  0.00000000  0.82146700  1
  Fe  Fe8  1  0.50000000  0.50000000  0.32146700  1
  Fe  Fe9  1  0.50000000  0.50000000  0.67853300  1
  Si  Si0  1  0.15237300  0.20301200  0.33412500  1
  Si  Si1  1  0.84762700  0.79698800  0.66587500  1
  Si  Si2  1  0.84762700  0.79698800  0.33412500  1
  Si  Si3  1  0.34762700  0.70301200  0.16587500  1
  Si  Si4  1  0.15237300  0.20301200  0.66587500  1
  Si  Si5  1  0.65237300  0.29698800  0.83412500  1
  Si  Si6  1  0.65237300  0.29698800  0.16587500  1
  Si  Si7  1  0.34762700  0.70301200  0.83412500  1
  Si  Si8  1  0.15920100  0.29017200  0.08325100  1
  Si  Si9  1  0.84079900  0.70982800  0.91674900  1
  Si  Si10  1  0.84079900  0.70982800  0.08325100  1
  Si  Si11  1  0.34079900  0.79017200  0.41674900  1
  Si  Si12  1  0.15920100  0.29017200  0.91674900  1
  Si  Si13  1  0.65920100  0.20982800  0.58325100  1
  Si  Si14  1  0.65920100  0.20982800  0.41674900  1
  Si  Si15  1  0.34079900  0.79017200  0.58325100  1
  O  O0  1  0.16510700  0.34660200  0.00000000  1
  O  O1  1  0.83489300  0.65339800  0.00000000  1
  O  O2  1  0.33489300  0.84660200  0.50000000  1
  O  O3  1  0.66510700  0.15339800  0.50000000  1
  O  O4  1  0.40641000  0.14891700  0.37754000  1
  O  O5  1  0.59359000  0.85108300  0.62246000  1
  O  O6  1  0.59359000  0.85108300  0.37754000  1
  O  O7  1  0.09359000  0.64891700  0.12246000  1
  O  O8  1  0.40641000  0.14891700  0.62246000  1
  O  O9  1  0.90641000  0.35108300  0.87754000  1
  O  O10  1  0.90641000  0.35108300  0.12246000  1
  O  O11  1  0.09359000  0.64891700  0.87754000  1
  O  O12  1  0.66003200  0.10453500  0.00000000  1
  O  O13  1  0.33996800  0.89546500  0.00000000  1
  O  O14  1  0.83996800  0.60453500  0.50000000  1
  O  O15  1  0.16003200  0.39546500  0.50000000  1
  O  O16  1  0.18162400  0.12444300  0.25632900  1
  O  O17  1  0.81837600  0.87555700  0.74367100  1
  O  O18  1  0.81837600  0.87555700  0.25632900  1
  O  O19  1  0.31837600  0.62444300  0.24367100  1
  O  O20  1  0.18162400  0.12444300  0.74367100  1
  O  O21  1  0.68162400  0.37555700  0.75632900  1
  O  O22  1  0.68162400  0.37555700  0.24367100  1
  O  O23  1  0.31837600  0.62444300  0.75632900  1
  O  O24  1  0.15353100  0.37724300  0.33260100  1
  O  O25  1  0.84646900  0.62275700  0.66739900  1
  O  O26  1  0.84646900  0.62275700  0.33260100  1
  O  O27  1  0.34646900  0.87724300  0.16739900  1
  O  O28  1  0.15353100  0.37724300  0.66739900  1
  O  O29  1  0.65353100  0.12275700  0.83260100  1
  O  O30  1  0.65353100  0.12275700  0.16739900  1
  O  O31  1  0.34646900  0.87724300  0.83260100  1
  O  O32  1  0.17076100  0.11741200  0.08845200  1
  O  O33  1  0.82923900  0.88258800  0.91154800  1
  O  O34  1  0.82923900  0.88258800  0.08845200  1
  O  O35  1  0.32923900  0.61741200  0.41154800  1
  O  O36  1  0.17076100  0.11741200  0.91154800  1
  O  O37  1  0.67076100  0.38258800  0.58845200  1
  O  O38  1  0.67076100  0.38258800  0.41154800  1
  O  O39  1  0.32923900  0.61741200  0.58845200  1
  O  O40  1  0.39659800  0.35428100  0.12715400  1
  O  O41  1  0.60340200  0.64571900  0.87284600  1
  O  O42  1  0.60340200  0.64571900  0.12715400  1
  O  O43  1  0.10340200  0.85428100  0.37284600  1
  O  O44  1  0.39659800  0.35428100  0.87284600  1
  O  O45  1  0.89659800  0.14571900  0.62715400  1
  O  O46  1  0.89659800  0.14571900  0.37284600  1
  O  O47  1  0.10340200  0.85428100  0.62715400  1
loop_
_geom_bond_atom_site_label_1
_geom_bond_atom_site_label_2
_geom_bond_distance
_geom_bond_site_symmetry_2
Mn0 O19 2.085976 1_555
Mn0 O22 2.085976 1_455
Mn0 O24 2.231580 1_555
Mn0 O26 2.231580 1_455
Mn0 O10 2.632143 1_455
Mn0 O7 2.632143 1_555
Mn1 O23 2.085976 1_555
Mn1 O21 2.085976 1_455
Mn1 O28 2.231580 1_555
Mn1 O25 2.231580 1_455
Mn1 O11 2.632143 1_555
Mn1 O9 2.632143 1_455
Mn2 O16 2.085976 1_555
Mn2 O18 2.085976 1_545
Mn2 O30 2.231580 1_555
Mn2 O27 2.231580 1_545
Mn2 O4 2.632143 1_555
Mn2 O6 2.632143 1_545
Mn3 O20 2.085976 1_555
Mn3 O17 2.085976 1_545
Mn3 O29 2.231580 1_555
Mn3 O31 2.231580 1_545
Mn3 O8 2.632143 1_555
Mn3 O5 2.632143 1_545
Fe0 O14 1.959767 1_455
Fe0 O15 1.959767 1_555
Fe0 O35 2.104861 1_555
Fe0 O38 2.104861 1_455
Fe0 O24 2.171739 1_555
Fe0 O26 2.171739 1_455
Fe1 O14 1.959767 1_455
Fe1 O15 1.959767 1_555
Fe1 O39 2.104861 1_555
Fe1 O37 2.104861 1_455
Fe1 O28 2.171739 1_555
Fe1 O25 2.171739 1_455
Fe2 O12 1.959767 1_555
Fe2 O13 1.959767 1_545
Fe2 O32 2.104861 1_555
Fe2 O34 2.104861 1_545
Fe2 O30 2.171739 1_555
Fe2 O27 2.171739 1_545
Fe3 O12 1.959767 1_556
Fe3 O13 1.959767 1_546
Fe3 O36 2.104861 1_555
Fe3 O33 2.104861 1_545
Fe3 O29 2.171739 1_555
Fe3 O31 2.171739 1_545
Fe4 O12 2.085971 1_455
Fe4 O13 2.085971 1_545
Fe4 O32 2.180097 1_555
Fe4 O34 2.180097 1_445
Fe4 O36 2.180097 1_554
Fe4 O33 2.180097 1_444
Fe5 O14 2.085971 1_555
Fe5 O15 2.085971 1_555
Fe5 O37 2.180097 1_555
Fe5 O39 2.180097 1_555
Fe5 O38 2.180097 1_555
Fe5 O35 2.180097 1_555
Fe6 O16 2.100864 1_555
Fe6 O18 2.100864 1_445
Fe6 O32 2.202701 1_555
Fe6 O34 2.202701 1_445
Fe6 O30 2.212555 1_455
Fe6 O27 2.212555 1_545
Fe7 O20 2.100864 1_555
Fe7 O17 2.100864 1_445
Fe7 O36 2.202701 1_555
Fe7 O33 2.202701 1_445
Fe7 O31 2.212555 1_545
Fe7 O29 2.212555 1_455
Fe8 O19 2.100864 1_555
Fe8 O22 2.100864 1_555
Fe8 O38 2.202701 1_555
Fe8 O35 2.202701 1_555
Fe8 O26 2.212555 1_555
Fe8 O24 2.212555 1_555
Fe9 O23 2.100864 1_555
Fe9 O21 2.100864 1_555
Fe9 O37 2.202701 1_555
Fe9 O39 2.202701 1_555
Fe9 O25 2.212555 1_555
Fe9 O28 2.212555 1_555
O0 Si8 1.627187 1_555
O0 Si12 1.627187 1_554
O1 Si10 1.627187 1_555
O1 Si9 1.627187 1_554
O2 Si15 1.627187 1_555
O2 Si11 1.627187 1_555
O3 Si13 1.627187 1_555
O3 Si14 1.627187 1_555
O4 Si14 1.649306 1_555
O4 Si0 1.669324 1_555
O5 Si15 1.649306 1_555
O5 Si1 1.669324 1_555
O6 Si11 1.649306 1_555
O6 Si2 1.669324 1_555
O7 Si10 1.649306 1_455
O7 Si3 1.669324 1_555
O8 Si13 1.649306 1_555
O8 Si4 1.669324 1_555
O9 Si12 1.649306 1_655
O9 Si5 1.669324 1_555
O10 Si8 1.649306 1_655
O10 Si6 1.669324 1_555
O11 Si9 1.649306 1_455
O11 Si7 1.669324 1_555
O16 Si0 1.625019 1_555
O17 Si1 1.625019 1_555
O18 Si2 1.625019 1_555
O19 Si3 1.625019 1_555
O20 Si4 1.625019 1_555
O21 Si5 1.625019 1_555
O22 Si6 1.625019 1_555
O23 Si7 1.625019 1_555
O24 Si0 1.650955 1_555
O25 Si1 1.650955 1_555
O26 Si2 1.650955 1_555
O27 Si3 1.650955 1_555
O28 Si4 1.650955 1_555
O29 Si5 1.650955 1_555
O30 Si6 1.650955 1_555
O31 Si7 1.650955 1_555
O32 Si8 1.640767 1_555
O33 Si9 1.640767 1_555
O34 Si10 1.640767 1_555
O35 Si11 1.640767 1_555
O36 Si12 1.640767 1_555
O37 Si13 1.640767 1_555
O38 Si14 1.640767 1_555
O39 Si15 1.640767 1_555
O40 Si8 1.633690 1_555
O40 Si6 1.647156 1_555
O41 Si9 1.633690 1_555
O41 Si7 1.647156 1_555
O42 Si10 1.633690 1_555
O42 Si3 1.647156 1_555
O43 Si11 1.633690 1_555
O43 Si2 1.647156 1_455
O44 Si12 1.633690 1_555
O44 Si5 1.647156 1_555
O45 Si13 1.633690 1_555
O45 Si4 1.647156 1_655
O46 Si14 1.633690 1_555
O46 Si0 1.647156 1_655
O47 Si15 1.633690 1_555
O47 Si1 1.647156 1_455
