# generated using pymatgen
data_Na3V2(GeO4)3
_symmetry_space_group_name_H-M   'P 1'
_cell_length_a   10.66190895
_cell_length_b   10.66190895
_cell_length_c   10.66190895
_cell_angle_alpha   109.47122063
_cell_angle_beta   109.47122063
_cell_angle_gamma   109.47122063
_symmetry_Int_Tables_number   1
_chemical_formula_structural   Na3V2(GeO4)3
_chemical_formula_sum   'Na12 V8 Ge12 O48'
_cell_volume   933.00295033
_cell_formula_units_Z   4
loop_
 _symmetry_equiv_pos_site_id
 _symmetry_equiv_pos_as_xyz
  1  'x, y, z'
loop_
 _atom_site_type_symbol
 _atom_site_label
 _atom_site_symmetry_multiplicity
 _atom_site_fract_x
 _atom_site_fract_y
 _atom_site_fract_z
 _atom_site_occupancy
  Na  Na0  1  0.75000000  0.62500000  0.87500000  1
  Na  Na1  1  0.25000000  0.87500000  0.62500000  1
  Na  Na2  1  0.62500000  0.25000000  0.87500000  1
  Na  Na3  1  0.87500000  0.75000000  0.62500000  1
  Na  Na4  1  0.87500000  0.62500000  0.25000000  1
  Na  Na5  1  0.62500000  0.87500000  0.75000000  1
  Na  Na6  1  0.25000000  0.37500000  0.12500000  1
  Na  Na7  1  0.75000000  0.12500000  0.37500000  1
  Na  Na8  1  0.37500000  0.75000000  0.12500000  1
  Na  Na9  1  0.12500000  0.25000000  0.37500000  1
  Na  Na10  1  0.12500000  0.37500000  0.75000000  1
  Na  Na11  1  0.37500000  0.12500000  0.25000000  1
  V  V0  1  0.50000000  0.00000000  0.50000000  1
  V  V1  1  0.00000000  0.50000000  0.00000000  1
  V  V2  1  0.50000000  0.50000000  0.50000000  1
  V  V3  1  0.00000000  0.00000000  0.50000000  1
  V  V4  1  0.00000000  0.00000000  0.00000000  1
  V  V5  1  0.00000000  0.50000000  0.50000000  1
  V  V6  1  0.50000000  0.50000000  0.00000000  1
  V  V7  1  0.50000000  0.00000000  0.00000000  1
  Ge  Ge0  1  0.37500000  0.62500000  0.75000000  1
  Ge  Ge1  1  0.62500000  0.37500000  0.25000000  1
  Ge  Ge2  1  0.62500000  0.75000000  0.37500000  1
  Ge  Ge3  1  0.25000000  0.12500000  0.87500000  1
  Ge  Ge4  1  0.87500000  0.25000000  0.12500000  1
  Ge  Ge5  1  0.75000000  0.37500000  0.62500000  1
  Ge  Ge6  1  0.25000000  0.62500000  0.37500000  1
  Ge  Ge7  1  0.75000000  0.87500000  0.12500000  1
  Ge  Ge8  1  0.12500000  0.75000000  0.87500000  1
  Ge  Ge9  1  0.37500000  0.25000000  0.62500000  1
  Ge  Ge10  1  0.87500000  0.12500000  0.75000000  1
  Ge  Ge11  1  0.12500000  0.87500000  0.25000000  1
  O  O0  1  0.51067900  0.39874400  0.81894500  1
  O  O1  1  0.81894500  0.51067900  0.39874400  1
  O  O2  1  0.80826500  0.88806500  0.98932100  1
  O  O3  1  0.42020100  0.10125600  0.61193500  1
  O  O4  1  0.88806500  0.39874400  0.07979900  1
  O  O5  1  0.68105500  0.07979900  0.69173500  1
  O  O6  1  0.81894500  0.80826500  0.42020100  1
  O  O7  1  0.39874400  0.81894500  0.51067900  1
  O  O8  1  0.61193500  0.69173500  0.51067900  1
  O  O9  1  0.42020100  0.81894500  0.80826500  1
  O  O10  1  0.39874400  0.07979900  0.88806500  1
  O  O11  1  0.10125600  0.98932100  0.68105500  1
  O  O12  1  0.98932100  0.68105500  0.10125600  1
  O  O13  1  0.80826500  0.42020100  0.81894500  1
  O  O14  1  0.51067900  0.61193500  0.69173500  1
  O  O15  1  0.69173500  0.51067900  0.61193500  1
  O  O16  1  0.07979900  0.88806500  0.39874400  1
  O  O17  1  0.98932100  0.80826500  0.88806500  1
  O  O18  1  0.07979900  0.69173500  0.68105500  1
  O  O19  1  0.38806500  0.30826500  0.48932100  1
  O  O20  1  0.61193500  0.42020100  0.10125600  1
  O  O21  1  0.10125600  0.61193500  0.42020100  1
  O  O22  1  0.69173500  0.68105500  0.07979900  1
  O  O23  1  0.68105500  0.10125600  0.98932100  1
  O  O24  1  0.48932100  0.60125600  0.18105500  1
  O  O25  1  0.18105500  0.48932100  0.60125600  1
  O  O26  1  0.19173500  0.11193500  0.01067900  1
  O  O27  1  0.57979900  0.89874400  0.38806500  1
  O  O28  1  0.11193500  0.60125600  0.92020100  1
  O  O29  1  0.31894500  0.92020100  0.30826500  1
  O  O30  1  0.18105500  0.19173500  0.57979900  1
  O  O31  1  0.60125600  0.18105500  0.48932100  1
  O  O32  1  0.31894500  0.89874400  0.01067900  1
  O  O33  1  0.30826500  0.31894500  0.92020100  1
  O  O34  1  0.89874400  0.38806500  0.57979900  1
  O  O35  1  0.11193500  0.01067900  0.19173500  1
  O  O36  1  0.38806500  0.57979900  0.89874400  1
  O  O37  1  0.92020100  0.30826500  0.31894500  1
  O  O38  1  0.01067900  0.19173500  0.11193500  1
  O  O39  1  0.92020100  0.11193500  0.60125600  1
  O  O40  1  0.30826500  0.48932100  0.38806500  1
  O  O41  1  0.48932100  0.38806500  0.30826500  1
  O  O42  1  0.19173500  0.57979900  0.18105500  1
  O  O43  1  0.01067900  0.31894500  0.89874400  1
  O  O44  1  0.89874400  0.01067900  0.31894500  1
  O  O45  1  0.60125600  0.92020100  0.11193500  1
  O  O46  1  0.57979900  0.18105500  0.19173500  1
  O  O47  1  0.88806500  0.98932100  0.80826500  1
loop_
_geom_bond_atom_site_label_1
_geom_bond_atom_site_label_2
_geom_bond_distance
_geom_bond_site_symmetry_2
Na0 O22 2.406823 1_556
Na0 O13 2.406823 1_555
Na0 O15 2.406833 1_555
Na0 O2 2.406833 1_555
Na0 O17 2.570186 1_555
Na0 O14 2.570186 1_555
Na0 O12 2.570191 1_556
Na0 O0 2.570191 1_555
Na1 O7 2.406830 1_555
Na1 O10 2.406830 1_565
Na1 O21 2.406830 1_555
Na1 O11 2.406830 1_555
Na1 O9 2.570184 1_555
Na1 O18 2.570184 1_555
Na1 O3 2.570191 1_565
Na1 O16 2.570191 1_555
Na2 O0 2.406830 1_555
Na2 O23 2.406830 1_555
Na2 O4 2.406830 1_556
Na2 O3 2.406830 1_555
Na2 O13 2.570184 1_555
Na2 O5 2.570184 1_555
Na2 O10 2.570191 1_555
Na2 O20 2.570191 1_556
Na3 O18 2.406823 1_655
Na3 O6 2.406823 1_555
Na3 O17 2.406833 1_555
Na3 O8 2.406833 1_555
Na3 O47 2.570186 1_555
Na3 O15 2.570186 1_555
Na3 O1 2.570191 1_555
Na3 O11 2.570191 1_655
Na4 O16 2.406830 1_655
Na4 O1 2.406830 1_555
Na4 O12 2.406830 1_555
Na4 O20 2.406830 1_555
Na4 O6 2.570184 1_555
Na4 O22 2.570184 1_555
Na4 O21 2.570191 1_655
Na4 O4 2.570191 1_555
Na5 O5 2.406823 1_565
Na5 O9 2.406823 1_555
Na5 O47 2.406833 1_555
Na5 O14 2.406833 1_555
Na5 O8 2.570186 1_555
Na5 O2 2.570186 1_555
Na5 O7 2.570191 1_555
Na5 O23 2.570191 1_565
Na6 O33 2.406823 1_554
Na6 O42 2.406823 1_555
Na6 O26 2.406833 1_555
Na6 O40 2.406833 1_555
Na6 O38 2.570186 1_555
Na6 O41 2.570186 1_555
Na6 O43 2.570191 1_554
Na6 O24 2.570191 1_555
Na7 O45 2.406830 1_545
Na7 O34 2.406830 1_555
Na7 O31 2.406830 1_555
Na7 O44 2.406830 1_555
Na7 O46 2.570184 1_555
Na7 O37 2.570184 1_555
Na7 O27 2.570191 1_545
Na7 O39 2.570191 1_555
Na8 O28 2.406830 1_554
Na8 O24 2.406830 1_555
Na8 O27 2.406830 1_555
Na8 O32 2.406830 1_555
Na8 O42 2.570184 1_555
Na8 O29 2.570184 1_555
Na8 O36 2.570191 1_554
Na8 O45 2.570191 1_555
Na9 O30 2.406823 1_555
Na9 O37 2.406823 1_455
Na9 O38 2.406833 1_555
Na9 O19 2.406833 1_555
Na9 O35 2.570186 1_555
Na9 O40 2.570186 1_555
Na9 O44 2.570191 1_455
Na9 O25 2.570191 1_555
Na10 O25 2.406830 1_555
Na10 O39 2.406830 1_455
Na10 O36 2.406830 1_555
Na10 O43 2.406830 1_555
Na10 O30 2.570184 1_555
Na10 O33 2.570184 1_555
Na10 O28 2.570191 1_555
Na10 O34 2.570191 1_455
Na11 O29 2.406823 1_545
Na11 O46 2.406823 1_555
Na11 O35 2.406833 1_555
Na11 O41 2.406833 1_555
Na11 O19 2.570186 1_555
Na11 O26 2.570186 1_555
Na11 O31 2.570191 1_555
Na11 O32 2.570191 1_545
Ge0 O14 1.781490 1_555
Ge0 O25 1.781496 1_555
Ge0 O36 1.781496 1_555
Ge0 O9 1.781497 1_555
Ge1 O41 1.781490 1_555
Ge1 O20 1.781496 1_555
Ge1 O1 1.781496 1_555
Ge1 O46 1.781497 1_555
Ge2 O8 1.781490 1_555
Ge2 O24 1.781496 1_555
Ge2 O27 1.781496 1_555
Ge2 O6 1.781497 1_555
Ge3 O26 1.781490 1_556
Ge3 O10 1.781496 1_555
Ge3 O11 1.781496 1_545
Ge3 O33 1.781497 1_555
Ge4 O38 1.781490 1_655
Ge4 O4 1.781496 1_555
Ge4 O23 1.781496 1_554
Ge4 O37 1.781497 1_555
Ge5 O15 1.781490 1_555
Ge5 O34 1.781496 1_555
Ge5 O31 1.781496 1_555
Ge5 O13 1.781497 1_555
Ge6 O40 1.781490 1_555
Ge6 O21 1.781496 1_555
Ge6 O7 1.781496 1_555
Ge6 O42 1.781497 1_555
Ge7 O2 1.781490 1_554
Ge7 O44 1.781496 1_565
Ge7 O45 1.781496 1_555
Ge7 O22 1.781497 1_555
Ge8 O17 1.781490 1_455
Ge8 O32 1.781496 1_556
Ge8 O28 1.781496 1_555
Ge8 O18 1.781497 1_555
Ge9 O19 1.781490 1_555
Ge9 O3 1.781496 1_555
Ge9 O0 1.781496 1_555
Ge9 O30 1.781497 1_555
Ge10 O47 1.781490 1_545
Ge10 O39 1.781496 1_555
Ge10 O43 1.781496 1_655
Ge10 O5 1.781497 1_555
Ge11 O35 1.781490 1_565
Ge11 O16 1.781496 1_555
Ge11 O12 1.781496 1_455
Ge11 O29 1.781497 1_555
O0 V6 1.934943 1_556
O1 V5 1.934943 1_655
O2 V4 1.934952 1_666
O3 V0 1.934943 1_555
O4 V1 1.934943 1_655
O5 V0 1.934949 1_555
O6 V3 1.934949 1_665
O7 V0 1.934943 1_565
O8 V2 1.934952 1_555
O9 V7 1.934949 1_566
O10 V7 1.934943 1_556
O11 V3 1.934943 1_565
O12 V1 1.934943 1_655
O13 V1 1.934949 1_656
O14 V2 1.934952 1_555
O15 V2 1.934952 1_555
O16 V3 1.934943 1_565
O17 V4 1.934952 1_666
O18 V5 1.934949 1_555
O19 V2 1.934952 1_555
O20 V6 1.934943 1_555
O21 V5 1.934943 1_555
O22 V6 1.934949 1_555
O23 V7 1.934943 1_556
O24 V6 1.934943 1_555
O25 V5 1.934943 1_555
O26 V4 1.934952 1_555
O27 V0 1.934943 1_565
O28 V1 1.934943 1_556
O29 V0 1.934949 1_565
O30 V3 1.934949 1_555
O31 V0 1.934943 1_555
O32 V7 1.934943 1_565
O33 V6 1.934949 1_556
O34 V5 1.934943 1_655
O35 V4 1.934952 1_555
O36 V6 1.934943 1_556
O37 V5 1.934949 1_655
O38 V4 1.934952 1_555
O39 V3 1.934943 1_655
O40 V2 1.934952 1_555
O41 V2 1.934952 1_555
O42 V1 1.934949 1_555
O43 V1 1.934943 1_556
O44 V3 1.934943 1_655
O45 V7 1.934943 1_565
O46 V7 1.934949 1_555
O47 V4 1.934952 1_666
