# generated using pymatgen
data_CsCaCl3
_symmetry_space_group_name_H-M   'P 1'
_cell_length_a   5.42025854
_cell_length_b   5.41733805
_cell_length_c   5.41634602
_cell_angle_alpha   90.00570167
_cell_angle_beta   89.97678313
_cell_angle_gamma   90.01305720
_symmetry_Int_Tables_number   1
_chemical_formula_structural   CsCaCl3
_chemical_formula_sum   'Cs1 Ca1 Cl3'
_cell_volume   159.04216960
_cell_formula_units_Z   1
loop_
 _symmetry_equiv_pos_site_id
 _symmetry_equiv_pos_as_xyz
  1  'x, y, z'
loop_
 _atom_site_type_symbol
 _atom_site_label
 _atom_site_symmetry_multiplicity
 _atom_site_fract_x
 _atom_site_fract_y
 _atom_site_fract_z
 _atom_site_occupancy
  Cs  Cs0  1  0.00034147  0.00924674  0.00198640  1
  Ca  Ca0  1  0.49993183  0.51232560  0.50173691  1
  Cl  Cl0  1  0.99991100  0.51392565  0.50466655  1
  Cl  Cl1  1  0.49818694  0.01215891  0.49983324  1
  Cl  Cl2  1  0.50162776  0.51234610  0.00177890  1
loop_
_geom_bond_atom_site_label_1
_geom_bond_atom_site_label_2
_geom_bond_distance
_geom_bond_site_symmetry_2
Ca0 Cl1 2.707805 1_565
Ca0 Cl2 2.707957 1_555
Ca0 Cl2 2.708420 1_556
Ca0 Cl1 2.709605 1_555
Ca0 Cl0 2.710081 1_555
Ca0 Cl0 2.710298 1_455
Cl0 Cs0 3.801917 1_666
Cl0 Cs0 3.822919 1_665
Cl0 Cs0 3.838243 1_656
Cl0 Cs0 3.858290 1_655
Cl1 Cs0 3.815616 1_555
Cl1 Cs0 3.830592 1_556
Cl1 Cs0 3.830629 1_655
Cl1 Cs0 3.848638 1_656
Cl2 Cs0 3.814441 1_665
Cl2 Cs0 3.825204 1_565
Cl2 Cs0 3.839082 1_655
Cl2 Cs0 3.848037 1_555
