# generated using pymatgen
data_Pr2CdNi2
_symmetry_space_group_name_H-M   'P 1'
_cell_length_a   3.85866790
_cell_length_b   7.51163318
_cell_length_c   7.51163318
_cell_angle_alpha   90.00000000
_cell_angle_beta   90.00000000
_cell_angle_gamma   90.00000000
_symmetry_Int_Tables_number   1
_chemical_formula_structural   Pr2CdNi2
_chemical_formula_sum   'Pr4 Cd2 Ni4'
_cell_volume   217.72392025
_cell_formula_units_Z   2
loop_
 _symmetry_equiv_pos_site_id
 _symmetry_equiv_pos_as_xyz
  1  'x, y, z'
loop_
 _atom_site_type_symbol
 _atom_site_label
 _atom_site_symmetry_multiplicity
 _atom_site_fract_x
 _atom_site_fract_y
 _atom_site_fract_z
 _atom_site_occupancy
  Pr  Pr0  1  0.50000000  0.82127091  0.32127091  1
  Pr  Pr1  1  0.50000000  0.67872909  0.82127091  1
  Pr  Pr2  1  0.50000000  0.32127091  0.17872909  1
  Pr  Pr3  1  0.50000000  0.17872909  0.67872909  1
  Cd  Cd0  1  0.00000000  0.00000000  0.00000000  1
  Cd  Cd1  1  0.00000000  0.50000000  0.50000000  1
  Ni  Ni0  1  0.00000000  0.11408490  0.38591510  1
  Ni  Ni1  1  0.00000000  0.38591510  0.88591510  1
  Ni  Ni2  1  -0.00000000  0.61408490  0.11408490  1
  Ni  Ni3  1  -0.00000000  0.88591510  0.61408490  1
loop_
_geom_bond_atom_site_label_1
_geom_bond_atom_site_label_2
_geom_bond_distance
_geom_bond_site_symmetry_2
Cd0 Ni2 3.022868 1_545
Cd0 Ni1 3.022868 1_554
Cd0 Ni0 3.022868 1_555
Cd0 Ni3 3.022868 1_544
Cd0 Pr1 3.368773 1_544
Cd0 Pr2 3.368773 1_555
Cd0 Pr2 3.368773 1_455
Cd0 Pr3 3.368773 1_454
Cd0 Pr1 3.368773 1_444
Cd0 Pr3 3.368773 1_554
Cd0 Pr0 3.368773 1_445
Cd0 Pr0 3.368773 1_545
Cd1 Ni3 3.022868 1_555
Cd1 Ni0 3.022868 1_555
Cd1 Ni1 3.022868 1_555
Cd1 Ni2 3.022868 1_555
Cd1 Pr1 3.368773 1_555
Cd1 Pr3 3.368773 1_455
Cd1 Pr3 3.368773 1_555
Cd1 Pr1 3.368773 1_455
Cd1 Pr0 3.368773 1_555
Cd1 Pr2 3.368773 1_555
Cd1 Pr2 3.368773 1_455
Cd1 Pr0 3.368773 1_455
Ni0 Ni3 2.423860 1_545
Ni0 Pr2 2.926859 1_455
Ni0 Pr2 2.926859 1_555
Ni0 Pr0 2.965800 1_445
Ni0 Pr0 2.965800 1_545
Ni0 Pr3 2.965800 1_555
Ni0 Pr3 2.965800 1_455
Ni1 Ni2 2.423860 1_556
Ni1 Pr3 2.926859 1_455
Ni1 Pr3 2.926859 1_555
Ni1 Pr1 2.965800 1_555
Ni1 Pr1 2.965800 1_455
Ni1 Pr2 2.965800 1_556
Ni1 Pr2 2.965800 1_456
Ni2 Pr0 2.926859 1_555
Ni2 Pr0 2.926859 1_455
Ni2 Pr2 2.965800 1_455
Ni2 Pr2 2.965800 1_555
Ni2 Pr1 2.965800 1_454
Ni2 Pr1 2.965800 1_554
Ni3 Pr1 2.926859 1_555
Ni3 Pr1 2.926859 1_455
Ni3 Pr0 2.965800 1_455
Ni3 Pr0 2.965800 1_555
Ni3 Pr3 2.965800 1_565
Ni3 Pr3 2.965800 1_465
