# generated using pymatgen
data_KHfMg6O7
_symmetry_space_group_name_H-M   'P 1'
_cell_length_a   8.67568980
_cell_length_b   4.52926468
_cell_length_c   4.52926468
_cell_angle_alpha   90.00000000
_cell_angle_beta   90.00000000
_cell_angle_gamma   90.00000000
_symmetry_Int_Tables_number   1
_chemical_formula_structural   KHfMg6O7
_chemical_formula_sum   'K1 Hf1 Mg6 O7'
_cell_volume   177.97517007
_cell_formula_units_Z   1
loop_
 _symmetry_equiv_pos_site_id
 _symmetry_equiv_pos_as_xyz
  1  'x, y, z'
loop_
 _atom_site_type_symbol
 _atom_site_label
 _atom_site_symmetry_multiplicity
 _atom_site_fract_x
 _atom_site_fract_y
 _atom_site_fract_z
 _atom_site_occupancy
  K  K0  1  0.02921604  0.00000000  -0.00000000  1
  Hf  Hf0  1  0.49447881  0.00000000  -0.00000000  1
  Mg  Mg0  1  0.99597967  0.50000000  0.50000000  1
  Mg  Mg1  1  0.49703635  0.50000000  0.50000000  1
  Mg  Mg2  1  0.23910417  0.00000000  0.50000000  1
  Mg  Mg3  1  0.76446684  0.00000000  0.50000000  1
  Mg  Mg4  1  0.23910417  0.50000000  0.00000000  1
  Mg  Mg5  1  0.76446684  0.50000000  -0.00000000  1
  O  O0  1  0.73097625  0.00000000  -0.00000000  1
  O  O1  1  0.25043701  0.50000000  0.50000000  1
  O  O2  1  0.74422513  0.50000000  0.50000000  1
  O  O3  1  0.99457439  0.00000000  0.50000000  1
  O  O4  1  0.50567995  0.00000000  0.50000000  1
  O  O5  1  0.99457439  0.50000000  -0.00000000  1
  O  O6  1  0.50567995  0.50000000  -0.00000000  1
loop_
_geom_bond_atom_site_label_1
_geom_bond_atom_site_label_2
_geom_bond_distance
_geom_bond_site_symmetry_2
K0 O3 2.284488 1_455
K0 O5 2.284488 1_445
K0 O5 2.284488 1_455
K0 O3 2.284488 1_454
K0 O0 2.587436 1_455
Hf0 O0 2.051778 1_555
Hf0 O6 2.266716 1_545
Hf0 O4 2.266716 1_555
Hf0 O6 2.266716 1_555
Hf0 O4 2.266716 1_554
Mg0 O2 2.184144 1_555
Mg0 O1 2.207593 1_655
Mg0 O5 2.264665 1_555
Mg0 O3 2.264665 1_555
Mg0 O3 2.264665 1_565
Mg0 O5 2.264665 1_556
Mg1 O1 2.139419 1_555
Mg1 O2 2.144533 1_555
Mg1 O6 2.265874 1_556
Mg1 O6 2.265874 1_555
Mg1 O4 2.265874 1_555
Mg1 O4 2.265874 1_565
Mg2 O3 2.121465 1_455
Mg2 O1 2.266766 1_555
Mg2 O1 2.266766 1_545
Mg2 O4 2.312729 1_555
Mg3 O3 1.996342 1_555
Mg3 O4 2.245155 1_555
Mg3 O2 2.271431 1_555
Mg3 O2 2.271431 1_545
Mg3 O0 2.283195 1_555
Mg3 O0 2.283195 1_556
Mg4 O5 2.121465 1_455
Mg4 O1 2.266766 1_555
Mg4 O1 2.266766 1_554
Mg4 O6 2.312729 1_555
Mg5 O5 1.996342 1_555
Mg5 O6 2.245155 1_555
Mg5 O2 2.271431 1_555
Mg5 O2 2.271431 1_554
Mg5 O0 2.283195 1_565
Mg5 O0 2.283195 1_555
