# generated using pymatgen
data_Li4MnCo2O7
_symmetry_space_group_name_H-M   'P 1'
_cell_length_a   2.98294800
_cell_length_b   5.10945894
_cell_length_c   17.24239259
_cell_angle_alpha   85.20104530
_cell_angle_beta   88.66536199
_cell_angle_gamma   75.37429705
_symmetry_Int_Tables_number   1
_chemical_formula_structural   Li4MnCo2O7
_chemical_formula_sum   'Li8 Mn2 Co4 O14'
_cell_volume   253.38794290
_cell_formula_units_Z   2
loop_
 _symmetry_equiv_pos_site_id
 _symmetry_equiv_pos_as_xyz
  1  'x, y, z'
loop_
 _atom_site_type_symbol
 _atom_site_label
 _atom_site_symmetry_multiplicity
 _atom_site_fract_x
 _atom_site_fract_y
 _atom_site_fract_z
 _atom_site_occupancy
  Li  Li0  1  0.69974000  0.58297300  0.92696000  1
  Li  Li1  1  0.14330900  0.71064800  0.78495300  1
  Li  Li2  1  0.57289500  0.85973200  0.64209900  1
  Li  Li3  1  0.00035600  0.00111800  0.50064300  1
  Li  Li4  1  0.42194900  0.13955800  0.35452300  1
  Li  Li5  1  0.86051400  0.27517400  0.21327800  1
  Li  Li6  1  0.31365700  0.41780900  0.07895500  1
  Li  Li7  1  0.55122500  0.87497300  0.14323600  1
  Mn  Mn0  1  0.99751400  0.00213200  0.00446400  1
  Mn  Mn1  1  0.71471300  0.57328500  0.42725100  1
  Co  Co0  1  0.43950900  0.13599900  0.85501700  1
  Co  Co1  1  0.85863400  0.28706400  0.71413300  1
  Co  Co2  1  0.28726800  0.42681300  0.57217300  1
  Co  Co3  1  0.12920800  0.71747100  0.27906500  1
  O  O0  1  0.38962400  0.24960500  0.96391400  1
  O  O1  1  0.80983300  0.40535200  0.81842600  1
  O  O2  1  0.19045500  0.55149800  0.67655900  1
  O  O3  1  0.66105300  0.69718900  0.53314500  1
  O  O4  1  0.05003400  0.83840600  0.38559900  1
  O  O5  1  0.47454100  0.97206300  0.25321300  1
  O  O6  1  0.92506400  0.14622100  0.09900300  1
  O  O7  1  0.06491200  0.87650900  0.89503800  1
  O  O8  1  0.53134100  0.01966500  0.75141000  1
  O  O9  1  0.91129500  0.16253000  0.61218900  1
  O  O10  1  0.38884600  0.29531400  0.46953500  1
  O  O11  1  0.79912700  0.44798900  0.32411400  1
  O  O12  1  0.21193600  0.57544700  0.19011400  1
  O  O13  1  0.60144700  0.75746300  0.03099000  1
loop_
_geom_bond_atom_site_label_1
_geom_bond_atom_site_label_2
_geom_bond_distance
_geom_bond_site_symmetry_2
Li0 O13 2.051669 1_556
Li0 O7 2.097123 1_655
Li0 O1 2.130400 1_555
Li0 O7 2.148132 1_555
Li0 O0 2.179390 1_555
Li0 O0 2.377296 1_655
Li1 O2 2.087672 1_555
Li1 O1 2.088572 1_455
Li1 O7 2.127006 1_555
Li1 O8 2.144907 1_465
Li1 O8 2.214987 1_565
Li1 O1 2.248542 1_555
Li2 O9 2.075926 1_565
Li2 O3 2.101401 1_555
Li2 O8 2.105044 1_565
Li2 O2 2.157817 1_655
Li2 O2 2.203174 1_555
Li2 O9 2.219536 1_465
Li3 O3 2.090860 1_445
Li3 O10 2.097754 1_455
Li3 O9 2.140296 1_455
Li3 O10 2.146164 1_555
Li3 O4 2.201809 1_545
Li3 O3 2.229351 1_545
Li4 O5 1.994490 1_545
Li4 O4 2.140558 1_545
Li4 O4 2.148928 1_645
Li4 O11 2.153735 1_455
Li4 O11 2.180357 1_555
Li4 O10 2.188827 1_555
Li5 O12 2.074232 1_655
Li5 O6 2.118738 1_555
Li5 O11 2.156342 1_555
Li5 O5 2.162241 1_645
Li5 O12 2.165835 1_555
Li5 O5 2.209844 1_545
Li6 O6 2.010564 1_555
Li6 O6 2.025373 1_455
Li6 O12 2.126531 1_555
Li6 O0 2.211452 1_554
Li6 O13 2.216273 1_555
Li6 O13 2.487764 1_455
Li7 O5 1.993522 1_555
Li7 O13 2.064987 1_555
Li7 O6 2.076065 1_565
Li7 O12 2.134698 1_555
Li7 O6 2.138551 1_465
Li7 O12 2.285569 1_655
Mn0 O6 1.830277 1_555
Mn0 O13 1.947526 1_545
Mn0 O13 1.955197 1_645
Mn0 O0 2.004152 1_654
Mn0 O0 2.031995 1_554
Mn0 O7 2.032754 1_644
Mn1 O11 1.929748 1_555
Mn1 O4 1.959414 1_655
Mn1 O3 1.972009 1_555
Mn1 O10 1.996134 1_555
Mn1 O4 2.197521 1_555
Mn1 O10 2.246152 1_655
Co0 O8 1.921547 1_555
Co0 O0 2.002588 1_555
Co0 O7 2.010430 1_545
Co0 O1 2.025435 1_555
Co0 O7 2.090958 1_645
Co0 O1 2.103466 1_455
Co1 O9 1.908683 1_555
Co1 O2 1.929763 1_655
Co1 O8 1.931427 1_555
Co1 O1 1.935315 1_555
Co1 O2 2.184396 1_555
Co1 O8 2.198876 1_655
Co2 O10 1.935544 1_555
Co2 O2 1.950257 1_555
Co2 O9 2.032270 1_455
Co2 O3 2.047406 1_555
Co2 O9 2.097381 1_555
Co2 O3 2.109604 1_455
Co3 O12 1.737230 1_555
Co3 O5 1.873572 1_555
Co3 O4 1.976817 1_555
Co3 O11 1.984630 1_455
Co3 O5 2.089277 1_455
Co3 O11 2.235257 1_555
