# generated using pymatgen
data_Nd4Rh6Pb19
_symmetry_space_group_name_H-M   'P 1'
_cell_length_a   14.58070713
_cell_length_b   14.58070713
_cell_length_c   17.79362302
_cell_angle_alpha   114.18707296
_cell_angle_beta   114.18707296
_cell_angle_gamma   90.00000000
_symmetry_Int_Tables_number   1
_chemical_formula_structural   Nd4Rh6Pb19
_chemical_formula_sum   'Nd16 Rh24 Pb76'
_cell_volume   3083.12959260
_cell_formula_units_Z   4
loop_
 _symmetry_equiv_pos_site_id
 _symmetry_equiv_pos_as_xyz
  1  'x, y, z'
loop_
 _atom_site_type_symbol
 _atom_site_label
 _atom_site_symmetry_multiplicity
 _atom_site_fract_x
 _atom_site_fract_y
 _atom_site_fract_z
 _atom_site_occupancy
  Nd  Nd0  1  0.54585837  0.05163313  0.36440835  1
  Nd  Nd1  1  0.31854998  0.55163313  0.36440835  1
  Nd  Nd2  1  0.43145002  0.43722478  0.13559165  1
  Nd  Nd3  1  0.20414163  0.93722478  0.13559165  1
  Nd  Nd4  1  0.81854998  0.31277522  0.36440835  1
  Nd  Nd5  1  0.04585837  0.81277522  0.36440835  1
  Nd  Nd6  1  0.70414163  0.69836687  0.13559165  1
  Nd  Nd7  1  0.93145002  0.19836687  0.13559165  1
  Nd  Nd8  1  0.68722478  0.45414163  0.63559165  1
  Nd  Nd9  1  0.18722478  0.68145002  0.63559165  1
  Nd  Nd10  1  0.30163313  0.56854998  0.86440835  1
  Nd  Nd11  1  0.80163313  0.79585837  0.86440835  1
  Nd  Nd12  1  0.94836687  0.18145002  0.63559165  1
  Nd  Nd13  1  0.44836687  0.95414163  0.63559165  1
  Nd  Nd14  1  0.56277522  0.29585837  0.86440835  1
  Nd  Nd15  1  0.06277522  0.06854998  0.86440835  1
  Rh  Rh0  1  0.87088013  0.37088013  0.74176026  1
  Rh  Rh1  1  0.37088013  0.87088013  0.74176026  1
  Rh  Rh2  1  0.37911987  0.37911987  0.75823974  1
  Rh  Rh3  1  0.87911987  0.87911987  0.75823974  1
  Rh  Rh4  1  0.62911987  0.12911987  0.25823974  1
  Rh  Rh5  1  0.12911987  0.62911987  0.25823974  1
  Rh  Rh6  1  0.62088013  0.62088013  0.24176026  1
  Rh  Rh7  1  0.12088013  0.12088013  0.24176026  1
  Rh  Rh8  1  0.74919906  0.00763510  0.49998537  1
  Rh  Rh9  1  0.25078631  0.50763510  0.49998537  1
  Rh  Rh10  1  0.49921369  0.25764973  0.00001463  1
  Rh  Rh11  1  0.00080094  0.75764973  0.00001463  1
  Rh  Rh12  1  0.75078631  0.49235027  0.49998537  1
  Rh  Rh13  1  0.24919906  0.99235027  0.49998537  1
  Rh  Rh14  1  0.50080094  0.74236490  0.00001463  1
  Rh  Rh15  1  0.99921369  0.24236490  0.00001463  1
  Rh  Rh16  1  0.50764973  0.25080094  0.50001463  1
  Rh  Rh17  1  0.00764973  0.74921369  0.50001463  1
  Rh  Rh18  1  0.25763510  0.50078631  0.99998537  1
  Rh  Rh19  1  0.75763510  0.99919906  0.99998537  1
  Rh  Rh20  1  0.99236490  0.24921369  0.50001463  1
  Rh  Rh21  1  0.49236490  0.75080094  0.50001463  1
  Rh  Rh22  1  0.74235027  0.49919906  0.99998537  1
  Rh  Rh23  1  0.24235027  0.00078631  0.99998537  1
  Pb  Pb0  1  0.66324057  0.12500000  0.75000000  1
  Pb  Pb1  1  0.58675943  0.62500000  0.75000000  1
  Pb  Pb2  1  0.16324057  0.12500000  0.75000000  1
  Pb  Pb3  1  0.08675943  0.62500000  0.75000000  1
  Pb  Pb4  1  0.37500000  0.33675943  0.25000000  1
  Pb  Pb5  1  0.87500000  0.41324057  0.25000000  1
  Pb  Pb6  1  0.37500000  0.83675943  0.25000000  1
  Pb  Pb7  1  0.87500000  0.91324057  0.25000000  1
  Pb  Pb8  1  0.67177028  0.17177028  1.00000000  1
  Pb  Pb9  1  0.82822972  0.67177028  0.00000000  1
  Pb  Pb10  1  0.92177028  0.92177028  0.50000000  1
  Pb  Pb11  1  0.07822972  0.42177028  0.50000000  1
  Pb  Pb12  1  0.32822972  0.82822972  0.00000000  1
  Pb  Pb13  1  0.17177028  0.32822972  0.00000000  1
  Pb  Pb14  1  0.57822972  0.57822972  0.50000000  1
  Pb  Pb15  1  0.42177028  0.07822972  0.50000000  1
  Pb  Pb16  1  0.82570867  0.32570867  0.00000000  1
  Pb  Pb17  1  0.67429133  0.82570867  0.00000000  1
  Pb  Pb18  1  0.07570867  0.07570867  0.50000000  1
  Pb  Pb19  1  0.92429133  0.57570867  0.50000000  1
  Pb  Pb20  1  0.17429133  0.67429133  1.00000000  1
  Pb  Pb21  1  0.32570867  0.17429133  0.00000000  1
  Pb  Pb22  1  0.42429133  0.42429133  0.50000000  1
  Pb  Pb23  1  0.57570867  0.92429133  0.50000000  1
  Pb  Pb24  1  0.82803717  0.00994056  0.67343108  1
  Pb  Pb25  1  0.34539391  0.50994056  0.67343108  1
  Pb  Pb26  1  0.40460609  0.08650948  0.82656892  1
  Pb  Pb27  1  0.92196283  0.58650948  0.82656892  1
  Pb  Pb28  1  0.84539391  0.66349052  0.67343108  1
  Pb  Pb29  1  0.32803717  0.16349052  0.67343108  1
  Pb  Pb30  1  0.42196283  0.74005944  0.82656892  1
  Pb  Pb31  1  0.90460609  0.24005944  0.82656892  1
  Pb  Pb32  1  0.33650948  0.17196283  0.32656892  1
  Pb  Pb33  1  0.83650948  0.65460609  0.32656892  1
  Pb  Pb34  1  0.25994056  0.59539391  0.17343108  1
  Pb  Pb35  1  0.75994056  0.07803717  0.17343108  1
  Pb  Pb36  1  0.99005944  0.15460609  0.32656892  1
  Pb  Pb37  1  0.49005944  0.67196283  0.32656892  1
  Pb  Pb38  1  0.91349052  0.57803717  0.17343108  1
  Pb  Pb39  1  0.41349052  0.09539391  0.17343108  1
  Pb  Pb40  1  0.50975041  0.33152665  0.67204353  1
  Pb  Pb41  1  0.66229313  0.83152665  0.67204353  1
  Pb  Pb42  1  0.08770687  0.40948312  0.82795647  1
  Pb  Pb43  1  0.24024959  0.90948312  0.82795647  1
  Pb  Pb44  1  0.16229313  0.34051688  0.67204353  1
  Pb  Pb45  1  0.00975041  0.84051688  0.67204353  1
  Pb  Pb46  1  0.74024959  0.41847335  0.82795647  1
  Pb  Pb47  1  0.58770687  0.91847335  0.82795647  1
  Pb  Pb48  1  0.65948312  0.49024959  0.32795647  1
  Pb  Pb49  1  0.15948312  0.33770687  0.32795647  1
  Pb  Pb50  1  0.58152665  0.91229313  0.17204353  1
  Pb  Pb51  1  0.08152665  0.75975041  0.17204353  1
  Pb  Pb52  1  0.66847335  0.83770687  0.32795647  1
  Pb  Pb53  1  0.16847335  0.99024959  0.32795647  1
  Pb  Pb54  1  0.59051688  0.25975041  0.17204353  1
  Pb  Pb55  1  0.09051688  0.41229313  0.17204353  1
  Pb  Pb56  1  0.70443544  0.20652386  0.58808689  1
  Pb  Pb57  1  0.38365145  0.70652386  0.58808689  1
  Pb  Pb58  1  0.36634855  0.36843697  0.91191311  1
  Pb  Pb59  1  0.04556456  0.86843697  0.91191311  1
  Pb  Pb60  1  0.88365145  0.38156303  0.58808689  1
  Pb  Pb61  1  0.20443544  0.88156303  0.58808689  1
  Pb  Pb62  1  0.54556456  0.54347614  0.91191311  1
  Pb  Pb63  1  0.86634855  0.04347614  0.91191311  1
  Pb  Pb64  1  0.61843697  0.29556456  0.41191311  1
  Pb  Pb65  1  0.11843697  0.61634855  0.41191311  1
  Pb  Pb66  1  0.45652386  0.63365145  0.08808689  1
  Pb  Pb67  1  0.95652386  0.95443544  0.08808689  1
  Pb  Pb68  1  0.79347614  0.11634855  0.41191311  1
  Pb  Pb69  1  0.29347614  0.79556456  0.41191311  1
  Pb  Pb70  1  0.63156303  0.45443544  0.08808689  1
  Pb  Pb71  1  0.13156303  0.13365145  0.08808689  1
  Pb  Pb72  1  0.00000000  0.50000000  0.00000000  1
  Pb  Pb73  1  0.50000000  -0.00000000  0.00000000  1
  Pb  Pb74  1  0.25000000  0.25000000  0.50000000  1
  Pb  Pb75  1  0.75000000  0.75000000  0.50000000  1
loop_
_geom_bond_atom_site_label_1
_geom_bond_atom_site_label_2
_geom_bond_distance
_geom_bond_site_symmetry_2
Nd0 Rh16 3.150472 1_555
Nd0 Rh4 3.153943 1_555
Nd0 Rh8 3.229368 1_555
Nd0 Pb6 3.283920 1_545
Nd0 Pb64 3.359747 1_555
Nd0 Pb56 3.373560 1_555
Nd0 Pb68 3.389071 1_555
Nd0 Pb50 3.445928 1_545
Nd0 Pb15 3.472062 1_555
Nd0 Pb39 3.475938 1_555
Nd0 Pb32 3.483237 1_555
Nd0 Pb23 3.502596 1_545
Nd0 Pb52 3.555100 1_545
Nd1 Rh21 3.150472 1_555
Nd1 Rh5 3.153943 1_555
Nd1 Rh9 3.229368 1_555
Nd1 Pb4 3.283920 1_555
Nd1 Pb69 3.359747 1_555
Nd1 Pb57 3.373560 1_555
Nd1 Pb65 3.389071 1_555
Nd1 Pb55 3.445928 1_555
Nd1 Pb14 3.472062 1_555
Nd1 Pb34 3.475938 1_555
Nd1 Pb37 3.483237 1_555
Nd1 Pb22 3.502596 1_555
Nd1 Pb49 3.555100 1_555
Nd2 Rh18 3.150472 1_554
Nd2 Rh6 3.153943 1_555
Nd2 Rh10 3.229368 1_555
Nd2 Pb4 3.283920 1_555
Nd2 Pb66 3.359747 1_555
Nd2 Pb58 3.373560 1_554
Nd2 Pb70 3.389071 1_555
Nd2 Pb48 3.445928 1_555
Nd2 Pb13 3.472062 1_555
Nd2 Pb37 3.475938 1_555
Nd2 Pb34 3.483237 1_555
Nd2 Pb21 3.502596 1_555
Nd2 Pb54 3.555100 1_555
Nd3 Rh23 3.150472 1_564
Nd3 Rh7 3.153943 1_565
Nd3 Rh11 3.229368 1_555
Nd3 Pb6 3.283920 1_555
Nd3 Pb71 3.359747 1_565
Nd3 Pb59 3.373560 1_554
Nd3 Pb67 3.389071 1_455
Nd3 Pb53 3.445928 1_555
Nd3 Pb12 3.472062 1_555
Nd3 Pb32 3.475938 1_565
Nd3 Pb39 3.483237 1_565
Nd3 Pb20 3.502596 1_554
Nd3 Pb51 3.555100 1_555
Nd4 Rh20 3.150472 1_555
Nd4 Rh4 3.153943 1_555
Nd4 Rh12 3.229368 1_555
Nd4 Pb5 3.283920 1_555
Nd4 Pb68 3.359747 1_555
Nd4 Pb60 3.373560 1_555
Nd4 Pb64 3.389071 1_555
Nd4 Pb54 3.445928 1_555
Nd4 Pb11 3.472062 1_655
Nd4 Pb35 3.475938 1_555
Nd4 Pb36 3.483237 1_555
Nd4 Pb19 3.502596 1_555
Nd4 Pb48 3.555100 1_555
Nd5 Rh17 3.150472 1_555
Nd5 Rh5 3.153943 1_555
Nd5 Rh13 3.229368 1_555
Nd5 Pb7 3.283920 1_455
Nd5 Pb65 3.359747 1_555
Nd5 Pb61 3.373560 1_555
Nd5 Pb69 3.389071 1_555
Nd5 Pb51 3.445928 1_555
Nd5 Pb10 3.472062 1_455
Nd5 Pb38 3.475938 1_455
Nd5 Pb33 3.483237 1_455
Nd5 Pb18 3.502596 1_565
Nd5 Pb53 3.555100 1_555
Nd6 Rh22 3.150472 1_554
Nd6 Rh6 3.153943 1_555
Nd6 Rh14 3.229368 1_555
Nd6 Pb7 3.283920 1_555
Nd6 Pb70 3.359747 1_555
Nd6 Pb62 3.373560 1_554
Nd6 Pb66 3.389071 1_555
Nd6 Pb52 3.445928 1_555
Nd6 Pb9 3.472062 1_555
Nd6 Pb33 3.475938 1_555
Nd6 Pb38 3.483237 1_555
Nd6 Pb17 3.502596 1_555
Nd6 Pb50 3.555100 1_555
Nd7 Rh19 3.150472 1_544
Nd7 Rh7 3.153943 1_655
Nd7 Rh15 3.229368 1_555
Nd7 Pb5 3.283920 1_555
Nd7 Pb67 3.359747 1_545
Nd7 Pb63 3.373560 1_554
Nd7 Pb71 3.389071 1_655
Nd7 Pb49 3.445928 1_655
Nd7 Pb8 3.472062 1_554
Nd7 Pb36 3.475938 1_555
Nd7 Pb35 3.483237 1_555
Nd7 Pb16 3.502596 1_555
Nd7 Pb55 3.555100 1_655
Nd8 Rh12 3.150472 1_555
Nd8 Rh0 3.153943 1_555
Nd8 Rh16 3.229368 1_555
Nd8 Pb1 3.283920 1_555
Nd8 Pb60 3.359747 1_555
Nd8 Pb64 3.373560 1_555
Nd8 Pb56 3.389071 1_555
Nd8 Pb46 3.445928 1_555
Nd8 Pb14 3.472062 1_555
Nd8 Pb27 3.475938 1_555
Nd8 Pb28 3.483237 1_555
Nd8 Pb22 3.502596 1_555
Nd8 Pb40 3.555100 1_555
Nd9 Rh9 3.150472 1_555
Nd9 Rh1 3.153943 1_555
Nd9 Rh17 3.229368 1_555
Nd9 Pb3 3.283920 1_555
Nd9 Pb57 3.359747 1_555
Nd9 Pb65 3.373560 1_555
Nd9 Pb61 3.389071 1_555
Nd9 Pb43 3.445928 1_555
Nd9 Pb11 3.472062 1_555
Nd9 Pb30 3.475938 1_555
Nd9 Pb25 3.483237 1_555
Nd9 Pb19 3.502596 1_455
Nd9 Pb45 3.555100 1_555
Nd10 Rh14 3.150472 1_556
Nd10 Rh2 3.153943 1_555
Nd10 Rh18 3.229368 1_555
Nd10 Pb3 3.283920 1_555
Nd10 Pb62 3.359747 1_555
Nd10 Pb66 3.373560 1_556
Nd10 Pb58 3.389071 1_555
Nd10 Pb44 3.445928 1_555
Nd10 Pb12 3.472062 1_556
Nd10 Pb25 3.475938 1_555
Nd10 Pb30 3.483237 1_555
Nd10 Pb20 3.502596 1_555
Nd10 Pb42 3.555100 1_555
Nd11 Rh11 3.150472 1_656
Nd11 Rh3 3.153943 1_555
Nd11 Rh19 3.229368 1_555
Nd11 Pb1 3.283920 1_555
Nd11 Pb59 3.359747 1_655
Nd11 Pb67 3.373560 1_556
Nd11 Pb63 3.389071 1_565
Nd11 Pb41 3.445928 1_555
Nd11 Pb9 3.472062 1_556
Nd11 Pb28 3.475938 1_555
Nd11 Pb27 3.483237 1_555
Nd11 Pb17 3.502596 1_556
Nd11 Pb47 3.555100 1_555
Nd12 Rh8 3.150472 1_555
Nd12 Rh0 3.153943 1_555
Nd12 Rh20 3.229368 1_555
Nd12 Pb2 3.283920 1_655
Nd12 Pb56 3.359747 1_555
Nd12 Pb68 3.373560 1_555
Nd12 Pb60 3.389071 1_555
Nd12 Pb42 3.445928 1_655
Nd12 Pb10 3.472062 1_545
Nd12 Pb31 3.475938 1_555
Nd12 Pb24 3.483237 1_555
Nd12 Pb18 3.502596 1_655
Nd12 Pb44 3.555100 1_655
Nd13 Rh13 3.150472 1_555
Nd13 Rh1 3.153943 1_555
Nd13 Rh21 3.229368 1_555
Nd13 Pb0 3.283920 1_565
Nd13 Pb61 3.359747 1_555
Nd13 Pb69 3.373560 1_555
Nd13 Pb57 3.389071 1_555
Nd13 Pb47 3.445928 1_555
Nd13 Pb15 3.472062 1_565
Nd13 Pb26 3.475938 1_565
Nd13 Pb29 3.483237 1_565
Nd13 Pb23 3.502596 1_555
Nd13 Pb41 3.555100 1_555
Nd14 Rh10 3.150472 1_556
Nd14 Rh2 3.153943 1_555
Nd14 Rh22 3.229368 1_555
Nd14 Pb0 3.283920 1_555
Nd14 Pb58 3.359747 1_555
Nd14 Pb70 3.373560 1_556
Nd14 Pb62 3.389071 1_555
Nd14 Pb40 3.445928 1_555
Nd14 Pb8 3.472062 1_555
Nd14 Pb29 3.475938 1_555
Nd14 Pb26 3.483237 1_555
Nd14 Pb16 3.502596 1_556
Nd14 Pb46 3.555100 1_555
Nd15 Rh15 3.150472 1_456
Nd15 Rh3 3.153943 1_445
Nd15 Rh23 3.229368 1_555
Nd15 Pb2 3.283920 1_555
Nd15 Pb63 3.359747 1_455
Nd15 Pb71 3.373560 1_556
Nd15 Pb59 3.389071 1_545
Nd15 Pb45 3.445928 1_545
Nd15 Pb13 3.472062 1_556
Nd15 Pb24 3.475938 1_455
Nd15 Pb31 3.483237 1_455
Nd15 Pb21 3.502596 1_556
Nd15 Pb43 3.555100 1_545
Pb8 Rh19 2.810422 1_545
Pb8 Rh10 2.810422 1_556
Pb9 Rh11 2.810422 1_655
Pb9 Rh22 2.810422 1_554
Pb10 Rh8 2.810422 1_565
Pb10 Rh17 2.810422 1_655
Pb10 Pb18 3.174246 1_665
Pb10 Pb75 3.541943 1_555
Pb11 Rh9 2.810422 1_555
Pb11 Rh20 2.810422 1_455
Pb11 Pb19 3.174246 1_455
Pb11 Pb74 3.541943 1_555
Pb12 Rh14 2.810422 1_555
Pb12 Rh23 2.810422 1_564
Pb12 Pb20 3.174246 1_554
Pb12 Pb73 3.541943 1_565
Pb13 Rh15 2.810422 1_455
Pb13 Rh18 2.810422 1_554
Pb13 Pb21 3.174246 1_555
Pb13 Pb72 3.541943 1_555
Pb14 Rh21 2.810422 1_555
Pb14 Rh12 2.810422 1_555
Pb14 Pb22 3.174246 1_555
Pb14 Pb75 3.541943 1_555
Pb15 Rh13 2.810422 1_545
Pb15 Rh16 2.810422 1_555
Pb15 Pb23 3.174246 1_545
Pb15 Pb74 3.541943 1_555
Pb16 Rh15 2.806506 1_555
Pb16 Rh22 2.806506 1_554
Pb16 Pb8 3.174246 1_554
Pb16 Pb72 3.593928 1_655
Pb17 Rh14 2.806506 1_555
Pb17 Rh19 2.806506 1_554
Pb17 Pb9 3.174246 1_555
Pb17 Pb73 3.593928 1_565
Pb18 Rh20 2.806506 1_455
Pb18 Rh13 2.806506 1_545
Pb18 Pb74 3.593928 1_555
Pb19 Rh12 2.806506 1_555
Pb19 Rh17 2.806506 1_655
Pb19 Pb75 3.593928 1_555
Pb20 Rh18 2.806506 1_555
Pb20 Rh11 2.806506 1_556
Pb20 Pb72 3.593928 1_556
Pb21 Rh23 2.806506 1_554
Pb21 Rh10 2.806506 1_555
Pb21 Pb73 3.593928 1_555
Pb22 Rh9 2.806506 1_555
Pb22 Rh16 2.806506 1_555
Pb22 Pb74 3.593928 1_555
Pb23 Rh8 2.806506 1_565
Pb23 Rh21 2.806506 1_555
Pb23 Pb75 3.593928 1_555
Pb24 Rh8 2.802717 1_555
Pb24 Rh3 2.812131 1_545
Pb24 Pb75 3.566693 1_545
Pb25 Rh9 2.802717 1_555
Pb25 Rh2 2.812131 1_555
Pb25 Pb74 3.566693 1_555
Pb26 Rh10 2.802717 1_556
Pb26 Rh1 2.812131 1_545
Pb26 Pb73 3.566693 1_556
Pb27 Rh11 2.802717 1_656
Pb27 Rh0 2.812131 1_555
Pb27 Pb72 3.566693 1_656
Pb28 Rh12 2.802717 1_555
Pb28 Rh3 2.812131 1_555
Pb28 Pb75 3.566693 1_555
Pb29 Rh13 2.802717 1_545
Pb29 Rh2 2.812131 1_555
Pb29 Pb74 3.566693 1_555
Pb30 Rh14 2.802717 1_556
Pb30 Rh1 2.812131 1_555
Pb30 Pb73 3.566693 1_566
Pb31 Rh15 2.802717 1_556
Pb31 Rh0 2.812131 1_555
Pb31 Pb72 3.566693 1_656
Pb32 Rh16 2.802717 1_555
Pb32 Rh7 2.812131 1_555
Pb32 Pb74 3.566693 1_555
Pb33 Rh17 2.802717 1_655
Pb33 Rh6 2.812131 1_555
Pb33 Pb75 3.566693 1_555
Pb34 Rh18 2.802717 1_554
Pb34 Rh5 2.812131 1_555
Pb34 Pb72 3.566693 1_555
Pb35 Rh19 2.802717 1_544
Pb35 Rh4 2.812131 1_555
Pb35 Pb73 3.566693 1_555
Pb36 Rh20 2.802717 1_555
Pb36 Rh7 2.812131 1_655
Pb36 Pb74 3.566693 1_655
Pb37 Rh21 2.802717 1_555
Pb37 Rh6 2.812131 1_555
Pb37 Pb75 3.566693 1_555
Pb38 Rh22 2.802717 1_554
Pb38 Rh5 2.812131 1_655
Pb38 Pb72 3.566693 1_655
Pb39 Rh23 2.802717 1_554
Pb39 Rh4 2.812131 1_555
Pb39 Pb73 3.566693 1_555
Pb40 Rh16 2.779746 1_555
Pb40 Rh2 2.825494 1_555
Pb40 Pb46 3.174376 1_555
Pb40 Pb74 3.556110 1_555
Pb41 Rh21 2.779746 1_555
Pb41 Rh3 2.825494 1_555
Pb41 Pb47 3.174377 1_555
Pb41 Pb75 3.556110 1_555
Pb42 Rh18 2.779746 1_555
Pb42 Rh0 2.825494 1_455
Pb42 Pb44 3.174377 1_555
Pb42 Pb72 3.556110 1_556
Pb43 Rh23 2.779746 1_565
Pb43 Rh1 2.825494 1_555
Pb43 Pb45 3.174376 1_555
Pb43 Pb73 3.556110 1_566
Pb44 Rh20 2.779746 1_455
Pb44 Rh2 2.825494 1_555
Pb44 Pb74 3.556110 1_555
Pb45 Rh17 2.779746 1_555
Pb45 Rh3 2.825494 1_455
Pb45 Pb75 3.556110 1_455
Pb46 Rh22 2.779746 1_555
Pb46 Rh0 2.825494 1_555
Pb46 Pb72 3.556110 1_656
Pb47 Rh19 2.779746 1_555
Pb47 Rh1 2.825494 1_555
Pb47 Pb73 3.556110 1_566
Pb48 Rh12 2.779746 1_555
Pb48 Rh6 2.825494 1_555
Pb48 Pb54 3.174376 1_555
Pb48 Pb75 3.556110 1_555
Pb49 Rh9 2.779746 1_555
Pb49 Rh7 2.825494 1_555
Pb49 Pb55 3.174377 1_555
Pb49 Pb74 3.556110 1_555
Pb50 Rh14 2.779746 1_555
Pb50 Rh4 2.825494 1_565
Pb50 Pb52 3.174377 1_555
Pb50 Pb73 3.556110 1_565
Pb51 Rh11 2.779746 1_555
Pb51 Rh5 2.825494 1_555
Pb51 Pb53 3.174376 1_555
Pb51 Pb72 3.556110 1_555
Pb52 Rh8 2.779746 1_565
Pb52 Rh6 2.825494 1_555
Pb52 Pb75 3.556110 1_555
Pb53 Rh13 2.779746 1_555
Pb53 Rh7 2.825494 1_565
Pb53 Pb74 3.556110 1_565
Pb54 Rh10 2.779746 1_555
Pb54 Rh4 2.825494 1_555
Pb54 Pb73 3.556110 1_555
Pb55 Rh15 2.779746 1_455
Pb55 Rh5 2.825494 1_555
Pb55 Pb72 3.556110 1_555
Pb56 Rh16 2.872255 1_555
Pb56 Rh0 2.881350 1_555
Pb56 Rh8 2.899374 1_555
Pb57 Rh21 2.872255 1_555
Pb57 Rh1 2.881350 1_555
Pb57 Rh9 2.899374 1_555
Pb58 Rh18 2.872255 1_555
Pb58 Rh2 2.881350 1_555
Pb58 Rh10 2.899374 1_556
Pb59 Rh23 2.872255 1_565
Pb59 Rh3 2.881350 1_455
Pb59 Rh11 2.899374 1_556
Pb60 Rh20 2.872255 1_555
Pb60 Rh0 2.881350 1_555
Pb60 Rh12 2.899374 1_555
Pb61 Rh17 2.872255 1_555
Pb61 Rh1 2.881350 1_555
Pb61 Rh13 2.899374 1_555
Pb62 Rh22 2.872255 1_555
Pb62 Rh2 2.881350 1_555
Pb62 Rh14 2.899374 1_556
Pb63 Rh19 2.872255 1_545
Pb63 Rh3 2.881350 1_545
Pb63 Rh15 2.899374 1_556
Pb64 Rh12 2.872255 1_555
Pb64 Rh4 2.881350 1_555
Pb64 Rh16 2.899374 1_555
Pb65 Rh9 2.872255 1_555
Pb65 Rh5 2.881350 1_555
Pb65 Rh17 2.899374 1_555
Pb66 Rh14 2.872255 1_555
Pb66 Rh6 2.881350 1_555
Pb66 Rh18 2.899374 1_554
Pb67 Rh11 2.872255 1_655
Pb67 Rh7 2.881350 1_665
Pb67 Rh19 2.899374 1_554
Pb68 Rh8 2.872255 1_555
Pb68 Rh4 2.881350 1_555
Pb68 Rh20 2.899374 1_555
Pb69 Rh13 2.872255 1_555
Pb69 Rh5 2.881350 1_555
Pb69 Rh21 2.899374 1_555
Pb70 Rh10 2.872255 1_555
Pb70 Rh6 2.881350 1_555
Pb70 Rh22 2.899374 1_554
Pb71 Rh15 2.872255 1_455
Pb71 Rh7 2.881350 1_555
Pb71 Rh23 2.899374 1_554
Pb72 Pb9 3.541943 1_455
Pb73 Pb8 3.541943 1_554
