# generated using pymatgen
data_Yb2NiAs2
_symmetry_space_group_name_H-M   'P 1'
_cell_length_a   4.03533929
_cell_length_b   4.03533929
_cell_length_c   13.85332701
_cell_angle_alpha   90.00000000
_cell_angle_beta   90.00000000
_cell_angle_gamma   120.00001230
_symmetry_Int_Tables_number   1
_chemical_formula_structural   Yb2NiAs2
_chemical_formula_sum   'Yb4 Ni2 As4'
_cell_volume   195.36410666
_cell_formula_units_Z   2
loop_
 _symmetry_equiv_pos_site_id
 _symmetry_equiv_pos_as_xyz
  1  'x, y, z'
loop_
 _atom_site_type_symbol
 _atom_site_label
 _atom_site_symmetry_multiplicity
 _atom_site_fract_x
 _atom_site_fract_y
 _atom_site_fract_z
 _atom_site_occupancy
  Yb  Yb0  1  0.66666700  0.33333300  0.61839285  1
  Yb  Yb1  1  0.33333300  0.66666700  0.11839285  1
  Yb  Yb2  1  0.66666700  0.33333300  0.35374693  1
  Yb  Yb3  1  0.33333300  0.66666700  0.85374693  1
  Ni  Ni0  1  0.00000000  0.00000000  0.99184141  1
  Ni  Ni1  1  0.00000000  0.00000000  0.49184141  1
  As  As0  1  0.66666700  0.33333300  0.98442448  1
  As  As1  1  0.33333300  0.66666700  0.48442448  1
  As  As2  1  0.00000000  0.00000000  0.73592533  1
  As  As3  1  0.00000000  0.00000000  0.23592533  1
loop_
_geom_bond_atom_site_label_1
_geom_bond_atom_site_label_2
_geom_bond_distance
_geom_bond_site_symmetry_2
Ni0 Yb1 2.915740 1_546
Ni0 Yb1 2.915743 1_556
Ni0 Yb1 2.915743 1_446
Ni0 Yb3 3.014599 1_545
Ni0 Yb3 3.014601 1_555
Ni0 Yb3 3.014601 1_445
Ni1 Yb0 2.915740 1_455
Ni1 Yb0 2.915743 1_555
Ni1 Yb0 2.915743 1_445
Ni1 Yb2 3.014599 1_455
Ni1 Yb2 3.014601 1_555
Ni1 Yb2 3.014601 1_445
As0 Ni0 2.332067 1_655
As0 Ni0 2.332070 1_555
As0 Ni0 2.332070 1_665
As0 Yb3 2.950463 1_655
As0 Yb3 2.950463 1_545
As0 Yb3 2.950468 1_555
As0 Yb1 2.978652 1_656
As0 Yb1 2.978652 1_546
As0 Yb1 2.978658 1_556
As1 Ni1 2.332067 1_565
As1 Ni1 2.332070 1_555
As1 Ni1 2.332070 1_665
As1 Yb2 2.950463 1_565
As1 Yb2 2.950463 1_455
As1 Yb2 2.950468 1_555
As1 Yb0 2.978652 1_565
As1 Yb0 2.978652 1_455
As1 Yb0 2.978658 1_555
As2 Yb0 2.842370 1_455
As2 Yb0 2.842372 1_555
As2 Yb0 2.842372 1_445
As2 Yb3 2.844666 1_545
As2 Yb3 2.844668 1_555
As2 Yb3 2.844668 1_445
As3 Yb1 2.842370 1_545
As3 Yb1 2.842372 1_555
As3 Yb1 2.842372 1_445
As3 Yb2 2.844666 1_455
As3 Yb2 2.844668 1_555
As3 Yb2 2.844668 1_445
