# generated using pymatgen
data_Sr2Y4Fe2Cu2O13
_symmetry_space_group_name_H-M   'P 1'
_cell_length_a   5.47995401
_cell_length_b   10.82313869
_cell_length_c   11.87027780
_cell_angle_alpha   116.97828070
_cell_angle_beta   102.90817687
_cell_angle_gamma   90.08162421
_symmetry_Int_Tables_number   1
_chemical_formula_structural   Sr2Y4Fe2Cu2O13
_chemical_formula_sum   'Sr4 Y8 Fe4 Cu4 O26'
_cell_volume   607.26625905
_cell_formula_units_Z   2
loop_
 _symmetry_equiv_pos_site_id
 _symmetry_equiv_pos_as_xyz
  1  'x, y, z'
loop_
 _atom_site_type_symbol
 _atom_site_label
 _atom_site_symmetry_multiplicity
 _atom_site_fract_x
 _atom_site_fract_y
 _atom_site_fract_z
 _atom_site_occupancy
  Sr  Sr0  1  0.20090200  0.35945900  0.99050500  1
  Sr  Sr1  1  0.29834400  0.86963700  0.00851000  1
  Sr  Sr2  1  0.70165600  0.13036300  0.99149000  1
  Sr  Sr3  1  0.79909800  0.64054100  0.00949500  1
  Y  Y0  1  0.02239500  0.17543500  0.63306300  1
  Y  Y1  1  0.10620200  0.67841100  0.62928000  1
  Y  Y2  1  0.39306300  0.54903000  0.37029000  1
  Y  Y3  1  0.52202100  0.95803600  0.63310500  1
  Y  Y4  1  0.47797900  0.04196400  0.36689500  1
  Y  Y5  1  0.60693700  0.45097000  0.62971000  1
  Y  Y6  1  0.89379800  0.32158900  0.37072000  1
  Y  Y7  1  0.97760500  0.82456500  0.36693700  1
  Fe  Fe0  1  0.18966300  0.52007000  0.80911800  1
  Fe  Fe1  1  0.31132300  0.21082900  0.19129900  1
  Fe  Fe2  1  0.68867700  0.78917100  0.80870100  1
  Fe  Fe3  1  0.81033700  0.47993000  0.19088200  1
  Cu  Cu0  1  0.11371700  0.01372700  0.79573300  1
  Cu  Cu1  1  0.38527500  0.71798000  0.20328400  1
  Cu  Cu2  1  0.61472500  0.28202000  0.79671600  1
  Cu  Cu3  1  0.88628300  0.98627300  0.20426700  1
  O  O0  1  0.06319900  0.35915700  0.22081500  1
  O  O1  1  0.10347800  0.60859100  0.21348600  1
  O  O2  1  0.15491200  0.14984400  0.29409900  1
  O  O3  1  0.14735400  0.86144500  0.20925100  1
  O  O4  1  0.24971400  0.02744100  0.49989400  1
  O  O5  1  0.24995700  0.47226900  0.50003000  1
  O  O6  1  0.25051400  0.75214100  0.50009400  1
  O  O7  1  0.35222200  0.15139900  0.79080100  1
  O  O8  1  0.34665600  0.35651900  0.70727500  1
  O  O9  1  0.19987900  0.11114600  0.00934800  1
  O  O10  1  0.39395400  0.89484200  0.78749600  1
  O  O11  1  0.43648000  0.63822400  0.77811900  1
  O  O12  1  0.30061300  0.60265000  0.99109600  1
  O  O13  1  0.56352000  0.36177600  0.22188100  1
  O  O14  1  0.60604600  0.10515800  0.21250400  1
  O  O15  1  0.65334400  0.64348100  0.29272500  1
  O  O16  1  0.64777800  0.84860100  0.20919900  1
  O  O17  1  0.74948600  0.24785900  0.49990600  1
  O  O18  1  0.75004300  0.52773100  0.49997000  1
  O  O19  1  0.75028600  0.97255900  0.50010600  1
  O  O20  1  0.85264600  0.13855500  0.79074900  1
  O  O21  1  0.84508800  0.85015600  0.70590100  1
  O  O22  1  0.69938700  0.39735000  0.00890400  1
  O  O23  1  0.89652200  0.39140900  0.78651400  1
  O  O24  1  0.93680100  0.64084300  0.77918500  1
  O  O25  1  0.80012100  0.88885400  0.99065200  1
loop_
_geom_bond_atom_site_label_1
_geom_bond_atom_site_label_2
_geom_bond_distance
_geom_bond_site_symmetry_2
Fe0 O12 1.869391 1_555
Fe0 O8 1.965302 1_555
Fe0 O24 1.990362 1_455
Fe0 O23 2.013372 1_455
Fe0 O11 2.060211 1_555
Fe1 O9 1.869855 1_555
Fe1 O2 1.963627 1_555
Fe1 O13 1.985485 1_555
Fe1 O14 2.016101 1_555
Fe1 O0 2.063376 1_555
Fe2 O25 1.869855 1_555
Fe2 O21 1.963627 1_555
Fe2 O11 1.985485 1_555
Fe2 O10 2.016101 1_555
Fe2 O24 2.063376 1_555
Fe3 O22 1.869391 1_555
Fe3 O15 1.965302 1_555
Fe3 O0 1.990362 1_655
Fe3 O1 2.013372 1_655
Fe3 O13 2.060211 1_555
Cu0 O20 1.978832 1_455
Cu0 O10 1.995515 1_545
Cu0 O21 2.004164 1_445
Cu0 O7 2.009896 1_555
Cu0 O9 2.191396 1_556
Cu1 O16 1.982896 1_555
Cu1 O1 2.002361 1_555
Cu1 O15 2.004638 1_555
Cu1 O3 2.015725 1_555
Cu1 O12 2.177399 1_554
Cu2 O7 1.982896 1_555
Cu2 O23 2.002361 1_555
Cu2 O8 2.004638 1_555
Cu2 O20 2.015725 1_555
Cu2 O22 2.177399 1_556
Cu3 O3 1.978832 1_655
Cu3 O14 1.995515 1_565
Cu3 O2 2.004164 1_665
Cu3 O16 2.009896 1_555
Cu3 O25 2.191396 1_554
O0 Y6 2.363638 1_455
O0 Y2 2.426324 1_555
O0 Sr2 2.987946 1_454
O0 Sr0 2.995519 1_554
O1 Y7 2.441409 1_455
O1 Y2 2.483991 1_555
O1 Sr3 2.778838 1_455
O1 Sr0 2.953203 1_554
O2 Y6 2.320559 1_455
O2 Y4 2.341384 1_555
O3 Y4 2.399914 1_565
O3 Y7 2.445999 1_455
O3 Sr1 2.728153 1_555
O3 Sr3 2.793272 1_455
O4 Y4 2.277874 1_555
O4 Y0 2.281304 1_555
O4 Y3 2.306092 1_545
O4 Y7 2.308835 1_445
O5 Y6 2.281711 1_455
O5 Y5 2.286353 1_555
O5 Y2 2.318526 1_555
O5 Y1 2.321968 1_555
O6 Y1 2.294343 1_555
O6 Y2 2.299191 1_555
O6 Y7 2.328242 1_455
O6 Y3 2.328342 1_555
O7 Y0 2.402424 1_555
O7 Y3 2.445193 1_545
O7 Sr0 2.723639 1_555
O7 Sr2 2.801593 1_555
O8 Y5 2.315962 1_555
O8 Y0 2.344987 1_555
O9 Sr1 2.665797 1_545
O9 Sr2 2.706556 1_454
O9 Sr0 2.796208 1_554
O9 Sr2 2.819205 1_554
O10 Y3 2.455508 1_555
O10 Y1 2.485081 1_555
O10 Sr2 2.787063 1_565
O10 Sr1 2.914571 1_556
O11 Y5 2.363180 1_555
O11 Y1 2.420166 1_555
O11 Sr3 2.998595 1_556
O11 Sr1 3.006806 1_556
O12 Sr0 2.684017 1_555
O12 Sr3 2.706829 1_556
O12 Sr1 2.802176 1_556
O12 Sr3 2.821176 1_456
O13 Y2 2.363180 1_555
O13 Y6 2.420166 1_555
O13 Sr0 2.998595 1_554
O13 Sr2 3.006806 1_554
O14 Y4 2.455508 1_555
O14 Y6 2.485081 1_555
O14 Sr1 2.787063 1_545
O14 Sr2 2.914571 1_554
O15 Y2 2.315962 1_555
O15 Y7 2.344987 1_555
O16 Y7 2.402424 1_555
O16 Y4 2.445193 1_565
O16 Sr3 2.723639 1_555
O16 Sr1 2.801593 1_555
O17 Y6 2.294343 1_555
O17 Y5 2.299191 1_555
O17 Y0 2.328242 1_655
O17 Y4 2.328342 1_555
O18 Y1 2.281711 1_655
O18 Y2 2.286353 1_555
O18 Y5 2.318526 1_555
O18 Y6 2.321968 1_555
O19 Y3 2.277874 1_555
O19 Y7 2.281304 1_555
O19 Y4 2.306092 1_565
O19 Y0 2.308835 1_665
O20 Y3 2.399914 1_545
O20 Y0 2.445999 1_655
O20 Sr2 2.728153 1_555
O20 Sr0 2.793272 1_655
O21 Y1 2.320559 1_655
O21 Y3 2.341384 1_555
O22 Sr3 2.684017 1_555
O22 Sr0 2.706829 1_554
O22 Sr2 2.802176 1_554
O22 Sr0 2.821176 1_654
O23 Y0 2.441409 1_655
O23 Y5 2.483991 1_555
O23 Sr0 2.778838 1_655
O23 Sr3 2.953203 1_556
O24 Y1 2.363638 1_655
O24 Y5 2.426324 1_555
O24 Sr1 2.987946 1_656
O24 Sr3 2.995519 1_556
O25 Sr2 2.665797 1_565
O25 Sr1 2.706556 1_656
O25 Sr3 2.796208 1_556
O25 Sr1 2.819205 1_556
