# generated using pymatgen
data_CsBaMg6
_symmetry_space_group_name_H-M   'P 1'
_cell_length_a   5.16432000
_cell_length_b   7.20097200
_cell_length_c   14.85226000
_cell_angle_alpha   90.00000000
_cell_angle_beta   90.00000000
_cell_angle_gamma   90.00000000
_symmetry_Int_Tables_number   1
_chemical_formula_structural   CsBaMg6
_chemical_formula_sum   'Cs2 Ba2 Mg12'
_cell_volume   552.32768239
_cell_formula_units_Z   2
loop_
 _symmetry_equiv_pos_site_id
 _symmetry_equiv_pos_as_xyz
  1  'x, y, z'
loop_
 _atom_site_type_symbol
 _atom_site_label
 _atom_site_symmetry_multiplicity
 _atom_site_fract_x
 _atom_site_fract_y
 _atom_site_fract_z
 _atom_site_occupancy
  Cs  Cs0  1  0.50000000  0.00000000  0.18203200  1
  Cs  Cs1  1  0.50000000  0.50000000  0.68203200  1
  Ba  Ba0  1  0.50000000  0.50000000  0.17135700  1
  Ba  Ba1  1  0.50000000  0.00000000  0.67135700  1
  Mg  Mg0  1  0.50000000  0.25944200  0.42195500  1
  Mg  Mg1  1  0.50000000  0.74055800  0.42195500  1
  Mg  Mg2  1  0.00000000  0.73888700  0.03607000  1
  Mg  Mg3  1  0.00000000  0.26111300  0.03607000  1
  Mg  Mg4  1  0.00000000  0.00000000  0.36820900  1
  Mg  Mg5  1  0.00000000  0.50000000  0.36234800  1
  Mg  Mg6  1  0.50000000  0.75944200  0.92195500  1
  Mg  Mg7  1  0.50000000  0.24055800  0.92195500  1
  Mg  Mg8  1  0.00000000  0.23888700  0.53607000  1
  Mg  Mg9  1  0.00000000  0.76111300  0.53607000  1
  Mg  Mg10  1  0.00000000  0.50000000  0.86820900  1
  Mg  Mg11  1  0.00000000  0.00000000  0.86234800  1
loop_
_geom_bond_atom_site_label_1
_geom_bond_atom_site_label_2
_geom_bond_distance
_geom_bond_site_symmetry_2
Cs0 Mg4 3.783332 1_655
Cs0 Mg4 3.783332 1_555
Cs0 Mg3 3.860388 1_655
Cs0 Mg2 3.860388 1_645
Cs0 Mg2 3.860388 1_545
Cs0 Mg3 3.860388 1_555
Cs0 Mg1 4.023445 1_545
Cs0 Mg0 4.023445 1_555
Cs0 Mg7 4.233366 1_554
Cs0 Mg6 4.233366 1_544
Cs1 Mg10 3.783332 1_655
Cs1 Mg10 3.783332 1_555
Cs1 Mg8 3.860388 1_655
Cs1 Mg8 3.860388 1_555
Cs1 Mg9 3.860388 1_655
Cs1 Mg9 3.860388 1_555
Cs1 Mg6 4.023445 1_555
Cs1 Mg7 4.023445 1_555
Cs1 Mg1 4.233366 1_555
Cs1 Mg0 4.233366 1_555
Ba0 Cs0 3.603975 1_565
Ba0 Cs0 3.603975 1_555
Ba0 Mg2 3.696493 1_555
Ba0 Mg2 3.696493 1_655
Ba0 Mg3 3.696493 1_555
Ba0 Mg3 3.696493 1_655
Ba0 Mg5 3.835899 1_655
Ba0 Mg5 3.835899 1_555
Ba0 Mg0 4.105311 1_555
Ba0 Mg1 4.105311 1_555
Ba0 Mg6 4.148647 1_554
Ba0 Mg7 4.148647 1_554
Ba1 Cs1 3.603975 1_555
Ba1 Cs1 3.603975 1_545
Ba1 Mg8 3.696493 1_555
Ba1 Mg8 3.696493 1_655
Ba1 Mg9 3.696493 1_645
Ba1 Mg9 3.696493 1_545
Ba1 Mg11 3.835899 1_555
Ba1 Mg11 3.835899 1_655
Ba1 Mg7 4.105311 1_555
Ba1 Mg6 4.105311 1_545
Ba1 Mg1 4.148647 1_545
Ba1 Mg0 4.148647 1_555
Mg0 Mg8 3.092253 1_655
Mg0 Mg8 3.092253 1_555
Mg0 Mg5 3.232955 1_655
Mg0 Mg5 3.232955 1_555
Mg0 Mg4 3.285583 1_655
Mg0 Mg4 3.285583 1_555
Mg0 Mg1 3.464503 1_555
Mg1 Mg9 3.092253 1_555
Mg1 Mg9 3.092253 1_655
Mg1 Mg5 3.232955 1_555
Mg1 Mg5 3.232955 1_655
Mg1 Mg4 3.285583 1_565
Mg1 Mg4 3.285583 1_665
Mg2 Mg6 3.092253 1_454
Mg2 Mg6 3.092253 1_554
Mg2 Mg3 3.440437 1_555
Mg3 Mg7 3.092253 1_554
Mg3 Mg7 3.092253 1_454
Mg4 Mg9 3.028989 1_545
Mg4 Mg8 3.028989 1_555
Mg5 Mg8 3.192594 1_555
Mg5 Mg9 3.192594 1_555
Mg6 Mg7 3.464503 1_565
Mg8 Mg9 3.440437 1_545
Mg10 Mg2 3.028989 1_556
Mg10 Mg3 3.028989 1_556
Mg10 Mg6 3.285583 1_455
Mg10 Mg6 3.285583 1_555
Mg10 Mg7 3.285583 1_455
Mg10 Mg7 3.285583 1_555
Mg11 Mg3 3.192594 1_556
Mg11 Mg2 3.192594 1_546
Mg11 Mg7 3.232955 1_555
Mg11 Mg7 3.232955 1_455
Mg11 Mg6 3.232955 1_445
Mg11 Mg6 3.232955 1_545
