# generated using pymatgen
data_Be3As2H10(NO5)2
_symmetry_space_group_name_H-M   'P 1'
_cell_length_a   8.68857600
_cell_length_b   10.04560800
_cell_length_c   13.72344946
_cell_angle_alpha   54.30839154
_cell_angle_beta   90.00000000
_cell_angle_gamma   90.00000000
_symmetry_Int_Tables_number   1
_chemical_formula_structural   Be3As2H10(NO5)2
_chemical_formula_sum   'Be12 As8 H40 N8 O40'
_cell_volume   972.82454280
_cell_formula_units_Z   4
loop_
 _symmetry_equiv_pos_site_id
 _symmetry_equiv_pos_as_xyz
  1  'x, y, z'
loop_
 _atom_site_type_symbol
 _atom_site_label
 _atom_site_symmetry_multiplicity
 _atom_site_fract_x
 _atom_site_fract_y
 _atom_site_fract_z
 _atom_site_occupancy
  Be  Be0  1  0.57001600  0.76857800  0.33327500  1
  Be  Be1  1  0.92998400  0.76857800  0.83327500  1
  Be  Be2  1  0.42998400  0.23142200  0.66672500  1
  Be  Be3  1  0.07001600  0.23142200  0.16672500  1
  Be  Be4  1  0.56609000  0.72227700  0.68677300  1
  Be  Be5  1  0.93391000  0.72227700  0.18677300  1
  Be  Be6  1  0.43391000  0.27772300  0.31322700  1
  Be  Be7  1  0.06609000  0.27772300  0.81322700  1
  Be  Be8  1  0.76896200  0.76608800  0.50489400  1
  Be  Be9  1  0.73103800  0.76608800  0.00489400  1
  Be  Be10  1  0.23103800  0.23391200  0.49510600  1
  Be  Be11  1  0.26896200  0.23391200  0.99510600  1
  As  As0  1  0.63307200  0.55178000  0.25848900  1
  As  As1  1  0.86692800  0.55178000  0.75848900  1
  As  As2  1  0.36692800  0.44822000  0.74151100  1
  As  As3  1  0.13307200  0.44822000  0.24151100  1
  As  As4  1  0.36100300  0.04996600  0.24888100  1
  As  As5  1  0.13899700  0.04996600  0.74888100  1
  As  As6  1  0.63899700  0.95003400  0.75111900  1
  As  As7  1  0.86100300  0.95003400  0.25111900  1
  H  H0  1  0.74551100  0.20742300  0.91231600  1
  H  H1  1  0.75448900  0.20742300  0.41231600  1
  H  H2  1  0.25448900  0.79257700  0.08768400  1
  H  H3  1  0.24551100  0.79257700  0.58768400  1
  H  H4  1  0.10303600  0.61264900  0.52597200  1
  H  H5  1  0.39696400  0.61264900  0.02597200  1
  H  H6  1  0.89696400  0.38735100  0.47402800  1
  H  H7  1  0.60303600  0.38735100  0.97402800  1
  H  H8  1  0.08217300  0.68794500  0.37753300  1
  H  H9  1  0.41782700  0.68794500  0.87753300  1
  H  H10  1  0.91782700  0.31205500  0.62246700  1
  H  H11  1  0.58217300  0.31205500  0.12246700  1
  H  H12  1  0.55260200  0.20693200  0.93474000  1
  H  H13  1  0.94739800  0.20693200  0.43474000  1
  H  H14  1  0.44739800  0.79306800  0.06526000  1
  H  H15  1  0.05260200  0.79306800  0.56526000  1
  H  H16  1  0.63268800  0.06907500  0.91399500  1
  H  H17  1  0.86731200  0.06907500  0.41399500  1
  H  H18  1  0.36731200  0.93092500  0.08600500  1
  H  H19  1  0.13268800  0.93092500  0.58600500  1
  H  H20  1  0.66327000  0.04813900  0.04387500  1
  H  H21  1  0.83673000  0.04813900  0.54387500  1
  H  H22  1  0.33673000  0.95186100  0.95612500  1
  H  H23  1  0.16327000  0.95186100  0.45612500  1
  H  H24  1  0.19658600  0.51765500  0.47690500  1
  H  H25  1  0.30341400  0.51765500  0.97690500  1
  H  H26  1  0.80341400  0.48234500  0.52309500  1
  H  H27  1  0.69658600  0.48234500  0.02309500  1
  H  H28  1  0.57164700  0.89640500  0.49287500  1
  H  H29  1  0.92835300  0.89640500  0.99287500  1
  H  H30  1  0.42835300  0.10359500  0.50712500  1
  H  H31  1  0.07164700  0.10359500  0.00712500  1
  H  H32  1  0.25186300  0.71015400  0.42444100  1
  H  H33  1  0.24813700  0.71015400  0.92444100  1
  H  H34  1  0.74813700  0.28984600  0.57555900  1
  H  H35  1  0.75186300  0.28984600  0.07555900  1
  H  H36  1  0.59843600  0.59172200  0.52636000  1
  H  H37  1  0.90156400  0.59172200  0.02636000  1
  H  H38  1  0.40156400  0.40827800  0.47364000  1
  H  H39  1  0.09843600  0.40827800  0.97364000  1
  N  N0  1  0.64823000  0.13276900  0.95209400  1
  N  N1  1  0.85177000  0.13276900  0.45209400  1
  N  N2  1  0.35177000  0.86723100  0.04790600  1
  N  N3  1  0.14823000  0.86723100  0.54790600  1
  N  N4  1  0.15672100  0.63096500  0.45201900  1
  N  N5  1  0.34327900  0.63096500  0.95201900  1
  N  N6  1  0.84327900  0.36903500  0.54798100  1
  N  N7  1  0.65672100  0.36903500  0.04798100  1
  O  O0  1  0.64981300  0.83991700  0.55486500  1
  O  O1  1  0.85018700  0.83991700  0.05486500  1
  O  O2  1  0.35018700  0.16008300  0.44513500  1
  O  O3  1  0.14981300  0.16008300  0.94513500  1
  O  O4  1  0.66851200  0.66996300  0.46174200  1
  O  O5  1  0.83148800  0.66996300  0.96174200  1
  O  O6  1  0.33148800  0.33003700  0.53825800  1
  O  O7  1  0.16851200  0.33003700  0.03825800  1
  O  O8  1  0.87001600  0.90951400  0.39120600  1
  O  O9  1  0.62998400  0.90951400  0.89120600  1
  O  O10  1  0.12998400  0.09048600  0.60879400  1
  O  O11  1  0.37001600  0.09048600  0.10879400  1
  O  O12  1  0.41059500  0.84745600  0.35191300  1
  O  O13  1  0.08940500  0.84745600  0.85191300  1
  O  O14  1  0.58940500  0.15254400  0.64808700  1
  O  O15  1  0.91059500  0.15254400  0.14808700  1
  O  O16  1  0.89888300  0.65144600  0.60624400  1
  O  O17  1  0.60111700  0.65144600  0.10624400  1
  O  O18  1  0.10111700  0.34855400  0.39375600  1
  O  O19  1  0.39888300  0.34855400  0.89375600  1
  O  O20  1  0.48755300  0.17310700  0.25969400  1
  O  O21  1  0.01244700  0.17310700  0.75969400  1
  O  O22  1  0.51244700  0.82689300  0.74030600  1
  O  O23  1  0.98755300  0.82689300  0.24030600  1
  O  O24  1  0.51202200  0.63093000  0.31224600  1
  O  O25  1  0.98797800  0.63093000  0.81224600  1
  O  O26  1  0.48797800  0.36907000  0.68775400  1
  O  O27  1  0.01202200  0.36907000  0.18775400  1
  O  O28  1  0.59665700  0.34653600  0.33119900  1
  O  O29  1  0.90334300  0.34653600  0.83119900  1
  O  O30  1  0.40334300  0.65346400  0.66880100  1
  O  O31  1  0.09665700  0.65346400  0.16880100  1
  O  O32  1  0.67653600  0.91755900  0.22280500  1
  O  O33  1  0.82346400  0.91755900  0.72280500  1
  O  O34  1  0.32346400  0.08244100  0.77719500  1
  O  O35  1  0.17653600  0.08244100  0.27719500  1
  O  O36  1  0.82272400  0.56980900  0.28298000  1
  O  O37  1  0.67727600  0.56980900  0.78298000  1
  O  O38  1  0.17727600  0.43019100  0.71702000  1
  O  O39  1  0.32272400  0.43019100  0.21702000  1
loop_
_geom_bond_atom_site_label_1
_geom_bond_atom_site_label_2
_geom_bond_distance
_geom_bond_site_symmetry_2
Be0 O24 1.647675 1_555
Be0 O32 1.657493 1_555
Be0 O4 1.668546 1_555
Be0 O12 1.687717 1_555
Be1 O25 1.647675 1_555
Be1 O33 1.657493 1_555
Be1 O5 1.668546 1_555
Be1 O13 1.687717 1_655
Be2 O26 1.647675 1_555
Be2 O34 1.657493 1_555
Be2 O6 1.668546 1_555
Be2 O14 1.687717 1_555
Be3 O27 1.647675 1_555
Be3 O35 1.657493 1_555
Be3 O7 1.668546 1_555
Be3 O15 1.687717 1_455
Be4 O37 1.631786 1_555
Be4 O0 1.645137 1_555
Be4 O30 1.654427 1_555
Be4 O22 1.662017 1_555
Be5 O36 1.631786 1_555
Be5 O1 1.645137 1_555
Be5 O31 1.654427 1_655
Be5 O23 1.662017 1_555
Be6 O39 1.631786 1_555
Be6 O2 1.645137 1_555
Be6 O28 1.654427 1_555
Be6 O20 1.662017 1_555
Be7 O38 1.631786 1_555
Be7 O3 1.645137 1_555
Be7 O29 1.654427 1_455
Be7 O21 1.662017 1_555
Be8 O8 1.630349 1_555
Be8 O16 1.632797 1_555
Be8 O0 1.638756 1_555
Be8 O4 1.646851 1_555
Be9 O9 1.630349 1_554
Be9 O17 1.632797 1_555
Be9 O1 1.638756 1_555
Be9 O5 1.646851 1_554
Be10 O10 1.630349 1_555
Be10 O18 1.632797 1_555
Be10 O2 1.638756 1_555
Be10 O6 1.646851 1_555
Be11 O11 1.630349 1_556
Be11 O19 1.632797 1_555
Be11 O3 1.638756 1_555
Be11 O7 1.646851 1_556
As0 O36 1.712325 1_555
As0 O28 1.716453 1_555
As0 O24 1.722520 1_555
As0 O17 1.733184 1_555
As1 O37 1.712325 1_555
As1 O29 1.716453 1_555
As1 O25 1.722520 1_555
As1 O16 1.733184 1_555
As2 O38 1.712325 1_555
As2 O30 1.716453 1_555
As2 O26 1.722520 1_555
As2 O19 1.733184 1_555
As3 O39 1.712325 1_555
As3 O31 1.716453 1_555
As3 O27 1.722520 1_555
As3 O18 1.733184 1_555
As4 O11 1.718905 1_555
As4 O12 1.722519 1_545
As4 O35 1.724572 1_555
As4 O20 1.724944 1_555
As5 O10 1.718905 1_555
As5 O13 1.722519 1_545
As5 O34 1.724572 1_555
As5 O21 1.724944 1_555
As6 O9 1.718905 1_555
As6 O14 1.722519 1_565
As6 O33 1.724572 1_555
As6 O22 1.724944 1_555
As7 O8 1.718905 1_555
As7 O15 1.722519 1_565
As7 O32 1.724572 1_555
As7 O23 1.724944 1_555
H0 N0 1.047445 1_555
H1 N1 1.047445 1_555
H2 N2 1.047445 1_555
H3 N3 1.047445 1_555
H4 N4 1.031280 1_555
H5 N5 1.031280 1_554
H6 N6 1.031280 1_555
H7 N7 1.031280 1_556
H8 N4 1.053256 1_555
H9 N5 1.053256 1_555
H10 N6 1.053256 1_555
H11 N7 1.053256 1_555
H12 N0 1.046459 1_555
H13 N1 1.046459 1_555
H14 N2 1.046459 1_555
H15 N3 1.046459 1_555
H16 N0 1.044686 1_555
H17 N1 1.044686 1_555
H18 N2 1.044686 1_555
H19 N3 1.044686 1_555
H20 N0 1.037708 1_554
H21 N1 1.037708 1_555
H22 N2 1.037708 1_556
H23 N3 1.037708 1_555
H24 N4 1.038586 1_555
H25 N5 1.038586 1_555
H26 N6 1.038586 1_555
H27 N7 1.038586 1_555
H28 O0 0.971434 1_555
H29 O1 0.971434 1_556
H30 O2 0.971434 1_555
H31 O3 0.971434 1_554
H32 N4 1.052666 1_555
H33 N5 1.052666 1_555
H34 N6 1.052666 1_555
H35 N7 1.052666 1_555
H36 O4 0.980599 1_555
H37 O5 0.980599 1_554
H38 O6 0.980599 1_555
H39 O7 0.980599 1_556
