# generated using pymatgen
data_SmCo4Cu
_symmetry_space_group_name_H-M   'P 1'
_cell_length_a   4.97755828
_cell_length_b   4.97755828
_cell_length_c   3.97218000
_cell_angle_alpha   90.00000000
_cell_angle_beta   90.00000000
_cell_angle_gamma   120.00000372
_symmetry_Int_Tables_number   1
_chemical_formula_structural   SmCo4Cu
_chemical_formula_sum   'Sm1 Co4 Cu1'
_cell_volume   85.22995187
_cell_formula_units_Z   1
loop_
 _symmetry_equiv_pos_site_id
 _symmetry_equiv_pos_as_xyz
  1  'x, y, z'
loop_
 _atom_site_type_symbol
 _atom_site_label
 _atom_site_symmetry_multiplicity
 _atom_site_fract_x
 _atom_site_fract_y
 _atom_site_fract_z
 _atom_site_occupancy
  Sm  Sm0  1  0.66666700  0.33333300  0.00000000  1
  Co  Co0  1  0.33333300  0.66666700  0.00000000  1
  Co  Co1  1  0.66442700  0.83221300  0.50000000  1
  Co  Co2  1  0.16778700  0.83221300  0.50000000  1
  Co  Co3  1  0.16778700  0.33557300  0.50000000  1
  Cu  Cu0  1  0.00000000  0.00000000  0.00000000  1
loop_
_geom_bond_atom_site_label_1
_geom_bond_atom_site_label_2
_geom_bond_distance
_geom_bond_site_symmetry_2
Co0 Co2 2.445722 1_554
Co0 Co2 2.445722 1_555
Co0 Co3 2.445727 1_555
Co0 Co3 2.445727 1_554
Co0 Co1 2.445727 1_554
Co0 Co1 2.445727 1_555
Co0 Sm0 2.873792 1_455
Co0 Sm0 2.873792 1_565
Co0 Cu0 2.873792 1_565
Co0 Cu0 2.873796 1_665
Co0 Cu0 2.873796 1_555
Co0 Sm0 2.873800 1_555
Co1 Cu0 2.457044 1_666
Co1 Cu0 2.457044 1_665
Co1 Co3 2.472054 1_555
Co1 Co2 2.472055 1_555
Co1 Co3 2.505504 1_665
Co1 Co2 2.505504 1_655
Co1 Sm0 3.184128 1_566
Co1 Sm0 3.184128 1_565
Co1 Sm0 3.184128 1_556
Co1 Sm0 3.184128 1_555
Co2 Cu0 2.457047 1_565
Co2 Cu0 2.457047 1_566
Co2 Co3 2.472055 1_555
Co2 Co3 2.505504 1_565
Co2 Sm0 3.184127 1_565
Co2 Sm0 3.184127 1_456
Co2 Sm0 3.184127 1_566
Co2 Sm0 3.184127 1_455
Co3 Cu0 2.457044 1_556
Co3 Cu0 2.457044 1_555
Co3 Sm0 3.184128 1_456
Co3 Sm0 3.184128 1_455
Co3 Sm0 3.184128 1_556
Co3 Sm0 3.184128 1_555
Cu0 Sm0 2.873792 1_455
Cu0 Sm0 2.873796 1_555
Cu0 Sm0 2.873796 1_445
