# generated using pymatgen
data_Li9Mn2Co5O16
_symmetry_space_group_name_H-M   'P 1'
_cell_length_a   5.18769400
_cell_length_b   5.94581359
_cell_length_c   10.25830036
_cell_angle_alpha   103.79850923
_cell_angle_beta   95.23623557
_cell_angle_gamma   109.89798771
_symmetry_Int_Tables_number   1
_chemical_formula_structural   Li9Mn2Co5O16
_chemical_formula_sum   'Li9 Mn2 Co5 O16'
_cell_volume   283.74284699
_cell_formula_units_Z   1
loop_
 _symmetry_equiv_pos_site_id
 _symmetry_equiv_pos_as_xyz
  1  'x, y, z'
loop_
 _atom_site_type_symbol
 _atom_site_label
 _atom_site_symmetry_multiplicity
 _atom_site_fract_x
 _atom_site_fract_y
 _atom_site_fract_z
 _atom_site_occupancy
  Li  Li0  1  0.37360100  0.81152600  0.12801200  1
  Li  Li1  1  0.12142100  0.93456400  0.37944700  1
  Li  Li2  1  0.89040100  0.05780000  0.62181300  1
  Li  Li3  1  0.62387200  0.18332700  0.86644200  1
  Li  Li4  1  0.36821700  0.31411000  0.13128300  1
  Li  Li5  1  0.11919100  0.43581600  0.37694000  1
  Li  Li6  1  0.88021500  0.57087900  0.62745300  1
  Li  Li7  1  0.63406500  0.69042400  0.86589200  1
  Li  Li8  1  0.24884400  0.87792600  0.74559100  1
  Mn  Mn0  1  0.00693800  0.99575400  0.99803500  1
  Mn  Mn1  1  0.00841100  0.49928900  0.99722600  1
  Co  Co0  1  0.75119800  0.12102100  0.25319800  1
  Co  Co1  1  0.49167000  0.25114000  0.50089000  1
  Co  Co2  1  0.25235200  0.37652100  0.74849300  1
  Co  Co3  1  0.74690800  0.62352200  0.25111300  1
  Co  Co4  1  0.48833300  0.75571800  0.50484200  1
  O  O0  1  0.69635300  0.67160700  0.06721800  1
  O  O1  1  0.45650200  0.79614900  0.32007400  1
  O  O2  1  0.20690100  0.93134800  0.55817000  1
  O  O3  1  0.94921100  0.04949300  0.81986700  1
  O  O4  1  0.73083900  0.14940200  0.06491500  1
  O  O5  1  0.45948400  0.29578600  0.31446500  1
  O  O6  1  0.19342800  0.42807600  0.57236300  1
  O  O7  1  0.97435200  0.51199100  0.81551100  1
  O  O8  1  0.05077800  0.95176200  0.18171300  1
  O  O9  1  0.79559100  0.07848300  0.43318800  1
  O  O10  1  0.51786500  0.24384300  0.68242800  1
  O  O11  1  0.31326400  0.32325000  0.92999500  1
  O  O12  1  0.04622400  0.44885000  0.18450200  1
  O  O13  1  0.78897700  0.57648300  0.43058800  1
  O  O14  1  0.54279600  0.70035100  0.68288500  1
  O  O15  1  0.27179800  0.84379200  0.94544700  1
loop_
_geom_bond_atom_site_label_1
_geom_bond_atom_site_label_2
_geom_bond_distance
_geom_bond_site_symmetry_2
Li0 O15 1.970520 1_554
Li0 O1 2.008272 1_555
Li0 O8 2.168678 1_555
Li0 O0 2.185341 1_555
Li0 Mn1 2.188507 1_554
Li0 O12 2.480534 1_555
Li0 O4 2.488833 1_565
Li1 O2 1.852685 1_555
Li1 O8 2.061066 1_555
Li1 O9 2.196117 1_465
Li1 O1 2.235597 1_555
Li1 O13 2.445623 1_455
Li1 O5 2.542698 1_565
Li2 O9 1.995526 1_555
Li2 O3 2.041642 1_555
Li2 O2 2.118772 1_645
Li2 O6 2.428582 1_655
Li2 O14 2.528608 1_545
Li2 O10 2.586822 1_555
Li3 O10 2.065044 1_555
Li3 O11 2.135211 1_555
Li3 O4 2.135362 1_556
Li3 O3 2.142440 1_555
Li3 Mn1 2.250996 1_655
Li3 O7 2.374750 1_555
Li4 O5 1.933280 1_555
Li4 O11 2.074742 1_554
Li4 O12 2.144492 1_555
Li4 Mn0 2.201677 1_544
Li4 O8 2.427611 1_545
Li4 O4 2.476115 1_555
Li4 O0 2.501083 1_555
Li5 O12 2.000716 1_555
Li5 O6 2.021000 1_555
Li5 O13 2.205611 1_455
Li5 O5 2.274382 1_555
Li5 O9 2.449273 1_455
Li5 O1 2.494608 1_555
Li6 O13 2.042519 1_555
Li6 O7 2.085514 1_555
Li6 O6 2.135011 1_655
Li6 O14 2.206822 1_555
Li7 O14 1.913560 1_555
Li7 O0 2.096489 1_556
Li7 Mn0 2.198221 1_655
Li7 O7 2.385120 1_555
Li7 O3 2.387388 1_565
Li7 O15 2.474055 1_555
Li7 O11 2.525791 1_555
Li8 O2 2.026502 1_555
Li8 O15 2.104517 1_555
Li8 O14 2.192032 1_555
Li8 O3 2.227578 1_465
Li8 O7 2.469432 1_455
Mn0 O15 1.934724 1_555
Mn0 O3 1.943211 1_465
Mn0 O8 1.966677 1_556
Mn0 O4 2.031724 1_466
Mn0 O11 2.355554 1_565
Mn0 O0 2.358318 1_456
Mn1 O7 1.878261 1_455
Mn1 O12 2.016251 1_556
Mn1 O11 2.248071 1_555
Mn1 O15 2.256366 1_555
Mn1 O0 2.275137 1_456
Mn1 O4 2.390818 1_456
Co0 O9 1.926387 1_555
Co0 O4 1.974982 1_555
Co0 O5 2.167349 1_555
Co0 Li5 2.179716 1_655
Co0 Li0 2.198296 1_545
Co0 O8 2.210541 1_645
Co0 O1 2.313540 1_545
Co0 O12 2.336638 1_655
Co1 O10 1.866753 1_555
Co1 O5 1.992407 1_555
Co1 Li1 2.183571 1_545
Co1 O2 2.218656 1_545
Co1 O9 2.232388 1_555
Co1 O6 2.232754 1_555
Co1 Li6 2.258152 1_555
Co1 O13 2.340627 1_555
Co2 O10 1.906267 1_555
Co2 O6 1.918093 1_555
Co2 O7 1.977084 1_455
Co2 O11 1.977096 1_555
Co2 Li2 2.182539 1_455
Co2 Li7 2.198143 1_555
Co2 O14 2.293246 1_555
Co2 O3 2.365981 1_455
Co3 O13 1.931158 1_555
Co3 O0 1.981724 1_555
Co3 O1 2.173557 1_555
Co3 Li4 2.185246 1_555
Co3 Li1 2.203192 1_655
Co3 O12 2.215730 1_655
Co3 O5 2.290426 1_555
Co3 O8 2.360977 1_655
Co4 O14 1.944207 1_555
Co4 O1 1.965926 1_555
Co4 O2 2.105320 1_555
Co4 Li5 2.208649 1_555
Co4 Li2 2.231914 1_565
Co4 O13 2.260408 1_555
Co4 O6 2.328895 1_555
Co4 O9 2.359763 1_565
O12 O4 1.990159 1_455
