# generated using pymatgen
data_WO3
_symmetry_space_group_name_H-M   'P 1'
_cell_length_a   12.09075275
_cell_length_b   11.53019631
_cell_length_c   12.57701309
_cell_angle_alpha   83.67375996
_cell_angle_beta   91.09693366
_cell_angle_gamma   87.58129874
_symmetry_Int_Tables_number   1
_chemical_formula_structural   WO3
_chemical_formula_sum   'W25 O75'
_cell_volume   1740.61645338
_cell_formula_units_Z   25
loop_
 _symmetry_equiv_pos_site_id
 _symmetry_equiv_pos_as_xyz
  1  'x, y, z'
loop_
 _atom_site_type_symbol
 _atom_site_label
 _atom_site_symmetry_multiplicity
 _atom_site_fract_x
 _atom_site_fract_y
 _atom_site_fract_z
 _atom_site_occupancy
  W  W0  1  0.00586496  0.94851446  0.93481340  1
  W  W1  1  0.27525670  0.09364560  0.15354176  1
  W  W2  1  0.15254929  0.74938720  0.37262252  1
  W  W3  1  0.87465799  0.34258674  0.25025822  1
  W  W4  1  0.82260758  0.66647102  0.63483505  1
  W  W5  1  0.23934025  0.46874456  0.26956308  1
  W  W6  1  0.63676169  0.15169213  0.83611206  1
  W  W7  1  0.19043427  0.07161491  0.72484661  1
  W  W8  1  0.12842892  0.47436285  0.98207004  1
  W  W9  1  0.57155151  0.85683764  0.55475474  1
  W  W10  1  0.40991574  0.94385682  0.79264347  1
  W  W11  1  0.86782214  0.22882860  0.51991492  1
  W  W12  1  0.08470547  0.51519141  0.69268275  1
  W  W13  1  0.80309621  0.38820536  0.72566349  1
  W  W14  1  0.43262374  0.60412818  0.45273704  1
  W  W15  1  0.58763812  0.09601944  0.13760978  1
  W  W16  1  0.86065506  0.65156882  0.34105370  1
  W  W17  1  0.77315960  0.82280950  0.08380131  1
  W  W18  1  0.41871648  0.51922319  0.87993741  1
  W  W19  1  0.50619435  0.37911788  0.17317190  1
  W  W20  1  0.50889265  0.75784291  0.00956367  1
  W  W21  1  0.03588984  0.20394228  0.11303895  1
  W  W22  1  0.57994962  0.32838733  0.47914438  1
  W  W23  1  0.45519016  0.11789075  0.40537298  1
  W  W24  1  0.99533579  0.93110353  0.53219201  1
  O  O0  1  0.36272345  0.52596826  0.34369504  1
  O  O1  1  0.78926020  0.40214595  0.14393005  1
  O  O2  1  0.35149903  0.09612023  0.28806765  1
  O  O3  1  0.58513669  0.15613998  0.48560455  1
  O  O4  1  0.84745843  0.39722128  0.85584897  1
  O  O5  1  0.51987851  0.08325257  0.77819447  1
  O  O6  1  0.87070045  0.61754323  0.49160440  1
  O  O7  1  0.80694206  0.25245647  0.36914791  1
  O  O8  1  0.55953994  0.49391951  0.43573125  1
  O  O9  1  0.84681929  0.70635241  0.17560565  1
  O  O10  1  0.39726595  0.54198961  0.57629327  1
  O  O11  1  0.18888025  0.35950051  0.35689019  1
  O  O12  1  0.19306619  0.21857096  0.68113765  1
  O  O13  1  0.08253958  0.05813516  0.82895273  1
  O  O14  1  0.11089040  0.82132624  0.49827413  1
  O  O15  1  0.52771567  0.62786525  0.93271098  1
  O  O16  1  0.92919494  0.49595108  0.66399843  1
  O  O17  1  0.56301515  0.50575368  0.20788208  1
  O  O18  1  0.16279208  0.46808213  0.58896896  1
  O  O19  1  0.61548789  0.76226410  0.11647972  1
  O  O20  1  0.67931305  0.94571053  0.51713394  1
  O  O21  1  0.51255692  0.90654842  0.93073082  1
  O  O22  1  0.35331044  0.37750747  0.20183250  1
  O  O23  1  0.12360950  0.44071347  0.83058680  1
  O  O24  1  0.51519151  0.88082319  0.68819734  1
  O  O25  1  0.61861107  0.15901204  0.97872887  1
  O  O26  1  0.04434647  0.59973361  0.96653393  1
  O  O27  1  0.87358952  0.48990894  0.31636683  1
  O  O28  1  0.21636046  0.21949627  0.06347435  1
  O  O29  1  0.03373282  0.34596428  0.01462151  1
  O  O30  1  0.02416874  0.33388513  0.22066629  1
  O  O31  1  0.09548633  0.66684937  0.68465840  1
  O  O32  1  0.97529224  0.98880006  0.39928538  1
  O  O33  1  0.89452136  0.91440936  0.04837489  1
  O  O34  1  0.26808922  0.96535111  0.09513393  1
  O  O35  1  0.38963465  0.73894868  0.08257033  1
  O  O36  1  0.30450343  0.05203142  0.84374496  1
  O  O37  1  0.15876828  0.60574139  0.30624121  1
  O  O38  1  0.93824712  0.88669146  0.83226299  1
  O  O39  1  0.88199210  0.07165176  0.55708759  1
  O  O40  1  0.56739604  0.05762226  0.27893292  1
  O  O41  1  0.35268520  0.17216891  0.48289097  1
  O  O42  1  0.89465189  0.81706534  0.57572767  1
  O  O43  1  0.68358332  0.74108211  0.62147988  1
  O  O44  1  0.49231903  0.32788831  0.58514961  1
  O  O45  1  0.75299874  0.05963562  0.82871745  1
  O  O46  1  0.52260311  0.73262803  0.47270978  1
  O  O47  1  0.86614095  0.68037649  0.76419731  1
  O  O48  1  0.11253004  0.84861197  0.97972257  1
  O  O49  1  0.16542006  0.48054554  0.13218417  1
  O  O50  1  0.47003394  0.39779090  0.82056467  1
  O  O51  1  0.67647427  0.29436400  0.76028160  1
  O  O52  1  0.35454120  0.81227950  0.84698532  1
  O  O53  1  0.28110816  0.50220618  0.95286305  1
  O  O54  1  0.99476430  0.28026931  0.48038899  1
  O  O55  1  0.68755210  0.97051477  0.11529820  1
  O  O56  1  0.12507149  0.10171097  0.21366382  1
  O  O57  1  0.29860707  0.71047625  0.42761345  1
  O  O58  1  0.88685588  0.26648644  0.66803789  1
  O  O59  1  0.09410046  0.00848577  0.61816608  1
  O  O60  1  0.01007164  0.10455851  0.01429533  1
  O  O61  1  0.37016935  0.61323304  0.76880410  1
  O  O62  1  0.72702228  0.52701616  0.66968269  1
  O  O63  1  0.48163964  0.41430213  0.03178458  1
  O  O64  1  0.50485361  0.29138963  0.34081397  1
  O  O65  1  0.98855361  0.73993702  0.34249923  1
  O  O66  1  0.31413649  0.98295433  0.66646984  1
  O  O67  1  0.73058648  0.72327735  0.34429020  1
  O  O68  1  0.75502951  0.77203117  0.95974182  1
  O  O69  1  0.72709924  0.33047142  0.53855447  1
  O  O70  1  0.44063519  0.10253446  0.09860615  1
  O  O71  1  0.61734678  0.25111702  0.15943673  1
  O  O72  1  0.46318176  0.96006102  0.47048692  1
  O  O73  1  0.17992020  0.86193606  0.27658120  1
  O  O74  1  0.89417949  0.19198035  0.17114917  1
loop_
_geom_bond_atom_site_label_1
_geom_bond_atom_site_label_2
_geom_bond_distance
_geom_bond_site_symmetry_2
O0 W5 1.922363 1_555
O0 W14 1.923412 1_555
O1 W3 1.735208 1_555
O2 W1 1.914775 1_555
O2 W23 1.961836 1_555
O3 W23 1.943477 1_555
O3 W22 1.977029 1_555
O4 W13 1.728581 1_555
O5 W6 1.825339 1_555
O5 W10 2.123490 1_545
O6 W16 1.891399 1_555
O6 W4 2.034171 1_555
O7 W3 1.939690 1_555
O7 W11 2.006838 1_555
O8 W22 1.930614 1_555
O8 W14 1.980682 1_555
O9 W17 1.856713 1_555
O9 W16 2.108312 1_555
O10 W14 1.707873 1_555
O11 W5 1.717777 1_555
O12 W7 1.724603 1_555
O13 W7 1.864939 1_555
O13 W0 2.001236 1_545
O14 W2 1.929568 1_555
O14 W24 1.930975 1_455
O15 W20 1.879080 1_556
O15 W18 2.008881 1_555
O16 W12 1.934306 1_655
O16 W13 2.112386 1_555
O16 W4 2.295672 1_555
O17 W19 1.734419 1_555
O18 W12 1.745828 1_555
O19 W20 1.850978 1_555
O19 W17 2.090360 1_555
O20 W9 1.732331 1_555
O21 W20 1.886349 1_556
O21 W10 2.109300 1_555
O22 W19 1.890528 1_555
O22 W5 1.962456 1_555
O23 W12 1.890330 1_555
O23 W8 1.986026 1_555
O24 W9 1.867547 1_555
O24 W10 2.017509 1_555
O25 W6 1.821947 1_555
O25 W15 2.095836 1_556
O26 W8 1.722620 1_555
O27 W16 1.923549 1_555
O27 W3 1.971474 1_555
O28 W1 1.848125 1_555
O28 W21 2.289643 1_555
O29 W8 1.922946 1_554
O29 W21 1.939801 1_555
O30 W3 1.853384 1_455
O30 W21 2.129220 1_555
O31 W12 1.750940 1_555
O32 W24 1.738174 1_555
O33 W17 1.875971 1_555
O33 W0 2.000358 1_654
O34 W1 1.727198 1_565
O35 W20 1.732863 1_555
O36 W10 1.914941 1_545
O36 W7 2.002410 1_555
O37 W5 1.924802 1_555
O37 W2 1.934558 1_555
O38 W0 1.746847 1_655
O39 W11 1.821069 1_555
O39 W24 2.131443 1_545
O40 W15 1.807628 1_555
O40 W23 2.258058 1_555
O41 W23 1.730165 1_555
O42 W24 1.874196 1_555
O42 W4 2.048025 1_555
O43 W4 1.851767 1_555
O43 W9 1.969134 1_555
O44 W22 1.718437 1_555
O45 W6 1.735300 1_555
O46 W14 1.910365 1_555
O46 W9 1.959580 1_555
O47 W4 1.726752 1_555
O48 W0 1.735643 1_555
O49 W5 1.918711 1_555
O49 W8 1.941554 1_554
O50 W18 1.754366 1_555
O51 W6 1.893335 1_555
O51 W13 1.940528 1_555
O52 W10 1.758336 1_555
O53 W18 1.922041 1_555
O53 W8 1.922430 1_555
O54 W11 1.730804 1_555
O55 W15 1.893962 1_565
O55 W17 2.035759 1_555
O56 W21 1.914544 1_555
O56 W1 1.982815 1_555
O57 W2 1.901627 1_555
O57 W14 1.989051 1_555
O58 W13 1.911236 1_555
O58 W11 1.970365 1_555
O59 W24 1.909019 1_445
O59 W7 1.978291 1_555
O60 W21 1.811588 1_555
O60 W0 2.154347 1_544
O61 W18 1.747604 1_555
O62 W13 1.872430 1_555
O62 W4 2.033258 1_555
O63 W19 1.795957 1_555
O63 W18 2.246580 1_554
O64 W22 2.041813 1_555
O64 W23 2.187199 1_555
O64 W19 2.236433 1_555
O65 W16 1.888335 1_555
O65 W2 2.021286 1_655
O66 W10 1.946900 1_555
O66 W7 1.974710 1_565
O67 W16 1.748872 1_555
O68 W17 1.739089 1_556
O69 W22 1.918574 1_555
O69 W11 2.056912 1_555
O70 W15 1.831004 1_555
O70 W1 2.130885 1_555
O71 W15 1.887075 1_555
O71 W19 1.977833 1_555
O72 W23 1.909291 1_565
O72 W9 1.947775 1_555
O73 W2 1.720095 1_555
O74 W21 1.880035 1_655
O74 W3 2.101502 1_555
