# generated using pymatgen
data_Sn2PH32C11N3Cl2O
_symmetry_space_group_name_H-M   'P 1'
_cell_length_a   13.19930012
_cell_length_b   13.41059125
_cell_length_c   15.43576292
_cell_angle_alpha   90.00000000
_cell_angle_beta   90.00000000
_cell_angle_gamma   90.00000000
_symmetry_Int_Tables_number   1
_chemical_formula_structural   Sn2PH32C11N3Cl2O
_chemical_formula_sum   'Sn8 P4 H128 C44 N12 Cl8 O4'
_cell_volume   2732.29085735
_cell_formula_units_Z   4
loop_
 _symmetry_equiv_pos_site_id
 _symmetry_equiv_pos_as_xyz
  1  'x, y, z'
loop_
 _atom_site_type_symbol
 _atom_site_label
 _atom_site_symmetry_multiplicity
 _atom_site_fract_x
 _atom_site_fract_y
 _atom_site_fract_z
 _atom_site_occupancy
  Sn  Sn0  1  0.75000000  0.28840600  0.57923192  1
  Sn  Sn1  1  0.75000000  0.78840600  0.92076808  1
  Sn  Sn2  1  0.25000000  0.71159400  0.42076808  1
  Sn  Sn3  1  0.25000000  0.21159400  0.07923192  1
  Sn  Sn4  1  0.75000000  0.55861593  0.54893825  1
  Sn  Sn5  1  0.75000000  0.05861593  0.95106175  1
  Sn  Sn6  1  0.25000000  0.44138407  0.45106175  1
  Sn  Sn7  1  0.25000000  0.94138407  0.04893825  1
  P  P0  1  0.75000000  0.07609570  0.40719786  1
  P  P1  1  0.75000000  0.57609570  0.09280214  1
  P  P2  1  0.25000000  0.92390430  0.59280214  1
  P  P3  1  0.25000000  0.42390430  0.90719786  1
  H  H0  1  0.94206414  0.28016967  0.64070022  1
  H  H1  1  0.55793586  0.78016967  0.85929978  1
  H  H2  1  0.44206414  0.71983033  0.35929978  1
  H  H3  1  0.05793586  0.21983033  0.14070022  1
  H  H4  1  0.05793586  0.71983033  0.35929978  1
  H  H5  1  0.44206414  0.21983033  0.14070022  1
  H  H6  1  0.55793586  0.28016967  0.64070022  1
  H  H7  1  0.94206414  0.78016967  0.85929978  1
  H  H8  1  0.87654095  0.16825396  0.66948149  1
  H  H9  1  0.62345905  0.66825396  0.83051851  1
  H  H10  1  0.37654095  0.83174604  0.33051851  1
  H  H11  1  0.12345905  0.33174604  0.16948149  1
  H  H12  1  0.12345905  0.83174604  0.33051851  1
  H  H13  1  0.37654095  0.33174604  0.16948149  1
  H  H14  1  0.62345905  0.16825396  0.66948149  1
  H  H15  1  0.87654095  0.66825396  0.83051851  1
  H  H16  1  0.92500043  0.18286090  0.56174392  1
  H  H17  1  0.57499957  0.68286090  0.93825608  1
  H  H18  1  0.42500043  0.81713910  0.43825608  1
  H  H19  1  0.07499957  0.31713910  0.06174392  1
  H  H20  1  0.07499957  0.81713910  0.43825608  1
  H  H21  1  0.42500043  0.31713910  0.06174392  1
  H  H22  1  0.57499957  0.18286090  0.56174392  1
  H  H23  1  0.92500043  0.68286090  0.93825608  1
  H  H24  1  0.93737316  0.55129943  0.62201360  1
  H  H25  1  0.56262684  0.05129943  0.87798640  1
  H  H26  1  0.43737316  0.44870057  0.37798640  1
  H  H27  1  0.06262684  0.94870057  0.12201360  1
  H  H28  1  0.06262684  0.44870057  0.37798640  1
  H  H29  1  0.43737316  0.94870057  0.12201360  1
  H  H30  1  0.56262684  0.55129943  0.62201360  1
  H  H31  1  0.93737316  0.05129943  0.87798640  1
  H  H32  1  0.92785889  0.65863275  0.55226868  1
  H  H33  1  0.57214111  0.15863275  0.94773132  1
  H  H34  1  0.42785889  0.34136725  0.44773132  1
  H  H35  1  0.07214111  0.84136725  0.05226868  1
  H  H36  1  0.07214111  0.34136725  0.44773132  1
  H  H37  1  0.42785889  0.84136725  0.05226868  1
  H  H38  1  0.57214111  0.65863275  0.55226868  1
  H  H39  1  0.92785889  0.15863275  0.94773132  1
  H  H40  1  0.87270784  0.66117964  0.65837092  1
  H  H41  1  0.62729216  0.16117964  0.84162908  1
  H  H42  1  0.37270784  0.33882036  0.34162908  1
  H  H43  1  0.12729216  0.83882036  0.15837092  1
  H  H44  1  0.12729216  0.33882036  0.34162908  1
  H  H45  1  0.37270784  0.83882036  0.15837092  1
  H  H46  1  0.62729216  0.66117964  0.65837092  1
  H  H47  1  0.87270784  0.16117964  0.84162908  1
  H  H48  1  0.68247570  0.40719872  0.44942539  1
  H  H49  1  0.81752430  0.90719872  0.05057461  1
  H  H50  1  0.18247570  0.59280128  0.55057461  1
  H  H51  1  0.31752430  0.09280128  0.94942539  1
  H  H52  1  0.31752430  0.59280128  0.55057461  1
  H  H53  1  0.18247570  0.09280128  0.94942539  1
  H  H54  1  0.81752430  0.40719872  0.44942539  1
  H  H55  1  0.68247570  0.90719872  0.05057461  1
  H  H56  1  0.96335089  0.96743179  0.29623054  1
  H  H57  1  0.53664911  0.46743179  0.20376946  1
  H  H58  1  0.46335089  0.03256821  0.70376946  1
  H  H59  1  0.03664911  0.53256821  0.79623054  1
  H  H60  1  0.03664911  0.03256821  0.70376946  1
  H  H61  1  0.46335089  0.53256821  0.79623054  1
  H  H62  1  0.53664911  0.96743179  0.29623054  1
  H  H63  1  0.96335089  0.46743179  0.20376946  1
  H  H64  1  0.84572448  0.90999286  0.32330893  1
  H  H65  1  0.65427552  0.40999286  0.17669107  1
  H  H66  1  0.34572448  0.09000714  0.67669107  1
  H  H67  1  0.15427552  0.59000714  0.82330893  1
  H  H68  1  0.15427552  0.09000714  0.67669107  1
  H  H69  1  0.34572448  0.59000714  0.82330893  1
  H  H70  1  0.65427552  0.90999286  0.32330893  1
  H  H71  1  0.84572448  0.40999286  0.17669107  1
  H  H72  1  0.85549994  0.98784345  0.22926268  1
  H  H73  1  0.64450006  0.48784345  0.27073732  1
  H  H74  1  0.35549994  0.01215655  0.77073732  1
  H  H75  1  0.14450006  0.51215655  0.72926268  1
  H  H76  1  0.14450006  0.01215655  0.77073732  1
  H  H77  1  0.35549994  0.51215655  0.72926268  1
  H  H78  1  0.64450006  0.98784345  0.22926268  1
  H  H79  1  0.85549994  0.48784345  0.27073732  1
  H  H80  1  0.99288097  0.13734775  0.32047955  1
  H  H81  1  0.50711903  0.63734775  0.17952045  1
  H  H82  1  0.49288097  0.86265225  0.67952045  1
  H  H83  1  0.00711903  0.36265225  0.82047955  1
  H  H84  1  0.00711903  0.86265225  0.67952045  1
  H  H85  1  0.49288097  0.36265225  0.82047955  1
  H  H86  1  0.50711903  0.13734775  0.32047955  1
  H  H87  1  0.99288097  0.63734775  0.17952045  1
  H  H88  1  0.88865638  0.17383386  0.25364769  1
  H  H89  1  0.61134362  0.67383386  0.24635231  1
  H  H90  1  0.38865638  0.82616614  0.74635231  1
  H  H91  1  0.11134362  0.32616614  0.75364769  1
  H  H92  1  0.11134362  0.82616614  0.74635231  1
  H  H93  1  0.38865638  0.32616614  0.75364769  1
  H  H94  1  0.61134362  0.17383386  0.25364769  1
  H  H95  1  0.88865638  0.67383386  0.24635231  1
  H  H96  1  0.89535629  0.21594440  0.36370203  1
  H  H97  1  0.60464371  0.71594440  0.13629797  1
  H  H98  1  0.39535629  0.78405560  0.63629797  1
  H  H99  1  0.10464371  0.28405560  0.86370203  1
  H  H100  1  0.10464371  0.78405560  0.63629797  1
  H  H101  1  0.39535629  0.28405560  0.86370203  1
  H  H102  1  0.60464371  0.21594440  0.36370203  1
  H  H103  1  0.89535629  0.71594440  0.13629797  1
  H  H104  1  0.84634626  0.85640405  0.50305949  1
  H  H105  1  0.65365374  0.35640405  0.99694051  1
  H  H106  1  0.34634626  0.14359595  0.49694051  1
  H  H107  1  0.15365374  0.64359595  0.00305949  1
  H  H108  1  0.15365374  0.14359595  0.49694051  1
  H  H109  1  0.34634626  0.64359595  0.00305949  1
  H  H110  1  0.65365374  0.85640405  0.50305949  1
  H  H111  1  0.84634626  0.35640405  0.99694051  1
  H  H112  1  0.90931311  0.97259911  0.48372058  1
  H  H113  1  0.59068689  0.47259911  0.01627942  1
  H  H114  1  0.40931311  0.02740089  0.51627942  1
  H  H115  1  0.09068689  0.52740089  0.98372058  1
  H  H116  1  0.09068689  0.02740089  0.51627942  1
  H  H117  1  0.40931311  0.52740089  0.98372058  1
  H  H118  1  0.59068689  0.97259911  0.48372058  1
  H  H119  1  0.90931311  0.47259911  0.01627942  1
  H  H120  1  0.83786495  0.95423051  0.58104603  1
  H  H121  1  0.66213505  0.45423051  0.91895397  1
  H  H122  1  0.33786495  0.04576949  0.41895397  1
  H  H123  1  0.16213505  0.54576949  0.08104603  1
  H  H124  1  0.16213505  0.04576949  0.41895397  1
  H  H125  1  0.33786495  0.54576949  0.08104603  1
  H  H126  1  0.66213505  0.95423051  0.58104603  1
  H  H127  1  0.83786495  0.45423051  0.91895397  1
  C  C0  1  0.75000000  0.41236406  0.49066949  1
  C  C1  1  0.75000000  0.91236406  0.00933051  1
  C  C2  1  0.25000000  0.58763594  0.50933051  1
  C  C3  1  0.25000000  0.08763594  0.99066949  1
  C  C4  1  0.91094634  0.15355522  0.32037276  1
  C  C5  1  0.58905366  0.65355522  0.17962724  1
  C  C6  1  0.41094634  0.84644478  0.67962724  1
  C  C7  1  0.08905366  0.34644478  0.82037276  1
  C  C8  1  0.08905366  0.84644478  0.67962724  1
  C  C9  1  0.41094634  0.34644478  0.82037276  1
  C  C10  1  0.58905366  0.15355522  0.32037276  1
  C  C11  1  0.91094634  0.65355522  0.17962724  1
  C  C12  1  0.84144909  0.93781712  0.51108700  1
  C  C13  1  0.65855091  0.43781712  0.98891300  1
  C  C14  1  0.34144909  0.06218288  0.48891300  1
  C  C15  1  0.15855091  0.56218288  0.01108700  1
  C  C16  1  0.15855091  0.06218288  0.48891300  1
  C  C17  1  0.34144909  0.56218288  0.01108700  1
  C  C18  1  0.65855091  0.93781712  0.51108700  1
  C  C19  1  0.84144909  0.43781712  0.98891300  1
  C  C20  1  0.88050188  0.97768819  0.29698473  1
  C  C21  1  0.61949812  0.47768819  0.20301527  1
  C  C22  1  0.38050188  0.02231181  0.70301527  1
  C  C23  1  0.11949812  0.52231181  0.79698473  1
  C  C24  1  0.11949812  0.02231181  0.70301527  1
  C  C25  1  0.38050188  0.52231181  0.79698473  1
  C  C26  1  0.61949812  0.97768819  0.29698473  1
  C  C27  1  0.88050188  0.47768819  0.20301527  1
  C  C28  1  0.89126921  0.22156673  0.61708660  1
  C  C29  1  0.60873079  0.72156673  0.88291340  1
  C  C30  1  0.39126921  0.77843327  0.38291340  1
  C  C31  1  0.10873079  0.27843327  0.11708660  1
  C  C32  1  0.10873079  0.77843327  0.38291340  1
  C  C33  1  0.39126921  0.27843327  0.11708660  1
  C  C34  1  0.60873079  0.22156673  0.61708660  1
  C  C35  1  0.89126921  0.72156673  0.88291340  1
  C  C36  1  0.88979692  0.61415202  0.60215800  1
  C  C37  1  0.61020308  0.11415202  0.89784200  1
  C  C38  1  0.38979692  0.38584798  0.39784200  1
  C  C39  1  0.11020308  0.88584798  0.10215800  1
  C  C40  1  0.11020308  0.38584798  0.39784200  1
  C  C41  1  0.38979692  0.88584798  0.10215800  1
  C  C42  1  0.61020308  0.61415202  0.60215800  1
  C  C43  1  0.88979692  0.11415202  0.89784200  1
  N  N0  1  0.85696688  0.06481115  0.35024942  1
  N  N1  1  0.64303312  0.56481115  0.14975058  1
  N  N2  1  0.35696688  0.93518885  0.64975058  1
  N  N3  1  0.14303312  0.43518885  0.85024942  1
  N  N4  1  0.14303312  0.93518885  0.64975058  1
  N  N5  1  0.35696688  0.43518885  0.85024942  1
  N  N6  1  0.64303312  0.06481115  0.35024942  1
  N  N7  1  0.85696688  0.56481115  0.14975058  1
  N  N8  1  0.75000000  0.97447277  0.46787095  1
  N  N9  1  0.75000000  0.47447277  0.03212905  1
  N  N10  1  0.25000000  0.02552723  0.53212905  1
  N  N11  1  0.25000000  0.52552723  0.96787095  1
  Cl  Cl0  1  0.75000000  0.41227638  0.70787807  1
  Cl  Cl1  1  0.75000000  0.91227638  0.79212193  1
  Cl  Cl2  1  0.25000000  0.58772362  0.29212193  1
  Cl  Cl3  1  0.25000000  0.08772362  0.20787807  1
  Cl  Cl4  1  0.75000000  0.66031015  0.41492347  1
  Cl  Cl5  1  0.75000000  0.16031015  0.08507653  1
  Cl  Cl6  1  0.25000000  0.33968985  0.58507653  1
  Cl  Cl7  1  0.25000000  0.83968985  0.91492347  1
  O  O0  1  0.75000000  0.17719637  0.45108291  1
  O  O1  1  0.75000000  0.67719637  0.04891709  1
  O  O2  1  0.25000000  0.82280363  0.54891709  1
  O  O3  1  0.25000000  0.32280363  0.95108291  1
loop_
_geom_bond_atom_site_label_1
_geom_bond_atom_site_label_2
_geom_bond_distance
_geom_bond_site_symmetry_2
C0 H48 1.097483 1_555
C0 H54 1.097483 1_555
C0 Sn0 2.152249 1_555
C0 Sn4 2.157719 1_555
C1 H49 1.097483 1_555
C1 H55 1.097483 1_555
C1 Sn1 2.152249 1_554
C1 Sn5 2.157719 1_564
C2 H52 1.097483 1_555
C2 H50 1.097483 1_555
C2 Sn2 2.152249 1_555
C2 Sn6 2.157719 1_555
C3 H51 1.097483 1_555
C3 H53 1.097483 1_555
C3 Sn3 2.152249 1_556
C3 Sn7 2.157719 1_546
C4 H96 1.090730 1_555
C4 H80 1.103106 1_555
C4 H88 1.105133 1_555
C4 N0 1.461740 1_555
C5 H97 1.090730 1_555
C5 H81 1.103106 1_555
C5 H89 1.105133 1_555
C5 N1 1.461740 1_555
C6 H98 1.090730 1_555
C6 H82 1.103106 1_555
C6 H90 1.105133 1_555
C6 N2 1.461740 1_555
C7 H99 1.090730 1_555
C7 H83 1.103106 1_555
C7 H91 1.105133 1_555
C7 N3 1.461740 1_555
C8 H100 1.090730 1_555
C8 H84 1.103106 1_555
C8 H92 1.105133 1_555
C8 N4 1.461740 1_555
C9 H101 1.090730 1_555
C9 H85 1.103106 1_555
C9 H93 1.105133 1_555
C9 N5 1.461740 1_555
C10 H102 1.090730 1_555
C10 H86 1.103106 1_555
C10 H94 1.105133 1_555
C10 N6 1.461740 1_555
C11 H103 1.090730 1_555
C11 H87 1.103106 1_555
C11 H95 1.105133 1_555
C11 N7 1.461740 1_555
C12 H112 1.094712 1_555
C12 H104 1.100706 1_555
C12 H120 1.103091 1_555
C12 N8 1.464116 1_555
C13 H113 1.094712 1_556
C13 H105 1.100706 1_555
C13 H121 1.103091 1_555
C13 N9 1.464116 1_556
C14 H114 1.094712 1_555
C14 H106 1.100706 1_555
C14 H122 1.103091 1_555
C14 N10 1.464116 1_555
C15 H115 1.094712 1_554
C15 H107 1.100706 1_555
C15 H123 1.103091 1_555
C15 N11 1.464116 1_554
C16 H116 1.094712 1_555
C16 H108 1.100706 1_555
C16 H124 1.103091 1_555
C16 N10 1.464116 1_555
C17 H117 1.094712 1_554
C17 H109 1.100706 1_555
C17 H125 1.103091 1_555
C17 N11 1.464116 1_554
C18 H118 1.094712 1_555
C18 H110 1.100706 1_555
C18 H126 1.103091 1_555
C18 N8 1.464116 1_555
C19 H119 1.094712 1_556
C19 H111 1.100706 1_555
C19 H127 1.103091 1_555
C19 N9 1.464116 1_556
C20 H64 1.095439 1_555
C20 H56 1.102227 1_555
C20 H72 1.104623 1_555
C20 N0 1.462044 1_565
C21 H65 1.095439 1_555
C21 H57 1.102227 1_555
C21 H73 1.104623 1_555
C21 N1 1.462044 1_555
C22 H66 1.095439 1_555
C22 H58 1.102227 1_555
C22 H74 1.104623 1_555
C22 N2 1.462044 1_545
C23 H67 1.095439 1_555
C23 H59 1.102227 1_555
C23 H75 1.104623 1_555
C23 N3 1.462044 1_555
C24 H68 1.095439 1_555
C24 H60 1.102227 1_555
C24 H76 1.104623 1_555
C24 N4 1.462044 1_545
C25 H69 1.095439 1_555
C25 H61 1.102227 1_555
C25 H77 1.104623 1_555
C25 N5 1.462044 1_555
C26 H70 1.095439 1_555
C26 H62 1.102227 1_555
C26 H78 1.104623 1_555
C26 N6 1.462044 1_565
C27 H71 1.095439 1_555
C27 H63 1.102227 1_555
C27 H79 1.104623 1_555
C27 N7 1.462044 1_555
C28 H16 1.094264 1_555
C28 H0 1.095449 1_555
C28 H8 1.096831 1_555
C28 Sn0 2.149840 1_555
C29 H17 1.094264 1_555
C29 H1 1.095449 1_555
C29 H9 1.096831 1_555
C29 Sn1 2.149840 1_555
C30 H18 1.094264 1_555
C30 H2 1.095449 1_555
C30 H10 1.096831 1_555
C30 Sn2 2.149840 1_555
C31 H19 1.094264 1_555
C31 H3 1.095449 1_555
C31 H11 1.096831 1_555
C31 Sn3 2.149840 1_555
C32 H20 1.094264 1_555
C32 H4 1.095449 1_555
C32 H12 1.096831 1_555
C32 Sn2 2.149840 1_555
C33 H21 1.094264 1_555
C33 H5 1.095449 1_555
C33 H13 1.096831 1_555
C33 Sn3 2.149840 1_555
C34 H22 1.094264 1_555
C34 H6 1.095449 1_555
C34 H14 1.096831 1_555
C34 Sn0 2.149840 1_555
C35 H23 1.094264 1_555
C35 H7 1.095449 1_555
C35 H15 1.096831 1_555
C35 Sn1 2.149840 1_555
C36 H24 1.094874 1_555
C36 H32 1.096014 1_555
C36 H40 1.096132 1_555
C36 Sn4 2.152758 1_555
C37 H25 1.094874 1_555
C37 H33 1.096014 1_555
C37 H41 1.096132 1_555
C37 Sn5 2.152758 1_555
C38 H26 1.094874 1_555
C38 H34 1.096014 1_555
C38 H42 1.096132 1_555
C38 Sn6 2.152758 1_555
C39 H27 1.094874 1_555
C39 H35 1.096014 1_555
C39 H43 1.096132 1_555
C39 Sn7 2.152758 1_555
C40 H28 1.094874 1_555
C40 H36 1.096014 1_555
C40 H44 1.096132 1_555
C40 Sn6 2.152758 1_555
C41 H29 1.094874 1_555
C41 H37 1.096014 1_555
C41 H45 1.096132 1_555
C41 Sn7 2.152758 1_555
C42 H30 1.094874 1_555
C42 H38 1.096014 1_555
C42 H46 1.096132 1_555
C42 Sn4 2.152758 1_555
C43 H31 1.094874 1_555
C43 H39 1.096014 1_555
C43 H47 1.096132 1_555
C43 Sn5 2.152758 1_555
N0 P0 1.670043 1_555
N1 P1 1.670043 1_555
N2 P2 1.670043 1_555
N3 P3 1.670043 1_555
N4 P2 1.670043 1_555
N5 P3 1.670043 1_555
N6 P0 1.670043 1_555
N7 P1 1.670043 1_555
N8 P0 1.653598 1_565
N9 P1 1.653598 1_555
N10 P2 1.653598 1_545
N11 P3 1.653598 1_555
Cl0 Sn0 2.588960 1_555
Cl1 Sn1 2.588960 1_555
Cl2 Sn2 2.588960 1_555
Cl3 Sn3 2.588960 1_555
Cl4 Sn4 2.477718 1_555
Cl5 Sn5 2.477718 1_554
Cl6 Sn6 2.477718 1_555
Cl7 Sn7 2.477718 1_556
O0 P0 1.515624 1_555
O0 Sn0 2.477302 1_555
O1 P1 1.515624 1_555
O1 Sn1 2.477302 1_554
O2 P2 1.515624 1_555
O2 Sn2 2.477302 1_555
O3 P3 1.515624 1_555
O3 Sn3 2.477302 1_556
