# generated using pymatgen
data_Ca2TaN3
_symmetry_space_group_name_H-M   'P 1'
_cell_length_a   6.27010993
_cell_length_b   6.27010993
_cell_length_c   11.67645637
_cell_angle_alpha   90.00000000
_cell_angle_beta   90.00000000
_cell_angle_gamma   124.79545682
_symmetry_Int_Tables_number   1
_chemical_formula_structural   Ca2TaN3
_chemical_formula_sum   'Ca8 Ta4 N12'
_cell_volume   376.97051470
_cell_formula_units_Z   4
loop_
 _symmetry_equiv_pos_site_id
 _symmetry_equiv_pos_as_xyz
  1  'x, y, z'
loop_
 _atom_site_type_symbol
 _atom_site_label
 _atom_site_symmetry_multiplicity
 _atom_site_fract_x
 _atom_site_fract_y
 _atom_site_fract_z
 _atom_site_occupancy
  Ca  Ca0  1  0.53676385  0.46323615  0.64667684  1
  Ca  Ca1  1  0.46323615  0.53676385  0.35332316  1
  Ca  Ca2  1  0.96323615  0.03676385  0.14667684  1
  Ca  Ca3  1  0.03676385  0.96323615  0.85332316  1
  Ca  Ca4  1  0.87248386  0.12751614  0.57903582  1
  Ca  Ca5  1  0.12751614  0.87248386  0.42096418  1
  Ca  Ca6  1  0.62751614  0.37248386  0.07903582  1
  Ca  Ca7  1  0.37248386  0.62751614  0.92096418  1
  Ta  Ta0  1  0.75231036  0.24768964  0.84129583  1
  Ta  Ta1  1  0.24768964  0.75231036  0.15870417  1
  Ta  Ta2  1  0.74768964  0.25231036  0.34129583  1
  Ta  Ta3  1  0.25231036  0.74768964  0.65870417  1
  N  N0  1  0.84197927  0.15802073  0.97951962  1
  N  N1  1  0.15802073  0.84197927  0.02048038  1
  N  N2  1  0.65802073  0.34197927  0.47951962  1
  N  N3  1  0.34197927  0.65802073  0.52048038  1
  N  N4  1  0.57944508  0.42055492  0.86276560  1
  N  N5  1  0.42055492  0.57944508  0.13723440  1
  N  N6  1  0.92055492  0.07944508  0.36276560  1
  N  N7  1  0.07944508  0.92055492  0.63723440  1
  N  N8  1  0.57027972  0.92972028  0.75000000  1
  N  N9  1  0.92972028  0.57027972  0.25000000  1
  N  N10  1  0.42972028  0.07027972  0.25000000  1
  N  N11  1  0.07027972  0.42972028  0.75000000  1
loop_
_geom_bond_atom_site_label_1
_geom_bond_atom_site_label_2
_geom_bond_distance
_geom_bond_site_symmetry_2
Ca0 N2 2.371783 1_555
Ca0 N4 2.567346 1_555
Ca0 N3 2.618572 1_555
Ca0 N7 2.945667 1_655
Ca0 N7 2.945667 1_545
Ca0 N8 3.058308 1_555
Ca0 N11 3.058308 1_555
Ca1 N3 2.371783 1_555
Ca1 N5 2.567346 1_555
Ca1 N2 2.618572 1_555
Ca1 N6 2.945667 1_455
Ca1 N6 2.945667 1_565
Ca1 N9 3.058308 1_555
Ca1 N10 3.058308 1_555
Ca2 N0 2.371783 1_554
Ca2 N6 2.567346 1_555
Ca2 N1 2.618572 1_645
Ca2 N5 2.945667 1_545
Ca2 N5 2.945667 1_655
Ca2 N10 3.058308 1_655
Ca2 N9 3.058308 1_545
Ca3 N1 2.371783 1_556
Ca3 N7 2.567346 1_555
Ca3 N0 2.618572 1_465
Ca3 N4 2.945667 1_565
Ca3 N4 2.945667 1_455
Ca3 N8 3.058308 1_455
Ca3 N11 3.058308 1_565
Ca4 N7 2.398243 1_645
Ca4 N8 2.536052 1_545
Ca4 N11 2.536052 1_655
Ca4 N6 2.581157 1_555
Ca4 N2 2.651499 1_555
Ca4 N3 3.003700 1_655
Ca4 N3 3.003700 1_545
Ca5 N6 2.398243 1_465
Ca5 N9 2.536052 1_455
Ca5 N10 2.536052 1_565
Ca5 N7 2.581157 1_555
Ca5 N3 2.651499 1_555
Ca5 N2 3.003700 1_565
Ca5 N2 3.003700 1_455
Ca6 N5 2.398243 1_555
Ca6 N10 2.536052 1_555
Ca6 N9 2.536052 1_555
Ca6 N4 2.581157 1_554
Ca6 N0 2.651499 1_554
Ca6 N1 3.003700 1_655
Ca6 N1 3.003700 1_545
Ca7 N4 2.398243 1_555
Ca7 N8 2.536052 1_555
Ca7 N11 2.536052 1_555
Ca7 N5 2.581157 1_556
Ca7 N1 2.651499 1_556
Ca7 N0 3.003700 1_455
Ca7 N0 3.003700 1_565
N0 Ta0 1.896804 1_555
N1 Ta1 1.896804 1_555
N2 Ta2 1.896804 1_555
N3 Ta3 1.896804 1_555
N4 Ta0 1.937333 1_555
N5 Ta1 1.937333 1_555
N6 Ta2 1.937333 1_555
N7 Ta3 1.937333 1_555
N8 Ta0 1.953683 1_565
N8 Ta3 1.953683 1_555
N9 Ta1 1.953683 1_655
N9 Ta2 1.953683 1_555
N10 Ta1 1.953683 1_545
N10 Ta2 1.953683 1_555
N11 Ta0 1.953683 1_455
N11 Ta3 1.953683 1_555
