# generated using pymatgen
data_Co3Ni
_symmetry_space_group_name_H-M   'P 1'
_cell_length_a   4.93397214
_cell_length_b   4.93397214
_cell_length_c   16.12735268
_cell_angle_alpha   90.00000000
_cell_angle_beta   90.00000000
_cell_angle_gamma   120.00001213
_symmetry_Int_Tables_number   1
_chemical_formula_structural   Co3Ni
_chemical_formula_sum   'Co24 Ni8'
_cell_volume   340.00636609
_cell_formula_units_Z   8
loop_
 _symmetry_equiv_pos_site_id
 _symmetry_equiv_pos_as_xyz
  1  'x, y, z'
loop_
 _atom_site_type_symbol
 _atom_site_label
 _atom_site_symmetry_multiplicity
 _atom_site_fract_x
 _atom_site_fract_y
 _atom_site_fract_z
 _atom_site_occupancy
  Co  Co0_0  1  0.16666650  0.33333350  0.24998834  1
  Co  Co0_1  1  0.16666650  0.33333350  0.74998835  1
  Co  Co0_2  1  0.16666650  0.83333350  0.24998834  1
  Co  Co0_3  1  0.16666650  0.83333350  0.74998835  1
  Co  Co0_4  1  0.66666650  0.33333350  0.24998834  1
  Co  Co0_5  1  0.66666650  0.33333350  0.74998835  1
  Co  Co0_6  1  0.66666650  0.83333350  0.24998834  1
  Co  Co0_7  1  0.66666650  0.83333350  0.74998835  1
  Co  Co1_0  1  0.00000000  0.00000000  0.12551134  1
  Co  Co1_1  1  0.00000000  0.00000000  0.62551134  1
  Co  Co1_2  1  0.00000000  0.50000000  0.12551134  1
  Co  Co1_3  1  0.00000000  0.50000000  0.62551134  1
  Co  Co1_4  1  0.50000000  0.00000000  0.12551134  1
  Co  Co1_5  1  0.50000000  0.00000000  0.62551134  1
  Co  Co1_6  1  0.50000000  0.50000000  0.12551134  1
  Co  Co1_7  1  0.50000000  0.50000000  0.62551134  1
  Co  Co2_0  1  0.00000000  0.00000000  0.37448097  1
  Co  Co2_1  1  0.00000000  0.00000000  0.87448097  1
  Co  Co2_2  1  0.00000000  0.50000000  0.37448097  1
  Co  Co2_3  1  0.00000000  0.50000000  0.87448097  1
  Co  Co2_4  1  0.50000000  0.00000000  0.37448097  1
  Co  Co2_5  1  0.50000000  0.00000000  0.87448097  1
  Co  Co2_6  1  0.50000000  0.50000000  0.37448097  1
  Co  Co2_7  1  0.50000000  0.50000000  0.87448097  1
  Ni  Ni0_0  1  0.16666650  0.33333350  0.00001985  1
  Ni  Ni0_1  1  0.16666650  0.33333350  0.50001984  1
  Ni  Ni0_2  1  0.16666650  0.83333350  0.00001985  1
  Ni  Ni0_3  1  0.16666650  0.83333350  0.50001984  1
  Ni  Ni0_4  1  0.66666650  0.33333350  0.00001985  1
  Ni  Ni0_5  1  0.66666650  0.33333350  0.50001984  1
  Ni  Ni0_6  1  0.66666650  0.83333350  0.00001985  1
  Ni  Ni0_7  1  0.66666650  0.83333350  0.50001984  1
loop_
_geom_bond_atom_site_label_1
_geom_bond_atom_site_label_2
_geom_bond_distance
_geom_bond_site_symmetry_2
Co0_0 Co1_2 2.461435 1_555
Co0_0 Co1_0 2.461436 1_555
Co0_0 Co1_6 2.461436 1_555
Co0_0 Co2_2 2.461641 1_555
Co0_0 Co2_6 2.461642 1_555
Co0_0 Co2_0 2.461642 1_555
Co0_0 Co0_6 2.466986 1_445
Co0_0 Co0_6 2.466986 1_555
Co0_0 Co0_2 2.466986 1_555
Co0_0 Co0_4 2.466986 1_455
Co0_0 Co0_4 2.466986 1_555
Co0_0 Co0_2 2.466986 1_545
Co0_1 Co1_3 2.461435 1_555
Co0_1 Co1_1 2.461436 1_555
Co0_1 Co1_7 2.461436 1_555
Co0_1 Co2_3 2.461641 1_555
Co0_1 Co2_7 2.461642 1_555
Co0_1 Co2_1 2.461642 1_555
Co0_1 Co0_7 2.466986 1_445
Co0_1 Co0_7 2.466986 1_555
Co0_1 Co0_5 2.466986 1_555
Co0_1 Co0_3 2.466986 1_555
Co0_1 Co0_5 2.466986 1_455
Co0_1 Co0_3 2.466986 1_545
Co0_2 Co1_0 2.461435 1_565
Co0_2 Co1_4 2.461436 1_565
Co0_2 Co1_2 2.461436 1_555
Co0_2 Co2_0 2.461641 1_565
Co0_2 Co2_4 2.461642 1_565
Co0_2 Co2_2 2.461642 1_555
Co0_2 Co0_4 2.466986 1_565
Co0_2 Co0_4 2.466986 1_455
Co0_2 Co0_6 2.466986 1_455
Co0_2 Co0_6 2.466986 1_555
Co0_3 Co1_1 2.461435 1_565
Co0_3 Co1_5 2.461436 1_565
Co0_3 Co1_3 2.461436 1_555
Co0_3 Co2_1 2.461641 1_565
Co0_3 Co2_5 2.461642 1_565
Co0_3 Co2_3 2.461642 1_555
Co0_3 Co0_5 2.466986 1_455
Co0_3 Co0_5 2.466986 1_565
Co0_3 Co0_7 2.466986 1_455
Co0_3 Co0_7 2.466986 1_555
Co0_4 Co1_6 2.461435 1_555
Co0_4 Co1_2 2.461436 1_655
Co0_4 Co1_4 2.461436 1_555
Co0_4 Co2_6 2.461641 1_555
Co0_4 Co2_2 2.461642 1_655
Co0_4 Co2_4 2.461642 1_555
Co0_4 Co0_6 2.466986 1_555
Co0_4 Co0_6 2.466986 1_545
Co0_5 Co1_7 2.461435 1_555
Co0_5 Co1_3 2.461436 1_655
Co0_5 Co1_5 2.461436 1_555
Co0_5 Co2_7 2.461641 1_555
Co0_5 Co2_3 2.461642 1_655
Co0_5 Co2_5 2.461642 1_555
Co0_5 Co0_7 2.466986 1_555
Co0_5 Co0_7 2.466986 1_545
Co0_6 Co1_4 2.461435 1_565
Co0_6 Co1_0 2.461436 1_665
Co0_6 Co1_6 2.461436 1_555
Co0_6 Co2_4 2.461641 1_565
Co0_6 Co2_0 2.461642 1_665
Co0_6 Co2_6 2.461642 1_555
Co0_7 Co1_5 2.461435 1_565
Co0_7 Co1_1 2.461436 1_665
Co0_7 Co1_7 2.461436 1_555
Co0_7 Co2_5 2.461641 1_565
Co0_7 Co2_1 2.461642 1_665
Co0_7 Co2_7 2.461642 1_555
Co1_0 Co1_6 2.466986 1_555
Co1_0 Co1_6 2.466986 1_445
Co1_0 Co1_4 2.466986 1_455
Co1_0 Co1_4 2.466986 1_555
Co1_0 Co1_2 2.466986 1_555
Co1_0 Co1_2 2.466986 1_545
Co1_0 Ni0_2 2.474797 1_545
Co1_0 Ni0_0 2.474798 1_555
Co1_0 Ni0_6 2.474798 1_445
Co1_1 Co1_7 2.466986 1_555
Co1_1 Co1_7 2.466986 1_445
Co1_1 Co1_3 2.466986 1_555
Co1_1 Co1_5 2.466986 1_455
Co1_1 Co1_5 2.466986 1_555
Co1_1 Co1_3 2.466986 1_545
Co1_1 Ni0_3 2.474797 1_545
Co1_1 Ni0_7 2.474798 1_445
Co1_1 Ni0_1 2.474798 1_555
Co1_2 Co1_4 2.466986 1_455
Co1_2 Co1_4 2.466986 1_565
Co1_2 Co1_6 2.466986 1_455
Co1_2 Co1_6 2.466986 1_555
Co1_2 Ni0_0 2.474797 1_555
Co1_2 Ni0_2 2.474798 1_555
Co1_2 Ni0_4 2.474798 1_455
Co1_3 Co1_5 2.466986 1_455
Co1_3 Co1_5 2.466986 1_565
Co1_3 Co1_7 2.466986 1_455
Co1_3 Co1_7 2.466986 1_555
Co1_3 Ni0_1 2.474797 1_555
Co1_3 Ni0_3 2.474798 1_555
Co1_3 Ni0_5 2.474798 1_455
Co1_4 Co1_6 2.466986 1_555
Co1_4 Co1_6 2.466986 1_545
Co1_4 Ni0_6 2.474797 1_545
Co1_4 Ni0_2 2.474798 1_545
Co1_4 Ni0_4 2.474798 1_555
Co1_5 Co1_7 2.466986 1_555
Co1_5 Co1_7 2.466986 1_545
Co1_5 Ni0_7 2.474797 1_545
Co1_5 Ni0_3 2.474798 1_545
Co1_5 Ni0_5 2.474798 1_555
Co1_6 Ni0_4 2.474797 1_555
Co1_6 Ni0_0 2.474798 1_555
Co1_6 Ni0_6 2.474798 1_555
Co1_7 Ni0_5 2.474797 1_555
Co1_7 Ni0_1 2.474798 1_555
Co1_7 Ni0_7 2.474798 1_555
Co2_0 Co2_6 2.466986 1_445
Co2_0 Co2_6 2.466986 1_555
Co2_0 Co2_2 2.466986 1_555
Co2_0 Co2_4 2.466986 1_455
Co2_0 Co2_4 2.466986 1_555
Co2_0 Co2_2 2.466986 1_545
Co2_0 Ni0_3 2.475422 1_545
Co2_0 Ni0_7 2.475423 1_445
Co2_0 Ni0_1 2.475423 1_555
Co2_1 Co2_7 2.466986 1_555
Co2_1 Co2_7 2.466986 1_445
Co2_1 Co2_5 2.466986 1_555
Co2_1 Co2_3 2.466986 1_555
Co2_1 Co2_5 2.466986 1_455
Co2_1 Co2_3 2.466986 1_545
Co2_1 Ni0_2 2.475422 1_546
Co2_1 Ni0_6 2.475423 1_446
Co2_1 Ni0_0 2.475423 1_556
Co2_2 Co2_4 2.466986 1_565
Co2_2 Co2_4 2.466986 1_455
Co2_2 Co2_6 2.466986 1_455
Co2_2 Co2_6 2.466986 1_555
Co2_2 Ni0_1 2.475422 1_555
Co2_2 Ni0_3 2.475423 1_555
Co2_2 Ni0_5 2.475423 1_455
Co2_3 Co2_5 2.466986 1_565
Co2_3 Co2_5 2.466986 1_455
Co2_3 Co2_7 2.466986 1_455
Co2_3 Co2_7 2.466986 1_555
Co2_3 Ni0_0 2.475422 1_556
Co2_3 Ni0_2 2.475423 1_556
Co2_3 Ni0_4 2.475423 1_456
Co2_4 Co2_6 2.466986 1_555
Co2_4 Co2_6 2.466986 1_545
Co2_4 Ni0_7 2.475422 1_545
Co2_4 Ni0_3 2.475423 1_545
Co2_4 Ni0_5 2.475423 1_555
Co2_5 Co2_7 2.466986 1_555
Co2_5 Co2_7 2.466986 1_545
Co2_5 Ni0_6 2.475422 1_546
Co2_5 Ni0_2 2.475423 1_546
Co2_5 Ni0_4 2.475423 1_556
Co2_6 Ni0_5 2.475422 1_555
Co2_6 Ni0_7 2.475423 1_555
Co2_6 Ni0_1 2.475423 1_555
Co2_7 Ni0_4 2.475422 1_556
Co2_7 Ni0_0 2.475423 1_556
Co2_7 Ni0_6 2.475423 1_556
Ni0_0 Ni0_6 2.466986 1_445
Ni0_0 Ni0_6 2.466986 1_555
Ni0_0 Ni0_4 2.466986 1_555
Ni0_0 Ni0_4 2.466986 1_455
Ni0_0 Ni0_2 2.466986 1_555
Ni0_0 Ni0_2 2.466986 1_545
Ni0_1 Ni0_7 2.466986 1_445
Ni0_1 Ni0_7 2.466986 1_555
Ni0_1 Ni0_5 2.466986 1_455
Ni0_1 Ni0_3 2.466986 1_555
Ni0_1 Ni0_5 2.466986 1_555
Ni0_1 Ni0_3 2.466986 1_545
Ni0_2 Ni0_4 2.466986 1_455
Ni0_2 Ni0_4 2.466986 1_565
Ni0_2 Ni0_6 2.466986 1_455
Ni0_2 Ni0_6 2.466986 1_555
Ni0_3 Ni0_5 2.466986 1_565
Ni0_3 Ni0_5 2.466986 1_455
Ni0_3 Ni0_7 2.466986 1_455
Ni0_3 Ni0_7 2.466986 1_555
Ni0_4 Ni0_6 2.466986 1_555
Ni0_4 Ni0_6 2.466986 1_545
Ni0_5 Ni0_7 2.466986 1_555
Ni0_5 Ni0_7 2.466986 1_545
