# generated using pymatgen
data_NdCu3Pd2
_symmetry_space_group_name_H-M   'P 1'
_cell_length_a   5.16174776
_cell_length_b   5.16174776
_cell_length_c   5.16174776
_cell_angle_alpha   123.05076203
_cell_angle_beta   116.28952368
_cell_angle_gamma   90.67099946
_symmetry_Int_Tables_number   1
_chemical_formula_structural   NdCu3Pd2
_chemical_formula_sum   'Nd1 Cu3 Pd2'
_cell_volume   97.30484604
_cell_formula_units_Z   1
loop_
 _symmetry_equiv_pos_site_id
 _symmetry_equiv_pos_as_xyz
  1  'x, y, z'
loop_
 _atom_site_type_symbol
 _atom_site_label
 _atom_site_symmetry_multiplicity
 _atom_site_fract_x
 _atom_site_fract_y
 _atom_site_fract_z
 _atom_site_occupancy
  Nd  Nd0  1  0.00274580  0.00274580  0.00000000  1
  Cu  Cu0  1  0.61573212  0.36509465  0.74936253  1
  Cu  Cu1  1  0.61573212  0.86636958  0.25063747  1
  Cu  Cu2  1  0.27937898  0.77937898  0.50000000  1
  Pd  Pd0  1  0.61499178  0.36820550  0.24678629  1
  Pd  Pd1  1  0.12141921  0.36820550  0.75321371  1
loop_
_geom_bond_atom_site_label_1
_geom_bond_atom_site_label_2
_geom_bond_distance
_geom_bond_site_symmetry_2
Nd0 Pd0 2.973503 1_555
Nd0 Pd1 2.973503 1_554
Nd0 Pd1 2.985462 1_555
Nd0 Pd1 2.985462 1_544
Nd0 Pd0 2.985462 1_444
Nd0 Pd0 2.985462 1_455
Cu0 Cu1 2.454688 1_545
Cu0 Cu1 2.467239 1_556
Cu0 Pd1 2.560555 1_555
Cu0 Pd0 2.560555 1_556
Cu0 Pd0 2.601280 1_555
Cu0 Pd1 2.601280 1_655
Cu0 Cu2 2.732096 1_545
Cu0 Nd0 3.067523 1_666
Cu0 Nd0 3.098412 1_555
Cu0 Nd0 3.098412 1_656
Cu0 Cu2 3.217708 1_656
Cu0 Cu2 3.217708 1_555
Cu1 Pd0 2.560555 1_555
Cu1 Pd1 2.560555 1_554
Cu1 Pd1 2.601280 1_665
Cu1 Pd0 2.601280 1_565
Cu1 Cu2 2.732096 1_555
Cu1 Nd0 3.067523 1_665
Cu1 Nd0 3.098412 1_666
Cu1 Nd0 3.098412 1_565
Cu1 Cu2 3.217708 1_655
Cu1 Cu2 3.217708 1_554
Cu2 Pd0 2.877471 1_555
Cu2 Pd1 2.877471 1_565
Cu2 Pd1 2.877471 1_554
Cu2 Pd0 2.877471 1_566
Cu2 Nd0 3.170016 1_666
Cu2 Nd0 3.170016 1_565
Cu2 Nd0 3.175916 1_566
Cu2 Nd0 3.175916 1_555
Cu2 Pd1 3.287373 1_555
Cu2 Pd0 3.287373 1_455
Pd0 Pd1 2.689221 1_554
Pd0 Pd1 2.759261 1_655
