# generated using pymatgen
data_Ba2YTlCo2O7
_symmetry_space_group_name_H-M   'P 1'
_cell_length_a   5.61588344
_cell_length_b   5.61253719
_cell_length_c   13.13598330
_cell_angle_alpha   77.77658498
_cell_angle_beta   102.25760422
_cell_angle_gamma   89.91630584
_symmetry_Int_Tables_number   1
_chemical_formula_structural   Ba2YTlCo2O7
_chemical_formula_sum   'Ba4 Y2 Tl2 Co4 O14'
_cell_volume   394.95920879
_cell_formula_units_Z   2
loop_
 _symmetry_equiv_pos_site_id
 _symmetry_equiv_pos_as_xyz
  1  'x, y, z'
loop_
 _atom_site_type_symbol
 _atom_site_label
 _atom_site_symmetry_multiplicity
 _atom_site_fract_x
 _atom_site_fract_y
 _atom_site_fract_z
 _atom_site_occupancy
  Ba  Ba0  1  0.60772800  0.89248400  0.20967500  1
  Ba  Ba1  1  0.10080000  0.39192900  0.20731500  1
  Ba  Ba2  1  0.89262000  0.60243400  0.79019500  1
  Ba  Ba3  1  0.39904700  0.10109200  0.79273200  1
  Y  Y0  1  0.75108900  0.74736900  0.50010800  1
  Y  Y1  1  0.24947300  0.24601000  0.49998000  1
  Tl  Tl0  1  0.46112100  0.46583900  0.99995700  1
  Tl  Tl1  1  0.03924100  0.96353200  0.00000400  1
  Co  Co0  1  0.68333700  0.31425900  0.36722900  1
  Co  Co1  1  0.81707300  0.17975900  0.63448000  1
  Co  Co2  1  0.18365900  0.81286000  0.36691600  1
  Co  Co3  1  0.31720100  0.68036500  0.63177000  1
  O  O0  1  0.43776300  0.05521200  0.00078500  1
  O  O1  1  0.05806000  0.55436400  0.99922600  1
  O  O2  1  0.59497600  0.42142000  0.17059800  1
  O  O3  1  0.07416100  0.91821800  0.17126900  1
  O  O4  1  0.42515500  0.59079000  0.82963000  1
  O  O5  1  0.90345100  0.09180200  0.82834500  1
  O  O6  1  0.94248000  0.05518900  0.38639700  1
  O  O7  1  0.44016700  0.55429600  0.38492300  1
  O  O8  1  0.94456800  0.55201200  0.38718100  1
  O  O9  1  0.44028400  0.05698600  0.38372100  1
  O  O10  1  0.06180300  0.43693600  0.61594400  1
  O  O11  1  0.55684200  0.93953800  0.61248300  1
  O  O12  1  0.06018700  0.93844400  0.61557900  1
  O  O13  1  0.55771900  0.43685800  0.61356500  1
loop_
_geom_bond_atom_site_label_1
_geom_bond_atom_site_label_2
_geom_bond_distance
_geom_bond_site_symmetry_2
Ba0 O0 2.664347 1_565
Ba0 O3 2.769150 1_655
Ba0 O2 2.796115 1_555
Ba0 O2 2.901746 1_565
Ba0 O3 2.929177 1_555
Ba0 O9 2.961058 1_565
Ba0 O6 2.967598 1_565
Ba0 O7 2.976990 1_555
Ba0 O8 2.982721 1_555
Ba1 O1 2.650672 1_554
Ba1 O2 2.777116 1_455
Ba1 O3 2.796344 1_545
Ba1 O3 2.889290 1_555
Ba1 O2 2.915107 1_555
Ba1 O9 2.967733 1_555
Ba1 O6 2.984412 1_455
Ba1 O7 2.987170 1_555
Ba1 O8 2.989367 1_455
Ba2 O1 2.660432 1_655
Ba2 O4 2.779936 1_555
Ba2 O5 2.801220 1_555
Ba2 O5 2.892926 1_565
Ba2 O4 2.922996 1_655
Ba2 O12 2.965359 1_655
Ba2 O10 2.970858 1_655
Ba2 O11 2.972408 1_555
Ba2 O13 2.974804 1_555
Ba3 O0 2.651846 1_556
Ba3 O5 2.769868 1_555
Ba3 O4 2.800035 1_545
Ba3 O4 2.888856 1_555
Ba3 O5 2.917323 1_455
Ba3 O10 2.966710 1_555
Ba3 O12 2.982325 1_545
Ba3 O13 2.983589 1_555
Ba3 O11 3.001890 1_545
Co0 O6 1.994686 1_555
Co0 O8 1.998017 1_555
Co0 O9 1.998475 1_555
Co0 O7 1.998978 1_555
Co0 O2 2.465082 1_555
Co1 O13 1.983718 1_555
Co1 O11 2.007101 1_545
Co1 O10 2.007663 1_655
Co1 O12 2.010221 1_645
Co1 O5 2.430358 1_555
Co2 O7 1.985165 1_555
Co2 O9 2.000459 1_565
Co2 O8 2.002389 1_455
Co2 O6 2.009718 1_465
Co2 O3 2.452988 1_555
Co3 O12 1.989901 1_555
Co3 O10 1.991590 1_555
Co3 O11 1.996424 1_555
Co3 O13 2.004904 1_555
Co3 O4 2.480378 1_555
O0 Tl1 2.295562 1_545
O0 Tl0 2.306438 1_554
O1 Tl1 2.301030 1_556
O1 Tl0 2.314313 1_555
O2 Tl0 2.167732 1_554
O3 Tl1 2.175932 1_555
O4 Tl0 2.163769 1_555
O5 Tl1 2.182951 1_646
O6 Y1 2.436239 1_655
O6 Y0 2.442453 1_545
O7 Y1 2.451590 1_555
O7 Y0 2.467893 1_555
O8 Y1 2.431799 1_655
O8 Y0 2.439866 1_555
O9 Y1 2.446154 1_555
O9 Y0 2.477247 1_545
O10 Y1 2.439081 1_555
O10 Y0 2.477272 1_455
O11 Y0 2.426275 1_555
O11 Y1 2.440087 1_565
O12 Y1 2.448774 1_565
O12 Y0 2.457698 1_455
O13 Y1 2.440416 1_555
O13 Y0 2.455723 1_555
