# generated using pymatgen
data_K2TlCl5O2
_symmetry_space_group_name_H-M   'P 1'
_cell_length_a   12.83903100
_cell_length_b   8.53272600
_cell_length_c   9.88515246
_cell_angle_alpha   89.47343018
_cell_angle_beta   90.00000000
_cell_angle_gamma   90.00000000
_symmetry_Int_Tables_number   1
_chemical_formula_structural   K2TlCl5O2
_chemical_formula_sum   'K8 Tl4 Cl20 O8'
_cell_volume   1082.89183266
_cell_formula_units_Z   4
loop_
 _symmetry_equiv_pos_site_id
 _symmetry_equiv_pos_as_xyz
  1  'x, y, z'
loop_
 _atom_site_type_symbol
 _atom_site_label
 _atom_site_symmetry_multiplicity
 _atom_site_fract_x
 _atom_site_fract_y
 _atom_site_fract_z
 _atom_site_occupancy
  K  K0  1  0.17905300  0.51913700  0.58886700  1
  K  K1  1  0.67905300  0.98086300  0.41113300  1
  K  K2  1  0.82094700  0.48086300  0.41113300  1
  K  K3  1  0.32094700  0.01913700  0.58886700  1
  K  K4  1  0.85562900  0.42546300  0.96454700  1
  K  K5  1  0.35562900  0.07453700  0.03545300  1
  K  K6  1  0.14437100  0.57453700  0.03545300  1
  K  K7  1  0.64437100  0.92546300  0.96454700  1
  Tl  Tl0  1  0.48558200  0.47546100  0.79154400  1
  Tl  Tl1  1  0.98558200  0.02453900  0.20845600  1
  Tl  Tl2  1  0.51441800  0.52453900  0.20845600  1
  Tl  Tl3  1  0.01441800  0.97546100  0.79154400  1
  Cl  Cl0  1  0.06184900  0.18893200  0.98378300  1
  Cl  Cl1  1  0.56184900  0.31106800  0.01621700  1
  Cl  Cl2  1  0.93815100  0.81106800  0.01621700  1
  Cl  Cl3  1  0.43815100  0.68893200  0.98378300  1
  Cl  Cl4  1  0.08382900  0.14825100  0.60111300  1
  Cl  Cl5  1  0.58382900  0.35174900  0.39888700  1
  Cl  Cl6  1  0.91617100  0.85174900  0.39888700  1
  Cl  Cl7  1  0.41617100  0.64825100  0.60111300  1
  Cl  Cl8  1  0.96056600  0.67676000  0.68201500  1
  Cl  Cl9  1  0.46056600  0.82324000  0.31798500  1
  Cl  Cl10  1  0.03943400  0.32324000  0.31798500  1
  Cl  Cl11  1  0.53943400  0.17676000  0.68201500  1
  Cl  Cl12  1  0.82432500  0.08538200  0.77066500  1
  Cl  Cl13  1  0.32432500  0.41461800  0.22933500  1
  Cl  Cl14  1  0.17567500  0.91461800  0.22933500  1
  Cl  Cl15  1  0.67567500  0.58538200  0.77066500  1
  Cl  Cl16  1  0.19430000  0.84144700  0.82273000  1
  Cl  Cl17  1  0.69430000  0.65855300  0.17727000  1
  Cl  Cl18  1  0.80570000  0.15855300  0.17727000  1
  Cl  Cl19  1  0.30570000  0.34144700  0.82273000  1
  O  O0  1  0.00535600  0.54660100  0.78805800  1
  O  O1  1  0.50535600  0.95339900  0.21194200  1
  O  O2  1  0.99464400  0.45339900  0.21194200  1
  O  O3  1  0.49464400  0.04660100  0.78805800  1
  O  O4  1  0.78601400  0.20268600  0.55629800  1
  O  O5  1  0.28601400  0.29731400  0.44370200  1
  O  O6  1  0.21398600  0.79731400  0.44370200  1
  O  O7  1  0.71398600  0.70268600  0.55629800  1
loop_
_geom_bond_atom_site_label_1
_geom_bond_atom_site_label_2
_geom_bond_distance
_geom_bond_site_symmetry_2
K0 O5 2.752724 1_555
K0 O6 2.798523 1_555
K0 O0 2.985606 1_555
K1 O4 2.752724 1_565
K1 O7 2.798523 1_555
K1 O1 2.985606 1_555
K2 O7 2.752724 1_555
K2 O4 2.798523 1_555
K2 O2 2.985606 1_555
K3 O6 2.752724 1_545
K3 O5 2.798523 1_555
K3 O3 2.985606 1_555
K4 O0 2.788259 1_655
K4 O2 3.038711 1_556
K5 O1 2.788259 1_545
K5 O3 3.038711 1_554
K6 O2 2.788259 1_455
K6 O0 3.038711 1_554
K7 O3 2.788259 1_565
K7 O1 3.038711 1_556
Cl0 Tl3 2.713572 1_545
Cl0 Tl1 2.793152 1_456
Cl0 K4 3.333554 1_455
Cl0 K6 3.498591 1_556
Cl1 Tl2 2.713572 1_555
Cl1 Tl0 2.793152 1_554
Cl1 K5 3.333554 1_555
Cl1 K7 3.498591 1_544
Cl2 Tl1 2.713572 1_565
Cl2 Tl3 2.793152 1_654
Cl2 K6 3.333554 1_655
Cl2 K4 3.498591 1_554
Cl3 Tl0 2.713572 1_555
Cl3 Tl2 2.793152 1_556
Cl3 K7 3.333554 1_555
Cl3 K5 3.498591 1_566
Cl4 Tl3 2.541754 1_545
Cl4 K3 3.240215 1_555
Cl4 K0 3.393737 1_555
Cl5 Tl2 2.541754 1_555
Cl5 K2 3.240215 1_555
Cl5 K1 3.393737 1_545
Cl6 Tl1 2.541754 1_565
Cl6 K1 3.240215 1_555
Cl6 K2 3.393737 1_555
Cl7 Tl0 2.541754 1_555
Cl7 K0 3.240215 1_555
Cl7 K3 3.393737 1_565
Cl8 O0 1.625295 1_655
Cl8 Tl3 2.863053 1_655
Cl8 K0 3.247835 1_655
Cl8 K2 3.641393 1_555
Cl9 O1 1.625295 1_555
Cl9 Tl2 2.863053 1_555
Cl9 K1 3.247835 1_555
Cl9 K3 3.641393 1_565
Cl10 O2 1.625295 1_455
Cl10 Tl1 2.863053 1_455
Cl10 K2 3.247835 1_455
Cl10 K0 3.641393 1_555
Cl11 O3 1.625295 1_555
Cl11 Tl0 2.863053 1_555
Cl11 K3 3.247835 1_555
Cl11 K1 3.641393 1_545
Cl12 O4 2.386457 1_555
Cl12 Tl3 2.622083 1_645
Cl12 K7 3.290167 1_545
Cl12 K4 3.515321 1_555
Cl13 O5 2.386457 1_555
Cl13 Tl2 2.622083 1_555
Cl13 K6 3.290167 1_555
Cl13 K5 3.515321 1_555
Cl14 O6 2.386457 1_555
Cl14 Tl1 2.622083 1_465
Cl14 K5 3.290167 1_565
Cl14 K6 3.515321 1_555
Cl15 O7 2.386457 1_555
Cl15 Tl0 2.622083 1_555
Cl15 K4 3.290167 1_555
Cl15 K7 3.515321 1_555
Cl16 Tl3 2.594224 1_555
Cl16 K6 3.151435 1_556
Cl16 K3 3.197283 1_565
Cl16 K5 3.569965 1_566
Cl16 K0 3.614274 1_555
Cl17 Tl2 2.594224 1_555
Cl17 K7 3.151435 1_554
Cl17 K2 3.197283 1_555
Cl17 K4 3.569965 1_554
Cl17 K1 3.614274 1_555
Cl18 Tl1 2.594224 1_555
Cl18 K4 3.151435 1_554
Cl18 K1 3.197283 1_545
Cl18 K7 3.569965 1_544
Cl18 K2 3.614274 1_555
Cl19 Tl0 2.594224 1_555
Cl19 K5 3.151435 1_556
Cl19 K0 3.197283 1_555
Cl19 K6 3.569965 1_556
Cl19 K3 3.614274 1_555
