# generated using pymatgen
data_Li9Mn2Co5O16
_symmetry_space_group_name_H-M   'P 1'
_cell_length_a   5.88209500
_cell_length_b   6.44263789
_cell_length_c   8.09386584
_cell_angle_alpha   88.83798394
_cell_angle_beta   89.26887701
_cell_angle_gamma   65.64638949
_symmetry_Int_Tables_number   1
_chemical_formula_structural   Li9Mn2Co5O16
_chemical_formula_sum   'Li9 Mn2 Co5 O16'
_cell_volume   279.37288400
_cell_formula_units_Z   1
loop_
 _symmetry_equiv_pos_site_id
 _symmetry_equiv_pos_as_xyz
  1  'x, y, z'
loop_
 _atom_site_type_symbol
 _atom_site_label
 _atom_site_symmetry_multiplicity
 _atom_site_fract_x
 _atom_site_fract_y
 _atom_site_fract_z
 _atom_site_occupancy
  Li  Li0  1  0.37503300  0.25416100  0.75590000  1
  Li  Li1  1  0.74851700  0.00067200  0.99996600  1
  Li  Li2  1  0.00000000  0.50000000  0.50000000  1
  Li  Li3  1  0.62496700  0.74583900  0.24410000  1
  Li  Li4  1  0.25148300  0.99932800  0.00003400  1
  Li  Li5  1  0.87262700  0.25356900  0.75684300  1
  Li  Li6  1  0.50000000  0.50000000  0.50000000  1
  Li  Li7  1  0.12737300  0.74643100  0.24315700  1
  Li  Li8  1  0.00000000  0.50000000  0.00000000  1
  Mn  Mn0  1  0.63472100  0.74434600  0.75360400  1
  Mn  Mn1  1  0.36527900  0.25565400  0.24639600  1
  Co  Co0  1  0.74821800  0.00078000  0.50049300  1
  Co  Co1  1  0.12970300  0.74568200  0.75330500  1
  Co  Co2  1  0.50000000  0.50000000  0.00000000  1
  Co  Co3  1  0.87029700  0.25431800  0.24669500  1
  Co  Co4  1  0.25178200  0.99922000  0.49950700  1
  O  O0  1  0.74116500  0.99210500  0.74033700  1
  O  O1  1  0.15284800  0.73090600  0.98322300  1
  O  O2  1  0.36581800  0.23873300  0.49041800  1
  O  O3  1  0.02171100  0.46975400  0.25124200  1
  O  O4  1  0.61797100  0.74201400  0.98702600  1
  O  O5  1  0.27247900  0.97326900  0.73944100  1
  O  O6  1  0.86840700  0.23473900  0.48654000  1
  O  O7  1  0.48198600  0.49505700  0.24039400  1
  O  O8  1  0.97828900  0.53024600  0.74875800  1
  O  O9  1  0.38202900  0.25798600  0.01297400  1
  O  O10  1  0.63418200  0.76126700  0.50958200  1
  O  O11  1  0.25883500  0.00789500  0.25966300  1
  O  O12  1  0.84715200  0.26909400  0.01677700  1
  O  O13  1  0.51801400  0.50494300  0.75960600  1
  O  O14  1  0.13159300  0.76526100  0.51346000  1
  O  O15  1  0.72752100  0.02673100  0.26055900  1
loop_
_geom_bond_atom_site_label_1
_geom_bond_atom_site_label_2
_geom_bond_distance
_geom_bond_site_symmetry_2
Li0 O9 2.082500 1_556
Li0 O13 2.107606 1_555
Li0 O0 2.123057 1_545
Li0 O5 2.137465 1_545
Li0 O2 2.155489 1_555
Li0 O8 2.277958 1_455
Li1 O12 2.045679 1_556
Li1 O0 2.104709 1_545
Li1 O4 2.107635 1_545
Li1 O9 2.111959 1_556
Li1 O15 2.117262 1_556
Li1 O1 2.299494 1_645
Li2 O3 2.024091 1_555
Li2 O8 2.024091 1_455
Li2 O10 2.117393 1_455
Li2 O2 2.117393 1_555
Li2 O6 2.152279 1_455
Li2 O14 2.152279 1_555
Li3 O4 2.082500 1_554
Li3 O7 2.107606 1_555
Li3 O11 2.123057 1_565
Li3 O15 2.137465 1_565
Li3 O10 2.155489 1_555
Li3 O3 2.277958 1_655
Li4 O1 2.045679 1_554
Li4 O11 2.104709 1_565
Li4 O9 2.107635 1_565
Li4 O4 2.111959 1_554
Li4 O5 2.117262 1_554
Li4 O12 2.299494 1_465
Li5 O13 2.046562 1_555
Li5 O12 2.108758 1_556
Li5 O8 2.115632 1_555
Li5 O0 2.130599 1_545
Li5 O6 2.194634 1_555
Li5 O5 2.304710 1_645
Li6 O7 2.106782 1_555
Li6 O13 2.106782 1_555
Li6 O10 2.136548 1_555
Li6 O2 2.136548 1_555
Li6 O6 2.139071 1_555
Li6 O14 2.139071 1_555
Li7 O7 2.046562 1_555
Li7 O1 2.108758 1_554
Li7 O3 2.115632 1_555
Li7 O11 2.130599 1_565
Li7 O14 2.194634 1_555
Li7 O15 2.304710 1_465
Li8 O1 2.032636 1_554
Li8 O12 2.032636 1_455
Li8 O8 2.039488 1_454
Li8 O3 2.039488 1_555
Li8 O4 2.145106 1_454
Li8 O9 2.145106 1_555
Mn0 O4 1.890676 1_555
Mn0 O8 1.920782 1_555
Mn0 O13 1.929230 1_555
Mn0 O0 1.940891 1_555
Mn0 O10 1.975850 1_555
Mn0 O5 2.033724 1_555
Mn1 O9 1.890676 1_555
Mn1 O3 1.920782 1_555
Mn1 O7 1.929230 1_555
Mn1 O11 1.940891 1_555
Mn1 O2 1.975850 1_555
Mn1 O15 2.033724 1_555
Co0 O6 1.911662 1_555
Co0 O10 1.919447 1_545
Co0 O0 1.941343 1_545
Co0 O15 1.946841 1_555
Co0 O2 2.138216 1_555
Co0 O14 2.139209 1_645
Co1 O1 1.865270 1_555
Co1 O8 1.934808 1_455
Co1 O14 1.943000 1_555
Co1 O5 1.968327 1_555
Co1 O13 2.168704 1_555
Co1 O0 2.182109 1_455
Co2 O7 1.947579 1_555
Co2 O13 1.947579 1_554
Co2 O4 1.951284 1_554
Co2 O9 1.951284 1_555
Co2 O12 1.973516 1_555
Co2 O1 1.973516 1_554
Co3 O12 1.865270 1_555
Co3 O3 1.934808 1_655
Co3 O6 1.943000 1_555
Co3 O15 1.968327 1_555
Co3 O7 2.168704 1_555
Co3 O11 2.182109 1_655
Co4 O14 1.911662 1_555
Co4 O2 1.919447 1_565
Co4 O11 1.941343 1_565
Co4 O5 1.946841 1_555
Co4 O10 2.138216 1_555
Co4 O6 2.139209 1_465
