# generated using pymatgen
data_Mn5O8
_symmetry_space_group_name_H-M   'P 1'
_cell_length_a   4.86711385
_cell_length_b   5.73181565
_cell_length_c   5.90879728
_cell_angle_alpha   118.98997882
_cell_angle_beta   107.23387467
_cell_angle_gamma   90.01032413
_symmetry_Int_Tables_number   1
_chemical_formula_structural   Mn5O8
_chemical_formula_sum   'Mn5 O8'
_cell_volume   135.65833629
_cell_formula_units_Z   1
loop_
 _symmetry_equiv_pos_site_id
 _symmetry_equiv_pos_as_xyz
  1  'x, y, z'
loop_
 _atom_site_type_symbol
 _atom_site_label
 _atom_site_symmetry_multiplicity
 _atom_site_fract_x
 _atom_site_fract_y
 _atom_site_fract_z
 _atom_site_occupancy
  Mn  Mn0  1  0.33870638  0.27728145  0.55457015  1
  Mn  Mn1  1  0.66129224  0.72271939  0.44542939  1
  Mn  Mn2  1  0.00003809  0.25979010  0.99995348  1
  Mn  Mn3  1  -0.00003558  0.74020913  0.00004640  1
  Mn  Mn4  1  0.49999992  -0.00000141  -0.00000027  1
  O  O0  1  0.06989506  0.39472142  0.78917368  1
  O  O1  1  0.93010059  0.60527943  0.21082348  1
  O  O2  1  0.08791325  0.89587603  0.79156288  1
  O  O3  1  0.91208928  0.10412788  0.20843804  1
  O  O4  1  0.39891155  0.33872828  0.22246616  1
  O  O5  1  0.39884197  0.88359303  0.22243290  1
  O  O6  1  0.60108803  0.66127016  0.77753491  1
  O  O7  1  0.60116023  0.11640511  0.77756880  1
loop_
_geom_bond_atom_site_label_1
_geom_bond_atom_site_label_2
_geom_bond_distance
_geom_bond_site_symmetry_2
Mn0 O0 2.063244 1_555
Mn0 O7 2.097392 1_555
Mn0 O6 2.098119 1_555
Mn0 O3 2.234886 1_455
Mn0 O4 2.251951 1_555
Mn0 O5 2.253255 1_545
Mn1 O1 2.063242 1_555
Mn1 O5 2.097365 1_555
Mn1 O4 2.098127 1_555
Mn1 O2 2.234902 1_655
Mn1 O6 2.251966 1_555
Mn1 O7 2.253245 1_565
Mn2 O0 1.857259 1_555
Mn2 O1 1.857346 1_456
Mn2 O7 1.900554 1_455
Mn2 O4 1.900752 1_556
Mn2 O2 1.967946 1_545
Mn2 O3 1.968397 1_456
Mn3 O1 1.857250 1_455
Mn3 O0 1.857330 1_554
Mn3 O5 1.900555 1_555
Mn3 O6 1.900762 1_454
Mn3 O3 1.967968 1_465
Mn3 O2 1.968411 1_554
Mn4 O7 1.910058 1_554
Mn4 O5 1.910062 1_545
Mn4 O6 1.910304 1_544
Mn4 O4 1.910312 1_555
Mn4 O2 1.928509 1_544
Mn4 O3 1.928522 1_555
