# generated using pymatgen
data_Ca2H2S2O9
_symmetry_space_group_name_H-M   'P 1'
_cell_length_a   7.04789602
_cell_length_b   7.04789602
_cell_length_c   12.83271800
_cell_angle_alpha   90.00000000
_cell_angle_beta   90.00000000
_cell_angle_gamma   120.00000017
_symmetry_Int_Tables_number   1
_chemical_formula_structural   Ca2H2S2O9
_chemical_formula_sum   'Ca6 H6 S6 O27'
_cell_volume   552.03708983
_cell_formula_units_Z   3
loop_
 _symmetry_equiv_pos_site_id
 _symmetry_equiv_pos_as_xyz
  1  'x, y, z'
loop_
 _atom_site_type_symbol
 _atom_site_label
 _atom_site_symmetry_multiplicity
 _atom_site_fract_x
 _atom_site_fract_y
 _atom_site_fract_z
 _atom_site_occupancy
  Ca  Ca0  1  0.81242200  0.14850700  0.32968100  1
  Ca  Ca1  1  0.85149300  0.66391500  0.66301500  1
  Ca  Ca2  1  0.33608500  0.18757800  0.99634800  1
  Ca  Ca3  1  0.34113100  0.22001000  0.49265300  1
  Ca  Ca4  1  0.77999000  0.12112100  0.82598700  1
  Ca  Ca5  1  0.87887900  0.65886900  0.15932000  1
  H  H0  1  0.18962400  0.55415800  0.06455600  1
  H  H1  1  0.44584200  0.63546600  0.39789000  1
  H  H2  1  0.36453400  0.81037600  0.73122300  1
  H  H3  1  0.35648500  0.76185500  0.12369400  1
  H  H4  1  0.23814500  0.59462900  0.45702800  1
  H  H5  1  0.40537100  0.64351500  0.79036100  1
  S  S0  1  0.78526700  0.11100800  0.07820200  1
  S  S1  1  0.88899200  0.67425900  0.41153600  1
  S  S2  1  0.32574100  0.21473300  0.74486900  1
  S  S3  1  0.33584100  0.20507400  0.24220400  1
  S  S4  1  0.79492600  0.13076700  0.57553800  1
  S  S5  1  0.86923300  0.66415900  0.90887200  1
  O  O0  1  0.59791400  0.05499700  0.00618600  1
  O  O1  1  0.94500300  0.54291700  0.33952000  1
  O  O2  1  0.45708300  0.40208600  0.67285300  1
  O  O3  1  0.80926300  0.28086800  0.15452900  1
  O  O4  1  0.71913200  0.52839500  0.48786300  1
  O  O5  1  0.47160500  0.19073700  0.82119600  1
  O  O6  1  0.74272300  0.91599700  0.14089400  1
  O  O7  1  0.08400300  0.82672600  0.47422800  1
  O  O8  1  0.17327400  0.25727700  0.80756100  1
  O  O9  1  0.98550100  0.19511400  0.01152100  1
  O  O10  1  0.80488600  0.79038700  0.34485500  1
  O  O11  1  0.20961300  0.01449900  0.67818800  1
  O  O12  1  0.19005300  0.25225400  0.30735000  1
  O  O13  1  0.74774600  0.93779900  0.64068400  1
  O  O14  1  0.06220100  0.80994700  0.97401700  1
  O  O15  1  0.48143700  0.39531800  0.17551000  1
  O  O16  1  0.60468200  0.08611900  0.50884400  1
  O  O17  1  0.91388100  0.51856300  0.84217700  1
  O  O18  1  0.46411100  0.14808200  0.31604900  1
  O  O19  1  0.85191800  0.31603000  0.64938300  1
  O  O20  1  0.68397000  0.53588900  0.98271600  1
  O  O21  1  0.20473100  0.01908200  0.16953900  1
  O  O22  1  0.98091800  0.18564900  0.50287300  1
  O  O23  1  0.81435100  0.79526900  0.83620600  1
  O  O24  1  0.21247200  0.63112500  0.13042700  1
  O  O25  1  0.36887500  0.58134700  0.46376100  1
  O  O26  1  0.41865300  0.78752800  0.79709400  1
loop_
_geom_bond_atom_site_label_1
_geom_bond_atom_site_label_2
_geom_bond_distance
_geom_bond_site_symmetry_2
Ca0 O12 2.398810 1_655
Ca0 O3 2.437940 1_555
Ca0 O1 2.453302 1_555
Ca0 O18 2.459592 1_555
Ca0 O22 2.471341 1_555
Ca0 O10 2.505438 1_545
Ca0 O16 2.641839 1_555
Ca0 O6 2.826821 1_545
Ca1 O13 2.398810 1_555
Ca1 O4 2.437940 1_555
Ca1 O2 2.453301 1_555
Ca1 O19 2.459585 1_555
Ca1 O23 2.471330 1_555
Ca1 O11 2.505437 1_665
Ca1 O17 2.641828 1_555
Ca1 O7 2.826821 1_655
Ca2 O14 2.398810 1_545
Ca2 O5 2.437940 1_555
Ca2 O0 2.453301 1_556
Ca2 O20 2.459589 1_555
Ca2 O21 2.471330 1_556
Ca2 O9 2.505437 1_456
Ca2 O15 2.641828 1_556
Ca2 O8 2.826821 1_555
Ca3 O22 2.430278 1_455
Ca3 O7 2.449468 1_545
Ca3 O4 2.456597 1_555
Ca3 O16 2.477234 1_555
Ca3 O25 2.482587 1_555
Ca3 O18 2.565891 1_555
Ca3 O2 2.571641 1_555
Ca3 O12 2.661199 1_555
Ca3 O11 2.698760 1_555
Ca4 O23 2.430278 1_545
Ca4 O8 2.449470 1_655
Ca4 O5 2.456597 1_555
Ca4 O17 2.477233 1_555
Ca4 O26 2.482589 1_545
Ca4 O19 2.565894 1_555
Ca4 O0 2.571629 1_556
Ca4 O13 2.661199 1_545
Ca4 O9 2.698749 1_556
Ca5 O21 2.430278 1_665
Ca5 O6 2.449470 1_555
Ca5 O3 2.456597 1_555
Ca5 O15 2.477233 1_555
Ca5 O24 2.482589 1_655
Ca5 O20 2.565893 1_554
Ca5 O1 2.571641 1_555
Ca5 O14 2.661199 1_654
Ca5 O10 2.698760 1_555
H0 O24 0.973332 1_555
H1 O25 0.973332 1_555
H2 O26 0.973332 1_555
H3 O24 0.975403 1_555
H4 O25 0.975399 1_555
H5 O26 0.975406 1_555
O0 S0 1.494063 1_555
O1 S1 1.494063 1_555
O2 S2 1.494063 1_555
O3 S0 1.489532 1_555
O4 S1 1.489532 1_555
O5 S2 1.489532 1_555
O6 S0 1.487969 1_565
O7 S1 1.487969 1_455
O8 S2 1.487969 1_555
O9 S0 1.496204 1_555
O10 S1 1.496204 1_555
O11 S2 1.496204 1_555
O12 S3 1.485558 1_555
O13 S4 1.485558 1_565
O14 S5 1.485551 1_455
O15 S3 1.485733 1_555
O16 S4 1.485733 1_555
O17 S5 1.485740 1_555
O18 S3 1.496580 1_555
O19 S4 1.496585 1_555
O20 S5 1.496576 1_555
O21 S3 1.493468 1_555
O22 S4 1.493468 1_555
O23 S5 1.493476 1_555
