# generated using pymatgen
data_Ca2Co2O5
_symmetry_space_group_name_H-M   'P 1'
_cell_length_a   8.56472268
_cell_length_b   8.56472268
_cell_length_c   8.56472268
_cell_angle_alpha   143.98265172
_cell_angle_beta   142.25921918
_cell_angle_gamma   53.15680774
_symmetry_Int_Tables_number   1
_chemical_formula_structural   Ca2Co2O5
_chemical_formula_sum   'Ca4 Co4 O10'
_cell_volume   224.72799053
_cell_formula_units_Z   2
loop_
 _symmetry_equiv_pos_site_id
 _symmetry_equiv_pos_as_xyz
  1  'x, y, z'
loop_
 _atom_site_type_symbol
 _atom_site_label
 _atom_site_symmetry_multiplicity
 _atom_site_fract_x
 _atom_site_fract_y
 _atom_site_fract_z
 _atom_site_occupancy
  Ca  Ca0  1  0.58787500  0.06882200  0.43550100  1
  Ca  Ca1  1  0.41212500  0.84762500  0.48094700  1
  Ca  Ca2  1  0.13332200  0.56882200  0.48094700  1
  Ca  Ca3  1  0.86667800  0.34762500  0.43550100  1
  Co  Co0  1  0.19135300  0.24043400  0.93178700  1
  Co  Co1  1  0.80864700  0.74043400  0.04908100  1
  Co  Co2  1  0.00000000  0.94922300  0.94922300  1
  Co  Co3  1  0.50000000  0.44922300  0.94922300  1
  O  O0  1  0.57498700  0.56788300  0.85849700  1
  O  O1  1  0.42501300  0.28351000  0.99289600  1
  O  O2  1  0.20938600  0.06788300  0.99289600  1
  O  O3  1  0.79061400  0.78351000  0.85849700  1
  O  O4  1  0.86598000  0.10641200  0.47239200  1
  O  O5  1  0.13402000  0.60641200  0.24043100  1
  O  O6  1  0.76066000  0.71491500  0.44883600  1
  O  O7  1  0.23934000  0.68817600  0.95425500  1
  O  O8  1  0.76607900  0.21491500  0.95425500  1
  O  O9  1  0.23392100  0.18817600  0.44883600  1
loop_
_geom_bond_atom_site_label_1
_geom_bond_atom_site_label_2
_geom_bond_distance
_geom_bond_site_symmetry_2
Ca0 O2 2.329234 1_554
Ca0 O4 2.332747 1_555
Ca0 O8 2.491469 1_555
Ca0 O6 2.510775 1_545
Ca0 O0 2.534479 1_555
Ca0 O9 2.624965 1_555
Ca0 O7 2.646155 1_544
Ca0 O0 2.871942 1_544
Ca1 O3 2.329230 1_555
Ca1 O5 2.332735 1_555
Ca1 O9 2.491476 1_565
Ca1 O7 2.510780 1_554
Ca1 O1 2.534480 1_565
Ca1 O8 2.624970 1_565
Ca1 O6 2.646158 1_555
Ca1 O1 2.871938 1_554
Ca2 O0 2.329230 1_555
Ca2 O5 2.332749 1_555
Ca2 O6 2.491476 1_455
Ca2 O8 2.510780 1_454
Ca2 O2 2.534480 1_565
Ca2 O7 2.624970 1_555
Ca2 O9 2.646158 1_555
Ca2 O2 2.871938 1_554
Ca3 O1 2.329231 1_554
Ca3 O4 2.332733 1_555
Ca3 O7 2.491478 1_655
Ca3 O9 2.510784 1_655
Ca3 O3 2.534476 1_555
Ca3 O6 2.624976 1_555
Ca3 O8 2.646166 1_554
Ca3 O3 2.871940 1_544
Co0 O1 1.825238 1_555
Co0 O2 1.825238 1_555
Co0 O4 1.937308 1_455
Co0 O5 1.963983 1_556
Co1 O0 1.825238 1_554
Co1 O3 1.825238 1_554
Co1 O5 1.937307 1_655
Co1 O4 1.963986 1_565
Co2 O9 1.924696 1_566
Co2 O8 1.924696 1_465
Co2 O7 1.929373 1_555
Co2 O6 1.929373 1_455
Co2 O3 2.213288 1_455
Co2 O2 2.213288 1_565
Co3 O6 1.924696 1_556
Co3 O7 1.924696 1_555
Co3 O8 1.929373 1_555
Co3 O9 1.929373 1_555
Co3 O1 2.213288 1_555
Co3 O0 2.213288 1_555
