# generated using pymatgen
data_TeMoWSeS2
_symmetry_space_group_name_H-M   'P 1'
_cell_length_a   3.31327001
_cell_length_b   3.31327001
_cell_length_c   39.32829300
_cell_angle_alpha   90.00000000
_cell_angle_beta   90.00000000
_cell_angle_gamma   120.00000018
_symmetry_Int_Tables_number   1
_chemical_formula_structural   TeMoWSeS2
_chemical_formula_sum   'Te2 Mo2 W2 Se2 S4'
_cell_volume   373.89476663
_cell_formula_units_Z   2
loop_
 _symmetry_equiv_pos_site_id
 _symmetry_equiv_pos_as_xyz
  1  'x, y, z'
loop_
 _atom_site_type_symbol
 _atom_site_label
 _atom_site_symmetry_multiplicity
 _atom_site_fract_x
 _atom_site_fract_y
 _atom_site_fract_z
 _atom_site_occupancy
  Te  Te0  1  0.66666700  0.33333300  0.42202100  1
  Te  Te1  1  0.66666700  0.33333300  0.51986500  1
  Mo  Mo0  1  0.33333300  0.66666700  0.09372900  1
  Mo  Mo1  1  0.66666700  0.33333300  0.65793600  1
  W  W0  1  0.33333300  0.66666700  0.47090800  1
  W  W1  1  0.66666700  0.33333300  0.28032300  1
  Se  Se0  1  0.33333300  0.66666700  0.32314100  1
  Se  Se1  1  0.33333300  0.66666700  0.23748100  1
  S  S0  1  0.33333300  0.66666700  0.69676000  1
  S  S1  1  0.66666700  0.33333300  0.05489500  1
  S  S2  1  0.66666700  0.33333300  0.13254100  1
  S  S3  1  0.33333300  0.66666700  0.61914800  1
loop_
_geom_bond_atom_site_label_1
_geom_bond_atom_site_label_2
_geom_bond_distance
_geom_bond_site_symmetry_2
Te0 W0 2.712158 1_545
Te0 W0 2.712158 1_655
Te0 W0 2.712162 1_555
Te1 W0 2.714110 1_545
Te1 W0 2.714110 1_655
Te1 W0 2.714114 1_555
Mo0 S2 2.447278 1_455
Mo0 S2 2.447278 1_565
Mo0 S2 2.447283 1_555
Mo0 S1 2.447818 1_455
Mo0 S1 2.447818 1_565
Mo0 S1 2.447823 1_555
Mo1 S3 2.446690 1_545
Mo1 S3 2.446690 1_655
Mo1 S3 2.446694 1_555
Mo1 S0 2.447573 1_545
Mo1 S0 2.447573 1_655
Mo1 S0 2.447577 1_555
Se0 W1 2.548522 1_455
Se0 W1 2.548522 1_565
Se0 W1 2.548526 1_555
Se1 W1 2.549145 1_455
Se1 W1 2.549145 1_565
Se1 W1 2.549150 1_555
