# generated using pymatgen
data_BaTeMo2O9
_symmetry_space_group_name_H-M   'P 1'
_cell_length_a   7.58707000
_cell_length_b   5.70228400
_cell_length_c   9.00990686
_cell_angle_alpha   89.55408855
_cell_angle_beta   90.00000000
_cell_angle_gamma   90.00000000
_symmetry_Int_Tables_number   1
_chemical_formula_structural   BaTeMo2O9
_chemical_formula_sum   'Ba2 Te2 Mo4 O18'
_cell_volume   389.78945260
_cell_formula_units_Z   2
loop_
 _symmetry_equiv_pos_site_id
 _symmetry_equiv_pos_as_xyz
  1  'x, y, z'
loop_
 _atom_site_type_symbol
 _atom_site_label
 _atom_site_symmetry_multiplicity
 _atom_site_fract_x
 _atom_site_fract_y
 _atom_site_fract_z
 _atom_site_occupancy
  Ba  Ba0  1  0.75303300  0.27914300  0.93448900  1
  Ba  Ba1  1  0.25303300  0.72085700  0.06551100  1
  Te  Te0  1  0.98573100  0.60960700  0.58265000  1
  Te  Te1  1  0.48573100  0.39039300  0.41735000  1
  Mo  Mo0  1  0.54896800  0.78354600  0.67487800  1
  Mo  Mo1  1  0.04896800  0.21645400  0.32512200  1
  Mo  Mo2  1  0.22956500  0.22294300  0.76747900  1
  Mo  Mo3  1  0.72956500  0.77705700  0.23252100  1
  O  O0  1  0.52449600  0.71117000  0.86591400  1
  O  O1  1  0.02449600  0.28883000  0.13408600  1
  O  O2  1  0.70890900  0.00642000  0.67601000  1
  O  O3  1  0.20890900  0.99358000  0.32399000  1
  O  O4  1  0.34969600  0.97566300  0.64315100  1
  O  O5  1  0.84969600  0.02433700  0.35684900  1
  O  O6  1  0.38441900  0.23706800  0.91400700  1
  O  O7  1  0.88441900  0.76293200  0.08599300  1
  O  O8  1  0.56860800  0.71272200  0.44110100  1
  O  O9  1  0.06860800  0.28727800  0.55889900  1
  O  O10  1  0.26491100  0.46594600  0.32913100  1
  O  O11  1  0.76491100  0.53405400  0.67086900  1
  O  O12  1  0.40452200  0.45835900  0.62427100  1
  O  O13  1  0.90452200  0.54164100  0.37572900  1
  O  O14  1  0.60250100  0.49890100  0.19735000  1
  O  O15  1  0.10250100  0.50109900  0.80265000  1
  O  O16  1  0.57459900  0.97958900  0.16005400  1
  O  O17  1  0.07459900  0.02041100  0.83994600  1
loop_
_geom_bond_atom_site_label_1
_geom_bond_atom_site_label_2
_geom_bond_distance
_geom_bond_site_symmetry_2
Ba0 O1 2.735078 1_656
Ba0 O11 2.776472 1_555
Ba0 O6 2.813155 1_555
Ba0 O2 2.830293 1_555
Ba0 O14 2.920615 1_556
Ba0 O16 2.970991 1_546
Ba0 O17 2.978961 1_655
Ba0 O0 3.071414 1_555
Ba0 O15 3.165377 1_655
Ba0 O7 3.244389 1_556
Ba0 O7 3.385135 1_546
Ba1 O0 2.735078 1_554
Ba1 O10 2.776472 1_555
Ba1 O7 2.813155 1_455
Ba1 O3 2.830293 1_555
Ba1 O15 2.920615 1_554
Ba1 O17 2.970991 1_564
Ba1 O16 2.978961 1_555
Ba1 O1 3.071414 1_555
Ba1 O14 3.165377 1_555
Ba1 O6 3.244389 1_554
Ba1 O6 3.385135 1_564
Mo0 O2 1.757274 1_565
Mo0 O0 1.776607 1_555
Mo0 O4 1.887534 1_555
Mo0 O8 2.152924 1_555
Mo0 O11 2.170341 1_555
Mo0 O12 2.204670 1_555
Mo1 O3 1.757274 1_545
Mo1 O1 1.776607 1_555
Mo1 O5 1.887534 1_455
Mo1 O9 2.152924 1_555
Mo1 O10 2.170341 1_555
Mo1 O13 2.204670 1_455
Mo2 O17 1.769381 1_555
Mo2 O6 1.769588 1_555
Mo2 O15 1.885050 1_555
Mo2 O4 2.024449 1_545
Mo2 O9 2.268674 1_555
Mo2 O12 2.280783 1_555
Mo3 O16 1.769381 1_555
Mo3 O7 1.769588 1_555
Mo3 O14 1.885050 1_555
Mo3 O5 2.024449 1_565
Mo3 O8 2.268674 1_555
Mo3 O13 2.280783 1_555
O8 Te1 1.955910 1_555
O9 Te0 1.955910 1_455
O10 Te1 1.902353 1_555
O11 Te0 1.902353 1_555
O12 Te1 2.004205 1_555
O13 Te0 2.004205 1_555
O14 Te1 2.253371 1_555
O15 Te0 2.253371 1_455
