# generated using pymatgen
data_SrSmAlO4
_symmetry_space_group_name_H-M   'P 1'
_cell_length_a   6.67899879
_cell_length_b   6.67899879
_cell_length_c   6.67899879
_cell_angle_alpha   147.67906023
_cell_angle_beta   147.67906023
_cell_angle_gamma   46.35936399
_symmetry_Int_Tables_number   1
_chemical_formula_structural   SrSmAlO4
_chemical_formula_sum   'Sr1 Sm1 Al1 O4'
_cell_volume   84.87013553
_cell_formula_units_Z   1
loop_
 _symmetry_equiv_pos_site_id
 _symmetry_equiv_pos_as_xyz
  1  'x, y, z'
loop_
 _atom_site_type_symbol
 _atom_site_label
 _atom_site_symmetry_multiplicity
 _atom_site_fract_x
 _atom_site_fract_y
 _atom_site_fract_z
 _atom_site_occupancy
  Sr  Sr0  1  0.64419374  0.64419374  -0.00000000  1
  Sm  Sm0  1  0.36036302  0.36036302  -0.00000000  1
  Al  Al0  1  0.00283405  0.00283405  -0.00000000  1
  O  O0  1  0.83961712  0.83961712  0.00000000  1
  O  O1  1  0.16691146  0.16691146  -0.00000000  1
  O  O2  1  0.99304080  0.49304080  0.50000000  1
  O  O3  1  0.49304080  0.99304080  0.50000000  1
loop_
_geom_bond_atom_site_label_1
_geom_bond_atom_site_label_2
_geom_bond_distance
_geom_bond_site_symmetry_2
Al0 O2 1.862841 1_455
Al0 O3 1.862841 1_444
Al0 O3 1.862841 1_545
Al0 O2 1.862841 1_444
Al0 O0 2.004251 1_445
Al0 O1 2.014817 1_555
O0 Sr0 2.399735 1_555
O0 Sm0 2.641275 1_565
O0 Sm0 2.641275 1_655
O0 Sm0 2.641275 1_554
O0 Sm0 2.641275 1_666
O1 Sm0 2.375522 1_555
O1 Sr0 2.643720 1_556
O1 Sr0 2.643720 1_444
O1 Sr0 2.643720 1_545
O1 Sr0 2.643720 1_455
O2 Sm0 2.471869 1_555
O2 Sm0 2.471869 1_656
O2 Sr0 2.626948 1_555
O2 Sr0 2.626948 1_656
O3 Sm0 2.471869 1_555
O3 Sm0 2.471869 1_566
O3 Sr0 2.626948 1_555
O3 Sr0 2.626948 1_566
