# generated using pymatgen
data_CeAl3(PO7)2
_symmetry_space_group_name_H-M   'P 1'
_cell_length_a   6.69067568
_cell_length_b   6.69067568
_cell_length_c   6.69067575
_cell_angle_alpha   62.56346673
_cell_angle_beta   62.56346673
_cell_angle_gamma   62.56346504
_symmetry_Int_Tables_number   1
_chemical_formula_structural   CeAl3(PO7)2
_chemical_formula_sum   'Ce1 Al3 P2 O14'
_cell_volume   223.87785507
_cell_formula_units_Z   1
loop_
 _symmetry_equiv_pos_site_id
 _symmetry_equiv_pos_as_xyz
  1  'x, y, z'
loop_
 _atom_site_type_symbol
 _atom_site_label
 _atom_site_symmetry_multiplicity
 _atom_site_fract_x
 _atom_site_fract_y
 _atom_site_fract_z
 _atom_site_occupancy
  Ce  Ce0  1  0.00000100  0.00000100  0.00000100  1
  Al  Al0  1  0.49999500  0.00000600  0.00000600  1
  Al  Al1  1  0.00000600  0.00000600  0.49999500  1
  Al  Al2  1  0.00000600  0.49999500  0.00000600  1
  P  P0  1  0.68191800  0.68191800  0.68191800  1
  P  P1  1  0.31798500  0.31798500  0.31798500  1
  O  O0  1  0.58692400  0.58692400  0.58692400  1
  O  O1  1  0.41320400  0.41320400  0.41320400  1
  O  O2  1  0.47679100  0.83870400  0.83870400  1
  O  O3  1  0.83870400  0.83870400  0.47679100  1
  O  O4  1  0.83870400  0.47679100  0.83870400  1
  O  O5  1  0.52322100  0.16131000  0.16131000  1
  O  O6  1  0.16131000  0.16131000  0.52322100  1
  O  O7  1  0.16131000  0.52322100  0.16131000  1
  O  O8  1  0.09510600  0.75874400  0.75874400  1
  O  O9  1  0.75874400  0.75874400  0.09510600  1
  O  O10  1  0.75874400  0.09510600  0.75874400  1
  O  O11  1  0.90489700  0.24126400  0.24126400  1
  O  O12  1  0.24126400  0.24126400  0.90489700  1
  O  O13  1  0.24126400  0.90489700  0.24126400  1
loop_
_geom_bond_atom_site_label_1
_geom_bond_atom_site_label_2
_geom_bond_distance
_geom_bond_site_symmetry_2
Ce0 O8 2.474681 1_544
Ce0 O10 2.474681 1_454
Ce0 O9 2.474681 1_445
Ce0 O13 2.474750 1_545
Ce0 O11 2.474750 1_455
Ce0 O12 2.474750 1_554
Ce0 O5 2.689545 1_455
Ce0 O7 2.689545 1_545
Ce0 O6 2.689545 1_554
Ce0 O2 2.689593 1_544
Ce0 O4 2.689593 1_454
Ce0 O3 2.689593 1_445
Al0 O12 1.871016 1_554
Al0 O13 1.871016 1_545
Al0 O9 1.871083 1_545
Al0 O10 1.871083 1_554
Al0 O2 1.932785 1_544
Al0 O5 1.932895 1_555
Al1 O11 1.871016 1_455
Al1 O13 1.871016 1_545
Al1 O10 1.871083 1_455
Al1 O8 1.871083 1_545
Al1 O3 1.932785 1_445
Al1 O6 1.932895 1_555
Al2 O12 1.871016 1_554
Al2 O11 1.871016 1_455
Al2 O9 1.871083 1_455
Al2 O8 1.871083 1_554
Al2 O4 1.932785 1_454
Al2 O7 1.932895 1_555
O0 P0 1.525986 1_555
O1 P1 1.529600 1_555
O2 P0 1.563657 1_555
O3 P0 1.563657 1_555
O4 P0 1.563657 1_555
O5 P1 1.562992 1_555
O6 P1 1.562992 1_555
O7 P1 1.562992 1_555
