# generated using pymatgen
data_GdCo4Si
_symmetry_space_group_name_H-M   'P 1'
_cell_length_a   3.71209400
_cell_length_b   5.07752805
_cell_length_c   5.07446662
_cell_angle_alpha   59.99583105
_cell_angle_beta   90.00000000
_cell_angle_gamma   90.00000000
_symmetry_Int_Tables_number   1
_chemical_formula_structural   GdCo4Si
_chemical_formula_sum   'Gd1 Co4 Si1'
_cell_volume   82.82741012
_cell_formula_units_Z   1
loop_
 _symmetry_equiv_pos_site_id
 _symmetry_equiv_pos_as_xyz
  1  'x, y, z'
loop_
 _atom_site_type_symbol
 _atom_site_label
 _atom_site_symmetry_multiplicity
 _atom_site_fract_x
 _atom_site_fract_y
 _atom_site_fract_z
 _atom_site_occupancy
  Gd  Gd0  1  0.00000000  0.00008100  0.99999400  1
  Co  Co0  1  0.00000000  0.66667900  0.66680500  1
  Co  Co1  1  0.50000000  0.49992800  0.50000100  1
  Co  Co2  1  0.50000000  0.49989200  0.00007500  1
  Co  Co3  1  0.50000000  0.99980900  0.50006700  1
  Si  Si0  1  0.00000000  0.33351100  0.33315800  1
loop_
_geom_bond_atom_site_label_1
_geom_bond_atom_site_label_2
_geom_bond_distance
_geom_bond_site_symmetry_2
Gd0 Si0 2.930366 1_555
Gd0 Si0 2.930371 1_556
Gd0 Si0 2.930965 1_546
Co0 Co2 2.364269 1_556
Co0 Co2 2.364269 1_456
Co0 Co3 2.364435 1_455
Co0 Co3 2.364435 1_555
Co0 Co1 2.365376 1_455
Co0 Co1 2.365376 1_555
Co0 Gd0 2.930256 1_564
Co0 Gd0 2.930358 1_565
Co0 Gd0 2.931088 1_555
Co1 Si0 2.364572 1_655
Co1 Si0 2.364572 1_555
Co1 Co2 2.536949 1_555
Co1 Co2 2.537517 1_556
Co1 Co3 2.538327 1_555
Co1 Co3 2.539201 1_545
Co1 Gd0 3.143799 1_555
Co1 Gd0 3.143799 1_655
Co1 Gd0 3.144456 1_664
Co1 Gd0 3.144456 1_564
Co2 Si0 2.363760 1_555
Co2 Si0 2.363760 1_655
Co2 Co3 2.537648 1_554
Co2 Co3 2.538030 1_545
Co2 Gd0 3.144265 1_554
Co2 Gd0 3.144265 1_654
Co2 Gd0 3.145483 1_564
Co2 Gd0 3.145483 1_664
Co3 Si0 2.365994 1_565
Co3 Si0 2.365994 1_665
Co3 Gd0 3.143380 1_564
Co3 Gd0 3.143380 1_664
Co3 Gd0 3.143897 1_665
Co3 Gd0 3.143897 1_565
