# generated using pymatgen
data_Li4MnCo2O7
_symmetry_space_group_name_H-M   'P 1'
_cell_length_a   4.95962800
_cell_length_b   5.87472207
_cell_length_c   8.92741790
_cell_angle_alpha   90.32362944
_cell_angle_beta   96.23884302
_cell_angle_gamma   106.09002667
_symmetry_Int_Tables_number   1
_chemical_formula_structural   Li4MnCo2O7
_chemical_formula_sum   'Li8 Mn2 Co4 O14'
_cell_volume   248.26941307
_cell_formula_units_Z   2
loop_
 _symmetry_equiv_pos_site_id
 _symmetry_equiv_pos_as_xyz
  1  'x, y, z'
loop_
 _atom_site_type_symbol
 _atom_site_label
 _atom_site_symmetry_multiplicity
 _atom_site_fract_x
 _atom_site_fract_y
 _atom_site_fract_z
 _atom_site_occupancy
  Li  Li0  1  0.43613500  0.36520000  0.83901000  1
  Li  Li1  1  0.70898200  0.92637700  0.43558600  1
  Li  Li2  1  0.86633800  0.21834500  0.70754600  1
  Li  Li3  1  0.14718700  0.78063300  0.29827900  1
  Li  Li4  1  0.29031100  0.06708900  0.57003700  1
  Li  Li5  1  0.56662500  0.64106800  0.14478600  1
  Li  Li6  1  0.99585500  0.50381300  0.99814100  1
  Li  Li7  1  0.29285800  0.57575500  0.57214900  1
  Mn  Mn0  1  0.99658700  0.99669000  0.00100900  1
  Mn  Mn1  1  0.13963200  0.28392000  0.28628100  1
  Co  Co0  1  0.56411900  0.14032900  0.14419200  1
  Co  Co1  1  0.85457800  0.71324900  0.70318200  1
  Co  Co2  1  0.42970800  0.85707400  0.85487700  1
  Co  Co3  1  0.72003800  0.43503800  0.43556500  1
  O  O0  1  0.27139600  0.29498800  0.08240700  1
  O  O1  1  0.59458700  0.89213900  0.65407300  1
  O  O2  1  0.70359500  0.15548800  0.94554100  1
  O  O3  1  0.98717600  0.74400000  0.50022600  1
  O  O4  1  0.14826700  0.02790700  0.80878300  1
  O  O5  1  0.41991700  0.57288700  0.34718500  1
  O  O6  1  0.85201100  0.43315500  0.21378300  1
  O  O7  1  0.59649700  0.39937600  0.63782400  1
  O  O8  1  0.85475100  0.98492800  0.20206700  1
  O  O9  1  0.99839300  0.25409300  0.47618800  1
  O  O10  1  0.27839000  0.84709900  0.07580200  1
  O  O11  1  0.41916000  0.11735400  0.33952500  1
  O  O12  1  0.71635400  0.70461800  0.93193400  1
  O  O13  1  0.15055400  0.56738800  0.79401900  1
loop_
_geom_bond_atom_site_label_1
_geom_bond_atom_site_label_2
_geom_bond_distance
_geom_bond_site_symmetry_2
Li0 O7 2.030955 1_555
Li0 O4 2.092763 1_555
Li0 O13 2.095848 1_555
Li0 O12 2.188682 1_555
Li0 O2 2.197002 1_555
Li0 O0 2.401752 1_556
Li1 O3 2.009464 1_555
Li1 O9 2.060462 1_565
Li1 O1 2.085330 1_555
Li1 O11 2.167297 1_565
Li1 O5 2.253001 1_555
Li1 O8 2.277035 1_555
Li2 O7 1.981138 1_555
Li2 O1 2.033481 1_545
Li2 O4 2.151156 1_655
Li2 O13 2.220600 1_655
Li2 O9 2.227494 1_555
Li2 O2 2.349148 1_555
Li3 O3 2.036447 1_455
Li3 O11 2.067105 1_565
Li3 O5 2.074238 1_555
Li3 O10 2.160902 1_555
Li3 O6 2.228310 1_455
Li3 O8 2.233272 1_455
Li4 O3 2.110121 1_445
Li4 O1 2.125772 1_545
Li4 O7 2.150980 1_555
Li4 O9 2.152533 1_455
Li4 O11 2.217775 1_555
Li4 O4 2.309566 1_555
Li5 O5 2.021666 1_555
Li5 O12 2.112512 1_554
Li5 O8 2.147951 1_555
Li5 O6 2.156843 1_555
Li5 O10 2.159633 1_555
Li5 O0 2.178886 1_555
Li6 O13 2.049783 1_655
Li6 O12 2.097335 1_555
Li6 O6 2.128558 1_556
Li6 O0 2.157484 1_656
Li6 O2 2.169343 1_555
Li6 O10 2.172094 1_656
Li7 O3 2.076981 1_455
Li7 O7 2.089296 1_555
Li7 O1 2.105703 1_555
Li7 O9 2.148888 1_455
Li7 O13 2.170143 1_555
Li7 O5 2.170582 1_555
Mn0 O10 1.912103 1_655
Mn0 O12 1.932867 1_554
Mn0 O4 1.937049 1_664
Mn0 O2 1.956355 1_564
Mn0 O0 1.975626 1_665
Mn0 O8 1.992557 1_555
Mn1 O9 1.894504 1_455
Mn1 O5 1.904501 1_555
Mn1 O11 1.928579 1_555
Mn1 O6 1.929084 1_455
Mn1 O0 1.995054 1_555
Mn1 O8 2.006334 1_445
Co0 O8 1.936748 1_545
Co0 O10 1.948181 1_545
Co0 O11 1.948682 1_555
Co0 O0 1.949420 1_555
Co0 O6 1.953882 1_555
Co0 O2 1.966167 1_554
Co1 O1 1.895479 1_555
Co1 O7 1.973860 1_555
Co1 O3 1.986160 1_555
Co1 O13 1.998263 1_655
Co1 O4 2.148689 1_665
Co1 O12 2.220170 1_555
Co2 O13 1.904804 1_555
Co2 O4 1.944538 1_565
Co2 O12 1.948508 1_555
Co2 O2 1.999673 1_565
Co2 O1 2.038180 1_555
Co2 O10 2.180647 1_556
Co3 O7 1.962975 1_555
Co3 O3 1.967749 1_555
Co3 O9 1.968845 1_555
Co3 O5 1.978398 1_555
Co3 O11 2.145960 1_555
Co3 O6 2.152705 1_555
