# generated using pymatgen
data_Cu3P4C4(NO6)2
_symmetry_space_group_name_H-M   'P 1'
_cell_length_a   9.37962400
_cell_length_b   9.44841100
_cell_length_c   16.88551600
_cell_angle_alpha   90.00000000
_cell_angle_beta   90.00000000
_cell_angle_gamma   90.00000000
_symmetry_Int_Tables_number   1
_chemical_formula_structural   Cu3P4C4(NO6)2
_chemical_formula_sum   'Cu12 P16 C16 N8 O48'
_cell_volume   1496.43736065
_cell_formula_units_Z   4
loop_
 _symmetry_equiv_pos_site_id
 _symmetry_equiv_pos_as_xyz
  1  'x, y, z'
loop_
 _atom_site_type_symbol
 _atom_site_label
 _atom_site_symmetry_multiplicity
 _atom_site_fract_x
 _atom_site_fract_y
 _atom_site_fract_z
 _atom_site_occupancy
  Cu  Cu0  1  0.00000000  0.00000000  0.00000000  1
  Cu  Cu1  1  0.50000000  0.00000000  0.50000000  1
  Cu  Cu2  1  0.50000000  0.50000000  0.00000000  1
  Cu  Cu3  1  0.00000000  0.50000000  0.50000000  1
  Cu  Cu4  1  0.23963300  0.56323700  0.14408100  1
  Cu  Cu5  1  0.26036700  0.43676300  0.64408100  1
  Cu  Cu6  1  0.73963300  0.93676300  0.85591900  1
  Cu  Cu7  1  0.76036700  0.06323700  0.35591900  1
  Cu  Cu8  1  0.76036700  0.43676300  0.85591900  1
  Cu  Cu9  1  0.73963300  0.56323700  0.35591900  1
  Cu  Cu10  1  0.26036700  0.06323700  0.14408100  1
  Cu  Cu11  1  0.23963300  0.93676300  0.64408100  1
  P  P0  1  0.28321000  0.81340900  0.03224400  1
  P  P1  1  0.21679000  0.18659100  0.53224400  1
  P  P2  1  0.78321000  0.68659100  0.96775600  1
  P  P3  1  0.71679000  0.31340900  0.46775600  1
  P  P4  1  0.71679000  0.18659100  0.96775600  1
  P  P5  1  0.78321000  0.81340900  0.46775600  1
  P  P6  1  0.21679000  0.31340900  0.03224400  1
  P  P7  1  0.28321000  0.68659100  0.53224400  1
  P  P8  1  0.04253000  0.58368000  0.30607400  1
  P  P9  1  0.45747000  0.41632000  0.80607400  1
  P  P10  1  0.54253000  0.91632000  0.69392600  1
  P  P11  1  0.95747000  0.08368000  0.19392600  1
  P  P12  1  0.95747000  0.41632000  0.69392600  1
  P  P13  1  0.54253000  0.58368000  0.19392600  1
  P  P14  1  0.45747000  0.08368000  0.30607400  1
  P  P15  1  0.04253000  0.91632000  0.80607400  1
  C  C0  1  0.34299000  0.80777300  0.92956700  1
  C  C1  1  0.15701000  0.19222700  0.42956700  1
  C  C2  1  0.84299000  0.69222700  0.07043300  1
  C  C3  1  0.65701000  0.30777300  0.57043300  1
  C  C4  1  0.65701000  0.19222700  0.07043300  1
  C  C5  1  0.84299000  0.80777300  0.57043300  1
  C  C6  1  0.15701000  0.30777300  0.92956700  1
  C  C7  1  0.34299000  0.69222700  0.42956700  1
  C  C8  1  0.16246400  0.76610900  0.82804600  1
  C  C9  1  0.33753600  0.23389100  0.32804600  1
  C  C10  1  0.66246400  0.73389100  0.17195400  1
  C  C11  1  0.83753600  0.26610900  0.67195400  1
  C  C12  1  0.83753600  0.23389100  0.17195400  1
  C  C13  1  0.66246400  0.76610900  0.67195400  1
  C  C14  1  0.33753600  0.26610900  0.82804600  1
  C  C15  1  0.16246400  0.73389100  0.32804600  1
  N  N0  1  0.26397100  0.77548700  0.87395600  1
  N  N1  1  0.23602900  0.22451300  0.37395600  1
  N  N2  1  0.76397100  0.72451300  0.12604400  1
  N  N3  1  0.73602900  0.27548700  0.62604400  1
  N  N4  1  0.73602900  0.22451300  0.12604400  1
  N  N5  1  0.76397100  0.77548700  0.62604400  1
  N  N6  1  0.23602900  0.27548700  0.87395600  1
  N  N7  1  0.26397100  0.72451300  0.37395600  1
  O  O0  1  0.12293100  0.83804900  0.02369000  1
  O  O1  1  0.37706900  0.16195100  0.52369000  1
  O  O2  1  0.62293100  0.66195100  0.97631000  1
  O  O3  1  0.87706900  0.33804900  0.47631000  1
  O  O4  1  0.87706900  0.16195100  0.97631000  1
  O  O5  1  0.62293100  0.83804900  0.47631000  1
  O  O6  1  0.37706900  0.33804900  0.02369000  1
  O  O7  1  0.12293100  0.66195100  0.52369000  1
  O  O8  1  0.31640600  0.65682500  0.05055500  1
  O  O9  1  0.18359400  0.34317500  0.55055500  1
  O  O10  1  0.81640600  0.84317500  0.94944500  1
  O  O11  1  0.68359400  0.15682500  0.44944500  1
  O  O12  1  0.68359400  0.34317500  0.94944500  1
  O  O13  1  0.81640600  0.65682500  0.44944500  1
  O  O14  1  0.18359400  0.15682500  0.05055500  1
  O  O15  1  0.31640600  0.84317500  0.55055500  1
  O  O16  1  0.13514700  0.42271700  0.07967300  1
  O  O17  1  0.36485300  0.57728300  0.57967300  1
  O  O18  1  0.63514700  0.07728300  0.92032700  1
  O  O19  1  0.86485300  0.92271700  0.42032700  1
  O  O20  1  0.86485300  0.57728300  0.92032700  1
  O  O21  1  0.63514700  0.42271700  0.42032700  1
  O  O22  1  0.36485300  0.92271700  0.07967300  1
  O  O23  1  0.13514700  0.07728300  0.57967300  1
  O  O24  1  0.93976100  0.99565600  0.11885900  1
  O  O25  1  0.56023900  0.00434400  0.61885900  1
  O  O26  1  0.43976100  0.50434400  0.88114100  1
  O  O27  1  0.06023900  0.49565600  0.38114100  1
  O  O28  1  0.06023900  0.00434400  0.88114100  1
  O  O29  1  0.43976100  0.99565600  0.38114100  1
  O  O30  1  0.56023900  0.49565600  0.11885900  1
  O  O31  1  0.93976100  0.50434400  0.61885900  1
  O  O32  1  0.11405700  0.52284600  0.23319200  1
  O  O33  1  0.38594300  0.47715400  0.73319200  1
  O  O34  1  0.61405700  0.97715400  0.76680800  1
  O  O35  1  0.88594300  0.02284600  0.26680800  1
  O  O36  1  0.88594300  0.47715400  0.76680800  1
  O  O37  1  0.61405700  0.52284600  0.26680800  1
  O  O38  1  0.38594300  0.02284600  0.23319200  1
  O  O39  1  0.11405700  0.97715400  0.73319200  1
  O  O40  1  0.39182400  0.63854900  0.20976400  1
  O  O41  1  0.10817600  0.36145100  0.70976400  1
  O  O42  1  0.89182400  0.86145100  0.79023600  1
  O  O43  1  0.60817600  0.13854900  0.29023600  1
  O  O44  1  0.60817600  0.36145100  0.79023600  1
  O  O45  1  0.89182400  0.63854900  0.29023600  1
  O  O46  1  0.10817600  0.13854900  0.20976400  1
  O  O47  1  0.39182400  0.86145100  0.70976400  1
loop_
_geom_bond_atom_site_label_1
_geom_bond_atom_site_label_2
_geom_bond_distance
_geom_bond_site_symmetry_2
Cu0 O4 1.957289 1_454
Cu0 O0 1.957289 1_545
Cu0 O24 2.085417 1_445
Cu0 O28 2.085417 1_554
Cu0 O14 2.426874 1_555
Cu0 O10 2.426874 1_444
Cu1 O1 1.957289 1_555
Cu1 O5 1.957289 1_545
Cu1 O25 2.085417 1_555
Cu1 O29 2.085417 1_545
Cu1 O11 2.426874 1_555
Cu1 O15 2.426874 1_545
Cu2 O2 1.957289 1_554
Cu2 O6 1.957289 1_555
Cu2 O30 2.085417 1_555
Cu2 O26 2.085417 1_554
Cu2 O12 2.426874 1_554
Cu2 O8 2.426874 1_555
Cu3 O7 1.957289 1_555
Cu3 O3 1.957289 1_455
Cu3 O31 2.085417 1_455
Cu3 O27 2.085417 1_555
Cu3 O9 2.426874 1_555
Cu3 O13 2.426874 1_455
Cu4 O40 1.942722 1_555
Cu4 O8 1.947933 1_555
Cu4 O32 1.948606 1_555
Cu4 O16 1.976368 1_555
Cu5 O41 1.942722 1_555
Cu5 O9 1.947933 1_555
Cu5 O33 1.948606 1_555
Cu5 O17 1.976368 1_555
Cu6 O42 1.942722 1_555
Cu6 O10 1.947933 1_555
Cu6 O34 1.948606 1_555
Cu6 O18 1.976368 1_565
Cu7 O43 1.942722 1_555
Cu7 O11 1.947933 1_555
Cu7 O35 1.948606 1_555
Cu7 O19 1.976368 1_545
Cu8 O44 1.942722 1_555
Cu8 O12 1.947933 1_555
Cu8 O36 1.948606 1_555
Cu8 O20 1.976368 1_555
Cu9 O45 1.942722 1_555
Cu9 O13 1.947933 1_555
Cu9 O37 1.948606 1_555
Cu9 O21 1.976368 1_555
Cu10 O46 1.942722 1_555
Cu10 O14 1.947933 1_555
Cu10 O38 1.948606 1_555
Cu10 O22 1.976368 1_545
Cu11 O47 1.942722 1_555
Cu11 O15 1.947933 1_555
Cu11 O39 1.948606 1_555
Cu11 O23 1.976368 1_565
C0 N0 1.234563 1_555
C0 P0 1.822948 1_556
C1 N1 1.234563 1_555
C1 P1 1.822948 1_555
C2 N2 1.234563 1_555
C2 P2 1.822948 1_554
C3 N3 1.234563 1_555
C3 P3 1.822948 1_555
C4 N4 1.234563 1_555
C4 P4 1.822948 1_554
C5 N5 1.234563 1_555
C5 P5 1.822948 1_555
C6 N6 1.234563 1_555
C6 P6 1.822948 1_556
C7 N7 1.234563 1_555
C7 P7 1.822948 1_555
C8 N0 1.230974 1_555
C8 P15 1.848625 1_555
C9 N1 1.230974 1_555
C9 P14 1.848625 1_555
C10 N2 1.230974 1_555
C10 P13 1.848625 1_555
C11 N3 1.230974 1_555
C11 P12 1.848625 1_555
C12 N4 1.230974 1_555
C12 P11 1.848625 1_555
C13 N5 1.230974 1_555
C13 P10 1.848625 1_555
C14 N6 1.230974 1_555
C14 P9 1.848625 1_555
C15 N7 1.230974 1_555
C15 P8 1.848625 1_555
O0 P0 1.528118 1_555
O1 P1 1.528118 1_555
O2 P2 1.528118 1_555
O3 P3 1.528118 1_555
O4 P4 1.528118 1_555
O5 P5 1.528118 1_555
O6 P6 1.528118 1_555
O7 P7 1.528118 1_555
O8 P0 1.543172 1_555
O9 P1 1.543172 1_555
O10 P2 1.543172 1_555
O11 P3 1.543172 1_555
O12 P4 1.543172 1_555
O13 P5 1.543172 1_555
O14 P6 1.543172 1_555
O15 P7 1.543172 1_555
O16 P6 1.514744 1_555
O17 P7 1.514744 1_555
O18 P4 1.514744 1_555
O19 P5 1.514744 1_555
O20 P2 1.514744 1_555
O21 P3 1.514744 1_555
O22 P0 1.514744 1_555
O23 P1 1.514744 1_555
O24 P11 1.525111 1_565
O25 P10 1.525111 1_545
O26 P9 1.525111 1_555
O27 P8 1.525111 1_555
O28 P15 1.525111 1_545
O29 P14 1.525111 1_565
O30 P13 1.525111 1_555
O31 P12 1.525111 1_555
O32 P8 1.514919 1_555
O33 P9 1.514919 1_555
O34 P10 1.514919 1_555
O35 P11 1.514919 1_555
O36 P12 1.514919 1_555
O37 P13 1.514919 1_555
O38 P14 1.514919 1_555
O39 P15 1.514919 1_555
O40 P13 1.529200 1_555
O41 P12 1.529200 1_455
O42 P15 1.529200 1_655
O43 P14 1.529200 1_555
O44 P9 1.529200 1_555
O45 P8 1.529200 1_655
O46 P11 1.529200 1_455
O47 P10 1.529200 1_555
