# generated using pymatgen
data_Li5Mn(CoO4)2
_symmetry_space_group_name_H-M   'P 1'
_cell_length_a   5.83874200
_cell_length_b   4.96760100
_cell_length_c   5.08072017
_cell_angle_alpha   70.78659421
_cell_angle_beta   90.00000000
_cell_angle_gamma   90.00000000
_symmetry_Int_Tables_number   1
_chemical_formula_structural   Li5Mn(CoO4)2
_chemical_formula_sum   'Li5 Mn1 Co2 O8'
_cell_volume   139.15569352
_cell_formula_units_Z   1
loop_
 _symmetry_equiv_pos_site_id
 _symmetry_equiv_pos_as_xyz
  1  'x, y, z'
loop_
 _atom_site_type_symbol
 _atom_site_label
 _atom_site_symmetry_multiplicity
 _atom_site_fract_x
 _atom_site_fract_y
 _atom_site_fract_z
 _atom_site_occupancy
  Li  Li0  1  0.99194000  0.50000000  0.50000000  1
  Li  Li1  1  0.74751300  0.00000000  0.50000000  1
  Li  Li2  1  0.50801800  0.50000000  0.50000000  1
  Li  Li3  1  0.25155900  0.00000000  0.50000000  1
  Li  Li4  1  0.74865600  0.50000000  0.00000000  1
  Mn  Mn0  1  0.99936200  0.00000000  0.00000000  1
  Co  Co0  1  0.51031900  0.00000000  0.00000000  1
  Co  Co1  1  0.24601700  0.50000000  0.00000000  1
  O  O0  1  0.01926300  0.74688500  0.78358400  1
  O  O1  1  0.76403400  0.22236700  0.76189500  1
  O  O2  1  0.47652900  0.74149100  0.78159900  1
  O  O3  1  0.23848200  0.25258600  0.77707700  1
  O  O4  1  0.01926300  0.25311500  0.21641600  1
  O  O5  1  0.76403400  0.77763300  0.23810500  1
  O  O6  1  0.47652900  0.25850900  0.21840100  1
  O  O7  1  0.23848200  0.74741400  0.22292300  1
loop_
_geom_bond_atom_site_label_1
_geom_bond_atom_site_label_2
_geom_bond_distance
_geom_bond_site_symmetry_2
Li0 O5 2.058038 1_555
Li0 O1 2.058038 1_555
Li0 O3 2.103736 1_655
Li0 O7 2.103736 1_655
Li0 O0 2.183698 1_655
Li0 O4 2.183698 1_655
Li1 O1 1.991849 1_555
Li1 O5 1.991849 1_545
Li1 O0 2.232061 1_645
Li1 O4 2.232061 1_655
Li1 O2 2.233871 1_545
Li1 O6 2.233871 1_555
Li2 O2 2.156281 1_555
Li2 O6 2.156281 1_555
Li2 O5 2.167778 1_555
Li2 O1 2.167778 1_555
Li2 O3 2.197784 1_555
Li2 O7 2.197784 1_555
Li3 O2 2.052364 1_545
Li3 O6 2.052364 1_555
Li3 O4 2.074643 1_555
Li3 O0 2.074643 1_545
Li3 O3 2.173606 1_555
Li3 O7 2.173606 1_545
Li4 O6 2.078175 1_555
Li4 O2 2.078175 1_554
Li4 O4 2.078938 1_655
Li4 O0 2.078938 1_654
Li4 O5 2.114659 1_555
Li4 O1 2.114659 1_554
Mn0 O5 1.921481 1_545
Mn0 O1 1.921481 1_554
Mn0 O0 1.927033 1_644
Mn0 O4 1.927033 1_655
Mn0 O3 1.967511 1_654
Mn0 O7 1.967511 1_645
Co0 O6 1.963969 1_555
Co0 O2 1.963969 1_544
Co0 O5 1.999658 1_545
Co0 O1 1.999658 1_554
Co0 O3 2.107367 1_554
Co0 O7 2.107367 1_545
Co1 O4 1.891675 1_555
Co1 O0 1.891675 1_554
Co1 O6 1.898873 1_555
Co1 O2 1.898873 1_554
Co1 O7 1.926530 1_555
Co1 O3 1.926530 1_554
