# generated using pymatgen
data_LaHfF7
_symmetry_space_group_name_H-M   'P 1'
_cell_length_a   5.80840937
_cell_length_b   6.31706503
_cell_length_c   8.48241821
_cell_angle_alpha   77.96971587
_cell_angle_beta   90.00000000
_cell_angle_gamma   90.00000000
_symmetry_Int_Tables_number   1
_chemical_formula_structural   LaHfF7
_chemical_formula_sum   'La2 Hf2 F14'
_cell_volume   304.40219811
_cell_formula_units_Z   2
loop_
 _symmetry_equiv_pos_site_id
 _symmetry_equiv_pos_as_xyz
  1  'x, y, z'
loop_
 _atom_site_type_symbol
 _atom_site_label
 _atom_site_symmetry_multiplicity
 _atom_site_fract_x
 _atom_site_fract_y
 _atom_site_fract_z
 _atom_site_occupancy
  La  La0  1  0.20079292  0.66182163  0.31273472  1
  La  La1  1  0.70079292  0.33817837  0.68726528  1
  Hf  Hf0  1  0.21124203  0.80704075  0.77782985  1
  Hf  Hf1  1  0.71124203  0.19295925  0.22217015  1
  F  F0  1  0.36822745  0.43470623  0.53246036  1
  F  F1  1  0.86822745  0.56529377  0.46753964  1
  F  F2  1  0.93098361  0.95063533  0.22494152  1
  F  F3  1  0.43098361  0.04936467  0.77505848  1
  F  F4  1  0.45816855  0.97521830  0.23874730  1
  F  F5  1  0.95816855  0.02478170  0.76125270  1
  F  F6  1  0.50011097  0.44310143  0.21433906  1
  F  F7  1  0.00011097  0.55689857  0.78566094  1
  F  F8  1  0.20122430  0.75584373  0.01653713  1
  F  F9  1  0.70122430  0.24415627  0.98346287  1
  F  F10  1  0.21900780  0.85713974  0.53790324  1
  F  F11  1  0.71900780  0.14286026  0.46209676  1
  F  F12  1  0.98660138  0.38437007  0.21155618  1
  F  F13  1  0.48660138  0.61562993  0.78844382  1
loop_
_geom_bond_atom_site_label_1
_geom_bond_atom_site_label_2
_geom_bond_distance
_geom_bond_site_symmetry_2
F0 La0 2.315874 1_555
F0 La1 2.343865 1_555
F1 La1 2.315874 1_555
F1 La0 2.343865 1_655
F2 Hf1 1.989446 1_565
F2 La0 2.402674 1_655
F3 Hf0 1.989446 1_545
F3 La1 2.402674 1_555
F4 Hf1 1.997966 1_565
F4 La0 2.455645 1_555
F5 Hf0 1.997966 1_645
F5 La1 2.455645 1_555
F6 Hf1 1.990346 1_555
F6 La0 2.471626 1_555
F7 Hf0 1.990346 1_555
F7 La1 2.471626 1_455
F8 Hf0 1.983653 1_554
F8 La0 2.458298 1_555
F9 Hf1 1.983653 1_556
F9 La1 2.458298 1_555
F10 Hf0 1.993883 1_555
F10 La0 2.482723 1_555
F11 Hf1 1.993883 1_555
F11 La1 2.482723 1_555
F12 Hf1 1.995710 1_555
F12 La0 2.446082 1_655
F13 Hf0 1.995710 1_555
F13 La1 2.446082 1_555
