# generated using pymatgen
data_Sr2Mg
_symmetry_space_group_name_H-M   'P 1'
_cell_length_a   16.04194481
_cell_length_b   16.04194481
_cell_length_c   16.65944628
_cell_angle_alpha   75.12319375
_cell_angle_beta   75.12319375
_cell_angle_gamma   30.15027067
_symmetry_Int_Tables_number   1
_chemical_formula_structural   Sr2Mg
_chemical_formula_sum   'Sr32 Mg16'
_cell_volume   2075.82052262
_cell_formula_units_Z   16
loop_
 _symmetry_equiv_pos_site_id
 _symmetry_equiv_pos_as_xyz
  1  'x, y, z'
loop_
 _atom_site_type_symbol
 _atom_site_label
 _atom_site_symmetry_multiplicity
 _atom_site_fract_x
 _atom_site_fract_y
 _atom_site_fract_z
 _atom_site_occupancy
  Sr  Sr0_0  1  0.42872727  0.42872727  0.03679555  1
  Sr  Sr0_1  1  0.42872727  0.42872727  0.53679554  1
  Sr  Sr0_2  1  0.42872727  0.92872727  0.03679555  1
  Sr  Sr0_3  1  0.42872727  0.92872726  0.53679555  1
  Sr  Sr0_4  1  0.92872727  0.42872727  0.03679555  1
  Sr  Sr0_5  1  0.92872726  0.42872727  0.53679555  1
  Sr  Sr0_6  1  0.92872727  0.92872727  0.03679555  1
  Sr  Sr0_7  1  0.92872727  0.92872727  0.53679555  1
  Sr  Sr1_0  1  0.07085373  0.07085372  0.21515609  1
  Sr  Sr1_1  1  0.07085372  0.07085372  0.71515609  1
  Sr  Sr1_2  1  0.07085373  0.57085373  0.21515609  1
  Sr  Sr1_3  1  0.07085373  0.57085372  0.71515609  1
  Sr  Sr1_4  1  0.57085372  0.07085373  0.21515609  1
  Sr  Sr1_5  1  0.57085372  0.07085372  0.71515609  1
  Sr  Sr1_6  1  0.57085372  0.57085372  0.21515609  1
  Sr  Sr1_7  1  0.57085373  0.57085373  0.71515609  1
  Sr  Sr2_0  1  0.42914628  0.42914628  0.28484391  1
  Sr  Sr2_1  1  0.42914628  0.42914628  0.78484391  1
  Sr  Sr2_2  1  0.42914628  0.92914628  0.28484391  1
  Sr  Sr2_3  1  0.42914628  0.92914628  0.78484391  1
  Sr  Sr2_4  1  0.92914628  0.42914628  0.28484391  1
  Sr  Sr2_5  1  0.92914628  0.42914627  0.78484391  1
  Sr  Sr2_6  1  0.92914628  0.92914628  0.28484391  1
  Sr  Sr2_7  1  0.92914628  0.92914628  0.78484391  1
  Sr  Sr3_0  1  0.07127273  0.07127273  0.46320446  1
  Sr  Sr3_1  1  0.07127274  0.07127274  0.96320445  1
  Sr  Sr3_2  1  0.07127274  0.57127273  0.46320446  1
  Sr  Sr3_3  1  0.07127274  0.57127273  0.96320446  1
  Sr  Sr3_4  1  0.57127273  0.07127274  0.46320446  1
  Sr  Sr3_5  1  0.57127273  0.07127274  0.96320446  1
  Sr  Sr3_6  1  0.57127274  0.57127274  0.46320446  1
  Sr  Sr3_7  1  0.57127273  0.57127273  0.96320446  1
  Mg  Mg0_0  1  0.25088650  0.25088650  0.12456074  1
  Mg  Mg0_1  1  0.25088650  0.25088650  0.62456074  1
  Mg  Mg0_2  1  0.25088650  0.75088650  0.12456074  1
  Mg  Mg0_3  1  0.25088650  0.75088650  0.62456074  1
  Mg  Mg0_4  1  0.75088650  0.25088650  0.12456074  1
  Mg  Mg0_5  1  0.75088650  0.25088650  0.62456074  1
  Mg  Mg0_6  1  0.75088650  0.75088650  0.12456074  1
  Mg  Mg0_7  1  0.75088650  0.75088650  0.62456073  1
  Mg  Mg1_0  1  0.24911350  0.24911350  0.37543927  1
  Mg  Mg1_1  1  0.24911350  0.24911350  0.87543927  1
  Mg  Mg1_2  1  0.24911350  0.74911350  0.37543927  1
  Mg  Mg1_3  1  0.24911350  0.74911350  0.87543927  1
  Mg  Mg1_4  1  0.74911350  0.24911350  0.37543927  1
  Mg  Mg1_5  1  0.74911350  0.24911350  0.87543927  1
  Mg  Mg1_6  1  0.74911350  0.74911350  0.37543927  1
  Mg  Mg1_7  1  0.74911350  0.74911350  0.87543927  1
loop_
_geom_bond_atom_site_label_1
_geom_bond_atom_site_label_2
_geom_bond_distance
_geom_bond_site_symmetry_2
Sr0_0 Sr2_0 4.135819 1_555
Sr0_0 Sr0_6 4.172277 1_455
Sr0_0 Sr0_6 4.172277 1_545
Sr0_0 Sr2_1 4.193942 1_554
Sr0_0 Sr3_7 4.257373 1_554
Sr0_0 Sr1_2 4.366775 1_555
Sr0_0 Sr1_4 4.366775 1_555
Sr0_0 Sr3_3 4.371156 1_554
Sr0_0 Sr3_5 4.371156 1_554
Sr0_1 Sr2_1 4.135819 1_555
Sr0_1 Sr0_7 4.172277 1_455
Sr0_1 Sr0_7 4.172277 1_545
Sr0_1 Sr2_0 4.193942 1_555
Sr0_1 Sr3_6 4.257373 1_555
Sr0_1 Sr1_5 4.366775 1_555
Sr0_1 Sr1_3 4.366775 1_555
Sr0_1 Sr3_2 4.371156 1_555
Sr0_1 Sr3_4 4.371156 1_555
Sr0_2 Sr2_2 4.135819 1_555
Sr0_2 Sr0_4 4.172277 1_555
Sr0_2 Sr0_4 4.172277 1_465
Sr0_2 Sr2_3 4.193942 1_554
Sr0_2 Sr3_5 4.257373 1_564
Sr0_2 Sr1_0 4.366775 1_565
Sr0_2 Sr1_6 4.366775 1_555
Sr0_2 Sr3_7 4.371156 1_554
Sr0_2 Sr3_1 4.371156 1_564
Sr0_3 Sr2_3 4.135819 1_555
Sr0_3 Sr0_5 4.172277 1_555
Sr0_3 Sr0_5 4.172277 1_465
Sr0_3 Sr2_2 4.193942 1_555
Sr0_3 Sr3_4 4.257373 1_565
Sr0_3 Sr1_7 4.366775 1_555
Sr0_3 Sr1_1 4.366775 1_565
Sr0_3 Sr3_6 4.371156 1_555
Sr0_3 Sr3_0 4.371156 1_565
Sr0_4 Sr2_4 4.135819 1_555
Sr0_4 Sr2_5 4.193942 1_554
Sr0_4 Sr3_3 4.257373 1_654
Sr0_4 Sr1_0 4.366775 1_655
Sr0_4 Sr1_6 4.366775 1_555
Sr0_4 Sr3_1 4.371156 1_654
Sr0_4 Sr3_7 4.371156 1_554
Sr0_5 Sr2_5 4.135819 1_555
Sr0_5 Sr2_4 4.193942 1_555
Sr0_5 Sr3_2 4.257373 1_655
Sr0_5 Sr1_7 4.366775 1_555
Sr0_5 Sr1_1 4.366775 1_655
Sr0_5 Sr3_6 4.371156 1_555
Sr0_5 Sr3_0 4.371156 1_655
Sr0_6 Sr2_6 4.135819 1_555
Sr0_6 Sr2_7 4.193942 1_554
Sr0_6 Sr3_1 4.257373 1_664
Sr0_6 Sr1_2 4.366775 1_655
Sr0_6 Sr1_4 4.366775 1_565
Sr0_6 Sr3_5 4.371156 1_564
Sr0_6 Sr3_3 4.371156 1_654
Sr0_7 Sr2_7 4.135819 1_555
Sr0_7 Sr2_6 4.193942 1_555
Sr0_7 Sr3_0 4.257373 1_665
Sr0_7 Sr1_5 4.366775 1_565
Sr0_7 Sr1_3 4.366775 1_655
Sr0_7 Sr3_2 4.371156 1_655
Sr0_7 Sr3_4 4.371156 1_565
Sr1_0 Sr3_0 4.135819 1_555
Sr1_0 Sr1_6 4.172277 1_545
Sr1_0 Sr1_6 4.172277 1_455
Sr1_0 Sr3_1 4.193942 1_554
Sr1_0 Sr2_6 4.232035 1_445
Sr1_0 Sr2_4 4.361906 1_455
Sr1_0 Sr2_2 4.361906 1_545
Sr1_1 Sr3_1 4.135819 1_555
Sr1_1 Sr1_7 4.172277 1_545
Sr1_1 Sr1_7 4.172277 1_455
Sr1_1 Sr3_0 4.193942 1_555
Sr1_1 Sr2_7 4.232035 1_445
Sr1_1 Sr2_5 4.361906 1_455
Sr1_1 Sr2_3 4.361906 1_545
Sr1_2 Sr3_2 4.135819 1_555
Sr1_2 Sr1_4 4.172277 1_555
Sr1_2 Sr1_4 4.172277 1_465
Sr1_2 Sr3_3 4.193942 1_554
Sr1_2 Sr2_4 4.232035 1_455
Sr1_2 Sr2_0 4.361906 1_555
Sr1_2 Sr2_6 4.361906 1_455
Sr1_3 Sr3_3 4.135819 1_555
Sr1_3 Sr1_5 4.172277 1_555
Sr1_3 Sr1_5 4.172277 1_465
Sr1_3 Sr3_2 4.193942 1_555
Sr1_3 Sr2_5 4.232035 1_455
Sr1_3 Sr2_1 4.361906 1_555
Sr1_3 Sr2_7 4.361906 1_455
Sr1_4 Sr3_4 4.135819 1_555
Sr1_4 Sr3_5 4.193942 1_554
Sr1_4 Sr2_2 4.232035 1_545
Sr1_4 Sr2_0 4.361906 1_555
Sr1_4 Sr2_6 4.361906 1_545
Sr1_5 Sr3_5 4.135819 1_555
Sr1_5 Sr3_4 4.193942 1_555
Sr1_5 Sr2_3 4.232035 1_545
Sr1_5 Sr2_1 4.361906 1_555
Sr1_5 Sr2_7 4.361906 1_545
Sr1_6 Sr3_6 4.135819 1_555
Sr1_6 Sr3_7 4.193942 1_554
Sr1_6 Sr2_0 4.232035 1_555
Sr1_6 Sr2_2 4.361906 1_555
Sr1_6 Sr2_4 4.361906 1_555
Sr1_7 Sr3_7 4.135819 1_555
Sr1_7 Sr3_6 4.193942 1_555
Sr1_7 Sr2_1 4.232035 1_555
Sr1_7 Sr2_5 4.361906 1_555
Sr1_7 Sr2_3 4.361906 1_555
Sr2_0 Sr2_6 4.172277 1_455
Sr2_0 Sr2_6 4.172277 1_545
Sr2_0 Sr3_4 4.366775 1_555
Sr2_0 Sr3_2 4.366775 1_555
Sr2_1 Sr2_7 4.172277 1_455
Sr2_1 Sr2_7 4.172277 1_545
Sr2_1 Sr3_5 4.366775 1_555
Sr2_1 Sr3_3 4.366775 1_555
Sr2_2 Sr2_4 4.172277 1_465
Sr2_2 Sr2_4 4.172277 1_555
Sr2_2 Sr3_6 4.366775 1_555
Sr2_2 Sr3_0 4.366775 1_565
Sr2_3 Sr2_5 4.172277 1_465
Sr2_3 Sr2_5 4.172277 1_555
Sr2_3 Sr3_7 4.366775 1_555
Sr2_3 Sr3_1 4.366775 1_565
Sr2_4 Sr3_6 4.366775 1_555
Sr2_4 Sr3_0 4.366775 1_655
Sr2_5 Sr3_1 4.366775 1_655
Sr2_5 Sr3_7 4.366775 1_555
Sr2_6 Sr3_4 4.366775 1_565
Sr2_6 Sr3_2 4.366775 1_655
Sr2_7 Sr3_3 4.366775 1_655
Sr2_7 Sr3_5 4.366775 1_565
Sr3_0 Sr3_6 4.172277 1_455
Sr3_0 Sr3_6 4.172277 1_545
Sr3_1 Sr3_7 4.172277 1_545
Sr3_1 Sr3_7 4.172277 1_455
Sr3_2 Sr3_4 4.172277 1_555
Sr3_2 Sr3_4 4.172277 1_465
Sr3_3 Sr3_5 4.172277 1_465
Sr3_3 Sr3_5 4.172277 1_555
Mg0_0 Sr1_4 3.614957 1_555
Mg0_0 Sr1_2 3.614957 1_555
Mg0_0 Sr3_3 3.635327 1_554
Mg0_0 Sr3_5 3.635327 1_554
Mg0_0 Sr0_2 3.636656 1_545
Mg0_0 Sr0_4 3.636656 1_455
Mg0_0 Sr2_2 3.642206 1_545
Mg0_0 Sr2_4 3.642206 1_455
Mg0_1 Sr1_5 3.614957 1_555
Mg0_1 Sr1_3 3.614957 1_555
Mg0_1 Sr3_4 3.635327 1_555
Mg0_1 Sr3_2 3.635327 1_555
Mg0_1 Sr0_3 3.636656 1_545
Mg0_1 Sr0_5 3.636656 1_455
Mg0_1 Sr2_3 3.642206 1_545
Mg0_1 Sr2_5 3.642206 1_455
Mg0_2 Sr1_6 3.614957 1_555
Mg0_2 Sr1_0 3.614957 1_565
Mg0_2 Sr3_7 3.635327 1_554
Mg0_2 Sr3_1 3.635327 1_564
Mg0_2 Sr0_6 3.636656 1_455
Mg0_2 Sr0_0 3.636656 1_555
Mg0_2 Sr2_0 3.642206 1_555
Mg0_2 Sr2_6 3.642206 1_455
Mg0_3 Sr1_1 3.614957 1_565
Mg0_3 Sr1_7 3.614957 1_555
Mg0_3 Sr3_0 3.635327 1_565
Mg0_3 Sr3_6 3.635327 1_555
Mg0_3 Sr0_7 3.636656 1_455
Mg0_3 Sr0_1 3.636656 1_555
Mg0_3 Sr2_7 3.642206 1_455
Mg0_3 Sr2_1 3.642206 1_555
Mg0_4 Sr1_6 3.614957 1_555
Mg0_4 Sr1_0 3.614957 1_655
Mg0_4 Sr3_7 3.635327 1_554
Mg0_4 Sr3_1 3.635327 1_654
Mg0_4 Sr0_6 3.636656 1_545
Mg0_4 Sr0_0 3.636656 1_555
Mg0_4 Sr2_6 3.642206 1_545
Mg0_4 Sr2_0 3.642206 1_555
Mg0_5 Sr1_1 3.614957 1_655
Mg0_5 Sr1_7 3.614957 1_555
Mg0_5 Sr3_0 3.635327 1_655
Mg0_5 Sr3_6 3.635327 1_555
Mg0_5 Sr0_7 3.636656 1_545
Mg0_5 Sr0_1 3.636656 1_555
Mg0_5 Sr2_7 3.642206 1_545
Mg0_5 Sr2_1 3.642206 1_555
Mg0_6 Sr1_4 3.614957 1_565
Mg0_6 Sr1_2 3.614957 1_655
Mg0_6 Sr3_3 3.635327 1_654
Mg0_6 Sr3_5 3.635327 1_564
Mg0_6 Sr0_4 3.636656 1_555
Mg0_6 Sr0_2 3.636656 1_555
Mg0_6 Sr2_2 3.642206 1_555
Mg0_6 Sr2_4 3.642206 1_555
Mg0_7 Sr1_3 3.614957 1_655
Mg0_7 Sr1_5 3.614957 1_565
Mg0_7 Sr3_2 3.635327 1_655
Mg0_7 Sr3_4 3.635327 1_565
Mg0_7 Sr0_5 3.636656 1_555
Mg0_7 Sr0_3 3.636656 1_555
Mg0_7 Sr2_3 3.642206 1_555
Mg0_7 Sr2_5 3.642206 1_555
Mg1_0 Sr2_4 3.614957 1_455
Mg1_0 Sr2_2 3.614957 1_545
Mg1_0 Sr0_5 3.635327 1_455
Mg1_0 Sr0_3 3.635327 1_545
Mg1_0 Sr3_4 3.636656 1_555
Mg1_0 Sr3_2 3.636656 1_555
Mg1_0 Sr1_4 3.642206 1_555
Mg1_0 Sr1_2 3.642206 1_555
Mg1_1 Sr2_3 3.614957 1_545
Mg1_1 Sr2_5 3.614957 1_455
Mg1_1 Sr0_2 3.635327 1_546
Mg1_1 Sr0_4 3.635327 1_456
Mg1_1 Sr3_3 3.636656 1_555
Mg1_1 Sr3_5 3.636656 1_555
Mg1_1 Sr1_3 3.642206 1_555
Mg1_1 Sr1_5 3.642206 1_555
Mg1_2 Sr2_0 3.614957 1_555
Mg1_2 Sr2_6 3.614957 1_455
Mg1_2 Sr0_1 3.635327 1_555
Mg1_2 Sr0_7 3.635327 1_455
Mg1_2 Sr3_0 3.636656 1_565
Mg1_2 Sr3_6 3.636656 1_555
Mg1_2 Sr1_6 3.642206 1_555
Mg1_2 Sr1_0 3.642206 1_565
Mg1_3 Sr2_7 3.614957 1_455
Mg1_3 Sr2_1 3.614957 1_555
Mg1_3 Sr0_6 3.635327 1_456
Mg1_3 Sr0_0 3.635327 1_556
Mg1_3 Sr3_1 3.636656 1_565
Mg1_3 Sr3_7 3.636656 1_555
Mg1_3 Sr1_1 3.642206 1_565
Mg1_3 Sr1_7 3.642206 1_555
Mg1_4 Sr2_6 3.614957 1_545
Mg1_4 Sr2_0 3.614957 1_555
Mg1_4 Sr0_1 3.635327 1_555
Mg1_4 Sr0_7 3.635327 1_545
Mg1_4 Sr3_0 3.636656 1_655
Mg1_4 Sr3_6 3.636656 1_555
Mg1_4 Sr1_6 3.642206 1_555
Mg1_4 Sr1_0 3.642206 1_655
Mg1_5 Sr2_7 3.614957 1_545
Mg1_5 Sr2_1 3.614957 1_555
Mg1_5 Sr0_6 3.635327 1_546
Mg1_5 Sr0_0 3.635327 1_556
Mg1_5 Sr3_1 3.636656 1_655
Mg1_5 Sr3_7 3.636656 1_555
Mg1_5 Sr1_1 3.642206 1_655
Mg1_5 Sr1_7 3.642206 1_555
Mg1_6 Sr2_2 3.614957 1_555
Mg1_6 Sr2_4 3.614957 1_555
Mg1_6 Sr0_3 3.635327 1_555
Mg1_6 Sr0_5 3.635327 1_555
Mg1_6 Sr3_4 3.636656 1_565
Mg1_6 Sr3_2 3.636656 1_655
Mg1_6 Sr1_2 3.642206 1_655
Mg1_6 Sr1_4 3.642206 1_565
Mg1_7 Sr2_3 3.614957 1_555
Mg1_7 Sr2_5 3.614957 1_555
Mg1_7 Sr0_2 3.635327 1_556
Mg1_7 Sr0_4 3.635327 1_556
Mg1_7 Sr3_3 3.636656 1_655
Mg1_7 Sr3_5 3.636656 1_565
Mg1_7 Sr1_5 3.642206 1_565
Mg1_7 Sr1_3 3.642206 1_655
