# generated using pymatgen
data_SrMnO3
_symmetry_space_group_name_H-M   'P 1'
_cell_length_a   5.42140775
_cell_length_b   5.42140784
_cell_length_c   13.37753335
_cell_angle_alpha   89.99999897
_cell_angle_beta   90.00000150
_cell_angle_gamma   119.99995005
_symmetry_Int_Tables_number   1
_chemical_formula_structural   SrMnO3
_chemical_formula_sum   'Sr6 Mn6 O18'
_cell_volume   340.51092050
_cell_formula_units_Z   6
loop_
 _symmetry_equiv_pos_site_id
 _symmetry_equiv_pos_as_xyz
  1  'x, y, z'
loop_
 _atom_site_type_symbol
 _atom_site_label
 _atom_site_symmetry_multiplicity
 _atom_site_fract_x
 _atom_site_fract_y
 _atom_site_fract_z
 _atom_site_occupancy
  Sr  Sr0  1  -0.00000000  0.00000007  0.25000007  1
  Sr  Sr1  1  -0.00000015  0.00000001  0.74999992  1
  Sr  Sr2  1  0.33333309  0.66666679  0.41022008  1
  Sr  Sr3  1  0.66666671  0.33333320  0.58976290  1
  Sr  Sr4  1  0.66666679  0.33333325  0.91023701  1
  Sr  Sr5  1  0.33333319  0.66666682  0.08978017  1
  Mn  Mn0  1  0.00000009  0.00000000  0.49999580  1
  Mn  Mn1  1  0.00000000  0.00000002  0.00000416  1
  Mn  Mn2  1  0.33333331  0.66666666  0.65585188  1
  Mn  Mn3  1  0.66666666  0.33333350  0.34414543  1
  Mn  Mn4  1  0.66666663  0.33333345  0.15585461  1
  Mn  Mn5  1  0.33333325  0.66666668  0.84414814  1
  O  O0  1  0.51439271  0.48560797  0.24999998  1
  O  O1  1  0.51439265  0.02878510  0.24999997  1
  O  O2  1  0.97121499  0.48560675  0.24999997  1
  O  O3  1  0.48560559  0.51439514  0.75000002  1
  O  O4  1  0.48560423  0.97121068  0.74999999  1
  O  O5  1  0.02878935  0.51439515  0.74999999  1
  O  O6  1  0.83534475  0.16465498  0.41887813  1
  O  O7  1  0.83534506  0.67068998  0.41887798  1
  O  O8  1  0.32931011  0.16465547  0.41887797  1
  O  O9  1  0.16465769  0.83534189  0.58111149  1
  O  O10  1  0.16465789  0.32931470  0.58111206  1
  O  O11  1  0.67068534  0.83534252  0.58111205  1
  O  O12  1  0.16465754  0.83534209  0.91888852  1
  O  O13  1  0.16465779  0.32931471  0.91888803  1
  O  O14  1  0.67068532  0.83534267  0.91888803  1
  O  O15  1  0.83534447  0.16465519  0.08112159  1
  O  O16  1  0.83534506  0.67069016  0.08112203  1
  O  O17  1  0.32930989  0.16465540  0.08112204  1
loop_
_geom_bond_atom_site_label_1
_geom_bond_atom_site_label_2
_geom_bond_distance
_geom_bond_site_symmetry_2
Mn0 O6 1.888941 1_455
Mn0 O7 1.888942 1_445
Mn0 O8 1.888942 1_555
Mn0 O9 1.888947 1_545
Mn0 O10 1.888948 1_555
Mn0 O11 1.888948 1_445
Mn1 O15 1.888941 1_455
Mn1 O16 1.888942 1_445
Mn1 O17 1.888942 1_555
Mn1 O12 1.888945 1_544
Mn1 O14 1.888947 1_444
Mn1 O13 1.888947 1_554
Mn2 O9 1.873068 1_555
Mn2 O10 1.873070 1_555
Mn2 O11 1.873070 1_555
Mn2 O3 1.905453 1_555
Mn2 O5 1.905455 1_555
Mn2 O4 1.905455 1_555
Mn3 O7 1.873036 1_555
Mn3 O8 1.873036 1_555
Mn3 O6 1.873036 1_555
Mn3 O0 1.905446 1_555
Mn3 O2 1.905447 1_555
Mn3 O1 1.905447 1_555
Mn4 O15 1.873036 1_555
Mn4 O16 1.873037 1_555
Mn4 O17 1.873037 1_555
Mn4 O0 1.905445 1_555
Mn4 O1 1.905446 1_555
Mn4 O2 1.905446 1_555
Mn5 O12 1.873069 1_555
Mn5 O13 1.873070 1_555
Mn5 O14 1.873070 1_555
Mn5 O3 1.905454 1_555
Mn5 O5 1.905455 1_555
Mn5 O4 1.905455 1_555
O0 Sr0 2.714071 1_665
O0 Sr0 2.714074 1_555
O0 Sr5 2.735785 1_555
O0 Sr2 2.735788 1_555
O1 Sr0 2.714070 1_655
O1 Sr0 2.714072 1_555
O1 Sr5 2.735786 1_545
O1 Sr2 2.735789 1_545
O2 Sr0 2.714066 1_655
O2 Sr0 2.714075 1_665
O2 Sr5 2.735785 1_655
O2 Sr2 2.735788 1_655
O3 Sr1 2.714072 1_665
O3 Sr1 2.714076 1_555
O3 Sr4 2.735979 1_555
O3 Sr3 2.735980 1_555
O4 Sr1 2.714067 1_565
O4 Sr1 2.714077 1_665
O4 Sr4 2.735979 1_565
O4 Sr3 2.735979 1_565
O5 Sr1 2.714070 1_565
O5 Sr1 2.714074 1_555
O5 Sr4 2.735979 1_455
O5 Sr3 2.735979 1_455
O6 Sr2 2.713245 1_545
O6 Sr2 2.713245 1_655
O6 Sr0 2.737589 1_655
O6 Sr3 2.781125 1_555
O7 Sr2 2.713241 1_655
O7 Sr2 2.713245 1_555
O7 Sr0 2.737588 1_665
O7 Sr3 2.781128 1_555
O8 Sr2 2.713242 1_555
O8 Sr2 2.713244 1_545
O8 Sr0 2.737588 1_555
O8 Sr3 2.781128 1_555
O9 Sr3 2.713240 1_455
O9 Sr3 2.713242 1_565
O9 Sr1 2.737719 1_565
O9 Sr2 2.781182 1_555
O10 Sr3 2.713236 1_555
O10 Sr3 2.713241 1_455
O10 Sr1 2.737710 1_555
O10 Sr2 2.781193 1_555
O11 Sr3 2.713239 1_565
O11 Sr3 2.713239 1_555
O11 Sr1 2.737710 1_665
O11 Sr2 2.781194 1_555
O12 Sr4 2.713240 1_455
O12 Sr4 2.713242 1_565
O12 Sr1 2.737720 1_565
O12 Sr5 2.781186 1_556
O13 Sr4 2.713237 1_555
O13 Sr4 2.713240 1_455
O13 Sr1 2.737713 1_555
O13 Sr5 2.781195 1_556
O14 Sr4 2.713238 1_565
O14 Sr4 2.713240 1_555
O14 Sr1 2.737712 1_665
O14 Sr5 2.781195 1_556
O15 Sr5 2.713244 1_545
O15 Sr5 2.713246 1_655
O15 Sr0 2.737595 1_655
O15 Sr4 2.781121 1_554
O16 Sr5 2.713242 1_655
O16 Sr5 2.713244 1_555
O16 Sr0 2.737589 1_665
O16 Sr4 2.781130 1_554
O17 Sr5 2.713242 1_555
O17 Sr5 2.713244 1_545
O17 Sr0 2.737589 1_555
O17 Sr4 2.781130 1_554
