# generated using pymatgen
data_AlPt2
_symmetry_space_group_name_H-M   'P 1'
_cell_length_a   3.92456872
_cell_length_b   5.46447677
_cell_length_c   16.37030176
_cell_angle_alpha   90.00000000
_cell_angle_beta   90.00000000
_cell_angle_gamma   90.00000000
_symmetry_Int_Tables_number   1
_chemical_formula_structural   AlPt2
_chemical_formula_sum   'Al8 Pt16'
_cell_volume   351.07281951
_cell_formula_units_Z   8
loop_
 _symmetry_equiv_pos_site_id
 _symmetry_equiv_pos_as_xyz
  1  'x, y, z'
loop_
 _atom_site_type_symbol
 _atom_site_label
 _atom_site_symmetry_multiplicity
 _atom_site_fract_x
 _atom_site_fract_y
 _atom_site_fract_z
 _atom_site_occupancy
  Al  Al0  1  0.00000000  0.20759242  0.75000000  1
  Al  Al1  1  0.00000000  0.79240758  0.25000000  1
  Al  Al2  1  0.00000000  0.69079348  0.59114550  1
  Al  Al3  1  0.00000000  0.30920652  0.40885450  1
  Al  Al4  1  0.00000000  0.69079348  0.90885450  1
  Al  Al5  1  -0.00000000  0.30920652  0.09114550  1
  Al  Al6  1  0.50000000  0.00000000  0.50000000  1
  Al  Al7  1  0.50000000  0.00000000  -0.00000000  1
  Pt  Pt0  1  0.50000000  0.05110385  0.34370778  1
  Pt  Pt1  1  0.50000000  0.94889615  0.65629222  1
  Pt  Pt2  1  0.50000000  0.55496123  0.16765445  1
  Pt  Pt3  1  0.50000000  0.44503877  0.83234555  1
  Pt  Pt4  1  0.50000000  0.55496123  0.33234555  1
  Pt  Pt5  1  0.50000000  0.44503877  0.66765445  1
  Pt  Pt6  1  0.00000000  0.27094469  0.25000000  1
  Pt  Pt7  1  0.00000000  0.72905531  0.75000000  1
  Pt  Pt8  1  0.50000000  0.94889615  0.84370778  1
  Pt  Pt9  1  0.50000000  0.05110385  0.15629222  1
  Pt  Pt10  1  0.50000000  0.50000000  0.50000000  1
  Pt  Pt11  1  0.50000000  0.50000000  -0.00000000  1
  Pt  Pt12  1  0.00000000  0.20265005  0.56911512  1
  Pt  Pt13  1  -0.00000000  0.79734995  0.43088488  1
  Pt  Pt14  1  0.00000000  0.20265005  0.93088488  1
  Pt  Pt15  1  -0.00000000  0.79734995  0.06911512  1
loop_
_geom_bond_atom_site_label_1
_geom_bond_atom_site_label_2
_geom_bond_distance
_geom_bond_site_symmetry_2
Al0 Pt7 2.614955 1_545
Al0 Pt3 2.711324 1_555
Al0 Pt5 2.711324 1_455
Al0 Pt5 2.711324 1_555
Al0 Pt3 2.711324 1_455
Al0 Pt7 2.849522 1_555
Al0 Pt8 2.863943 1_445
Al0 Pt8 2.863943 1_545
Al0 Pt1 2.863943 1_545
Al0 Pt1 2.863943 1_445
Al0 Pt14 2.961263 1_555
Al0 Pt12 2.961263 1_555
Al1 Pt6 2.614955 1_565
Al1 Pt4 2.711324 1_455
Al1 Pt2 2.711324 1_455
Al1 Pt4 2.711324 1_555
Al1 Pt2 2.711324 1_555
Al1 Pt6 2.849522 1_555
Al1 Pt9 2.863943 1_565
Al1 Pt0 2.863943 1_465
Al1 Pt0 2.863943 1_565
Al1 Pt9 2.863943 1_465
Al1 Pt15 2.961263 1_555
Al1 Pt13 2.961263 1_555
Al2 Pt7 2.608888 1_555
Al2 Pt1 2.641427 1_555
Al2 Pt1 2.641427 1_455
Al2 Pt10 2.676536 1_555
Al2 Pt10 2.676536 1_455
Al2 Pt13 2.687354 1_555
Al2 Pt5 2.687506 1_455
Al2 Pt5 2.687506 1_555
Al2 Pt12 2.691718 1_555
Al2 Pt12 2.820183 1_565
Al3 Pt6 2.608888 1_555
Al3 Pt0 2.641427 1_555
Al3 Pt0 2.641427 1_455
Al3 Pt10 2.676536 1_555
Al3 Pt10 2.676536 1_455
Al3 Pt12 2.687354 1_555
Al3 Pt4 2.687506 1_455
Al3 Pt4 2.687506 1_555
Al3 Pt13 2.691718 1_555
Al3 Pt13 2.820183 1_545
Al4 Pt7 2.608888 1_555
Al4 Pt8 2.641427 1_455
Al4 Pt8 2.641427 1_555
Al4 Pt11 2.676536 1_456
Al4 Pt11 2.676536 1_556
Al4 Pt15 2.687354 1_556
Al4 Pt3 2.687506 1_555
Al4 Pt3 2.687506 1_455
Al4 Pt14 2.691718 1_555
Al4 Pt14 2.820183 1_565
Al5 Pt6 2.608888 1_555
Al5 Pt9 2.641427 1_555
Al5 Pt9 2.641427 1_455
Al5 Pt11 2.676536 1_555
Al5 Pt11 2.676536 1_455
Al5 Pt14 2.687354 1_554
Al5 Pt2 2.687506 1_455
Al5 Pt2 2.687506 1_555
Al5 Pt15 2.691718 1_555
Al5 Pt15 2.820183 1_545
Al6 Pt12 2.521307 1_555
Al6 Pt13 2.521307 1_645
Al6 Pt13 2.521307 1_545
Al6 Pt12 2.521307 1_655
Al6 Pt1 2.573746 1_545
Al6 Pt0 2.573746 1_555
Al6 Pt10 2.732238 1_545
Al6 Pt10 2.732238 1_555
Al7 Pt14 2.521307 1_654
Al7 Pt14 2.521307 1_554
Al7 Pt15 2.521307 1_545
Al7 Pt15 2.521307 1_645
Al7 Pt8 2.573746 1_544
Al7 Pt9 2.573746 1_555
Al7 Pt11 2.732238 1_555
Al7 Pt11 2.732238 1_545
