# generated using pymatgen
data_Pr4B4O11F2
_symmetry_space_group_name_H-M   'P 1'
_cell_length_a   7.43736012
_cell_length_b   7.43736012
_cell_length_c   14.12558512
_cell_angle_alpha   89.05262048
_cell_angle_beta   89.05262048
_cell_angle_gamma   37.39480673
_symmetry_Int_Tables_number   1
_chemical_formula_structural   Pr4B4O11F2
_chemical_formula_sum   'Pr8 B8 O22 F4'
_cell_volume   474.44286122
_cell_formula_units_Z   2
loop_
 _symmetry_equiv_pos_site_id
 _symmetry_equiv_pos_as_xyz
  1  'x, y, z'
loop_
 _atom_site_type_symbol
 _atom_site_label
 _atom_site_symmetry_multiplicity
 _atom_site_fract_x
 _atom_site_fract_y
 _atom_site_fract_z
 _atom_site_occupancy
  Pr  Pr0  1  0.46612900  0.41694600  0.37077900  1
  Pr  Pr1  1  0.58305400  0.53387100  0.12922100  1
  Pr  Pr2  1  0.53387100  0.58305400  0.62922100  1
  Pr  Pr3  1  0.41694600  0.46612900  0.87077900  1
  Pr  Pr4  1  0.74211300  0.69977400  0.37179400  1
  Pr  Pr5  1  0.30022600  0.25788800  0.12820600  1
  Pr  Pr6  1  0.25788700  0.30022600  0.62820600  1
  Pr  Pr7  1  0.69977400  0.74211200  0.87179400  1
  B  B0  1  0.07319700  0.11144300  0.28493800  1
  B  B1  1  0.88855700  0.92680300  0.21506200  1
  B  B2  1  0.92680300  0.88855700  0.71506200  1
  B  B3  1  0.11144300  0.07319700  0.78493800  1
  B  B4  1  0.85712400  0.95476600  0.52721200  1
  B  B5  1  0.04523400  0.14287600  0.97278800  1
  B  B6  1  0.14287600  0.04523400  0.47278800  1
  B  B7  1  0.95476600  0.85712400  0.02721200  1
  O  O0  1  0.96348900  0.21175900  0.39237300  1
  O  O1  1  0.78824100  0.03651100  0.10762700  1
  O  O2  1  0.03651100  0.78824100  0.60762700  1
  O  O3  1  0.21175900  0.96348900  0.89237300  1
  O  O4  1  0.64826100  0.01113900  0.25729000  1
  O  O5  1  0.98886100  0.35173900  0.24271000  1
  O  O6  1  0.35173900  0.98886100  0.74271000  1
  O  O7  1  0.01113900  0.64826100  0.75729000  1
  O  O8  1  0.58683700  0.25361100  0.53711000  1
  O  O9  1  0.74638900  0.41316300  0.96289000  1
  O  O10  1  0.41316300  0.74638900  0.46289000  1
  O  O11  1  0.25361100  0.58683700  0.03711000  1
  O  O12  1  0.85799900  0.14200100  0.25000000  1
  O  O13  1  0.14200100  0.85799900  0.75000000  1
  O  O14  1  0.94421200  0.83075200  0.43904900  1
  O  O15  1  0.16924800  0.05578800  0.06095100  1
  O  O16  1  0.05578800  0.16924800  0.56095100  1
  O  O17  1  0.83075200  0.94421200  0.93904900  1
  O  O18  1  0.37667700  0.82333800  0.27443300  1
  O  O19  1  0.17666200  0.62332300  0.22556700  1
  O  O20  1  0.62332300  0.17666200  0.72556700  1
  O  O21  1  0.82333800  0.37667700  0.77443300  1
  F  F0  1  0.29232500  0.24682300  0.42542400  1
  F  F1  1  0.75317700  0.70767500  0.07457600  1
  F  F2  1  0.70767500  0.75317700  0.57457600  1
  F  F3  1  0.24682300  0.29232500  0.92542400  1
loop_
_geom_bond_atom_site_label_1
_geom_bond_atom_site_label_2
_geom_bond_distance
_geom_bond_site_symmetry_2
B0 O18 1.422171 1_545
B0 O5 1.462585 1_455
B0 O12 1.516993 1_455
B0 O0 1.598333 1_455
B1 O19 1.422171 1_655
B1 O4 1.462585 1_565
B1 O12 1.516993 1_565
B1 O1 1.598333 1_565
B2 O20 1.422171 1_565
B2 O7 1.462585 1_655
B2 O13 1.516993 1_655
B2 O2 1.598333 1_655
B3 O21 1.422171 1_455
B3 O6 1.462585 1_545
B3 O13 1.516993 1_545
B3 O3 1.598333 1_545
B4 O14 1.372300 1_555
B4 O8 1.379218 1_565
B4 O2 1.407927 1_655
B5 O15 1.372300 1_556
B5 O9 1.379218 1_455
B5 O3 1.407927 1_545
B6 O16 1.372300 1_555
B6 O10 1.379218 1_545
B6 O0 1.407927 1_455
B7 O17 1.372300 1_554
B7 O11 1.379218 1_655
B7 O1 1.407927 1_565
O0 Pr4 2.540577 1_555
O0 Pr0 2.675309 1_555
O1 Pr5 2.540573 1_555
O1 Pr1 2.675309 1_555
O2 Pr6 2.540577 1_555
O2 Pr2 2.675309 1_555
O3 Pr7 2.540573 1_555
O3 Pr3 2.675309 1_555
O4 Pr4 2.410610 1_545
O4 Pr5 2.426986 1_555
O4 Pr0 2.665719 1_555
O5 Pr5 2.410614 1_655
O5 Pr4 2.426987 1_555
O5 Pr1 2.665719 1_555
O6 Pr6 2.410610 1_565
O6 Pr7 2.426986 1_555
O6 Pr2 2.665719 1_555
O7 Pr7 2.410614 1_455
O7 Pr6 2.426987 1_555
O7 Pr3 2.665719 1_555
O8 Pr0 2.458541 1_555
O8 Pr6 2.514835 1_555
O8 Pr2 2.531076 1_555
O9 Pr1 2.458541 1_556
O9 Pr7 2.514828 1_555
O9 Pr3 2.531076 1_555
O10 Pr2 2.458541 1_555
O10 Pr4 2.514835 1_555
O10 Pr0 2.531076 1_555
O11 Pr3 2.458541 1_554
O11 Pr5 2.514828 1_555
O11 Pr1 2.531076 1_555
O12 Pr1 2.463262 1_555
O12 Pr0 2.463262 1_555
O13 Pr2 2.463262 1_555
O13 Pr3 2.463262 1_555
O14 Pr0 2.541954 1_655
O14 Pr4 2.552463 1_555
O14 Pr0 2.814788 1_565
O15 Pr1 2.541954 1_545
O15 Pr5 2.552469 1_555
O15 Pr1 2.814788 1_455
O16 Pr2 2.541954 1_455
O16 Pr6 2.552463 1_555
O16 Pr2 2.814788 1_545
O17 Pr3 2.541954 1_565
O17 Pr7 2.552469 1_555
O17 Pr3 2.814788 1_655
O18 Pr1 2.447360 1_555
O18 Pr4 2.497182 1_555
O18 Pr0 2.851145 1_555
O19 Pr0 2.447360 1_555
O19 Pr5 2.497176 1_555
O19 Pr1 2.851145 1_555
O20 Pr3 2.447360 1_555
O20 Pr6 2.497182 1_555
O20 Pr2 2.851145 1_555
O21 Pr2 2.447360 1_555
O21 Pr7 2.497176 1_555
O21 Pr3 2.851145 1_555
F0 Pr0 2.530044 1_555
F0 Pr4 2.590363 1_545
F0 Pr4 2.604208 1_455
F0 Pr6 2.877489 1_555
F1 Pr1 2.530044 1_555
F1 Pr5 2.590362 1_655
F1 Pr5 2.604212 1_565
F1 Pr7 2.877489 1_554
F2 Pr2 2.530044 1_555
F2 Pr6 2.590363 1_565
F2 Pr6 2.604208 1_655
F2 Pr4 2.877489 1_555
F3 Pr3 2.530044 1_555
F3 Pr7 2.590362 1_455
F3 Pr7 2.604212 1_545
F3 Pr5 2.877489 1_556
