# generated using pymatgen
data_Sc2InNi2
_symmetry_space_group_name_H-M   'P 1'
_cell_length_a   3.33038596
_cell_length_b   7.13601111
_cell_length_c   7.13601111
_cell_angle_alpha   90.00000000
_cell_angle_beta   90.00000000
_cell_angle_gamma   90.00000000
_symmetry_Int_Tables_number   1
_chemical_formula_structural   Sc2InNi2
_chemical_formula_sum   'Sc4 In2 Ni4'
_cell_volume   169.59209380
_cell_formula_units_Z   2
loop_
 _symmetry_equiv_pos_site_id
 _symmetry_equiv_pos_as_xyz
  1  'x, y, z'
loop_
 _atom_site_type_symbol
 _atom_site_label
 _atom_site_symmetry_multiplicity
 _atom_site_fract_x
 _atom_site_fract_y
 _atom_site_fract_z
 _atom_site_occupancy
  Sc  Sc0  1  0.50000000  0.17191579  0.67191579  1
  Sc  Sc1  1  0.50000000  0.32808421  0.17191579  1
  Sc  Sc2  1  0.50000000  0.67191579  0.82808421  1
  Sc  Sc3  1  0.50000000  0.82808421  0.32808421  1
  In  In0  1  -0.00000000  -0.00000000  0.00000000  1
  In  In1  1  -0.00000000  0.50000000  0.50000000  1
  Ni  Ni0  1  0.00000000  0.37837362  0.87837362  1
  Ni  Ni1  1  -0.00000000  0.12162638  0.37837362  1
  Ni  Ni2  1  0.00000000  0.87837362  0.62162638  1
  Ni  Ni3  1  -0.00000000  0.62162638  0.12162638  1
loop_
_geom_bond_atom_site_label_1
_geom_bond_atom_site_label_2
_geom_bond_distance
_geom_bond_site_symmetry_2
In0 Ni2 2.836145 1_544
In0 Ni3 2.836145 1_545
In0 Ni0 2.836145 1_554
In0 Ni1 2.836145 1_555
In0 Sc0 3.123966 1_554
In0 Sc2 3.123966 1_444
In0 Sc2 3.123966 1_544
In0 Sc1 3.123966 1_455
In0 Sc3 3.123966 1_445
In0 Sc0 3.123966 1_454
In0 Sc1 3.123966 1_555
In0 Sc3 3.123966 1_545
In1 Ni1 2.836145 1_555
In1 Ni0 2.836145 1_555
In1 Ni2 2.836145 1_555
In1 Ni3 2.836145 1_555
In1 Sc3 3.123966 1_455
In1 Sc0 3.123966 1_555
In1 Sc0 3.123966 1_455
In1 Sc2 3.123966 1_455
In1 Sc2 3.123966 1_555
In1 Sc1 3.123966 1_455
In1 Sc1 3.123966 1_555
In1 Sc3 3.123966 1_555
Ni0 Ni3 2.454869 1_556
Ni0 Sc0 2.667210 1_455
Ni0 Sc0 2.667210 1_555
Ni0 Sc1 2.699908 1_556
Ni0 Sc2 2.699908 1_555
Ni0 Sc2 2.699908 1_455
Ni0 Sc1 2.699908 1_456
Ni1 Ni2 2.454869 1_545
Ni1 Sc1 2.667210 1_455
Ni1 Sc1 2.667210 1_555
Ni1 Sc0 2.699908 1_455
Ni1 Sc0 2.699908 1_555
Ni1 Sc3 2.699908 1_445
Ni1 Sc3 2.699908 1_545
Ni2 Sc2 2.667210 1_555
Ni2 Sc2 2.667210 1_455
Ni2 Sc0 2.699908 1_565
Ni2 Sc0 2.699908 1_465
Ni2 Sc3 2.699908 1_455
Ni2 Sc3 2.699908 1_555
Ni3 Sc3 2.667210 1_555
Ni3 Sc3 2.667210 1_455
Ni3 Sc2 2.699908 1_454
Ni3 Sc1 2.699908 1_455
Ni3 Sc1 2.699908 1_555
Ni3 Sc2 2.699908 1_554
