# generated using pymatgen
data_Ca3AlFe(SiO4)3
_symmetry_space_group_name_H-M   'P 1'
_cell_length_a   10.45987561
_cell_length_b   10.45987561
_cell_length_c   10.45987561
_cell_angle_alpha   109.47122063
_cell_angle_beta   109.47122063
_cell_angle_gamma   109.47122063
_symmetry_Int_Tables_number   1
_chemical_formula_structural   Ca3AlFe(SiO4)3
_chemical_formula_sum   'Ca12 Al4 Fe4 Si12 O48'
_cell_volume   880.96300090
_cell_formula_units_Z   4
loop_
 _symmetry_equiv_pos_site_id
 _symmetry_equiv_pos_as_xyz
  1  'x, y, z'
loop_
 _atom_site_type_symbol
 _atom_site_label
 _atom_site_symmetry_multiplicity
 _atom_site_fract_x
 _atom_site_fract_y
 _atom_site_fract_z
 _atom_site_occupancy
  Ca  Ca0  1  0.12467200  0.37467200  0.75000000  1
  Ca  Ca1  1  0.37532800  0.12532800  0.25000000  1
  Ca  Ca2  1  0.25000000  0.37532800  0.12532800  1
  Ca  Ca3  1  0.75000000  0.12467200  0.37467200  1
  Ca  Ca4  1  0.12532800  0.25000000  0.37532800  1
  Ca  Ca5  1  0.37467200  0.75000000  0.12467200  1
  Ca  Ca6  1  0.87532800  0.62532800  0.25000000  1
  Ca  Ca7  1  0.62467200  0.87467200  0.75000000  1
  Ca  Ca8  1  0.75000000  0.62467200  0.87467200  1
  Ca  Ca9  1  0.25000000  0.87532800  0.62532800  1
  Ca  Ca10  1  0.87467200  0.75000000  0.62467200  1
  Ca  Ca11  1  0.62532800  0.25000000  0.87532800  1
  Al  Al0  1  0.50000000  0.50000000  0.00000000  1
  Al  Al1  1  0.00000000  0.50000000  0.50000000  1
  Al  Al2  1  0.00000000  0.00000000  0.00000000  1
  Al  Al3  1  0.50000000  0.00000000  0.50000000  1
  Fe  Fe0  1  0.00000000  0.50000000  0.00000000  1
  Fe  Fe1  1  0.50000000  0.50000000  0.50000000  1
  Fe  Fe2  1  0.00000000  0.00000000  0.50000000  1
  Fe  Fe3  1  0.50000000  0.00000000  0.00000000  1
  Si  Si0  1  0.87292400  0.12292400  0.75000000  1
  Si  Si1  1  0.62707600  0.37707600  0.25000000  1
  Si  Si2  1  0.25000000  0.62707600  0.37707600  1
  Si  Si3  1  0.75000000  0.87292400  0.12292400  1
  Si  Si4  1  0.37707600  0.25000000  0.62707600  1
  Si  Si5  1  0.12292400  0.75000000  0.87292400  1
  Si  Si6  1  0.12707600  0.87707600  0.25000000  1
  Si  Si7  1  0.37292400  0.62292400  0.75000000  1
  Si  Si8  1  0.75000000  0.37292400  0.62292400  1
  Si  Si9  1  0.25000000  0.12707600  0.87707600  1
  Si  Si10  1  0.62292400  0.75000000  0.37292400  1
  Si  Si11  1  0.87707600  0.25000000  0.12707600  1
  O  O0  1  0.81127300  0.50778700  0.39378700  1
  O  O1  1  0.61400000  0.41748600  0.10621300  1
  O  O2  1  0.68872700  0.08251400  0.69651300  1
  O  O3  1  0.88600000  0.99221300  0.80348700  1
  O  O4  1  0.69651300  0.68872700  0.08251400  1
  O  O5  1  0.80348700  0.88600000  0.99221300  1
  O  O6  1  0.39378700  0.81127300  0.50778700  1
  O  O7  1  0.10621300  0.61400000  0.41748600  1
  O  O8  1  0.99221300  0.80348700  0.88600000  1
  O  O9  1  0.08251400  0.69651300  0.68872700  1
  O  O10  1  0.41748600  0.10621300  0.61400000  1
  O  O11  1  0.50778700  0.39378700  0.81127300  1
  O  O12  1  0.18872700  0.49221300  0.60621300  1
  O  O13  1  0.38600000  0.58251400  0.89378700  1
  O  O14  1  0.31127300  0.91748600  0.30348700  1
  O  O15  1  0.11400000  0.00778700  0.19651300  1
  O  O16  1  0.30348700  0.31127300  0.91748600  1
  O  O17  1  0.19651300  0.11400000  0.00778700  1
  O  O18  1  0.60621300  0.18872700  0.49221300  1
  O  O19  1  0.89378700  0.38600000  0.58251400  1
  O  O20  1  0.00778700  0.19651300  0.11400000  1
  O  O21  1  0.91748600  0.30348700  0.31127300  1
  O  O22  1  0.58251400  0.89378700  0.38600000  1
  O  O23  1  0.49221300  0.60621300  0.18872700  1
  O  O24  1  0.29568300  0.49145100  0.38417500  1
  O  O25  1  0.20431700  0.58849300  0.19576800  1
  O  O26  1  0.60727500  0.91150700  0.11582500  1
  O  O27  1  0.89272500  0.00854900  0.30423200  1
  O  O28  1  0.00854900  0.30423200  0.89272500  1
  O  O29  1  0.91150700  0.11582500  0.60727500  1
  O  O30  1  0.58849300  0.19576800  0.20431700  1
  O  O31  1  0.49145100  0.38417500  0.29568300  1
  O  O32  1  0.19576800  0.20431700  0.58849300  1
  O  O33  1  0.38417500  0.29568300  0.49145100  1
  O  O34  1  0.30423200  0.89272500  0.00854900  1
  O  O35  1  0.11582500  0.60727500  0.91150700  1
  O  O36  1  0.70431700  0.50854900  0.61582500  1
  O  O37  1  0.79568300  0.41150700  0.80423200  1
  O  O38  1  0.39272500  0.08849300  0.88417500  1
  O  O39  1  0.10727500  0.99145100  0.69576800  1
  O  O40  1  0.99145100  0.69576800  0.10727500  1
  O  O41  1  0.08849300  0.88417500  0.39272500  1
  O  O42  1  0.41150700  0.80423200  0.79568300  1
  O  O43  1  0.50854900  0.61582500  0.70431700  1
  O  O44  1  0.80423200  0.79568300  0.41150700  1
  O  O45  1  0.61582500  0.70431700  0.50854900  1
  O  O46  1  0.69576800  0.10727500  0.99145100  1
  O  O47  1  0.88417500  0.39272500  0.08849300  1
loop_
_geom_bond_atom_site_label_1
_geom_bond_atom_site_label_2
_geom_bond_distance
_geom_bond_site_symmetry_2
Ca0 O12 2.361748 1_555
Ca0 O13 2.361748 1_555
Ca0 O29 2.364830 1_455
Ca0 O28 2.364837 1_555
Ca0 O35 2.509209 1_555
Ca0 O32 2.509215 1_555
Ca0 O19 2.534578 1_455
Ca0 O16 2.534585 1_555
Ca1 O15 2.361745 1_555
Ca1 O14 2.361755 1_545
Ca1 O31 2.364827 1_555
Ca1 O30 2.364837 1_555
Ca1 O34 2.509215 1_545
Ca1 O33 2.509221 1_555
Ca1 O18 2.534578 1_555
Ca1 O17 2.534582 1_555
Ca2 O17 2.361745 1_555
Ca2 O16 2.361755 1_554
Ca2 O24 2.364827 1_555
Ca2 O25 2.364837 1_555
Ca2 O28 2.509215 1_554
Ca2 O31 2.509221 1_555
Ca2 O23 2.534578 1_555
Ca2 O20 2.534582 1_555
Ca3 O18 2.361748 1_555
Ca3 O19 2.361748 1_555
Ca3 O26 2.364830 1_545
Ca3 O27 2.364837 1_555
Ca3 O29 2.509209 1_555
Ca3 O30 2.509215 1_555
Ca3 O22 2.534578 1_545
Ca3 O21 2.534585 1_555
Ca4 O20 2.361745 1_555
Ca4 O21 2.361755 1_455
Ca4 O33 2.364827 1_555
Ca4 O32 2.364837 1_555
Ca4 O27 2.509215 1_455
Ca4 O24 2.509221 1_555
Ca4 O12 2.534578 1_555
Ca4 O15 2.534582 1_555
Ca5 O23 2.361748 1_555
Ca5 O22 2.361748 1_555
Ca5 O35 2.364830 1_554
Ca5 O34 2.364837 1_555
Ca5 O26 2.509209 1_555
Ca5 O25 2.509215 1_555
Ca5 O13 2.534578 1_554
Ca5 O14 2.534585 1_555
Ca6 O0 2.361748 1_555
Ca6 O1 2.361748 1_555
Ca6 O41 2.364830 1_655
Ca6 O40 2.364837 1_555
Ca6 O47 2.509209 1_555
Ca6 O44 2.509215 1_555
Ca6 O7 2.534578 1_655
Ca6 O4 2.534585 1_555
Ca7 O3 2.361745 1_555
Ca7 O2 2.361755 1_565
Ca7 O43 2.364827 1_555
Ca7 O42 2.364837 1_555
Ca7 O46 2.509215 1_565
Ca7 O45 2.509221 1_555
Ca7 O6 2.534578 1_555
Ca7 O5 2.534582 1_555
Ca8 O5 2.361745 1_555
Ca8 O4 2.361755 1_556
Ca8 O36 2.364827 1_555
Ca8 O37 2.364837 1_555
Ca8 O40 2.509215 1_556
Ca8 O43 2.509221 1_555
Ca8 O11 2.534578 1_555
Ca8 O8 2.534582 1_555
Ca9 O7 2.361748 1_555
Ca9 O6 2.361748 1_555
Ca9 O38 2.364830 1_565
Ca9 O39 2.364837 1_555
Ca9 O41 2.509209 1_555
Ca9 O42 2.509215 1_555
Ca9 O10 2.534578 1_565
Ca9 O9 2.534585 1_555
Ca10 O8 2.361745 1_555
Ca10 O9 2.361755 1_655
Ca10 O45 2.364827 1_555
Ca10 O44 2.364837 1_555
Ca10 O39 2.509215 1_655
Ca10 O36 2.509221 1_555
Ca10 O0 2.534578 1_555
Ca10 O3 2.534582 1_555
Ca11 O10 2.361748 1_555
Ca11 O11 2.361748 1_555
Ca11 O47 2.364830 1_556
Ca11 O46 2.364837 1_555
Ca11 O38 2.509209 1_555
Ca11 O37 2.509215 1_555
Ca11 O1 2.534578 1_556
Ca11 O2 2.534585 1_555
Al0 O4 1.960414 1_555
Al0 O16 1.960414 1_554
Al0 O23 1.960420 1_555
Al0 O13 1.960420 1_554
Al0 O11 1.960420 1_554
Al0 O1 1.960420 1_555
Al1 O9 1.960414 1_555
Al1 O21 1.960414 1_455
Al1 O12 1.960420 1_555
Al1 O19 1.960420 1_455
Al1 O7 1.960420 1_555
Al1 O0 1.960420 1_455
Al2 O5 1.960412 1_444
Al2 O3 1.960412 1_444
Al2 O8 1.960412 1_444
Al2 O20 1.960412 1_555
Al2 O15 1.960412 1_555
Al2 O17 1.960412 1_555
Al3 O2 1.960414 1_555
Al3 O14 1.960414 1_545
Al3 O18 1.960420 1_555
Al3 O22 1.960420 1_545
Al3 O10 1.960420 1_555
Al3 O6 1.960420 1_545
Fe0 O40 2.029124 1_455
Fe0 O28 2.029124 1_554
Fe0 O25 2.029124 1_555
Fe0 O37 2.029124 1_454
Fe0 O35 2.029130 1_554
Fe0 O47 2.029130 1_455
Fe1 O31 2.029126 1_555
Fe1 O24 2.029126 1_555
Fe1 O33 2.029126 1_555
Fe1 O45 2.029126 1_555
Fe1 O36 2.029126 1_555
Fe1 O43 2.029126 1_555
Fe2 O39 2.029124 1_545
Fe2 O27 2.029124 1_455
Fe2 O32 2.029124 1_555
Fe2 O44 2.029124 1_445
Fe2 O29 2.029130 1_455
Fe2 O41 2.029130 1_545
Fe3 O46 2.029124 1_554
Fe3 O34 2.029124 1_545
Fe3 O30 2.029124 1_555
Fe3 O42 2.029124 1_544
Fe3 O26 2.029130 1_545
Fe3 O38 2.029130 1_554
O0 Si1 1.668706 1_555
O1 Si1 1.668706 1_555
O2 Si0 1.668705 1_555
O3 Si0 1.668712 1_565
O4 Si3 1.668705 1_555
O5 Si3 1.668712 1_556
O6 Si2 1.668706 1_555
O7 Si2 1.668706 1_555
O8 Si5 1.668712 1_655
O9 Si5 1.668705 1_555
O10 Si4 1.668706 1_555
O11 Si4 1.668706 1_555
O12 Si7 1.668706 1_555
O13 Si7 1.668706 1_555
O14 Si6 1.668705 1_555
O15 Si6 1.668712 1_545
O16 Si9 1.668705 1_555
O17 Si9 1.668712 1_554
O18 Si8 1.668706 1_555
O19 Si8 1.668706 1_555
O20 Si11 1.668712 1_455
O21 Si11 1.668705 1_555
O22 Si10 1.668706 1_555
O23 Si10 1.668706 1_555
O24 Si2 1.656748 1_555
O25 Si2 1.656750 1_555
O26 Si3 1.656752 1_555
O27 Si3 1.656750 1_545
O28 Si0 1.656750 1_455
O29 Si0 1.656752 1_555
O30 Si1 1.656750 1_555
O31 Si1 1.656748 1_555
O32 Si4 1.656750 1_555
O33 Si4 1.656748 1_555
O34 Si5 1.656750 1_554
O35 Si5 1.656752 1_555
O36 Si8 1.656748 1_555
O37 Si8 1.656750 1_555
O38 Si9 1.656752 1_555
O39 Si9 1.656750 1_565
O40 Si6 1.656750 1_655
O41 Si6 1.656752 1_555
O42 Si7 1.656750 1_555
O43 Si7 1.656748 1_555
O44 Si10 1.656750 1_555
O45 Si10 1.656748 1_555
O46 Si11 1.656750 1_556
O47 Si11 1.656752 1_555
