# generated using pymatgen
data_KB(CF3)4
_symmetry_space_group_name_H-M   'P 1'
_cell_length_a   9.21178200
_cell_length_b   9.70161700
_cell_length_c   10.16103700
_cell_angle_alpha   90.00000000
_cell_angle_beta   90.00000000
_cell_angle_gamma   90.00000000
_symmetry_Int_Tables_number   1
_chemical_formula_structural   KB(CF3)4
_chemical_formula_sum   'K4 B4 C16 F48'
_cell_volume   908.08355329
_cell_formula_units_Z   4
loop_
 _symmetry_equiv_pos_site_id
 _symmetry_equiv_pos_as_xyz
  1  'x, y, z'
loop_
 _atom_site_type_symbol
 _atom_site_label
 _atom_site_symmetry_multiplicity
 _atom_site_fract_x
 _atom_site_fract_y
 _atom_site_fract_z
 _atom_site_occupancy
  K  K0  1  0.02643700  0.52320700  0.99717400  1
  K  K1  1  0.47356300  0.47679300  0.49717400  1
  K  K2  1  0.52643700  0.97679300  0.00282600  1
  K  K3  1  0.97356300  0.02320700  0.50282600  1
  B  B0  1  0.48701200  0.51327100  0.98640300  1
  B  B1  1  0.01298800  0.48672900  0.48640300  1
  B  B2  1  0.98701200  0.98672900  0.01359700  1
  B  B3  1  0.51298800  0.01327100  0.51359700  1
  C  C0  1  0.45721100  0.59141200  0.12788900  1
  C  C1  1  0.04278900  0.40858800  0.62788900  1
  C  C2  1  0.95721100  0.90858800  0.87211100  1
  C  C3  1  0.54278900  0.09141200  0.37211100  1
  C  C4  1  0.40928500  0.35975200  0.98726300  1
  C  C5  1  0.09071500  0.64024800  0.48726300  1
  C  C6  1  0.90928500  0.14024800  0.01273700  1
  C  C7  1  0.59071500  0.85975200  0.51273700  1
  C  C8  1  0.66280000  0.49573600  0.95980000  1
  C  C9  1  0.83720000  0.50426400  0.45980000  1
  C  C10  1  0.16280000  0.00426400  0.04020000  1
  C  C11  1  0.33720000  0.99573600  0.54020000  1
  C  C12  1  0.41662200  0.60619400  0.86630600  1
  C  C13  1  0.08337800  0.39380600  0.36630600  1
  C  C14  1  0.91662200  0.89380600  0.13369400  1
  C  C15  1  0.58337800  0.10619400  0.63369400  1
  F  F0  1  0.31356400  0.62475900  0.14881100  1
  F  F1  1  0.18643600  0.37524100  0.64881100  1
  F  F2  1  0.81356400  0.87524100  0.85118900  1
  F  F3  1  0.68643600  0.12475900  0.35118900  1
  F  F4  1  0.53205700  0.71375700  0.14287800  1
  F  F5  1  0.96794300  0.28624300  0.64287800  1
  F  F6  1  0.03205700  0.78624300  0.85712200  1
  F  F7  1  0.46794300  0.21375700  0.35712200  1
  F  F8  1  0.49673600  0.51266100  0.23571500  1
  F  F9  1  0.00326400  0.48733900  0.73571500  1
  F  F10  1  0.99673600  0.98733900  0.76428500  1
  F  F11  1  0.50326400  0.01266100  0.26428500  1
  F  F12  1  0.26990500  0.36081100  0.03946500  1
  F  F13  1  0.23009500  0.63918900  0.53946500  1
  F  F14  1  0.76990500  0.13918900  0.96053500  1
  F  F15  1  0.73009500  0.86081100  0.46053500  1
  F  F16  1  0.48311600  0.26248000  0.06123200  1
  F  F17  1  0.01688400  0.73752000  0.56123200  1
  F  F18  1  0.98311600  0.23752000  0.93876800  1
  F  F19  1  0.51688400  0.76248000  0.43876800  1
  F  F20  1  0.39474800  0.30270800  0.86478700  1
  F  F21  1  0.10525200  0.69729200  0.36478700  1
  F  F22  1  0.89474800  0.19729200  0.13521300  1
  F  F23  1  0.60525200  0.80270800  0.63521300  1
  F  F24  1  0.73929300  0.44781400  0.06812800  1
  F  F25  1  0.76070700  0.55218600  0.56812800  1
  F  F26  1  0.23929300  0.05218600  0.93187200  1
  F  F27  1  0.26070700  0.94781400  0.43187200  1
  F  F28  1  0.73185300  0.61817000  0.92722800  1
  F  F29  1  0.76814700  0.38183000  0.42722800  1
  F  F30  1  0.23185300  0.88183000  0.07277200  1
  F  F31  1  0.26814700  0.11817000  0.57277200  1
  F  F32  1  0.69655100  0.40712000  0.85940800  1
  F  F33  1  0.80344900  0.59288000  0.35940800  1
  F  F34  1  0.19655100  0.09288000  0.14059200  1
  F  F35  1  0.30344900  0.90712000  0.64059200  1
  F  F36  1  0.46345200  0.56589300  0.74325000  1
  F  F37  1  0.03654800  0.43410700  0.24325000  1
  F  F38  1  0.96345200  0.93410700  0.25675000  1
  F  F39  1  0.53654800  0.06589300  0.75675000  1
  F  F40  1  0.44816300  0.74514400  0.87292600  1
  F  F41  1  0.05183700  0.25485600  0.37292600  1
  F  F42  1  0.94816300  0.75485600  0.12707400  1
  F  F43  1  0.55183700  0.24514400  0.62707400  1
  F  F44  1  0.26690500  0.60087400  0.85938800  1
  F  F45  1  0.23309500  0.39912600  0.35938800  1
  F  F46  1  0.76690500  0.89912600  0.14061200  1
  F  F47  1  0.73309500  0.10087400  0.64061200  1
loop_
_geom_bond_atom_site_label_1
_geom_bond_atom_site_label_2
_geom_bond_distance
_geom_bond_site_symmetry_2
B0 C0 1.648299 1_556
B0 C12 1.649942 1_555
B0 C8 1.650518 1_555
B0 C4 1.652573 1_555
B1 C1 1.648299 1_555
B1 C13 1.649942 1_555
B1 C9 1.650518 1_455
B1 C5 1.652573 1_555
B2 C2 1.648299 1_554
B2 C14 1.649942 1_555
B2 C10 1.650518 1_665
B2 C6 1.652573 1_565
B3 C3 1.648299 1_555
B3 C15 1.649942 1_555
B3 C11 1.650518 1_545
B3 C7 1.652573 1_545
C0 F0 1.378708 1_555
C0 F4 1.381085 1_555
C0 F8 1.384439 1_555
C1 F1 1.378708 1_555
C1 F5 1.381085 1_455
C1 F9 1.384439 1_555
C2 F2 1.378708 1_555
C2 F6 1.381085 1_655
C2 F10 1.384439 1_555
C3 F3 1.378708 1_555
C3 F7 1.381085 1_555
C3 F11 1.384439 1_555
C4 F20 1.368555 1_555
C4 F16 1.384927 1_556
C4 F12 1.389228 1_556
C5 F21 1.368555 1_555
C5 F17 1.384927 1_555
C5 F13 1.389228 1_555
C6 F22 1.368555 1_555
C6 F18 1.384927 1_554
C6 F14 1.389228 1_554
C7 F23 1.368555 1_555
C7 F19 1.384927 1_555
C7 F15 1.389228 1_555
C8 F32 1.369801 1_555
C8 F24 1.387177 1_556
C8 F28 1.387462 1_555
C9 F33 1.369801 1_555
C9 F25 1.387177 1_555
C9 F29 1.387462 1_555
C10 F34 1.369801 1_555
C10 F26 1.387177 1_554
C10 F30 1.387462 1_545
C11 F35 1.369801 1_555
C11 F27 1.387177 1_555
C11 F31 1.387462 1_565
C12 F36 1.379277 1_555
C12 F40 1.380635 1_555
C12 F44 1.381915 1_555
C13 F37 1.379277 1_555
C13 F41 1.380635 1_555
C13 F45 1.381915 1_555
C14 F38 1.379277 1_555
C14 F42 1.380635 1_555
C14 F46 1.381915 1_555
C15 F39 1.379277 1_555
C15 F43 1.380635 1_555
C15 F47 1.381915 1_555
F0 K0 3.215658 1_554
F1 K1 3.215658 1_555
F2 K2 3.215658 1_556
F3 K3 3.215658 1_555
F4 K2 2.922308 1_555
F5 K3 2.922308 1_555
F6 K0 2.922308 1_555
F7 K1 2.922308 1_555
F8 K1 2.687877 1_555
F9 K0 2.687877 1_555
F10 K3 2.687877 1_565
F11 K2 2.687877 1_545
F12 K0 2.774330 1_554
F13 K1 2.774330 1_555
F14 K2 2.774330 1_546
F15 K3 2.774330 1_565
F16 K2 2.862405 1_545
F17 K3 2.862405 1_465
F18 K0 2.862405 1_655
F19 K1 2.862405 1_555
F24 K0 2.837496 1_654
F25 K1 2.837496 1_555
F26 K2 2.837496 1_546
F27 K3 2.837496 1_465
F28 K0 2.952588 1_655
F29 K1 2.952588 1_555
F30 K2 2.952588 1_555
F31 K3 2.952588 1_455
F36 K1 2.647229 1_555
F37 K0 2.647229 1_554
F38 K3 2.647229 1_565
F39 K2 2.647229 1_546
F40 K2 2.704211 1_556
F41 K3 2.704211 1_455
F42 K0 2.704211 1_654
F43 K1 2.704211 1_555
F44 K0 2.726670 1_555
F45 K1 2.726670 1_555
F46 K2 2.726670 1_555
F47 K3 2.726670 1_555
