# generated using pymatgen
data_Sr4LiMn2Cu3(SO)4
_symmetry_space_group_name_H-M   'P 1'
_cell_length_a   6.03962039
_cell_length_b   5.84071326
_cell_length_c   9.21246310
_cell_angle_alpha   89.87914254
_cell_angle_beta   68.58314674
_cell_angle_gamma   89.93647213
_symmetry_Int_Tables_number   1
_chemical_formula_structural   Sr4LiMn2Cu3(SO)4
_chemical_formula_sum   'Sr4 Li1 Mn2 Cu3 S4 O4'
_cell_volume   302.53521071
_cell_formula_units_Z   1
loop_
 _symmetry_equiv_pos_site_id
 _symmetry_equiv_pos_as_xyz
  1  'x, y, z'
loop_
 _atom_site_type_symbol
 _atom_site_label
 _atom_site_symmetry_multiplicity
 _atom_site_fract_x
 _atom_site_fract_y
 _atom_site_fract_z
 _atom_site_occupancy
  Sr  Sr0  1  0.49003900  0.00051100  0.21084800  1
  Sr  Sr1  1  0.90307000  0.49885200  0.18642900  1
  Sr  Sr2  1  0.08292800  0.50132600  0.80058900  1
  Sr  Sr3  1  0.58284500  0.99748600  0.80835800  1
  Li  Li0  1  0.10629900  0.99828800  0.14872100  1
  Mn  Mn0  1  0.48606900  0.49756900  0.99983100  1
  Mn  Mn1  1  0.01306300  0.00047800  0.92884200  1
  Cu  Cu0  1  0.50452100  0.28131000  0.50854800  1
  Cu  Cu1  1  0.50741300  0.72269500  0.51126100  1
  Cu  Cu2  1  0.00424000  0.26846500  0.49670700  1
  S  S0  1  0.19136500  0.00344100  0.64183000  1
  S  S1  1  0.66227300  0.49026800  0.66767600  1
  S  S2  1  0.34092100  0.49089400  0.34925500  1
  S  S3  1  0.81069000  0.00256500  0.38288300  1
  O  O0  1  0.22524400  0.24071200  0.01147400  1
  O  O1  1  0.74777600  0.74940500  0.99584000  1
  O  O2  1  0.74842600  0.24772300  0.99277100  1
  O  O3  1  0.22823400  0.75801100  0.00813900  1
loop_
_geom_bond_atom_site_label_1
_geom_bond_atom_site_label_2
_geom_bond_distance
_geom_bond_site_symmetry_2
Li0 O0 1.857675 1_565
Li0 O3 1.870290 1_555
Li0 S3 2.242576 1_465
Li0 Mn1 2.292011 1_564
Mn0 O2 2.136467 1_555
Mn0 O0 2.150552 1_556
Mn0 O1 2.150749 1_555
Mn0 O3 2.157071 1_556
Mn0 S1 2.849564 1_555
Mn0 S2 3.011811 1_556
Mn1 O2 2.073127 1_455
Mn1 O1 2.092307 1_445
Mn1 O0 2.216176 1_556
Mn1 O3 2.216512 1_546
Mn1 S0 2.464058 1_555
Cu0 S1 2.361456 1_555
Cu0 S2 2.382634 1_555
Cu0 S3 2.418280 1_555
Cu0 S0 2.453815 1_555
Cu1 S1 2.401512 1_555
Cu1 S3 2.417077 1_565
Cu1 S0 2.470591 1_565
Cu1 S2 2.485790 1_555
Cu2 S2 2.376765 1_555
Cu2 S3 2.405012 1_455
Cu2 S1 2.460024 1_455
Cu2 S0 2.559612 1_555
S1 Sr3 3.118833 1_545
S1 Sr2 3.198539 1_655
S1 Sr3 3.200829 1_555
S1 Sr2 3.258460 1_555
S2 Sr0 3.132335 1_555
S2 Sr1 3.171773 1_555
S2 Sr0 3.232324 1_565
S2 Sr1 3.484500 1_455
S3 Sr0 2.916166 1_555
O0 Sr1 2.523999 1_455
O0 Sr3 2.690195 1_544
O0 Sr2 2.834484 1_554
O1 Sr0 2.500594 1_566
O1 Sr2 2.603415 1_655
O1 Sr1 2.700525 1_556
O1 Sr3 2.705105 1_555
O2 Sr0 2.501895 1_556
O2 Sr2 2.606429 1_655
O2 Sr3 2.697590 1_545
O2 Sr1 2.727203 1_556
O3 Sr1 2.546797 1_455
O3 Sr3 2.654764 1_554
O3 Sr2 2.813222 1_554
