# generated using pymatgen
data_Cr2HgS4
_symmetry_space_group_name_H-M   'P 1'
_cell_length_a   6.07970000
_cell_length_b   6.97198400
_cell_length_c   13.42238600
_cell_angle_alpha   90.00000000
_cell_angle_beta   90.00000000
_cell_angle_gamma   90.00000000
_symmetry_Int_Tables_number   1
_chemical_formula_structural   Cr2HgS4
_chemical_formula_sum   'Cr8 Hg4 S16'
_cell_volume   568.94234124
_cell_formula_units_Z   4
loop_
 _symmetry_equiv_pos_site_id
 _symmetry_equiv_pos_as_xyz
  1  'x, y, z'
loop_
 _atom_site_type_symbol
 _atom_site_label
 _atom_site_symmetry_multiplicity
 _atom_site_fract_x
 _atom_site_fract_y
 _atom_site_fract_z
 _atom_site_occupancy
  Cr  Cr0  1  0.99857300  0.00000000  0.24402000  1
  Cr  Cr1  1  0.99857300  0.00000000  0.75598000  1
  Cr  Cr2  1  0.00142700  0.50000000  0.25598000  1
  Cr  Cr3  1  0.00142700  0.50000000  0.74402000  1
  Cr  Cr4  1  0.50000000  0.25000000  0.25000000  1
  Cr  Cr5  1  0.50000000  0.75000000  0.75000000  1
  Cr  Cr6  1  0.50000000  0.75000000  0.25000000  1
  Cr  Cr7  1  0.50000000  0.25000000  0.75000000  1
  Hg  Hg0  1  0.37827200  0.00000000  0.00000000  1
  Hg  Hg1  1  0.62172800  0.50000000  0.50000000  1
  Hg  Hg2  1  0.05049300  0.00000000  0.50000000  1
  Hg  Hg3  1  0.94950700  0.50000000  0.00000000  1
  S  S0  1  0.83243300  0.25185900  0.35007100  1
  S  S1  1  0.83243300  0.74814100  0.64992900  1
  S  S2  1  0.16756700  0.75185900  0.14992900  1
  S  S3  1  0.16756700  0.24814100  0.85007100  1
  S  S4  1  0.16756700  0.24814100  0.14992900  1
  S  S5  1  0.16756700  0.75185900  0.85007100  1
  S  S6  1  0.83243300  0.74814100  0.35007100  1
  S  S7  1  0.83243300  0.25185900  0.64992900  1
  S  S8  1  0.65591300  0.00000000  0.15369800  1
  S  S9  1  0.65591300  0.00000000  0.84630200  1
  S  S10  1  0.34408700  0.50000000  0.34630200  1
  S  S11  1  0.34408700  0.50000000  0.65369800  1
  S  S12  1  0.32667300  0.00000000  0.34391200  1
  S  S13  1  0.32667300  0.00000000  0.65608800  1
  S  S14  1  0.67332700  0.50000000  0.15608800  1
  S  S15  1  0.67332700  0.50000000  0.84391200  1
loop_
_geom_bond_atom_site_label_1
_geom_bond_atom_site_label_2
_geom_bond_distance
_geom_bond_site_symmetry_2
Cr0 S4 2.375631 1_655
Cr0 S2 2.375631 1_645
Cr0 S12 2.403485 1_655
Cr0 S8 2.410347 1_555
Cr0 S0 2.475859 1_555
Cr0 S6 2.475859 1_545
Cr1 S3 2.375631 1_655
Cr1 S5 2.375631 1_645
Cr1 S13 2.403485 1_655
Cr1 S9 2.410347 1_555
Cr1 S7 2.475859 1_555
Cr1 S1 2.475859 1_545
Cr2 S6 2.375631 1_455
Cr2 S0 2.375631 1_455
Cr2 S14 2.403485 1_455
Cr2 S10 2.410347 1_555
Cr2 S2 2.475859 1_555
Cr2 S4 2.475859 1_555
Cr3 S1 2.375631 1_455
Cr3 S7 2.375631 1_455
Cr3 S15 2.403485 1_455
Cr3 S11 2.410347 1_555
Cr3 S5 2.475859 1_555
Cr3 S3 2.475859 1_555
Cr4 S10 2.367991 1_555
Cr4 S8 2.367991 1_555
Cr4 S14 2.395287 1_555
Cr4 S12 2.395287 1_555
Cr4 S0 2.426757 1_555
Cr4 S4 2.426757 1_555
Cr5 S9 2.367991 1_565
Cr5 S11 2.367991 1_555
Cr5 S13 2.395287 1_565
Cr5 S15 2.395287 1_555
Cr5 S5 2.426757 1_555
Cr5 S1 2.426757 1_555
Cr6 S10 2.367991 1_555
Cr6 S8 2.367991 1_565
Cr6 S14 2.395287 1_555
Cr6 S12 2.395287 1_565
Cr6 S6 2.426757 1_555
Cr6 S2 2.426757 1_555
Cr7 S9 2.367991 1_555
Cr7 S11 2.367991 1_555
Cr7 S15 2.395287 1_555
Cr7 S13 2.395287 1_555
Cr7 S3 2.426757 1_555
Cr7 S7 2.426757 1_555
Hg0 S9 2.665558 1_554
Hg0 S8 2.665558 1_555
Hg0 S4 2.946831 1_555
Hg0 S2 2.946831 1_545
Hg0 S3 2.946831 1_554
Hg0 S5 2.946831 1_544
Hg1 S10 2.665558 1_555
Hg1 S11 2.665558 1_555
Hg1 S7 2.946831 1_555
Hg1 S1 2.946831 1_555
Hg1 S6 2.946831 1_555
Hg1 S0 2.946831 1_555
Hg2 S13 2.684899 1_555
Hg2 S12 2.684899 1_555
Hg2 S7 2.981735 1_455
Hg2 S1 2.981735 1_445
Hg2 S0 2.981735 1_455
Hg2 S6 2.981735 1_445
Hg3 S14 2.684899 1_555
Hg3 S15 2.684899 1_554
Hg3 S2 2.981735 1_655
Hg3 S4 2.981735 1_655
Hg3 S5 2.981735 1_654
Hg3 S3 2.981735 1_654
