# generated using pymatgen
data_KY(MoO4)2
_symmetry_space_group_name_H-M   'P 1'
_cell_length_a   5.14741400
_cell_length_b   8.10279300
_cell_length_c   18.94080900
_cell_angle_alpha   90.00000000
_cell_angle_beta   90.00000000
_cell_angle_gamma   90.00000000
_symmetry_Int_Tables_number   1
_chemical_formula_structural   KY(MoO4)2
_chemical_formula_sum   'K4 Y4 Mo8 O32'
_cell_volume   789.99140873
_cell_formula_units_Z   4
loop_
 _symmetry_equiv_pos_site_id
 _symmetry_equiv_pos_as_xyz
  1  'x, y, z'
loop_
 _atom_site_type_symbol
 _atom_site_label
 _atom_site_symmetry_multiplicity
 _atom_site_fract_x
 _atom_site_fract_y
 _atom_site_fract_z
 _atom_site_occupancy
  K  K0  1  0.00000000  0.75000000  0.77581100  1
  K  K1  1  0.50000000  0.25000000  0.72418900  1
  K  K2  1  0.00000000  0.25000000  0.22418900  1
  K  K3  1  0.50000000  0.75000000  0.27581100  1
  Y  Y0  1  0.50000000  0.75000000  0.50333800  1
  Y  Y1  1  0.00000000  0.25000000  0.99666200  1
  Y  Y2  1  0.50000000  0.25000000  0.49666200  1
  Y  Y3  1  0.00000000  0.75000000  0.00333800  1
  Mo  Mo0  1  0.47750800  0.50786400  0.90004800  1
  Mo  Mo1  1  0.97750800  0.49213600  0.59995200  1
  Mo  Mo2  1  0.02249200  0.00786400  0.59995200  1
  Mo  Mo3  1  0.52249200  0.99213600  0.90004800  1
  Mo  Mo4  1  0.52249200  0.49213600  0.09995200  1
  Mo  Mo5  1  0.02249200  0.50786400  0.40004800  1
  Mo  Mo6  1  0.97750800  0.99213600  0.40004800  1
  Mo  Mo7  1  0.47750800  0.00786400  0.09995200  1
  O  O0  1  0.59934100  0.51259800  0.81353900  1
  O  O1  1  0.09934100  0.48740200  0.68646100  1
  O  O2  1  0.90065900  0.01259800  0.68646100  1
  O  O3  1  0.40065900  0.98740200  0.81353900  1
  O  O4  1  0.40065900  0.48740200  0.18646100  1
  O  O5  1  0.90065900  0.51259800  0.31353900  1
  O  O6  1  0.09934100  0.98740200  0.31353900  1
  O  O7  1  0.59934100  0.01259800  0.18646100  1
  O  O8  1  0.75207400  0.49748200  0.96449200  1
  O  O9  1  0.25207400  0.50251800  0.53550800  1
  O  O10  1  0.74792600  0.99748200  0.53550800  1
  O  O11  1  0.24792600  0.00251800  0.96449200  1
  O  O12  1  0.24792600  0.50251800  0.03550800  1
  O  O13  1  0.74792600  0.49748200  0.46449200  1
  O  O14  1  0.25207400  0.00251800  0.46449200  1
  O  O15  1  0.75207400  0.99748200  0.03550800  1
  O  O16  1  0.26637700  0.83156800  0.09511300  1
  O  O17  1  0.76637700  0.16843200  0.40488700  1
  O  O18  1  0.23362300  0.33156800  0.40488700  1
  O  O19  1  0.73362300  0.66843200  0.09511300  1
  O  O20  1  0.73362300  0.16843200  0.90488700  1
  O  O21  1  0.23362300  0.83156800  0.59511300  1
  O  O22  1  0.76637700  0.66843200  0.59511300  1
  O  O23  1  0.26637700  0.33156800  0.90488700  1
  O  O24  1  0.25840100  0.18279500  0.09213500  1
  O  O25  1  0.75840100  0.81720500  0.40786500  1
  O  O26  1  0.24159900  0.68279500  0.40786500  1
  O  O27  1  0.74159900  0.31720500  0.09213500  1
  O  O28  1  0.74159900  0.81720500  0.90786500  1
  O  O29  1  0.24159900  0.18279500  0.59213500  1
  O  O30  1  0.75840100  0.31720500  0.59213500  1
  O  O31  1  0.25840100  0.68279500  0.90786500  1
loop_
_geom_bond_atom_site_label_1
_geom_bond_atom_site_label_2
_geom_bond_distance
_geom_bond_site_symmetry_2
K0 O1 2.766406 1_555
K0 O2 2.766406 1_465
K0 O31 2.884743 1_555
K0 O28 2.884743 1_455
K0 O3 2.909344 1_555
K0 O0 2.909344 1_455
K1 O3 2.766406 1_545
K1 O0 2.766406 1_555
K1 O30 2.884743 1_555
K1 O29 2.884743 1_555
K1 O1 2.909344 1_555
K1 O2 2.909344 1_555
K2 O5 2.766406 1_455
K2 O6 2.766406 1_545
K2 O27 2.884743 1_455
K2 O24 2.884743 1_555
K2 O7 2.909344 1_455
K2 O4 2.909344 1_555
K3 O4 2.766406 1_555
K3 O7 2.766406 1_565
K3 O25 2.884743 1_555
K3 O26 2.884743 1_555
K3 O6 2.909344 1_555
K3 O5 2.909344 1_555
Mo0 O0 1.754880 1_555
Mo0 O23 1.797240 1_555
Mo0 O31 1.817427 1_555
Mo0 O8 1.869338 1_555
Mo1 O1 1.754880 1_655
Mo1 O22 1.797240 1_555
Mo1 O30 1.817427 1_555
Mo1 O9 1.869338 1_655
Mo2 O2 1.754880 1_455
Mo2 O21 1.797240 1_545
Mo2 O29 1.817427 1_555
Mo2 O10 1.869338 1_445
Mo3 O3 1.754880 1_555
Mo3 O20 1.797240 1_565
Mo3 O28 1.817427 1_555
Mo3 O11 1.869338 1_565
Mo4 O4 1.754880 1_555
Mo4 O19 1.797240 1_555
Mo4 O27 1.817427 1_555
Mo4 O12 1.869338 1_555
Mo5 O5 1.754880 1_455
Mo5 O18 1.797240 1_555
Mo5 O26 1.817427 1_555
Mo5 O13 1.869338 1_455
Mo6 O6 1.754880 1_655
Mo6 O17 1.797240 1_565
Mo6 O25 1.817427 1_555
Mo6 O14 1.869338 1_665
Mo7 O7 1.754880 1_555
Mo7 O16 1.797240 1_545
Mo7 O24 1.817427 1_555
Mo7 O15 1.869338 1_545
O8 Y1 2.453797 1_655
O8 Y3 2.521215 1_656
O9 Y0 2.453797 1_555
O9 Y2 2.521215 1_555
O10 Y0 2.453797 1_555
O10 Y2 2.521215 1_565
O11 Y1 2.453797 1_555
O11 Y3 2.521215 1_546
O12 Y3 2.453797 1_555
O12 Y1 2.521215 1_554
O13 Y2 2.453797 1_555
O13 Y0 2.521215 1_555
O14 Y2 2.453797 1_555
O14 Y0 2.521215 1_545
O15 Y3 2.453797 1_655
O15 Y1 2.521215 1_664
O16 Y3 2.310530 1_555
O17 Y2 2.310530 1_555
O18 Y2 2.310530 1_555
O19 Y3 2.310530 1_655
O20 Y1 2.310530 1_655
O21 Y0 2.310530 1_555
O22 Y0 2.310530 1_555
O23 Y1 2.310530 1_555
O24 Y1 2.309928 1_554
O25 Y0 2.309928 1_555
O26 Y0 2.309928 1_555
O27 Y1 2.309928 1_654
O28 Y3 2.309928 1_656
O29 Y2 2.309928 1_555
O30 Y2 2.309928 1_555
O31 Y3 2.309928 1_556
