# generated using pymatgen
data_La2TiCuO6
_symmetry_space_group_name_H-M   'P 1'
_cell_length_a   5.74626400
_cell_length_b   5.61676600
_cell_length_c   9.59307496
_cell_angle_alpha   54.47533136
_cell_angle_beta   90.00000000
_cell_angle_gamma   90.00000000
_symmetry_Int_Tables_number   1
_chemical_formula_structural   La2TiCuO6
_chemical_formula_sum   'La4 Ti2 Cu2 O12'
_cell_volume   251.98943999
_cell_formula_units_Z   2
loop_
 _symmetry_equiv_pos_site_id
 _symmetry_equiv_pos_as_xyz
  1  'x, y, z'
loop_
 _atom_site_type_symbol
 _atom_site_label
 _atom_site_symmetry_multiplicity
 _atom_site_fract_x
 _atom_site_fract_y
 _atom_site_fract_z
 _atom_site_occupancy
  La  La0  1  0.54706000  0.73939100  0.74900000  1
  La  La1  1  0.04706000  0.26060900  0.75100000  1
  La  La2  1  0.45294000  0.26060900  0.25100000  1
  La  La3  1  0.95294000  0.73939100  0.24900000  1
  Ti  Ti0  1  0.50000000  0.50000000  0.50000000  1
  Ti  Ti1  1  0.00000000  0.50000000  0.00000000  1
  Cu  Cu0  1  0.50000000  0.00000000  0.00000000  1
  Cu  Cu1  1  0.00000000  0.00000000  0.50000000  1
  O  O0  1  0.97506700  0.83381900  0.75416100  1
  O  O1  1  0.47506700  0.16618100  0.74583900  1
  O  O2  1  0.02493300  0.16618100  0.24583900  1
  O  O3  1  0.52493300  0.83381900  0.25416100  1
  O  O4  1  0.79947700  0.26985400  0.95339700  1
  O  O5  1  0.29947700  0.73014600  0.54660300  1
  O  O6  1  0.22230800  0.34879100  0.45092900  1
  O  O7  1  0.72230800  0.65120900  0.04907100  1
  O  O8  1  0.20052300  0.73014600  0.04660300  1
  O  O9  1  0.70052300  0.26985400  0.45339700  1
  O  O10  1  0.77769200  0.65120900  0.54907100  1
  O  O11  1  0.27769200  0.34879100  0.95092900  1
loop_
_geom_bond_atom_site_label_1
_geom_bond_atom_site_label_2
_geom_bond_distance
_geom_bond_site_symmetry_2
La0 O1 2.415379 1_565
La0 O5 2.431814 1_555
La0 O11 2.454128 1_555
La0 O0 2.522523 1_555
La0 O10 2.604626 1_555
La0 O4 2.625706 1_555
La0 O9 2.806725 1_565
La0 O7 2.808715 1_556
La1 O0 2.415379 1_445
La1 O4 2.431814 1_455
La1 O10 2.454128 1_455
La1 O1 2.522523 1_555
La1 O11 2.604626 1_555
La1 O5 2.625706 1_555
La1 O8 2.806725 1_546
La1 O6 2.808715 1_555
La2 O3 2.415379 1_545
La2 O9 2.431814 1_555
La2 O7 2.454128 1_555
La2 O2 2.522523 1_555
La2 O6 2.604626 1_555
La2 O8 2.625706 1_555
La2 O5 2.806725 1_545
La2 O11 2.808715 1_554
La3 O2 2.415379 1_665
La3 O8 2.431814 1_655
La3 O6 2.454128 1_655
La3 O3 2.522523 1_555
La3 O7 2.604626 1_555
La3 O9 2.625706 1_555
La3 O4 2.806725 1_564
La3 O10 2.808715 1_555
Cu0 O1 2.047385 1_554
Cu0 O3 2.047385 1_545
Cu0 O7 2.149353 1_545
Cu0 O11 2.149353 1_554
Cu0 O4 2.161290 1_554
Cu0 O8 2.161290 1_545
Cu1 O0 2.047385 1_445
Cu1 O2 2.047385 1_555
Cu1 O6 2.149353 1_555
Cu1 O10 2.149353 1_445
Cu1 O9 2.161290 1_455
Cu1 O5 2.161290 1_545
O0 Ti1 1.989781 1_656
O1 Ti0 1.989781 1_555
O2 Ti1 1.989781 1_555
O3 Ti0 1.989781 1_555
O4 Ti1 1.967276 1_656
O5 Ti0 1.967276 1_555
O6 Ti0 1.988407 1_555
O7 Ti1 1.988407 1_655
O8 Ti1 1.967276 1_555
O9 Ti0 1.967276 1_555
O10 Ti0 1.988407 1_555
O11 Ti1 1.988407 1_556
