# generated using pymatgen
data_CaAl2SiO6
_symmetry_space_group_name_H-M   'P 1'
_cell_length_a   6.52999990
_cell_length_b   6.52999990
_cell_length_c   5.33711908
_cell_angle_alpha   78.09894889
_cell_angle_beta   78.09894889
_cell_angle_gamma   83.79498952
_symmetry_Int_Tables_number   1
_chemical_formula_structural   CaAl2SiO6
_chemical_formula_sum   'Ca2 Al4 Si2 O12'
_cell_volume   217.38976389
_cell_formula_units_Z   2
loop_
 _symmetry_equiv_pos_site_id
 _symmetry_equiv_pos_as_xyz
  1  'x, y, z'
loop_
 _atom_site_type_symbol
 _atom_site_label
 _atom_site_symmetry_multiplicity
 _atom_site_fract_x
 _atom_site_fract_y
 _atom_site_fract_z
 _atom_site_occupancy
  Ca  Ca0  1  0.68872300  0.31127700  0.00000000  1
  Ca  Ca1  1  0.31088000  0.68912000  0.50000000  1
  Al  Al0  1  0.61610700  0.81394400  0.96142800  1
  Al  Al1  1  0.18605600  0.38389300  0.03857200  1
  Al  Al2  1  0.09072000  0.90928000  0.00000000  1
  Al  Al3  1  0.90890600  0.09109400  0.50000000  1
  Si  Si0  1  0.38614400  0.19488400  0.53389300  1
  Si  Si1  1  0.80511600  0.61385600  0.46610700  1
  O  O0  1  0.82200300  0.98687400  0.86244400  1
  O  O1  1  0.35786000  0.89835300  0.07136400  1
  O  O2  1  0.62954900  0.65756000  0.72357000  1
  O  O3  1  0.01312600  0.17799700  0.13755600  1
  O  O4  1  0.10164700  0.64214000  0.92863600  1
  O  O5  1  0.34244000  0.37045100  0.27643000  1
  O  O6  1  0.19536800  0.03092900  0.61845700  1
  O  O7  1  0.62535600  0.09794800  0.44619500  1
  O  O8  1  0.37782000  0.32894300  0.76362800  1
  O  O9  1  0.96907100  0.80463200  0.38154300  1
  O  O10  1  0.90205200  0.37464400  0.55380500  1
  O  O11  1  0.67105700  0.62218000  0.23637200  1
loop_
_geom_bond_atom_site_label_1
_geom_bond_atom_site_label_2
_geom_bond_distance
_geom_bond_site_symmetry_2
Ca0 O3 2.400667 1_655
Ca0 O0 2.400667 1_544
Ca0 O2 2.471717 1_554
Ca0 O5 2.471717 1_555
Ca0 O10 2.476444 1_554
Ca0 O7 2.476444 1_555
Ca0 O8 2.583060 1_554
Ca0 O11 2.583060 1_555
Ca1 O4 2.388797 1_555
Ca1 O1 2.388797 1_555
Ca1 O9 2.443751 1_455
Ca1 O6 2.443751 1_565
Ca1 O8 2.523689 1_555
Ca1 O11 2.523689 1_555
Ca1 O5 2.574177 1_555
Ca1 O2 2.574177 1_555
Al0 O1 1.736728 1_556
Al0 O2 1.769589 1_555
Al0 O0 1.775146 1_555
Al0 O11 1.792278 1_556
Al1 O4 1.736728 1_554
Al1 O5 1.769589 1_555
Al1 O3 1.775146 1_555
Al1 O8 1.792278 1_554
Al2 O4 1.851781 1_554
Al2 O1 1.851781 1_555
Al2 O0 2.015060 1_454
Al2 O3 2.015060 1_565
Al2 O6 2.030004 1_564
Al2 O9 2.030004 1_455
Al3 O3 1.901283 1_655
Al3 O0 1.901283 1_545
Al3 O10 1.925852 1_555
Al3 O7 1.925852 1_555
Al3 O9 2.068729 1_545
Al3 O6 2.068729 1_655
O2 Si1 1.650832 1_555
O5 Si0 1.650832 1_555
O6 Si0 1.661025 1_555
O7 Si0 1.632995 1_555
O8 Si0 1.636335 1_555
O9 Si1 1.661025 1_555
O10 Si1 1.632995 1_555
O11 Si1 1.636335 1_555
