# generated using pymatgen
data_Ba5(FeN2)2
_symmetry_space_group_name_H-M   'P 1'
_cell_length_a   9.28853100
_cell_length_b   9.28853100
_cell_length_c   13.02845500
_cell_angle_alpha   90.00000000
_cell_angle_beta   90.00000000
_cell_angle_gamma   90.00000000
_symmetry_Int_Tables_number   1
_chemical_formula_structural   Ba5(FeN2)2
_chemical_formula_sum   'Ba20 Fe8 N16'
_cell_volume   1124.05351237
_cell_formula_units_Z   4
loop_
 _symmetry_equiv_pos_site_id
 _symmetry_equiv_pos_as_xyz
  1  'x, y, z'
loop_
 _atom_site_type_symbol
 _atom_site_label
 _atom_site_symmetry_multiplicity
 _atom_site_fract_x
 _atom_site_fract_y
 _atom_site_fract_z
 _atom_site_occupancy
  Ba  Ba0  1  0.75000000  0.75000000  0.33671800  1
  Ba  Ba1  1  0.75000000  0.75000000  0.83671800  1
  Ba  Ba2  1  0.25000000  0.25000000  0.66328200  1
  Ba  Ba3  1  0.25000000  0.25000000  0.16328200  1
  Ba  Ba4  1  0.13658800  0.56852000  0.39630000  1
  Ba  Ba5  1  0.36341200  0.56852000  0.89630000  1
  Ba  Ba6  1  0.13658800  0.93148000  0.89630000  1
  Ba  Ba7  1  0.36341200  0.93148000  0.39630000  1
  Ba  Ba8  1  0.56852000  0.13658800  0.89630000  1
  Ba  Ba9  1  0.93148000  0.13658800  0.39630000  1
  Ba  Ba10  1  0.56852000  0.36341200  0.39630000  1
  Ba  Ba11  1  0.93148000  0.36341200  0.89630000  1
  Ba  Ba12  1  0.86341200  0.43148000  0.60370000  1
  Ba  Ba13  1  0.63658800  0.43148000  0.10370100  1
  Ba  Ba14  1  0.86341200  0.06852000  0.10370100  1
  Ba  Ba15  1  0.63658800  0.06852000  0.60370000  1
  Ba  Ba16  1  0.43148000  0.86341200  0.10370100  1
  Ba  Ba17  1  0.06852000  0.86341200  0.60370000  1
  Ba  Ba18  1  0.43148000  0.63658800  0.60370000  1
  Ba  Ba19  1  0.06852000  0.63658800  0.10370100  1
  Fe  Fe0  1  0.09275000  0.90725000  0.25000000  1
  Fe  Fe1  1  0.40725000  0.90725000  0.75000000  1
  Fe  Fe2  1  0.09275000  0.59275000  0.75000000  1
  Fe  Fe3  1  0.40725000  0.59275000  0.25000000  1
  Fe  Fe4  1  0.90725000  0.09275000  0.75000000  1
  Fe  Fe5  1  0.59275000  0.09275000  0.25000000  1
  Fe  Fe6  1  0.90725000  0.40725000  0.25000000  1
  Fe  Fe7  1  0.59275000  0.40725000  0.75000000  1
  N  N0  1  0.64511600  0.05470800  0.37460500  1
  N  N1  1  0.85488400  0.05470800  0.87460500  1
  N  N2  1  0.64511600  0.44529200  0.87460500  1
  N  N3  1  0.85488400  0.44529200  0.37460500  1
  N  N4  1  0.05470800  0.64511600  0.87460500  1
  N  N5  1  0.44529200  0.64511600  0.37460500  1
  N  N6  1  0.05470800  0.85488400  0.37460500  1
  N  N7  1  0.44529200  0.85488400  0.87460500  1
  N  N8  1  0.35488400  0.94529200  0.62539500  1
  N  N9  1  0.14511600  0.94529200  0.12539500  1
  N  N10  1  0.35488400  0.55470800  0.12539500  1
  N  N11  1  0.14511600  0.55470800  0.62539500  1
  N  N12  1  0.94529200  0.35488400  0.12539500  1
  N  N13  1  0.55470800  0.35488400  0.62539500  1
  N  N14  1  0.94529200  0.14511600  0.62539500  1
  N  N15  1  0.55470800  0.14511600  0.12539500  1
loop_
_geom_bond_atom_site_label_1
_geom_bond_atom_site_label_2
_geom_bond_distance
_geom_bond_site_symmetry_2
Ba0 N0 3.033693 1_565
Ba0 N6 3.033693 1_655
Ba0 N3 3.033693 1_555
Ba0 N5 3.033693 1_555
Ba1 N4 3.033693 1_655
Ba1 N1 3.033693 1_565
Ba1 N7 3.033693 1_555
Ba1 N2 3.033693 1_555
Ba2 N11 3.033693 1_555
Ba2 N13 3.033693 1_555
Ba2 N8 3.033693 1_545
Ba2 N14 3.033693 1_455
Ba3 N10 3.033693 1_555
Ba3 N15 3.033693 1_555
Ba3 N12 3.033693 1_455
Ba3 N9 3.033693 1_545
Ba4 N6 2.780898 1_555
Ba4 N3 2.869965 1_455
Ba4 N5 2.967843 1_555
Ba4 N11 2.988560 1_555
Ba5 N7 2.780898 1_555
Ba5 N2 2.869965 1_555
Ba5 N4 2.967843 1_555
Ba5 N10 2.988560 1_556
Ba6 N4 2.780898 1_555
Ba6 N1 2.869965 1_465
Ba6 N7 2.967843 1_555
Ba6 N9 2.988560 1_556
Ba7 N5 2.780898 1_555
Ba7 N0 2.869965 1_565
Ba7 N6 2.967843 1_555
Ba7 N8 2.988560 1_555
Ba8 N1 2.780898 1_555
Ba8 N7 2.869965 1_545
Ba8 N2 2.967843 1_555
Ba8 N15 2.988560 1_556
Ba9 N0 2.780898 1_555
Ba9 N6 2.869965 1_645
Ba9 N3 2.967843 1_555
Ba9 N14 2.988560 1_555
Ba10 N3 2.780898 1_555
Ba10 N5 2.869965 1_555
Ba10 N0 2.967843 1_555
Ba10 N13 2.988560 1_555
Ba11 N2 2.780898 1_555
Ba11 N4 2.869965 1_655
Ba11 N1 2.967843 1_555
Ba11 N12 2.988560 1_556
Ba12 N14 2.780898 1_555
Ba12 N11 2.869965 1_655
Ba12 N13 2.967843 1_555
Ba12 N3 2.988560 1_555
Ba13 N15 2.780897 1_555
Ba13 N10 2.869964 1_555
Ba13 N12 2.967842 1_555
Ba13 N2 2.988573 1_554
Ba14 N12 2.780897 1_555
Ba14 N9 2.869964 1_645
Ba14 N15 2.967842 1_555
Ba14 N1 2.988573 1_554
Ba15 N13 2.780898 1_555
Ba15 N8 2.869965 1_545
Ba15 N14 2.967843 1_555
Ba15 N0 2.988560 1_555
Ba16 N9 2.780897 1_555
Ba16 N15 2.869964 1_565
Ba16 N10 2.967842 1_555
Ba16 N7 2.988573 1_554
Ba17 N8 2.780898 1_555
Ba17 N14 2.869965 1_465
Ba17 N11 2.967843 1_555
Ba17 N6 2.988560 1_555
Ba18 N11 2.780898 1_555
Ba18 N13 2.869965 1_555
Ba18 N8 2.967843 1_555
Ba18 N5 2.988560 1_555
Ba19 N10 2.780897 1_555
Ba19 N12 2.869964 1_455
Ba19 N9 2.967842 1_555
Ba19 N4 2.988573 1_554
Fe0 N6 1.731158 1_555
Fe0 N9 1.731158 1_555
Fe1 N7 1.731158 1_555
Fe1 N8 1.731158 1_555
Fe2 N4 1.731158 1_555
Fe2 N11 1.731158 1_555
Fe3 N5 1.731158 1_555
Fe3 N10 1.731158 1_555
Fe4 N1 1.731158 1_555
Fe4 N14 1.731158 1_555
Fe5 N0 1.731158 1_555
Fe5 N15 1.731158 1_555
Fe6 N3 1.731158 1_555
Fe6 N12 1.731158 1_555
Fe7 N2 1.731158 1_555
Fe7 N13 1.731158 1_555
