# generated using pymatgen
data_CaCuBiO5
_symmetry_space_group_name_H-M   'P 1'
_cell_length_a   11.01463400
_cell_length_b   5.61745000
_cell_length_c   7.94170471
_cell_angle_alpha   77.97526994
_cell_angle_beta   90.00000000
_cell_angle_gamma   90.00000000
_symmetry_Int_Tables_number   1
_chemical_formula_structural   CaCuBiO5
_chemical_formula_sum   'Ca4 Cu4 Bi4 O20'
_cell_volume   480.60416369
_cell_formula_units_Z   4
loop_
 _symmetry_equiv_pos_site_id
 _symmetry_equiv_pos_as_xyz
  1  'x, y, z'
loop_
 _atom_site_type_symbol
 _atom_site_label
 _atom_site_symmetry_multiplicity
 _atom_site_fract_x
 _atom_site_fract_y
 _atom_site_fract_z
 _atom_site_occupancy
  Ca  Ca0  1  0.09559700  0.53179900  0.78881900  1
  Ca  Ca1  1  0.90440300  0.46820100  0.21118100  1
  Ca  Ca2  1  0.59559700  0.46820100  0.71118100  1
  Ca  Ca3  1  0.40440300  0.53179900  0.28881900  1
  Cu  Cu0  1  0.35905300  0.13911300  0.03313600  1
  Cu  Cu1  1  0.64094700  0.86088700  0.96686400  1
  Cu  Cu2  1  0.85905300  0.86088700  0.46686400  1
  Cu  Cu3  1  0.14094700  0.13911300  0.53313600  1
  Bi  Bi0  1  0.89987500  0.99544300  0.84101600  1
  Bi  Bi1  1  0.10012500  0.00455700  0.15898400  1
  Bi  Bi2  1  0.60012500  0.99544300  0.34101600  1
  Bi  Bi3  1  0.39987500  0.00455700  0.65898400  1
  O  O0  1  0.91732900  0.72308100  0.68490400  1
  O  O1  1  0.00188600  0.22527300  0.64416300  1
  O  O2  1  0.78847200  0.10506300  0.29814400  1
  O  O3  1  0.46400400  0.75816600  0.49836900  1
  O  O4  1  0.70747200  0.76757200  0.53801400  1
  O  O5  1  0.79252800  0.76757200  0.03801400  1
  O  O6  1  0.49811400  0.22527300  0.14416300  1
  O  O7  1  0.50188600  0.77472700  0.85583700  1
  O  O8  1  0.53599600  0.24183400  0.50163100  1
  O  O9  1  0.41732900  0.27691900  0.81509600  1
  O  O10  1  0.29252800  0.23242800  0.46198600  1
  O  O11  1  0.08267100  0.27691900  0.31509600  1
  O  O12  1  0.58267100  0.72308100  0.18490400  1
  O  O13  1  0.20747200  0.23242800  0.96198600  1
  O  O14  1  0.96400400  0.24183400  0.00163100  1
  O  O15  1  0.03599600  0.75816600  0.99836900  1
  O  O16  1  0.21152800  0.89493700  0.70185600  1
  O  O17  1  0.99811400  0.77472700  0.35583700  1
  O  O18  1  0.28847200  0.89493700  0.20185600  1
  O  O19  1  0.71152800  0.10506300  0.79814400  1
loop_
_geom_bond_atom_site_label_1
_geom_bond_atom_site_label_2
_geom_bond_distance
_geom_bond_site_symmetry_2
Ca0 O13 2.296570 1_555
Ca0 O0 2.306885 1_455
Ca0 O16 2.383645 1_555
Ca0 O15 2.387301 1_555
Ca0 O1 2.484823 1_555
Ca0 O14 2.542331 1_456
Ca1 O5 2.296570 1_555
Ca1 O11 2.306885 1_655
Ca1 O2 2.383645 1_555
Ca1 O14 2.387301 1_555
Ca1 O17 2.484823 1_555
Ca1 O15 2.542331 1_654
Ca2 O4 2.296570 1_555
Ca2 O9 2.306885 1_555
Ca2 O19 2.383645 1_555
Ca2 O8 2.387301 1_555
Ca2 O7 2.484823 1_555
Ca2 O3 2.542331 1_555
Ca3 O10 2.296570 1_555
Ca3 O12 2.306885 1_555
Ca3 O18 2.383645 1_555
Ca3 O3 2.387301 1_555
Ca3 O6 2.484823 1_555
Ca3 O8 2.542331 1_555
Cu0 O13 1.805060 1_554
Cu0 O9 1.857746 1_554
Cu0 O18 1.874941 1_545
Cu0 O6 1.880338 1_555
Cu1 O5 1.805060 1_556
Cu1 O12 1.857746 1_556
Cu1 O19 1.874941 1_565
Cu1 O7 1.880338 1_555
Cu2 O4 1.805060 1_555
Cu2 O0 1.857746 1_555
Cu2 O2 1.874941 1_565
Cu2 O17 1.880338 1_555
Cu3 O10 1.805060 1_555
Cu3 O11 1.857746 1_555
Cu3 O16 1.874941 1_545
Cu3 O1 1.880338 1_555
Bi0 O1 2.128945 1_665
Bi0 O5 2.156340 1_556
Bi0 O0 2.169159 1_555
Bi0 O19 2.170625 1_565
Bi0 O14 2.185706 1_566
Bi0 O15 2.211826 1_655
Bi1 O17 2.128945 1_445
Bi1 O13 2.156340 1_554
Bi1 O11 2.169159 1_555
Bi1 O18 2.170625 1_545
Bi1 O15 2.185706 1_544
Bi1 O14 2.211826 1_455
Bi2 O6 2.128945 1_565
Bi2 O4 2.156340 1_555
Bi2 O12 2.169159 1_555
Bi2 O2 2.170625 1_565
Bi2 O8 2.185706 1_565
Bi2 O3 2.211826 1_555
Bi3 O7 2.128945 1_545
Bi3 O10 2.156340 1_555
Bi3 O9 2.169159 1_555
Bi3 O16 2.170625 1_545
Bi3 O3 2.185706 1_545
Bi3 O8 2.211826 1_555
