# generated using pymatgen
data_CrGeSbO6
_symmetry_space_group_name_H-M   'P 1'
_cell_length_a   4.60414200
_cell_length_b   9.20828400
_cell_length_c   9.12888200
_cell_angle_alpha   90.00000000
_cell_angle_beta   90.00000000
_cell_angle_gamma   90.00000000
_symmetry_Int_Tables_number   1
_chemical_formula_structural   CrGeSbO6
_chemical_formula_sum   'Cr4 Ge4 Sb4 O24'
_cell_volume   387.03033713
_cell_formula_units_Z   4
loop_
 _symmetry_equiv_pos_site_id
 _symmetry_equiv_pos_as_xyz
  1  'x, y, z'
loop_
 _atom_site_type_symbol
 _atom_site_label
 _atom_site_symmetry_multiplicity
 _atom_site_fract_x
 _atom_site_fract_y
 _atom_site_fract_z
 _atom_site_occupancy
  Cr  Cr0  1  0.50000000  0.75000000  0.16677600  1
  Cr  Cr1  1  0.00000000  0.50000000  0.66677600  1
  Cr  Cr2  1  0.50000000  0.25000000  0.16677600  1
  Cr  Cr3  1  0.00000000  0.00000000  0.66677600  1
  Ge  Ge0  1  0.50000000  0.25000000  0.49961500  1
  Ge  Ge1  1  0.50000000  0.75000000  0.49961500  1
  Ge  Ge2  1  0.00000000  0.00000000  0.99961500  1
  Ge  Ge3  1  0.00000000  0.50000000  0.99961500  1
  Sb  Sb0  1  0.50000000  0.25000000  0.83366700  1
  Sb  Sb1  1  0.50000000  0.75000000  0.83366700  1
  Sb  Sb2  1  0.00000000  0.00000000  0.33366700  1
  Sb  Sb3  1  0.00000000  0.50000000  0.33366700  1
  O  O0  1  0.19040400  0.40479800  0.16106800  1
  O  O1  1  0.19040400  0.90479800  0.16106800  1
  O  O2  1  0.80959600  0.09520200  0.16106800  1
  O  O3  1  0.80959600  0.59520200  0.16106800  1
  O  O4  1  0.30959600  0.15479800  0.66106800  1
  O  O5  1  0.30959600  0.65479800  0.66106800  1
  O  O6  1  0.69040400  0.34520200  0.66106800  1
  O  O7  1  0.69040400  0.84520200  0.66106800  1
  O  O8  1  0.20122500  0.39938800  0.49943900  1
  O  O9  1  0.20122500  0.89938800  0.49943900  1
  O  O10  1  0.79877500  0.10061200  0.49943900  1
  O  O11  1  0.79877500  0.60061200  0.49943900  1
  O  O12  1  0.29877500  0.14938800  0.99943900  1
  O  O13  1  0.29877500  0.64938800  0.99943900  1
  O  O14  1  0.70122500  0.35061200  0.99943900  1
  O  O15  1  0.70122500  0.85061200  0.99943900  1
  O  O16  1  0.18971700  0.40514100  0.83946400  1
  O  O17  1  0.18971700  0.90514100  0.83946400  1
  O  O18  1  0.81028300  0.09485900  0.83946400  1
  O  O19  1  0.81028300  0.59485900  0.83946400  1
  O  O20  1  0.31028300  0.15514100  0.33946400  1
  O  O21  1  0.31028300  0.65514100  0.33946400  1
  O  O22  1  0.68971700  0.34485900  0.33946400  1
  O  O23  1  0.68971700  0.84485900  0.33946400  1
loop_
_geom_bond_atom_site_label_1
_geom_bond_atom_site_label_2
_geom_bond_distance
_geom_bond_site_symmetry_2
Cr0 O23 2.002785 1_555
Cr0 O21 2.002785 1_555
Cr0 O15 2.012521 1_554
Cr0 O13 2.012521 1_554
Cr0 O3 2.016527 1_555
Cr0 O1 2.016527 1_555
Cr1 O19 2.002785 1_455
Cr1 O16 2.002785 1_555
Cr1 O11 2.012521 1_455
Cr1 O8 2.012521 1_555
Cr1 O6 2.016527 1_455
Cr1 O5 2.016527 1_555
Cr2 O22 2.002785 1_555
Cr2 O20 2.002785 1_555
Cr2 O14 2.012521 1_554
Cr2 O12 2.012521 1_554
Cr2 O0 2.016527 1_555
Cr2 O2 2.016527 1_555
Cr3 O18 2.002785 1_455
Cr3 O17 2.002785 1_545
Cr3 O9 2.012521 1_545
Cr3 O10 2.012521 1_455
Cr3 O4 2.016527 1_555
Cr3 O7 2.016527 1_445
Ge0 O20 1.914001 1_555
Ge0 O22 1.914001 1_555
Ge0 O4 1.925969 1_555
Ge0 O6 1.925969 1_555
Ge0 O8 1.945400 1_555
Ge0 O10 1.945400 1_555
Ge1 O23 1.914001 1_555
Ge1 O21 1.914001 1_555
Ge1 O7 1.925969 1_555
Ge1 O5 1.925969 1_555
Ge1 O11 1.945400 1_555
Ge1 O9 1.945400 1_555
Ge2 O17 1.914001 1_545
Ge2 O18 1.914001 1_455
Ge2 O2 1.925969 1_456
Ge2 O1 1.925969 1_546
Ge2 O15 1.945400 1_445
Ge2 O12 1.945400 1_555
Ge3 O19 1.914001 1_455
Ge3 O16 1.914001 1_555
Ge3 O0 1.925969 1_556
Ge3 O3 1.925969 1_456
Ge3 O13 1.945400 1_555
Ge3 O14 1.945400 1_455
O0 Sb3 2.004906 1_555
O1 Sb2 2.004906 1_565
O2 Sb2 2.004906 1_655
O3 Sb3 2.004906 1_655
O4 Sb0 2.004906 1_555
O5 Sb1 2.004906 1_555
O6 Sb0 2.004906 1_555
O7 Sb1 2.004906 1_555
O8 Sb3 2.001698 1_555
O9 Sb2 2.001698 1_565
O10 Sb2 2.001698 1_655
O11 Sb3 2.001698 1_655
O12 Sb0 2.001698 1_555
O13 Sb1 2.001698 1_555
O14 Sb0 2.001698 1_555
O15 Sb1 2.001698 1_555
O16 Sb0 2.021017 1_555
O17 Sb1 2.021017 1_555
O18 Sb0 2.021017 1_555
O19 Sb1 2.021017 1_555
O20 Sb2 2.021017 1_555
O21 Sb3 2.021017 1_555
O22 Sb3 2.021017 1_655
O23 Sb2 2.021017 1_665
