# generated using pymatgen
data_Li7Mn5O12
_symmetry_space_group_name_H-M   'P 1'
_cell_length_a   5.94181970
_cell_length_b   7.69511540
_cell_length_c   9.96267288
_cell_angle_alpha   78.87524298
_cell_angle_beta   93.43958205
_cell_angle_gamma   81.95837340
_symmetry_Int_Tables_number   1
_chemical_formula_structural   Li7Mn5O12
_chemical_formula_sum   'Li14 Mn10 O24'
_cell_volume   440.79102937
_cell_formula_units_Z   2
loop_
 _symmetry_equiv_pos_site_id
 _symmetry_equiv_pos_as_xyz
  1  'x, y, z'
loop_
 _atom_site_type_symbol
 _atom_site_label
 _atom_site_symmetry_multiplicity
 _atom_site_fract_x
 _atom_site_fract_y
 _atom_site_fract_z
 _atom_site_occupancy
  Li  Li0  1  0.33326400  0.66668400  0.00000600  1
  Li  Li1  1  0.83339500  0.66665800  0.00000000  1
  Li  Li2  1  0.46007100  0.16635400  0.25396100  1
  Li  Li3  1  0.96012600  0.16636300  0.25395100  1
  Li  Li4  1  0.20654800  0.16696800  0.74605200  1
  Li  Li5  1  0.70659100  0.16698400  0.74603700  1
  Li  Li6  1  0.11457000  0.51703900  0.24094000  1
  Li  Li7  1  0.61460700  0.51694100  0.24096500  1
  Li  Li8  1  0.05209800  0.81630300  0.75905900  1
  Li  Li9  1  0.55205700  0.81638400  0.75903700  1
  Li  Li10  1  0.36728100  0.50713800  0.75723000  1
  Li  Li11  1  0.86729500  0.50712500  0.75722100  1
  Li  Li12  1  0.29935400  0.82620800  0.24277400  1
  Li  Li13  1  0.79940200  0.82619200  0.24277000  1
  Mn  Mn0  1  0.58344900  0.66673200  0.49998800  1
  Mn  Mn1  1  0.99740200  0.99012600  0.00370800  1
  Mn  Mn2  1  0.16926600  0.34322000  0.99630500  1
  Mn  Mn3  1  0.25093700  0.99927000  0.50225300  1
  Mn  Mn4  1  0.91570700  0.33402200  0.49778400  1
  Mn  Mn5  1  0.08323500  0.66669600  0.49991100  1
  Mn  Mn6  1  0.49745600  0.99001700  0.00372800  1
  Mn  Mn7  1  0.66920200  0.34331900  0.99627900  1
  Mn  Mn8  1  0.75095400  0.99904900  0.50205500  1
  Mn  Mn9  1  0.41567800  0.33422800  0.49796800  1
  O  O0  1  0.23732600  0.08255300  0.10488000  1
  O  O1  1  0.73729200  0.08257500  0.10485500  1
  O  O2  1  0.42937000  0.25075900  0.89515200  1
  O  O3  1  0.92933300  0.25078900  0.89512300  1
  O  O4  1  0.45736700  0.09411100  0.61918000  1
  O  O5  1  0.95733100  0.09411700  0.61911700  1
  O  O6  1  0.20932200  0.23919700  0.38087700  1
  O  O7  1  0.70931600  0.23919200  0.38083000  1
  O  O8  1  0.41975600  0.39890100  0.10822100  1
  O  O9  1  0.91974700  0.39890400  0.10824100  1
  O  O10  1  0.24691700  0.93443800  0.89176700  1
  O  O11  1  0.74690000  0.93443700  0.89177800  1
  O  O12  1  0.12437800  0.42511500  0.61489700  1
  O  O13  1  0.62443400  0.42515400  0.61491100  1
  O  O14  1  0.04229500  0.90820900  0.38509900  1
  O  O15  1  0.54224400  0.90820200  0.38506300  1
  O  O16  1  0.05199700  0.77101400  0.11720700  1
  O  O17  1  0.55200700  0.77094100  0.11722400  1
  O  O18  1  0.11466200  0.56231000  0.88280600  1
  O  O19  1  0.61466500  0.56239800  0.88278300  1
  O  O20  1  0.29158400  0.75820800  0.62032400  1
  O  O21  1  0.79160600  0.75820000  0.62030700  1
  O  O22  1  0.37510700  0.57512900  0.37970900  1
  O  O23  1  0.87509600  0.57512800  0.37966800  1
loop_
_geom_bond_atom_site_label_1
_geom_bond_atom_site_label_2
_geom_bond_distance
_geom_bond_site_symmetry_2
Li0 O18 2.041407 1_554
Li0 O17 2.041534 1_555
Li0 O10 2.109922 1_554
Li0 O8 2.110103 1_555
Li0 O16 2.240858 1_555
Li0 O19 2.241456 1_554
Li1 O16 2.041368 1_655
Li1 O19 2.041491 1_554
Li1 O9 2.109931 1_555
Li1 O11 2.110099 1_554
Li1 O18 2.240863 1_654
Li1 O17 2.241398 1_555
Li2 O8 2.050240 1_555
Li2 O7 2.094283 1_555
Li2 O6 2.097301 1_555
Li2 O15 2.131065 1_545
Li2 O0 2.178529 1_555
Li2 O1 2.387809 1_555
Li3 O9 2.050029 1_555
Li3 O6 2.094410 1_655
Li3 O7 2.097271 1_555
Li3 O14 2.131268 1_645
Li3 O1 2.178905 1_555
Li3 O0 2.387544 1_655
Li4 O10 2.049998 1_545
Li4 O5 2.094617 1_455
Li4 O4 2.097321 1_555
Li4 O12 2.131256 1_555
Li4 O2 2.178901 1_555
Li4 O3 2.387630 1_455
Li5 O11 2.050247 1_545
Li5 O4 2.094252 1_555
Li5 O5 2.097344 1_555
Li5 O13 2.131268 1_555
Li5 O3 2.178569 1_555
Li5 O2 2.387865 1_555
Li6 O16 2.071084 1_555
Li6 O23 2.105022 1_455
Li6 O9 2.118675 1_455
Li6 O22 2.164009 1_555
Li6 O6 2.291412 1_555
Li6 O8 2.480595 1_555
Li7 O17 2.071272 1_555
Li7 O22 2.105432 1_555
Li7 O8 2.118614 1_555
Li7 O23 2.163711 1_555
Li7 O7 2.290537 1_555
Li7 O9 2.480147 1_555
Li8 O18 2.071250 1_555
Li8 O20 2.105134 1_555
Li8 O10 2.118722 1_555
Li8 O21 2.163756 1_455
Li8 O5 2.291272 1_465
Li8 O11 2.480634 1_455
Li9 O19 2.071206 1_555
Li9 O21 2.105521 1_555
Li9 O11 2.118630 1_555
Li9 O20 2.163670 1_555
Li9 O4 2.290362 1_565
Li9 O10 2.480234 1_555
Li10 O19 2.016330 1_555
Li10 O18 2.061669 1_555
Li10 O20 2.112274 1_555
Li10 O2 2.146116 1_555
Li10 O12 2.201570 1_555
Li10 O13 2.253547 1_555
Li11 O18 2.016204 1_655
Li11 O19 2.061793 1_555
Li11 O21 2.112338 1_555
Li11 O3 2.145769 1_555
Li11 O13 2.201054 1_555
Li11 O12 2.253363 1_655
Li12 O16 2.016081 1_555
Li12 O17 2.061801 1_555
Li12 O22 2.112474 1_555
Li12 O0 2.145786 1_565
Li12 O15 2.201118 1_555
Li12 O14 2.253253 1_555
Li13 O17 2.016304 1_555
Li13 O16 2.061485 1_655
Li13 O23 2.112202 1_555
Li13 O1 2.146109 1_565
Li13 O14 2.201481 1_655
Li13 O15 2.253441 1_555
Mn0 O15 1.960014 1_555
Mn0 O13 1.960743 1_555
Mn0 O21 1.962981 1_555
Mn0 O22 1.964020 1_555
Mn0 O23 2.273838 1_555
Mn0 O20 2.274610 1_555
Mn1 O16 1.814930 1_655
Mn1 O11 1.950971 1_554
Mn1 O10 1.957156 1_654
Mn1 O0 1.985448 1_665
Mn1 O1 2.016455 1_565
Mn1 O3 2.059223 1_564
Mn2 O18 1.814798 1_555
Mn2 O8 1.950811 1_556
Mn2 O9 1.957135 1_456
Mn2 O3 1.985558 1_455
Mn2 O2 2.016497 1_555
Mn2 O0 2.059215 1_556
Mn3 O14 1.942991 1_555
Mn3 O4 1.949662 1_565
Mn3 O20 1.970171 1_555
Mn3 O6 1.976599 1_565
Mn3 O15 2.251454 1_555
Mn3 O5 2.268721 1_465
Mn4 O12 1.942985 1_655
Mn4 O7 1.949633 1_555
Mn4 O23 1.970638 1_555
Mn4 O5 1.976280 1_555
Mn4 O13 2.251058 1_555
Mn4 O6 2.268975 1_655
Mn5 O14 1.959910 1_555
Mn5 O12 1.960968 1_555
Mn5 O23 1.962861 1_455
Mn5 O20 1.964508 1_555
Mn5 O21 2.274002 1_455
Mn5 O22 2.274011 1_555
Mn6 O17 1.814697 1_555
Mn6 O10 1.950944 1_554
Mn6 O11 1.956709 1_554
Mn6 O1 1.985385 1_565
Mn6 O0 2.016804 1_565
Mn6 O2 2.059711 1_564
Mn7 O19 1.814715 1_555
Mn7 O9 1.950997 1_556
Mn7 O8 1.956669 1_556
Mn7 O2 1.985376 1_555
Mn7 O3 2.016817 1_555
Mn7 O1 2.059724 1_556
Mn8 O15 1.941304 1_555
Mn8 O5 1.951318 1_565
Mn8 O21 1.969581 1_555
Mn8 O7 1.977284 1_565
Mn8 O14 2.249619 1_655
Mn8 O4 2.270772 1_565
Mn9 O13 1.941518 1_555
Mn9 O6 1.951256 1_555
Mn9 O22 1.969955 1_555
Mn9 O4 1.977056 1_555
Mn9 O12 2.249376 1_555
Mn9 O7 2.271018 1_555
