# generated using pymatgen
data_SrMg14Zr
_symmetry_space_group_name_H-M   'P 1'
_cell_length_a   6.57608356
_cell_length_b   6.61396989
_cell_length_c   10.42359233
_cell_angle_alpha   90.00000000
_cell_angle_beta   90.00000000
_cell_angle_gamma   120.19076941
_symmetry_Int_Tables_number   1
_chemical_formula_structural   SrMg14Zr
_chemical_formula_sum   'Sr1 Mg14 Zr1'
_cell_volume   391.86774645
_cell_formula_units_Z   1
loop_
 _symmetry_equiv_pos_site_id
 _symmetry_equiv_pos_as_xyz
  1  'x, y, z'
loop_
 _atom_site_type_symbol
 _atom_site_label
 _atom_site_symmetry_multiplicity
 _atom_site_fract_x
 _atom_site_fract_y
 _atom_site_fract_z
 _atom_site_occupancy
  Sr  Sr0  1  0.16264502  0.83132201  0.12500000  1
  Mg  Mg0  1  0.16398024  0.33198962  0.62500000  1
  Mg  Mg1  1  0.16708420  0.83354160  0.62500000  1
  Mg  Mg2  1  0.66435470  0.33178944  0.12500000  1
  Mg  Mg3  1  0.66762245  0.32975423  0.62500000  1
  Mg  Mg4  1  0.66435470  0.83256427  0.12500000  1
  Mg  Mg5  1  0.66762245  0.83786722  0.62500000  1
  Mg  Mg6  1  0.33403654  0.17685874  0.38408097  1
  Mg  Mg7  1  0.33403654  0.17685874  0.86591903  1
  Mg  Mg8  1  0.33403654  0.65717880  0.38408097  1
  Mg  Mg9  1  0.33403654  0.65717880  0.86591903  1
  Mg  Mg10  1  0.83814256  0.16907178  0.36924214  1
  Mg  Mg11  1  0.83814256  0.16907178  0.88075786  1
  Mg  Mg12  1  0.81875413  0.65937756  0.38707665  1
  Mg  Mg13  1  0.81875413  0.65937756  0.86292335  1
  Zr  Zr0  1  0.19239669  0.34619785  0.12500000  1
loop_
_geom_bond_atom_site_label_1
_geom_bond_atom_site_label_2
_geom_bond_distance
_geom_bond_site_symmetry_2
Sr0 Zr0 3.311306 1_555
Sr0 Zr0 3.311306 1_565
Mg0 Mg6 3.124693 1_555
Mg0 Mg7 3.124693 1_555
Mg0 Mg8 3.124699 1_555
Mg0 Mg9 3.124699 1_555
Mg0 Mg11 3.246125 1_455
Mg0 Mg10 3.246125 1_455
Mg0 Mg5 3.256680 1_445
Mg0 Mg3 3.256680 1_455
Mg0 Mg1 3.307032 1_555
Mg0 Mg1 3.307032 1_545
Mg0 Mg5 3.319453 1_555
Mg0 Mg3 3.319453 1_555
Mg1 Mg12 3.173424 1_455
Mg1 Mg13 3.173424 1_455
Mg1 Mg9 3.187531 1_555
Mg1 Mg8 3.187531 1_555
Mg1 Mg6 3.187538 1_565
Mg1 Mg7 3.187538 1_565
Mg1 Mg3 3.277287 1_565
Mg1 Mg5 3.277287 1_555
Mg1 Mg3 3.298982 1_455
Mg1 Mg5 3.298982 1_455
Mg2 Zr0 3.152634 1_555
Mg2 Sr0 3.280938 1_655
Mg2 Mg7 3.289799 1_554
Mg2 Mg6 3.289799 1_555
Mg2 Sr0 3.295160 1_545
Mg2 Mg4 3.301860 1_545
Mg2 Mg4 3.312110 1_555
Mg2 Zr0 3.425516 1_655
Mg3 Mg6 3.148029 1_555
Mg3 Mg7 3.148029 1_555
Mg3 Mg5 3.253326 1_545
Mg3 Mg5 3.360644 1_555
Mg4 Zr0 3.152634 1_555
Mg4 Sr0 3.280938 1_655
Mg4 Mg9 3.289799 1_554
Mg4 Mg8 3.289799 1_555
Mg4 Sr0 3.295161 1_555
Mg4 Zr0 3.425516 1_665
Mg5 Mg8 3.148028 1_555
Mg5 Mg9 3.148028 1_555
Mg6 Mg8 3.176822 1_555
Mg6 Zr0 3.234841 1_555
Mg6 Sr0 3.345980 1_545
Mg6 Mg8 3.437147 1_545
Mg7 Mg9 3.176822 1_555
Mg7 Zr0 3.234841 1_556
Mg7 Sr0 3.345980 1_546
Mg7 Mg9 3.437147 1_545
Mg8 Zr0 3.234847 1_555
Mg8 Sr0 3.345973 1_555
Mg9 Zr0 3.234847 1_556
Mg9 Sr0 3.345973 1_556
Mg10 Mg2 3.191058 1_555
Mg10 Mg4 3.191065 1_545
Mg10 Mg8 3.239142 1_655
Mg10 Mg6 3.239142 1_655
Mg10 Zr0 3.245939 1_655
Mg10 Mg3 3.269948 1_555
Mg10 Mg5 3.269955 1_545
Mg10 Mg12 3.314039 1_555
Mg10 Mg12 3.314039 1_545
Mg10 Mg8 3.344818 1_545
Mg10 Mg6 3.344818 1_555
Mg11 Mg2 3.191058 1_556
Mg11 Mg4 3.191065 1_546
Mg11 Mg9 3.239142 1_655
Mg11 Mg7 3.239142 1_655
Mg11 Zr0 3.245939 1_656
Mg11 Mg3 3.269948 1_555
Mg11 Mg5 3.269955 1_545
Mg11 Mg13 3.314039 1_555
Mg11 Mg13 3.314039 1_545
Mg11 Mg9 3.344818 1_545
Mg11 Mg7 3.344818 1_555
Mg12 Mg5 3.116392 1_555
Mg12 Mg3 3.116399 1_555
Mg12 Mg6 3.180408 1_555
Mg12 Mg8 3.180408 1_555
Mg12 Mg4 3.312904 1_555
Mg12 Mg2 3.312910 1_555
Mg12 Sr0 3.359090 1_655
Mg12 Mg6 3.396020 1_665
Mg12 Mg8 3.396020 1_655
Mg13 Mg5 3.116392 1_555
Mg13 Mg3 3.116399 1_555
Mg13 Mg7 3.180408 1_555
Mg13 Mg9 3.180408 1_555
Mg13 Mg4 3.312904 1_556
Mg13 Mg2 3.312910 1_556
Mg13 Sr0 3.359090 1_656
Mg13 Mg7 3.396020 1_665
Mg13 Mg9 3.396020 1_655
