# generated using pymatgen
data_SmMgPt
_symmetry_space_group_name_H-M   'P 1'
_cell_length_a   7.44659793
_cell_length_b   7.44659864
_cell_length_c   4.11462861
_cell_angle_alpha   90.00000000
_cell_angle_beta   90.00000000
_cell_angle_gamma   120.00000602
_symmetry_Int_Tables_number   1
_chemical_formula_structural   SmMgPt
_chemical_formula_sum   'Sm3 Mg3 Pt3'
_cell_volume   197.59552236
_cell_formula_units_Z   3
loop_
 _symmetry_equiv_pos_site_id
 _symmetry_equiv_pos_as_xyz
  1  'x, y, z'
loop_
 _atom_site_type_symbol
 _atom_site_label
 _atom_site_symmetry_multiplicity
 _atom_site_fract_x
 _atom_site_fract_y
 _atom_site_fract_z
 _atom_site_occupancy
  Sm  Sm0  1  0.58856387  0.58856387  0.00000000  1
  Sm  Sm1  1  0.41143613  0.00000000  0.00000000  1
  Sm  Sm2  1  0.00000000  0.41143613  0.00000000  1
  Mg  Mg0  1  1.00000000  0.75843335  0.50000000  1
  Mg  Mg1  1  0.24156665  0.24156665  0.50000000  1
  Mg  Mg2  1  0.75843335  1.00000000  0.50000000  1
  Pt  Pt0  1  0.00000000  0.00000000  -0.00000000  1
  Pt  Pt1  1  0.33333300  0.66666700  0.50000000  1
  Pt  Pt2  1  0.66666700  0.33333300  0.50000000  1
loop_
_geom_bond_atom_site_label_1
_geom_bond_atom_site_label_2
_geom_bond_distance
_geom_bond_site_symmetry_2
Mg0 Pt0 2.732838 1_666
Mg0 Pt0 2.732838 1_665
Mg0 Pt1 2.885215 1_655
Mg0 Pt2 2.885220 1_555
Mg0 Mg1 3.115699 1_665
Mg0 Mg2 3.115699 1_555
Mg0 Sm2 3.302928 1_656
Mg0 Sm2 3.302928 1_655
Mg0 Sm1 3.368079 1_665
Mg0 Sm1 3.368079 1_666
Mg0 Sm0 3.368079 1_556
Mg0 Sm0 3.368079 1_555
Mg1 Pt0 2.732838 1_556
Mg1 Pt0 2.732838 1_555
Mg1 Pt2 2.885222 1_555
Mg1 Pt1 2.885223 1_555
Mg1 Mg2 3.115699 1_445
Mg1 Sm0 3.302928 1_556
Mg1 Sm0 3.302928 1_555
Mg1 Sm2 3.368079 1_555
Mg1 Sm2 3.368079 1_556
Mg1 Sm1 3.368079 1_556
Mg1 Sm1 3.368079 1_555
Mg2 Pt0 2.732838 1_665
Mg2 Pt0 2.732838 1_666
Mg2 Pt2 2.885215 1_565
Mg2 Pt1 2.885220 1_555
Mg2 Sm1 3.302928 1_566
Mg2 Sm1 3.302928 1_565
Mg2 Sm2 3.368079 1_665
Mg2 Sm2 3.368079 1_666
Mg2 Sm0 3.368079 1_555
Mg2 Sm0 3.368079 1_556
Pt0 Sm0 3.063799 1_445
Pt0 Sm1 3.063799 1_555
Pt0 Sm2 3.063800 1_555
Pt1 Sm1 3.047696 1_565
Pt1 Sm1 3.047696 1_566
Pt1 Sm2 3.047698 1_555
Pt1 Sm2 3.047698 1_556
Pt1 Sm0 3.047702 1_556
Pt1 Sm0 3.047702 1_555
Pt2 Sm2 3.047696 1_656
Pt2 Sm2 3.047696 1_655
Pt2 Sm1 3.047698 1_555
Pt2 Sm1 3.047698 1_556
Pt2 Sm0 3.047702 1_556
Pt2 Sm0 3.047702 1_555
