# generated using pymatgen
data_UAs2
_symmetry_space_group_name_H-M   'P 1'
_cell_length_a   3.97574929
_cell_length_b   3.97574929
_cell_length_c   8.29736663
_cell_angle_alpha   90.00000000
_cell_angle_beta   90.00000000
_cell_angle_gamma   90.00000000
_symmetry_Int_Tables_number   1
_chemical_formula_structural   UAs2
_chemical_formula_sum   'U2 As4'
_cell_volume   131.15300948
_cell_formula_units_Z   2
loop_
 _symmetry_equiv_pos_site_id
 _symmetry_equiv_pos_as_xyz
  1  'x, y, z'
loop_
 _atom_site_type_symbol
 _atom_site_label
 _atom_site_symmetry_multiplicity
 _atom_site_fract_x
 _atom_site_fract_y
 _atom_site_fract_z
 _atom_site_occupancy
  U  U0  1  0.75000000  0.75000000  0.28117359  1
  U  U1  1  0.25000000  0.25000000  0.71882641  1
  As  As0  1  0.25000000  0.75000000  -0.00000000  1
  As  As1  1  0.75000000  0.25000000  -0.00000000  1
  As  As2  1  0.75000000  0.75000000  0.63874954  1
  As  As3  1  0.25000000  0.25000000  0.36125046  1
loop_
_geom_bond_atom_site_label_1
_geom_bond_atom_site_label_2
_geom_bond_distance
_geom_bond_site_symmetry_2
As0 As1 2.811279 1_465
As0 As1 2.811279 1_455
As0 As1 2.811279 1_555
As0 As1 2.811279 1_565
As0 U1 3.065051 1_554
As0 U1 3.065051 1_564
As0 U0 3.065051 1_555
As0 U0 3.065051 1_455
As1 U1 3.065051 1_554
As1 U1 3.065051 1_654
As1 U0 3.065051 1_545
As1 U0 3.065051 1_555
As2 U1 2.888729 1_555
As2 U1 2.888729 1_565
As2 U1 2.888729 1_665
As2 U1 2.888729 1_655
As2 U0 2.966939 1_555
As3 U0 2.888729 1_545
As3 U0 2.888729 1_555
As3 U0 2.888729 1_445
As3 U0 2.888729 1_455
As3 U1 2.966939 1_555
