# generated using pymatgen
data_Ba2YMn2F11
_symmetry_space_group_name_H-M   'P 1'
_cell_length_a   8.02298763
_cell_length_b   8.02298763
_cell_length_c   13.66651900
_cell_angle_alpha   90.00000000
_cell_angle_beta   90.00000000
_cell_angle_gamma   119.99999698
_symmetry_Int_Tables_number   1
_chemical_formula_structural   Ba2YMn2F11
_chemical_formula_sum   'Ba6 Y3 Mn6 F33'
_cell_volume   761.83478778
_cell_formula_units_Z   3
loop_
 _symmetry_equiv_pos_site_id
 _symmetry_equiv_pos_as_xyz
  1  'x, y, z'
loop_
 _atom_site_type_symbol
 _atom_site_label
 _atom_site_symmetry_multiplicity
 _atom_site_fract_x
 _atom_site_fract_y
 _atom_site_fract_z
 _atom_site_occupancy
  Ba  Ba0  1  0.88338800  0.84288700  0.66333300  1
  Ba  Ba1  1  0.50267200  0.18584200  0.81450200  1
  Ba  Ba2  1  0.95949900  0.11661200  0.99666700  1
  Ba  Ba3  1  0.81415800  0.31683000  0.48116900  1
  Ba  Ba4  1  0.68317000  0.49732800  0.14783600  1
  Ba  Ba5  1  0.15711300  0.04050100  0.33000000  1
  Y  Y0  1  0.45919600  0.67439700  0.89246500  1
  Y  Y1  1  0.21520100  0.54080400  0.22579900  1
  Y  Y2  1  0.32560300  0.78479900  0.55913200  1
  Mn  Mn0  1  0.94693000  0.65931600  0.89118000  1
  Mn  Mn1  1  0.09244000  0.39673600  0.72470200  1
  Mn  Mn2  1  0.60326400  0.69570400  0.39136900  1
  Mn  Mn3  1  0.71238600  0.05307000  0.22451300  1
  Mn  Mn4  1  0.30429600  0.90756000  0.05803600  1
  Mn  Mn5  1  0.34068400  0.28761400  0.55784700  1
  F  F0  1  0.00703300  0.76275600  0.03638600  1
  F  F1  1  0.81855400  0.37371200  0.93047700  1
  F  F2  1  0.75572300  0.99296700  0.36971900  1
  F  F3  1  0.42796200  0.07224400  0.48614000  1
  F  F4  1  0.91849200  0.98451300  0.17989100  1
  F  F5  1  0.29947400  0.32757600  0.19147200  1
  F  F6  1  0.92775600  0.35571800  0.15280700  1
  F  F7  1  0.67242400  0.97189800  0.85813900  1
  F  F8  1  0.06602100  0.08150800  0.51322400  1
  F  F9  1  0.59838900  0.01262400  0.07918100  1
  F  F10  1  0.64428200  0.57203800  0.81947400  1
  F  F11  1  0.23724400  0.24427700  0.70305300  1
  F  F12  1  0.66139800  0.69640900  0.00186300  1
  F  F13  1  0.35902700  0.17358500  0.00182500  1
  F  F14  1  0.03501100  0.33860200  0.33519700  1
  F  F15  1  0.62628800  0.44484200  0.59714300  1
  F  F16  1  0.28573100  0.82184600  0.90172100  1
  F  F17  1  0.41423400  0.40161100  0.41251400  1
  F  F18  1  0.32432800  0.70789100  0.39072500  1
  F  F19  1  0.30359100  0.96498900  0.66853000  1
  F  F20  1  0.38356300  0.67567200  0.72405900  1
  F  F21  1  0.82641500  0.18544300  0.66849100  1
  F  F22  1  0.81455700  0.64097300  0.33515800  1
  F  F23  1  0.53611500  0.71426900  0.23505400  1
  F  F24  1  0.98737600  0.58576600  0.74584800  1
  F  F25  1  0.01548700  0.93397900  0.84655800  1
  F  F26  1  0.55515800  0.18144600  0.26381000  1
  F  F27  1  0.19235200  0.39690100  0.87210400  1
  F  F28  1  0.20454900  0.80764800  0.20543800  1
  F  F29  1  0.29210900  0.61643700  0.05739200  1
  F  F30  1  0.02810200  0.70052600  0.52480600  1
  F  F31  1  0.17815400  0.46388500  0.56838800  1
  F  F32  1  0.60309900  0.79545100  0.53877100  1
loop_
_geom_bond_atom_site_label_1
_geom_bond_atom_site_label_2
_geom_bond_distance
_geom_bond_site_symmetry_2
Ba0 F25 2.674519 1_655
Ba0 F8 2.686162 1_665
Ba0 F32 2.691438 1_555
Ba0 F30 2.750049 1_655
Ba0 F24 2.818555 1_555
Ba0 F15 2.946909 1_555
Ba0 F10 2.964288 1_555
Ba0 F21 3.003901 1_565
Ba0 F19 3.004608 1_655
Ba0 F11 3.095580 1_665
Ba1 F19 2.615412 1_545
Ba1 F10 2.715793 1_555
Ba1 F1 2.717881 1_555
Ba1 F7 2.737596 1_545
Ba1 F13 2.788975 1_556
Ba1 F16 2.809925 1_545
Ba1 F11 2.841292 1_555
Ba1 F21 3.276676 1_555
Ba2 F4 2.674506 1_546
Ba2 F25 2.686162 1_645
Ba2 F27 2.691446 1_655
Ba2 F7 2.750059 1_545
Ba2 F9 2.818557 1_556
Ba2 F1 2.946909 1_555
Ba2 F6 2.964278 1_556
Ba2 F13 3.003893 1_656
Ba2 F12 3.004608 1_546
Ba2 F0 3.095578 1_646
Ba3 F14 2.615412 1_655
Ba3 F3 2.715793 1_555
Ba3 F15 2.717873 1_555
Ba3 F30 2.737597 1_655
Ba3 F21 2.788959 1_555
Ba3 F31 2.809925 1_655
Ba3 F2 2.841299 1_545
Ba3 F22 3.276683 1_555
Ba4 F12 2.615422 1_555
Ba4 F6 2.715793 1_555
Ba4 F26 2.717873 1_555
Ba4 F5 2.737594 1_555
Ba4 F22 2.788961 1_555
Ba4 F23 2.809919 1_555
Ba4 F0 2.841299 1_655
Ba4 F13 3.276680 1_555
Ba5 F8 2.674506 1_555
Ba5 F4 2.686162 1_445
Ba5 F28 2.691438 1_545
Ba5 F5 2.750059 1_555
Ba5 F17 2.818555 1_555
Ba5 F26 2.946909 1_555
Ba5 F3 2.964278 1_555
Ba5 F22 3.003896 1_445
Ba5 F14 3.004608 1_555
Ba5 F2 3.095578 1_445
F0 Mn4 2.086728 1_555
F0 Mn0 2.111671 1_454
F1 Mn0 2.059053 1_555
F2 Mn2 2.086728 1_555
F2 Mn3 2.111671 1_565
F3 Y2 2.256997 1_545
F3 Mn5 2.376195 1_555
F4 Mn3 2.078051 1_565
F5 Y1 2.181849 1_555
F6 Y1 2.256997 1_655
F6 Mn3 2.376190 1_555
F7 Y0 2.181846 1_555
F8 Mn5 2.078055 1_555
F9 Mn4 2.091030 1_545
F9 Mn3 2.142410 1_555
F10 Y0 2.256991 1_555
F10 Mn0 2.376190 1_555
F11 Mn1 2.086726 1_555
F11 Mn5 2.111671 1_555
F12 Y0 2.147493 1_554
F13 Mn4 2.097873 1_545
F14 Y1 2.147493 1_555
F15 Mn5 2.059049 1_555
F16 Mn4 2.226289 1_556
F16 Y0 2.235769 1_555
F16 Mn0 2.359075 1_455
F17 Mn2 2.091031 1_555
F17 Mn5 2.142423 1_555
F18 Mn2 2.288372 1_555
F18 Y2 2.381511 1_555
F18 Y1 2.543672 1_555
F19 Y2 2.147493 1_555
F20 Mn1 2.288372 1_555
F20 Y0 2.381498 1_555
F20 Y2 2.543684 1_555
F21 Mn1 2.097870 1_655
F22 Mn2 2.097865 1_555
F23 Mn2 2.226289 1_555
F23 Y1 2.235768 1_555
F23 Mn3 2.359075 1_565
F24 Mn1 2.091039 1_655
F24 Mn0 2.142408 1_555
F25 Mn0 2.078051 1_455
F26 Mn3 2.059053 1_555
F27 Mn1 2.167854 1_555
F27 Y0 2.202519 1_555
F28 Mn4 2.167854 1_555
F28 Y1 2.202519 1_555
F29 Mn4 2.288372 1_555
F29 Y1 2.381511 1_555
F29 Y0 2.543684 1_554
F30 Y2 2.181846 1_555
F31 Mn1 2.226276 1_555
F31 Y2 2.235769 1_555
F31 Mn5 2.359075 1_555
F32 Mn2 2.167854 1_555
F32 Y2 2.202519 1_555
