# generated using pymatgen
data_Mg6VCo
_symmetry_space_group_name_H-M   'P 1'
_cell_length_a   4.59772800
_cell_length_b   5.90021100
_cell_length_c   10.90508700
_cell_angle_alpha   90.00000000
_cell_angle_beta   90.00000000
_cell_angle_gamma   90.00000000
_symmetry_Int_Tables_number   1
_chemical_formula_structural   Mg6VCo
_chemical_formula_sum   'Mg12 V2 Co2'
_cell_volume   295.82845992
_cell_formula_units_Z   2
loop_
 _symmetry_equiv_pos_site_id
 _symmetry_equiv_pos_as_xyz
  1  'x, y, z'
loop_
 _atom_site_type_symbol
 _atom_site_label
 _atom_site_symmetry_multiplicity
 _atom_site_fract_x
 _atom_site_fract_y
 _atom_site_fract_z
 _atom_site_occupancy
  Mg  Mg0  1  0.00000000  0.73686100  0.08501700  1
  Mg  Mg1  1  0.00000000  0.26313900  0.08501700  1
  Mg  Mg2  1  0.00000000  0.00000000  0.32846900  1
  Mg  Mg3  1  0.50000000  0.26101400  0.41942800  1
  Mg  Mg4  1  0.50000000  0.73898600  0.41942800  1
  Mg  Mg5  1  0.50000000  0.00000000  0.16832100  1
  Mg  Mg6  1  0.00000000  0.23686100  0.58501700  1
  Mg  Mg7  1  0.00000000  0.76313900  0.58501700  1
  Mg  Mg8  1  0.00000000  0.50000000  0.82846900  1
  Mg  Mg9  1  0.50000000  0.76101400  0.91942800  1
  Mg  Mg10  1  0.50000000  0.23898600  0.91942800  1
  Mg  Mg11  1  0.50000000  0.50000000  0.66832100  1
  V  V0  1  0.50000000  0.50000000  0.19551800  1
  V  V1  1  0.50000000  0.00000000  0.69551800  1
  Co  Co0  1  0.00000000  0.50000000  0.29880200  1
  Co  Co1  1  0.00000000  0.00000000  0.79880200  1
loop_
_geom_bond_atom_site_label_1
_geom_bond_atom_site_label_2
_geom_bond_distance
_geom_bond_site_symmetry_2
Mg0 Mg1 2.795060 1_555
Mg0 Mg5 2.918994 1_465
Mg0 Mg5 2.918994 1_565
Mg0 Mg9 2.926749 1_454
Mg0 Mg9 2.926749 1_554
Mg0 V0 2.947871 1_455
Mg0 V0 2.947871 1_555
Mg0 Mg2 3.075516 1_565
Mg0 Mg1 3.105151 1_565
Mg0 Mg8 3.127314 1_554
Mg1 Mg5 2.918994 1_455
Mg1 Mg5 2.918994 1_555
Mg1 Mg10 2.926749 1_554
Mg1 Mg10 2.926749 1_454
Mg1 V0 2.947871 1_455
Mg1 V0 2.947871 1_555
Mg1 Mg2 3.075516 1_555
Mg1 Mg8 3.127314 1_554
Mg2 Mg5 2.887003 1_455
Mg2 Mg5 2.887003 1_555
Mg2 Mg3 2.939454 1_555
Mg2 Mg3 2.939454 1_455
Mg2 Mg4 2.939454 1_445
Mg2 Mg4 2.939454 1_545
Mg2 Mg6 3.127314 1_555
Mg2 Mg7 3.127314 1_545
Mg3 V0 2.819658 1_555
Mg3 Mg4 2.820136 1_555
Mg3 Mg6 2.926749 1_655
Mg3 Mg6 2.926749 1_555
Mg3 Mg4 3.080075 1_545
Mg3 Mg5 3.141694 1_555
Mg3 V1 3.381796 1_555
Mg4 V0 2.819658 1_555
Mg4 Mg7 2.926749 1_555
Mg4 Mg7 2.926749 1_655
Mg4 Mg5 3.141694 1_565
Mg4 V1 3.381796 1_565
Mg5 V0 2.964976 1_545
Mg5 V0 2.964976 1_555
Mg5 Mg9 3.058623 1_544
Mg6 Mg7 2.795060 1_545
Mg6 V1 2.947871 1_455
Mg6 V1 2.947871 1_555
Mg6 Mg8 3.075516 1_555
Mg6 Mg7 3.105151 1_555
Mg7 V1 2.947871 1_565
Mg7 V1 2.947871 1_465
Mg7 Mg8 3.075516 1_555
Mg8 Mg9 2.939454 1_555
Mg8 Mg9 2.939454 1_455
Mg9 V1 2.819658 1_565
Mg9 V0 3.381796 1_556
Mg10 V1 2.819658 1_555
Mg10 Mg9 2.820136 1_545
Mg10 Mg8 2.939454 1_555
Mg10 Mg8 2.939454 1_655
Mg10 Mg5 3.058623 1_556
Mg10 Mg9 3.080075 1_555
Mg10 Mg11 3.141694 1_555
Mg10 V0 3.381796 1_556
Mg11 Mg8 2.887003 1_555
Mg11 Mg8 2.887003 1_655
Mg11 Mg6 2.918994 1_555
Mg11 Mg7 2.918994 1_555
Mg11 Mg6 2.918994 1_655
Mg11 Mg7 2.918994 1_655
Mg11 V1 2.964976 1_565
Mg11 V1 2.964976 1_555
Mg11 Mg4 3.058623 1_555
Mg11 Mg3 3.058623 1_555
Mg11 Mg9 3.141694 1_555
Co0 V0 2.559956 1_455
Co0 V0 2.559956 1_555
Co0 Mg0 2.718134 1_555
Co0 Mg1 2.718134 1_555
Co0 Mg2 2.967792 1_555
Co0 Mg2 2.967792 1_565
Co0 Mg4 3.000574 1_455
Co0 Mg4 3.000574 1_555
Co0 Mg3 3.000574 1_555
Co0 Mg3 3.000574 1_455
Co0 Mg7 3.486026 1_555
Co0 Mg6 3.486026 1_555
Co1 V1 2.559956 1_555
Co1 V1 2.559956 1_455
Co1 Mg6 2.718134 1_555
Co1 Mg7 2.718134 1_545
Co1 Mg8 2.967792 1_545
Co1 Mg8 2.967792 1_555
Co1 Mg10 3.000574 1_455
Co1 Mg10 3.000574 1_555
Co1 Mg9 3.000574 1_545
Co1 Mg9 3.000574 1_445
Co1 Mg0 3.486026 1_546
Co1 Mg1 3.486026 1_556
