# generated using pymatgen
data_LaCl3O7
_symmetry_space_group_name_H-M   'P 1'
_cell_length_a   8.44286584
_cell_length_b   10.73204852
_cell_length_c   7.00817503
_cell_angle_alpha   132.10308448
_cell_angle_beta   99.87688078
_cell_angle_gamma   91.88713294
_symmetry_Int_Tables_number   1
_chemical_formula_structural   LaCl3O7
_chemical_formula_sum   'La2 Cl6 O14'
_cell_volume   454.54708627
_cell_formula_units_Z   2
loop_
 _symmetry_equiv_pos_site_id
 _symmetry_equiv_pos_as_xyz
  1  'x, y, z'
loop_
 _atom_site_type_symbol
 _atom_site_label
 _atom_site_symmetry_multiplicity
 _atom_site_fract_x
 _atom_site_fract_y
 _atom_site_fract_z
 _atom_site_occupancy
  La  La0  1  0.69169300  0.66742100  0.99356600  1
  La  La1  1  0.30830700  0.33257900  0.00643400  1
  Cl  Cl0  1  0.69401400  0.21427200  0.98658000  1
  Cl  Cl1  1  0.30598600  0.78572800  0.01342000  1
  Cl  Cl2  1  0.50722500  0.71267500  0.48829800  1
  Cl  Cl3  1  0.49277500  0.28732500  0.51170200  1
  Cl  Cl4  1  0.97534400  0.37617000  0.60041400  1
  Cl  Cl5  1  0.02465600  0.62383000  0.39958600  1
  O  O0  1  0.88815400  0.56914800  0.16654100  1
  O  O1  1  0.11184600  0.43085200  0.83345900  1
  O  O2  1  0.71491000  0.98600800  0.17948800  1
  O  O3  1  0.28509000  0.01399200  0.82051200  1
  O  O4  1  0.80366800  0.92250700  0.01615000  1
  O  O5  1  0.19633200  0.07749300  0.98385000  1
  O  O6  1  0.99933100  0.92087300  0.41416500  1
  O  O7  1  0.00066900  0.07912700  0.58583500  1
  O  O8  1  0.87337000  0.51609800  0.68756900  1
  O  O9  1  0.12663000  0.48390200  0.31243100  1
  O  O10  1  0.43806400  0.67887200  0.83542100  1
  O  O11  1  0.56193600  0.32112800  0.16457900  1
  O  O12  1  0.59842900  0.72959500  0.31344800  1
  O  O13  1  0.40157100  0.27040500  0.68655200  1
loop_
_geom_bond_atom_site_label_1
_geom_bond_atom_site_label_2
_geom_bond_distance
_geom_bond_site_symmetry_2
La0 O12 2.173759 1_556
La0 O10 2.283558 1_555
La0 O8 2.492285 1_555
La0 O0 2.544195 1_556
La0 O2 2.705688 1_556
La0 O4 2.758703 1_556
La0 O6 2.998402 1_556
La1 O13 2.173759 1_554
La1 O11 2.283558 1_555
La1 O9 2.492285 1_555
La1 O1 2.544195 1_554
La1 O3 2.705688 1_554
La1 O5 2.758703 1_554
La1 O7 2.998402 1_554
Cl0 O11 1.660690 1_556
Cl1 O10 1.660690 1_554
Cl2 O12 1.655395 1_555
Cl2 La1 3.161597 1_555
Cl3 O13 1.655395 1_555
Cl3 La0 3.161597 1_555
Cl4 O1 1.537690 1_655
Cl4 O8 1.550824 1_555
Cl5 O0 1.537690 1_455
Cl5 O9 1.550824 1_555
O2 O4 1.272077 1_555
O3 O5 1.272077 1_555
O6 O7 1.259446 1_665
