# generated using pymatgen
data_KNa2Li3Fe2(Si2O5)6
_symmetry_space_group_name_H-M   'P 1'
_cell_length_a   10.18883170
_cell_length_b   10.18883170
_cell_length_c   14.33817400
_cell_angle_alpha   90.00000000
_cell_angle_beta   90.00000000
_cell_angle_gamma   119.99999805
_symmetry_Int_Tables_number   1
_chemical_formula_structural   KNa2Li3Fe2(Si2O5)6
_chemical_formula_sum   'K2 Na4 Li6 Fe4 Si24 O60'
_cell_volume   1289.06039034
_cell_formula_units_Z   2
loop_
 _symmetry_equiv_pos_site_id
 _symmetry_equiv_pos_as_xyz
  1  'x, y, z'
loop_
 _atom_site_type_symbol
 _atom_site_label
 _atom_site_symmetry_multiplicity
 _atom_site_fract_x
 _atom_site_fract_y
 _atom_site_fract_z
 _atom_site_occupancy
  K  K0  1  0.00000000  0.00000000  0.25000000  1
  K  K1  1  0.00000000  0.00000000  0.75000000  1
  Na  Na0  1  0.66666700  0.33333300  0.50000000  1
  Na  Na1  1  0.66666700  0.33333300  0.00000000  1
  Na  Na2  1  0.33333300  0.66666700  0.00000000  1
  Na  Na3  1  0.33333300  0.66666700  0.50000000  1
  Li  Li0  1  0.50000000  0.00000000  0.25000000  1
  Li  Li1  1  0.00000000  0.50000000  0.75000000  1
  Li  Li2  1  0.50000000  0.50000000  0.75000000  1
  Li  Li3  1  0.50000000  0.00000000  0.75000000  1
  Li  Li4  1  0.00000000  0.50000000  0.25000000  1
  Li  Li5  1  0.50000000  0.50000000  0.25000000  1
  Fe  Fe0  1  0.33333300  0.66666700  0.75000000  1
  Fe  Fe1  1  0.66666700  0.33333300  0.75000000  1
  Fe  Fe2  1  0.66666700  0.33333300  0.25000000  1
  Fe  Fe3  1  0.33333300  0.66666700  0.25000000  1
  Si  Si0  1  0.35543200  0.11897700  0.38840700  1
  Si  Si1  1  0.76354500  0.64456800  0.61159300  1
  Si  Si2  1  0.35543200  0.11897700  0.61159300  1
  Si  Si3  1  0.64456800  0.76354500  0.88840700  1
  Si  Si4  1  0.11897700  0.35543200  0.88840700  1
  Si  Si5  1  0.88102300  0.64456800  0.88840700  1
  Si  Si6  1  0.35543200  0.23645500  0.88840700  1
  Si  Si7  1  0.23645500  0.88102300  0.88840700  1
  Si  Si8  1  0.76354500  0.64456800  0.38840700  1
  Si  Si9  1  0.76354500  0.11897700  0.88840700  1
  Si  Si10  1  0.88102300  0.23645500  0.38840700  1
  Si  Si11  1  0.11897700  0.76354500  0.38840700  1
  Si  Si12  1  0.23645500  0.88102300  0.11159300  1
  Si  Si13  1  0.88102300  0.23645500  0.61159300  1
  Si  Si14  1  0.64456800  0.88102300  0.38840700  1
  Si  Si15  1  0.35543200  0.23645500  0.11159300  1
  Si  Si16  1  0.88102300  0.64456800  0.11159300  1
  Si  Si17  1  0.11897700  0.35543200  0.11159300  1
  Si  Si18  1  0.64456800  0.76354500  0.11159300  1
  Si  Si19  1  0.76354500  0.11897700  0.11159300  1
  Si  Si20  1  0.11897700  0.76354500  0.61159300  1
  Si  Si21  1  0.64456800  0.88102300  0.61159300  1
  Si  Si22  1  0.23645500  0.35543200  0.61159300  1
  Si  Si23  1  0.23645500  0.35543200  0.38840700  1
  O  O0  1  0.13938000  0.73787700  0.50000000  1
  O  O1  1  0.49435500  0.65802700  0.82975200  1
  O  O2  1  0.16367200  0.50564500  0.82975200  1
  O  O3  1  0.83632800  0.49435500  0.82975200  1
  O  O4  1  0.34197300  0.50564500  0.67024800  1
  O  O5  1  0.65802700  0.49435500  0.67024800  1
  O  O6  1  0.65802700  0.16367200  0.82975200  1
  O  O7  1  0.83632800  0.34197300  0.67024800  1
  O  O8  1  0.16367200  0.65802700  0.67024800  1
  O  O9  1  0.49435500  0.83632800  0.67024800  1
  O  O10  1  0.50564500  0.34197300  0.82975200  1
  O  O11  1  0.34197300  0.83632800  0.82975200  1
  O  O12  1  0.65802700  0.49435500  0.32975200  1
  O  O13  1  0.50564500  0.16367200  0.32975200  1
  O  O14  1  0.83632800  0.34197300  0.32975200  1
  O  O15  1  0.16367200  0.65802700  0.32975200  1
  O  O16  1  0.34197300  0.83632800  0.17024800  1
  O  O17  1  0.34197300  0.50564500  0.32975200  1
  O  O18  1  0.49435500  0.83632800  0.32975200  1
  O  O19  1  0.50564500  0.34197300  0.17024800  1
  O  O20  1  0.83632800  0.49435500  0.17024800  1
  O  O21  1  0.16367200  0.50564500  0.17024800  1
  O  O22  1  0.49435500  0.65802700  0.17024800  1
  O  O23  1  0.65802700  0.16367200  0.17024800  1
  O  O24  1  0.27581100  0.05469600  0.86583400  1
  O  O25  1  0.72418900  0.77888400  0.63416600  1
  O  O26  1  0.22111600  0.94530400  0.63416600  1
  O  O27  1  0.77888400  0.05469600  0.63416600  1
  O  O28  1  0.94530400  0.22111600  0.86583400  1
  O  O29  1  0.94530400  0.72418900  0.63416600  1
  O  O30  1  0.27581100  0.22111600  0.63416600  1
  O  O31  1  0.72418900  0.94530400  0.86583400  1
  O  O32  1  0.22111600  0.27581100  0.86583400  1
  O  O33  1  0.77888400  0.72418900  0.86583400  1
  O  O34  1  0.73787700  0.13938000  0.00000000  1
  O  O35  1  0.59849600  0.73787700  0.00000000  1
  O  O36  1  0.13938000  0.40150400  0.00000000  1
  O  O37  1  0.86062000  0.59849600  0.00000000  1
  O  O38  1  0.40150400  0.26212300  0.00000000  1
  O  O39  1  0.59849600  0.86062000  0.50000000  1
  O  O40  1  0.26212300  0.40150400  0.50000000  1
  O  O41  1  0.26212300  0.86062000  0.00000000  1
  O  O42  1  0.50564500  0.16367200  0.67024800  1
  O  O43  1  0.86062000  0.26212300  0.50000000  1
  O  O44  1  0.40150400  0.13938000  0.50000000  1
  O  O45  1  0.73787700  0.59849600  0.50000000  1
  O  O46  1  0.94530400  0.22111600  0.13416600  1
  O  O47  1  0.72418900  0.94530400  0.13416600  1
  O  O48  1  0.22111600  0.27581100  0.13416600  1
  O  O49  1  0.77888400  0.72418900  0.13416600  1
  O  O50  1  0.27581100  0.05469600  0.13416600  1
  O  O51  1  0.72418900  0.77888400  0.36583400  1
  O  O52  1  0.05469600  0.27581100  0.36583400  1
  O  O53  1  0.05469600  0.77888400  0.13416600  1
  O  O54  1  0.22111600  0.94530400  0.36583400  1
  O  O55  1  0.77888400  0.05469600  0.36583400  1
  O  O56  1  0.27581100  0.22111600  0.36583400  1
  O  O57  1  0.94530400  0.72418900  0.36583400  1
  O  O58  1  0.05469600  0.77888400  0.86583400  1
  O  O59  1  0.05469600  0.27581100  0.63416600  1
loop_
_geom_bond_atom_site_label_1
_geom_bond_atom_site_label_2
_geom_bond_distance
_geom_bond_site_symmetry_2
K0 O57 3.065955 1_445
K0 O47 3.065955 1_445
K0 O50 3.065955 1_555
K0 O52 3.065955 1_555
K0 O48 3.065957 1_555
K0 O56 3.065957 1_555
K0 O51 3.065957 1_445
K0 O49 3.065957 1_445
K0 O54 3.065963 1_545
K0 O46 3.065963 1_455
K0 O53 3.065963 1_545
K0 O55 3.065963 1_455
K1 O29 3.065955 1_445
K1 O31 3.065955 1_445
K1 O24 3.065955 1_555
K1 O59 3.065955 1_555
K1 O32 3.065957 1_555
K1 O30 3.065957 1_555
K1 O33 3.065957 1_445
K1 O25 3.065957 1_445
K1 O26 3.065963 1_545
K1 O28 3.065963 1_455
K1 O27 3.065963 1_455
K1 O58 3.065963 1_545
Na0 O43 2.421858 1_555
Na0 O45 2.421858 1_555
Na0 O44 2.421858 1_555
Na1 O34 2.421858 1_555
Na1 O38 2.421858 1_555
Na1 O37 2.421858 1_555
Na2 O41 2.421858 1_555
Na2 O35 2.421858 1_555
Na2 O36 2.421858 1_555
Na3 O0 2.421858 1_555
Na3 O40 2.421858 1_555
Na3 O39 2.421858 1_555
Li0 O13 1.998989 1_555
Li0 O18 1.998989 1_545
Li0 O23 1.998989 1_555
Li0 O16 1.998989 1_545
Li1 O2 1.998989 1_555
Li1 O3 1.998989 1_455
Li1 O8 1.998989 1_555
Li1 O7 1.998989 1_455
Li2 O1 1.998989 1_555
Li2 O5 1.998989 1_555
Li2 O10 1.998989 1_555
Li2 O4 1.998989 1_555
Li3 O42 1.998989 1_555
Li3 O9 1.998989 1_545
Li3 O6 1.998989 1_555
Li3 O11 1.998989 1_545
Li4 O21 1.998989 1_555
Li4 O20 1.998989 1_455
Li4 O15 1.998989 1_555
Li4 O14 1.998989 1_455
Li5 O12 1.998989 1_555
Li5 O22 1.998989 1_555
Li5 O17 1.998989 1_555
Li5 O19 1.998989 1_555
Fe0 O11 2.037494 1_555
Fe0 O8 2.037494 1_555
Fe0 O2 2.037498 1_555
Fe0 O9 2.037498 1_555
Fe0 O4 2.037503 1_555
Fe0 O1 2.037503 1_555
Fe1 O6 2.037494 1_555
Fe1 O7 2.037494 1_555
Fe1 O3 2.037498 1_555
Fe1 O42 2.037498 1_555
Fe1 O10 2.037503 1_555
Fe1 O5 2.037503 1_555
Fe2 O14 2.037494 1_555
Fe2 O23 2.037494 1_555
Fe2 O13 2.037498 1_555
Fe2 O20 2.037498 1_555
Fe2 O19 2.037503 1_555
Fe2 O12 2.037503 1_555
Fe3 O15 2.037494 1_555
Fe3 O16 2.037494 1_555
Fe3 O18 2.037498 1_555
Fe3 O21 2.037498 1_555
Fe3 O17 2.037503 1_555
Fe3 O22 2.037503 1_555
O0 Si20 1.651092 1_555
O0 Si11 1.651092 1_555
O1 Si3 1.600035 1_555
O2 Si4 1.600035 1_555
O3 Si5 1.600035 1_555
O4 Si22 1.600035 1_555
O5 Si1 1.600035 1_555
O6 Si9 1.600035 1_555
O7 Si13 1.600035 1_555
O8 Si20 1.600035 1_555
O9 Si21 1.600035 1_555
O10 Si6 1.600035 1_555
O11 Si7 1.600035 1_555
O12 Si8 1.600035 1_555
O13 Si0 1.600035 1_555
O14 Si10 1.600035 1_555
O15 Si11 1.600035 1_555
O16 Si12 1.600035 1_555
O17 Si23 1.600035 1_555
O18 Si14 1.600035 1_555
O19 Si15 1.600035 1_555
O20 Si16 1.600035 1_555
O21 Si17 1.600035 1_555
O22 Si18 1.600035 1_555
O23 Si19 1.600035 1_555
O24 Si7 1.639268 1_545
O24 Si6 1.640151 1_555
O25 Si1 1.639259 1_555
O25 Si21 1.640160 1_555
O26 Si2 1.639266 1_565
O26 Si20 1.640152 1_555
O27 Si21 1.639266 1_545
O27 Si13 1.640152 1_555
O28 Si4 1.639266 1_655
O28 Si9 1.640152 1_555
O29 Si20 1.639268 1_655
O29 Si1 1.640151 1_555
O30 Si22 1.639259 1_555
O30 Si2 1.640160 1_555
O31 Si9 1.639268 1_565
O31 Si3 1.640151 1_555
O32 Si6 1.639259 1_555
O32 Si4 1.640160 1_555
O33 Si3 1.639259 1_555
O33 Si5 1.640160 1_555
O34 Si19 1.651092 1_555
O34 Si9 1.651092 1_554
O35 Si18 1.651094 1_555
O35 Si3 1.651094 1_554
O36 Si17 1.651095 1_555
O36 Si4 1.651095 1_554
O37 Si16 1.651095 1_555
O37 Si5 1.651095 1_554
O38 Si15 1.651094 1_555
O38 Si6 1.651094 1_554
O39 Si21 1.651095 1_555
O39 Si14 1.651095 1_555
O40 Si22 1.651094 1_555
O40 Si23 1.651094 1_555
O41 Si12 1.651092 1_555
O41 Si7 1.651092 1_554
O42 Si2 1.600035 1_555
O43 Si13 1.651092 1_555
O43 Si10 1.651092 1_555
O44 Si2 1.651095 1_555
O44 Si0 1.651095 1_555
O45 Si1 1.651094 1_555
O45 Si8 1.651094 1_555
O46 Si17 1.639266 1_655
O46 Si19 1.640152 1_555
O47 Si19 1.639268 1_565
O47 Si18 1.640151 1_555
O48 Si15 1.639259 1_555
O48 Si17 1.640160 1_555
O49 Si18 1.639259 1_555
O49 Si16 1.640160 1_555
O50 Si12 1.639268 1_545
O50 Si15 1.640151 1_555
O51 Si8 1.639259 1_555
O51 Si14 1.640160 1_555
O52 Si10 1.639268 1_455
O52 Si23 1.640151 1_555
O53 Si16 1.639266 1_455
O53 Si12 1.640152 1_555
O54 Si0 1.639266 1_565
O54 Si11 1.640152 1_555
O55 Si14 1.639266 1_545
O55 Si10 1.640152 1_555
O56 Si23 1.639259 1_555
O56 Si0 1.640160 1_555
O57 Si11 1.639268 1_655
O57 Si8 1.640151 1_555
O58 Si5 1.639266 1_455
O58 Si7 1.640152 1_555
O59 Si13 1.639268 1_455
O59 Si22 1.640151 1_555
