# generated using pymatgen
data_Sr3CaCo3CuO10
_symmetry_space_group_name_H-M   'P 1'
_cell_length_a   10.89602610
_cell_length_b   11.11350904
_cell_length_c   17.41199688
_cell_angle_alpha   108.50032851
_cell_angle_beta   108.39893917
_cell_angle_gamma   89.72980438
_symmetry_Int_Tables_number   1
_chemical_formula_structural   Sr3CaCo3CuO10
_chemical_formula_sum   'Sr24 Ca8 Co24 Cu8 O80'
_cell_volume   1886.59796525
_cell_formula_units_Z   8
loop_
 _symmetry_equiv_pos_site_id
 _symmetry_equiv_pos_as_xyz
  1  'x, y, z'
loop_
 _atom_site_type_symbol
 _atom_site_label
 _atom_site_symmetry_multiplicity
 _atom_site_fract_x
 _atom_site_fract_y
 _atom_site_fract_z
 _atom_site_occupancy
  Sr  Sr0  1  0.30914400  0.05889800  0.61164600  1
  Sr  Sr1  1  0.30683600  0.55908300  0.61298800  1
  Sr  Sr2  1  0.80867700  0.05824600  0.61039800  1
  Sr  Sr3  1  0.80616700  0.55666700  0.61367700  1
  Sr  Sr4  1  0.19160800  0.43944700  0.38746100  1
  Sr  Sr5  1  0.19598100  0.44406400  0.89110700  1
  Sr  Sr6  1  0.19632600  0.93902900  0.38860100  1
  Sr  Sr7  1  0.69464800  0.43869700  0.38844700  1
  Sr  Sr8  1  0.69627200  0.44386500  0.89036100  1
  Sr  Sr9  1  0.69775300  0.93815700  0.38748900  1
  Sr  Sr10  1  0.69749600  0.94119400  0.89047500  1
  Sr  Sr11  1  0.05570900  0.29903800  0.11069900  1
  Sr  Sr12  1  0.05983100  0.29910700  0.61224100  1
  Sr  Sr13  1  0.05835100  0.80224300  0.61427800  1
  Sr  Sr14  1  0.55846700  0.30627700  0.61123400  1
  Sr  Sr15  1  0.55365400  0.79588900  0.11059700  1
  Sr  Sr16  1  0.55548100  0.80119900  0.61023500  1
  Sr  Sr17  1  0.44696200  0.19881000  0.38592400  1
  Sr  Sr18  1  0.44659400  0.20025500  0.89192800  1
  Sr  Sr19  1  0.44248500  0.70238100  0.38532600  1
  Sr  Sr20  1  0.44440000  0.69653900  0.89109700  1
  Sr  Sr21  1  0.94531300  0.19577400  0.38669400  1
  Sr  Sr22  1  0.94640500  0.20318400  0.89105700  1
  Sr  Sr23  1  0.94481800  0.69850000  0.38676600  1
  Ca  Ca0  1  0.30399600  0.06091100  0.10570100  1
  Ca  Ca1  1  0.30280100  0.56166900  0.10424800  1
  Ca  Ca2  1  0.80567700  0.06521000  0.10536700  1
  Ca  Ca3  1  0.79980200  0.56164200  0.10622000  1
  Ca  Ca4  1  0.20159000  0.93605900  0.89532000  1
  Ca  Ca5  1  0.06059100  0.79158600  0.10675200  1
  Ca  Ca6  1  0.55126300  0.29382600  0.10645600  1
  Ca  Ca7  1  0.95755100  0.70577100  0.89439400  1
  Co  Co0  1  0.00557300  0.99875200  0.99895100  1
  Co  Co1  1  0.00646500  0.00084200  0.50522000  1
  Co  Co2  1  0.00354700  0.50294700  0.00122100  1
  Co  Co3  1  0.00160900  0.49972600  0.50268500  1
  Co  Co4  1  0.50457100  0.00031400  0.00075300  1
  Co  Co5  1  0.50175200  0.00086200  0.49624500  1
  Co  Co6  1  0.50433300  0.49985500  0.00284000  1
  Co  Co7  1  0.50124100  0.50043600  0.49888400  1
  Co  Co8  1  0.25383700  0.24960800  0.99940900  1
  Co  Co9  1  0.25436000  0.25227700  0.50358000  1
  Co  Co10  1  0.25532300  0.75194500  0.00409900  1
  Co  Co11  1  0.25367000  0.75238700  0.50576300  1
  Co  Co12  1  0.75563100  0.25545300  0.00703200  1
  Co  Co13  1  0.75735000  0.25189100  0.50634400  1
  Co  Co14  1  0.75584700  0.74955500  0.00109100  1
  Co  Co15  1  0.75540800  0.75154600  0.50574600  1
  Co  Co16  1  0.10487100  0.08761800  0.24394900  1
  Co  Co17  1  0.10576000  0.59501000  0.24517000  1
  Co  Co18  1  0.60816500  0.09386100  0.24433000  1
  Co  Co19  1  0.61229900  0.09393000  0.74742400  1
  Co  Co20  1  0.60439100  0.58575100  0.24255200  1
  Co  Co21  1  0.35903100  0.40644200  0.24550400  1
  Co  Co22  1  0.85527600  0.40497500  0.24802200  1
  Co  Co23  1  0.86211100  0.90390600  0.24464300  1
  Cu  Cu0  1  0.11332900  0.09501100  0.75557400  1
  Cu  Cu1  1  0.11081800  0.60166200  0.75071000  1
  Cu  Cu2  1  0.61811500  0.60387500  0.75318900  1
  Cu  Cu3  1  0.36651600  0.40244400  0.75494100  1
  Cu  Cu4  1  0.35315000  0.90660000  0.24717200  1
  Cu  Cu5  1  0.36515300  0.90330100  0.75490800  1
  Cu  Cu6  1  0.86725500  0.40449900  0.75395200  1
  Cu  Cu7  1  0.86499700  0.90297700  0.75293700  1
  O  O0  1  0.12314400  0.11648200  0.49594000  1
  O  O1  1  0.12379300  0.11436900  0.99220900  1
  O  O2  1  0.11703500  0.61751300  0.49385800  1
  O  O3  1  0.12139200  0.62637800  0.99343000  1
  O  O4  1  0.62703900  0.12545500  0.49556400  1
  O  O5  1  0.62713700  0.12710200  0.99799100  1
  O  O6  1  0.61627100  0.62063700  0.49435400  1
  O  O7  1  0.62380100  0.62081300  0.99446300  1
  O  O8  1  0.13374100  0.37981700  0.01072500  1
  O  O9  1  0.12978000  0.37172000  0.50396500  1
  O  O10  1  0.13782100  0.87848800  0.01294800  1
  O  O11  1  0.13149700  0.87348500  0.50508900  1
  O  O12  1  0.63300600  0.38052700  0.01523300  1
  O  O13  1  0.63002200  0.37603400  0.50470500  1
  O  O14  1  0.64405600  0.87717100  0.01204900  1
  O  O15  1  0.63088800  0.87344200  0.50171300  1
  O  O16  1  0.37414100  0.12871600  0.49543000  1
  O  O17  1  0.37092200  0.11743100  0.99344800  1
  O  O18  1  0.36498900  0.62794300  0.49183100  1
  O  O19  1  0.37200600  0.61783600  0.99524700  1
  O  O20  1  0.87696400  0.11600900  0.49242100  1
  O  O21  1  0.87162500  0.12206200  0.99201500  1
  O  O22  1  0.86862500  0.62184800  0.49475500  1
  O  O23  1  0.87659400  0.63198200  0.99642600  1
  O  O24  1  0.38718600  0.38288900  0.01709000  1
  O  O25  1  0.37970900  0.38426200  0.50261300  1
  O  O26  1  0.38010500  0.88147500  0.00884200  1
  O  O27  1  0.38448500  0.88622000  0.50638200  1
  O  O28  1  0.87859700  0.38772700  0.01111600  1
  O  O29  1  0.87812400  0.37347900  0.50228600  1
  O  O30  1  0.89240100  0.88791000  0.01160200  1
  O  O31  1  0.88515300  0.88047600  0.50479300  1
  O  O32  1  0.08989700  0.09236100  0.13842100  1
  O  O33  1  0.07829300  0.08305000  0.64075600  1
  O  O34  1  0.08558700  0.59674700  0.13744300  1
  O  O35  1  0.06798000  0.57980300  0.63145500  1
  O  O36  1  0.58177600  0.09316400  0.13622300  1
  O  O37  1  0.57780400  0.08737500  0.63688500  1
  O  O38  1  0.58118600  0.58516200  0.13308200  1
  O  O39  1  0.57304200  0.58714200  0.63783900  1
  O  O40  1  0.43873900  0.41256900  0.35600700  1
  O  O41  1  0.44112200  0.41498500  0.87118500  1
  O  O42  1  0.44067900  0.92474200  0.36721100  1
  O  O43  1  0.44765600  0.91245800  0.87026200  1
  O  O44  1  0.93398100  0.41711200  0.36169200  1
  O  O45  1  0.93964100  0.41667600  0.86853500  1
  O  O46  1  0.94117200  0.90869400  0.35370500  1
  O  O47  1  0.94842900  0.90599900  0.86708400  1
  O  O48  1  0.33387500  0.28632200  0.14103900  1
  O  O49  1  0.32707500  0.30199500  0.63956600  1
  O  O50  1  0.32488500  0.78859800  0.13587400  1
  O  O51  1  0.32356900  0.80046100  0.63791300  1
  O  O52  1  0.83902100  0.28743600  0.14528500  1
  O  O53  1  0.83188700  0.30448900  0.63831200  1
  O  O54  1  0.83876300  0.78663300  0.14059000  1
  O  O55  1  0.82336400  0.79997900  0.63611200  1
  O  O56  1  0.18389300  0.19379600  0.35376100  1
  O  O57  1  0.19112300  0.20775600  0.86735500  1
  O  O58  1  0.18203700  0.69920600  0.35400500  1
  O  O59  1  0.18667200  0.70879200  0.86487000  1
  O  O60  1  0.68134700  0.19431100  0.35205100  1
  O  O61  1  0.68424100  0.20314200  0.85262100  1
  O  O62  1  0.68365800  0.69327300  0.35046000  1
  O  O63  1  0.69909700  0.70316000  0.86739900  1
  O  O64  1  0.43684100  0.05468900  0.23914100  1
  O  O65  1  0.45022800  0.05346000  0.75156200  1
  O  O66  1  0.42613200  0.56187900  0.23884500  1
  O  O67  1  0.45462500  0.55399200  0.75326600  1
  O  O68  1  0.92772500  0.06093700  0.23871700  1
  O  O69  1  0.94168200  0.05990500  0.75229600  1
  O  O70  1  0.92680400  0.55737100  0.23982500  1
  O  O71  1  0.94934900  0.56563000  0.75989300  1
  O  O72  1  0.18619500  0.44067000  0.24775100  1
  O  O73  1  0.20188400  0.45329400  0.75161700  1
  O  O74  1  0.17641000  0.92963400  0.24185900  1
  O  O75  1  0.19824400  0.94289000  0.76104900  1
  O  O76  1  0.67543900  0.42600800  0.24109500  1
  O  O77  1  0.70094000  0.44601600  0.75061000  1
  O  O78  1  0.68937400  0.94118700  0.24642400  1
  O  O79  1  0.69219200  0.94387600  0.75049600  1
loop_
_geom_bond_atom_site_label_1
_geom_bond_atom_site_label_2
_geom_bond_distance
_geom_bond_site_symmetry_2
Ca0 O64 2.340174 1_555
Ca0 O48 2.379744 1_555
Ca0 O10 2.471374 1_545
Ca0 O26 2.498332 1_545
Ca0 O1 2.529433 1_554
Ca0 O17 2.535703 1_554
Ca0 O32 2.567832 1_555
Ca0 O36 2.906158 1_555
Ca1 O66 2.303649 1_555
Ca1 O50 2.400467 1_555
Ca1 O24 2.458909 1_555
Ca1 O8 2.486457 1_555
Ca1 O19 2.494008 1_554
Ca1 O3 2.570413 1_554
Ca1 O34 2.607585 1_555
Ca1 O38 2.912734 1_555
Ca2 O68 2.298282 1_555
Ca2 O52 2.339711 1_555
Ca2 O14 2.486367 1_545
Ca2 O5 2.502127 1_554
Ca2 O30 2.521063 1_545
Ca2 O21 2.549887 1_554
Ca2 O36 2.655430 1_555
Ca2 O32 2.964178 1_655
Ca3 O70 2.316527 1_555
Ca3 O54 2.385489 1_555
Ca3 O12 2.461213 1_555
Ca3 O28 2.462857 1_555
Ca3 O7 2.518160 1_554
Ca3 O38 2.565362 1_555
Ca3 O23 2.632541 1_554
Ca3 O34 2.992067 1_655
Ca4 O75 2.351977 1_555
Ca4 O59 2.405512 1_555
Ca4 O17 2.499181 1_565
Ca4 O1 2.501373 1_565
Ca4 O26 2.526124 1_556
Ca4 O10 2.611742 1_556
Ca4 O47 2.647775 1_455
Ca4 O43 2.847258 1_555
Ca5 O74 2.309597 1_555
Ca5 O34 2.384403 1_555
Ca5 O10 2.486956 1_555
Ca5 O3 2.493575 1_554
Ca5 O23 2.509142 1_454
Ca5 O30 2.537643 1_455
Ca5 O54 2.667037 1_455
Ca5 O50 2.763910 1_555
Ca6 O76 2.305524 1_555
Ca6 O24 2.408692 1_555
Ca6 O36 2.443376 1_555
Ca6 O12 2.473277 1_555
Ca6 O5 2.536507 1_554
Ca6 O17 2.592999 1_554
Ca6 O48 2.629494 1_555
Ca7 O71 2.339390 1_555
Ca7 O47 2.413975 1_555
Ca7 O3 2.438550 1_655
Ca7 O23 2.554901 1_555
Ca7 O10 2.601005 1_656
Ca7 O30 2.654360 1_556
Ca7 O63 2.703487 1_555
Ca7 O59 2.705522 1_655
Co0 O30 1.855953 1_456
Co0 O1 1.879054 1_565
Co0 O10 1.972069 1_556
Co0 O21 1.999410 1_465
Co0 O47 2.079360 1_455
Co0 O32 2.195690 1_566
Co1 O31 1.881710 1_445
Co1 O0 1.889692 1_555
Co1 O20 1.909021 1_455
Co1 O11 1.959858 1_545
Co1 O33 2.118750 1_555
Co1 O46 2.371154 1_445
Co2 O3 1.947700 1_554
Co2 O28 1.956389 1_455
Co2 O8 1.972194 1_555
Co2 O23 1.990291 1_454
Co2 O45 2.080085 1_454
Co2 O34 2.147758 1_555
Co3 O2 1.893192 1_555
Co3 O29 1.945422 1_455
Co3 O22 1.983618 1_455
Co3 O9 1.989064 1_555
Co3 O35 2.014541 1_555
Co3 O44 2.201550 1_455
Co4 O17 1.949665 1_554
Co4 O26 1.964407 1_545
Co4 O5 1.967885 1_554
Co4 O14 2.045485 1_545
Co4 O43 2.051524 1_544
Co4 O36 2.132442 1_555
Co5 O27 1.894066 1_545
Co5 O4 1.954351 1_555
Co5 O16 1.983492 1_555
Co5 O15 1.994092 1_545
Co5 O42 2.015349 1_545
Co5 O37 2.200039 1_555
Co6 O12 1.934944 1_555
Co6 O7 1.945153 1_554
Co6 O19 1.946131 1_554
Co6 O24 1.949581 1_555
Co6 O38 2.046247 1_555
Co6 O41 2.063075 1_554
Co7 O6 1.872627 1_555
Co7 O25 1.883695 1_555
Co7 O13 1.967618 1_555
Co7 O18 2.050042 1_555
Co7 O39 2.174199 1_555
Co7 O40 2.236391 1_555
Co8 O17 1.940441 1_555
Co8 O8 1.951709 1_556
Co8 O24 1.961748 1_556
Co8 O1 2.017627 1_555
Co8 O57 2.074276 1_555
Co8 O48 2.239569 1_556
Co9 O16 1.893551 1_555
Co9 O9 1.894156 1_555
Co9 O25 2.016518 1_555
Co9 O0 2.027875 1_555
Co9 O49 2.128161 1_555
Co9 O56 2.341228 1_555
Co10 O10 1.900194 1_555
Co10 O3 1.948092 1_554
Co10 O26 1.949306 1_555
Co10 O19 1.954883 1_554
Co10 O50 2.077725 1_555
Co10 O59 2.188007 1_554
Co11 O18 1.843849 1_555
Co11 O11 1.888581 1_555
Co11 O2 2.033532 1_555
Co11 O27 2.060127 1_555
Co11 O51 2.068206 1_555
Co11 O58 2.377424 1_555
Co12 O12 1.927359 1_555
Co12 O5 1.938270 1_554
Co12 O21 1.951495 1_554
Co12 O28 1.962984 1_555
Co12 O52 2.196843 1_555
Co12 O61 2.421521 1_554
Co13 O29 1.923207 1_555
Co13 O4 1.925852 1_555
Co13 O13 1.952184 1_555
Co13 O20 1.996609 1_555
Co13 O53 2.062839 1_555
Co13 O60 2.412960 1_555
Co14 O23 1.851699 1_554
Co14 O14 1.868227 1_555
Co14 O7 1.985025 1_554
Co14 O30 2.069459 1_555
Co14 O63 2.097550 1_554
Co14 O54 2.206560 1_555
Co15 O22 1.895591 1_555
Co15 O15 1.914118 1_555
Co15 O31 2.025078 1_555
Co15 O6 2.025381 1_555
Co15 O55 2.039104 1_555
Co15 O62 2.429092 1_555
Co16 O32 1.810461 1_555
Co16 O56 1.824330 1_555
Co16 O74 1.912083 1_545
Co16 O68 1.923305 1_455
Co17 O58 1.801404 1_555
Co17 O34 1.824765 1_555
Co17 O72 1.929281 1_555
Co17 O70 1.963215 1_455
Co18 O60 1.770748 1_555
Co18 O36 1.809727 1_555
Co18 O64 1.886445 1_555
Co18 O78 1.915195 1_545
Co19 O61 1.770427 1_555
Co19 O37 1.818152 1_555
Co19 O65 1.853204 1_555
Co19 O79 1.885513 1_545
Co20 O62 1.806820 1_555
Co20 O38 1.839843 1_555
Co20 O76 1.929378 1_555
Co20 O66 1.939585 1_555
Co21 O48 1.820309 1_555
Co21 O40 1.823057 1_555
Co21 O72 1.929528 1_555
Co21 O66 1.929928 1_555
Co22 O52 1.804705 1_555
Co22 O44 1.852337 1_555
Co22 O70 1.931924 1_555
Co22 O76 1.942483 1_555
Co23 O46 1.804082 1_555
Co23 O54 1.805408 1_555
Co23 O78 1.932987 1_555
Co23 O68 1.933905 1_565
Cu0 O57 1.870183 1_555
Cu0 O33 1.873577 1_555
Cu0 O69 1.891758 1_455
Cu0 O75 1.937813 1_545
Cu1 O71 1.872476 1_455
Cu1 O59 1.876719 1_555
Cu1 O35 1.912515 1_555
Cu1 O73 1.922202 1_555
Cu2 O39 1.857660 1_555
Cu2 O63 1.860026 1_555
Cu2 O67 1.868685 1_555
Cu2 O77 1.963394 1_555
Cu3 O73 1.867140 1_555
Cu3 O49 1.871614 1_555
Cu3 O41 1.886895 1_555
Cu3 O67 1.955314 1_555
Cu4 O50 1.893254 1_555
Cu4 O74 1.918482 1_555
Cu4 O42 1.948038 1_555
Cu4 O64 1.949471 1_565
Cu5 O43 1.893163 1_555
Cu5 O75 1.896795 1_555
Cu5 O51 1.898963 1_555
Cu5 O65 1.938541 1_565
Cu6 O77 1.855487 1_555
Cu6 O45 1.859356 1_555
Cu6 O53 1.879386 1_555
Cu6 O71 1.963844 1_555
Cu7 O47 1.896092 1_555
Cu7 O55 1.896988 1_555
Cu7 O79 1.925446 1_555
Cu7 O69 1.942133 1_565
O0 Sr6 2.570028 1_545
O0 Sr0 2.608508 1_555
O0 Sr21 2.621131 1_455
O0 Sr12 2.637484 1_555
O1 Sr22 2.597771 1_455
O1 Sr11 2.698816 1_556
O2 Sr4 2.572348 1_555
O2 Sr23 2.578500 1_455
O2 Sr13 2.668743 1_555
O2 Sr1 2.671227 1_555
O3 Sr5 2.558846 1_555
O4 Sr17 2.601348 1_555
O4 Sr9 2.623352 1_545
O4 Sr2 2.628422 1_555
O4 Sr14 2.649572 1_555
O5 Sr18 2.566273 1_555
O5 Sr10 2.607205 1_545
O6 Sr16 2.607353 1_555
O6 Sr19 2.612252 1_555
O6 Sr7 2.613398 1_555
O6 Sr3 2.704266 1_555
O7 Sr8 2.530432 1_555
O7 Sr20 2.548231 1_555
O7 Sr15 2.631292 1_556
O8 Sr11 2.547996 1_555
O8 Sr22 2.668103 1_454
O8 Sr5 2.673520 1_554
O9 Sr12 2.581641 1_555
O9 Sr1 2.622741 1_555
O9 Sr21 2.635387 1_455
O9 Sr4 2.640439 1_555
O11 Sr0 2.603736 1_565
O11 Sr13 2.606604 1_555
O11 Sr6 2.643943 1_555
O11 Sr23 2.648227 1_455
O12 Sr18 2.702728 1_554
O12 Sr8 2.760462 1_554
O13 Sr14 2.545717 1_555
O13 Sr3 2.575649 1_555
O13 Sr7 2.622526 1_555
O13 Sr17 2.642547 1_555
O14 Sr15 2.605704 1_555
O14 Sr10 2.657858 1_554
O14 Sr20 2.768360 1_554
O15 Sr2 2.609389 1_565
O15 Sr9 2.613635 1_555
O15 Sr16 2.615204 1_555
O15 Sr19 2.626945 1_555
O16 Sr17 2.602971 1_555
O16 Sr6 2.633028 1_545
O16 Sr14 2.636161 1_555
O16 Sr0 2.665456 1_555
O17 Sr18 2.571289 1_555
O18 Sr4 2.591142 1_555
O18 Sr19 2.608659 1_555
O18 Sr16 2.661428 1_555
O18 Sr1 2.703779 1_555
O19 Sr5 2.512646 1_555
O19 Sr20 2.567493 1_555
O19 Sr15 2.621505 1_556
O20 Sr9 2.559376 1_545
O20 Sr21 2.576192 1_555
O20 Sr2 2.644193 1_555
O20 Sr12 2.680182 1_655
O21 Sr10 2.535578 1_545
O21 Sr22 2.546312 1_555
O21 Sr11 2.646376 1_656
O22 Sr7 2.567721 1_555
O22 Sr23 2.638006 1_555
O22 Sr3 2.668647 1_555
O22 Sr13 2.701741 1_655
O23 Sr8 2.634341 1_555
O24 Sr18 2.712769 1_554
O24 Sr5 2.768170 1_554
O25 Sr1 2.584160 1_555
O25 Sr4 2.602180 1_555
O25 Sr14 2.611669 1_555
O25 Sr17 2.679753 1_555
O26 Sr15 2.560710 1_555
O26 Sr20 2.671553 1_554
O27 Sr0 2.533539 1_565
O27 Sr16 2.564182 1_555
O27 Sr6 2.617597 1_555
O27 Sr19 2.666888 1_555
O28 Sr11 2.580033 1_655
O28 Sr8 2.634529 1_554
O28 Sr22 2.713310 1_554
O29 Sr7 2.616781 1_555
O29 Sr12 2.620022 1_655
O29 Sr21 2.623197 1_555
O29 Sr3 2.638236 1_555
O30 Sr10 2.694844 1_554
O31 Sr2 2.573903 1_565
O31 Sr13 2.591692 1_655
O31 Sr23 2.632390 1_555
O31 Sr9 2.634002 1_555
O32 Sr11 2.495911 1_555
O33 Sr12 2.596437 1_555
O33 Sr0 2.714425 1_555
O33 Sr2 2.814361 1_455
O33 Sr13 3.004819 1_545
O35 Sr13 2.580435 1_555
O35 Sr1 2.721301 1_555
O35 Sr3 2.774692 1_455
O35 Sr12 3.028653 1_555
O37 Sr14 2.605294 1_555
O37 Sr2 2.697346 1_555
O37 Sr0 2.823281 1_555
O37 Sr16 3.064151 1_545
O38 Sr15 2.495786 1_555
O39 Sr16 2.567137 1_555
O39 Sr3 2.705561 1_555
O39 Sr1 2.797943 1_555
O39 Sr14 3.003917 1_555
O40 Sr17 2.583947 1_555
O40 Sr7 2.662291 1_555
O40 Sr4 2.908540 1_555
O40 Sr19 3.095260 1_555
O41 Sr18 2.522098 1_555
O41 Sr8 2.701481 1_555
O41 Sr5 2.804452 1_555
O41 Sr20 3.035986 1_555
O42 Sr19 2.587865 1_555
O42 Sr9 2.709092 1_555
O42 Sr6 2.799493 1_555
O42 Sr17 2.957392 1_565
O43 Sr20 2.540161 1_555
O43 Sr10 2.639817 1_555
O43 Sr18 3.099856 1_565
O44 Sr21 2.626476 1_555
O44 Sr4 2.698816 1_655
O44 Sr7 2.786602 1_555
O44 Sr23 3.014710 1_555
O45 Sr22 2.521754 1_555
O45 Sr5 2.699552 1_655
O45 Sr8 2.797009 1_555
O46 Sr23 2.574472 1_555
O46 Sr6 2.650404 1_655
O46 Sr9 2.888324 1_555
O46 Sr21 3.055001 1_565
O47 Sr10 2.895920 1_555
O48 Sr11 2.918563 1_555
O49 Sr0 2.585535 1_555
O49 Sr14 2.720942 1_555
O49 Sr12 2.796992 1_555
O49 Sr1 3.032300 1_555
O50 Sr15 2.670352 1_555
O51 Sr1 2.575564 1_555
O51 Sr16 2.718289 1_555
O51 Sr13 2.788319 1_555
O51 Sr0 3.044189 1_565
O52 Sr11 2.627449 1_655
O53 Sr2 2.621855 1_555
O53 Sr12 2.659215 1_655
O53 Sr14 2.866525 1_555
O53 Sr3 2.965909 1_555
O54 Sr15 2.990141 1_555
O55 Sr3 2.605344 1_555
O55 Sr13 2.705936 1_655
O55 Sr16 2.810025 1_555
O55 Sr2 3.038160 1_565
O56 Sr4 2.599793 1_555
O56 Sr17 2.738865 1_555
O56 Sr21 2.831882 1_455
O56 Sr6 3.072044 1_545
O57 Sr5 2.523696 1_555
O57 Sr18 2.684615 1_555
O57 Sr22 2.827036 1_455
O58 Sr6 2.533103 1_555
O58 Sr19 2.713633 1_555
O58 Sr23 2.817826 1_455
O58 Sr4 3.116099 1_555
O59 Sr20 2.709143 1_555
O59 Sr5 3.113773 1_555
O60 Sr7 2.579268 1_555
O60 Sr21 2.745097 1_555
O60 Sr17 2.793477 1_555
O60 Sr9 3.091462 1_545
O61 Sr8 2.537593 1_555
O61 Sr22 2.720432 1_555
O61 Sr18 2.882350 1_555
O61 Sr10 3.175499 1_545
O62 Sr9 2.583376 1_555
O62 Sr23 2.709827 1_555
O62 Sr19 2.872253 1_555
O62 Sr7 3.096899 1_555
O63 Sr10 2.547409 1_555
O63 Sr20 2.936222 1_555
O63 Sr8 3.033914 1_555
O64 Sr17 2.517040 1_555
O65 Sr0 2.455684 1_555
O65 Sr18 2.483253 1_555
O66 Sr19 2.482629 1_555
O67 Sr20 2.456830 1_555
O67 Sr1 2.483175 1_555
O68 Sr21 2.482282 1_555
O69 Sr22 2.420017 1_555
O69 Sr2 2.432305 1_555
O70 Sr23 2.486735 1_555
O71 Sr3 2.501750 1_555
O72 Sr11 2.385216 1_555
O72 Sr4 2.419040 1_555
O73 Sr5 2.484052 1_555
O73 Sr12 2.497240 1_555
O74 Sr6 2.463185 1_555
O75 Sr13 2.515159 1_555
O76 Sr7 2.465390 1_555
O77 Sr14 2.442109 1_555
O77 Sr8 2.457514 1_555
O78 Sr15 2.403918 1_555
O78 Sr9 2.439960 1_555
O79 Sr10 2.429382 1_555
O79 Sr16 2.442510 1_555
