# generated using pymatgen
data_BaTl(SnO3)2
_symmetry_space_group_name_H-M   'P 1'
_cell_length_a   23.83937550
_cell_length_b   23.83937550
_cell_length_c   23.83937550
_cell_angle_alpha   170.63065911
_cell_angle_beta   170.63065911
_cell_angle_gamma   13.26509680
_symmetry_Int_Tables_number   1
_chemical_formula_structural   BaTl(SnO3)2
_chemical_formula_sum   'Ba2 Tl2 Sn4 O12'
_cell_volume   359.06500310
_cell_formula_units_Z   2
loop_
 _symmetry_equiv_pos_site_id
 _symmetry_equiv_pos_as_xyz
  1  'x, y, z'
loop_
 _atom_site_type_symbol
 _atom_site_label
 _atom_site_symmetry_multiplicity
 _atom_site_fract_x
 _atom_site_fract_y
 _atom_site_fract_z
 _atom_site_occupancy
  Ba  Ba0  1  0.66263700  0.66263700  0.00000000  1
  Ba  Ba1  1  0.33736300  0.33736300  0.00000000  1
  Tl  Tl0  1  0.22542100  0.22542100  0.00000000  1
  Tl  Tl1  1  0.77457900  0.77457900  0.00000000  1
  Sn  Sn0  1  0.04603900  0.04603900  0.00000000  1
  Sn  Sn1  1  0.89270900  0.89270900  0.00000000  1
  Sn  Sn2  1  0.10729100  0.10729100  0.00000000  1
  Sn  Sn3  1  0.95396100  0.95396100  0.00000000  1
  O  O0  1  0.37670300  0.87670300  0.50000000  1
  O  O1  1  0.53431600  0.03431600  0.50000000  1
  O  O2  1  0.73066700  0.73066700  0.00000000  1
  O  O3  1  0.96568400  0.46568400  0.50000000  1
  O  O4  1  0.26933300  0.26933300  0.00000000  1
  O  O5  1  0.12329700  0.62329700  0.50000000  1
  O  O6  1  0.62329700  0.12329700  0.50000000  1
  O  O7  1  0.81713700  0.81713700  0.00000000  1
  O  O8  1  0.87670300  0.37670300  0.50000000  1
  O  O9  1  0.03431600  0.53431600  0.50000000  1
  O  O10  1  0.46568400  0.96568400  0.50000000  1
  O  O11  1  0.18286300  0.18286300  0.00000000  1
loop_
_geom_bond_atom_site_label_1
_geom_bond_atom_site_label_2
_geom_bond_distance
_geom_bond_site_symmetry_2
Ba0 O6 2.694825 1_565
Ba0 O5 2.694825 1_655
Ba0 O5 2.694825 1_554
Ba0 O6 2.694825 1_554
Ba0 O11 2.915344 1_655
Ba0 O11 2.915344 1_565
Ba0 O11 2.915344 1_554
Ba0 O11 2.915344 1_666
Ba0 O2 3.221877 1_555
Ba1 O0 2.694825 1_544
Ba1 O8 2.694825 1_454
Ba1 O0 2.694825 1_555
Ba1 O8 2.694825 1_555
Ba1 O7 2.915344 1_444
Ba1 O7 2.915344 1_455
Ba1 O7 2.915344 1_545
Ba1 O7 2.915344 1_556
Ba1 O4 3.221877 1_555
O0 Sn1 2.089367 1_556
O0 Sn1 2.089367 1_455
O1 Sn0 2.024618 1_555
O1 Sn0 2.024618 1_656
O2 Tl1 2.079657 1_555
O3 Sn3 2.024618 1_556
O3 Sn3 2.024618 1_545
O4 Tl0 2.079657 1_555
O5 Sn2 2.089367 1_566
O5 Sn2 2.089367 1_555
O6 Sn2 2.089367 1_656
O6 Sn2 2.089367 1_555
O7 Tl1 2.015532 1_555
O8 Sn1 2.089367 1_556
O8 Sn1 2.089367 1_545
O9 Sn0 2.024618 1_566
O9 Sn0 2.024618 1_555
O10 Sn3 2.024618 1_455
O10 Sn3 2.024618 1_556
O11 Tl0 2.015532 1_555
