# generated using pymatgen
data_Sr10P6SO24
_symmetry_space_group_name_H-M   'P 1'
_cell_length_a   9.81929085
_cell_length_b   9.81929085
_cell_length_c   7.21505808
_cell_angle_alpha   90.00000000
_cell_angle_beta   90.00000000
_cell_angle_gamma   119.99999818
_symmetry_Int_Tables_number   1
_chemical_formula_structural   Sr10P6SO24
_chemical_formula_sum   'Sr10 P6 S1 O24'
_cell_volume   602.46347067
_cell_formula_units_Z   1
loop_
 _symmetry_equiv_pos_site_id
 _symmetry_equiv_pos_as_xyz
  1  'x, y, z'
loop_
 _atom_site_type_symbol
 _atom_site_label
 _atom_site_symmetry_multiplicity
 _atom_site_fract_x
 _atom_site_fract_y
 _atom_site_fract_z
 _atom_site_occupancy
  Sr  Sr0  1  0.98633937  0.74199742  0.74189800  1
  Sr  Sr1  1  0.25800258  0.24434095  0.74189800  1
  Sr  Sr2  1  0.75565905  0.01366063  0.74189800  1
  Sr  Sr3  1  0.74199742  0.75565905  0.25810200  1
  Sr  Sr4  1  0.01366063  0.25800258  0.25810200  1
  Sr  Sr5  1  0.24434095  0.98633937  0.25810200  1
  Sr  Sr6  1  0.66666700  0.33333300  0.48074577  1
  Sr  Sr7  1  0.33333300  0.66666700  0.51925423  1
  Sr  Sr8  1  0.66666700  0.33333300  0.97845732  1
  Sr  Sr9  1  0.33333300  0.66666700  0.02154268  1
  P  P0  1  0.36915375  0.97060926  0.75284122  1
  P  P1  1  0.60145551  0.63084625  0.75284122  1
  P  P2  1  0.97060926  0.60145551  0.24715878  1
  P  P3  1  0.02939074  0.39854449  0.75284122  1
  P  P4  1  0.39854449  0.36915375  0.24715878  1
  P  P5  1  0.63084625  0.02939074  0.24715878  1
  S  S0  1  -0.00000000  -0.00000000  0.50000000  1
  O  O0  1  0.47928718  0.14985422  0.73833201  1
  O  O1  1  0.09973079  0.38106896  0.56994471  1
  O  O2  1  0.28133917  0.90026921  0.56994471  1
  O  O3  1  0.61893104  0.71866083  0.56994471  1
  O  O4  1  0.90026921  0.61893104  0.43005529  1
  O  O5  1  0.71866083  0.09973079  0.43005529  1
  O  O6  1  0.38106896  0.28133917  0.43005529  1
  O  O7  1  0.06498184  0.31076650  0.90530643  1
  O  O8  1  0.24578466  0.93501816  0.90530643  1
  O  O9  1  0.68923350  0.75421534  0.90530643  1
  O  O10  1  0.31076650  0.24578466  0.09469357  1
  O  O11  1  0.11244528  0.57668963  0.79450867  1
  O  O12  1  0.46424435  0.88755472  0.79450867  1
  O  O13  1  0.42331037  0.53575565  0.79450867  1
  O  O14  1  0.88755472  0.42331037  0.20549133  1
  O  O15  1  0.53575565  0.11244528  0.20549133  1
  O  O16  1  0.32943296  0.47928718  0.26166799  1
  O  O17  1  0.52071282  0.85014578  0.26166799  1
  O  O18  1  0.14985422  0.67056704  0.26166799  1
  O  O19  1  0.67056704  0.52071282  0.73833201  1
  O  O20  1  0.75421534  0.06498184  0.09469357  1
  O  O21  1  0.85014578  0.32943296  0.73833201  1
  O  O22  1  0.57668963  0.46424435  0.20549133  1
  O  O23  1  0.93501816  0.68923350  0.09469357  1
loop_
_geom_bond_atom_site_label_1
_geom_bond_atom_site_label_2
_geom_bond_distance
_geom_bond_site_symmetry_2
S0 Sr2 3.023632 1_455
S0 Sr5 3.023632 1_545
S0 Sr1 3.023636 1_555
S0 Sr3 3.023636 1_445
S0 Sr4 3.023640 1_555
S0 Sr0 3.023640 1_445
O0 P0 1.541063 1_545
O0 Sr8 2.513558 1_555
O0 Sr6 2.601995 1_555
O0 Sr1 2.756580 1_555
O1 P3 1.538306 1_555
O1 Sr4 2.493111 1_555
O1 Sr7 2.612876 1_555
O1 Sr1 2.800627 1_555
O2 P0 1.538303 1_555
O2 Sr5 2.493117 1_555
O2 Sr7 2.612864 1_555
O2 Sr0 2.800627 1_455
O3 P1 1.538301 1_555
O3 Sr3 2.493109 1_555
O3 Sr7 2.612883 1_555
O3 Sr2 2.800627 1_565
O4 P2 1.538306 1_555
O4 Sr0 2.493111 1_555
O4 Sr6 2.612876 1_555
O4 Sr3 2.800627 1_555
O5 P5 1.538303 1_555
O5 Sr2 2.493117 1_555
O5 Sr6 2.612864 1_555
O5 Sr4 2.800627 1_655
O6 P4 1.538301 1_555
O6 Sr1 2.493109 1_555
O6 Sr6 2.612883 1_555
O6 Sr5 2.800627 1_545
O7 P3 1.541545 1_555
O7 Sr1 2.577590 1_555
O7 Sr4 2.596259 1_556
O7 Sr2 3.203974 1_455
O8 P0 1.541545 1_555
O8 Sr0 2.577584 1_455
O8 Sr5 2.596260 1_556
O8 Sr1 3.203970 1_565
O9 P1 1.541545 1_555
O9 Sr2 2.577582 1_565
O9 Sr3 2.596258 1_556
O9 Sr0 3.203979 1_555
O10 P4 1.541545 1_555
O10 Sr5 2.577582 1_545
O10 Sr1 2.596258 1_554
O10 Sr4 3.203979 1_555
O11 P3 1.545575 1_555
O11 Sr9 2.500387 1_556
O11 Sr0 2.514391 1_455
O11 Sr7 2.740946 1_555
O12 P0 1.545575 1_555
O12 Sr9 2.500387 1_556
O12 Sr2 2.514400 1_565
O12 Sr7 2.740947 1_555
O13 P1 1.545575 1_555
O13 Sr9 2.500393 1_556
O13 Sr1 2.514400 1_555
O13 Sr7 2.740952 1_555
O14 P2 1.545575 1_555
O14 Sr8 2.500387 1_554
O14 Sr4 2.514391 1_655
O14 Sr6 2.740946 1_555
O15 P5 1.545575 1_555
O15 Sr8 2.500387 1_554
O15 Sr5 2.514400 1_545
O15 Sr6 2.740947 1_555
O16 P4 1.541063 1_555
O16 Sr9 2.513562 1_555
O16 Sr7 2.601998 1_555
O16 Sr4 2.756587 1_555
O17 P5 1.541063 1_565
O17 Sr9 2.513558 1_555
O17 Sr7 2.601995 1_555
O17 Sr3 2.756580 1_555
O18 P2 1.541063 1_455
O18 Sr9 2.513554 1_555
O18 Sr7 2.601991 1_555
O18 Sr5 2.756590 1_555
O19 P1 1.541063 1_555
O19 Sr8 2.513562 1_555
O19 Sr6 2.601998 1_555
O19 Sr0 2.756587 1_555
O20 P5 1.541545 1_555
O20 Sr4 2.577584 1_655
O20 Sr2 2.596260 1_554
O20 Sr3 3.203970 1_545
O21 P3 1.541063 1_655
O21 Sr8 2.513554 1_555
O21 Sr6 2.601991 1_555
O21 Sr2 2.756590 1_555
O22 P4 1.545575 1_555
O22 Sr8 2.500393 1_554
O22 Sr3 2.514400 1_555
O22 Sr6 2.740952 1_555
O23 P2 1.541545 1_555
O23 Sr3 2.577590 1_555
O23 Sr0 2.596259 1_554
O23 Sr5 3.203974 1_655
