# generated using pymatgen
data_Al2P3H12(NO4)3
_symmetry_space_group_name_H-M   'P 1'
_cell_length_a   8.48685593
_cell_length_b   8.48685593
_cell_length_c   8.95789646
_cell_angle_alpha   73.26970639
_cell_angle_beta   73.26970639
_cell_angle_gamma   75.49974634
_symmetry_Int_Tables_number   1
_chemical_formula_structural   Al2P3H12(NO4)3
_chemical_formula_sum   'Al4 P6 H24 N6 O24'
_cell_volume   581.78666741
_cell_formula_units_Z   2
loop_
 _symmetry_equiv_pos_site_id
 _symmetry_equiv_pos_as_xyz
  1  'x, y, z'
loop_
 _atom_site_type_symbol
 _atom_site_label
 _atom_site_symmetry_multiplicity
 _atom_site_fract_x
 _atom_site_fract_y
 _atom_site_fract_z
 _atom_site_occupancy
  Al  Al0  1  0.75357200  0.90978400  0.58353600  1
  Al  Al1  1  0.24642800  0.09021600  0.41646400  1
  Al  Al2  1  0.09021600  0.24642800  0.91646400  1
  Al  Al3  1  0.90978400  0.75357200  0.08353600  1
  P  P0  1  0.41765200  0.17073700  0.65626100  1
  P  P1  1  0.58234800  0.82926300  0.34373900  1
  P  P2  1  0.82926300  0.58234800  0.84373900  1
  P  P3  1  0.17073700  0.41765200  0.15626100  1
  P  P4  1  0.99387800  0.00612200  0.75000000  1
  P  P5  1  0.00612200  0.99387800  0.25000000  1
  H  H0  1  0.46666700  0.22146000  0.98507400  1
  H  H1  1  0.53333300  0.77854000  0.01492600  1
  H  H2  1  0.77854000  0.53333300  0.51492600  1
  H  H3  1  0.22146000  0.46666700  0.48507400  1
  H  H4  1  0.51100600  0.58305900  0.79086900  1
  H  H5  1  0.48899400  0.41694100  0.20913100  1
  H  H6  1  0.41694100  0.48899400  0.70913100  1
  H  H7  1  0.58305900  0.51100600  0.29086900  1
  H  H8  1  0.64367800  0.12419700  0.87390900  1
  H  H9  1  0.35632200  0.87580300  0.12609100  1
  H  H10  1  0.87580300  0.35632200  0.62609100  1
  H  H11  1  0.12419700  0.64367800  0.37390900  1
  H  H12  1  0.39271100  0.70228000  0.65741700  1
  H  H13  1  0.60728900  0.29772000  0.34258300  1
  H  H14  1  0.29772000  0.60728900  0.84258300  1
  H  H15  1  0.70228000  0.39271100  0.15741700  1
  H  H16  1  0.62795200  0.10633700  0.06773100  1
  H  H17  1  0.37204800  0.89366300  0.93226900  1
  H  H18  1  0.89366300  0.37204800  0.43226900  1
  H  H19  1  0.10633700  0.62795200  0.56773100  1
  H  H20  1  0.64842200  0.29684300  0.93051400  1
  H  H21  1  0.35157800  0.70315600  0.06948600  1
  H  H22  1  0.70315600  0.35157800  0.56948600  1
  H  H23  1  0.29684400  0.64842200  0.43051400  1
  N  N0  1  0.40133400  0.59866600  0.75000000  1
  N  N1  1  0.59866600  0.40133400  0.25000000  1
  N  N2  1  0.59570100  0.18719800  0.96585200  1
  N  N3  1  0.40429900  0.81280200  0.03414800  1
  N  N4  1  0.81280200  0.40429900  0.53414800  1
  N  N5  1  0.18719800  0.59570100  0.46585200  1
  O  O0  1  0.32645800  0.21520000  0.51843600  1
  O  O1  1  0.67354200  0.78480000  0.48156400  1
  O  O2  1  0.78480000  0.67354200  0.98156400  1
  O  O3  1  0.21520000  0.32645800  0.01843600  1
  O  O4  1  0.50593100  0.31519100  0.63521800  1
  O  O5  1  0.49406900  0.68480900  0.36478200  1
  O  O6  1  0.68480900  0.49406900  0.86478200  1
  O  O7  1  0.31519100  0.50593100  0.13521800  1
  O  O8  1  0.82474800  0.01618300  0.71081100  1
  O  O9  1  0.17525200  0.98381700  0.28918900  1
  O  O10  1  0.98381700  0.17525200  0.78918900  1
  O  O11  1  0.01618300  0.82474800  0.21081100  1
  O  O12  1  0.54080900  0.00082500  0.66087800  1
  O  O13  1  0.45919100  0.99917500  0.33912200  1
  O  O14  1  0.99917500  0.45919100  0.83912200  1
  O  O15  1  0.00082500  0.54080900  0.16087800  1
  O  O16  1  0.14023900  0.97261600  0.60498000  1
  O  O17  1  0.85976100  0.02738400  0.39502000  1
  O  O18  1  0.02738400  0.85976100  0.89502000  1
  O  O19  1  0.97261600  0.14023900  0.10498000  1
  O  O20  1  0.29119400  0.13999400  0.82223700  1
  O  O21  1  0.70880600  0.86000600  0.17776300  1
  O  O22  1  0.86000600  0.70880600  0.67776300  1
  O  O23  1  0.13999400  0.29119400  0.32223700  1
loop_
_geom_bond_atom_site_label_1
_geom_bond_atom_site_label_2
_geom_bond_distance
_geom_bond_site_symmetry_2
Al0 O12 1.796327 1_565
Al0 O17 1.806624 1_565
Al0 O22 1.810039 1_555
Al0 O1 1.922670 1_555
Al0 O8 1.934564 1_565
Al1 O13 1.796327 1_545
Al1 O16 1.806624 1_545
Al1 O23 1.810039 1_555
Al1 O0 1.922670 1_555
Al1 O9 1.934564 1_545
Al2 O14 1.796327 1_455
Al2 O19 1.806624 1_456
Al2 O20 1.810039 1_555
Al2 O3 1.922670 1_556
Al2 O10 1.934564 1_455
Al3 O15 1.796327 1_655
Al3 O18 1.806624 1_654
Al3 O21 1.810039 1_555
Al3 O2 1.922670 1_554
Al3 O11 1.934564 1_655
H0 N2 1.036453 1_555
H1 N3 1.036453 1_555
H2 N4 1.036453 1_555
H3 N5 1.036453 1_555
H4 N0 1.060394 1_555
H4 O6 1.703245 1_555
H5 N1 1.060394 1_555
H5 O7 1.703245 1_555
H6 N0 1.060394 1_555
H6 O4 1.703245 1_555
H7 N1 1.060394 1_555
H7 O5 1.703245 1_555
H8 N2 1.039931 1_555
H9 N3 1.039931 1_555
H10 N4 1.039931 1_555
H11 N5 1.039931 1_555
H12 N0 1.024345 1_555
H13 N1 1.024345 1_555
H14 N0 1.024345 1_555
H15 N1 1.024345 1_555
H16 N2 1.033401 1_554
H17 N3 1.033401 1_556
H18 N4 1.033401 1_555
H19 N5 1.033401 1_555
H20 N2 1.060035 1_555
H20 O6 1.682409 1_555
H21 N3 1.060042 1_555
H21 O7 1.682401 1_555
H22 N4 1.060042 1_555
H22 O4 1.682401 1_555
H23 N5 1.060042 1_555
H23 O5 1.682401 1_555
O0 P0 1.549627 1_555
O1 P1 1.549627 1_555
O2 P2 1.549627 1_555
O3 P3 1.549627 1_555
O4 P0 1.531479 1_555
O5 P1 1.531479 1_555
O6 P2 1.531479 1_555
O7 P3 1.531479 1_555
O8 P4 1.549943 1_555
O9 P5 1.549943 1_555
O10 P4 1.549943 1_555
O11 P5 1.549943 1_555
O12 P0 1.552220 1_555
O13 P1 1.552220 1_555
O14 P2 1.552220 1_555
O15 P3 1.552220 1_555
O16 P4 1.555041 1_465
O17 P5 1.555041 1_645
O18 P4 1.555041 1_465
O19 P5 1.555041 1_645
O20 P0 1.558416 1_555
O21 P1 1.558416 1_555
O22 P2 1.558416 1_555
O23 P3 1.558416 1_555
