# generated using pymatgen
data_GdCo2B2C
_symmetry_space_group_name_H-M   'P 1'
_cell_length_a   5.71160867
_cell_length_b   5.71160867
_cell_length_c   5.71160867
_cell_angle_alpha   143.62073507
_cell_angle_beta   143.62073507
_cell_angle_gamma   52.39480484
_symmetry_Int_Tables_number   1
_chemical_formula_structural   GdCo2B2C
_chemical_formula_sum   'Gd1 Co2 B2 C1'
_cell_volume   65.16665528
_cell_formula_units_Z   1
loop_
 _symmetry_equiv_pos_site_id
 _symmetry_equiv_pos_as_xyz
  1  'x, y, z'
loop_
 _atom_site_type_symbol
 _atom_site_label
 _atom_site_symmetry_multiplicity
 _atom_site_fract_x
 _atom_site_fract_y
 _atom_site_fract_z
 _atom_site_occupancy
  Gd  Gd0  1  0.00000000  0.00000000  0.00000000  1
  Co  Co0  1  0.25000000  0.75000000  0.50000000  1
  Co  Co1  1  0.75000000  0.25000000  0.50000000  1
  B  B0  1  0.64692600  0.64692600  0.00000000  1
  B  B1  1  0.35307400  0.35307400  0.00000000  1
  C  C0  1  0.50000000  0.50000000  0.00000000  1
loop_
_geom_bond_atom_site_label_1
_geom_bond_atom_site_label_2
_geom_bond_distance
_geom_bond_site_symmetry_2
B0 C0 1.505963 1_555
B0 Co1 2.072460 1_554
B0 Co0 2.072460 1_554
B0 Co0 2.072460 1_655
B0 Co1 2.072460 1_565
B1 C0 1.505963 1_555
B1 Co0 2.072460 1_555
B1 Co1 2.072460 1_454
B1 Co0 2.072460 1_544
B1 Co1 2.072460 1_555
C0 Gd0 2.521476 1_565
C0 Gd0 2.521476 1_655
C0 Gd0 2.521476 1_666
C0 Gd0 2.521476 1_554
