# generated using pymatgen
data_Ho4Mg(WO4)6
_symmetry_space_group_name_H-M   'P 1'
_cell_length_a   6.79743450
_cell_length_b   6.79743450
_cell_length_c   11.15611934
_cell_angle_alpha   79.32505831
_cell_angle_beta   100.67494169
_cell_angle_gamma   69.48172728
_symmetry_Int_Tables_number   1
_chemical_formula_structural   Ho4Mg(WO4)6
_chemical_formula_sum   'Ho4 Mg1 W6 O24'
_cell_volume   456.55217003
_cell_formula_units_Z   1
loop_
 _symmetry_equiv_pos_site_id
 _symmetry_equiv_pos_as_xyz
  1  'x, y, z'
loop_
 _atom_site_type_symbol
 _atom_site_label
 _atom_site_symmetry_multiplicity
 _atom_site_fract_x
 _atom_site_fract_y
 _atom_site_fract_z
 _atom_site_occupancy
  Ho  Ho0  1  0.30077900  0.93525600  0.57979000  1
  Ho  Ho1  1  0.03607100  0.71885000  0.09873100  1
  Ho  Ho2  1  0.93525600  0.30077900  0.92021000  1
  Ho  Ho3  1  0.71885000  0.03607100  0.40126900  1
  Mg  Mg0  1  0.58966400  0.58966400  0.25000000  1
  W  W0  1  0.47777900  0.81934000  0.93856200  1
  W  W1  1  0.20077900  0.50079100  0.42551800  1
  W  W2  1  0.87927000  0.87927000  0.75000000  1
  W  W3  1  0.15595800  0.15595800  0.25000000  1
  W  W4  1  0.81934000  0.47777900  0.56143800  1
  W  W5  1  0.50079100  0.20077900  0.07448200  1
  O  O0  1  0.31850700  0.80483100  0.79213400  1
  O  O1  1  0.58554900  0.98584800  0.72270600  1
  O  O2  1  0.97009500  0.94415800  0.89892200  1
  O  O3  1  0.32839800  0.59929200  0.54447600  1
  O  O4  1  0.76625500  0.63680000  0.95288200  1
  O  O5  1  0.11713200  0.31052400  0.57004900  1
  O  O6  1  0.27838800  0.63274500  0.28585400  1
  O  O7  1  0.31052400  0.11713200  0.92995100  1
  O  O8  1  0.63680000  0.76625500  0.54711800  1
  O  O9  1  0.59929200  0.32839800  0.95552400  1
  O  O10  1  0.94415800  0.97009500  0.60107800  1
  O  O11  1  0.97940300  0.45614600  0.25414700  1
  O  O12  1  0.98584800  0.58554900  0.77729400  1
  O  O13  1  0.06459300  0.02369800  0.38462300  1
  O  O14  1  0.39193500  0.68554300  0.06276900  1
  O  O15  1  0.36706800  0.19960500  0.42044400  1
  O  O16  1  0.67859100  0.89924800  0.08092800  1
  O  O17  1  0.80483100  0.31850700  0.70786600  1
  O  O18  1  0.89924800  0.67859100  0.41907200  1
  O  O19  1  0.19960500  0.36706800  0.07955600  1
  O  O20  1  0.68554300  0.39193500  0.43723100  1
  O  O21  1  0.02369800  0.06459300  0.11537700  1
  O  O22  1  0.45614600  0.97940300  0.24585300  1
  O  O23  1  0.63274500  0.27838800  0.21414600  1
loop_
_geom_bond_atom_site_label_1
_geom_bond_atom_site_label_2
_geom_bond_distance
_geom_bond_site_symmetry_2
Ho0 O13 2.285395 1_565
Ho0 O8 2.300812 1_555
Ho0 O0 2.335303 1_555
Ho0 O3 2.337922 1_555
Ho0 O5 2.385754 1_565
Ho0 O10 2.412566 1_455
Ho0 O1 2.435918 1_555
Ho0 O15 2.504588 1_565
Ho1 O6 2.238572 1_555
Ho1 O16 2.256087 1_455
Ho1 O2 2.323560 1_454
Ho1 O19 2.326713 1_555
Ho1 O21 2.365111 1_565
Ho1 O11 2.434323 1_455
Ho1 O14 2.464319 1_555
Ho1 O4 2.503998 1_454
Ho2 O21 2.285395 1_656
Ho2 O4 2.300812 1_555
Ho2 O17 2.335303 1_555
Ho2 O9 2.337922 1_555
Ho2 O7 2.385754 1_655
Ho2 O2 2.412566 1_545
Ho2 O12 2.435918 1_555
Ho2 O19 2.504588 1_656
Ho3 O23 2.238572 1_555
Ho3 O18 2.256087 1_545
Ho3 O10 2.323560 1_545
Ho3 O15 2.326713 1_555
Ho3 O13 2.365111 1_655
Ho3 O22 2.434323 1_545
Ho3 O20 2.464319 1_555
Ho3 O8 2.503998 1_545
Mg0 O20 2.106116 1_555
Mg0 O14 2.106116 1_555
Mg0 O6 2.155289 1_555
Mg0 O23 2.155289 1_555
Mg0 O11 2.469367 1_555
Mg0 O22 2.469367 1_555
O0 W0 1.824750 1_555
O1 W2 1.811867 1_555
O2 W2 1.848863 1_555
O3 W1 1.808840 1_555
O4 W0 1.874864 1_555
O5 W4 1.916632 1_455
O5 W1 2.162963 1_555
O6 W1 1.904990 1_555
O7 W0 1.916632 1_545
O7 W5 2.162963 1_556
O8 W4 1.874864 1_555
O9 W5 1.808840 1_556
O10 W2 1.848863 1_555
O11 W3 1.986195 1_655
O11 W1 2.341121 1_655
O12 W2 1.811867 1_555
O13 W3 1.919974 1_555
O14 W0 1.814500 1_554
O15 W1 1.979060 1_555
O15 W3 2.293362 1_555
O16 W5 1.960494 1_565
O16 W0 2.171865 1_554
O17 W4 1.824750 1_555
O18 W1 1.960494 1_655
O18 W4 2.171865 1_555
O19 W5 1.979060 1_555
O19 W3 2.293362 1_555
O20 W4 1.814500 1_555
O21 W3 1.919974 1_555
O22 W3 1.986195 1_565
O22 W5 2.341121 1_565
O23 W5 1.904990 1_555
