# generated using pymatgen
data_RbMg14CrO16
_symmetry_space_group_name_H-M   'P 1'
_cell_length_a   8.69454978
_cell_length_b   8.70981176
_cell_length_c   4.39815359
_cell_angle_alpha   90.00000000
_cell_angle_beta   90.00000000
_cell_angle_gamma   90.00000000
_symmetry_Int_Tables_number   1
_chemical_formula_structural   RbMg14CrO16
_chemical_formula_sum   'Rb1 Mg14 Cr1 O16'
_cell_volume   333.06289972
_cell_formula_units_Z   1
loop_
 _symmetry_equiv_pos_site_id
 _symmetry_equiv_pos_as_xyz
  1  'x, y, z'
loop_
 _atom_site_type_symbol
 _atom_site_label
 _atom_site_symmetry_multiplicity
 _atom_site_fract_x
 _atom_site_fract_y
 _atom_site_fract_z
 _atom_site_occupancy
  Rb  Rb0  1  0.00000000  0.00000000  0.00000000  1
  Mg  Mg0  1  0.50000000  0.00000000  0.00000000  1
  Mg  Mg1  1  0.50000000  0.50000000  0.00000000  1
  Mg  Mg2  1  0.00000000  0.25411931  0.50000000  1
  Mg  Mg3  1  0.00000000  0.74588069  0.50000000  1
  Mg  Mg4  1  0.50000000  0.25015250  0.50000000  1
  Mg  Mg5  1  0.50000000  0.74984750  0.50000000  1
  Mg  Mg6  1  0.25862008  0.00000000  0.50000000  1
  Mg  Mg7  1  0.25107233  0.50000000  0.50000000  1
  Mg  Mg8  1  0.74137992  0.00000000  0.50000000  1
  Mg  Mg9  1  0.74892767  0.50000000  0.50000000  1
  Mg  Mg10  1  0.25485698  0.24961384  0.00000000  1
  Mg  Mg11  1  0.25485698  0.75038616  0.00000000  1
  Mg  Mg12  1  0.74514302  0.24961384  0.00000000  1
  Mg  Mg13  1  0.74514302  0.75038616  0.00000000  1
  Cr  Cr0  1  0.00000000  0.50000000  0.00000000  1
  O  O0  1  0.28004395  0.00000000  0.00000000  1
  O  O1  1  0.24633197  0.50000000  0.00000000  1
  O  O2  1  0.71995605  0.00000000  0.00000000  1
  O  O3  1  0.75366803  0.50000000  0.00000000  1
  O  O4  1  0.24900103  0.25091744  0.50000000  1
  O  O5  1  0.24900103  0.74908256  0.50000000  1
  O  O6  1  0.75099897  0.25091744  0.50000000  1
  O  O7  1  0.75099897  0.74908256  0.50000000  1
  O  O8  1  0.00000000  0.00000000  0.50000000  1
  O  O9  1  0.00000000  0.50000000  0.50000000  1
  O  O10  1  0.50000000  0.00000000  0.50000000  1
  O  O11  1  0.50000000  0.50000000  0.50000000  1
  O  O12  1  0.00000000  0.27847320  0.00000000  1
  O  O13  1  0.00000000  0.72152680  0.00000000  1
  O  O14  1  0.50000000  0.25991552  0.00000000  1
  O  O15  1  0.50000000  0.74008448  0.00000000  1
loop_
_geom_bond_atom_site_label_1
_geom_bond_atom_site_label_2
_geom_bond_distance
_geom_bond_site_symmetry_2
Mg0 O2 1.912419 1_555
Mg0 O0 1.912419 1_555
Mg0 O10 2.199077 1_555
Mg0 O10 2.199077 1_554
Mg0 O15 2.263815 1_545
Mg0 O14 2.263815 1_555
Mg1 O14 2.091091 1_555
Mg1 O15 2.091091 1_555
Mg1 O11 2.199077 1_554
Mg1 O11 2.199077 1_555
Mg1 O1 2.205529 1_555
Mg1 O3 2.205529 1_555
Mg2 O9 2.141575 1_555
Mg2 O6 2.165131 1_455
Mg2 O4 2.165131 1_555
Mg2 O12 2.209283 1_556
Mg2 O12 2.209283 1_555
Mg2 O8 2.213331 1_555
Mg3 O9 2.141575 1_555
Mg3 O7 2.165131 1_455
Mg3 O5 2.165131 1_555
Mg3 O13 2.209283 1_555
Mg3 O13 2.209283 1_556
Mg3 O8 2.213331 1_565
Mg4 O11 2.176125 1_555
Mg4 O10 2.178781 1_555
Mg4 O4 2.182333 1_555
Mg4 O6 2.182333 1_555
Mg4 O14 2.200720 1_555
Mg4 O14 2.200720 1_556
Mg5 O11 2.176125 1_555
Mg5 O10 2.178781 1_565
Mg5 O5 2.182333 1_555
Mg5 O7 2.182333 1_555
Mg5 O15 2.200720 1_556
Mg5 O15 2.200720 1_555
Mg6 O10 2.098690 1_555
Mg6 O4 2.187043 1_555
Mg6 O5 2.187043 1_545
Mg6 O0 2.206952 1_555
Mg6 O0 2.206952 1_556
Mg6 O8 2.248585 1_555
Mg7 O11 2.164314 1_555
Mg7 O5 2.169537 1_555
Mg7 O4 2.169537 1_555
Mg7 O9 2.182961 1_555
Mg7 O1 2.199463 1_555
Mg7 O1 2.199463 1_556
Mg8 O10 2.098690 1_555
Mg8 O6 2.187043 1_555
Mg8 O7 2.187043 1_545
Mg8 O2 2.206952 1_555
Mg8 O2 2.206952 1_556
Mg8 O8 2.248585 1_655
Mg9 O11 2.164314 1_555
Mg9 O7 2.169537 1_555
Mg9 O6 2.169537 1_555
Mg9 O9 2.182961 1_655
Mg9 O3 2.199463 1_556
Mg9 O3 2.199463 1_555
Mg10 O14 2.133296 1_555
Mg10 O1 2.182076 1_555
Mg10 O0 2.185091 1_555
Mg10 O4 2.199695 1_554
Mg10 O4 2.199695 1_555
Mg10 O12 2.230078 1_555
Mg11 O15 2.133296 1_555
Mg11 O1 2.182076 1_555
Mg11 O0 2.185091 1_565
Mg11 O5 2.199695 1_555
Mg11 O5 2.199695 1_554
Mg11 O13 2.230078 1_555
Mg12 O14 2.133296 1_555
Mg12 O3 2.182076 1_555
Mg12 O2 2.185091 1_555
Mg12 O6 2.199695 1_555
Mg12 O6 2.199695 1_554
Mg12 O12 2.230078 1_655
Mg13 O15 2.133296 1_555
Mg13 O3 2.182076 1_555
Mg13 O2 2.185091 1_565
Mg13 O7 2.199695 1_555
Mg13 O7 2.199695 1_554
Mg13 O13 2.230078 1_655
Cr0 O12 1.929457 1_555
Cr0 O13 1.929457 1_555
Cr0 O3 2.141746 1_455
Cr0 O1 2.141746 1_555
Cr0 O9 2.199077 1_554
Cr0 O9 2.199077 1_555
O0 Rb0 2.434856 1_555
O2 Rb0 2.434856 1_655
O8 Rb0 2.199077 1_555
O8 Rb0 2.199077 1_556
O12 Rb0 2.425449 1_555
O13 Rb0 2.425449 1_565
