# generated using pymatgen
data_CdFeS2
_symmetry_space_group_name_H-M   'P 1'
_cell_length_a   3.97221963
_cell_length_b   3.97221963
_cell_length_c   6.62986800
_cell_angle_alpha   90.00000000
_cell_angle_beta   90.00000000
_cell_angle_gamma   119.99999381
_symmetry_Int_Tables_number   1
_chemical_formula_structural   CdFeS2
_chemical_formula_sum   'Cd1 Fe1 S2'
_cell_volume   90.59454470
_cell_formula_units_Z   1
loop_
 _symmetry_equiv_pos_site_id
 _symmetry_equiv_pos_as_xyz
  1  'x, y, z'
loop_
 _atom_site_type_symbol
 _atom_site_label
 _atom_site_symmetry_multiplicity
 _atom_site_fract_x
 _atom_site_fract_y
 _atom_site_fract_z
 _atom_site_occupancy
  Cd  Cd0  1  0.00000000  0.00000000  0.50985400  1
  Fe  Fe0  1  0.66666700  0.33333300  0.99908900  1
  S  S0  1  0.00000000  0.00000000  0.89442700  1
  S  S1  1  0.66666700  0.33333300  0.34663100  1
loop_
_geom_bond_atom_site_label_1
_geom_bond_atom_site_label_2
_geom_bond_distance
_geom_bond_site_symmetry_2
Cd0 S1 2.535851 1_455
Cd0 S1 2.535854 1_555
Cd0 S1 2.535854 1_445
Cd0 S0 2.549668 1_555
Fe0 S1 2.304158 1_556
Fe0 S0 2.396036 1_655
Fe0 S0 2.396040 1_665
Fe0 S0 2.396040 1_555
