# generated using pymatgen
data_CrRu(NF)6
_symmetry_space_group_name_H-M   'P 1'
_cell_length_a   9.62334600
_cell_length_b   9.62334600
_cell_length_c   9.62334600
_cell_angle_alpha   90.00000000
_cell_angle_beta   90.00000000
_cell_angle_gamma   90.00000000
_symmetry_Int_Tables_number   1
_chemical_formula_structural   CrRu(NF)6
_chemical_formula_sum   'Cr4 Ru4 N24 F24'
_cell_volume   891.20641183
_cell_formula_units_Z   4
loop_
 _symmetry_equiv_pos_site_id
 _symmetry_equiv_pos_as_xyz
  1  'x, y, z'
loop_
 _atom_site_type_symbol
 _atom_site_label
 _atom_site_symmetry_multiplicity
 _atom_site_fract_x
 _atom_site_fract_y
 _atom_site_fract_z
 _atom_site_occupancy
  Cr  Cr0  1  0.50000000  0.50000000  0.50000000  1
  Cr  Cr1  1  0.00000000  0.50000000  0.00000000  1
  Cr  Cr2  1  0.50000000  0.00000000  0.00000000  1
  Cr  Cr3  1  0.00000000  0.00000000  0.50000000  1
  Ru  Ru0  1  0.00000000  0.00000000  0.00000000  1
  Ru  Ru1  1  0.50000000  0.00000000  0.50000000  1
  Ru  Ru2  1  0.00000000  0.50000000  0.50000000  1
  Ru  Ru3  1  0.50000000  0.50000000  0.00000000  1
  N  N0  1  0.11517200  0.34522000  0.43761200  1
  N  N1  1  0.88482800  0.65478000  0.56238800  1
  N  N2  1  0.38482800  0.65478000  0.93761200  1
  N  N3  1  0.88482800  0.84522000  0.06238800  1
  N  N4  1  0.43761200  0.11517200  0.34522000  1
  N  N5  1  0.61517200  0.34522000  0.06238800  1
  N  N6  1  0.11517200  0.15478000  0.93761200  1
  N  N7  1  0.56238800  0.88482800  0.65478000  1
  N  N8  1  0.61517200  0.15478000  0.56238800  1
  N  N9  1  0.93761200  0.38482800  0.65478000  1
  N  N10  1  0.38482800  0.84522000  0.43761200  1
  N  N11  1  0.06238800  0.61517200  0.34522000  1
  N  N12  1  0.06238800  0.88482800  0.84522000  1
  N  N13  1  0.93761200  0.11517200  0.15478000  1
  N  N14  1  0.56238800  0.61517200  0.15478000  1
  N  N15  1  0.43761200  0.38482800  0.84522000  1
  N  N16  1  0.34522000  0.43761200  0.11517200  1
  N  N17  1  0.65478000  0.56238800  0.88482800  1
  N  N18  1  0.84522000  0.06238800  0.88482800  1
  N  N19  1  0.15478000  0.93761200  0.11517200  1
  N  N20  1  0.15478000  0.56238800  0.61517200  1
  N  N21  1  0.84522000  0.43761200  0.38482800  1
  N  N22  1  0.65478000  0.93761200  0.38482800  1
  N  N23  1  0.34522000  0.06238800  0.61517200  1
  F  F0  1  0.06267500  0.37996400  0.12866900  1
  F  F1  1  0.93732500  0.62003600  0.87133100  1
  F  F2  1  0.43732500  0.62003600  0.62866900  1
  F  F3  1  0.93732500  0.87996400  0.37133100  1
  F  F4  1  0.12866900  0.06267500  0.37996400  1
  F  F5  1  0.56267500  0.37996400  0.37133100  1
  F  F6  1  0.06267500  0.12003600  0.62866900  1
  F  F7  1  0.87133100  0.93732500  0.62003600  1
  F  F8  1  0.56267500  0.12003600  0.87133100  1
  F  F9  1  0.62866900  0.43732500  0.62003600  1
  F  F10  1  0.43732500  0.87996400  0.12866900  1
  F  F11  1  0.37133100  0.56267500  0.37996400  1
  F  F12  1  0.37133100  0.93732500  0.87996400  1
  F  F13  1  0.62866900  0.06267500  0.12003600  1
  F  F14  1  0.87133100  0.56267500  0.12003600  1
  F  F15  1  0.12866900  0.43732500  0.87996400  1
  F  F16  1  0.37996400  0.12866900  0.06267500  1
  F  F17  1  0.62003600  0.87133100  0.93732500  1
  F  F18  1  0.87996400  0.37133100  0.93732500  1
  F  F19  1  0.12003600  0.62866900  0.06267500  1
  F  F20  1  0.12003600  0.87133100  0.56267500  1
  F  F21  1  0.87996400  0.12866900  0.43732500  1
  F  F22  1  0.62003600  0.62866900  0.43732500  1
  F  F23  1  0.37996400  0.37133100  0.56267500  1
loop_
_geom_bond_atom_site_label_1
_geom_bond_atom_site_label_2
_geom_bond_distance
_geom_bond_site_symmetry_2
Cr0 F5 1.797596 1_555
Cr0 F23 1.797596 1_555
Cr0 F11 1.797596 1_555
Cr0 F22 1.797596 1_555
Cr0 F2 1.797596 1_555
Cr0 F9 1.797596 1_555
Cr1 F0 1.797596 1_555
Cr1 F15 1.797596 1_554
Cr1 F18 1.797596 1_454
Cr1 F19 1.797596 1_555
Cr1 F1 1.797596 1_454
Cr1 F14 1.797596 1_455
Cr2 F16 1.797596 1_555
Cr2 F13 1.797596 1_555
Cr2 F12 1.797596 1_544
Cr2 F10 1.797596 1_545
Cr2 F17 1.797596 1_544
Cr2 F8 1.797596 1_554
Cr3 F4 1.797596 1_555
Cr3 F21 1.797596 1_455
Cr3 F6 1.797596 1_555
Cr3 F3 1.797596 1_445
Cr3 F20 1.797596 1_545
Cr3 F7 1.797596 1_445
N0 Ru2 1.951279 1_555
N1 Ru2 1.951279 1_655
N2 Ru3 1.951279 1_556
N3 Ru0 1.951279 1_665
N4 Ru1 1.951279 1_555
N5 Ru3 1.951279 1_555
N6 Ru0 1.951279 1_556
N7 Ru1 1.951279 1_565
N8 Ru1 1.951279 1_555
N9 Ru2 1.951279 1_655
N10 Ru1 1.951279 1_565
N11 Ru2 1.951279 1_555
N12 Ru0 1.951279 1_566
N13 Ru0 1.951279 1_655
N14 Ru3 1.951279 1_555
N15 Ru3 1.951279 1_556
N16 Ru3 1.951279 1_555
N17 Ru3 1.951279 1_556
N18 Ru0 1.951279 1_656
N19 Ru0 1.951279 1_565
N20 Ru2 1.951279 1_555
N21 Ru2 1.951279 1_655
N22 Ru1 1.951279 1_565
N23 Ru1 1.951279 1_555
