# generated using pymatgen
data_U3Al2Si3
_symmetry_space_group_name_H-M   'P 1'
_cell_length_a   7.64974410
_cell_length_b   7.64974410
_cell_length_c   7.64974410
_cell_angle_alpha   120.66855597
_cell_angle_beta   120.66855597
_cell_angle_gamma   88.84587580
_symmetry_Int_Tables_number   1
_chemical_formula_structural   U3Al2Si3
_chemical_formula_sum   'U6 Al4 Si6'
_cell_volume   313.27028557
_cell_formula_units_Z   2
loop_
 _symmetry_equiv_pos_site_id
 _symmetry_equiv_pos_as_xyz
  1  'x, y, z'
loop_
 _atom_site_type_symbol
 _atom_site_label
 _atom_site_symmetry_multiplicity
 _atom_site_fract_x
 _atom_site_fract_y
 _atom_site_fract_z
 _atom_site_occupancy
  U  U0  1  0.75901200  0.75901200  0.00000000  1
  U  U1  1  0.25901200  0.25901200  0.00000000  1
  U  U2  1  0.81908400  0.62644300  0.50000000  1
  U  U3  1  0.12644300  0.31908400  0.50000000  1
  U  U4  1  0.62644300  0.12644300  0.80735900  1
  U  U5  1  0.31908400  0.81908400  0.19264100  1
  Al  Al0  1  0.52677900  0.30765300  0.50000000  1
  Al  Al1  1  0.80765300  0.02677900  0.50000000  1
  Al  Al2  1  0.30765300  0.80765300  0.78087300  1
  Al  Al3  1  0.02677900  0.52677900  0.21912700  1
  Si  Si0  1  0.01061300  0.01061300  0.00000000  1
  Si  Si1  1  0.51061300  0.51061300  0.00000000  1
  Si  Si2  1  0.43949400  0.63968200  0.50000000  1
  Si  Si3  1  0.13968200  0.93949400  0.50000000  1
  Si  Si4  1  0.63968200  0.13968200  0.20018800  1
  Si  Si5  1  0.93949400  0.43949400  0.79981200  1
loop_
_geom_bond_atom_site_label_1
_geom_bond_atom_site_label_2
_geom_bond_distance
_geom_bond_site_symmetry_2
Al0 Si4 2.574250 1_555
Al0 Si5 2.574250 1_555
Al0 Si2 2.613196 1_555
Al0 U3 3.061955 1_555
Al0 U5 3.079730 1_545
Al0 U4 3.079730 1_555
Al0 U0 3.090338 1_556
Al0 U1 3.090338 1_555
Al1 Si5 2.574250 1_555
Al1 Si4 2.574250 1_555
Al1 Si3 2.613196 1_645
Al1 U2 3.061955 1_545
Al1 U5 3.079730 1_545
Al1 U4 3.079730 1_555
Al1 U0 3.090338 1_545
Al1 U1 3.090338 1_656
Al2 Si2 2.574244 1_555
Al2 Si3 2.574244 1_555
Al2 Si4 2.613198 1_566
Al2 U5 3.061963 1_556
Al2 U3 3.079731 1_555
Al2 U2 3.079731 1_455
Al2 U1 3.090338 1_566
Al2 U0 3.090338 1_556
Al3 Si2 2.574250 1_555
Al3 Si3 2.574250 1_555
Al3 Si5 2.613204 1_454
Al3 U4 3.061955 1_454
Al3 U2 3.079723 1_455
Al3 U3 3.079723 1_555
Al3 U0 3.090342 1_455
Al3 U1 3.090342 1_555
Si0 U1 2.714201 1_555
Si0 U0 2.749189 1_445
Si0 U5 2.898705 1_545
Si0 U4 2.898705 1_454
Si0 U2 2.898705 1_444
Si0 U3 2.898705 1_555
Si1 U0 2.714201 1_555
Si1 U1 2.749189 1_555
Si1 U4 2.898705 1_554
Si1 U3 2.898705 1_554
Si1 U2 2.898705 1_555
Si1 U5 2.898705 1_555
Si2 U0 2.903113 1_556
Si2 U1 2.903113 1_555
Si2 U2 2.903493 1_555
Si2 U5 3.048209 1_555
Si2 U4 3.048209 1_565
Si3 U0 2.903113 1_455
Si3 U1 2.903113 1_566
Si3 U3 2.903493 1_565
Si3 U4 3.048209 1_565
Si3 U5 3.048209 1_555
Si4 U1 2.903113 1_555
Si4 U0 2.903113 1_545
Si4 U4 2.903493 1_554
Si4 U2 3.048209 1_555
Si4 U3 3.048209 1_655
Si5 U1 2.903113 1_656
Si5 U0 2.903113 1_556
Si5 U5 2.903493 1_656
Si5 U2 3.048209 1_555
Si5 U3 3.048209 1_655
