# generated using pymatgen
data_U2Si5Rh3
_symmetry_space_group_name_H-M   'P 1'
_cell_length_a   8.15816502
_cell_length_b   8.15816502
_cell_length_c   5.75593896
_cell_angle_alpha   69.78007055
_cell_angle_beta   69.78007055
_cell_angle_gamma   91.82216737
_symmetry_Int_Tables_number   1
_chemical_formula_structural   U2Si5Rh3
_chemical_formula_sum   'U4 Si10 Rh6'
_cell_volume   332.31385127
_cell_formula_units_Z   2
loop_
 _symmetry_equiv_pos_site_id
 _symmetry_equiv_pos_as_xyz
  1  'x, y, z'
loop_
 _atom_site_type_symbol
 _atom_site_label
 _atom_site_symmetry_multiplicity
 _atom_site_fract_x
 _atom_site_fract_y
 _atom_site_fract_z
 _atom_site_occupancy
  U  U0  1  0.86536300  0.59589800  0.26490500  1
  U  U1  1  0.40410200  0.13463700  0.23509500  1
  U  U2  1  0.13463700  0.40410200  0.73509500  1
  U  U3  1  0.59589800  0.86536300  0.76490500  1
  Si  Si0  1  0.05665300  0.26542100  0.33589800  1
  Si  Si1  1  0.73457900  0.94334700  0.16410200  1
  Si  Si2  1  0.94334700  0.73457900  0.66410200  1
  Si  Si3  1  0.26542100  0.05665300  0.83589800  1
  Si  Si4  1  0.21107500  0.78892500  0.25000000  1
  Si  Si5  1  0.78892500  0.21107500  0.75000000  1
  Si  Si6  1  0.51097700  0.48902300  0.25000000  1
  Si  Si7  1  0.48902300  0.51097700  0.75000000  1
  Si  Si8  1  0.77885500  0.22114500  0.25000000  1
  Si  Si9  1  0.22114500  0.77885500  0.75000000  1
  Rh  Rh0  1  0.25539800  0.53878800  0.12361700  1
  Rh  Rh1  1  0.46121200  0.74460200  0.37638300  1
  Rh  Rh2  1  0.74460200  0.46121200  0.87638300  1
  Rh  Rh3  1  0.53878800  0.25539800  0.62361700  1
  Rh  Rh4  1  0.99980400  0.00019600  0.25000000  1
  Rh  Rh5  1  0.00019600  0.99980400  0.75000000  1
loop_
_geom_bond_atom_site_label_1
_geom_bond_atom_site_label_2
_geom_bond_distance
_geom_bond_site_symmetry_2
Si0 Si5 2.501537 1_455
Si0 Si8 2.521328 1_455
Si0 U1 2.998850 1_555
Si0 U2 3.061485 1_554
Si0 U2 3.118682 1_555
Si0 U0 3.133382 1_455
Si1 Si5 2.501537 1_564
Si1 Si8 2.521328 1_565
Si1 U0 2.998850 1_555
Si1 U3 3.061485 1_555
Si1 U3 3.118682 1_554
Si1 U1 3.133382 1_565
Si2 Si4 2.501537 1_655
Si2 Si9 2.521328 1_655
Si2 U3 2.998850 1_555
Si2 U0 3.061485 1_556
Si2 U0 3.118682 1_555
Si2 U2 3.133382 1_655
Si3 Si4 2.501537 1_546
Si3 Si9 2.521328 1_545
Si3 U2 2.998850 1_555
Si3 U1 3.061485 1_555
Si3 U1 3.118682 1_556
Si3 U3 3.133382 1_545
Si4 U0 3.146205 1_455
Si4 U1 3.146205 1_565
Si4 U2 3.264008 1_555
Si4 U3 3.264008 1_554
Si5 U3 3.146205 1_545
Si5 U2 3.146205 1_655
Si5 U1 3.264008 1_556
Si5 U0 3.264008 1_555
Si6 U0 3.031356 1_555
Si6 U1 3.031356 1_555
Si6 U3 3.210037 1_554
Si6 U2 3.210037 1_555
Si7 U2 3.031356 1_555
Si7 U3 3.031356 1_555
Si7 U1 3.210037 1_556
Si7 U0 3.210037 1_555
Si8 U1 3.152530 1_555
Si8 U0 3.152530 1_555
Si8 U3 3.186942 1_545
Si8 U2 3.186942 1_654
Si9 U3 3.152530 1_555
Si9 U2 3.152530 1_555
Si9 U0 3.186942 1_456
Si9 U1 3.186942 1_565
Rh0 Si0 2.369072 1_555
Rh0 Si4 2.390705 1_555
Rh0 Si7 2.416681 1_554
Rh0 Si6 2.437135 1_555
Rh0 Si9 2.465230 1_554
Rh0 U2 3.070292 1_555
Rh0 U0 3.093673 1_455
Rh0 U2 3.214294 1_554
Rh0 U3 3.292409 1_554
Rh0 U1 3.476286 1_555
Rh1 Si1 2.369072 1_555
Rh1 Si4 2.390705 1_555
Rh1 Si7 2.416681 1_555
Rh1 Si6 2.437135 1_555
Rh1 Si9 2.465230 1_555
Rh1 U3 3.070292 1_554
Rh1 U1 3.093673 1_565
Rh1 U3 3.214294 1_555
Rh1 U2 3.292409 1_555
Rh1 U0 3.476286 1_555
Rh2 Si2 2.369072 1_555
Rh2 Si5 2.390705 1_555
Rh2 Si6 2.416681 1_556
Rh2 Si7 2.437135 1_555
Rh2 Si8 2.465230 1_556
Rh2 U0 3.070292 1_555
Rh2 U2 3.093673 1_655
Rh2 U0 3.214294 1_556
Rh2 U1 3.292409 1_556
Rh2 U3 3.476286 1_555
Rh3 Si3 2.369072 1_555
Rh3 Si5 2.390705 1_555
Rh3 Si6 2.416681 1_555
Rh3 Si7 2.437135 1_555
Rh3 Si8 2.465230 1_555
Rh3 U1 3.070292 1_556
Rh3 U3 3.093673 1_545
Rh3 U1 3.214294 1_555
Rh3 U0 3.292409 1_555
Rh3 U2 3.476286 1_555
Rh4 Si0 2.444495 1_655
Rh4 Si1 2.444495 1_545
Rh4 Si4 2.475966 1_645
Rh4 Si3 2.489263 1_654
Rh4 Si2 2.489263 1_545
Rh4 Si8 2.589386 1_555
Rh4 U0 3.405670 1_545
Rh4 U1 3.405670 1_655
Rh4 U2 3.408368 1_654
Rh4 U3 3.408368 1_545
Rh5 Si2 2.444495 1_455
Rh5 Si3 2.444495 1_565
Rh5 Si5 2.475966 1_465
Rh5 Si0 2.489263 1_565
Rh5 Si1 2.489263 1_456
Rh5 Si9 2.589386 1_555
Rh5 U3 3.405670 1_455
Rh5 U2 3.405670 1_565
Rh5 U0 3.408368 1_456
Rh5 U1 3.408368 1_565
