# generated using pymatgen
data_Sr2ErBiO6
_symmetry_space_group_name_H-M   'P 1'
_cell_length_a   5.92615669
_cell_length_b   6.04942000
_cell_length_c   8.45034904
_cell_angle_alpha   90.00000000
_cell_angle_beta   90.07142957
_cell_angle_gamma   90.00000000
_symmetry_Int_Tables_number   1
_chemical_formula_structural   Sr2ErBiO6
_chemical_formula_sum   'Sr4 Er2 Bi2 O12'
_cell_volume   302.94317894
_cell_formula_units_Z   2
loop_
 _symmetry_equiv_pos_site_id
 _symmetry_equiv_pos_as_xyz
  1  'x, y, z'
loop_
 _atom_site_type_symbol
 _atom_site_label
 _atom_site_symmetry_multiplicity
 _atom_site_fract_x
 _atom_site_fract_y
 _atom_site_fract_z
 _atom_site_occupancy
  Sr  Sr0  1  0.01118300  0.45637000  0.25065000  1
  Sr  Sr1  1  0.98881700  0.54363000  0.74935000  1
  Sr  Sr2  1  0.48881700  0.95637000  0.24935000  1
  Sr  Sr3  1  0.51118300  0.04363000  0.75065000  1
  Er  Er0  1  0.00000000  0.00000000  0.50000000  1
  Er  Er1  1  0.50000000  0.50000000  0.00000000  1
  Bi  Bi0  1  0.00000000  0.00000000  0.00000000  1
  Bi  Bi1  1  0.50000000  0.50000000  0.50000000  1
  O  O0  1  0.91031500  0.03074600  0.24465200  1
  O  O1  1  0.08968500  0.96925400  0.75534800  1
  O  O2  1  0.58968500  0.53074600  0.25534800  1
  O  O3  1  0.41031500  0.46925400  0.74465200  1
  O  O4  1  0.20080100  0.71283700  0.04923800  1
  O  O5  1  0.79919900  0.28716300  0.95076200  1
  O  O6  1  0.29919900  0.21283700  0.45076200  1
  O  O7  1  0.70080100  0.78716300  0.54923800  1
  O  O8  1  0.28853900  0.20288600  0.04640900  1
  O  O9  1  0.71146100  0.79711400  0.95359100  1
  O  O10  1  0.21146100  0.70288600  0.45359100  1
  O  O11  1  0.78853900  0.29711400  0.54640900  1
loop_
_geom_bond_atom_site_label_1
_geom_bond_atom_site_label_2
_geom_bond_distance
_geom_bond_site_symmetry_2
Er0 O11 2.226194 1_455
Er0 O10 2.226194 1_545
Er0 O1 2.229401 1_545
Er0 O0 2.229401 1_455
Er0 O7 2.230831 1_445
Er0 O6 2.230831 1_555
Er1 O8 2.226194 1_555
Er1 O9 2.226194 1_554
Er1 O3 2.229401 1_554
Er1 O2 2.229401 1_555
Er1 O5 2.230831 1_554
Er1 O4 2.230831 1_555
Bi0 O9 2.140642 1_444
Bi0 O8 2.140642 1_555
Bi0 O0 2.143346 1_455
Bi0 O1 2.143346 1_544
Bi0 O4 2.146088 1_545
Bi0 O5 2.146088 1_454
Bi1 O11 2.140642 1_555
Bi1 O10 2.140642 1_555
Bi1 O2 2.143346 1_555
Bi1 O3 2.143346 1_555
Bi1 O7 2.146088 1_555
Bi1 O6 2.146088 1_555
O0 Sr2 2.538421 1_545
O0 Sr0 2.643727 1_655
O1 Sr3 2.538421 1_565
O1 Sr1 2.643727 1_455
O2 Sr0 2.538421 1_655
O2 Sr2 2.643727 1_555
O3 Sr1 2.538421 1_455
O3 Sr3 2.643727 1_555
O4 Sr0 2.563469 1_555
O4 Sr2 2.817094 1_555
O4 Sr1 3.006651 1_454
O5 Sr1 2.563469 1_555
O5 Sr3 2.817094 1_555
O5 Sr0 3.006651 1_656
O6 Sr2 2.563469 1_545
O6 Sr0 2.817094 1_555
O6 Sr3 3.006651 1_555
O7 Sr3 2.563469 1_565
O7 Sr1 2.817094 1_555
O7 Sr2 3.006651 1_555
O8 Sr2 2.562904 1_545
O8 Sr0 2.835286 1_555
O8 Sr3 2.987237 1_554
O9 Sr3 2.562904 1_565
O9 Sr1 2.835286 1_555
O9 Sr2 2.987237 1_556
O10 Sr0 2.562904 1_555
O10 Sr2 2.835286 1_555
O10 Sr1 2.987237 1_455
O11 Sr1 2.562904 1_555
O11 Sr3 2.835286 1_555
O11 Sr0 2.987237 1_655
