# generated using pymatgen
data_Te6MoW3S2
_symmetry_space_group_name_H-M   'P 1'
_cell_length_a   3.45170146
_cell_length_b   3.45170146
_cell_length_c   39.42402200
_cell_angle_alpha   90.00000000
_cell_angle_beta   90.00000000
_cell_angle_gamma   119.99998974
_symmetry_Int_Tables_number   1
_chemical_formula_structural   Te6MoW3S2
_chemical_formula_sum   'Te6 Mo1 W3 S2'
_cell_volume   406.77856390
_cell_formula_units_Z   1
loop_
 _symmetry_equiv_pos_site_id
 _symmetry_equiv_pos_as_xyz
  1  'x, y, z'
loop_
 _atom_site_type_symbol
 _atom_site_label
 _atom_site_symmetry_multiplicity
 _atom_site_fract_x
 _atom_site_fract_y
 _atom_site_fract_z
 _atom_site_occupancy
  Te  Te0  1  0.00000000  0.00000000  0.32902200  1
  Te  Te1  1  0.33333300  0.66666700  0.04690600  1
  Te  Te2  1  0.33333300  0.66666700  0.42248100  1
  Te  Te3  1  0.33333300  0.66666700  0.14085900  1
  Te  Te4  1  0.33333300  0.66666700  0.51693900  1
  Te  Te5  1  0.00000000  0.00000000  0.23456400  1
  Mo  Mo0  1  0.00000000  0.00000000  0.09386200  1
  W  W0  1  0.00000000  0.00000000  0.46971900  1
  W  W1  1  0.33333300  0.66666700  0.28179700  1
  W  W2  1  0.33333300  0.66666700  0.65753400  1
  S  S0  1  0.00000000  0.00000000  0.69542100  1
  S  S1  1  0.00000000  0.00000000  0.61964400  1
loop_
_geom_bond_atom_site_label_1
_geom_bond_atom_site_label_2
_geom_bond_distance
_geom_bond_site_symmetry_2
Te0 W1 2.727215 1_545
Te0 W1 2.727218 1_445
Te0 W1 2.727218 1_555
Te2 W0 2.727565 1_565
Te2 W0 2.727568 1_555
Te2 W0 2.727568 1_665
Te4 W0 2.727081 1_565
Te4 W0 2.727083 1_665
Te4 W0 2.727083 1_555
Te5 W1 2.727431 1_545
Te5 W1 2.727433 1_555
Te5 W1 2.727433 1_445
Mo0 Te1 2.719987 1_545
Mo0 Te1 2.719989 1_445
Mo0 Te1 2.719989 1_555
Mo0 Te3 2.721087 1_545
Mo0 Te3 2.721089 1_555
Mo0 Te3 2.721089 1_445
S0 W2 2.490466 1_545
S0 W2 2.490468 1_555
S0 W2 2.490468 1_445
S1 W2 2.490537 1_545
S1 W2 2.490539 1_555
S1 W2 2.490539 1_445
