# generated using pymatgen
data_CeIr3
_symmetry_space_group_name_H-M   'P 1'
_cell_length_a   5.30078384
_cell_length_b   5.30078384
_cell_length_c   17.61110461
_cell_angle_alpha   90.00000000
_cell_angle_beta   90.00000000
_cell_angle_gamma   120.00000876
_symmetry_Int_Tables_number   1
_chemical_formula_structural   CeIr3
_chemical_formula_sum   'Ce6 Ir18'
_cell_volume   428.54593466
_cell_formula_units_Z   6
loop_
 _symmetry_equiv_pos_site_id
 _symmetry_equiv_pos_as_xyz
  1  'x, y, z'
loop_
 _atom_site_type_symbol
 _atom_site_label
 _atom_site_symmetry_multiplicity
 _atom_site_fract_x
 _atom_site_fract_y
 _atom_site_fract_z
 _atom_site_occupancy
  Ce  Ce0  1  0.33333300  0.66666700  0.95731529  1
  Ce  Ce1  1  0.66666700  0.33333300  0.04268471  1
  Ce  Ce2  1  0.66666700  0.33333300  0.45731529  1
  Ce  Ce3  1  0.33333300  0.66666700  0.54268471  1
  Ce  Ce4  1  0.33333300  0.66666700  0.75000000  1
  Ce  Ce5  1  0.66666700  0.33333300  0.25000000  1
  Ir  Ir0  1  0.16764397  0.83235603  0.37372112  1
  Ir  Ir1  1  0.16764397  0.33528895  0.37372112  1
  Ir  Ir2  1  0.66471105  0.83235603  0.37372112  1
  Ir  Ir3  1  0.83235603  0.16764397  0.62627888  1
  Ir  Ir4  1  0.83235603  0.66471105  0.62627888  1
  Ir  Ir5  1  0.33528895  0.16764397  0.62627888  1
  Ir  Ir6  1  0.83235603  0.16764397  0.87372112  1
  Ir  Ir7  1  0.83235603  0.66471105  0.87372112  1
  Ir  Ir8  1  0.33528895  0.16764397  0.87372112  1
  Ir  Ir9  1  0.16764397  0.83235603  0.12627888  1
  Ir  Ir10  1  0.16764397  0.33528895  0.12627888  1
  Ir  Ir11  1  0.66471105  0.83235603  0.12627888  1
  Ir  Ir12  1  0.33333300  0.66666700  0.25000000  1
  Ir  Ir13  1  0.66666700  0.33333300  0.75000000  1
  Ir  Ir14  1  0.00000000  -0.00000000  0.25000000  1
  Ir  Ir15  1  0.00000000  -0.00000000  0.75000000  1
  Ir  Ir16  1  0.00000000  -0.00000000  0.50000000  1
  Ir  Ir17  1  0.00000000  -0.00000000  0.00000000  1
loop_
_geom_bond_atom_site_label_1
_geom_bond_atom_site_label_2
_geom_bond_distance
_geom_bond_site_symmetry_2
Ce0 Ir8 3.031825 1_565
Ce0 Ir7 3.031825 1_455
Ce0 Ir6 3.031829 1_455
Ce0 Ir6 3.031829 1_565
Ce0 Ir7 3.031834 1_555
Ce0 Ir8 3.031834 1_555
Ce0 Ir17 3.151377 1_566
Ce0 Ir17 3.151381 1_666
Ce0 Ir17 3.151381 1_556
Ce0 Ir10 3.341937 1_556
Ce0 Ir11 3.341937 1_556
Ce0 Ir9 3.341937 1_556
Ce0 Ce1 3.409757 1_456
Ce0 Ce1 3.409757 1_566
Ce0 Ce1 3.409766 1_556
Ce0 Ce4 3.651051 1_555
Ce1 Ir11 3.031825 1_545
Ce1 Ir10 3.031825 1_655
Ce1 Ir9 3.031829 1_545
Ce1 Ir9 3.031829 1_655
Ce1 Ir10 3.031834 1_555
Ce1 Ir11 3.031834 1_555
Ce1 Ir17 3.151377 1_655
Ce1 Ir17 3.151381 1_555
Ce1 Ir17 3.151381 1_665
Ce1 Ir8 3.341937 1_554
Ce1 Ir7 3.341937 1_554
Ce1 Ir6 3.341937 1_554
Ce1 Ce5 3.651051 1_555
Ce2 Ir2 3.031825 1_545
Ce2 Ir1 3.031825 1_655
Ce2 Ir0 3.031829 1_655
Ce2 Ir0 3.031829 1_545
Ce2 Ir1 3.031834 1_555
Ce2 Ir2 3.031834 1_555
Ce2 Ir16 3.151377 1_655
Ce2 Ir16 3.151381 1_555
Ce2 Ir16 3.151381 1_665
Ce2 Ir5 3.341937 1_555
Ce2 Ir4 3.341937 1_555
Ce2 Ir3 3.341937 1_555
Ce2 Ce3 3.409757 1_545
Ce2 Ce3 3.409757 1_655
Ce2 Ce3 3.409766 1_555
Ce2 Ce5 3.651051 1_555
Ce3 Ir5 3.031825 1_565
Ce3 Ir4 3.031825 1_455
Ce3 Ir3 3.031829 1_455
Ce3 Ir3 3.031829 1_565
Ce3 Ir4 3.031834 1_555
Ce3 Ir5 3.031834 1_555
Ce3 Ir16 3.151377 1_565
Ce3 Ir16 3.151381 1_665
Ce3 Ir16 3.151381 1_555
Ce3 Ir1 3.341937 1_555
Ce3 Ir2 3.341937 1_555
Ce3 Ir0 3.341937 1_555
Ce3 Ce4 3.651051 1_555
Ce4 Ir13 3.060406 1_455
Ce4 Ir13 3.060406 1_565
Ce4 Ir15 3.060406 1_565
Ce4 Ir15 3.060410 1_665
Ce4 Ir15 3.060410 1_555
Ce4 Ir13 3.060415 1_555
Ce4 Ir8 3.431047 1_565
Ce4 Ir7 3.431047 1_455
Ce4 Ir4 3.431047 1_455
Ce4 Ir5 3.431047 1_565
Ce4 Ir6 3.431051 1_455
Ce4 Ir3 3.431051 1_455
Ce4 Ir3 3.431051 1_565
Ce4 Ir6 3.431051 1_565
Ce4 Ir7 3.431055 1_555
Ce4 Ir4 3.431055 1_555
Ce4 Ir5 3.431055 1_555
Ce4 Ir8 3.431055 1_555
Ce5 Ir12 3.060406 1_655
Ce5 Ir12 3.060406 1_545
Ce5 Ir14 3.060406 1_655
Ce5 Ir14 3.060410 1_555
Ce5 Ir14 3.060410 1_665
Ce5 Ir12 3.060415 1_555
Ce5 Ir2 3.431047 1_545
Ce5 Ir11 3.431047 1_545
Ce5 Ir10 3.431047 1_655
Ce5 Ir1 3.431047 1_655
Ce5 Ir9 3.431051 1_655
Ce5 Ir0 3.431051 1_545
Ce5 Ir9 3.431051 1_545
Ce5 Ir0 3.431051 1_655
Ce5 Ir10 3.431055 1_555
Ce5 Ir1 3.431055 1_555
Ce5 Ir2 3.431055 1_555
Ce5 Ir11 3.431055 1_555
Ir0 Ir2 2.634845 1_555
Ir0 Ir1 2.634845 1_555
Ir0 Ir12 2.657366 1_555
Ir0 Ir1 2.665939 1_565
Ir0 Ir2 2.665939 1_455
Ir0 Ir14 2.667681 1_565
Ir0 Ir16 2.704597 1_565
Ir1 Ir2 2.634845 1_555
Ir1 Ir12 2.657365 1_555
Ir1 Ir2 2.665938 1_445
Ir1 Ir14 2.667684 1_555
Ir1 Ir16 2.704600 1_555
Ir3 Ir5 2.634845 1_555
Ir3 Ir4 2.634845 1_555
Ir3 Ir5 2.665939 1_655
Ir3 Ir4 2.665939 1_545
Ir4 Ir5 2.634845 1_555
Ir4 Ir5 2.665938 1_665
Ir6 Ir8 2.634845 1_555
Ir6 Ir7 2.634845 1_555
Ir6 Ir8 2.665939 1_655
Ir6 Ir7 2.665939 1_545
Ir7 Ir8 2.634845 1_555
Ir7 Ir8 2.665938 1_665
Ir10 Ir11 2.634845 1_555
Ir10 Ir9 2.634845 1_555
Ir10 Ir12 2.657365 1_555
Ir10 Ir11 2.665938 1_445
Ir10 Ir9 2.665939 1_545
Ir10 Ir14 2.667684 1_555
Ir10 Ir17 2.704600 1_555
Ir11 Ir9 2.634845 1_555
Ir11 Ir12 2.657365 1_555
Ir11 Ir9 2.665939 1_655
Ir11 Ir14 2.667684 1_665
Ir11 Ir17 2.704600 1_665
Ir12 Ir2 2.657365 1_555
Ir12 Ir9 2.657366 1_555
Ir12 Ir14 3.060406 1_565
Ir12 Ir14 3.060410 1_665
Ir12 Ir14 3.060410 1_555
Ir13 Ir8 2.657365 1_555
Ir13 Ir5 2.657365 1_555
Ir13 Ir4 2.657365 1_555
Ir13 Ir7 2.657365 1_555
Ir13 Ir6 2.657366 1_555
Ir13 Ir3 2.657366 1_555
Ir13 Ir15 3.060406 1_655
Ir13 Ir15 3.060410 1_555
Ir13 Ir15 3.060410 1_665
Ir14 Ir9 2.667681 1_545
Ir14 Ir2 2.667684 1_445
Ir15 Ir6 2.667681 1_455
Ir15 Ir3 2.667681 1_455
Ir15 Ir7 2.667684 1_445
Ir15 Ir4 2.667684 1_445
Ir15 Ir5 2.667684 1_555
Ir15 Ir8 2.667684 1_555
Ir16 Ir3 2.704597 1_455
Ir16 Ir4 2.704600 1_445
Ir16 Ir2 2.704600 1_445
Ir16 Ir5 2.704600 1_555
Ir17 Ir6 2.704597 1_454
Ir17 Ir9 2.704597 1_545
Ir17 Ir7 2.704600 1_444
Ir17 Ir8 2.704600 1_554
