# generated using pymatgen
data_Si2Os
_symmetry_space_group_name_H-M   'P 1'
_cell_length_a   6.50688470
_cell_length_b   6.50688585
_cell_length_c   8.22288206
_cell_angle_alpha   90.00000000
_cell_angle_beta   90.00000000
_cell_angle_gamma   102.91463823
_symmetry_Int_Tables_number   1
_chemical_formula_structural   Si2Os
_chemical_formula_sum   'Si16 Os8'
_cell_volume   339.34633638
_cell_formula_units_Z   8
loop_
 _symmetry_equiv_pos_site_id
 _symmetry_equiv_pos_as_xyz
  1  'x, y, z'
loop_
 _atom_site_type_symbol
 _atom_site_label
 _atom_site_symmetry_multiplicity
 _atom_site_fract_x
 _atom_site_fract_y
 _atom_site_fract_z
 _atom_site_occupancy
  Si  Si0  1  0.92477616  0.17875100  0.72481031  1
  Si  Si1  1  0.57522384  0.32124900  0.22481031  1
  Si  Si2  1  0.67875100  0.42477616  0.77518969  1
  Si  Si3  1  0.82124900  0.07522384  0.27518969  1
  Si  Si4  1  0.07522384  0.82124900  0.27518969  1
  Si  Si5  1  0.42477616  0.67875100  0.77518969  1
  Si  Si6  1  0.32124900  0.57522384  0.22481031  1
  Si  Si7  1  0.17875100  0.92477616  0.72481031  1
  Si  Si8  1  0.59481757  0.85059294  0.05769116  1
  Si  Si9  1  0.90518243  0.64940706  0.55769116  1
  Si  Si10  1  0.35059294  0.09481757  0.44230884  1
  Si  Si11  1  0.14940706  0.40518243  0.94230884  1
  Si  Si12  1  0.40518243  0.14940706  0.94230884  1
  Si  Si13  1  0.09481757  0.35059294  0.44230884  1
  Si  Si14  1  0.64940706  0.90518243  0.55769116  1
  Si  Si15  1  0.85059294  0.59481757  0.05769116  1
  Os  Os0  1  0.81077405  0.81077405  0.81705566  1
  Os  Os1  1  0.68922595  0.68922595  0.31705566  1
  Os  Os2  1  0.31077405  0.31077405  0.68294434  1
  Os  Os3  1  0.18922595  0.18922595  0.18294434  1
  Os  Os4  1  0.71589063  0.28410937  0.50000000  1
  Os  Os5  1  0.78410937  0.21589063  0.00000000  1
  Os  Os6  1  0.28410937  0.71589063  0.50000000  1
  Os  Os7  1  0.21589063  0.78410937  0.00000000  1
loop_
_geom_bond_atom_site_label_1
_geom_bond_atom_site_label_2
_geom_bond_distance
_geom_bond_site_symmetry_2
Si0 Si2 2.538237 1_555
Si0 Si11 2.557966 1_655
Si0 Si7 2.585120 1_645
Si0 Si14 2.615707 1_545
Si0 Si13 2.705122 1_655
Si1 Si3 2.538237 1_555
Si1 Si10 2.557966 1_555
Si1 Si6 2.585120 1_555
Si1 Si15 2.615707 1_555
Si1 Si12 2.705122 1_554
Si2 Si9 2.557966 1_555
Si2 Si5 2.585120 1_555
Si3 Si8 2.557966 1_545
Si3 Si4 2.585120 1_645
Si4 Si6 2.538237 1_555
Si4 Si9 2.705122 1_455
Si5 Si7 2.538237 1_555
Si5 Si8 2.705122 1_556
Si6 Si8 2.615707 1_555
Si7 Si9 2.615707 1_455
Si10 Si13 2.603447 1_555
Si10 Si4 2.615707 1_545
Si10 Si14 2.697350 1_545
Si10 Si7 2.705122 1_545
Si11 Si12 2.603447 1_555
Si11 Si5 2.615707 1_555
Si11 Si15 2.697350 1_456
Si11 Si6 2.705122 1_556
Si12 Si7 2.557966 1_545
Si12 Si2 2.615707 1_555
Si12 Si8 2.697351 1_546
Si13 Si6 2.557966 1_555
Si13 Si3 2.615707 1_455
Si13 Si9 2.697351 1_455
Si14 Si5 2.557966 1_555
Si14 Si9 2.603447 1_555
Si14 Si3 2.705122 1_565
Si15 Si4 2.557966 1_655
Si15 Si8 2.603447 1_555
Si15 Si2 2.705122 1_554
Os0 Si7 2.462673 1_655
Os0 Si0 2.462673 1_565
Os0 Si8 2.473822 1_556
Os0 Si15 2.473822 1_556
Os0 Si5 2.490057 1_555
Os0 Si2 2.490058 1_555
Os0 Si14 2.513304 1_555
Os0 Si9 2.513304 1_555
Os1 Si6 2.462673 1_555
Os1 Si1 2.462673 1_555
Os1 Si9 2.473822 1_555
Os1 Si14 2.473822 1_555
Os1 Si4 2.490057 1_655
Os1 Si3 2.490058 1_565
Os1 Si15 2.513304 1_555
Os1 Si8 2.513304 1_555
Os2 Si2 2.462673 1_555
Os2 Si5 2.462673 1_555
Os2 Si13 2.473822 1_555
Os2 Si10 2.473822 1_555
Os2 Si0 2.490057 1_455
Os2 Si7 2.490058 1_545
Os2 Si11 2.513304 1_555
Os2 Si12 2.513304 1_555
Os3 Si3 2.462673 1_455
Os3 Si4 2.462673 1_545
Os3 Si12 2.473822 1_554
Os3 Si11 2.473822 1_554
Os3 Si1 2.490057 1_555
Os3 Si6 2.490058 1_555
Os3 Si10 2.513304 1_555
Os3 Si13 2.513304 1_555
Os4 Si13 2.452499 1_655
Os4 Si14 2.452500 1_545
Os4 Si10 2.466444 1_555
Os4 Si9 2.466445 1_555
Os4 Si1 2.472965 1_555
Os4 Si2 2.472965 1_555
Os4 Si0 2.480159 1_555
Os4 Si3 2.480159 1_555
Os5 Si12 2.452499 1_554
Os5 Si15 2.452500 1_555
Os5 Si11 2.466444 1_654
Os5 Si8 2.466445 1_545
Os5 Si0 2.472965 1_554
Os5 Si3 2.472965 1_555
Os5 Si1 2.480159 1_555
Os5 Si2 2.480159 1_554
Os6 Si9 2.452499 1_455
Os6 Si10 2.452500 1_565
Os6 Si14 2.466444 1_555
Os6 Si13 2.466445 1_555
Os6 Si5 2.472965 1_555
Os6 Si6 2.472965 1_555
Os6 Si4 2.480159 1_555
Os6 Si7 2.480159 1_555
Os7 Si8 2.452499 1_555
Os7 Si11 2.452500 1_554
Os7 Si15 2.466444 1_455
Os7 Si12 2.466445 1_564
Os7 Si4 2.472965 1_555
Os7 Si7 2.472965 1_554
Os7 Si5 2.480159 1_554
Os7 Si6 2.480159 1_555
