# generated using pymatgen
data_NbS3
_symmetry_space_group_name_H-M   'P 1'
_cell_length_a   3.37843681
_cell_length_b   9.79839541
_cell_length_c   15.08096165
_cell_angle_alpha   108.45117263
_cell_angle_beta   90.00000000
_cell_angle_gamma   90.00000000
_symmetry_Int_Tables_number   1
_chemical_formula_structural   NbS3
_chemical_formula_sum   'Nb6 S18'
_cell_volume   473.56548423
_cell_formula_units_Z   6
loop_
 _symmetry_equiv_pos_site_id
 _symmetry_equiv_pos_as_xyz
  1  'x, y, z'
loop_
 _atom_site_type_symbol
 _atom_site_label
 _atom_site_symmetry_multiplicity
 _atom_site_fract_x
 _atom_site_fract_y
 _atom_site_fract_z
 _atom_site_occupancy
  Nb  Nb0  1  0.25000000  0.52393191  0.88308631  1
  Nb  Nb1  1  0.75000000  0.47606809  0.11691369  1
  Nb  Nb2  1  0.75000000  0.10997325  0.79426175  1
  Nb  Nb3  1  0.25000000  0.89002675  0.20573825  1
  Nb  Nb4  1  0.25000000  0.84206536  0.54048195  1
  Nb  Nb5  1  0.75000000  0.15793464  0.45951805  1
  S  S0  1  0.75000000  0.72467707  0.90106438  1
  S  S1  1  0.25000000  0.27532293  0.09893562  1
  S  S2  1  0.75000000  0.56927064  0.77046712  1
  S  S3  1  0.25000000  0.43072936  0.22953288  1
  S  S4  1  0.75000000  0.66654712  0.56732021  1
  S  S5  1  0.25000000  0.33345288  0.43267979  1
  S  S6  1  0.75000000  0.67565436  0.43319816  1
  S  S7  1  0.25000000  0.32434564  0.56680184  1
  S  S8  1  0.75000000  0.37457460  0.93506602  1
  S  S9  1  0.25000000  0.62542540  0.06493398  1
  S  S10  1  0.25000000  0.08845383  0.90931541  1
  S  S11  1  0.75000000  0.91154617  0.09068459  1
  S  S12  1  0.25000000  0.91115265  0.72102392  1
  S  S13  1  0.75000000  0.08884735  0.27897608  1
  S  S14  1  0.25000000  0.27473921  0.75321120  1
  S  S15  1  0.75000000  0.72526079  0.24678880  1
  S  S16  1  0.75000000  0.04071141  0.59359292  1
  S  S17  1  0.25000000  0.95928859  0.40640808  1
loop_
_geom_bond_atom_site_label_1
_geom_bond_atom_site_label_2
_geom_bond_distance
_geom_bond_site_symmetry_2
Nb0 S8 2.517114 1_455
Nb0 S8 2.517114 1_555
Nb0 S2 2.532389 1_555
Nb0 S2 2.532389 1_455
Nb0 S0 2.541339 1_455
Nb0 S0 2.541339 1_555
Nb0 S14 2.602095 1_555
Nb0 S9 2.604533 1_556
Nb1 S9 2.517114 1_655
Nb1 S9 2.517114 1_555
Nb1 S3 2.532389 1_655
Nb1 S3 2.532389 1_555
Nb1 S1 2.541339 1_555
Nb1 S1 2.541339 1_655
Nb1 S15 2.602095 1_555
Nb1 S8 2.604533 1_554
Nb2 S10 2.477932 1_555
Nb2 S10 2.477932 1_655
Nb2 S14 2.544760 1_655
Nb2 S14 2.544760 1_555
Nb2 S12 2.550793 1_545
Nb2 S12 2.550793 1_645
Nb2 S8 2.783186 1_555
Nb2 S16 2.884250 1_555
Nb3 S11 2.477932 1_555
Nb3 S11 2.477932 1_455
Nb3 S15 2.544760 1_455
Nb3 S15 2.544760 1_555
Nb3 S13 2.550793 1_565
Nb3 S13 2.550793 1_465
Nb3 S9 2.783186 1_555
Nb3 S17 2.884264 1_555
Nb4 S16 2.509320 1_465
Nb4 S16 2.509320 1_565
Nb4 S4 2.532903 1_455
Nb4 S4 2.532903 1_555
Nb4 S6 2.541652 1_555
Nb4 S6 2.541652 1_455
Nb4 S12 2.589383 1_555
Nb4 S17 2.622536 1_555
Nb5 S17 2.509318 1_545
Nb5 S17 2.509318 1_645
Nb5 S5 2.532903 1_555
Nb5 S5 2.532903 1_655
Nb5 S7 2.541652 1_655
Nb5 S7 2.541652 1_555
Nb5 S13 2.589383 1_555
Nb5 S16 2.622549 1_555
S0 S2 2.073496 1_555
S1 S3 2.073496 1_555
S4 S6 2.052679 1_555
S5 S7 2.052679 1_555
