# generated using pymatgen
data_IrPt(NCl)5
_symmetry_space_group_name_H-M   'P 1'
_cell_length_a   8.26776700
_cell_length_b   7.83892700
_cell_length_c   18.62169000
_cell_angle_alpha   90.00000000
_cell_angle_beta   90.00000000
_cell_angle_gamma   90.00000000
_symmetry_Int_Tables_number   1
_chemical_formula_structural   IrPt(NCl)5
_chemical_formula_sum   'Ir4 Pt4 N20 Cl20'
_cell_volume   1206.87958662
_cell_formula_units_Z   4
loop_
 _symmetry_equiv_pos_site_id
 _symmetry_equiv_pos_as_xyz
  1  'x, y, z'
loop_
 _atom_site_type_symbol
 _atom_site_label
 _atom_site_symmetry_multiplicity
 _atom_site_fract_x
 _atom_site_fract_y
 _atom_site_fract_z
 _atom_site_occupancy
  Ir  Ir0  1  0.25000000  0.35150900  0.61063200  1
  Ir  Ir1  1  0.25000000  0.14849100  0.11063200  1
  Ir  Ir2  1  0.75000000  0.64849100  0.38936800  1
  Ir  Ir3  1  0.75000000  0.85150900  0.88936800  1
  Pt  Pt0  1  0.25000000  0.92934600  0.69984300  1
  Pt  Pt1  1  0.25000000  0.57065400  0.19984300  1
  Pt  Pt2  1  0.75000000  0.07065400  0.30015700  1
  Pt  Pt3  1  0.75000000  0.42934600  0.80015700  1
  N  N0  1  0.25000000  0.13476300  0.65656200  1
  N  N1  1  0.25000000  0.36523700  0.15656200  1
  N  N2  1  0.75000000  0.86523700  0.34343800  1
  N  N3  1  0.75000000  0.63476300  0.84343800  1
  N  N4  1  0.07572200  0.44618500  0.64630700  1
  N  N5  1  0.42427800  0.05381500  0.14630700  1
  N  N6  1  0.57572200  0.55381500  0.35369300  1
  N  N7  1  0.92427800  0.94618500  0.85369300  1
  N  N8  1  0.92427800  0.55381500  0.35369300  1
  N  N9  1  0.57572200  0.94618500  0.85369300  1
  N  N10  1  0.42427800  0.44618500  0.64630700  1
  N  N11  1  0.07572200  0.05381500  0.14630700  1
  N  N12  1  0.09374400  0.17312800  0.53304300  1
  N  N13  1  0.40625600  0.32687200  0.03304300  1
  N  N14  1  0.59374400  0.82687200  0.46695700  1
  N  N15  1  0.90625600  0.67312800  0.96695700  1
  N  N16  1  0.90625600  0.82687200  0.46695700  1
  N  N17  1  0.59374400  0.67312800  0.96695700  1
  N  N18  1  0.40625600  0.17312800  0.53304300  1
  N  N19  1  0.09374400  0.32687200  0.03304300  1
  Cl  Cl0  1  0.97589700  0.88416500  0.69182700  1
  Cl  Cl1  1  0.52410300  0.61583500  0.19182700  1
  Cl  Cl2  1  0.47589700  0.11583500  0.30817300  1
  Cl  Cl3  1  0.02410300  0.38416500  0.80817300  1
  Cl  Cl4  1  0.02410300  0.11583500  0.30817300  1
  Cl  Cl5  1  0.47589700  0.38416500  0.80817300  1
  Cl  Cl6  1  0.52410300  0.88416500  0.69182700  1
  Cl  Cl7  1  0.97589700  0.61583500  0.19182700  1
  Cl  Cl8  1  0.25000000  0.10101600  0.50028500  1
  Cl  Cl9  1  0.25000000  0.39898400  0.00028500  1
  Cl  Cl10  1  0.75000000  0.89898400  0.49971500  1
  Cl  Cl11  1  0.75000000  0.60101600  0.99971500  1
  Cl  Cl12  1  0.25000000  0.72490700  0.78521100  1
  Cl  Cl13  1  0.25000000  0.77509300  0.28521100  1
  Cl  Cl14  1  0.75000000  0.27509300  0.21478900  1
  Cl  Cl15  1  0.75000000  0.22490700  0.71478900  1
  Cl  Cl16  1  0.25000000  0.53246800  0.50956600  1
  Cl  Cl17  1  0.25000000  0.96753200  0.00956600  1
  Cl  Cl18  1  0.75000000  0.46753200  0.49043400  1
  Cl  Cl19  1  0.75000000  0.03246800  0.99043400  1
loop_
_geom_bond_atom_site_label_1
_geom_bond_atom_site_label_2
_geom_bond_distance
_geom_bond_site_symmetry_2
Ir0 N4 1.751655 1_555
Ir0 N10 1.751655 1_555
Ir0 N0 1.902188 1_555
Ir0 N12 2.389941 1_555
Ir0 N18 2.389941 1_555
Ir1 N11 1.751655 1_555
Ir1 N5 1.751655 1_555
Ir1 N1 1.902188 1_555
Ir1 N19 2.389941 1_555
Ir1 N13 2.389941 1_555
Ir2 N6 1.751655 1_555
Ir2 N8 1.751655 1_555
Ir2 N2 1.902188 1_555
Ir2 N14 2.389941 1_555
Ir2 N16 2.389941 1_555
Ir3 N9 1.751655 1_555
Ir3 N7 1.751655 1_555
Ir3 N3 1.902188 1_555
Ir3 N15 2.389941 1_555
Ir3 N17 2.389941 1_555
N0 Pt0 1.800689 1_545
N1 Pt1 1.800689 1_555
N2 Pt2 1.800689 1_565
N3 Pt3 1.800689 1_555
Cl0 Pt0 2.298580 1_655
Cl1 Pt1 2.298580 1_555
Cl2 Pt2 2.298580 1_555
Cl3 Pt3 2.298580 1_455
Cl4 Pt2 2.298580 1_455
Cl5 Pt3 2.298580 1_555
Cl6 Pt0 2.298580 1_555
Cl7 Pt1 2.298580 1_655
Cl8 N12 1.536434 1_555
Cl8 N18 1.536434 1_555
Cl9 N19 1.536434 1_555
Cl9 N13 1.536434 1_555
Cl10 N14 1.536434 1_555
Cl10 N16 1.536434 1_555
Cl11 N17 1.536434 1_555
Cl11 N15 1.536434 1_555
Cl12 Pt0 2.257300 1_555
Cl13 Pt1 2.257300 1_555
Cl14 Pt2 2.257300 1_555
Cl15 Pt3 2.257300 1_555
Cl16 Ir0 2.356737 1_555
Cl17 Ir1 2.356737 1_565
Cl18 Ir2 2.356737 1_555
Cl19 Ir3 2.356737 1_545
