# generated using pymatgen
data_CeMg5
_symmetry_space_group_name_H-M   'P 1'
_cell_length_a   13.26219538
_cell_length_b   13.26219538
_cell_length_c   15.44131888
_cell_angle_alpha   75.88056663
_cell_angle_beta   75.88056663
_cell_angle_gamma   27.34683978
_symmetry_Int_Tables_number   1
_chemical_formula_structural   CeMg5
_chemical_formula_sum   'Ce8 Mg40'
_cell_volume   1207.66385231
_cell_formula_units_Z   8
loop_
 _symmetry_equiv_pos_site_id
 _symmetry_equiv_pos_as_xyz
  1  'x, y, z'
loop_
 _atom_site_type_symbol
 _atom_site_label
 _atom_site_symmetry_multiplicity
 _atom_site_fract_x
 _atom_site_fract_y
 _atom_site_fract_z
 _atom_site_occupancy
  Ce  Ce0_0  1  0.30624600  0.30624600  0.13706350  1
  Ce  Ce0_1  1  0.30624600  0.30624600  0.63706350  1
  Ce  Ce0_2  1  0.30624600  0.80624600  0.13706350  1
  Ce  Ce0_3  1  0.30624600  0.80624600  0.63706350  1
  Ce  Ce0_4  1  0.80624600  0.30624600  0.13706350  1
  Ce  Ce0_5  1  0.80624600  0.30624600  0.63706350  1
  Ce  Ce0_6  1  0.80624600  0.80624600  0.13706350  1
  Ce  Ce0_7  1  0.80624600  0.80624600  0.63706350  1
  Mg  Mg0_0  1  0.49719200  0.49719200  0.49730450  1
  Mg  Mg0_1  1  0.49719200  0.49719200  0.99730450  1
  Mg  Mg0_2  1  0.49719200  0.99719200  0.49730450  1
  Mg  Mg0_3  1  0.49719200  0.99719200  0.99730450  1
  Mg  Mg0_4  1  0.99719200  0.49719200  0.49730450  1
  Mg  Mg0_5  1  0.99719200  0.49719200  0.99730450  1
  Mg  Mg0_6  1  0.99719200  0.99719200  0.49730450  1
  Mg  Mg0_7  1  0.99719200  0.99719200  0.99730450  1
  Mg  Mg1_0  1  0.16875850  0.16875850  0.16821300  1
  Mg  Mg1_1  1  0.16875850  0.16875850  0.66821300  1
  Mg  Mg1_2  1  0.16875850  0.66875850  0.16821300  1
  Mg  Mg1_3  1  0.16875850  0.66875850  0.66821300  1
  Mg  Mg1_4  1  0.66875850  0.16875850  0.16821300  1
  Mg  Mg1_5  1  0.66875850  0.16875850  0.66821300  1
  Mg  Mg1_6  1  0.66875850  0.66875850  0.16821300  1
  Mg  Mg1_7  1  0.66875850  0.66875850  0.66821300  1
  Mg  Mg2_0  1  0.46978350  0.46978350  0.31017400  1
  Mg  Mg2_1  1  0.46978350  0.46978350  0.81017400  1
  Mg  Mg2_2  1  0.46978350  0.96978350  0.31017400  1
  Mg  Mg2_3  1  0.46978350  0.96978350  0.81017400  1
  Mg  Mg2_4  1  0.96978350  0.46978350  0.31017400  1
  Mg  Mg2_5  1  0.96978350  0.46978350  0.81017400  1
  Mg  Mg2_6  1  0.96978350  0.96978350  0.31017400  1
  Mg  Mg2_7  1  0.96978350  0.96978350  0.81017400  1
  Mg  Mg3_0  1  0.33317600  0.33317600  0.33596600  1
  Mg  Mg3_1  1  0.33317600  0.33317600  0.83596600  1
  Mg  Mg3_2  1  0.33317600  0.83317600  0.33596600  1
  Mg  Mg3_3  1  0.33317600  0.83317600  0.83596600  1
  Mg  Mg3_4  1  0.83317600  0.33317600  0.33596600  1
  Mg  Mg3_5  1  0.83317600  0.33317600  0.83596600  1
  Mg  Mg3_6  1  0.83317600  0.83317600  0.33596600  1
  Mg  Mg3_7  1  0.83317600  0.83317600  0.83596600  1
  Mg  Mg4_0  1  0.14151100  0.14151100  0.46794550  1
  Mg  Mg4_1  1  0.14151100  0.14151100  0.96794550  1
  Mg  Mg4_2  1  0.14151100  0.64151100  0.46794550  1
  Mg  Mg4_3  1  0.14151100  0.64151100  0.96794550  1
  Mg  Mg4_4  1  0.64151100  0.14151100  0.46794550  1
  Mg  Mg4_5  1  0.64151100  0.14151100  0.96794550  1
  Mg  Mg4_6  1  0.64151100  0.64151100  0.46794550  1
  Mg  Mg4_7  1  0.64151100  0.64151100  0.96794550  1
loop_
_geom_bond_atom_site_label_1
_geom_bond_atom_site_label_2
_geom_bond_distance
_geom_bond_site_symmetry_2
Ce0_0 Ce0_6 3.135016 1_455
Ce0_0 Ce0_6 3.135016 1_545
Ce0_0 Mg3_0 3.314371 1_555
Ce0_0 Mg0_5 3.328657 1_454
Ce0_0 Mg0_3 3.328657 1_544
Ce0_0 Mg4_3 3.350239 1_554
Ce0_0 Mg4_5 3.350239 1_554
Ce0_0 Mg2_4 3.402504 1_455
Ce0_0 Mg2_2 3.402504 1_545
Ce0_0 Mg1_2 3.434718 1_555
Ce0_0 Mg1_4 3.434718 1_555
Ce0_0 Mg1_0 3.454183 1_555
Ce0_1 Ce0_7 3.135016 1_455
Ce0_1 Ce0_7 3.135016 1_545
Ce0_1 Mg3_1 3.314371 1_555
Ce0_1 Mg0_2 3.328657 1_545
Ce0_1 Mg0_4 3.328657 1_455
Ce0_1 Mg4_2 3.350239 1_555
Ce0_1 Mg4_4 3.350239 1_555
Ce0_1 Mg2_5 3.402504 1_455
Ce0_1 Mg2_3 3.402504 1_545
Ce0_1 Mg1_3 3.434718 1_555
Ce0_1 Mg1_5 3.434718 1_555
Ce0_1 Mg1_1 3.454183 1_555
Ce0_2 Ce0_4 3.135016 1_555
Ce0_2 Ce0_4 3.135016 1_465
Ce0_2 Mg3_2 3.314371 1_555
Ce0_2 Mg0_1 3.328657 1_554
Ce0_2 Mg0_7 3.328657 1_454
Ce0_2 Mg4_7 3.350239 1_554
Ce0_2 Mg4_1 3.350239 1_564
Ce0_2 Mg2_6 3.402504 1_455
Ce0_2 Mg2_0 3.402504 1_555
Ce0_2 Mg1_6 3.434718 1_555
Ce0_2 Mg1_0 3.434718 1_565
Ce0_2 Mg1_2 3.454183 1_555
Ce0_3 Ce0_5 3.135016 1_555
Ce0_3 Ce0_5 3.135016 1_465
Ce0_3 Mg3_3 3.314371 1_555
Ce0_3 Mg0_0 3.328657 1_555
Ce0_3 Mg0_6 3.328657 1_455
Ce0_3 Mg4_0 3.350239 1_565
Ce0_3 Mg4_6 3.350239 1_555
Ce0_3 Mg2_1 3.402504 1_555
Ce0_3 Mg2_7 3.402504 1_455
Ce0_3 Mg1_1 3.434718 1_565
Ce0_3 Mg1_7 3.434718 1_555
Ce0_3 Mg1_3 3.454183 1_555
Ce0_4 Mg3_4 3.314371 1_555
Ce0_4 Mg0_1 3.328657 1_554
Ce0_4 Mg0_7 3.328657 1_544
Ce0_4 Mg4_7 3.350239 1_554
Ce0_4 Mg4_1 3.350239 1_654
Ce0_4 Mg2_6 3.402504 1_545
Ce0_4 Mg2_0 3.402504 1_555
Ce0_4 Mg1_6 3.434718 1_555
Ce0_4 Mg1_0 3.434718 1_655
Ce0_4 Mg1_4 3.454183 1_555
Ce0_5 Mg3_5 3.314371 1_555
Ce0_5 Mg0_0 3.328657 1_555
Ce0_5 Mg0_6 3.328657 1_545
Ce0_5 Mg4_0 3.350239 1_655
Ce0_5 Mg4_6 3.350239 1_555
Ce0_5 Mg2_1 3.402504 1_555
Ce0_5 Mg2_7 3.402504 1_545
Ce0_5 Mg1_1 3.434718 1_655
Ce0_5 Mg1_7 3.434718 1_555
Ce0_5 Mg1_5 3.454183 1_555
Ce0_6 Mg3_6 3.314371 1_555
Ce0_6 Mg0_5 3.328657 1_554
Ce0_6 Mg0_3 3.328657 1_554
Ce0_6 Mg4_3 3.350239 1_654
Ce0_6 Mg4_5 3.350239 1_564
Ce0_6 Mg2_2 3.402504 1_555
Ce0_6 Mg2_4 3.402504 1_555
Ce0_6 Mg1_2 3.434718 1_655
Ce0_6 Mg1_4 3.434718 1_565
Ce0_6 Mg1_6 3.454183 1_555
Ce0_7 Mg3_7 3.314371 1_555
Ce0_7 Mg0_2 3.328657 1_555
Ce0_7 Mg0_4 3.328657 1_555
Ce0_7 Mg4_2 3.350239 1_655
Ce0_7 Mg4_4 3.350239 1_565
Ce0_7 Mg2_5 3.402504 1_555
Ce0_7 Mg2_3 3.402504 1_555
Ce0_7 Mg1_3 3.434718 1_655
Ce0_7 Mg1_5 3.434718 1_565
Ce0_7 Mg1_7 3.454183 1_555
Mg0_0 Mg0_6 3.135016 1_455
Mg0_0 Mg0_6 3.135016 1_545
Mg0_0 Mg2_0 3.142186 1_555
Mg0_0 Mg4_4 3.271243 1_555
Mg0_0 Mg4_2 3.271243 1_555
Mg0_0 Mg3_4 3.286684 1_555
Mg0_0 Mg3_2 3.286684 1_555
Mg0_0 Mg1_5 3.290783 1_555
Mg0_0 Mg1_3 3.290783 1_555
Mg0_1 Mg0_7 3.135016 1_545
Mg0_1 Mg0_7 3.135016 1_455
Mg0_1 Mg2_1 3.142186 1_555
Mg0_1 Mg4_3 3.271243 1_555
Mg0_1 Mg4_5 3.271243 1_555
Mg0_1 Mg3_3 3.286684 1_555
Mg0_1 Mg3_5 3.286684 1_555
Mg0_1 Mg1_4 3.290783 1_556
Mg0_1 Mg1_2 3.290783 1_556
Mg0_2 Mg0_4 3.135016 1_465
Mg0_2 Mg0_4 3.135016 1_555
Mg0_2 Mg2_2 3.142186 1_555
Mg0_2 Mg4_6 3.271243 1_555
Mg0_2 Mg4_0 3.271243 1_565
Mg0_2 Mg3_0 3.286684 1_565
Mg0_2 Mg3_6 3.286684 1_555
Mg0_2 Mg1_7 3.290783 1_555
Mg0_2 Mg1_1 3.290783 1_565
Mg0_3 Mg0_5 3.135016 1_555
Mg0_3 Mg0_5 3.135016 1_465
Mg0_3 Mg2_3 3.142186 1_555
Mg0_3 Mg4_1 3.271243 1_565
Mg0_3 Mg4_7 3.271243 1_555
Mg0_3 Mg3_1 3.286684 1_565
Mg0_3 Mg3_7 3.286684 1_555
Mg0_3 Mg1_6 3.290783 1_556
Mg0_3 Mg1_0 3.290783 1_566
Mg0_4 Mg2_4 3.142186 1_555
Mg0_4 Mg4_6 3.271243 1_555
Mg0_4 Mg4_0 3.271243 1_655
Mg0_4 Mg3_6 3.286684 1_555
Mg0_4 Mg3_0 3.286684 1_655
Mg0_4 Mg1_7 3.290783 1_555
Mg0_4 Mg1_1 3.290783 1_655
Mg0_5 Mg2_5 3.142186 1_555
Mg0_5 Mg4_1 3.271243 1_655
Mg0_5 Mg4_7 3.271243 1_555
Mg0_5 Mg3_1 3.286684 1_655
Mg0_5 Mg3_7 3.286684 1_555
Mg0_5 Mg1_6 3.290783 1_556
Mg0_5 Mg1_0 3.290783 1_656
Mg0_6 Mg2_6 3.142186 1_555
Mg0_6 Mg4_2 3.271243 1_655
Mg0_6 Mg4_4 3.271243 1_565
Mg0_6 Mg3_2 3.286684 1_655
Mg0_6 Mg3_4 3.286684 1_565
Mg0_6 Mg1_3 3.290783 1_655
Mg0_6 Mg1_5 3.290783 1_565
Mg0_7 Mg2_7 3.142186 1_555
Mg0_7 Mg4_5 3.271243 1_565
Mg0_7 Mg4_3 3.271243 1_655
Mg0_7 Mg3_3 3.286684 1_655
Mg0_7 Mg3_5 3.286684 1_565
Mg0_7 Mg1_2 3.290783 1_656
Mg0_7 Mg1_4 3.290783 1_566
Mg1_0 Mg1_6 3.135016 1_455
Mg1_0 Mg1_6 3.135016 1_545
Mg1_0 Mg2_4 3.230949 1_455
Mg1_0 Mg2_2 3.230949 1_545
Mg1_0 Mg4_1 3.338630 1_554
Mg1_0 Mg3_4 3.341124 1_455
Mg1_0 Mg3_2 3.341124 1_545
Mg1_1 Mg1_7 3.135016 1_455
Mg1_1 Mg1_7 3.135016 1_545
Mg1_1 Mg2_5 3.230949 1_455
Mg1_1 Mg2_3 3.230949 1_545
Mg1_1 Mg4_0 3.338630 1_555
Mg1_1 Mg3_3 3.341124 1_545
Mg1_1 Mg3_5 3.341124 1_455
Mg1_2 Mg1_4 3.135016 1_465
Mg1_2 Mg1_4 3.135016 1_555
Mg1_2 Mg2_0 3.230949 1_555
Mg1_2 Mg2_6 3.230949 1_455
Mg1_2 Mg4_3 3.338630 1_554
Mg1_2 Mg3_0 3.341124 1_555
Mg1_2 Mg3_6 3.341124 1_455
Mg1_3 Mg1_5 3.135016 1_555
Mg1_3 Mg1_5 3.135016 1_465
Mg1_3 Mg2_7 3.230949 1_455
Mg1_3 Mg2_1 3.230949 1_555
Mg1_3 Mg4_2 3.338630 1_555
Mg1_3 Mg3_1 3.341124 1_555
Mg1_3 Mg3_7 3.341124 1_455
Mg1_4 Mg2_0 3.230949 1_555
Mg1_4 Mg2_6 3.230949 1_545
Mg1_4 Mg4_5 3.338630 1_554
Mg1_4 Mg3_0 3.341124 1_555
Mg1_4 Mg3_6 3.341124 1_545
Mg1_5 Mg2_7 3.230949 1_545
Mg1_5 Mg2_1 3.230949 1_555
Mg1_5 Mg4_4 3.338630 1_555
Mg1_5 Mg3_1 3.341124 1_555
Mg1_5 Mg3_7 3.341124 1_545
Mg1_6 Mg2_2 3.230949 1_555
Mg1_6 Mg2_4 3.230949 1_555
Mg1_6 Mg4_7 3.338630 1_554
Mg1_6 Mg3_2 3.341124 1_555
Mg1_6 Mg3_4 3.341124 1_555
Mg1_7 Mg2_3 3.230949 1_555
Mg1_7 Mg2_5 3.230949 1_555
Mg1_7 Mg4_6 3.338630 1_555
Mg1_7 Mg3_3 3.341124 1_555
Mg1_7 Mg3_5 3.341124 1_555
Mg2_0 Mg2_6 3.135016 1_545
Mg2_0 Mg2_6 3.135016 1_455
Mg2_0 Mg4_4 3.161319 1_555
Mg2_0 Mg4_2 3.161319 1_555
Mg2_0 Mg3_4 3.426468 1_555
Mg2_0 Mg3_2 3.426468 1_555
Mg2_0 Mg3_0 3.442405 1_555
Mg2_1 Mg2_7 3.135016 1_545
Mg2_1 Mg2_7 3.135016 1_455
Mg2_1 Mg4_5 3.161319 1_555
Mg2_1 Mg4_3 3.161319 1_555
Mg2_1 Mg3_3 3.426468 1_555
Mg2_1 Mg3_5 3.426468 1_555
Mg2_1 Mg3_1 3.442405 1_555
Mg2_2 Mg2_4 3.135016 1_465
Mg2_2 Mg2_4 3.135016 1_555
Mg2_2 Mg4_6 3.161319 1_555
Mg2_2 Mg4_0 3.161319 1_565
Mg2_2 Mg3_6 3.426468 1_555
Mg2_2 Mg3_0 3.426468 1_565
Mg2_2 Mg3_2 3.442405 1_555
Mg2_3 Mg2_5 3.135016 1_465
Mg2_3 Mg2_5 3.135016 1_555
Mg2_3 Mg4_1 3.161319 1_565
Mg2_3 Mg4_7 3.161319 1_555
Mg2_3 Mg3_1 3.426468 1_565
Mg2_3 Mg3_7 3.426468 1_555
Mg2_3 Mg3_3 3.442405 1_555
Mg2_4 Mg4_6 3.161319 1_555
Mg2_4 Mg4_0 3.161319 1_655
Mg2_4 Mg3_6 3.426468 1_555
Mg2_4 Mg3_0 3.426468 1_655
Mg2_4 Mg3_4 3.442405 1_555
Mg2_5 Mg4_1 3.161319 1_655
Mg2_5 Mg4_7 3.161319 1_555
Mg2_5 Mg3_1 3.426468 1_655
Mg2_5 Mg3_7 3.426468 1_555
Mg2_5 Mg3_5 3.442405 1_555
Mg2_6 Mg4_2 3.161319 1_655
Mg2_6 Mg4_4 3.161319 1_565
Mg2_6 Mg3_2 3.426468 1_655
Mg2_6 Mg3_4 3.426468 1_565
Mg2_6 Mg3_6 3.442405 1_555
Mg2_7 Mg4_5 3.161319 1_565
Mg2_7 Mg4_3 3.161319 1_655
Mg2_7 Mg3_5 3.426468 1_565
Mg2_7 Mg3_3 3.426468 1_655
Mg2_7 Mg3_7 3.442405 1_555
Mg3_0 Mg3_6 3.135016 1_455
Mg3_0 Mg3_6 3.135016 1_545
Mg3_0 Mg4_4 3.226311 1_555
Mg3_0 Mg4_2 3.226311 1_555
Mg3_1 Mg3_7 3.135016 1_455
Mg3_1 Mg3_7 3.135016 1_545
Mg3_1 Mg4_3 3.226311 1_555
Mg3_1 Mg4_5 3.226311 1_555
Mg3_2 Mg3_4 3.135016 1_555
Mg3_2 Mg3_4 3.135016 1_465
Mg3_2 Mg4_0 3.226311 1_565
Mg3_2 Mg4_6 3.226311 1_555
Mg3_3 Mg3_5 3.135016 1_465
Mg3_3 Mg3_5 3.135016 1_555
Mg3_3 Mg4_7 3.226311 1_555
Mg3_3 Mg4_1 3.226311 1_565
Mg3_4 Mg4_0 3.226311 1_655
Mg3_4 Mg4_6 3.226311 1_555
Mg3_5 Mg4_7 3.226311 1_555
Mg3_5 Mg4_1 3.226311 1_655
Mg3_6 Mg4_2 3.226311 1_655
Mg3_6 Mg4_4 3.226311 1_565
Mg3_7 Mg4_3 3.226311 1_655
Mg3_7 Mg4_5 3.226311 1_565
Mg4_0 Mg4_6 3.135016 1_545
Mg4_0 Mg4_6 3.135016 1_455
Mg4_1 Mg4_7 3.135016 1_545
Mg4_1 Mg4_7 3.135016 1_455
Mg4_2 Mg4_4 3.135016 1_555
Mg4_2 Mg4_4 3.135016 1_465
Mg4_3 Mg4_5 3.135016 1_465
Mg4_3 Mg4_5 3.135016 1_555
