# generated using pymatgen
data_CsYbH3
_symmetry_space_group_name_H-M   'P 1'
_cell_length_a   4.42908037
_cell_length_b   4.42908037
_cell_length_c   4.42908037
_cell_angle_alpha   90.00000000
_cell_angle_beta   90.00000000
_cell_angle_gamma   90.00000000
_symmetry_Int_Tables_number   1
_chemical_formula_structural   CsYbH3
_chemical_formula_sum   'Cs1 Yb1 H3'
_cell_volume   86.88417518
_cell_formula_units_Z   1
loop_
 _symmetry_equiv_pos_site_id
 _symmetry_equiv_pos_as_xyz
  1  'x, y, z'
loop_
 _atom_site_type_symbol
 _atom_site_label
 _atom_site_symmetry_multiplicity
 _atom_site_fract_x
 _atom_site_fract_y
 _atom_site_fract_z
 _atom_site_occupancy
  Cs  Cs0  1  0.50000000  0.50000000  0.50000000  1
  Yb  Yb0  1  0.00000000  0.00000000  0.00000000  1
  H  H0  1  0.50000000  0.00000000  0.00000000  1
  H  H1  1  0.00000000  0.50000000  0.00000000  1
  H  H2  1  0.00000000  0.00000000  0.50000000  1
loop_
_geom_bond_atom_site_label_1
_geom_bond_atom_site_label_2
_geom_bond_distance
_geom_bond_site_symmetry_2
Cs0 H2 3.131833 1_665
Cs0 H1 3.131833 1_655
Cs0 H2 3.131833 1_555
Cs0 H2 3.131833 1_655
Cs0 H0 3.131833 1_565
Cs0 H0 3.131833 1_555
Cs0 H1 3.131833 1_656
Cs0 H0 3.131833 1_556
Cs0 H0 3.131833 1_566
Cs0 H1 3.131833 1_555
Cs0 H1 3.131833 1_556
Cs0 H2 3.131833 1_565
H0 Yb0 2.214540 1_555
H0 Yb0 2.214540 1_655
H1 Yb0 2.214540 1_555
H1 Yb0 2.214540 1_565
H2 Yb0 2.214540 1_556
H2 Yb0 2.214540 1_555
