# generated using pymatgen
data_CuAu3
_symmetry_space_group_name_H-M   'P 1'
_cell_length_a   5.63869812
_cell_length_b   5.63869812
_cell_length_c   4.70413081
_cell_angle_alpha   90.00000000
_cell_angle_beta   90.00000000
_cell_angle_gamma   119.99999056
_symmetry_Int_Tables_number   1
_chemical_formula_structural   CuAu3
_chemical_formula_sum   'Cu2 Au6'
_cell_volume   129.52922015
_cell_formula_units_Z   2
loop_
 _symmetry_equiv_pos_site_id
 _symmetry_equiv_pos_as_xyz
  1  'x, y, z'
loop_
 _atom_site_type_symbol
 _atom_site_label
 _atom_site_symmetry_multiplicity
 _atom_site_fract_x
 _atom_site_fract_y
 _atom_site_fract_z
 _atom_site_occupancy
  Cu  Cu0  1  0.33333300  0.66666700  0.75000000  1
  Cu  Cu1  1  0.66666700  0.33333300  0.25000000  1
  Au  Au0  1  0.16935782  0.33871464  0.25000000  1
  Au  Au1  1  0.66128536  0.83064218  0.25000000  1
  Au  Au2  1  0.16935782  0.83064218  0.25000000  1
  Au  Au3  1  0.83064218  0.66128536  0.75000000  1
  Au  Au4  1  0.33871464  0.16935782  0.75000000  1
  Au  Au5  1  0.83064218  0.16935782  0.75000000  1
loop_
_geom_bond_atom_site_label_1
_geom_bond_atom_site_label_2
_geom_bond_distance
_geom_bond_site_symmetry_2
Au0 Au2 2.773831 1_555
Au0 Au1 2.773831 1_555
Au0 Cu1 2.819472 1_555
Au0 Cu1 2.819472 1_455
Au0 Cu0 2.845511 1_555
Au0 Cu0 2.845511 1_554
Au0 Au2 2.864867 1_545
Au0 Au1 2.864868 1_445
Au0 Au4 2.875415 1_555
Au0 Au4 2.875415 1_554
Au0 Au5 2.875421 1_455
Au0 Au5 2.875421 1_454
Au1 Au2 2.773831 1_555
Au1 Cu1 2.819472 1_555
Au1 Cu1 2.819472 1_565
Au1 Cu0 2.845511 1_554
Au1 Cu0 2.845511 1_555
Au1 Au2 2.864867 1_655
Au1 Au3 2.875415 1_554
Au1 Au3 2.875415 1_555
Au1 Au5 2.875421 1_565
Au1 Au5 2.875421 1_564
Au2 Cu1 2.819472 1_455
Au2 Cu1 2.819472 1_565
Au2 Cu0 2.845506 1_554
Au2 Cu0 2.845506 1_555
Au2 Au4 2.875421 1_564
Au2 Au3 2.875421 1_455
Au2 Au3 2.875421 1_454
Au2 Au4 2.875421 1_565
Au3 Au5 2.773831 1_555
Au3 Au4 2.773831 1_555
Au3 Cu0 2.819472 1_555
Au3 Cu0 2.819472 1_655
Au3 Cu1 2.845511 1_555
Au3 Cu1 2.845511 1_556
Au3 Au5 2.864867 1_565
Au3 Au4 2.864868 1_665
Au4 Au5 2.773831 1_555
Au4 Cu0 2.819472 1_555
Au4 Cu0 2.819472 1_545
Au4 Cu1 2.845511 1_555
Au4 Cu1 2.845511 1_556
Au4 Au5 2.864867 1_455
Au5 Cu0 2.819472 1_545
Au5 Cu0 2.819472 1_655
Au5 Cu1 2.845506 1_555
Au5 Cu1 2.845506 1_556
