# generated using pymatgen
data_HfNp3
_symmetry_space_group_name_H-M   'P 1'
_cell_length_a   5.50942457
_cell_length_b   5.50942457
_cell_length_c   5.50942457
_cell_angle_alpha   133.27879583
_cell_angle_beta   133.27879583
_cell_angle_gamma   68.21665398
_symmetry_Int_Tables_number   1
_chemical_formula_structural   HfNp3
_chemical_formula_sum   'Hf1 Np3'
_cell_volume   87.08051388
_cell_formula_units_Z   1
loop_
 _symmetry_equiv_pos_site_id
 _symmetry_equiv_pos_as_xyz
  1  'x, y, z'
loop_
 _atom_site_type_symbol
 _atom_site_label
 _atom_site_symmetry_multiplicity
 _atom_site_fract_x
 _atom_site_fract_y
 _atom_site_fract_z
 _atom_site_occupancy
  Hf  Hf0  1  0.00000000  0.00000000  0.00000000  1
  Np  Np0  1  0.75000000  0.25000000  0.50000000  1
  Np  Np1  1  0.25000000  0.75000000  0.50000000  1
  Np  Np2  1  0.50000000  0.50000000  0.00000000  1
loop_
_geom_bond_atom_site_label_1
_geom_bond_atom_site_label_2
_geom_bond_distance
_geom_bond_site_symmetry_2
Hf0 Np2 3.089461 1_545
Hf0 Np2 3.089461 1_444
Hf0 Np2 3.089461 1_455
Hf0 Np2 3.089461 1_556
Hf0 Np1 3.158264 1_544
Hf0 Np1 3.158264 1_545
Hf0 Np0 3.158264 1_455
Hf0 Np1 3.158264 1_555
Hf0 Np0 3.158264 1_444
Hf0 Np0 3.158264 1_454
Hf0 Np1 3.158264 1_444
Hf0 Np0 3.158264 1_555
Np0 Np1 3.089461 1_555
Np0 Np1 3.089461 1_656
Np0 Np1 3.089461 1_645
Np0 Np1 3.089461 1_544
Np0 Np2 3.158264 1_555
Np0 Np2 3.158264 1_545
Np0 Np2 3.158264 1_556
Np0 Np2 3.158264 1_656
Np1 Np2 3.158264 1_555
Np1 Np2 3.158264 1_566
Np1 Np2 3.158264 1_556
Np1 Np2 3.158264 1_455
