# generated using pymatgen
data_Mg6ZnCr
_symmetry_space_group_name_H-M   'P 1'
_cell_length_a   4.96631000
_cell_length_b   6.16779200
_cell_length_c   10.73205900
_cell_angle_alpha   90.00000000
_cell_angle_beta   90.00000000
_cell_angle_gamma   90.00000000
_symmetry_Int_Tables_number   1
_chemical_formula_structural   Mg6ZnCr
_chemical_formula_sum   'Mg12 Zn2 Cr2'
_cell_volume   328.73549242
_cell_formula_units_Z   2
loop_
 _symmetry_equiv_pos_site_id
 _symmetry_equiv_pos_as_xyz
  1  'x, y, z'
loop_
 _atom_site_type_symbol
 _atom_site_label
 _atom_site_symmetry_multiplicity
 _atom_site_fract_x
 _atom_site_fract_y
 _atom_site_fract_z
 _atom_site_occupancy
  Mg  Mg0  1  0.50000000  0.25183100  0.41686400  1
  Mg  Mg1  1  0.50000000  0.74816900  0.41686400  1
  Mg  Mg2  1  0.00000000  0.74813000  0.08660500  1
  Mg  Mg3  1  0.00000000  0.25187000  0.08660500  1
  Mg  Mg4  1  0.00000000  0.00000000  0.33054700  1
  Mg  Mg5  1  0.00000000  0.50000000  0.32939000  1
  Mg  Mg6  1  0.50000000  0.75183100  0.91686400  1
  Mg  Mg7  1  0.50000000  0.24816900  0.91686400  1
  Mg  Mg8  1  0.00000000  0.24813000  0.58660500  1
  Mg  Mg9  1  0.00000000  0.75187000  0.58660500  1
  Mg  Mg10  1  0.00000000  0.50000000  0.83054700  1
  Mg  Mg11  1  0.00000000  0.00000000  0.82939000  1
  Zn  Zn0  1  0.50000000  0.00000000  0.16584400  1
  Zn  Zn1  1  0.50000000  0.50000000  0.66584400  1
  Cr  Cr0  1  0.50000000  0.50000000  0.16727800  1
  Cr  Cr1  1  0.50000000  0.00000000  0.66727800  1
loop_
_geom_bond_atom_site_label_1
_geom_bond_atom_site_label_2
_geom_bond_distance
_geom_bond_site_symmetry_2
Mg0 Mg1 3.061310 1_555
Mg0 Mg5 3.064354 1_655
Mg0 Mg5 3.064354 1_555
Mg0 Mg4 3.071931 1_655
Mg0 Mg4 3.071931 1_555
Mg0 Zn1 3.079424 1_555
Mg0 Mg8 3.079783 1_555
Mg0 Mg8 3.079783 1_655
Mg0 Mg1 3.106482 1_545
Mg0 Zn0 3.109660 1_555
Mg1 Mg5 3.064354 1_655
Mg1 Mg5 3.064354 1_555
Mg1 Mg4 3.071931 1_565
Mg1 Mg4 3.071931 1_665
Mg1 Zn1 3.079424 1_555
Mg1 Mg9 3.079783 1_655
Mg1 Mg9 3.079783 1_555
Mg1 Zn0 3.109660 1_565
Mg2 Mg5 3.021793 1_555
Mg2 Mg4 3.044212 1_565
Mg2 Zn0 3.050007 1_465
Mg2 Zn0 3.050007 1_565
Mg2 Mg3 3.060828 1_555
Mg2 Mg6 3.079783 1_454
Mg2 Mg6 3.079783 1_554
Mg2 Mg3 3.106964 1_565
Mg3 Mg5 3.021793 1_555
Mg3 Mg4 3.044212 1_555
Mg3 Zn0 3.050007 1_455
Mg3 Zn0 3.050007 1_555
Mg3 Mg7 3.079783 1_554
Mg3 Mg7 3.079783 1_454
Mg4 Zn0 3.048028 1_455
Mg4 Zn0 3.048028 1_555
Mg4 Mg5 3.083921 1_545
Mg4 Mg5 3.083921 1_555
Mg4 Mg9 3.145447 1_545
Mg4 Mg8 3.145447 1_555
Mg5 Mg8 3.167550 1_555
Mg5 Mg9 3.167550 1_555
Mg6 Mg7 3.061310 1_565
Mg6 Zn0 3.079424 1_566
Mg6 Mg7 3.106482 1_555
Mg6 Zn1 3.109660 1_555
Mg7 Zn0 3.079424 1_556
Mg7 Zn1 3.109660 1_555
Mg8 Zn1 3.050007 1_555
Mg8 Zn1 3.050007 1_455
Mg8 Mg9 3.060828 1_545
Mg8 Mg9 3.106964 1_555
Mg9 Zn1 3.050007 1_555
Mg9 Zn1 3.050007 1_455
Mg10 Mg8 3.044212 1_555
Mg10 Mg9 3.044212 1_555
Mg10 Zn1 3.048028 1_455
Mg10 Zn1 3.048028 1_555
Mg10 Mg7 3.071931 1_455
Mg10 Mg7 3.071931 1_555
Mg10 Mg6 3.071931 1_455
Mg10 Mg6 3.071931 1_555
Mg10 Mg11 3.083921 1_555
Mg10 Mg11 3.083921 1_565
Mg10 Mg2 3.145447 1_556
Mg10 Mg3 3.145447 1_556
Mg11 Mg9 3.021793 1_545
Mg11 Mg8 3.021793 1_555
Mg11 Mg6 3.064354 1_545
Mg11 Mg7 3.064354 1_555
Mg11 Mg6 3.064354 1_445
Mg11 Mg7 3.064354 1_455
Mg11 Mg3 3.167550 1_556
Mg11 Mg2 3.167550 1_546
Cr0 Mg5 3.031987 1_655
Cr0 Mg5 3.031987 1_555
Cr0 Mg3 3.042666 1_555
Cr0 Mg3 3.042666 1_655
Cr0 Mg2 3.042666 1_555
Cr0 Mg2 3.042666 1_655
Cr0 Zn0 3.083934 1_565
Cr0 Zn0 3.083934 1_555
Cr0 Mg1 3.085069 1_555
Cr0 Mg0 3.085069 1_555
Cr0 Mg6 3.104028 1_554
Cr0 Mg7 3.104028 1_554
Cr1 Mg11 3.031987 1_555
Cr1 Mg11 3.031987 1_655
Cr1 Mg8 3.042666 1_555
Cr1 Mg9 3.042666 1_545
Cr1 Mg9 3.042666 1_645
Cr1 Mg8 3.042666 1_655
Cr1 Zn1 3.083934 1_555
Cr1 Zn1 3.083934 1_545
Cr1 Mg6 3.085069 1_545
Cr1 Mg7 3.085069 1_555
Cr1 Mg1 3.104028 1_545
Cr1 Mg0 3.104028 1_555
