# generated using pymatgen
data_Lu3Co2Si3
_symmetry_space_group_name_H-M   'P 1'
_cell_length_a   5.41635066
_cell_length_b   5.41635066
_cell_length_c   13.32481679
_cell_angle_alpha   89.99923334
_cell_angle_beta   90.00076666
_cell_angle_gamma   136.06961688
_symmetry_Int_Tables_number   1
_chemical_formula_structural   Lu3Co2Si3
_chemical_formula_sum   'Lu6 Co4 Si6'
_cell_volume   271.20579549
_cell_formula_units_Z   2
loop_
 _symmetry_equiv_pos_site_id
 _symmetry_equiv_pos_as_xyz
  1  'x, y, z'
loop_
 _atom_site_type_symbol
 _atom_site_label
 _atom_site_symmetry_multiplicity
 _atom_site_fract_x
 _atom_site_fract_y
 _atom_site_fract_z
 _atom_site_occupancy
  Lu  Lu0  1  0.63559267  0.36440733  0.24998437  1
  Lu  Lu1  1  0.36440782  0.63559218  0.75002609  1
  Lu  Lu2  1  0.91683324  0.08316676  0.11120727  1
  Lu  Lu3  1  0.08316117  0.91683883  0.88881477  1
  Lu  Lu4  1  0.08319003  0.91680997  0.61124400  1
  Lu  Lu5  1  0.91682980  0.08317020  0.38872960  1
  Co  Co0  1  0.78933295  0.21066705  0.58411727  1
  Co  Co1  1  0.21066354  0.78933646  0.41586056  1
  Co  Co2  1  0.21066201  0.78933799  0.08412977  1
  Co  Co3  1  0.78933534  0.21066466  0.91588266  1
  Si  Si0  1  0.33111926  0.66888074  0.24995527  1
  Si  Si1  1  0.66888191  0.33111809  0.75006845  1
  Si  Si2  1  0.61809879  0.38190121  0.03943216  1
  Si  Si3  1  0.38189551  0.61810449  0.96057681  1
  Si  Si4  1  0.38187312  0.61812688  0.53943532  1
  Si  Si5  1  0.61812285  0.38187715  0.46053664  1
loop_
_geom_bond_atom_site_label_1
_geom_bond_atom_site_label_2
_geom_bond_distance
_geom_bond_site_symmetry_2
Lu0 Si5 2.811057 1_555
Lu0 Si2 2.811066 1_555
Lu0 Si0 2.821892 1_655
Lu0 Si0 2.821892 1_545
Lu0 Si0 3.058852 1_555
Lu1 Si3 2.811043 1_555
Lu1 Si4 2.811566 1_555
Lu1 Si1 2.821887 1_455
Lu1 Si1 2.821887 1_565
Lu1 Si1 3.058859 1_555
Lu2 Si3 2.873359 1_544
Lu2 Si3 2.873359 1_654
Lu2 Si0 2.874729 1_545
Lu2 Si0 2.874729 1_655
Lu2 Si2 3.017887 1_655
Lu2 Si2 3.017887 1_545
Lu2 Si2 3.149886 1_555
Lu3 Si2 2.873237 1_456
Lu3 Si2 2.873237 1_566
Lu3 Si1 2.874735 1_565
Lu3 Si1 2.874735 1_455
Lu3 Si3 3.017833 1_565
Lu3 Si3 3.017833 1_455
Lu3 Si3 3.149832 1_555
Lu4 Si5 2.874076 1_565
Lu4 Si5 2.874076 1_455
Lu4 Si1 2.875301 1_455
Lu4 Si1 2.875301 1_565
Lu4 Si4 3.018356 1_455
Lu4 Si4 3.018356 1_565
Lu4 Si4 3.149556 1_555
Lu5 Si4 2.874090 1_545
Lu5 Si4 2.874090 1_655
Lu5 Si0 2.874928 1_545
Lu5 Si0 2.874928 1_655
Lu5 Si5 3.018189 1_655
Lu5 Si5 3.018189 1_545
Lu5 Si5 3.149778 1_555
Co0 Si4 2.307226 1_545
Co0 Si4 2.307226 1_655
Co0 Si5 2.381185 1_555
Co0 Si1 2.520738 1_555
Co0 Lu5 2.901549 1_555
Co0 Lu4 2.919612 1_655
Co0 Lu4 2.919612 1_545
Co0 Lu4 2.974237 1_645
Co0 Lu1 3.092006 1_545
Co0 Lu1 3.092006 1_655
Co1 Si5 2.307208 1_455
Co1 Si5 2.307208 1_565
Co1 Si4 2.381127 1_555
Co1 Si0 2.520224 1_555
Co1 Lu4 2.901395 1_555
Co1 Lu5 2.919786 1_565
Co1 Lu5 2.919786 1_455
Co1 Lu5 2.974011 1_465
Co1 Lu0 3.091685 1_565
Co1 Lu0 3.091685 1_455
Co2 Si2 2.307366 1_455
Co2 Si2 2.307366 1_565
Co2 Si3 2.381134 1_554
Co2 Si0 2.519268 1_555
Co2 Lu3 2.900665 1_554
Co2 Lu2 2.919725 1_565
Co2 Lu2 2.919725 1_455
Co2 Lu2 2.973886 1_465
Co2 Lu0 3.091491 1_455
Co2 Lu0 3.091491 1_565
Co3 Si3 2.307342 1_545
Co3 Si3 2.307342 1_655
Co3 Si2 2.381124 1_556
Co3 Si1 2.519118 1_555
Co3 Lu2 2.900767 1_556
Co3 Lu3 2.919731 1_655
Co3 Lu3 2.919731 1_545
Co3 Lu3 2.973841 1_645
Co3 Lu1 3.091518 1_545
Co3 Lu1 3.091518 1_655
Si2 Si3 2.595193 1_554
Si4 Si5 2.595881 1_555
