# generated using pymatgen
data_Ni3(BiS)2
_symmetry_space_group_name_H-M   'P 1'
_cell_length_a   4.12837300
_cell_length_b   5.40104000
_cell_length_c   5.88273800
_cell_angle_alpha   90.00000000
_cell_angle_beta   90.00000000
_cell_angle_gamma   90.00000000
_symmetry_Int_Tables_number   1
_chemical_formula_structural   Ni3(BiS)2
_chemical_formula_sum   'Ni3 Bi2 S2'
_cell_volume   131.17039590
_cell_formula_units_Z   1
loop_
 _symmetry_equiv_pos_site_id
 _symmetry_equiv_pos_as_xyz
  1  'x, y, z'
loop_
 _atom_site_type_symbol
 _atom_site_label
 _atom_site_symmetry_multiplicity
 _atom_site_fract_x
 _atom_site_fract_y
 _atom_site_fract_z
 _atom_site_occupancy
  Ni  Ni0  1  0.50000000  0.50238200  0.00326100  1
  Ni  Ni1  1  0.50000000  0.99761800  0.00326100  1
  Ni  Ni2  1  0.00000000  0.25000000  0.18391700  1
  Bi  Bi0  1  0.00000000  0.25000000  0.74723900  1
  Bi  Bi1  1  0.00000000  0.75000000  0.25639000  1
  S  S0  1  0.50000000  0.25000000  0.29818900  1
  S  S1  1  0.50000000  0.75000000  0.71174200  1
loop_
_geom_bond_atom_site_label_1
_geom_bond_atom_site_label_2
_geom_bond_distance
_geom_bond_site_symmetry_2
Ni0 S1 2.174766 1_554
Ni0 S0 2.206418 1_555
Ni1 S1 2.174766 1_554
Ni1 S0 2.206418 1_565
Ni2 S0 2.170890 1_455
Ni2 S0 2.170890 1_555
Bi0 Ni2 2.568862 1_556
Bi0 Ni1 2.896091 1_546
Bi0 Ni0 2.896091 1_556
Bi0 Ni0 2.896091 1_456
Bi0 Ni1 2.896091 1_446
Bi1 Ni2 2.733967 1_555
Bi1 Ni2 2.733967 1_565
Bi1 Ni1 2.875219 1_555
Bi1 Ni1 2.875219 1_455
Bi1 Ni0 2.875219 1_455
Bi1 Ni0 2.875219 1_555
