# generated using pymatgen
data_SrCaTi2O6
_symmetry_space_group_name_H-M   'P 1'
_cell_length_a   5.54473021
_cell_length_b   5.54473021
_cell_length_c   7.78643400
_cell_angle_alpha   90.00000000
_cell_angle_beta   90.00000000
_cell_angle_gamma   90.72437174
_symmetry_Int_Tables_number   1
_chemical_formula_structural   SrCaTi2O6
_chemical_formula_sum   'Sr2 Ca2 Ti4 O12'
_cell_volume   239.36725383
_cell_formula_units_Z   2
loop_
 _symmetry_equiv_pos_site_id
 _symmetry_equiv_pos_as_xyz
  1  'x, y, z'
loop_
 _atom_site_type_symbol
 _atom_site_label
 _atom_site_symmetry_multiplicity
 _atom_site_fract_x
 _atom_site_fract_y
 _atom_site_fract_z
 _atom_site_occupancy
  Sr  Sr0  1  0.99828900  0.00171100  0.75000000  1
  Sr  Sr1  1  0.00171100  0.99828900  0.25000000  1
  Ca  Ca0  1  0.49842800  0.50157200  0.75000000  1
  Ca  Ca1  1  0.50157200  0.49842800  0.25000000  1
  Ti  Ti0  1  0.50000000  0.00000000  0.50000000  1
  Ti  Ti1  1  0.00000000  0.50000000  0.50000000  1
  Ti  Ti2  1  0.50000000  0.00000000  0.00000000  1
  Ti  Ti3  1  0.00000000  0.50000000  0.00000000  1
  O  O0  1  0.75012800  0.75012800  0.50000000  1
  O  O1  1  0.75012800  0.75012800  0.00000000  1
  O  O2  1  0.24987200  0.24987200  0.50000000  1
  O  O3  1  0.24987200  0.24987200  0.00000000  1
  O  O4  1  0.74473100  0.25526900  0.54166700  1
  O  O5  1  0.25526900  0.74473100  0.45833300  1
  O  O6  1  0.74473100  0.25526900  0.95833300  1
  O  O7  1  0.25526900  0.74473100  0.04166700  1
  O  O8  1  0.46362000  0.95310200  0.75000000  1
  O  O9  1  0.95310200  0.46362000  0.25000000  1
  O  O10  1  0.53638000  0.04689800  0.25000000  1
  O  O11  1  0.04689800  0.53638000  0.75000000  1
loop_
_geom_bond_atom_site_label_1
_geom_bond_atom_site_label_2
_geom_bond_distance
_geom_bond_site_symmetry_2
Ca0 O8 2.513472 1_555
Ca0 O11 2.513472 1_555
Ca0 O4 2.531557 1_555
Ca0 O6 2.531557 1_555
Ca0 O1 2.754586 1_556
Ca0 O0 2.754586 1_555
Ca0 O2 2.754586 1_555
Ca0 O3 2.754586 1_556
Ca0 O7 2.973075 1_556
Ca0 O5 2.973075 1_555
Ca0 O11 3.044800 1_655
Ca0 O8 3.044800 1_545
Ca1 O9 2.513472 1_555
Ca1 O10 2.513472 1_555
Ca1 O5 2.531557 1_555
Ca1 O7 2.531557 1_555
Ca1 O0 2.754586 1_555
Ca1 O1 2.754586 1_555
Ca1 O2 2.754586 1_555
Ca1 O3 2.754586 1_555
Ca1 O6 2.973075 1_554
Ca1 O4 2.973075 1_555
Ca1 O10 3.044800 1_565
Ca1 O9 3.044800 1_455
O0 Ti1 1.972711 1_655
O0 Ti0 1.972711 1_565
O0 Sr0 2.753180 1_565
O0 Sr1 2.753180 1_655
O1 Ti2 1.972711 1_565
O1 Ti3 1.972711 1_655
O1 Sr1 2.753180 1_655
O1 Sr0 2.753180 1_564
O2 Ti0 1.972711 1_555
O2 Ti1 1.972711 1_555
O2 Sr1 2.753180 1_545
O2 Sr0 2.753180 1_455
O3 Ti2 1.972711 1_555
O3 Ti3 1.972711 1_555
O3 Sr1 2.753180 1_545
O3 Sr0 2.753180 1_454
O4 Ti0 1.975198 1_555
O4 Ti1 1.975198 1_655
O4 Sr0 2.575769 1_555
O4 Sr1 3.044598 1_645
O5 Ti1 1.975198 1_555
O5 Ti0 1.975198 1_565
O5 Sr1 2.575769 1_555
O5 Sr0 3.044598 1_465
O6 Ti2 1.975198 1_556
O6 Ti3 1.975198 1_656
O6 Sr0 2.575769 1_555
O6 Sr1 3.044598 1_646
O7 Ti3 1.975198 1_555
O7 Ti2 1.975198 1_565
O7 Sr1 2.575769 1_555
O7 Sr0 3.044598 1_464
O8 Ti2 1.973896 1_566
O8 Ti0 1.973896 1_565
O8 Sr0 2.597561 1_465
O8 Sr0 2.973427 1_565
O9 Ti1 1.973896 1_655
O9 Ti3 1.973896 1_655
O9 Sr1 2.597561 1_645
O9 Sr1 2.973427 1_655
O10 Ti0 1.973896 1_555
O10 Ti2 1.973896 1_555
O10 Sr1 2.597561 1_645
O10 Sr1 2.973427 1_545
O11 Ti1 1.973896 1_555
O11 Ti3 1.973896 1_556
O11 Sr0 2.597561 1_465
O11 Sr0 2.973427 1_455
