# generated using pymatgen
data_Sr6Mg(W2O9)2
_symmetry_space_group_name_H-M   'P 1'
_cell_length_a   9.13301747
_cell_length_b   6.91654723
_cell_length_c   7.29046399
_cell_angle_alpha   87.58232852
_cell_angle_beta   77.85978048
_cell_angle_gamma   79.33448443
_symmetry_Int_Tables_number   1
_chemical_formula_structural   Sr6Mg(W2O9)2
_chemical_formula_sum   'Sr6 Mg1 W4 O18'
_cell_volume   442.45096349
_cell_formula_units_Z   1
loop_
 _symmetry_equiv_pos_site_id
 _symmetry_equiv_pos_as_xyz
  1  'x, y, z'
loop_
 _atom_site_type_symbol
 _atom_site_label
 _atom_site_symmetry_multiplicity
 _atom_site_fract_x
 _atom_site_fract_y
 _atom_site_fract_z
 _atom_site_occupancy
  Sr  Sr0  1  0.27731500  0.86688600  0.62824500  1
  Sr  Sr1  1  0.02778700  0.37463400  0.73675000  1
  Sr  Sr2  1  0.52846600  0.73532500  0.14053900  1
  Sr  Sr3  1  0.45471000  0.25388700  0.84407600  1
  Sr  Sr4  1  0.01475500  0.63388800  0.22537000  1
  Sr  Sr5  1  0.76085200  0.05742800  0.44235400  1
  Mg  Mg0  1  0.77458100  0.24847700  0.02717300  1
  W  W0  1  0.84785300  0.84363000  0.84613300  1
  W  W1  1  0.36460300  0.32280600  0.31928400  1
  W  W2  1  0.14139200  0.15357600  0.15554800  1
  W  W3  1  0.64836200  0.64092900  0.66086100  1
  O  O0  1  0.05502900  0.95671500  0.29579100  1
  O  O1  1  0.04824400  0.71288200  0.84188900  1
  O  O2  1  0.63308800  0.91837900  0.79406600  1
  O  O3  1  0.32225800  0.58314800  0.39845300  1
  O  O4  1  0.14729000  0.28117600  0.41886100  1
  O  O5  1  0.25090500  0.40523100  0.10139800  1
  O  O6  1  0.45666200  0.63634700  0.81512500  1
  O  O7  1  0.58062900  0.77751700  0.46141500  1
  O  O8  1  0.78114000  0.93789300  0.10787800  1
  O  O9  1  0.20574100  0.11365500  0.88541200  1
  O  O10  1  0.42929300  0.19004400  0.52167300  1
  O  O11  1  0.86074000  0.71451300  0.56838300  1
  O  O12  1  0.55617200  0.33675900  0.15363700  1
  O  O13  1  0.75648100  0.56905800  0.89273300  1
  O  O14  1  0.68855500  0.38681600  0.58105600  1
  O  O15  1  0.36624400  0.05739200  0.18873400  1
  O  O16  1  0.94174100  0.31962900  0.12610500  1
  O  O17  1  0.87375400  0.11423600  0.77641400  1
loop_
_geom_bond_atom_site_label_1
_geom_bond_atom_site_label_2
_geom_bond_distance
_geom_bond_site_symmetry_2
Mg0 O16 1.965791 1_555
Mg0 O12 2.006230 1_555
Mg0 O17 2.039620 1_554
Mg0 O8 2.196580 1_545
Mg0 O13 2.377726 1_554
O0 W2 1.860735 1_565
O0 Sr4 2.421700 1_555
O0 Sr5 2.647262 1_465
O1 W0 1.879951 1_455
O1 Sr1 2.543436 1_555
O1 Sr0 2.692921 1_555
O1 Sr4 2.789557 1_556
O2 W0 2.044487 1_555
O2 W3 2.155516 1_555
O2 Sr3 2.567913 1_565
O2 Sr5 2.794678 1_565
O2 Sr2 2.838881 1_556
O3 W1 1.860413 1_555
O3 Sr0 2.552727 1_555
O3 Sr2 2.695837 1_555
O4 W1 2.033942 1_555
O4 W2 2.161244 1_555
O4 Sr1 2.404468 1_555
O4 Sr4 2.956569 1_555
O5 W1 2.079631 1_555
O5 W2 2.146205 1_555
O5 Sr4 2.451087 1_555
O5 Sr3 2.460791 1_554
O6 W3 1.876296 1_555
O6 Sr0 2.621139 1_555
O6 Sr3 2.647879 1_555
O6 Sr2 2.735813 1_556
O7 W3 1.853526 1_555
O7 Sr2 2.522385 1_555
O7 Sr5 2.745425 1_565
O7 Sr0 2.747309 1_555
O8 W0 1.976509 1_554
O8 Sr5 2.566600 1_565
O8 Sr2 2.877947 1_555
O8 Sr4 2.943359 1_655
O9 W2 1.949159 1_556
O9 Sr0 2.489392 1_545
O9 Sr1 2.562096 1_555
O9 Sr3 2.589473 1_555
O10 W1 1.849575 1_555
O10 Sr3 2.475595 1_555
O10 Sr0 2.841539 1_545
O10 Sr5 2.936912 1_555
O11 W3 2.064521 1_555
O11 W0 2.219262 1_555
O11 Sr5 2.582565 1_565
O11 Sr4 2.625063 1_655
O11 Sr1 2.928683 1_655
O12 W1 1.921663 1_555
O12 Sr2 2.720717 1_555
O12 Sr3 2.732388 1_554
O13 W3 2.128219 1_555
O13 W0 2.198020 1_555
O13 Sr2 2.574769 1_556
O13 Sr1 2.636608 1_655
O14 W3 1.822084 1_555
O14 Sr5 2.450622 1_555
O14 Sr3 2.817638 1_555
O15 W1 2.099354 1_555
O15 W2 2.099524 1_555
O15 Sr2 2.430255 1_545
O15 Sr3 2.842189 1_554
O16 W2 2.014611 1_655
O16 Sr4 2.562240 1_655
O16 Sr1 2.810895 1_654
O17 W0 1.962261 1_545
O17 Sr1 2.455458 1_655
O17 Sr5 2.904483 1_555
