# generated using pymatgen
data_Sr5Re3BrO15
_symmetry_space_group_name_H-M   'P 1'
_cell_length_a   7.55465700
_cell_length_b   10.75396500
_cell_length_c   18.81928000
_cell_angle_alpha   90.00000000
_cell_angle_beta   90.00000000
_cell_angle_gamma   90.00000000
_symmetry_Int_Tables_number   1
_chemical_formula_structural   Sr5Re3BrO15
_chemical_formula_sum   'Sr20 Re12 Br4 O60'
_cell_volume   1528.92567467
_cell_formula_units_Z   4
loop_
 _symmetry_equiv_pos_site_id
 _symmetry_equiv_pos_as_xyz
  1  'x, y, z'
loop_
 _atom_site_type_symbol
 _atom_site_label
 _atom_site_symmetry_multiplicity
 _atom_site_fract_x
 _atom_site_fract_y
 _atom_site_fract_z
 _atom_site_occupancy
  Sr  Sr0  1  0.25931300  0.38837400  0.10778300  1
  Sr  Sr1  1  0.74068700  0.61162600  0.89221700  1
  Sr  Sr2  1  0.24068700  0.88837400  0.89221700  1
  Sr  Sr3  1  0.74068700  0.61162600  0.60778300  1
  Sr  Sr4  1  0.75931300  0.11162600  0.10778300  1
  Sr  Sr5  1  0.25931300  0.38837400  0.39221700  1
  Sr  Sr6  1  0.75931300  0.11162600  0.39221700  1
  Sr  Sr7  1  0.24068700  0.88837400  0.60778300  1
  Sr  Sr8  1  0.28048900  0.48478200  0.75000000  1
  Sr  Sr9  1  0.71951100  0.51521800  0.25000000  1
  Sr  Sr10  1  0.21951100  0.98478200  0.25000000  1
  Sr  Sr11  1  0.78048900  0.01521800  0.75000000  1
  Sr  Sr12  1  0.00060900  0.25373300  0.58499500  1
  Sr  Sr13  1  0.99939100  0.74626700  0.41500500  1
  Sr  Sr14  1  0.49939100  0.75373300  0.41500500  1
  Sr  Sr15  1  0.99939100  0.74626700  0.08499500  1
  Sr  Sr16  1  0.50060900  0.24626700  0.58499500  1
  Sr  Sr17  1  0.00060900  0.25373300  0.91500500  1
  Sr  Sr18  1  0.50060900  0.24626700  0.91500500  1
  Sr  Sr19  1  0.49939100  0.75373300  0.08499500  1
  Re  Re0  1  0.22023800  0.14648300  0.75000000  1
  Re  Re1  1  0.77976200  0.85351700  0.25000000  1
  Re  Re2  1  0.27976200  0.64648300  0.25000000  1
  Re  Re3  1  0.72023800  0.35351700  0.75000000  1
  Re  Re4  1  0.20730700  0.55878800  0.55705000  1
  Re  Re5  1  0.79269300  0.44121200  0.44295000  1
  Re  Re6  1  0.29269300  0.05878800  0.44295000  1
  Re  Re7  1  0.79269300  0.44121200  0.05705000  1
  Re  Re8  1  0.70730700  0.94121200  0.55705000  1
  Re  Re9  1  0.20730700  0.55878800  0.94295000  1
  Re  Re10  1  0.70730700  0.94121200  0.94295000  1
  Re  Re11  1  0.29269300  0.05878800  0.05705000  1
  Br  Br0  1  0.11913000  0.75642900  0.75000000  1
  Br  Br1  1  0.88087000  0.24357100  0.25000000  1
  Br  Br2  1  0.38087000  0.25642900  0.25000000  1
  Br  Br3  1  0.61913000  0.74357100  0.75000000  1
  O  O0  1  0.12572100  0.11004900  0.11610400  1
  O  O1  1  0.87427900  0.88995100  0.88389600  1
  O  O2  1  0.37427900  0.61004900  0.88389600  1
  O  O3  1  0.87427900  0.88995100  0.61610400  1
  O  O4  1  0.62572100  0.38995100  0.11610400  1
  O  O5  1  0.12572100  0.11004900  0.38389600  1
  O  O6  1  0.62572100  0.38995100  0.38389600  1
  O  O7  1  0.37427900  0.61004900  0.61610400  1
  O  O8  1  0.22654300  0.09987600  0.53522400  1
  O  O9  1  0.77345700  0.90012400  0.46477600  1
  O  O10  1  0.27345700  0.59987600  0.46477600  1
  O  O11  1  0.77345700  0.90012400  0.03522400  1
  O  O12  1  0.72654300  0.40012400  0.53522400  1
  O  O13  1  0.22654300  0.09987600  0.96477600  1
  O  O14  1  0.72654300  0.40012400  0.96477600  1
  O  O15  1  0.27345700  0.59987600  0.03522400  1
  O  O16  1  0.41751900  0.06107700  0.75000000  1
  O  O17  1  0.58248100  0.93892300  0.25000000  1
  O  O18  1  0.08248100  0.56107700  0.25000000  1
  O  O19  1  0.91751900  0.43892300  0.75000000  1
  O  O20  1  0.25082100  0.27318400  0.68279900  1
  O  O21  1  0.74917900  0.72681600  0.31720100  1
  O  O22  1  0.24917900  0.77318400  0.31720100  1
  O  O23  1  0.74917900  0.72681600  0.18279900  1
  O  O24  1  0.75082100  0.22681600  0.68279900  1
  O  O25  1  0.25082100  0.27318400  0.81720100  1
  O  O26  1  0.75082100  0.22681600  0.81720100  1
  O  O27  1  0.24917900  0.77318400  0.18279900  1
  O  O28  1  0.03886500  0.48908700  0.61545600  1
  O  O29  1  0.96113500  0.51091300  0.38454400  1
  O  O30  1  0.46113500  0.98908700  0.38454400  1
  O  O31  1  0.96113500  0.51091300  0.11545500  1
  O  O32  1  0.53886500  0.01091300  0.61545600  1
  O  O33  1  0.03886500  0.48908700  0.88454400  1
  O  O34  1  0.53886500  0.01091300  0.88454400  1
  O  O35  1  0.46113500  0.98908700  0.11545500  1
  O  O36  1  0.05514300  0.69367900  0.55128300  1
  O  O37  1  0.94485700  0.30632100  0.44871700  1
  O  O38  1  0.44485700  0.19367900  0.44871700  1
  O  O39  1  0.94485700  0.30632100  0.05128300  1
  O  O40  1  0.55514300  0.80632100  0.55128300  1
  O  O41  1  0.05514300  0.69367900  0.94871700  1
  O  O42  1  0.55514300  0.80632100  0.94871700  1
  O  O43  1  0.44485700  0.19367900  0.05128300  1
  O  O44  1  0.07805900  0.07124600  0.68248400  1
  O  O45  1  0.92194100  0.92875400  0.31751600  1
  O  O46  1  0.42194100  0.57124600  0.31751600  1
  O  O47  1  0.92194100  0.92875400  0.18248400  1
  O  O48  1  0.57805900  0.42875400  0.68248400  1
  O  O49  1  0.07805900  0.07124600  0.81751600  1
  O  O50  1  0.57805900  0.42875400  0.81751600  1
  O  O51  1  0.42194100  0.57124600  0.18248400  1
  O  O52  1  0.26390000  0.39649300  0.53136700  1
  O  O53  1  0.73610000  0.60350700  0.46863300  1
  O  O54  1  0.23610000  0.89649300  0.46863300  1
  O  O55  1  0.73610000  0.60350700  0.03136700  1
  O  O56  1  0.76390000  0.10350700  0.53136700  1
  O  O57  1  0.26390000  0.39649300  0.96863300  1
  O  O58  1  0.76390000  0.10350700  0.96863300  1
  O  O59  1  0.23610000  0.89649300  0.03136700  1
loop_
_geom_bond_atom_site_label_1
_geom_bond_atom_site_label_2
_geom_bond_distance
_geom_bond_site_symmetry_2
Br0 Sr8 3.165419 1_555
Br0 Sr2 3.165425 1_555
Br0 Sr7 3.165425 1_555
Br1 Sr9 3.165419 1_555
Br1 Sr6 3.165425 1_555
Br1 Sr4 3.165425 1_555
Br2 Sr10 3.165419 1_545
Br2 Sr5 3.165425 1_555
Br2 Sr0 3.165425 1_555
Br3 Sr11 3.165419 1_565
Br3 Sr1 3.165425 1_555
Br3 Sr3 3.165425 1_555
O0 Re11 1.769227 1_555
O0 Sr4 2.772565 1_455
O0 Sr10 2.943857 1_545
O0 Sr0 3.162550 1_555
O1 Re10 1.769227 1_555
O1 Sr2 2.772565 1_655
O1 Sr11 2.943857 1_565
O1 Sr1 3.162550 1_555
O2 Re9 1.769227 1_555
O2 Sr1 2.772565 1_555
O2 Sr8 2.943857 1_555
O2 Sr2 3.162550 1_555
O3 Re8 1.769227 1_555
O3 Sr7 2.772565 1_655
O3 Sr11 2.943857 1_565
O3 Sr3 3.162550 1_555
O4 Re7 1.769227 1_555
O4 Sr0 2.772565 1_555
O4 Sr9 2.943857 1_555
O4 Sr4 3.162550 1_555
O5 Re6 1.769227 1_555
O5 Sr6 2.772565 1_455
O5 Sr10 2.943857 1_545
O5 Sr5 3.162550 1_555
O6 Re5 1.769227 1_555
O6 Sr5 2.772565 1_555
O6 Sr9 2.943857 1_555
O6 Sr6 3.162550 1_555
O7 Re4 1.769227 1_555
O7 Sr3 2.772565 1_555
O7 Sr8 2.943857 1_555
O7 Sr7 3.162550 1_555
O8 Re6 1.860247 1_555
O8 Sr12 2.555050 1_555
O8 Sr7 2.655054 1_545
O8 Sr16 2.764517 1_555
O9 Re8 1.860247 1_555
O9 Sr13 2.555050 1_555
O9 Sr6 2.655054 1_565
O9 Sr14 2.764517 1_555
O10 Re4 1.860247 1_555
O10 Sr14 2.555050 1_555
O10 Sr5 2.655054 1_555
O10 Sr13 2.764517 1_455
O11 Re10 1.860247 1_554
O11 Sr15 2.555050 1_555
O11 Sr4 2.655054 1_565
O11 Sr19 2.764517 1_555
O12 Re5 1.860247 1_555
O12 Sr16 2.555050 1_555
O12 Sr3 2.655054 1_555
O12 Sr12 2.764517 1_655
O13 Re11 1.860247 1_556
O13 Sr17 2.555050 1_555
O13 Sr2 2.655054 1_545
O13 Sr18 2.764517 1_555
O14 Re7 1.860247 1_556
O14 Sr18 2.555050 1_555
O14 Sr1 2.655054 1_555
O14 Sr17 2.764517 1_655
O15 Re9 1.860247 1_554
O15 Sr19 2.555050 1_555
O15 Sr0 2.655054 1_555
O15 Sr15 2.764517 1_455
O16 Re0 1.750663 1_555
O16 Sr11 2.786109 1_555
O17 Re1 1.750663 1_555
O17 Sr10 2.786109 1_555
O18 Re2 1.750663 1_555
O18 Sr9 2.786109 1_455
O19 Re3 1.750663 1_555
O19 Sr8 2.786109 1_655
O20 Re0 1.873311 1_555
O20 Sr8 2.612971 1_555
O20 Sr12 2.646634 1_555
O20 Sr16 2.651906 1_555
O21 Re1 1.873311 1_555
O21 Sr9 2.612971 1_555
O21 Sr13 2.646634 1_555
O21 Sr14 2.651906 1_555
O22 Re2 1.873311 1_555
O22 Sr10 2.612971 1_555
O22 Sr14 2.646634 1_555
O22 Sr13 2.651906 1_455
O23 Re1 1.873311 1_555
O23 Sr9 2.612971 1_555
O23 Sr15 2.646634 1_555
O23 Sr19 2.651906 1_555
O24 Re3 1.873311 1_555
O24 Sr11 2.612971 1_555
O24 Sr16 2.646634 1_555
O24 Sr12 2.651906 1_655
O25 Re0 1.873311 1_555
O25 Sr8 2.612971 1_555
O25 Sr17 2.646634 1_555
O25 Sr18 2.651906 1_555
O26 Re3 1.873311 1_555
O26 Sr11 2.612971 1_555
O26 Sr18 2.646634 1_555
O26 Sr17 2.651906 1_655
O27 Re2 1.873311 1_555
O27 Sr10 2.612971 1_555
O27 Sr19 2.646634 1_555
O27 Sr15 2.651906 1_455
O28 Re4 1.841006 1_555
O28 Sr12 2.611140 1_555
O28 Sr3 2.613761 1_455
O28 Sr8 3.121748 1_555
O29 Re5 1.841006 1_555
O29 Sr13 2.611140 1_555
O29 Sr5 2.613761 1_655
O29 Sr9 3.121748 1_555
O30 Re6 1.841006 1_565
O30 Sr14 2.611140 1_555
O30 Sr6 2.613761 1_565
O30 Sr10 3.121748 1_555
O31 Re7 1.840995 1_555
O31 Sr15 2.611136 1_555
O31 Sr0 2.613760 1_655
O31 Sr9 3.121763 1_555
O32 Re8 1.841006 1_545
O32 Sr16 2.611140 1_555
O32 Sr7 2.613761 1_545
O32 Sr11 3.121748 1_555
O33 Re9 1.841006 1_555
O33 Sr17 2.611140 1_555
O33 Sr1 2.613761 1_455
O33 Sr8 3.121748 1_555
O34 Re10 1.841006 1_545
O34 Sr18 2.611140 1_555
O34 Sr2 2.613761 1_545
O34 Sr11 3.121748 1_555
O35 Re11 1.840995 1_565
O35 Sr19 2.611136 1_555
O35 Sr4 2.613760 1_565
O35 Sr10 3.121763 1_555
O36 Re4 1.854054 1_555
O36 Sr13 2.659825 1_455
O36 Sr7 2.734807 1_555
O36 Sr3 2.748220 1_455
O37 Re5 1.854054 1_555
O37 Sr12 2.659825 1_655
O37 Sr6 2.734807 1_555
O37 Sr5 2.748220 1_655
O38 Re6 1.854054 1_555
O38 Sr16 2.659825 1_555
O38 Sr5 2.734807 1_555
O38 Sr6 2.748220 1_555
O39 Re7 1.854054 1_555
O39 Sr17 2.659825 1_654
O39 Sr4 2.734807 1_555
O39 Sr0 2.748220 1_655
O40 Re8 1.854054 1_555
O40 Sr14 2.659825 1_555
O40 Sr3 2.734807 1_555
O40 Sr7 2.748220 1_555
O41 Re9 1.854054 1_555
O41 Sr15 2.659825 1_456
O41 Sr2 2.734807 1_555
O41 Sr1 2.748220 1_455
O42 Re10 1.854054 1_555
O42 Sr19 2.659825 1_556
O42 Sr1 2.734807 1_555
O42 Sr2 2.748220 1_555
O43 Re11 1.854054 1_555
O43 Sr18 2.659825 1_554
O43 Sr0 2.734807 1_555
O43 Sr4 2.748220 1_555
O44 Re0 1.850078 1_555
O44 Sr11 2.651631 1_455
O44 Sr7 2.711696 1_545
O44 Sr12 2.749476 1_555
O45 Re1 1.850078 1_555
O45 Sr10 2.651631 1_655
O45 Sr6 2.711696 1_565
O45 Sr13 2.749476 1_555
O46 Re2 1.850078 1_555
O46 Sr9 2.651631 1_555
O46 Sr5 2.711696 1_555
O46 Sr14 2.749476 1_555
O47 Re1 1.850078 1_555
O47 Sr10 2.651631 1_655
O47 Sr4 2.711696 1_565
O47 Sr15 2.749476 1_555
O48 Re3 1.850078 1_555
O48 Sr8 2.651631 1_555
O48 Sr3 2.711696 1_555
O48 Sr16 2.749476 1_555
O49 Re0 1.850078 1_555
O49 Sr11 2.651631 1_455
O49 Sr2 2.711696 1_545
O49 Sr17 2.749476 1_555
O50 Re3 1.850078 1_555
O50 Sr8 2.651631 1_555
O50 Sr1 2.711696 1_555
O50 Sr18 2.749476 1_555
O51 Re2 1.850078 1_555
O51 Sr9 2.651631 1_555
O51 Sr0 2.711696 1_555
O51 Sr19 2.749476 1_555
O52 Re4 1.860787 1_555
O52 Sr16 2.612727 1_555
O52 Sr5 2.620387 1_555
O52 Sr12 2.707753 1_555
O53 Re5 1.860787 1_555
O53 Sr14 2.612727 1_555
O53 Sr3 2.620387 1_555
O53 Sr13 2.707753 1_555
O54 Re6 1.860787 1_565
O54 Sr13 2.612727 1_455
O54 Sr7 2.620387 1_555
O54 Sr14 2.707753 1_555
O55 Re7 1.860787 1_555
O55 Sr19 2.612727 1_555
O55 Sr1 2.620387 1_554
O55 Sr15 2.707753 1_555
O56 Re8 1.860787 1_545
O56 Sr12 2.612727 1_655
O56 Sr6 2.620387 1_555
O56 Sr16 2.707753 1_555
O57 Re9 1.860787 1_555
O57 Sr18 2.612727 1_555
O57 Sr0 2.620387 1_556
O57 Sr17 2.707753 1_555
O58 Re10 1.860787 1_545
O58 Sr17 2.612727 1_655
O58 Sr4 2.620387 1_556
O58 Sr18 2.707753 1_555
O59 Re11 1.860787 1_565
O59 Sr15 2.612727 1_455
O59 Sr2 2.620387 1_554
O59 Sr19 2.707753 1_555
