# generated using pymatgen
data_Ti4S24Cl6O
_symmetry_space_group_name_H-M   'P 1'
_cell_length_a   9.66376030
_cell_length_b   28.79859035
_cell_length_c   14.13436205
_cell_angle_alpha   90.00000000
_cell_angle_beta   90.00000000
_cell_angle_gamma   90.00000000
_symmetry_Int_Tables_number   1
_chemical_formula_structural   Ti4S24Cl6O
_chemical_formula_sum   'Ti16 S96 Cl24 O4'
_cell_volume   3933.63075550
_cell_formula_units_Z   4
loop_
 _symmetry_equiv_pos_site_id
 _symmetry_equiv_pos_as_xyz
  1  'x, y, z'
loop_
 _atom_site_type_symbol
 _atom_site_label
 _atom_site_symmetry_multiplicity
 _atom_site_fract_x
 _atom_site_fract_y
 _atom_site_fract_z
 _atom_site_occupancy
  Ti  Ti0  1  0.51015601  0.55340065  0.72480935  1
  Ti  Ti1  1  0.48984399  0.44659935  0.27519065  1
  Ti  Ti2  1  0.98984399  0.94659935  0.22480935  1
  Ti  Ti3  1  0.51015601  0.44659935  0.77519065  1
  Ti  Ti4  1  0.01015601  0.05340065  0.77519065  1
  Ti  Ti5  1  0.48984399  0.55340065  0.22480935  1
  Ti  Ti6  1  0.98984399  0.05340065  0.27519065  1
  Ti  Ti7  1  0.01015601  0.94659935  0.72480935  1
  Ti  Ti8  1  0.74482436  0.97153177  0.84500263  1
  Ti  Ti9  1  0.25517564  0.02846823  0.15499737  1
  Ti  Ti10  1  0.75517564  0.52846823  0.34500263  1
  Ti  Ti11  1  0.74482436  0.02846823  0.65499737  1
  Ti  Ti12  1  0.24482436  0.47153177  0.65499737  1
  Ti  Ti13  1  0.25517564  0.97153177  0.34500263  1
  Ti  Ti14  1  0.75517564  0.47153177  0.15499737  1
  Ti  Ti15  1  0.24482436  0.52846823  0.84500263  1
  S  S0  1  0.95286206  0.65787325  0.82818878  1
  S  S1  1  0.04713794  0.34212675  0.17181122  1
  S  S2  1  0.54713794  0.84212675  0.32818878  1
  S  S3  1  0.95286206  0.34212675  0.67181122  1
  S  S4  1  0.45286206  0.15787325  0.67181122  1
  S  S5  1  0.04713794  0.65787325  0.32818878  1
  S  S6  1  0.54713794  0.15787325  0.17181122  1
  S  S7  1  0.45286206  0.84212675  0.82818878  1
  S  S8  1  0.82502039  0.62844403  0.92813323  1
  S  S9  1  0.17497961  0.37155597  0.07186677  1
  S  S10  1  0.67497961  0.87155597  0.42813323  1
  S  S11  1  0.82502039  0.37155597  0.57186677  1
  S  S12  1  0.32502039  0.12844403  0.57186677  1
  S  S13  1  0.17497961  0.62844403  0.42813323  1
  S  S14  1  0.67497961  0.12844403  0.07186677  1
  S  S15  1  0.32502039  0.87155597  0.92813323  1
  S  S16  1  0.94636168  0.91774632  0.87905435  1
  S  S17  1  0.05363832  0.08225368  0.12094565  1
  S  S18  1  0.55363832  0.58225368  0.37905435  1
  S  S19  1  0.94636168  0.08225368  0.62094565  1
  S  S20  1  0.44636168  0.41774632  0.62094565  1
  S  S21  1  0.05363832  0.91774632  0.37905435  1
  S  S22  1  0.55363832  0.41774632  0.12094565  1
  S  S23  1  0.44636168  0.58225368  0.87905435  1
  S  S24  1  0.86643507  0.71919106  0.78121335  1
  S  S25  1  0.13356493  0.28080894  0.21878665  1
  S  S26  1  0.63356493  0.78080894  0.28121335  1
  S  S27  1  0.86643507  0.28080894  0.71878665  1
  S  S28  1  0.36643507  0.21919106  0.71878665  1
  S  S29  1  0.13356493  0.71919106  0.28121335  1
  S  S30  1  0.63356493  0.21919106  0.21878665  1
  S  S31  1  0.36643507  0.78080894  0.78121335  1
  S  S32  1  0.59898920  0.85535986  0.56043932  1
  S  S33  1  0.40101080  0.14464014  0.43956068  1
  S  S34  1  0.90101080  0.64464014  0.06043932  1
  S  S35  1  0.59898920  0.14464014  0.93956068  1
  S  S36  1  0.09898920  0.35535986  0.93956068  1
  S  S37  1  0.40101080  0.85535986  0.06043932  1
  S  S38  1  0.90101080  0.35535986  0.43956068  1
  S  S39  1  0.09898920  0.64464014  0.56043932  1
  S  S40  1  0.57650739  0.96806638  0.71843984  1
  S  S41  1  0.42349261  0.03193362  0.28156016  1
  S  S42  1  0.92349261  0.53193362  0.21843984  1
  S  S43  1  0.57650739  0.03193362  0.78156016  1
  S  S44  1  0.07650739  0.46806638  0.78156016  1
  S  S45  1  0.42349261  0.96806638  0.21843984  1
  S  S46  1  0.92349261  0.46806638  0.28156016  1
  S  S47  1  0.07650739  0.53193362  0.71843984  1
  S  S48  1  0.59597413  0.73916487  0.58569543  1
  S  S49  1  0.40402587  0.26083513  0.41430457  1
  S  S50  1  0.90402587  0.76083513  0.08569543  1
  S  S51  1  0.59597413  0.26083513  0.91430457  1
  S  S52  1  0.09597413  0.23916487  0.91430457  1
  S  S53  1  0.40402587  0.73916487  0.08569543  1
  S  S54  1  0.90402587  0.23916487  0.41430457  1
  S  S55  1  0.09597413  0.76083513  0.58569543  1
  S  S56  1  0.67701095  0.51097287  0.81882454  1
  S  S57  1  0.32298905  0.48902713  0.18117546  1
  S  S58  1  0.82298905  0.98902713  0.31882454  1
  S  S59  1  0.67701095  0.48902713  0.68117546  1
  S  S60  1  0.17701095  0.01097287  0.68117546  1
  S  S61  1  0.32298905  0.51097287  0.31882454  1
  S  S62  1  0.82298905  0.01097287  0.18117546  1
  S  S63  1  0.17701095  0.98902713  0.81882454  1
  S  S64  1  0.80803372  0.89728351  0.77786764  1
  S  S65  1  0.19196628  0.10271649  0.22213236  1
  S  S66  1  0.69196628  0.60271649  0.27786764  1
  S  S67  1  0.80803372  0.10271649  0.72213236  1
  S  S68  1  0.30803372  0.39728351  0.72213236  1
  S  S69  1  0.19196628  0.89728351  0.27786764  1
  S  S70  1  0.69196628  0.39728351  0.22213236  1
  S  S71  1  0.30803372  0.60271649  0.77786764  1
  S  S72  1  0.82778305  0.79190110  0.96522512  1
  S  S73  1  0.17221695  0.20809890  0.03477488  1
  S  S74  1  0.67221695  0.70809890  0.46522512  1
  S  S75  1  0.82778305  0.20809890  0.53477488  1
  S  S76  1  0.32778305  0.29190110  0.53477488  1
  S  S77  1  0.17221695  0.79190110  0.46522512  1
  S  S78  1  0.67221695  0.29190110  0.03477488  1
  S  S79  1  0.32778305  0.70809890  0.96522512  1
  S  S80  1  0.70632294  0.79900857  0.61264138  1
  S  S81  1  0.29367706  0.20099143  0.38735862  1
  S  S82  1  0.79367706  0.70099143  0.11264138  1
  S  S83  1  0.70632294  0.20099143  0.88735862  1
  S  S84  1  0.20632294  0.29900857  0.88735862  1
  S  S85  1  0.29367706  0.79900857  0.11264138  1
  S  S86  1  0.79367706  0.29900857  0.38735862  1
  S  S87  1  0.20632294  0.70099143  0.61264138  1
  S  S88  1  0.95332235  0.77430601  0.85295397  1
  S  S89  1  0.04667765  0.22569399  0.14704603  1
  S  S90  1  0.54667765  0.72569399  0.35295397  1
  S  S91  1  0.95332235  0.22569399  0.64704603  1
  S  S92  1  0.45332235  0.27430601  0.64704603  1
  S  S93  1  0.04667765  0.77430601  0.35295397  1
  S  S94  1  0.54667765  0.27430601  0.14704603  1
  S  S95  1  0.45332235  0.72569399  0.85295397  1
  Cl  Cl0  1  0.62406518  0.95145638  0.97279817  1
  Cl  Cl1  1  0.37593482  0.04854362  0.02720183  1
  Cl  Cl2  1  0.87593482  0.54854362  0.47279817  1
  Cl  Cl3  1  0.62406518  0.04854362  0.52720183  1
  Cl  Cl4  1  0.12406518  0.45145638  0.52720183  1
  Cl  Cl5  1  0.37593482  0.95145638  0.47279817  1
  Cl  Cl6  1  0.87593482  0.45145638  0.02720183  1
  Cl  Cl7  1  0.12406518  0.54854362  0.97279817  1
  Cl  Cl8  1  0.87495666  0.96244667  0.57126692  1
  Cl  Cl9  1  0.12504334  0.03755333  0.42873308  1
  Cl  Cl10  1  0.62504334  0.53755333  0.07126692  1
  Cl  Cl11  1  0.87495666  0.03755333  0.92873308  1
  Cl  Cl12  1  0.37495666  0.46244667  0.92873308  1
  Cl  Cl13  1  0.12504334  0.96244667  0.07126692  1
  Cl  Cl14  1  0.62504334  0.46244667  0.42873308  1
  Cl  Cl15  1  0.37495666  0.53755333  0.57126692  1
  Cl  Cl16  1  0.63740659  0.61134093  0.66636815  1
  Cl  Cl17  1  0.36259341  0.38865907  0.33363185  1
  Cl  Cl18  1  0.86259341  0.88865907  0.16636815  1
  Cl  Cl19  1  0.63740659  0.38865907  0.83363185  1
  Cl  Cl20  1  0.13740659  0.11134093  0.83363185  1
  Cl  Cl21  1  0.36259341  0.61134093  0.16636815  1
  Cl  Cl22  1  0.86259341  0.11134093  0.33363185  1
  Cl  Cl23  1  0.13740659  0.88865907  0.66636815  1
  O  O0  1  0.87726511  0.00000000  0.75000000  1
  O  O1  1  0.12273489  0.00000000  0.25000000  1
  O  O2  1  0.62273489  0.50000000  0.25000000  1
  O  O3  1  0.37726511  0.50000000  0.75000000  1
loop_
_geom_bond_atom_site_label_1
_geom_bond_atom_site_label_2
_geom_bond_distance
_geom_bond_site_symmetry_2
S0 S8 2.059166 1_555
S0 S24 2.063180 1_555
S1 S9 2.059166 1_555
S1 S25 2.063180 1_555
S2 S26 2.063180 1_555
S10 S2 2.059166 1_555
S10 S32 2.062513 1_555
S11 S3 2.059166 1_555
S11 S38 2.062513 1_555
S12 S4 2.059166 1_555
S12 S33 2.062513 1_555
S13 S5 2.059166 1_555
S13 S39 2.062513 1_555
S14 S6 2.059166 1_555
S14 S35 2.062513 1_554
S15 S7 2.059166 1_555
S15 S37 2.062513 1_556
S16 S64 2.044437 1_555
S16 Ti7 2.413209 1_655
S16 Ti8 2.534573 1_555
S17 S65 2.044437 1_555
S17 Ti6 2.413209 1_455
S17 Ti9 2.534573 1_555
S18 S66 2.044437 1_555
S18 Ti5 2.413209 1_555
S18 Ti10 2.534573 1_555
S19 S67 2.044437 1_555
S19 Ti4 2.413209 1_655
S19 Ti11 2.534573 1_555
S20 S68 2.044437 1_555
S20 Ti3 2.413209 1_555
S20 Ti12 2.534573 1_555
S21 S69 2.044437 1_555
S21 Ti2 2.413209 1_455
S21 Ti13 2.534573 1_555
S22 S70 2.044437 1_555
S22 Ti1 2.413209 1_555
S22 Ti14 2.534573 1_555
S23 S71 2.044437 1_555
S23 Ti0 2.413209 1_555
S23 Ti15 2.534573 1_555
S24 S88 2.062170 1_555
S25 S89 2.062170 1_555
S26 S90 2.062170 1_555
S27 S91 2.062170 1_555
S27 S3 2.063180 1_555
S28 S92 2.062170 1_555
S28 S4 2.063180 1_555
S29 S93 2.062170 1_555
S29 S5 2.063180 1_555
S30 S94 2.062170 1_555
S30 S6 2.063180 1_555
S31 S95 2.062170 1_555
S31 S7 2.063180 1_555
S32 S80 2.062498 1_555
S33 S81 2.062498 1_555
S34 S82 2.062498 1_555
S34 S8 2.062513 1_554
S35 S83 2.062498 1_555
S36 S84 2.062498 1_555
S36 S9 2.062513 1_556
S37 S85 2.062498 1_555
S38 S86 2.062498 1_555
S39 S87 2.062498 1_555
S40 S43 2.044244 1_565
S40 Ti8 2.419879 1_555
S40 Ti11 2.544734 1_565
S41 S45 2.044244 1_545
S41 Ti9 2.419879 1_555
S41 Ti13 2.544734 1_545
S42 S46 2.044244 1_555
S42 Ti10 2.419879 1_555
S42 Ti14 2.544734 1_555
S43 Ti11 2.419879 1_555
S43 Ti8 2.544734 1_545
S44 S47 2.044244 1_555
S44 Ti12 2.419879 1_555
S44 Ti15 2.544734 1_555
S45 Ti13 2.419879 1_555
S45 Ti9 2.544734 1_565
S46 Ti14 2.419879 1_555
S46 Ti10 2.544734 1_555
S47 Ti15 2.419879 1_555
S47 Ti12 2.544734 1_555
S48 S74 2.059782 1_555
S48 S80 2.062132 1_555
S49 S76 2.059782 1_555
S49 S81 2.062132 1_555
S50 S72 2.059782 1_554
S50 S82 2.062132 1_555
S51 S78 2.059782 1_556
S51 S83 2.062132 1_555
S52 S73 2.059782 1_556
S52 S84 2.062132 1_555
S53 S79 2.059782 1_554
S53 S85 2.062132 1_555
S54 S75 2.059782 1_555
S54 S86 2.062132 1_555
S55 S77 2.059782 1_555
S55 S87 2.062132 1_555
S56 S59 2.045659 1_555
S56 Ti0 2.420486 1_555
S56 Ti3 2.533213 1_555
S57 S61 2.045659 1_555
S57 Ti1 2.420486 1_555
S57 Ti5 2.533213 1_555
S58 S62 2.045659 1_565
S58 Ti2 2.420486 1_555
S58 Ti6 2.533213 1_565
S59 Ti3 2.420486 1_555
S59 Ti0 2.533213 1_555
S60 S63 2.045659 1_545
S60 Ti4 2.420486 1_555
S60 Ti7 2.533213 1_545
S61 Ti5 2.420486 1_555
S61 Ti1 2.533213 1_555
S62 Ti6 2.420486 1_555
S62 Ti2 2.533213 1_545
S63 Ti7 2.420486 1_555
S63 Ti4 2.533213 1_565
S64 Ti8 2.417778 1_555
S64 Ti7 2.528773 1_655
S65 Ti9 2.417778 1_555
S65 Ti6 2.528773 1_455
S66 Ti10 2.417778 1_555
S66 Ti5 2.528773 1_555
S67 Ti11 2.417778 1_555
S67 Ti4 2.528773 1_655
S68 Ti12 2.417778 1_555
S68 Ti3 2.528773 1_555
S69 Ti13 2.417778 1_555
S69 Ti2 2.528773 1_455
S70 Ti14 2.417778 1_555
S70 Ti1 2.528773 1_555
S71 Ti15 2.417778 1_555
S71 Ti0 2.528773 1_555
S72 S88 2.060767 1_555
S73 S89 2.060767 1_555
S74 S90 2.060767 1_555
S75 S91 2.060767 1_555
S76 S92 2.060767 1_555
S77 S93 2.060767 1_555
S78 S94 2.060767 1_555
S79 S95 2.060767 1_555
Cl0 Ti8 2.226850 1_555
Cl1 Ti9 2.226850 1_555
Cl2 Ti10 2.226850 1_555
Cl3 Ti11 2.226850 1_555
Cl4 Ti12 2.226850 1_555
Cl5 Ti13 2.226850 1_555
Cl6 Ti14 2.226850 1_555
Cl7 Ti15 2.226850 1_555
Cl8 Ti11 2.568490 1_565
Cl8 Ti7 2.573944 1_655
Cl9 Ti13 2.568490 1_545
Cl9 Ti6 2.573944 1_455
Cl10 Ti14 2.568490 1_555
Cl10 Ti5 2.573944 1_555
Cl11 Ti8 2.568490 1_545
Cl11 Ti4 2.573944 1_655
Cl12 Ti15 2.568490 1_555
Cl12 Ti3 2.573944 1_555
Cl13 Ti9 2.568490 1_565
Cl13 Ti2 2.573944 1_455
Cl14 Ti10 2.568490 1_555
Cl14 Ti1 2.573944 1_555
Cl15 Ti12 2.568490 1_555
Cl15 Ti0 2.573944 1_555
Cl16 Ti0 2.231312 1_555
Cl17 Ti1 2.231312 1_555
Cl18 Ti2 2.231312 1_555
Cl19 Ti3 2.231312 1_555
Cl20 Ti4 2.231312 1_555
Cl21 Ti5 2.231312 1_555
Cl22 Ti6 2.231312 1_555
Cl23 Ti7 2.231312 1_555
O0 Ti8 2.028138 1_545
O0 Ti11 2.028138 1_555
O0 Ti4 2.034953 1_655
O0 Ti7 2.034953 1_645
O1 Ti13 2.028138 1_545
O1 Ti9 2.028138 1_555
O1 Ti6 2.034953 1_455
O1 Ti2 2.034953 1_445
O2 Ti10 2.028138 1_555
O2 Ti14 2.028138 1_555
O2 Ti1 2.034953 1_555
O2 Ti5 2.034953 1_555
O3 Ti15 2.028138 1_555
O3 Ti12 2.028138 1_555
O3 Ti3 2.034953 1_555
O3 Ti0 2.034953 1_555
