# generated using pymatgen
data_KBaC20
_symmetry_space_group_name_H-M   'P 1'
_cell_length_a   9.83727583
_cell_length_b   9.83727583
_cell_length_c   9.83727583
_cell_angle_alpha   109.98150690
_cell_angle_beta   109.35574549
_cell_angle_gamma   109.07773533
_symmetry_Int_Tables_number   1
_chemical_formula_structural   KBaC20
_chemical_formula_sum   'K3 Ba3 C60'
_cell_volume   732.78110105
_cell_formula_units_Z   3
loop_
 _symmetry_equiv_pos_site_id
 _symmetry_equiv_pos_as_xyz
  1  'x, y, z'
loop_
 _atom_site_type_symbol
 _atom_site_label
 _atom_site_symmetry_multiplicity
 _atom_site_fract_x
 _atom_site_fract_y
 _atom_site_fract_z
 _atom_site_occupancy
  K  K0  1  0.22281000  0.72281000  0.50000000  1
  K  K1  1  0.49543400  0.78087000  0.28543500  1
  K  K2  1  0.49543400  0.20999900  0.71456500  1
  Ba  Ba0  1  0.71564600  0.50252000  0.21312700  1
  Ba  Ba1  1  0.28939300  0.50252000  0.78687300  1
  Ba  Ba2  1  0.77692700  0.27692700  0.50000000  1
  C  C0  1  0.62880800  0.93669900  0.69211000  1
  C  C1  1  0.24458900  0.93669900  0.30789000  1
  C  C2  1  0.37171700  0.06286100  0.30885600  1
  C  C3  1  0.75400600  0.06286100  0.69114400  1
  C  C4  1  0.30853800  0.24482200  0.93628400  1
  C  C5  1  0.69059900  0.62659600  0.93599700  1
  C  C6  1  0.69059900  0.75460200  0.06400300  1
  C  C7  1  0.30853800  0.37225400  0.06371600  1
  C  C8  1  0.06361100  0.31170300  0.37488100  1
  C  C9  1  0.06361100  0.68873000  0.75190800  1
  C  C10  1  0.93682200  0.68873000  0.62511900  1
  C  C11  1  0.93682200  0.31170300  0.24809200  1
  C  C12  1  0.70843700  0.73093500  0.56589100  1
  C  C13  1  0.16504400  0.14254600  0.43410900  1
  C  C14  1  0.29130800  0.85719900  0.02252500  1
  C  C15  1  0.83467300  0.26878300  0.97747500  1
  C  C16  1  0.43318500  0.16419300  0.14125100  1
  C  C17  1  0.56716300  0.70787400  0.73145200  1
  C  C18  1  0.97642100  0.83571100  0.26854800  1
  C  C19  1  0.02294200  0.29193500  0.85874900  1
  C  C20  1  0.85923800  0.02591600  0.29335300  1
  C  C21  1  0.26737400  0.97414200  0.83326100  1
  C  C22  1  0.73256300  0.56588500  0.70664700  1
  C  C23  1  0.14088100  0.43411200  0.16673800  1
  C  C24  1  0.29130800  0.26878300  0.43411000  1
  C  C25  1  0.83467300  0.85719900  0.56589000  1
  C  C26  1  0.70843700  0.14254600  0.97750200  1
  C  C27  1  0.16504400  0.73093500  0.02249800  1
  C  C28  1  0.56716300  0.83571100  0.85928900  1
  C  C29  1  0.43318500  0.29193500  0.26899200  1
  C  C30  1  0.02294200  0.16419300  0.73100800  1
  C  C31  1  0.97642100  0.70787400  0.14071100  1
  C  C32  1  0.14088100  0.97414200  0.70676800  1
  C  C33  1  0.73256300  0.02591600  0.16667800  1
  C  C34  1  0.26737400  0.43411200  0.29323200  1
  C  C35  1  0.85923800  0.56588500  0.83332200  1
  C  C36  1  0.60507600  0.76985700  0.62777900  1
  C  C37  1  0.14207900  0.97729700  0.37222100  1
  C  C38  1  0.39608600  0.02247700  0.16568800  1
  C  C39  1  0.85678900  0.23039700  0.83431200  1
  C  C40  1  0.37156200  0.14056000  0.97552300  1
  C  C41  1  0.62875300  0.60418600  0.76937300  1
  C  C42  1  0.83481300  0.85938000  0.23062700  1
  C  C43  1  0.16503600  0.39603900  0.02447700  1
  C  C44  1  0.02397800  0.16859700  0.39838600  1
  C  C45  1  0.22940700  0.83203200  0.85590600  1
  C  C46  1  0.77021100  0.62559200  0.60161400  1
  C  C47  1  0.97612600  0.37350100  0.14409400  1
  C  C48  1  0.39608600  0.23039700  0.37360800  1
  C  C49  1  0.85678900  0.02247700  0.62639200  1
  C  C50  1  0.60507600  0.97729700  0.83521900  1
  C  C51  1  0.14207900  0.76985700  0.16478100  1
  C  C52  1  0.62875300  0.85938000  0.02456700  1
  C  C53  1  0.37156200  0.39603900  0.23100200  1
  C  C54  1  0.16503600  0.14056000  0.76899800  1
  C  C55  1  0.83481300  0.60418600  0.97543300  1
  C  C56  1  0.97612600  0.83203200  0.60262500  1
  C  C57  1  0.77021100  0.16859700  0.14461900  1
  C  C58  1  0.22940700  0.37350100  0.39737500  1
  C  C59  1  0.02397800  0.62559200  0.85538100  1
loop_
_geom_bond_atom_site_label_1
_geom_bond_atom_site_label_2
_geom_bond_distance
_geom_bond_site_symmetry_2
Ba0 C18 3.158554 1_555
Ba0 C31 3.158554 1_555
Ba0 C29 3.215866 1_555
Ba0 C16 3.215872 1_555
Ba0 C42 3.238935 1_555
Ba0 C55 3.238940 1_554
Ba0 C53 3.284512 1_555
Ba0 C40 3.284517 1_554
Ba0 C10 3.315242 1_555
Ba0 C11 3.315250 1_555
Ba0 C6 3.317853 1_555
Ba0 C5 3.317856 1_554
Ba0 C7 3.361140 1_555
Ba0 C4 3.361142 1_554
Ba0 C56 3.365757 1_555
Ba0 C47 3.365765 1_555
Ba0 C46 3.378196 1_555
Ba0 C57 3.378204 1_555
Ba0 C25 3.456613 1_555
Ba0 C15 3.456618 1_554
Ba0 C12 3.469104 1_555
Ba0 C26 3.469115 1_554
Ba1 C17 3.158554 1_555
Ba1 C28 3.158554 1_555
Ba1 C19 3.215872 1_555
Ba1 C30 3.215877 1_555
Ba1 C41 3.238936 1_555
Ba1 C52 3.238936 1_556
Ba1 C54 3.284521 1_555
Ba1 C43 3.284526 1_556
Ba1 C9 3.315242 1_555
Ba1 C8 3.315242 1_555
Ba1 C6 3.317855 1_556
Ba1 C5 3.317855 1_555
Ba1 C7 3.361149 1_556
Ba1 C4 3.361149 1_555
Ba1 C45 3.365756 1_555
Ba1 C58 3.365756 1_555
Ba1 C59 3.378199 1_555
Ba1 C44 3.378199 1_555
Ba1 C24 3.456611 1_555
Ba1 C14 3.456618 1_556
Ba1 C13 3.469109 1_555
Ba1 C27 3.469109 1_556
Ba2 C33 3.138930 1_555
Ba2 C20 3.138930 1_555
Ba2 C35 3.138930 1_555
Ba2 C22 3.138930 1_555
Ba2 C57 3.258312 1_555
Ba2 C59 3.258312 1_655
Ba2 C44 3.258312 1_655
Ba2 C46 3.258312 1_555
Ba2 C3 3.270753 1_555
Ba2 C2 3.270753 1_555
Ba2 C48 3.345678 1_555
Ba2 C38 3.345682 1_555
Ba2 C49 3.345688 1_555
Ba2 C39 3.345688 1_555
Ba2 C9 3.397566 1_655
Ba2 C10 3.397566 1_555
Ba2 C11 3.397566 1_555
Ba2 C8 3.397566 1_655
Ba2 C19 3.475961 1_655
Ba2 C30 3.475966 1_655
Ba2 C16 3.475966 1_555
Ba2 C29 3.475972 1_555
C0 C3 1.440092 1_565
C0 C50 1.445844 1_555
C0 C36 1.445853 1_555
C0 K0 3.276555 1_555
C0 K2 3.330247 1_565
C0 K1 3.330256 1_555
C1 C2 1.440080 1_565
C1 C37 1.445841 1_555
C1 C51 1.445850 1_555
C1 K0 3.276563 1_555
C1 K1 3.330247 1_555
C1 K2 3.330254 1_565
C2 C48 1.449992 1_555
C2 C38 1.450001 1_555
C2 K1 3.344472 1_545
C2 K2 3.344481 1_555
C3 C49 1.449986 1_555
C3 C39 1.449995 1_555
C3 K1 3.344480 1_545
C3 K2 3.344490 1_555
C4 C7 1.438384 1_556
C4 C40 1.453606 1_555
C4 C54 1.453610 1_555
C4 K2 3.288474 1_555
C5 C6 1.444863 1_556
C5 C55 1.452519 1_555
C5 K2 3.348053 1_555
C6 K1 3.348054 1_555
C7 K1 3.288482 1_555
C8 K0 3.391610 1_555
C9 K0 3.391610 1_555
C10 C9 1.442262 1_655
C10 C56 1.448902 1_555
C10 C46 1.452835 1_555
C10 K0 3.391610 1_655
C11 C8 1.442262 1_655
C11 C47 1.448902 1_555
C11 C57 1.452835 1_555
C11 K0 3.391610 1_655
C12 C36 1.434097 1_555
C12 C25 1.441049 1_555
C12 C46 1.444182 1_555
C12 K1 3.163955 1_555
C13 C37 1.434100 1_545
C13 C24 1.441043 1_555
C13 C44 1.444182 1_555
C13 K2 3.163948 1_555
C14 C38 1.437590 1_565
C14 C27 1.441049 1_555
C14 C45 1.442631 1_554
C14 K1 3.186753 1_555
C15 C39 1.437595 1_555
C15 C26 1.441043 1_555
C15 C47 1.442635 1_556
C15 K2 3.186753 1_555
C16 C40 1.439852 1_554
C16 C29 1.441877 1_555
C16 C38 1.445371 1_555
C17 C41 1.435576 1_555
C17 C36 1.442037 1_555
C17 C28 1.442955 1_555
C18 C42 1.435567 1_555
C18 C37 1.442048 1_655
C18 C31 1.442955 1_555
C19 C43 1.439849 1_556
C19 C30 1.441877 1_555
C19 C39 1.445371 1_455
C20 C42 1.440801 1_545
C20 C44 1.440814 1_655
C20 C33 1.440965 1_555
C21 C45 1.438792 1_555
C21 C32 1.438895 1_555
C21 C40 1.440714 1_565
C21 K0 3.138794 1_555
C21 K2 3.459070 1_565
C22 C41 1.440801 1_555
C22 C46 1.440814 1_555
C22 C35 1.440965 1_555
C23 C47 1.438796 1_455
C23 C34 1.438900 1_555
C23 C43 1.440700 1_555
C23 K0 3.138805 1_555
C23 K1 3.459078 1_555
C24 C48 1.437605 1_555
C24 C58 1.442635 1_555
C24 K2 3.186753 1_555
C25 C49 1.437586 1_565
C25 C56 1.442641 1_555
C25 K1 3.186753 1_555
C26 C50 1.434097 1_545
C26 C57 1.444182 1_556
C26 K2 3.163948 1_555
C27 C51 1.434091 1_555
C27 C59 1.444182 1_554
C27 K1 3.163943 1_555
C28 C52 1.435576 1_556
C28 C50 1.442037 1_555
C29 C53 1.439843 1_555
C29 C48 1.445373 1_555
C30 C54 1.439843 1_555
C30 C49 1.445371 1_455
C31 C55 1.435573 1_554
C31 C51 1.442055 1_655
C32 C56 1.438792 1_455
C32 C54 1.440718 1_565
C32 K0 3.138794 1_555
C32 K2 3.459070 1_565
C33 C52 1.440801 1_545
C33 C57 1.440814 1_555
C34 C58 1.438786 1_555
C34 C53 1.440711 1_555
C34 K0 3.138801 1_555
C34 K1 3.459086 1_555
C35 C55 1.440801 1_555
C35 C59 1.440814 1_655
C36 K1 3.230273 1_555
C36 K0 3.356590 1_555
C37 K2 3.230263 1_565
C37 K0 3.356586 1_555
C38 K1 3.265046 1_545
C39 K2 3.265060 1_555
C40 K2 3.357004 1_555
C41 C5 1.452519 1_555
C41 K2 3.438810 1_555
C42 C6 1.452519 1_555
C42 K1 3.438810 1_555
C43 C7 1.453615 1_555
C43 K1 3.357013 1_555
C44 C8 1.452835 1_555
C45 C9 1.448902 1_555
C45 K0 3.263363 1_555
C47 K0 3.263363 1_655
C48 K2 3.265060 1_555
C49 K1 3.265059 1_545
C50 K2 3.230268 1_565
C50 K0 3.356590 1_555
C51 K1 3.230254 1_555
C51 K0 3.356590 1_555
C52 C6 1.452519 1_555
C52 K1 3.438806 1_555
C53 C7 1.453606 1_555
C53 K1 3.357014 1_555
C54 K2 3.357014 1_555
C55 K2 3.438810 1_555
C56 K0 3.263363 1_655
C58 C8 1.448902 1_555
C58 K0 3.263363 1_555
C59 C9 1.452835 1_555
