# generated using pymatgen
data_Mn(CO3)2
_symmetry_space_group_name_H-M   'P 1'
_cell_length_a   5.27929400
_cell_length_b   6.13827400
_cell_length_c   13.68386500
_cell_angle_alpha   90.00000000
_cell_angle_beta   90.00000000
_cell_angle_gamma   90.00000000
_symmetry_Int_Tables_number   1
_chemical_formula_structural   Mn(CO3)2
_chemical_formula_sum   'Mn4 C8 O24'
_cell_volume   443.43595062
_cell_formula_units_Z   4
loop_
 _symmetry_equiv_pos_site_id
 _symmetry_equiv_pos_as_xyz
  1  'x, y, z'
loop_
 _atom_site_type_symbol
 _atom_site_label
 _atom_site_symmetry_multiplicity
 _atom_site_fract_x
 _atom_site_fract_y
 _atom_site_fract_z
 _atom_site_occupancy
  Mn  Mn0  1  0.94068200  0.31930700  0.83115200  1
  Mn  Mn1  1  0.05931800  0.81930700  0.66884800  1
  Mn  Mn2  1  0.44068200  0.18069300  0.16884800  1
  Mn  Mn3  1  0.55931800  0.68069300  0.33115200  1
  C  C0  1  0.90673900  0.79658400  0.88154000  1
  C  C1  1  0.09326100  0.29658400  0.61846000  1
  C  C2  1  0.40673900  0.70341600  0.11846000  1
  C  C3  1  0.59326100  0.20341600  0.38154000  1
  C  C4  1  0.87293800  0.65241300  0.97515900  1
  C  C5  1  0.12706200  0.15241300  0.52484100  1
  C  C6  1  0.37293800  0.84758700  0.02484100  1
  C  C7  1  0.62706200  0.34758700  0.47515900  1
  O  O0  1  0.95631200  0.68652700  0.80222900  1
  O  O1  1  0.04368800  0.18652700  0.69777100  1
  O  O2  1  0.45631200  0.81347300  0.19777100  1
  O  O3  1  0.54368800  0.31347300  0.30222900  1
  O  O4  1  0.86059000  0.44621000  0.95991800  1
  O  O5  1  0.13941000  0.94621000  0.54008200  1
  O  O6  1  0.36059000  0.05379000  0.04008200  1
  O  O7  1  0.63941000  0.55379000  0.45991800  1
  O  O8  1  0.86278400  0.73866500  0.05677200  1
  O  O9  1  0.13721600  0.23866500  0.44322800  1
  O  O10  1  0.36278400  0.76133500  0.94322800  1
  O  O11  1  0.63721600  0.26133500  0.55677200  1
  O  O12  1  0.88427000  0.99742800  0.88709000  1
  O  O13  1  0.11573000  0.49742800  0.61291000  1
  O  O14  1  0.38427000  0.50257200  0.11291000  1
  O  O15  1  0.61573000  0.00257200  0.38709000  1
  O  O16  1  0.36339900  0.32985400  0.86447500  1
  O  O17  1  0.63660100  0.82985400  0.63552500  1
  O  O18  1  0.86339900  0.17014600  0.13552500  1
  O  O19  1  0.13660100  0.67014600  0.36447500  1
  O  O20  1  0.52416600  0.35054700  0.79497800  1
  O  O21  1  0.47583400  0.85054700  0.70502200  1
  O  O22  1  0.02416600  0.14945300  0.20502200  1
  O  O23  1  0.97583400  0.64945300  0.29497800  1
loop_
_geom_bond_atom_site_label_1
_geom_bond_atom_site_label_2
_geom_bond_distance
_geom_bond_site_symmetry_2
Mn0 O4 1.972378 1_555
Mn0 O1 2.071532 1_655
Mn0 O12 2.139700 1_545
Mn0 O20 2.262080 1_555
Mn0 O16 2.278676 1_655
Mn0 O0 2.290066 1_555
Mn1 O5 1.972378 1_555
Mn1 O0 2.071532 1_455
Mn1 O13 2.139700 1_555
Mn1 O21 2.262080 1_555
Mn1 O17 2.278676 1_455
Mn1 O1 2.290066 1_565
Mn2 O6 1.972378 1_555
Mn2 O3 2.071532 1_555
Mn2 O14 2.139700 1_555
Mn2 O22 2.262080 1_555
Mn2 O18 2.278676 1_555
Mn2 O2 2.290066 1_545
Mn3 O7 1.972378 1_555
Mn3 O2 2.071532 1_555
Mn3 O15 2.139700 1_565
Mn3 O23 2.262080 1_555
Mn3 O19 2.278676 1_555
Mn3 O3 2.290066 1_555
C0 O12 1.240855 1_555
C0 O0 1.304879 1_555
C1 O13 1.240855 1_555
C1 O1 1.304879 1_555
C2 O14 1.240855 1_555
C2 O2 1.304879 1_555
C3 O15 1.240855 1_555
C3 O3 1.304879 1_555
C4 O8 1.237085 1_556
C4 O4 1.284453 1_555
C5 O9 1.237085 1_555
C5 O5 1.284453 1_545
C6 O10 1.237085 1_554
C6 O6 1.284453 1_565
C7 O11 1.237085 1_555
C7 O7 1.284453 1_555
O16 O20 1.280962 1_555
O17 O21 1.280962 1_555
O18 O22 1.280962 1_655
O19 O23 1.280962 1_455
