# generated using pymatgen
data_Ca2S2O9
_symmetry_space_group_name_H-M   'P 1'
_cell_length_a   9.50385728
_cell_length_b   9.50385728
_cell_length_c   12.20051516
_cell_angle_alpha   50.13669409
_cell_angle_beta   50.13669409
_cell_angle_gamma   43.56530456
_symmetry_Int_Tables_number   1
_chemical_formula_structural   Ca2S2O9
_chemical_formula_sum   'Ca6 S6 O27'
_cell_volume   549.53644177
_cell_formula_units_Z   3
loop_
 _symmetry_equiv_pos_site_id
 _symmetry_equiv_pos_as_xyz
  1  'x, y, z'
loop_
 _atom_site_type_symbol
 _atom_site_label
 _atom_site_symmetry_multiplicity
 _atom_site_fract_x
 _atom_site_fract_y
 _atom_site_fract_z
 _atom_site_occupancy
  Ca  Ca0  1  0.50952500  0.49047500  0.50000000  1
  Ca  Ca1  1  0.99076900  0.33988600  0.56616200  1
  Ca  Ca2  1  0.66011400  0.00923100  0.43383800  1
  Ca  Ca3  1  0.12958900  0.53859200  0.92495200  1
  Ca  Ca4  1  0.46140800  0.87041100  0.07504800  1
  Ca  Ca5  1  0.02746800  0.97253200  0.00000000  1
  S  S0  1  0.25592600  0.24349400  0.75079300  1
  S  S1  1  0.75650600  0.74407400  0.24920700  1
  S  S2  1  0.24677300  0.59150700  0.31018100  1
  S  S3  1  0.40849300  0.75322700  0.68981900  1
  S  S4  1  0.89668700  0.27580700  0.18628500  1
  S  S5  1  0.72419300  0.10331300  0.81371500  1
  O  O0  1  0.19712400  0.43469500  0.75429300  1
  O  O1  1  0.56530500  0.80287600  0.24570700  1
  O  O2  1  0.31156400  0.04952000  0.88693200  1
  O  O3  1  0.95048000  0.68843600  0.11306800  1
  O  O4  1  0.07136300  0.28758400  0.74952700  1
  O  O5  1  0.71241600  0.92863700  0.25047300  1
  O  O6  1  0.44697600  0.20064000  0.61057600  1
  O  O7  1  0.79936000  0.55302400  0.38942400  1
  O  O8  1  0.01506200  0.66264400  0.41034400  1
  O  O9  1  0.33735600  0.98493800  0.58965600  1
  O  O10  1  0.26599700  0.71278400  0.14735300  1
  O  O11  1  0.28721600  0.73400300  0.85264700  1
  O  O12  1  0.33322800  0.64406500  0.33911800  1
  O  O13  1  0.35593500  0.66677200  0.66088200  1
  O  O14  1  0.36416000  0.35667200  0.34578300  1
  O  O15  1  0.64332800  0.63584000  0.65421700  1
  O  O16  1  0.79161100  0.50488600  0.08832100  1
  O  O17  1  0.49511400  0.20838900  0.91167900  1
  O  O18  1  0.78513700  0.25572300  0.34965000  1
  O  O19  1  0.74427700  0.21486300  0.65035000  1
  O  O20  1  0.88536100  0.13887900  0.17290400  1
  O  O21  1  0.86112100  0.11463900  0.82709600  1
  O  O22  1  0.12706700  0.19897200  0.13480900  1
  O  O23  1  0.80102800  0.87293300  0.86519100  1
  O  O24  1  0.13769400  0.13173800  0.42403400  1
  O  O25  1  0.86826200  0.86230600  0.57596600  1
  O  O26  1  0.67700500  0.32299500  0.00000000  1
loop_
_geom_bond_atom_site_label_1
_geom_bond_atom_site_label_2
_geom_bond_distance
_geom_bond_site_symmetry_2
Ca0 O13 2.406136 1_555
Ca0 O12 2.406136 1_555
Ca0 O18 2.412771 1_555
Ca0 O19 2.412771 1_555
Ca0 O7 2.518355 1_555
Ca0 O6 2.518355 1_555
Ca0 O1 2.661943 1_555
Ca0 O0 2.661943 1_555
Ca1 O15 2.415684 1_555
Ca1 O4 2.461291 1_655
Ca1 O8 2.462693 1_655
Ca1 O7 2.480147 1_555
Ca1 O24 2.482006 1_655
Ca1 O9 2.485918 1_645
Ca1 O21 2.508679 1_555
Ca1 O19 2.709146 1_555
Ca1 O14 2.808377 1_655
Ca2 O14 2.415684 1_555
Ca2 O5 2.461291 1_545
Ca2 O9 2.462693 1_545
Ca2 O6 2.480147 1_555
Ca2 O25 2.482006 1_545
Ca2 O8 2.485918 1_645
Ca2 O20 2.508679 1_555
Ca2 O18 2.709146 1_555
Ca2 O15 2.808377 1_545
Ca3 O0 2.392941 1_555
Ca3 O3 2.421128 1_456
Ca3 O23 2.438977 1_455
Ca3 O17 2.464583 1_555
Ca3 O13 2.524559 1_555
Ca3 O22 2.532521 1_556
Ca3 O11 2.590173 1_555
Ca3 O16 2.618852 1_456
Ca4 O1 2.392941 1_555
Ca4 O2 2.421128 1_564
Ca4 O22 2.438977 1_565
Ca4 O16 2.464583 1_555
Ca4 O12 2.524559 1_555
Ca4 O23 2.532521 1_554
Ca4 O10 2.590173 1_555
Ca4 O17 2.618852 1_564
Ca5 O11 2.427024 1_554
Ca5 O10 2.427024 1_555
Ca5 O26 2.471994 1_465
Ca5 O21 2.510420 1_464
Ca5 O20 2.510420 1_465
Ca5 O3 2.553968 1_455
Ca5 O2 2.553968 1_564
Ca5 O5 2.631395 1_455
Ca5 O4 2.631395 1_564
O0 S0 1.487746 1_555
O1 S1 1.487746 1_555
O2 S0 1.491614 1_555
O3 S1 1.491614 1_555
O4 S0 1.487899 1_555
O5 S1 1.487899 1_555
O6 S0 1.492945 1_555
O7 S1 1.492945 1_555
O8 S2 1.500560 1_555
O9 S3 1.500560 1_555
O10 S2 1.487626 1_555
O11 S3 1.487626 1_555
O12 S2 1.497318 1_555
O13 S3 1.497318 1_555
O14 S2 1.478026 1_555
O15 S3 1.478026 1_555
O16 S4 1.486375 1_555
O17 S5 1.486375 1_555
O18 S4 1.493246 1_555
O19 S5 1.493246 1_555
O20 S4 1.493186 1_555
O21 S5 1.493186 1_555
O22 S4 1.493228 1_455
O23 S5 1.493228 1_565
