# generated using pymatgen
data_Ga3Co4Ge
_symmetry_space_group_name_H-M   'P 1'
_cell_length_a   4.64835122
_cell_length_b   4.64835122
_cell_length_c   4.64835154
_cell_angle_alpha   90.67586356
_cell_angle_beta   90.67586356
_cell_angle_gamma   90.67584673
_symmetry_Int_Tables_number   1
_chemical_formula_structural   Ga3Co4Ge
_chemical_formula_sum   'Ga3 Co4 Ge1'
_cell_volume   100.41658833
_cell_formula_units_Z   1
loop_
 _symmetry_equiv_pos_site_id
 _symmetry_equiv_pos_as_xyz
  1  'x, y, z'
loop_
 _atom_site_type_symbol
 _atom_site_label
 _atom_site_symmetry_multiplicity
 _atom_site_fract_x
 _atom_site_fract_y
 _atom_site_fract_z
 _atom_site_occupancy
  Ga  Ga0  1  0.34244400  0.16046100  0.65346900  1
  Ga  Ga1  1  0.16046100  0.65346900  0.34244400  1
  Ga  Ga2  1  0.65346900  0.34244400  0.16046100  1
  Co  Co0  1  0.13641600  0.13641600  0.13641600  1
  Co  Co1  1  0.64449000  0.86131400  0.36075800  1
  Co  Co2  1  0.86131400  0.36075800  0.64449000  1
  Co  Co3  1  0.36075800  0.64449000  0.86131400  1
  Ge  Ge0  1  0.84064800  0.84064800  0.84064800  1
loop_
_geom_bond_atom_site_label_1
_geom_bond_atom_site_label_2
_geom_bond_distance
_geom_bond_site_symmetry_2
Ga0 Ge0 2.897286 1_545
Ga0 Ge0 2.899013 1_445
Ga1 Ge0 2.897287 1_455
Ga1 Ge0 2.899013 1_454
Ga2 Ge0 2.897287 1_554
Ga2 Ge0 2.899012 1_544
Co0 Ge0 2.353025 1_444
Co0 Ga2 2.454259 1_455
Co0 Ga1 2.454259 1_545
Co0 Ga0 2.454259 1_554
Co0 Ga1 2.577410 1_555
Co0 Ga0 2.577410 1_555
Co0 Ga2 2.577410 1_555
Co1 Ge0 2.403284 1_555
Co1 Ga0 2.408869 1_565
Co1 Ga2 2.432734 1_565
Co1 Ga1 2.438266 1_555
Co1 Ga2 2.576068 1_555
Co1 Ge0 2.595048 1_554
Co1 Ga1 2.598192 1_655
Co2 Ge0 2.403284 1_555
Co2 Ga1 2.408869 1_655
Co2 Ga0 2.432734 1_655
Co2 Ga2 2.438266 1_555
Co2 Ga0 2.576068 1_555
Co2 Ge0 2.595048 1_545
Co2 Ga2 2.598192 1_556
Co3 Ge0 2.403285 1_555
Co3 Ga2 2.408869 1_556
Co3 Ga1 2.432734 1_556
Co3 Ga0 2.438266 1_555
Co3 Ga1 2.576068 1_555
Co3 Ge0 2.595047 1_455
Co3 Ga0 2.598192 1_565
