# generated using pymatgen
data_Al19Co6
_symmetry_space_group_name_H-M   'P 1'
_cell_length_a   8.51855552
_cell_length_b   8.51855552
_cell_length_c   12.31364556
_cell_angle_alpha   73.88029284
_cell_angle_beta   73.88029284
_cell_angle_gamma   56.38718725
_symmetry_Int_Tables_number   1
_chemical_formula_structural   Al19Co6
_chemical_formula_sum   'Al38 Co12'
_cell_volume   706.25745337
_cell_formula_units_Z   2
loop_
 _symmetry_equiv_pos_site_id
 _symmetry_equiv_pos_as_xyz
  1  'x, y, z'
loop_
 _atom_site_type_symbol
 _atom_site_label
 _atom_site_symmetry_multiplicity
 _atom_site_fract_x
 _atom_site_fract_y
 _atom_site_fract_z
 _atom_site_occupancy
  Al  Al0  1  0.22923948  0.78514419  0.33069376  1
  Al  Al1  1  0.77076052  0.21485581  0.66930624  1
  Al  Al2  1  0.21485581  0.77076052  0.66930624  1
  Al  Al3  1  0.78514419  0.22923948  0.33069376  1
  Al  Al4  1  0.57770699  0.57770699  0.42019390  1
  Al  Al5  1  0.42229401  0.42229401  0.57980610  1
  Al  Al6  1  0.73345431  0.73345431  0.47843502  1
  Al  Al7  1  0.26654569  0.26654569  0.52156498  1
  Al  Al8  1  0.54529848  0.09813448  0.33630601  1
  Al  Al9  1  0.45470152  0.90186552  0.66369399  1
  Al  Al10  1  0.90186552  0.45470152  0.66369399  1
  Al  Al11  1  0.09813448  0.54529848  0.33630601  1
  Al  Al12  1  0.74336632  0.74336632  0.02536301  1
  Al  Al13  1  0.25663368  0.25663368  0.97463699  1
  Al  Al14  1  0.97314629  0.97314629  0.16857641  1
  Al  Al15  1  0.02685371  0.02685371  0.83142359  1
  Al  Al16  1  0.59013195  0.59013195  0.21486750  1
  Al  Al17  1  0.40986805  0.40986805  0.78513250  1
  Al  Al18  1  0.67610133  0.06667605  0.52313656  1
  Al  Al19  1  0.32389867  0.93332395  0.47686344  1
  Al  Al20  1  0.93332395  0.32389867  0.47686344  1
  Al  Al21  1  0.06667605  0.67610133  0.52313656  1
  Al  Al22  1  0.82120170  0.82120170  0.72821250  1
  Al  Al23  1  0.17879830  0.17879830  0.27178750  1
  Al  Al24  1  0.34498513  0.91367474  0.10932433  1
  Al  Al25  1  0.65501487  0.08632526  0.89067567  1
  Al  Al26  1  0.08632526  0.65501487  0.89067567  1
  Al  Al27  1  0.91367474  0.34498513  0.10932433  1
  Al  Al28  1  0.74948303  0.25051697  0.00000000  1
  Al  Al29  1  0.25051697  0.74948303  0.00000000  1
  Al  Al30  1  0.43365008  0.43365008  0.17330934  1
  Al  Al31  1  0.56634992  0.56634992  0.82669066  1
  Al  Al32  1  0.78845627  0.78845627  0.23685526  1
  Al  Al33  1  0.21154373  0.21154373  0.76314474  1
  Al  Al34  1  0.53758064  0.09218530  0.11370447  1
  Al  Al35  1  0.46241936  0.90781470  0.88629553  1
  Al  Al36  1  0.90781470  0.46241936  0.88629553  1
  Al  Al37  1  0.09218530  0.53758064  0.11370447  1
  Co  Co0  1  0.41895662  0.41895662  0.38013626  1
  Co  Co1  1  0.58104338  0.58104338  0.61986374  1
  Co  Co2  1  0.59091945  0.59091945  0.01557537  1
  Co  Co3  1  0.40908055  0.40908055  0.98442463  1
  Co  Co4  1  0.90017447  0.90017447  0.01655449  1
  Co  Co5  1  0.09982553  0.09982553  0.98344551  1
  Co  Co6  1  0.89185712  0.89185712  0.36834917  1
  Co  Co7  1  0.10814288  0.10814288  0.63165083  1
  Co  Co8  1  0.45082858  0.89878924  0.28040125  1
  Co  Co9  1  0.54917142  0.10121076  0.71959875  1
  Co  Co10  1  0.10121076  0.54917142  0.71959875  1
  Co  Co11  1  0.89878924  0.45082858  0.28040125  1
loop_
_geom_bond_atom_site_label_1
_geom_bond_atom_site_label_2
_geom_bond_distance
_geom_bond_site_symmetry_2
Al0 Co6 2.429570 1_455
Al0 Co8 2.434131 1_555
Al0 Co0 2.573591 1_555
Al0 Al16 2.733425 1_555
Al0 Al24 2.765287 1_555
Al0 Al4 2.841905 1_555
Al1 Co7 2.429570 1_655
Al1 Co9 2.434131 1_555
Al1 Co1 2.573591 1_555
Al1 Al17 2.733425 1_555
Al1 Al25 2.765287 1_555
Al1 Al5 2.841897 1_555
Al2 Co7 2.429570 1_565
Al2 Co10 2.434131 1_555
Al2 Co1 2.573591 1_555
Al2 Al26 2.765287 1_555
Al2 Al5 2.841897 1_555
Al3 Co6 2.429570 1_545
Al3 Co11 2.434131 1_555
Al3 Co0 2.573591 1_555
Al3 Al4 2.841905 1_555
Al4 Co1 2.474902 1_555
Al4 Al5 2.533576 1_555
Al4 Co0 2.581939 1_555
Al4 Co11 2.599622 1_555
Al4 Co8 2.599622 1_555
Al4 Al6 2.653371 1_555
Al5 Co0 2.474907 1_555
Al5 Co1 2.581924 1_555
Al5 Co10 2.599628 1_555
Al5 Co9 2.599628 1_555
Al5 Al7 2.653385 1_555
Al6 Co6 2.337430 1_555
Al6 Co1 2.399857 1_555
Al7 Co7 2.337430 1_555
Al7 Co0 2.399857 1_555
Al8 Co0 2.481645 1_555
Al8 Co8 2.544583 1_545
Al8 Co6 2.545028 1_545
Al9 Co1 2.481645 1_555
Al9 Co9 2.544583 1_565
Al9 Co7 2.545028 1_565
Al10 Co1 2.481645 1_555
Al10 Co10 2.544583 1_655
Al10 Co7 2.545028 1_655
Al10 Al36 2.775079 1_555
Al11 Co0 2.481645 1_555
Al11 Co11 2.544583 1_455
Al11 Co6 2.545028 1_455
Al11 Al37 2.775079 1_555
Al12 Co4 2.322708 1_555
Al12 Co2 2.329883 1_555
Al12 Al16 2.712315 1_555
Al12 Al26 2.724049 1_654
Al12 Al25 2.724049 1_564
Al12 Al35 2.802554 1_554
Al12 Al36 2.802554 1_554
Al12 Al34 2.838072 1_565
Al12 Al37 2.838072 1_655
Al12 Al27 2.850266 1_555
Al12 Al24 2.850266 1_555
Al13 Co5 2.322708 1_555
Al13 Co3 2.329883 1_555
Al13 Al17 2.712315 1_555
Al13 Al27 2.724049 1_456
Al13 Al24 2.724049 1_546
Al13 Al34 2.802554 1_556
Al13 Al37 2.802554 1_556
Al13 Al36 2.838072 1_455
Al13 Al35 2.838072 1_545
Al13 Al26 2.850266 1_555
Al13 Al25 2.850266 1_555
Al14 Co6 2.376844 1_555
Al14 Co4 2.448897 1_555
Al14 Co5 2.466376 1_664
Al14 Al24 2.822678 1_655
Al14 Al27 2.822678 1_565
Al15 Co7 2.376844 1_555
Al15 Co5 2.448897 1_555
Al15 Co4 2.466376 1_446
Al15 Al26 2.822678 1_545
Al15 Al25 2.822678 1_455
Al16 Co2 2.450313 1_555
Al16 Al4 2.475883 1_555
Al16 Co8 2.482870 1_555
Al16 Co11 2.482870 1_555
Al16 Al30 2.557441 1_555
Al16 Al27 2.606128 1_555
Al16 Al24 2.606128 1_555
Al16 Co0 2.729920 1_555
Al16 Al3 2.733425 1_555
Al17 Co3 2.450313 1_555
Al17 Al5 2.475879 1_555
Al17 Co9 2.482870 1_555
Al17 Co10 2.482870 1_555
Al17 Al31 2.557441 1_555
Al17 Al26 2.606128 1_555
Al17 Al25 2.606128 1_555
Al17 Co1 2.729920 1_555
Al17 Al2 2.733425 1_555
Al18 Co9 2.387163 1_555
Al18 Co6 2.414355 1_545
Al18 Al5 2.724520 1_555
Al18 Co0 2.972223 1_555
Al19 Co8 2.387163 1_555
Al19 Co7 2.414355 1_565
Al19 Al4 2.724515 1_555
Al19 Co1 2.972223 1_555
Al20 Co11 2.387163 1_555
Al20 Co7 2.414355 1_655
Al20 Al4 2.724515 1_555
Al20 Co1 2.972223 1_555
Al21 Co10 2.387163 1_555
Al21 Co6 2.414355 1_455
Al21 Al5 2.724520 1_555
Al21 Co0 2.972223 1_555
Al22 Co9 2.224180 1_565
Al22 Co10 2.224180 1_655
Al22 Al26 2.916033 1_655
Al22 Al25 2.916033 1_565
Al22 Al36 2.944797 1_555
Al22 Al35 2.944797 1_555
Al23 Co8 2.224180 1_545
Al23 Co11 2.224180 1_455
Al23 Al24 2.916033 1_545
Al23 Al27 2.916033 1_455
Al23 Al34 2.944797 1_555
Al23 Al37 2.944797 1_555
Al24 Co5 2.458600 1_564
Al24 Co8 2.458961 1_555
Al24 Al35 2.653425 1_554
Al24 Al29 2.703582 1_555
Al24 Co2 2.706133 1_555
Al24 Al34 2.804252 1_565
Al25 Co4 2.458600 1_546
Al25 Co9 2.458961 1_555
Al25 Al34 2.653425 1_556
Al25 Al28 2.703582 1_556
Al25 Co3 2.706133 1_555
Al25 Al35 2.804252 1_545
Al26 Co4 2.458600 1_456
Al26 Co10 2.458961 1_555
Al26 Al37 2.653425 1_556
Al26 Al29 2.703582 1_556
Al26 Co3 2.706133 1_555
Al26 Al36 2.804252 1_455
Al27 Co5 2.458600 1_654
Al27 Co11 2.458961 1_555
Al27 Al36 2.653425 1_554
Al27 Al28 2.703582 1_555
Al27 Co2 2.706133 1_555
Al27 Al3 2.765287 1_555
Al27 Al37 2.804252 1_655
Al28 Co2 2.469460 1_555
Al28 Co3 2.469460 1_554
Al28 Co5 2.482347 1_654
Al28 Co4 2.482347 1_545
Al28 Al36 2.698400 1_554
Al28 Al34 2.698400 1_555
Al29 Co2 2.469460 1_555
Al29 Co3 2.469460 1_554
Al29 Co5 2.482347 1_564
Al29 Co4 2.482347 1_455
Al29 Al35 2.698400 1_554
Al29 Al37 2.698400 1_555
Al30 Co3 2.467054 1_554
Al30 Co0 2.486124 1_555
Al30 Co2 2.541535 1_555
Al30 Al34 2.785141 1_555
Al30 Al37 2.785141 1_555
Al31 Co2 2.467054 1_556
Al31 Co1 2.486124 1_555
Al31 Co3 2.541535 1_555
Al31 Al35 2.785141 1_555
Al31 Al36 2.785141 1_555
Al32 Co11 2.423528 1_555
Al32 Co8 2.423528 1_555
Al32 Co6 2.572222 1_555
Al32 Al37 2.657074 1_655
Al32 Al34 2.657074 1_565
Al32 Co4 2.702923 1_555
Al33 Co10 2.423528 1_555
Al33 Co9 2.423528 1_555
Al33 Co7 2.572222 1_555
Al33 Al36 2.657074 1_455
Al33 Al35 2.657074 1_545
Al33 Co5 2.702923 1_555
Al34 Co8 2.470101 1_545
Al34 Co3 2.515829 1_554
Al34 Co4 2.662358 1_545
Al34 Al8 2.775079 1_555
Al35 Co9 2.470101 1_565
Al35 Co2 2.515829 1_556
Al35 Co5 2.662358 1_565
Al35 Al9 2.775079 1_555
Al36 Co10 2.470101 1_655
Al36 Co2 2.515829 1_556
Al36 Co5 2.662358 1_655
Al37 Co11 2.470101 1_455
Al37 Co3 2.515829 1_554
Al37 Co4 2.662358 1_455
