# generated using pymatgen
data_LaMoBrO4
_symmetry_space_group_name_H-M   'P 1'
_cell_length_a   5.86790944
_cell_length_b   8.08461775
_cell_length_c   9.84091746
_cell_angle_alpha   89.94211163
_cell_angle_beta   90.00000000
_cell_angle_gamma   90.00000000
_symmetry_Int_Tables_number   1
_chemical_formula_structural   LaMoBrO4
_chemical_formula_sum   'La4 Mo4 Br4 O16'
_cell_volume   466.85096543
_cell_formula_units_Z   4
loop_
 _symmetry_equiv_pos_site_id
 _symmetry_equiv_pos_as_xyz
  1  'x, y, z'
loop_
 _atom_site_type_symbol
 _atom_site_label
 _atom_site_symmetry_multiplicity
 _atom_site_fract_x
 _atom_site_fract_y
 _atom_site_fract_z
 _atom_site_occupancy
  La  La0  1  0.95400662  0.37693617  0.21283532  1
  La  La1  1  0.04599338  0.87693617  0.21283532  1
  La  La2  1  0.54675998  0.62585119  0.77639225  1
  La  La3  1  0.45324002  0.12585119  0.77639225  1
  Mo  Mo0  1  0.49345880  0.66133268  0.35467952  1
  Mo  Mo1  1  0.50654120  0.16133268  0.35467952  1
  Mo  Mo2  1  0.99673819  0.41163669  0.63458488  1
  Mo  Mo3  1  0.00326181  0.91163669  0.63458488  1
  Br  Br0  1  0.99909626  0.62414408  0.96727891  1
  Br  Br1  1  0.00090374  0.12414408  0.96727891  1
  Br  Br2  1  0.50174726  0.37395221  0.02227436  1
  Br  Br3  1  0.49825274  0.87395221  0.02227436  1
  O  O0  1  0.49210111  0.61954594  0.52869444  1
  O  O1  1  0.50789889  0.11954594  0.52869444  1
  O  O2  1  0.56340054  0.37521533  0.34380491  1
  O  O3  1  0.43659946  0.87521533  0.34380491  1
  O  O4  1  0.76762661  0.64777853  0.27149415  1
  O  O5  1  0.23237339  0.14777853  0.27149415  1
  O  O6  1  0.76109465  0.09700098  0.26729134  1
  O  O7  1  0.23890535  0.59700098  0.26729134  1
  O  O8  1  0.01315450  0.37222766  0.46056161  1
  O  O9  1  0.98684550  0.87222766  0.46056161  1
  O  O10  1  0.93776574  0.62518453  0.64601569  1
  O  O11  1  0.06223426  0.12518453  0.64601569  1
  O  O12  1  0.73886302  0.34592614  0.71819131  1
  O  O13  1  0.26113698  0.84592614  0.71819131  1
  O  O14  1  0.73248683  0.89756786  0.72140232  1
  O  O15  1  0.26751317  0.39756786  0.72140232  1
loop_
_geom_bond_atom_site_label_1
_geom_bond_atom_site_label_2
_geom_bond_distance
_geom_bond_site_symmetry_2
La0 O8 2.462692 1_655
La0 O7 2.499846 1_655
La0 O4 2.515248 1_555
La0 O5 2.536036 1_655
La0 O6 2.586130 1_555
La0 O2 2.629595 1_555
La1 O9 2.462692 1_455
La1 O6 2.499846 1_465
La1 O5 2.515248 1_565
La1 O4 2.536036 1_455
La1 O7 2.586130 1_555
La1 O3 2.629595 1_555
La2 O0 2.459163 1_555
La2 O13 2.510104 1_555
La2 O14 2.510731 1_555
La2 O15 2.527061 1_555
La2 O12 2.592856 1_555
La2 O10 2.628765 1_555
La3 O1 2.459163 1_555
La3 O12 2.510104 1_555
La3 O15 2.510731 1_555
La3 O14 2.527061 1_545
La3 O13 2.592856 1_545
La3 O11 2.628765 1_555
Mo0 O0 1.745155 1_555
Mo0 O3 1.764197 1_555
Mo0 O7 1.800583 1_555
Mo0 O4 1.808463 1_555
Mo0 O2 2.351819 1_555
Mo1 O1 1.745155 1_555
Mo1 O2 1.764197 1_555
Mo1 O6 1.800583 1_555
Mo1 O5 1.808463 1_555
Mo1 O3 2.351819 1_545
Mo2 O8 1.744911 1_655
Mo2 O10 1.764492 1_555
Mo2 O12 1.802225 1_555
Mo2 O15 1.807547 1_655
Mo2 O11 2.350111 1_655
Mo3 O9 1.744911 1_455
Mo3 O11 1.764492 1_565
Mo3 O13 1.802225 1_555
Mo3 O14 1.807547 1_455
Mo3 O10 2.350111 1_455
Br0 La0 3.145480 1_556
Br0 La1 3.178365 1_656
Br0 La2 3.251775 1_555
Br1 La1 3.145480 1_546
Br1 La0 3.178365 1_456
Br1 La3 3.251775 1_555
Br2 La3 3.157379 1_554
Br2 La2 3.172088 1_554
Br2 La0 3.249638 1_555
Br3 La2 3.157379 1_554
Br3 La3 3.172088 1_564
Br3 La1 3.249638 1_555
