# generated using pymatgen
data_ZnSeO10
_symmetry_space_group_name_H-M   'P 1'
_cell_length_a   7.95318800
_cell_length_b   7.95318800
_cell_length_c   13.88258600
_cell_angle_alpha   90.00000000
_cell_angle_beta   90.00000000
_cell_angle_gamma   90.00000000
_symmetry_Int_Tables_number   1
_chemical_formula_structural   ZnSeO10
_chemical_formula_sum   'Zn4 Se4 O40'
_cell_volume   878.11797994
_cell_formula_units_Z   4
loop_
 _symmetry_equiv_pos_site_id
 _symmetry_equiv_pos_as_xyz
  1  'x, y, z'
loop_
 _atom_site_type_symbol
 _atom_site_label
 _atom_site_symmetry_multiplicity
 _atom_site_fract_x
 _atom_site_fract_y
 _atom_site_fract_z
 _atom_site_occupancy
  Zn  Zn0  1  0.61828900  0.61828900  0.00000000  1
  Zn  Zn1  1  0.38171100  0.38171100  0.50000000  1
  Zn  Zn2  1  0.88171100  0.11828900  0.25000000  1
  Zn  Zn3  1  0.11828900  0.88171100  0.75000000  1
  Se  Se0  1  0.20920400  0.20920400  0.00000000  1
  Se  Se1  1  0.79079600  0.79079600  0.50000000  1
  Se  Se2  1  0.29079600  0.70920400  0.25000000  1
  Se  Se3  1  0.70920400  0.29079600  0.75000000  1
  O  O0  1  0.13197000  0.17306800  0.33772900  1
  O  O1  1  0.86803000  0.82693200  0.83772900  1
  O  O2  1  0.32693200  0.63197000  0.58772900  1
  O  O3  1  0.36803000  0.67306800  0.91227100  1
  O  O4  1  0.67306800  0.36803000  0.08772900  1
  O  O5  1  0.63197000  0.32693200  0.41227100  1
  O  O6  1  0.17306800  0.13197000  0.66227100  1
  O  O7  1  0.82693200  0.86803000  0.16227100  1
  O  O8  1  0.10515800  0.12091800  0.11219800  1
  O  O9  1  0.89484200  0.87908200  0.61219800  1
  O  O10  1  0.37908200  0.60515800  0.36219800  1
  O  O11  1  0.39484200  0.62091800  0.13780200  1
  O  O12  1  0.62091800  0.39484200  0.86219800  1
  O  O13  1  0.60515800  0.37908200  0.63780200  1
  O  O14  1  0.12091800  0.10515800  0.88780200  1
  O  O15  1  0.87908200  0.89484200  0.38780200  1
  O  O16  1  0.40402000  0.15059900  0.01019200  1
  O  O17  1  0.59598000  0.84940100  0.51019200  1
  O  O18  1  0.34940100  0.90402000  0.26019200  1
  O  O19  1  0.09598000  0.65059900  0.23980800  1
  O  O20  1  0.65059900  0.09598000  0.76019200  1
  O  O21  1  0.90402000  0.34940100  0.73980800  1
  O  O22  1  0.15059900  0.40402000  0.98980800  1
  O  O23  1  0.84940100  0.59598000  0.48980800  1
  O  O24  1  0.18146200  0.08944400  0.40765700  1
  O  O25  1  0.81853800  0.91055600  0.90765700  1
  O  O26  1  0.41055600  0.68146200  0.65765700  1
  O  O27  1  0.31853800  0.58944400  0.84234300  1
  O  O28  1  0.58944400  0.31853800  0.15765700  1
  O  O29  1  0.68146200  0.41055600  0.34234300  1
  O  O30  1  0.08944400  0.18146200  0.59234300  1
  O  O31  1  0.91055600  0.81853800  0.09234300  1
  O  O32  1  0.26393500  0.47908900  0.39813000  1
  O  O33  1  0.73606500  0.52091100  0.89813000  1
  O  O34  1  0.02091100  0.76393500  0.64813000  1
  O  O35  1  0.23606500  0.97908900  0.85187000  1
  O  O36  1  0.97908900  0.23606500  0.14813000  1
  O  O37  1  0.76393500  0.02091100  0.35187000  1
  O  O38  1  0.47908900  0.26393500  0.60187000  1
  O  O39  1  0.52091100  0.73606500  0.10187000  1
loop_
_geom_bond_atom_site_label_1
_geom_bond_atom_site_label_2
_geom_bond_distance
_geom_bond_site_symmetry_2
O0 O24 1.240839 1_555
O0 Zn2 2.373736 1_455
O1 O25 1.240839 1_555
O1 Zn3 2.373736 1_655
O2 O26 1.240839 1_555
O2 Zn1 2.373736 1_555
O3 Zn0 2.373736 1_556
O4 Zn0 2.373736 1_555
O5 Zn1 2.373736 1_555
O6 Zn3 2.373736 1_545
O7 Zn2 2.373736 1_565
O8 Se0 1.898391 1_555
O9 Se1 1.898391 1_555
O10 O32 1.446652 1_555
O10 Se2 1.898391 1_555
O11 O39 1.446652 1_555
O11 Se2 1.898391 1_555
O12 O33 1.446652 1_555
O12 Se3 1.898391 1_555
O13 O38 1.446652 1_555
O13 Se3 1.898391 1_555
O14 O35 1.446652 1_545
O14 Se0 1.898391 1_556
O15 O37 1.446652 1_565
O15 Se1 1.898391 1_555
O16 Se0 1.624171 1_555
O17 Se1 1.624171 1_555
O18 Se2 1.624171 1_555
O19 Se2 1.624171 1_555
O20 Se3 1.624171 1_555
O21 Se3 1.624171 1_555
O22 Se0 1.624171 1_556
O23 Se1 1.624171 1_555
O27 O3 1.240839 1_555
O28 O4 1.240839 1_555
O29 O5 1.240839 1_555
O30 O6 1.240839 1_555
O31 O7 1.240839 1_555
O32 Zn1 1.864728 1_555
O33 Zn0 1.864728 1_556
O34 O9 1.446652 1_455
O34 Zn3 1.864728 1_555
O35 Zn3 1.864728 1_555
O36 O8 1.446652 1_655
O36 Zn2 1.864728 1_555
O37 Zn2 1.864728 1_555
O38 Zn1 1.864728 1_555
O39 Zn0 1.864728 1_555
