# generated using pymatgen
data_Ca(CuO2)2
_symmetry_space_group_name_H-M   'P 1'
_cell_length_a   6.21889744
_cell_length_b   6.21889744
_cell_length_c   15.04288600
_cell_angle_alpha   90.00000000
_cell_angle_beta   90.00000000
_cell_angle_gamma   119.99999400
_symmetry_Int_Tables_number   1
_chemical_formula_structural   Ca(CuO2)2
_chemical_formula_sum   'Ca6 Cu12 O24'
_cell_volume   503.83532193
_cell_formula_units_Z   6
loop_
 _symmetry_equiv_pos_site_id
 _symmetry_equiv_pos_as_xyz
  1  'x, y, z'
loop_
 _atom_site_type_symbol
 _atom_site_label
 _atom_site_symmetry_multiplicity
 _atom_site_fract_x
 _atom_site_fract_y
 _atom_site_fract_z
 _atom_site_occupancy
  Ca  Ca0  1  0.66666700  0.33333300  0.95557600  1
  Ca  Ca1  1  0.00000000  0.00000000  0.61127600  1
  Ca  Ca2  1  0.00000000  0.00000000  0.00113900  1
  Ca  Ca3  1  0.33333300  0.66666700  0.27661200  1
  Ca  Ca4  1  0.66666700  0.33333300  0.71951100  1
  Ca  Ca5  1  0.00000000  0.00000000  0.36924900  1
  Cu  Cu0  1  0.66746800  0.83373400  0.82903400  1
  Cu  Cu1  1  0.16626600  0.83373400  0.82903400  1
  Cu  Cu2  1  0.00174600  0.50087300  0.49975700  1
  Cu  Cu3  1  0.16626600  0.33253200  0.82903400  1
  Cu  Cu4  1  0.33333300  0.66666700  0.66512700  1
  Cu  Cu5  1  0.49912700  0.50087300  0.49975700  1
  Cu  Cu6  1  0.34191700  0.17095800  0.16890700  1
  Cu  Cu7  1  0.49912700  0.99825400  0.49975700  1
  Cu  Cu8  1  0.82904200  0.65808300  0.16890700  1
  Cu  Cu9  1  0.66666700  0.33333300  0.33903300  1
  Cu  Cu10  1  0.82904200  0.17095800  0.16890700  1
  Cu  Cu11  1  0.33333300  0.66666700  0.04864400  1
  O  O0  1  0.85014500  0.14985500  0.89054200  1
  O  O1  1  0.00000000  0.00000000  0.75373100  1
  O  O2  1  0.85014500  0.70029000  0.89054200  1
  O  O3  1  0.29971000  0.14985500  0.89054200  1
  O  O4  1  0.06303700  0.53151900  0.76130400  1
  O  O5  1  0.19585800  0.80414200  0.57527500  1
  O  O6  1  0.46848100  0.93696300  0.76130400  1
  O  O7  1  0.33333300  0.66666700  0.92389200  1
  O  O8  1  0.19585800  0.39171700  0.57527500  1
  O  O9  1  0.33333300  0.66666700  0.42908700  1
  O  O10  1  0.46848100  0.53151900  0.76130400  1
  O  O11  1  0.60828300  0.80414200  0.57527500  1
  O  O12  1  0.38076600  0.19038300  0.42622700  1
  O  O13  1  0.53081100  0.46918900  0.25121900  1
  O  O14  1  0.80961700  0.61923400  0.42622700  1
  O  O15  1  0.66666700  0.33333300  0.57055300  1
  O  O16  1  0.66666700  0.33333300  0.10500100  1
  O  O17  1  0.53081100  0.06162200  0.25121900  1
  O  O18  1  0.80961700  0.19038300  0.42622700  1
  O  O19  1  0.93837800  0.46918900  0.25121900  1
  O  O20  1  0.66578600  0.83289300  0.10097600  1
  O  O21  1  0.00000000  0.00000000  0.22180800  1
  O  O22  1  0.16710700  0.33421400  0.10097600  1
  O  O23  1  0.16710700  0.83289300  0.10097600  1
loop_
_geom_bond_atom_site_label_1
_geom_bond_atom_site_label_2
_geom_bond_distance
_geom_bond_site_symmetry_2
Ca0 O0 2.205204 1_555
Ca0 O2 2.205209 1_555
Ca0 O3 2.205209 1_555
Ca0 O16 2.247783 1_556
Ca1 O1 2.142934 1_555
Ca1 O5 2.178075 1_545
Ca1 O11 2.178080 1_445
Ca1 O8 2.178080 1_555
Ca2 O0 2.318057 1_454
Ca2 O3 2.318057 1_554
Ca2 O2 2.318057 1_444
Ca2 O23 2.344239 1_545
Ca2 O20 2.344239 1_445
Ca2 O22 2.344239 1_555
Ca3 O19 2.161144 1_455
Ca3 O17 2.161144 1_565
Ca3 O13 2.161149 1_555
Ca3 O9 2.293664 1_555
Ca4 O4 2.225390 1_655
Ca4 O6 2.225390 1_545
Ca4 O10 2.225400 1_555
Ca4 O15 2.240758 1_555
Ca5 O21 2.217938 1_555
Ca5 O18 2.222614 1_455
Ca5 O12 2.222615 1_555
Ca5 O14 2.222615 1_445
Cu0 O10 1.943182 1_555
Cu0 O6 1.943186 1_555
Cu0 O2 1.943754 1_555
Cu0 O0 1.943754 1_565
Cu0 O1 2.119102 1_665
Cu0 O7 2.296642 1_555
Cu1 O4 1.943181 1_555
Cu1 O6 1.943181 1_555
Cu1 O2 1.943754 1_455
Cu1 O3 1.943754 1_565
Cu1 O1 2.119101 1_565
Cu1 O7 2.296638 1_555
Cu2 O8 2.006994 1_555
Cu2 O5 2.006998 1_555
Cu2 O14 2.018013 1_455
Cu2 O18 2.018013 1_455
Cu2 O9 2.078305 1_555
Cu2 O15 2.095450 1_455
Cu3 O10 1.943182 1_555
Cu3 O4 1.943186 1_555
Cu3 O3 1.943754 1_555
Cu3 O0 1.943754 1_455
Cu3 O1 2.119102 1_555
Cu3 O7 2.296642 1_555
Cu4 O5 2.004918 1_555
Cu4 O11 2.004918 1_555
Cu4 O8 2.004918 1_555
Cu4 O10 2.052401 1_555
Cu4 O4 2.052401 1_555
Cu4 O6 2.052401 1_555
Cu5 O8 2.006999 1_555
Cu5 O11 2.006999 1_555
Cu5 O12 2.018013 1_555
Cu5 O14 2.018013 1_555
Cu5 O9 2.078309 1_555
Cu5 O15 2.095454 1_555
Cu6 O16 1.995797 1_555
Cu6 O21 2.006062 1_555
Cu6 O17 2.043083 1_555
Cu6 O13 2.043087 1_555
Cu6 O23 2.088196 1_545
Cu6 O22 2.088201 1_555
Cu7 O11 2.006994 1_555
Cu7 O5 2.006998 1_555
Cu7 O12 2.018013 1_565
Cu7 O18 2.018013 1_565
Cu7 O9 2.078305 1_555
Cu7 O15 2.095450 1_565
Cu8 O16 1.995797 1_555
Cu8 O21 2.006062 1_665
Cu8 O19 2.043083 1_555
Cu8 O13 2.043087 1_555
Cu8 O23 2.088196 1_655
Cu8 O20 2.088201 1_555
Cu9 O17 1.971396 1_555
Cu9 O19 1.971396 1_555
Cu9 O13 1.971400 1_555
Cu9 O18 2.022706 1_555
Cu9 O14 2.022711 1_555
Cu9 O12 2.022711 1_555
Cu10 O16 1.995797 1_555
Cu10 O21 2.006057 1_655
Cu10 O17 2.043088 1_555
Cu10 O19 2.043088 1_555
Cu10 O20 2.088196 1_545
Cu10 O22 2.088196 1_655
Cu11 O7 1.876630 1_554
Cu11 O23 1.955912 1_555
Cu11 O20 1.955917 1_555
Cu11 O22 1.955917 1_555
