# generated using pymatgen
data_Ba4PrY(Cu3O7)2
_symmetry_space_group_name_H-M   'P 1'
_cell_length_a   3.88537900
_cell_length_b   7.88274500
_cell_length_c   11.87528400
_cell_angle_alpha   90.00000000
_cell_angle_beta   90.00000000
_cell_angle_gamma   90.00000000
_symmetry_Int_Tables_number   1
_chemical_formula_structural   Ba4PrY(Cu3O7)2
_chemical_formula_sum   'Ba4 Pr1 Y1 Cu6 O14'
_cell_volume   363.70968933
_cell_formula_units_Z   1
loop_
 _symmetry_equiv_pos_site_id
 _symmetry_equiv_pos_as_xyz
  1  'x, y, z'
loop_
 _atom_site_type_symbol
 _atom_site_label
 _atom_site_symmetry_multiplicity
 _atom_site_fract_x
 _atom_site_fract_y
 _atom_site_fract_z
 _atom_site_occupancy
  Ba  Ba0  1  0.50000000  0.00000000  0.18088500  1
  Ba  Ba1  1  0.50000000  0.50000000  0.17967100  1
  Ba  Ba2  1  0.50000000  0.00000000  0.81911500  1
  Ba  Ba3  1  0.50000000  0.50000000  0.82032900  1
  Pr  Pr0  1  0.50000000  0.50000000  0.50000000  1
  Y  Y0  1  0.50000000  0.00000000  0.50000000  1
  Cu  Cu0  1  0.00000000  0.24672000  0.34853600  1
  Cu  Cu1  1  0.00000000  0.75328000  0.34853600  1
  Cu  Cu2  1  0.00000000  0.24672000  0.65146400  1
  Cu  Cu3  1  0.00000000  0.75328000  0.65146400  1
  Cu  Cu4  1  0.00000000  0.24972500  0.00000000  1
  Cu  Cu5  1  0.00000000  0.75027500  0.00000000  1
  O  O0  1  0.00000000  0.00000000  0.37969600  1
  O  O1  1  0.00000000  0.50000000  0.36935200  1
  O  O2  1  0.00000000  0.00000000  0.62030400  1
  O  O3  1  0.00000000  0.50000000  0.63064800  1
  O  O4  1  0.00000000  0.24937000  0.15778600  1
  O  O5  1  0.00000000  0.75063000  0.15778600  1
  O  O6  1  0.00000000  0.24937000  0.84221400  1
  O  O7  1  0.00000000  0.75063000  0.84221400  1
  O  O8  1  0.00000000  0.00000000  0.00000000  1
  O  O9  1  0.00000000  0.50000000  0.00000000  1
  O  O10  1  0.50000000  0.75824800  0.37468200  1
  O  O11  1  0.50000000  0.24175200  0.37468200  1
  O  O12  1  0.50000000  0.75824800  0.62531800  1
  O  O13  1  0.50000000  0.24175200  0.62531800  1
loop_
_geom_bond_atom_site_label_1
_geom_bond_atom_site_label_2
_geom_bond_distance
_geom_bond_site_symmetry_2
Ba0 O5 2.777290 1_545
Ba0 O5 2.777290 1_645
Ba0 O4 2.777290 1_555
Ba0 O4 2.777290 1_655
Ba0 O8 2.896240 1_555
Ba0 O8 2.896240 1_655
Ba0 O11 2.987975 1_555
Ba0 O10 2.987975 1_545
Ba0 O0 3.057461 1_655
Ba0 O0 3.057461 1_555
Ba1 O5 2.782946 1_655
Ba1 O5 2.782946 1_555
Ba1 O4 2.782946 1_555
Ba1 O4 2.782946 1_655
Ba1 O9 2.885564 1_555
Ba1 O9 2.885564 1_655
Ba1 O1 2.974537 1_555
Ba1 O1 2.974537 1_655
Ba1 O10 3.083353 1_555
Ba1 O11 3.083353 1_555
Ba2 O7 2.777290 1_545
Ba2 O7 2.777290 1_645
Ba2 O6 2.777290 1_655
Ba2 O6 2.777290 1_555
Ba2 O8 2.896240 1_656
Ba2 O8 2.896240 1_556
Ba2 O13 2.987975 1_555
Ba2 O12 2.987975 1_545
Ba2 O2 3.057461 1_555
Ba2 O2 3.057461 1_655
Ba3 O6 2.782946 1_655
Ba3 O7 2.782946 1_655
Ba3 O7 2.782946 1_555
Ba3 O6 2.782946 1_555
Ba3 O9 2.885564 1_656
Ba3 O9 2.885564 1_556
Ba3 O3 2.974537 1_555
Ba3 O3 2.974537 1_655
Ba3 O12 3.083353 1_555
Ba3 O13 3.083353 1_555
Cu0 O11 1.967735 1_555
Cu0 O11 1.967735 1_455
Cu0 O0 1.979720 1_555
Cu0 O1 2.011786 1_555
Cu0 O4 2.265307 1_555
Cu1 O10 1.967735 1_555
Cu1 O10 1.967735 1_455
Cu1 O0 1.979720 1_565
Cu1 O1 2.011786 1_555
Cu1 O5 2.265307 1_555
Cu2 O13 1.967735 1_455
Cu2 O13 1.967735 1_555
Cu2 O2 1.979720 1_555
Cu2 O3 2.011786 1_555
Cu2 O6 2.265307 1_555
Cu3 O12 1.967735 1_555
Cu3 O12 1.967735 1_455
Cu3 O2 1.979720 1_565
Cu3 O3 2.011786 1_555
Cu3 O7 2.265307 1_555
Cu4 O4 1.873756 1_555
Cu4 O6 1.873756 1_554
Cu4 O8 1.968518 1_555
Cu4 O9 1.972854 1_555
Cu5 O5 1.873756 1_555
Cu5 O7 1.873756 1_554
Cu5 O8 1.968518 1_565
Cu5 O9 1.972854 1_555
O0 Y0 2.411445 1_555
O0 Y0 2.411445 1_455
O1 Pr0 2.486190 1_455
O1 Pr0 2.486190 1_555
O2 Y0 2.411445 1_555
O2 Y0 2.411445 1_455
O3 Pr0 2.486190 1_455
O3 Pr0 2.486190 1_555
O10 Y0 2.417907 1_565
O10 Pr0 2.521664 1_555
O11 Y0 2.417907 1_555
O11 Pr0 2.521664 1_555
O12 Y0 2.417907 1_565
O12 Pr0 2.521664 1_555
O13 Y0 2.417907 1_555
O13 Pr0 2.521664 1_555
