# generated using pymatgen
data_Zr3TiCu2
_symmetry_space_group_name_H-M   'P 1'
_cell_length_a   6.30864686
_cell_length_b   6.30864686
_cell_length_c   22.02265328
_cell_angle_alpha   90.00000000
_cell_angle_beta   90.00000000
_cell_angle_gamma   90.00000000
_symmetry_Int_Tables_number   1
_chemical_formula_structural   Zr3TiCu2
_chemical_formula_sum   'Zr24 Ti8 Cu16'
_cell_volume   876.48013295
_cell_formula_units_Z   8
loop_
 _symmetry_equiv_pos_site_id
 _symmetry_equiv_pos_as_xyz
  1  'x, y, z'
loop_
 _atom_site_type_symbol
 _atom_site_label
 _atom_site_symmetry_multiplicity
 _atom_site_fract_x
 _atom_site_fract_y
 _atom_site_fract_z
 _atom_site_occupancy
  Zr  Zr0_0  1  0.00000000  0.00000000  0.32572548  1
  Zr  Zr0_1  1  0.00000000  0.00000000  0.82572548  1
  Zr  Zr0_2  1  0.00000000  0.50000000  0.32572548  1
  Zr  Zr0_3  1  0.00000000  0.50000000  0.82572548  1
  Zr  Zr0_4  1  0.50000000  0.00000000  0.32572548  1
  Zr  Zr0_5  1  0.50000000  0.00000000  0.82572548  1
  Zr  Zr0_6  1  0.50000000  0.50000000  0.32572548  1
  Zr  Zr0_7  1  0.50000000  0.50000000  0.82572548  1
  Zr  Zr1_0  1  0.00000000  0.00000000  0.16468338  1
  Zr  Zr1_1  1  0.00000000  0.00000000  0.66468338  1
  Zr  Zr1_2  1  0.00000000  0.50000000  0.16468338  1
  Zr  Zr1_3  1  0.00000000  0.50000000  0.66468338  1
  Zr  Zr1_4  1  0.50000000  0.00000000  0.16468338  1
  Zr  Zr1_5  1  0.50000000  0.00000000  0.66468338  1
  Zr  Zr1_6  1  0.50000000  0.50000000  0.16468338  1
  Zr  Zr1_7  1  0.50000000  0.50000000  0.66468338  1
  Zr  Zr2_0  1  0.25000000  0.25000000  0.42610590  1
  Zr  Zr2_1  1  0.25000000  0.25000000  0.92610590  1
  Zr  Zr2_2  1  0.25000000  0.75000000  0.42610590  1
  Zr  Zr2_3  1  0.25000000  0.75000000  0.92610590  1
  Zr  Zr2_4  1  0.75000000  0.25000000  0.42610590  1
  Zr  Zr2_5  1  0.75000000  0.25000000  0.92610590  1
  Zr  Zr2_6  1  0.75000000  0.75000000  0.42610590  1
  Zr  Zr2_7  1  0.75000000  0.75000000  0.92610590  1
  Ti  Ti0_0  1  0.25000000  0.25000000  0.07579174  1
  Ti  Ti0_1  1  0.25000000  0.25000000  0.57579174  1
  Ti  Ti0_2  1  0.25000000  0.75000000  0.07579174  1
  Ti  Ti0_3  1  0.25000000  0.75000000  0.57579174  1
  Ti  Ti0_4  1  0.75000000  0.25000000  0.07579174  1
  Ti  Ti0_5  1  0.75000000  0.25000000  0.57579174  1
  Ti  Ti0_6  1  0.75000000  0.75000000  0.07579174  1
  Ti  Ti0_7  1  0.75000000  0.75000000  0.57579174  1
  Cu  Cu0_0  1  0.00000000  0.00000000  0.01205452  1
  Cu  Cu0_1  1  0.00000000  0.00000000  0.51205451  1
  Cu  Cu0_2  1  0.00000000  0.50000000  0.01205452  1
  Cu  Cu0_3  1  0.00000000  0.50000000  0.51205451  1
  Cu  Cu0_4  1  0.50000000  0.00000000  0.01205452  1
  Cu  Cu0_5  1  0.50000000  0.00000000  0.51205451  1
  Cu  Cu0_6  1  0.50000000  0.50000000  0.01205452  1
  Cu  Cu0_7  1  0.50000000  0.50000000  0.51205451  1
  Cu  Cu1_0  1  0.25000000  0.25000000  0.24563849  1
  Cu  Cu1_1  1  0.25000000  0.25000000  0.74563849  1
  Cu  Cu1_2  1  0.25000000  0.75000000  0.24563849  1
  Cu  Cu1_3  1  0.25000000  0.75000000  0.74563849  1
  Cu  Cu1_4  1  0.75000000  0.25000000  0.24563849  1
  Cu  Cu1_5  1  0.75000000  0.25000000  0.74563849  1
  Cu  Cu1_6  1  0.75000000  0.75000000  0.24563849  1
  Cu  Cu1_7  1  0.75000000  0.75000000  0.74563849  1
loop_
_geom_bond_atom_site_label_1
_geom_bond_atom_site_label_2
_geom_bond_distance
_geom_bond_site_symmetry_2
Zr0_0 Zr2_6 3.140354 1_445
Zr0_0 Zr2_4 3.140354 1_455
Zr0_0 Zr2_0 3.140354 1_555
Zr0_0 Zr2_2 3.140354 1_545
Zr0_0 Zr0_2 3.154323 1_545
Zr0_0 Zr0_4 3.154323 1_455
Zr0_0 Zr0_4 3.154323 1_555
Zr0_0 Zr0_2 3.154323 1_555
Zr0_1 Zr2_1 3.140354 1_555
Zr0_1 Zr2_3 3.140354 1_545
Zr0_1 Zr2_5 3.140354 1_455
Zr0_1 Zr2_7 3.140354 1_445
Zr0_1 Zr0_3 3.154323 1_545
Zr0_1 Zr0_5 3.154323 1_455
Zr0_1 Zr0_5 3.154323 1_555
Zr0_1 Zr0_3 3.154323 1_555
Zr0_2 Zr2_2 3.140354 1_555
Zr0_2 Zr2_4 3.140354 1_455
Zr0_2 Zr2_0 3.140354 1_555
Zr0_2 Zr2_6 3.140354 1_455
Zr0_2 Zr0_6 3.154323 1_555
Zr0_2 Zr0_6 3.154323 1_455
Zr0_3 Zr2_1 3.140354 1_555
Zr0_3 Zr2_5 3.140354 1_455
Zr0_3 Zr2_7 3.140354 1_455
Zr0_3 Zr2_3 3.140354 1_555
Zr0_3 Zr0_7 3.154323 1_555
Zr0_3 Zr0_7 3.154323 1_455
Zr0_4 Zr2_6 3.140354 1_545
Zr0_4 Zr2_0 3.140354 1_555
Zr0_4 Zr2_2 3.140354 1_545
Zr0_4 Zr2_4 3.140354 1_555
Zr0_4 Zr0_6 3.154323 1_545
Zr0_4 Zr0_6 3.154323 1_555
Zr0_5 Zr2_1 3.140354 1_555
Zr0_5 Zr2_3 3.140354 1_545
Zr0_5 Zr2_7 3.140354 1_545
Zr0_5 Zr2_5 3.140354 1_555
Zr0_5 Zr0_7 3.154323 1_555
Zr0_5 Zr0_7 3.154323 1_545
Zr0_6 Zr2_2 3.140354 1_555
Zr0_6 Zr2_6 3.140354 1_555
Zr0_6 Zr2_0 3.140354 1_555
Zr0_6 Zr2_4 3.140354 1_555
Zr0_7 Zr2_7 3.140354 1_555
Zr0_7 Zr2_1 3.140354 1_555
Zr0_7 Zr2_5 3.140354 1_555
Zr0_7 Zr2_3 3.140354 1_555
Zr1_0 Zr1_2 3.154323 1_555
Zr1_0 Zr1_2 3.154323 1_545
Zr1_0 Zr1_4 3.154323 1_455
Zr1_0 Zr1_4 3.154323 1_555
Zr1_1 Zr1_5 3.154323 1_455
Zr1_1 Zr1_5 3.154323 1_555
Zr1_1 Zr1_3 3.154323 1_555
Zr1_1 Zr1_3 3.154323 1_545
Zr1_2 Zr1_6 3.154323 1_455
Zr1_2 Zr1_6 3.154323 1_555
Zr1_3 Zr1_7 3.154323 1_555
Zr1_3 Zr1_7 3.154323 1_455
Zr1_4 Zr1_6 3.154323 1_555
Zr1_4 Zr1_6 3.154323 1_545
Zr1_5 Zr1_7 3.154323 1_545
Zr1_5 Zr1_7 3.154323 1_555
Zr2_0 Zr2_4 3.154323 1_455
Zr2_0 Zr2_2 3.154323 1_545
Zr2_0 Zr2_4 3.154323 1_555
Zr2_0 Zr2_2 3.154323 1_555
Zr2_1 Zr2_3 3.154323 1_555
Zr2_1 Zr2_3 3.154323 1_545
Zr2_1 Zr2_5 3.154323 1_455
Zr2_1 Zr2_5 3.154323 1_555
Zr2_2 Zr2_6 3.154323 1_455
Zr2_2 Zr2_6 3.154323 1_555
Zr2_3 Zr2_7 3.154323 1_455
Zr2_3 Zr2_7 3.154323 1_555
Zr2_4 Zr2_6 3.154323 1_545
Zr2_4 Zr2_6 3.154323 1_555
Zr2_5 Zr2_7 3.154323 1_555
Zr2_5 Zr2_7 3.154323 1_545
Ti0_0 Zr1_2 2.967691 1_555
Ti0_0 Zr1_6 2.967691 1_555
Ti0_0 Zr1_0 2.967691 1_555
Ti0_0 Zr1_4 2.967691 1_555
Ti0_1 Zr1_5 2.967691 1_555
Ti0_1 Zr1_3 2.967691 1_555
Ti0_1 Zr1_7 2.967691 1_555
Ti0_1 Zr1_1 2.967691 1_555
Ti0_2 Zr1_4 2.967691 1_565
Ti0_2 Zr1_2 2.967691 1_555
Ti0_2 Zr1_6 2.967691 1_555
Ti0_2 Zr1_0 2.967691 1_565
Ti0_3 Zr1_1 2.967691 1_565
Ti0_3 Zr1_5 2.967691 1_565
Ti0_3 Zr1_3 2.967691 1_555
Ti0_3 Zr1_7 2.967691 1_555
Ti0_4 Zr1_0 2.967691 1_655
Ti0_4 Zr1_6 2.967691 1_555
Ti0_4 Zr1_2 2.967691 1_655
Ti0_4 Zr1_4 2.967691 1_555
Ti0_5 Zr1_1 2.967691 1_655
Ti0_5 Zr1_5 2.967691 1_555
Ti0_5 Zr1_3 2.967691 1_655
Ti0_5 Zr1_7 2.967691 1_555
Ti0_6 Zr1_4 2.967691 1_565
Ti0_6 Zr1_6 2.967691 1_555
Ti0_6 Zr1_0 2.967691 1_665
Ti0_6 Zr1_2 2.967691 1_655
Ti0_7 Zr1_5 2.967691 1_565
Ti0_7 Zr1_1 2.967691 1_665
Ti0_7 Zr1_3 2.967691 1_655
Ti0_7 Zr1_7 2.967691 1_555
Cu0_0 Ti0_0 2.635365 1_555
Cu0_0 Ti0_4 2.635365 1_455
Cu0_0 Ti0_2 2.635365 1_545
Cu0_0 Ti0_6 2.635365 1_445
Cu0_0 Zr2_1 2.925343 1_554
Cu0_0 Zr2_3 2.925343 1_544
Cu0_0 Zr2_5 2.925343 1_454
Cu0_0 Zr2_7 2.925343 1_444
Cu0_1 Ti0_1 2.635365 1_555
Cu0_1 Ti0_3 2.635365 1_545
Cu0_1 Ti0_5 2.635365 1_455
Cu0_1 Ti0_7 2.635365 1_445
Cu0_1 Zr2_6 2.925343 1_445
Cu0_1 Zr2_0 2.925343 1_555
Cu0_1 Zr2_4 2.925343 1_455
Cu0_1 Zr2_2 2.925343 1_545
Cu0_2 Ti0_0 2.635365 1_555
Cu0_2 Ti0_6 2.635365 1_455
Cu0_2 Ti0_4 2.635365 1_455
Cu0_2 Ti0_2 2.635365 1_555
Cu0_2 Zr2_1 2.925343 1_554
Cu0_2 Zr2_5 2.925343 1_454
Cu0_2 Zr2_3 2.925343 1_554
Cu0_2 Zr2_7 2.925343 1_454
Cu0_3 Ti0_1 2.635365 1_555
Cu0_3 Ti0_5 2.635365 1_455
Cu0_3 Ti0_3 2.635365 1_555
Cu0_3 Ti0_7 2.635365 1_455
Cu0_3 Zr2_6 2.925343 1_455
Cu0_3 Zr2_2 2.925343 1_555
Cu0_3 Zr2_0 2.925343 1_555
Cu0_3 Zr2_4 2.925343 1_455
Cu0_4 Ti0_0 2.635365 1_555
Cu0_4 Ti0_6 2.635365 1_545
Cu0_4 Ti0_4 2.635365 1_555
Cu0_4 Ti0_2 2.635365 1_545
Cu0_4 Zr2_1 2.925343 1_554
Cu0_4 Zr2_5 2.925343 1_554
Cu0_4 Zr2_3 2.925343 1_544
Cu0_4 Zr2_7 2.925343 1_544
Cu0_5 Ti0_1 2.635365 1_555
Cu0_5 Ti0_3 2.635365 1_545
Cu0_5 Ti0_7 2.635365 1_545
Cu0_5 Ti0_5 2.635365 1_555
Cu0_5 Zr2_4 2.925343 1_555
Cu0_5 Zr2_2 2.925343 1_545
Cu0_5 Zr2_0 2.925343 1_555
Cu0_5 Zr2_6 2.925343 1_545
Cu0_6 Ti0_0 2.635365 1_555
Cu0_6 Ti0_4 2.635365 1_555
Cu0_6 Ti0_2 2.635365 1_555
Cu0_6 Ti0_6 2.635365 1_555
Cu0_6 Zr2_1 2.925343 1_554
Cu0_6 Zr2_5 2.925343 1_554
Cu0_6 Zr2_3 2.925343 1_554
Cu0_6 Zr2_7 2.925343 1_554
Cu0_7 Ti0_1 2.635365 1_555
Cu0_7 Ti0_7 2.635365 1_555
Cu0_7 Ti0_5 2.635365 1_555
Cu0_7 Ti0_3 2.635365 1_555
Cu0_7 Zr2_4 2.925343 1_555
Cu0_7 Zr2_2 2.925343 1_555
Cu0_7 Zr2_6 2.925343 1_555
Cu0_7 Zr2_0 2.925343 1_555
Cu1_0 Zr0_2 2.843522 1_555
Cu1_0 Zr0_0 2.843522 1_555
Cu1_0 Zr0_4 2.843522 1_555
Cu1_0 Zr0_6 2.843522 1_555
Cu1_0 Zr1_0 2.855419 1_555
Cu1_0 Zr1_4 2.855419 1_555
Cu1_0 Zr1_2 2.855419 1_555
Cu1_0 Zr1_6 2.855419 1_555
Cu1_0 Cu1_4 3.154323 1_555
Cu1_0 Cu1_4 3.154323 1_455
Cu1_0 Cu1_2 3.154323 1_545
Cu1_0 Cu1_2 3.154323 1_555
Cu1_1 Zr0_5 2.843522 1_555
Cu1_1 Zr0_1 2.843522 1_555
Cu1_1 Zr0_3 2.843522 1_555
Cu1_1 Zr0_7 2.843522 1_555
Cu1_1 Zr1_7 2.855419 1_555
Cu1_1 Zr1_1 2.855419 1_555
Cu1_1 Zr1_5 2.855419 1_555
Cu1_1 Zr1_3 2.855419 1_555
Cu1_1 Cu1_3 3.154323 1_545
Cu1_1 Cu1_5 3.154323 1_455
Cu1_1 Cu1_3 3.154323 1_555
Cu1_1 Cu1_5 3.154323 1_555
Cu1_2 Zr0_2 2.843522 1_555
Cu1_2 Zr0_6 2.843522 1_555
Cu1_2 Zr0_0 2.843522 1_565
Cu1_2 Zr0_4 2.843522 1_565
Cu1_2 Zr1_4 2.855419 1_565
Cu1_2 Zr1_6 2.855419 1_555
Cu1_2 Zr1_2 2.855419 1_555
Cu1_2 Zr1_0 2.855419 1_565
Cu1_2 Cu1_6 3.154323 1_455
Cu1_2 Cu1_6 3.154323 1_555
Cu1_3 Zr0_1 2.843522 1_565
Cu1_3 Zr0_3 2.843522 1_555
Cu1_3 Zr0_5 2.843522 1_565
Cu1_3 Zr0_7 2.843522 1_555
Cu1_3 Zr1_7 2.855419 1_555
Cu1_3 Zr1_1 2.855419 1_565
Cu1_3 Zr1_5 2.855419 1_565
Cu1_3 Zr1_3 2.855419 1_555
Cu1_3 Cu1_7 3.154323 1_555
Cu1_3 Cu1_7 3.154323 1_455
Cu1_4 Zr0_2 2.843522 1_655
Cu1_4 Zr0_4 2.843522 1_555
Cu1_4 Zr0_6 2.843522 1_555
Cu1_4 Zr0_0 2.843522 1_655
Cu1_4 Zr1_2 2.855419 1_655
Cu1_4 Zr1_4 2.855419 1_555
Cu1_4 Zr1_0 2.855419 1_655
Cu1_4 Zr1_6 2.855419 1_555
Cu1_4 Cu1_6 3.154323 1_555
Cu1_4 Cu1_6 3.154323 1_545
Cu1_5 Zr0_3 2.843522 1_655
Cu1_5 Zr0_5 2.843522 1_555
Cu1_5 Zr0_1 2.843522 1_655
Cu1_5 Zr0_7 2.843522 1_555
Cu1_5 Zr1_7 2.855419 1_555
Cu1_5 Zr1_5 2.855419 1_555
Cu1_5 Zr1_1 2.855419 1_655
Cu1_5 Zr1_3 2.855419 1_655
Cu1_5 Cu1_7 3.154323 1_545
Cu1_5 Cu1_7 3.154323 1_555
Cu1_6 Zr0_2 2.843522 1_655
Cu1_6 Zr0_6 2.843522 1_555
Cu1_6 Zr0_4 2.843522 1_565
Cu1_6 Zr0_0 2.843522 1_665
Cu1_6 Zr1_0 2.855419 1_665
Cu1_6 Zr1_2 2.855419 1_655
Cu1_6 Zr1_4 2.855419 1_565
Cu1_6 Zr1_6 2.855419 1_555
Cu1_7 Zr0_3 2.843522 1_655
Cu1_7 Zr0_1 2.843522 1_665
Cu1_7 Zr0_5 2.843522 1_565
Cu1_7 Zr0_7 2.843522 1_555
Cu1_7 Zr1_7 2.855419 1_555
Cu1_7 Zr1_5 2.855419 1_565
Cu1_7 Zr1_1 2.855419 1_665
Cu1_7 Zr1_3 2.855419 1_655
