# generated using pymatgen
data_V6Ga7
_symmetry_space_group_name_H-M   'P 1'
_cell_length_a   7.91381831
_cell_length_b   7.91381831
_cell_length_c   7.82517759
_cell_angle_alpha   70.91635904
_cell_angle_beta   70.91635904
_cell_angle_gamma   109.17322647
_symmetry_Int_Tables_number   1
_chemical_formula_structural   V6Ga7
_chemical_formula_sum   'V12 Ga14'
_cell_volume   382.17784371
_cell_formula_units_Z   2
loop_
 _symmetry_equiv_pos_site_id
 _symmetry_equiv_pos_as_xyz
  1  'x, y, z'
loop_
 _atom_site_type_symbol
 _atom_site_label
 _atom_site_symmetry_multiplicity
 _atom_site_fract_x
 _atom_site_fract_y
 _atom_site_fract_z
 _atom_site_occupancy
  V  V0  1  0.00639300  0.00639300  0.66027800  1
  V  V1  1  0.00157700  0.34218800  0.99179400  1
  V  V2  1  0.34218800  0.00157700  0.99179400  1
  V  V3  1  0.65513700  0.65513700  0.34307000  1
  V  V4  1  0.99780400  0.99780400  0.20727100  1
  V  V5  1  0.00780300  0.79519600  0.99307300  1
  V  V6  1  0.79519600  0.00780300  0.99307300  1
  V  V7  1  0.21302800  0.21302800  0.78439800  1
  V  V8  1  0.99465600  0.65493900  0.35048600  1
  V  V9  1  0.34003700  0.34003700  0.01202900  1
  V  V10  1  0.65493900  0.99465600  0.35048600  1
  V  V11  1  0.64943500  0.64943500  0.00851600  1
  Ga  Ga0  1  0.36140900  0.99851900  0.63730000  1
  Ga  Ga1  1  0.99851900  0.36140900  0.63730000  1
  Ga  Ga2  1  0.99169100  0.26085800  0.34597700  1
  Ga  Ga3  1  0.72910300  0.72910300  0.61838400  1
  Ga  Ga4  1  0.26085800  0.99169100  0.34597700  1
  Ga  Ga5  1  0.99005800  0.65059400  0.73582200  1
  Ga  Ga6  1  0.26564800  0.64037800  0.01830600  1
  Ga  Ga7  1  0.74202800  0.39307500  0.26555700  1
  Ga  Ga8  1  0.39307500  0.74202800  0.26555700  1
  Ga  Ga9  1  0.64037800  0.26564800  0.01830600  1
  Ga  Ga10  1  0.65059400  0.99005800  0.73582200  1
  Ga  Ga11  1  0.61284800  0.35321200  0.65768300  1
  Ga  Ga12  1  0.35238600  0.35238600  0.37405900  1
  Ga  Ga13  1  0.35321200  0.61284800  0.65768300  1
loop_
_geom_bond_atom_site_label_1
_geom_bond_atom_site_label_2
_geom_bond_distance
_geom_bond_site_symmetry_2
V0 V7 2.571423 1_555
V0 V5 2.600096 1_545
V0 V6 2.600096 1_455
V0 V11 2.841987 1_446
V1 V6 2.608334 1_455
V1 V7 2.628926 1_555
V1 V4 2.679636 1_446
V1 V9 2.739581 1_556
V1 V10 2.815906 1_446
V2 V5 2.608334 1_545
V2 V7 2.628926 1_555
V2 V4 2.679636 1_446
V2 V9 2.739581 1_556
V2 V8 2.815906 1_446
V3 V4 2.690339 1_555
V3 V8 2.706921 1_555
V3 V5 2.739275 1_654
V3 V6 2.739275 1_564
V4 V8 2.562790 1_555
V4 V9 2.602899 1_665
V4 V5 2.672185 1_654
V4 V6 2.672185 1_564
V4 V7 2.734135 1_664
V5 V8 2.601727 1_456
V5 V7 2.728678 1_565
V5 V6 2.742504 1_465
V6 V7 2.728678 1_655
V7 V9 2.621310 1_556
V10 V4 2.562790 1_555
V10 V6 2.601727 1_564
V10 V3 2.706921 1_555
V11 V5 2.631413 1_654
V11 V6 2.631413 1_564
V11 V3 2.647803 1_555
V11 V9 2.822276 1_555
Ga0 Ga10 2.656494 1_555
Ga0 Ga4 2.659217 1_555
Ga0 V10 2.667694 1_555
Ga0 V5 2.681316 1_555
Ga0 V7 2.699798 1_565
Ga0 V2 2.736619 1_565
Ga0 V0 2.778790 1_565
Ga0 Ga12 2.923391 1_565
Ga0 Ga5 2.937275 1_455
Ga0 Ga11 2.948817 1_565
Ga0 Ga13 2.981611 1_555
Ga0 Ga6 3.013720 1_556
Ga0 Ga7 3.072120 1_565
Ga1 Ga5 2.656494 1_555
Ga1 Ga2 2.659217 1_555
Ga1 V8 2.667694 1_555
Ga1 V6 2.681316 1_555
Ga1 V7 2.699798 1_655
Ga1 V1 2.736619 1_655
Ga1 V0 2.778790 1_655
Ga1 Ga12 2.923391 1_655
Ga1 Ga10 2.937275 1_545
Ga1 Ga13 2.948817 1_655
Ga1 Ga11 2.981611 1_555
Ga1 Ga9 3.013720 1_556
Ga1 Ga8 3.072120 1_655
Ga2 V1 2.600101 1_654
Ga2 V4 2.650186 1_545
Ga2 Ga7 2.671140 1_555
Ga2 V0 2.687045 1_655
Ga2 Ga6 2.710673 1_655
Ga2 V10 2.782748 1_545
Ga2 V9 2.811605 1_655
Ga2 V8 3.122887 1_555
Ga3 V3 2.598229 1_555
Ga3 Ga5 2.684363 1_555
Ga3 V11 2.708621 1_556
Ga3 V4 2.734285 1_555
Ga3 V0 2.741571 1_665
Ga3 V10 2.808838 1_555
Ga3 V8 2.808838 1_555
Ga3 V9 3.133414 1_556
Ga4 V2 2.600101 1_564
Ga4 V4 2.650186 1_455
Ga4 Ga8 2.671140 1_555
Ga4 V0 2.687045 1_565
Ga4 Ga9 2.710673 1_565
Ga4 Ga5 2.779590 1_455
Ga4 V8 2.782748 1_455
Ga4 V9 2.811605 1_565
Ga4 V10 3.122887 1_555
Ga5 V0 2.630022 1_665
Ga5 V5 2.639546 1_655
Ga5 V1 2.654451 1_655
Ga5 Ga9 2.807847 1_556
Ga5 V11 2.833654 1_556
Ga5 V8 2.992375 1_555
Ga6 V2 2.640741 1_564
Ga6 V9 2.641004 1_555
Ga6 Ga8 2.677339 1_555
Ga6 V1 2.709875 1_554
Ga6 V5 2.729716 1_554
Ga6 V8 2.842926 1_455
Ga6 V11 2.989479 1_555
Ga7 V3 2.574573 1_555
Ga7 Ga9 2.677339 1_555
Ga7 V1 2.683386 1_654
Ga7 V5 2.707647 1_654
Ga7 V10 2.785872 1_545
Ga7 V8 2.789491 1_555
Ga7 V11 2.823211 1_555
Ga8 V3 2.574573 1_555
Ga8 V2 2.683386 1_564
Ga8 V6 2.707647 1_564
Ga8 V8 2.785872 1_455
Ga8 V10 2.789491 1_555
Ga8 V11 2.823211 1_555
Ga9 V1 2.640741 1_654
Ga9 V9 2.641004 1_555
Ga9 V2 2.709875 1_554
Ga9 V6 2.729716 1_554
Ga9 V10 2.842926 1_545
Ga9 V11 2.989479 1_555
Ga10 V0 2.630022 1_665
Ga10 V6 2.639546 1_565
Ga10 V2 2.654451 1_565
Ga10 Ga3 2.684363 1_555
Ga10 Ga2 2.779590 1_565
Ga10 Ga6 2.807847 1_556
Ga10 V11 2.833654 1_556
Ga10 Ga11 2.873476 1_565
Ga10 V10 2.992375 1_555
Ga11 V2 2.613960 1_555
Ga11 V3 2.640379 1_555
Ga11 V7 2.673752 1_555
Ga11 Ga3 2.684992 1_555
Ga11 V8 2.714415 1_555
Ga11 Ga7 2.768399 1_555
Ga11 Ga9 2.777318 1_556
Ga11 V9 2.847658 1_556
Ga12 V11 2.609726 1_555
Ga12 V3 2.647492 1_555
Ga12 V0 2.658226 1_555
Ga12 V7 2.704222 1_555
Ga12 Ga7 2.791049 1_555
Ga12 Ga8 2.791049 1_555
Ga12 Ga4 2.806620 1_545
Ga12 Ga2 2.806620 1_455
Ga12 V9 2.898362 1_555
Ga13 V1 2.613960 1_555
Ga13 V3 2.640379 1_555
Ga13 V7 2.673752 1_555
Ga13 Ga3 2.684992 1_555
Ga13 V10 2.714415 1_555
Ga13 Ga8 2.768399 1_555
Ga13 Ga6 2.777318 1_556
Ga13 V9 2.847658 1_556
Ga13 Ga5 2.873476 1_455
