# generated using pymatgen
data_Er2Fe17C2
_symmetry_space_group_name_H-M   'P 1'
_cell_length_a   6.44662144
_cell_length_b   6.44662144
_cell_length_c   6.48547194
_cell_angle_alpha   83.50610175
_cell_angle_beta   83.50610175
_cell_angle_gamma   82.84571377
_symmetry_Int_Tables_number   1
_chemical_formula_structural   Er2Fe17C2
_chemical_formula_sum   'Er2 Fe17 C2'
_cell_volume   264.37143694
_cell_formula_units_Z   1
loop_
 _symmetry_equiv_pos_site_id
 _symmetry_equiv_pos_as_xyz
  1  'x, y, z'
loop_
 _atom_site_type_symbol
 _atom_site_label
 _atom_site_symmetry_multiplicity
 _atom_site_fract_x
 _atom_site_fract_y
 _atom_site_fract_z
 _atom_site_occupancy
  Er  Er0  1  0.34414300  0.34414300  0.33669300  1
  Er  Er1  1  0.65585700  0.65585700  0.66330700  1
  Fe  Fe0  1  0.09608600  0.09608600  0.09656100  1
  Fe  Fe1  1  0.90391400  0.90391400  0.90343900  1
  Fe  Fe2  1  0.70790900  0.29209100  0.00000000  1
  Fe  Fe3  1  0.28601500  0.99995900  0.71468500  1
  Fe  Fe4  1  0.00004100  0.71398500  0.28531500  1
  Fe  Fe5  1  0.71398500  0.00004100  0.28531500  1
  Fe  Fe6  1  0.99995900  0.28601500  0.71468500  1
  Fe  Fe7  1  0.29209100  0.70790900  0.00000000  1
  Fe  Fe8  1  0.65548800  0.65548800  0.14903300  1
  Fe  Fe9  1  0.65485000  0.14917500  0.65736900  1
  Fe  Fe10  1  0.14917400  0.65485000  0.65736900  1
  Fe  Fe11  1  0.34451200  0.34451200  0.85096700  1
  Fe  Fe12  1  0.34515000  0.85082600  0.34263100  1
  Fe  Fe13  1  0.85082600  0.34515000  0.34263100  1
  Fe  Fe14  1  0.00000000  0.00000000  0.50000000  1
  Fe  Fe15  1  0.00000000  0.50000000  0.00000000  1
  Fe  Fe16  1  0.50000000  0.00000000  0.00000000  1
  C  C0  1  0.50000000  0.00000000  0.50000000  1
  C  C1  1  0.00000000  0.50000000  0.50000000  1
loop_
_geom_bond_atom_site_label_1
_geom_bond_atom_site_label_2
_geom_bond_distance
_geom_bond_site_symmetry_2
Er0 Fe2 3.031755 1_555
Er0 Fe7 3.031755 1_555
Er0 Fe0 3.050154 1_555
Er0 Fe8 3.071918 1_555
Er0 Fe11 3.149626 1_554
Er0 Fe16 3.277803 1_555
Er0 Fe15 3.277803 1_555
Er0 Fe11 3.335850 1_555
Er0 Fe14 3.335978 1_555
Er1 Fe2 3.031755 1_556
Er1 Fe7 3.031755 1_556
Er1 Fe1 3.050154 1_555
Er1 Fe11 3.071918 1_555
Er1 Fe8 3.149626 1_556
Er1 Fe16 3.277803 1_566
Er1 Fe15 3.277803 1_656
Er1 Fe8 3.335850 1_555
Er1 Fe14 3.335978 1_665
Fe0 Fe1 2.392178 1_444
Fe0 Fe15 2.621681 1_555
Fe0 Fe16 2.621681 1_555
Fe0 Fe14 2.641172 1_555
Fe0 Fe12 2.645986 1_545
Fe0 Fe13 2.645986 1_455
Fe0 Fe11 2.674232 1_554
Fe0 Fe5 2.734220 1_455
Fe0 Fe4 2.734220 1_545
Fe0 Fe3 2.736641 1_544
Fe0 Fe6 2.736641 1_454
Fe0 Fe2 2.763844 1_455
Fe0 Fe7 2.763844 1_545
Fe1 Fe16 2.621681 1_566
Fe1 Fe15 2.621681 1_656
Fe1 Fe14 2.641172 1_665
Fe1 Fe10 2.645986 1_655
Fe1 Fe9 2.645989 1_565
Fe1 Fe8 2.674232 1_556
Fe1 Fe6 2.734220 1_565
Fe1 Fe3 2.734220 1_655
Fe1 Fe5 2.736641 1_566
Fe1 Fe4 2.736641 1_656
Fe1 Fe7 2.763844 1_656
Fe1 Fe2 2.763844 1_566
Fe2 Fe6 2.486005 1_554
Fe2 Fe5 2.486005 1_555
Fe2 Fe9 2.572389 1_554
Fe2 Fe8 2.603398 1_555
Fe3 Fe7 2.486005 1_556
Fe4 Fe7 2.486005 1_555
Fe4 Fe8 2.566174 1_455
Fe5 Fe8 2.566174 1_545
Fe7 Fe8 2.603398 1_555
Fe10 Fe14 2.468333 1_565
Fe10 Fe15 2.472480 1_556
Fe10 Fe11 2.515289 1_555
Fe10 Fe7 2.572392 1_556
Fe11 Fe15 2.459799 1_556
Fe11 Fe16 2.459799 1_556
Fe11 Fe9 2.515286 1_555
Fe11 Fe3 2.566174 1_545
Fe11 Fe6 2.566174 1_455
Fe11 Fe2 2.603398 1_556
Fe11 Fe7 2.603398 1_556
Fe12 Fe14 2.468333 1_565
Fe12 Fe16 2.472480 1_565
Fe12 Fe8 2.515289 1_555
Fe12 Fe7 2.572392 1_555
Fe13 Fe14 2.468333 1_655
Fe13 Fe15 2.472480 1_655
Fe13 Fe8 2.515289 1_555
Fe13 Fe2 2.572392 1_555
Fe14 Fe3 2.432857 1_545
Fe14 Fe6 2.432857 1_455
Fe14 Fe4 2.432857 1_545
Fe14 Fe5 2.432857 1_455
Fe14 Fe9 2.468335 1_455
Fe15 Fe4 2.429926 1_555
Fe15 Fe6 2.429926 1_454
Fe15 Fe7 2.443514 1_555
Fe15 Fe2 2.443514 1_455
Fe15 Fe8 2.459799 1_455
Fe16 Fe5 2.429926 1_555
Fe16 Fe3 2.429926 1_544
Fe16 Fe2 2.443514 1_555
Fe16 Fe7 2.443514 1_545
Fe16 Fe8 2.459799 1_545
Fe16 Fe9 2.472482 1_554
C0 Fe5 1.845837 1_555
C0 Fe3 1.845837 1_545
C0 Fe12 1.911690 1_545
C0 Fe9 1.911694 1_555
C0 Er1 2.491436 1_545
C0 Er0 2.491436 1_555
C1 Fe4 1.845837 1_555
C1 Fe6 1.845837 1_455
C1 Fe10 1.911690 1_555
C1 Fe13 1.911690 1_455
C1 Er1 2.491436 1_455
C1 Er0 2.491436 1_555
