# generated using pymatgen
data_La7V2BO17
_symmetry_space_group_name_H-M   'P 1'
_cell_length_a   18.41837900
_cell_length_b   7.10451600
_cell_length_c   13.90085069
_cell_angle_alpha   66.81200262
_cell_angle_beta   90.00000000
_cell_angle_gamma   90.00000000
_symmetry_Int_Tables_number   1
_chemical_formula_structural   La7V2BO17
_chemical_formula_sum   'La28 V8 B4 O68'
_cell_volume   1672.03639670
_cell_formula_units_Z   4
loop_
 _symmetry_equiv_pos_site_id
 _symmetry_equiv_pos_as_xyz
  1  'x, y, z'
loop_
 _atom_site_type_symbol
 _atom_site_label
 _atom_site_symmetry_multiplicity
 _atom_site_fract_x
 _atom_site_fract_y
 _atom_site_fract_z
 _atom_site_occupancy
  La  La0  1  0.72330500  0.79870200  0.17913900  1
  La  La1  1  0.27669500  0.20129800  0.82086100  1
  La  La2  1  0.22330500  0.20129800  0.32086100  1
  La  La3  1  0.77669500  0.79870200  0.67913900  1
  La  La4  1  0.86889400  0.78035800  0.43659100  1
  La  La5  1  0.13110600  0.21964200  0.56340900  1
  La  La6  1  0.36889400  0.21964200  0.06340900  1
  La  La7  1  0.63110600  0.78035800  0.93659100  1
  La  La8  1  0.60736500  0.30630400  0.19752000  1
  La  La9  1  0.39263500  0.69369600  0.80248000  1
  La  La10  1  0.10736500  0.69369600  0.30248000  1
  La  La11  1  0.89263500  0.30630400  0.69752000  1
  La  La12  1  0.27348700  0.71113200  0.09634300  1
  La  La13  1  0.72651300  0.28886800  0.90365700  1
  La  La14  1  0.77348700  0.28886800  0.40365700  1
  La  La15  1  0.22651300  0.71113200  0.59634300  1
  La  La16  1  0.44680300  0.70897100  0.51472600  1
  La  La17  1  0.55319700  0.29102900  0.48527400  1
  La  La18  1  0.94680300  0.29102900  0.98527400  1
  La  La19  1  0.05319700  0.70897100  0.01472600  1
  La  La20  1  0.51978900  0.79749000  0.20936100  1
  La  La21  1  0.48021100  0.20251000  0.79063900  1
  La  La22  1  0.01978900  0.20251000  0.29063900  1
  La  La23  1  0.98021100  0.79749000  0.70936100  1
  La  La24  1  0.65481200  0.81350800  0.42613400  1
  La  La25  1  0.34518800  0.18649200  0.57386600  1
  La  La26  1  0.15481200  0.18649200  0.07386600  1
  La  La27  1  0.84518800  0.81350800  0.92613400  1
  V  V0  1  0.80245500  0.28962000  0.16336600  1
  V  V1  1  0.19754500  0.71038000  0.83663400  1
  V  V2  1  0.30245500  0.71038000  0.33663400  1
  V  V3  1  0.69754500  0.28962000  0.66336600  1
  V  V4  1  0.93689700  0.77910200  0.18331500  1
  V  V5  1  0.06310300  0.22089800  0.81668500  1
  V  V6  1  0.43689700  0.22089800  0.31668500  1
  V  V7  1  0.56310300  0.77910200  0.68331500  1
  B  B0  1  0.43076700  0.74843200  0.00099800  1
  B  B1  1  0.56923300  0.25156800  0.99900200  1
  B  B2  1  0.93076700  0.25156800  0.49900200  1
  B  B3  1  0.06923300  0.74843200  0.50099800  1
  O  O0  1  0.87241800  0.43897700  0.08929300  1
  O  O1  1  0.12758200  0.56102300  0.91070700  1
  O  O2  1  0.37241800  0.56102300  0.41070700  1
  O  O3  1  0.62758200  0.43897700  0.58929300  1
  O  O4  1  0.37915000  0.59804600  0.00115300  1
  O  O5  1  0.62085000  0.40195400  0.99884700  1
  O  O6  1  0.87915000  0.40195400  0.49884700  1
  O  O7  1  0.12085000  0.59804600  0.50115300  1
  O  O8  1  0.76851200  0.90017000  0.49168700  1
  O  O9  1  0.23148800  0.09983000  0.50831300  1
  O  O10  1  0.26851200  0.09983000  0.00831300  1
  O  O11  1  0.73148800  0.90017000  0.99168700  1
  O  O12  1  0.63194000  0.95118800  0.24182000  1
  O  O13  1  0.36806000  0.04881200  0.75818000  1
  O  O14  1  0.13194000  0.04881200  0.25818000  1
  O  O15  1  0.86806000  0.95118800  0.74182000  1
  O  O16  1  0.93543400  0.86963300  0.04606800  1
  O  O17  1  0.06456600  0.13036700  0.95393200  1
  O  O18  1  0.43543400  0.13036700  0.45393200  1
  O  O19  1  0.56456600  0.86963300  0.54606800  1
  O  O20  1  0.85503500  0.70594900  0.24433900  1
  O  O21  1  0.14496500  0.29405100  0.75566100  1
  O  O22  1  0.35503500  0.29405100  0.25566100  1
  O  O23  1  0.64496500  0.70594900  0.74433900  1
  O  O24  1  0.14481100  0.79528700  0.12038000  1
  O  O25  1  0.85518900  0.20471300  0.87962000  1
  O  O26  1  0.64481100  0.20471300  0.37962000  1
  O  O27  1  0.35518900  0.79528700  0.62038000  1
  O  O28  1  0.73878000  0.43417200  0.19996100  1
  O  O29  1  0.26122000  0.56582800  0.80003900  1
  O  O30  1  0.23878000  0.56582800  0.30003900  1
  O  O31  1  0.76122000  0.43417200  0.69996100  1
  O  O32  1  0.54228000  0.63506500  0.40320100  1
  O  O33  1  0.45772000  0.36493500  0.59679900  1
  O  O34  1  0.04228000  0.36493500  0.09679900  1
  O  O35  1  0.95772000  0.63506500  0.90320100  1
  O  O36  1  0.00326900  0.58567900  0.22567700  1
  O  O37  1  0.99673100  0.41432100  0.77432300  1
  O  O38  1  0.50326900  0.41432100  0.27432300  1
  O  O39  1  0.49673100  0.58567900  0.72567700  1
  O  O40  1  0.33005700  0.89100700  0.21806200  1
  O  O41  1  0.66994300  0.10899300  0.78193800  1
  O  O42  1  0.83005700  0.10899300  0.28193800  1
  O  O43  1  0.16994300  0.89100700  0.71806200  1
  O  O44  1  0.60999300  0.68072900  0.12462200  1
  O  O45  1  0.39000700  0.31927100  0.87537800  1
  O  O46  1  0.10999300  0.31927100  0.37537800  1
  O  O47  1  0.89000700  0.68072900  0.62462200  1
  O  O48  1  0.97026100  0.98358200  0.20579300  1
  O  O49  1  0.02973900  0.01641800  0.79420700  1
  O  O50  1  0.47026100  0.01641800  0.29420700  1
  O  O51  1  0.52973900  0.98358200  0.70579300  1
  O  O52  1  0.42023900  0.83586800  0.07286900  1
  O  O53  1  0.57976100  0.16413200  0.92713100  1
  O  O54  1  0.92023900  0.16413200  0.42713100  1
  O  O55  1  0.07976100  0.83586800  0.57286900  1
  O  O56  1  0.51637600  0.19520300  0.07718400  1
  O  O57  1  0.48362400  0.80479700  0.92281600  1
  O  O58  1  0.01637600  0.80479700  0.42281600  1
  O  O59  1  0.98362400  0.19520300  0.57718400  1
  O  O60  1  0.73966600  0.62759600  0.37425800  1
  O  O61  1  0.26033400  0.37240400  0.62574200  1
  O  O62  1  0.23966600  0.37240400  0.12574200  1
  O  O63  1  0.76033400  0.62759600  0.87425800  1
  O  O64  1  0.26106500  0.83350200  0.40815100  1
  O  O65  1  0.73893500  0.16649800  0.59184900  1
  O  O66  1  0.76106500  0.16649800  0.09184900  1
  O  O67  1  0.23893500  0.83350200  0.90815100  1
loop_
_geom_bond_atom_site_label_1
_geom_bond_atom_site_label_2
_geom_bond_distance
_geom_bond_site_symmetry_2
La0 O12 2.346906 1_555
La0 O11 2.419301 1_554
La0 O44 2.476419 1_555
La0 O28 2.506355 1_555
La0 O66 2.507389 1_565
La0 O60 2.515695 1_555
La0 O20 2.583032 1_555
La1 O13 2.346906 1_555
La1 O10 2.419301 1_556
La1 O45 2.476419 1_555
La1 O29 2.506355 1_555
La1 O67 2.507389 1_545
La1 O61 2.515695 1_555
La1 O21 2.583032 1_555
La2 O14 2.346906 1_555
La2 O9 2.419301 1_555
La2 O46 2.476419 1_555
La2 O30 2.506355 1_555
La2 O64 2.507389 1_545
La2 O62 2.515695 1_555
La2 O22 2.583032 1_555
La3 O15 2.346906 1_555
La3 O8 2.419301 1_555
La3 O47 2.476419 1_555
La3 O31 2.506355 1_555
La3 O65 2.507389 1_565
La3 O63 2.515695 1_555
La3 O23 2.583032 1_555
La4 O8 2.289727 1_555
La4 O47 2.455033 1_555
La4 O6 2.485927 1_555
La4 O42 2.575242 1_565
La4 O58 2.723848 1_655
La4 O54 2.839583 1_565
La4 O60 2.886942 1_555
La4 O20 2.932448 1_555
La5 O9 2.289727 1_555
La5 O46 2.455033 1_555
La5 O7 2.485927 1_555
La5 O43 2.575242 1_545
La5 O59 2.723848 1_455
La5 O55 2.839583 1_545
La5 O61 2.886942 1_555
La5 O21 2.932448 1_555
La6 O10 2.289727 1_555
La6 O45 2.455033 1_554
La6 O4 2.485927 1_555
La6 O40 2.575242 1_545
La6 O56 2.723848 1_555
La6 O52 2.839583 1_545
La6 O62 2.886942 1_555
La6 O22 2.932448 1_555
La7 O11 2.289727 1_555
La7 O44 2.455033 1_556
La7 O5 2.485927 1_555
La7 O41 2.575242 1_565
La7 O57 2.723848 1_555
La7 O53 2.839583 1_565
La7 O63 2.886942 1_555
La7 O23 2.932448 1_555
La8 O12 2.392858 1_545
La8 O26 2.442447 1_555
La8 O44 2.445935 1_555
La8 O38 2.459656 1_555
La8 O5 2.583152 1_554
La8 O28 2.590227 1_555
La8 O56 2.696202 1_555
La9 O13 2.392858 1_565
La9 O27 2.442447 1_555
La9 O45 2.445935 1_555
La9 O39 2.459656 1_555
La9 O4 2.583152 1_556
La9 O29 2.590227 1_555
La9 O57 2.696202 1_555
La10 O14 2.392858 1_565
La10 O24 2.442447 1_555
La10 O46 2.445935 1_555
La10 O36 2.459656 1_555
La10 O7 2.583152 1_555
La10 O30 2.590227 1_555
La10 O58 2.696202 1_555
La11 O15 2.392858 1_545
La11 O25 2.442447 1_555
La11 O47 2.445935 1_555
La11 O37 2.459656 1_555
La11 O6 2.583152 1_555
La11 O31 2.590227 1_555
La11 O59 2.696202 1_555
La12 O62 2.360468 1_555
La12 O67 2.492669 1_554
La12 O24 2.498668 1_555
La12 O10 2.543741 1_565
La12 O4 2.649729 1_555
La12 O30 2.681432 1_555
La12 O40 2.698949 1_555
La12 O52 2.823108 1_555
La13 O63 2.360468 1_555
La13 O66 2.492669 1_556
La13 O25 2.498668 1_555
La13 O11 2.543741 1_545
La13 O5 2.649729 1_555
La13 O31 2.681432 1_555
La13 O41 2.698949 1_555
La13 O53 2.823108 1_555
La14 O60 2.360468 1_555
La14 O65 2.492669 1_555
La14 O26 2.498668 1_555
La14 O8 2.543741 1_545
La14 O6 2.649729 1_555
La14 O28 2.681432 1_555
La14 O42 2.698949 1_555
La14 O54 2.823108 1_555
La15 O61 2.360468 1_555
La15 O64 2.492669 1_555
La15 O27 2.498668 1_555
La15 O9 2.543741 1_565
La15 O7 2.649729 1_555
La15 O29 2.681432 1_555
La15 O43 2.698949 1_555
La15 O55 2.823108 1_555
La16 O33 2.262790 1_555
La16 O27 2.467709 1_555
La16 O2 2.503897 1_555
La16 O32 2.532304 1_555
La16 O19 2.566879 1_555
La16 O18 2.780026 1_565
La16 O39 2.861663 1_555
La16 O50 3.013562 1_565
La17 O32 2.262790 1_555
La17 O26 2.467709 1_555
La17 O3 2.503897 1_555
La17 O33 2.532304 1_555
La17 O18 2.566879 1_555
La17 O19 2.780026 1_545
La17 O38 2.861663 1_555
La17 O51 3.013562 1_545
La18 O35 2.262790 1_555
La18 O25 2.467709 1_555
La18 O0 2.503897 1_556
La18 O34 2.532304 1_656
La18 O17 2.566879 1_655
La18 O16 2.780026 1_546
La18 O37 2.861663 1_555
La18 O48 3.013562 1_546
La19 O34 2.262790 1_555
La19 O24 2.467709 1_555
La19 O1 2.503897 1_554
La19 O35 2.532304 1_454
La19 O16 2.566879 1_455
La19 O17 2.780026 1_564
La19 O36 2.861663 1_555
La19 O49 3.013562 1_564
La20 O44 2.367585 1_555
La20 O12 2.459839 1_555
La20 O50 2.467195 1_565
La20 O32 2.512993 1_555
La20 O38 2.526403 1_555
La20 O52 2.574647 1_555
La20 O56 2.697274 1_565
La21 O45 2.367585 1_555
La21 O13 2.459839 1_555
La21 O51 2.467195 1_545
La21 O33 2.512993 1_555
La21 O39 2.526403 1_555
La21 O53 2.574647 1_555
La21 O57 2.697274 1_545
La22 O46 2.367585 1_555
La22 O14 2.459839 1_555
La22 O48 2.467195 1_445
La22 O34 2.512993 1_555
La22 O36 2.526403 1_555
La22 O54 2.574647 1_455
La22 O58 2.697274 1_545
La23 O47 2.367585 1_555
La23 O15 2.459839 1_555
La23 O49 2.467195 1_665
La23 O35 2.512993 1_555
La23 O37 2.526403 1_555
La23 O55 2.574647 1_655
La23 O59 2.697274 1_565
La24 O60 2.336066 1_555
La24 O12 2.392724 1_555
La24 O8 2.456992 1_555
La24 O19 2.494968 1_555
La24 O32 2.514555 1_555
La24 O26 2.600278 1_565
La24 O3 2.779071 1_555
La25 O61 2.336066 1_555
La25 O13 2.392724 1_555
La25 O9 2.456992 1_555
La25 O18 2.494968 1_555
La25 O33 2.514555 1_555
La25 O27 2.600278 1_545
La25 O2 2.779071 1_555
La26 O62 2.336066 1_555
La26 O14 2.392724 1_555
La26 O10 2.456992 1_555
La26 O17 2.494968 1_554
La26 O34 2.514555 1_555
La26 O24 2.600278 1_545
La26 O1 2.779071 1_554
La27 O63 2.336066 1_555
La27 O15 2.392724 1_555
La27 O11 2.456992 1_555
La27 O16 2.494968 1_556
La27 O35 2.514555 1_555
La27 O25 2.600278 1_565
La27 O0 2.779071 1_556
B0 O52 1.382153 1_555
B0 O57 1.395185 1_554
B0 O4 1.429526 1_555
B1 O53 1.382153 1_555
B1 O56 1.395185 1_556
B1 O5 1.429526 1_555
B2 O54 1.382153 1_555
B2 O59 1.395185 1_555
B2 O6 1.429526 1_555
B3 O55 1.382153 1_555
B3 O58 1.395185 1_555
B3 O7 1.429526 1_555
O0 V0 1.728083 1_555
O1 V1 1.728083 1_555
O2 V2 1.728083 1_555
O3 V3 1.728083 1_555
O16 V4 1.757261 1_555
O17 V5 1.757261 1_555
O18 V6 1.757261 1_555
O19 V7 1.757261 1_555
O20 V4 1.707591 1_555
O21 V5 1.707591 1_555
O22 V6 1.707591 1_555
O23 V7 1.707591 1_555
O28 V0 1.760765 1_555
O29 V1 1.760765 1_555
O30 V2 1.760765 1_555
O31 V3 1.760765 1_555
O36 V4 1.758493 1_455
O37 V5 1.758493 1_655
O38 V6 1.758493 1_555
O39 V7 1.758493 1_555
O40 V2 1.719386 1_555
O41 V3 1.719386 1_555
O42 V0 1.719386 1_555
O43 V1 1.719386 1_555
O48 V4 1.715561 1_555
O49 V5 1.715561 1_555
O50 V6 1.715561 1_555
O51 V7 1.715561 1_555
O64 V2 1.737652 1_555
O65 V3 1.737652 1_555
O66 V0 1.737652 1_555
O67 V1 1.737652 1_555
