# generated using pymatgen
data_KHo2CuSe4
_symmetry_space_group_name_H-M   'P 1'
_cell_length_a   7.30742653
_cell_length_b   7.30742653
_cell_length_c   14.33595800
_cell_angle_alpha   90.00000000
_cell_angle_beta   90.00000000
_cell_angle_gamma   147.41253703
_symmetry_Int_Tables_number   1
_chemical_formula_structural   KHo2CuSe4
_chemical_formula_sum   'K2 Ho4 Cu2 Se8'
_cell_volume   412.29782587
_cell_formula_units_Z   2
loop_
 _symmetry_equiv_pos_site_id
 _symmetry_equiv_pos_as_xyz
  1  'x, y, z'
loop_
 _atom_site_type_symbol
 _atom_site_label
 _atom_site_symmetry_multiplicity
 _atom_site_fract_x
 _atom_site_fract_y
 _atom_site_fract_z
 _atom_site_occupancy
  K  K0  1  0.11262000  0.88738000  0.25000000  1
  K  K1  1  0.88738000  0.11262000  0.75000000  1
  Ho  Ho0  1  0.36579200  0.63420800  0.43494600  1
  Ho  Ho1  1  0.63420800  0.36579200  0.56505400  1
  Ho  Ho2  1  0.63420800  0.36579200  0.93494600  1
  Ho  Ho3  1  0.36579200  0.63420800  0.06505400  1
  Cu  Cu0  1  0.83976000  0.16024000  0.25000000  1
  Cu  Cu1  1  0.16024000  0.83976000  0.75000000  1
  Se  Se0  1  0.56388400  0.43611600  0.75000000  1
  Se  Se1  1  0.43611600  0.56388400  0.25000000  1
  Se  Se2  1  0.26489700  0.73510300  0.88883000  1
  Se  Se3  1  0.73510300  0.26489700  0.11117000  1
  Se  Se4  1  0.73510300  0.26489700  0.38883000  1
  Se  Se5  1  0.26489700  0.73510300  0.61117000  1
  Se  Se6  1  0.00000000  0.00000000  0.00000000  1
  Se  Se7  1  0.00000000  0.00000000  0.50000000  1
loop_
_geom_bond_atom_site_label_1
_geom_bond_atom_site_label_2
_geom_bond_distance
_geom_bond_site_symmetry_2
K0 Se1 3.214607 1_565
K0 Se1 3.214607 1_455
K0 Se3 3.334144 1_565
K0 Se4 3.334144 1_565
K0 Se3 3.334144 1_455
K0 Se4 3.334144 1_455
K1 Se0 3.214607 1_655
K1 Se0 3.214607 1_545
K1 Se5 3.334144 1_655
K1 Se5 3.334144 1_545
K1 Se2 3.334144 1_655
K1 Se2 3.334144 1_545
Ho0 Se4 2.828652 1_565
Ho0 Se4 2.828652 1_455
Ho0 Se1 2.828954 1_555
Ho0 Se5 2.895787 1_555
Ho0 Se7 2.935540 1_665
Ho0 Se7 2.935540 1_555
Ho1 Se5 2.828652 1_655
Ho1 Se5 2.828652 1_545
Ho1 Se0 2.828954 1_555
Ho1 Se4 2.895787 1_555
Ho1 Se7 2.935540 1_665
Ho1 Se7 2.935540 1_555
Ho2 Se2 2.828652 1_655
Ho2 Se2 2.828652 1_545
Ho2 Se0 2.828954 1_555
Ho2 Se3 2.895787 1_556
Ho2 Se6 2.935540 1_666
Ho2 Se6 2.935540 1_556
Ho3 Se3 2.828652 1_565
Ho3 Se3 2.828652 1_455
Ho3 Se1 2.828954 1_555
Ho3 Se2 2.895787 1_554
Ho3 Se6 2.935540 1_665
Ho3 Se6 2.935540 1_555
Cu0 Se1 2.455659 1_655
Cu0 Se1 2.455659 1_545
Cu0 Se4 2.473155 1_555
Cu0 Se3 2.473155 1_555
Cu1 Se0 2.455659 1_565
Cu1 Se0 2.455659 1_455
Cu1 Se5 2.473155 1_555
Cu1 Se2 2.473155 1_555
