# generated using pymatgen
data_YSeF
_symmetry_space_group_name_H-M   'P 1'
_cell_length_a   4.08844944
_cell_length_b   5.59974361
_cell_length_c   11.47458117
_cell_angle_alpha   90.00000000
_cell_angle_beta   90.00000000
_cell_angle_gamma   90.00000000
_symmetry_Int_Tables_number   1
_chemical_formula_structural   YSeF
_chemical_formula_sum   'Y4 Se4 F4'
_cell_volume   262.70214368
_cell_formula_units_Z   4
loop_
 _symmetry_equiv_pos_site_id
 _symmetry_equiv_pos_as_xyz
  1  'x, y, z'
loop_
 _atom_site_type_symbol
 _atom_site_label
 _atom_site_symmetry_multiplicity
 _atom_site_fract_x
 _atom_site_fract_y
 _atom_site_fract_z
 _atom_site_occupancy
  Y  Y0  1  0.75000000  0.98650012  0.35443515  1
  Y  Y1  1  0.75000000  0.51349988  0.85443515  1
  Y  Y2  1  0.25000000  0.48650012  0.14556485  1
  Y  Y3  1  0.25000000  0.01349988  0.64556485  1
  Se  Se0  1  0.75000000  0.48684841  0.33094595  1
  Se  Se1  1  0.75000000  0.01315159  0.83094595  1
  Se  Se2  1  0.25000000  0.98684841  0.16905405  1
  Se  Se3  1  0.25000000  0.51315159  0.66905405  1
  F  F0  1  0.75000000  0.47989916  0.05690203  1
  F  F1  1  0.75000000  0.02010084  0.55690203  1
  F  F2  1  0.25000000  0.52010084  0.94309797  1
  F  F3  1  0.25000000  0.97989916  0.44309797  1
loop_
_geom_bond_atom_site_label_1
_geom_bond_atom_site_label_2
_geom_bond_distance
_geom_bond_site_symmetry_2
Se0 Y0 2.810874 1_555
Se0 Y0 2.814756 1_545
Se0 Y2 2.950206 1_555
Se0 Y2 2.950206 1_655
Se1 Y1 2.810874 1_545
Se1 Y1 2.814756 1_555
Se1 Y3 2.950206 1_655
Se1 Y3 2.950206 1_555
Se2 Y2 2.810874 1_565
Se2 Y2 2.814756 1_555
Se2 Y0 2.950206 1_555
Se2 Y0 2.950206 1_455
Se3 Y3 2.810874 1_555
Se3 Y3 2.814756 1_565
Se3 Y1 2.950206 1_555
Se3 Y1 2.950206 1_455
F0 Y2 2.283694 1_655
F0 Y2 2.283694 1_555
F0 Y1 2.330829 1_554
F1 Y3 2.283694 1_655
F1 Y3 2.283694 1_555
F1 Y0 2.330829 1_545
F2 Y1 2.283694 1_555
F2 Y1 2.283694 1_455
F2 Y2 2.330829 1_556
F3 Y0 2.283694 1_555
F3 Y0 2.283694 1_455
F3 Y3 2.330829 1_565
