# generated using pymatgen
data_Fe4Te3S
_symmetry_space_group_name_H-M   'P 1'
_cell_length_a   3.68155100
_cell_length_b   3.68155100
_cell_length_c   12.82812400
_cell_angle_alpha   90.00000000
_cell_angle_beta   90.00000000
_cell_angle_gamma   90.00000000
_symmetry_Int_Tables_number   1
_chemical_formula_structural   Fe4Te3S
_chemical_formula_sum   'Fe4 Te3 S1'
_cell_volume   173.87005497
_cell_formula_units_Z   1
loop_
 _symmetry_equiv_pos_site_id
 _symmetry_equiv_pos_as_xyz
  1  'x, y, z'
loop_
 _atom_site_type_symbol
 _atom_site_label
 _atom_site_symmetry_multiplicity
 _atom_site_fract_x
 _atom_site_fract_y
 _atom_site_fract_z
 _atom_site_occupancy
  Fe  Fe0  1  0.50000000  0.00000000  0.00300400  1
  Fe  Fe1  1  0.50000000  0.00000000  0.48637300  1
  Fe  Fe2  1  0.00000000  0.50000000  0.00300400  1
  Fe  Fe3  1  0.00000000  0.50000000  0.48637300  1
  Te  Te0  1  0.50000000  0.50000000  0.86161400  1
  Te  Te1  1  0.00000000  0.00000000  0.14413400  1
  Te  Te2  1  0.00000000  0.00000000  0.61539200  1
  S  S0  1  0.50000000  0.50000000  0.40010600  1
loop_
_geom_bond_atom_site_label_1
_geom_bond_atom_site_label_2
_geom_bond_distance
_geom_bond_site_symmetry_2
Fe0 Te1 2.581884 1_655
Fe0 Te1 2.581884 1_555
Fe0 Te0 2.584223 1_554
Fe0 Te0 2.584223 1_544
Fe0 Fe2 2.603250 1_645
Fe0 Fe2 2.603250 1_555
Fe0 Fe2 2.603250 1_655
Fe0 Fe2 2.603250 1_545
Fe1 S0 2.147816 1_555
Fe1 S0 2.147816 1_545
Fe1 Te2 2.475423 1_555
Fe1 Te2 2.475423 1_655
Fe2 Te1 2.581884 1_555
Fe2 Te1 2.581884 1_565
Fe2 Te0 2.584223 1_554
Fe2 Te0 2.584223 1_454
Fe3 S0 2.147816 1_555
Fe3 S0 2.147816 1_455
Fe3 Te2 2.475423 1_565
Fe3 Te2 2.475423 1_555
