# generated using pymatgen
data_KMg14Cu
_symmetry_space_group_name_H-M   'P 1'
_cell_length_a   6.46053241
_cell_length_b   6.46053187
_cell_length_c   10.45603952
_cell_angle_alpha   90.00000000
_cell_angle_beta   90.00000000
_cell_angle_gamma   120.00000271
_symmetry_Int_Tables_number   1
_chemical_formula_structural   KMg14Cu
_chemical_formula_sum   'K1 Mg14 Cu1'
_cell_volume   377.95006008
_cell_formula_units_Z   1
loop_
 _symmetry_equiv_pos_site_id
 _symmetry_equiv_pos_as_xyz
  1  'x, y, z'
loop_
 _atom_site_type_symbol
 _atom_site_label
 _atom_site_symmetry_multiplicity
 _atom_site_fract_x
 _atom_site_fract_y
 _atom_site_fract_z
 _atom_site_occupancy
  K  K0  1  0.16666700  0.33333300  0.62500000  1
  Mg  Mg0  1  0.15838845  0.82919373  0.12500000  1
  Mg  Mg1  1  0.17394082  0.83696991  0.62500000  1
  Mg  Mg2  1  0.67080627  0.34161155  0.12500000  1
  Mg  Mg3  1  0.66303009  0.32605918  0.62500000  1
  Mg  Mg4  1  0.67080627  0.82919373  0.12500000  1
  Mg  Mg5  1  0.66303009  0.83696991  0.62500000  1
  Mg  Mg6  1  0.33202138  0.16797862  0.35149184  1
  Mg  Mg7  1  0.33202138  0.16797862  0.89850816  1
  Mg  Mg8  1  0.33202138  0.66404377  0.35149184  1
  Mg  Mg9  1  0.33202138  0.66404377  0.89850816  1
  Mg  Mg10  1  0.83595623  0.16797862  0.35149184  1
  Mg  Mg11  1  0.83595623  0.16797862  0.89850816  1
  Mg  Mg12  1  0.83333300  0.66666700  0.38071840  1
  Mg  Mg13  1  0.83333300  0.66666700  0.86928160  1
  Cu  Cu0  1  0.16666700  0.33333300  0.12500000  1
loop_
_geom_bond_atom_site_label_1
_geom_bond_atom_site_label_2
_geom_bond_distance
_geom_bond_site_symmetry_2
K0 Mg1 3.230522 1_555
K0 Mg5 3.230522 1_555
K0 Mg1 3.230522 1_545
K0 Mg5 3.230522 1_445
K0 Mg3 3.230523 1_555
K0 Mg3 3.230523 1_455
K0 Mg6 3.406196 1_555
K0 Mg7 3.406196 1_555
K0 Mg9 3.406203 1_555
K0 Mg8 3.406203 1_555
K0 Mg10 3.406203 1_455
K0 Mg11 3.406203 1_455
Mg0 Mg9 3.033484 1_554
Mg0 Mg8 3.033484 1_555
Mg0 Mg6 3.033490 1_565
Mg0 Mg7 3.033490 1_564
Mg0 Mg2 3.150040 1_455
Mg0 Mg4 3.150040 1_455
Mg0 Mg12 3.233700 1_455
Mg0 Mg13 3.233700 1_454
Mg0 Mg2 3.310492 1_565
Mg0 Mg4 3.310492 1_555
Mg1 Mg3 3.159777 1_565
Mg1 Mg5 3.159777 1_555
Mg1 Mg13 3.186802 1_455
Mg1 Mg12 3.186802 1_455
Mg1 Mg3 3.300755 1_455
Mg1 Mg5 3.300755 1_455
Mg1 Mg9 3.407440 1_555
Mg1 Mg8 3.407440 1_555
Mg1 Mg7 3.407446 1_565
Mg1 Mg6 3.407446 1_565
Mg2 Mg7 3.033490 1_554
Mg2 Mg6 3.033490 1_555
Mg2 Mg4 3.150040 1_555
Mg2 Mg4 3.310492 1_545
Mg3 Mg5 3.159777 1_545
Mg3 Mg5 3.300755 1_555
Mg3 Mg7 3.407446 1_555
Mg3 Mg6 3.407446 1_555
Mg4 Mg9 3.033491 1_554
Mg4 Mg8 3.033491 1_555
Mg5 Mg8 3.407446 1_555
Mg5 Mg9 3.407446 1_555
Mg6 Mg8 3.204845 1_555
Mg6 Mg8 3.255687 1_545
Mg7 Mg9 3.204845 1_555
Mg7 Mg9 3.255687 1_545
Mg10 Mg2 3.033484 1_555
Mg10 Mg4 3.033490 1_545
Mg10 Mg8 3.204845 1_655
Mg10 Mg6 3.204845 1_655
Mg10 Mg12 3.244722 1_555
Mg10 Mg12 3.244722 1_545
Mg10 Mg8 3.255687 1_545
Mg10 Mg6 3.255687 1_555
Mg10 Mg3 3.407440 1_555
Mg10 Mg5 3.407446 1_545
Mg11 Mg2 3.033484 1_556
Mg11 Mg4 3.033490 1_546
Mg11 Mg9 3.204845 1_655
Mg11 Mg7 3.204845 1_655
Mg11 Mg13 3.244722 1_555
Mg11 Mg13 3.244722 1_545
Mg11 Mg9 3.255687 1_545
Mg11 Mg7 3.255687 1_555
Mg11 Mg3 3.407440 1_555
Mg11 Mg5 3.407446 1_545
Mg12 Mg5 3.186795 1_555
Mg12 Mg3 3.186802 1_555
Mg12 Mg4 3.233693 1_555
Mg12 Mg2 3.233700 1_555
Mg12 Mg6 3.244722 1_665
Mg12 Mg6 3.244722 1_555
Mg12 Mg8 3.244722 1_655
Mg12 Mg8 3.244722 1_555
Mg13 Mg5 3.186795 1_555
Mg13 Mg3 3.186802 1_555
Mg13 Mg4 3.233693 1_556
Mg13 Mg2 3.233700 1_556
Mg13 Mg7 3.244722 1_665
Mg13 Mg7 3.244722 1_555
Mg13 Mg9 3.244722 1_655
Mg13 Mg9 3.244722 1_555
Cu0 Mg6 3.005338 1_555
Cu0 Mg7 3.005338 1_554
Cu0 Mg9 3.005345 1_554
Cu0 Mg8 3.005345 1_555
Cu0 Mg11 3.005345 1_454
Cu0 Mg10 3.005345 1_455
Cu0 Mg0 3.230598 1_545
Cu0 Mg4 3.230598 1_445
Cu0 Mg4 3.230598 1_555
Cu0 Mg0 3.230598 1_555
Cu0 Mg2 3.230598 1_555
Cu0 Mg2 3.230598 1_455
