# generated using pymatgen
data_K4V4As6H12O31
_symmetry_space_group_name_H-M   'P 1'
_cell_length_a   6.69193500
_cell_length_b   9.28934391
_cell_length_c   13.02720632
_cell_angle_alpha   106.72907408
_cell_angle_beta   99.25598208
_cell_angle_gamma   102.78929700
_symmetry_Int_Tables_number   1
_chemical_formula_structural   K4V4As6H12O31
_chemical_formula_sum   'K4 V4 As6 H12 O31'
_cell_volume   734.11435681
_cell_formula_units_Z   1
loop_
 _symmetry_equiv_pos_site_id
 _symmetry_equiv_pos_as_xyz
  1  'x, y, z'
loop_
 _atom_site_type_symbol
 _atom_site_label
 _atom_site_symmetry_multiplicity
 _atom_site_fract_x
 _atom_site_fract_y
 _atom_site_fract_z
 _atom_site_occupancy
  K  K0  1  0.24504200  0.21758000  0.91624800  1
  K  K1  1  0.75514500  0.78571200  0.08571900  1
  K  K2  1  0.07284700  0.79757200  0.66214200  1
  K  K3  1  0.91018400  0.21396300  0.35336400  1
  V  V0  1  0.83464900  0.12339900  0.64203100  1
  V  V1  1  0.16086700  0.87587100  0.35734900  1
  V  V2  1  0.50327500  0.44453900  0.22518200  1
  V  V3  1  0.49666800  0.55304000  0.77653500  1
  As  As0  1  0.68678600  0.96148500  0.85647500  1
  As  As1  1  0.31087800  0.03843600  0.14483800  1
  As  As2  1  0.32913400  0.17458000  0.60252500  1
  As  As3  1  0.66971100  0.82387800  0.39789400  1
  As  As4  1  0.98980800  0.50856500  0.79409400  1
  As  As5  1  0.00963800  0.49146800  0.20320600  1
  H  H0  1  0.56097300  0.75918900  0.58766500  1
  H  H1  1  0.42769300  0.23078400  0.40159100  1
  H  H2  1  0.48691600  0.06190100  0.75131900  1
  H  H3  1  0.51179200  0.93782000  0.24886200  1
  H  H4  1  0.86640700  0.43802700  0.01558200  1
  H  H5  1  0.13485400  0.56208100  0.98135800  1
  H  H6  1  0.15858800  0.80989800  0.98855200  1
  H  H7  1  0.83912800  0.18893700  0.01254600  1
  H  H8  1  0.56800500  0.59252500  0.58457100  1
  H  H9  1  0.44887200  0.40473800  0.41823100  1
  H  H10  1  0.19238500  0.55631700  0.52528900  1
  H  H11  1  0.99795200  0.56335900  0.44623900  1
  O  O0  1  0.95454800  0.38946400  0.05466000  1
  O  O1  1  0.04235700  0.60875000  0.94317000  1
  O  O2  1  0.38095600  0.21553000  0.12836500  1
  O  O3  1  0.61617500  0.78303600  0.87056300  1
  O  O4  1  0.19917500  0.92550800  0.00423700  1
  O  O5  1  0.79881700  0.07331600  0.99702300  1
  O  O6  1  0.15719300  0.78782000  0.45002100  1
  O  O7  1  0.82837600  0.20731600  0.54802600  1
  O  O8  1  0.78948500  0.57177700  0.74283600  1
  O  O9  1  0.21145700  0.43242900  0.25693800  1
  O  O10  1  0.13279500  0.10165500  0.65983700  1
  O  O11  1  0.86415500  0.89954000  0.34047400  1
  O  O12  1  0.94627700  0.31788400  0.78631800  1
  O  O13  1  0.05068800  0.68252300  0.21160600  1
  O  O14  1  0.61945000  0.62499400  0.36513500  1
  O  O15  1  0.38731400  0.37375300  0.63659500  1
  O  O16  1  0.20962500  0.59283500  0.75936500  1
  O  O17  1  0.79478800  0.40978900  0.24286400  1
  O  O18  1  0.50588800  0.47717200  0.87617200  1
  O  O19  1  0.49667100  0.52118100  0.12571500  1
  O  O20  1  0.72536000  0.89134400  0.54031400  1
  O  O21  1  0.27206500  0.10549700  0.46034200  1
  O  O22  1  0.48930100  0.66801400  0.60765900  1
  O  O23  1  0.49872100  0.31887800  0.37895400  1
  O  O24  1  0.85282300  0.99682700  0.77544300  1
  O  O25  1  0.14577800  0.00201200  0.22606600  1
  O  O26  1  0.46129200  0.01802500  0.81633500  1
  O  O27  1  0.53774600  0.98327200  0.18537500  1
  O  O28  1  0.53206000  0.11315300  0.66132700  1
  O  O29  1  0.46351900  0.88214000  0.33923600  1
  O  O30  1  0.03844200  0.51100500  0.49832200  1
loop_
_geom_bond_atom_site_label_1
_geom_bond_atom_site_label_2
_geom_bond_distance
_geom_bond_site_symmetry_2
K0 O26 2.762104 1_555
K0 O2 2.773598 1_556
K0 O18 2.879051 1_555
K0 O24 2.891659 1_445
K0 O12 2.893869 1_455
K0 O10 3.105723 1_555
K0 O19 3.197557 1_556
K0 O4 3.210014 1_546
K0 O0 3.228628 1_456
K1 O27 2.754617 1_555
K1 O3 2.798705 1_554
K1 O13 2.867182 1_655
K1 O25 2.869786 1_665
K1 O19 2.906363 1_555
K1 O11 3.086059 1_555
K1 O5 3.177788 1_564
K1 O18 3.219203 1_554
K1 O1 3.261054 1_654
K2 O10 2.773437 1_565
K2 O16 2.800635 1_555
K2 O30 2.827340 1_555
K2 O24 2.846998 1_455
K2 O6 2.888450 1_555
K2 O26 2.929352 1_565
K2 O20 3.031560 1_455
K2 O8 3.041372 1_455
K2 O22 3.368740 1_555
K3 O7 2.693714 1_555
K3 O30 2.710516 1_655
K3 O17 2.783784 1_555
K3 O11 2.820770 1_545
K3 O27 2.962123 1_545
K3 O25 3.073738 1_655
K3 O21 3.102408 1_655
K3 O23 3.152612 1_555
K3 O9 3.198741 1_655
As0 O3 1.691477 1_555
As0 O24 1.694701 1_555
As0 O26 1.755423 1_565
As0 O5 1.764149 1_565
As1 O2 1.693026 1_555
As1 O25 1.694577 1_555
As1 O27 1.757460 1_545
As1 O4 1.766450 1_545
As2 O15 1.710119 1_555
As2 O10 1.719105 1_555
As2 O21 1.722827 1_555
As2 O28 1.736820 1_555
As3 O14 1.712696 1_555
As3 O11 1.719754 1_555
As3 O20 1.725900 1_555
As3 O29 1.735015 1_555
As4 O8 1.695297 1_555
As4 O16 1.699850 1_655
As4 O12 1.700410 1_555
As4 O1 1.832003 1_655
As5 O9 1.691028 1_555
As5 O17 1.700414 1_455
As5 O13 1.702921 1_555
As5 O0 1.827227 1_455
H0 O22 1.001277 1_555
H1 O23 0.997182 1_555
H2 O26 1.061794 1_555
H2 O28 1.436629 1_555
H2 K2 3.060523 1_545
H3 O27 1.052252 1_555
H3 O29 1.468640 1_555
H4 O0 0.981831 1_555
H5 O1 0.981060 1_555
H6 O4 0.997771 1_556
H7 O5 0.998184 1_554
H8 O22 0.976039 1_555
H9 O23 0.973133 1_555
H10 O30 0.984034 1_555
H10 K2 2.791627 1_555
H11 O30 0.979521 1_655
H11 K2 2.904560 1_655
O2 V2 2.034370 1_555
O3 V3 2.031370 1_555
O6 V1 1.642015 1_555
O7 V0 1.629927 1_555
O8 V3 2.057286 1_555
O9 V2 2.046154 1_555
O10 V0 2.032692 1_455
O11 V1 2.029748 1_655
O12 V0 2.085882 1_555
O13 V1 2.091533 1_555
O14 V2 1.986468 1_555
O15 V3 1.978900 1_555
O16 V3 2.024896 1_555
O17 V2 2.034670 1_555
O18 V3 1.644811 1_555
O19 V2 1.647566 1_555
O20 V0 2.069629 1_565
O21 V1 2.057277 1_545
O24 V0 2.364222 1_565
O25 V1 2.336390 1_545
O28 V0 2.065110 1_555
O29 V1 2.066507 1_555
