# generated using pymatgen
data_Rb2TaAgS4
_symmetry_space_group_name_H-M   'P 1'
_cell_length_a   13.92720260
_cell_length_b   12.41833005
_cell_length_c   7.60170421
_cell_angle_alpha   84.51887534
_cell_angle_beta   62.57109683
_cell_angle_gamma   32.91002783
_symmetry_Int_Tables_number   1
_chemical_formula_structural   Rb2TaAgS4
_chemical_formula_sum   'Rb4 Ta2 Ag2 S8'
_cell_volume   505.37230007
_cell_formula_units_Z   2
loop_
 _symmetry_equiv_pos_site_id
 _symmetry_equiv_pos_as_xyz
  1  'x, y, z'
loop_
 _atom_site_type_symbol
 _atom_site_label
 _atom_site_symmetry_multiplicity
 _atom_site_fract_x
 _atom_site_fract_y
 _atom_site_fract_z
 _atom_site_occupancy
  Rb  Rb0  1  0.42917200  0.42917200  0.07082800  1
  Rb  Rb1  1  0.82082800  0.82082800  0.17917200  1
  Rb  Rb2  1  0.07082800  0.07082800  0.42917200  1
  Rb  Rb3  1  0.17917200  0.17917200  0.82082800  1
  Ta  Ta0  1  0.00000000  0.00000000  0.00000000  1
  Ta  Ta1  1  0.25000000  0.25000000  0.25000000  1
  Ag  Ag0  1  0.50000000  0.50000000  0.50000000  1
  Ag  Ag1  1  0.75000000  0.75000000  0.75000000  1
  S  S0  1  0.74425400  0.36678000  0.05963200  1
  S  S1  1  0.82933300  0.05963200  0.36678000  1
  S  S2  1  0.05963200  0.82933300  0.74425400  1
  S  S3  1  0.36678000  0.74425400  0.82933300  1
  S  S4  1  0.50574600  0.88322000  0.19036800  1
  S  S5  1  0.88322000  0.50574600  0.42066700  1
  S  S6  1  0.19036800  0.42066700  0.50574600  1
  S  S7  1  0.42066700  0.19036800  0.88322000  1
loop_
_geom_bond_atom_site_label_1
_geom_bond_atom_site_label_2
_geom_bond_distance
_geom_bond_site_symmetry_2
Rb0 S2 3.518309 1_644
Rb0 S1 3.518311 1_465
Rb0 S7 3.520761 1_554
Rb0 S6 3.520764 1_555
Rb0 S0 3.718024 1_555
Rb0 S3 3.718027 1_554
Rb0 S2 3.877191 1_555
Rb0 S1 3.877197 1_554
Rb1 S6 3.518309 1_565
Rb1 S7 3.518311 1_654
Rb1 S1 3.520761 1_565
Rb1 S2 3.520764 1_654
Rb1 S4 3.718024 1_555
Rb1 S5 3.718027 1_555
Rb1 S6 3.877191 1_654
Rb1 S7 3.877197 1_565
Rb2 S0 3.518308 1_456
Rb2 S3 3.518314 1_544
Rb2 S5 3.520772 1_455
Rb2 S4 3.520773 1_545
Rb2 S2 3.718033 1_545
Rb2 S1 3.718037 1_455
Rb2 S0 3.877195 1_545
Rb2 S3 3.877196 1_455
Rb3 S4 3.518308 1_545
Rb3 S5 3.518314 1_456
Rb3 S3 3.520772 1_545
Rb3 S0 3.520773 1_456
Rb3 S6 3.718033 1_555
Rb3 S7 3.718037 1_555
Rb3 S4 3.877195 1_456
Rb3 S5 3.877196 1_545
Ag0 S3 2.575333 1_555
Ag0 S0 2.575338 1_555
Ag0 S1 2.575341 1_555
Ag0 S2 2.575343 1_555
Ag1 S5 2.575333 1_555
Ag1 S4 2.575338 1_556
Ag1 S7 2.575341 1_565
Ag1 S6 2.575343 1_655
S0 Ta0 2.303322 1_655
S1 Ta0 2.303325 1_655
S2 Ta0 2.303331 1_566
S3 Ta0 2.303320 1_566
S4 Ta1 2.303322 1_565
S5 Ta1 2.303320 1_655
S6 Ta1 2.303331 1_555
S7 Ta1 2.303325 1_556
