# generated using pymatgen
data_Pr3Zn
_symmetry_space_group_name_H-M   'P 1'
_cell_length_a   7.13528469
_cell_length_b   7.13528469
_cell_length_c   5.40635100
_cell_angle_alpha   90.00000000
_cell_angle_beta   90.00000000
_cell_angle_gamma   120.00000637
_symmetry_Int_Tables_number   1
_chemical_formula_structural   Pr3Zn
_chemical_formula_sum   'Pr6 Zn2'
_cell_volume   238.37321448
_cell_formula_units_Z   2
loop_
 _symmetry_equiv_pos_site_id
 _symmetry_equiv_pos_as_xyz
  1  'x, y, z'
loop_
 _atom_site_type_symbol
 _atom_site_label
 _atom_site_symmetry_multiplicity
 _atom_site_fract_x
 _atom_site_fract_y
 _atom_site_fract_z
 _atom_site_occupancy
  Pr  Pr0  1  0.17679000  0.35358100  0.25000000  1
  Pr  Pr1  1  0.64641900  0.82321000  0.25000000  1
  Pr  Pr2  1  0.17679000  0.82321000  0.25000000  1
  Pr  Pr3  1  0.82321000  0.64641900  0.75000000  1
  Pr  Pr4  1  0.35358100  0.17679000  0.75000000  1
  Pr  Pr5  1  0.82321000  0.17679000  0.75000000  1
  Zn  Zn0  1  0.33333300  0.66666700  0.75000000  1
  Zn  Zn1  1  0.66666700  0.33333300  0.25000000  1
loop_
_geom_bond_atom_site_label_1
_geom_bond_atom_site_label_2
_geom_bond_distance
_geom_bond_site_symmetry_2
Pr0 Zn0 3.324166 1_554
Pr0 Zn0 3.324166 1_555
Pr0 Pr1 3.350936 1_555
Pr0 Pr2 3.350937 1_555
Pr0 Pr5 3.475759 1_454
Pr0 Pr5 3.475759 1_455
Pr0 Pr4 3.475767 1_555
Pr0 Pr4 3.475767 1_554
Pr0 Zn1 3.569829 1_455
Pr0 Zn1 3.569843 1_555
Pr0 Pr1 3.784348 1_445
Pr0 Pr2 3.784348 1_545
Pr1 Zn0 3.324166 1_555
Pr1 Zn0 3.324166 1_554
Pr1 Pr2 3.350937 1_555
Pr1 Pr5 3.475759 1_565
Pr1 Pr5 3.475759 1_564
Pr1 Pr3 3.475767 1_554
Pr1 Pr3 3.475767 1_555
Pr1 Zn1 3.569829 1_565
Pr1 Zn1 3.569843 1_555
Pr1 Pr2 3.784348 1_655
Pr2 Zn0 3.324167 1_555
Pr2 Zn0 3.324167 1_554
Pr2 Pr3 3.475759 1_455
Pr2 Pr4 3.475759 1_564
Pr2 Pr3 3.475759 1_454
Pr2 Pr4 3.475759 1_565
Pr2 Zn1 3.569835 1_455
Pr2 Zn1 3.569835 1_565
Pr3 Zn1 3.324166 1_556
Pr3 Zn1 3.324166 1_555
Pr3 Pr4 3.350936 1_555
Pr3 Pr5 3.350937 1_555
Pr3 Zn0 3.569829 1_655
Pr3 Zn0 3.569843 1_555
Pr3 Pr4 3.784348 1_665
Pr3 Pr5 3.784348 1_565
Pr4 Zn1 3.324166 1_556
Pr4 Zn1 3.324166 1_555
Pr4 Pr5 3.350937 1_555
Pr4 Zn0 3.569829 1_545
Pr4 Zn0 3.569843 1_555
Pr4 Pr5 3.784348 1_455
Pr5 Zn1 3.324167 1_556
Pr5 Zn1 3.324167 1_555
Pr5 Zn0 3.569835 1_545
Pr5 Zn0 3.569835 1_655
