# generated using pymatgen
data_Zr5CuPb3
_symmetry_space_group_name_H-M   'P 1'
_cell_length_a   8.74414269
_cell_length_b   8.74414269
_cell_length_c   5.94424997
_cell_angle_alpha   90.00000000
_cell_angle_beta   90.00000000
_cell_angle_gamma   119.99999587
_symmetry_Int_Tables_number   1
_chemical_formula_structural   Zr5CuPb3
_chemical_formula_sum   'Zr10 Cu2 Pb6'
_cell_volume   393.60643171
_cell_formula_units_Z   2
loop_
 _symmetry_equiv_pos_site_id
 _symmetry_equiv_pos_as_xyz
  1  'x, y, z'
loop_
 _atom_site_type_symbol
 _atom_site_label
 _atom_site_symmetry_multiplicity
 _atom_site_fract_x
 _atom_site_fract_y
 _atom_site_fract_z
 _atom_site_occupancy
  Zr  Zr0  1  0.66666700  0.33333300  0.50000000  1
  Zr  Zr1  1  0.33333300  0.66666700  0.50000000  1
  Zr  Zr2  1  0.33333300  0.66666700  0.00000000  1
  Zr  Zr3  1  0.66666700  0.33333300  0.00000000  1
  Zr  Zr4  1  0.74389360  0.74389360  0.25000000  1
  Zr  Zr5  1  0.25610640  -0.00000000  0.25000000  1
  Zr  Zr6  1  -0.00000000  0.25610640  0.25000000  1
  Zr  Zr7  1  0.25610640  0.25610640  0.75000000  1
  Zr  Zr8  1  0.74389360  0.00000000  0.75000000  1
  Zr  Zr9  1  0.00000000  0.74389360  0.75000000  1
  Cu  Cu0  1  -0.00000000  -0.00000000  0.50000000  1
  Cu  Cu1  1  -0.00000000  -0.00000000  0.00000000  1
  Pb  Pb0  1  0.38760352  0.38760352  0.25000000  1
  Pb  Pb1  1  0.61239648  0.00000000  0.25000000  1
  Pb  Pb2  1  0.00000000  0.61239648  0.25000000  1
  Pb  Pb3  1  0.61239648  0.61239648  0.75000000  1
  Pb  Pb4  1  0.38760352  -0.00000000  0.75000000  1
  Pb  Pb5  1  -0.00000000  0.38760352  0.75000000  1
loop_
_geom_bond_atom_site_label_1
_geom_bond_atom_site_label_2
_geom_bond_distance
_geom_bond_site_symmetry_2
Cu0 Zr9 2.687644 1_545
Cu0 Zr8 2.687644 1_455
Cu0 Zr5 2.687644 1_555
Cu0 Zr6 2.687644 1_555
Cu0 Zr4 2.687645 1_445
Cu0 Zr7 2.687645 1_555
Cu1 Zr9 2.687644 1_544
Cu1 Zr8 2.687644 1_454
Cu1 Zr5 2.687644 1_555
Cu1 Zr6 2.687644 1_555
Cu1 Zr4 2.687645 1_445
Cu1 Zr7 2.687645 1_554
Pb0 Zr6 2.985318 1_555
Pb0 Zr5 2.985318 1_555
Pb0 Zr2 3.089659 1_555
Pb0 Zr1 3.089659 1_555
Pb0 Zr0 3.089659 1_555
Pb0 Zr3 3.089659 1_555
Pb0 Zr4 3.115451 1_555
Pb0 Zr7 3.186791 1_555
Pb0 Zr7 3.186791 1_554
Pb1 Zr4 2.985318 1_545
Pb1 Zr6 2.985318 1_655
Pb1 Zr3 3.089652 1_555
Pb1 Zr0 3.089652 1_555
Pb1 Zr2 3.089655 1_545
Pb1 Zr1 3.089655 1_545
Pb1 Zr5 3.115451 1_555
Pb1 Zr8 3.186791 1_554
Pb1 Zr8 3.186791 1_555
Pb2 Zr4 2.985318 1_455
Pb2 Zr5 2.985318 1_565
Pb2 Zr2 3.089652 1_555
Pb2 Zr1 3.089652 1_555
Pb2 Zr3 3.089655 1_455
Pb2 Zr0 3.089655 1_455
Pb2 Zr6 3.115451 1_555
Pb2 Zr9 3.186791 1_555
Pb2 Zr9 3.186791 1_554
Pb3 Zr9 2.985318 1_655
Pb3 Zr8 2.985318 1_565
Pb3 Zr0 3.089659 1_555
Pb3 Zr3 3.089659 1_556
Pb3 Zr2 3.089659 1_556
Pb3 Zr1 3.089659 1_555
Pb3 Zr7 3.115451 1_555
Pb3 Zr4 3.186791 1_555
Pb3 Zr4 3.186791 1_556
Pb4 Zr7 2.985318 1_555
Pb4 Zr9 2.985318 1_545
Pb4 Zr1 3.089652 1_545
Pb4 Zr2 3.089652 1_546
Pb4 Zr0 3.089655 1_555
Pb4 Zr3 3.089655 1_556
Pb4 Zr8 3.115451 1_555
Pb4 Zr5 3.186791 1_556
Pb4 Zr5 3.186791 1_555
Pb5 Zr7 2.985318 1_555
Pb5 Zr8 2.985318 1_455
Pb5 Zr3 3.089652 1_456
Pb5 Zr0 3.089652 1_455
Pb5 Zr1 3.089655 1_555
Pb5 Zr2 3.089655 1_556
Pb5 Zr9 3.115451 1_555
Pb5 Zr6 3.186791 1_556
Pb5 Zr6 3.186791 1_555
