# generated using pymatgen
data_Li7Mn2(CoO4)3
_symmetry_space_group_name_H-M   'P 1'
_cell_length_a   14.63633722
_cell_length_b   14.63633722
_cell_length_c   5.15061838
_cell_angle_alpha   80.89887986
_cell_angle_beta   80.89887986
_cell_angle_gamma   11.43139948
_symmetry_Int_Tables_number   1
_chemical_formula_structural   Li7Mn2(CoO4)3
_chemical_formula_sum   'Li7 Mn2 Co3 O12'
_cell_volume   215.90258388
_cell_formula_units_Z   1
loop_
 _symmetry_equiv_pos_site_id
 _symmetry_equiv_pos_as_xyz
  1  'x, y, z'
loop_
 _atom_site_type_symbol
 _atom_site_label
 _atom_site_symmetry_multiplicity
 _atom_site_fract_x
 _atom_site_fract_y
 _atom_site_fract_z
 _atom_site_occupancy
  Li  Li0  1  0.92139200  0.92139200  0.90964400  1
  Li  Li1  1  0.74966500  0.74966500  0.75959000  1
  Li  Li2  1  0.57960700  0.57960700  0.57788200  1
  Li  Li3  1  0.25033500  0.25033500  0.24041000  1
  Li  Li4  1  0.07860800  0.07860800  0.09035600  1
  Li  Li5  1  0.42039300  0.42039300  0.42211800  1
  Li  Li6  1  0.00000000  0.00000000  0.50000000  1
  Mn  Mn0  1  0.16613400  0.16613400  0.66612900  1
  Mn  Mn1  1  0.83386600  0.83386600  0.33387100  1
  Co  Co0  1  0.66567500  0.66567500  0.16713000  1
  Co  Co1  1  0.50000000  0.50000000  0.00000000  1
  Co  Co2  1  0.33432500  0.33432500  0.83287000  1
  O  O0  1  0.79531900  0.79531900  0.05499400  1
  O  O1  1  0.62905300  0.62905300  0.84311500  1
  O  O2  1  0.46274100  0.46274100  0.74602800  1
  O  O3  1  0.12805300  0.12805300  0.38923400  1
  O  O4  1  0.96383400  0.96383400  0.18213800  1
  O  O5  1  0.29579000  0.29579000  0.51293600  1
  O  O6  1  0.03616600  0.03616600  0.81786200  1
  O  O7  1  0.87194700  0.87194700  0.61076600  1
  O  O8  1  0.70421000  0.70421000  0.48706400  1
  O  O9  1  0.37094700  0.37094700  0.15688500  1
  O  O10  1  0.20468100  0.20468100  0.94500600  1
  O  O11  1  0.53725900  0.53725900  0.25397200  1
loop_
_geom_bond_atom_site_label_1
_geom_bond_atom_site_label_2
_geom_bond_distance
_geom_bond_site_symmetry_2
Li0 O2 1.990682 1_565
Li0 O2 1.990682 1_655
Li0 O4 2.012388 1_556
Li0 O7 2.269097 1_555
Li0 O9 2.304445 1_656
Li0 O9 2.304445 1_566
Li1 O8 2.077036 1_555
Li1 O10 2.087048 1_565
Li1 O10 2.087048 1_655
Li1 O0 2.174065 1_556
Li1 O5 2.236309 1_655
Li1 O5 2.236309 1_565
Li2 O1 2.136830 1_555
Li2 O3 2.150389 1_655
Li2 O3 2.150389 1_565
Li2 O6 2.180911 1_655
Li2 O6 2.180911 1_565
Li2 O11 2.226898 1_555
Li3 O5 2.077036 1_555
Li3 O0 2.087048 1_545
Li3 O0 2.087048 1_455
Li3 O10 2.174065 1_554
Li3 O8 2.236309 1_455
Li3 O8 2.236309 1_545
Li4 O11 1.990682 1_455
Li4 O11 1.990682 1_545
Li4 O6 2.012388 1_554
Li4 O3 2.269097 1_555
Li4 O1 2.304445 1_544
Li4 O1 2.304445 1_454
Li5 O9 2.136830 1_555
Li5 O7 2.150389 1_455
Li5 O7 2.150389 1_545
Li5 O4 2.180911 1_455
Li5 O4 2.180911 1_545
Li5 O2 2.226898 1_555
Li6 O6 2.082877 1_555
Li6 O4 2.082877 1_445
Li6 O11 2.114501 1_455
Li6 O11 2.114501 1_545
Li6 O2 2.114501 1_545
Li6 O2 2.114501 1_455
Mn0 O3 1.940938 1_555
Mn0 O1 1.951741 1_545
Mn0 O1 1.951741 1_455
Mn0 O10 1.958713 1_555
Mn0 O8 1.969822 1_545
Mn0 O8 1.969822 1_455
Mn1 O7 1.940938 1_555
Mn1 O9 1.951741 1_565
Mn1 O9 1.951741 1_655
Mn1 O0 1.958713 1_555
Mn1 O5 1.969822 1_655
Mn1 O5 1.969822 1_565
Co0 O3 2.058090 1_655
Co0 O3 2.058090 1_565
Co0 O10 2.076354 1_654
Co0 O10 2.076354 1_564
Co0 O1 2.118719 1_554
Co0 O8 2.136187 1_555
Co1 O11 1.827641 1_555
Co1 O2 1.827641 1_554
Co1 O6 1.949450 1_564
Co1 O6 1.949450 1_654
Co1 O4 1.949450 1_545
Co1 O4 1.949450 1_455
Co2 O7 2.058090 1_545
Co2 O7 2.058090 1_455
Co2 O0 2.076354 1_456
Co2 O0 2.076354 1_546
Co2 O9 2.118719 1_556
Co2 O5 2.136187 1_555
