# generated using pymatgen
data_Na5VO4
_symmetry_space_group_name_H-M   'P 1'
_cell_length_a   7.31779800
_cell_length_b   10.93671600
_cell_length_c   7.51316900
_cell_angle_alpha   89.99984516
_cell_angle_beta   89.99996909
_cell_angle_gamma   90.00029545
_symmetry_Int_Tables_number   1
_chemical_formula_structural   Na5VO4
_chemical_formula_sum   'Na20 V4 O16'
_cell_volume   601.29903887
_cell_formula_units_Z   4
loop_
 _symmetry_equiv_pos_site_id
 _symmetry_equiv_pos_as_xyz
  1  'x, y, z'
loop_
 _atom_site_type_symbol
 _atom_site_label
 _atom_site_symmetry_multiplicity
 _atom_site_fract_x
 _atom_site_fract_y
 _atom_site_fract_z
 _atom_site_occupancy
  Na  Na0  1  0.75000000  0.09501800  0.25000100  1
  Na  Na1  1  0.74999600  0.59497600  0.25000100  1
  Na  Na2  1  0.25000300  0.40497300  0.75000000  1
  Na  Na3  1  0.25000000  0.90501500  0.75000000  1
  Na  Na4  1  0.01097900  0.37185500  0.05647700  1
  Na  Na5  1  0.01099800  0.87185600  0.05651700  1
  Na  Na6  1  0.48902600  0.37185400  0.05648100  1
  Na  Na7  1  0.48900300  0.87185200  0.05652600  1
  Na  Na8  1  0.48902300  0.37185100  0.44351500  1
  Na  Na9  1  0.48900200  0.87185300  0.44347500  1
  Na  Na10  1  0.01097800  0.37185100  0.44351500  1
  Na  Na11  1  0.01099500  0.87185400  0.44348000  1
  Na  Na12  1  0.51101700  0.12817200  0.55653200  1
  Na  Na13  1  0.51100200  0.62812700  0.55651400  1
  Na  Na14  1  0.98899000  0.12817200  0.55653500  1
  Na  Na15  1  0.98899900  0.62812500  0.55651200  1
  Na  Na16  1  0.51101100  0.12816700  0.94347400  1
  Na  Na17  1  0.51100100  0.62812500  0.94348800  1
  Na  Na18  1  0.98898300  0.12817500  0.94346300  1
  Na  Na19  1  0.98899800  0.62812400  0.94349500  1
  V  V0  1  0.24997300  0.61005600  0.24999200  1
  V  V1  1  0.75000500  0.38988600  0.75000200  1
  V  V2  1  0.25000500  0.11013600  0.25000100  1
  V  V3  1  0.75000600  0.88985700  0.75000100  1
  O  O0  1  0.25000000  0.01388100  0.02882200  1
  O  O1  1  0.25000000  0.51391800  0.02890700  1
  O  O2  1  0.25000100  0.01387900  0.47117600  1
  O  O3  1  0.24999800  0.51391600  0.47108900  1
  O  O4  1  0.75000200  0.48623800  0.52862100  1
  O  O5  1  0.75000300  0.98612300  0.52883400  1
  O  O6  1  0.75000100  0.48623800  0.97138200  1
  O  O7  1  0.75000100  0.98612100  0.97117000  1
  O  O8  1  0.47596300  0.20448600  0.25000100  1
  O  O9  1  0.47590300  0.70448900  0.25000200  1
  O  O10  1  0.02403900  0.20448600  0.25000000  1
  O  O11  1  0.02408900  0.70449100  0.24999900  1
  O  O12  1  0.52382500  0.29537600  0.75000300  1
  O  O13  1  0.52402600  0.79552600  0.75000000  1
  O  O14  1  0.97618100  0.29537700  0.75000100  1
  O  O15  1  0.97597900  0.79552500  0.74999900  1
loop_
_geom_bond_atom_site_label_1
_geom_bond_atom_site_label_2
_geom_bond_distance
_geom_bond_site_symmetry_2
Na0 O8 2.335547 1_555
Na0 O10 2.335549 1_655
Na0 O5 2.409781 1_545
Na0 O7 2.409784 1_544
Na1 O9 2.336151 1_555
Na1 O11 2.336152 1_655
Na1 O6 2.407540 1_554
Na1 O4 2.407541 1_555
Na2 O14 2.334904 1_455
Na2 O12 2.334920 1_555
Na2 O1 2.410540 1_556
Na2 O3 2.410550 1_555
Na3 O15 2.335559 1_455
Na3 O13 2.335596 1_555
Na3 O2 2.409555 1_565
Na3 O0 2.409558 1_566
Na4 O10 2.339607 1_555
Na4 O1 2.348669 1_555
Na4 O6 2.370861 1_454
Na4 O14 2.463015 1_454
Na5 O11 2.339391 1_555
Na5 O0 2.348373 1_565
Na5 O7 2.370804 1_454
Na5 O15 2.462932 1_454
Na6 O8 2.339585 1_555
Na6 O1 2.348718 1_555
Na6 O6 2.370846 1_554
Na6 O12 2.463030 1_554
Na7 O9 2.339348 1_555
Na7 O0 2.348426 1_565
Na7 O7 2.370840 1_554
Na7 O13 2.462974 1_554
Na8 O8 2.339537 1_555
Na8 O3 2.348720 1_555
Na8 O4 2.370904 1_555
Na8 O12 2.463088 1_555
Na9 O9 2.339348 1_555
Na9 O2 2.348392 1_565
Na9 O5 2.370872 1_555
Na9 O13 2.462967 1_555
Na10 O10 2.339542 1_555
Na10 O3 2.348681 1_555
Na10 O4 2.370896 1_455
Na10 O14 2.463065 1_455
Na11 O11 2.339376 1_555
Na11 O2 2.348397 1_565
Na11 O5 2.370813 1_455
Na11 O15 2.462925 1_455
Na12 O12 2.337884 1_555
Na12 O5 2.348474 1_545
Na12 O2 2.371087 1_555
Na12 O8 2.462984 1_555
Na13 O13 2.339686 1_555
Na13 O4 2.347524 1_555
Na13 O3 2.370684 1_555
Na13 O9 2.463063 1_555
Na14 O14 2.337870 1_555
Na14 O5 2.348470 1_545
Na14 O2 2.371073 1_655
Na14 O10 2.463007 1_655
Na15 O15 2.339699 1_555
Na15 O4 2.347480 1_555
Na15 O3 2.370648 1_655
Na15 O11 2.463077 1_655
Na16 O12 2.337922 1_555
Na16 O7 2.348473 1_545
Na16 O0 2.370998 1_556
Na16 O8 2.462974 1_556
Na17 O13 2.339707 1_555
Na17 O6 2.347509 1_555
Na17 O1 2.370628 1_556
Na17 O9 2.463087 1_556
Na18 O14 2.337817 1_555
Na18 O7 2.348482 1_545
Na18 O0 2.371113 1_656
Na18 O10 2.463020 1_656
Na19 O15 2.339743 1_555
Na19 O6 2.347469 1_555
Na19 O1 2.370625 1_656
Na19 O11 2.463022 1_656
O0 V2 1.967142 1_555
O1 V0 1.965860 1_555
O2 V2 1.967123 1_555
O3 V0 1.965943 1_555
O4 V1 1.968986 1_555
O5 V3 1.967125 1_555
O6 V1 1.968985 1_555
O7 V3 1.967131 1_555
O8 V2 1.949069 1_555
O9 V0 1.949376 1_555
O10 V2 1.949127 1_555
O11 V0 1.949111 1_555
O12 V1 1.951373 1_555
O13 V3 1.949095 1_555
O14 V1 1.951352 1_555
O15 V3 1.949067 1_555
