# generated using pymatgen
data_La(CoB)4
_symmetry_space_group_name_H-M   'P 1'
_cell_length_a   7.08644563
_cell_length_b   7.08644563
_cell_length_c   3.77199938
_cell_angle_alpha   90.00000000
_cell_angle_beta   90.00000000
_cell_angle_gamma   90.00000000
_symmetry_Int_Tables_number   1
_chemical_formula_structural   La(CoB)4
_chemical_formula_sum   'La2 Co8 B8'
_cell_volume   189.42117727
_cell_formula_units_Z   2
loop_
 _symmetry_equiv_pos_site_id
 _symmetry_equiv_pos_as_xyz
  1  'x, y, z'
loop_
 _atom_site_type_symbol
 _atom_site_label
 _atom_site_symmetry_multiplicity
 _atom_site_fract_x
 _atom_site_fract_y
 _atom_site_fract_z
 _atom_site_occupancy
  La  La0  1  0.00000000  -0.00000000  0.00000000  1
  La  La1  1  0.50000000  0.50000000  0.50000000  1
  Co  Co0  1  0.38443778  0.14161016  0.89479511  1
  Co  Co1  1  0.61556222  0.85838984  0.89479511  1
  Co  Co2  1  0.35838984  0.88443778  0.39479511  1
  Co  Co3  1  0.64161016  0.11556222  0.39479511  1
  Co  Co4  1  0.11556222  0.35838984  0.60520489  1
  Co  Co5  1  0.88443778  0.64161016  0.60520489  1
  Co  Co6  1  0.14161016  0.61556222  0.10520489  1
  Co  Co7  1  0.85838984  0.38443778  0.10520489  1
  B  B0  1  0.79733639  0.66087939  0.10311626  1
  B  B1  1  0.20266361  0.33912061  0.10311626  1
  B  B2  1  0.83912061  0.29733639  0.60311626  1
  B  B3  1  0.16087939  0.70266361  0.60311626  1
  B  B4  1  0.70266361  0.83912061  0.39688374  1
  B  B5  1  0.29733639  0.16087939  0.39688374  1
  B  B6  1  0.66087939  0.20266361  0.89688374  1
  B  B7  1  0.33912061  0.79733639  0.89688374  1
loop_
_geom_bond_atom_site_label_1
_geom_bond_atom_site_label_2
_geom_bond_distance
_geom_bond_site_symmetry_2
Co0 La0 2.930241 1_556
Co0 La1 3.055877 1_555
Co1 La0 2.930241 1_666
Co1 La1 3.055877 1_555
Co2 La1 2.930241 1_555
Co2 La0 3.055877 1_565
Co3 La1 2.930241 1_555
Co3 La0 3.055877 1_655
Co4 La1 2.930241 1_555
Co4 La0 3.055877 1_556
Co5 La1 2.930241 1_555
Co5 La0 3.055877 1_666
Co6 La0 2.930241 1_565
Co6 La1 3.055877 1_555
Co7 La0 2.930241 1_655
Co7 La1 3.055877 1_555
B0 B4 1.809248 1_555
B0 Co5 1.981658 1_554
B0 Co5 1.996598 1_555
B0 Co7 2.006212 1_555
B0 Co1 2.058096 1_554
B0 Co6 2.460735 1_655
B0 La1 2.824992 1_555
B0 La0 2.826487 1_665
B0 La1 3.303764 1_554
B1 B5 1.809248 1_555
B1 Co4 1.981658 1_554
B1 Co4 1.996598 1_555
B1 Co6 2.006212 1_555
B1 Co0 2.058096 1_554
B1 Co7 2.460735 1_455
B1 La1 2.824992 1_555
B1 La0 2.826487 1_555
B1 La1 3.303764 1_554
B2 B6 1.809248 1_555
B2 Co7 1.981658 1_555
B2 Co7 1.996598 1_556
B2 Co4 2.006212 1_655
B2 Co3 2.058096 1_555
B2 Co5 2.460735 1_555
B2 La0 2.824992 1_656
B2 La1 2.826487 1_555
B2 La0 3.303764 1_655
B3 B7 1.809248 1_555
B3 Co6 1.981658 1_555
B3 Co6 1.996598 1_556
B3 Co5 2.006212 1_455
B3 Co2 2.058096 1_555
B3 Co4 2.460735 1_555
B3 La0 2.824992 1_566
B3 La1 2.826487 1_555
B3 La0 3.303764 1_565
B4 Co1 1.981658 1_555
B4 Co1 1.996598 1_554
B4 Co3 2.006212 1_565
B4 Co5 2.058096 1_555
B4 Co2 2.460735 1_555
B4 La0 2.824992 1_665
B4 La1 2.826487 1_555
B4 La0 3.303764 1_666
B5 Co0 1.981658 1_555
B5 Co0 1.996598 1_554
B5 Co2 2.006212 1_545
B5 Co4 2.058096 1_555
B5 Co3 2.460735 1_555
B5 La0 2.824992 1_555
B5 La1 2.826487 1_555
B5 La0 3.303764 1_556
B6 Co3 1.981658 1_556
B6 Co3 1.996598 1_555
B6 Co0 2.006212 1_555
B6 Co7 2.058096 1_556
B6 Co1 2.460735 1_545
B6 La1 2.824992 1_555
B6 La0 2.826487 1_656
B6 La1 3.303764 1_556
B7 Co2 1.981658 1_556
B7 Co2 1.996598 1_555
B7 Co1 2.006212 1_555
B7 Co6 2.058096 1_556
B7 Co0 2.460735 1_565
B7 La1 2.824992 1_555
B7 La0 2.826487 1_566
B7 La1 3.303764 1_556
