# generated using pymatgen
data_KRbCuH12(SeO7)2
_symmetry_space_group_name_H-M   'P 1'
_cell_length_a   12.52307500
_cell_length_b   6.45889600
_cell_length_c   9.27056842
_cell_angle_alpha   76.55930199
_cell_angle_beta   90.00000000
_cell_angle_gamma   90.00000000
_symmetry_Int_Tables_number   1
_chemical_formula_structural   KRbCuH12(SeO7)2
_chemical_formula_sum   'K2 Rb2 Cu2 H24 Se4 O28'
_cell_volume   729.31445665
_cell_formula_units_Z   2
loop_
 _symmetry_equiv_pos_site_id
 _symmetry_equiv_pos_as_xyz
  1  'x, y, z'
loop_
 _atom_site_type_symbol
 _atom_site_label
 _atom_site_symmetry_multiplicity
 _atom_site_fract_x
 _atom_site_fract_y
 _atom_site_fract_z
 _atom_site_occupancy
  K  K0  1  0.15495700  0.65174200  0.38725700  1
  K  K1  1  0.65495700  0.34825800  0.61274300  1
  Rb  Rb0  1  0.84074700  0.34983900  0.11227600  1
  Rb  Rb1  1  0.34074700  0.65016100  0.88772400  1
  Cu  Cu0  1  0.49976900  0.99987400  0.25069700  1
  Cu  Cu1  1  0.99976900  0.00012600  0.74930300  1
  H  H0  1  0.40611100  0.67520800  0.45802400  1
  H  H1  1  0.90611100  0.32479200  0.54197600  1
  H  H2  1  0.59194700  0.32395200  0.04048600  1
  H  H3  1  0.09194700  0.67604800  0.95951400  1
  H  H4  1  0.31637500  0.99041800  0.11387100  1
  H  H5  1  0.81637500  0.00958200  0.88612900  1
  H  H6  1  0.68330500  0.00983000  0.38782500  1
  H  H7  1  0.18330500  0.99017000  0.61217500  1
  H  H8  1  0.40431700  0.06827500  0.98670400  1
  H  H9  1  0.90431700  0.93172500  0.01329600  1
  H  H10  1  0.59507300  0.93237900  0.51406800  1
  H  H11  1  0.09507300  0.06762100  0.48593200  1
  H  H12  1  0.36718500  0.88686300  0.50274600  1
  H  H13  1  0.86718500  0.11313700  0.49725400  1
  H  H14  1  0.63071300  0.11220500  0.99533500  1
  H  H15  1  0.13071300  0.88779500  0.00466500  1
  H  H16  1  0.63392300  0.68449000  0.27811600  1
  H  H17  1  0.13392300  0.31551000  0.72188400  1
  H  H18  1  0.36559600  0.31490100  0.22366600  1
  H  H19  1  0.86559600  0.68509900  0.77633400  1
  H  H20  1  0.55259300  0.68738600  0.14517000  1
  H  H21  1  0.05259300  0.31261400  0.85483000  1
  H  H22  1  0.44777900  0.31370000  0.35512900  1
  H  H23  1  0.94777900  0.68630000  0.64487100  1
  Se  Se0  1  0.35912500  0.26199300  0.66157600  1
  Se  Se1  1  0.85912500  0.73800700  0.33842400  1
  Se  Se2  1  0.64052400  0.73949400  0.83446700  1
  Se  Se3  1  0.14052400  0.26050600  0.16553300  1
  O  O0  1  0.37436000  0.81726300  0.41865200  1
  O  O1  1  0.87436000  0.18273700  0.58134800  1
  O  O2  1  0.62201600  0.18029100  0.07983600  1
  O  O3  1  0.12201600  0.81970900  0.92016400  1
  O  O4  1  0.42783100  0.23544300  0.81949800  1
  O  O5  1  0.92783100  0.76455700  0.18050200  1
  O  O6  1  0.56979200  0.76290800  0.67860000  1
  O  O7  1  0.06979200  0.23709200  0.32140000  1
  O  O8  1  0.55801600  0.71834900  0.24596100  1
  O  O9  1  0.05801600  0.28165100  0.75403900  1
  O  O10  1  0.44184700  0.28177800  0.25453800  1
  O  O11  1  0.94184700  0.71822200  0.74546200  1
  O  O12  1  0.39121700  0.96556900  0.08450600  1
  O  O13  1  0.89121700  0.03443100  0.91549400  1
  O  O14  1  0.60856200  0.03651800  0.41678100  1
  O  O15  1  0.10856200  0.96348200  0.58321900  1
  O  O16  1  0.31755800  0.02348500  0.63950800  1
  O  O17  1  0.81755800  0.97651500  0.36049200  1
  O  O18  1  0.68159800  0.97959800  0.85481300  1
  O  O19  1  0.18159800  0.02040200  0.14518700  1
  O  O20  1  0.43936800  0.38136200  0.52165600  1
  O  O21  1  0.93936800  0.61863800  0.47834400  1
  O  O22  1  0.56397300  0.61912700  0.97839000  1
  O  O23  1  0.06397300  0.38087300  0.02161000  1
  O  O24  1  0.25231800  0.41885700  0.66347900  1
  O  O25  1  0.75231800  0.58114300  0.33652100  1
  O  O26  1  0.74664500  0.58292900  0.82804100  1
  O  O27  1  0.24664500  0.41707100  0.17195900  1
loop_
_geom_bond_atom_site_label_1
_geom_bond_atom_site_label_2
_geom_bond_distance
_geom_bond_site_symmetry_2
K0 O21 2.822049 1_455
K0 O19 2.886714 1_565
K0 O24 2.918201 1_555
K0 O0 2.986906 1_555
K0 O27 3.000988 1_555
K0 O15 3.064723 1_555
K0 O7 3.072949 1_555
K1 O20 2.822049 1_555
K1 O18 2.886714 1_545
K1 O25 2.918201 1_555
K1 O1 2.986906 1_555
K1 O26 3.000988 1_555
K1 O14 3.064723 1_555
K1 O6 3.072949 1_555
Cu0 O10 1.967950 1_565
Cu0 O8 1.969130 1_555
Cu0 O12 2.104634 1_555
Cu0 O14 2.110042 1_565
Cu0 O2 2.313549 1_565
Cu0 O0 2.329863 1_555
Cu1 O11 1.967950 1_545
Cu1 O9 1.969130 1_655
Cu1 O13 2.104634 1_555
Cu1 O15 2.110042 1_645
Cu1 O3 2.313549 1_645
Cu1 O1 2.329863 1_555
H0 O0 0.988677 1_555
H1 O1 0.988677 1_555
H2 O2 0.989190 1_555
H3 O3 0.989190 1_555
H4 O12 0.999310 1_555
H5 O13 0.999310 1_555
H6 O14 0.999701 1_555
H7 O15 0.999701 1_555
H8 O12 1.004705 1_546
H9 O13 1.004705 1_564
H10 O14 1.006169 1_565
H11 O15 1.006169 1_545
H12 O0 0.990381 1_555
H13 O1 0.990381 1_555
H14 O2 0.989481 1_556
H15 O3 0.989481 1_554
H16 O8 1.004988 1_555
H16 O25 1.664039 1_555
H17 O9 1.004988 1_555
H17 O24 1.664039 1_555
H18 O10 1.005507 1_555
H18 O27 1.654450 1_555
H19 O11 1.005507 1_555
H19 O26 1.654450 1_555
H20 O8 1.002278 1_555
H20 O22 1.709426 1_554
H21 O9 1.002278 1_555
H21 O23 1.709426 1_556
H22 O10 1.003511 1_555
H22 O20 1.702657 1_555
H23 O11 1.003511 1_555
H23 O21 1.702657 1_555
O2 Rb0 2.990971 1_555
O3 Rb1 2.990971 1_555
O4 Se0 1.672237 1_555
O4 Rb1 3.090627 1_555
O5 Se1 1.672237 1_555
O5 Rb0 3.090627 1_555
O6 Se2 1.671481 1_555
O7 Se3 1.671481 1_555
O16 Se0 1.682994 1_555
O16 Rb1 2.934993 1_545
O17 Se1 1.682994 1_555
O17 Rb0 2.934993 1_565
O18 Se2 1.685568 1_555
O19 Se3 1.685568 1_555
O20 Se0 1.679846 1_555
O21 Se1 1.679846 1_555
O22 Se2 1.679711 1_555
O22 Rb1 2.912563 1_555
O23 Se3 1.679711 1_555
O23 Rb0 2.912563 1_455
O24 Se0 1.680528 1_555
O24 Rb1 3.037075 1_555
O25 Se1 1.680528 1_555
O25 Rb0 3.037075 1_555
O26 Se2 1.679373 1_555
O26 Rb0 2.958788 1_556
O27 Se3 1.679373 1_555
O27 Rb1 2.958788 1_554
