# generated using pymatgen
data_Mg16Al12Cd
_symmetry_space_group_name_H-M   'P 1'
_cell_length_a   9.10686360
_cell_length_b   9.10686360
_cell_length_c   9.10686319
_cell_angle_alpha   109.22262889
_cell_angle_beta   109.22262889
_cell_angle_gamma   109.22262299
_symmetry_Int_Tables_number   1
_chemical_formula_structural   Mg16Al12Cd
_chemical_formula_sum   'Mg16 Al12 Cd1'
_cell_volume   586.70306416
_cell_formula_units_Z   1
loop_
 _symmetry_equiv_pos_site_id
 _symmetry_equiv_pos_as_xyz
  1  'x, y, z'
loop_
 _atom_site_type_symbol
 _atom_site_label
 _atom_site_symmetry_multiplicity
 _atom_site_fract_x
 _atom_site_fract_y
 _atom_site_fract_z
 _atom_site_occupancy
  Mg  Mg0  1  0.31499300  0.31499300  0.71205700  1
  Mg  Mg1  1  0.00145100  0.00145100  0.00145100  1
  Mg  Mg2  1  0.00143100  0.00143100  0.65498500  1
  Mg  Mg3  1  0.59892900  0.59892900  0.29181300  1
  Mg  Mg4  1  0.68164500  0.40118800  0.99960200  1
  Mg  Mg5  1  0.59892900  0.29181300  0.59892900  1
  Mg  Mg6  1  0.99960200  0.68164500  0.40118800  1
  Mg  Mg7  1  0.00143100  0.65498500  0.00143100  1
  Mg  Mg8  1  0.71205700  0.31499300  0.31499300  1
  Mg  Mg9  1  0.40118800  0.99960200  0.68164500  1
  Mg  Mg10  1  0.99960200  0.40118800  0.68164500  1
  Mg  Mg11  1  0.31499300  0.71205700  0.31499300  1
  Mg  Mg12  1  0.65498500  0.00143100  0.00143100  1
  Mg  Mg13  1  0.68164500  0.99960200  0.40118800  1
  Mg  Mg14  1  0.29181300  0.59892900  0.59892900  1
  Mg  Mg15  1  0.40118800  0.68164500  0.99960200  1
  Al  Al0  1  0.81533100  0.81533100  0.18606400  1
  Al  Al1  1  0.63926900  0.63926900  0.82612900  1
  Al  Al2  1  0.36628000  0.18228400  0.99512300  1
  Al  Al3  1  0.18228400  0.99512300  0.36628000  1
  Al  Al4  1  0.82612900  0.63926900  0.63926900  1
  Al  Al5  1  0.18606400  0.81533100  0.81533100  1
  Al  Al6  1  0.36628000  0.99512300  0.18228400  1
  Al  Al7  1  0.99512300  0.36628000  0.18228400  1
  Al  Al8  1  0.81533100  0.18606400  0.81533100  1
  Al  Al9  1  0.63926900  0.82612900  0.63926900  1
  Al  Al10  1  0.99512300  0.18228400  0.36628000  1
  Al  Al11  1  0.18228400  0.36628000  0.99512300  1
  Cd  Cd0  1  0.33535600  0.33535600  0.33535600  1
loop_
_geom_bond_atom_site_label_1
_geom_bond_atom_site_label_2
_geom_bond_distance
_geom_bond_site_symmetry_2
Mg0 Mg2 3.042146 1_555
Mg0 Mg14 3.124505 1_555
Mg0 Mg5 3.124505 1_555
Mg0 Mg4 3.128204 1_555
Mg0 Mg15 3.128204 1_555
Mg0 Mg10 3.169620 1_455
Mg0 Mg9 3.169620 1_545
Mg1 Mg2 3.155099 1_554
Mg1 Mg7 3.155099 1_545
Mg1 Mg12 3.155099 1_455
Mg2 Mg6 3.055158 1_445
Mg3 Mg8 3.124505 1_555
Mg3 Mg4 3.154296 1_554
Mg3 Mg6 3.190082 1_555
Mg4 Mg7 3.055158 1_656
Mg4 Mg8 3.169620 1_556
Mg4 Mg5 3.190082 1_555
Mg4 Mg6 3.207674 1_556
Mg4 Mg9 3.207674 1_545
Mg5 Mg8 3.124505 1_555
Mg5 Mg9 3.154296 1_545
Mg6 Mg8 3.128204 1_555
Mg6 Mg9 3.207674 1_655
Mg10 Mg7 3.055158 1_656
Mg10 Mg8 3.128204 1_555
Mg10 Mg14 3.154296 1_655
Mg10 Mg5 3.190082 1_555
Mg10 Mg15 3.207674 1_655
Mg10 Mg13 3.207674 1_545
Mg11 Mg7 3.042146 1_555
Mg11 Mg14 3.124505 1_555
Mg11 Mg3 3.124505 1_555
Mg11 Mg9 3.128204 1_555
Mg11 Mg13 3.128204 1_555
Mg11 Mg15 3.169620 1_554
Mg11 Mg6 3.169620 1_455
Mg12 Mg8 3.042146 1_555
Mg12 Mg9 3.055158 1_544
Mg12 Mg15 3.055158 1_544
Mg13 Mg2 3.055158 1_665
Mg13 Mg5 3.154296 1_565
Mg13 Mg8 3.169620 1_565
Mg13 Mg3 3.190082 1_555
Mg13 Mg15 3.207674 1_554
Mg14 Mg6 3.154296 1_455
Mg14 Mg15 3.190082 1_555
Mg14 Mg9 3.190082 1_555
Mg15 Mg3 3.154296 1_556
Al0 Al1 2.696626 1_554
Al0 Al10 2.749199 1_565
Al0 Al3 2.749199 1_655
Al0 Mg3 2.938904 1_555
Al0 Mg6 2.981184 1_555
Al0 Mg13 2.981184 1_555
Al0 Mg12 3.117871 1_565
Al0 Mg7 3.117871 1_655
Al0 Mg15 3.160416 1_554
Al0 Mg4 3.160416 1_554
Al0 Mg1 3.230101 1_665
Al1 Al9 2.774609 1_555
Al1 Al4 2.774609 1_555
Al1 Mg0 2.956080 1_555
Al1 Mg14 2.975124 1_555
Al1 Mg5 2.975124 1_555
Al1 Mg12 3.085221 1_566
Al1 Mg7 3.085221 1_656
Al1 Mg15 3.122600 1_555
Al1 Mg4 3.122600 1_555
Al1 Mg1 3.195043 1_666
Al2 Al5 2.749199 1_545
Al2 Al6 2.779078 1_546
Al2 Mg4 2.885029 1_555
Al2 Mg9 2.972740 1_545
Al2 Mg8 2.999626 1_556
Al2 Mg2 3.099605 1_555
Al2 Cd0 3.100311 1_556
Al2 Mg0 3.155060 1_555
Al2 Mg1 3.215543 1_556
Al2 Mg3 3.220626 1_556
Al3 Al6 2.732083 1_555
Al3 Mg9 2.885029 1_555
Al3 Mg6 2.972740 1_455
Al3 Mg0 2.999626 1_565
Al3 Mg7 3.099605 1_555
Al3 Cd0 3.100312 1_565
Al3 Mg11 3.155060 1_555
Al3 Mg1 3.215543 1_565
Al3 Mg5 3.220626 1_565
Al4 Al5 2.696626 1_655
Al4 Al9 2.774609 1_555
Al4 Mg8 2.956080 1_555
Al4 Mg3 2.975124 1_555
Al4 Mg5 2.975124 1_555
Al4 Mg7 3.085221 1_656
Al4 Mg2 3.085221 1_665
Al4 Mg10 3.122600 1_555
Al4 Mg6 3.122600 1_555
Al4 Mg1 3.195043 1_666
Al5 Al6 2.749199 1_556
Al5 Mg14 2.938903 1_555
Al5 Mg15 2.981184 1_555
Al5 Mg9 2.981184 1_555
Al5 Mg2 3.117871 1_565
Al5 Mg7 3.117871 1_556
Al5 Mg6 3.160416 1_455
Al5 Mg10 3.160416 1_455
Al5 Mg1 3.230101 1_566
Al6 Mg13 2.885029 1_555
Al6 Mg15 2.972740 1_554
Al6 Mg8 2.999626 1_565
Al6 Mg7 3.099605 1_555
Al6 Cd0 3.100311 1_565
Al6 Mg11 3.155061 1_555
Al6 Mg1 3.215543 1_565
Al6 Mg5 3.220626 1_565
Al7 Al8 2.749199 1_554
Al7 Mg6 2.885029 1_555
Al7 Mg4 2.972740 1_554
Al7 Mg11 2.999626 1_655
Al7 Mg12 3.099605 1_555
Al7 Cd0 3.100311 1_655
Al7 Mg8 3.155061 1_555
Al7 Mg1 3.215543 1_655
Al7 Mg14 3.220626 1_655
Al8 Al9 2.696626 1_545
Al8 Mg5 2.938903 1_555
Al8 Mg4 2.981184 1_555
Al8 Mg10 2.981184 1_555
Al8 Mg2 3.117871 1_655
Al8 Mg12 3.117871 1_556
Al8 Mg13 3.160416 1_545
Al8 Mg9 3.160416 1_545
Al8 Mg1 3.230101 1_656
Al9 Mg11 2.956080 1_555
Al9 Mg3 2.975124 1_555
Al9 Mg14 2.975124 1_555
Al9 Mg12 3.085221 1_566
Al9 Mg2 3.085221 1_665
Al9 Mg9 3.122600 1_555
Al9 Mg13 3.122600 1_555
Al9 Mg1 3.195043 1_666
Al10 Al7 2.732083 1_555
Al10 Al3 2.779078 1_645
Al10 Mg10 2.885029 1_555
Al10 Mg13 2.972740 1_545
Al10 Mg0 2.999626 1_655
Al10 Mg12 3.099605 1_555
Al10 Cd0 3.100312 1_655
Al10 Mg8 3.155060 1_555
Al10 Mg1 3.215543 1_655
Al10 Mg14 3.220626 1_655
Al11 Al2 2.732083 1_555
Al11 Al8 2.749199 1_455
Al11 Al7 2.779078 1_456
Al11 Mg15 2.885029 1_555
Al11 Mg10 2.972740 1_455
Al11 Mg11 2.999626 1_556
Al11 Mg2 3.099605 1_555
Al11 Cd0 3.100311 1_556
Al11 Mg0 3.155060 1_555
Al11 Mg1 3.215543 1_556
Al11 Mg3 3.220626 1_556
Cd0 Mg14 3.023243 1_555
Cd0 Mg5 3.023243 1_555
Cd0 Mg3 3.023243 1_555
Cd0 Mg1 3.077946 1_555
