# generated using pymatgen
data_Li9Mn2Co5O16
_symmetry_space_group_name_H-M   'P 1'
_cell_length_a   5.87381164
_cell_length_b   5.87381164
_cell_length_c   9.85267569
_cell_angle_alpha   81.62034873
_cell_angle_beta   81.62034873
_cell_angle_gamma   59.59072794
_symmetry_Int_Tables_number   1
_chemical_formula_structural   Li9Mn2Co5O16
_chemical_formula_sum   'Li9 Mn2 Co5 O16'
_cell_volume   289.00623342
_cell_formula_units_Z   1
loop_
 _symmetry_equiv_pos_site_id
 _symmetry_equiv_pos_as_xyz
  1  'x, y, z'
loop_
 _atom_site_type_symbol
 _atom_site_label
 _atom_site_symmetry_multiplicity
 _atom_site_fract_x
 _atom_site_fract_y
 _atom_site_fract_z
 _atom_site_occupancy
  Li  Li0  1  0.37409900  0.86464300  0.75871800  1
  Li  Li1  1  0.62681600  0.13444500  0.24136700  1
  Li  Li2  1  0.86464300  0.37409900  0.75871800  1
  Li  Li3  1  0.87226900  0.87226900  0.76065300  1
  Li  Li4  1  0.12572600  0.12572600  0.24081700  1
  Li  Li5  1  0.37894600  0.37894600  0.76415300  1
  Li  Li6  1  0.62240400  0.62240400  0.23505900  1
  Li  Li7  1  0.13444500  0.62681600  0.24136700  1
  Li  Li8  1  0.49989500  0.49989500  0.00036200  1
  Mn  Mn0  1  0.99990000  0.99990000  0.99992700  1
  Mn  Mn1  1  0.25024200  0.25024200  0.49995400  1
  Co  Co0  1  0.75024000  0.75024000  0.49929500  1
  Co  Co1  1  0.49965200  0.00020100  0.99994900  1
  Co  Co2  1  0.75047300  0.24980500  0.50043900  1
  Co  Co3  1  0.00020100  0.49965200  0.99994900  1
  Co  Co4  1  0.24980500  0.75047300  0.50043900  1
  O  O0  1  0.17020600  0.70250300  0.88604200  1
  O  O1  1  0.43132800  0.95130400  0.38704000  1
  O  O2  1  0.70250300  0.17020600  0.88604200  1
  O  O3  1  0.69524700  0.69524700  0.88875900  1
  O  O4  1  0.94353800  0.94353800  0.38856800  1
  O  O5  1  0.17566700  0.17566700  0.88422000  1
  O  O6  1  0.42658800  0.42658800  0.38601300  1
  O  O7  1  0.95130400  0.43132800  0.38704000  1
  O  O8  1  0.54842200  0.06900800  0.61288900  1
  O  O9  1  0.82815000  0.29907500  0.11352000  1
  O  O10  1  0.06900800  0.54842200  0.61288900  1
  O  O11  1  0.07494600  0.07494600  0.61176200  1
  O  O12  1  0.30469000  0.30469000  0.10958800  1
  O  O13  1  0.55595900  0.55595900  0.61400600  1
  O  O14  1  0.82361200  0.82361200  0.11693400  1
  O  O15  1  0.29907500  0.82815000  0.11352000  1
loop_
_geom_bond_atom_site_label_1
_geom_bond_atom_site_label_2
_geom_bond_distance
_geom_bond_site_symmetry_2
Li0 O0 2.069693 1_555
Li0 O5 2.075521 1_565
Li0 O3 2.150060 1_555
Li0 O11 2.175511 1_565
Li0 O13 2.193247 1_555
Li0 O8 2.206047 1_565
Li1 O14 2.067736 1_545
Li1 O9 2.070946 1_555
Li1 O6 2.130741 1_555
Li1 O12 2.165175 1_555
Li1 O1 2.203592 1_545
Li1 O4 2.241058 1_545
Li2 O2 2.069693 1_555
Li2 O5 2.075521 1_655
Li2 O3 2.150060 1_555
Li2 O11 2.175511 1_655
Li2 O13 2.193247 1_555
Li2 O10 2.206047 1_655
Li3 O3 2.021123 1_555
Li3 O2 2.021797 1_565
Li3 O0 2.021797 1_655
Li3 O10 2.272635 1_655
Li3 O8 2.272635 1_565
Li3 O11 2.324491 1_665
Li4 O15 2.032245 1_545
Li4 O9 2.032245 1_455
Li4 O12 2.051380 1_555
Li4 O4 2.158889 1_445
Li4 O1 2.192990 1_545
Li4 O7 2.192990 1_455
Li5 O2 2.105845 1_555
Li5 O0 2.105845 1_555
Li5 O13 2.132694 1_555
Li5 O5 2.206973 1_555
Li5 O10 2.247253 1_555
Li5 O8 2.247253 1_555
Li6 O9 2.102112 1_555
Li6 O15 2.102112 1_555
Li6 O14 2.181819 1_555
Li6 O6 2.280348 1_555
Li6 O1 2.322164 1_555
Li6 O7 2.322164 1_555
Li7 O14 2.067736 1_455
Li7 O15 2.070946 1_555
Li7 O6 2.130741 1_555
Li7 O12 2.165175 1_555
Li7 O7 2.203592 1_455
Li7 O4 2.241058 1_455
Li8 O15 2.071915 1_555
Li8 O9 2.071915 1_555
Li8 O2 2.084969 1_554
Li8 O0 2.084969 1_554
Li8 O12 2.097412 1_555
Li8 O3 2.107095 1_554
Mn0 O2 1.945853 1_565
Mn0 O0 1.945853 1_655
Mn0 O9 1.951379 1_566
Mn0 O15 1.951379 1_656
Mn0 O5 1.955609 1_665
Mn0 O14 1.965470 1_556
Mn1 O11 1.935459 1_555
Mn1 O10 1.942736 1_555
Mn1 O8 1.942736 1_555
Mn1 O1 1.945755 1_545
Mn1 O7 1.945755 1_455
Mn1 O6 1.953067 1_555
Co0 O7 2.027452 1_555
Co0 O1 2.027452 1_555
Co0 O10 2.034893 1_655
Co0 O8 2.034893 1_565
Co0 O4 2.086007 1_555
Co0 O13 2.109129 1_555
Co1 O12 1.950953 1_556
Co1 O3 1.962248 1_545
Co1 O15 2.037879 1_546
Co1 O2 2.040709 1_555
Co1 O5 2.070809 1_555
Co1 O14 2.077988 1_546
Co2 O4 1.971174 1_545
Co2 O13 1.981198 1_555
Co2 O11 2.046858 1_655
Co2 O6 2.062189 1_555
Co2 O8 2.076907 1_555
Co2 O7 2.078141 1_555
Co3 O12 1.950953 1_556
Co3 O3 1.962248 1_455
Co3 O9 2.037879 1_456
Co3 O0 2.040709 1_555
Co3 O5 2.070809 1_555
Co3 O14 2.077988 1_456
Co4 O4 1.971174 1_455
Co4 O13 1.981198 1_555
Co4 O11 2.046858 1_565
Co4 O6 2.062189 1_555
Co4 O10 2.076907 1_555
Co4 O1 2.078141 1_555
