# generated using pymatgen
data_Nd(Sn3Ru2)2
_symmetry_space_group_name_H-M   'P 1'
_cell_length_a   6.91294082
_cell_length_b   6.91294082
_cell_length_c   6.92460697
_cell_angle_alpha   119.94428496
_cell_angle_beta   119.94428496
_cell_angle_gamma   90.00000000
_symmetry_Int_Tables_number   1
_chemical_formula_structural   Nd(Sn3Ru2)2
_chemical_formula_sum   'Nd1 Sn6 Ru4'
_cell_volume   234.38814214
_cell_formula_units_Z   1
loop_
 _symmetry_equiv_pos_site_id
 _symmetry_equiv_pos_as_xyz
  1  'x, y, z'
loop_
 _atom_site_type_symbol
 _atom_site_label
 _atom_site_symmetry_multiplicity
 _atom_site_fract_x
 _atom_site_fract_y
 _atom_site_fract_z
 _atom_site_occupancy
  Nd  Nd0  1  -0.00000000  -0.00000000  -0.00000000  1
  Sn  Sn0  1  0.47231355  0.47231355  0.59079989  1
  Sn  Sn1  1  0.11848635  0.11848635  0.59079989  1
  Sn  Sn2  1  0.88151365  0.52768645  0.40920011  1
  Sn  Sn3  1  0.52768645  0.88151365  0.40920011  1
  Sn  Sn4  1  -0.00000000  0.50000000  -0.00000000  1
  Sn  Sn5  1  0.50000000  -0.00000000  -0.00000000  1
  Ru  Ru0  1  0.40717244  0.40717244  0.15767578  1
  Ru  Ru1  1  0.75050333  0.75050333  0.15767578  1
  Ru  Ru2  1  0.24949667  0.59282756  0.84232422  1
  Ru  Ru3  1  0.59282756  0.24949667  0.84232422  1
loop_
_geom_bond_atom_site_label_1
_geom_bond_atom_site_label_2
_geom_bond_distance
_geom_bond_site_symmetry_2
Nd0 Ru0 3.301767 1_555
Nd0 Ru2 3.301767 1_544
Nd0 Ru3 3.301767 1_454
Nd0 Ru1 3.301767 1_445
Nd0 Sn1 3.374607 1_555
Nd0 Sn3 3.374607 1_444
Nd0 Sn2 3.374607 1_444
Nd0 Sn0 3.374607 1_555
Nd0 Sn4 3.456470 1_545
Nd0 Sn4 3.456470 1_555
Nd0 Sn5 3.456470 1_455
Nd0 Sn5 3.456470 1_555
Nd0 Sn0 3.742307 1_444
Nd0 Sn2 3.742307 1_455
Nd0 Sn3 3.742307 1_545
Nd0 Sn1 3.742307 1_554
Ru0 Sn0 2.589250 1_555
Ru0 Sn5 2.675473 1_555
Ru0 Sn4 2.675473 1_555
Ru0 Sn2 2.707375 1_555
Ru0 Sn3 2.707375 1_555
Ru0 Sn1 2.780814 1_554
Ru0 Ru3 2.832917 1_554
Ru0 Ru2 2.832917 1_554
Ru1 Sn1 2.589250 1_665
Ru1 Sn4 2.675473 1_655
Ru1 Sn5 2.675473 1_565
Ru1 Sn2 2.707375 1_555
Ru1 Sn3 2.707375 1_555
Ru1 Sn0 2.780814 1_554
Ru1 Ru3 2.832917 1_554
Ru1 Ru2 2.832917 1_554
Ru2 Sn2 2.589250 1_455
Ru2 Sn5 2.675473 1_566
Ru2 Sn4 2.675473 1_556
Ru2 Sn0 2.707375 1_555
Ru2 Sn1 2.707375 1_555
Ru2 Sn3 2.780814 1_556
Ru3 Sn3 2.589250 1_545
Ru3 Sn4 2.675473 1_656
Ru3 Sn5 2.675473 1_556
Ru3 Sn0 2.707375 1_555
Ru3 Sn1 2.707375 1_555
Ru3 Sn2 2.780814 1_556
