# generated using pymatgen
data_BC7
_symmetry_space_group_name_H-M   'P 1'
_cell_length_a   2.51260800
_cell_length_b   3.69037900
_cell_length_c   5.12245500
_cell_angle_alpha   90.00000000
_cell_angle_beta   90.00000000
_cell_angle_gamma   90.00000000
_symmetry_Int_Tables_number   1
_chemical_formula_structural   BC7
_chemical_formula_sum   'B1 C7'
_cell_volume   47.49784002
_cell_formula_units_Z   1
loop_
 _symmetry_equiv_pos_site_id
 _symmetry_equiv_pos_as_xyz
  1  'x, y, z'
loop_
 _atom_site_type_symbol
 _atom_site_label
 _atom_site_symmetry_multiplicity
 _atom_site_fract_x
 _atom_site_fract_y
 _atom_site_fract_z
 _atom_site_occupancy
  B  B0  1  0.50000000  0.65723700  0.50000000  1
  C  C0  1  0.50000000  0.89855600  0.24148100  1
  C  C1  1  0.50000000  0.89855600  0.75851900  1
  C  C2  1  0.00000000  0.36109000  0.50000000  1
  C  C3  1  0.00000000  0.40179600  0.00000000  1
  C  C4  1  0.50000000  0.64458600  0.00000000  1
  C  C5  1  0.00000000  0.14178900  0.24557200  1
  C  C6  1  0.00000000  0.14178900  0.75442800  1
loop_
_geom_bond_atom_site_label_1
_geom_bond_atom_site_label_2
_geom_bond_distance
_geom_bond_site_symmetry_2
B0 C1 1.595850 1_555
B0 C0 1.595850 1_555
B0 C2 1.665148 1_555
B0 C2 1.665148 1_655
C0 C5 1.544171 1_665
C0 C5 1.544171 1_565
C0 C4 1.551946 1_555
C1 C6 1.544171 1_565
C1 C6 1.544171 1_665
C1 C4 1.551946 1_556
C2 C6 1.534129 1_555
C2 C5 1.534129 1_555
C3 C4 1.543079 1_455
C3 C4 1.543079 1_555
C3 C5 1.582112 1_555
C3 C6 1.582112 1_554
