# generated using pymatgen
data_RbAl(SO4)2
_symmetry_space_group_name_H-M   'P 1'
_cell_length_a   4.94203984
_cell_length_b   4.94203984
_cell_length_c   8.42441300
_cell_angle_alpha   90.00000000
_cell_angle_beta   90.00000000
_cell_angle_gamma   119.99999784
_symmetry_Int_Tables_number   1
_chemical_formula_structural   RbAl(SO4)2
_chemical_formula_sum   'Rb1 Al1 S2 O8'
_cell_volume   178.18977308
_cell_formula_units_Z   1
loop_
 _symmetry_equiv_pos_site_id
 _symmetry_equiv_pos_as_xyz
  1  'x, y, z'
loop_
 _atom_site_type_symbol
 _atom_site_label
 _atom_site_symmetry_multiplicity
 _atom_site_fract_x
 _atom_site_fract_y
 _atom_site_fract_z
 _atom_site_occupancy
  Rb  Rb0  1  0.00000000  0.00000000  0.50000000  1
  Al  Al0  1  0.00000000  0.00000000  0.00000000  1
  S  S0  1  0.66666700  0.33333300  0.80148200  1
  S  S1  1  0.33333300  0.66666700  0.19851800  1
  O  O0  1  0.87876400  0.22339000  0.86068600  1
  O  O1  1  0.34462500  0.12123600  0.86068600  1
  O  O2  1  0.65537500  0.77661000  0.13931400  1
  O  O3  1  0.77661000  0.65537500  0.86068600  1
  O  O4  1  0.22339000  0.87876400  0.13931400  1
  O  O5  1  0.12123600  0.34462500  0.13931400  1
  O  O6  1  0.66666700  0.33333300  0.62838700  1
  O  O7  1  0.33333300  0.66666700  0.37161300  1
loop_
_geom_bond_atom_site_label_1
_geom_bond_atom_site_label_2
_geom_bond_distance
_geom_bond_site_symmetry_2
Al0 O5 1.901759 1_555
Al0 O1 1.901759 1_554
Al0 O2 1.901759 1_445
Al0 O3 1.901759 1_444
Al0 O4 1.901762 1_545
Al0 O0 1.901762 1_454
O0 S0 1.487352 1_555
O0 Rb0 3.387059 1_655
O1 S0 1.487359 1_555
O1 Rb0 3.387057 1_555
O2 S1 1.487361 1_555
O2 Rb0 3.387057 1_665
O3 S0 1.487361 1_555
O3 Rb0 3.387057 1_665
O4 S1 1.487352 1_555
O4 Rb0 3.387059 1_565
O5 S1 1.487359 1_555
O5 Rb0 3.387057 1_555
O6 S0 1.458224 1_555
O6 Rb0 3.051403 1_655
O6 Rb0 3.051407 1_555
O6 Rb0 3.051407 1_665
O7 S1 1.458224 1_555
O7 Rb0 3.051403 1_565
O7 Rb0 3.051407 1_665
O7 Rb0 3.051407 1_555
