# generated using pymatgen
data_Zn(Co2O3)2
_symmetry_space_group_name_H-M   'P 1'
_cell_length_a   5.13327517
_cell_length_b   5.13327517
_cell_length_c   14.99847400
_cell_angle_alpha   90.00000000
_cell_angle_beta   90.00000000
_cell_angle_gamma   146.67859517
_symmetry_Int_Tables_number   1
_chemical_formula_structural   Zn(Co2O3)2
_chemical_formula_sum   'Zn2 Co8 O12'
_cell_volume   217.10681401
_cell_formula_units_Z   2
loop_
 _symmetry_equiv_pos_site_id
 _symmetry_equiv_pos_as_xyz
  1  'x, y, z'
loop_
 _atom_site_type_symbol
 _atom_site_label
 _atom_site_symmetry_multiplicity
 _atom_site_fract_x
 _atom_site_fract_y
 _atom_site_fract_z
 _atom_site_occupancy
  Zn  Zn0  1  0.34405800  0.65594200  0.75000000  1
  Zn  Zn1  1  0.65594200  0.34405800  0.25000000  1
  Co  Co0  1  0.13749800  0.86250200  0.04487100  1
  Co  Co1  1  0.59596000  0.40404000  0.63780500  1
  Co  Co2  1  0.86250200  0.13749800  0.95512900  1
  Co  Co3  1  0.40404000  0.59596000  0.36219500  1
  Co  Co4  1  0.13749800  0.86250200  0.45512900  1
  Co  Co5  1  0.86250200  0.13749800  0.54487100  1
  Co  Co6  1  0.40404000  0.59596000  0.13780500  1
  Co  Co7  1  0.59596000  0.40404000  0.86219500  1
  O  O0  1  0.50000000  0.50000000  0.50000000  1
  O  O1  1  0.50000000  0.50000000  0.00000000  1
  O  O2  1  0.95133600  0.04866400  0.84142900  1
  O  O3  1  0.04866400  0.95133600  0.15857100  1
  O  O4  1  0.04866400  0.95133600  0.34142900  1
  O  O5  1  0.95133600  0.04866400  0.65857100  1
  O  O6  1  0.22168400  0.77831600  0.92553800  1
  O  O7  1  0.77831600  0.22168400  0.07446200  1
  O  O8  1  0.77831600  0.22168400  0.42553800  1
  O  O9  1  0.22168400  0.77831600  0.57446200  1
  O  O10  1  0.69693700  0.30306300  0.75000000  1
  O  O11  1  0.30306300  0.69693700  0.25000000  1
loop_
_geom_bond_atom_site_label_1
_geom_bond_atom_site_label_2
_geom_bond_distance
_geom_bond_site_symmetry_2
Co0 O3 1.916128 1_555
Co0 O6 1.972065 1_554
Co0 O7 2.069118 1_565
Co0 O7 2.069118 1_455
Co0 O1 2.108983 1_455
Co0 O1 2.108983 1_565
Co1 O10 1.953980 1_555
Co1 O5 2.070356 1_565
Co1 O5 2.070356 1_455
Co1 O9 2.144217 1_545
Co1 O9 2.144217 1_655
Co1 O0 2.272163 1_555
Co2 O2 1.916128 1_555
Co2 O7 1.972065 1_556
Co2 O6 2.069118 1_655
Co2 O6 2.069118 1_545
Co2 O1 2.108983 1_546
Co2 O1 2.108983 1_656
Co3 O11 1.953980 1_555
Co3 O4 2.070356 1_545
Co3 O4 2.070356 1_655
Co3 O8 2.144217 1_455
Co3 O8 2.144217 1_565
Co3 O0 2.272163 1_555
Co4 O4 1.916128 1_555
Co4 O9 1.972065 1_555
Co4 O8 2.069118 1_455
Co4 O8 2.069118 1_565
Co4 O0 2.108983 1_455
Co4 O0 2.108983 1_565
Co5 O5 1.916128 1_555
Co5 O8 1.972065 1_555
Co5 O9 2.069118 1_655
Co5 O9 2.069118 1_545
Co5 O0 2.108983 1_545
Co5 O0 2.108983 1_655
Co6 O11 1.953980 1_555
Co6 O3 2.070356 1_545
Co6 O3 2.070356 1_655
Co6 O7 2.144217 1_455
Co6 O7 2.144217 1_565
Co6 O1 2.272163 1_555
Co7 O10 1.953980 1_555
Co7 O2 2.070356 1_455
Co7 O2 2.070356 1_565
Co7 O6 2.144217 1_655
Co7 O6 2.144217 1_545
Co7 O1 2.272163 1_556
O2 Zn0 2.271509 1_655
O2 Zn0 2.271509 1_545
O3 Zn1 2.271509 1_565
O3 Zn1 2.271509 1_455
O4 Zn1 2.271509 1_565
O4 Zn1 2.271509 1_455
O5 Zn0 2.271509 1_655
O5 Zn0 2.271509 1_545
O10 Zn0 2.063938 1_655
O10 Zn0 2.063938 1_545
O11 Zn1 2.063938 1_565
O11 Zn1 2.063938 1_455
