# generated using pymatgen
data_CsLi(B3O5)2
_symmetry_space_group_name_H-M   'P 1'
_cell_length_a   9.25537400
_cell_length_b   10.54246800
_cell_length_c   10.56470500
_cell_angle_alpha   90.00000000
_cell_angle_beta   90.00000000
_cell_angle_gamma   90.00000000
_symmetry_Int_Tables_number   1
_chemical_formula_structural   CsLi(B3O5)2
_chemical_formula_sum   'Cs4 Li4 B24 O40'
_cell_volume   1030.84564134
_cell_formula_units_Z   4
loop_
 _symmetry_equiv_pos_site_id
 _symmetry_equiv_pos_as_xyz
  1  'x, y, z'
loop_
 _atom_site_type_symbol
 _atom_site_label
 _atom_site_symmetry_multiplicity
 _atom_site_fract_x
 _atom_site_fract_y
 _atom_site_fract_z
 _atom_site_occupancy
  Cs  Cs0  1  0.37691800  0.24720600  0.25270500  1
  Cs  Cs1  1  0.62308200  0.24720600  0.74729500  1
  Cs  Cs2  1  0.87691800  0.75279400  0.74729500  1
  Cs  Cs3  1  0.12308200  0.75279400  0.25270500  1
  Li  Li0  1  0.88094700  0.24908000  0.25097600  1
  Li  Li1  1  0.11905300  0.24908000  0.74902400  1
  Li  Li2  1  0.38094700  0.75092000  0.74902400  1
  Li  Li3  1  0.61905300  0.75092000  0.25097600  1
  B  B0  1  0.93542500  0.01836600  0.09986400  1
  B  B1  1  0.06457500  0.01836600  0.90013600  1
  B  B2  1  0.43542500  0.98163400  0.90013600  1
  B  B3  1  0.56457500  0.98163400  0.09986400  1
  B  B4  1  0.75000000  0.50000000  0.22806500  1
  B  B5  1  0.25000000  0.50000000  0.77193500  1
  B  B6  1  0.00000000  0.27149500  0.50000000  1
  B  B7  1  0.50000000  0.72850500  0.50000000  1
  B  B8  1  0.00000000  0.22795600  0.00000000  1
  B  B9  1  0.50000000  0.77204400  0.00000000  1
  B  B10  1  0.75000000  0.00000000  0.27084100  1
  B  B11  1  0.25000000  0.00000000  0.72915900  1
  B  B12  1  0.18477200  0.09993900  0.52039600  1
  B  B13  1  0.81522800  0.09993900  0.47960400  1
  B  B14  1  0.68477200  0.90006100  0.47960400  1
  B  B15  1  0.31522800  0.90006100  0.52039600  1
  B  B16  1  0.56451400  0.51929800  0.39965300  1
  B  B17  1  0.43548600  0.51929800  0.60034700  1
  B  B18  1  0.06451400  0.48070200  0.60034700  1
  B  B19  1  0.93548600  0.48070200  0.39965300  1
  B  B20  1  0.81466800  0.39978200  0.01952100  1
  B  B21  1  0.18533200  0.39978200  0.98047900  1
  B  B22  1  0.31466800  0.60021800  0.98047900  1
  B  B23  1  0.68533200  0.60021800  0.01952100  1
  O  O0  1  0.11674500  0.18991400  0.44971400  1
  O  O1  1  0.88325500  0.18991400  0.55028600  1
  O  O2  1  0.61674500  0.81008600  0.55028600  1
  O  O3  1  0.38325500  0.81008600  0.44971400  1
  O  O4  1  0.11686700  0.30911400  0.05063000  1
  O  O5  1  0.88313300  0.30911400  0.94937000  1
  O  O6  1  0.61686700  0.69088600  0.94937000  1
  O  O7  1  0.38313300  0.69088600  0.05063000  1
  O  O8  1  0.94781400  0.35092400  0.39399400  1
  O  O9  1  0.05218600  0.35092400  0.60600600  1
  O  O10  1  0.44781400  0.64907600  0.60600600  1
  O  O11  1  0.55218600  0.64907600  0.39399400  1
  O  O12  1  0.63292700  0.44944500  0.30958100  1
  O  O13  1  0.36707300  0.44944500  0.69041900  1
  O  O14  1  0.13292700  0.55055500  0.69041900  1
  O  O15  1  0.86707300  0.55055500  0.30958100  1
  O  O16  1  0.94803100  0.14800700  0.10603000  1
  O  O17  1  0.05196900  0.14800700  0.89397000  1
  O  O18  1  0.44803100  0.85199300  0.89397000  1
  O  O19  1  0.55196900  0.85199300  0.10603000  1
  O  O20  1  0.80417300  0.10579100  0.35031200  1
  O  O21  1  0.19582700  0.10579100  0.64968800  1
  O  O22  1  0.30417300  0.89420900  0.64968800  1
  O  O23  1  0.69582700  0.89420900  0.35031200  1
  O  O24  1  0.63343700  0.05145400  0.18999900  1
  O  O25  1  0.36656300  0.05145400  0.81000100  1
  O  O26  1  0.13343700  0.94854600  0.81000100  1
  O  O27  1  0.86656300  0.94854600  0.18999900  1
  O  O28  1  0.80365100  0.39386100  0.14891600  1
  O  O29  1  0.19634900  0.39386100  0.85108400  1
  O  O30  1  0.30365100  0.60613900  0.85108400  1
  O  O31  1  0.69634900  0.60613900  0.14891600  1
  O  O32  1  0.25000000  0.00000000  0.45389200  1
  O  O33  1  0.75000000  0.00000000  0.54610800  1
  O  O34  1  0.00000000  0.95141200  0.00000000  1
  O  O35  1  0.50000000  0.04858800  0.00000000  1
  O  O36  1  0.50000000  0.45271200  0.50000000  1
  O  O37  1  0.00000000  0.54728800  0.50000000  1
  O  O38  1  0.75000000  0.50000000  0.95294200  1
  O  O39  1  0.25000000  0.50000000  0.04705800  1
loop_
_geom_bond_atom_site_label_1
_geom_bond_atom_site_label_2
_geom_bond_distance
_geom_bond_site_symmetry_2
Cs0 O24 3.214730 1_555
Cs0 O0 3.239638 1_555
Cs0 O12 3.243645 1_555
Cs0 O4 3.282777 1_555
Cs0 O32 3.562247 1_555
Cs0 O35 3.579080 1_555
Cs0 O36 3.580123 1_555
Cs0 O39 3.633547 1_555
Cs1 O25 3.214730 1_555
Cs1 O1 3.239638 1_555
Cs1 O13 3.243645 1_555
Cs1 O5 3.282777 1_555
Cs1 O33 3.562247 1_555
Cs1 O35 3.579080 1_556
Cs1 O36 3.580123 1_555
Cs1 O38 3.633547 1_555
Cs2 O26 3.214730 1_655
Cs2 O2 3.239638 1_555
Cs2 O14 3.243645 1_655
Cs2 O6 3.282777 1_555
Cs2 O33 3.562247 1_565
Cs2 O34 3.579080 1_656
Cs2 O37 3.580123 1_655
Cs2 O38 3.633547 1_555
Cs3 O27 3.214730 1_455
Cs3 O3 3.239638 1_555
Cs3 O15 3.243645 1_455
Cs3 O7 3.282777 1_555
Cs3 O32 3.562247 1_565
Cs3 O34 3.579080 1_555
Cs3 O37 3.580123 1_555
Cs3 O39 3.633547 1_555
Li0 O8 1.954166 1_555
Li0 O16 1.966172 1_555
Li0 O20 1.971862 1_555
Li0 O28 2.001033 1_555
Li1 O9 1.954166 1_555
Li1 O17 1.966172 1_555
Li1 O21 1.971862 1_555
Li1 O29 2.001033 1_555
Li2 O10 1.954166 1_555
Li2 O18 1.966172 1_555
Li2 O22 1.971862 1_555
Li2 O30 2.001033 1_555
Li3 O11 1.954166 1_555
Li3 O19 1.966172 1_555
Li3 O23 1.971862 1_555
Li3 O31 2.001033 1_555
B0 O27 1.361908 1_545
B0 O16 1.373253 1_555
B0 O34 1.403046 1_645
B1 O26 1.361908 1_545
B1 O17 1.373253 1_555
B1 O34 1.403046 1_546
B2 O25 1.361908 1_565
B2 O18 1.373253 1_555
B2 O35 1.403046 1_566
B3 O24 1.361908 1_565
B3 O19 1.373253 1_555
B3 O35 1.403046 1_565
B4 O31 1.482520 1_555
B4 O28 1.482520 1_555
B4 O15 1.483174 1_555
B4 O12 1.483174 1_555
B5 O30 1.482520 1_555
B5 O29 1.482520 1_555
B5 O13 1.483174 1_555
B5 O14 1.483174 1_555
B6 O9 1.479431 1_555
B6 O8 1.479431 1_455
B6 O1 1.479684 1_455
B6 O0 1.479684 1_555
B7 O10 1.479431 1_555
B7 O11 1.479431 1_555
B7 O2 1.479684 1_555
B7 O3 1.479684 1_555
B8 O4 1.479233 1_555
B8 O5 1.479233 1_454
B8 O17 1.482080 1_554
B8 O16 1.482080 1_455
B9 O6 1.479233 1_554
B9 O7 1.479233 1_555
B9 O19 1.482080 1_555
B9 O18 1.482080 1_554
B10 O27 1.479046 1_545
B10 O24 1.479046 1_555
B10 O20 1.483304 1_555
B10 O23 1.483304 1_545
B11 O25 1.479046 1_555
B11 O26 1.479046 1_545
B11 O21 1.483304 1_555
B11 O22 1.483304 1_545
B12 O0 1.361540 1_555
B12 O21 1.371147 1_555
B12 O32 1.402920 1_555
B13 O1 1.361540 1_555
B13 O20 1.371147 1_555
B13 O33 1.402920 1_555
B14 O2 1.361540 1_555
B14 O23 1.371147 1_555
B14 O33 1.402920 1_565
B15 O3 1.361540 1_555
B15 O22 1.371147 1_555
B15 O32 1.402920 1_565
B16 O12 1.359690 1_555
B16 O11 1.374231 1_555
B16 O36 1.404705 1_555
B17 O13 1.359690 1_555
B17 O10 1.374231 1_555
B17 O36 1.404705 1_555
B18 O14 1.359690 1_555
B18 O9 1.374231 1_555
B18 O37 1.404705 1_555
B19 O15 1.359690 1_555
B19 O8 1.374231 1_555
B19 O37 1.404705 1_655
B20 O5 1.365459 1_554
B20 O28 1.372238 1_555
B20 O38 1.403309 1_554
B21 O4 1.365459 1_556
B21 O29 1.372238 1_555
B21 O39 1.403309 1_556
B22 O7 1.365459 1_556
B22 O30 1.372238 1_555
B22 O39 1.403309 1_556
B23 O6 1.365459 1_554
B23 O31 1.372238 1_555
B23 O38 1.403309 1_554
