# generated using pymatgen
data_Li7Mn2(CoO4)3
_symmetry_space_group_name_H-M   'P 1'
_cell_length_a   8.59656000
_cell_length_b   5.15784800
_cell_length_c   5.16334241
_cell_angle_alpha   68.31940743
_cell_angle_beta   90.00000000
_cell_angle_gamma   90.00000000
_symmetry_Int_Tables_number   1
_chemical_formula_structural   Li7Mn2(CoO4)3
_chemical_formula_sum   'Li7 Mn2 Co3 O12'
_cell_volume   212.74548938
_cell_formula_units_Z   1
loop_
 _symmetry_equiv_pos_site_id
 _symmetry_equiv_pos_as_xyz
  1  'x, y, z'
loop_
 _atom_site_type_symbol
 _atom_site_label
 _atom_site_symmetry_multiplicity
 _atom_site_fract_x
 _atom_site_fract_y
 _atom_site_fract_z
 _atom_site_occupancy
  Li  Li0  1  0.16767400  0.00000000  0.50000000  1
  Li  Li1  1  0.00000000  0.50000000  0.50000000  1
  Li  Li2  1  0.83232600  0.00000000  0.50000000  1
  Li  Li3  1  0.66331200  0.50000000  0.50000000  1
  Li  Li4  1  0.50000000  0.00000000  0.50000000  1
  Li  Li5  1  0.33668800  0.50000000  0.50000000  1
  Li  Li6  1  0.50000000  0.50000000  0.00000000  1
  Mn  Mn0  1  0.33342000  0.00000000  0.00000000  1
  Mn  Mn1  1  0.66658000  0.00000000  0.00000000  1
  Co  Co0  1  0.16797800  0.50000000  0.00000000  1
  Co  Co1  1  0.00000000  0.00000000  0.00000000  1
  Co  Co2  1  0.83202200  0.50000000  0.00000000  1
  O  O0  1  0.17156700  0.77035700  0.23826300  1
  O  O1  1  0.00000000  0.26694500  0.21620200  1
  O  O2  1  0.82843300  0.77035700  0.23826300  1
  O  O3  1  0.67662700  0.24583200  0.21116900  1
  O  O4  1  0.50000000  0.78310700  0.23499600  1
  O  O5  1  0.32337300  0.24583200  0.21116900  1
  O  O6  1  0.17156700  0.22964300  0.76173700  1
  O  O7  1  0.00000000  0.73305500  0.78379800  1
  O  O8  1  0.82843300  0.22964300  0.76173700  1
  O  O9  1  0.67662700  0.75416800  0.78883100  1
  O  O10  1  0.50000000  0.21689300  0.76500400  1
  O  O11  1  0.32337300  0.75416800  0.78883100  1
loop_
_geom_bond_atom_site_label_1
_geom_bond_atom_site_label_2
_geom_bond_distance
_geom_bond_site_symmetry_2
Li0 O11 2.055764 1_545
Li0 O5 2.055764 1_555
Li0 O6 2.100757 1_555
Li0 O0 2.100757 1_545
Li0 O7 2.151735 1_545
Li0 O1 2.151735 1_555
Li1 O0 2.133960 1_555
Li1 O8 2.133960 1_455
Li1 O6 2.133960 1_555
Li1 O2 2.133960 1_455
Li1 O1 2.212161 1_555
Li1 O7 2.212161 1_555
Li2 O3 2.055764 1_555
Li2 O9 2.055764 1_545
Li2 O8 2.100757 1_555
Li2 O2 2.100757 1_545
Li2 O7 2.151735 1_645
Li2 O1 2.151735 1_655
Li3 O8 2.096043 1_555
Li3 O2 2.096043 1_555
Li3 O4 2.121140 1_555
Li3 O10 2.121140 1_555
Li3 O9 2.323861 1_555
Li3 O3 2.323861 1_555
Li4 O4 2.062705 1_545
Li4 O10 2.062705 1_555
Li4 O5 2.177186 1_555
Li4 O3 2.177186 1_555
Li4 O9 2.177186 1_545
Li4 O11 2.177186 1_545
Li5 O0 2.096043 1_555
Li5 O6 2.096043 1_555
Li5 O10 2.121140 1_555
Li5 O4 2.121140 1_555
Li5 O11 2.323861 1_555
Li5 O5 2.323861 1_555
Li6 O11 2.038828 1_554
Li6 O9 2.038828 1_554
Li6 O5 2.038828 1_555
Li6 O3 2.038828 1_555
Li6 O10 2.216667 1_554
Li6 O4 2.216667 1_555
Mn0 O10 1.942031 1_554
Mn0 O4 1.942031 1_545
Mn0 O0 1.943120 1_545
Mn0 O6 1.943120 1_554
Mn0 O5 1.955893 1_555
Mn0 O11 1.955893 1_544
Mn1 O10 1.942031 1_554
Mn1 O4 1.942031 1_545
Mn1 O2 1.943120 1_545
Mn1 O8 1.943120 1_554
Mn1 O3 1.955893 1_555
Mn1 O9 1.955893 1_544
Co0 O5 1.906792 1_555
Co0 O11 1.906792 1_554
Co0 O1 1.945479 1_555
Co0 O7 1.945479 1_554
Co0 O6 2.174046 1_554
Co0 O0 2.174046 1_555
Co1 O6 2.003764 1_554
Co1 O0 2.003764 1_545
Co1 O8 2.003764 1_454
Co1 O2 2.003764 1_445
Co1 O1 2.068232 1_555
Co1 O7 2.068232 1_544
Co2 O9 1.906792 1_554
Co2 O3 1.906792 1_555
Co2 O1 1.945479 1_655
Co2 O7 1.945479 1_654
Co2 O8 2.174046 1_554
Co2 O2 2.174046 1_555
