# generated using pymatgen
data_SrNdMnO4
_symmetry_space_group_name_H-M   'P 1'
_cell_length_a   6.95734133
_cell_length_b   6.95734133
_cell_length_c   6.95734133
_cell_angle_alpha   147.81538889
_cell_angle_beta   147.81538889
_cell_angle_gamma   46.15796405
_symmetry_Int_Tables_number   1
_chemical_formula_structural   SrNdMnO4
_chemical_formula_sum   'Sr1 Nd1 Mn1 O4'
_cell_volume   95.21443656
_cell_formula_units_Z   1
loop_
 _symmetry_equiv_pos_site_id
 _symmetry_equiv_pos_as_xyz
  1  'x, y, z'
loop_
 _atom_site_type_symbol
 _atom_site_label
 _atom_site_symmetry_multiplicity
 _atom_site_fract_x
 _atom_site_fract_y
 _atom_site_fract_z
 _atom_site_occupancy
  Sr  Sr0  1  0.64530100  0.64530100  0.00000000  1
  Nd  Nd0  1  0.35856600  0.35856600  0.00000000  1
  Mn  Mn0  1  0.00272100  0.00272100  0.00000000  1
  O  O0  1  0.83268100  0.83268100  0.00000000  1
  O  O1  1  0.17726000  0.17726000  0.00000000  1
  O  O2  1  0.99173500  0.49173500  0.50000000  1
  O  O3  1  0.49173500  0.99173500  0.50000000  1
loop_
_geom_bond_atom_site_label_1
_geom_bond_atom_site_label_2
_geom_bond_distance
_geom_bond_site_symmetry_2
Nd0 O1 2.320903 1_555
Nd0 O2 2.573911 1_454
Nd0 O3 2.573911 1_544
Nd0 O3 2.573911 1_555
Nd0 O2 2.573911 1_555
Nd0 O0 2.747331 1_444
Nd0 O0 2.747331 1_545
Nd0 O0 2.747331 1_455
Nd0 O0 2.747331 1_556
Mn0 O2 1.933596 1_455
Mn0 O3 1.933596 1_545
Mn0 O2 1.933596 1_444
Mn0 O3 1.933596 1_444
Mn0 O0 2.176686 1_445
Mn0 O1 2.234278 1_555
O0 Sr0 2.398656 1_555
O1 Sr0 2.757789 1_556
O1 Sr0 2.757789 1_444
O1 Sr0 2.757789 1_545
O1 Sr0 2.757789 1_455
O2 Sr0 2.753796 1_656
O2 Sr0 2.753796 1_555
O3 Sr0 2.753796 1_566
O3 Sr0 2.753796 1_555
