# generated using pymatgen
data_Yb2(Ga3Ir)3
_symmetry_space_group_name_H-M   'P 1'
_cell_length_a   7.53873308
_cell_length_b   7.53873308
_cell_length_c   9.66136500
_cell_angle_alpha   90.00000000
_cell_angle_beta   90.00000000
_cell_angle_gamma   119.67120064
_symmetry_Int_Tables_number   1
_chemical_formula_structural   Yb2(Ga3Ir)3
_chemical_formula_sum   'Yb4 Ga18 Ir6'
_cell_volume   477.08443333
_cell_formula_units_Z   2
loop_
 _symmetry_equiv_pos_site_id
 _symmetry_equiv_pos_as_xyz
  1  'x, y, z'
loop_
 _atom_site_type_symbol
 _atom_site_label
 _atom_site_symmetry_multiplicity
 _atom_site_fract_x
 _atom_site_fract_y
 _atom_site_fract_z
 _atom_site_occupancy
  Yb  Yb0  1  0.99703900  0.66848600  0.25000000  1
  Yb  Yb1  1  0.00296100  0.33151400  0.75000000  1
  Yb  Yb2  1  0.66848600  0.99703900  0.25000000  1
  Yb  Yb3  1  0.33151400  0.00296100  0.75000000  1
  Ga  Ga0  1  0.12529700  0.12529700  0.25000000  1
  Ga  Ga1  1  0.87470300  0.87470300  0.75000000  1
  Ga  Ga2  1  0.00116000  0.33437700  0.07414400  1
  Ga  Ga3  1  0.99884000  0.66562300  0.92585600  1
  Ga  Ga4  1  0.99884000  0.66562300  0.57414400  1
  Ga  Ga5  1  0.33437700  0.00116000  0.42585600  1
  Ga  Ga6  1  0.00116000  0.33437700  0.42585600  1
  Ga  Ga7  1  0.66562300  0.99884000  0.57414400  1
  Ga  Ga8  1  0.66562300  0.99884000  0.92585600  1
  Ga  Ga9  1  0.33437700  0.00116000  0.07414400  1
  Ga  Ga10  1  0.33415000  0.33415000  0.55936800  1
  Ga  Ga11  1  0.66585000  0.66585000  0.44063200  1
  Ga  Ga12  1  0.66585000  0.66585000  0.05936800  1
  Ga  Ga13  1  0.33415000  0.33415000  0.94063200  1
  Ga  Ga14  1  0.33573400  0.54614500  0.25000000  1
  Ga  Ga15  1  0.66426600  0.45385500  0.75000000  1
  Ga  Ga16  1  0.54614500  0.33573400  0.25000000  1
  Ga  Ga17  1  0.45385500  0.66426600  0.75000000  1
  Ir  Ir0  1  0.67203800  0.32796200  0.00000000  1
  Ir  Ir1  1  0.32796200  0.67203800  0.00000000  1
  Ir  Ir2  1  0.32796200  0.67203800  0.50000000  1
  Ir  Ir3  1  0.67203800  0.32796200  0.50000000  1
  Ir  Ir4  1  0.00000000  0.00000000  0.00000000  1
  Ir  Ir5  1  0.00000000  0.00000000  0.50000000  1
loop_
_geom_bond_atom_site_label_1
_geom_bond_atom_site_label_2
_geom_bond_distance
_geom_bond_site_symmetry_2
Ga0 Ir5 2.595186 1_555
Ga0 Ir4 2.595186 1_555
Ga0 Ga14 2.756709 1_555
Ga0 Ga16 2.756709 1_555
Ga0 Ga6 2.776184 1_555
Ga0 Ga9 2.776184 1_555
Ga0 Ga2 2.776184 1_555
Ga0 Ga5 2.776184 1_555
Ga0 Yb0 3.081858 1_445
Ga0 Yb2 3.081858 1_445
Ga1 Ir4 2.595186 1_666
Ga1 Ir5 2.595186 1_665
Ga1 Ga15 2.756709 1_555
Ga1 Ga17 2.756709 1_555
Ga1 Ga3 2.776184 1_555
Ga1 Ga7 2.776184 1_555
Ga1 Ga4 2.776184 1_555
Ga1 Ga8 2.776184 1_555
Ga1 Yb3 3.081858 1_665
Ga1 Yb1 3.081858 1_665
Ga2 Ir0 2.559852 1_455
Ga2 Ir4 2.616431 1_555
Ga2 Ir1 2.617946 1_555
Ga2 Ga3 2.886513 1_454
Ga2 Ga8 2.918000 1_444
Ga2 Yb0 3.051100 1_455
Ga2 Yb2 3.054392 1_445
Ga2 Yb1 3.131824 1_554
Ga3 Ir1 2.559852 1_656
Ga3 Ir4 2.616431 1_666
Ga3 Ir0 2.617946 1_556
Ga3 Ga9 2.918000 1_666
Ga3 Yb1 3.051100 1_655
Ga3 Yb3 3.054392 1_665
Ga3 Yb0 3.131824 1_556
Ga4 Ir2 2.559852 1_655
Ga4 Ir5 2.616431 1_665
Ga4 Ir3 2.617946 1_555
Ga4 Ga6 2.886513 1_655
Ga4 Ga5 2.918000 1_665
Ga4 Yb1 3.051100 1_655
Ga4 Yb3 3.054392 1_665
Ga4 Yb0 3.131824 1_555
Ga5 Ir2 2.559852 1_545
Ga5 Ir5 2.616431 1_555
Ga5 Ir3 2.617946 1_555
Ga5 Ga7 2.886513 1_545
Ga5 Yb2 3.051100 1_545
Ga5 Yb0 3.054392 1_445
Ga5 Yb3 3.131824 1_555
Ga6 Ir3 2.559852 1_455
Ga6 Ir5 2.616431 1_555
Ga6 Ir2 2.617946 1_555
Ga6 Ga7 2.918000 1_445
Ga6 Yb0 3.051100 1_455
Ga6 Yb2 3.054392 1_445
Ga6 Yb1 3.131824 1_555
Ga7 Ir3 2.559852 1_565
Ga7 Ir5 2.616431 1_665
Ga7 Ir2 2.617946 1_555
Ga7 Yb3 3.051100 1_565
Ga7 Yb1 3.054392 1_665
Ga7 Yb2 3.131824 1_555
Ga8 Ir0 2.559852 1_566
Ga8 Ir4 2.616431 1_666
Ga8 Ir1 2.617946 1_556
Ga8 Ga9 2.886513 1_566
Ga8 Yb3 3.051100 1_565
Ga8 Yb1 3.054392 1_665
Ga8 Yb2 3.131824 1_556
Ga9 Ir1 2.559852 1_545
Ga9 Ir4 2.616431 1_555
Ga9 Ir0 2.617946 1_555
Ga9 Yb2 3.051100 1_545
Ga9 Yb0 3.054392 1_445
Ga9 Yb3 3.131824 1_554
Ga10 Ir5 2.595741 1_555
Ga10 Ir3 2.633872 1_555
Ga10 Ir2 2.633872 1_555
Ga10 Ga11 2.762463 1_555
Ga10 Ga5 2.823090 1_555
Ga10 Ga6 2.823090 1_555
Ga10 Ga17 2.859443 1_555
Ga10 Ga15 2.859443 1_555
Ga10 Yb3 3.094691 1_555
Ga10 Yb1 3.094691 1_555
Ga11 Ir5 2.595741 1_665
Ga11 Ir2 2.633872 1_555
Ga11 Ir3 2.633872 1_555
Ga11 Ga4 2.823090 1_555
Ga11 Ga7 2.823090 1_555
Ga11 Ga16 2.859443 1_555
Ga11 Ga14 2.859443 1_555
Ga11 Yb0 3.094691 1_555
Ga11 Yb2 3.094691 1_555
Ga12 Ir4 2.595741 1_665
Ga12 Ir1 2.633872 1_555
Ga12 Ir0 2.633872 1_555
Ga12 Ga13 2.762463 1_554
Ga12 Ga3 2.823090 1_554
Ga12 Ga8 2.823090 1_554
Ga12 Ga16 2.859443 1_555
Ga12 Ga14 2.859443 1_555
Ga12 Yb2 3.094691 1_555
Ga12 Yb0 3.094691 1_555
Ga13 Ir4 2.595741 1_556
Ga13 Ir0 2.633872 1_556
Ga13 Ir1 2.633872 1_556
Ga13 Ga9 2.823090 1_556
Ga13 Ga2 2.823090 1_556
Ga13 Ga17 2.859443 1_555
Ga13 Ga15 2.859443 1_555
Ga13 Yb3 3.094691 1_555
Ga13 Yb1 3.094691 1_555
Ga14 Ir1 2.606358 1_555
Ga14 Ir2 2.606358 1_555
Ga14 Ga16 2.742872 1_555
Ga14 Ga2 2.794733 1_555
Ga14 Ga6 2.794733 1_555
Ga14 Yb2 3.066765 1_555
Ga14 Yb0 3.114741 1_455
Ga15 Ir0 2.606358 1_556
Ga15 Ir3 2.606358 1_555
Ga15 Ga17 2.742872 1_555
Ga15 Ga3 2.794733 1_555
Ga15 Ga4 2.794733 1_555
Ga15 Yb3 3.066765 1_555
Ga15 Yb1 3.114741 1_655
Ga16 Ir0 2.606358 1_555
Ga16 Ir3 2.606358 1_555
Ga16 Ga5 2.794733 1_555
Ga16 Ga9 2.794733 1_555
Ga16 Yb0 3.066765 1_555
Ga16 Yb2 3.114741 1_545
Ga17 Ir1 2.606358 1_556
Ga17 Ir2 2.606358 1_555
Ga17 Ga7 2.794733 1_555
Ga17 Ga8 2.794733 1_555
Ga17 Yb1 3.066765 1_555
Ga17 Yb3 3.114741 1_565
