# generated using pymatgen
data_Y5(Co2Ge5)2
_symmetry_space_group_name_H-M   'P 1'
_cell_length_a   4.19982979
_cell_length_b   12.79766466
_cell_length_c   12.79766466
_cell_angle_alpha   90.00000000
_cell_angle_beta   90.00000000
_cell_angle_gamma   90.00000000
_symmetry_Int_Tables_number   1
_chemical_formula_structural   Y5(Co2Ge5)2
_chemical_formula_sum   'Y10 Co8 Ge20'
_cell_volume   687.84905012
_cell_formula_units_Z   2
loop_
 _symmetry_equiv_pos_site_id
 _symmetry_equiv_pos_as_xyz
  1  'x, y, z'
loop_
 _atom_site_type_symbol
 _atom_site_label
 _atom_site_symmetry_multiplicity
 _atom_site_fract_x
 _atom_site_fract_y
 _atom_site_fract_z
 _atom_site_occupancy
  Y  Y0  1  0.50000000  0.61190317  0.11190317  1
  Y  Y1  1  0.50000000  0.38809683  0.88809683  1
  Y  Y2  1  0.50000000  0.88809683  0.61190317  1
  Y  Y3  1  0.50000000  0.11190317  0.38809683  1
  Y  Y4  1  0.50000000  0.17734092  0.67734092  1
  Y  Y5  1  0.50000000  0.82265908  0.32265908  1
  Y  Y6  1  0.50000000  0.32265908  0.17734092  1
  Y  Y7  1  0.50000000  0.67734092  0.82265908  1
  Y  Y8  1  0.00000000  0.00000000  0.00000000  1
  Y  Y9  1  0.00000000  0.50000000  0.50000000  1
  Co  Co0  1  0.00000000  0.24475509  0.02550054  1
  Co  Co1  1  -0.00000000  0.75524491  0.97449946  1
  Co  Co2  1  0.00000000  0.97449946  0.24475509  1
  Co  Co3  1  -0.00000000  0.25524491  0.52550054  1
  Co  Co4  1  -0.00000000  0.02550054  0.75524491  1
  Co  Co5  1  0.00000000  0.74475509  0.47449946  1
  Co  Co6  1  -0.00000000  0.52550054  0.74475509  1
  Co  Co7  1  0.00000000  0.47449946  0.25524491  1
  Ge  Ge0  1  -0.00000000  0.06861043  0.56861043  1
  Ge  Ge1  1  0.00000000  0.93138957  0.43138957  1
  Ge  Ge2  1  0.00000000  0.43138957  0.06861043  1
  Ge  Ge3  1  -0.00000000  0.56861043  0.93138957  1
  Ge  Ge4  1  0.00000000  0.15481778  0.19786475  1
  Ge  Ge5  1  -0.00000000  0.84518222  0.80213525  1
  Ge  Ge6  1  0.00000000  0.80213525  0.15481778  1
  Ge  Ge7  1  -0.00000000  0.34518222  0.69786475  1
  Ge  Ge8  1  -0.00000000  0.19786475  0.84518222  1
  Ge  Ge9  1  0.00000000  0.65481778  0.30213525  1
  Ge  Ge10  1  -0.00000000  0.69786475  0.65481778  1
  Ge  Ge11  1  0.00000000  0.30213525  0.34518222  1
  Ge  Ge12  1  0.50000000  0.16702669  0.00372275  1
  Ge  Ge13  1  0.50000000  0.83297331  0.99627725  1
  Ge  Ge14  1  0.50000000  0.99627725  0.16702669  1
  Ge  Ge15  1  0.50000000  0.33297331  0.50372275  1
  Ge  Ge16  1  0.50000000  0.00372275  0.83297331  1
  Ge  Ge17  1  0.50000000  0.66702669  0.49627725  1
  Ge  Ge18  1  0.50000000  0.50372275  0.66702669  1
  Ge  Ge19  1  0.50000000  0.49627725  0.33297331  1
loop_
_geom_bond_atom_site_label_1
_geom_bond_atom_site_label_2
_geom_bond_distance
_geom_bond_site_symmetry_2
Co0 Ge12 2.340263 1_555
Co0 Ge12 2.340263 1_455
Co0 Ge8 2.384401 1_554
Co0 Ge2 2.451376 1_555
Co0 Ge4 2.488089 1_555
Co0 Y6 3.029796 1_455
Co0 Y6 3.029796 1_555
Co0 Y8 3.149248 1_555
Co0 Y1 3.296505 1_554
Co0 Y1 3.296505 1_454
Co1 Ge13 2.340263 1_455
Co1 Ge13 2.340263 1_555
Co1 Ge6 2.384401 1_556
Co1 Ge3 2.451376 1_555
Co1 Ge5 2.488089 1_555
Co1 Y7 3.029796 1_455
Co1 Y7 3.029796 1_555
Co1 Y8 3.149248 1_566
Co1 Y0 3.296505 1_556
Co1 Y0 3.296505 1_456
Co2 Ge14 2.340263 1_455
Co2 Ge14 2.340263 1_555
Co2 Ge4 2.384401 1_565
Co2 Ge1 2.451376 1_555
Co2 Ge6 2.488089 1_555
Co2 Y5 3.029796 1_555
Co2 Y5 3.029796 1_455
Co2 Y8 3.149248 1_565
Co2 Y3 3.296505 1_565
Co2 Y3 3.296505 1_465
Co3 Ge15 2.340263 1_455
Co3 Ge15 2.340263 1_555
Co3 Ge11 2.384401 1_555
Co3 Ge0 2.451376 1_555
Co3 Ge7 2.488089 1_555
Co3 Y4 3.029796 1_455
Co3 Y4 3.029796 1_555
Co3 Y9 3.149248 1_555
Co3 Y3 3.296505 1_455
Co3 Y3 3.296505 1_555
Co4 Ge16 2.340263 1_555
Co4 Ge16 2.340263 1_455
Co4 Ge5 2.384401 1_545
Co4 Ge0 2.451376 1_555
Co4 Ge8 2.488089 1_555
Co4 Y4 3.029796 1_455
Co4 Y4 3.029796 1_555
Co4 Y8 3.149248 1_556
Co4 Y2 3.296505 1_445
Co4 Y2 3.296505 1_545
Co5 Ge17 2.340263 1_555
Co5 Ge17 2.340263 1_455
Co5 Ge10 2.384401 1_555
Co5 Ge1 2.451376 1_555
Co5 Ge9 2.488089 1_555
Co5 Y5 3.029796 1_555
Co5 Y5 3.029796 1_455
Co5 Y9 3.149248 1_555
Co5 Y2 3.296505 1_455
Co5 Y2 3.296505 1_555
Co6 Ge18 2.340263 1_455
Co6 Ge18 2.340263 1_555
Co6 Ge7 2.384401 1_555
Co6 Ge3 2.451376 1_555
Co6 Ge10 2.488089 1_555
Co6 Y7 3.029796 1_555
Co6 Y7 3.029796 1_455
Co6 Y9 3.149248 1_555
Co6 Y1 3.296505 1_555
Co6 Y1 3.296505 1_455
Co7 Ge19 2.340263 1_555
Co7 Ge19 2.340263 1_455
Co7 Ge9 2.384401 1_555
Co7 Ge2 2.451376 1_555
Co7 Ge11 2.488089 1_555
Co7 Y6 3.029796 1_455
Co7 Y6 3.029796 1_555
Co7 Y9 3.149248 1_555
Co7 Y0 3.296505 1_455
Co7 Y0 3.296505 1_555
Ge0 Ge1 2.483510 1_545
Ge0 Y4 2.877875 1_455
Ge0 Y4 2.877875 1_555
Ge0 Y3 3.170712 1_555
Ge0 Y3 3.170712 1_455
Ge0 Y2 3.170712 1_545
Ge0 Y2 3.170712 1_445
Ge1 Y5 2.877875 1_455
Ge1 Y5 2.877875 1_555
Ge1 Y3 3.170712 1_465
Ge1 Y3 3.170712 1_565
Ge1 Y2 3.170712 1_455
Ge1 Y2 3.170712 1_555
Ge2 Ge3 2.483510 1_554
Ge2 Y6 2.877875 1_455
Ge2 Y6 2.877875 1_555
Ge2 Y1 3.170712 1_454
Ge2 Y0 3.170712 1_455
Ge2 Y0 3.170712 1_555
Ge2 Y1 3.170712 1_554
Ge3 Y7 2.877875 1_555
Ge3 Y7 2.877875 1_455
Ge3 Y0 3.170712 1_556
Ge3 Y0 3.170712 1_456
Ge3 Y1 3.170712 1_455
Ge3 Y1 3.170712 1_555
Ge4 Y6 3.015366 1_555
Ge4 Y6 3.015366 1_455
Ge4 Y8 3.215221 1_555
Ge4 Y3 3.261624 1_455
Ge4 Y3 3.261624 1_555
Ge5 Y7 3.015366 1_555
Ge5 Y7 3.015366 1_455
Ge5 Y8 3.215221 1_566
Ge5 Y2 3.261624 1_455
Ge5 Y2 3.261624 1_555
Ge6 Ge9 2.666245 1_555
Ge6 Y5 3.015366 1_555
Ge6 Y5 3.015366 1_455
Ge6 Y8 3.215221 1_565
Ge6 Y0 3.261624 1_455
Ge6 Y0 3.261624 1_555
Ge7 Ge8 2.666245 1_555
Ge7 Y4 3.015366 1_555
Ge7 Y4 3.015366 1_455
Ge7 Y9 3.215221 1_555
Ge7 Y1 3.261624 1_455
Ge7 Y1 3.261624 1_555
Ge8 Y4 3.015366 1_555
Ge8 Y4 3.015366 1_455
Ge8 Y8 3.215221 1_556
Ge8 Y1 3.261624 1_555
Ge8 Y1 3.261624 1_455
Ge9 Y5 3.015366 1_455
Ge9 Y5 3.015366 1_555
Ge9 Y9 3.215221 1_555
Ge9 Y0 3.261624 1_555
Ge9 Y0 3.261624 1_455
Ge10 Ge5 2.666245 1_555
Ge10 Ge17 2.946528 1_455
Ge10 Ge17 2.946528 1_555
Ge10 Y7 3.015366 1_555
Ge10 Y7 3.015366 1_455
Ge10 Y9 3.215221 1_555
Ge10 Y2 3.261624 1_455
Ge10 Y2 3.261624 1_555
Ge11 Ge4 2.666245 1_555
Ge11 Ge15 2.946528 1_455
Ge11 Ge15 2.946528 1_555
Ge11 Y6 3.015366 1_455
Ge11 Y6 3.015366 1_555
Ge11 Y9 3.215221 1_555
Ge11 Y3 3.261624 1_555
Ge11 Y3 3.261624 1_455
Ge12 Ge8 2.946528 1_554
Ge12 Ge8 2.946528 1_654
Ge12 Y6 2.983934 1_555
Ge12 Y8 2.996838 1_655
Ge12 Y8 2.996838 1_555
Ge12 Y1 3.192789 1_554
Ge13 Ge6 2.946528 1_656
Ge13 Ge6 2.946528 1_556
Ge13 Y7 2.983934 1_555
Ge13 Y8 2.996838 1_666
Ge13 Y8 2.996838 1_566
Ge13 Y0 3.192789 1_556
Ge14 Ge4 2.946528 1_665
Ge14 Ge4 2.946528 1_565
Ge14 Y5 2.983934 1_555
Ge14 Y8 2.996838 1_665
Ge14 Y8 2.996838 1_565
Ge14 Y3 3.192789 1_565
Ge15 Y4 2.983934 1_555
Ge15 Y9 2.996838 1_555
Ge15 Y9 2.996838 1_655
Ge15 Y3 3.192789 1_555
Ge16 Ge5 2.946528 1_545
Ge16 Ge5 2.946528 1_645
Ge16 Y4 2.983934 1_555
Ge16 Y8 2.996838 1_556
Ge16 Y8 2.996838 1_656
Ge16 Y2 3.192789 1_545
Ge17 Y5 2.983934 1_555
Ge17 Y9 2.996838 1_555
Ge17 Y9 2.996838 1_655
Ge17 Y2 3.192789 1_555
Ge18 Ge7 2.946528 1_555
Ge18 Ge7 2.946528 1_655
Ge18 Y7 2.983934 1_555
Ge18 Y9 2.996838 1_555
Ge18 Y9 2.996838 1_655
Ge18 Y1 3.192789 1_555
Ge19 Ge9 2.946528 1_655
Ge19 Ge9 2.946528 1_555
Ge19 Y6 2.983934 1_555
Ge19 Y9 2.996838 1_555
Ge19 Y9 2.996838 1_655
Ge19 Y0 3.192789 1_555
