# generated using pymatgen
data_SiO2
_symmetry_space_group_name_H-M   'P 1'
_cell_length_a   10.21297744
_cell_length_b   10.21297744
_cell_length_c   10.21297744
_cell_angle_alpha   139.18807675
_cell_angle_beta   139.18807675
_cell_angle_gamma   59.08818889
_symmetry_Int_Tables_number   1
_chemical_formula_structural   SiO2
_chemical_formula_sum   'Si8 O16'
_cell_volume   450.66383563
_cell_formula_units_Z   8
loop_
 _symmetry_equiv_pos_site_id
 _symmetry_equiv_pos_as_xyz
  1  'x, y, z'
loop_
 _atom_site_type_symbol
 _atom_site_label
 _atom_site_symmetry_multiplicity
 _atom_site_fract_x
 _atom_site_fract_y
 _atom_site_fract_z
 _atom_site_occupancy
  Si  Si0  1  0.43412618  0.21450231  0.21962387  1
  Si  Si1  1  0.96450231  0.24487845  0.28037613  1
  Si  Si2  1  0.96450231  0.68412618  0.71962387  1
  Si  Si3  1  0.31587382  0.03549769  0.28037613  1
  Si  Si4  1  0.75512155  0.03549769  0.71962387  1
  Si  Si5  1  0.99487845  0.21450231  0.78037613  1
  Si  Si6  1  0.78549769  0.00512155  0.21962387  1
  Si  Si7  1  0.78549769  0.56587382  0.78037613  1
  O  O0  1  0.23405218  0.23405218  -0.00000000  1
  O  O1  1  0.98405218  0.48405218  0.50000000  1
  O  O2  1  0.51594782  0.01594782  0.50000000  1
  O  O3  1  0.76594782  0.76594782  -0.00000000  1
  O  O4  1  0.56432960  0.06432960  0.12866119  1
  O  O5  1  0.81432960  0.18567040  -0.00000000  1
  O  O6  1  0.18567040  0.81432960  0.00000000  1
  O  O7  1  0.93567040  0.43567040  0.87133881  1
  O  O8  1  0.18567040  0.18567040  0.37133881  1
  O  O9  1  0.93567040  0.06432960  0.50000000  1
  O  O10  1  0.56432960  0.43567040  0.50000000  1
  O  O11  1  0.81432960  0.81432960  0.62866119  1
  O  O12  1  0.37500000  0.12500000  0.25000000  1
  O  O13  1  0.87500000  0.12500000  0.25000000  1
  O  O14  1  0.87500000  0.62500000  0.75000000  1
  O  O15  1  0.87500000  0.12500000  0.75000000  1
loop_
_geom_bond_atom_site_label_1
_geom_bond_atom_site_label_2
_geom_bond_distance
_geom_bond_site_symmetry_2
O0 Si5 1.602257 1_454
O0 Si0 1.602257 1_555
O1 Si1 1.602257 1_555
O1 Si2 1.602257 1_555
O2 Si4 1.602257 1_555
O2 Si3 1.602257 1_555
O3 Si6 1.602257 1_565
O3 Si7 1.602257 1_554
O4 Si0 1.612872 1_555
O4 Si6 1.612886 1_555
O5 Si1 1.612881 1_555
O5 Si4 1.612881 1_554
O6 Si2 1.612882 1_454
O6 Si3 1.612882 1_565
O7 Si7 1.612872 1_555
O7 Si5 1.612886 1_555
O8 Si3 1.612872 1_555
O8 Si1 1.612886 1_455
O9 Si5 1.612881 1_555
O9 Si6 1.612881 1_555
O10 Si0 1.612882 1_555
O10 Si7 1.612882 1_555
O11 Si2 1.612872 1_555
O11 Si4 1.612886 1_565
O12 Si3 1.605111 1_555
O12 Si0 1.605111 1_555
O13 Si6 1.605111 1_555
O13 Si1 1.605111 1_555
O14 Si2 1.605111 1_555
O14 Si7 1.605111 1_555
O15 Si5 1.605111 1_555
O15 Si4 1.605111 1_555
