# generated using pymatgen
data_K2W2O5
_symmetry_space_group_name_H-M   'P 1'
_cell_length_a   9.05731998
_cell_length_b   9.05731998
_cell_length_c   9.05731998
_cell_angle_alpha   141.96936923
_cell_angle_beta   141.62260601
_cell_angle_gamma   55.13673115
_symmetry_Int_Tables_number   1
_chemical_formula_structural   K2W2O5
_chemical_formula_sum   'K4 W4 O10'
_cell_volume   282.14381826
_cell_formula_units_Z   2
loop_
 _symmetry_equiv_pos_site_id
 _symmetry_equiv_pos_as_xyz
  1  'x, y, z'
loop_
 _atom_site_type_symbol
 _atom_site_label
 _atom_site_symmetry_multiplicity
 _atom_site_fract_x
 _atom_site_fract_y
 _atom_site_fract_z
 _atom_site_occupancy
  K  K0  1  0.87370300  0.39125700  0.47884900  1
  K  K1  1  0.12629700  0.60514600  0.51755400  1
  K  K2  1  0.41240800  0.89125700  0.51755400  1
  K  K3  1  0.58759200  0.10514600  0.47884900  1
  W  W0  1  0.00000000  0.98388000  0.98388000  1
  W  W1  1  0.50000000  0.48388000  0.98388000  1
  W  W2  1  0.81210700  0.80404500  0.11615300  1
  W  W3  1  0.18789300  0.30404500  0.99193800  1
  O  O0  1  0.75689800  0.74675200  0.48620700  1
  O  O1  1  0.24310200  0.72930800  0.98985400  1
  O  O2  1  0.76054500  0.24675200  0.98985400  1
  O  O3  1  0.23945500  0.22930800  0.48620700  1
  O  O4  1  0.82410200  0.84204600  0.93999100  1
  O  O5  1  0.17589800  0.11588900  0.01794400  1
  O  O6  1  0.40205500  0.34204600  0.01794400  1
  O  O7  1  0.59794500  0.61588900  0.93999100  1
  O  O8  1  0.89945700  0.11767600  0.51713300  1
  O  O9  1  0.10054300  0.61767600  0.21822000  1
loop_
_geom_bond_atom_site_label_1
_geom_bond_atom_site_label_2
_geom_bond_distance
_geom_bond_site_symmetry_2
K0 O8 2.623100 1_555
K0 O1 2.664237 1_655
K0 O6 2.675780 1_555
K0 O0 2.714622 1_555
K0 O3 2.717138 1_655
K0 O2 2.768365 1_554
K0 O4 2.880454 1_555
K0 O4 3.104360 1_544
K1 O9 2.623091 1_555
K1 O0 2.664242 1_455
K1 O7 2.675780 1_555
K1 O1 2.714628 1_555
K1 O2 2.717140 1_454
K1 O3 2.768374 1_555
K1 O5 2.880454 1_566
K1 O5 3.104360 1_555
K2 O9 2.623105 1_555
K2 O3 2.664234 1_565
K2 O4 2.675780 1_555
K2 O2 2.714622 1_565
K2 O1 2.717135 1_554
K2 O0 2.768365 1_555
K2 O6 2.880454 1_566
K2 O6 3.104360 1_555
K3 O8 2.623100 1_555
K3 O2 2.664242 1_555
K3 O5 2.675780 1_555
K3 O3 2.714625 1_555
K3 O0 2.717140 1_545
K3 O1 2.768371 1_544
K3 O7 2.880454 1_555
K3 O7 3.104360 1_544
O0 W0 2.091204 1_655
O0 W1 2.110231 1_554
O1 W0 2.091208 1_555
O1 W1 2.110227 1_555
O2 W1 2.091204 1_555
O2 W0 2.110231 1_645
O3 W1 2.091204 1_555
O3 W0 2.110231 1_544
O4 W2 1.963604 1_556
O4 W0 2.211073 1_655
O5 W3 1.963595 1_554
O5 W0 2.211073 1_544
O6 W3 1.963595 1_554
O6 W1 2.211073 1_554
O7 W2 1.963589 1_556
O7 W1 2.211073 1_555
O8 W2 1.922758 1_545
O8 W3 2.039400 1_655
O9 W3 1.922764 1_554
O9 W2 2.039400 1_455
