# generated using pymatgen
data_Li2V(CO3)2
_symmetry_space_group_name_H-M   'P 1'
_cell_length_a   4.89951800
_cell_length_b   9.76633317
_cell_length_c   11.57636956
_cell_angle_alpha   74.92607939
_cell_angle_beta   89.99998437
_cell_angle_gamma   90.00023610
_symmetry_Int_Tables_number   1
_chemical_formula_structural   Li2V(CO3)2
_chemical_formula_sum   'Li8 V4 C8 O24'
_cell_volume   534.87282361
_cell_formula_units_Z   4
loop_
 _symmetry_equiv_pos_site_id
 _symmetry_equiv_pos_as_xyz
  1  'x, y, z'
loop_
 _atom_site_type_symbol
 _atom_site_label
 _atom_site_symmetry_multiplicity
 _atom_site_fract_x
 _atom_site_fract_y
 _atom_site_fract_z
 _atom_site_occupancy
  Li  Li0  1  0.53145800  0.51365100  0.42940700  1
  Li  Li1  1  0.53137700  0.01359100  0.92937800  1
  Li  Li2  1  0.03146500  0.48636200  0.57058900  1
  Li  Li3  1  0.03138100  0.98642100  0.07061600  1
  Li  Li4  1  0.96434200  0.60177600  0.05318500  1
  Li  Li5  1  0.96429700  0.10167100  0.55324700  1
  Li  Li6  1  0.46433800  0.39821700  0.94681300  1
  Li  Li7  1  0.46430700  0.89833000  0.44675200  1
  V  V0  1  0.50567900  0.90202000  0.69383100  1
  V  V1  1  0.00566900  0.09798000  0.30615200  1
  V  V2  1  0.50590700  0.40229200  0.19370500  1
  V  V3  1  0.00595900  0.59767400  0.80630800  1
  C  C0  1  0.02578600  0.51496900  0.31103500  1
  C  C1  1  0.02565600  0.01480800  0.81102400  1
  C  C2  1  0.52581800  0.48504000  0.68896200  1
  C  C3  1  0.52567300  0.98519200  0.18896900  1
  C  C4  1  0.46834700  0.67105100  0.93209700  1
  C  C5  1  0.46829300  0.17107900  0.43209500  1
  C  C6  1  0.96832700  0.32894700  0.06790800  1
  C  C7  1  0.96830100  0.82891500  0.56791000  1
  O  O0  1  0.91339800  0.51683600  0.41113500  1
  O  O1  1  0.91337500  0.01669400  0.91116200  1
  O  O2  1  0.41341500  0.48317500  0.58886400  1
  O  O3  1  0.41338100  0.98331600  0.08883500  1
  O  O4  1  0.29057600  0.51689100  0.30055100  1
  O  O5  1  0.29044800  0.01672900  0.80052400  1
  O  O6  1  0.79058900  0.48312100  0.69945400  1
  O  O7  1  0.79044900  0.98327200  0.19947200  1
  O  O8  1  0.87782100  0.51417500  0.21793600  1
  O  O9  1  0.87764100  0.01402800  0.71799500  1
  O  O10  1  0.37782200  0.48582800  0.78206400  1
  O  O11  1  0.37764100  0.98596500  0.28200800  1
  O  O12  1  0.56623100  0.57712000  0.02332300  1
  O  O13  1  0.56617000  0.07712500  0.52324000  1
  O  O14  1  0.06622900  0.42287800  0.97668300  1
  O  O15  1  0.06617500  0.92286700  0.47676000  1
  O  O16  1  0.13333500  0.27206100  0.15593800  1
  O  O17  1  0.13320200  0.77194400  0.65595800  1
  O  O18  1  0.63334900  0.72793600  0.84406500  1
  O  O19  1  0.63320900  0.22805700  0.34404300  1
  O  O20  1  0.21267900  0.70527600  0.92692200  1
  O  O21  1  0.21268900  0.20533600  0.42695300  1
  O  O22  1  0.71266800  0.29473100  0.07308500  1
  O  O23  1  0.71268900  0.79466100  0.57304800  1
loop_
_geom_bond_atom_site_label_1
_geom_bond_atom_site_label_2
_geom_bond_distance
_geom_bond_site_symmetry_2
Li0 O0 1.882587 1_555
Li0 O2 1.882758 1_555
Li0 O4 1.895906 1_555
Li1 O1 1.882809 1_555
Li1 O3 1.882879 1_546
Li1 O5 1.896219 1_555
Li2 O2 1.882639 1_555
Li2 O0 1.882765 1_455
Li2 O6 1.895967 1_455
Li3 O3 1.882823 1_555
Li3 O1 1.882864 1_464
Li3 O7 1.896225 1_455
Li4 O8 1.923651 1_555
Li4 O20 1.967273 1_654
Li4 O12 2.006349 1_555
Li4 O14 2.211551 1_654
Li5 O9 1.923843 1_555
Li5 O21 1.968176 1_655
Li5 O13 2.006590 1_555
Li5 O15 2.210615 1_645
Li6 O10 1.923645 1_555
Li6 O22 1.967277 1_556
Li6 O14 2.006368 1_555
Li6 O12 2.211655 1_556
Li7 O11 1.923800 1_555
Li7 O23 1.968178 1_555
Li7 O15 2.006604 1_555
Li7 O13 2.210524 1_565
C0 O0 1.287377 1_455
C0 O8 1.300581 1_455
C0 O4 1.302688 1_555
C1 O1 1.287596 1_455
C1 O9 1.300015 1_455
C1 O5 1.302715 1_555
C2 O2 1.287383 1_555
C2 O10 1.300682 1_555
C2 O6 1.302604 1_555
C3 O3 1.287554 1_555
C3 O11 1.300142 1_555
C3 O7 1.302640 1_555
C4 O20 1.293845 1_555
C4 O12 1.297279 1_556
C4 O18 1.306242 1_555
C5 O21 1.293626 1_555
C5 O13 1.296787 1_555
C5 O19 1.306338 1_555
C6 O22 1.293777 1_555
C6 O14 1.297302 1_654
C6 O16 1.306250 1_655
C7 O23 1.293655 1_555
C7 O15 1.296806 1_655
C7 O17 1.306250 1_655
O4 V2 2.148404 1_555
O5 V0 2.147625 1_545
O6 V3 2.148258 1_655
O7 V1 2.147481 1_665
O8 V2 2.180015 1_555
O9 V0 2.180664 1_545
O10 V3 2.179659 1_555
O11 V1 2.180689 1_565
O12 V2 2.267461 1_555
O13 V0 2.270624 1_545
O14 V3 2.267210 1_555
O15 V1 2.270809 1_565
O16 V1 2.183543 1_555
O16 V2 2.330280 1_555
O17 V3 2.184941 1_555
O17 V0 2.329420 1_555
O18 V0 2.183707 1_555
O18 V3 2.330576 1_655
O19 V2 2.184750 1_555
O19 V1 2.329438 1_655
O20 V3 2.200664 1_555
O21 V1 2.201442 1_555
O22 V2 2.200556 1_555
O23 V0 2.201283 1_555
