# generated using pymatgen
data_Ba2LiLaCu3O7
_symmetry_space_group_name_H-M   'P 1'
_cell_length_a   4.00581603
_cell_length_b   4.00587137
_cell_length_c   12.88061264
_cell_angle_alpha   84.75073888
_cell_angle_beta   95.24865708
_cell_angle_gamma   91.54160648
_symmetry_Int_Tables_number   1
_chemical_formula_structural   Ba2LiLaCu3O7
_chemical_formula_sum   'Ba2 Li1 La1 Cu3 O7'
_cell_volume   204.92674645
_cell_formula_units_Z   1
loop_
 _symmetry_equiv_pos_site_id
 _symmetry_equiv_pos_as_xyz
  1  'x, y, z'
loop_
 _atom_site_type_symbol
 _atom_site_label
 _atom_site_symmetry_multiplicity
 _atom_site_fract_x
 _atom_site_fract_y
 _atom_site_fract_z
 _atom_site_occupancy
  Ba  Ba0  1  0.41550300  0.58448600  0.87241800  1
  Ba  Ba1  1  0.49557700  0.50443200  0.17036100  1
  Li  Li0  1  0.16821700  0.83177000  0.58723100  1
  La  La0  1  0.58357200  0.41643300  0.46631900  1
  Cu  Cu0  1  0.85576000  0.14420400  0.68517300  1
  Cu  Cu1  1  0.03720100  0.96282800  0.33005000  1
  Cu  Cu2  1  0.95477900  0.04522000  0.01713600  1
  O  O0  1  0.64894100  0.88424400  0.57611800  1
  O  O1  1  0.11574400  0.35104100  0.57612400  1
  O  O2  1  0.53727200  0.96173900  0.33350600  1
  O  O3  1  0.03828100  0.46275500  0.33351100  1
  O  O4  1  0.95736200  0.54301900  0.02700000  1
  O  O5  1  0.45698100  0.04264300  0.02699900  1
  O  O6  1  0.88481000  0.11518600  0.82605700  1
loop_
_geom_bond_atom_site_label_1
_geom_bond_atom_site_label_2
_geom_bond_distance
_geom_bond_site_symmetry_2
Ba0 O5 2.805614 1_556
Ba0 O4 2.805660 1_556
Ba0 O4 2.819895 1_456
Ba0 O5 2.819963 1_566
Ba0 O6 2.833027 1_555
Ba0 O6 2.858011 1_455
Ba0 O6 2.858044 1_565
Ba0 O6 3.028863 1_465
Ba1 O4 2.705430 1_455
Ba1 O5 2.705434 1_565
Ba1 O4 2.722671 1_555
Ba1 O5 2.722724 1_555
Ba1 O2 2.879118 1_545
Ba1 O3 2.879184 1_655
Ba1 O3 2.902303 1_555
Ba1 O2 2.902314 1_555
Li0 O0 1.948361 1_555
Li0 O1 1.948397 1_555
Li0 O0 2.086896 1_455
Li0 O1 2.086905 1_565
La0 O0 2.443642 1_555
La0 O1 2.443716 1_555
La0 O1 2.454413 1_655
La0 O0 2.454436 1_545
La0 O3 2.602374 1_655
La0 O2 2.602408 1_545
La0 O3 2.648048 1_555
La0 O2 2.648137 1_555
Cu0 O6 1.800995 1_555
Cu0 O0 1.937088 1_545
Cu0 O1 1.937095 1_655
Cu1 O2 1.999725 1_555
Cu1 O3 1.999755 1_555
Cu1 O2 2.007064 1_455
Cu1 O3 2.007093 1_565
Cu2 O5 2.004350 1_655
Cu2 O4 2.004372 1_545
Cu2 O5 2.009386 1_555
Cu2 O4 2.009420 1_555
Cu2 O6 2.442639 1_554
