# generated using pymatgen
data_Yb5Se7
_symmetry_space_group_name_H-M   'P 1'
_cell_length_a   7.82297855
_cell_length_b   7.82297855
_cell_length_c   11.77883842
_cell_angle_alpha   64.02848343
_cell_angle_beta   64.02848343
_cell_angle_gamma   31.04630332
_symmetry_Int_Tables_number   1
_chemical_formula_structural   Yb5Se7
_chemical_formula_sum   'Yb5 Se7'
_cell_volume   331.14868765
_cell_formula_units_Z   1
loop_
 _symmetry_equiv_pos_site_id
 _symmetry_equiv_pos_as_xyz
  1  'x, y, z'
loop_
 _atom_site_type_symbol
 _atom_site_label
 _atom_site_symmetry_multiplicity
 _atom_site_fract_x
 _atom_site_fract_y
 _atom_site_fract_z
 _atom_site_occupancy
  Yb  Yb0  1  0.91405500  0.91405500  0.90424000  1
  Yb  Yb1  1  0.08594500  0.08594500  0.09576000  1
  Yb  Yb2  1  0.68032800  0.68032800  0.73810200  1
  Yb  Yb3  1  0.31967200  0.31967200  0.26189800  1
  Yb  Yb4  1  0.00000000  0.00000000  0.50000000  1
  Se  Se0  1  0.28662800  0.28662800  0.85924600  1
  Se  Se1  1  0.71337200  0.71337200  0.14075400  1
  Se  Se2  1  0.91644100  0.91644100  0.33118800  1
  Se  Se3  1  0.08355900  0.08355900  0.66881200  1
  Se  Se4  1  0.34348600  0.34348600  0.62841100  1
  Se  Se5  1  0.65651400  0.65651400  0.37158900  1
  Se  Se6  1  0.50000000  0.50000000  0.00000000  1
loop_
_geom_bond_atom_site_label_1
_geom_bond_atom_site_label_2
_geom_bond_distance
_geom_bond_site_symmetry_2
Se0 Se4 2.451326 1_555
Se0 Yb1 3.041782 1_556
Se0 Yb0 3.046290 1_455
Se0 Yb0 3.046290 1_545
Se0 Yb2 3.326573 1_545
Se0 Yb2 3.326573 1_455
Se1 Se5 2.451326 1_555
Se1 Yb0 3.041782 1_554
Se1 Yb1 3.046290 1_565
Se1 Yb1 3.046290 1_655
Se1 Yb3 3.326573 1_655
Se1 Yb3 3.326573 1_565
Se2 Yb1 2.788952 1_665
Se2 Yb4 2.795956 1_665
Se2 Yb3 2.874002 1_565
Se2 Yb3 2.874002 1_655
Se3 Yb0 2.788952 1_445
Se3 Yb4 2.795956 1_555
Se3 Yb2 2.874002 1_455
Se3 Yb2 2.874002 1_545
Se4 Yb4 2.999036 1_655
Se4 Yb4 2.999036 1_565
Se4 Yb2 3.035421 1_545
Se4 Yb2 3.035421 1_455
Se5 Yb4 2.999036 1_565
Se5 Yb4 2.999036 1_655
Se5 Yb3 3.035421 1_565
Se5 Yb3 3.035421 1_655
Se6 Yb1 2.943250 1_565
Se6 Yb0 2.943250 1_544
Se6 Yb1 2.943250 1_655
Se6 Yb0 2.943250 1_454
Se6 Yb3 3.046874 1_555
Se6 Yb2 3.046874 1_554
