# generated using pymatgen
data_TeW2Se2S
_symmetry_space_group_name_H-M   'P 1'
_cell_length_a   3.34299560
_cell_length_b   3.34299560
_cell_length_c   38.19164900
_cell_angle_alpha   90.00000000
_cell_angle_beta   90.00000000
_cell_angle_gamma   119.99999210
_symmetry_Int_Tables_number   1
_chemical_formula_structural   TeW2Se2S
_chemical_formula_sum   'Te2 W4 Se4 S2'
_cell_volume   369.63295716
_cell_formula_units_Z   2
loop_
 _symmetry_equiv_pos_site_id
 _symmetry_equiv_pos_as_xyz
  1  'x, y, z'
loop_
 _atom_site_type_symbol
 _atom_site_label
 _atom_site_symmetry_multiplicity
 _atom_site_fract_x
 _atom_site_fract_y
 _atom_site_fract_z
 _atom_site_occupancy
  Te  Te0  1  0.33333300  0.66666700  0.41967200  1
  Te  Te1  1  0.33333300  0.66666700  0.51958500  1
  W  W0  1  0.00000000  0.00000000  0.09390700  1
  W  W1  1  0.00000000  0.00000000  0.46962400  1
  W  W2  1  0.33333300  0.66666700  0.28176600  1
  W  W3  1  0.33333300  0.66666700  0.65761700  1
  Se  Se0  1  0.00000000  0.00000000  0.70151000  1
  Se  Se1  1  0.33333300  0.66666700  0.04998900  1
  Se  Se2  1  0.33333300  0.66666700  0.13782800  1
  Se  Se3  1  0.00000000  0.00000000  0.61368300  1
  S  S0  1  0.00000000  0.00000000  0.32162700  1
  S  S1  1  0.00000000  0.00000000  0.24194100  1
loop_
_geom_bond_atom_site_label_1
_geom_bond_atom_site_label_2
_geom_bond_distance
_geom_bond_site_symmetry_2
Te0 W1 2.713799 1_565
Te0 W1 2.713801 1_665
Te0 W1 2.713801 1_555
Te1 W1 2.714041 1_565
Te1 W1 2.714043 1_665
Te1 W1 2.714043 1_555
Se0 W3 2.556430 1_545
Se0 W3 2.556432 1_445
Se0 W3 2.556432 1_555
Se1 W0 2.557056 1_565
Se1 W0 2.557059 1_665
Se1 W0 2.557059 1_555
Se2 W0 2.557131 1_565
Se2 W0 2.557134 1_555
Se2 W0 2.557134 1_665
Se3 W3 2.557457 1_545
Se3 W3 2.557460 1_445
Se3 W3 2.557460 1_555
S0 W2 2.458205 1_545
S0 W2 2.458207 1_445
S0 W2 2.458207 1_555
S1 W2 2.457354 1_545
S1 W2 2.457356 1_555
S1 W2 2.457356 1_445
