# generated using pymatgen
data_Sr(BN)2
_symmetry_space_group_name_H-M   'P 1'
_cell_length_a   4.01983681
_cell_length_b   4.01983681
_cell_length_c   6.70335424
_cell_angle_alpha   80.74421791
_cell_angle_beta   80.74421791
_cell_angle_gamma   61.13184016
_symmetry_Int_Tables_number   1
_chemical_formula_structural   Sr(BN)2
_chemical_formula_sum   'Sr1 B2 N2'
_cell_volume   93.18977414
_cell_formula_units_Z   1
loop_
 _symmetry_equiv_pos_site_id
 _symmetry_equiv_pos_as_xyz
  1  'x, y, z'
loop_
 _atom_site_type_symbol
 _atom_site_label
 _atom_site_symmetry_multiplicity
 _atom_site_fract_x
 _atom_site_fract_y
 _atom_site_fract_z
 _atom_site_occupancy
  Sr  Sr0  1  0.50000000  0.50000000  0.00000000  1
  B  B0  1  0.94625900  0.94625900  0.61829900  1
  B  B1  1  0.05374100  0.05374100  0.38170100  1
  N  N0  1  0.86654700  0.86654700  0.80621000  1
  N  N1  1  0.13345300  0.13345300  0.19379000  1
loop_
_geom_bond_atom_site_label_1
_geom_bond_atom_site_label_2
_geom_bond_distance
_geom_bond_site_symmetry_2
B0 N0 1.277298 1_555
B1 N1 1.277298 1_555
N0 Sr0 2.625755 1_556
N0 Sr0 2.677331 1_656
N0 Sr0 2.677331 1_566
N1 Sr0 2.625755 1_555
N1 Sr0 2.677331 1_455
N1 Sr0 2.677331 1_545
