# generated using pymatgen
data_LiZn(SbO2)4
_symmetry_space_group_name_H-M   'P 1'
_cell_length_a   3.46483983
_cell_length_b   8.80902848
_cell_length_c   10.85725111
_cell_angle_alpha   51.63161062
_cell_angle_beta   60.83691552
_cell_angle_gamma   64.96894344
_symmetry_Int_Tables_number   1
_chemical_formula_structural   LiZn(SbO2)4
_chemical_formula_sum   'Li1 Zn1 Sb4 O8'
_cell_volume   223.33157277
_cell_formula_units_Z   1
loop_
 _symmetry_equiv_pos_site_id
 _symmetry_equiv_pos_as_xyz
  1  'x, y, z'
loop_
 _atom_site_type_symbol
 _atom_site_label
 _atom_site_symmetry_multiplicity
 _atom_site_fract_x
 _atom_site_fract_y
 _atom_site_fract_z
 _atom_site_occupancy
  Li  Li0  1  0.58702400  0.53274500  0.48716100  1
  Zn  Zn0  1  0.21086200  0.09312300  0.17783400  1
  Sb  Sb0  1  0.45283400  0.22648600  0.51277500  1
  Sb  Sb1  1  0.13871300  0.74350000  0.14751300  1
  Sb  Sb2  1  0.89889100  0.38228100  0.85747700  1
  Sb  Sb3  1  0.41397600  0.83144300  0.55550500  1
  O  O0  1  0.78997300  0.68990300  0.71620600  1
  O  O1  1  0.58849300  0.38535200  0.71437300  1
  O  O2  1  0.44063500  0.74585100  0.27388800  1
  O  O3  1  0.11054700  0.43866300  0.34423200  1
  O  O4  1  0.07196800  0.01496500  0.63808100  1
  O  O5  1  0.89406800  0.04497100  0.09083000  1
  O  O6  1  0.85083200  0.06352500  0.40047600  1
  O  O7  1  0.17934800  0.38116300  0.99243900  1
loop_
_geom_bond_atom_site_label_1
_geom_bond_atom_site_label_2
_geom_bond_distance
_geom_bond_site_symmetry_2
Li0 O1 1.949814 1_555
Li0 O3 1.991585 1_655
Li0 O2 2.021311 1_555
Li0 Sb0 2.752439 1_555
Li0 Sb3 2.913541 1_555
O0 Sb2 2.092163 1_555
O0 Sb3 2.106209 1_555
O0 Sb3 2.275393 1_655
O1 Sb2 2.123265 1_455
O1 Sb2 2.263439 1_555
O2 Sb1 2.104731 1_555
O2 Sb1 2.119385 1_655
O2 Zn0 2.422269 1_565
O3 Sb0 2.059576 1_555
O3 Sb1 2.163507 1_555
O3 Sb0 2.707295 1_455
O4 Sb3 1.991073 1_545
O4 Sb0 2.061127 1_555
O4 Sb0 2.497911 1_455
O5 Zn0 2.035755 1_555
O5 Zn0 2.044255 1_655
O5 Sb1 2.173566 1_645
O5 Sb2 2.429683 1_554
O6 Zn0 2.005327 1_655
O6 Sb0 2.075575 1_555
O6 Sb3 2.273223 1_545
O6 Sb3 2.524520 1_645
O7 Zn0 2.034958 1_556
O7 Sb2 2.110270 1_455
O7 Sb2 2.192098 1_555
