# generated using pymatgen
data_SrCaLaBiO6
_symmetry_space_group_name_H-M   'P 1'
_cell_length_a   8.49613528
_cell_length_b   8.54182870
_cell_length_c   8.55583854
_cell_angle_alpha   90.00000000
_cell_angle_beta   90.00000000
_cell_angle_gamma   90.00000000
_symmetry_Int_Tables_number   1
_chemical_formula_structural   SrCaLaBiO6
_chemical_formula_sum   'Sr4 Ca4 La4 Bi4 O24'
_cell_volume   620.91886772
_cell_formula_units_Z   4
loop_
 _symmetry_equiv_pos_site_id
 _symmetry_equiv_pos_as_xyz
  1  'x, y, z'
loop_
 _atom_site_type_symbol
 _atom_site_label
 _atom_site_symmetry_multiplicity
 _atom_site_fract_x
 _atom_site_fract_y
 _atom_site_fract_z
 _atom_site_occupancy
  Sr  Sr0  1  0.50000000  -0.00000000  0.50000000  1
  Sr  Sr1  1  0.50000000  0.50000000  0.00000000  1
  Sr  Sr2  1  0.00000000  0.50000000  0.00000000  1
  Sr  Sr3  1  -0.00000000  0.00000000  0.50000000  1
  Ca  Ca0  1  0.25000000  0.25000000  0.25000000  1
  Ca  Ca1  1  0.75000000  0.75000000  0.25000000  1
  Ca  Ca2  1  0.75000000  0.25000000  0.75000000  1
  Ca  Ca3  1  0.25000000  0.75000000  0.75000000  1
  La  La0  1  0.00000000  0.50000000  0.50000000  1
  La  La1  1  0.50000000  -0.00000000  0.00000000  1
  La  La2  1  0.00000000  0.00000000  0.00000000  1
  La  La3  1  0.50000000  0.50000000  0.50000000  1
  Bi  Bi0  1  0.75000000  0.75000000  0.75000000  1
  Bi  Bi1  1  0.25000000  0.25000000  0.75000000  1
  Bi  Bi2  1  0.25000000  0.75000000  0.25000000  1
  Bi  Bi3  1  0.75000000  0.25000000  0.25000000  1
  O  O0  1  0.98987237  0.19592063  0.28419513  1
  O  O1  1  0.01012763  0.80407937  0.28419513  1
  O  O2  1  0.01012763  0.19592063  0.71580487  1
  O  O3  1  0.98987237  0.80407937  0.71580487  1
  O  O4  1  0.29061538  0.99094844  0.18772168  1
  O  O5  1  0.29061538  0.00905156  0.81227832  1
  O  O6  1  0.70938462  0.00905156  0.18772168  1
  O  O7  1  0.70938462  0.99094844  0.81227832  1
  O  O8  1  0.19679523  0.28135819  0.98911884  1
  O  O9  1  0.80320477  0.28135819  0.01088116  1
  O  O10  1  0.19679523  0.71864181  0.01088116  1
  O  O11  1  0.80320477  0.71864181  0.98911884  1
  O  O12  1  0.51012763  0.30407937  0.21580487  1
  O  O13  1  0.48987237  0.69592063  0.21580487  1
  O  O14  1  0.48987237  0.30407937  0.78419513  1
  O  O15  1  0.51012763  0.69592063  0.78419513  1
  O  O16  1  0.20938462  0.50905156  0.31227832  1
  O  O17  1  0.20938462  0.49094844  0.68772168  1
  O  O18  1  0.79061538  0.49094844  0.31227832  1
  O  O19  1  0.79061538  0.50905156  0.68772168  1
  O  O20  1  0.30320477  0.21864181  0.51088116  1
  O  O21  1  0.69679523  0.21864181  0.48911884  1
  O  O22  1  0.30320477  0.78135819  0.48911884  1
  O  O23  1  0.69679523  0.78135819  0.51088116  1
loop_
_geom_bond_atom_site_label_1
_geom_bond_atom_site_label_2
_geom_bond_distance
_geom_bond_site_symmetry_2
Ca0 O0 2.276715 1_455
Ca0 O12 2.276715 1_555
Ca0 O20 2.293068 1_555
Ca0 O8 2.293068 1_554
Ca0 O4 2.302035 1_545
Ca0 O16 2.302035 1_555
Ca1 O1 2.276715 1_655
Ca1 O13 2.276715 1_555
Ca1 O11 2.293068 1_554
Ca1 O23 2.293068 1_555
Ca1 O18 2.302035 1_555
Ca1 O6 2.302035 1_565
Ca2 O2 2.276715 1_655
Ca2 O14 2.276715 1_555
Ca2 O21 2.293068 1_555
Ca2 O9 2.293068 1_556
Ca2 O19 2.302035 1_555
Ca2 O7 2.302035 1_545
Ca3 O15 2.276715 1_555
Ca3 O3 2.276715 1_455
Ca3 O22 2.293068 1_555
Ca3 O10 2.293068 1_556
Ca3 O17 2.302035 1_555
Ca3 O5 2.302035 1_565
La0 O16 2.397976 1_555
La0 O18 2.397976 1_455
La0 O19 2.397976 1_455
La0 O17 2.397976 1_555
La1 O6 2.397976 1_555
La1 O4 2.397976 1_545
La1 O7 2.397976 1_544
La1 O5 2.397976 1_554
La2 O11 2.929192 1_444
La2 O10 2.929192 1_545
La2 O9 2.929192 1_455
La2 O8 2.929192 1_554
La2 O6 2.946537 1_455
La2 O5 2.946537 1_554
La2 O7 2.946537 1_444
La2 O4 2.946537 1_545
La2 O3 2.953033 1_444
La2 O2 2.953033 1_554
La2 O0 2.953033 1_455
La2 O1 2.953033 1_545
La3 O22 2.929192 1_555
La3 O23 2.929192 1_555
La3 O20 2.929192 1_555
La3 O21 2.929192 1_555
La3 O19 2.946537 1_555
La3 O16 2.946537 1_555
La3 O17 2.946537 1_555
La3 O18 2.946537 1_555
La3 O14 2.953033 1_555
La3 O12 2.953033 1_555
La3 O13 2.953033 1_555
La3 O15 2.953033 1_555
Bi0 O15 2.110066 1_555
Bi0 O3 2.110066 1_555
Bi0 O23 2.112258 1_555
Bi0 O11 2.112258 1_555
Bi0 O7 2.153820 1_555
Bi0 O19 2.153820 1_555
Bi1 O2 2.110066 1_555
Bi1 O14 2.110066 1_555
Bi1 O20 2.112258 1_555
Bi1 O8 2.112258 1_555
Bi1 O5 2.153820 1_555
Bi1 O17 2.153820 1_555
Bi2 O13 2.110066 1_555
Bi2 O1 2.110066 1_555
Bi2 O10 2.112258 1_555
Bi2 O22 2.112258 1_555
Bi2 O4 2.153820 1_555
Bi2 O16 2.153820 1_555
Bi3 O12 2.110066 1_555
Bi3 O0 2.110066 1_555
Bi3 O9 2.112258 1_555
Bi3 O21 2.112258 1_555
Bi3 O6 2.153820 1_555
Bi3 O18 2.153820 1_555
O0 Sr3 2.493439 1_655
O1 Sr3 2.493439 1_565
O2 Sr3 2.493439 1_555
O3 Sr3 2.493439 1_665
O8 Sr2 2.508422 1_556
O9 Sr2 2.508422 1_655
O10 Sr2 2.508422 1_555
O11 Sr2 2.508422 1_656
O12 Sr1 2.493439 1_555
O13 Sr1 2.493439 1_555
O14 Sr1 2.493439 1_556
O15 Sr1 2.493439 1_556
O20 Sr0 2.508422 1_555
O21 Sr0 2.508422 1_555
O22 Sr0 2.508422 1_565
O23 Sr0 2.508422 1_565
