# generated using pymatgen
data_Li3TiN2
_symmetry_space_group_name_H-M   'P 1'
_cell_length_a   8.44588292
_cell_length_b   9.75246480
_cell_length_c   9.75246520
_cell_angle_alpha   89.99999524
_cell_angle_beta   125.26438640
_cell_angle_gamma   54.73561197
_symmetry_Int_Tables_number   1
_chemical_formula_structural   Li3TiN2
_chemical_formula_sum   'Li24 Ti8 N16'
_cell_volume   463.78131430
_cell_formula_units_Z   8
loop_
 _symmetry_equiv_pos_site_id
 _symmetry_equiv_pos_as_xyz
  1  'x, y, z'
loop_
 _atom_site_type_symbol
 _atom_site_label
 _atom_site_symmetry_multiplicity
 _atom_site_fract_x
 _atom_site_fract_y
 _atom_site_fract_z
 _atom_site_occupancy
  Li  Li0  1  0.21912185  0.04634936  0.99384024  1
  Li  Li1  1  0.78087815  0.76547020  0.50615976  1
  Li  Li2  1  0.78087815  0.45365064  0.77471939  1
  Li  Li3  1  0.21912185  0.73452980  0.72528061  1
  Li  Li4  1  0.23144036  0.77471939  0.27162996  1
  Li  Li5  1  0.76855964  0.72528061  0.04018960  1
  Li  Li6  1  0.23144036  0.99384024  0.45981040  1
  Li  Li7  1  0.76855964  0.50615976  0.22837004  1
  Li  Li8  1  0.68818044  0.04018960  0.73452980  1
  Li  Li9  1  0.68818044  0.27162996  0.45365064  1
  Li  Li10  1  0.31181956  0.22837004  0.76547020  1
  Li  Li11  1  0.31181956  0.45981040  0.04634936  1
  Li  Li12  1  0.78087815  0.95365064  0.00615976  1
  Li  Li13  1  0.21912185  0.23452980  0.49384024  1
  Li  Li14  1  0.21912185  0.54634936  0.22528061  1
  Li  Li15  1  0.78087815  0.26547020  0.27471939  1
  Li  Li16  1  0.76855964  0.22528061  0.72837004  1
  Li  Li17  1  0.23144036  0.27471939  0.95981040  1
  Li  Li18  1  0.76855964  0.00615976  0.54018960  1
  Li  Li19  1  0.23144036  0.49384024  0.77162996  1
  Li  Li20  1  0.31181956  0.95981040  0.26547020  1
  Li  Li21  1  0.31181956  0.72837004  0.54634936  1
  Li  Li22  1  0.68818044  0.77162996  0.23452980  1
  Li  Li23  1  0.68818044  0.54018960  0.95365064  1
  Ti  Ti0  1  0.23487528  -0.00000000  0.73487528  1
  Ti  Ti1  1  0.76512472  0.73487528  0.76512472  1
  Ti  Ti2  1  0.76512472  0.50000000  0.50000000  1
  Ti  Ti3  1  0.23487528  0.76512472  -0.00000000  1
  Ti  Ti4  1  0.76512472  0.00000000  0.26512472  1
  Ti  Ti5  1  0.23487528  0.26512472  0.23487528  1
  Ti  Ti6  1  0.23487528  0.50000000  0.50000000  1
  Ti  Ti7  1  0.76512472  0.23487528  0.00000000  1
  N  N0  1  -0.00000000  0.00000000  0.50000000  1
  N  N1  1  -0.00000000  0.50000000  -0.00000000  1
  N  N2  1  -0.00000000  0.50000000  0.50000000  1
  N  N3  1  -0.00000000  0.00000000  -0.00000000  1
  N  N4  1  0.50000000  0.97619448  0.75000000  1
  N  N5  1  0.50000000  0.52380552  0.25000000  1
  N  N6  1  0.00000000  0.25000000  0.72619448  1
  N  N7  1  -0.00000000  0.75000000  0.77380552  1
  N  N8  1  0.54761105  0.72619448  0.52380552  1
  N  N9  1  0.45238895  0.77380552  0.97619448  1
  N  N10  1  0.50000000  0.02380552  0.25000000  1
  N  N11  1  0.50000000  0.47619448  0.75000000  1
  N  N12  1  -0.00000000  0.75000000  0.27380552  1
  N  N13  1  0.00000000  0.25000000  0.22619448  1
  N  N14  1  0.45238895  0.27380552  0.47619448  1
  N  N15  1  0.54761105  0.22619448  0.02380552  1
loop_
_geom_bond_atom_site_label_1
_geom_bond_atom_site_label_2
_geom_bond_distance
_geom_bond_site_symmetry_2
Li0 N6 2.088196 1_555
Li0 N10 2.114592 1_556
Li0 N3 2.174229 1_556
Li0 N9 2.306666 1_545
Li1 N7 2.088200 1_655
Li1 N10 2.114597 1_565
Li1 N2 2.174222 1_655
Li1 N8 2.306659 1_555
Li2 N6 2.088203 1_655
Li2 N11 2.114587 1_555
Li2 N1 2.174224 1_656
Li2 N8 2.306671 1_555
Li3 N7 2.088207 1_555
Li3 N11 2.114592 1_555
Li3 N0 2.174217 1_565
Li3 N9 2.306665 1_555
Li4 N8 2.088199 1_555
Li4 N12 2.114595 1_555
Li4 N3 2.174220 1_565
Li4 N5 2.306668 1_555
Li5 N9 2.088199 1_554
Li5 N12 2.114595 1_655
Li5 N1 2.174220 1_655
Li5 N4 2.306668 1_554
Li6 N8 2.088199 1_555
Li6 N13 2.114595 1_565
Li6 N0 2.174220 1_565
Li6 N4 2.306668 1_555
Li7 N9 2.088199 1_554
Li7 N13 2.114595 1_655
Li7 N2 2.174220 1_655
Li7 N5 2.306668 1_555
Li8 N4 2.088199 1_545
Li8 N14 2.114595 1_555
Li8 N3 2.174220 1_656
Li8 N7 2.306668 1_645
Li9 N5 2.088199 1_555
Li9 N14 2.114596 1_555
Li9 N0 2.174220 1_655
Li9 N6 2.306668 1_655
Li10 N4 2.088199 1_545
Li10 N15 2.114596 1_556
Li10 N2 2.174220 1_555
Li10 N6 2.306668 1_555
Li11 N5 2.088199 1_555
Li11 N15 2.114595 1_555
Li11 N1 2.174220 1_555
Li11 N7 2.306668 1_554
Li12 N12 2.088196 1_655
Li12 N4 2.114592 1_554
Li12 N3 2.174229 1_665
Li12 N15 2.306666 1_565
Li13 N13 2.088200 1_555
Li13 N4 2.114597 1_545
Li13 N2 2.174222 1_555
Li13 N14 2.306659 1_555
Li14 N12 2.088203 1_555
Li14 N5 2.114587 1_555
Li14 N1 2.174224 1_555
Li14 N14 2.306671 1_555
Li15 N13 2.088207 1_655
Li15 N5 2.114592 1_555
Li15 N0 2.174217 1_655
Li15 N15 2.306665 1_555
Li16 N14 2.088199 1_555
Li16 N6 2.114595 1_655
Li16 N3 2.174220 1_656
Li16 N11 2.306668 1_555
Li17 N15 2.088199 1_556
Li17 N6 2.114595 1_555
Li17 N1 2.174220 1_556
Li17 N10 2.306668 1_556
Li18 N14 2.088199 1_555
Li18 N7 2.114595 1_645
Li18 N0 2.174220 1_655
Li18 N10 2.306668 1_555
Li19 N15 2.088199 1_556
Li19 N7 2.114595 1_555
Li19 N2 2.174220 1_555
Li19 N11 2.306668 1_555
Li20 N10 2.088199 1_565
Li20 N8 2.114595 1_555
Li20 N3 2.174220 1_565
Li20 N13 2.306668 1_565
Li21 N11 2.088199 1_555
Li21 N8 2.114596 1_555
Li21 N0 2.174220 1_565
Li21 N12 2.306668 1_555
Li22 N10 2.088199 1_565
Li22 N9 2.114596 1_554
Li22 N2 2.174220 1_655
Li22 N12 2.306668 1_655
Li23 N11 2.088199 1_555
Li23 N9 2.114595 1_555
Li23 N1 2.174220 1_656
Li23 N13 2.306668 1_656
N0 Ti4 1.983729 1_455
N0 Ti0 1.983729 1_555
N1 Ti5 1.983729 1_555
N1 Ti1 1.983729 1_454
N2 Ti6 1.983729 1_555
N2 Ti2 1.983729 1_455
N3 Ti7 1.983729 1_455
N3 Ti3 1.983729 1_545
N4 Ti1 2.026834 1_555
N4 Ti0 2.026834 1_565
N5 Ti3 2.026834 1_555
N5 Ti2 2.026834 1_555
N6 Ti2 2.026834 1_455
N6 Ti0 2.026834 1_555
N7 Ti1 2.026834 1_455
N7 Ti3 2.026834 1_556
N8 Ti2 2.026834 1_555
N8 Ti1 2.026834 1_555
N9 Ti0 2.026834 1_565
N9 Ti3 2.026834 1_556
N10 Ti5 2.026834 1_555
N10 Ti4 2.026834 1_555
N11 Ti7 2.026834 1_556
N11 Ti6 2.026834 1_555
N12 Ti6 2.026834 1_555
N12 Ti4 2.026834 1_465
N13 Ti5 2.026834 1_555
N13 Ti7 2.026834 1_455
N14 Ti6 2.026834 1_555
N14 Ti5 2.026834 1_555
N15 Ti4 2.026834 1_555
N15 Ti7 2.026834 1_555
