# generated using pymatgen
data_Li9Mn2Co5O16
_symmetry_space_group_name_H-M   'P 1'
_cell_length_a   5.00642700
_cell_length_b   5.17726853
_cell_length_c   11.28450033
_cell_angle_alpha   82.18196936
_cell_angle_beta   86.55208951
_cell_angle_gamma   79.19132910
_symmetry_Int_Tables_number   1
_chemical_formula_structural   Li9Mn2Co5O16
_chemical_formula_sum   'Li9 Mn2 Co5 O16'
_cell_volume   284.45008860
_cell_formula_units_Z   1
loop_
 _symmetry_equiv_pos_site_id
 _symmetry_equiv_pos_as_xyz
  1  'x, y, z'
loop_
 _atom_site_type_symbol
 _atom_site_label
 _atom_site_symmetry_multiplicity
 _atom_site_fract_x
 _atom_site_fract_y
 _atom_site_fract_z
 _atom_site_occupancy
  Li  Li0  1  0.26391000  0.06846400  0.93649500  1
  Li  Li1  1  0.73551700  0.18982000  0.81607400  1
  Li  Li2  1  0.25447500  0.31281400  0.68740300  1
  Li  Li3  1  0.26448300  0.81018000  0.18392600  1
  Li  Li4  1  0.73609000  0.93153600  0.06350500  1
  Li  Li5  1  0.24732900  0.56181100  0.43698100  1
  Li  Li6  1  0.74552500  0.68718600  0.31259700  1
  Li  Li7  1  0.75267100  0.43818900  0.56301900  1
  Li  Li8  1  0.50000000  0.50000000  0.00000000  1
  Mn  Mn0  1  0.00242000  0.61685000  0.87779000  1
  Mn  Mn1  1  0.99758000  0.38315000  0.12221000  1
  Co  Co0  1  0.49894100  0.73763300  0.75602900  1
  Co  Co1  1  0.99462400  0.87809200  0.62598700  1
  Co  Co2  1  0.50000000  0.00000000  0.50000000  1
  Co  Co3  1  0.00537600  0.12190800  0.37401300  1
  Co  Co4  1  0.50105900  0.26236700  0.24397100  1
  O  O0  1  0.10631700  0.69219600  0.02914000  1
  O  O1  1  0.63763100  0.83179000  0.89408700  1
  O  O2  1  0.13250800  0.92629900  0.78769800  1
  O  O3  1  0.13533800  0.45295800  0.27223900  1
  O  O4  1  0.64760200  0.58358100  0.15643900  1
  O  O5  1  0.12805800  0.20454700  0.53175900  1
  O  O6  1  0.63244100  0.32039600  0.39714500  1
  O  O7  1  0.63724300  0.08540700  0.64836300  1
  O  O8  1  0.35239800  0.41641900  0.84356100  1
  O  O9  1  0.86466200  0.54704200  0.72776100  1
  O  O10  1  0.36755900  0.67960400  0.60285500  1
  O  O11  1  0.36236900  0.16821000  0.10591300  1
  O  O12  1  0.89368300  0.30780400  0.97086000  1
  O  O13  1  0.36275700  0.91459300  0.35163700  1
  O  O14  1  0.86749200  0.07370100  0.21230200  1
  O  O15  1  0.87194200  0.79545300  0.46824100  1
loop_
_geom_bond_atom_site_label_1
_geom_bond_atom_site_label_2
_geom_bond_distance
_geom_bond_site_symmetry_2
Li0 O8 2.066585 1_555
Li0 O12 2.074655 1_455
Li0 O1 2.103110 1_545
Li0 O2 2.108216 1_545
Li0 O11 2.154541 1_556
Li0 O0 2.330986 1_546
Li1 O1 2.072659 1_545
Li1 O8 2.082053 1_555
Li1 O7 2.146171 1_555
Li1 O12 2.165428 1_555
Li1 O9 2.168213 1_555
Li1 O2 2.222470 1_645
Li2 O8 2.023108 1_555
Li2 O5 2.081865 1_555
Li2 O7 2.108508 1_555
Li2 O9 2.154602 1_455
Li2 O10 2.163848 1_555
Li2 O2 2.327480 1_545
Li3 O11 2.072659 1_565
Li3 O4 2.082053 1_555
Li3 O13 2.146171 1_555
Li3 O0 2.165428 1_555
Li3 O3 2.168213 1_555
Li3 O14 2.222470 1_465
Li4 O4 2.066585 1_555
Li4 O0 2.074655 1_655
Li4 O11 2.103110 1_565
Li4 O14 2.108216 1_565
Li4 O1 2.154541 1_554
Li4 O12 2.330986 1_564
Li5 O15 2.074439 1_455
Li5 O13 2.108965 1_555
Li5 O3 2.148688 1_555
Li5 O6 2.150897 1_555
Li5 O5 2.172758 1_555
Li5 O10 2.195821 1_555
Li6 O4 2.023108 1_555
Li6 O15 2.081865 1_555
Li6 O13 2.108508 1_555
Li6 O3 2.154602 1_655
Li6 O6 2.163848 1_555
Li6 O14 2.327480 1_565
Li7 O5 2.074439 1_655
Li7 O7 2.108965 1_555
Li7 O9 2.148688 1_555
Li7 O10 2.150897 1_555
Li7 O15 2.172758 1_555
Li7 O6 2.195821 1_555
Li8 O0 2.063584 1_555
Li8 O12 2.063584 1_554
Li8 O8 2.081917 1_554
Li8 O4 2.081917 1_555
Li8 O11 2.154129 1_555
Li8 O1 2.154129 1_554
Mn0 O8 1.908322 1_555
Mn0 O0 1.924549 1_556
Mn0 O12 1.939116 1_455
Mn0 O1 1.964822 1_455
Mn0 O9 1.967975 1_455
Mn0 O2 1.973078 1_555
Mn1 O4 1.908322 1_555
Mn1 O12 1.924549 1_554
Mn1 O0 1.939116 1_655
Mn1 O11 1.964822 1_655
Mn1 O3 1.967975 1_655
Mn1 O14 1.973078 1_555
Co0 O1 1.900136 1_555
Co0 O9 1.940510 1_555
Co0 O2 1.947126 1_555
Co0 O10 1.965383 1_555
Co0 O8 2.050138 1_555
Co0 O7 2.229050 1_565
Co1 O7 1.927733 1_565
Co1 O10 1.976071 1_655
Co1 O15 2.041141 1_555
Co1 O2 2.051548 1_655
Co1 O5 2.069443 1_665
Co1 O9 2.114888 1_555
Co2 O13 1.980982 1_545
Co2 O7 1.980982 1_555
Co2 O5 2.000177 1_555
Co2 O15 2.000177 1_545
Co2 O10 2.081945 1_545
Co2 O6 2.081945 1_555
Co3 O13 1.927733 1_545
Co3 O6 1.976071 1_455
Co3 O5 2.041141 1_555
Co3 O14 2.051548 1_455
Co3 O15 2.069443 1_445
Co3 O3 2.114888 1_555
Co4 O11 1.900136 1_555
Co4 O3 1.940510 1_555
Co4 O14 1.947126 1_555
Co4 O6 1.965383 1_555
Co4 O4 2.050138 1_555
Co4 O13 2.229050 1_545
