# generated using pymatgen
data_Ba3Ta2Se9
_symmetry_space_group_name_H-M   'P 1'
_cell_length_a   7.46231100
_cell_length_b   12.57914300
_cell_length_c   17.85808442
_cell_angle_alpha   90.00000000
_cell_angle_beta   97.56600564
_cell_angle_gamma   90.00000000
_symmetry_Int_Tables_number   1
_chemical_formula_structural   Ba3Ta2Se9
_chemical_formula_sum   'Ba12 Ta8 Se36'
_cell_volume   1661.73465154
_cell_formula_units_Z   4
loop_
 _symmetry_equiv_pos_site_id
 _symmetry_equiv_pos_as_xyz
  1  'x, y, z'
loop_
 _atom_site_type_symbol
 _atom_site_label
 _atom_site_symmetry_multiplicity
 _atom_site_fract_x
 _atom_site_fract_y
 _atom_site_fract_z
 _atom_site_occupancy
  Ba  Ba0  1  0.76251100  0.58811500  0.91655900  1
  Ba  Ba1  1  0.23748900  0.08811500  0.58344100  1
  Ba  Ba2  1  0.23748900  0.41188500  0.08344100  1
  Ba  Ba3  1  0.76251100  0.91188500  0.41655900  1
  Ba  Ba4  1  0.75443600  0.25683500  0.75300300  1
  Ba  Ba5  1  0.24556400  0.75683500  0.74699700  1
  Ba  Ba6  1  0.24556400  0.74316500  0.24699700  1
  Ba  Ba7  1  0.75443600  0.24316500  0.25300300  1
  Ba  Ba8  1  0.24331900  0.06906000  0.92082000  1
  Ba  Ba9  1  0.75668100  0.56906000  0.57918000  1
  Ba  Ba10  1  0.75668100  0.93094000  0.07918000  1
  Ba  Ba11  1  0.24331900  0.43094000  0.42082000  1
  Ta  Ta0  1  0.21789800  0.44316000  0.84985000  1
  Ta  Ta1  1  0.78210200  0.94316000  0.65015000  1
  Ta  Ta2  1  0.78210200  0.55684000  0.15015000  1
  Ta  Ta3  1  0.21789800  0.05684000  0.34985000  1
  Ta  Ta4  1  0.27740000  0.43387700  0.65445500  1
  Ta  Ta5  1  0.72260000  0.93387700  0.84554500  1
  Ta  Ta6  1  0.72260000  0.56612300  0.34554500  1
  Ta  Ta7  1  0.27740000  0.06612300  0.15445500  1
  Se  Se0  1  0.25314800  0.27308400  0.75759100  1
  Se  Se1  1  0.74685200  0.77308400  0.74240900  1
  Se  Se2  1  0.74685200  0.72691600  0.24240900  1
  Se  Se3  1  0.25314800  0.22691600  0.25759100  1
  Se  Se4  1  0.46375900  0.29527200  0.88022000  1
  Se  Se5  1  0.53624100  0.79527200  0.61978000  1
  Se  Se6  1  0.53624100  0.70472800  0.11978000  1
  Se  Se7  1  0.46375900  0.20472800  0.38022000  1
  Se  Se8  1  0.49515400  0.34376600  0.58533900  1
  Se  Se9  1  0.50484600  0.84376600  0.91466100  1
  Se  Se10  1  0.50484600  0.65623400  0.41466100  1
  Se  Se11  1  0.49515400  0.15623400  0.08533900  1
  Se  Se12  1  0.48838200  0.51699500  0.75989100  1
  Se  Se13  1  0.51161800  0.01699500  0.74010900  1
  Se  Se14  1  0.51161800  0.48300500  0.24010900  1
  Se  Se15  1  0.48838200  0.98300500  0.25989100  1
  Se  Se16  1  0.31537800  0.58182900  0.93923000  1
  Se  Se17  1  0.68462200  0.08182900  0.56077000  1
  Se  Se18  1  0.68462200  0.41817100  0.06077000  1
  Se  Se19  1  0.31537800  0.91817100  0.43923000  1
  Se  Se20  1  0.00007200  0.52506700  0.74913800  1
  Se  Se21  1  0.99992800  0.02506700  0.75086200  1
  Se  Se22  1  0.99992800  0.47493300  0.25086200  1
  Se  Se23  1  0.00007200  0.97493300  0.24913800  1
  Se  Se24  1  0.99820400  0.34946500  0.91751800  1
  Se  Se25  1  0.00179600  0.84946500  0.58248200  1
  Se  Se26  1  0.00179600  0.65053500  0.08248200  1
  Se  Se27  1  0.99820400  0.15053500  0.41751800  1
  Se  Se28  1  0.01428600  0.30934800  0.61806000  1
  Se  Se29  1  0.98571400  0.80934800  0.88194000  1
  Se  Se30  1  0.98571400  0.69065200  0.38194000  1
  Se  Se31  1  0.01428600  0.19065200  0.11806000  1
  Se  Se32  1  0.19886900  0.58473200  0.57147700  1
  Se  Se33  1  0.80113100  0.08473200  0.92852300  1
  Se  Se34  1  0.80113100  0.41526800  0.42852300  1
  Se  Se35  1  0.19886900  0.91526800  0.07147700  1
loop_
_geom_bond_atom_site_label_1
_geom_bond_atom_site_label_2
_geom_bond_distance
_geom_bond_site_symmetry_2
Ba0 Se29 3.342496 1_555
Ba0 Se26 3.345360 1_656
Ba0 Se12 3.362361 1_555
Ba0 Se16 3.414543 1_555
Ba0 Se18 3.454609 1_556
Ba0 Se24 3.478199 1_555
Ba0 Se9 3.744713 1_555
Ba0 Se20 3.755849 1_655
Ba0 Se1 3.873466 1_555
Ba1 Se28 3.342496 1_555
Ba1 Se27 3.345360 1_455
Ba1 Se13 3.362361 1_555
Ba1 Se17 3.414543 1_555
Ba1 Se19 3.454609 1_545
Ba1 Se25 3.478199 1_545
Ba1 Se8 3.744713 1_555
Ba1 Se21 3.755849 1_455
Ba1 Se0 3.873466 1_555
Ba2 Se31 3.342496 1_555
Ba2 Se24 3.345360 1_454
Ba2 Se14 3.362361 1_555
Ba2 Se18 3.414543 1_555
Ba2 Se16 3.454609 1_554
Ba2 Se26 3.478199 1_555
Ba2 Se11 3.744713 1_555
Ba2 Se22 3.755849 1_455
Ba2 Se3 3.873466 1_555
Ba3 Se30 3.342496 1_555
Ba3 Se25 3.345360 1_655
Ba3 Se15 3.362361 1_555
Ba3 Se19 3.414543 1_555
Ba3 Se17 3.454609 1_565
Ba3 Se27 3.478199 1_565
Ba3 Se10 3.744713 1_555
Ba3 Se23 3.755849 1_655
Ba3 Se2 3.873466 1_555
Ba4 Se28 3.351741 1_655
Ba4 Se4 3.376075 1_555
Ba4 Se21 3.446115 1_555
Ba4 Se24 3.448300 1_555
Ba4 Se13 3.511212 1_555
Ba4 Se8 3.518353 1_555
Ba4 Se0 3.717269 1_655
Ba4 Se0 3.757997 1_555
Ba4 Se33 3.787534 1_555
Ba4 Se12 3.838100 1_555
Ba4 Se20 3.844835 1_655
Ba4 Se17 4.053593 1_555
Ba5 Se29 3.351741 1_455
Ba5 Se5 3.376075 1_555
Ba5 Se20 3.446115 1_555
Ba5 Se25 3.448300 1_555
Ba5 Se12 3.511212 1_555
Ba5 Se9 3.518353 1_555
Ba5 Se1 3.717269 1_455
Ba5 Se1 3.757997 1_555
Ba5 Se32 3.787534 1_555
Ba5 Se13 3.838100 1_565
Ba5 Se21 3.844835 1_465
Ba5 Se16 4.053593 1_555
Ba6 Se30 3.351741 1_455
Ba6 Se6 3.376075 1_555
Ba6 Se23 3.446115 1_555
Ba6 Se26 3.448300 1_555
Ba6 Se15 3.511212 1_555
Ba6 Se10 3.518353 1_555
Ba6 Se2 3.717269 1_455
Ba6 Se2 3.757997 1_555
Ba6 Se35 3.787534 1_555
Ba6 Se14 3.838100 1_555
Ba6 Se22 3.844835 1_455
Ba6 Se19 4.053593 1_555
Ba7 Se31 3.351741 1_655
Ba7 Se7 3.376075 1_555
Ba7 Se22 3.446115 1_555
Ba7 Se27 3.448300 1_555
Ba7 Se14 3.511212 1_555
Ba7 Se11 3.518353 1_555
Ba7 Se3 3.717269 1_655
Ba7 Se3 3.757997 1_555
Ba7 Se34 3.787534 1_555
Ba7 Se15 3.838100 1_545
Ba7 Se23 3.844835 1_645
Ba7 Se18 4.053593 1_555
Ba8 Se33 3.326505 1_455
Ba8 Se35 3.365426 1_546
Ba8 Se21 3.371255 1_455
Ba8 Se4 3.412173 1_555
Ba8 Se9 3.450933 1_545
Ba8 Se11 3.451375 1_556
Ba9 Se32 3.326505 1_655
Ba9 Se34 3.365426 1_555
Ba9 Se20 3.371255 1_655
Ba9 Se5 3.412173 1_555
Ba9 Se8 3.450933 1_555
Ba9 Se10 3.451375 1_555
Ba10 Se35 3.326505 1_655
Ba10 Se33 3.365426 1_564
Ba10 Se23 3.371255 1_655
Ba10 Se6 3.412173 1_555
Ba10 Se11 3.450933 1_565
Ba10 Se9 3.451375 1_554
Ba11 Se34 3.326505 1_455
Ba11 Se32 3.365426 1_555
Ba11 Se22 3.371255 1_455
Ba11 Se7 3.412173 1_555
Ba11 Se10 3.450933 1_555
Ba11 Se8 3.451375 1_555
Se0 Se4 2.537197 1_555
Se0 Ta0 2.734023 1_555
Se0 Ta4 2.757510 1_555
Se1 Se5 2.537197 1_555
Se1 Ta1 2.734023 1_555
Se1 Ta5 2.757510 1_555
Se2 Se6 2.537197 1_555
Se2 Ta2 2.734023 1_555
Se2 Ta6 2.757510 1_555
Se3 Se7 2.537197 1_555
Se3 Ta3 2.734023 1_555
Se3 Ta7 2.757510 1_555
Se4 Ta0 2.618957 1_555
Se5 Ta1 2.618957 1_555
Se6 Ta2 2.618957 1_555
Se7 Ta3 2.618957 1_555
Se8 Ta4 2.444775 1_555
Se9 Ta5 2.444775 1_555
Se10 Ta6 2.444775 1_555
Se11 Ta7 2.444775 1_555
Se12 Ta4 2.517254 1_555
Se12 Ta0 2.893344 1_555
Se13 Ta5 2.517254 1_545
Se13 Ta1 2.893344 1_545
Se14 Ta6 2.517254 1_555
Se14 Ta2 2.893344 1_555
Se15 Ta7 2.517254 1_565
Se15 Ta3 2.893344 1_565
Se16 Ta0 2.411186 1_555
Se17 Ta1 2.411186 1_545
Se18 Ta2 2.411186 1_555
Se19 Ta3 2.411186 1_565
Se20 Ta0 2.483665 1_555
Se20 Ta4 3.062541 1_555
Se21 Ta1 2.483665 1_545
Se21 Ta5 3.062541 1_545
Se22 Ta2 2.483665 1_555
Se22 Ta6 3.062541 1_555
Se23 Ta3 2.483665 1_565
Se23 Ta7 3.062541 1_565
Se24 Ta0 2.461463 1_655
Se25 Ta1 2.461463 1_455
Se26 Ta2 2.461463 1_455
Se27 Ta3 2.461463 1_655
Se28 Ta4 2.528891 1_555
Se29 Ta5 2.528891 1_555
Se30 Ta6 2.528891 1_555
Se31 Ta7 2.528891 1_555
Se32 Ta4 2.431367 1_555
Se33 Ta5 2.431367 1_545
Se34 Ta6 2.431367 1_555
Se35 Ta7 2.431367 1_565
