# generated using pymatgen
data_KCaCeBiO6
_symmetry_space_group_name_H-M   'P 1'
_cell_length_a   8.54923791
_cell_length_b   8.52839311
_cell_length_c   8.45646672
_cell_angle_alpha   90.00000000
_cell_angle_beta   90.00000000
_cell_angle_gamma   90.00000000
_symmetry_Int_Tables_number   1
_chemical_formula_structural   KCaCeBiO6
_chemical_formula_sum   'K4 Ca4 Ce4 Bi4 O24'
_cell_volume   616.57165797
_cell_formula_units_Z   4
loop_
 _symmetry_equiv_pos_site_id
 _symmetry_equiv_pos_as_xyz
  1  'x, y, z'
loop_
 _atom_site_type_symbol
 _atom_site_label
 _atom_site_symmetry_multiplicity
 _atom_site_fract_x
 _atom_site_fract_y
 _atom_site_fract_z
 _atom_site_occupancy
  K  K0  1  0.00000000  0.50000000  0.50000000  1
  K  K1  1  0.50000000  -0.00000000  0.50000000  1
  K  K2  1  0.50000000  -0.00000000  -0.00000000  1
  K  K3  1  0.00000000  0.50000000  -0.00000000  1
  Ca  Ca0  1  0.50000000  0.50000000  -0.00000000  1
  Ca  Ca1  1  0.00000000  0.00000000  0.50000000  1
  Ca  Ca2  1  -0.00000000  0.00000000  -0.00000000  1
  Ca  Ca3  1  0.50000000  0.50000000  0.50000000  1
  Ce  Ce0  1  0.25000000  0.25000000  0.25000000  1
  Ce  Ce1  1  0.75000000  0.75000000  0.25000000  1
  Ce  Ce2  1  0.75000000  0.25000000  0.75000000  1
  Ce  Ce3  1  0.25000000  0.75000000  0.75000000  1
  Bi  Bi0  1  0.75000000  0.75000000  0.75000000  1
  Bi  Bi1  1  0.25000000  0.25000000  0.75000000  1
  Bi  Bi2  1  0.25000000  0.75000000  0.25000000  1
  Bi  Bi3  1  0.75000000  0.25000000  0.25000000  1
  O  O0  1  0.99343767  0.20746419  0.30401623  1
  O  O1  1  0.00656233  0.79253581  0.30401623  1
  O  O2  1  0.00656233  0.20746419  0.69598377  1
  O  O3  1  0.99343767  0.79253581  0.69598377  1
  O  O4  1  0.27390112  0.99653589  0.28616661  1
  O  O5  1  0.27390112  0.00346411  0.71383339  1
  O  O6  1  0.72609888  0.00346411  0.28616661  1
  O  O7  1  0.72609888  0.99653589  0.71383339  1
  O  O8  1  0.19684771  0.20223393  0.99345070  1
  O  O9  1  0.80315229  0.20223393  0.00654930  1
  O  O10  1  0.19684771  0.79776607  0.00654930  1
  O  O11  1  0.80315229  0.79776607  0.99345070  1
  O  O12  1  0.50656233  0.29253581  0.19598377  1
  O  O13  1  0.49343767  0.70746419  0.19598377  1
  O  O14  1  0.49343767  0.29253581  0.80401623  1
  O  O15  1  0.50656233  0.70746419  0.80401623  1
  O  O16  1  0.22609888  0.50346411  0.21383339  1
  O  O17  1  0.22609888  0.49653589  0.78616661  1
  O  O18  1  0.77390112  0.49653589  0.21383339  1
  O  O19  1  0.77390112  0.50346411  0.78616661  1
  O  O20  1  0.30315229  0.29776607  0.50654930  1
  O  O21  1  0.69684771  0.29776607  0.49345070  1
  O  O22  1  0.30315229  0.70223393  0.49345070  1
  O  O23  1  0.69684771  0.70223393  0.50654930  1
loop_
_geom_bond_atom_site_label_1
_geom_bond_atom_site_label_2
_geom_bond_distance
_geom_bond_site_symmetry_2
K0 O3 2.995700 1_455
K0 O0 2.995700 1_455
K0 O2 2.995700 1_555
K0 O1 2.995700 1_555
K0 O17 3.097331 1_555
K0 O18 3.097331 1_455
K0 O19 3.097331 1_455
K0 O16 3.097331 1_555
K0 O22 3.113644 1_555
K0 O21 3.113644 1_455
K0 O23 3.113644 1_455
K0 O20 3.113644 1_555
K1 O5 2.647096 1_555
K1 O6 2.647096 1_555
K1 O7 2.647096 1_545
K1 O4 2.647096 1_545
K1 O23 3.046982 1_545
K1 O20 3.046982 1_555
K1 O22 3.046982 1_545
K1 O21 3.046982 1_555
K2 O13 2.995700 1_545
K2 O15 2.995700 1_544
K2 O12 2.995700 1_555
K2 O14 2.995700 1_554
K2 O5 3.097331 1_554
K2 O7 3.097331 1_544
K2 O6 3.097331 1_555
K2 O4 3.097331 1_545
K2 O11 3.113644 1_544
K2 O10 3.113644 1_545
K2 O9 3.113644 1_555
K2 O8 3.113644 1_554
K3 O17 2.647096 1_554
K3 O18 2.647096 1_455
K3 O19 2.647096 1_454
K3 O16 2.647096 1_555
K3 O10 3.046982 1_555
K3 O11 3.046982 1_454
K3 O8 3.046982 1_554
K3 O9 3.046982 1_455
Ca0 O14 2.424962 1_554
Ca0 O13 2.424962 1_555
Ca0 O12 2.424962 1_555
Ca0 O15 2.424962 1_554
Ca0 O18 2.958722 1_555
Ca0 O16 2.958722 1_555
Ca0 O19 2.958722 1_554
Ca0 O17 2.958722 1_554
Ca1 O1 2.424962 1_545
Ca1 O3 2.424962 1_445
Ca1 O2 2.424962 1_555
Ca1 O0 2.424962 1_455
Ca1 O7 2.958722 1_445
Ca1 O6 2.958722 1_455
Ca1 O4 2.958722 1_545
Ca1 O5 2.958722 1_555
Ca2 O9 2.410375 1_455
Ca2 O10 2.410375 1_545
Ca2 O11 2.410375 1_444
Ca2 O8 2.410375 1_554
Ca3 O23 2.410375 1_555
Ca3 O20 2.410375 1_555
Ca3 O21 2.410375 1_555
Ca3 O22 2.410375 1_555
Ce0 O4 2.192712 1_545
Ce0 O16 2.192712 1_555
Ce0 O20 2.253702 1_555
Ce0 O8 2.253702 1_554
Ce0 O0 2.269649 1_455
Ce0 O12 2.269649 1_555
Ce1 O6 2.192712 1_565
Ce1 O18 2.192712 1_555
Ce1 O23 2.253702 1_555
Ce1 O11 2.253702 1_554
Ce1 O1 2.269649 1_655
Ce1 O13 2.269649 1_555
Ce2 O19 2.192712 1_555
Ce2 O7 2.192712 1_545
Ce2 O9 2.253702 1_556
Ce2 O21 2.253702 1_555
Ce2 O2 2.269649 1_655
Ce2 O14 2.269649 1_555
Ce3 O5 2.192712 1_565
Ce3 O17 2.192712 1_555
Ce3 O10 2.253702 1_556
Ce3 O22 2.253702 1_555
Ce3 O3 2.269649 1_455
Ce3 O15 2.269649 1_555
Bi0 O7 2.134486 1_555
Bi0 O19 2.134486 1_555
Bi0 O11 2.147282 1_555
Bi0 O23 2.147282 1_555
Bi0 O15 2.161405 1_555
Bi0 O3 2.161405 1_555
Bi1 O5 2.134486 1_555
Bi1 O17 2.134486 1_555
Bi1 O8 2.147282 1_555
Bi1 O20 2.147282 1_555
Bi1 O14 2.161405 1_555
Bi1 O2 2.161405 1_555
Bi2 O4 2.134486 1_555
Bi2 O16 2.134486 1_555
Bi2 O22 2.147282 1_555
Bi2 O10 2.147282 1_555
Bi2 O13 2.161405 1_555
Bi2 O1 2.161405 1_555
Bi3 O6 2.134486 1_555
Bi3 O18 2.134486 1_555
Bi3 O21 2.147282 1_555
Bi3 O9 2.147282 1_555
Bi3 O12 2.161405 1_555
Bi3 O0 2.161405 1_555
