# generated using pymatgen
data_Ce3Sn5
_symmetry_space_group_name_H-M   'P 1'
_cell_length_a   6.63695119
_cell_length_b   6.63693639
_cell_length_c   10.53256312
_cell_angle_alpha   90.10846378
_cell_angle_beta   90.10872251
_cell_angle_gamma   102.60787470
_symmetry_Int_Tables_number   1
_chemical_formula_structural   Ce3Sn5
_chemical_formula_sum   'Ce6 Sn10'
_cell_volume   452.75972237
_cell_formula_units_Z   2
loop_
 _symmetry_equiv_pos_site_id
 _symmetry_equiv_pos_as_xyz
  1  'x, y, z'
loop_
 _atom_site_type_symbol
 _atom_site_label
 _atom_site_symmetry_multiplicity
 _atom_site_fract_x
 _atom_site_fract_y
 _atom_site_fract_z
 _atom_site_occupancy
  Ce  Ce0  1  0.63452003  0.63452538  0.25154161  1
  Ce  Ce1  1  0.36549020  0.36549221  0.74846176  1
  Ce  Ce2  1  0.20321578  0.79677316  0.50002758  1
  Ce  Ce3  1  0.20192357  0.79806425  -0.00002575  1
  Ce  Ce4  1  0.79677235  0.20321549  0.50002623  1
  Ce  Ce5  1  0.79806247  0.20192402  -0.00002389  1
  Sn  Sn0  1  0.02455038  0.02454547  0.25004253  1
  Sn  Sn1  1  0.97546374  0.97545053  0.74995668  1
  Sn  Sn2  1  0.31986341  0.31986027  0.04743878  1
  Sn  Sn3  1  0.68009128  0.68009316  0.95257254  1
  Sn  Sn4  1  0.31602178  0.31602883  0.45159497  1
  Sn  Sn5  1  0.68394358  0.68394212  0.54838419  1
  Sn  Sn6  1  0.49313256  0.07203089  0.25002195  1
  Sn  Sn7  1  0.92800605  0.50692421  0.74997782  1
  Sn  Sn8  1  0.50691602  0.92800438  0.74998038  1
  Sn  Sn9  1  0.07202879  0.49312664  0.25002463  1
loop_
_geom_bond_atom_site_label_1
_geom_bond_atom_site_label_2
_geom_bond_distance
_geom_bond_site_symmetry_2
Ce0 Sn5 3.152065 1_555
Ce0 Sn3 3.172675 1_554
Ce0 Sn0 3.236784 1_665
Ce0 Sn6 3.240664 1_565
Ce0 Sn9 3.240726 1_655
Ce0 Sn2 3.377282 1_555
Ce0 Sn4 3.385198 1_555
Ce0 Sn9 3.645298 1_555
Ce0 Sn6 3.645309 1_555
Ce1 Sn4 3.152366 1_555
Ce1 Sn2 3.172819 1_556
Ce1 Sn1 3.236857 1_445
Ce1 Sn8 3.240675 1_545
Ce1 Sn7 3.240676 1_455
Ce1 Sn3 3.376952 1_555
Ce1 Sn5 3.385060 1_555
Ce1 Sn8 3.645431 1_555
Ce1 Sn7 3.645464 1_555
Ce2 Sn8 3.310136 1_555
Ce2 Sn9 3.310324 1_555
Ce2 Sn1 3.377348 1_455
Ce2 Sn0 3.377833 1_565
Ce2 Sn5 3.402820 1_455
Ce2 Sn4 3.402826 1_565
Ce2 Sn5 3.469614 1_555
Ce2 Sn4 3.469764 1_555
Ce2 Sn7 3.531445 1_455
Ce2 Sn6 3.532204 1_565
Ce3 Sn8 3.322805 1_554
Ce3 Sn9 3.323031 1_555
Ce3 Sn1 3.368777 1_454
Ce3 Sn0 3.369238 1_565
Ce3 Sn2 3.415323 1_565
Ce3 Sn3 3.415467 1_454
Ce3 Sn3 3.467444 1_554
Ce3 Sn2 3.467676 1_555
Ce3 Sn7 3.521505 1_454
Ce3 Sn6 3.522235 1_565
Ce4 Sn7 3.310161 1_555
Ce4 Sn6 3.310306 1_555
Ce4 Sn1 3.377436 1_545
Ce4 Sn0 3.377865 1_655
Ce4 Sn4 3.402793 1_655
Ce4 Sn5 3.402820 1_545
Ce4 Sn5 3.469599 1_555
Ce4 Sn4 3.469826 1_555
Ce4 Sn8 3.531501 1_545
Ce4 Sn9 3.532152 1_655
Ce5 Sn7 3.322867 1_554
Ce5 Sn6 3.322970 1_555
Ce5 Sn1 3.368893 1_544
Ce5 Sn0 3.369253 1_655
Ce5 Sn2 3.415357 1_655
Ce5 Sn3 3.415455 1_544
Ce5 Sn3 3.467448 1_554
Ce5 Sn2 3.467640 1_555
Ce5 Sn8 3.521523 1_544
Ce5 Sn9 3.522222 1_655
Sn0 Sn9 3.056670 1_555
Sn0 Sn6 3.056678 1_555
Sn0 Sn4 3.213471 1_555
Sn0 Sn2 3.254445 1_555
Sn1 Sn7 3.056324 1_555
Sn1 Sn8 3.056482 1_555
Sn1 Sn5 3.213840 1_555
Sn1 Sn3 3.254849 1_555
Sn2 Sn6 3.067637 1_555
Sn2 Sn9 3.067679 1_555
Sn2 Sn3 3.154874 1_554
Sn3 Sn8 3.067734 1_555
Sn3 Sn7 3.067756 1_555
Sn4 Sn9 3.055908 1_555
Sn4 Sn6 3.055999 1_555
Sn4 Sn5 3.215994 1_555
Sn5 Sn7 3.056095 1_555
Sn5 Sn8 3.056153 1_555
