# generated using pymatgen
data_Y2Sn3(PbS4)3
_symmetry_space_group_name_H-M   'P 1'
_cell_length_a   3.94249400
_cell_length_b   11.67189700
_cell_length_c   20.43898100
_cell_angle_alpha   90.00000000
_cell_angle_beta   90.00000000
_cell_angle_gamma   90.00000000
_symmetry_Int_Tables_number   1
_chemical_formula_structural   Y2Sn3(PbS4)3
_chemical_formula_sum   'Y4 Sn6 Pb6 S24'
_cell_volume   940.52799604
_cell_formula_units_Z   2
loop_
 _symmetry_equiv_pos_site_id
 _symmetry_equiv_pos_as_xyz
  1  'x, y, z'
loop_
 _atom_site_type_symbol
 _atom_site_label
 _atom_site_symmetry_multiplicity
 _atom_site_fract_x
 _atom_site_fract_y
 _atom_site_fract_z
 _atom_site_occupancy
  Y  Y0  1  0.00000000  0.54598000  0.41178200  1
  Y  Y1  1  0.00000000  0.04598000  0.58821800  1
  Y  Y2  1  0.00000000  0.86832000  0.10501700  1
  Y  Y3  1  0.00000000  0.36832000  0.89498300  1
  Sn  Sn0  1  0.50000000  0.69300700  0.24974700  1
  Sn  Sn1  1  0.50000000  0.19300700  0.75025300  1
  Sn  Sn2  1  0.50000000  0.17465300  0.08836000  1
  Sn  Sn3  1  0.50000000  0.67465300  0.91164000  1
  Sn  Sn4  1  0.50000000  0.20071600  0.42519200  1
  Sn  Sn5  1  0.50000000  0.70071600  0.57480800  1
  Pb  Pb0  1  0.00000000  0.92308300  0.37770200  1
  Pb  Pb1  1  0.00000000  0.42308300  0.62229800  1
  Pb  Pb2  1  0.00000000  0.28927300  0.25798800  1
  Pb  Pb3  1  0.00000000  0.78927300  0.74201200  1
  Pb  Pb4  1  0.00000000  0.49670800  0.08595300  1
  Pb  Pb5  1  0.00000000  0.99670800  0.91404700  1
  S  S0  1  0.00000000  0.25509400  0.01735500  1
  S  S1  1  0.00000000  0.75509400  0.98264500  1
  S  S2  1  0.00000000  0.09190400  0.15883000  1
  S  S3  1  0.00000000  0.59190400  0.84117000  1
  S  S4  1  0.00000000  0.84438400  0.24264900  1
  S  S5  1  0.00000000  0.34438400  0.75735100  1
  S  S6  1  0.00000000  0.54832300  0.25795600  1
  S  S7  1  0.00000000  0.04832300  0.74204400  1
  S  S8  1  0.00000000  0.25736500  0.49121100  1
  S  S9  1  0.00000000  0.75736500  0.50878900  1
  S  S10  1  0.50000000  0.98005200  0.03107500  1
  S  S11  1  0.50000000  0.48005200  0.96892500  1
  S  S12  1  0.50000000  0.70317600  0.12421700  1
  S  S13  1  0.50000000  0.20317600  0.87578300  1
  S  S14  1  0.50000000  0.35626600  0.15736300  1
  S  S15  1  0.50000000  0.85626600  0.84263700  1
  S  S16  1  0.50000000  0.09205600  0.32266700  1
  S  S17  1  0.50000000  0.59205600  0.67733300  1
  S  S18  1  0.50000000  0.38966100  0.35966200  1
  S  S19  1  0.50000000  0.88966100  0.64033800  1
  S  S20  1  0.50000000  0.70918900  0.37350300  1
  S  S21  1  0.50000000  0.20918900  0.62649700  1
  S  S22  1  0.50000000  0.01149100  0.49040100  1
  S  S23  1  0.50000000  0.51149100  0.50959900  1
loop_
_geom_bond_atom_site_label_1
_geom_bond_atom_site_label_2
_geom_bond_distance
_geom_bond_site_symmetry_2
Pb0 S4 2.909171 1_555
Pb0 S16 3.006798 1_465
Pb0 S16 3.006798 1_565
Pb0 S20 3.182128 1_555
Pb0 S20 3.182128 1_455
Pb0 S22 3.202578 1_465
Pb0 S22 3.202578 1_565
Pb1 S5 2.909171 1_555
Pb1 S17 3.006798 1_555
Pb1 S17 3.006798 1_455
Pb1 S21 3.182128 1_555
Pb1 S21 3.182128 1_455
Pb1 S23 3.202578 1_455
Pb1 S23 3.202578 1_555
Pb2 S14 2.954173 1_555
Pb2 S14 2.954173 1_455
Pb2 S6 3.023605 1_555
Pb2 S2 3.068284 1_555
Pb2 S18 3.094720 1_455
Pb2 S18 3.094720 1_555
Pb3 S15 2.954173 1_555
Pb3 S15 2.954173 1_455
Pb3 S7 3.023605 1_565
Pb3 S3 3.068284 1_555
Pb3 S19 3.094720 1_555
Pb3 S19 3.094720 1_455
Pb4 S14 2.950110 1_455
Pb4 S14 2.950110 1_555
Pb4 S11 3.105632 1_454
Pb4 S11 3.105632 1_554
Pb4 S0 3.149403 1_555
Pb4 S12 3.210132 1_455
Pb4 S12 3.210132 1_555
Pb5 S15 2.950110 1_555
Pb5 S15 2.950110 1_455
Pb5 S10 3.105632 1_456
Pb5 S10 3.105632 1_556
Pb5 S1 3.149403 1_555
Pb5 S13 3.210132 1_565
Pb5 S13 3.210132 1_465
S0 Sn2 2.621742 1_555
S0 Sn2 2.621742 1_455
S0 Y3 2.828838 1_554
S1 Sn3 2.621742 1_455
S1 Sn3 2.621742 1_555
S1 Y2 2.828838 1_556
S2 Sn2 2.625495 1_455
S2 Sn2 2.625495 1_555
S2 Y2 2.831963 1_545
S3 Sn3 2.625495 1_455
S3 Sn3 2.625495 1_555
S3 Y3 2.831963 1_555
S4 Sn0 2.651159 1_555
S4 Sn0 2.651159 1_455
S4 Y2 2.826897 1_555
S5 Sn1 2.651159 1_555
S5 Sn1 2.651159 1_455
S5 Y3 2.826897 1_555
S6 Sn0 2.601115 1_455
S6 Sn0 2.601115 1_555
S6 Y0 3.144166 1_555
S7 Sn1 2.601115 1_555
S7 Sn1 2.601115 1_455
S7 Y1 3.144166 1_555
S8 Sn4 2.478664 1_555
S8 Sn4 2.478664 1_455
S8 Y1 3.165215 1_555
S9 Sn5 2.478664 1_555
S9 Sn5 2.478664 1_455
S9 Y0 3.165215 1_555
S10 Sn2 2.555381 1_565
S10 Y2 2.805455 1_555
S10 Y2 2.805455 1_655
S11 Sn3 2.555381 1_555
S11 Y3 2.805455 1_555
S11 Y3 2.805455 1_655
S12 Sn0 2.568449 1_555
S12 Y2 2.784823 1_655
S12 Y2 2.784823 1_555
S13 Sn1 2.568449 1_555
S13 Y3 2.784823 1_655
S13 Y3 2.784823 1_555
S14 Sn2 2.546077 1_555
S15 Sn3 2.546077 1_555
S16 Sn4 2.449419 1_555
S17 Sn5 2.449419 1_555
S18 Sn4 2.580205 1_555
S18 Y0 2.889564 1_555
S18 Y0 2.889564 1_655
S19 Sn5 2.580205 1_555
S19 Y1 2.889564 1_565
S19 Y1 2.889564 1_665
S20 Sn0 2.536488 1_555
S20 Y0 2.850755 1_555
S20 Y0 2.850755 1_655
S21 Sn1 2.536488 1_555
S21 Y1 2.850755 1_555
S21 Y1 2.850755 1_655
S22 Sn4 2.579603 1_555
S22 Y1 2.836368 1_555
S22 Y1 2.836368 1_655
S23 Sn5 2.579603 1_555
S23 Y0 2.836368 1_555
S23 Y0 2.836368 1_655
