# generated using pymatgen
data_P3H10N3O8
_symmetry_space_group_name_H-M   'P 1'
_cell_length_a   15.87662100
_cell_length_b   6.91920000
_cell_length_c   9.94973071
_cell_angle_alpha   89.77355115
_cell_angle_beta   90.00000000
_cell_angle_gamma   90.00000000
_symmetry_Int_Tables_number   1
_chemical_formula_structural   P3H10N3O8
_chemical_formula_sum   'P12 H40 N12 O32'
_cell_volume   1093.00436526
_cell_formula_units_Z   4
loop_
 _symmetry_equiv_pos_site_id
 _symmetry_equiv_pos_as_xyz
  1  'x, y, z'
loop_
 _atom_site_type_symbol
 _atom_site_label
 _atom_site_symmetry_multiplicity
 _atom_site_fract_x
 _atom_site_fract_y
 _atom_site_fract_z
 _atom_site_occupancy
  P  P0  1  0.33989800  0.78324600  0.20599100  1
  P  P1  1  0.83989800  0.21675400  0.29400900  1
  P  P2  1  0.66010200  0.21675400  0.79400900  1
  P  P3  1  0.16010200  0.78324600  0.70599100  1
  P  P4  1  0.18572400  0.03767600  0.24448700  1
  P  P5  1  0.68572400  0.96232400  0.25551300  1
  P  P6  1  0.81427600  0.96232400  0.75551300  1
  P  P7  1  0.31427600  0.03767600  0.74448700  1
  P  P8  1  0.17080600  0.60944500  0.21691900  1
  P  P9  1  0.67080600  0.39055500  0.28308100  1
  P  P10  1  0.82919400  0.39055500  0.78308100  1
  P  P11  1  0.32919400  0.60944500  0.71691900  1
  H  H0  1  0.50300100  0.41532900  0.36404000  1
  H  H1  1  0.00300100  0.58467100  0.13596000  1
  H  H2  1  0.49699900  0.58467100  0.63596000  1
  H  H3  1  0.99699900  0.41532900  0.86404000  1
  H  H4  1  0.07603600  0.83785500  0.29928900  1
  H  H5  1  0.57603600  0.16214500  0.20071100  1
  H  H6  1  0.92396400  0.16214500  0.70071100  1
  H  H7  1  0.42396400  0.83785500  0.79928900  1
  H  H8  1  0.14179800  0.27098800  0.10918100  1
  H  H9  1  0.64179800  0.72901200  0.39081900  1
  H  H10  1  0.85820200  0.72901200  0.89081900  1
  H  H11  1  0.35820200  0.27098800  0.60918100  1
  H  H12  1  0.17703200  0.36148000  0.36085000  1
  H  H13  1  0.67703200  0.63852000  0.13915000  1
  H  H14  1  0.82296800  0.63852000  0.63915000  1
  H  H15  1  0.32296800  0.36148000  0.86085000  1
  H  H16  1  0.44993800  0.05375900  0.10497800  1
  H  H17  1  0.94993800  0.94624100  0.39502200  1
  H  H18  1  0.55006200  0.94624100  0.89502200  1
  H  H19  1  0.05006200  0.05375900  0.60497800  1
  H  H20  1  0.26541000  0.62118400  0.03837600  1
  H  H21  1  0.76541000  0.37881600  0.46162400  1
  H  H22  1  0.73459000  0.37881600  0.96162400  1
  H  H23  1  0.23459000  0.62118400  0.53837600  1
  H  H24  1  0.31662800  0.06091100  0.33005600  1
  H  H25  1  0.81662800  0.93908900  0.16994400  1
  H  H26  1  0.68337200  0.93908900  0.66994400  1
  H  H27  1  0.18337200  0.06091100  0.83005600  1
  H  H28  1  0.45221500  0.32029400  0.24495900  1
  H  H29  1  0.95221500  0.67970600  0.25504100  1
  H  H30  1  0.54778500  0.67970600  0.75504100  1
  H  H31  1  0.04778500  0.32029400  0.74495900  1
  H  H32  1  0.50499900  0.20698500  0.02391400  1
  H  H33  1  0.00499900  0.79301500  0.47608600  1
  H  H34  1  0.49500100  0.79301500  0.97608600  1
  H  H35  1  0.99500100  0.20698500  0.52391400  1
  H  H36  1  0.40082700  0.55454000  0.33563100  1
  H  H37  1  0.90082700  0.44546000  0.16436900  1
  H  H38  1  0.59917300  0.44546000  0.66436900  1
  H  H39  1  0.09917300  0.55454000  0.83563100  1
  N  N0  1  0.26244800  0.65027400  0.13938800  1
  N  N1  1  0.76244800  0.34972600  0.36061200  1
  N  N2  1  0.73755200  0.34972600  0.86061200  1
  N  N3  1  0.23755200  0.65027400  0.63938800  1
  N  N4  1  0.13440000  0.82942300  0.24879800  1
  N  N5  1  0.63440000  0.17057700  0.25120200  1
  N  N6  1  0.86560000  0.17057700  0.75120200  1
  N  N7  1  0.36560000  0.82942300  0.74879800  1
  N  N8  1  0.28826900  0.98386000  0.25479100  1
  N  N9  1  0.78826900  0.01614000  0.24520900  1
  N  N10  1  0.71173100  0.01614000  0.74520900  1
  N  N11  1  0.21173100  0.98386000  0.75479100  1
  O  O0  1  0.36699500  0.69054700  0.34132000  1
  O  O1  1  0.86699500  0.30945300  0.15868000  1
  O  O2  1  0.63300500  0.30945300  0.65868000  1
  O  O3  1  0.13300500  0.69054700  0.84132000  1
  O  O4  1  0.16723500  0.13440800  0.10407500  1
  O  O5  1  0.66723500  0.86559200  0.39592500  1
  O  O6  1  0.83276500  0.86559200  0.89592500  1
  O  O7  1  0.33276500  0.13440800  0.60407500  1
  O  O8  1  0.11325700  0.49088000  0.12972400  1
  O  O9  1  0.61325700  0.50912000  0.37027600  1
  O  O10  1  0.88674300  0.50912000  0.87027600  1
  O  O11  1  0.38674300  0.49088000  0.62972400  1
  O  O12  1  0.16171100  0.16311600  0.36125000  1
  O  O13  1  0.66171100  0.83688400  0.13875000  1
  O  O14  1  0.83828900  0.83688400  0.63875000  1
  O  O15  1  0.33828900  0.16311600  0.86125000  1
  O  O16  1  0.18761200  0.51524600  0.35763100  1
  O  O17  1  0.68761200  0.48475400  0.14236900  1
  O  O18  1  0.81238800  0.48475400  0.64236900  1
  O  O19  1  0.31238800  0.51524600  0.85763100  1
  O  O20  1  0.44518300  0.38035000  0.33550600  1
  O  O21  1  0.94518300  0.61965000  0.16449400  1
  O  O22  1  0.55481700  0.61965000  0.66449400  1
  O  O23  1  0.05481700  0.38035000  0.83550600  1
  O  O24  1  0.40822300  0.82070600  0.10604600  1
  O  O25  1  0.90822300  0.17929400  0.39395400  1
  O  O26  1  0.59177700  0.17929400  0.89395400  1
  O  O27  1  0.09177700  0.82070600  0.60604600  1
  O  O28  1  0.48142200  0.17787600  0.11319700  1
  O  O29  1  0.98142200  0.82212400  0.38680300  1
  O  O30  1  0.51857800  0.82212400  0.88680300  1
  O  O31  1  0.01857800  0.17787600  0.61319700  1
loop_
_geom_bond_atom_site_label_1
_geom_bond_atom_site_label_2
_geom_bond_distance
_geom_bond_site_symmetry_2
H0 O20 0.991142 1_555
H1 O21 0.991142 1_455
H2 O22 0.991142 1_555
H3 O23 0.991142 1_655
H4 N4 1.055767 1_555
H5 N5 1.055767 1_555
H6 N6 1.055767 1_555
H7 N7 1.055767 1_555
H8 O4 1.029140 1_555
H8 O8 1.601393 1_555
H9 O5 1.029140 1_555
H9 O9 1.601393 1_555
H10 O6 1.029140 1_555
H10 O10 1.601393 1_555
H11 O7 1.029140 1_555
H11 O11 1.601393 1_555
H12 O16 1.077467 1_555
H12 O12 1.393898 1_555
H13 O17 1.077467 1_555
H13 O13 1.393898 1_555
H14 O18 1.077467 1_555
H14 O14 1.393898 1_555
H15 O19 1.077467 1_555
H15 O15 1.393898 1_555
H16 O28 0.997308 1_555
H17 O29 0.997308 1_555
H18 O30 0.997308 1_555
H19 O31 0.997308 1_555
H20 N0 1.026856 1_555
H21 N1 1.026856 1_555
H22 N2 1.026856 1_555
H23 N3 1.026856 1_555
H24 N8 1.025137 1_545
H25 N9 1.025137 1_565
H26 N10 1.025137 1_565
H27 N11 1.025137 1_545
H28 O20 0.999875 1_555
H29 O21 0.999875 1_555
H30 O22 0.999875 1_555
H31 O23 0.999875 1_555
H32 O28 0.984084 1_555
H33 O29 0.984084 1_455
H34 O30 0.984084 1_555
H35 O31 0.984084 1_655
H36 O0 1.085235 1_555
H36 O20 1.395917 1_555
H37 O1 1.085235 1_555
H37 O21 1.395917 1_555
H38 O2 1.085235 1_555
H38 O22 1.395917 1_555
H39 O3 1.085235 1_555
H39 O23 1.395917 1_555
N0 P8 1.670355 1_555
N0 P0 1.674068 1_555
N1 P9 1.670355 1_555
N1 P1 1.674068 1_555
N2 P10 1.670355 1_555
N2 P2 1.674068 1_555
N3 P11 1.670355 1_555
N3 P3 1.674068 1_555
N4 P4 1.655794 1_565
N4 P8 1.659884 1_555
N5 P5 1.655794 1_545
N5 P9 1.659884 1_555
N6 P6 1.655794 1_545
N6 P10 1.659884 1_555
N7 P7 1.655794 1_565
N7 P11 1.659884 1_555
N8 P4 1.673162 1_565
N8 P0 1.685162 1_555
N9 P5 1.673162 1_545
N9 P1 1.685162 1_555
N10 P6 1.673162 1_545
N10 P2 1.685162 1_555
N11 P7 1.673162 1_565
N11 P3 1.685162 1_555
O0 P0 1.550057 1_555
O1 P1 1.550057 1_555
O2 P2 1.550057 1_555
O3 P3 1.550057 1_555
O4 P4 1.574335 1_555
O5 P5 1.574335 1_555
O6 P6 1.574335 1_555
O7 P7 1.574335 1_555
O8 P8 1.505367 1_555
O9 P9 1.505367 1_555
O10 P10 1.505367 1_555
O11 P11 1.505367 1_555
O12 P4 1.502110 1_555
O13 P5 1.502110 1_555
O14 P6 1.502110 1_555
O15 P7 1.502110 1_555
O16 P8 1.564906 1_555
O17 P9 1.564906 1_555
O18 P10 1.564906 1_555
O19 P11 1.564906 1_555
O24 P0 1.493570 1_555
O25 P1 1.493570 1_555
O26 P2 1.493570 1_555
O27 P3 1.493570 1_555
