# generated using pymatgen
data_V7O4
_symmetry_space_group_name_H-M   'P 1'
_cell_length_a   5.37440391
_cell_length_b   5.37440391
_cell_length_c   8.76474098
_cell_angle_alpha   88.36116955
_cell_angle_beta   88.36116955
_cell_angle_gamma   33.93722805
_symmetry_Int_Tables_number   1
_chemical_formula_structural   V7O4
_chemical_formula_sum   'V7 O4'
_cell_volume   141.27355402
_cell_formula_units_Z   1
loop_
 _symmetry_equiv_pos_site_id
 _symmetry_equiv_pos_as_xyz
  1  'x, y, z'
loop_
 _atom_site_type_symbol
 _atom_site_label
 _atom_site_symmetry_multiplicity
 _atom_site_fract_x
 _atom_site_fract_y
 _atom_site_fract_z
 _atom_site_occupancy
  V  V0  1  0.44393800  0.44393800  0.30910800  1
  V  V1  1  0.55606200  0.55606200  0.69089200  1
  V  V2  1  0.84526200  0.84526200  0.55358800  1
  V  V3  1  0.15473800  0.15473800  0.44641200  1
  V  V4  1  0.72573200  0.72573200  0.16018200  1
  V  V5  1  0.27426800  0.27426800  0.83981800  1
  V  V6  1  0.00000000  0.00000000  0.00000000  1
  O  O0  1  0.36120000  0.36120000  0.07526700  1
  O  O1  1  0.63880000  0.63880000  0.92473300  1
  O  O2  1  0.08194700  0.08194700  0.22403200  1
  O  O3  1  0.91805300  0.91805300  0.77596800  1
loop_
_geom_bond_atom_site_label_1
_geom_bond_atom_site_label_2
_geom_bond_distance
_geom_bond_site_symmetry_2
O0 V6 2.208031 1_565
O0 V6 2.208031 1_655
O0 V4 2.211750 1_455
O0 V4 2.211750 1_545
O0 V0 2.242429 1_555
O0 V5 2.273259 1_554
O1 V6 2.208031 1_566
O1 V6 2.208031 1_656
O1 V5 2.211750 1_565
O1 V5 2.211750 1_655
O1 V1 2.242429 1_555
O1 V4 2.273259 1_556
O2 V3 2.108617 1_555
O2 V6 2.159715 1_555
O2 V4 2.215649 1_545
O2 V4 2.215649 1_455
O2 V0 2.228476 1_545
O2 V0 2.228476 1_455
O3 V2 2.108617 1_555
O3 V6 2.159715 1_666
O3 V5 2.215649 1_655
O3 V5 2.215649 1_565
O3 V1 2.228476 1_565
O3 V1 2.228476 1_655
