# generated using pymatgen
data_Ca5P3O13
_symmetry_space_group_name_H-M   'P 1'
_cell_length_a   6.92779700
_cell_length_b   9.53049500
_cell_length_c   19.06583700
_cell_angle_alpha   60.01551513
_cell_angle_beta   90.00000000
_cell_angle_gamma   90.00000000
_symmetry_Int_Tables_number   1
_chemical_formula_structural   Ca5P3O13
_chemical_formula_sum   'Ca20 P12 O52'
_cell_volume   1090.34765876
_cell_formula_units_Z   4
loop_
 _symmetry_equiv_pos_site_id
 _symmetry_equiv_pos_as_xyz
  1  'x, y, z'
loop_
 _atom_site_type_symbol
 _atom_site_label
 _atom_site_symmetry_multiplicity
 _atom_site_fract_x
 _atom_site_fract_y
 _atom_site_fract_z
 _atom_site_occupancy
  Ca  Ca0  1  0.50302500  0.83271200  0.91280600  1
  Ca  Ca1  1  0.00302500  0.16728800  0.58719400  1
  Ca  Ca2  1  0.49697500  0.16728800  0.08719400  1
  Ca  Ca3  1  0.99697500  0.83271200  0.41280600  1
  Ca  Ca4  1  0.99974300  0.83519500  0.92065900  1
  Ca  Ca5  1  0.49974300  0.16480500  0.57934100  1
  Ca  Ca6  1  0.00025700  0.16480500  0.07934100  1
  Ca  Ca7  1  0.50025700  0.83519500  0.42065900  1
  Ca  Ca8  1  0.74481400  0.24965700  0.25187500  1
  Ca  Ca9  1  0.24481400  0.75034300  0.24812500  1
  Ca  Ca10  1  0.25518600  0.75034300  0.74812500  1
  Ca  Ca11  1  0.75518600  0.24965700  0.75187500  1
  Ca  Ca12  1  0.25952700  0.25432700  0.87437200  1
  Ca  Ca13  1  0.75952700  0.74567300  0.62562800  1
  Ca  Ca14  1  0.74047300  0.74567300  0.12562800  1
  Ca  Ca15  1  0.24047300  0.25432700  0.37437200  1
  Ca  Ca16  1  0.24251300  0.49538100  0.12648800  1
  Ca  Ca17  1  0.74251300  0.50461900  0.37351200  1
  Ca  Ca18  1  0.75748700  0.50461900  0.87351200  1
  Ca  Ca19  1  0.25748700  0.49538100  0.62648800  1
  P  P0  1  0.74526000  0.46930000  0.06580500  1
  P  P1  1  0.24526000  0.53070000  0.43419500  1
  P  P2  1  0.25474000  0.53070000  0.93419500  1
  P  P3  1  0.75474000  0.46930000  0.56580500  1
  P  P4  1  0.74478800  0.89711000  0.23550100  1
  P  P5  1  0.24478800  0.10289000  0.26449900  1
  P  P6  1  0.25521200  0.10289000  0.76449900  1
  P  P7  1  0.75521200  0.89711000  0.73550100  1
  P  P8  1  0.24719700  0.86961800  0.05089100  1
  P  P9  1  0.74719700  0.13038200  0.44910900  1
  P  P10  1  0.75280300  0.13038200  0.94910900  1
  P  P11  1  0.25280300  0.86961800  0.55089100  1
  O  O0  1  0.73963500  0.65486000  0.00774000  1
  O  O1  1  0.23963500  0.34514000  0.49226000  1
  O  O2  1  0.26036500  0.34514000  0.99226000  1
  O  O3  1  0.76036500  0.65486000  0.50774000  1
  O  O4  1  0.24151700  0.17170100  0.17154700  1
  O  O5  1  0.74151700  0.82829900  0.32845300  1
  O  O6  1  0.75848300  0.82829900  0.82845300  1
  O  O7  1  0.25848300  0.17170100  0.67154700  1
  O  O8  1  0.75383300  0.01466400  0.91388600  1
  O  O9  1  0.25383300  0.98533600  0.58611400  1
  O  O10  1  0.24616700  0.98533600  0.08611400  1
  O  O11  1  0.74616700  0.01466400  0.41388600  1
  O  O12  1  0.76139200  0.37676800  0.01764100  1
  O  O13  1  0.26139200  0.62323200  0.48235900  1
  O  O14  1  0.23860800  0.62323200  0.98235900  1
  O  O15  1  0.73860800  0.37676800  0.51764100  1
  O  O16  1  0.75459800  0.08602900  0.18866800  1
  O  O17  1  0.25459800  0.91397100  0.31133200  1
  O  O18  1  0.24540200  0.91397100  0.81133200  1
  O  O19  1  0.74540200  0.08602900  0.68866800  1
  O  O20  1  0.27242600  0.96500700  0.95691100  1
  O  O21  1  0.77242600  0.03499300  0.54308900  1
  O  O22  1  0.72757400  0.03499300  0.04308900  1
  O  O23  1  0.22757400  0.96500700  0.45691100  1
  O  O24  1  0.55959900  0.40675200  0.11851200  1
  O  O25  1  0.05959900  0.59324800  0.38148800  1
  O  O26  1  0.44040100  0.59324800  0.88148800  1
  O  O27  1  0.94040100  0.40675200  0.61851200  1
  O  O28  1  0.56133600  0.84730300  0.20662900  1
  O  O29  1  0.06133600  0.15269700  0.29337100  1
  O  O30  1  0.43866400  0.15269700  0.79337100  1
  O  O31  1  0.93866400  0.84730300  0.70662900  1
  O  O32  1  0.05478300  0.77385500  0.06828600  1
  O  O33  1  0.55478300  0.22614500  0.43171400  1
  O  O34  1  0.94521700  0.22614500  0.93171400  1
  O  O35  1  0.44521700  0.77385500  0.56828600  1
  O  O36  1  0.91961100  0.42104400  0.12458000  1
  O  O37  1  0.41961100  0.57895600  0.37542000  1
  O  O38  1  0.08038900  0.57895600  0.87542000  1
  O  O39  1  0.58038900  0.42104400  0.62458000  1
  O  O40  1  0.92176700  0.83329300  0.20957900  1
  O  O41  1  0.42176700  0.16670700  0.29042100  1
  O  O42  1  0.07823300  0.16670700  0.79042100  1
  O  O43  1  0.57823300  0.83329300  0.70957900  1
  O  O44  1  0.41392100  0.74475000  0.08873800  1
  O  O45  1  0.91392100  0.25525000  0.41126200  1
  O  O46  1  0.58607900  0.25525000  0.91126200  1
  O  O47  1  0.08607900  0.74475000  0.58873800  1
  O  O48  1  0.71233300  0.49796300  0.25112600  1
  O  O49  1  0.21233300  0.50203700  0.24887400  1
  O  O50  1  0.28766700  0.50203700  0.74887400  1
  O  O51  1  0.78766700  0.49796300  0.75112600  1
loop_
_geom_bond_atom_site_label_1
_geom_bond_atom_site_label_2
_geom_bond_distance
_geom_bond_site_symmetry_2
Ca0 O0 2.401992 1_556
Ca0 O6 2.405813 1_555
Ca0 O20 2.430782 1_555
Ca0 O18 2.455716 1_555
Ca0 O8 2.462166 1_565
Ca0 O14 2.540409 1_555
Ca0 O26 2.667455 1_555
Ca0 O30 2.782655 1_565
Ca1 O1 2.401992 1_555
Ca1 O7 2.405813 1_555
Ca1 O21 2.430782 1_455
Ca1 O19 2.455716 1_455
Ca1 O9 2.462166 1_545
Ca1 O15 2.540409 1_455
Ca1 O27 2.667455 1_455
Ca1 O31 2.782655 1_445
Ca2 O2 2.401992 1_554
Ca2 O4 2.405813 1_555
Ca2 O22 2.430782 1_555
Ca2 O16 2.455716 1_555
Ca2 O10 2.462166 1_545
Ca2 O12 2.540409 1_555
Ca2 O24 2.667455 1_555
Ca2 O28 2.782655 1_545
Ca3 O3 2.401992 1_555
Ca3 O5 2.405813 1_555
Ca3 O23 2.430782 1_655
Ca3 O17 2.455716 1_655
Ca3 O11 2.462166 1_565
Ca3 O13 2.540409 1_655
Ca3 O25 2.667455 1_655
Ca3 O29 2.782655 1_665
Ca4 O8 2.371450 1_565
Ca4 O14 2.414084 1_655
Ca4 O6 2.450284 1_555
Ca4 O0 2.470900 1_556
Ca4 O18 2.498124 1_655
Ca4 O20 2.536078 1_655
Ca4 O32 2.600893 1_656
Ca4 O42 2.932937 1_665
Ca4 O38 3.020798 1_655
Ca5 O9 2.371450 1_545
Ca5 O15 2.414084 1_555
Ca5 O7 2.450284 1_555
Ca5 O1 2.470900 1_555
Ca5 O19 2.498124 1_555
Ca5 O21 2.536078 1_555
Ca5 O33 2.600893 1_555
Ca5 O43 2.932937 1_545
Ca5 O39 3.020798 1_555
Ca6 O10 2.371450 1_545
Ca6 O12 2.414084 1_455
Ca6 O4 2.450284 1_555
Ca6 O2 2.470900 1_554
Ca6 O16 2.498124 1_455
Ca6 O22 2.536078 1_455
Ca6 O34 2.600893 1_454
Ca6 O40 2.932937 1_445
Ca6 O36 3.020798 1_455
Ca7 O11 2.371450 1_565
Ca7 O13 2.414084 1_555
Ca7 O5 2.450284 1_555
Ca7 O3 2.470900 1_555
Ca7 O17 2.498124 1_555
Ca7 O23 2.536078 1_555
Ca7 O35 2.600893 1_555
Ca7 O41 2.932937 1_565
Ca7 O37 3.020798 1_555
Ca8 O29 2.357429 1_655
Ca8 O41 2.364956 1_555
Ca8 O48 2.370081 1_555
Ca8 O16 2.401491 1_555
Ca8 O36 2.462173 1_555
Ca8 O24 2.558931 1_555
Ca8 O11 2.764497 1_555
Ca9 O28 2.357429 1_555
Ca9 O40 2.364956 1_455
Ca9 O49 2.370081 1_555
Ca9 O17 2.401491 1_555
Ca9 O37 2.462173 1_555
Ca9 O25 2.558931 1_555
Ca9 O10 2.764497 1_555
Ca10 O31 2.357429 1_455
Ca10 O43 2.364956 1_555
Ca10 O50 2.370081 1_555
Ca10 O18 2.401491 1_555
Ca10 O38 2.462173 1_555
Ca10 O26 2.558931 1_555
Ca10 O9 2.764497 1_555
Ca11 O30 2.357429 1_555
Ca11 O42 2.364956 1_655
Ca11 O51 2.370081 1_555
Ca11 O19 2.401491 1_555
Ca11 O39 2.462173 1_555
Ca11 O27 2.558931 1_555
Ca11 O8 2.764497 1_555
Ca12 O46 2.370419 1_555
Ca12 O50 2.385459 1_555
Ca12 O34 2.390666 1_455
Ca12 O20 2.397985 1_545
Ca12 O42 2.484484 1_555
Ca12 O30 2.521597 1_555
Ca12 O2 2.783050 1_555
Ca13 O47 2.370419 1_655
Ca13 O51 2.385459 1_555
Ca13 O35 2.390666 1_555
Ca13 O21 2.397985 1_565
Ca13 O43 2.484484 1_555
Ca13 O31 2.521597 1_555
Ca13 O3 2.783050 1_555
Ca14 O44 2.370419 1_555
Ca14 O48 2.385459 1_555
Ca14 O32 2.390666 1_655
Ca14 O22 2.397985 1_565
Ca14 O40 2.484484 1_555
Ca14 O28 2.521597 1_555
Ca14 O0 2.783050 1_555
Ca15 O45 2.370419 1_455
Ca15 O49 2.385459 1_555
Ca15 O33 2.390666 1_555
Ca15 O23 2.397985 1_545
Ca15 O41 2.484484 1_555
Ca15 O29 2.521597 1_555
Ca15 O1 2.783050 1_555
Ca16 O36 2.352271 1_455
Ca16 O49 2.374953 1_555
Ca16 O14 2.385343 1_554
Ca16 O24 2.385481 1_555
Ca16 O44 2.422122 1_555
Ca16 O32 2.650061 1_555
Ca16 O4 2.757782 1_555
Ca17 O37 2.352271 1_555
Ca17 O48 2.374953 1_555
Ca17 O15 2.385343 1_555
Ca17 O25 2.385481 1_655
Ca17 O45 2.422122 1_555
Ca17 O33 2.650061 1_555
Ca17 O5 2.757782 1_555
Ca18 O38 2.352271 1_655
Ca18 O51 2.374953 1_555
Ca18 O12 2.385343 1_556
Ca18 O26 2.385481 1_555
Ca18 O46 2.422122 1_555
Ca18 O34 2.650061 1_555
Ca18 O6 2.757782 1_555
Ca19 O39 2.352271 1_555
Ca19 O50 2.374953 1_555
Ca19 O13 2.385343 1_555
Ca19 O27 2.385481 1_455
Ca19 O47 2.422122 1_555
Ca19 O35 2.650061 1_555
Ca19 O7 2.757782 1_555
O0 P0 1.548458 1_555
O1 P1 1.548458 1_555
O2 P2 1.548458 1_555
O3 P3 1.548458 1_555
O4 P5 1.552301 1_555
O5 P4 1.552301 1_555
O6 P7 1.552301 1_555
O7 P6 1.552301 1_555
O8 P10 1.551642 1_555
O9 P11 1.551642 1_555
O10 P8 1.551642 1_555
O11 P9 1.551642 1_555
O12 P0 1.562972 1_555
O13 P1 1.562972 1_555
O14 P2 1.562972 1_555
O15 P3 1.562972 1_555
O16 P4 1.561011 1_545
O17 P5 1.561011 1_565
O18 P6 1.561011 1_565
O19 P7 1.561011 1_545
O20 P8 1.561863 1_556
O21 P9 1.561863 1_555
O22 P10 1.561863 1_554
O23 P11 1.561863 1_555
O24 P0 1.555890 1_555
O25 P1 1.555890 1_555
O26 P2 1.555890 1_555
O27 P3 1.555890 1_555
O28 P4 1.550726 1_555
O29 P5 1.550726 1_555
O30 P6 1.550726 1_555
O31 P7 1.550726 1_555
O32 P8 1.554771 1_555
O33 P9 1.554771 1_555
O34 P10 1.554771 1_555
O35 P11 1.554771 1_555
O36 P0 1.552761 1_555
O37 P1 1.552761 1_555
O38 P2 1.552761 1_555
O39 P3 1.552761 1_555
O40 P4 1.554955 1_555
O41 P5 1.554955 1_555
O42 P6 1.554955 1_555
O43 P7 1.554955 1_555
O44 P8 1.553282 1_555
O45 P9 1.553282 1_555
O46 P10 1.553282 1_555
O47 P11 1.553282 1_555
