# generated using pymatgen
data_Sr8RuRh3O16
_symmetry_space_group_name_H-M   'P 1'
_cell_length_a   13.59963821
_cell_length_b   13.59963821
_cell_length_c   13.59963821
_cell_angle_alpha   156.54969243
_cell_angle_beta   156.54969243
_cell_angle_gamma   33.40382352
_symmetry_Int_Tables_number   1
_chemical_formula_structural   Sr8RuRh3O16
_chemical_formula_sum   'Sr8 Ru1 Rh3 O16'
_cell_volume   397.96377562
_cell_formula_units_Z   1
loop_
 _symmetry_equiv_pos_site_id
 _symmetry_equiv_pos_as_xyz
  1  'x, y, z'
loop_
 _atom_site_type_symbol
 _atom_site_label
 _atom_site_symmetry_multiplicity
 _atom_site_fract_x
 _atom_site_fract_y
 _atom_site_fract_z
 _atom_site_occupancy
  Sr  Sr0  1  0.92642500  0.42642500  0.50000000  1
  Sr  Sr1  1  0.42595000  0.92595000  0.50000000  1
  Sr  Sr2  1  0.32500600  0.32500600  0.00000000  1
  Sr  Sr3  1  0.82500100  0.82500100  0.00000000  1
  Sr  Sr4  1  0.57357500  0.07357500  0.50000000  1
  Sr  Sr5  1  0.07405000  0.57405000  0.50000000  1
  Sr  Sr6  1  0.67499400  0.67499400  0.00000000  1
  Sr  Sr7  1  0.17499900  0.17499900  0.00000000  1
  Ru  Ru0  1  0.75000000  0.25000000  0.50000000  1
  Rh  Rh0  1  0.25000000  0.75000000  0.50000000  1
  Rh  Rh1  1  0.50000000  0.50000000  0.00000000  1
  Rh  Rh2  1  0.00000000  0.00000000  0.00000000  1
  O  O0  1  0.82917700  0.32917700  0.50000000  1
  O  O1  1  0.33089300  0.83089300  0.50000000  1
  O  O2  1  0.41943100  0.41943100  0.00000000  1
  O  O3  1  0.91942100  0.91942100  0.00000000  1
  O  O4  1  0.67082300  0.17082300  0.50000000  1
  O  O5  1  0.16910700  0.66910700  0.50000000  1
  O  O6  1  0.58056900  0.58056900  0.00000000  1
  O  O7  1  0.08057900  0.08057900  0.00000000  1
  O  O8  1  0.30138300  0.19859800  0.49997700  1
  O  O9  1  0.19859400  0.69861700  0.89721500  1
  O  O10  1  0.55192900  0.95576100  0.00769900  1
  O  O11  1  0.45576900  0.44807100  0.40383100  1
  O  O12  1  0.69862100  0.80140600  0.50002300  1
  O  O13  1  0.80140200  0.30137900  0.10278500  1
  O  O14  1  0.94806200  0.54423100  0.99230100  1
  O  O15  1  0.04423900  0.05193800  0.59616900  1
loop_
_geom_bond_atom_site_label_1
_geom_bond_atom_site_label_2
_geom_bond_distance
_geom_bond_site_symmetry_2
O0 Ru0 2.062705 1_555
O0 Sr0 2.533487 1_555
O0 Sr2 2.765815 1_555
O0 Sr2 2.765815 1_656
O0 Sr3 2.765820 1_556
O0 Sr3 2.765820 1_545
O1 Rh0 2.107410 1_555
O1 Sr1 2.476408 1_555
O1 Sr2 2.767932 1_566
O1 Sr2 2.767932 1_555
O1 Sr3 2.767939 1_455
O1 Sr3 2.767939 1_556
O2 Rh1 2.098969 1_555
O2 Sr2 2.459943 1_555
O2 Sr1 2.768893 1_555
O2 Sr1 2.768893 1_544
O2 Sr0 2.769680 1_555
O2 Sr0 2.769680 1_454
O3 Rh2 2.099229 1_665
O3 Sr3 2.459813 1_555
O3 Sr1 2.768909 1_554
O3 Sr1 2.768909 1_655
O3 Sr0 2.769697 1_554
O3 Sr0 2.769697 1_565
O4 Ru0 2.062705 1_555
O4 Sr4 2.533487 1_555
O4 Sr6 2.765815 1_556
O4 Sr6 2.765815 1_545
O4 Sr7 2.765820 1_555
O4 Sr7 2.765820 1_656
O5 Rh0 2.107410 1_555
O5 Sr5 2.476408 1_555
O5 Sr6 2.767932 1_455
O5 Sr6 2.767932 1_556
O5 Sr7 2.767939 1_555
O5 Sr7 2.767939 1_566
O6 Rh1 2.098969 1_555
O6 Sr6 2.459943 1_555
O6 Sr5 2.768893 1_554
O6 Sr5 2.768893 1_655
O6 Sr4 2.769680 1_554
O6 Sr4 2.769680 1_565
O7 Rh2 2.099229 1_555
O7 Sr7 2.459813 1_555
O7 Sr5 2.768909 1_544
O7 Sr5 2.768909 1_555
O7 Sr4 2.769697 1_454
O7 Sr4 2.769697 1_555
O8 Rh2 1.994993 1_555
O8 Rh1 1.995169 1_556
O8 Sr4 2.466576 1_555
O8 Sr1 2.476286 1_545
O8 Sr0 3.037212 1_455
O9 Rh2 1.994993 1_566
O9 Rh1 1.995169 1_556
O9 Sr0 2.466576 1_455
O9 Sr5 2.476286 1_555
O9 Sr4 3.037212 1_566
O10 Ru0 1.960494 1_565
O10 Rh0 2.019592 1_554
O10 Sr6 2.511956 1_555
O10 Sr3 2.512037 1_555
O11 Ru0 1.960498 1_555
O11 Rh0 2.019589 1_555
O11 Sr2 2.511953 1_555
O11 Sr7 2.512034 1_555
O12 Rh2 1.994993 1_666
O12 Rh1 1.995169 1_555
O12 Sr4 2.466576 1_565
O12 Sr1 2.476286 1_555
O12 Sr0 3.037212 1_555
O13 Rh2 1.994993 1_655
O13 Rh1 1.995169 1_555
O13 Sr0 2.466576 1_555
O13 Sr5 2.476286 1_655
O13 Sr4 3.037212 1_554
O14 Ru0 1.960494 1_555
O14 Rh0 2.019593 1_656
O14 Sr6 2.511963 1_556
O14 Sr3 2.512024 1_556
O15 Ru0 1.960494 1_455
O15 Rh0 2.019593 1_545
O15 Sr2 2.511963 1_556
O15 Sr7 2.512024 1_556
