# generated using pymatgen
data_MgTl2Pb16(Br9O4)2
_symmetry_space_group_name_H-M   'P 1'
_cell_length_a   8.58028292
_cell_length_b   12.72831855
_cell_length_c   12.73616871
_cell_angle_alpha   91.26734818
_cell_angle_beta   90.00000000
_cell_angle_gamma   90.00000000
_symmetry_Int_Tables_number   1
_chemical_formula_structural   MgTl2Pb16(Br9O4)2
_chemical_formula_sum   'Mg1 Tl2 Pb16 Br18 O8'
_cell_volume   1390.60951125
_cell_formula_units_Z   1
loop_
 _symmetry_equiv_pos_site_id
 _symmetry_equiv_pos_as_xyz
  1  'x, y, z'
loop_
 _atom_site_type_symbol
 _atom_site_label
 _atom_site_symmetry_multiplicity
 _atom_site_fract_x
 _atom_site_fract_y
 _atom_site_fract_z
 _atom_site_occupancy
  Mg  Mg0  1  0.74152858  0.75000000  0.25000000  1
  Tl  Tl0  1  0.63060766  0.75000000  0.75000000  1
  Tl  Tl1  1  0.31626146  0.25000000  0.25000000  1
  Pb  Pb0  1  0.81731057  0.34204330  0.97831481  1
  Pb  Pb1  1  0.35446281  0.19051941  0.61510473  1
  Pb  Pb2  1  0.17760749  0.66103995  0.03272723  1
  Pb  Pb3  1  0.63991820  0.38293684  0.69334629  1
  Pb  Pb4  1  0.63991820  0.11706316  0.80665371  1
  Pb  Pb5  1  0.62740243  0.80569556  0.46978006  1
  Pb  Pb6  1  0.17760749  0.83896005  0.46727277  1
  Pb  Pb7  1  0.82767227  0.99044737  0.14974582  1
  Pb  Pb8  1  0.39232614  0.61675599  0.30396426  1
  Pb  Pb9  1  0.17306468  0.47310995  0.66485612  1
  Pb  Pb10  1  0.81731057  0.15795670  0.52168519  1
  Pb  Pb11  1  0.39232614  0.88324401  0.19603574  1
  Pb  Pb12  1  0.35446281  0.30948059  0.88489527  1
  Pb  Pb13  1  0.17306468  0.02689005  0.83514388  1
  Pb  Pb14  1  0.62740243  0.69430444  0.03021994  1
  Pb  Pb15  1  0.82767227  0.50955263  0.35025418  1
  Br  Br0  1  0.90081326  0.87096544  0.95444552  1
  Br  Br1  1  0.11408569  0.14563745  0.03792944  1
  Br  Br2  1  0.11878228  0.46035715  0.13790700  1
  Br  Br3  1  0.60533839  0.45328237  0.12299397  1
  Br  Br4  1  0.37358631  0.56668028  0.86188533  1
  Br  Br5  1  0.38214385  0.62289278  0.56781164  1
  Br  Br6  1  0.11408569  0.35436255  0.46207056  1
  Br  Br7  1  0.11878228  0.03964285  0.36209300  1
  Br  Br8  1  0.60533839  0.04671763  0.37700603  1
  Br  Br9  1  0.03497111  0.75000000  0.25000000  1
  Br  Br10  1  0.86974869  0.95748346  0.63092556  1
  Br  Br11  1  0.37358631  0.93331972  0.63811467  1
  Br  Br12  1  0.86974869  0.54251654  0.86907444  1
  Br  Br13  1  0.60802738  0.35655879  0.42819845  1
  Br  Br14  1  0.38214385  0.87710722  0.93218836  1
  Br  Br15  1  0.90081326  0.62903456  0.54555448  1
  Br  Br16  1  0.60802738  0.14344121  0.07180155  1
  Br  Br17  1  0.99358183  0.25000000  0.75000000  1
  O  O0  1  0.62466691  0.19983917  0.64327709  1
  O  O1  1  0.37150318  0.14507302  0.79773491  1
  O  O2  1  0.39109702  0.70254549  0.13736001  1
  O  O3  1  0.65087312  0.64345452  0.33608619  1
  O  O4  1  0.65087312  0.85654548  0.16391381  1
  O  O5  1  0.37150318  0.35492698  0.70226509  1
  O  O6  1  0.62466691  0.30016083  0.85672291  1
  O  O7  1  0.39109702  0.79745451  0.36263999  1
loop_
_geom_bond_atom_site_label_1
_geom_bond_atom_site_label_2
_geom_bond_distance
_geom_bond_site_symmetry_2
Mg0 O4 1.926671 1_555
Mg0 O3 1.926671 1_555
Br0 Pb7 2.954049 1_556
Br1 Pb13 3.006378 1_554
Br2 Pb2 2.953869 1_555
Br3 Pb0 2.931327 1_554
Br3 Pb14 3.317192 1_555
Br4 Pb2 2.981432 1_556
Br4 Pb9 3.247086 1_555
Br4 Pb12 3.297345 1_555
Br5 Pb9 2.912874 1_555
Br6 Pb9 3.006378 1_555
Br7 Pb6 2.953869 1_545
Br8 Pb10 2.931327 1_555
Br8 Pb5 3.317192 1_545
Br9 Mg0 2.517820 1_455
Br9 Pb2 3.209187 1_555
Br9 Pb6 3.209187 1_555
Br10 Pb10 2.967544 1_565
Br11 Pb6 2.981432 1_555
Br11 Pb13 3.247086 1_565
Br11 Pb1 3.297345 1_565
Br12 Pb0 2.967544 1_555
Br13 Pb15 2.900854 1_555
Br14 Pb13 2.912874 1_565
Br15 Pb15 2.954049 1_555
Br16 Pb7 2.900854 1_545
O0 Pb10 2.319069 1_555
O0 Pb1 2.348625 1_555
O0 Pb4 2.356665 1_555
O0 Pb3 2.406113 1_555
O1 Pb13 2.328214 1_555
O1 Pb4 2.333659 1_555
O1 Pb12 2.351601 1_555
O1 Pb1 2.413674 1_555
O2 Pb2 2.319337 1_555
O2 Pb11 2.402601 1_555
O2 Pb8 2.407786 1_555
O2 Pb14 2.444935 1_555
O3 Pb8 2.279919 1_555
O3 Pb15 2.291770 1_555
O3 Pb5 2.654961 1_555
O4 Pb11 2.279919 1_555
O4 Pb7 2.291770 1_555
O4 Pb14 2.654961 1_555
O5 Pb9 2.328214 1_555
O5 Pb3 2.333659 1_555
O5 Pb1 2.351601 1_555
O5 Pb12 2.413674 1_555
O6 Pb0 2.319069 1_555
O6 Pb12 2.348625 1_555
O6 Pb3 2.356665 1_555
O6 Pb4 2.406113 1_555
O7 Pb6 2.319337 1_555
O7 Pb8 2.402601 1_555
O7 Pb11 2.407786 1_555
O7 Pb5 2.444935 1_555
