# generated using pymatgen
data_NiSO4
_symmetry_space_group_name_H-M   'P 1'
_cell_length_a   4.69525182
_cell_length_b   4.69525120
_cell_length_c   6.26525632
_cell_angle_alpha   90.00000000
_cell_angle_beta   90.00000000
_cell_angle_gamma   113.46140229
_symmetry_Int_Tables_number   1
_chemical_formula_structural   NiSO4
_chemical_formula_sum   'Ni2 S2 O8'
_cell_volume   126.70140929
_cell_formula_units_Z   2
loop_
 _symmetry_equiv_pos_site_id
 _symmetry_equiv_pos_as_xyz
  1  'x, y, z'
loop_
 _atom_site_type_symbol
 _atom_site_label
 _atom_site_symmetry_multiplicity
 _atom_site_fract_x
 _atom_site_fract_y
 _atom_site_fract_z
 _atom_site_occupancy
  Ni  Ni0  1  0.00000000  0.00000000  0.50000000  1
  Ni  Ni1  1  0.00000000  0.00000000  0.00000000  1
  S  S0  1  0.64902464  0.35097336  0.25000000  1
  S  S1  1  0.35097536  0.64902664  0.75000000  1
  O  O0  1  0.22891923  0.30014583  0.75000000  1
  O  O1  1  0.77108077  0.69985417  0.25000000  1
  O  O2  1  0.30014483  0.22892023  0.25000000  1
  O  O3  1  0.69985517  0.77107977  0.75000000  1
  O  O4  1  0.25116674  0.74883526  0.94459047  1
  O  O5  1  0.74883326  0.25116474  0.44459047  1
  O  O6  1  0.74883326  0.25116474  0.05540953  1
  O  O7  1  0.25116674  0.74883526  0.55540953  1
loop_
_geom_bond_atom_site_label_1
_geom_bond_atom_site_label_2
_geom_bond_distance
_geom_bond_site_symmetry_2
Ni0 O5 2.002330 1_455
Ni0 O7 2.002330 1_545
Ni0 O2 2.094875 1_555
Ni0 O3 2.094875 1_445
Ni0 O1 2.094876 1_445
Ni0 O0 2.094876 1_555
Ni1 O6 2.002330 1_455
Ni1 O4 2.002330 1_544
Ni1 O2 2.094875 1_555
Ni1 O3 2.094875 1_444
Ni1 O1 2.094876 1_445
Ni1 O0 2.094876 1_554
O0 S1 1.504740 1_555
O1 S0 1.504740 1_555
O2 S0 1.504737 1_555
O3 S1 1.504737 1_555
O4 S1 1.449289 1_555
O5 S0 1.449289 1_555
O6 S0 1.449289 1_555
O7 S1 1.449289 1_555
