# generated using pymatgen
data_Zr3NbCr4F24
_symmetry_space_group_name_H-M   'P 1'
_cell_length_a   5.83777212
_cell_length_b   8.05410625
_cell_length_c   11.62931541
_cell_angle_alpha   90.00000000
_cell_angle_beta   89.96926856
_cell_angle_gamma   90.00000000
_symmetry_Int_Tables_number   1
_chemical_formula_structural   Zr3NbCr4F24
_chemical_formula_sum   'Zr3 Nb1 Cr4 F24'
_cell_volume   546.78750221
_cell_formula_units_Z   1
loop_
 _symmetry_equiv_pos_site_id
 _symmetry_equiv_pos_as_xyz
  1  'x, y, z'
loop_
 _atom_site_type_symbol
 _atom_site_label
 _atom_site_symmetry_multiplicity
 _atom_site_fract_x
 _atom_site_fract_y
 _atom_site_fract_z
 _atom_site_occupancy
  Zr  Zr0  1  0.22614644  0.75000000  0.62554464  1
  Zr  Zr1  1  0.72452793  0.25000000  0.87434924  1
  Zr  Zr2  1  0.77225187  0.25000000  0.37382499  1
  Nb  Nb0  1  0.26762897  0.75000000  0.12619816  1
  Cr  Cr0  1  0.75260068  0.75000000  0.37325953  1
  Cr  Cr1  1  0.74647539  0.75000000  0.87745409  1
  Cr  Cr2  1  0.24599034  0.25000000  0.62417160  1
  Cr  Cr3  1  0.25001259  0.25000000  0.12405230  1
  F  F0  1  0.45585965  0.75000000  0.75025121  1
  F  F1  1  0.06721953  0.75000000  0.26186983  1
  F  F2  1  0.54450443  0.25000000  0.24946739  1
  F  F3  1  0.95157842  0.25000000  0.74893651  1
  F  F4  1  0.45778965  0.75000000  0.50079733  1
  F  F5  1  0.06320410  0.75000000  0.99229539  1
  F  F6  1  0.54513481  0.25000000  0.49984306  1
  F  F7  1  0.95186902  0.25000000  0.99953519  1
  F  F8  1  0.76734458  0.50246698  0.37348282  1
  F  F9  1  0.73204563  0.99759912  0.87463572  1
  F  F10  1  0.23029962  0.00120161  0.62562897  1
  F  F11  1  0.26285494  0.49653716  0.12623225  1
  F  F12  1  0.23029962  0.49879839  0.62562897  1
  F  F13  1  0.26285494  0.00346284  0.12623225  1
  F  F14  1  0.76734458  0.99753302  0.37348282  1
  F  F15  1  0.73204563  0.50240088  0.87463572  1
  F  F16  1  0.96816807  0.75000000  0.50627472  1
  F  F17  1  0.53084641  0.75000000  0.00831155  1
  F  F18  1  0.02990416  0.25000000  0.49289900  1
  F  F19  1  0.46570502  0.25000000  0.99190115  1
  F  F20  1  0.96798382  0.75000000  0.74588431  1
  F  F21  1  0.53190157  0.75000000  0.24397157  1
  F  F22  1  0.02992918  0.25000000  0.25494036  1
  F  F23  1  0.46768042  0.25000000  0.75401032  1
loop_
_geom_bond_atom_site_label_1
_geom_bond_atom_site_label_2
_geom_bond_distance
_geom_bond_site_symmetry_2
Cr0 F21 1.980564 1_555
Cr0 F16 1.994634 1_555
Cr0 F8 1.995516 1_555
Cr0 F14 1.995516 1_555
Cr0 F1 2.246963 1_655
Cr0 F4 2.271355 1_555
Cr1 F17 1.974418 1_556
Cr1 F15 1.996238 1_555
Cr1 F9 1.996238 1_555
Cr1 F20 2.002780 1_555
Cr1 F0 2.251498 1_555
Cr1 F5 2.281456 1_655
Cr2 F18 1.980881 1_555
Cr2 F23 1.989194 1_555
Cr2 F10 2.006012 1_555
Cr2 F12 2.006012 1_555
Cr2 F3 2.248663 1_455
Cr2 F6 2.266602 1_555
Cr3 F19 1.986267 1_554
Cr3 F13 1.987214 1_555
Cr3 F11 1.987214 1_555
Cr3 F22 1.991359 1_555
Cr3 F2 2.255095 1_555
Cr3 F7 2.264701 1_454
F0 Zr0 1.975762 1_555
F1 Nb0 1.963707 1_555
F2 Zr2 1.964996 1_555
F3 Zr1 1.970257 1_555
F4 Zr0 1.982716 1_555
F5 Nb0 1.962403 1_556
F6 Zr2 1.975732 1_555
F7 Zr1 1.970501 1_555
F8 Zr2 2.033602 1_555
F9 Zr1 2.033340 1_565
F10 Zr0 2.023350 1_545
F11 Nb0 2.041607 1_555
F12 Zr0 2.023350 1_555
F13 Nb0 2.041607 1_545
F14 Zr2 2.033602 1_565
F15 Zr1 2.033340 1_555
F16 Zr0 2.047970 1_655
F17 Nb0 2.058730 1_555
F18 Zr2 2.045025 1_455
F19 Zr1 2.037050 1_555
F20 Zr0 2.056108 1_655
F21 Nb0 2.063554 1_555
F22 Zr2 2.042549 1_455
F23 Zr1 2.051582 1_555
