# generated using pymatgen
data_BaEuDySbO6
_symmetry_space_group_name_H-M   'P 1'
_cell_length_a   8.41249485
_cell_length_b   8.44872841
_cell_length_c   8.43903365
_cell_angle_alpha   90.00000000
_cell_angle_beta   90.00000000
_cell_angle_gamma   90.00000000
_symmetry_Int_Tables_number   1
_chemical_formula_structural   BaEuDySbO6
_chemical_formula_sum   'Ba4 Eu4 Dy4 Sb4 O24'
_cell_volume   599.80333976
_cell_formula_units_Z   4
loop_
 _symmetry_equiv_pos_site_id
 _symmetry_equiv_pos_as_xyz
  1  'x, y, z'
loop_
 _atom_site_type_symbol
 _atom_site_label
 _atom_site_symmetry_multiplicity
 _atom_site_fract_x
 _atom_site_fract_y
 _atom_site_fract_z
 _atom_site_occupancy
  Ba  Ba0  1  0.00000000  -0.00000000  0.00000000  1
  Ba  Ba1  1  0.50000000  0.50000000  0.50000000  1
  Ba  Ba2  1  0.00000000  0.50000000  0.50000000  1
  Ba  Ba3  1  0.50000000  0.00000000  0.00000000  1
  Eu  Eu0  1  0.50000000  0.00000000  0.50000000  1
  Eu  Eu1  1  0.50000000  0.50000000  0.00000000  1
  Eu  Eu2  1  0.00000000  0.50000000  0.00000000  1
  Eu  Eu3  1  0.00000000  0.00000000  0.50000000  1
  Dy  Dy0  1  0.75000000  0.75000000  0.75000000  1
  Dy  Dy1  1  0.25000000  0.25000000  0.75000000  1
  Dy  Dy2  1  0.25000000  0.75000000  0.25000000  1
  Dy  Dy3  1  0.75000000  0.25000000  0.25000000  1
  Sb  Sb0  1  0.25000000  0.25000000  0.25000000  1
  Sb  Sb1  1  0.75000000  0.75000000  0.25000000  1
  Sb  Sb2  1  0.75000000  0.25000000  0.75000000  1
  Sb  Sb3  1  0.25000000  0.75000000  0.75000000  1
  O  O0  1  0.01427876  0.22229974  0.28252464  1
  O  O1  1  0.98572124  0.77770026  0.28252464  1
  O  O2  1  0.98572124  0.22229974  0.71747536  1
  O  O3  1  0.01427876  0.77770026  0.71747536  1
  O  O4  1  0.27185014  0.01312845  0.23062528  1
  O  O5  1  0.27185014  0.98687155  0.76937472  1
  O  O6  1  0.72814986  0.98687155  0.23062528  1
  O  O7  1  0.72814986  0.01312845  0.76937472  1
  O  O8  1  0.21653243  0.27433310  0.01429105  1
  O  O9  1  0.78346757  0.27433310  0.98570895  1
  O  O10  1  0.21653243  0.72566690  0.98570895  1
  O  O11  1  0.78346757  0.72566690  0.01429105  1
  O  O12  1  0.48572124  0.27770026  0.21747536  1
  O  O13  1  0.51427876  0.72229974  0.21747536  1
  O  O14  1  0.51427876  0.27770026  0.78252464  1
  O  O15  1  0.48572124  0.72229974  0.78252464  1
  O  O16  1  0.22814986  0.48687155  0.26937472  1
  O  O17  1  0.22814986  0.51312845  0.73062528  1
  O  O18  1  0.77185014  0.51312845  0.26937472  1
  O  O19  1  0.77185014  0.48687155  0.73062528  1
  O  O20  1  0.28346757  0.22566690  0.48570895  1
  O  O21  1  0.71653243  0.22566690  0.51429105  1
  O  O22  1  0.28346757  0.77433310  0.51429105  1
  O  O23  1  0.71653243  0.77433310  0.48570895  1
loop_
_geom_bond_atom_site_label_1
_geom_bond_atom_site_label_2
_geom_bond_distance
_geom_bond_site_symmetry_2
Ba0 O8 2.950378 1_555
Ba0 O11 2.950378 1_445
Ba0 O10 2.950378 1_544
Ba0 O9 2.950378 1_454
Ba0 O7 3.005045 1_454
Ba0 O6 3.005045 1_445
Ba0 O5 3.005045 1_544
Ba0 O4 3.005045 1_555
Ba0 O0 3.037508 1_555
Ba0 O3 3.037508 1_544
Ba0 O2 3.037508 1_454
Ba0 O1 3.037508 1_445
Ba1 O22 2.950378 1_555
Ba1 O20 2.950378 1_555
Ba1 O23 2.950378 1_555
Ba1 O21 2.950378 1_555
Ba1 O16 3.005045 1_555
Ba1 O18 3.005045 1_555
Ba1 O19 3.005045 1_555
Ba1 O17 3.005045 1_555
Ba1 O15 3.037508 1_555
Ba1 O12 3.037508 1_555
Ba1 O13 3.037508 1_555
Ba1 O14 3.037508 1_555
Ba2 O18 2.735682 1_455
Ba2 O16 2.735682 1_555
Ba2 O17 2.735682 1_555
Ba2 O19 2.735682 1_455
Ba2 O2 2.981176 1_455
Ba2 O1 2.981176 1_455
Ba2 O0 2.981176 1_555
Ba2 O3 2.981176 1_555
Ba2 O23 3.327647 1_455
Ba2 O22 3.327647 1_555
Ba2 O20 3.327647 1_555
Ba2 O21 3.327647 1_455
Ba3 O7 2.735682 1_554
Ba3 O5 2.735682 1_544
Ba3 O4 2.735682 1_555
Ba3 O6 2.735682 1_545
Ba3 O14 2.981176 1_554
Ba3 O15 2.981176 1_544
Ba3 O13 2.981176 1_545
Ba3 O12 2.981176 1_555
Ba3 O11 3.327647 1_545
Ba3 O10 3.327647 1_544
Ba3 O9 3.327647 1_554
Ba3 O8 3.327647 1_555
Eu0 O22 2.639661 1_545
Eu0 O21 2.639661 1_555
Eu0 O23 2.639661 1_545
Eu0 O20 2.639661 1_555
Eu0 O4 2.977209 1_555
Eu0 O6 2.977209 1_545
Eu0 O7 2.977209 1_555
Eu0 O5 2.977209 1_545
Eu1 O15 2.628714 1_554
Eu1 O13 2.628714 1_555
Eu1 O12 2.628714 1_555
Eu1 O14 2.628714 1_554
Eu1 O9 3.055538 1_554
Eu1 O10 3.055538 1_554
Eu1 O11 3.055538 1_555
Eu1 O8 3.055538 1_555
Eu2 O8 2.639661 1_555
Eu2 O9 2.639661 1_454
Eu2 O10 2.639661 1_554
Eu2 O11 2.639661 1_455
Eu2 O17 2.977209 1_554
Eu2 O19 2.977209 1_454
Eu2 O16 2.977209 1_555
Eu2 O18 2.977209 1_455
Eu3 O1 2.628714 1_445
Eu3 O0 2.628714 1_555
Eu3 O2 2.628714 1_455
Eu3 O3 2.628714 1_545
Eu3 O23 3.055538 1_445
Eu3 O20 3.055538 1_555
Eu3 O22 3.055538 1_545
Eu3 O21 3.055538 1_455
Dy0 O7 2.236671 1_565
Dy0 O19 2.236671 1_555
Dy0 O15 2.252315 1_555
Dy0 O3 2.252315 1_655
Dy0 O11 2.257442 1_556
Dy0 O23 2.257442 1_555
Dy1 O17 2.236671 1_555
Dy1 O5 2.236671 1_545
Dy1 O2 2.252315 1_455
Dy1 O14 2.252315 1_555
Dy1 O20 2.257442 1_555
Dy1 O8 2.257442 1_556
Dy2 O4 2.236671 1_565
Dy2 O16 2.236671 1_555
Dy2 O1 2.252315 1_455
Dy2 O13 2.252315 1_555
Dy2 O22 2.257442 1_555
Dy2 O10 2.257442 1_554
Dy3 O6 2.236671 1_545
Dy3 O18 2.236671 1_555
Dy3 O12 2.252315 1_555
Dy3 O0 2.252315 1_655
Dy3 O9 2.257442 1_554
Dy3 O21 2.257442 1_555
O0 Sb0 2.015543 1_555
O1 Sb1 2.015543 1_555
O2 Sb2 2.015543 1_555
O3 Sb3 2.015543 1_555
O4 Sb0 2.016327 1_555
O5 Sb3 2.016327 1_555
O6 Sb1 2.016327 1_555
O7 Sb2 2.016327 1_555
O8 Sb0 2.019474 1_555
O9 Sb2 2.019474 1_555
O10 Sb3 2.019474 1_555
O11 Sb1 2.019474 1_555
O12 Sb0 2.015543 1_555
O13 Sb1 2.015543 1_555
O14 Sb2 2.015543 1_555
O15 Sb3 2.015543 1_555
O16 Sb0 2.016327 1_555
O17 Sb3 2.016327 1_555
O18 Sb1 2.016327 1_555
O19 Sb2 2.016327 1_555
O20 Sb0 2.019474 1_555
O21 Sb2 2.019474 1_555
O22 Sb3 2.019474 1_555
O23 Sb1 2.019474 1_555
