# generated using pymatgen
data_K2Sn(AsS3)2
_symmetry_space_group_name_H-M   'P 1'
_cell_length_a   6.78498579
_cell_length_b   6.78498579
_cell_length_c   7.39901500
_cell_angle_alpha   90.00000000
_cell_angle_beta   90.00000000
_cell_angle_gamma   119.99999797
_symmetry_Int_Tables_number   1
_chemical_formula_structural   K2Sn(AsS3)2
_chemical_formula_sum   'K2 Sn1 As2 S6'
_cell_volume   294.98669863
_cell_formula_units_Z   1
loop_
 _symmetry_equiv_pos_site_id
 _symmetry_equiv_pos_as_xyz
  1  'x, y, z'
loop_
 _atom_site_type_symbol
 _atom_site_label
 _atom_site_symmetry_multiplicity
 _atom_site_fract_x
 _atom_site_fract_y
 _atom_site_fract_z
 _atom_site_occupancy
  K  K0  1  0.33333300  0.66666700  0.60168300  1
  K  K1  1  0.66666700  0.33333300  0.39831700  1
  Sn  Sn0  1  0.00000000  0.00000000  0.00000000  1
  As  As0  1  0.33333300  0.66666700  0.06601200  1
  As  As1  1  0.66666700  0.33333300  0.93398800  1
  S  S0  1  0.22913800  0.89072800  0.22179400  1
  S  S1  1  0.89072800  0.66159000  0.77820600  1
  S  S2  1  0.77086200  0.10927200  0.77820600  1
  S  S3  1  0.33841000  0.22913800  0.77820600  1
  S  S4  1  0.66159000  0.77086200  0.22179400  1
  S  S5  1  0.10927200  0.33841000  0.22179400  1
loop_
_geom_bond_atom_site_label_1
_geom_bond_atom_site_label_2
_geom_bond_distance
_geom_bond_site_symmetry_2
K0 S1 3.259148 1_455
K0 S2 3.259151 1_565
K0 S3 3.259155 1_555
K0 S0 3.433124 1_555
K0 S5 3.433126 1_555
K0 S4 3.433127 1_555
K1 S5 3.259148 1_655
K1 S0 3.259151 1_545
K1 S4 3.259155 1_555
K1 S2 3.433124 1_555
K1 S1 3.433126 1_555
K1 S3 3.433127 1_555
As0 S0 2.283480 1_555
As0 S5 2.283484 1_555
As0 S4 2.283485 1_555
As0 K0 3.435577 1_554
As1 S2 2.283480 1_555
As1 S1 2.283484 1_555
As1 S3 2.283485 1_555
As1 K1 3.435577 1_556
S0 Sn0 2.610078 1_565
S1 Sn0 2.610078 1_666
S2 Sn0 2.610078 1_656
S3 Sn0 2.610078 1_556
S4 Sn0 2.610078 1_665
S5 Sn0 2.610078 1_555
