# generated using pymatgen
data_V2NiSb
_symmetry_space_group_name_H-M   'P 1'
_cell_length_a   4.37205254
_cell_length_b   4.37205254
_cell_length_c   4.37205254
_cell_angle_alpha   60.00000000
_cell_angle_beta   60.00000000
_cell_angle_gamma   60.00000000
_symmetry_Int_Tables_number   1
_chemical_formula_structural   V2NiSb
_chemical_formula_sum   'V2 Ni1 Sb1'
_cell_volume   59.09369138
_cell_formula_units_Z   1
loop_
 _symmetry_equiv_pos_site_id
 _symmetry_equiv_pos_as_xyz
  1  'x, y, z'
loop_
 _atom_site_type_symbol
 _atom_site_label
 _atom_site_symmetry_multiplicity
 _atom_site_fract_x
 _atom_site_fract_y
 _atom_site_fract_z
 _atom_site_occupancy
  V  V0  1  0.00000000  0.00000000  0.00000000  1
  V  V1  1  0.25000000  0.25000000  0.25000000  1
  Ni  Ni0  1  0.50000000  0.50000000  0.50000000  1
  Sb  Sb0  1  0.75000000  0.75000000  0.75000000  1
loop_
_geom_bond_atom_site_label_1
_geom_bond_atom_site_label_2
_geom_bond_distance
_geom_bond_site_symmetry_2
V0 V1 2.677324 1_455
V0 V1 2.677324 1_555
V0 V1 2.677324 1_545
V0 V1 2.677324 1_554
Ni0 V1 2.677324 1_655
Ni0 Sb0 2.677324 1_455
Ni0 Sb0 2.677324 1_545
Ni0 V1 2.677324 1_565
Ni0 V1 2.677324 1_555
Ni0 Sb0 2.677324 1_555
Ni0 V1 2.677324 1_556
Ni0 Sb0 2.677324 1_554
Sb0 V0 2.677324 1_566
Sb0 V0 2.677324 1_666
Sb0 V0 2.677324 1_656
Sb0 V0 2.677324 1_665
Sb0 V1 3.091508 1_556
Sb0 V1 3.091508 1_655
Sb0 V1 3.091508 1_656
Sb0 V1 3.091508 1_565
Sb0 V1 3.091508 1_665
Sb0 V1 3.091508 1_566
