# generated using pymatgen
data_Ni(Mo3Se4)2
_symmetry_space_group_name_H-M   'P 1'
_cell_length_a   6.77369400
_cell_length_b   6.78962281
_cell_length_c   6.82821481
_cell_angle_alpha   91.53354741
_cell_angle_beta   90.38829805
_cell_angle_gamma   93.15343135
_symmetry_Int_Tables_number   1
_chemical_formula_structural   Ni(Mo3Se4)2
_chemical_formula_sum   'Ni1 Mo6 Se8'
_cell_volume   313.43672342
_cell_formula_units_Z   1
loop_
 _symmetry_equiv_pos_site_id
 _symmetry_equiv_pos_as_xyz
  1  'x, y, z'
loop_
 _atom_site_type_symbol
 _atom_site_label
 _atom_site_symmetry_multiplicity
 _atom_site_fract_x
 _atom_site_fract_y
 _atom_site_fract_z
 _atom_site_occupancy
  Ni  Ni0  1  0.84074700  0.50474500  0.93881300  1
  Mo  Mo0  1  0.41663500  0.23067900  0.54441900  1
  Mo  Mo1  1  0.58575500  0.76272500  0.44461100  1
  Mo  Mo2  1  0.23511900  0.54768000  0.42136300  1
  Mo  Mo3  1  0.77101500  0.45201900  0.57123100  1
  Mo  Mo4  1  0.54411500  0.41693600  0.22768800  1
  Mo  Mo5  1  0.45627100  0.58200600  0.77429600  1
  Se  Se0  1  0.38248200  0.74186300  0.12932000  1
  Se  Se1  1  0.60606200  0.25011200  0.87461100  1
  Se  Se2  1  0.11884000  0.37949600  0.74626300  1
  Se  Se3  1  0.88638900  0.62984000  0.26031400  1
  Se  Se4  1  0.21754000  0.21603600  0.22733200  1
  Se  Se5  1  0.78066300  0.79541000  0.77606300  1
  Se  Se6  1  0.73614700  0.13092200  0.37135600  1
  Se  Se7  1  0.26392000  0.86673100  0.62911700  1
loop_
_geom_bond_atom_site_label_1
_geom_bond_atom_site_label_2
_geom_bond_distance
_geom_bond_site_symmetry_2
Ni0 Se1 2.314272 1_555
Ni0 Se5 2.344133 1_555
Ni0 Se3 2.344852 1_556
Ni0 Se2 2.479950 1_655
Mo0 Se4 2.539804 1_555
Mo0 Se1 2.583286 1_555
Mo0 Se6 2.586965 1_555
Mo0 Se2 2.678960 1_555
Mo0 Se7 2.704460 1_545
Mo1 Se0 2.544180 1_555
Mo1 Se3 2.592430 1_555
Mo1 Se5 2.610531 1_555
Mo1 Se7 2.645242 1_555
Mo1 Se6 2.707621 1_565
Mo2 Se7 2.555055 1_555
Mo2 Se4 2.578470 1_555
Mo2 Se0 2.595018 1_555
Mo2 Se2 2.627990 1_555
Mo2 Se3 2.691285 1_455
Mo3 Se6 2.539904 1_555
Mo3 Ni0 2.562858 1_555
Mo3 Se3 2.575161 1_555
Mo3 Se5 2.683987 1_555
Mo3 Se2 2.709769 1_655
Mo3 Se1 2.726516 1_555
Mo4 Se4 2.534136 1_555
Mo4 Se6 2.605380 1_555
Mo4 Se0 2.617624 1_555
Mo4 Se3 2.668614 1_555
Mo4 Se1 2.681647 1_554
Mo5 Se5 2.564419 1_555
Mo5 Se7 2.603780 1_555
Mo5 Se2 2.604921 1_555
Mo5 Se1 2.627051 1_555
Mo5 Se0 2.690683 1_556
