# generated using pymatgen
data_BaAs2O9
_symmetry_space_group_name_H-M   'P 1'
_cell_length_a   8.57319877
_cell_length_b   9.69799437
_cell_length_c   12.22093319
_cell_angle_alpha   73.83008048
_cell_angle_beta   63.92102480
_cell_angle_gamma   66.11034827
_symmetry_Int_Tables_number   1
_chemical_formula_structural   BaAs2O9
_chemical_formula_sum   'Ba4 As8 O36'
_cell_volume   828.18021856
_cell_formula_units_Z   4
loop_
 _symmetry_equiv_pos_site_id
 _symmetry_equiv_pos_as_xyz
  1  'x, y, z'
loop_
 _atom_site_type_symbol
 _atom_site_label
 _atom_site_symmetry_multiplicity
 _atom_site_fract_x
 _atom_site_fract_y
 _atom_site_fract_z
 _atom_site_occupancy
  Ba  Ba0  1  0.19553400  0.95370500  0.73776700  1
  Ba  Ba1  1  0.80446600  0.04629500  0.26223300  1
  Ba  Ba2  1  0.65027500  0.45656800  0.75575900  1
  Ba  Ba3  1  0.34972500  0.54343200  0.24424100  1
  As  As0  1  0.47778800  0.76162600  0.45659500  1
  As  As1  1  0.52221200  0.23837400  0.54340500  1
  As  As2  1  0.95239700  0.74857300  0.55573000  1
  As  As3  1  0.04760300  0.25142700  0.44427000  1
  As  As4  1  0.96030000  0.29162400  0.93414700  1
  As  As5  1  0.03970000  0.70837600  0.06585300  1
  As  As6  1  0.48274100  0.82979200  0.92882100  1
  As  As7  1  0.51725900  0.17020800  0.07117900  1
  O  O0  1  0.78186500  0.56589200  0.32115100  1
  O  O1  1  0.21813500  0.43410800  0.67884900  1
  O  O2  1  0.37224900  0.68476300  0.41279900  1
  O  O3  1  0.62775100  0.31523700  0.58720100  1
  O  O4  1  0.48446000  0.70832100  0.59714400  1
  O  O5  1  0.51554000  0.29167900  0.40285600  1
  O  O6  1  0.55074600  0.90332400  0.36799700  1
  O  O7  1  0.44925400  0.09667600  0.63200300  1
  O  O8  1  0.12222100  0.75407900  0.59643800  1
  O  O9  1  0.87777900  0.24592100  0.40356200  1
  O  O10  1  0.80556300  0.68459200  0.69442500  1
  O  O11  1  0.19443700  0.31540800  0.30557500  1
  O  O12  1  0.03914300  0.61211700  0.45812400  1
  O  O13  1  0.96085700  0.38788300  0.54187600  1
  O  O14  1  0.86172400  0.91423200  0.47775500  1
  O  O15  1  0.13827600  0.08576800  0.52224500  1
  O  O16  1  0.00914400  0.24814300  0.79334900  1
  O  O17  1  0.99085600  0.75185700  0.20665100  1
  O  O18  1  0.00530200  0.14665300  0.04210200  1
  O  O19  1  0.99469800  0.85334700  0.95789800  1
  O  O20  1  0.73451800  0.41730500  0.98322200  1
  O  O21  1  0.26548200  0.58269500  0.01677800  1
  O  O22  1  0.10252500  0.40114400  0.91113100  1
  O  O23  1  0.89747500  0.59885600  0.08886900  1
  O  O24  1  0.70771200  0.83242900  0.83566100  1
  O  O25  1  0.29228800  0.16757100  0.16433900  1
  O  O26  1  0.42715700  0.72174500  0.86576600  1
  O  O27  1  0.57284300  0.27825500  0.13423400  1
  O  O28  1  0.44927000  0.77210600  0.07856500  1
  O  O29  1  0.55073000  0.22789400  0.92143500  1
  O  O30  1  0.35703100  0.01674800  0.89383900  1
  O  O31  1  0.64296900  0.98325200  0.10616100  1
  O  O32  1  0.84864300  0.14928400  0.74688600  1
  O  O33  1  0.15135700  0.85071600  0.25311400  1
  O  O34  1  0.23322200  0.45579100  0.76841300  1
  O  O35  1  0.76677800  0.54420900  0.23158700  1
loop_
_geom_bond_atom_site_label_1
_geom_bond_atom_site_label_2
_geom_bond_distance
_geom_bond_site_symmetry_2
Ba0 O19 2.641119 1_455
Ba0 O7 2.701345 1_565
Ba0 O15 2.750872 1_565
Ba0 O16 2.756583 1_565
Ba0 O32 2.777051 1_465
Ba0 O4 2.917685 1_555
Ba0 O26 2.933197 1_555
Ba0 O30 3.096080 1_565
Ba0 O8 3.305837 1_555
Ba1 O18 2.641119 1_655
Ba1 O6 2.701345 1_545
Ba1 O14 2.750872 1_545
Ba1 O17 2.756583 1_545
Ba1 O33 2.777051 1_645
Ba1 O5 2.917685 1_555
Ba1 O27 2.933197 1_555
Ba1 O31 3.096080 1_545
Ba1 O9 3.305837 1_555
Ba2 O29 2.694195 1_555
Ba2 O32 2.774454 1_555
Ba2 O26 2.785715 1_555
Ba2 O13 2.789218 1_555
Ba2 O10 2.794345 1_555
Ba2 O3 2.880263 1_555
Ba2 O4 2.952103 1_555
Ba2 O20 3.057261 1_555
Ba2 O16 3.074250 1_655
Ba3 O28 2.694195 1_555
Ba3 O33 2.774454 1_555
Ba3 O27 2.785715 1_555
Ba3 O12 2.789218 1_555
Ba3 O11 2.794345 1_555
Ba3 O2 2.880263 1_555
Ba3 O5 2.952103 1_555
Ba3 O21 3.057261 1_555
Ba3 O17 3.074250 1_455
As0 O6 1.650448 1_555
As0 O4 1.669932 1_555
As0 O2 1.689696 1_555
As1 O7 1.650448 1_555
As1 O5 1.669932 1_555
As1 O3 1.689696 1_555
As2 O14 1.697194 1_555
As2 O10 1.735948 1_555
As2 O12 1.740492 1_655
As2 O8 1.756328 1_655
As3 O15 1.697194 1_555
As3 O11 1.735948 1_555
As3 O13 1.740492 1_455
As3 O9 1.756328 1_455
As4 O18 1.685571 1_656
As4 O16 1.715084 1_655
As4 O20 1.751474 1_555
As4 O22 1.809691 1_655
As5 O19 1.685571 1_454
As5 O17 1.715084 1_455
As5 O21 1.751474 1_555
As5 O23 1.809691 1_455
As6 O28 1.685930 1_556
As6 O30 1.738476 1_565
As6 O26 1.759513 1_555
As6 O24 1.763492 1_555
As7 O29 1.685930 1_554
As7 O31 1.738476 1_545
As7 O27 1.759513 1_555
As7 O25 1.763492 1_555
O0 O35 1.238427 1_555
O1 O34 1.238427 1_555
O22 O34 1.681157 1_555
O23 O35 1.681157 1_555
