# generated using pymatgen
data_Ba2AlTlCr2O7
_symmetry_space_group_name_H-M   'P 1'
_cell_length_a   3.83182900
_cell_length_b   3.83182900
_cell_length_c   13.28359900
_cell_angle_alpha   90.00000000
_cell_angle_beta   90.00000000
_cell_angle_gamma   90.00000000
_symmetry_Int_Tables_number   1
_chemical_formula_structural   Ba2AlTlCr2O7
_chemical_formula_sum   'Ba2 Al1 Tl1 Cr2 O7'
_cell_volume   195.04193489
_cell_formula_units_Z   1
loop_
 _symmetry_equiv_pos_site_id
 _symmetry_equiv_pos_as_xyz
  1  'x, y, z'
loop_
 _atom_site_type_symbol
 _atom_site_label
 _atom_site_symmetry_multiplicity
 _atom_site_fract_x
 _atom_site_fract_y
 _atom_site_fract_z
 _atom_site_occupancy
  Ba  Ba0  1  0.00000000  0.00000000  0.19845600  1
  Ba  Ba1  1  0.00000000  0.00000000  0.80154400  1
  Al  Al0  1  0.00000000  0.00000000  0.50000000  1
  Tl  Tl0  1  0.50000000  0.50000000  0.00000000  1
  Cr  Cr0  1  0.50000000  0.50000000  0.37111600  1
  Cr  Cr1  1  0.50000000  0.50000000  0.62888400  1
  O  O0  1  0.50000000  0.50000000  0.22492600  1
  O  O1  1  0.50000000  0.00000000  0.40646400  1
  O  O2  1  0.00000000  0.50000000  0.40646400  1
  O  O3  1  0.00000000  0.50000000  0.59353600  1
  O  O4  1  0.00000000  0.00000000  0.00000000  1
  O  O5  1  0.50000000  0.00000000  0.59353600  1
  O  O6  1  0.50000000  0.50000000  0.77507400  1
loop_
_geom_bond_atom_site_label_1
_geom_bond_atom_site_label_2
_geom_bond_distance
_geom_bond_site_symmetry_2
Ba0 O4 2.636210 1_555
Ba0 O0 2.732232 1_455
Ba0 O0 2.732232 1_555
Ba0 O0 2.732232 1_445
Ba0 O0 2.732232 1_545
Ba1 O4 2.636210 1_556
Ba1 O6 2.732232 1_555
Ba1 O6 2.732232 1_445
Ba1 O6 2.732232 1_545
Ba1 O6 2.732232 1_455
Al0 O5 2.283533 1_555
Al0 O5 2.283533 1_455
Al0 O3 2.283533 1_545
Al0 O3 2.283533 1_555
Al0 O2 2.283533 1_555
Al0 O2 2.283533 1_545
Al0 O1 2.283533 1_555
Al0 O1 2.283533 1_455
Cr0 O0 1.941929 1_555
Cr0 O2 1.972614 1_555
Cr0 O2 1.972614 1_655
Cr0 O1 1.972614 1_555
Cr0 O1 1.972614 1_565
Cr1 O6 1.941929 1_555
Cr1 O3 1.972614 1_555
Cr1 O3 1.972614 1_655
Cr1 O5 1.972614 1_555
Cr1 O5 1.972614 1_565
O4 Tl0 2.709512 1_545
O4 Tl0 2.709512 1_445
O4 Tl0 2.709512 1_455
O4 Tl0 2.709512 1_555
