# generated using pymatgen
data_Rb2Li(OsO3)2
_symmetry_space_group_name_H-M   'P 1'
_cell_length_a   5.65705552
_cell_length_b   5.65564079
_cell_length_c   6.45455418
_cell_angle_alpha   64.09215859
_cell_angle_beta   64.04769645
_cell_angle_gamma   60.03039918
_symmetry_Int_Tables_number   1
_chemical_formula_structural   Rb2Li(OsO3)2
_chemical_formula_sum   'Rb2 Li1 Os2 O6'
_cell_volume   154.40930850
_cell_formula_units_Z   1
loop_
 _symmetry_equiv_pos_site_id
 _symmetry_equiv_pos_as_xyz
  1  'x, y, z'
loop_
 _atom_site_type_symbol
 _atom_site_label
 _atom_site_symmetry_multiplicity
 _atom_site_fract_x
 _atom_site_fract_y
 _atom_site_fract_z
 _atom_site_occupancy
  Rb  Rb0  1  0.87845400  0.87858200  0.36450700  1
  Rb  Rb1  1  0.12154700  0.12141600  0.63549300  1
  Li  Li0  1  0.50000000  0.50000000  0.50000000  1
  Os  Os0  1  0.66861200  0.66854100  0.99430000  1
  Os  Os1  1  0.33138900  0.33145700  0.00570200  1
  O  O0  1  0.51811800  0.61324300  0.79142600  1
  O  O1  1  0.07698800  0.51823200  0.79137300  1
  O  O2  1  0.61322100  0.07709600  0.79139900  1
  O  O3  1  0.48188300  0.38675700  0.20857400  1
  O  O4  1  0.38678100  0.92290400  0.20860000  1
  O  O5  1  0.92301100  0.48176700  0.20862800  1
loop_
_geom_bond_atom_site_label_1
_geom_bond_atom_site_label_2
_geom_bond_distance
_geom_bond_site_symmetry_2
Li0 O3 2.290417 1_555
Li0 O0 2.290420 1_555
Li0 O5 2.293020 1_555
Li0 O1 2.293027 1_555
Li0 O2 2.293745 1_555
Li0 O4 2.293747 1_555
O0 Os1 2.011372 1_556
O0 Os0 2.033941 1_555
O0 Rb1 2.704223 1_565
O0 Rb0 2.920061 1_555
O0 Rb1 3.218053 1_655
O1 Os1 2.011852 1_556
O1 Os0 2.034154 1_455
O1 Rb1 2.701573 1_555
O1 Rb0 2.919062 1_455
O1 Rb1 3.217337 1_565
O2 Os1 2.010452 1_556
O2 Os0 2.035643 1_545
O2 Rb1 2.704013 1_655
O2 Rb0 2.916467 1_545
O2 Rb1 3.216306 1_555
O3 Os0 2.011362 1_554
O3 Os1 2.033936 1_555
O3 Rb0 2.704228 1_545
O3 Rb1 2.920067 1_555
O3 Rb0 3.218047 1_455
O4 Os0 2.010445 1_554
O4 Os1 2.035629 1_565
O4 Rb0 2.704023 1_455
O4 Rb1 2.916466 1_565
O4 Rb0 3.216300 1_555
O5 Os0 2.011840 1_554
O5 Os1 2.034160 1_655
O5 Rb0 2.701569 1_555
O5 Rb1 2.919062 1_655
O5 Rb0 3.217339 1_545
