# generated using pymatgen
data_Cs3Sb5S9
_symmetry_space_group_name_H-M   'P 1'
_cell_length_a   13.64583936
_cell_length_b   13.64583936
_cell_length_c   9.47852482
_cell_angle_alpha   84.19240982
_cell_angle_beta   84.19240982
_cell_angle_gamma   139.70467965
_symmetry_Int_Tables_number   1
_chemical_formula_structural   Cs3Sb5S9
_chemical_formula_sum   'Cs6 Sb10 S18'
_cell_volume   1091.09733514
_cell_formula_units_Z   2
loop_
 _symmetry_equiv_pos_site_id
 _symmetry_equiv_pos_as_xyz
  1  'x, y, z'
loop_
 _atom_site_type_symbol
 _atom_site_label
 _atom_site_symmetry_multiplicity
 _atom_site_fract_x
 _atom_site_fract_y
 _atom_site_fract_z
 _atom_site_occupancy
  Cs  Cs0  1  0.41834600  0.58165400  0.50000000  1
  Cs  Cs1  1  0.58165400  0.41834600  0.50000000  1
  Cs  Cs2  1  0.02566800  0.45610400  0.23110500  1
  Cs  Cs3  1  0.45610400  0.02566800  0.23110500  1
  Cs  Cs4  1  0.97433200  0.54389600  0.76889500  1
  Cs  Cs5  1  0.54389600  0.97433200  0.76889500  1
  Sb  Sb0  1  0.42727100  0.57272900  0.00000000  1
  Sb  Sb1  1  0.57272900  0.42727100  0.00000000  1
  Sb  Sb2  1  0.92099500  0.07900500  0.50000000  1
  Sb  Sb3  1  0.07900500  0.92099500  0.50000000  1
  Sb  Sb4  1  0.03468900  0.27902900  0.83696200  1
  Sb  Sb5  1  0.27902900  0.03468900  0.83696200  1
  Sb  Sb6  1  0.96531100  0.72097100  0.16303800  1
  Sb  Sb7  1  0.72097100  0.96531100  0.16303800  1
  Sb  Sb8  1  0.89377000  0.89377000  0.86295800  1
  Sb  Sb9  1  0.10623000  0.10623000  0.13704200  1
  S  S0  1  0.12229100  0.12229100  0.62814600  1
  S  S1  1  0.87770900  0.87770900  0.37185400  1
  S  S2  1  0.80845100  0.19154900  0.00000000  1
  S  S3  1  0.19154900  0.80845100  0.00000000  1
  S  S4  1  0.24199400  0.55290600  0.83365300  1
  S  S5  1  0.55290600  0.24199400  0.83365300  1
  S  S6  1  0.75800600  0.44709400  0.16634700  1
  S  S7  1  0.44709400  0.75800600  0.16634700  1
  S  S8  1  0.99109100  0.30653800  0.59894000  1
  S  S9  1  0.30653800  0.99109100  0.59894000  1
  S  S10  1  0.00890900  0.69346200  0.40106000  1
  S  S11  1  0.69346200  0.00890900  0.40106000  1
  S  S12  1  0.37966900  0.37966900  0.87890700  1
  S  S13  1  0.62033100  0.62033100  0.12109300  1
  S  S14  1  0.70121900  0.85139200  0.77211100  1
  S  S15  1  0.85139200  0.70121900  0.77211100  1
  S  S16  1  0.29878100  0.14860800  0.22788900  1
  S  S17  1  0.14860800  0.29878100  0.22788900  1
loop_
_geom_bond_atom_site_label_1
_geom_bond_atom_site_label_2
_geom_bond_distance
_geom_bond_site_symmetry_2
Cs0 S7 3.565852 1_555
Cs0 S4 3.565852 1_555
Cs0 S8 3.709118 1_455
Cs0 S11 3.709118 1_565
Cs0 S1 3.990630 1_555
Cs0 S0 3.990630 1_555
Cs0 S12 4.020973 1_555
Cs0 S13 4.020973 1_555
Cs1 S5 3.565852 1_555
Cs1 S6 3.565852 1_555
Cs1 S9 3.709118 1_545
Cs1 S10 3.709118 1_655
Cs1 S1 3.990630 1_555
Cs1 S0 3.990630 1_555
Cs1 S12 4.020973 1_555
Cs1 S13 4.020973 1_555
Cs2 S17 3.594567 1_555
Cs2 S7 3.612990 1_555
Cs2 S2 3.634310 1_455
Cs2 S8 3.647197 1_455
Cs2 S3 3.647291 1_555
Cs2 S6 3.676465 1_455
Cs2 S11 3.836371 1_455
Cs2 S10 3.905056 1_555
Cs2 S4 3.930041 1_554
Cs3 S16 3.594567 1_555
Cs3 S6 3.612990 1_555
Cs3 S3 3.634310 1_545
Cs3 S9 3.647197 1_545
Cs3 S2 3.647291 1_555
Cs3 S7 3.676465 1_545
Cs3 S10 3.836371 1_545
Cs3 S11 3.905056 1_555
Cs3 S5 3.930041 1_554
Cs4 S15 3.594567 1_555
Cs4 S5 3.612990 1_555
Cs4 S3 3.634310 1_656
Cs4 S10 3.647197 1_655
Cs4 S2 3.647291 1_556
Cs4 S4 3.676465 1_655
Cs4 S9 3.836371 1_655
Cs4 S8 3.905056 1_555
Cs4 S6 3.930041 1_556
Cs5 S14 3.594567 1_555
Cs5 S4 3.612990 1_555
Cs5 S2 3.634310 1_566
Cs5 S11 3.647197 1_565
Cs5 S3 3.647291 1_556
Cs5 S5 3.676465 1_565
Cs5 S8 3.836371 1_565
Cs5 S9 3.905056 1_555
Cs5 S7 3.930041 1_556
S0 Sb8 2.599833 1_445
S0 Sb3 2.777557 1_545
S0 Sb2 2.777557 1_455
S1 Sb9 2.599833 1_665
S1 Sb3 2.777557 1_655
S1 Sb2 2.777557 1_565
S2 Sb4 2.526543 1_654
S2 Sb7 2.526543 1_545
S3 Sb5 2.526543 1_564
S3 Sb6 2.526543 1_455
S4 Sb4 2.408667 1_555
S4 Sb0 2.966672 1_556
S5 Sb5 2.408667 1_555
S5 Sb1 2.966672 1_556
S6 Sb6 2.408667 1_555
S6 Sb1 2.966672 1_555
S7 Sb7 2.408667 1_555
S7 Sb0 2.966672 1_555
S8 Sb4 2.454739 1_655
S8 Sb2 2.770400 1_555
S9 Sb5 2.454739 1_565
S9 Sb3 2.770400 1_555
S10 Sb6 2.454739 1_455
S10 Sb3 2.770400 1_555
S11 Sb7 2.454739 1_545
S11 Sb2 2.770400 1_555
S12 Sb0 2.613837 1_556
S12 Sb1 2.613837 1_556
S12 Sb9 2.983023 1_556
S13 Sb0 2.613837 1_555
S13 Sb1 2.613837 1_555
S13 Sb8 2.983023 1_554
S14 Sb8 2.494110 1_555
S14 Sb2 2.810265 1_565
S14 Sb0 2.849455 1_556
S15 Sb8 2.494110 1_555
S15 Sb3 2.810265 1_655
S15 Sb1 2.849455 1_556
S16 Sb9 2.494110 1_555
S16 Sb3 2.810265 1_545
S16 Sb1 2.849455 1_555
S17 Sb9 2.494110 1_555
S17 Sb2 2.810265 1_455
S17 Sb0 2.849455 1_555
