# generated using pymatgen
data_ThGaNi
_symmetry_space_group_name_H-M   'P 1'
_cell_length_a   6.99891587
_cell_length_b   6.99891587
_cell_length_c   4.02999123
_cell_angle_alpha   90.00000000
_cell_angle_beta   90.00000000
_cell_angle_gamma   120.00000365
_symmetry_Int_Tables_number   1
_chemical_formula_structural   ThGaNi
_chemical_formula_sum   'Th3 Ga3 Ni3'
_cell_volume   170.96069021
_cell_formula_units_Z   3
loop_
 _symmetry_equiv_pos_site_id
 _symmetry_equiv_pos_as_xyz
  1  'x, y, z'
loop_
 _atom_site_type_symbol
 _atom_site_label
 _atom_site_symmetry_multiplicity
 _atom_site_fract_x
 _atom_site_fract_y
 _atom_site_fract_z
 _atom_site_occupancy
  Th  Th0  1  -0.00000000  0.42064971  0.50000000  1
  Th  Th1  1  0.57935029  0.57935029  0.50000000  1
  Th  Th2  1  0.42064971  -0.00000000  0.50000000  1
  Ga  Ga0  1  0.00000000  0.76753446  -0.00000000  1
  Ga  Ga1  1  0.23246554  0.23246554  0.00000000  1
  Ga  Ga2  1  0.76753446  0.00000000  0.00000000  1
  Ni  Ni0  1  0.33333300  0.66666700  -0.00000000  1
  Ni  Ni1  1  0.66666700  0.33333300  -0.00000000  1
  Ni  Ni2  1  -0.00000000  0.00000000  0.50000000  1
loop_
_geom_bond_atom_site_label_1
_geom_bond_atom_site_label_2
_geom_bond_distance
_geom_bond_site_symmetry_2
Ga0 Ni2 2.589857 1_565
Ga0 Ni2 2.589857 1_564
Ga0 Ni0 2.754654 1_555
Ga0 Ni1 2.754659 1_455
Ga0 Ga1 2.818058 1_565
Ga0 Ga2 2.818058 1_465
Ga0 Th0 3.155076 1_555
Ga0 Th0 3.155076 1_554
Ga0 Th2 3.253456 1_565
Ga0 Th2 3.253456 1_564
Ga0 Th1 3.253456 1_454
Ga0 Th1 3.253456 1_455
Ga1 Ni2 2.589857 1_555
Ga1 Ni2 2.589857 1_554
Ga1 Ni1 2.754661 1_555
Ga1 Ni0 2.754661 1_555
Ga1 Ga2 2.818058 1_455
Ga1 Th1 3.155076 1_555
Ga1 Th1 3.155076 1_554
Ga1 Th2 3.253456 1_555
Ga1 Th0 3.253456 1_554
Ga1 Th2 3.253456 1_554
Ga1 Th0 3.253456 1_555
Ga2 Ni2 2.589857 1_654
Ga2 Ni2 2.589857 1_655
Ga2 Ni1 2.754654 1_555
Ga2 Ni0 2.754659 1_545
Ga2 Th2 3.155076 1_555
Ga2 Th2 3.155076 1_554
Ga2 Th0 3.253456 1_655
Ga2 Th0 3.253456 1_654
Ga2 Th1 3.253456 1_544
Ga2 Th1 3.253456 1_545
Ni0 Th2 2.907008 1_564
Ni0 Th2 2.907008 1_565
Ni0 Th0 2.907009 1_555
Ni0 Th0 2.907009 1_554
Ni0 Th1 2.907013 1_554
Ni0 Th1 2.907013 1_555
Ni1 Th0 2.907008 1_654
Ni1 Th0 2.907008 1_655
Ni1 Th2 2.907009 1_554
Ni1 Th2 2.907009 1_555
Ni1 Th1 2.907013 1_554
Ni1 Th1 2.907013 1_555
Ni2 Th1 2.944092 1_445
Ni2 Th2 2.944092 1_555
Ni2 Th0 2.944092 1_555
