# generated using pymatgen
data_Ba4Zn11Ge12
_symmetry_space_group_name_H-M   'P 1'
_cell_length_a   10.88664118
_cell_length_b   10.88664118
_cell_length_c   10.88664118
_cell_angle_alpha   90.00000000
_cell_angle_beta   90.00000000
_cell_angle_gamma   90.00000000
_symmetry_Int_Tables_number   1
_chemical_formula_structural   Ba4Zn11Ge12
_chemical_formula_sum   'Ba8 Zn22 Ge24'
_cell_volume   1290.27334898
_cell_formula_units_Z   2
loop_
 _symmetry_equiv_pos_site_id
 _symmetry_equiv_pos_as_xyz
  1  'x, y, z'
loop_
 _atom_site_type_symbol
 _atom_site_label
 _atom_site_symmetry_multiplicity
 _atom_site_fract_x
 _atom_site_fract_y
 _atom_site_fract_z
 _atom_site_occupancy
  Ba  Ba0  1  0.25000000  0.00000000  0.50000000  1
  Ba  Ba1  1  0.75000000  0.00000000  0.50000000  1
  Ba  Ba2  1  0.50000000  0.25000000  0.00000000  1
  Ba  Ba3  1  0.50000000  0.75000000  0.00000000  1
  Ba  Ba4  1  0.00000000  0.50000000  0.25000000  1
  Ba  Ba5  1  0.00000000  0.50000000  0.75000000  1
  Ba  Ba6  1  0.00000000  0.00000000  0.00000000  1
  Ba  Ba7  1  0.50000000  0.50000000  0.50000000  1
  Zn  Zn0  1  0.25000000  0.50000000  0.00000000  1
  Zn  Zn1  1  0.75000000  0.50000000  0.00000000  1
  Zn  Zn2  1  0.00000000  0.25000000  0.50000000  1
  Zn  Zn3  1  0.00000000  0.75000000  0.50000000  1
  Zn  Zn4  1  0.50000000  0.00000000  0.25000000  1
  Zn  Zn5  1  0.50000000  0.00000000  0.75000000  1
  Zn  Zn6  1  0.18184306  0.18184306  0.18184306  1
  Zn  Zn7  1  0.81815694  0.81815694  0.81815694  1
  Zn  Zn8  1  0.81815694  0.81815694  0.18184306  1
  Zn  Zn9  1  0.81815694  0.18184306  0.81815694  1
  Zn  Zn10  1  0.68184306  0.68184306  0.31815694  1
  Zn  Zn11  1  0.18184306  0.18184306  0.81815694  1
  Zn  Zn12  1  0.18184306  0.81815694  0.18184306  1
  Zn  Zn13  1  0.31815694  0.31815694  0.68184306  1
  Zn  Zn14  1  0.18184306  0.81815694  0.81815694  1
  Zn  Zn15  1  0.31815694  0.31815694  0.31815694  1
  Zn  Zn16  1  0.81815694  0.18184306  0.18184306  1
  Zn  Zn17  1  0.68184306  0.68184306  0.68184306  1
  Zn  Zn18  1  0.68184306  0.31815694  0.68184306  1
  Zn  Zn19  1  0.31815694  0.68184306  0.31815694  1
  Zn  Zn20  1  0.31815694  0.68184306  0.68184306  1
  Zn  Zn21  1  0.68184306  0.31815694  0.31815694  1
  Ge  Ge0  1  0.00000000  0.11364368  0.31361697  1
  Ge  Ge1  1  0.00000000  0.88635632  0.68638303  1
  Ge  Ge2  1  0.00000000  0.88635632  0.31361697  1
  Ge  Ge3  1  0.00000000  0.11364368  0.68638303  1
  Ge  Ge4  1  0.31361697  0.00000000  0.11364368  1
  Ge  Ge5  1  0.61364368  0.50000000  0.18638303  1
  Ge  Ge6  1  0.68638303  0.00000000  0.88635632  1
  Ge  Ge7  1  0.38635632  0.50000000  0.81361697  1
  Ge  Ge8  1  0.31361697  0.00000000  0.88635632  1
  Ge  Ge9  1  0.38635632  0.50000000  0.18638303  1
  Ge  Ge10  1  0.68638303  0.00000000  0.11364368  1
  Ge  Ge11  1  0.61364368  0.50000000  0.81361697  1
  Ge  Ge12  1  0.11364368  0.31361697  0.00000000  1
  Ge  Ge13  1  0.50000000  0.81361697  0.38635632  1
  Ge  Ge14  1  0.88635632  0.68638303  0.00000000  1
  Ge  Ge15  1  0.50000000  0.18638303  0.61364368  1
  Ge  Ge16  1  0.11364368  0.68638303  0.00000000  1
  Ge  Ge17  1  0.50000000  0.18638303  0.38635632  1
  Ge  Ge18  1  0.88635632  0.31361697  0.00000000  1
  Ge  Ge19  1  0.50000000  0.81361697  0.61364368  1
  Ge  Ge20  1  0.18638303  0.61364368  0.50000000  1
  Ge  Ge21  1  0.81361697  0.38635632  0.50000000  1
  Ge  Ge22  1  0.18638303  0.38635632  0.50000000  1
  Ge  Ge23  1  0.81361697  0.61364368  0.50000000  1
loop_
_geom_bond_atom_site_label_1
_geom_bond_atom_site_label_2
_geom_bond_distance
_geom_bond_site_symmetry_2
Ba0 Ge0 3.613209 1_555
Ba0 Ge1 3.613209 1_545
Ba0 Ge3 3.613209 1_555
Ba0 Ge15 3.613209 1_555
Ba0 Ge2 3.613209 1_545
Ba0 Ge17 3.613209 1_555
Ba0 Ge19 3.613209 1_545
Ba0 Ge13 3.613209 1_545
Ba1 Ge15 3.613209 1_555
Ba1 Ge3 3.613209 1_655
Ba1 Ge17 3.613209 1_555
Ba1 Ge0 3.613209 1_655
Ba1 Ge2 3.613209 1_645
Ba1 Ge19 3.613209 1_545
Ba1 Ge13 3.613209 1_545
Ba1 Ge1 3.613209 1_645
Ba2 Ge9 3.613209 1_555
Ba2 Ge6 3.613209 1_554
Ba2 Ge7 3.613209 1_554
Ba2 Ge8 3.613209 1_554
Ba2 Ge10 3.613209 1_555
Ba2 Ge11 3.613209 1_554
Ba2 Ge5 3.613209 1_555
Ba2 Ge4 3.613209 1_555
Ba3 Ge8 3.613209 1_564
Ba3 Ge9 3.613209 1_555
Ba3 Ge6 3.613209 1_564
Ba3 Ge7 3.613209 1_554
Ba3 Ge10 3.613209 1_565
Ba3 Ge4 3.613209 1_565
Ba3 Ge11 3.613209 1_554
Ba3 Ge5 3.613209 1_555
Ba4 Ge22 3.613209 1_555
Ba4 Ge12 3.613209 1_555
Ba4 Ge23 3.613209 1_455
Ba4 Ge16 3.613209 1_555
Ba4 Ge20 3.613209 1_555
Ba4 Ge14 3.613209 1_455
Ba4 Ge18 3.613209 1_455
Ba4 Ge21 3.613209 1_455
Ba5 Ge12 3.613209 1_556
Ba5 Ge22 3.613209 1_555
Ba5 Ge23 3.613209 1_455
Ba5 Ge16 3.613209 1_556
Ba5 Ge20 3.613209 1_555
Ba5 Ge14 3.613209 1_456
Ba5 Ge21 3.613209 1_455
Ba5 Ge18 3.613209 1_456
Ba6 Zn7 3.428872 1_444
Ba6 Zn11 3.428872 1_554
Ba6 Zn14 3.428872 1_544
Ba6 Zn8 3.428872 1_445
Ba6 Zn16 3.428872 1_455
Ba6 Zn9 3.428872 1_454
Ba6 Zn12 3.428872 1_545
Ba6 Zn6 3.428872 1_555
Ba6 Ge0 3.631482 1_555
Ba6 Ge10 3.631482 1_455
Ba6 Ge6 3.631482 1_454
Ba6 Ge4 3.631482 1_555
Ba6 Ge14 3.631482 1_445
Ba6 Ge2 3.631482 1_545
Ba6 Ge8 3.631482 1_554
Ba6 Ge18 3.631482 1_455
Ba6 Ge16 3.631482 1_545
Ba6 Ge1 3.631482 1_544
Ba6 Ge12 3.631482 1_555
Ba6 Ge3 3.631482 1_554
Ba7 Zn17 3.428872 1_555
Ba7 Zn20 3.428872 1_555
Ba7 Zn21 3.428872 1_555
Ba7 Zn10 3.428872 1_555
Ba7 Zn18 3.428872 1_555
Ba7 Zn19 3.428872 1_555
Ba7 Zn13 3.428872 1_555
Ba7 Zn15 3.428872 1_555
Ba7 Ge22 3.631482 1_555
Ba7 Ge19 3.631482 1_555
Ba7 Ge7 3.631482 1_555
Ba7 Ge21 3.631482 1_555
Ba7 Ge15 3.631482 1_555
Ba7 Ge9 3.631482 1_555
Ba7 Ge5 3.631482 1_555
Ba7 Ge17 3.631482 1_555
Ba7 Ge13 3.631482 1_555
Ba7 Ge20 3.631482 1_555
Ba7 Ge11 3.631482 1_555
Ba7 Ge23 3.631482 1_555
Ge0 Zn2 2.514123 1_555
Ge0 Zn16 2.555056 1_455
Ge0 Zn6 2.555056 1_555
Ge1 Zn3 2.514123 1_555
Ge1 Zn7 2.555056 1_455
Ge1 Zn14 2.555056 1_555
Ge2 Zn3 2.514123 1_555
Ge2 Zn8 2.555056 1_455
Ge2 Zn12 2.555056 1_555
Ge3 Zn2 2.514123 1_555
Ge3 Zn9 2.555056 1_455
Ge3 Zn11 2.555056 1_555
Ge4 Zn4 2.514123 1_555
Ge4 Zn12 2.555056 1_545
Ge4 Zn6 2.555056 1_555
Ge5 Zn1 2.514123 1_555
Ge5 Zn10 2.555056 1_555
Ge5 Zn21 2.555056 1_555
Ge6 Zn5 2.514123 1_555
Ge6 Zn7 2.555056 1_545
Ge6 Zn9 2.555056 1_555
Ge7 Zn0 2.514123 1_556
Ge7 Zn20 2.555056 1_555
Ge7 Zn13 2.555056 1_555
Ge8 Zn5 2.514123 1_555
Ge8 Zn14 2.555056 1_545
Ge8 Zn11 2.555056 1_555
Ge9 Zn0 2.514123 1_555
Ge9 Zn19 2.555056 1_555
Ge9 Zn15 2.555056 1_555
Ge10 Zn4 2.514123 1_555
Ge10 Zn8 2.555056 1_545
Ge10 Zn16 2.555056 1_555
Ge11 Zn1 2.514123 1_556
Ge11 Zn17 2.555056 1_555
Ge11 Zn18 2.555056 1_555
Ge12 Zn0 2.514123 1_555
Ge12 Zn11 2.555056 1_554
Ge12 Zn6 2.555056 1_555
Ge13 Zn4 2.514123 1_565
Ge13 Zn10 2.555056 1_555
Ge13 Zn19 2.555056 1_555
Ge14 Zn1 2.514123 1_555
Ge14 Zn7 2.555056 1_554
Ge14 Zn8 2.555056 1_555
Ge15 Zn5 2.514123 1_555
Ge15 Zn18 2.555056 1_555
Ge15 Zn13 2.555056 1_555
Ge16 Zn0 2.514123 1_555
Ge16 Zn14 2.555056 1_554
Ge16 Zn12 2.555056 1_555
Ge17 Zn4 2.514123 1_555
Ge17 Zn21 2.555056 1_555
Ge17 Zn15 2.555056 1_555
Ge18 Zn1 2.514123 1_555
Ge18 Zn9 2.555056 1_554
Ge18 Zn16 2.555056 1_555
Ge19 Zn5 2.514123 1_565
Ge19 Zn17 2.555056 1_555
Ge19 Zn20 2.555056 1_555
Ge20 Zn3 2.514123 1_555
Ge20 Zn20 2.555056 1_555
Ge20 Zn19 2.555056 1_555
Ge21 Zn2 2.514123 1_655
Ge21 Zn18 2.555056 1_555
Ge21 Zn21 2.555056 1_555
Ge22 Zn2 2.514123 1_555
Ge22 Zn13 2.555056 1_555
Ge22 Zn15 2.555056 1_555
Ge23 Zn3 2.514123 1_655
Ge23 Zn17 2.555056 1_555
Ge23 Zn10 2.555056 1_555
