# generated using pymatgen
data_K2Tl6Tc
_symmetry_space_group_name_H-M   'P 1'
_cell_length_a   7.19629567
_cell_length_b   7.19629195
_cell_length_c   7.19629384
_cell_angle_alpha   60.00002545
_cell_angle_beta   59.99997426
_cell_angle_gamma   60.00000029
_symmetry_Int_Tables_number   1
_chemical_formula_structural   K2Tl6Tc
_chemical_formula_sum   'K2 Tl6 Tc1'
_cell_volume   263.51883587
_cell_formula_units_Z   1
loop_
 _symmetry_equiv_pos_site_id
 _symmetry_equiv_pos_as_xyz
  1  'x, y, z'
loop_
 _atom_site_type_symbol
 _atom_site_label
 _atom_site_symmetry_multiplicity
 _atom_site_fract_x
 _atom_site_fract_y
 _atom_site_fract_z
 _atom_site_occupancy
  K  K0  1  0.25000000  0.25000000  0.25000000  1
  K  K1  1  0.75000000  0.75000000  0.75000000  1
  Tl  Tl0  1  0.72961509  0.27038491  0.27038491  1
  Tl  Tl1  1  0.27038491  0.72961509  0.72961509  1
  Tl  Tl2  1  0.27038512  0.72961488  0.27038512  1
  Tl  Tl3  1  0.72961488  0.27038512  0.72961488  1
  Tl  Tl4  1  0.27038503  0.27038503  0.72961497  1
  Tl  Tl5  1  0.72961497  0.72961497  0.27038503  1
  Tc  Tc0  1  -0.00000000  -0.00000000  0.00000000  1
loop_
_geom_bond_atom_site_label_1
_geom_bond_atom_site_label_2
_geom_bond_distance
_geom_bond_site_symmetry_2
K0 Tl3 3.604122 1_455
K0 Tl2 3.604122 1_555
K0 Tl3 3.604122 1_554
K0 Tl2 3.604122 1_545
K0 Tl4 3.604123 1_555
K0 Tl4 3.604123 1_554
K0 Tl5 3.604123 1_455
K0 Tl5 3.604123 1_545
K0 Tl1 3.604124 1_554
K0 Tl1 3.604124 1_545
K0 Tl0 3.604124 1_455
K0 Tl0 3.604124 1_555
K1 Tl3 3.604122 1_565
K1 Tl2 3.604122 1_556
K1 Tl3 3.604122 1_555
K1 Tl2 3.604122 1_655
K1 Tl4 3.604123 1_655
K1 Tl5 3.604123 1_556
K1 Tl4 3.604123 1_565
K1 Tl5 3.604123 1_555
K1 Tl1 3.604124 1_655
K1 Tl0 3.604124 1_556
K1 Tl1 3.604124 1_555
K1 Tl0 3.604124 1_565
Tl0 Tl4 3.304754 1_555
Tl0 Tl5 3.304754 1_555
Tl0 Tl3 3.304754 1_555
Tl0 Tl2 3.304754 1_555
Tl1 Tl4 3.304754 1_555
Tl1 Tl5 3.304754 1_555
Tl1 Tl3 3.304754 1_555
Tl1 Tl2 3.304754 1_555
Tl2 Tl4 3.304754 1_555
Tl2 Tl5 3.304754 1_555
Tl3 Tl4 3.304754 1_555
Tl3 Tl5 3.304754 1_555
Tc0 Tl0 2.751732 1_455
Tc0 Tl1 2.751732 1_544
Tc0 Tl4 2.751734 1_554
Tc0 Tl5 2.751734 1_445
Tc0 Tl2 2.751737 1_545
Tc0 Tl3 2.751737 1_454
