# generated using pymatgen
data_TaMnNbO6
_symmetry_space_group_name_H-M   'P 1'
_cell_length_a   5.14043600
_cell_length_b   5.86660700
_cell_length_c   14.61277600
_cell_angle_alpha   90.00000000
_cell_angle_beta   90.00000000
_cell_angle_gamma   90.00000000
_symmetry_Int_Tables_number   1
_chemical_formula_structural   TaMnNbO6
_chemical_formula_sum   'Ta4 Mn4 Nb4 O24'
_cell_volume   440.67628496
_cell_formula_units_Z   4
loop_
 _symmetry_equiv_pos_site_id
 _symmetry_equiv_pos_as_xyz
  1  'x, y, z'
loop_
 _atom_site_type_symbol
 _atom_site_label
 _atom_site_symmetry_multiplicity
 _atom_site_fract_x
 _atom_site_fract_y
 _atom_site_fract_z
 _atom_site_occupancy
  Ta  Ta0  1  0.01424100  0.07298000  0.16313400  1
  Ta  Ta1  1  0.51424100  0.92702000  0.33686600  1
  Ta  Ta2  1  0.48575900  0.92702000  0.66313400  1
  Ta  Ta3  1  0.98575900  0.07298000  0.83686600  1
  Mn  Mn0  1  0.00000000  0.57777200  0.00000000  1
  Mn  Mn1  1  0.50000000  0.42222800  0.50000000  1
  Mn  Mn2  1  0.50000000  0.92826700  0.00000000  1
  Mn  Mn3  1  0.00000000  0.07173300  0.50000000  1
  Nb  Nb0  1  0.48660300  0.42965600  0.83825200  1
  Nb  Nb1  1  0.98660300  0.57034400  0.66174800  1
  Nb  Nb2  1  0.01339700  0.57034400  0.33825200  1
  Nb  Nb3  1  0.51339700  0.42965600  0.16174800  1
  O  O0  1  0.65603600  0.62308500  0.74377700  1
  O  O1  1  0.15603600  0.37691500  0.75622300  1
  O  O2  1  0.84396400  0.37691500  0.24377700  1
  O  O3  1  0.34396400  0.62308500  0.25622300  1
  O  O4  1  0.83795400  0.88206700  0.25533000  1
  O  O5  1  0.33795400  0.11793300  0.24467000  1
  O  O6  1  0.66204600  0.11793300  0.75533000  1
  O  O7  1  0.16204600  0.88206700  0.74467000  1
  O  O8  1  0.34591100  0.63311700  0.91881100  1
  O  O9  1  0.84591100  0.36688300  0.58118900  1
  O  O10  1  0.15408900  0.36688300  0.41881100  1
  O  O11  1  0.65408900  0.63311700  0.08118900  1
  O  O12  1  0.15344400  0.86717800  0.08219100  1
  O  O13  1  0.65344400  0.13282200  0.41780900  1
  O  O14  1  0.34655600  0.13282200  0.58219100  1
  O  O15  1  0.84655600  0.86717800  0.91780900  1
  O  O16  1  0.80979700  0.34801200  0.90051700  1
  O  O17  1  0.30979700  0.65198800  0.59948300  1
  O  O18  1  0.69020300  0.65198800  0.40051700  1
  O  O19  1  0.19020300  0.34801200  0.09948300  1
  O  O20  1  0.69305400  0.14976000  0.09930300  1
  O  O21  1  0.19305400  0.85024000  0.40069700  1
  O  O22  1  0.80694600  0.85024000  0.59930300  1
  O  O23  1  0.30694600  0.14976000  0.90069700  1
loop_
_geom_bond_atom_site_label_1
_geom_bond_atom_site_label_2
_geom_bond_distance
_geom_bond_site_symmetry_2
Mn0 O11 2.162109 1_455
Mn0 O8 2.162109 1_554
Mn0 O16 2.210458 1_454
Mn0 O19 2.210458 1_555
Mn0 O12 2.224249 1_555
Mn0 O15 2.224249 1_454
Mn1 O9 2.162109 1_555
Mn1 O10 2.162109 1_555
Mn1 O18 2.210458 1_555
Mn1 O17 2.210458 1_555
Mn1 O14 2.224249 1_555
Mn1 O13 2.224249 1_555
Mn2 O15 2.178186 1_554
Mn2 O12 2.178186 1_555
Mn2 O20 2.186084 1_565
Mn2 O23 2.186084 1_564
Mn2 O8 2.243463 1_554
Mn2 O11 2.243463 1_555
Mn3 O14 2.178186 1_555
Mn3 O13 2.178186 1_455
Mn3 O21 2.186084 1_545
Mn3 O22 2.186084 1_445
Mn3 O9 2.243463 1_455
Mn3 O10 2.243463 1_555
Nb0 O8 1.825805 1_555
Nb0 O16 1.953812 1_555
Nb0 O0 1.988008 1_555
Nb0 O23 2.093280 1_555
Nb0 O1 2.102386 1_555
Nb0 O6 2.371910 1_555
Nb1 O9 1.825805 1_555
Nb1 O17 1.953812 1_655
Nb1 O1 1.988008 1_655
Nb1 O22 2.093280 1_555
Nb1 O0 2.102386 1_555
Nb1 O7 2.371910 1_655
Nb2 O10 1.825805 1_555
Nb2 O18 1.953812 1_455
Nb2 O2 1.988008 1_455
Nb2 O21 2.093280 1_555
Nb2 O3 2.102386 1_555
Nb2 O4 2.371910 1_455
Nb3 O11 1.825805 1_555
Nb3 O19 1.953812 1_555
Nb3 O3 1.988008 1_555
Nb3 O20 2.093280 1_555
Nb3 O2 2.102386 1_555
Nb3 O5 2.371910 1_555
O0 Ta2 2.309577 1_555
O1 Ta3 2.309577 1_455
O2 Ta0 2.309577 1_655
O3 Ta1 2.309577 1_555
O4 Ta0 1.972477 1_665
O4 Ta1 2.063523 1_555
O5 Ta1 1.972477 1_545
O5 Ta0 2.063523 1_555
O6 Ta2 1.972477 1_545
O6 Ta3 2.063523 1_555
O7 Ta3 1.972477 1_465
O7 Ta2 2.063523 1_555
O12 Ta0 1.835421 1_565
O13 Ta1 1.835421 1_545
O14 Ta2 1.835421 1_545
O15 Ta3 1.835421 1_565
O16 Ta3 2.070429 1_555
O17 Ta2 2.070429 1_555
O18 Ta1 2.070429 1_555
O19 Ta0 2.070429 1_555
O20 Ta0 1.949064 1_655
O21 Ta1 1.949064 1_555
O22 Ta2 1.949064 1_555
O23 Ta3 1.949064 1_455
