# generated using pymatgen
data_CuPS3
_symmetry_space_group_name_H-M   'P 1'
_cell_length_a   5.31083413
_cell_length_b   5.31083413
_cell_length_c   14.90440863
_cell_angle_alpha   90.00000000
_cell_angle_beta   90.00000000
_cell_angle_gamma   90.00000000
_symmetry_Int_Tables_number   1
_chemical_formula_structural   CuPS3
_chemical_formula_sum   'Cu4 P4 S12'
_cell_volume   420.37823666
_cell_formula_units_Z   4
loop_
 _symmetry_equiv_pos_site_id
 _symmetry_equiv_pos_as_xyz
  1  'x, y, z'
loop_
 _atom_site_type_symbol
 _atom_site_label
 _atom_site_symmetry_multiplicity
 _atom_site_fract_x
 _atom_site_fract_y
 _atom_site_fract_z
 _atom_site_occupancy
  Cu  Cu0  1  -0.00000000  0.50000000  0.25000000  1
  Cu  Cu1  1  0.50000000  -0.00000000  0.75000000  1
  Cu  Cu2  1  -0.00000000  0.50000000  0.75000000  1
  Cu  Cu3  1  0.50000000  -0.00000000  0.25000000  1
  P  P0  1  0.50000000  0.50000000  0.40440489  1
  P  P1  1  -0.00000000  -0.00000000  0.90440489  1
  P  P2  1  0.50000000  0.50000000  0.59559511  1
  P  P3  1  -0.00000000  -0.00000000  0.09559511  1
  S  S0  1  0.29160406  0.70839594  0.50000000  1
  S  S1  1  0.70839594  0.29160406  0.50000000  1
  S  S2  1  0.20839594  0.20839594  -0.00000000  1
  S  S3  1  0.79160406  0.79160406  -0.00000000  1
  S  S4  1  0.26738105  0.26738105  0.33677253  1
  S  S5  1  0.73261895  0.73261895  0.33677253  1
  S  S6  1  0.23261895  0.76738105  0.83677253  1
  S  S7  1  0.76738105  0.23261895  0.83677253  1
  S  S8  1  0.73261895  0.73261895  0.66322747  1
  S  S9  1  0.26738105  0.26738105  0.66322747  1
  S  S10  1  0.76738105  0.23261895  0.16322747  1
  S  S11  1  0.23261895  0.76738105  0.16322747  1
loop_
_geom_bond_atom_site_label_1
_geom_bond_atom_site_label_2
_geom_bond_distance
_geom_bond_site_symmetry_2
Cu0 S10 2.283696 1_455
Cu0 S4 2.283696 1_555
Cu0 S5 2.283696 1_455
Cu0 S11 2.283696 1_555
Cu1 S6 2.283696 1_545
Cu1 S9 2.283696 1_555
Cu1 S8 2.283696 1_545
Cu1 S7 2.283696 1_555
Cu2 S6 2.283696 1_555
Cu2 S8 2.283696 1_455
Cu2 S9 2.283696 1_555
Cu2 S7 2.283696 1_455
Cu3 S11 2.283696 1_545
Cu3 S4 2.283696 1_555
Cu3 S5 2.283696 1_545
Cu3 S10 2.283696 1_555
P0 S4 2.017061 1_555
P0 S5 2.017061 1_555
P0 S1 2.116564 1_555
P0 S0 2.116564 1_555
P1 S7 2.017061 1_455
P1 S6 2.017061 1_545
P1 S2 2.116564 1_556
P1 S3 2.116564 1_446
P2 S8 2.017061 1_555
P2 S9 2.017061 1_555
P2 S1 2.116564 1_555
P2 S0 2.116564 1_555
P3 S11 2.017061 1_545
P3 S10 2.017061 1_455
P3 S3 2.116564 1_445
P3 S2 2.116564 1_555
