# generated using pymatgen
data_K2MgH12(SeO7)2
_symmetry_space_group_name_H-M   'P 1'
_cell_length_a   12.58242600
_cell_length_b   6.32047300
_cell_length_c   9.32148491
_cell_angle_alpha   75.78176499
_cell_angle_beta   90.00000000
_cell_angle_gamma   90.00000000
_symmetry_Int_Tables_number   1
_chemical_formula_structural   K2MgH12(SeO7)2
_chemical_formula_sum   'K4 Mg2 H24 Se4 O28'
_cell_volume   718.60030953
_cell_formula_units_Z   2
loop_
 _symmetry_equiv_pos_site_id
 _symmetry_equiv_pos_as_xyz
  1  'x, y, z'
loop_
 _atom_site_type_symbol
 _atom_site_label
 _atom_site_symmetry_multiplicity
 _atom_site_fract_x
 _atom_site_fract_y
 _atom_site_fract_z
 _atom_site_occupancy
  K  K0  1  0.15936000  0.65933600  0.63475800  1
  K  K1  1  0.65936000  0.34066400  0.86524200  1
  K  K2  1  0.84064000  0.34066400  0.36524200  1
  K  K3  1  0.34064000  0.65933600  0.13475800  1
  Mg  Mg0  1  0.50000000  0.00000000  0.50000000  1
  Mg  Mg1  1  0.00000000  0.00000000  0.00000000  1
  H  H0  1  0.41617800  0.68131300  0.70690500  1
  H  H1  1  0.91617800  0.31868700  0.79309500  1
  H  H2  1  0.58382200  0.31868700  0.29309500  1
  H  H3  1  0.08382200  0.68131300  0.20690500  1
  H  H4  1  0.37494200  0.90437100  0.74040900  1
  H  H5  1  0.87494200  0.09562900  0.75959100  1
  H  H6  1  0.62505800  0.09562900  0.25959100  1
  H  H7  1  0.12505800  0.90437100  0.24040900  1
  H  H8  1  0.40408900  0.06121300  0.23633900  1
  H  H9  1  0.90408900  0.93878700  0.26366100  1
  H  H10  1  0.59591100  0.93878700  0.76366100  1
  H  H11  1  0.09591100  0.06121300  0.73633900  1
  H  H12  1  0.31775900  0.98572200  0.36281800  1
  H  H13  1  0.81775900  0.01427800  0.13718200  1
  H  H14  1  0.68224100  0.01427800  0.63718200  1
  H  H15  1  0.18224100  0.98572200  0.86281800  1
  H  H16  1  0.55530700  0.66274300  0.40117800  1
  H  H17  1  0.05530700  0.33725700  0.09882200  1
  H  H18  1  0.44469300  0.33725700  0.59882200  1
  H  H19  1  0.94469300  0.66274300  0.90117800  1
  H  H20  1  0.63960300  0.65705300  0.53023700  1
  H  H21  1  0.13960300  0.34294700  0.96976300  1
  H  H22  1  0.36039700  0.34294700  0.46976300  1
  H  H23  1  0.86039700  0.65705300  0.03023700  1
  Se  Se0  1  0.36265000  0.27266500  0.91143200  1
  Se  Se1  1  0.86265000  0.72733500  0.58856800  1
  Se  Se2  1  0.63735000  0.72733500  0.08856800  1
  Se  Se3  1  0.13735000  0.27266500  0.41143200  1
  O  O0  1  0.25900600  0.44259900  0.90498300  1
  O  O1  1  0.75900600  0.55740100  0.59501700  1
  O  O2  1  0.74099400  0.55740100  0.09501700  1
  O  O3  1  0.24099400  0.44259900  0.40498300  1
  O  O4  1  0.42493300  0.24187700  0.07327700  1
  O  O5  1  0.92493300  0.75812300  0.42672300  1
  O  O6  1  0.57506700  0.75812300  0.92672300  1
  O  O7  1  0.07506700  0.24187700  0.57327700  1
  O  O8  1  0.44705700  0.39070400  0.77522500  1
  O  O9  1  0.94705700  0.60929600  0.72477500  1
  O  O10  1  0.55294300  0.60929600  0.22477500  1
  O  O11  1  0.05294300  0.39070400  0.27522500  1
  O  O12  1  0.32091600  0.02927100  0.88842700  1
  O  O13  1  0.82091600  0.97072900  0.61157300  1
  O  O14  1  0.67908400  0.97072900  0.11157300  1
  O  O15  1  0.17908400  0.02927100  0.38842700  1
  O  O16  1  0.39188200  0.83241300  0.66019500  1
  O  O17  1  0.89188200  0.16758700  0.83980500  1
  O  O18  1  0.60811800  0.16758700  0.33980500  1
  O  O19  1  0.10811800  0.83241300  0.16019500  1
  O  O20  1  0.39167300  0.95829700  0.33566300  1
  O  O21  1  0.89167300  0.04170300  0.16433700  1
  O  O22  1  0.60832700  0.04170300  0.66433700  1
  O  O23  1  0.10832700  0.95829700  0.83566300  1
  O  O24  1  0.56656300  0.70620700  0.49508300  1
  O  O25  1  0.06656300  0.29379300  0.00491700  1
  O  O26  1  0.43343700  0.29379300  0.50491700  1
  O  O27  1  0.93343700  0.70620700  0.99508300  1
loop_
_geom_bond_atom_site_label_1
_geom_bond_atom_site_label_2
_geom_bond_distance
_geom_bond_site_symmetry_2
K0 O9 2.794551 1_455
K0 O0 2.845763 1_555
K0 O15 2.857213 1_565
K0 O3 2.993396 1_555
K0 O7 3.026223 1_555
K1 O8 2.794551 1_555
K1 O1 2.845763 1_555
K1 O14 2.857213 1_546
K1 O2 2.993396 1_556
K1 O6 3.026223 1_555
K2 O11 2.794551 1_655
K2 O2 2.845763 1_555
K2 O13 2.857213 1_545
K2 O1 2.993396 1_555
K2 O5 3.026223 1_555
K3 O10 2.794551 1_555
K3 O3 2.845763 1_555
K3 O12 2.857213 1_564
K3 O0 2.993396 1_554
K3 O4 3.026223 1_555
Mg0 O24 2.047797 1_545
Mg0 O26 2.047797 1_555
Mg0 O16 2.103675 1_545
Mg0 O18 2.103675 1_555
Mg0 O22 2.114769 1_555
Mg0 O20 2.114769 1_545
Mg1 O27 2.047797 1_444
Mg1 O25 2.047797 1_555
Mg1 O19 2.103675 1_545
Mg1 O17 2.103675 1_454
Mg1 O21 2.114769 1_455
Mg1 O23 2.114769 1_544
H0 O16 0.995408 1_555
H1 O17 0.995408 1_555
H2 O18 0.995408 1_555
H3 O19 0.995408 1_555
H4 O16 0.989146 1_555
H5 O17 0.989146 1_555
H6 O18 0.989146 1_555
H7 O19 0.989146 1_555
H8 O20 1.004430 1_545
H8 O4 1.682384 1_555
H9 O21 1.004430 1_565
H9 O5 1.682384 1_555
H10 O22 1.004430 1_565
H10 O6 1.682384 1_555
H11 O23 1.004430 1_545
H11 O7 1.682384 1_555
H12 O20 0.990255 1_555
H13 O21 0.990255 1_555
H14 O22 0.990255 1_555
H15 O23 0.990255 1_555
H16 O24 0.989879 1_555
H17 O25 0.989879 1_555
H18 O26 0.989879 1_555
H19 O27 0.989879 1_555
H20 O24 0.999244 1_555
H20 O1 1.682751 1_555
H21 O25 0.999244 1_556
H21 O0 1.682751 1_555
H22 O26 0.999244 1_555
H22 O3 1.682751 1_555
H23 O27 0.999244 1_554
H23 O2 1.682751 1_555
O0 Se0 1.681121 1_555
O1 Se1 1.681121 1_555
O2 Se2 1.681121 1_555
O3 Se3 1.681121 1_555
O4 Se0 1.668466 1_554
O5 Se1 1.668466 1_555
O6 Se2 1.668466 1_556
O7 Se3 1.668466 1_555
O8 Se0 1.682632 1_555
O9 Se1 1.682632 1_555
O10 Se2 1.682632 1_555
O11 Se3 1.682632 1_555
O12 Se0 1.688298 1_555
O13 Se1 1.688298 1_555
O14 Se2 1.688298 1_555
O15 Se3 1.688298 1_555
