# generated using pymatgen
data_Li9Mn7O16
_symmetry_space_group_name_H-M   'P 1'
_cell_length_a   5.08086100
_cell_length_b   5.99326167
_cell_length_c   10.23103917
_cell_angle_alpha   92.10892834
_cell_angle_beta   101.50783442
_cell_angle_gamma   102.94850935
_symmetry_Int_Tables_number   1
_chemical_formula_structural   Li9Mn7O16
_chemical_formula_sum   'Li9 Mn7 O16'
_cell_volume   296.43353583
_cell_formula_units_Z   1
loop_
 _symmetry_equiv_pos_site_id
 _symmetry_equiv_pos_as_xyz
  1  'x, y, z'
loop_
 _atom_site_type_symbol
 _atom_site_label
 _atom_site_symmetry_multiplicity
 _atom_site_fract_x
 _atom_site_fract_y
 _atom_site_fract_z
 _atom_site_occupancy
  Li  Li0  1  0.50000000  0.00000000  0.00000000  1
  Li  Li1  1  0.98872100  0.86977200  0.12155300  1
  Li  Li2  1  0.01127900  0.13022800  0.87844700  1
  Li  Li3  1  0.49856000  0.73762300  0.24607600  1
  Li  Li4  1  0.99770500  0.62485300  0.37184800  1
  Li  Li5  1  0.50000000  0.50000000  0.50000000  1
  Li  Li6  1  0.00229500  0.37514700  0.62815200  1
  Li  Li7  1  0.50144000  0.26237700  0.75392400  1
  Li  Li8  1  0.50000000  0.50000000  0.00000000  1
  Mn  Mn0  1  0.99543200  0.61128900  0.87859200  1
  Mn  Mn1  1  0.00456800  0.38871100  0.12140800  1
  Mn  Mn2  1  0.50635700  0.26312800  0.24350500  1
  Mn  Mn3  1  0.00517000  0.12918800  0.37314400  1
  Mn  Mn4  1  0.50000000  0.00000000  0.50000000  1
  Mn  Mn5  1  0.99483000  0.87081200  0.62685600  1
  Mn  Mn6  1  0.49364300  0.73687200  0.75649500  1
  O  O0  1  0.21496900  0.66040500  0.05882400  1
  O  O1  1  0.77094800  0.55743900  0.18111600  1
  O  O2  1  0.75113400  0.80287400  0.92465700  1
  O  O3  1  0.25440000  0.43820900  0.29764600  1
  O  O4  1  0.75540300  0.30522000  0.42234900  1
  O  O5  1  0.25337700  0.18145000  0.55314400  1
  O  O6  1  0.74921900  0.05055400  0.67562500  1
  O  O7  1  0.22419800  0.89781800  0.81523500  1
  O  O8  1  0.78503100  0.33959500  0.94117600  1
  O  O9  1  0.24886600  0.19712600  0.07534300  1
  O  O10  1  0.22905200  0.44256100  0.81888400  1
  O  O11  1  0.77580200  0.10218200  0.18476500  1
  O  O12  1  0.25078100  0.94944600  0.32437500  1
  O  O13  1  0.74662300  0.81855000  0.44685600  1
  O  O14  1  0.24459700  0.69478000  0.57765100  1
  O  O15  1  0.74560000  0.56179100  0.70235400  1
loop_
_geom_bond_atom_site_label_1
_geom_bond_atom_site_label_2
_geom_bond_distance
_geom_bond_site_symmetry_2
Li0 O11 2.094124 1_555
Li0 O7 2.094124 1_544
Li0 O2 2.149204 1_544
Li0 O9 2.149204 1_555
Li0 O0 2.391412 1_545
Li0 O8 2.391412 1_554
Li1 O0 2.046787 1_655
Li1 O11 2.101636 1_565
Li1 O2 2.104602 1_554
Li1 O1 2.127066 1_555
Li1 O12 2.201488 1_655
Li1 O9 2.230506 1_665
Li2 O8 2.046787 1_455
Li2 O7 2.101636 1_545
Li2 O9 2.104602 1_556
Li2 O10 2.127066 1_555
Li2 O6 2.201488 1_455
Li2 O2 2.230506 1_445
Li3 O3 2.090608 1_555
Li3 O0 2.120150 1_555
Li3 O1 2.123012 1_555
Li3 O13 2.159433 1_555
Li3 O12 2.209545 1_555
Li3 O11 2.495122 1_565
Li4 O1 2.033431 1_555
Li4 O3 2.124855 1_655
Li4 O13 2.133715 1_555
Li4 O4 2.173019 1_555
Li4 O14 2.197327 1_655
Li4 O12 2.207141 1_655
Li5 O15 2.164735 1_555
Li5 O3 2.164735 1_555
Li5 O4 2.167905 1_555
Li5 O14 2.167905 1_555
Li5 O13 2.187874 1_555
Li5 O5 2.187874 1_555
Li6 O10 2.033431 1_555
Li6 O15 2.124855 1_455
Li6 O5 2.133715 1_555
Li6 O14 2.173019 1_555
Li6 O4 2.197327 1_455
Li6 O6 2.207141 1_455
Li7 O15 2.090608 1_555
Li7 O8 2.120150 1_555
Li7 O10 2.123012 1_555
Li7 O5 2.159433 1_555
Li7 O6 2.209545 1_555
Li7 O7 2.495122 1_545
Li8 O1 2.042090 1_555
Li8 O10 2.042090 1_554
Li8 O0 2.076726 1_555
Li8 O8 2.076726 1_554
Li8 O2 2.230406 1_554
Li8 O9 2.230406 1_555
Mn0 O10 1.893801 1_655
Mn0 O0 1.929576 1_656
Mn0 O8 1.942678 1_555
Mn0 O15 1.956805 1_555
Mn0 O2 1.978259 1_555
Mn0 O7 2.051376 1_655
Mn1 O1 1.893801 1_455
Mn1 O8 1.929576 1_454
Mn1 O0 1.942678 1_555
Mn1 O3 1.956805 1_555
Mn1 O9 1.978259 1_555
Mn1 O11 2.051376 1_455
Mn2 O9 1.909967 1_555
Mn2 O3 1.972010 1_555
Mn2 O4 1.977870 1_555
Mn2 O11 2.010773 1_555
Mn2 O1 2.165307 1_555
Mn2 O12 2.313921 1_545
Mn3 O12 1.943716 1_545
Mn3 O4 1.947492 1_455
Mn3 O5 1.983381 1_555
Mn3 O11 2.023655 1_455
Mn3 O3 2.252724 1_555
Mn3 O13 2.272235 1_445
Mn4 O6 1.950369 1_555
Mn4 O12 1.950369 1_545
Mn4 O13 1.971649 1_545
Mn4 O5 1.971649 1_555
Mn4 O4 2.261811 1_555
Mn4 O14 2.261811 1_545
Mn5 O6 1.943716 1_565
Mn5 O14 1.947492 1_655
Mn5 O13 1.983381 1_555
Mn5 O7 2.023655 1_655
Mn5 O15 2.252724 1_555
Mn5 O5 2.272235 1_665
Mn6 O2 1.909967 1_555
Mn6 O15 1.972010 1_555
Mn6 O14 1.977870 1_555
Mn6 O7 2.010773 1_555
Mn6 O10 2.165307 1_555
Mn6 O6 2.313921 1_565
