# generated using pymatgen
data_Ti3Cd
_symmetry_space_group_name_H-M   'P 1'
_cell_length_a   4.15100900
_cell_length_b   4.15100900
_cell_length_c   4.15100900
_cell_angle_alpha   90.00000000
_cell_angle_beta   90.00000000
_cell_angle_gamma   90.00000000
_symmetry_Int_Tables_number   1
_chemical_formula_structural   Ti3Cd
_chemical_formula_sum   'Ti3 Cd1'
_cell_volume   71.52552018
_cell_formula_units_Z   1
loop_
 _symmetry_equiv_pos_site_id
 _symmetry_equiv_pos_as_xyz
  1  'x, y, z'
loop_
 _atom_site_type_symbol
 _atom_site_label
 _atom_site_symmetry_multiplicity
 _atom_site_fract_x
 _atom_site_fract_y
 _atom_site_fract_z
 _atom_site_occupancy
  Ti  Ti0  1  0.00000000  0.50000000  0.50000000  1
  Ti  Ti1  1  0.50000000  0.00000000  0.50000000  1
  Ti  Ti2  1  0.50000000  0.50000000  0.00000000  1
  Cd  Cd0  1  0.00000000  0.00000000  0.00000000  1
loop_
_geom_bond_atom_site_label_1
_geom_bond_atom_site_label_2
_geom_bond_distance
_geom_bond_site_symmetry_2
Ti0 Ti1 2.935207 1_465
Ti0 Ti1 2.935207 1_455
Ti0 Ti2 2.935207 1_556
Ti0 Ti2 2.935207 1_455
Ti0 Ti2 2.935207 1_456
Ti0 Ti1 2.935207 1_555
Ti0 Ti2 2.935207 1_555
Ti0 Ti1 2.935207 1_565
Ti1 Ti2 2.935207 1_545
Ti1 Ti2 2.935207 1_546
Ti1 Ti2 2.935207 1_555
Ti1 Ti2 2.935207 1_556
Cd0 Ti2 2.935207 1_445
Cd0 Ti0 2.935207 1_544
Cd0 Ti0 2.935207 1_555
Cd0 Ti2 2.935207 1_545
Cd0 Ti0 2.935207 1_554
Cd0 Ti0 2.935207 1_545
Cd0 Ti1 2.935207 1_455
Cd0 Ti2 2.935207 1_455
Cd0 Ti1 2.935207 1_555
Cd0 Ti1 2.935207 1_454
Cd0 Ti2 2.935207 1_555
Cd0 Ti1 2.935207 1_554
