# generated using pymatgen
data_Eu3Rh4Pb13
_symmetry_space_group_name_H-M   'P 1'
_cell_length_a   10.23155500
_cell_length_b   10.23155500
_cell_length_c   10.23155500
_cell_angle_alpha   90.00000000
_cell_angle_beta   90.00000000
_cell_angle_gamma   90.00000000
_symmetry_Int_Tables_number   1
_chemical_formula_structural   Eu3Rh4Pb13
_chemical_formula_sum   'Eu6 Rh8 Pb26'
_cell_volume   1071.08744699
_cell_formula_units_Z   2
loop_
 _symmetry_equiv_pos_site_id
 _symmetry_equiv_pos_as_xyz
  1  'x, y, z'
loop_
 _atom_site_type_symbol
 _atom_site_label
 _atom_site_symmetry_multiplicity
 _atom_site_fract_x
 _atom_site_fract_y
 _atom_site_fract_z
 _atom_site_occupancy
  Eu  Eu0  1  0.00000000  0.50000000  0.75000000  1
  Eu  Eu1  1  0.50000000  0.25000000  0.00000000  1
  Eu  Eu2  1  0.75000000  0.00000000  0.50000000  1
  Eu  Eu3  1  0.00000000  0.50000000  0.25000000  1
  Eu  Eu4  1  0.50000000  0.75000000  0.00000000  1
  Eu  Eu5  1  0.25000000  0.00000000  0.50000000  1
  Rh  Rh0  1  0.75000000  0.25000000  0.75000000  1
  Rh  Rh1  1  0.25000000  0.75000000  0.25000000  1
  Rh  Rh2  1  0.75000000  0.75000000  0.25000000  1
  Rh  Rh3  1  0.25000000  0.25000000  0.75000000  1
  Rh  Rh4  1  0.25000000  0.75000000  0.75000000  1
  Rh  Rh5  1  0.75000000  0.25000000  0.25000000  1
  Rh  Rh6  1  0.25000000  0.25000000  0.25000000  1
  Rh  Rh7  1  0.75000000  0.75000000  0.75000000  1
  Pb  Pb0  1  0.50000000  0.50000000  0.50000000  1
  Pb  Pb1  1  0.00000000  0.00000000  0.00000000  1
  Pb  Pb2  1  0.80582100  0.34475400  0.50000000  1
  Pb  Pb3  1  0.65524600  0.50000000  0.80582100  1
  Pb  Pb4  1  0.50000000  0.19417900  0.65524600  1
  Pb  Pb5  1  0.19417900  0.65524600  0.50000000  1
  Pb  Pb6  1  0.34475400  0.50000000  0.19417900  1
  Pb  Pb7  1  0.50000000  0.80582100  0.34475400  1
  Pb  Pb8  1  0.80582100  0.65524600  0.50000000  1
  Pb  Pb9  1  0.65524600  0.50000000  0.19417900  1
  Pb  Pb10  1  0.19417900  0.34475400  0.50000000  1
  Pb  Pb11  1  0.34475400  0.50000000  0.80582100  1
  Pb  Pb12  1  0.50000000  0.80582100  0.65524600  1
  Pb  Pb13  1  0.50000000  0.19417900  0.34475400  1
  Pb  Pb14  1  0.30582100  0.00000000  0.84475400  1
  Pb  Pb15  1  0.15524600  0.30582100  0.00000000  1
  Pb  Pb16  1  0.00000000  0.15524600  0.69417900  1
  Pb  Pb17  1  0.69417900  0.00000000  0.15524600  1
  Pb  Pb18  1  0.84475400  0.69417900  0.00000000  1
  Pb  Pb19  1  0.00000000  0.84475400  0.30582100  1
  Pb  Pb20  1  0.30582100  0.00000000  0.15524600  1
  Pb  Pb21  1  0.15524600  0.69417900  0.00000000  1
  Pb  Pb22  1  0.69417900  0.00000000  0.84475400  1
  Pb  Pb23  1  0.84475400  0.30582100  0.00000000  1
  Pb  Pb24  1  0.00000000  0.15524600  0.30582100  1
  Pb  Pb25  1  0.00000000  0.84475400  0.69417900  1
loop_
_geom_bond_atom_site_label_1
_geom_bond_atom_site_label_2
_geom_bond_distance
_geom_bond_site_symmetry_2
Eu0 Pb25 3.573308 1_555
Eu0 Pb3 3.573308 1_455
Eu0 Pb16 3.573308 1_555
Eu0 Pb11 3.573308 1_555
Eu0 Pb5 3.607357 1_555
Eu0 Pb21 3.607357 1_556
Eu0 Pb23 3.607357 1_456
Eu0 Pb8 3.607357 1_455
Eu0 Pb10 3.607357 1_555
Eu0 Pb18 3.607357 1_456
Eu0 Pb2 3.607357 1_455
Eu0 Pb15 3.607357 1_556
Eu0 Rh3 3.617401 1_555
Eu0 Rh7 3.617401 1_455
Eu0 Rh0 3.617401 1_455
Eu0 Rh4 3.617401 1_555
Eu1 Pb23 3.573308 1_555
Eu1 Pb15 3.573308 1_555
Eu1 Pb4 3.573308 1_554
Eu1 Pb13 3.573308 1_555
Eu1 Pb20 3.607357 1_555
Eu1 Pb22 3.607357 1_554
Eu1 Pb9 3.607357 1_555
Eu1 Pb17 3.607357 1_555
Eu1 Pb14 3.607357 1_554
Eu1 Pb6 3.607357 1_555
Eu1 Pb11 3.607357 1_554
Eu1 Pb3 3.607357 1_554
Eu1 Rh6 3.617401 1_555
Eu1 Rh5 3.617401 1_555
Eu1 Rh0 3.617401 1_554
Eu1 Rh3 3.617401 1_554
Eu2 Pb2 3.573308 1_555
Eu2 Pb8 3.573308 1_545
Eu2 Pb22 3.573308 1_555
Eu2 Pb17 3.573308 1_555
Eu2 Pb4 3.607357 1_555
Eu2 Pb7 3.607357 1_545
Eu2 Pb25 3.607357 1_645
Eu2 Pb12 3.607357 1_545
Eu2 Pb13 3.607357 1_555
Eu2 Pb16 3.607357 1_655
Eu2 Pb19 3.607357 1_645
Eu2 Pb24 3.607357 1_655
Eu2 Rh2 3.617401 1_545
Eu2 Rh0 3.617401 1_555
Eu2 Rh7 3.617401 1_545
Eu2 Rh5 3.617401 1_555
Eu3 Pb19 3.573308 1_555
Eu3 Pb6 3.573308 1_555
Eu3 Pb9 3.573308 1_455
Eu3 Pb24 3.573308 1_555
Eu3 Pb5 3.607357 1_555
Eu3 Pb23 3.607357 1_455
Eu3 Pb18 3.607357 1_455
Eu3 Pb15 3.607357 1_555
Eu3 Pb8 3.607357 1_455
Eu3 Pb10 3.607357 1_555
Eu3 Pb2 3.607357 1_455
Eu3 Pb21 3.607357 1_555
Eu3 Rh5 3.617401 1_455
Eu3 Rh6 3.617401 1_555
Eu3 Rh2 3.617401 1_455
Eu3 Rh1 3.617401 1_555
Eu4 Pb21 3.573308 1_555
Eu4 Pb18 3.573308 1_555
Eu4 Pb12 3.573308 1_554
Eu4 Pb7 3.573308 1_555
Eu4 Pb17 3.607357 1_565
Eu4 Pb9 3.607357 1_555
Eu4 Pb20 3.607357 1_565
Eu4 Pb14 3.607357 1_564
Eu4 Pb6 3.607357 1_555
Eu4 Pb11 3.607357 1_554
Eu4 Pb22 3.607357 1_564
Eu4 Pb3 3.607357 1_554
Eu4 Rh4 3.617401 1_554
Eu4 Rh2 3.617401 1_555
Eu4 Rh1 3.617401 1_555
Eu4 Rh7 3.617401 1_554
Eu5 Pb14 3.573308 1_555
Eu5 Pb5 3.573308 1_545
Eu5 Pb10 3.573308 1_555
Eu5 Pb20 3.573308 1_555
Eu5 Pb24 3.607357 1_555
Eu5 Pb7 3.607357 1_545
Eu5 Pb12 3.607357 1_545
Eu5 Pb13 3.607357 1_555
Eu5 Pb16 3.607357 1_555
Eu5 Pb19 3.607357 1_545
Eu5 Pb25 3.607357 1_545
Eu5 Pb4 3.607357 1_555
Eu5 Rh3 3.617401 1_555
Eu5 Rh4 3.617401 1_545
Eu5 Rh1 3.617401 1_545
Eu5 Rh6 3.617401 1_555
Pb0 Pb13 3.509107 1_555
Pb0 Pb3 3.509107 1_555
Pb0 Pb6 3.509107 1_555
Pb0 Pb10 3.509107 1_555
Pb0 Pb7 3.509107 1_555
Pb0 Pb12 3.509107 1_555
Pb0 Pb5 3.509107 1_555
Pb0 Pb2 3.509107 1_555
Pb0 Pb4 3.509107 1_555
Pb0 Pb11 3.509107 1_555
Pb0 Pb8 3.509107 1_555
Pb0 Pb9 3.509107 1_555
Pb1 Pb17 3.509107 1_455
Pb1 Pb19 3.509107 1_545
Pb1 Pb14 3.509107 1_554
Pb1 Pb23 3.509107 1_455
Pb1 Pb20 3.509107 1_555
Pb1 Pb24 3.509107 1_555
Pb1 Pb16 3.509107 1_554
Pb1 Pb18 3.509107 1_445
Pb1 Pb22 3.509107 1_454
Pb1 Pb21 3.509107 1_545
Pb1 Pb15 3.509107 1_555
Pb1 Pb25 3.509107 1_544
Pb2 Rh5 2.794438 1_555
Pb2 Rh0 2.794438 1_555
Pb2 Pb8 3.176816 1_555
Pb2 Pb24 3.413788 1_655
Pb3 Rh0 2.794438 1_555
Pb3 Rh7 2.794438 1_555
Pb4 Rh0 2.794438 1_555
Pb4 Rh3 2.794438 1_555
Pb5 Rh4 2.794438 1_555
Pb5 Rh1 2.794438 1_555
Pb6 Rh6 2.794438 1_555
Pb6 Rh1 2.794438 1_555
Pb6 Pb9 3.176816 1_555
Pb7 Rh2 2.794438 1_555
Pb7 Rh1 2.794438 1_555
Pb8 Rh2 2.794438 1_555
Pb8 Rh7 2.794438 1_555
Pb9 Rh2 2.794438 1_555
Pb9 Rh5 2.794438 1_555
Pb10 Rh6 2.794438 1_555
Pb10 Rh3 2.794438 1_555
Pb10 Pb5 3.176816 1_555
Pb10 Pb16 3.413788 1_555
Pb10 Pb24 3.413788 1_555
Pb11 Rh4 2.794438 1_555
Pb11 Rh3 2.794438 1_555
Pb11 Pb3 3.176816 1_555
Pb11 Pb21 3.413788 1_556
Pb11 Pb15 3.413788 1_556
Pb12 Rh4 2.794438 1_555
Pb12 Rh7 2.794438 1_555
Pb12 Pb7 3.176816 1_555
Pb12 Pb14 3.413788 1_565
Pb12 Pb22 3.413788 1_565
Pb13 Rh5 2.794438 1_555
Pb13 Rh6 2.794438 1_555
Pb13 Pb4 3.176816 1_555
Pb13 Pb20 3.413788 1_555
Pb13 Pb17 3.413788 1_555
Pb14 Rh4 2.794438 1_545
Pb14 Rh3 2.794438 1_555
Pb14 Pb20 3.176816 1_556
Pb14 Pb4 3.413788 1_555
Pb15 Rh6 2.794438 1_555
Pb15 Rh3 2.794438 1_554
Pb15 Pb23 3.176816 1_455
Pb15 Pb6 3.413788 1_555
Pb16 Rh0 2.794438 1_455
Pb16 Rh3 2.794438 1_555
Pb16 Pb25 3.176816 1_545
Pb16 Pb2 3.413788 1_455
Pb17 Rh5 2.794438 1_555
Pb17 Rh2 2.794438 1_545
Pb17 Pb22 3.176816 1_554
Pb17 Pb7 3.413788 1_545
Pb18 Rh2 2.794438 1_555
Pb18 Rh7 2.794438 1_554
Pb18 Pb21 3.176816 1_655
Pb18 Pb3 3.413788 1_554
Pb18 Pb9 3.413788 1_555
Pb19 Rh2 2.794438 1_455
Pb19 Rh1 2.794438 1_555
Pb19 Pb24 3.176816 1_565
Pb19 Pb5 3.413788 1_555
Pb19 Pb8 3.413788 1_455
Pb20 Rh1 2.794438 1_545
Pb20 Rh6 2.794438 1_555
Pb20 Pb7 3.413788 1_545
Pb21 Rh1 2.794438 1_555
Pb21 Rh4 2.794438 1_554
Pb21 Pb6 3.413788 1_555
Pb22 Rh7 2.794438 1_545
Pb22 Rh0 2.794438 1_555
Pb22 Pb4 3.413788 1_555
Pb23 Rh5 2.794438 1_555
Pb23 Rh0 2.794438 1_554
Pb23 Pb3 3.413788 1_554
Pb23 Pb9 3.413788 1_555
Pb24 Rh6 2.794438 1_555
Pb24 Rh5 2.794438 1_455
Pb25 Rh7 2.794438 1_455
Pb25 Rh4 2.794438 1_555
Pb25 Pb5 3.413788 1_555
Pb25 Pb8 3.413788 1_455
