# generated using pymatgen
data_PrFeH8C6(N3O2)2
_symmetry_space_group_name_H-M   'P 1'
_cell_length_a   7.92595736
_cell_length_b   7.92595736
_cell_length_c   14.41395500
_cell_angle_alpha   90.00000000
_cell_angle_beta   90.00000000
_cell_angle_gamma   120.50227890
_symmetry_Int_Tables_number   1
_chemical_formula_structural   PrFeH8C6(N3O2)2
_chemical_formula_sum   'Pr2 Fe2 H16 C12 N12 O8'
_cell_volume   780.18363845
_cell_formula_units_Z   2
loop_
 _symmetry_equiv_pos_site_id
 _symmetry_equiv_pos_as_xyz
  1  'x, y, z'
loop_
 _atom_site_type_symbol
 _atom_site_label
 _atom_site_symmetry_multiplicity
 _atom_site_fract_x
 _atom_site_fract_y
 _atom_site_fract_z
 _atom_site_occupancy
  Pr  Pr0  1  0.82396900  0.17603100  0.25000000  1
  Pr  Pr1  1  0.17603100  0.82396900  0.75000000  1
  Fe  Fe0  1  0.50000000  0.50000000  0.00000000  1
  Fe  Fe1  1  0.50000000  0.50000000  0.50000000  1
  H  H0  1  0.18791900  0.81208100  0.04606500  1
  H  H1  1  0.81208100  0.18791900  0.95393500  1
  H  H2  1  0.18791900  0.81208100  0.45393500  1
  H  H3  1  0.81208100  0.18791900  0.54606500  1
  H  H4  1  0.08760300  0.91239700  0.09574800  1
  H  H5  1  0.91239700  0.08760300  0.90425200  1
  H  H6  1  0.08760300  0.91239700  0.40425200  1
  H  H7  1  0.91239700  0.08760300  0.59574800  1
  H  H8  1  0.37657000  0.97769800  0.19508600  1
  H  H9  1  0.97769800  0.37657000  0.80491400  1
  H  H10  1  0.37657000  0.97769800  0.30491400  1
  H  H11  1  0.97769800  0.37657000  0.69508600  1
  H  H12  1  0.62343000  0.02230200  0.80491400  1
  H  H13  1  0.02230200  0.62343000  0.19508600  1
  H  H14  1  0.62343000  0.02230200  0.69508600  1
  H  H15  1  0.02230200  0.62343000  0.30491400  1
  C  C0  1  0.35097200  0.25638900  0.90541600  1
  C  C1  1  0.25638900  0.35097200  0.09458400  1
  C  C2  1  0.35097200  0.25638900  0.59458400  1
  C  C3  1  0.25638900  0.35097200  0.40541600  1
  C  C4  1  0.64902800  0.74361100  0.09458400  1
  C  C5  1  0.74361100  0.64902800  0.90541600  1
  C  C6  1  0.64902800  0.74361100  0.40541600  1
  C  C7  1  0.74361100  0.64902800  0.59458400  1
  C  C8  1  0.64428300  0.35571700  0.06054600  1
  C  C9  1  0.35571700  0.64428300  0.93945400  1
  C  C10  1  0.64428300  0.35571700  0.43945400  1
  C  C11  1  0.35571700  0.64428300  0.56054600  1
  N  N0  1  0.72464000  0.88167000  0.14256300  1
  N  N1  1  0.88167000  0.72464000  0.85743700  1
  N  N2  1  0.72464000  0.88167000  0.35743700  1
  N  N3  1  0.88167000  0.72464000  0.64256300  1
  N  N4  1  0.27536000  0.11833000  0.85743700  1
  N  N5  1  0.11833000  0.27536000  0.14256300  1
  N  N6  1  0.27536000  0.11833000  0.64256300  1
  N  N7  1  0.11833000  0.27536000  0.35743700  1
  N  N8  1  0.71945100  0.28054900  0.09876900  1
  N  N9  1  0.28054900  0.71945100  0.90123100  1
  N  N10  1  0.71945100  0.28054900  0.40123100  1
  N  N11  1  0.28054900  0.71945100  0.59876900  1
  O  O0  1  0.15752700  0.84247300  0.10752600  1
  O  O1  1  0.84247300  0.15752700  0.89247400  1
  O  O2  1  0.15752700  0.84247300  0.39247400  1
  O  O3  1  0.84247300  0.15752700  0.60752600  1
  O  O4  1  0.46203600  0.02718400  0.25000000  1
  O  O5  1  0.02718400  0.46203600  0.75000000  1
  O  O6  1  0.53796400  0.97281600  0.75000000  1
  O  O7  1  0.97281600  0.53796400  0.25000000  1
loop_
_geom_bond_atom_site_label_1
_geom_bond_atom_site_label_2
_geom_bond_distance
_geom_bond_site_symmetry_2
H0 O0 0.979678 1_555
H1 O1 0.979678 1_555
H2 O2 0.979678 1_555
H3 O3 0.979678 1_555
H4 O0 0.977208 1_555
H5 O1 0.977208 1_555
H6 O2 0.977208 1_555
H7 O3 0.977208 1_555
H8 O4 0.984637 1_565
H9 O5 0.984637 1_655
H10 O4 0.984637 1_565
H11 O5 0.984637 1_655
H12 O6 0.984637 1_545
H13 O7 0.984637 1_455
H14 O6 0.984637 1_545
H15 O7 0.984637 1_455
C0 N4 1.170082 1_555
C0 Fe0 2.160282 1_556
C1 N5 1.170082 1_555
C1 Fe0 2.160282 1_555
C2 N6 1.170082 1_555
C2 Fe1 2.160282 1_555
C3 N7 1.170082 1_555
C3 Fe1 2.160282 1_555
C4 N0 1.170082 1_555
C4 Fe0 2.160282 1_555
C5 N1 1.170082 1_555
C5 Fe0 2.160282 1_556
C6 N2 1.170082 1_555
C6 Fe1 2.160282 1_555
C7 N3 1.170082 1_555
C7 Fe1 2.160282 1_555
C8 N8 1.172080 1_555
C8 Fe0 2.169045 1_555
C9 N9 1.172080 1_555
C9 Fe0 2.169045 1_556
C10 N10 1.172080 1_555
C10 Fe1 2.169045 1_555
C11 N11 1.172080 1_555
C11 Fe1 2.169045 1_555
N0 Pr0 2.568395 1_565
N1 Pr1 2.568395 1_655
N2 Pr0 2.568395 1_565
N3 Pr1 2.568395 1_655
N4 Pr1 2.568395 1_545
N5 Pr0 2.568395 1_455
N6 Pr1 2.568395 1_545
N7 Pr0 2.568395 1_455
N8 Pr0 2.611675 1_555
N9 Pr1 2.611675 1_555
N10 Pr0 2.611675 1_555
N11 Pr1 2.611675 1_555
O4 Pr0 2.487063 1_555
O5 Pr1 2.487063 1_555
O6 Pr1 2.487063 1_555
O7 Pr0 2.487063 1_555
