# generated using pymatgen
data_Te4Mo3WS4
_symmetry_space_group_name_H-M   'P 1'
_cell_length_a   3.36363667
_cell_length_b   3.36363667
_cell_length_c   39.78598100
_cell_angle_alpha   90.00000000
_cell_angle_beta   90.00000000
_cell_angle_gamma   120.00001320
_symmetry_Int_Tables_number   1
_chemical_formula_structural   Te4Mo3WS4
_chemical_formula_sum   'Te4 Mo3 W1 S4'
_cell_volume   389.83318129
_cell_formula_units_Z   1
loop_
 _symmetry_equiv_pos_site_id
 _symmetry_equiv_pos_as_xyz
  1  'x, y, z'
loop_
 _atom_site_type_symbol
 _atom_site_label
 _atom_site_symmetry_multiplicity
 _atom_site_fract_x
 _atom_site_fract_y
 _atom_site_fract_z
 _atom_site_occupancy
  Te  Te0  1  0.33333300  0.66666700  0.32786800  1
  Te  Te1  1  0.66666700  0.33333300  0.42341800  1
  Te  Te2  1  0.66666700  0.33333300  0.51885800  1
  Te  Te3  1  0.33333300  0.66666700  0.23298200  1
  Mo  Mo0  1  0.33333300  0.66666700  0.09386100  1
  Mo  Mo1  1  0.66666700  0.33333300  0.28041200  1
  Mo  Mo2  1  0.66666700  0.33333300  0.65749500  1
  W  W0  1  0.33333300  0.66666700  0.47114700  1
  S  S0  1  0.33333300  0.66666700  0.69552800  1
  S  S1  1  0.66666700  0.33333300  0.05585300  1
  S  S2  1  0.66666700  0.33333300  0.13187900  1
  S  S3  1  0.33333300  0.66666700  0.61944800  1
loop_
_geom_bond_atom_site_label_1
_geom_bond_atom_site_label_2
_geom_bond_distance
_geom_bond_site_symmetry_2
Te1 W0 2.716125 1_545
Te1 W0 2.716125 1_655
Te1 W0 2.716129 1_555
Te2 W0 2.715624 1_545
Te2 W0 2.715624 1_655
Te2 W0 2.715629 1_555
Mo0 S1 2.461310 1_455
Mo0 S1 2.461310 1_565
Mo0 S1 2.461315 1_555
Mo0 S2 2.461555 1_455
Mo0 S2 2.461555 1_565
Mo0 S2 2.461559 1_555
Mo1 Te3 2.707821 1_545
Mo1 Te3 2.707821 1_655
Mo1 Te3 2.707826 1_555
Mo1 Te0 2.708542 1_545
Mo1 Te0 2.708542 1_655
Mo1 Te0 2.708547 1_555
Mo2 S0 2.461921 1_545
Mo2 S0 2.461921 1_655
Mo2 S0 2.461926 1_555
Mo2 S3 2.462264 1_655
Mo2 S3 2.462264 1_545
Mo2 S3 2.462269 1_555
