# generated using pymatgen
data_MnSi(AgSe2)2
_symmetry_space_group_name_H-M   'P 1'
_cell_length_a   6.89569600
_cell_length_b   7.31556900
_cell_length_c   8.05084200
_cell_angle_alpha   90.00000000
_cell_angle_beta   90.00000000
_cell_angle_gamma   90.00000000
_symmetry_Int_Tables_number   1
_chemical_formula_structural   MnSi(AgSe2)2
_chemical_formula_sum   'Mn2 Si2 Ag4 Se8'
_cell_volume   406.13229160
_cell_formula_units_Z   2
loop_
 _symmetry_equiv_pos_site_id
 _symmetry_equiv_pos_as_xyz
  1  'x, y, z'
loop_
 _atom_site_type_symbol
 _atom_site_label
 _atom_site_symmetry_multiplicity
 _atom_site_fract_x
 _atom_site_fract_y
 _atom_site_fract_z
 _atom_site_occupancy
  Mn  Mn0  1  0.50241400  0.35632200  0.00000000  1
  Mn  Mn1  1  0.00241400  0.64367800  0.50000000  1
  Si  Si0  1  0.99975800  0.66388200  0.00000000  1
  Si  Si1  1  0.49975800  0.33611800  0.50000000  1
  Ag  Ag0  1  0.51999400  0.82662400  0.75137900  1
  Ag  Ag1  1  0.01999400  0.17337600  0.74862100  1
  Ag  Ag2  1  0.01999400  0.17337600  0.25137900  1
  Ag  Ag3  1  0.51999400  0.82662400  0.24862100  1
  Se  Se0  1  0.87168900  0.37399000  0.00000000  1
  Se  Se1  1  0.37168900  0.62601000  0.50000000  1
  Se  Se2  1  0.90197200  0.82280400  0.76429400  1
  Se  Se3  1  0.40197200  0.17719600  0.73570600  1
  Se  Se4  1  0.40197200  0.17719600  0.26429400  1
  Se  Se5  1  0.90197200  0.82280400  0.23570600  1
  Se  Se6  1  0.33470600  0.66003300  0.00000000  1
  Se  Se7  1  0.83470600  0.33996700  0.50000000  1
loop_
_geom_bond_atom_site_label_1
_geom_bond_atom_site_label_2
_geom_bond_distance
_geom_bond_site_symmetry_2
Mn0 Se6 2.504773 1_555
Mn0 Se0 2.549686 1_555
Mn0 Se4 2.593140 1_555
Mn0 Se3 2.593140 1_554
Mn1 Se7 2.504773 1_455
Mn1 Se1 2.549686 1_555
Mn1 Se2 2.593140 1_455
Mn1 Se5 2.593140 1_455
Ag0 Se2 2.636204 1_555
Ag0 Se6 2.669115 1_556
Ag0 Se3 2.693624 1_565
Ag0 Se1 2.701024 1_555
Ag1 Se3 2.636204 1_555
Ag1 Se7 2.669115 1_455
Ag1 Se2 2.693624 1_445
Ag1 Se0 2.701024 1_456
Ag2 Se4 2.636204 1_555
Ag2 Se7 2.669115 1_455
Ag2 Se5 2.693624 1_445
Ag2 Se0 2.701024 1_455
Ag3 Se5 2.636204 1_555
Ag3 Se6 2.669115 1_555
Ag3 Se4 2.693624 1_565
Ag3 Se1 2.701024 1_555
Se0 Si0 2.297256 1_555
Se1 Si1 2.297256 1_555
Se2 Si0 2.325369 1_556
Se3 Si1 2.325369 1_555
Se4 Si1 2.325369 1_555
Se5 Si0 2.325369 1_555
Se6 Si0 2.309871 1_455
Se7 Si1 2.309871 1_555
