# generated using pymatgen
data_Yb3(CuSn)4
_symmetry_space_group_name_H-M   'P 1'
_cell_length_a   4.53233500
_cell_length_b   7.07256800
_cell_length_c   8.43727816
_cell_angle_alpha   114.77943064
_cell_angle_beta   105.58036999
_cell_angle_gamma   90.00000000
_symmetry_Int_Tables_number   1
_chemical_formula_structural   Yb3(CuSn)4
_chemical_formula_sum   'Yb3 Cu4 Sn4'
_cell_volume   234.56654940
_cell_formula_units_Z   1
loop_
 _symmetry_equiv_pos_site_id
 _symmetry_equiv_pos_as_xyz
  1  'x, y, z'
loop_
 _atom_site_type_symbol
 _atom_site_label
 _atom_site_symmetry_multiplicity
 _atom_site_fract_x
 _atom_site_fract_y
 _atom_site_fract_z
 _atom_site_occupancy
  Yb  Yb0  1  0.86753600  0.36753600  0.73507200  1
  Yb  Yb1  1  0.13246400  0.63246400  0.26492800  1
  Yb  Yb2  1  0.00000000  0.00000000  0.00000000  1
  Cu  Cu0  1  0.32961300  0.64241000  0.65922600  1
  Cu  Cu1  1  0.67038700  0.35759000  0.34077400  1
  Cu  Cu2  1  0.32961300  0.01681600  0.65922600  1
  Cu  Cu3  1  0.67038700  0.98318400  0.34077400  1
  Sn  Sn0  1  0.21770900  0.21770900  0.43541800  1
  Sn  Sn1  1  0.78229100  0.78229100  0.56458200  1
  Sn  Sn2  1  0.50000000  0.69898600  0.00000000  1
  Sn  Sn3  1  0.50000000  0.30101400  0.00000000  1
loop_
_geom_bond_atom_site_label_1
_geom_bond_atom_site_label_2
_geom_bond_distance
_geom_bond_site_symmetry_2
Cu0 Sn2 2.620334 1_556
Cu0 Cu2 2.648012 1_565
Cu0 Sn1 2.714434 1_555
Cu0 Sn1 2.714434 1_455
Cu0 Sn0 2.752515 1_555
Cu0 Yb1 3.174582 1_555
Cu0 Yb0 3.215233 1_455
Cu0 Yb0 3.215233 1_555
Cu1 Sn3 2.620334 1_555
Cu1 Cu3 2.648012 1_545
Cu1 Sn0 2.714434 1_555
Cu1 Sn0 2.714434 1_655
Cu1 Sn1 2.752515 1_555
Cu1 Yb0 3.174582 1_555
Cu1 Yb1 3.215233 1_655
Cu1 Yb1 3.215233 1_555
Cu2 Sn3 2.620334 1_556
Cu2 Sn1 2.714434 1_545
Cu2 Sn1 2.714434 1_445
Cu2 Sn0 2.752515 1_555
Cu2 Yb1 3.174582 1_545
Cu2 Yb0 3.215233 1_455
Cu2 Yb0 3.215233 1_555
Cu3 Sn2 2.620334 1_555
Cu3 Sn0 2.714434 1_565
Cu3 Sn0 2.714434 1_665
Cu3 Sn1 2.752515 1_555
Cu3 Yb0 3.174582 1_565
Cu3 Yb1 3.215233 1_655
Cu3 Yb1 3.215233 1_555
Sn0 Yb0 3.153351 1_455
Sn0 Yb0 3.153351 1_555
Sn0 Yb2 3.186202 1_555
Sn1 Yb1 3.153351 1_655
Sn1 Yb1 3.153351 1_555
Sn1 Yb2 3.186202 1_666
Sn2 Sn3 2.814684 1_555
Sn2 Yb2 3.109326 1_665
Sn2 Yb2 3.109326 1_565
Sn2 Yb1 3.297637 1_555
Sn2 Yb0 3.297637 1_554
Sn2 Yb1 3.297637 1_655
Sn2 Yb0 3.297637 1_454
Sn3 Yb2 3.109326 1_655
Sn3 Yb2 3.109326 1_555
Sn3 Yb0 3.297637 1_554
Sn3 Yb1 3.297637 1_555
Sn3 Yb1 3.297637 1_655
Sn3 Yb0 3.297637 1_454
