# generated using pymatgen
data_Ti10FeSb5
_symmetry_space_group_name_H-M   'P 1'
_cell_length_a   5.22171100
_cell_length_b   7.87177453
_cell_length_c   7.87177453
_cell_angle_alpha   96.31571751
_cell_angle_beta   109.37035070
_cell_angle_gamma   70.62964930
_symmetry_Int_Tables_number   1
_chemical_formula_structural   Ti10FeSb5
_chemical_formula_sum   'Ti10 Fe1 Sb5'
_cell_volume   287.96833047
_cell_formula_units_Z   1
loop_
 _symmetry_equiv_pos_site_id
 _symmetry_equiv_pos_as_xyz
  1  'x, y, z'
loop_
 _atom_site_type_symbol
 _atom_site_label
 _atom_site_symmetry_multiplicity
 _atom_site_fract_x
 _atom_site_fract_y
 _atom_site_fract_z
 _atom_site_occupancy
  Ti  Ti0  1  0.43610400  0.85826300  0.70870300  1
  Ti  Ti1  1  0.58566400  0.14173700  0.29129700  1
  Ti  Ti2  1  0.91433600  0.29129700  0.14173700  1
  Ti  Ti3  1  0.06389600  0.70870300  0.85826300  1
  Ti  Ti4  1  0.72740100  0.70870300  0.14173700  1
  Ti  Ti5  1  0.29436600  0.29129700  0.85826300  1
  Ti  Ti6  1  0.77259900  0.14173700  0.70870300  1
  Ti  Ti7  1  0.20563400  0.85826300  0.29129700  1
  Ti  Ti8  1  0.25000000  0.50000000  0.50000000  1
  Ti  Ti9  1  0.75000000  0.50000000  0.50000000  1
  Fe  Fe0  1  0.75000000  0.00000000  0.00000000  1
  Sb  Sb0  1  0.33613000  0.50000000  0.17225900  1
  Sb  Sb1  1  0.66387000  0.50000000  0.82774100  1
  Sb  Sb2  1  0.83613000  0.82774100  0.50000000  1
  Sb  Sb3  1  0.16387000  0.17225900  0.50000000  1
  Sb  Sb4  1  0.25000000  0.00000000  0.00000000  1
loop_
_geom_bond_atom_site_label_1
_geom_bond_atom_site_label_2
_geom_bond_distance
_geom_bond_site_symmetry_2
Ti8 Ti9 2.610855 1_455
Ti8 Ti9 2.610855 1_555
Fe0 Sb4 2.610855 1_555
Fe0 Sb4 2.610855 1_655
Fe0 Ti6 2.710430 1_554
Fe0 Ti4 2.710430 1_545
Fe0 Ti2 2.710430 1_555
Fe0 Ti1 2.710430 1_555
Fe0 Ti0 2.710430 1_544
Fe0 Ti3 2.710430 1_644
Fe0 Ti7 2.710433 1_645
Fe0 Ti5 2.710433 1_554
Sb0 Ti9 2.761855 1_555
Sb0 Ti8 2.761857 1_555
Sb0 Ti5 2.800461 1_554
Sb0 Ti3 2.800461 1_554
Sb0 Ti7 2.804121 1_555
Sb0 Ti1 2.804121 1_555
Sb0 Ti2 2.996078 1_555
Sb0 Ti4 2.996082 1_455
Sb0 Ti4 3.093544 1_555
Sb0 Ti2 3.093548 1_455
Sb1 Ti8 2.761855 1_555
Sb1 Ti9 2.761857 1_555
Sb1 Ti2 2.800461 1_556
Sb1 Ti4 2.800461 1_556
Sb1 Ti6 2.804121 1_555
Sb1 Ti0 2.804121 1_555
Sb1 Ti5 2.996082 1_555
Sb1 Ti3 2.996082 1_655
Sb1 Ti3 3.093544 1_555
Sb1 Ti5 3.093544 1_655
Sb2 Ti8 2.761855 1_655
Sb2 Ti9 2.761857 1_555
Sb2 Ti1 2.800461 1_565
Sb2 Ti6 2.800461 1_565
Sb2 Ti4 2.804121 1_555
Sb2 Ti3 2.804121 1_655
Sb2 Ti7 2.996082 1_655
Sb2 Ti0 2.996082 1_555
Sb2 Ti0 3.093544 1_655
Sb2 Ti7 3.093544 1_555
Sb3 Ti9 2.761855 1_455
Sb3 Ti8 2.761857 1_555
Sb3 Ti7 2.800461 1_545
Sb3 Ti0 2.800461 1_545
Sb3 Ti5 2.804121 1_555
Sb3 Ti2 2.804121 1_455
Sb3 Ti1 2.996078 1_455
Sb3 Ti6 2.996082 1_555
Sb3 Ti6 3.093544 1_455
Sb3 Ti1 3.093548 1_555
Sb4 Ti5 2.764631 1_554
Sb4 Ti7 2.764631 1_545
Sb4 Ti3 2.764633 1_544
Sb4 Ti0 2.764633 1_544
Sb4 Ti1 2.764633 1_555
Sb4 Ti2 2.764633 1_455
Sb4 Ti4 2.764633 1_545
Sb4 Ti6 2.764633 1_454
