# generated using pymatgen
data_Ca4Mg3Si8NiO24
_symmetry_space_group_name_H-M   'P 1'
_cell_length_a   9.03312800
_cell_length_b   5.32137300
_cell_length_c   9.85002715
_cell_angle_alpha   74.65347337
_cell_angle_beta   90.00000000
_cell_angle_gamma   90.00000000
_symmetry_Int_Tables_number   1
_chemical_formula_structural   Ca4Mg3Si8NiO24
_chemical_formula_sum   'Ca4 Mg3 Si8 Ni1 O24'
_cell_volume   456.59457456
_cell_formula_units_Z   1
loop_
 _symmetry_equiv_pos_site_id
 _symmetry_equiv_pos_as_xyz
  1  'x, y, z'
loop_
 _atom_site_type_symbol
 _atom_site_label
 _atom_site_symmetry_multiplicity
 _atom_site_fract_x
 _atom_site_fract_y
 _atom_site_fract_z
 _atom_site_occupancy
  Ca  Ca0  1  0.79914000  0.50000000  0.50000000  1
  Ca  Ca1  1  0.29929800  0.00000000  0.00000000  1
  Ca  Ca2  1  0.20132700  0.00000000  0.50000000  1
  Ca  Ca3  1  0.70070500  0.50000000  0.00000000  1
  Mg  Mg0  1  0.90728300  0.00000000  0.00000000  1
  Mg  Mg1  1  0.59236400  0.00000000  0.50000000  1
  Mg  Mg2  1  0.09272800  0.50000000  0.00000000  1
  Si  Si0  1  0.09257800  0.69210400  0.28674300  1
  Si  Si1  1  0.59239600  0.19280200  0.78671600  1
  Si  Si2  1  0.09257800  0.30789600  0.71325700  1
  Si  Si3  1  0.59239600  0.80719800  0.21328400  1
  Si  Si4  1  0.90738100  0.80744800  0.71335400  1
  Si  Si5  1  0.40733300  0.30797300  0.21327200  1
  Si  Si6  1  0.90738100  0.19255200  0.28664600  1
  Si  Si7  1  0.40733300  0.69202700  0.78672800  1
  Ni  Ni0  1  0.40731900  0.50000000  0.50000000  1
  O  O0  1  0.08656700  0.77526200  0.11583900  1
  O  O1  1  0.58672000  0.27524300  0.61571700  1
  O  O2  1  0.08656700  0.22473800  0.88416100  1
  O  O3  1  0.58672000  0.72475700  0.38428300  1
  O  O4  1  0.91344700  0.72475500  0.88422400  1
  O  O5  1  0.41348900  0.22433400  0.38428000  1
  O  O6  1  0.91344700  0.27524500  0.11577600  1
  O  O7  1  0.41348900  0.77566600  0.61572000  1
  O  O8  1  0.24813100  0.70894200  0.36291300  1
  O  O9  1  0.74801200  0.20820200  0.86305200  1
  O  O10  1  0.24813100  0.29105800  0.63708700  1
  O  O11  1  0.74801200  0.79179800  0.13694800  1
  O  O12  1  0.75194000  0.79185100  0.63691200  1
  O  O13  1  0.25194600  0.29174300  0.13686900  1
  O  O14  1  0.75194000  0.20814900  0.36308800  1
  O  O15  1  0.25194600  0.70825700  0.86313100  1
  O  O16  1  0.01849800  0.39422200  0.34995400  1
  O  O17  1  0.51849700  0.89424500  0.84989500  1
  O  O18  1  0.01849800  0.60577800  0.65004600  1
  O  O19  1  0.51849700  0.10575500  0.15010500  1
  O  O20  1  0.98152500  0.10574800  0.65008300  1
  O  O21  1  0.48145800  0.60575900  0.14997100  1
  O  O22  1  0.98152500  0.89425200  0.34991700  1
  O  O23  1  0.48145800  0.39424100  0.85002900  1
loop_
_geom_bond_atom_site_label_1
_geom_bond_atom_site_label_2
_geom_bond_distance
_geom_bond_site_symmetry_2
Ca0 O12 2.349688 1_555
Ca0 O14 2.349688 1_555
Ca0 O3 2.385354 1_555
Ca0 O1 2.385354 1_555
Ca0 O18 2.620656 1_655
Ca0 O16 2.620656 1_655
Ca0 O22 2.767583 1_555
Ca0 O20 2.767583 1_555
Ca1 O13 2.349153 1_555
Ca1 O15 2.349153 1_544
Ca1 O0 2.387991 1_545
Ca1 O2 2.387991 1_554
Ca1 O19 2.619887 1_555
Ca1 O17 2.619887 1_544
Ca1 O21 2.765970 1_545
Ca1 O23 2.765970 1_554
Ca2 O10 2.346904 1_555
Ca2 O8 2.346904 1_545
Ca2 O5 2.382646 1_555
Ca2 O7 2.382646 1_545
Ca2 O20 2.623858 1_455
Ca2 O22 2.623858 1_445
Ca2 O16 2.769753 1_555
Ca2 O18 2.769753 1_545
Ca3 O11 2.349900 1_555
Ca3 O9 2.349900 1_554
Ca3 O4 2.387891 1_554
Ca3 O6 2.387891 1_555
Ca3 O21 2.619403 1_555
Ca3 O23 2.619403 1_554
Ca3 O19 2.766681 1_555
Ca3 O17 2.766681 1_554
Mg0 O11 2.079895 1_545
Mg0 O9 2.079895 1_554
Mg0 O6 2.081590 1_555
Mg0 O4 2.081590 1_544
Mg0 O0 2.152352 1_645
Mg0 O2 2.152352 1_654
Mg1 O1 2.081034 1_555
Mg1 O3 2.081034 1_545
Mg1 O12 2.081521 1_545
Mg1 O14 2.081521 1_555
Mg1 O5 2.148231 1_555
Mg1 O7 2.148231 1_545
Mg2 O15 2.079275 1_554
Mg2 O13 2.079275 1_555
Mg2 O0 2.082121 1_555
Mg2 O2 2.082121 1_554
Mg2 O4 2.152132 1_454
Mg2 O6 2.152132 1_455
Ni0 O10 2.081496 1_555
Ni0 O8 2.081496 1_555
Ni0 O7 2.083088 1_555
Ni0 O5 2.083088 1_555
Ni0 O3 2.152729 1_555
Ni0 O1 2.152729 1_555
O0 Si0 1.624294 1_555
O1 Si1 1.625110 1_555
O2 Si2 1.624294 1_555
O3 Si3 1.625110 1_555
O4 Si4 1.623994 1_555
O5 Si5 1.625323 1_555
O6 Si6 1.623994 1_555
O7 Si7 1.625323 1_555
O8 Si0 1.606523 1_555
O9 Si1 1.606453 1_555
O10 Si2 1.606523 1_555
O11 Si3 1.606453 1_555
O12 Si4 1.605758 1_555
O13 Si5 1.605741 1_555
O14 Si6 1.605758 1_555
O15 Si7 1.605741 1_555
O16 Si0 1.680990 1_555
O16 Si6 1.703595 1_455
O17 Si1 1.683339 1_565
O17 Si7 1.705226 1_555
O18 Si2 1.680990 1_555
O18 Si4 1.703595 1_455
O19 Si3 1.683339 1_545
O19 Si5 1.705226 1_555
O20 Si4 1.683171 1_545
O20 Si2 1.704402 1_655
O21 Si5 1.680827 1_555
O21 Si3 1.701775 1_555
O22 Si6 1.683171 1_565
O22 Si0 1.704402 1_655
O23 Si7 1.680827 1_555
O23 Si1 1.701775 1_555
