# generated using pymatgen
data_Lu3(CuSi)4
_symmetry_space_group_name_H-M   'P 1'
_cell_length_a   4.07241500
_cell_length_b   6.46537200
_cell_length_c   7.73431153
_cell_angle_alpha   114.70629403
_cell_angle_beta   105.26414132
_cell_angle_gamma   90.00000000
_symmetry_Int_Tables_number   1
_chemical_formula_structural   Lu3(CuSi)4
_chemical_formula_sum   'Lu3 Cu4 Si4'
_cell_volume   177.06229197
_cell_formula_units_Z   1
loop_
 _symmetry_equiv_pos_site_id
 _symmetry_equiv_pos_as_xyz
  1  'x, y, z'
loop_
 _atom_site_type_symbol
 _atom_site_label
 _atom_site_symmetry_multiplicity
 _atom_site_fract_x
 _atom_site_fract_y
 _atom_site_fract_z
 _atom_site_occupancy
  Lu  Lu0  1  0.00000000  0.50000000  0.00000000  1
  Lu  Lu1  1  0.87241000  0.87241000  0.74482100  1
  Lu  Lu2  1  0.12759000  0.12759000  0.25517900  1
  Cu  Cu0  1  0.66979200  0.86118300  0.33958400  1
  Cu  Cu1  1  0.66979200  0.47840100  0.33958400  1
  Cu  Cu2  1  0.33020800  0.52159900  0.66041600  1
  Cu  Cu3  1  0.33020800  0.13881700  0.66041600  1
  Si  Si0  1  0.78287800  0.28287800  0.56575700  1
  Si  Si1  1  0.21712200  0.71712200  0.43424300  1
  Si  Si2  1  0.50000000  0.18638800  0.00000000  1
  Si  Si3  1  0.50000000  0.81361200  0.00000000  1
loop_
_geom_bond_atom_site_label_1
_geom_bond_atom_site_label_2
_geom_bond_distance
_geom_bond_site_symmetry_2
Lu0 Si2 2.873565 1_555
Lu0 Si2 2.873565 1_455
Lu0 Si3 2.873565 1_455
Lu0 Si3 2.873565 1_555
Lu0 Si1 2.920205 1_555
Lu0 Si0 2.920205 1_454
Lu1 Si1 2.916898 1_555
Lu1 Si1 2.916903 1_655
Lu1 Si3 2.922855 1_556
Lu1 Si2 2.922857 1_566
Lu1 Si3 2.922858 1_656
Lu1 Si2 2.922860 1_666
Lu2 Si0 2.916898 1_555
Lu2 Si0 2.916903 1_455
Lu2 Si2 2.922855 1_555
Lu2 Si3 2.922857 1_545
Lu2 Si2 2.922858 1_455
Lu2 Si3 2.922860 1_445
Cu0 Si3 2.416493 1_555
Cu0 Si1 2.466279 1_555
Cu0 Si1 2.466282 1_655
Cu0 Cu1 2.474828 1_555
Cu0 Si0 2.508875 1_565
Cu0 Lu2 2.906791 1_565
Cu0 Lu2 2.906794 1_665
Cu0 Lu1 2.992928 1_555
Cu1 Si2 2.416493 1_555
Cu1 Si1 2.466282 1_555
Cu1 Si1 2.466286 1_655
Cu1 Si0 2.508880 1_555
Cu1 Lu2 2.906787 1_555
Cu1 Lu2 2.906790 1_655
Cu1 Lu1 2.992925 1_555
Cu2 Si3 2.416493 1_556
Cu2 Si0 2.466282 1_555
Cu2 Si0 2.466286 1_455
Cu2 Cu3 2.474828 1_555
Cu2 Si1 2.508880 1_555
Cu2 Lu1 2.906787 1_555
Cu2 Lu1 2.906790 1_455
Cu2 Lu2 2.992925 1_555
Cu3 Si2 2.416493 1_556
Cu3 Si0 2.466279 1_555
Cu3 Si0 2.466282 1_455
Cu3 Si1 2.508875 1_545
Cu3 Lu1 2.906791 1_545
Cu3 Lu1 2.906794 1_445
Cu3 Lu2 2.992928 1_555
Si2 Si3 2.410136 1_545
