# generated using pymatgen
data_Zn(SnO2)2
_symmetry_space_group_name_H-M   'P 1'
_cell_length_a   10.95149100
_cell_length_b   3.20660700
_cell_length_c   10.91472656
_cell_angle_alpha   88.62440398
_cell_angle_beta   90.00000000
_cell_angle_gamma   90.00000000
_symmetry_Int_Tables_number   1
_chemical_formula_structural   Zn(SnO2)2
_chemical_formula_sum   'Zn4 Sn8 O16'
_cell_volume   383.18338340
_cell_formula_units_Z   4
loop_
 _symmetry_equiv_pos_site_id
 _symmetry_equiv_pos_as_xyz
  1  'x, y, z'
loop_
 _atom_site_type_symbol
 _atom_site_label
 _atom_site_symmetry_multiplicity
 _atom_site_fract_x
 _atom_site_fract_y
 _atom_site_fract_z
 _atom_site_occupancy
  Zn  Zn0  1  0.39238500  0.52231300  0.74482000  1
  Zn  Zn1  1  0.60761500  0.52231300  0.24482000  1
  Zn  Zn2  1  0.89173800  0.46543300  0.74818900  1
  Zn  Zn3  1  0.10826200  0.46543300  0.24818900  1
  Sn  Sn0  1  0.62152700  0.12561800  0.57371700  1
  Sn  Sn1  1  0.37847300  0.12561800  0.07371700  1
  Sn  Sn2  1  0.87786800  0.87423800  0.07289500  1
  Sn  Sn3  1  0.36101300  0.22020200  0.40010000  1
  Sn  Sn4  1  0.85894500  0.77267600  0.40260100  1
  Sn  Sn5  1  0.63898700  0.22020200  0.90010000  1
  Sn  Sn6  1  0.14105500  0.77267600  0.90260100  1
  Sn  Sn7  1  0.12213200  0.87423800  0.57289500  1
  O  O0  1  0.79895200  0.80749700  0.89159900  1
  O  O1  1  0.75943700  0.40472500  0.13605200  1
  O  O2  1  0.48578700  0.64415700  0.01553000  1
  O  O3  1  0.29838500  0.22186300  0.89387400  1
  O  O4  1  0.24056300  0.40472500  0.63605200  1
  O  O5  1  0.48910400  0.04165400  0.23556900  1
  O  O6  1  0.26068700  0.58785500  0.13805900  1
  O  O7  1  0.98827500  0.94109300  0.23447000  1
  O  O8  1  0.51421300  0.64415700  0.51553000  1
  O  O9  1  0.98425500  0.36808800  0.01317700  1
  O  O10  1  0.73931300  0.58785500  0.63805900  1
  O  O11  1  0.01172500  0.94109300  0.73447000  1
  O  O12  1  0.51089600  0.04165400  0.73556900  1
  O  O13  1  0.01574500  0.36808800  0.51317700  1
  O  O14  1  0.20104800  0.80749700  0.39159900  1
  O  O15  1  0.70161500  0.22186300  0.39387400  1
loop_
_geom_bond_atom_site_label_1
_geom_bond_atom_site_label_2
_geom_bond_distance
_geom_bond_site_symmetry_2
O0 Sn2 2.174556 1_556
O0 Zn2 2.183621 1_555
O0 Sn5 2.198828 1_565
O0 Sn5 2.572110 1_555
O1 Zn1 2.082676 1_555
O1 Sn2 2.091464 1_555
O1 Sn2 2.259935 1_545
O2 Sn1 2.053076 1_565
O2 Sn1 2.120989 1_555
O2 Sn5 2.516462 1_554
O3 Zn0 2.135282 1_555
O3 Sn1 2.165308 1_556
O3 Sn6 2.246300 1_545
O3 Sn6 2.470927 1_555
O4 Zn0 2.082676 1_555
O4 Sn7 2.091464 1_555
O4 Sn7 2.259935 1_545
O5 Zn1 2.019331 1_555
O5 Zn1 2.111846 1_545
O5 Sn1 2.153680 1_555
O5 Sn3 2.360065 1_555
O6 Zn3 2.088742 1_555
O6 Sn1 2.098582 1_555
O6 Sn1 2.252223 1_565
O7 Zn3 2.016073 1_655
O7 Zn3 2.141996 1_665
O7 Sn2 2.153179 1_555
O7 Sn4 2.370177 1_555
O8 Sn0 2.053076 1_565
O8 Sn0 2.120989 1_555
O8 Sn3 2.516462 1_555
O9 Sn2 2.059242 1_545
O9 Sn2 2.113599 1_555
O9 Sn6 2.452209 1_654
O10 Zn2 2.088742 1_555
O10 Sn0 2.098582 1_555
O10 Sn0 2.252223 1_565
O11 Zn2 2.016073 1_455
O11 Zn2 2.141996 1_465
O11 Sn7 2.153179 1_555
O11 Sn6 2.370177 1_555
O12 Zn0 2.019331 1_555
O12 Zn0 2.111846 1_545
O12 Sn0 2.153680 1_555
O12 Sn5 2.360065 1_555
O13 Sn7 2.059242 1_545
O13 Sn7 2.113599 1_555
O13 Sn4 2.452209 1_455
O14 Sn7 2.174556 1_555
O14 Zn3 2.183621 1_555
O14 Sn3 2.198828 1_565
O14 Sn3 2.572110 1_555
O15 Zn1 2.135282 1_555
O15 Sn0 2.165308 1_555
O15 Sn4 2.246300 1_545
O15 Sn4 2.470927 1_555
