# generated using pymatgen
data_Zn10Fe3
_symmetry_space_group_name_H-M   'P 1'
_cell_length_a   8.99812513
_cell_length_b   7.80317270
_cell_length_c   7.79537122
_cell_angle_alpha   70.45950871
_cell_angle_beta   54.81082335
_cell_angle_gamma   54.72966794
_symmetry_Int_Tables_number   1
_chemical_formula_structural   Zn10Fe3
_chemical_formula_sum   'Zn20 Fe6'
_cell_volume   365.20614301
_cell_formula_units_Z   2
loop_
 _symmetry_equiv_pos_site_id
 _symmetry_equiv_pos_as_xyz
  1  'x, y, z'
loop_
 _atom_site_type_symbol
 _atom_site_label
 _atom_site_symmetry_multiplicity
 _atom_site_fract_x
 _atom_site_fract_y
 _atom_site_fract_z
 _atom_site_occupancy
  Zn  Zn0  1  0.35428700  0.99866600  0.00293100  1
  Zn  Zn1  1  0.00133400  0.64571300  0.35588400  1
  Zn  Zn2  1  0.64691500  0.35308500  0.35308500  1
  Zn  Zn3  1  0.64411600  0.00293100  0.99866600  1
  Zn  Zn4  1  0.99706900  0.35588400  0.64571300  1
  Zn  Zn5  1  0.35849700  0.64150300  0.64150300  1
  Zn  Zn6  1  0.25066400  0.74933600  0.35410700  1
  Zn  Zn7  1  0.74619800  0.99856400  0.60715400  1
  Zn  Zn8  1  0.00143600  0.25380200  0.35191600  1
  Zn  Zn9  1  0.64589300  0.35410700  0.74933600  1
  Zn  Zn10  1  0.64808400  0.60715400  0.99856400  1
  Zn  Zn11  1  0.39284600  0.35191600  0.25380200  1
  Zn  Zn12  1  0.74251900  0.64667900  0.25748100  1
  Zn  Zn13  1  0.25602400  0.39095700  0.99785800  1
  Zn  Zn14  1  0.00214200  0.64483800  0.74397600  1
  Zn  Zn15  1  0.35332100  0.25748100  0.64667900  1
  Zn  Zn16  1  0.35516200  0.99785800  0.39095700  1
  Zn  Zn17  1  0.60904300  0.74397600  0.64483800  1
  Zn  Zn18  1  0.00067200  0.79454300  0.99932800  1
  Zn  Zn19  1  0.20545700  0.99932800  0.79454300  1
  Fe  Fe0  1  0.99445500  0.00554500  0.66368000  1
  Fe  Fe1  1  0.33632000  0.66368000  0.00554500  1
  Fe  Fe2  1  0.99374900  0.33082800  0.00625100  1
  Fe  Fe3  1  0.66917200  0.00625100  0.33082800  1
  Fe  Fe4  1  0.99874400  0.00125600  0.20412100  1
  Fe  Fe5  1  0.79587900  0.20412100  0.00125600  1
loop_
_geom_bond_atom_site_label_1
_geom_bond_atom_site_label_2
_geom_bond_distance
_geom_bond_site_symmetry_2
Zn0 Zn3 2.608258 1_564
Zn0 Zn19 2.631744 1_554
Zn0 Zn10 2.638530 1_554
Zn0 Zn13 2.643356 1_564
Zn0 Zn6 2.781908 1_555
Zn0 Zn8 2.795188 1_565
Zn0 Zn15 2.836696 1_564
Zn0 Zn17 2.841031 1_554
Zn0 Zn16 3.027241 1_555
Zn0 Zn7 3.068100 1_554
Zn1 Zn4 2.608258 1_455
Zn1 Zn18 2.631744 1_554
Zn1 Zn11 2.638530 1_555
Zn1 Zn17 2.643355 1_455
Zn1 Zn6 2.781908 1_555
Zn1 Zn7 2.795188 1_455
Zn1 Zn12 2.836696 1_455
Zn1 Zn13 2.841025 1_554
Zn1 Zn14 3.027234 1_555
Zn1 Zn8 3.068100 1_555
Zn2 Zn5 2.601878 1_555
Zn2 Zn7 2.809560 1_545
Zn2 Zn8 2.809560 1_655
Zn2 Zn6 3.086301 1_555
Zn2 Zn9 3.086301 1_555
Zn3 Zn7 2.638530 1_545
Zn3 Zn9 2.781908 1_555
Zn4 Zn8 2.638530 1_655
Zn4 Zn9 2.781908 1_555
Zn5 Zn9 2.640114 1_555
Zn5 Zn6 2.640114 1_555
Zn10 Zn14 2.753017 1_655
Zn10 Zn17 2.753294 1_555
Zn10 Zn12 2.754402 1_556
Zn10 Zn4 2.795188 1_555
Zn10 Zn2 2.809560 1_556
Zn10 Zn3 3.068100 1_565
Zn11 Zn16 2.753017 1_545
Zn11 Zn13 2.753287 1_554
Zn11 Zn15 2.754402 1_555
Zn11 Zn3 2.795188 1_554
Zn11 Zn2 2.809560 1_555
Zn11 Zn4 3.068100 1_455
Zn12 Zn18 2.632706 1_654
Zn12 Zn2 2.634188 1_555
Zn12 Zn17 2.727171 1_555
Zn12 Zn16 2.727174 1_555
Zn12 Zn8 2.754402 1_655
Zn12 Zn3 2.836696 1_564
Zn12 Zn5 3.010229 1_555
Zn13 Zn18 2.614277 1_555
Zn13 Zn15 2.727178 1_555
Zn13 Zn9 2.741745 1_555
Zn13 Zn8 2.753021 1_556
Zn13 Zn5 2.808190 1_555
Zn13 Zn3 3.027236 1_555
Zn14 Zn18 2.614283 1_555
Zn14 Zn4 2.643349 1_455
Zn14 Zn15 2.727174 1_555
Zn14 Zn6 2.741748 1_555
Zn14 Zn7 2.753290 1_455
Zn14 Zn5 2.808194 1_555
Zn14 Zn3 2.841030 1_465
Zn15 Zn19 2.632706 1_545
Zn15 Zn2 2.634188 1_555
Zn15 Zn7 2.754402 1_545
Zn15 Zn4 2.836696 1_455
Zn15 Zn5 3.010229 1_555
Zn16 Zn19 2.614276 1_555
Zn16 Zn3 2.643353 1_564
Zn16 Zn6 2.741752 1_555
Zn16 Zn8 2.753294 1_565
Zn16 Zn5 2.808191 1_555
Zn16 Zn4 2.841027 1_465
Zn17 Zn19 2.614276 1_555
Zn17 Zn9 2.741745 1_555
Zn17 Zn7 2.753024 1_555
Zn17 Zn5 2.808185 1_555
Zn17 Zn4 3.027239 1_555
Zn18 Zn19 2.607902 1_555
Zn18 Zn3 2.631744 1_465
Zn18 Zn5 2.647664 1_555
Zn19 Zn4 2.631744 1_465
Zn19 Zn5 2.647664 1_555
Fe0 Zn7 2.545248 1_545
Fe0 Zn8 2.545248 1_655
Fe0 Zn6 2.574472 1_645
Fe0 Fe5 2.574782 1_556
Fe0 Zn9 2.574883 1_555
Fe0 Zn18 2.596268 1_645
Fe0 Zn19 2.596268 1_645
Fe0 Zn16 2.639204 1_645
Fe0 Zn14 2.639205 1_645
Fe0 Zn3 2.703317 1_555
Fe0 Zn4 2.703317 1_555
Fe0 Zn5 2.785510 1_645
Fe1 Zn10 2.545248 1_554
Fe1 Zn11 2.545248 1_555
Fe1 Zn9 2.574472 1_554
Fe1 Fe4 2.574782 1_465
Fe1 Zn6 2.574883 1_555
Fe1 Zn19 2.596268 1_554
Fe1 Zn18 2.596268 1_554
Fe1 Zn13 2.639197 1_554
Fe1 Zn17 2.639201 1_554
Fe1 Zn1 2.703317 1_555
Fe1 Zn0 2.703317 1_555
Fe1 Zn5 2.785510 1_554
Fe2 Fe5 2.507542 1_555
Fe2 Fe4 2.507542 1_555
Fe2 Zn19 2.566178 1_644
Fe2 Zn8 2.590412 1_655
Fe2 Zn10 2.590412 1_554
Fe2 Zn12 2.590760 1_555
Fe2 Zn14 2.621871 1_654
Fe2 Zn13 2.621876 1_654
Fe2 Zn2 2.653856 1_555
Fe2 Zn15 2.671084 1_654
Fe2 Zn0 2.735063 1_645
Fe2 Zn4 2.735063 1_554
Fe3 Fe4 2.507542 1_555
Fe3 Fe5 2.507542 1_555
Fe3 Zn18 2.566178 1_644
Fe3 Zn7 2.590412 1_545
Fe3 Zn11 2.590412 1_555
Fe3 Zn15 2.590760 1_555
Fe3 Zn16 2.621867 1_545
Fe3 Zn17 2.621872 1_545
Fe3 Zn2 2.653856 1_555
Fe3 Zn12 2.671084 1_545
Fe3 Zn1 2.735063 1_645
Fe3 Zn3 2.735063 1_554
Fe4 Fe5 2.579571 1_555
Fe4 Zn6 2.596295 1_645
Fe4 Zn2 2.601168 1_555
Fe4 Zn18 2.609423 1_644
Fe4 Zn19 2.609423 1_644
Fe4 Zn7 2.611044 1_545
Fe4 Zn8 2.611044 1_655
Fe4 Zn1 2.618917 1_645
Fe4 Zn0 2.618917 1_645
Fe5 Zn9 2.596295 1_554
Fe5 Zn2 2.601168 1_555
Fe5 Zn18 2.609423 1_644
Fe5 Zn19 2.609423 1_644
Fe5 Zn10 2.611044 1_554
Fe5 Zn11 2.611044 1_555
Fe5 Zn3 2.618917 1_554
Fe5 Zn4 2.618917 1_554
