# generated using pymatgen
data_Li9Mn7O16
_symmetry_space_group_name_H-M   'P 1'
_cell_length_a   3.01312700
_cell_length_b   6.06617082
_cell_length_c   16.37281089
_cell_angle_alpha   90.00814466
_cell_angle_beta   90.87455620
_cell_angle_gamma   94.79987592
_symmetry_Int_Tables_number   1
_chemical_formula_structural   Li9Mn7O16
_chemical_formula_sum   'Li9 Mn7 O16'
_cell_volume   298.18002934
_cell_formula_units_Z   1
loop_
 _symmetry_equiv_pos_site_id
 _symmetry_equiv_pos_as_xyz
  1  'x, y, z'
loop_
 _atom_site_type_symbol
 _atom_site_label
 _atom_site_symmetry_multiplicity
 _atom_site_fract_x
 _atom_site_fract_y
 _atom_site_fract_z
 _atom_site_occupancy
  Li  Li0  1  0.99582200  0.24298200  0.88522900  1
  Li  Li1  1  0.50000000  0.50000000  0.00000000  1
  Li  Li2  1  0.00417800  0.75701800  0.11477100  1
  Li  Li3  1  0.50399400  0.99623300  0.75063000  1
  Li  Li4  1  0.99936700  0.75032500  0.62509900  1
  Li  Li5  1  0.50000000  0.50000000  0.50000000  1
  Li  Li6  1  0.00063300  0.24967500  0.37490100  1
  Li  Li7  1  0.49600600  0.00376700  0.24937000  1
  Li  Li8  1  0.50000000  0.00000000  0.00000000  1
  Mn  Mn0  1  0.99698700  0.75842400  0.88095200  1
  Mn  Mn1  1  0.00301300  0.24157600  0.11904800  1
  Mn  Mn2  1  0.50836600  0.49377300  0.24890200  1
  Mn  Mn3  1  0.00009700  0.74903000  0.37369700  1
  Mn  Mn4  1  0.50000000  0.00000000  0.50000000  1
  Mn  Mn5  1  0.99990300  0.25097000  0.62630300  1
  Mn  Mn6  1  0.49163400  0.50622700  0.75109800  1
  O  O0  1  0.46869800  0.53143400  0.87198600  1
  O  O1  1  0.00428500  0.74751400  0.99191800  1
  O  O2  1  0.47476400  0.03331900  0.12457400  1
  O  O3  1  0.03093900  0.26015000  0.74734000  1
  O  O4  1  0.53409200  0.00606800  0.62046100  1
  O  O5  1  0.03288000  0.75567300  0.49420900  1
  O  O6  1  0.53155200  0.50529100  0.36948700  1
  O  O7  1  0.03472800  0.25724300  0.24327100  1
  O  O8  1  0.52523600  0.96668100  0.87542600  1
  O  O9  1  0.99571500  0.25248600  0.00808200  1
  O  O10  1  0.53130200  0.46856600  0.12801400  1
  O  O11  1  0.96527200  0.74275700  0.75672900  1
  O  O12  1  0.46844800  0.49470900  0.63051300  1
  O  O13  1  0.96712000  0.24432700  0.50579100  1
  O  O14  1  0.46590800  0.99393200  0.37953900  1
  O  O15  1  0.96906100  0.73985000  0.25266000  1
loop_
_geom_bond_atom_site_label_1
_geom_bond_atom_site_label_2
_geom_bond_distance
_geom_bond_site_symmetry_2
Li0 O9 2.012273 1_556
Li0 O8 2.107327 1_545
Li0 O0 2.175148 1_655
Li0 O3 2.263725 1_655
Li0 O8 2.415545 1_645
Li0 O0 2.467018 1_555
Li1 O1 2.050633 1_654
Li1 O9 2.050633 1_455
Li1 O10 2.106026 1_555
Li1 O0 2.106026 1_554
Li1 O9 2.207313 1_555
Li1 O1 2.207313 1_554
Li2 O1 2.012273 1_554
Li2 O2 2.107327 1_565
Li2 O10 2.175148 1_455
Li2 O15 2.263725 1_455
Li2 O2 2.415545 1_465
Li2 O10 2.467018 1_555
Li3 O8 2.051629 1_555
Li3 O4 2.135174 1_565
Li3 O11 2.143937 1_455
Li3 O11 2.158593 1_555
Li3 O3 2.159673 1_665
Li3 O3 2.230977 1_565
Li4 O12 2.135560 1_555
Li4 O4 2.143352 1_665
Li4 O5 2.147076 1_655
Li4 O11 2.159478 1_555
Li4 O4 2.176861 1_565
Li4 O12 2.184706 1_655
Li5 O5 2.140200 1_655
Li5 O13 2.140200 1_455
Li5 O12 2.140554 1_555
Li5 O6 2.140554 1_555
Li5 O5 2.181004 1_555
Li5 O13 2.181004 1_555
Li6 O6 2.135560 1_555
Li6 O14 2.143352 1_445
Li6 O13 2.147076 1_455
Li6 O7 2.159478 1_555
Li6 O14 2.176861 1_545
Li6 O6 2.184706 1_455
Li7 O2 2.051629 1_555
Li7 O14 2.135174 1_545
Li7 O7 2.143937 1_655
Li7 O7 2.158593 1_555
Li7 O15 2.159673 1_445
Li7 O15 2.230977 1_545
Li8 O9 2.050715 1_555
Li8 O1 2.050715 1_544
Li8 O2 2.052779 1_555
Li8 O8 2.052779 1_544
Li8 O1 2.251163 1_644
Li8 O9 2.251163 1_455
Mn0 O1 1.817904 1_655
Mn0 O8 1.950778 1_655
Mn0 O8 1.980228 1_555
Mn0 O0 2.019258 1_555
Mn0 O11 2.036498 1_555
Mn0 O0 2.066778 1_655
Mn1 O9 1.817904 1_455
Mn1 O2 1.950778 1_455
Mn1 O2 1.980228 1_555
Mn1 O10 2.019258 1_555
Mn1 O7 2.036498 1_555
Mn1 O10 2.066778 1_455
Mn2 O7 1.938352 1_555
Mn2 O15 1.951814 1_555
Mn2 O6 1.975504 1_555
Mn2 O10 1.987851 1_555
Mn2 O7 2.228874 1_655
Mn2 O15 2.298184 1_455
Mn3 O6 1.957474 1_455
Mn3 O14 1.957822 1_555
Mn3 O5 1.974322 1_555
Mn3 O15 1.983049 1_455
Mn3 O6 2.270411 1_555
Mn3 O14 2.282934 1_455
Mn4 O13 1.957935 1_555
Mn4 O5 1.957935 1_545
Mn4 O4 1.973570 1_555
Mn4 O14 1.973570 1_545
Mn4 O13 2.277416 1_455
Mn4 O5 2.277416 1_645
Mn5 O12 1.957474 1_655
Mn5 O4 1.957822 1_555
Mn5 O13 1.974322 1_555
Mn5 O3 1.983049 1_655
Mn5 O12 2.270411 1_555
Mn5 O4 2.282934 1_655
Mn6 O11 1.938352 1_555
Mn6 O3 1.951814 1_555
Mn6 O12 1.975504 1_555
Mn6 O0 1.987851 1_555
Mn6 O11 2.228874 1_455
Mn6 O3 2.298184 1_655
