# generated using pymatgen
data_SrMg14CdO16
_symmetry_space_group_name_H-M   'P 1'
_cell_length_a   8.72858027
_cell_length_b   8.72858027
_cell_length_c   4.43775802
_cell_angle_alpha   90.00000000
_cell_angle_beta   90.00000000
_cell_angle_gamma   90.00000000
_symmetry_Int_Tables_number   1
_chemical_formula_structural   SrMg14CdO16
_chemical_formula_sum   'Sr1 Mg14 Cd1 O16'
_cell_volume   338.10441185
_cell_formula_units_Z   1
loop_
 _symmetry_equiv_pos_site_id
 _symmetry_equiv_pos_as_xyz
  1  'x, y, z'
loop_
 _atom_site_type_symbol
 _atom_site_label
 _atom_site_symmetry_multiplicity
 _atom_site_fract_x
 _atom_site_fract_y
 _atom_site_fract_z
 _atom_site_occupancy
  Sr  Sr0  1  0.00000000  -0.00000000  0.00000000  1
  Mg  Mg0  1  0.00000000  0.50000000  0.00000000  1
  Mg  Mg1  1  0.50000000  -0.00000000  0.00000000  1
  Mg  Mg2  1  0.00000000  0.25947044  0.50000000  1
  Mg  Mg3  1  0.00000000  0.74052956  0.50000000  1
  Mg  Mg4  1  0.50000000  0.24574285  0.50000000  1
  Mg  Mg5  1  0.50000000  0.75425715  0.50000000  1
  Mg  Mg6  1  0.25947044  0.00000000  0.50000000  1
  Mg  Mg7  1  0.24574285  0.50000000  0.50000000  1
  Mg  Mg8  1  0.74052956  0.00000000  0.50000000  1
  Mg  Mg9  1  0.75425715  0.50000000  0.50000000  1
  Mg  Mg10  1  0.25315451  0.25315451  0.00000000  1
  Mg  Mg11  1  0.25315451  0.74684549  0.00000000  1
  Mg  Mg12  1  0.74684549  0.25315451  -0.00000000  1
  Mg  Mg13  1  0.74684549  0.74684549  -0.00000000  1
  Cd  Cd0  1  0.50000000  0.50000000  0.00000000  1
  O  O0  1  0.26994530  -0.00000000  0.00000000  1
  O  O1  1  0.23826375  0.50000000  0.00000000  1
  O  O2  1  0.73005470  0.00000000  -0.00000000  1
  O  O3  1  0.76173625  0.50000000  -0.00000000  1
  O  O4  1  0.25043243  0.25043243  0.50000000  1
  O  O5  1  0.25043243  0.74956757  0.50000000  1
  O  O6  1  0.74956757  0.25043243  0.50000000  1
  O  O7  1  0.74956757  0.74956757  0.50000000  1
  O  O8  1  0.00000000  0.00000000  0.50000000  1
  O  O9  1  0.00000000  0.50000000  0.50000000  1
  O  O10  1  0.50000000  0.00000000  0.50000000  1
  O  O11  1  0.50000000  0.50000000  0.50000000  1
  O  O12  1  0.00000000  0.26994530  -0.00000000  1
  O  O13  1  0.00000000  0.73005470  0.00000000  1
  O  O14  1  0.50000000  0.23826375  -0.00000000  1
  O  O15  1  0.50000000  0.76173625  0.00000000  1
loop_
_geom_bond_atom_site_label_1
_geom_bond_atom_site_label_2
_geom_bond_distance
_geom_bond_site_symmetry_2
Mg0 O13 2.008051 1_555
Mg0 O12 2.008051 1_555
Mg0 O1 2.079704 1_555
Mg0 O3 2.079704 1_455
Mg0 O9 2.218879 1_554
Mg0 O9 2.218879 1_555
Mg1 O2 2.008051 1_555
Mg1 O0 2.008051 1_555
Mg1 O15 2.079704 1_545
Mg1 O14 2.079704 1_555
Mg1 O10 2.218879 1_555
Mg1 O10 2.218879 1_554
Mg2 O9 2.099482 1_555
Mg2 O4 2.187343 1_555
Mg2 O6 2.187343 1_455
Mg2 O12 2.220762 1_556
Mg2 O12 2.220762 1_555
Mg2 O8 2.264809 1_555
Mg3 O9 2.099482 1_555
Mg3 O5 2.187343 1_555
Mg3 O7 2.187343 1_455
Mg3 O13 2.220762 1_555
Mg3 O13 2.220762 1_556
Mg3 O8 2.264809 1_565
Mg4 O10 2.144986 1_555
Mg4 O6 2.178755 1_555
Mg4 O4 2.178755 1_555
Mg4 O11 2.219304 1_555
Mg4 O14 2.219839 1_555
Mg4 O14 2.219839 1_556
Mg5 O10 2.144986 1_565
Mg5 O7 2.178755 1_555
Mg5 O5 2.178755 1_555
Mg5 O11 2.219304 1_555
Mg5 O15 2.219839 1_556
Mg5 O15 2.219839 1_555
Mg6 O10 2.099482 1_555
Mg6 O4 2.187343 1_555
Mg6 O5 2.187343 1_545
Mg6 O0 2.220762 1_555
Mg6 O0 2.220762 1_556
Mg6 O8 2.264809 1_555
Mg7 O9 2.144986 1_555
Mg7 O5 2.178755 1_555
Mg7 O4 2.178755 1_555
Mg7 O11 2.219304 1_555
Mg7 O1 2.219839 1_556
Mg7 O1 2.219839 1_555
Mg8 O10 2.099482 1_555
Mg8 O6 2.187343 1_555
Mg8 O7 2.187343 1_545
Mg8 O2 2.220762 1_555
Mg8 O2 2.220762 1_556
Mg8 O8 2.264809 1_655
Mg9 O9 2.144986 1_655
Mg9 O7 2.178755 1_555
Mg9 O6 2.178755 1_555
Mg9 O11 2.219304 1_555
Mg9 O3 2.219839 1_556
Mg9 O3 2.219839 1_555
Mg10 O1 2.158527 1_555
Mg10 O14 2.158527 1_555
Mg10 O0 2.214535 1_555
Mg10 O12 2.214535 1_555
Mg10 O4 2.219133 1_555
Mg10 O4 2.219133 1_554
Mg11 O1 2.158527 1_555
Mg11 O15 2.158527 1_555
Mg11 O0 2.214535 1_565
Mg11 O13 2.214535 1_555
Mg11 O5 2.219133 1_554
Mg11 O5 2.219133 1_555
Mg12 O3 2.158527 1_555
Mg12 O14 2.158527 1_555
Mg12 O12 2.214535 1_655
Mg12 O2 2.214535 1_555
Mg12 O6 2.219133 1_555
Mg12 O6 2.219133 1_554
Mg13 O3 2.158527 1_555
Mg13 O15 2.158527 1_555
Mg13 O2 2.214535 1_565
Mg13 O13 2.214535 1_655
Mg13 O7 2.219133 1_555
Mg13 O7 2.219133 1_554
Cd0 O11 2.218879 1_554
Cd0 O11 2.218879 1_555
Cd0 O1 2.284586 1_555
Cd0 O15 2.284586 1_555
Cd0 O14 2.284586 1_555
Cd0 O3 2.284586 1_555
O0 Sr0 2.356239 1_555
O2 Sr0 2.356239 1_655
O8 Sr0 2.218879 1_555
O8 Sr0 2.218879 1_556
O12 Sr0 2.356239 1_555
O13 Sr0 2.356239 1_565
