# generated using pymatgen
data_MnB4W3
_symmetry_space_group_name_H-M   'P 1'
_cell_length_a   3.06975826
_cell_length_b   3.14094898
_cell_length_c   8.27452984
_cell_angle_alpha   90.00000000
_cell_angle_beta   90.00000000
_cell_angle_gamma   90.00000000
_symmetry_Int_Tables_number   1
_chemical_formula_structural   MnB4W3
_chemical_formula_sum   'Mn1 B4 W3'
_cell_volume   79.78263671
_cell_formula_units_Z   1
loop_
 _symmetry_equiv_pos_site_id
 _symmetry_equiv_pos_as_xyz
  1  'x, y, z'
loop_
 _atom_site_type_symbol
 _atom_site_label
 _atom_site_symmetry_multiplicity
 _atom_site_fract_x
 _atom_site_fract_y
 _atom_site_fract_z
 _atom_site_occupancy
  Mn  Mn0  1  0.00000000  0.00000000  0.13858900  1
  B  B0  1  -0.00000000  0.00000000  0.42999791  1
  B  B1  1  0.00000000  0.50000000  0.94795975  1
  B  B2  1  0.50000000  0.50000000  0.07147171  1
  B  B3  1  0.50000000  0.00000000  0.55735425  1
  W  W0  1  -0.00000000  0.50000000  0.64622872  1
  W  W1  1  0.50000000  0.50000000  0.34862748  1
  W  W2  1  0.50000000  0.00000000  0.85977218  1
loop_
_geom_bond_atom_site_label_1
_geom_bond_atom_site_label_2
_geom_bond_distance
_geom_bond_site_symmetry_2
Mn0 W1 2.800497 1_545
Mn0 W1 2.800497 1_555
Mn0 W1 2.800497 1_445
Mn0 W1 2.800497 1_455
B0 B3 1.861821 1_455
B0 B3 1.861821 1_555
B0 W1 2.296863 1_545
B0 W1 2.296863 1_445
B0 W1 2.296863 1_555
B0 W1 2.296863 1_455
B0 W0 2.380684 1_555
B0 W0 2.380684 1_545
B0 Mn0 2.411272 1_555
B1 B2 1.844002 1_456
B1 B2 1.844002 1_556
B1 Mn0 2.225866 1_566
B1 Mn0 2.225866 1_556
B1 W2 2.314027 1_465
B1 W2 2.314027 1_565
B1 W2 2.314027 1_455
B1 W2 2.314027 1_555
B1 W0 2.496682 1_555
B2 Mn0 2.265099 1_665
B2 Mn0 2.265099 1_555
B2 Mn0 2.265099 1_655
B2 Mn0 2.265099 1_565
B2 W1 2.293334 1_555
B2 W2 2.352635 1_554
B2 W2 2.352635 1_564
B3 W0 2.315826 1_555
B3 W0 2.315826 1_545
B3 W0 2.315826 1_655
B3 W0 2.315826 1_645
B3 W1 2.334378 1_545
B3 W1 2.334378 1_555
B3 W2 2.502366 1_555
