# generated using pymatgen
data_Se2S8N4O15
_symmetry_space_group_name_H-M   'P 1'
_cell_length_a   9.66322328
_cell_length_b   13.38905684
_cell_length_c   21.86491609
_cell_angle_alpha   90.00000000
_cell_angle_beta   90.00000000
_cell_angle_gamma   90.00000000
_symmetry_Int_Tables_number   1
_chemical_formula_structural   Se2S8N4O15
_chemical_formula_sum   'Se8 S32 N16 O60'
_cell_volume   2828.91445500
_cell_formula_units_Z   4
loop_
 _symmetry_equiv_pos_site_id
 _symmetry_equiv_pos_as_xyz
  1  'x, y, z'
loop_
 _atom_site_type_symbol
 _atom_site_label
 _atom_site_symmetry_multiplicity
 _atom_site_fract_x
 _atom_site_fract_y
 _atom_site_fract_z
 _atom_site_occupancy
  Se  Se0  1  0.00898952  0.67240762  0.09659114  1
  Se  Se1  1  0.49101048  0.17240762  0.40340886  1
  Se  Se2  1  0.49101048  0.32759238  0.59659114  1
  Se  Se3  1  0.00898952  0.82759238  0.90340886  1
  Se  Se4  1  0.99101048  0.32759238  0.90340886  1
  Se  Se5  1  0.50898952  0.82759238  0.59659114  1
  Se  Se6  1  0.50898952  0.67240762  0.40340886  1
  Se  Se7  1  0.99101048  0.17240762  0.09659114  1
  S  S0  1  0.96926340  0.51770411  0.08203912  1
  S  S1  1  0.53073660  0.01770411  0.41796088  1
  S  S2  1  0.53073660  0.48229589  0.58203912  1
  S  S3  1  0.96926340  0.98229589  0.91796088  1
  S  S4  1  0.03073660  0.48229589  0.91796088  1
  S  S5  1  0.46926340  0.98229589  0.58203912  1
  S  S6  1  0.46926340  0.51770411  0.41796088  1
  S  S7  1  0.03073660  0.01770411  0.08203912  1
  S  S8  1  0.83482088  0.75695105  0.11261056  1
  S  S9  1  0.66517912  0.25695105  0.38738944  1
  S  S10  1  0.66517912  0.24304895  0.61261056  1
  S  S11  1  0.83482088  0.74304895  0.88738944  1
  S  S12  1  0.16517912  0.24304895  0.88738944  1
  S  S13  1  0.33482088  0.74304895  0.61261056  1
  S  S14  1  0.33482088  0.75695105  0.38738944  1
  S  S15  1  0.16517912  0.25695105  0.11261056  1
  S  S16  1  0.73672572  0.47805919  0.04853341  1
  S  S17  1  0.76327428  0.97805919  0.45146659  1
  S  S18  1  0.76327428  0.52194081  0.54853341  1
  S  S19  1  0.73672572  0.02194081  0.95146659  1
  S  S20  1  0.26327428  0.52194081  0.95146659  1
  S  S21  1  0.23672572  0.02194081  0.54853341  1
  S  S22  1  0.23672572  0.47805919  0.45146659  1
  S  S23  1  0.26327428  0.97805919  0.04853341  1
  S  S24  1  0.05678982  0.75559990  0.25083246  1
  S  S25  1  0.44321018  0.25559990  0.24916754  1
  S  S26  1  0.44321018  0.24440010  0.75083246  1
  S  S27  1  0.05678982  0.74440010  0.74916754  1
  S  S28  1  0.94321018  0.24440010  0.74916754  1
  S  S29  1  0.55678982  0.74440010  0.75083246  1
  S  S30  1  0.55678982  0.75559990  0.24916754  1
  S  S31  1  0.94321018  0.25559990  0.25083246  1
  N  N0  1  0.74009230  0.00362375  0.26080251  1
  N  N1  1  0.75990770  0.50362375  0.23919749  1
  N  N2  1  0.75990770  0.99637625  0.76080251  1
  N  N3  1  0.74009230  0.49637625  0.73919749  1
  N  N4  1  0.25990770  0.99637625  0.73919749  1
  N  N5  1  0.24009230  0.49637625  0.76080251  1
  N  N6  1  0.24009230  0.00362375  0.23919749  1
  N  N7  1  0.25990770  0.50362375  0.26080251  1
  N  N8  1  0.96557349  0.72881783  0.44664905  1
  N  N9  1  0.53442651  0.22881783  0.05335095  1
  N  N10  1  0.53442651  0.27118217  0.94664905  1
  N  N11  1  0.96557349  0.77118217  0.55335095  1
  N  N12  1  0.03442651  0.27118217  0.55335095  1
  N  N13  1  0.46557349  0.77118217  0.94664905  1
  N  N14  1  0.46557349  0.72881783  0.05335095  1
  N  N15  1  0.03442651  0.22881783  0.44664905  1
  O  O0  1  0.72175435  0.55410329  0.00178394  1
  O  O1  1  0.77824565  0.05410329  0.49821606  1
  O  O2  1  0.77824565  0.44589671  0.50178394  1
  O  O3  1  0.72175435  0.94589671  0.99821606  1
  O  O4  1  0.27824565  0.44589671  0.99821606  1
  O  O5  1  0.22175435  0.94589671  0.50178394  1
  O  O6  1  0.22175435  0.55410329  0.49821606  1
  O  O7  1  0.27824565  0.05410329  0.00178394  1
  O  O8  1  0.65375503  0.48591654  0.10294693  1
  O  O9  1  0.84624497  0.98591654  0.39705307  1
  O  O10  1  0.84624497  0.51408346  0.60294693  1
  O  O11  1  0.65375503  0.01408346  0.89705307  1
  O  O12  1  0.34624497  0.51408346  0.89705307  1
  O  O13  1  0.15375503  0.01408346  0.60294693  1
  O  O14  1  0.15375503  0.48591654  0.39705307  1
  O  O15  1  0.34624497  0.98591654  0.10294693  1
  O  O16  1  0.78271338  0.37954305  0.02926517  1
  O  O17  1  0.71728662  0.87954305  0.47073483  1
  O  O18  1  0.71728662  0.62045695  0.52926517  1
  O  O19  1  0.78271338  0.12045695  0.97073483  1
  O  O20  1  0.21728662  0.62045695  0.97073483  1
  O  O21  1  0.28271338  0.12045695  0.52926517  1
  O  O22  1  0.28271338  0.37954305  0.47073483  1
  O  O23  1  0.21728662  0.87954305  0.02926517  1
  O  O24  1  0.16950053  0.77026071  0.20857070  1
  O  O25  1  0.33049947  0.27026071  0.29142930  1
  O  O26  1  0.33049947  0.22973929  0.70857070  1
  O  O27  1  0.16950053  0.72973929  0.79142930  1
  O  O28  1  0.83049947  0.22973929  0.79142930  1
  O  O29  1  0.66950053  0.72973929  0.70857070  1
  O  O30  1  0.66950053  0.77026071  0.29142930  1
  O  O31  1  0.83049947  0.27026071  0.20857070  1
  O  O32  1  0.01374152  0.65556206  0.26515983  1
  O  O33  1  0.48625848  0.15556206  0.23484017  1
  O  O34  1  0.48625848  0.34443794  0.76515983  1
  O  O35  1  0.01374152  0.84443794  0.73484017  1
  O  O36  1  0.98625848  0.34443794  0.73484017  1
  O  O37  1  0.51374152  0.84443794  0.76515983  1
  O  O38  1  0.51374152  0.65556206  0.23484017  1
  O  O39  1  0.98625848  0.15556206  0.26515983  1
  O  O40  1  0.98821204  0.84027580  0.27707308  1
  O  O41  1  0.51178796  0.34027580  0.22292692  1
  O  O42  1  0.51178796  0.15972420  0.77707308  1
  O  O43  1  0.98821204  0.65972420  0.72292692  1
  O  O44  1  0.01178796  0.15972420  0.72292692  1
  O  O45  1  0.48821204  0.65972420  0.77707308  1
  O  O46  1  0.48821204  0.84027580  0.22292692  1
  O  O47  1  0.01178796  0.34027580  0.27707308  1
  O  O48  1  0.65211186  0.98959506  0.11143091  1
  O  O49  1  0.84788814  0.48959506  0.38856909  1
  O  O50  1  0.84788814  0.01040494  0.61143091  1
  O  O51  1  0.65211186  0.51040494  0.88856909  1
  O  O52  1  0.34788814  0.01040494  0.88856909  1
  O  O53  1  0.15211186  0.51040494  0.61143091  1
  O  O54  1  0.15211186  0.98959506  0.38856909  1
  O  O55  1  0.34788814  0.48959506  0.11143091  1
  O  O56  1  0.46631402  0.75000000  0.00000000  1
  O  O57  1  0.03368598  0.25000000  0.50000000  1
  O  O58  1  0.53368598  0.25000000  0.00000000  1
  O  O59  1  0.96631402  0.75000000  0.50000000  1
loop_
_geom_bond_atom_site_label_1
_geom_bond_atom_site_label_2
_geom_bond_distance
_geom_bond_site_symmetry_2
S0 Se0 2.130500 1_655
S0 S16 2.422345 1_555
S1 Se1 2.130500 1_555
S1 S17 2.422345 1_545
S2 Se2 2.130500 1_555
S3 Se3 2.130500 1_655
S4 Se4 2.130500 1_455
S5 Se5 2.130500 1_555
S6 Se6 2.130500 1_555
S7 Se7 2.130500 1_455
S8 Se0 2.058301 1_655
S9 Se1 2.058301 1_555
S10 Se2 2.058301 1_555
S11 Se3 2.058301 1_655
S12 Se4 2.058301 1_455
S13 Se5 2.058301 1_555
S14 Se6 2.058301 1_555
S15 Se7 2.058301 1_455
S18 S2 2.422345 1_555
S19 S3 2.422345 1_545
S20 S4 2.422345 1_555
S21 S5 2.422345 1_545
S22 S6 2.422345 1_555
S23 S7 2.422345 1_565
N8 O59 1.200517 1_555
N9 O58 1.200517 1_555
N10 O58 1.200517 1_556
N11 O59 1.200517 1_555
N12 O57 1.200517 1_555
N13 O56 1.200517 1_556
N14 O56 1.200517 1_555
N15 O57 1.200517 1_555
O0 S16 1.449971 1_555
O1 S17 1.449971 1_545
O2 S18 1.449971 1_555
O3 S19 1.449971 1_565
O4 S20 1.449971 1_555
O5 S21 1.449971 1_565
O6 S22 1.449971 1_555
O7 S23 1.449971 1_545
O8 S16 1.438538 1_555
O9 S17 1.438538 1_555
O10 S18 1.438538 1_555
O11 S19 1.438538 1_555
O12 S20 1.438538 1_555
O13 S21 1.438538 1_555
O14 S22 1.438538 1_555
O15 S23 1.438538 1_555
O16 S16 1.454247 1_555
O17 S17 1.454247 1_555
O18 S18 1.454247 1_555
O19 S19 1.454247 1_555
O20 S20 1.454247 1_555
O21 S21 1.454247 1_555
O22 S22 1.454247 1_555
O23 S23 1.454247 1_555
O24 S24 1.441751 1_555
O25 S25 1.441751 1_555
O26 S26 1.441751 1_555
O27 S27 1.441751 1_555
O28 S28 1.441751 1_555
O29 S29 1.441751 1_555
O30 S30 1.441751 1_555
O31 S31 1.441751 1_555
O32 S24 1.437082 1_555
O33 S25 1.437082 1_555
O34 S26 1.437082 1_555
O35 S27 1.437082 1_555
O36 S28 1.437082 1_555
O37 S29 1.437082 1_555
O38 S30 1.437082 1_555
O39 S31 1.437082 1_555
O40 S24 1.433067 1_655
O41 S25 1.433067 1_555
O42 S26 1.433067 1_555
O43 S27 1.433067 1_655
O44 S28 1.433067 1_455
O45 S29 1.433067 1_555
O46 S30 1.433067 1_555
O47 S31 1.433067 1_455
