# generated using pymatgen
data_Nb4Co2N
_symmetry_space_group_name_H-M   'P 1'
_cell_length_a   8.23057020
_cell_length_b   8.23057020
_cell_length_c   8.23057020
_cell_angle_alpha   60.00000000
_cell_angle_beta   60.00000000
_cell_angle_gamma   60.00000000
_symmetry_Int_Tables_number   1
_chemical_formula_structural   Nb4Co2N
_chemical_formula_sum   'Nb16 Co8 N4'
_cell_volume   394.25278709
_cell_formula_units_Z   4
loop_
 _symmetry_equiv_pos_site_id
 _symmetry_equiv_pos_as_xyz
  1  'x, y, z'
loop_
 _atom_site_type_symbol
 _atom_site_label
 _atom_site_symmetry_multiplicity
 _atom_site_fract_x
 _atom_site_fract_y
 _atom_site_fract_z
 _atom_site_occupancy
  Nb  Nb0  1  0.12500000  0.62500000  0.62500000  1
  Nb  Nb1  1  0.62500000  0.12500000  0.62500000  1
  Nb  Nb2  1  0.62500000  0.62500000  0.12500000  1
  Nb  Nb3  1  0.62500000  0.62500000  0.62500000  1
  Nb  Nb4  1  0.81399700  0.81399700  0.18600300  1
  Nb  Nb5  1  0.18600300  0.18600300  0.81399700  1
  Nb  Nb6  1  0.81399700  0.18600300  0.81399700  1
  Nb  Nb7  1  0.18600300  0.81399700  0.18600300  1
  Nb  Nb8  1  0.18600300  0.81399700  0.81399700  1
  Nb  Nb9  1  0.81399700  0.18600300  0.18600300  1
  Nb  Nb10  1  0.43600300  0.43600300  0.06399700  1
  Nb  Nb11  1  0.06399700  0.06399700  0.43600300  1
  Nb  Nb12  1  0.43600300  0.06399700  0.43600300  1
  Nb  Nb13  1  0.06399700  0.43600300  0.06399700  1
  Nb  Nb14  1  0.06399700  0.43600300  0.43600300  1
  Nb  Nb15  1  0.43600300  0.06399700  0.06399700  1
  Co  Co0  1  0.73631400  0.42122900  0.42122900  1
  Co  Co1  1  0.42122900  0.73631400  0.42122900  1
  Co  Co2  1  0.42122900  0.42122900  0.73631400  1
  Co  Co3  1  0.42122900  0.42122900  0.42122900  1
  Co  Co4  1  0.51368600  0.82877100  0.82877100  1
  Co  Co5  1  0.82877100  0.51368600  0.82877100  1
  Co  Co6  1  0.82877100  0.82877100  0.51368600  1
  Co  Co7  1  0.82877100  0.82877100  0.82877100  1
  N  N0  1  0.62500000  0.12500000  0.12500000  1
  N  N1  1  0.12500000  0.62500000  0.12500000  1
  N  N2  1  0.12500000  0.12500000  0.62500000  1
  N  N3  1  0.12500000  0.12500000  0.12500000  1
loop_
_geom_bond_atom_site_label_1
_geom_bond_atom_site_label_2
_geom_bond_distance
_geom_bond_site_symmetry_2
Co0 Nb3 2.490935 1_555
Co0 Nb1 2.490941 1_555
Co0 Nb2 2.490941 1_555
Co0 Co3 2.593329 1_555
Co0 Co1 2.593329 1_555
Co0 Co2 2.593329 1_555
Co0 Nb14 2.823857 1_655
Co0 Nb11 2.823862 1_655
Co0 Nb13 2.823862 1_655
Co0 Nb4 3.029495 1_555
Co0 Nb6 3.029495 1_555
Co0 Nb9 3.029502 1_555
Co1 Nb3 2.490935 1_555
Co1 Nb2 2.490941 1_555
Co1 Nb0 2.490941 1_555
Co1 Co3 2.593329 1_555
Co1 Co2 2.593329 1_555
Co1 Nb12 2.823857 1_565
Co1 Nb11 2.823862 1_565
Co1 Nb15 2.823862 1_565
Co1 Nb4 3.029495 1_555
Co1 Nb8 3.029495 1_555
Co1 Nb7 3.029502 1_555
Co2 Nb3 2.490935 1_555
Co2 Nb1 2.490941 1_555
Co2 Nb0 2.490941 1_555
Co2 Co3 2.593329 1_555
Co2 Nb10 2.823857 1_556
Co2 Nb13 2.823862 1_556
Co2 Nb15 2.823862 1_556
Co2 Nb8 3.029495 1_555
Co2 Nb6 3.029495 1_555
Co2 Nb5 3.029502 1_555
Co3 Nb1 2.490937 1_555
Co3 Nb2 2.490937 1_555
Co3 Nb0 2.490937 1_555
Co3 Nb14 2.823866 1_555
Co3 Nb10 2.823866 1_555
Co3 Nb12 2.823866 1_555
Co3 Nb5 3.029499 1_555
Co3 Nb7 3.029499 1_555
Co3 Nb9 3.029499 1_555
Co4 Nb3 2.490935 1_555
Co4 Nb1 2.490941 1_565
Co4 Nb2 2.490941 1_556
Co4 Co7 2.593329 1_555
Co4 Co5 2.593329 1_555
Co4 Co6 2.593329 1_555
Co4 Nb8 2.823857 1_555
Co4 Nb7 2.823862 1_556
Co4 Nb5 2.823862 1_565
Co4 Nb12 3.029495 1_565
Co4 Nb10 3.029495 1_556
Co4 Nb15 3.029502 1_566
Co5 Nb3 2.490935 1_555
Co5 Nb0 2.490941 1_655
Co5 Nb2 2.490941 1_556
Co5 Co7 2.593329 1_555
Co5 Co6 2.593329 1_555
Co5 Nb6 2.823857 1_555
Co5 Nb9 2.823862 1_556
Co5 Nb5 2.823862 1_655
Co5 Nb10 3.029495 1_556
Co5 Nb14 3.029495 1_655
Co5 Nb13 3.029502 1_656
Co6 Nb3 2.490935 1_555
Co6 Nb0 2.490941 1_655
Co6 Nb1 2.490941 1_565
Co6 Co7 2.593329 1_555
Co6 Nb4 2.823857 1_555
Co6 Nb9 2.823862 1_565
Co6 Nb7 2.823862 1_655
Co6 Nb12 3.029495 1_565
Co6 Nb14 3.029495 1_655
Co6 Nb11 3.029502 1_665
Co7 Nb1 2.490937 1_565
Co7 Nb0 2.490937 1_655
Co7 Nb2 2.490937 1_556
Co7 Nb4 2.823866 1_556
Co7 Nb8 2.823866 1_655
Co7 Nb6 2.823866 1_565
Co7 Nb11 3.029499 1_665
Co7 Nb15 3.029499 1_566
Co7 Nb13 3.029499 1_656
N0 Nb9 2.176713 1_555
N0 Nb15 2.176713 1_555
N0 Nb12 2.176713 1_555
N0 Nb10 2.176713 1_555
N0 Nb4 2.176713 1_545
N0 Nb6 2.176713 1_554
N1 Nb7 2.176713 1_555
N1 Nb8 2.176713 1_554
N1 Nb4 2.176713 1_455
N1 Nb10 2.176713 1_555
N1 Nb13 2.176713 1_555
N1 Nb14 2.176713 1_555
N2 Nb5 2.176713 1_555
N2 Nb11 2.176713 1_555
N2 Nb6 2.176713 1_455
N2 Nb12 2.176713 1_555
N2 Nb8 2.176713 1_545
N2 Nb14 2.176713 1_555
N3 Nb13 2.176713 1_555
N3 Nb11 2.176713 1_555
N3 Nb15 2.176713 1_555
N3 Nb7 2.176713 1_545
N3 Nb5 2.176713 1_554
N3 Nb9 2.176713 1_455
