# generated using pymatgen
data_Ca4PdO6
_symmetry_space_group_name_H-M   'P 1'
_cell_length_a   6.54188412
_cell_length_b   6.54188412
_cell_length_c   6.54188380
_cell_angle_alpha   90.60076817
_cell_angle_beta   90.60076817
_cell_angle_gamma   90.60077996
_symmetry_Int_Tables_number   1
_chemical_formula_structural   Ca4PdO6
_chemical_formula_sum   'Ca8 Pd2 O12'
_cell_volume   279.92158410
_cell_formula_units_Z   2
loop_
 _symmetry_equiv_pos_site_id
 _symmetry_equiv_pos_as_xyz
  1  'x, y, z'
loop_
 _atom_site_type_symbol
 _atom_site_label
 _atom_site_symmetry_multiplicity
 _atom_site_fract_x
 _atom_site_fract_y
 _atom_site_fract_z
 _atom_site_occupancy
  Ca  Ca0  1  0.25000000  0.25000000  0.25000000  1
  Ca  Ca1  1  0.75000000  0.75000000  0.75000000  1
  Ca  Ca2  1  0.75000000  0.11652713  0.38347287  1
  Ca  Ca3  1  0.38347287  0.75000000  0.11652713  1
  Ca  Ca4  1  0.11652713  0.38347287  0.75000000  1
  Ca  Ca5  1  0.25000000  0.88347287  0.61652713  1
  Ca  Ca6  1  0.61652713  0.25000000  0.88347287  1
  Ca  Ca7  1  0.88347287  0.61652713  0.25000000  1
  Pd  Pd0  1  0.00000000  -0.00000000  0.00000000  1
  Pd  Pd1  1  0.50000000  0.50000000  0.50000000  1
  O  O0  1  0.57077223  0.79602368  0.44567622  1
  O  O1  1  0.44567622  0.57077223  0.79602368  1
  O  O2  1  0.79602368  0.44567622  0.57077223  1
  O  O3  1  0.92922777  0.05432378  0.70397632  1
  O  O4  1  0.70397632  0.92922777  0.05432378  1
  O  O5  1  0.05432378  0.70397632  0.92922777  1
  O  O6  1  0.42922777  0.20397632  0.55432378  1
  O  O7  1  0.55432378  0.42922777  0.20397632  1
  O  O8  1  0.20397632  0.55432378  0.42922777  1
  O  O9  1  0.07077223  0.94567622  0.29602368  1
  O  O10  1  0.94567622  0.29602368  0.07077223  1
  O  O11  1  0.29602368  0.07077223  0.94567622  1
loop_
_geom_bond_atom_site_label_1
_geom_bond_atom_site_label_2
_geom_bond_distance
_geom_bond_site_symmetry_2
Ca0 O9 2.323765 1_545
Ca0 O7 2.323765 1_555
Ca0 O11 2.323766 1_554
Ca0 O6 2.323766 1_555
Ca0 O10 2.323766 1_455
Ca0 O8 2.323766 1_555
Ca1 O1 2.323765 1_555
Ca1 O3 2.323765 1_565
Ca1 O0 2.323766 1_555
Ca1 O4 2.323766 1_556
Ca1 O2 2.323766 1_555
Ca1 O5 2.323766 1_655
Ca2 O0 2.431624 1_545
Ca2 O3 2.431624 1_555
Ca2 O6 2.457838 1_555
Ca2 O9 2.457838 1_645
Ca2 O4 2.480289 1_545
Ca2 O2 2.480290 1_555
Ca2 O10 2.697395 1_555
Ca2 O7 2.697395 1_555
Ca3 O4 2.431624 1_555
Ca3 O1 2.431624 1_554
Ca3 O11 2.457838 1_564
Ca3 O7 2.457838 1_555
Ca3 O0 2.480289 1_555
Ca3 O5 2.480290 1_554
Ca3 O8 2.697395 1_555
Ca3 O9 2.697395 1_555
Ca4 O5 2.431624 1_555
Ca4 O2 2.431624 1_455
Ca4 O10 2.457837 1_456
Ca4 O8 2.457837 1_555
Ca4 O1 2.480289 1_555
Ca4 O3 2.480289 1_455
Ca4 O6 2.697395 1_555
Ca4 O11 2.697395 1_555
Ca5 O6 2.431624 1_565
Ca5 O9 2.431624 1_555
Ca5 O0 2.457838 1_555
Ca5 O3 2.457838 1_465
Ca5 O11 2.480289 1_565
Ca5 O8 2.480290 1_555
Ca5 O5 2.697395 1_555
Ca5 O1 2.697395 1_555
Ca6 O11 2.431624 1_555
Ca6 O7 2.431624 1_556
Ca6 O4 2.457838 1_546
Ca6 O1 2.457838 1_555
Ca6 O6 2.480289 1_555
Ca6 O10 2.480290 1_556
Ca6 O2 2.697395 1_555
Ca6 O3 2.697395 1_555
Ca7 O8 2.431624 1_655
Ca7 O10 2.431624 1_555
Ca7 O2 2.457837 1_555
Ca7 O5 2.457837 1_654
Ca7 O7 2.480289 1_555
Ca7 O9 2.480289 1_655
Ca7 O0 2.697395 1_555
Ca7 O4 2.697395 1_555
O0 Pd1 2.022366 1_555
O1 Pd1 2.022366 1_555
O2 Pd1 2.022366 1_555
O3 Pd0 2.022366 1_656
O4 Pd0 2.022366 1_665
O5 Pd0 2.022366 1_566
O6 Pd1 2.022366 1_555
O7 Pd1 2.022366 1_555
O8 Pd1 2.022366 1_555
O9 Pd0 2.022366 1_565
O10 Pd0 2.022366 1_655
O11 Pd0 2.022366 1_556
