# generated using pymatgen
data_Ho5Pt3
_symmetry_space_group_name_H-M   'P 1'
_cell_length_a   6.15157900
_cell_length_b   8.42389469
_cell_length_c   8.42333597
_cell_angle_alpha   120.00219392
_cell_angle_beta   90.00000000
_cell_angle_gamma   90.00000000
_symmetry_Int_Tables_number   1
_chemical_formula_structural   Ho5Pt3
_chemical_formula_sum   'Ho10 Pt6'
_cell_volume   378.01121770
_cell_formula_units_Z   2
loop_
 _symmetry_equiv_pos_site_id
 _symmetry_equiv_pos_as_xyz
  1  'x, y, z'
loop_
 _atom_site_type_symbol
 _atom_site_label
 _atom_site_symmetry_multiplicity
 _atom_site_fract_x
 _atom_site_fract_y
 _atom_site_fract_z
 _atom_site_occupancy
  Ho  Ho0  1  0.50000200  0.33333300  0.66672700  1
  Ho  Ho1  1  0.50000200  0.66660600  0.33327300  1
  Ho  Ho2  1  0.00000200  0.66666700  0.33327300  1
  Ho  Ho3  1  0.00000200  0.33339400  0.66672700  1
  Ho  Ho4  1  0.75000400  0.24460600  0.00000000  1
  Ho  Ho5  1  0.74999400  0.75536800  0.75536000  1
  Ho  Ho6  1  0.74999400  0.00000800  0.24464000  1
  Ho  Ho7  1  0.25000400  0.75539400  0.00000000  1
  Ho  Ho8  1  0.24999400  0.24463200  0.24464000  1
  Ho  Ho9  1  0.24999400  0.99999200  0.75536000  1
  Pt  Pt0  1  0.74999800  0.60743700  0.00000000  1
  Pt  Pt1  1  0.75000300  0.39253500  0.39252600  1
  Pt  Pt2  1  0.75000300  0.00000900  0.60747400  1
  Pt  Pt3  1  0.24999800  0.39256300  0.00000000  1
  Pt  Pt4  1  0.25000300  0.60746500  0.60747400  1
  Pt  Pt5  1  0.25000300  0.99999100  0.39252600  1
loop_
_geom_bond_atom_site_label_1
_geom_bond_atom_site_label_2
_geom_bond_distance
_geom_bond_site_symmetry_2
Ho0 Pt3 3.015649 1_556
Ho0 Pt0 3.015778 1_556
Ho0 Pt2 3.016114 1_555
Ho0 Pt5 3.016407 1_545
Ho0 Pt4 3.016543 1_555
Ho0 Pt1 3.016695 1_555
Ho0 Ho3 3.075790 1_555
Ho0 Ho3 3.075790 1_655
Ho0 Ho4 3.592066 1_556
Ho0 Ho9 3.592251 1_545
Ho0 Ho7 3.592364 1_556
Ho0 Ho6 3.592517 1_555
Ho0 Ho5 3.592664 1_555
Ho0 Ho8 3.592706 1_555
Ho1 Pt3 3.015649 1_555
Ho1 Pt0 3.015778 1_555
Ho1 Pt1 3.016114 1_555
Ho1 Pt4 3.016407 1_555
Ho1 Pt5 3.016543 1_555
Ho1 Pt2 3.016695 1_565
Ho1 Ho2 3.075790 1_555
Ho1 Ho2 3.075790 1_655
Ho1 Ho4 3.592066 1_555
Ho1 Ho8 3.592251 1_555
Ho1 Ho7 3.592364 1_555
Ho1 Ho5 3.592517 1_555
Ho1 Ho6 3.592664 1_565
Ho1 Ho9 3.592706 1_555
Ho2 Pt0 3.015649 1_455
Ho2 Pt3 3.015778 1_555
Ho2 Pt5 3.016114 1_555
Ho2 Pt2 3.016407 1_465
Ho2 Pt1 3.016543 1_455
Ho2 Pt4 3.016695 1_555
Ho2 Ho7 3.592066 1_555
Ho2 Ho6 3.592251 1_465
Ho2 Ho4 3.592364 1_455
Ho2 Ho9 3.592517 1_555
Ho2 Ho8 3.592664 1_555
Ho2 Ho5 3.592706 1_455
Ho3 Pt0 3.015649 1_456
Ho3 Pt3 3.015778 1_556
Ho3 Pt4 3.016114 1_555
Ho3 Pt1 3.016407 1_455
Ho3 Pt2 3.016543 1_455
Ho3 Pt5 3.016695 1_545
Ho3 Ho7 3.592066 1_556
Ho3 Ho5 3.592251 1_455
Ho3 Ho4 3.592364 1_456
Ho3 Ho8 3.592517 1_555
Ho3 Ho9 3.592664 1_545
Ho3 Ho6 3.592706 1_455
Ho4 Pt1 2.892148 1_555
Ho4 Pt2 2.892148 1_554
Ho4 Pt0 3.056450 1_555
Ho4 Pt3 3.318690 1_655
Ho4 Pt3 3.318758 1_555
Ho4 Ho6 3.569062 1_555
Ho4 Ho5 3.569062 1_544
Ho4 Ho8 3.702171 1_655
Ho4 Ho9 3.702171 1_644
Ho4 Ho8 3.702274 1_555
Ho4 Ho9 3.702274 1_544
Ho5 Pt2 2.892422 1_565
Ho5 Pt0 2.892651 1_556
Ho5 Pt1 3.056268 1_555
Ho5 Pt4 3.318444 1_555
Ho5 Pt4 3.318547 1_655
Ho5 Ho6 3.569132 1_566
Ho5 Ho7 3.702171 1_556
Ho5 Ho7 3.702274 1_656
Ho5 Ho9 3.702285 1_555
Ho5 Ho9 3.702285 1_655
Ho6 Pt1 2.892422 1_555
Ho6 Pt0 2.892651 1_545
Ho6 Pt2 3.056268 1_555
Ho6 Pt5 3.318444 1_545
Ho6 Pt5 3.318547 1_645
Ho6 Ho7 3.702171 1_545
Ho6 Ho7 3.702274 1_645
Ho6 Ho8 3.702285 1_555
Ho6 Ho8 3.702285 1_655
Ho7 Pt4 2.892148 1_554
Ho7 Pt5 2.892148 1_555
Ho7 Pt3 3.056450 1_555
Ho7 Pt0 3.318690 1_555
Ho7 Pt0 3.318758 1_455
Ho7 Ho9 3.569062 1_554
Ho7 Ho8 3.569062 1_565
Ho8 Pt5 2.892422 1_545
Ho8 Pt3 2.892651 1_555
Ho8 Pt4 3.056268 1_555
Ho8 Pt1 3.318444 1_455
Ho8 Pt1 3.318547 1_555
Ho8 Ho9 3.569132 1_544
Ho9 Pt4 2.892422 1_555
Ho9 Pt3 2.892651 1_566
Ho9 Pt5 3.056268 1_555
Ho9 Pt2 3.318444 1_465
Ho9 Pt2 3.318547 1_565
