# generated using pymatgen
data_Ba3MoN3
_symmetry_space_group_name_H-M   'P 1'
_cell_length_a   8.50235100
_cell_length_b   8.50237083
_cell_length_c   5.63469800
_cell_angle_alpha   90.00000000
_cell_angle_beta   90.00000000
_cell_angle_gamma   119.99961091
_symmetry_Int_Tables_number   1
_chemical_formula_structural   Ba3MoN3
_chemical_formula_sum   'Ba6 Mo2 N6'
_cell_volume   352.76220726
_cell_formula_units_Z   2
loop_
 _symmetry_equiv_pos_site_id
 _symmetry_equiv_pos_as_xyz
  1  'x, y, z'
loop_
 _atom_site_type_symbol
 _atom_site_label
 _atom_site_symmetry_multiplicity
 _atom_site_fract_x
 _atom_site_fract_y
 _atom_site_fract_z
 _atom_site_occupancy
  Ba  Ba0  1  0.91114800  0.64129900  0.25000000  1
  Ba  Ba1  1  0.73015400  0.08886000  0.25000000  1
  Ba  Ba2  1  0.35870300  0.26985000  0.25000000  1
  Ba  Ba3  1  0.08885200  0.35870100  0.75000000  1
  Ba  Ba4  1  0.26984600  0.91114000  0.75000000  1
  Ba  Ba5  1  0.64129700  0.73015000  0.75000000  1
  Mo  Mo0  1  0.66666400  0.33332900  0.75000000  1
  Mo  Mo1  1  0.33333600  0.66667100  0.25000000  1
  N  N0  1  0.87450500  0.56177000  0.75000000  1
  N  N1  1  0.68726200  0.12550400  0.75000000  1
  N  N2  1  0.43824100  0.31273300  0.75000000  1
  N  N3  1  0.12549500  0.43823000  0.25000000  1
  N  N4  1  0.31273800  0.87449600  0.25000000  1
  N  N5  1  0.56175900  0.68726700  0.25000000  1
loop_
_geom_bond_atom_site_label_1
_geom_bond_atom_site_label_2
_geom_bond_distance
_geom_bond_site_symmetry_2
Ba0 N0 2.877687 1_554
Ba0 N0 2.877687 1_555
Ba0 N4 2.969828 1_655
Ba0 N3 3.073911 1_655
Ba0 N5 3.184086 1_555
Ba1 N1 2.877697 1_554
Ba1 N1 2.877697 1_555
Ba1 N5 2.969852 1_545
Ba1 N4 3.073928 1_545
Ba1 N3 3.183963 1_655
Ba2 N2 2.877700 1_555
Ba2 N2 2.877700 1_554
Ba2 N3 2.969806 1_555
Ba2 N5 3.073941 1_555
Ba2 N4 3.184082 1_545
Ba3 N3 2.877687 1_556
Ba3 N3 2.877687 1_555
Ba3 N1 2.969828 1_455
Ba3 N0 3.073911 1_455
Ba3 N2 3.184086 1_555
Ba4 N4 2.877697 1_556
Ba4 N4 2.877697 1_555
Ba4 N2 2.969852 1_565
Ba4 N1 3.073928 1_565
Ba4 N0 3.183963 1_455
Ba5 N5 2.877700 1_556
Ba5 N5 2.877700 1_555
Ba5 N0 2.969806 1_555
Ba5 N2 3.073941 1_555
Ba5 N1 3.184082 1_565
Mo0 N1 1.860761 1_555
Mo0 N2 1.860766 1_555
Mo0 N0 1.860917 1_555
Mo1 N4 1.860761 1_555
Mo1 N5 1.860766 1_555
Mo1 N3 1.860917 1_555
