# generated using pymatgen
data_ErSbIr
_symmetry_space_group_name_H-M   'P 1'
_cell_length_a   4.49498764
_cell_length_b   7.09287663
_cell_length_c   7.81684236
_cell_angle_alpha   90.00280140
_cell_angle_beta   89.99998635
_cell_angle_gamma   90.00000563
_symmetry_Int_Tables_number   1
_chemical_formula_structural   ErSbIr
_chemical_formula_sum   'Er4 Sb4 Ir4'
_cell_volume   249.21963830
_cell_formula_units_Z   4
loop_
 _symmetry_equiv_pos_site_id
 _symmetry_equiv_pos_as_xyz
  1  'x, y, z'
loop_
 _atom_site_type_symbol
 _atom_site_label
 _atom_site_symmetry_multiplicity
 _atom_site_fract_x
 _atom_site_fract_y
 _atom_site_fract_z
 _atom_site_occupancy
  Er  Er0  1  0.24999982  0.51146911  0.19350522  1
  Er  Er1  1  0.75000012  0.48843555  0.80650429  1
  Er  Er2  1  0.75000021  0.98850224  0.69335663  1
  Er  Er3  1  0.24999988  0.01160611  0.30661131  1
  Sb  Sb0  1  0.25000013  0.67906400  0.58893029  1
  Sb  Sb1  1  0.74999975  0.32084343  0.41116524  1
  Sb  Sb2  1  0.74999963  0.82095317  0.08885281  1
  Sb  Sb3  1  0.25000041  0.17913499  0.91107790  1
  Ir  Ir0  1  0.24999982  0.79040632  0.91346649  1
  Ir  Ir1  1  0.75000026  0.20959390  0.08655574  1
  Ir  Ir2  1  0.75000013  0.70957228  0.41349416  1
  Ir  Ir3  1  0.24999983  0.29041889  0.58647792  1
loop_
_geom_bond_atom_site_label_1
_geom_bond_atom_site_label_2
_geom_bond_distance
_geom_bond_site_symmetry_2
Er0 Ir0 2.950688 1_554
Er0 Sb1 3.126403 1_455
Er0 Sb1 3.126403 1_555
Er0 Ir2 3.159500 1_455
Er0 Ir2 3.159502 1_555
Er0 Ir1 3.214737 1_455
Er0 Ir1 3.214740 1_555
Er0 Sb3 3.229520 1_554
Er0 Sb2 3.246415 1_555
Er0 Sb2 3.246417 1_455
Er0 Sb0 3.311623 1_555
Er0 Ir3 3.448872 1_555
Er1 Ir1 2.950307 1_556
Er1 Sb0 3.126045 1_655
Er1 Sb0 3.126046 1_555
Er1 Ir3 3.159386 1_655
Er1 Ir3 3.159389 1_555
Er1 Ir0 3.215215 1_655
Er1 Ir0 3.215217 1_555
Er1 Sb2 3.230049 1_556
Er1 Sb3 3.245380 1_555
Er1 Sb3 3.245382 1_655
Er1 Sb1 3.310989 1_555
Er1 Ir2 3.449411 1_555
Er2 Ir2 2.949488 1_555
Er2 Sb3 3.126612 1_565
Er2 Sb3 3.126614 1_665
Er2 Ir0 3.160067 1_655
Er2 Ir0 3.160068 1_555
Er2 Ir3 3.214843 1_665
Er2 Ir3 3.214846 1_565
Er2 Sb1 3.228454 1_565
Er2 Sb0 3.245697 1_655
Er2 Sb0 3.245698 1_555
Er2 Sb2 3.312134 1_556
Er2 Ir1 3.450445 1_566
Er3 Ir3 2.948954 1_555
Er3 Sb2 3.126833 1_545
Er3 Sb2 3.126835 1_445
Er3 Ir1 3.159495 1_455
Er3 Ir1 3.159496 1_555
Er3 Ir2 3.215406 1_445
Er3 Ir2 3.215408 1_545
Er3 Sb0 3.230176 1_545
Er3 Sb1 3.244985 1_555
Er3 Sb1 3.244985 1_455
Er3 Sb3 3.312354 1_554
Er3 Ir0 3.450416 1_544
Ir0 Sb2 2.641532 1_556
Ir0 Sb2 2.641533 1_456
Ir0 Sb0 2.656895 1_555
Ir0 Sb3 2.757269 1_565
Ir1 Sb3 2.641853 1_554
Ir1 Sb3 2.641853 1_654
Ir1 Sb1 2.657246 1_555
Ir1 Sb2 2.756640 1_545
Ir2 Sb0 2.641723 1_555
Ir2 Sb0 2.641724 1_655
Ir2 Sb2 2.657834 1_555
Ir2 Sb1 2.757265 1_555
Ir3 Sb1 2.641173 1_555
Ir3 Sb1 2.641174 1_455
Ir3 Sb3 2.657321 1_555
Ir3 Sb0 2.756678 1_555
