# generated using pymatgen
data_Fe2Cl6O5
_symmetry_space_group_name_H-M   'P 1'
_cell_length_a   6.70693900
_cell_length_b   13.18956200
_cell_length_c   15.15793300
_cell_angle_alpha   90.00000000
_cell_angle_beta   90.00000000
_cell_angle_gamma   90.00000000
_symmetry_Int_Tables_number   1
_chemical_formula_structural   Fe2Cl6O5
_chemical_formula_sum   'Fe8 Cl24 O20'
_cell_volume   1340.89482050
_cell_formula_units_Z   4
loop_
 _symmetry_equiv_pos_site_id
 _symmetry_equiv_pos_as_xyz
  1  'x, y, z'
loop_
 _atom_site_type_symbol
 _atom_site_label
 _atom_site_symmetry_multiplicity
 _atom_site_fract_x
 _atom_site_fract_y
 _atom_site_fract_z
 _atom_site_occupancy
  Fe  Fe0  1  0.51148600  0.01781000  0.75728000  1
  Fe  Fe1  1  0.48851400  0.98219000  0.25728000  1
  Fe  Fe2  1  0.51148600  0.48219000  0.25728000  1
  Fe  Fe3  1  0.48851400  0.51781000  0.75728000  1
  Fe  Fe4  1  0.93758200  0.72648900  0.47116300  1
  Fe  Fe5  1  0.06241800  0.27351100  0.97116300  1
  Fe  Fe6  1  0.93758200  0.77351100  0.97116300  1
  Fe  Fe7  1  0.06241800  0.22648900  0.47116300  1
  Cl  Cl0  1  0.84017300  0.02773600  0.77945600  1
  Cl  Cl1  1  0.15982700  0.97226400  0.27945600  1
  Cl  Cl2  1  0.84017300  0.47226400  0.27945600  1
  Cl  Cl3  1  0.15982700  0.52773600  0.77945600  1
  Cl  Cl4  1  0.39415900  0.17260300  0.74495400  1
  Cl  Cl5  1  0.60584100  0.82739700  0.24495400  1
  Cl  Cl6  1  0.39415900  0.32739700  0.24495400  1
  Cl  Cl7  1  0.60584100  0.67260300  0.74495400  1
  Cl  Cl8  1  0.37149100  0.94567600  0.87420000  1
  Cl  Cl9  1  0.62850900  0.05432400  0.37420000  1
  Cl  Cl10  1  0.37149100  0.55432400  0.37420000  1
  Cl  Cl11  1  0.62850900  0.44567600  0.87420000  1
  Cl  Cl12  1  0.44382100  0.92232300  0.64234000  1
  Cl  Cl13  1  0.55617900  0.07767700  0.14234000  1
  Cl  Cl14  1  0.44382100  0.57767700  0.14234000  1
  Cl  Cl15  1  0.55617900  0.42232300  0.64234000  1
  Cl  Cl16  1  0.20693800  0.65321700  0.53481700  1
  Cl  Cl17  1  0.79306200  0.34678300  0.03481700  1
  Cl  Cl18  1  0.20693800  0.84678300  0.03481700  1
  Cl  Cl19  1  0.79306200  0.15321700  0.53481700  1
  Cl  Cl20  1  0.08822800  0.87342600  0.47176600  1
  Cl  Cl21  1  0.91177200  0.12657400  0.97176600  1
  Cl  Cl22  1  0.08822800  0.62657400  0.97176600  1
  Cl  Cl23  1  0.91177200  0.37342600  0.47176600  1
  O  O0  1  0.95254000  0.26518700  0.69051400  1
  O  O1  1  0.04746000  0.73481300  0.19051400  1
  O  O2  1  0.95254000  0.23481300  0.19051400  1
  O  O3  1  0.04746000  0.76518700  0.69051400  1
  O  O4  1  0.93861800  0.83206900  0.66352400  1
  O  O5  1  0.06138200  0.16793100  0.16352400  1
  O  O6  1  0.93861800  0.66793100  0.16352400  1
  O  O7  1  0.06138200  0.33206900  0.66352400  1
  O  O8  1  0.78451800  0.66168900  0.54067700  1
  O  O9  1  0.21548200  0.33831100  0.04067700  1
  O  O10  1  0.78451800  0.83831100  0.04067700  1
  O  O11  1  0.21548200  0.16168900  0.54067700  1
  O  O12  1  0.94506000  0.68069900  0.37111800  1
  O  O13  1  0.05494000  0.31930100  0.87111800  1
  O  O14  1  0.94506000  0.81930100  0.87111800  1
  O  O15  1  0.05494000  0.18069900  0.37111800  1
  O  O16  1  0.70038600  0.78814000  0.46109100  1
  O  O17  1  0.29961400  0.21186000  0.96109100  1
  O  O18  1  0.70038600  0.71186000  0.96109100  1
  O  O19  1  0.29961400  0.28814000  0.46109100  1
loop_
_geom_bond_atom_site_label_1
_geom_bond_atom_site_label_2
_geom_bond_distance
_geom_bond_site_symmetry_2
Fe4 O12 1.633086 1_555
Fe4 O8 1.701362 1_555
Fe4 O16 1.793141 1_555
Fe5 O13 1.633086 1_555
Fe5 O9 1.701362 1_556
Fe5 O17 1.793141 1_555
Fe6 O14 1.633086 1_555
Fe6 O10 1.701362 1_556
Fe6 O18 1.793141 1_555
Fe7 O15 1.633086 1_555
Fe7 O11 1.701362 1_555
Fe7 O19 1.793141 1_555
Cl0 Fe0 2.233804 1_555
Cl1 Fe1 2.233804 1_555
Cl2 Fe2 2.233804 1_555
Cl3 Fe3 2.233804 1_555
Cl4 Fe0 2.196012 1_555
Cl5 Fe1 2.196012 1_555
Cl6 Fe2 2.196012 1_555
Cl7 Fe3 2.196012 1_555
Cl8 Fe0 2.219847 1_565
Cl9 Fe1 2.219847 1_545
Cl10 Fe2 2.219847 1_555
Cl11 Fe3 2.219847 1_555
Cl12 Fe0 2.197173 1_565
Cl13 Fe1 2.197173 1_545
Cl14 Fe2 2.197173 1_555
Cl15 Fe3 2.197173 1_555
Cl16 Fe4 2.264636 1_455
Cl17 Fe5 2.264636 1_654
Cl18 Fe6 2.264636 1_454
Cl19 Fe7 2.264636 1_655
Cl20 Fe4 2.185616 1_455
Cl21 Fe5 2.185616 1_655
Cl22 Fe6 2.185616 1_455
Cl23 Fe7 2.185616 1_655
O0 O7 1.215914 1_655
O1 O6 1.215914 1_455
O2 O5 1.215914 1_655
O3 O4 1.215914 1_455
