# generated using pymatgen
data_In
_symmetry_space_group_name_H-M   'P 1'
_cell_length_a   6.72768864
_cell_length_b   6.72768681
_cell_length_c   21.59941672
_cell_angle_alpha   90.00000000
_cell_angle_beta   90.00000000
_cell_angle_gamma   120.00000899
_symmetry_Int_Tables_number   1
_chemical_formula_structural   In
_chemical_formula_sum   In32
_cell_volume   846.65068806
_cell_formula_units_Z   32
loop_
 _symmetry_equiv_pos_site_id
 _symmetry_equiv_pos_as_xyz
  1  'x, y, z'
loop_
 _atom_site_type_symbol
 _atom_site_label
 _atom_site_symmetry_multiplicity
 _atom_site_fract_x
 _atom_site_fract_y
 _atom_site_fract_z
 _atom_site_occupancy
  In  In0_0  1  0.00000000  0.00000000  0.00000000  1
  In  In0_1  1  0.00000000  0.00000000  0.50000000  1
  In  In0_2  1  0.00000000  0.50000000  0.00000000  1
  In  In0_3  1  0.00000000  0.50000000  0.50000000  1
  In  In0_4  1  0.50000000  0.00000000  0.00000000  1
  In  In0_5  1  0.50000000  0.00000000  0.50000000  1
  In  In0_6  1  0.50000000  0.50000000  0.00000000  1
  In  In0_7  1  0.50000000  0.50000000  0.50000000  1
  In  In1_0  1  0.16666650  0.33333300  0.12500000  1
  In  In1_1  1  0.16666650  0.33333300  0.62500000  1
  In  In1_2  1  0.16666650  0.83333300  0.12500000  1
  In  In1_3  1  0.16666650  0.83333300  0.62500000  1
  In  In1_4  1  0.66666650  0.33333300  0.12500000  1
  In  In1_5  1  0.66666650  0.33333300  0.62500000  1
  In  In1_6  1  0.66666650  0.83333300  0.12500000  1
  In  In1_7  1  0.66666650  0.83333300  0.62500000  1
  In  In2_0  1  0.00000000  0.00000000  0.25000000  1
  In  In2_1  1  0.00000000  0.00000000  0.75000000  1
  In  In2_2  1  0.00000000  0.50000000  0.25000000  1
  In  In2_3  1  0.00000000  0.50000000  0.75000000  1
  In  In2_4  1  0.50000000  0.00000000  0.25000000  1
  In  In2_5  1  0.50000000  0.00000000  0.75000000  1
  In  In2_6  1  0.50000000  0.50000000  0.25000000  1
  In  In2_7  1  0.50000000  0.50000000  0.75000000  1
  In  In3_0  1  0.33333350  0.16666700  0.37500000  1
  In  In3_1  1  0.33333350  0.16666700  0.87500000  1
  In  In3_2  1  0.33333350  0.66666700  0.37500000  1
  In  In3_3  1  0.33333350  0.66666700  0.87500000  1
  In  In3_4  1  0.83333350  0.16666700  0.37500000  1
  In  In3_5  1  0.83333350  0.16666700  0.87500000  1
  In  In3_6  1  0.83333350  0.66666700  0.37500000  1
  In  In3_7  1  0.83333350  0.66666700  0.87500000  1
loop_
_geom_bond_atom_site_label_1
_geom_bond_atom_site_label_2
_geom_bond_distance
_geom_bond_site_symmetry_2
In0_0 In3_7 3.325870 1_444
In0_0 In1_0 3.325870 1_555
In0_0 In3_5 3.325872 1_454
In0_0 In3_1 3.325872 1_554
In0_0 In1_6 3.325872 1_445
In0_0 In1_2 3.325872 1_545
In0_0 In0_6 3.363843 1_555
In0_0 In0_2 3.363843 1_555
In0_0 In0_6 3.363843 1_445
In0_0 In0_2 3.363843 1_545
In0_0 In0_4 3.363844 1_455
In0_0 In0_4 3.363844 1_555
In0_1 In3_6 3.325870 1_445
In0_1 In1_1 3.325870 1_555
In0_1 In3_4 3.325872 1_455
In0_1 In3_0 3.325872 1_555
In0_1 In1_7 3.325872 1_445
In0_1 In1_3 3.325872 1_545
In0_1 In0_3 3.363843 1_555
In0_1 In0_3 3.363843 1_545
In0_1 In0_7 3.363843 1_555
In0_1 In0_7 3.363843 1_445
In0_1 In0_5 3.363844 1_455
In0_1 In0_5 3.363844 1_555
In0_2 In3_5 3.325870 1_454
In0_2 In1_2 3.325870 1_555
In0_2 In3_3 3.325872 1_554
In0_2 In3_7 3.325872 1_454
In0_2 In1_4 3.325872 1_455
In0_2 In1_0 3.325872 1_555
In0_2 In0_4 3.363843 1_455
In0_2 In0_4 3.363843 1_565
In0_2 In0_6 3.363844 1_455
In0_2 In0_6 3.363844 1_555
In0_3 In3_4 3.325870 1_455
In0_3 In1_3 3.325870 1_555
In0_3 In3_6 3.325872 1_455
In0_3 In3_2 3.325872 1_555
In0_3 In1_5 3.325872 1_455
In0_3 In1_1 3.325872 1_555
In0_3 In0_5 3.363843 1_455
In0_3 In0_5 3.363843 1_565
In0_3 In0_7 3.363844 1_455
In0_3 In0_7 3.363844 1_555
In0_4 In3_3 3.325870 1_544
In0_4 In1_4 3.325870 1_555
In0_4 In3_1 3.325872 1_554
In0_4 In3_5 3.325872 1_554
In0_4 In1_2 3.325872 1_545
In0_4 In1_6 3.325872 1_545
In0_4 In0_6 3.363843 1_555
In0_4 In0_6 3.363843 1_545
In0_5 In3_2 3.325870 1_545
In0_5 In1_5 3.325870 1_555
In0_5 In3_0 3.325872 1_555
In0_5 In3_4 3.325872 1_555
In0_5 In1_3 3.325872 1_545
In0_5 In1_7 3.325872 1_545
In0_5 In0_7 3.363843 1_555
In0_5 In0_7 3.363843 1_545
In0_6 In3_1 3.325870 1_554
In0_6 In1_6 3.325870 1_555
In0_6 In3_3 3.325872 1_554
In0_6 In3_7 3.325872 1_554
In0_6 In1_0 3.325872 1_555
In0_6 In1_4 3.325872 1_555
In0_7 In3_0 3.325870 1_555
In0_7 In1_7 3.325870 1_555
In0_7 In3_6 3.325872 1_555
In0_7 In3_2 3.325872 1_555
In0_7 In1_1 3.325872 1_555
In0_7 In1_5 3.325872 1_555
In1_0 In2_0 3.325870 1_555
In1_0 In2_6 3.325872 1_555
In1_0 In2_2 3.325872 1_555
In1_0 In1_6 3.363843 1_555
In1_0 In1_2 3.363843 1_545
In1_0 In1_6 3.363843 1_445
In1_0 In1_2 3.363843 1_555
In1_0 In1_4 3.363844 1_455
In1_0 In1_4 3.363844 1_555
In1_1 In2_1 3.325870 1_555
In1_1 In2_3 3.325872 1_555
In1_1 In2_7 3.325872 1_555
In1_1 In1_3 3.363843 1_545
In1_1 In1_7 3.363843 1_555
In1_1 In1_7 3.363843 1_445
In1_1 In1_3 3.363843 1_555
In1_1 In1_5 3.363844 1_555
In1_1 In1_5 3.363844 1_455
In1_2 In2_2 3.325870 1_555
In1_2 In2_0 3.325872 1_565
In1_2 In2_4 3.325872 1_565
In1_2 In1_4 3.363843 1_455
In1_2 In1_4 3.363843 1_565
In1_2 In1_6 3.363844 1_455
In1_2 In1_6 3.363844 1_555
In1_3 In2_3 3.325870 1_555
In1_3 In2_1 3.325872 1_565
In1_3 In2_5 3.325872 1_565
In1_3 In1_5 3.363843 1_455
In1_3 In1_5 3.363843 1_565
In1_3 In1_7 3.363844 1_455
In1_3 In1_7 3.363844 1_555
In1_4 In2_4 3.325870 1_555
In1_4 In2_2 3.325872 1_655
In1_4 In2_6 3.325872 1_555
In1_4 In1_6 3.363843 1_555
In1_4 In1_6 3.363843 1_545
In1_5 In2_5 3.325870 1_555
In1_5 In2_3 3.325872 1_655
In1_5 In2_7 3.325872 1_555
In1_5 In1_7 3.363843 1_545
In1_5 In1_7 3.363843 1_555
In1_6 In2_6 3.325870 1_555
In1_6 In2_0 3.325872 1_665
In1_6 In2_4 3.325872 1_565
In1_7 In2_7 3.325870 1_555
In1_7 In2_1 3.325872 1_665
In1_7 In2_5 3.325872 1_565
In2_0 In3_6 3.325870 1_445
In2_0 In3_4 3.325872 1_455
In2_0 In3_0 3.325872 1_555
In2_0 In2_2 3.363843 1_555
In2_0 In2_6 3.363843 1_445
In2_0 In2_6 3.363843 1_555
In2_0 In2_2 3.363843 1_545
In2_0 In2_4 3.363844 1_455
In2_0 In2_4 3.363844 1_555
In2_1 In3_7 3.325870 1_445
In2_1 In3_5 3.325872 1_455
In2_1 In3_1 3.325872 1_555
In2_1 In2_3 3.363843 1_555
In2_1 In2_7 3.363843 1_555
In2_1 In2_3 3.363843 1_545
In2_1 In2_7 3.363843 1_445
In2_1 In2_5 3.363844 1_455
In2_1 In2_5 3.363844 1_555
In2_2 In3_4 3.325870 1_455
In2_2 In3_2 3.325872 1_555
In2_2 In3_6 3.325872 1_455
In2_2 In2_4 3.363843 1_455
In2_2 In2_4 3.363843 1_565
In2_2 In2_6 3.363844 1_555
In2_2 In2_6 3.363844 1_455
In2_3 In3_5 3.325870 1_455
In2_3 In3_3 3.325872 1_555
In2_3 In3_7 3.325872 1_455
In2_3 In2_5 3.363843 1_565
In2_3 In2_5 3.363843 1_455
In2_3 In2_7 3.363844 1_455
In2_3 In2_7 3.363844 1_555
In2_4 In3_2 3.325870 1_545
In2_4 In3_0 3.325872 1_555
In2_4 In3_4 3.325872 1_555
In2_4 In2_6 3.363843 1_555
In2_4 In2_6 3.363843 1_545
In2_5 In3_3 3.325870 1_545
In2_5 In3_1 3.325872 1_555
In2_5 In3_5 3.325872 1_555
In2_5 In2_7 3.363843 1_555
In2_5 In2_7 3.363843 1_545
In2_6 In3_0 3.325870 1_555
In2_6 In3_6 3.325872 1_555
In2_6 In3_2 3.325872 1_555
In2_7 In3_1 3.325870 1_555
In2_7 In3_7 3.325872 1_555
In2_7 In3_3 3.325872 1_555
In3_0 In3_6 3.363843 1_555
In3_0 In3_6 3.363843 1_445
In3_0 In3_2 3.363843 1_545
In3_0 In3_2 3.363843 1_555
In3_0 In3_4 3.363844 1_455
In3_0 In3_4 3.363844 1_555
In3_1 In3_7 3.363843 1_555
In3_1 In3_3 3.363843 1_545
In3_1 In3_3 3.363843 1_555
In3_1 In3_7 3.363843 1_445
In3_1 In3_5 3.363844 1_455
In3_1 In3_5 3.363844 1_555
In3_2 In3_4 3.363843 1_455
In3_2 In3_4 3.363843 1_565
In3_2 In3_6 3.363844 1_555
In3_2 In3_6 3.363844 1_455
In3_3 In3_5 3.363843 1_565
In3_3 In3_5 3.363843 1_455
In3_3 In3_7 3.363844 1_555
In3_3 In3_7 3.363844 1_455
In3_4 In3_6 3.363843 1_545
In3_4 In3_6 3.363843 1_555
In3_5 In3_7 3.363843 1_545
In3_5 In3_7 3.363843 1_555
