# generated using pymatgen
data_K2V(PO4)2
_symmetry_space_group_name_H-M   'P 1'
_cell_length_a   8.42097000
_cell_length_b   8.42097000
_cell_length_c   5.53662200
_cell_angle_alpha   90.00000000
_cell_angle_beta   90.00000000
_cell_angle_gamma   90.00000000
_symmetry_Int_Tables_number   1
_chemical_formula_structural   K2V(PO4)2
_chemical_formula_sum   'K4 V2 P4 O16'
_cell_volume   392.61701278
_cell_formula_units_Z   2
loop_
 _symmetry_equiv_pos_site_id
 _symmetry_equiv_pos_as_xyz
  1  'x, y, z'
loop_
 _atom_site_type_symbol
 _atom_site_label
 _atom_site_symmetry_multiplicity
 _atom_site_fract_x
 _atom_site_fract_y
 _atom_site_fract_z
 _atom_site_occupancy
  K  K0  1  0.67167900  0.82832100  0.62796300  1
  K  K1  1  0.82832100  0.32832100  0.62796300  1
  K  K2  1  0.17167900  0.67167900  0.62796300  1
  K  K3  1  0.32832100  0.17167900  0.62796300  1
  V  V0  1  0.50000000  0.50000000  0.10219000  1
  V  V1  1  0.00000000  0.00000000  0.10219000  1
  P  P0  1  0.87184300  0.62815700  0.11444100  1
  P  P1  1  0.62815700  0.12815700  0.11444100  1
  P  P2  1  0.37184300  0.87184300  0.11444100  1
  P  P3  1  0.12815700  0.37184300  0.11444100  1
  O  O0  1  0.50000000  0.00000000  0.00503600  1
  O  O1  1  0.00000000  0.50000000  0.00503600  1
  O  O2  1  0.21484000  0.92443500  0.99390900  1
  O  O3  1  0.78516000  0.07556500  0.99390900  1
  O  O4  1  0.07556500  0.21484000  0.99390900  1
  O  O5  1  0.92443500  0.78516000  0.99390900  1
  O  O6  1  0.57556500  0.28516000  0.99390900  1
  O  O7  1  0.28516000  0.42443500  0.99390900  1
  O  O8  1  0.71484000  0.57556500  0.99390900  1
  O  O9  1  0.42443500  0.71484000  0.99390900  1
  O  O10  1  0.50000000  0.50000000  0.39715600  1
  O  O11  1  0.00000000  0.00000000  0.39715600  1
  O  O12  1  0.12667700  0.37332300  0.38543700  1
  O  O13  1  0.37332300  0.87332300  0.38543700  1
  O  O14  1  0.62667700  0.12667700  0.38543700  1
  O  O15  1  0.87332300  0.62667700  0.38543700  1
loop_
_geom_bond_atom_site_label_1
_geom_bond_atom_site_label_2
_geom_bond_distance
_geom_bond_site_symmetry_2
K0 O15 2.751311 1_555
K0 O14 2.873855 1_565
K0 O13 2.873855 1_555
K0 O0 2.922098 1_566
K0 O5 2.960997 1_555
K0 O8 2.960997 1_555
K0 O9 3.058296 1_555
K0 O3 3.058296 1_565
K0 O11 3.371510 1_665
K0 O10 3.371510 1_555
K1 O14 2.751311 1_555
K1 O12 2.873855 1_655
K1 O15 2.873855 1_555
K1 O1 2.922098 1_656
K1 O6 2.960997 1_555
K1 O3 2.960997 1_555
K1 O8 3.058296 1_555
K1 O4 3.058296 1_655
K1 O10 3.371510 1_555
K1 O11 3.371510 1_655
K2 O13 2.751311 1_555
K2 O12 2.873855 1_555
K2 O15 2.873855 1_455
K2 O1 2.922098 1_556
K2 O2 2.960997 1_555
K2 O9 2.960997 1_555
K2 O7 3.058296 1_555
K2 O5 3.058296 1_455
K2 O10 3.371510 1_555
K2 O11 3.371510 1_565
K3 O12 2.751311 1_555
K3 O13 2.873855 1_545
K3 O14 2.873855 1_555
K3 O0 2.922098 1_556
K3 O7 2.960997 1_555
K3 O4 2.960997 1_555
K3 O2 3.058296 1_545
K3 O6 3.058296 1_555
K3 O10 3.371510 1_555
K3 O11 3.371510 1_555
O0 P1 1.642037 1_555
O0 P2 1.642037 1_545
O1 P0 1.642037 1_455
O1 P3 1.642037 1_555
O2 P2 1.545793 1_556
O2 V1 2.009327 1_566
O3 P1 1.545793 1_556
O3 V1 2.009327 1_656
O4 P3 1.545793 1_556
O4 V1 2.009327 1_556
O5 P0 1.545793 1_556
O5 V1 2.009327 1_666
O6 P1 1.545793 1_556
O6 V0 2.009327 1_556
O7 P3 1.545793 1_556
O7 V0 2.009327 1_556
O8 P0 1.545793 1_556
O8 V0 2.009327 1_556
O9 P2 1.545793 1_556
O9 V0 2.009327 1_556
O10 V0 1.633115 1_555
O11 V1 1.633115 1_555
O12 P3 1.500506 1_555
O13 P2 1.500506 1_555
O14 P1 1.500506 1_555
O15 P0 1.500506 1_555
