# generated using pymatgen
data_LiMg6Cd
_symmetry_space_group_name_H-M   'P 1'
_cell_length_a   5.12292300
_cell_length_b   6.29807700
_cell_length_c   10.88207000
_cell_angle_alpha   90.00000000
_cell_angle_beta   90.00000000
_cell_angle_gamma   90.00000000
_symmetry_Int_Tables_number   1
_chemical_formula_structural   LiMg6Cd
_chemical_formula_sum   'Li2 Mg12 Cd2'
_cell_volume   351.10523873
_cell_formula_units_Z   2
loop_
 _symmetry_equiv_pos_site_id
 _symmetry_equiv_pos_as_xyz
  1  'x, y, z'
loop_
 _atom_site_type_symbol
 _atom_site_label
 _atom_site_symmetry_multiplicity
 _atom_site_fract_x
 _atom_site_fract_y
 _atom_site_fract_z
 _atom_site_occupancy
  Li  Li0  1  0.50000000  0.00000000  0.83296400  1
  Li  Li1  1  0.50000000  0.50000000  0.33296400  1
  Mg  Mg0  1  0.50000000  0.24904800  0.58361600  1
  Mg  Mg1  1  0.50000000  0.75095200  0.58361600  1
  Mg  Mg2  1  0.00000000  0.25151200  0.41573100  1
  Mg  Mg3  1  0.00000000  0.74848800  0.41573100  1
  Mg  Mg4  1  0.00000000  0.00000000  0.66792100  1
  Mg  Mg5  1  0.00000000  0.00000000  0.16683100  1
  Mg  Mg6  1  0.50000000  0.74904800  0.08361600  1
  Mg  Mg7  1  0.50000000  0.25095200  0.08361600  1
  Mg  Mg8  1  0.00000000  0.75151200  0.91573100  1
  Mg  Mg9  1  0.00000000  0.24848800  0.91573100  1
  Mg  Mg10  1  0.00000000  0.50000000  0.16792100  1
  Mg  Mg11  1  0.00000000  0.50000000  0.66683100  1
  Cd  Cd0  1  0.50000000  0.00000000  0.33359400  1
  Cd  Cd1  1  0.50000000  0.50000000  0.83359400  1
loop_
_geom_bond_atom_site_label_1
_geom_bond_atom_site_label_2
_geom_bond_distance
_geom_bond_site_symmetry_2
Li0 Mg4 3.128376 1_555
Li0 Mg4 3.128376 1_655
Li0 Mg9 3.133930 1_655
Li0 Mg9 3.133930 1_555
Li0 Mg8 3.133930 1_545
Li0 Mg8 3.133930 1_645
Li0 Mg0 3.134155 1_555
Li0 Mg1 3.134155 1_545
Li0 Mg7 3.152443 1_556
Li0 Mg6 3.152443 1_546
Li1 Mg10 3.128376 1_555
Li1 Mg10 3.128376 1_655
Li1 Mg2 3.133930 1_555
Li1 Mg2 3.133930 1_655
Li1 Mg3 3.133930 1_555
Li1 Mg3 3.133930 1_655
Li1 Mg6 3.134155 1_555
Li1 Mg7 3.134155 1_555
Li1 Mg0 3.152443 1_555
Li1 Mg1 3.152443 1_555
Mg0 Mg1 3.137047 1_545
Mg0 Mg4 3.140541 1_555
Mg0 Mg4 3.140541 1_655
Mg0 Mg11 3.143109 1_655
Mg0 Mg11 3.143109 1_555
Mg0 Mg2 3.146271 1_655
Mg0 Mg2 3.146271 1_555
Mg0 Mg1 3.161030 1_555
Mg1 Mg4 3.140541 1_665
Mg1 Mg4 3.140541 1_565
Mg1 Mg11 3.143109 1_655
Mg1 Mg11 3.143109 1_555
Mg1 Mg3 3.146271 1_655
Mg1 Mg3 3.146271 1_555
Mg2 Mg3 3.129993 1_555
Mg2 Mg5 3.137741 1_555
Mg2 Mg3 3.168084 1_545
Mg2 Mg4 3.168697 1_555
Mg3 Mg5 3.137741 1_565
Mg3 Mg4 3.168697 1_565
Mg4 Mg9 3.117904 1_555
Mg4 Mg8 3.117904 1_545
Mg5 Mg6 3.143109 1_445
Mg5 Mg6 3.143109 1_545
Mg5 Mg7 3.143109 1_455
Mg5 Mg7 3.143109 1_555
Mg5 Mg9 3.148921 1_554
Mg5 Mg8 3.148921 1_544
Mg6 Mg7 3.137047 1_555
Mg6 Mg8 3.146271 1_554
Mg6 Mg8 3.146271 1_654
Mg6 Mg7 3.161030 1_565
Mg7 Mg9 3.146271 1_654
Mg7 Mg9 3.146271 1_554
Mg8 Mg9 3.129993 1_565
Mg8 Mg9 3.168084 1_555
Mg10 Mg2 3.117904 1_555
Mg10 Mg3 3.117904 1_555
Mg10 Mg7 3.140541 1_455
Mg10 Mg7 3.140541 1_555
Mg10 Mg6 3.140541 1_455
Mg10 Mg6 3.140541 1_555
Mg10 Mg5 3.149061 1_565
Mg10 Mg5 3.149061 1_555
Mg10 Mg8 3.168697 1_554
Mg10 Mg9 3.168697 1_554
Mg11 Mg8 3.137741 1_555
Mg11 Mg9 3.137741 1_555
Mg11 Mg2 3.148921 1_555
Mg11 Mg3 3.148921 1_555
Mg11 Mg4 3.149061 1_555
Mg11 Mg4 3.149061 1_565
Cd0 Mg5 3.139159 1_555
Cd0 Mg5 3.139159 1_655
Cd0 Mg0 3.140507 1_555
Cd0 Mg1 3.140507 1_545
Cd0 Mg3 3.141527 1_545
Cd0 Mg3 3.141527 1_645
Cd0 Mg2 3.141527 1_555
Cd0 Mg2 3.141527 1_655
Cd0 Mg7 3.146099 1_555
Cd0 Mg6 3.146099 1_545
Cd0 Li1 3.149046 1_555
Cd0 Li1 3.149046 1_545
Cd1 Mg11 3.139159 1_655
Cd1 Mg11 3.139159 1_555
Cd1 Mg6 3.140507 1_556
Cd1 Mg7 3.140507 1_556
Cd1 Mg8 3.141527 1_555
Cd1 Mg8 3.141527 1_655
Cd1 Mg9 3.141527 1_555
Cd1 Mg9 3.141527 1_655
Cd1 Mg1 3.146099 1_555
Cd1 Mg0 3.146099 1_555
Cd1 Li0 3.149046 1_565
Cd1 Li0 3.149046 1_555
