# generated using pymatgen
data_NiRh
_symmetry_space_group_name_H-M   'P 1'
_cell_length_a   8.76554792
_cell_length_b   8.76554792
_cell_length_c   8.76554787
_cell_angle_alpha   34.89591937
_cell_angle_beta   34.89591937
_cell_angle_gamma   34.89591159
_symmetry_Int_Tables_number   1
_chemical_formula_structural   NiRh
_chemical_formula_sum   'Ni8 Rh8'
_cell_volume   196.77879682
_cell_formula_units_Z   8
loop_
 _symmetry_equiv_pos_site_id
 _symmetry_equiv_pos_as_xyz
  1  'x, y, z'
loop_
 _atom_site_type_symbol
 _atom_site_label
 _atom_site_symmetry_multiplicity
 _atom_site_fract_x
 _atom_site_fract_y
 _atom_site_fract_z
 _atom_site_occupancy
  Ni  Ni0_0  1  0.00000000  0.00000000  0.00000000  1
  Ni  Ni0_1  1  0.00000000  0.00000000  0.50000000  1
  Ni  Ni0_2  1  1.00000000  0.50000000  0.00000000  1
  Ni  Ni0_3  1  1.00000000  0.50000000  0.50000000  1
  Ni  Ni0_4  1  0.50000000  0.00000000  0.00000000  1
  Ni  Ni0_5  1  0.50000000  0.00000000  0.50000000  1
  Ni  Ni0_6  1  0.50000000  0.50000000  0.00000000  1
  Ni  Ni0_7  1  0.50000000  0.50000000  0.50000000  1
  Rh  Rh0_0  1  0.25000000  0.25000000  0.25000000  1
  Rh  Rh0_1  1  0.25000000  0.25000000  0.75000000  1
  Rh  Rh0_2  1  0.25000000  0.75000000  0.25000000  1
  Rh  Rh0_3  1  0.25000000  0.75000000  0.75000000  1
  Rh  Rh0_4  1  0.75000000  0.25000000  0.25000000  1
  Rh  Rh0_5  1  0.75000000  0.25000000  0.75000000  1
  Rh  Rh0_6  1  0.75000000  0.75000000  0.25000000  1
  Rh  Rh0_7  1  0.75000000  0.75000000  0.75000000  1
loop_
_geom_bond_atom_site_label_1
_geom_bond_atom_site_label_2
_geom_bond_distance
_geom_bond_site_symmetry_2
Ni0_0 Rh0_2 2.555212 1_545
Ni0_0 Rh0_4 2.555212 1_455
Ni0_0 Rh0_3 2.555212 1_544
Ni0_0 Rh0_5 2.555212 1_454
Ni0_0 Rh0_1 2.555213 1_554
Ni0_0 Rh0_6 2.555213 1_445
Ni0_0 Ni0_6 2.628256 1_455
Ni0_0 Ni0_6 2.628256 1_545
Ni0_0 Ni0_3 2.628257 1_445
Ni0_0 Ni0_5 2.628257 1_554
Ni0_0 Ni0_5 2.628257 1_455
Ni0_0 Ni0_3 2.628257 1_454
Ni0_1 Rh0_3 2.555212 1_545
Ni0_1 Rh0_5 2.555212 1_455
Ni0_1 Rh0_2 2.555212 1_545
Ni0_1 Rh0_4 2.555212 1_455
Ni0_1 Rh0_0 2.555213 1_555
Ni0_1 Rh0_7 2.555213 1_445
Ni0_1 Ni0_7 2.628256 1_545
Ni0_1 Ni0_7 2.628256 1_455
Ni0_1 Ni0_2 2.628257 1_455
Ni0_1 Ni0_4 2.628257 1_456
Ni0_1 Ni0_4 2.628257 1_555
Ni0_1 Ni0_2 2.628257 1_446
Ni0_2 Rh0_6 2.555212 1_555
Ni0_2 Rh0_1 2.555212 1_654
Ni0_2 Rh0_0 2.555212 1_655
Ni0_2 Rh0_7 2.555212 1_554
Ni0_2 Rh0_4 2.555213 1_555
Ni0_2 Rh0_3 2.555213 1_654
Ni0_2 Ni0_4 2.628256 1_655
Ni0_2 Ni0_4 2.628256 1_565
Ni0_2 Ni0_7 2.628257 1_654
Ni0_2 Ni0_7 2.628257 1_555
Ni0_3 Rh0_7 2.555212 1_555
Ni0_3 Rh0_0 2.555212 1_655
Ni0_3 Rh0_1 2.555212 1_655
Ni0_3 Rh0_6 2.555212 1_555
Ni0_3 Rh0_5 2.555213 1_555
Ni0_3 Rh0_2 2.555213 1_655
Ni0_3 Ni0_5 2.628256 1_565
Ni0_3 Ni0_5 2.628256 1_655
Ni0_3 Ni0_6 2.628257 1_655
Ni0_3 Ni0_6 2.628257 1_556
Ni0_4 Rh0_6 2.555212 1_545
Ni0_4 Rh0_0 2.555212 1_555
Ni0_4 Rh0_1 2.555212 1_554
Ni0_4 Rh0_7 2.555212 1_544
Ni0_4 Rh0_5 2.555213 1_554
Ni0_4 Rh0_2 2.555213 1_545
Ni0_4 Ni0_7 2.628257 1_554
Ni0_4 Ni0_7 2.628257 1_545
Ni0_5 Rh0_7 2.555212 1_545
Ni0_5 Rh0_0 2.555212 1_555
Ni0_5 Rh0_6 2.555212 1_545
Ni0_5 Rh0_1 2.555212 1_555
Ni0_5 Rh0_4 2.555213 1_555
Ni0_5 Rh0_3 2.555213 1_545
Ni0_5 Ni0_6 2.628257 1_555
Ni0_5 Ni0_6 2.628257 1_546
Ni0_6 Rh0_4 2.555212 1_555
Ni0_6 Rh0_2 2.555212 1_555
Ni0_6 Rh0_5 2.555212 1_554
Ni0_6 Rh0_3 2.555212 1_554
Ni0_6 Rh0_7 2.555213 1_554
Ni0_6 Rh0_0 2.555213 1_555
Ni0_7 Rh0_5 2.555212 1_555
Ni0_7 Rh0_3 2.555212 1_555
Ni0_7 Rh0_2 2.555212 1_555
Ni0_7 Rh0_4 2.555212 1_555
Ni0_7 Rh0_6 2.555213 1_555
Ni0_7 Rh0_1 2.555213 1_555
Rh0_0 Rh0_6 2.628256 1_455
Rh0_0 Rh0_6 2.628256 1_545
Rh0_0 Rh0_5 2.628257 1_455
Rh0_0 Rh0_3 2.628257 1_545
Rh0_0 Rh0_5 2.628257 1_554
Rh0_0 Rh0_3 2.628257 1_554
Rh0_1 Rh0_7 2.628256 1_545
Rh0_1 Rh0_7 2.628256 1_455
Rh0_1 Rh0_4 2.628257 1_555
Rh0_1 Rh0_2 2.628257 1_555
Rh0_1 Rh0_4 2.628257 1_456
Rh0_1 Rh0_2 2.628257 1_546
Rh0_2 Rh0_4 2.628256 1_465
Rh0_2 Rh0_4 2.628256 1_555
Rh0_2 Rh0_7 2.628257 1_554
Rh0_2 Rh0_7 2.628257 1_455
Rh0_3 Rh0_5 2.628256 1_465
Rh0_3 Rh0_5 2.628256 1_555
Rh0_3 Rh0_6 2.628257 1_555
Rh0_3 Rh0_6 2.628257 1_456
Rh0_4 Rh0_7 2.628257 1_554
Rh0_4 Rh0_7 2.628257 1_545
Rh0_5 Rh0_6 2.628257 1_555
Rh0_5 Rh0_6 2.628257 1_546
