# generated using pymatgen
data_BaO
_symmetry_space_group_name_H-M   'P 1'
_cell_length_a   14.35922313
_cell_length_b   13.08705464
_cell_length_c   13.93636422
_cell_angle_alpha   93.11453972
_cell_angle_beta   91.53750612
_cell_angle_gamma   92.73351364
_symmetry_Int_Tables_number   1
_chemical_formula_structural   BaO
_chemical_formula_sum   'Ba50 O50'
_cell_volume   2610.93999837
_cell_formula_units_Z   50
loop_
 _symmetry_equiv_pos_site_id
 _symmetry_equiv_pos_as_xyz
  1  'x, y, z'
loop_
 _atom_site_type_symbol
 _atom_site_label
 _atom_site_symmetry_multiplicity
 _atom_site_fract_x
 _atom_site_fract_y
 _atom_site_fract_z
 _atom_site_occupancy
  Ba  Ba0  1  0.51332245  0.36056775  0.75062716  1
  Ba  Ba1  1  0.12252408  0.67459020  0.64931148  1
  Ba  Ba2  1  0.78481563  0.11707249  0.16550636  1
  Ba  Ba3  1  0.24717608  0.67407320  0.17011233  1
  Ba  Ba4  1  0.22691355  0.97944945  0.21908373  1
  Ba  Ba5  1  0.71323587  0.06313995  0.72586136  1
  Ba  Ba6  1  0.46000039  0.64481762  0.53541429  1
  Ba  Ba7  1  0.02408480  0.98945961  0.08597832  1
  Ba  Ba8  1  0.94098196  0.48463301  0.70987914  1
  Ba  Ba9  1  0.04838303  0.97804284  0.75189007  1
  Ba  Ba10  1  0.77103925  0.77618680  0.20833588  1
  Ba  Ba11  1  0.30276312  0.16965608  0.44421607  1
  Ba  Ba12  1  0.56120242  0.85329081  0.76777601  1
  Ba  Ba13  1  0.12104422  0.48856354  0.91441900  1
  Ba  Ba14  1  0.71384684  0.32760222  0.62571325  1
  Ba  Ba15  1  0.48456922  0.11909674  0.23047287  1
  Ba  Ba16  1  0.22920532  0.15777905  0.99452160  1
  Ba  Ba17  1  0.95344773  0.96987744  0.37106933  1
  Ba  Ba18  1  0.01622108  0.25743639  0.20883881  1
  Ba  Ba19  1  0.68808225  0.89719221  0.49554679  1
  Ba  Ba20  1  0.68009697  0.61072679  0.68106495  1
  Ba  Ba21  1  0.82380813  0.98504455  0.93985989  1
  Ba  Ba22  1  0.59005892  0.89907283  0.05230211  1
  Ba  Ba23  1  0.25642254  0.36493164  0.19784663  1
  Ba  Ba24  1  0.86501415  0.76961069  0.76515501  1
  Ba  Ba25  1  0.48437872  0.05911682  0.57041708  1
  Ba  Ba26  1  0.28452412  0.02789793  0.74289414  1
  Ba  Ba27  1  0.99537589  0.58142595  0.25978711  1
  Ba  Ba28  1  0.91065879  0.13121527  0.59406786  1
  Ba  Ba29  1  0.35287853  0.89678573  0.99513533  1
  Ba  Ba30  1  0.52142413  0.60681595  0.19765550  1
  Ba  Ba31  1  0.22672702  0.57075764  0.41666389  1
  Ba  Ba32  1  0.78517823  0.25215896  0.39672235  1
  Ba  Ba33  1  0.35989217  0.45658468  0.96724358  1
  Ba  Ba34  1  0.60861392  0.61753921  0.92174278  1
  Ba  Ba35  1  0.74589871  0.44916460  0.18765334  1
  Ba  Ba36  1  0.92987189  0.75739001  0.51323227  1
  Ba  Ba37  1  0.30135793  0.84829517  0.50655870  1
  Ba  Ba38  1  0.00615406  0.43270976  0.46325838  1
  Ba  Ba39  1  0.11394097  0.78606379  0.91956019  1
  Ba  Ba40  1  0.74815225  0.55836493  0.43305681  1
  Ba  Ba41  1  0.52454760  0.33812715  0.11388523  1
  Ba  Ba42  1  0.73732592  0.35102883  0.90116938  1
  Ba  Ba43  1  0.49523039  0.38111392  0.41982217  1
  Ba  Ba44  1  0.90610332  0.60800528  0.97664080  1
  Ba  Ba45  1  0.35315444  0.69762236  0.78415660  1
  Ba  Ba46  1  0.98428434  0.22753782  0.89357900  1
  Ba  Ba47  1  0.27308496  0.44141942  0.64513567  1
  Ba  Ba48  1  0.44932714  0.84829278  0.30819019  1
  Ba  Ba49  1  0.52427076  0.12567768  0.89615351  1
  O  O0  1  0.46115070  0.01768735  0.74801941  1
  O  O1  1  0.49129192  0.85324407  0.50336341  1
  O  O2  1  0.50757019  0.65035265  0.71261801  1
  O  O3  1  0.71585317  0.85085130  0.66530873  1
  O  O4  1  0.15031897  0.15787116  0.16223719  1
  O  O5  1  0.31530254  0.72157422  0.35480270  1
  O  O6  1  0.29924999  0.03769610  0.56850796  1
  O  O7  1  0.29360269  0.66850479  0.59972749  1
  O  O8  1  0.37576443  0.02799787  0.34727109  1
  O  O9  1  0.44331867  0.24105011  0.53883719  1
  O  O10  1  0.61040102  0.50418799  0.06628070  1
  O  O11  1  0.90232794  0.14806655  0.31521604  1
  O  O12  1  0.34164786  0.83317796  0.15339676  1
  O  O13  1  0.20674106  0.84714328  0.76598506  1
  O  O14  1  0.10191922  0.63040209  0.03769327  1
  O  O15  1  0.27986504  0.52561674  0.81888251  1
  O  O16  1  0.76716800  0.68691527  0.88040606  1
  O  O17  1  0.01693215  0.64710122  0.80056296  1
  O  O18  1  0.49430261  0.77625366  0.92502286  1
  O  O19  1  0.05936331  0.91763361  0.24728713  1
  O  O20  1  0.45374085  0.05272451  0.05356461  1
  O  O21  1  0.47519824  0.31926052  0.92067745  1
  O  O22  1  0.65377930  0.99194366  0.89040885  1
  O  O23  1  0.21395776  0.35478483  0.01069753  1
  O  O24  1  0.04932114  0.63435216  0.44798259  1
  O  O25  1  0.65320495  0.23888439  0.19412876  1
  O  O26  1  0.91618899  0.41479978  0.88706093  1
  O  O27  1  0.41043252  0.28252555  0.25505735  1
  O  O28  1  0.35570291  0.52584866  0.14468202  1
  O  O29  1  0.66829191  0.46166215  0.78895376  1
  O  O30  1  0.87641039  0.32103154  0.55392770  1
  O  O31  1  0.64150380  0.23408950  0.77375876  1
  O  O32  1  0.88094960  0.11761247  0.77382388  1
  O  O33  1  0.91470627  0.15446301  0.04723959  1
  O  O34  1  0.85164769  0.61652611  0.61329687  1
  O  O35  1  0.98276173  0.95093026  0.56610652  1
  O  O36  1  0.35980604  0.47398448  0.48563920  1
  O  O37  1  0.13520958  0.13134472  0.83400197  1
  O  O38  1  0.77338965  0.93358431  0.10470650  1
  O  O39  1  0.59430527  0.79156324  0.20591427  1
  O  O40  1  0.81505832  0.81225168  0.38962172  1
  O  O41  1  0.86100446  0.44589213  0.33986333  1
  O  O42  1  0.63491532  0.46764230  0.54357612  1
  O  O43  1  0.18661919  0.95559759  0.02806091  1
  O  O44  1  0.96916495  0.88844305  0.89221586  1
  O  O45  1  0.73389307  0.10577068  0.53551458  1
  O  O46  1  0.85433046  0.60496556  0.15120046  1
  O  O47  1  0.10708532  0.47456291  0.62337006  1
  O  O48  1  0.62305848  0.50531750  0.30505466  1
  O  O49  1  0.10698713  0.42613923  0.29626034  1
loop_
_geom_bond_atom_site_label_1
_geom_bond_atom_site_label_2
_geom_bond_distance
_geom_bond_site_symmetry_2
Ba0 O21 2.527622 1_555
Ba0 O31 2.558942 1_555
Ba0 O29 2.562424 1_555
Ba0 O9 3.370153 1_555
Ba1 O7 2.573382 1_555
Ba1 O47 2.621081 1_555
Ba1 O17 2.659595 1_555
Ba1 O13 2.905307 1_555
Ba1 O24 2.980445 1_555
Ba2 O38 2.499016 1_545
Ba2 O25 2.555506 1_555
Ba2 O33 2.569104 1_555
Ba2 O11 2.649289 1_555
Ba3 O12 2.455674 1_555
Ba3 O28 2.561302 1_555
Ba3 O5 2.757071 1_555
Ba3 O14 2.765481 1_555
Ba4 O19 2.548905 1_555
Ba4 O43 2.707239 1_555
Ba4 O12 2.721762 1_555
Ba4 O4 2.772866 1_565
Ba4 O8 2.775927 1_565
Ba5 O32 2.540216 1_555
Ba5 O31 2.570235 1_555
Ba5 O22 2.667799 1_545
Ba5 O45 2.761078 1_555
Ba5 O3 2.861648 1_545
Ba6 O2 2.540856 1_555
Ba6 O7 2.600724 1_555
Ba6 O36 2.649638 1_555
Ba6 O1 2.804988 1_555
Ba7 O19 2.531382 1_555
Ba7 O43 2.540807 1_555
Ba7 O33 2.797488 1_465
Ba7 O4 2.921266 1_565
Ba7 O44 3.009956 1_454
Ba8 O17 2.592354 1_655
Ba8 O34 2.609143 1_555
Ba8 O26 2.705667 1_555
Ba8 O47 2.706786 1_655
Ba8 O30 3.060122 1_555
Ba9 O37 2.514842 1_565
Ba9 O44 2.595139 1_455
Ba9 O35 2.730351 1_455
Ba9 O13 2.920277 1_555
Ba9 O32 3.099615 1_465
Ba10 O39 2.554745 1_555
Ba10 O38 2.578607 1_555
Ba10 O40 2.600306 1_555
Ba10 O46 2.682980 1_555
Ba11 O9 2.495742 1_555
Ba11 O6 2.511342 1_555
Ba11 O8 2.519973 1_555
Ba12 O18 2.646201 1_555
Ba12 O0 2.665818 1_565
Ba12 O3 2.672751 1_555
Ba12 O22 2.700303 1_555
Ba12 O2 2.790858 1_555
Ba13 O14 2.489978 1_556
Ba13 O23 2.650951 1_556
Ba13 O15 2.708570 1_555
Ba13 O26 3.059253 1_455
Ba13 O17 3.095759 1_555
Ba14 O42 2.512013 1_555
Ba14 O30 2.567540 1_555
Ba14 O31 2.664916 1_555
Ba14 O29 2.904672 1_555
Ba14 O45 3.129488 1_555
Ba15 O27 2.445860 1_555
Ba15 O8 2.584870 1_555
Ba15 O20 2.588626 1_555
Ba15 O25 2.892699 1_555
Ba16 O37 2.579760 1_555
Ba16 O23 2.596023 1_556
Ba16 O4 2.624539 1_556
Ba16 O43 2.754799 1_546
Ba17 O19 2.422434 1_655
Ba17 O11 2.629192 1_565
Ba17 O35 2.765607 1_555
Ba17 O40 2.822337 1_555
Ba18 O4 2.458011 1_555
Ba18 O11 2.656793 1_455
Ba18 O49 2.721311 1_555
Ba18 O33 2.884362 1_455
Ba19 O3 2.500497 1_555
Ba19 O40 2.626533 1_555
Ba19 O45 2.799636 1_565
Ba19 O1 2.862844 1_555
Ba20 O29 2.529039 1_555
Ba20 O2 2.599189 1_555
Ba20 O42 2.650720 1_555
Ba20 O34 2.660930 1_555
Ba20 O16 3.109477 1_555
Ba20 O3 3.180317 1_555
Ba21 O22 2.526150 1_555
Ba21 O38 2.542918 1_556
Ba21 O44 2.574964 1_555
Ba21 O33 2.849142 1_566
Ba21 O32 3.072433 1_565
Ba22 O39 2.625796 1_555
Ba22 O18 2.639894 1_554
Ba22 O38 2.723038 1_555
Ba22 O22 2.776244 1_554
Ba22 O20 2.872064 1_565
Ba23 O27 2.629759 1_555
Ba23 O28 2.637440 1_555
Ba23 O23 2.657317 1_555
Ba23 O49 2.707320 1_555
Ba23 O4 3.054524 1_555
Ba24 O16 2.426937 1_555
Ba24 O44 2.669748 1_555
Ba24 O3 2.805734 1_555
Ba24 O17 2.816815 1_655
Ba24 O34 2.830245 1_555
Ba25 O9 2.538538 1_555
Ba25 O0 2.589279 1_555
Ba25 O6 2.658984 1_555
Ba25 O1 2.810533 1_545
Ba26 O6 2.454875 1_555
Ba26 O0 2.545391 1_555
Ba26 O13 2.607075 1_545
Ba26 O37 2.877159 1_555
Ba27 O46 2.536245 1_555
Ba27 O49 2.708519 1_655
Ba27 O24 2.757001 1_655
Ba27 O41 2.849316 1_555
Ba28 O32 2.566710 1_555
Ba28 O35 2.635392 1_545
Ba28 O30 2.641681 1_555
Ba28 O45 2.645380 1_555
Ba29 O12 2.406112 1_556
Ba29 O20 2.529754 1_566
Ba29 O43 2.588066 1_556
Ba29 O18 2.794890 1_555
Ba30 O48 2.533424 1_555
Ba30 O39 2.583824 1_555
Ba30 O10 2.609676 1_555
Ba30 O28 2.628816 1_555
Ba31 O5 2.502177 1_555
Ba31 O36 2.538528 1_555
Ba31 O24 2.755882 1_555
Ba31 O7 2.909314 1_555
Ba31 O49 2.922948 1_555
Ba32 O11 2.475626 1_555
Ba32 O30 2.616728 1_555
Ba32 O41 2.871054 1_555
Ba32 O45 2.880706 1_555
Ba32 O25 3.349806 1_555
Ba33 O23 2.534223 1_556
Ba33 O15 2.566359 1_555
Ba33 O21 2.570422 1_555
Ba33 O28 2.590342 1_556
Ba34 O16 2.503934 1_555
Ba34 O10 2.565995 1_556
Ba34 O18 2.707327 1_555
Ba34 O29 2.856944 1_555
Ba34 O2 3.279027 1_555
Ba35 O48 2.544835 1_555
Ba35 O46 2.586879 1_555
Ba35 O41 2.657419 1_555
Ba35 O10 2.693435 1_555
Ba35 O25 3.006163 1_555
Ba36 O40 2.509186 1_555
Ba36 O24 2.559215 1_655
Ba36 O34 2.602071 1_555
Ba36 O35 2.668123 1_555
Ba37 O6 2.581910 1_565
Ba37 O5 2.633739 1_555
Ba37 O1 2.726601 1_555
Ba37 O7 2.747607 1_555
Ba38 O47 2.645266 1_555
Ba38 O41 2.684267 1_455
Ba38 O30 2.696464 1_455
Ba38 O24 2.702862 1_555
Ba38 O49 2.773312 1_555
Ba39 O44 2.557489 1_455
Ba39 O13 2.689380 1_555
Ba39 O14 2.690056 1_556
Ba39 O17 2.702711 1_555
Ba39 O43 2.761902 1_556
Ba40 O48 2.542686 1_555
Ba40 O42 2.564142 1_555
Ba40 O41 2.571393 1_555
Ba40 O34 2.929423 1_555
Ba41 O25 2.574151 1_555
Ba41 O10 2.574478 1_555
Ba41 O27 2.701873 1_555
Ba41 O21 2.760788 1_554
Ba42 O29 2.413380 1_555
Ba42 O31 2.600182 1_555
Ba42 O26 2.678059 1_555
Ba43 O36 2.509976 1_555
Ba43 O9 2.633075 1_555
Ba43 O42 2.768655 1_555
Ba43 O27 2.792515 1_555
Ba43 O48 2.953796 1_555
Ba44 O46 2.564597 1_556
Ba44 O16 2.654930 1_555
Ba44 O26 2.770272 1_555
Ba44 O14 2.912350 1_656
Ba44 O17 3.014012 1_655
Ba45 O15 2.515687 1_555
Ba45 O2 2.544699 1_555
Ba45 O7 2.688359 1_555
Ba45 O18 2.896345 1_555
Ba45 O13 2.954799 1_555
Ba46 O32 2.541507 1_555
Ba46 O33 2.597087 1_556
Ba46 O37 2.685887 1_655
Ba46 O26 2.686688 1_555
Ba47 O47 2.456814 1_555
Ba47 O15 2.602693 1_555
Ba47 O36 2.621826 1_555
Ba47 O7 3.074115 1_555
Ba48 O5 2.599152 1_555
Ba48 O12 2.613247 1_555
Ba48 O8 2.659335 1_565
Ba48 O39 2.666133 1_555
Ba48 O1 2.766749 1_555
Ba49 O0 2.557568 1_555
Ba49 O22 2.613623 1_545
Ba49 O20 2.646561 1_556
Ba49 O21 2.668464 1_555
Ba49 O31 2.818780 1_555
