# generated using pymatgen
data_Ba2TlMo2O7
_symmetry_space_group_name_H-M   'P 1'
_cell_length_a   3.97805600
_cell_length_b   3.97805600
_cell_length_c   13.33729600
_cell_angle_alpha   90.00000000
_cell_angle_beta   90.00000000
_cell_angle_gamma   90.00000000
_symmetry_Int_Tables_number   1
_chemical_formula_structural   Ba2TlMo2O7
_chemical_formula_sum   'Ba2 Tl1 Mo2 O7'
_cell_volume   211.06176944
_cell_formula_units_Z   1
loop_
 _symmetry_equiv_pos_site_id
 _symmetry_equiv_pos_as_xyz
  1  'x, y, z'
loop_
 _atom_site_type_symbol
 _atom_site_label
 _atom_site_symmetry_multiplicity
 _atom_site_fract_x
 _atom_site_fract_y
 _atom_site_fract_z
 _atom_site_occupancy
  Ba  Ba0  1  0.50000000  0.50000000  0.69755300  1
  Ba  Ba1  1  0.50000000  0.50000000  0.30244700  1
  Tl  Tl0  1  0.00000000  0.00000000  0.50000000  1
  Mo  Mo0  1  0.00000000  0.00000000  0.86081500  1
  Mo  Mo1  1  0.00000000  0.00000000  0.13918500  1
  O  O0  1  0.50000000  0.50000000  0.50000000  1
  O  O1  1  0.00000000  0.50000000  0.86633100  1
  O  O2  1  0.50000000  0.00000000  0.86633100  1
  O  O3  1  0.00000000  0.50000000  0.13366900  1
  O  O4  1  0.50000000  0.00000000  0.13366900  1
  O  O5  1  0.00000000  0.00000000  0.71129200  1
  O  O6  1  0.00000000  0.00000000  0.28870800  1
loop_
_geom_bond_atom_site_label_1
_geom_bond_atom_site_label_2
_geom_bond_distance
_geom_bond_site_symmetry_2
Ba0 O0 2.634823 1_555
Ba0 O5 2.818872 1_655
Ba0 O5 2.818872 1_665
Ba0 O5 2.818872 1_565
Ba0 O5 2.818872 1_555
Ba0 O1 3.003901 1_655
Ba0 O2 3.003901 1_555
Ba0 O2 3.003901 1_565
Ba0 O1 3.003901 1_555
Ba1 O0 2.634823 1_555
Ba1 O6 2.818872 1_565
Ba1 O6 2.818872 1_655
Ba1 O6 2.818872 1_665
Ba1 O6 2.818872 1_555
Ba1 O3 3.003901 1_555
Ba1 O3 3.003901 1_655
Ba1 O4 3.003901 1_555
Ba1 O4 3.003901 1_565
Mo0 O2 1.990388 1_455
Mo0 O2 1.990388 1_555
Mo0 O1 1.990388 1_555
Mo0 O1 1.990388 1_545
Mo0 O5 1.994233 1_555
Mo1 O4 1.990388 1_455
Mo1 O4 1.990388 1_555
Mo1 O3 1.990388 1_545
Mo1 O3 1.990388 1_555
Mo1 O6 1.994233 1_555
O0 Tl0 2.812910 1_565
O0 Tl0 2.812910 1_555
O0 Tl0 2.812910 1_665
O0 Tl0 2.812910 1_655
O5 Tl0 2.818064 1_555
O6 Tl0 2.818064 1_555
