# generated using pymatgen
data_Rb4MgH12(SeO3)8
_symmetry_space_group_name_H-M   'P 1'
_cell_length_a   6.36214513
_cell_length_b   6.51762785
_cell_length_c   21.70316187
_cell_angle_alpha   90.00000000
_cell_angle_beta   94.64310698
_cell_angle_gamma   90.00000000
_symmetry_Int_Tables_number   1
_chemical_formula_structural   Rb4MgH12(SeO3)8
_chemical_formula_sum   'Rb4 Mg1 H12 Se8 O24'
_cell_volume   896.99196755
_cell_formula_units_Z   1
loop_
 _symmetry_equiv_pos_site_id
 _symmetry_equiv_pos_as_xyz
  1  'x, y, z'
loop_
 _atom_site_type_symbol
 _atom_site_label
 _atom_site_symmetry_multiplicity
 _atom_site_fract_x
 _atom_site_fract_y
 _atom_site_fract_z
 _atom_site_occupancy
  Rb  Rb0  1  0.31006648  0.26130250  0.37979381  1
  Rb  Rb1  1  0.18993352  0.26130250  0.62020619  1
  Rb  Rb2  1  0.74154894  0.77024931  0.12738686  1
  Rb  Rb3  1  0.75845106  0.77024931  0.87261314  1
  Mg  Mg0  1  0.75000000  0.29283623  0.00000000  1
  H  H0  1  0.42916814  0.13120505  0.06143981  1
  H  H1  1  0.07083186  0.13120505  0.93856019  1
  H  H2  1  0.82398271  0.93585697  0.45226249  1
  H  H3  1  0.67601729  0.93585697  0.54773751  1
  H  H4  1  0.98803727  0.46582804  0.25875109  1
  H  H5  1  0.51196273  0.46582804  0.74124891  1
  H  H6  1  0.48235868  0.56131228  0.24083425  1
  H  H7  1  0.01764132  0.56131228  0.75916575  1
  H  H8  1  0.63174970  0.18865921  0.10744718  1
  H  H9  1  0.86825030  0.18865921  0.89255282  1
  H  H10  1  0.11321404  0.73239100  0.36585542  1
  H  H11  1  0.38678596  0.73239100  0.63414458  1
  Se  Se0  1  0.13434196  0.35820604  0.10648463  1
  Se  Se1  1  0.36565804  0.35820604  0.89351537  1
  Se  Se2  1  0.74851322  0.69394239  0.37599546  1
  Se  Se3  1  0.75148678  0.69394239  0.62400454  1
  Se  Se4  1  0.72902874  0.19587926  0.25310819  1
  Se  Se5  1  0.77097126  0.19587926  0.74689181  1
  Se  Se6  1  0.23687206  0.84248367  0.24558584  1
  Se  Se7  1  0.26312794  0.84248367  0.75441416  1
  O  O0  1  0.17802709  0.11983616  0.07816947  1
  O  O1  1  0.32197291  0.11983616  0.92183053  1
  O  O2  1  0.71893798  0.94304886  0.41666063  1
  O  O3  1  0.78106202  0.94304886  0.58333937  1
  O  O4  1  0.53049245  0.35218653  0.27188081  1
  O  O5  1  0.96950755  0.35218653  0.72811919  1
  O  O6  1  0.03020192  0.68258725  0.22717872  1
  O  O7  1  0.46979808  0.68258725  0.77282128  1
  O  O8  1  0.58710898  0.15174364  0.06279264  1
  O  O9  1  0.91289102  0.15174364  0.93720736  1
  O  O10  1  0.02573798  0.66615685  0.39860787  1
  O  O11  1  0.47426202  0.66615685  0.60139213  1
  O  O12  1  0.73963053  0.21692706  0.17540364  1
  O  O13  1  0.76036947  0.21692706  0.82459636  1
  O  O14  1  0.27963924  0.83182391  0.32408731  1
  O  O15  1  0.22036076  0.83182391  0.67591269  1
  O  O16  1  0.93679887  0.46377216  0.05600016  1
  O  O17  1  0.56320113  0.46377216  0.94399984  1
  O  O18  1  0.64878310  0.52446890  0.42107149  1
  O  O19  1  0.85121690  0.52446890  0.57892851  1
  O  O20  1  0.96570883  0.33197624  0.28225175  1
  O  O21  1  0.53429117  0.33197624  0.71774825  1
  O  O22  1  0.45889187  0.70257212  0.21927603  1
  O  O23  1  0.04110813  0.70257212  0.78072397  1
loop_
_geom_bond_atom_site_label_1
_geom_bond_atom_site_label_2
_geom_bond_distance
_geom_bond_site_symmetry_2
Mg0 O17 1.974059 1_554
Mg0 O16 1.974059 1_555
Mg0 O9 2.001377 1_554
Mg0 O8 2.001377 1_555
H0 O8 1.011787 1_555
H0 O0 1.668591 1_555
H1 O9 1.011787 1_455
H1 O1 1.668591 1_555
H2 O2 0.980947 1_555
H3 O3 0.980947 1_555
H4 O20 1.026219 1_555
H4 O6 1.602226 1_655
H5 O21 1.026219 1_555
H5 O7 1.602226 1_555
H6 O22 1.038048 1_555
H6 O4 1.540185 1_555
H7 O23 1.038048 1_555
H7 O5 1.540185 1_455
H8 O8 1.016480 1_555
H8 O12 1.586310 1_555
H8 Rb2 2.839554 1_545
H9 O9 1.016480 1_555
H9 O13 1.586310 1_555
H9 Rb3 2.839554 1_545
H10 O10 1.032190 1_555
H10 O14 1.586893 1_555
H11 O11 1.032190 1_555
H11 O15 1.586893 1_555
O0 Se0 1.701833 1_555
O1 Se1 1.701833 1_555
O2 Se2 1.864733 1_555
O2 Rb0 3.372320 1_565
O3 Se3 1.864733 1_555
O3 Rb1 3.372320 1_665
O4 Se4 1.697832 1_555
O4 Rb0 2.886955 1_555
O5 Se5 1.697832 1_555
O5 Rb1 2.886955 1_655
O6 Se6 1.699850 1_555
O6 Rb2 2.783119 1_455
O7 Se7 1.699850 1_555
O7 Rb3 2.783119 1_555
O8 Rb2 2.981632 1_545
O9 Rb3 2.981632 1_545
O10 Se2 1.801194 1_455
O10 Rb0 3.243649 1_555
O11 Se3 1.801194 1_555
O11 Rb1 3.243649 1_555
O12 Se4 1.698778 1_555
O12 Rb2 3.092533 1_545
O13 Se5 1.698778 1_555
O13 Rb3 3.092533 1_545
O14 Se6 1.704848 1_555
O14 Rb0 3.049049 1_565
O15 Se7 1.704848 1_555
O15 Rb1 3.049049 1_565
O16 Se0 1.740833 1_655
O16 Rb2 2.871423 1_555
O17 Se1 1.740833 1_555
O17 Rb3 2.871423 1_555
O18 Se2 1.637132 1_555
O18 Rb0 2.841806 1_555
O19 Se3 1.637132 1_555
O19 Rb1 2.841806 1_655
O20 Se4 1.816619 1_555
O20 Rb0 2.956806 1_655
O21 Se5 1.816619 1_555
O21 Rb1 2.956806 1_555
O22 Se6 1.812014 1_555
O22 Rb2 2.825997 1_555
O23 Se7 1.812014 1_555
O23 Rb3 2.825997 1_455
