# generated using pymatgen
data_Li2FeSi3O8
_symmetry_space_group_name_H-M   'P 1'
_cell_length_a   6.51872500
_cell_length_b   6.63193060
_cell_length_c   9.60691302
_cell_angle_alpha   109.08696334
_cell_angle_beta   99.54021460
_cell_angle_gamma   100.91274121
_symmetry_Int_Tables_number   1
_chemical_formula_structural   Li2FeSi3O8
_chemical_formula_sum   'Li4 Fe2 Si6 O16'
_cell_volume   373.61552605
_cell_formula_units_Z   2
loop_
 _symmetry_equiv_pos_site_id
 _symmetry_equiv_pos_as_xyz
  1  'x, y, z'
loop_
 _atom_site_type_symbol
 _atom_site_label
 _atom_site_symmetry_multiplicity
 _atom_site_fract_x
 _atom_site_fract_y
 _atom_site_fract_z
 _atom_site_occupancy
  Li  Li0  1  0.18920000  0.81738000  0.28566100  1
  Li  Li1  1  0.75850200  0.12497000  0.76017700  1
  Li  Li2  1  0.35807100  0.56769200  0.87439100  1
  Li  Li3  1  0.08120000  0.86139600  0.63174900  1
  Fe  Fe0  1  0.56658800  0.78085200  0.58569300  1
  Fe  Fe1  1  0.30082200  0.08389400  0.89852500  1
  Si  Si0  1  0.11797800  0.29352800  0.10184700  1
  Si  Si1  1  0.39056600  0.24049700  0.40758500  1
  Si  Si2  1  0.78704600  0.91725600  0.09398300  1
  Si  Si3  1  0.17209100  0.39324000  0.59533900  1
  Si  Si4  1  0.78257500  0.60044800  0.40688700  1
  Si  Si5  1  0.94722000  0.71173600  0.91343100  1
  O  O0  1  0.97852000  0.06618900  0.18105300  1
  O  O1  1  0.24820500  0.38704600  0.24376200  1
  O  O2  1  0.28711900  0.27068000  0.01680300  1
  O  O3  1  0.95547300  0.79181800  0.05912800  1
  O  O4  1  0.28991800  0.23042400  0.54887100  1
  O  O5  1  0.92954300  0.44665600  0.98115000  1
  O  O6  1  0.39073600  0.99588900  0.40856100  1
  O  O7  1  0.02765900  0.54053100  0.42515000  1
  O  O8  1  0.61665300  0.04341900  0.94519000  1
  O  O9  1  0.33116800  0.57126600  0.66705700  1
  O  O10  1  0.63185400  0.36853800  0.44548500  1
  O  O11  1  0.73964300  0.80956100  0.78339600  1
  O  O12  1  0.67992300  0.74147400  0.22882400  1
  O  O13  1  0.04179800  0.22828900  0.71590600  1
  O  O14  1  0.81262400  0.73507200  0.52168600  1
  O  O15  1  0.17527300  0.79228800  0.86067900  1
loop_
_geom_bond_atom_site_label_1
_geom_bond_atom_site_label_2
_geom_bond_distance
_geom_bond_site_symmetry_2
Li0 O6 1.582501 1_555
Li1 O13 2.008142 1_655
Li1 O11 2.158068 1_545
Li1 O8 2.300180 1_555
Li1 O5 2.377804 1_555
Li2 O9 1.978738 1_555
Li2 O15 2.098627 1_555
Li2 O13 2.568333 1_555
Li3 O14 1.771091 1_455
Li3 O7 2.305714 1_555
Li3 O13 2.378870 1_565
Li3 O15 2.396177 1_555
Fe0 O14 1.852507 1_555
Fe0 O11 1.971851 1_555
Fe0 O9 2.280051 1_555
Fe0 Li1 2.303295 1_565
Fe1 O2 1.410181 1_556
Fe1 O15 1.839633 1_545
Fe1 O8 2.119847 1_555
Fe1 O13 2.752281 1_555
O0 Si2 1.371124 1_545
O0 Si0 2.034513 1_655
O1 Si0 1.352063 1_555
O1 Si1 2.267265 1_555
O2 Si0 1.478869 1_555
O3 Si5 1.312312 1_554
O3 Si2 1.514970 1_555
O4 Si3 1.437914 1_555
O4 Si1 1.617142 1_555
O5 Si5 2.055040 1_555
O5 Si0 2.157538 1_656
O6 Si1 1.625522 1_565
O7 Si4 1.712942 1_455
O7 Si3 2.322992 1_555
O8 Si2 2.141241 1_546
O9 Si3 1.308275 1_555
O10 Si1 1.558806 1_555
O10 Si4 1.841168 1_555
O11 Si5 2.028442 1_555
O12 Si2 2.122265 1_555
O12 Si4 2.269948 1_555
O13 Si3 2.015612 1_555
O14 Si4 1.126944 1_555
O15 Si5 1.696567 1_455
