# generated using pymatgen
data_MgTiCrS4
_symmetry_space_group_name_H-M   'P 1'
_cell_length_a   7.19649601
_cell_length_b   7.29966823
_cell_length_c   7.29959694
_cell_angle_alpha   60.79275890
_cell_angle_beta   60.50251837
_cell_angle_gamma   60.50492609
_symmetry_Int_Tables_number   1
_chemical_formula_structural   MgTiCrS4
_chemical_formula_sum   'Mg2 Ti2 Cr2 S8'
_cell_volume   274.81923283
_cell_formula_units_Z   2
loop_
 _symmetry_equiv_pos_site_id
 _symmetry_equiv_pos_as_xyz
  1  'x, y, z'
loop_
 _atom_site_type_symbol
 _atom_site_label
 _atom_site_symmetry_multiplicity
 _atom_site_fract_x
 _atom_site_fract_y
 _atom_site_fract_z
 _atom_site_occupancy
  Mg  Mg0  1  0.87415800  0.87566800  0.87561800  1
  Mg  Mg1  1  0.12584000  0.12435900  0.12440200  1
  Ti  Ti0  1  0.50004900  0.50001800  0.49994800  1
  Ti  Ti1  1  0.00002500  0.50003600  0.49996400  1
  Cr  Cr0  1  0.49993900  0.49997700  0.00002100  1
  Cr  Cr1  1  0.49999100  0.99998700  0.49988500  1
  S  S0  1  0.73404800  0.73913100  0.73921300  1
  S  S1  1  0.26346000  0.25551900  0.71753700  1
  S  S2  1  0.26348900  0.71749200  0.25550300  1
  S  S3  1  0.71219200  0.26090500  0.26088000  1
  S  S4  1  0.73655500  0.28246000  0.74448600  1
  S  S5  1  0.28776500  0.73912600  0.73914500  1
  S  S6  1  0.26593500  0.26080900  0.26088700  1
  S  S7  1  0.73655800  0.74450800  0.28251100  1
loop_
_geom_bond_atom_site_label_1
_geom_bond_atom_site_label_2
_geom_bond_distance
_geom_bond_site_symmetry_2
Mg0 S0 2.438896 1_555
Mg0 S5 2.444008 1_655
Mg0 S4 2.445078 1_565
Mg0 S7 2.445603 1_556
Mg1 S6 2.438766 1_555
Mg1 S3 2.444249 1_455
Mg1 S1 2.445435 1_554
Mg1 S2 2.445530 1_545
Cr0 S2 2.449249 1_555
Cr0 S5 2.449401 1_554
Cr0 S4 2.449544 1_554
Cr0 S3 2.449667 1_555
Cr0 S6 2.450015 1_555
Cr0 S0 2.450404 1_554
Cr1 S7 2.448546 1_555
Cr1 S6 2.449480 1_565
Cr1 S5 2.449517 1_555
Cr1 S3 2.449657 1_565
Cr1 S1 2.450205 1_565
Cr1 S0 2.451126 1_555
S0 Ti1 2.480545 1_655
S1 Ti1 2.483701 1_555
S1 Ti0 2.483869 1_555
S2 Ti1 2.483187 1_555
S2 Ti0 2.483536 1_555
S3 Ti0 2.479476 1_555
S4 Ti0 2.483730 1_555
S4 Ti1 2.483815 1_655
S5 Ti0 2.480071 1_555
S6 Ti1 2.480313 1_555
S7 Ti1 2.483275 1_655
S7 Ti0 2.483457 1_555
