# generated using pymatgen
data_Pr2MgNi9
_symmetry_space_group_name_H-M   'P 1'
_cell_length_a   4.99245984
_cell_length_b   4.99245900
_cell_length_c   8.55407897
_cell_angle_alpha   90.00000000
_cell_angle_beta   73.03320206
_cell_angle_gamma   120.00000108
_symmetry_Int_Tables_number   1
_chemical_formula_structural   Pr2MgNi9
_chemical_formula_sum   'Pr2 Mg1 Ni9'
_cell_volume   173.84481440
_cell_formula_units_Z   1
loop_
 _symmetry_equiv_pos_site_id
 _symmetry_equiv_pos_as_xyz
  1  'x, y, z'
loop_
 _atom_site_type_symbol
 _atom_site_label
 _atom_site_symmetry_multiplicity
 _atom_site_fract_x
 _atom_site_fract_y
 _atom_site_fract_z
 _atom_site_occupancy
  Pr  Pr0  1  0.99103200  0.99551600  0.01345200  1
  Pr  Pr1  1  0.28622100  0.14311100  0.57066800  1
  Mg  Mg0  1  0.72227800  0.86113900  0.41658300  1
  Ni  Ni0  1  0.66411100  0.58291000  0.75297900  1
  Ni  Ni1  1  0.16581900  0.58291000  0.75297900  1
  Ni  Ni2  1  0.66411100  0.08120100  0.75297900  1
  Ni  Ni3  1  0.33373300  0.41762000  0.24864600  1
  Ni  Ni4  1  0.83524100  0.41762000  0.24864600  1
  Ni  Ni5  1  0.33373300  0.91611300  0.24864600  1
  Ni  Ni6  1  0.00200100  0.50100100  0.49699800  1
  Ni  Ni7  1  0.66668600  0.33334300  0.99997100  1
  Ni  Ni8  1  0.33503300  0.66751600  0.99745100  1
loop_
_geom_bond_atom_site_label_1
_geom_bond_atom_site_label_2
_geom_bond_distance
_geom_bond_site_symmetry_2
Mg0 Ni4 2.839105 1_565
Mg0 Ni3 2.839105 1_665
Mg0 Ni5 2.839106 1_655
Mg0 Ni4 2.839110 1_555
Mg0 Ni3 2.839110 1_555
Mg0 Ni5 2.839110 1_555
Mg0 Ni6 2.954259 1_655
Mg0 Ni6 2.954263 1_665
Mg0 Ni6 2.954264 1_555
Mg0 Ni0 3.066438 1_555
Mg0 Ni2 3.066438 1_565
Mg0 Ni1 3.066440 1_555
Mg0 Pr1 3.138188 1_555
Mg0 Pr1 3.138188 1_665
Mg0 Pr1 3.138192 1_565
Mg0 Pr0 3.246745 1_555
Ni0 Ni8 2.437124 1_555
Ni0 Ni7 2.459332 1_555
Ni0 Ni2 2.487697 1_565
Ni0 Ni1 2.487703 1_555
Ni0 Ni1 2.504757 1_655
Ni0 Ni2 2.504762 1_555
Ni0 Ni6 2.518247 1_655
Ni0 Pr1 2.896048 1_665
Ni0 Pr1 2.896048 1_555
Ni0 Pr0 3.260669 1_446
Ni0 Pr0 3.260669 1_556
Ni1 Ni8 2.437129 1_555
Ni1 Ni7 2.459329 1_455
Ni1 Ni2 2.487700 1_565
Ni1 Ni2 2.504759 1_455
Ni1 Ni6 2.518247 1_555
Ni1 Pr1 2.896048 1_565
Ni1 Pr1 2.896048 1_555
Ni1 Pr0 3.260667 1_456
Ni1 Pr0 3.260671 1_446
Ni2 Ni8 2.437126 1_545
Ni2 Ni7 2.459332 1_555
Ni2 Ni6 2.518249 1_655
Ni2 Pr1 2.896046 1_655
Ni2 Pr1 2.896050 1_555
Ni2 Pr0 3.260670 1_546
Ni2 Pr0 3.260670 1_446
Ni3 Ni6 2.462781 1_555
Ni3 Ni7 2.469968 1_554
Ni3 Ni8 2.481409 1_554
Ni3 Ni4 2.488701 1_455
Ni3 Ni5 2.488706 1_555
Ni3 Ni5 2.503753 1_545
Ni3 Ni4 2.503759 1_555
Ni3 Pr1 2.969153 1_555
Ni3 Pr0 3.133561 1_445
Ni3 Pr0 3.133565 1_555
Ni4 Ni6 2.462778 1_655
Ni4 Ni7 2.469968 1_554
Ni4 Ni8 2.481412 1_654
Ni4 Ni5 2.488704 1_655
Ni4 Ni5 2.503756 1_545
Ni4 Pr1 2.969156 1_555
Ni4 Pr0 3.133561 1_545
Ni4 Pr0 3.133565 1_555
Ni5 Ni6 2.462778 1_555
Ni5 Ni7 2.469968 1_564
Ni5 Ni8 2.481412 1_554
Ni5 Pr1 2.969156 1_565
Ni5 Pr0 3.133561 1_455
Ni5 Pr0 3.133565 1_555
Ni6 Pr1 2.942830 1_565
Ni6 Pr1 2.942831 1_555
Ni6 Pr1 2.942831 1_455
Ni7 Pr0 2.884442 1_556
Ni7 Pr0 2.884442 1_546
Ni7 Pr0 2.884442 1_446
Ni8 Pr0 2.885275 1_446
Ni8 Pr0 2.885276 1_556
Ni8 Pr0 2.885280 1_456
