# generated using pymatgen
data_Cu3(IN)4
_symmetry_space_group_name_H-M   'P 1'
_cell_length_a   4.57065600
_cell_length_b   8.44720169
_cell_length_c   8.86588584
_cell_angle_alpha   81.34485407
_cell_angle_beta   77.74062263
_cell_angle_gamma   74.98084764
_symmetry_Int_Tables_number   1
_chemical_formula_structural   Cu3(IN)4
_chemical_formula_sum   'Cu3 I4 N4'
_cell_volume   321.41588994
_cell_formula_units_Z   1
loop_
 _symmetry_equiv_pos_site_id
 _symmetry_equiv_pos_as_xyz
  1  'x, y, z'
loop_
 _atom_site_type_symbol
 _atom_site_label
 _atom_site_symmetry_multiplicity
 _atom_site_fract_x
 _atom_site_fract_y
 _atom_site_fract_z
 _atom_site_occupancy
  Cu  Cu0  1  0.27675800  0.50006600  0.41837600  1
  Cu  Cu1  1  0.72324200  0.49993400  0.58162400  1
  Cu  Cu2  1  0.00000000  0.00000000  0.00000000  1
  I  I0  1  0.22024000  0.38512200  0.71111300  1
  I  I1  1  0.77976000  0.61487800  0.28888700  1
  I  I2  1  0.52045000  0.15359600  0.32069300  1
  I  I3  1  0.47955000  0.84640400  0.67930700  1
  N  N0  1  0.45019200  0.94288600  0.01164000  1
  N  N1  1  0.54980800  0.05711400  0.98836000  1
  N  N2  1  0.92231300  0.09417900  0.18375200  1
  N  N3  1  0.07768700  0.90582100  0.81624800  1
loop_
_geom_bond_atom_site_label_1
_geom_bond_atom_site_label_2
_geom_bond_distance
_geom_bond_site_symmetry_2
Cu0 I0 2.613861 1_555
Cu0 I1 2.655059 1_455
Cu0 I1 2.691437 1_555
Cu0 I2 3.036433 1_555
Cu1 I1 2.613861 1_555
Cu1 I0 2.655059 1_655
Cu1 I0 2.691437 1_555
Cu1 I3 3.036433 1_555
Cu2 N2 1.846898 1_455
Cu2 N3 1.846898 1_544
Cu2 N1 2.009504 1_454
Cu2 N0 2.009504 1_545
I2 N2 1.964248 1_555
I3 N3 1.964248 1_555
N0 N1 1.144029 1_564
