# generated using pymatgen
data_SmErTi2(Fe8Co3)2
_symmetry_space_group_name_H-M   'P 1'
_cell_length_a   4.71135800
_cell_length_b   6.42689110
_cell_length_c   11.94269413
_cell_angle_alpha   90.00254284
_cell_angle_beta   90.00000000
_cell_angle_gamma   111.50206514
_symmetry_Int_Tables_number   1
_chemical_formula_structural   SmErTi2(Fe8Co3)2
_chemical_formula_sum   'Sm1 Er1 Ti2 Fe16 Co6'
_cell_volume   336.45043318
_cell_formula_units_Z   1
loop_
 _symmetry_equiv_pos_site_id
 _symmetry_equiv_pos_as_xyz
  1  'x, y, z'
loop_
 _atom_site_type_symbol
 _atom_site_label
 _atom_site_symmetry_multiplicity
 _atom_site_fract_x
 _atom_site_fract_y
 _atom_site_fract_z
 _atom_site_occupancy
  Sm  Sm0  1  0.50262900  0.00525800  0.50282700  1
  Er  Er0  1  0.00312600  0.00625200  0.00276300  1
  Ti  Ti0  1  0.31209600  0.62419200  0.31081100  1
  Ti  Ti1  1  0.81202500  0.62404900  0.81340300  1
  Fe  Fe0  1  0.39004400  0.78008800  0.10862600  1
  Fe  Fe1  1  0.88827200  0.77654400  0.61210600  1
  Fe  Fe2  1  0.11117600  0.22235200  0.38735700  1
  Fe  Fe3  1  0.60938700  0.21877300  0.89086600  1
  Fe  Fe4  1  0.88645500  0.77291100  0.38573900  1
  Fe  Fe5  1  0.38820100  0.77640200  0.88903700  1
  Fe  Fe6  1  0.61606300  0.23212600  0.11524900  1
  Fe  Fe7  1  0.11798400  0.23596700  0.61878300  1
  Fe  Fe8  1  0.25165400  0.00290500  0.24856900  1
  Fe  Fe9  1  0.75236700  0.00270000  0.75161200  1
  Fe  Fe10  1  0.75125100  0.00290500  0.24856900  1
  Fe  Fe11  1  0.25033300  0.00270000  0.75161200  1
  Fe  Fe12  1  0.49953800  0.50032000  0.50147900  1
  Fe  Fe13  1  0.99952100  0.50008500  0.00148000  1
  Fe  Fe14  1  0.00078200  0.50032000  0.50147900  1
  Fe  Fe15  1  0.50056400  0.50008500  0.00148000  1
  Co  Co0  1  0.68148300  0.36296700  0.32079500  1
  Co  Co1  1  0.18051900  0.36103700  0.82350300  1
  Co  Co2  1  0.82269800  0.64539600  0.17950300  1
  Co  Co3  1  0.32172900  0.64345900  0.68245900  1
  Co  Co4  1  0.17465500  0.34931000  0.17372600  1
  Co  Co5  1  0.67544800  0.35089700  0.67616500  1
loop_
_geom_bond_atom_site_label_1
_geom_bond_atom_site_label_2
_geom_bond_distance
_geom_bond_site_symmetry_2
Sm0 Ti0 3.232700 1_545
Er0 Fe3 2.991676 1_454
Er0 Fe3 2.991679 1_554
Er0 Fe0 2.996118 1_445
Er0 Fe0 2.996118 1_545
Er0 Fe6 3.029515 1_555
Er0 Fe6 3.029515 1_455
Er0 Fe5 3.046760 1_544
Er0 Fe5 3.046760 1_444
Er0 Fe8 3.163481 1_555
Er0 Fe10 3.163481 1_455
Er0 Fe15 3.180113 1_555
Er0 Fe13 3.180113 1_455
Er0 Ti1 3.215106 1_444
Er0 Fe11 3.220715 1_554
Er0 Fe9 3.220715 1_454
Er0 Fe13 3.246929 1_445
Er0 Fe15 3.246929 1_445
Fe0 Fe15 2.415287 1_555
Fe0 Fe13 2.415287 1_455
Fe0 Fe8 2.439932 1_565
Fe0 Fe10 2.439932 1_565
Fe0 Ti0 2.588370 1_555
Fe0 Fe5 2.622576 1_554
Fe0 Fe6 2.704163 1_565
Fe1 Fe14 2.422331 1_655
Fe1 Fe12 2.422331 1_555
Fe1 Fe11 2.445490 1_665
Fe1 Fe9 2.445490 1_565
Fe1 Ti1 2.571196 1_555
Fe1 Fe4 2.703518 1_555
Fe1 Fe7 2.748322 1_665
Fe1 Sm0 3.020435 1_565
Fe1 Sm0 3.020435 1_665
Fe2 Fe8 2.420442 1_555
Fe2 Ti0 2.570909 1_555
Fe2 Fe4 2.687549 1_445
Fe2 Fe7 2.765045 1_555
Fe2 Sm0 3.022624 1_455
Fe2 Sm0 3.022624 1_555
Fe3 Fe9 2.415274 1_555
Fe3 Ti1 2.594009 1_555
Fe3 Fe5 2.645294 1_545
Fe3 Fe6 2.680923 1_556
Fe4 Fe8 2.442289 1_665
Fe4 Ti0 2.672209 1_555
Fe4 Ti0 2.672213 1_655
Fe4 Sm0 3.071592 1_565
Fe4 Sm0 3.071595 1_665
Fe5 Fe9 2.433829 1_565
Fe5 Ti1 2.682346 1_455
Fe5 Ti1 2.682350 1_555
Fe6 Fe8 2.408125 1_555
Fe7 Fe9 2.416260 1_455
Fe7 Sm0 3.061035 1_555
Fe7 Sm0 3.061038 1_455
Fe8 Ti0 2.658193 1_545
Fe8 Sm0 3.256647 1_555
Fe9 Ti1 2.654677 1_545
Fe9 Sm0 3.197916 1_555
Fe10 Fe8 2.353780 1_555
Fe10 Fe8 2.357578 1_655
Fe10 Fe6 2.408125 1_555
Fe10 Fe2 2.420442 1_655
Fe10 Fe4 2.442286 1_545
Fe10 Ti0 2.658193 1_545
Fe10 Sm0 3.256647 1_555
Fe11 Fe9 2.346096 1_455
Fe11 Fe9 2.365262 1_555
Fe11 Fe3 2.415276 1_555
Fe11 Fe7 2.416258 1_555
Fe11 Fe5 2.433829 1_545
Fe11 Ti1 2.654675 1_445
Fe11 Sm0 3.197916 1_555
Fe12 Fe14 2.349818 1_555
Fe12 Fe14 2.361540 1_655
Fe12 Fe7 2.417004 1_555
Fe12 Fe4 2.441699 1_555
Fe12 Fe2 2.449585 1_555
Fe12 Ti0 2.667275 1_555
Fe12 Sm0 3.187118 1_555
Fe12 Sm0 3.239911 1_565
Fe13 Fe15 2.350765 1_555
Fe13 Fe15 2.360593 1_655
Fe13 Fe6 2.407312 1_555
Fe13 Fe5 2.434462 1_654
Fe13 Fe3 2.440493 1_554
Fe13 Ti1 2.641271 1_554
Fe14 Fe7 2.417006 1_555
Fe14 Fe4 2.441701 1_455
Fe14 Fe2 2.449585 1_555
Fe14 Ti0 2.667275 1_555
Fe14 Sm0 3.187118 1_455
Fe14 Sm0 3.239911 1_565
Fe15 Fe6 2.407312 1_555
Fe15 Fe5 2.434462 1_554
Fe15 Fe3 2.440495 1_554
Fe15 Ti1 2.641273 1_554
Co0 Co2 2.387406 1_555
Co0 Fe4 2.571046 1_555
Co0 Fe6 2.576401 1_555
Co0 Fe12 2.593248 1_555
Co0 Fe14 2.593251 1_655
Co0 Fe8 2.600857 1_555
Co0 Fe10 2.600859 1_555
Co0 Fe2 2.624533 1_555
Co0 Fe2 2.624537 1_655
Co0 Ti0 2.829022 1_555
Co0 Ti0 2.829026 1_655
Co0 Sm0 3.049862 1_555
Co1 Co3 2.385284 1_555
Co1 Fe7 2.556699 1_555
Co1 Fe15 2.569454 1_556
Co1 Fe13 2.569456 1_456
Co1 Fe11 2.589253 1_555
Co1 Fe9 2.589255 1_455
Co1 Fe5 2.604078 1_555
Co1 Fe3 2.630620 1_455
Co1 Fe3 2.630620 1_555
Co1 Ti1 2.834996 1_455
Co1 Ti1 2.834996 1_555
Co1 Er0 3.014020 1_556
Co2 Fe10 2.576773 1_565
Co2 Fe8 2.576773 1_665
Co2 Fe4 2.578303 1_555
Co2 Fe15 2.580025 1_555
Co2 Fe13 2.580025 1_555
Co2 Fe6 2.587559 1_555
Co2 Fe0 2.629537 1_555
Co2 Fe0 2.629537 1_655
Co2 Ti0 2.832751 1_555
Co2 Ti0 2.832751 1_655
Co2 Er0 3.018561 1_665
Co3 Fe7 2.552519 1_555
Co3 Fe11 2.587456 1_565
Co3 Fe9 2.587458 1_565
Co3 Fe5 2.591973 1_555
Co3 Fe14 2.604692 1_555
Co3 Fe12 2.604694 1_555
Co3 Fe1 2.624597 1_455
Co3 Fe1 2.624602 1_555
Co3 Ti1 2.829883 1_455
Co3 Ti1 2.829890 1_555
Co3 Sm0 3.046815 1_565
Co4 Ti0 2.319861 1_555
Co4 Fe13 2.537262 1_455
Co4 Fe15 2.537262 1_555
Co4 Fe8 2.545428 1_555
Co4 Fe10 2.545428 1_455
Co4 Fe6 2.554976 1_455
Co4 Fe6 2.554976 1_555
Co4 Fe2 2.661915 1_555
Co4 Fe0 2.690692 1_555
Co4 Er0 2.894205 1_555
Co5 Ti1 2.313837 1_555
Co5 Fe7 2.547760 1_555
Co5 Fe7 2.547769 1_655
Co5 Fe12 2.558327 1_555
Co5 Fe14 2.558329 1_655
Co5 Fe11 2.558462 1_555
Co5 Fe9 2.558464 1_555
Co5 Fe1 2.657728 1_555
Co5 Fe3 2.683100 1_555
Co5 Sm0 2.925167 1_555
