# generated using pymatgen
data_MgSi2
_symmetry_space_group_name_H-M   'P 1'
_cell_length_a   3.66809061
_cell_length_b   6.90769332
_cell_length_c   9.25836337
_cell_angle_alpha   74.56030393
_cell_angle_beta   90.00000000
_cell_angle_gamma   90.00000000
_symmetry_Int_Tables_number   1
_chemical_formula_structural   MgSi2
_chemical_formula_sum   'Mg4 Si8'
_cell_volume   226.12279575
_cell_formula_units_Z   4
loop_
 _symmetry_equiv_pos_site_id
 _symmetry_equiv_pos_as_xyz
  1  'x, y, z'
loop_
 _atom_site_type_symbol
 _atom_site_label
 _atom_site_symmetry_multiplicity
 _atom_site_fract_x
 _atom_site_fract_y
 _atom_site_fract_z
 _atom_site_occupancy
  Mg  Mg0  1  0.75000000  0.43507344  0.85393154  1
  Mg  Mg1  1  0.25000000  0.56492656  0.14606846  1
  Mg  Mg2  1  0.75000000  0.70497848  0.39100945  1
  Mg  Mg3  1  0.25000000  0.29502152  0.60899055  1
  Si  Si0  1  0.25000000  0.96527920  0.18943908  1
  Si  Si1  1  0.25000000  0.80569363  0.86957549  1
  Si  Si2  1  0.75000000  0.91898923  0.58937128  1
  Si  Si3  1  0.75000000  0.33978456  0.34992366  1
  Si  Si4  1  0.75000000  0.03472080  0.81056092  1
  Si  Si5  1  0.75000000  0.19430637  0.13042451  1
  Si  Si6  1  0.25000000  0.08101077  0.41062872  1
  Si  Si7  1  0.25000000  0.66021544  0.65007634  1
loop_
_geom_bond_atom_site_label_1
_geom_bond_atom_site_label_2
_geom_bond_distance
_geom_bond_site_symmetry_2
Mg0 Si5 2.655585 1_556
Mg0 Si7 2.789567 1_655
Mg0 Si7 2.789567 1_555
Mg0 Si4 2.898373 1_555
Mg0 Si1 3.183772 1_555
Mg0 Si1 3.183772 1_655
Mg1 Si1 2.655585 1_554
Mg1 Si3 2.789567 1_455
Mg1 Si3 2.789567 1_555
Mg1 Si0 2.898373 1_555
Mg1 Si5 3.183772 1_555
Mg1 Si5 3.183772 1_455
Mg2 Si2 2.646460 1_555
Mg2 Si3 2.649410 1_555
Mg2 Si0 2.879735 1_655
Mg2 Si0 2.879735 1_555
Mg2 Si7 2.969413 1_655
Mg2 Si7 2.969413 1_555
Mg3 Si6 2.646460 1_555
Mg3 Si7 2.649410 1_555
Mg3 Si4 2.879735 1_455
Mg3 Si4 2.879735 1_555
Mg3 Si3 2.969413 1_555
Mg3 Si3 2.969413 1_455
Si0 Si6 2.388409 1_565
Si0 Si5 2.388490 1_465
Si0 Si5 2.388490 1_565
Si1 Si4 2.388490 1_465
Si1 Si4 2.388490 1_565
Si1 Si7 2.495411 1_555
Si2 Si4 2.388409 1_565
Si2 Si7 2.517924 1_555
Si2 Si7 2.517924 1_655
Si2 Si6 2.523636 1_665
Si2 Si6 2.523636 1_565
Si3 Si5 2.495411 1_555
Si3 Si6 2.517924 1_555
Si3 Si6 2.517924 1_655
