# generated using pymatgen
data_Al(MoS2)4
_symmetry_space_group_name_H-M   'P 1'
_cell_length_a   13.97363749
_cell_length_b   7.65103039
_cell_length_c   8.13378073
_cell_angle_alpha   127.11277332
_cell_angle_beta   149.20312057
_cell_angle_gamma   45.37705473
_symmetry_Int_Tables_number   1
_chemical_formula_structural   Al(MoS2)4
_chemical_formula_sum   'Al1 Mo4 S8'
_cell_volume   316.89311115
_cell_formula_units_Z   1
loop_
 _symmetry_equiv_pos_site_id
 _symmetry_equiv_pos_as_xyz
  1  'x, y, z'
loop_
 _atom_site_type_symbol
 _atom_site_label
 _atom_site_symmetry_multiplicity
 _atom_site_fract_x
 _atom_site_fract_y
 _atom_site_fract_z
 _atom_site_occupancy
  Al  Al0  1  0.08245500  0.72898900  0.00000000  1
  Mo  Mo0  1  0.88554500  0.28121700  0.00000000  1
  Mo  Mo1  1  0.16063800  0.99982600  0.00000000  1
  Mo  Mo2  1  0.63181300  0.04283900  0.49791200  1
  Mo  Mo3  1  0.13390100  0.04283900  0.50208800  1
  S  S0  1  0.28850300  0.58716000  0.00000000  1
  S  S1  1  0.76960400  0.16009400  0.00000000  1
  S  S2  1  0.25086700  0.10095700  0.44778800  1
  S  S3  1  0.80307800  0.10095700  0.55221200  1
  S  S4  1  0.29237300  0.07734800  0.00000000  1
  S  S5  1  0.74284900  0.67503000  0.00000000  1
  S  S6  1  0.24984200  0.62837300  0.43330900  1
  S  S7  1  0.81653300  0.62837300  0.56669100  1
loop_
_geom_bond_atom_site_label_1
_geom_bond_atom_site_label_2
_geom_bond_distance
_geom_bond_site_symmetry_2
Al0 S6 2.251077 1_555
Al0 S7 2.251077 1_454
Al0 S0 2.253484 1_555
Mo0 S5 2.148037 1_555
Mo0 S3 2.335815 1_554
Mo0 S2 2.335821 1_655
Mo0 S1 2.364920 1_555
Mo1 S0 2.288180 1_555
Mo1 S4 2.296582 1_565
Mo1 S2 2.352541 1_565
Mo1 S3 2.352549 1_464
Mo2 S7 2.278643 1_545
Mo2 S4 2.344984 1_555
Mo2 S3 2.358456 1_555
Mo2 S1 2.384685 1_556
Mo3 S6 2.278643 1_545
Mo3 S4 2.344984 1_556
Mo3 S2 2.358469 1_555
Mo3 S1 2.384685 1_455
