# generated using pymatgen
data_Li7Mn5O12
_symmetry_space_group_name_H-M   'P 1'
_cell_length_a   3.00941327
_cell_length_b   14.60238730
_cell_length_c   5.10000066
_cell_angle_alpha   92.41277751
_cell_angle_beta   86.42478969
_cell_angle_gamma   93.09714429
_symmetry_Int_Tables_number   1
_chemical_formula_structural   Li7Mn5O12
_chemical_formula_sum   'Li7 Mn5 O12'
_cell_volume   223.18596591
_cell_formula_units_Z   1
loop_
 _symmetry_equiv_pos_site_id
 _symmetry_equiv_pos_as_xyz
  1  'x, y, z'
loop_
 _atom_site_type_symbol
 _atom_site_label
 _atom_site_symmetry_multiplicity
 _atom_site_fract_x
 _atom_site_fract_y
 _atom_site_fract_z
 _atom_site_occupancy
  Li  Li0  1  0.00884100  0.17707600  0.67859300  1
  Li  Li1  1  0.50261800  0.49186700  0.50388500  1
  Li  Li2  1  0.00000000  0.83333300  0.33333300  1
  Li  Li3  1  0.49738200  0.17480000  0.16278200  1
  Li  Li4  1  0.99115900  0.48959100  0.98807400  1
  Li  Li5  1  0.50000000  0.83333300  0.83333300  1
  Li  Li6  1  0.50000000  0.33333300  0.83333300  1
  Mn  Mn0  1  0.99664500  0.00091500  0.99912000  1
  Mn  Mn1  1  0.00000000  0.33333300  0.33333300  1
  Mn  Mn2  1  0.00335500  0.66575200  0.66754700  1
  Mn  Mn3  1  0.49592900  0.00061100  0.49898000  1
  Mn  Mn4  1  0.50407100  0.66605600  0.16768700  1
  O  O0  1  0.47145400  0.07684000  0.82337500  1
  O  O1  1  0.99293700  0.41227100  0.64185200  1
  O  O2  1  0.47063000  0.74447500  0.49153900  1
  O  O3  1  0.97530600  0.07479400  0.32769600  1
  O  O4  1  0.53081300  0.40549900  0.18944400  1
  O  O5  1  0.97454900  0.74403100  0.99152000  1
  O  O6  1  0.46918700  0.26116800  0.47722300  1
  O  O7  1  0.02469400  0.59187300  0.33897100  1
  O  O8  1  0.52937000  0.92219100  0.17512700  1
  O  O9  1  0.00706300  0.25439600  0.02481500  1
  O  O10  1  0.52854600  0.58982700  0.84329200  1
  O  O11  1  0.02545100  0.92263500  0.67514600  1
loop_
_geom_bond_atom_site_label_1
_geom_bond_atom_site_label_2
_geom_bond_distance
_geom_bond_site_symmetry_2
Li0 O9 2.055292 1_556
Li0 O6 2.055898 1_555
Li0 O0 2.233668 1_455
Li0 O0 2.250598 1_555
Li0 O3 2.285756 1_455
Li0 O6 2.393689 1_455
Li1 O1 1.985019 1_455
Li1 O4 1.998442 1_555
Li1 O1 2.099287 1_555
Li1 O10 2.201104 1_555
Li1 O7 2.235868 1_655
Li1 O7 2.321594 1_555
Li2 O5 2.135348 1_454
Li2 O11 2.135348 1_555
Li2 O8 2.139400 1_555
Li2 O2 2.139400 1_455
Li2 O2 2.183994 1_555
Li2 O8 2.183994 1_455
Li3 O9 1.985019 1_655
Li3 O6 1.998442 1_555
Li3 O9 2.099287 1_555
Li3 O0 2.201104 1_554
Li3 O3 2.235868 1_455
Li3 O3 2.321594 1_555
Li4 O1 2.055292 1_555
Li4 O4 2.055898 1_556
Li4 O10 2.233668 1_655
Li4 O10 2.250598 1_555
Li4 O7 2.285756 1_656
Li4 O4 2.393689 1_656
Li5 O2 2.132223 1_555
Li5 O8 2.132223 1_556
Li5 O11 2.135061 1_655
Li5 O5 2.135061 1_455
Li5 O5 2.196438 1_555
Li5 O11 2.196438 1_555
Li6 O9 2.052381 1_556
Li6 O1 2.052387 1_555
Li6 O6 2.065624 1_555
Li6 O4 2.065635 1_556
Li6 O9 2.254233 1_656
Li6 O1 2.254239 1_455
Mn0 O3 1.953946 1_556
Mn0 O0 1.956282 1_655
Mn0 O8 1.964554 1_546
Mn0 O11 1.969251 1_645
Mn0 O0 2.231651 1_555
Mn0 O8 2.272214 1_646
Mn1 O9 1.910651 1_555
Mn1 O1 1.910664 1_455
Mn1 O6 1.984385 1_455
Mn1 O4 1.984391 1_555
Mn1 O6 1.999444 1_555
Mn1 O4 1.999450 1_455
Mn2 O7 1.953946 1_555
Mn2 O10 1.956282 1_455
Mn2 O2 1.964548 1_555
Mn2 O5 1.969238 1_455
Mn2 O10 2.231651 1_555
Mn2 O2 2.272209 1_455
Mn3 O3 1.942002 1_555
Mn3 O0 1.954525 1_555
Mn3 O11 1.965106 1_545
Mn3 O8 1.970242 1_545
Mn3 O3 2.196599 1_455
Mn3 O11 2.259173 1_645
Mn4 O7 1.942002 1_555
Mn4 O10 1.954525 1_554
Mn4 O5 1.965100 1_554
Mn4 O2 1.970230 1_555
Mn4 O7 2.196599 1_655
Mn4 O5 2.259167 1_454
