# generated using pymatgen
data_DyHoAl4
_symmetry_space_group_name_H-M   'P 1'
_cell_length_a   5.52571021
_cell_length_b   5.52571021
_cell_length_c   5.52571021
_cell_angle_alpha   60.00000000
_cell_angle_beta   60.00000000
_cell_angle_gamma   60.00000000
_symmetry_Int_Tables_number   1
_chemical_formula_structural   DyHoAl4
_chemical_formula_sum   'Dy1 Ho1 Al4'
_cell_volume   119.30243758
_cell_formula_units_Z   1
loop_
 _symmetry_equiv_pos_site_id
 _symmetry_equiv_pos_as_xyz
  1  'x, y, z'
loop_
 _atom_site_type_symbol
 _atom_site_label
 _atom_site_symmetry_multiplicity
 _atom_site_fract_x
 _atom_site_fract_y
 _atom_site_fract_z
 _atom_site_occupancy
  Dy  Dy0  1  0.25000000  0.25000000  0.25000000  1
  Ho  Ho0  1  -0.00000000  0.00000000  -0.00000000  1
  Al  Al0  1  0.62501675  0.62501675  0.12495174  1
  Al  Al1  1  0.62501675  0.12495174  0.62501675  1
  Al  Al2  1  0.12495174  0.62501675  0.62501675  1
  Al  Al3  1  0.62501675  0.62501675  0.62501675  1
loop_
_geom_bond_atom_site_label_1
_geom_bond_atom_site_label_2
_geom_bond_distance
_geom_bond_site_symmetry_2
Dy0 Ho0 3.383793 1_655
Dy0 Ho0 3.383793 1_565
Dy0 Ho0 3.383793 1_555
Dy0 Ho0 3.383793 1_556
Al0 Al1 2.762496 1_564
Al0 Al3 2.762496 1_554
Al0 Al2 2.762496 1_654
Al0 Al2 2.763214 1_555
Al0 Al3 2.763214 1_555
Al0 Al1 2.763214 1_555
Al0 Ho0 3.239691 1_665
Al0 Ho0 3.239700 1_655
Al0 Ho0 3.239700 1_565
Al0 Dy0 3.239770 1_565
Al0 Dy0 3.239770 1_655
Al0 Dy0 3.239779 1_555
Al1 Al2 2.762496 1_645
Al1 Al3 2.762496 1_545
Al1 Al2 2.763214 1_555
Al1 Al3 2.763214 1_555
Al1 Ho0 3.239691 1_656
Al1 Ho0 3.239700 1_655
Al1 Ho0 3.239700 1_556
Al1 Dy0 3.239770 1_655
Al1 Dy0 3.239770 1_556
Al1 Dy0 3.239779 1_555
Al2 Al3 2.762496 1_455
Al2 Al3 2.763214 1_555
Al2 Ho0 3.239691 1_566
Al2 Ho0 3.239700 1_565
Al2 Ho0 3.239700 1_556
Al2 Dy0 3.239770 1_565
Al2 Dy0 3.239770 1_556
Al2 Dy0 3.239779 1_555
Al3 Ho0 3.239695 1_566
Al3 Ho0 3.239695 1_656
Al3 Ho0 3.239695 1_665
Al3 Dy0 3.239774 1_655
Al3 Dy0 3.239774 1_565
Al3 Dy0 3.239774 1_556
