# generated using pymatgen
data_Mg5Si6
_symmetry_space_group_name_H-M   'P 1'
_cell_length_a   14.75650103
_cell_length_b   14.75650103
_cell_length_c   6.84336552
_cell_angle_alpha   80.09018561
_cell_angle_beta   80.09018561
_cell_angle_gamma   16.19780238
_symmetry_Int_Tables_number   1
_chemical_formula_structural   Mg5Si6
_chemical_formula_sum   'Mg10 Si12'
_cell_volume   409.36125093
_cell_formula_units_Z   2
loop_
 _symmetry_equiv_pos_site_id
 _symmetry_equiv_pos_as_xyz
  1  'x, y, z'
loop_
 _atom_site_type_symbol
 _atom_site_label
 _atom_site_symmetry_multiplicity
 _atom_site_fract_x
 _atom_site_fract_y
 _atom_site_fract_z
 _atom_site_occupancy
  Mg  Mg0  1  0.83364600  0.83364600  0.12770800  1
  Mg  Mg1  1  0.66570100  0.66570100  0.42925700  1
  Mg  Mg2  1  0.24013700  0.24013700  0.21765800  1
  Mg  Mg3  1  0.09143300  0.09143300  0.67480300  1
  Mg  Mg4  1  0.50343900  0.50343900  0.74694300  1
  Mg  Mg5  1  0.32730300  0.32730300  0.48695700  1
  Mg  Mg6  1  0.20727900  0.20727900  0.70189300  1
  Mg  Mg7  1  0.13042400  0.13042400  0.14063500  1
  Mg  Mg8  1  0.45588600  0.45588600  0.28361600  1
  Mg  Mg9  1  0.40052600  0.40052600  0.80128800  1
  Si  Si0  1  0.95275000  0.95275000  0.60914600  1
  Si  Si1  1  0.93238700  0.93238700  0.03589400  1
  Si  Si2  1  0.63854400  0.63854400  0.82663600  1
  Si  Si3  1  0.69782200  0.69782200  0.02315800  1
  Si  Si4  1  0.77193700  0.77193700  0.80058900  1
  Si  Si5  1  0.01839700  0.01839700  0.03410100  1
  Si  Si6  1  0.57215000  0.57215000  0.39324200  1
  Si  Si7  1  0.75923500  0.75923500  0.46193600  1
  Si  Si8  1  0.89522000  0.89522000  0.39657700  1
  Si  Si9  1  0.02536600  0.02536600  0.38239000  1
  Si  Si10  1  0.56457900  0.56457900  0.03760400  1
  Si  Si11  1  0.30928400  0.30928400  0.89160000  1
loop_
_geom_bond_atom_site_label_1
_geom_bond_atom_site_label_2
_geom_bond_distance
_geom_bond_site_symmetry_2
Mg0 Si8 2.788037 1_555
Mg0 Si11 2.799862 1_564
Mg0 Si11 2.799862 1_654
Mg0 Si1 2.843983 1_555
Mg0 Si7 2.868744 1_555
Mg0 Si4 3.108952 1_554
Mg1 Si2 2.697150 1_555
Mg1 Si3 2.774411 1_555
Mg1 Si7 2.780547 1_555
Mg1 Si6 2.786866 1_555
Mg2 Si11 2.737422 1_554
Mg2 Si7 2.784271 1_545
Mg2 Si7 2.784271 1_455
Mg2 Si3 2.862585 1_545
Mg2 Si3 2.862585 1_455
Mg3 Si2 2.791707 1_455
Mg3 Si2 2.791707 1_545
Mg3 Si6 2.954568 1_455
Mg3 Si6 2.954568 1_545
Mg3 Si5 2.962349 1_556
Mg3 Si9 3.012265 1_555
Mg4 Si0 2.808967 1_545
Mg4 Si0 2.808967 1_455
Mg4 Si6 2.863565 1_555
Mg4 Si10 2.895380 1_556
Mg4 Si5 2.945043 1_656
Mg4 Si5 2.945043 1_566
Mg5 Si11 2.727335 1_555
Mg5 Si8 2.866320 1_545
Mg5 Si8 2.866320 1_455
Mg5 Si7 2.902620 1_455
Mg5 Si7 2.902620 1_545
Mg5 Si4 3.215344 1_545
Mg5 Si4 3.215344 1_455
Mg6 Si7 2.907986 1_455
Mg6 Si7 2.907986 1_545
Mg6 Si2 2.913431 1_545
Mg6 Si2 2.913431 1_455
Mg6 Si4 2.964945 1_545
Mg6 Si4 2.964945 1_455
Mg6 Si3 3.003439 1_456
Mg6 Si3 3.003439 1_546
Mg7 Si3 2.880262 1_545
Mg7 Si3 2.880262 1_455
Mg7 Si2 2.969575 1_544
Mg7 Si2 2.969575 1_454
Mg7 Si10 2.998681 1_545
Mg7 Si10 2.998681 1_455
Mg7 Si6 3.030861 1_455
Mg7 Si6 3.030861 1_545
Mg8 Si8 2.754119 1_545
Mg8 Si8 2.754119 1_455
Mg8 Si1 2.841114 1_545
Mg8 Si1 2.841114 1_455
Mg8 Si0 3.036794 1_545
Mg8 Si0 3.036794 1_455
Mg8 Si9 3.062235 1_655
Mg8 Si9 3.062235 1_565
Mg8 Si5 3.080479 1_655
Mg8 Si5 3.080479 1_565
Mg9 Si11 2.629928 1_555
Mg9 Si0 2.771599 1_455
Mg9 Si0 2.771599 1_545
Mg9 Si1 2.878510 1_456
Mg9 Si1 2.878510 1_546
Si0 Si9 2.401067 1_665
Si0 Si8 2.406622 1_555
Si0 Si1 2.877256 1_556
Si1 Si5 2.510992 1_665
Si1 Si8 2.517908 1_555
Si2 Si3 2.370319 1_556
Si3 Si4 2.421309 1_554
Si4 Si7 2.409917 1_555
Si5 Si9 2.427163 1_555
Si6 Si9 2.496267 1_565
Si6 Si9 2.496267 1_655
Si10 Si2 2.381220 1_554
Si10 Si5 2.480843 1_655
Si10 Si5 2.480843 1_565
Si10 Si6 2.481794 1_555
Si11 Si4 2.477281 1_545
Si11 Si4 2.477281 1_455
