# generated using pymatgen
data_PtAu
_symmetry_space_group_name_H-M   'P 1'
_cell_length_a   10.04874915
_cell_length_b   10.04874915
_cell_length_c   10.04875047
_cell_angle_alpha   32.58747853
_cell_angle_beta   32.58747853
_cell_angle_gamma   32.58748399
_symmetry_Int_Tables_number   1
_chemical_formula_structural   PtAu
_chemical_formula_sum   'Pt8 Au8'
_cell_volume   261.76210040
_cell_formula_units_Z   8
loop_
 _symmetry_equiv_pos_site_id
 _symmetry_equiv_pos_as_xyz
  1  'x, y, z'
loop_
 _atom_site_type_symbol
 _atom_site_label
 _atom_site_symmetry_multiplicity
 _atom_site_fract_x
 _atom_site_fract_y
 _atom_site_fract_z
 _atom_site_occupancy
  Pt  Pt0_0  1  0.25000000  0.25000000  0.25000000  1
  Pt  Pt0_1  1  0.25000000  0.25000000  0.75000000  1
  Pt  Pt0_2  1  0.25000000  0.75000000  0.25000000  1
  Pt  Pt0_3  1  0.25000000  0.75000000  0.75000000  1
  Pt  Pt0_4  1  0.75000000  0.25000000  0.25000000  1
  Pt  Pt0_5  1  0.75000000  0.25000000  0.75000000  1
  Pt  Pt0_6  1  0.75000000  0.75000000  0.25000000  1
  Pt  Pt0_7  1  0.75000000  0.75000000  0.75000000  1
  Au  Au0_0  1  0.00000000  0.00000000  0.00000000  1
  Au  Au0_1  1  0.00000000  0.00000000  0.50000000  1
  Au  Au0_2  1  0.00000000  0.50000000  0.00000000  1
  Au  Au0_3  1  0.00000000  0.50000000  0.50000000  1
  Au  Au0_4  1  0.50000000  0.00000000  0.00000000  1
  Au  Au0_5  1  0.50000000  0.00000000  0.50000000  1
  Au  Au0_6  1  0.50000000  0.50000000  0.00000000  1
  Au  Au0_7  1  0.50000000  0.50000000  0.50000000  1
loop_
_geom_bond_atom_site_label_1
_geom_bond_atom_site_label_2
_geom_bond_distance
_geom_bond_site_symmetry_2
Pt0_0 Pt0_5 2.819296 1_554
Pt0_0 Pt0_5 2.819296 1_455
Pt0_0 Pt0_3 2.819296 1_545
Pt0_0 Pt0_3 2.819296 1_554
Pt0_0 Pt0_6 2.819296 1_545
Pt0_0 Pt0_6 2.819296 1_455
Pt0_1 Pt0_2 2.819296 1_555
Pt0_1 Pt0_2 2.819296 1_546
Pt0_1 Pt0_4 2.819296 1_555
Pt0_1 Pt0_4 2.819296 1_456
Pt0_1 Pt0_7 2.819296 1_455
Pt0_1 Pt0_7 2.819296 1_545
Pt0_2 Pt0_7 2.819296 1_554
Pt0_2 Pt0_7 2.819296 1_455
Pt0_2 Pt0_4 2.819296 1_465
Pt0_2 Pt0_4 2.819296 1_555
Pt0_3 Pt0_6 2.819296 1_555
Pt0_3 Pt0_6 2.819296 1_456
Pt0_3 Pt0_5 2.819296 1_555
Pt0_3 Pt0_5 2.819296 1_465
Pt0_4 Pt0_7 2.819296 1_554
Pt0_4 Pt0_7 2.819296 1_545
Pt0_5 Pt0_6 2.819296 1_555
Pt0_5 Pt0_6 2.819296 1_546
Au0_0 Au0_5 2.819296 1_455
Au0_0 Au0_5 2.819296 1_554
Au0_0 Au0_3 2.819296 1_545
Au0_0 Au0_3 2.819296 1_554
Au0_0 Au0_6 2.819296 1_545
Au0_0 Au0_6 2.819296 1_455
Au0_0 Pt0_1 2.880658 1_554
Au0_0 Pt0_6 2.880658 1_445
Au0_0 Pt0_3 2.880659 1_544
Au0_0 Pt0_5 2.880659 1_454
Au0_0 Pt0_4 2.880659 1_455
Au0_0 Pt0_2 2.880659 1_545
Au0_1 Au0_2 2.819296 1_555
Au0_1 Au0_4 2.819296 1_456
Au0_1 Au0_2 2.819296 1_546
Au0_1 Au0_4 2.819296 1_555
Au0_1 Au0_7 2.819296 1_455
Au0_1 Au0_7 2.819296 1_545
Au0_1 Pt0_0 2.880658 1_555
Au0_1 Pt0_7 2.880658 1_445
Au0_1 Pt0_3 2.880659 1_545
Au0_1 Pt0_5 2.880659 1_455
Au0_1 Pt0_2 2.880659 1_545
Au0_1 Pt0_4 2.880659 1_455
Au0_2 Au0_7 2.819296 1_554
Au0_2 Au0_7 2.819296 1_455
Au0_2 Au0_4 2.819296 1_465
Au0_2 Au0_4 2.819296 1_555
Au0_2 Pt0_4 2.880658 1_455
Au0_2 Pt0_3 2.880658 1_554
Au0_2 Pt0_6 2.880659 1_455
Au0_2 Pt0_0 2.880659 1_555
Au0_2 Pt0_1 2.880659 1_554
Au0_2 Pt0_7 2.880659 1_454
Au0_3 Au0_6 2.819296 1_555
Au0_3 Au0_6 2.819296 1_456
Au0_3 Au0_5 2.819296 1_465
Au0_3 Au0_5 2.819296 1_555
Au0_3 Pt0_2 2.880658 1_555
Au0_3 Pt0_5 2.880658 1_455
Au0_3 Pt0_7 2.880659 1_455
Au0_3 Pt0_1 2.880659 1_555
Au0_3 Pt0_0 2.880659 1_555
Au0_3 Pt0_6 2.880659 1_455
Au0_4 Au0_7 2.819296 1_554
Au0_4 Au0_7 2.819296 1_545
Au0_4 Pt0_2 2.880658 1_545
Au0_4 Pt0_5 2.880658 1_554
Au0_4 Pt0_6 2.880659 1_545
Au0_4 Pt0_0 2.880659 1_555
Au0_4 Pt0_1 2.880659 1_554
Au0_4 Pt0_7 2.880659 1_544
Au0_5 Au0_6 2.819296 1_555
Au0_5 Au0_6 2.819296 1_546
Au0_5 Pt0_4 2.880658 1_555
Au0_5 Pt0_3 2.880658 1_545
Au0_5 Pt0_7 2.880659 1_545
Au0_5 Pt0_1 2.880659 1_555
Au0_5 Pt0_0 2.880659 1_555
Au0_5 Pt0_6 2.880659 1_545
Au0_6 Pt0_7 2.880658 1_554
Au0_6 Pt0_0 2.880658 1_555
Au0_6 Pt0_5 2.880659 1_554
Au0_6 Pt0_3 2.880659 1_554
Au0_6 Pt0_2 2.880659 1_555
Au0_6 Pt0_4 2.880659 1_555
Au0_7 Pt0_1 2.880658 1_555
Au0_7 Pt0_6 2.880658 1_555
Au0_7 Pt0_2 2.880659 1_555
Au0_7 Pt0_4 2.880659 1_555
Au0_7 Pt0_5 2.880659 1_555
Au0_7 Pt0_3 2.880659 1_555
