# generated using pymatgen
data_ZnCr5O7
_symmetry_space_group_name_H-M   'P 1'
_cell_length_a   5.33734383
_cell_length_b   5.33734383
_cell_length_c   18.40000300
_cell_angle_alpha   90.00000000
_cell_angle_beta   90.00000000
_cell_angle_gamma   147.40314788
_symmetry_Int_Tables_number   1
_chemical_formula_structural   ZnCr5O7
_chemical_formula_sum   'Zn2 Cr10 O14'
_cell_volume   282.38068089
_cell_formula_units_Z   2
loop_
 _symmetry_equiv_pos_site_id
 _symmetry_equiv_pos_as_xyz
  1  'x, y, z'
loop_
 _atom_site_type_symbol
 _atom_site_label
 _atom_site_symmetry_multiplicity
 _atom_site_fract_x
 _atom_site_fract_y
 _atom_site_fract_z
 _atom_site_occupancy
  Zn  Zn0  1  0.20350200  0.79649800  0.75000000  1
  Zn  Zn1  1  0.79649800  0.20350200  0.25000000  1
  Cr  Cr0  1  0.72566300  0.27433700  0.57748400  1
  Cr  Cr1  1  0.54114400  0.45885600  0.15491400  1
  Cr  Cr2  1  0.00000000  0.00000000  0.50000000  1
  Cr  Cr3  1  0.00000000  0.00000000  0.00000000  1
  Cr  Cr4  1  0.45885600  0.54114400  0.84508600  1
  Cr  Cr5  1  0.27433700  0.72566300  0.42251600  1
  Cr  Cr6  1  0.27433700  0.72566300  0.07748400  1
  Cr  Cr7  1  0.72566300  0.27433700  0.92251600  1
  Cr  Cr8  1  0.45885600  0.54114400  0.65491400  1
  Cr  Cr9  1  0.54114400  0.45885600  0.34508600  1
  O  O0  1  0.36956200  0.63043800  0.97571700  1
  O  O1  1  0.63043800  0.36956200  0.02428300  1
  O  O2  1  0.63043800  0.36956200  0.47571700  1
  O  O3  1  0.36956200  0.63043800  0.52428300  1
  O  O4  1  0.82315300  0.17684700  0.82712900  1
  O  O5  1  0.17684700  0.82315300  0.17287100  1
  O  O6  1  0.17684700  0.82315300  0.32712900  1
  O  O7  1  0.82315300  0.17684700  0.67287100  1
  O  O8  1  0.06955900  0.93044100  0.89571700  1
  O  O9  1  0.93044100  0.06955900  0.10428300  1
  O  O10  1  0.93044100  0.06955900  0.39571700  1
  O  O11  1  0.06955900  0.93044100  0.60428300  1
  O  O12  1  0.56670900  0.43329100  0.75000000  1
  O  O13  1  0.43329100  0.56670900  0.25000000  1
loop_
_geom_bond_atom_site_label_1
_geom_bond_atom_site_label_2
_geom_bond_distance
_geom_bond_site_symmetry_2
Cr0 O7 2.019445 1_555
Cr0 O2 2.111443 1_555
Cr0 O11 2.246072 1_545
Cr0 O11 2.246072 1_655
Cr0 O3 2.318527 1_655
Cr0 O3 2.318527 1_545
Cr1 O13 2.069331 1_555
Cr1 O5 2.070249 1_655
Cr1 O5 2.070249 1_545
Cr1 O9 2.097142 1_565
Cr1 O9 2.097142 1_455
Cr1 O1 2.571838 1_555
Cr2 O10 2.046885 1_455
Cr2 O11 2.046885 1_545
Cr2 O3 2.056528 1_555
Cr2 O3 2.056528 1_445
Cr2 O2 2.056528 1_555
Cr2 O2 2.056528 1_445
Cr3 O9 2.046885 1_455
Cr3 O8 2.046885 1_544
Cr3 O1 2.056528 1_555
Cr3 O0 2.056528 1_554
Cr3 O1 2.056528 1_445
Cr3 O0 2.056528 1_444
Cr4 O12 2.069331 1_555
Cr4 O4 2.070249 1_565
Cr4 O4 2.070249 1_455
Cr4 O8 2.097142 1_655
Cr4 O8 2.097142 1_545
Cr4 O0 2.571838 1_555
Cr5 O6 2.019445 1_555
Cr5 O3 2.111443 1_555
Cr5 O10 2.246072 1_455
Cr5 O10 2.246072 1_565
Cr5 O2 2.318527 1_565
Cr5 O2 2.318527 1_455
Cr6 O5 2.019445 1_555
Cr6 O0 2.111443 1_554
Cr6 O9 2.246072 1_455
Cr6 O9 2.246072 1_565
Cr6 O1 2.318527 1_565
Cr6 O1 2.318527 1_455
Cr7 O4 2.019445 1_555
Cr7 O1 2.111443 1_556
Cr7 O8 2.246072 1_545
Cr7 O8 2.246072 1_655
Cr7 O0 2.318527 1_655
Cr7 O0 2.318527 1_545
Cr8 O12 2.069331 1_555
Cr8 O7 2.070249 1_565
Cr8 O7 2.070249 1_455
Cr8 O11 2.097142 1_655
Cr8 O11 2.097142 1_545
Cr8 O3 2.571838 1_555
Cr9 O13 2.069331 1_555
Cr9 O6 2.070249 1_655
Cr9 O6 2.070249 1_545
Cr9 O10 2.097142 1_455
Cr9 O10 2.097142 1_565
Cr9 O2 2.571838 1_555
O4 Zn0 2.400111 1_655
O4 Zn0 2.400111 1_545
O5 Zn1 2.400111 1_565
O5 Zn1 2.400111 1_455
O6 Zn1 2.400111 1_565
O6 Zn1 2.400111 1_455
O7 Zn0 2.400111 1_655
O7 Zn0 2.400111 1_545
O12 Zn0 2.051327 1_655
O12 Zn0 2.051327 1_545
O13 Zn1 2.051327 1_565
O13 Zn1 2.051327 1_455
