# generated using pymatgen
data_NaCd2(SiO3)3
_symmetry_space_group_name_H-M   'P 1'
_cell_length_a   7.03397500
_cell_length_b   7.06093862
_cell_length_c   7.95296607
_cell_angle_alpha   95.04531648
_cell_angle_beta   102.34683799
_cell_angle_gamma   90.49227854
_symmetry_Int_Tables_number   1
_chemical_formula_structural   NaCd2(SiO3)3
_chemical_formula_sum   'Na2 Cd4 Si6 O18'
_cell_volume   384.21250068
_cell_formula_units_Z   2
loop_
 _symmetry_equiv_pos_site_id
 _symmetry_equiv_pos_as_xyz
  1  'x, y, z'
loop_
 _atom_site_type_symbol
 _atom_site_label
 _atom_site_symmetry_multiplicity
 _atom_site_fract_x
 _atom_site_fract_y
 _atom_site_fract_z
 _atom_site_occupancy
  Na  Na0  1  0.26270000  0.35143300  0.56637900  1
  Na  Na1  1  0.73730000  0.64856700  0.43362100  1
  Cd  Cd0  1  0.58924000  0.14831100  0.85410400  1
  Cd  Cd1  1  0.41076000  0.85168900  0.14589600  1
  Cd  Cd2  1  0.08559100  0.13375700  0.84867100  1
  Cd  Cd3  1  0.91440900  0.86624300  0.15132900  1
  Si  Si0  1  0.59496800  0.66092600  0.78288500  1
  Si  Si1  1  0.40503200  0.33907400  0.21711500  1
  Si  Si2  1  0.04742300  0.65260400  0.78728500  1
  Si  Si3  1  0.95257700  0.34739600  0.21271500  1
  Si  Si4  1  0.26515400  0.85257000  0.54796400  1
  Si  Si5  1  0.73484600  0.14743000  0.45203600  1
  O  O0  1  0.61039900  0.83162100  0.93648900  1
  O  O1  1  0.38960100  0.16837900  0.06351100  1
  O  O2  1  0.10749000  0.82182400  0.94436100  1
  O  O3  1  0.89251000  0.17817600  0.05563900  1
  O  O4  1  0.46605000  0.72602900  0.59669900  1
  O  O5  1  0.53395000  0.27397100  0.40330100  1
  O  O6  1  0.09291000  0.71962100  0.60393300  1
  O  O7  1  0.90709000  0.28037900  0.39606700  1
  O  O8  1  0.78883400  0.12498700  0.65774300  1
  O  O9  1  0.21116600  0.87501300  0.34225700  1
  O  O10  1  0.29278800  0.05369500  0.66951900  1
  O  O11  1  0.70721200  0.94630500  0.33048100  1
  O  O12  1  0.50363600  0.45381000  0.81025100  1
  O  O13  1  0.49636400  0.54619000  0.18974900  1
  O  O14  1  0.14875900  0.44958600  0.82404800  1
  O  O15  1  0.85124100  0.55041400  0.17595200  1
  O  O16  1  0.80880900  0.61599600  0.73705500  1
  O  O17  1  0.19119100  0.38400400  0.26294500  1
loop_
_geom_bond_atom_site_label_1
_geom_bond_atom_site_label_2
_geom_bond_distance
_geom_bond_site_symmetry_2
Na0 O10 2.318200 1_555
Na0 O12 2.341587 1_555
Na0 O17 2.389546 1_555
Na0 O14 2.405022 1_555
Na0 O5 2.563787 1_555
Na0 O7 2.598671 1_455
Na0 O6 2.888528 1_555
Na0 O4 2.962330 1_555
Na1 O11 2.318200 1_555
Na1 O13 2.341587 1_555
Na1 O16 2.389546 1_555
Na1 O15 2.405022 1_555
Na1 O4 2.563787 1_555
Na1 O6 2.598671 1_655
Na1 O7 2.888528 1_555
Na1 O5 2.962330 1_555
Cd0 O12 2.280824 1_555
Cd0 O8 2.309391 1_555
Cd0 O10 2.333239 1_555
Cd0 O3 2.373726 1_556
Cd0 O0 2.381896 1_545
Cd0 O1 2.393251 1_556
Cd1 O13 2.280824 1_555
Cd1 O9 2.309391 1_555
Cd1 O11 2.333239 1_555
Cd1 O2 2.373726 1_554
Cd1 O1 2.381896 1_565
Cd1 O0 2.393251 1_554
Cd2 O10 2.287837 1_555
Cd2 O8 2.300525 1_455
Cd2 O14 2.303450 1_555
Cd2 O3 2.350483 1_456
Cd2 O2 2.388425 1_545
Cd2 O1 2.430410 1_556
Cd3 O11 2.287837 1_555
Cd3 O9 2.300525 1_655
Cd3 O15 2.303450 1_555
Cd3 O2 2.350483 1_654
Cd3 O3 2.388425 1_565
Cd3 O0 2.430410 1_554
O0 Si0 1.624454 1_555
O1 Si1 1.624454 1_555
O2 Si2 1.633954 1_555
O3 Si3 1.633954 1_555
O4 Si0 1.666982 1_555
O4 Si4 1.671463 1_555
O5 Si1 1.666982 1_555
O5 Si5 1.671463 1_555
O6 Si2 1.664604 1_555
O6 Si4 1.682805 1_555
O7 Si3 1.664604 1_555
O7 Si5 1.682805 1_555
O8 Si5 1.620710 1_555
O9 Si4 1.620710 1_555
O10 Si4 1.631727 1_545
O11 Si5 1.631727 1_565
O12 Si0 1.642688 1_555
O13 Si1 1.642688 1_555
O14 Si2 1.628074 1_555
O15 Si3 1.628074 1_555
O16 Si0 1.648724 1_555
O16 Si2 1.652600 1_655
O17 Si1 1.648724 1_555
O17 Si3 1.652600 1_455
