# generated using pymatgen
data_Y2ZnSe4
_symmetry_space_group_name_H-M   'P 1'
_cell_length_a   8.17238097
_cell_length_b   8.17238097
_cell_length_c   8.17238097
_cell_angle_alpha   60.00000000
_cell_angle_beta   60.00000000
_cell_angle_gamma   60.00000000
_symmetry_Int_Tables_number   1
_chemical_formula_structural   Y2ZnSe4
_chemical_formula_sum   'Y4 Zn2 Se8'
_cell_volume   385.94979373
_cell_formula_units_Z   2
loop_
 _symmetry_equiv_pos_site_id
 _symmetry_equiv_pos_as_xyz
  1  'x, y, z'
loop_
 _atom_site_type_symbol
 _atom_site_label
 _atom_site_symmetry_multiplicity
 _atom_site_fract_x
 _atom_site_fract_y
 _atom_site_fract_z
 _atom_site_occupancy
  Y  Y0  1  0.12500000  0.62500000  0.62500000  1
  Y  Y1  1  0.62500000  0.12500000  0.62500000  1
  Y  Y2  1  0.62500000  0.62500000  0.12500000  1
  Y  Y3  1  0.62500000  0.62500000  0.62500000  1
  Zn  Zn0  1  0.25000000  0.25000000  0.25000000  1
  Zn  Zn1  1  0.00000000  0.00000000  0.00000000  1
  Se  Se0  1  0.86972400  0.37675900  0.37675900  1
  Se  Se1  1  0.37675900  0.86972400  0.37675900  1
  Se  Se2  1  0.37675900  0.37675900  0.86972400  1
  Se  Se3  1  0.37675900  0.37675900  0.37675900  1
  Se  Se4  1  0.38027600  0.87324100  0.87324100  1
  Se  Se5  1  0.87324100  0.38027600  0.87324100  1
  Se  Se6  1  0.87324100  0.87324100  0.38027600  1
  Se  Se7  1  0.87324100  0.87324100  0.87324100  1
loop_
_geom_bond_atom_site_label_1
_geom_bond_atom_site_label_2
_geom_bond_distance
_geom_bond_site_symmetry_2
Se0 Zn0 2.537476 1_655
Se0 Y3 2.869187 1_555
Se0 Y2 2.869193 1_555
Se0 Y1 2.869193 1_555
Se1 Zn0 2.537476 1_565
Se1 Y3 2.869187 1_555
Se1 Y0 2.869193 1_555
Se1 Y2 2.869193 1_555
Se2 Zn0 2.537476 1_556
Se2 Y3 2.869187 1_555
Se2 Y0 2.869193 1_555
Se2 Y1 2.869193 1_555
Se3 Zn0 2.537482 1_555
Se3 Y0 2.869187 1_555
Se3 Y2 2.869187 1_555
Se3 Y1 2.869187 1_555
Se4 Zn1 2.537476 1_566
Se4 Y3 2.869187 1_555
Se4 Y1 2.869193 1_565
Se4 Y2 2.869193 1_556
Se5 Zn1 2.537476 1_656
Se5 Y3 2.869187 1_555
Se5 Y0 2.869193 1_655
Se5 Y2 2.869193 1_556
Se6 Zn1 2.537476 1_665
Se6 Y3 2.869187 1_555
Se6 Y0 2.869193 1_655
Se6 Y1 2.869193 1_565
Se7 Zn1 2.537482 1_666
Se7 Y0 2.869187 1_655
Se7 Y2 2.869187 1_556
Se7 Y1 2.869187 1_565
