# generated using pymatgen
data_Gd5P12Ru19
_symmetry_space_group_name_H-M   'P 1'
_cell_length_a   12.47882132
_cell_length_b   12.47876775
_cell_length_c   3.97836817
_cell_angle_alpha   90.00000000
_cell_angle_beta   90.00000000
_cell_angle_gamma   119.99985794
_symmetry_Int_Tables_number   1
_chemical_formula_structural   Gd5P12Ru19
_chemical_formula_sum   'Gd5 P12 Ru19'
_cell_volume   536.51453605
_cell_formula_units_Z   1
loop_
 _symmetry_equiv_pos_site_id
 _symmetry_equiv_pos_as_xyz
  1  'x, y, z'
loop_
 _atom_site_type_symbol
 _atom_site_label
 _atom_site_symmetry_multiplicity
 _atom_site_fract_x
 _atom_site_fract_y
 _atom_site_fract_z
 _atom_site_occupancy
  Gd  Gd0  1  0.18341550  0.18346752  0.50000000  1
  Gd  Gd1  1  0.81658450  0.00005202  0.50000000  1
  Gd  Gd2  1  0.00000000  0.81644607  0.50000000  1
  Gd  Gd3  1  0.33335533  0.66671541  0.00000000  1
  Gd  Gd4  1  0.66664467  0.33335908  0.00000000  1
  P  P0  1  0.81396199  0.81398287  0.00000000  1
  P  P1  1  0.18603801  0.00002088  0.00000000  1
  P  P2  1  1.00000000  0.18602314  0.00000000  1
  P  P3  1  0.17162203  0.47676352  0.50000000  1
  P  P4  1  0.52324494  0.69486063  0.50000000  1
  P  P5  1  0.30512864  0.82838727  0.50000000  1
  P  P6  1  0.69487136  0.52325863  0.50000000  1
  P  P7  1  0.82837797  0.30514149  0.50000000  1
  P  P8  1  0.47675506  0.17161570  0.50000000  1
  P  P9  1  0.37341415  0.37341067  0.00000000  1
  P  P10  1  0.62658585  -0.00000348  0.00000000  1
  P  P11  1  0.00000000  0.62650972  0.00000000  1
  Ru  Ru0  1  0.55435322  0.55436153  0.00000000  1
  Ru  Ru1  1  0.44564678  0.00000831  0.00000000  1
  Ru  Ru2  1  0.00000000  0.44559671  0.00000000  1
  Ru  Ru3  1  0.71623831  0.71624588  0.50000000  1
  Ru  Ru4  1  0.28376169  0.00000756  0.50000000  1
  Ru  Ru5  1  1.00000000  0.28377751  0.50000000  1
  Ru  Ru6  1  0.18496577  0.37775048  0.00000000  1
  Ru  Ru7  1  0.62225092  0.80721973  0.00000000  1
  Ru  Ru8  1  0.19276760  0.81499997  0.00000000  1
  Ru  Ru9  1  0.80723240  0.62223237  0.00000000  1
  Ru  Ru10  1  0.81503423  0.19278472  0.00000000  1
  Ru  Ru11  1  0.37774908  0.18496881  0.00000000  1
  Ru  Ru12  1  0.36699211  0.49234372  0.50000000  1
  Ru  Ru13  1  0.50766198  0.87468600  0.50000000  1
  Ru  Ru14  1  0.12532227  0.63298710  0.50000000  1
  Ru  Ru15  1  0.87467773  0.50766483  0.50000000  1
  Ru  Ru16  1  0.63300789  0.12535160  0.50000000  1
  Ru  Ru17  1  0.49233802  0.36702402  0.50000000  1
  Ru  Ru18  1  0.00000000  0.99997800  0.00000000  1
loop_
_geom_bond_atom_site_label_1
_geom_bond_atom_site_label_2
_geom_bond_distance
_geom_bond_site_symmetry_2
Gd0 Ru18 3.032757 1_546
Gd0 Ru18 3.032757 1_545
Gd0 P2 3.044587 1_456
Gd0 P2 3.044587 1_455
Gd0 P1 3.045196 1_556
Gd0 P1 3.045196 1_555
Gd0 P9 3.094618 1_556
Gd0 P9 3.094618 1_555
Gd0 Ru5 3.109744 1_455
Gd0 Ru4 3.110607 1_555
Gd0 Ru6 3.128594 1_556
Gd0 Ru6 3.128594 1_555
Gd0 Ru11 3.129323 1_555
Gd0 Ru11 3.129323 1_556
Gd0 Ru12 3.357756 1_555
Gd0 Ru17 3.358208 1_555
Gd1 Ru18 3.032757 1_645
Gd1 Ru18 3.032757 1_646
Gd1 P2 3.044587 1_555
Gd1 P2 3.044587 1_556
Gd1 P0 3.045196 1_545
Gd1 P0 3.045196 1_546
Gd1 P10 3.094618 1_556
Gd1 P10 3.094618 1_555
Gd1 Ru5 3.109744 1_555
Gd1 Ru3 3.110607 1_545
Gd1 Ru10 3.128594 1_556
Gd1 Ru10 3.128594 1_555
Gd1 Ru7 3.129323 1_546
Gd1 Ru7 3.129323 1_545
Gd1 Ru16 3.357756 1_555
Gd1 Ru13 3.358208 1_545
Gd2 Ru18 3.033498 1_556
Gd2 Ru18 3.033498 1_555
Gd2 P0 3.045647 1_455
Gd2 P0 3.045647 1_456
Gd2 P1 3.045647 1_565
Gd2 P1 3.045647 1_566
Gd2 P11 3.094280 1_556
Gd2 P11 3.094280 1_555
Gd2 Ru4 3.110406 1_565
Gd2 Ru3 3.110406 1_455
Gd2 Ru8 3.128431 1_555
Gd2 Ru8 3.128431 1_556
Gd2 Ru9 3.128431 1_456
Gd2 Ru9 3.128431 1_455
Gd2 Ru14 3.356638 1_555
Gd2 Ru15 3.356638 1_455
Gd3 P5 2.976863 1_555
Gd3 P5 2.976863 1_554
Gd3 P4 2.977073 1_554
Gd3 P4 2.977073 1_555
Gd3 P3 2.977387 1_555
Gd3 P3 2.977387 1_554
Gd3 Ru8 3.122196 1_555
Gd3 Ru7 3.122480 1_555
Gd3 Ru6 3.123209 1_555
Gd3 Ru13 3.127028 1_554
Gd3 Ru13 3.127028 1_555
Gd3 Ru14 3.127400 1_555
Gd3 Ru14 3.127400 1_554
Gd3 Ru12 3.127477 1_555
Gd3 Ru12 3.127477 1_554
Gd4 P6 2.976872 1_555
Gd4 P6 2.976872 1_554
Gd4 P8 2.977069 1_555
Gd4 P8 2.977069 1_554
Gd4 P7 2.977381 1_554
Gd4 P7 2.977381 1_555
Gd4 Ru9 3.122207 1_555
Gd4 Ru11 3.122480 1_555
Gd4 Ru10 3.123198 1_555
Gd4 Ru17 3.127034 1_555
Gd4 Ru17 3.127034 1_554
Gd4 Ru15 3.127404 1_555
Gd4 Ru15 3.127404 1_554
Gd4 Ru16 3.127468 1_555
Gd4 Ru16 3.127468 1_554
P0 Ru18 2.321268 1_655
P0 Ru3 2.333276 1_555
P0 Ru3 2.333276 1_554
P0 Ru7 2.351267 1_555
P0 Ru9 2.351946 1_555
P1 Ru18 2.321268 1_545
P1 Ru4 2.333276 1_554
P1 Ru4 2.333276 1_555
P1 Ru11 2.351267 1_555
P1 Ru8 2.351946 1_545
P2 Ru18 2.321614 1_645
P2 Ru5 2.333430 1_555
P2 Ru5 2.333430 1_554
P2 Ru6 2.351478 1_655
P2 Ru10 2.351478 1_555
P3 Ru5 2.286624 1_455
P3 Ru14 2.293603 1_555
P3 Ru12 2.346826 1_555
P3 Ru6 2.391010 1_556
P3 Ru6 2.391010 1_555
P3 Ru2 2.803892 1_556
P3 Ru2 2.803892 1_555
P4 Ru3 2.286609 1_555
P4 Ru12 2.293665 1_555
P4 Ru13 2.347276 1_555
P4 Ru7 2.391002 1_555
P4 Ru7 2.391002 1_556
P4 Ru0 2.803936 1_555
P4 Ru0 2.803936 1_556
P5 Ru4 2.286615 1_565
P5 Ru13 2.293740 1_555
P5 Ru14 2.347125 1_555
P5 Ru8 2.390921 1_555
P5 Ru8 2.390921 1_556
P5 Ru1 2.804075 1_565
P5 Ru1 2.804075 1_566
P6 Ru3 2.286616 1_555
P6 Ru17 2.293740 1_555
P6 Ru15 2.347125 1_555
P6 Ru9 2.390921 1_555
P6 Ru9 2.390921 1_556
P6 Ru0 2.804075 1_555
P6 Ru0 2.804075 1_556
P7 Ru5 2.286624 1_555
P7 Ru15 2.293603 1_555
P7 Ru16 2.346826 1_555
P7 Ru10 2.391010 1_556
P7 Ru10 2.391010 1_555
P7 Ru2 2.803892 1_655
P7 Ru2 2.803892 1_656
P8 Ru4 2.286609 1_555
P8 Ru16 2.293665 1_555
P8 Ru17 2.347276 1_555
P8 Ru11 2.391002 1_556
P8 Ru11 2.391002 1_555
P8 Ru1 2.803936 1_556
P8 Ru1 2.803936 1_555
P9 Ru0 2.257980 1_555
P9 Ru11 2.379031 1_555
P9 Ru6 2.379154 1_555
P9 Ru17 2.506755 1_554
P9 Ru17 2.506755 1_555
P9 Ru12 2.506966 1_554
P9 Ru12 2.506966 1_555
P10 Ru1 2.257980 1_555
P10 Ru7 2.379031 1_545
P10 Ru10 2.379154 1_555
P10 Ru13 2.506755 1_544
P10 Ru13 2.506755 1_545
P10 Ru16 2.506966 1_555
P10 Ru16 2.506966 1_554
P11 Ru2 2.257571 1_555
P11 Ru9 2.379274 1_455
P11 Ru8 2.379274 1_555
P11 Ru14 2.506528 1_555
P11 Ru14 2.506528 1_554
P11 Ru15 2.506528 1_454
P11 Ru15 2.506528 1_455
Ru0 Ru7 2.828552 1_555
Ru0 Ru9 2.828905 1_555
Ru0 Ru17 2.865599 1_554
Ru0 Ru17 2.865599 1_555
Ru0 Ru12 2.865802 1_555
Ru0 Ru12 2.865802 1_554
Ru1 Ru11 2.828552 1_555
Ru1 Ru8 2.828905 1_545
Ru1 Ru13 2.865599 1_545
Ru1 Ru13 2.865599 1_544
Ru1 Ru16 2.865802 1_555
Ru1 Ru16 2.865802 1_554
Ru2 Ru6 2.828168 1_555
Ru3 Ru7 2.820048 1_555
Ru3 Ru7 2.820048 1_556
Ru3 Ru9 2.820404 1_556
Ru3 Ru9 2.820404 1_555
Ru4 Ru8 2.820404 1_546
Ru4 Ru8 2.820404 1_545
Ru5 Ru6 2.820088 1_656
Ru5 Ru6 2.820088 1_655
Ru10 Ru16 2.813031 1_555
Ru10 Ru16 2.813031 1_554
Ru10 Ru5 2.820088 1_554
Ru10 Ru5 2.820088 1_555
Ru10 Ru2 2.828168 1_655
Ru11 Ru17 2.813220 1_554
Ru11 Ru17 2.813220 1_555
Ru11 Ru4 2.820048 1_555
Ru11 Ru4 2.820048 1_554
Ru12 Ru17 2.708930 1_555
Ru12 Ru6 2.813031 1_556
Ru12 Ru6 2.813031 1_555
Ru13 Ru16 2.708929 1_565
Ru13 Ru7 2.813220 1_555
Ru13 Ru7 2.813220 1_556
Ru14 Ru15 2.708713 1_455
Ru14 Ru8 2.812898 1_556
Ru14 Ru8 2.812898 1_555
Ru14 Ru2 2.865960 1_556
Ru14 Ru2 2.865960 1_555
Ru15 Ru9 2.812898 1_555
Ru15 Ru9 2.812898 1_556
Ru15 Ru2 2.865960 1_655
Ru15 Ru2 2.865960 1_656
