# generated using pymatgen
data_Tm8In3Co
_symmetry_space_group_name_H-M   'P 1'
_cell_length_a   10.14573285
_cell_length_b   10.14561606
_cell_length_c   6.91152356
_cell_angle_alpha   89.99985132
_cell_angle_beta   90.00023798
_cell_angle_gamma   120.00070683
_symmetry_Int_Tables_number   1
_chemical_formula_structural   Tm8In3Co
_chemical_formula_sum   'Tm16 In6 Co2'
_cell_volume   616.11697852
_cell_formula_units_Z   2
loop_
 _symmetry_equiv_pos_site_id
 _symmetry_equiv_pos_as_xyz
  1  'x, y, z'
loop_
 _atom_site_type_symbol
 _atom_site_label
 _atom_site_symmetry_multiplicity
 _atom_site_fract_x
 _atom_site_fract_y
 _atom_site_fract_z
 _atom_site_occupancy
  Tm  Tm0  1  0.53577683  0.07155690  0.51264569  1
  Tm  Tm1  1  0.92844351  0.46422371  0.51264482  1
  Tm  Tm2  1  0.53577764  0.46422236  0.51264200  1
  Tm  Tm3  1  0.46420473  0.92841415  0.01263609  1
  Tm  Tm4  1  0.07158360  0.53579077  0.01263574  1
  Tm  Tm5  1  0.46420620  0.53579041  0.01263360  1
  Tm  Tm6  1  0.17871244  0.35742622  0.72041292  1
  Tm  Tm7  1  0.64257596  0.82129011  0.72040965  1
  Tm  Tm8  1  0.17871332  0.82129018  0.72041113  1
  Tm  Tm9  1  0.82129736  0.64259250  0.22041078  1
  Tm  Tm10  1  0.35740616  0.17870071  0.22040888  1
  Tm  Tm11  1  0.82129597  0.17870028  0.22041039  1
  Tm  Tm12  1  0.66666706  0.33333100  0.90420386  1
  Tm  Tm13  1  0.33333291  0.66666643  0.40422917  1
  Tm  Tm14  1  -0.00000133  -0.00000206  0.50102132  1
  Tm  Tm15  1  -0.00000029  -0.00000230  0.00101052  1
  In  In0  1  0.83693759  0.67387725  0.76171819  1
  In  In1  1  0.32611889  0.16307109  0.76170705  1
  In  In2  1  0.83695332  0.16307337  0.76170053  1
  In  In3  1  0.16306214  0.32611204  0.26171470  1
  In  In4  1  0.67388516  0.83693689  0.26170287  1
  In  In5  1  0.16305233  0.83694265  0.26169997  1
  Co  Co0  1  0.66666566  0.33333524  0.28949795  1
  Co  Co1  1  0.33333286  0.66666309  0.78949517  1
loop_
_geom_bond_atom_site_label_1
_geom_bond_atom_site_label_2
_geom_bond_distance
_geom_bond_site_symmetry_2
Tm0 Tm10 3.240909 1_555
Tm0 Tm11 3.240942 1_555
Tm0 Tm8 3.526233 1_545
Tm0 Tm7 3.526254 1_545
Tm0 Tm12 3.551617 1_555
Tm0 Tm13 3.635549 1_545
Tm0 Tm3 3.677448 1_546
Tm0 Tm3 3.677574 1_545
Tm1 Tm9 3.240891 1_555
Tm1 Tm11 3.240935 1_555
Tm1 Tm8 3.526236 1_655
Tm1 Tm6 3.526290 1_655
Tm1 Tm12 3.551657 1_555
Tm1 Tm13 3.635580 1_655
Tm1 Tm4 3.677445 1_656
Tm1 Tm4 3.677571 1_655
Tm2 Tm9 3.240910 1_555
Tm2 Tm7 3.526258 1_555
Tm2 Tm6 3.526291 1_555
Tm2 Tm5 3.677458 1_556
Tm2 Tm5 3.677558 1_555
Tm3 Tm8 3.240703 1_554
Tm3 Tm7 3.240758 1_554
Tm4 Tm6 3.240715 1_554
Tm4 Tm8 3.240732 1_554
Tm4 Tm9 3.526502 1_455
Tm5 Tm6 3.240686 1_554
Tm5 Tm7 3.240730 1_554
Tm5 Tm9 3.526516 1_555
Tm10 Tm2 3.240908 1_555
Tm10 Tm12 3.487109 1_554
Tm10 Tm15 3.487256 1_555
Tm10 Tm3 3.526459 1_545
Tm10 Tm5 3.526466 1_555
Tm10 Tm14 3.690960 1_555
Tm11 Tm12 3.487105 1_554
Tm11 Tm15 3.487283 1_655
Tm11 Tm4 3.526461 1_655
Tm11 Tm3 3.526479 1_545
Tm11 Tm14 3.690937 1_655
Tm12 Tm9 3.487093 1_556
Tm12 Tm2 3.551692 1_555
Tm12 Tm3 3.635797 1_546
Tm12 Tm4 3.635832 1_656
Tm12 Tm5 3.635883 1_556
Tm13 Tm6 3.486845 1_555
Tm13 Tm7 3.486870 1_555
Tm13 Tm8 3.486901 1_555
Tm13 Tm3 3.551649 1_555
Tm13 Tm4 3.551672 1_555
Tm13 Tm5 3.551704 1_555
Tm13 Tm2 3.635583 1_555
Tm14 Tm15 3.455687 1_556
Tm14 Tm15 3.455836 1_555
Tm14 Tm7 3.487363 1_445
Tm14 Tm8 3.487369 1_545
Tm14 Tm6 3.487381 1_555
Tm14 Tm9 3.690902 1_445
Tm15 Tm9 3.487223 1_445
Tm15 Tm6 3.691026 1_554
Tm15 Tm7 3.691029 1_444
Tm15 Tm8 3.691029 1_544
In0 Tm8 3.025912 1_655
In0 Tm7 3.025913 1_555
In0 Tm12 3.150035 1_555
In0 Tm9 3.182159 1_556
In0 Tm2 3.213190 1_555
In0 Tm1 3.213196 1_555
In0 Tm15 3.308440 1_666
In0 Tm14 3.384820 1_665
In0 Tm5 3.738036 1_556
In0 Tm4 3.738052 1_656
In0 Tm9 3.751343 1_555
In1 Tm6 3.025784 1_555
In1 Tm8 3.025920 1_545
In1 Tm12 3.150106 1_555
In1 Tm10 3.182224 1_556
In1 Tm2 3.213089 1_555
In1 Tm0 3.213254 1_555
In1 Tm15 3.308501 1_556
In1 Tm14 3.384799 1_555
In1 Tm5 3.737928 1_556
In1 Tm3 3.738165 1_546
In1 Tm10 3.751282 1_555
In2 Tm6 3.025744 1_655
In2 Tm7 3.025935 1_545
In2 Tm12 3.150105 1_555
In2 Tm11 3.182279 1_556
In2 Tm1 3.213054 1_555
In2 Tm0 3.213242 1_555
In2 Tm15 3.308548 1_656
In2 Tm14 3.384802 1_655
In2 Tm4 3.737933 1_656
In2 Tm3 3.738223 1_546
In2 Tm11 3.751223 1_555
In3 Tm10 3.025740 1_555
In3 Tm11 3.025822 1_455
In3 Tm13 3.150167 1_555
In3 Tm6 3.182220 1_555
In3 Tm5 3.213161 1_555
In3 Tm4 3.213241 1_555
In3 Tm14 3.308439 1_555
In3 Tm15 3.384801 1_555
In3 Tm2 3.737899 1_555
In3 Tm1 3.738053 1_455
In3 Tm6 3.751323 1_554
In4 Tm9 3.025735 1_555
In4 Tm11 3.025753 1_565
In4 Tm13 3.150209 1_555
In4 Tm7 3.182276 1_555
In4 Tm5 3.213112 1_555
In4 Tm3 3.213214 1_555
In4 Tm14 3.308501 1_665
In4 Tm15 3.384791 1_665
In4 Tm2 3.737898 1_555
In4 Tm0 3.738069 1_565
In4 Tm7 3.751260 1_554
In5 Tm10 3.025706 1_565
In5 Tm9 3.025706 1_455
In5 Tm13 3.150261 1_555
In5 Tm8 3.182308 1_555
In5 Tm4 3.213143 1_555
In5 Tm3 3.213175 1_555
In5 Tm14 3.308498 1_565
In5 Tm15 3.384730 1_565
In5 Tm1 3.737947 1_455
In5 Tm0 3.738018 1_565
In5 Tm8 3.751235 1_554
Co0 Tm12 2.662969 1_554
Co0 Tm9 2.758863 1_555
Co0 Tm10 2.758914 1_555
Co0 Tm11 2.758979 1_555
Co0 Tm2 2.769286 1_555
Co0 Tm0 2.769286 1_555
Co0 Tm1 2.769298 1_555
Co1 Tm13 2.662775 1_555
Co1 Tm6 2.758681 1_555
Co1 Tm7 2.758771 1_555
Co1 Tm8 2.758809 1_555
Co1 Tm5 2.769042 1_556
Co1 Tm3 2.769062 1_556
Co1 Tm4 2.769073 1_556
