# generated using pymatgen
data_Li9Mn2Co5O16
_symmetry_space_group_name_H-M   'P 1'
_cell_length_a   5.18378678
_cell_length_b   10.35546339
_cell_length_c   5.90270180
_cell_angle_alpha   104.52620002
_cell_angle_beta   71.41144947
_cell_angle_gamma   84.94307480
_symmetry_Int_Tables_number   1
_chemical_formula_structural   Li9Mn2Co5O16
_chemical_formula_sum   'Li9 Mn2 Co5 O16'
_cell_volume   285.80862667
_cell_formula_units_Z   1
loop_
 _symmetry_equiv_pos_site_id
 _symmetry_equiv_pos_as_xyz
  1  'x, y, z'
loop_
 _atom_site_type_symbol
 _atom_site_label
 _atom_site_symmetry_multiplicity
 _atom_site_fract_x
 _atom_site_fract_y
 _atom_site_fract_z
 _atom_site_occupancy
  Li  Li0  1  0.49792700  0.13226800  0.93830200  1
  Li  Li1  1  0.50009900  0.37686900  0.31010300  1
  Li  Li2  1  0.50931900  0.61805900  0.67569500  1
  Li  Li3  1  0.49884400  0.87337900  0.06713900  1
  Li  Li4  1  0.50384600  0.13117000  0.44405400  1
  Li  Li5  1  0.49265600  0.37934400  0.82085100  1
  Li  Li6  1  0.49807600  0.61632600  0.18557800  1
  Li  Li7  1  0.50035600  0.87509100  0.55587800  1
  Li  Li8  1  0.00079600  0.49632900  0.25314300  1
  Mn  Mn0  1  0.99439700  0.00207300  0.99770400  1
  Mn  Mn1  1  0.99698400  0.74857400  0.62500000  1
  Co  Co0  1  0.00199600  0.25176900  0.37070500  1
  Co  Co1  1  0.99095500  0.49307000  0.74866000  1
  Co  Co2  1  0.00687600  0.73713500  0.12000800  1
  Co  Co3  1  0.99729800  0.00087800  0.49520900  1
  Co  Co4  1  0.00934300  0.25276800  0.88030800  1
  O  O0  1  0.22778500  0.06833400  0.73789200  1
  O  O1  1  0.23204900  0.30798900  0.11507900  1
  O  O2  1  0.22677800  0.57591500  0.49672600  1
  O  O3  1  0.21580700  0.82144400  0.84003200  1
  O  O4  1  0.20953200  0.05853500  0.21024000  1
  O  O5  1  0.24048600  0.31056400  0.61339800  1
  O  O6  1  0.23870100  0.57436200  0.97484300  1
  O  O7  1  0.21862200  0.82043600  0.36286600  1
  O  O8  1  0.76814600  0.17916100  0.12784500  1
  O  O9  1  0.77512700  0.42528400  0.53208100  1
  O  O10  1  0.76648900  0.69121500  0.89616800  1
  O  O11  1  0.76766600  0.93568400  0.25658800  1
  O  O12  1  0.78750300  0.17684300  0.62586500  1
  O  O13  1  0.77245600  0.42972100  0.01312700  1
  O  O14  1  0.77061200  0.70006100  0.42940100  1
  O  O15  1  0.78247200  0.93935100  0.77951300  1
loop_
_geom_bond_atom_site_label_1
_geom_bond_atom_site_label_2
_geom_bond_distance
_geom_bond_site_symmetry_2
Li0 O1 1.997020 1_556
Li0 O8 2.072727 1_556
Li0 O0 2.150678 1_555
Li0 O12 2.156799 1_555
Li0 O4 2.163486 1_556
Li0 O15 2.169096 1_545
Li1 O13 2.098896 1_555
Li1 O1 2.132444 1_555
Li1 O8 2.172628 1_555
Li1 O5 2.175112 1_555
Li1 O2 2.195584 1_555
Li1 O9 2.233421 1_555
Li2 O6 2.055275 1_555
Li2 O14 2.058131 1_555
Li2 O2 2.078323 1_555
Li2 O9 2.126923 1_555
Li2 O10 2.198692 1_555
Li2 O3 2.271791 1_555
Li3 O10 2.047636 1_554
Li3 O11 2.097314 1_555
Li3 O7 2.112257 1_555
Li3 O4 2.124146 1_565
Li3 O15 2.162946 1_554
Li3 O3 2.295730 1_554
Li4 O5 2.016282 1_555
Li4 O12 2.100371 1_555
Li4 O8 2.136089 1_555
Li4 O11 2.148530 1_545
Li4 O0 2.151154 1_555
Li4 O4 2.412910 1_555
Li5 O9 2.052843 1_555
Li5 O5 2.112503 1_555
Li5 O6 2.117836 1_555
Li5 O13 2.133038 1_556
Li5 O1 2.170532 1_556
Li5 O12 2.271751 1_555
Li6 O2 2.090139 1_555
Li6 O13 2.097370 1_555
Li6 O6 2.107619 1_554
Li6 O10 2.189775 1_554
Li6 O7 2.246179 1_555
Li6 O14 2.388590 1_555
Li7 O14 2.002993 1_555
Li7 O3 2.081396 1_555
Li7 O11 2.140898 1_555
Li7 O0 2.147186 1_565
Li7 O7 2.152735 1_555
Li7 O15 2.299067 1_555
Li8 O1 2.018094 1_555
Li8 O9 2.037665 1_455
Li8 O6 2.102953 1_554
Li8 O13 2.146353 1_455
Li8 O14 2.149619 1_455
Li8 O2 2.183653 1_555
Mn0 O8 1.915292 1_556
Mn0 O11 1.927065 1_546
Mn0 O3 1.936357 1_645
Mn0 O0 1.943647 1_655
Mn0 O4 1.948944 1_656
Mn0 O15 1.973741 1_545
Mn1 O2 1.886656 1_655
Mn1 O14 1.907652 1_555
Mn1 O10 1.930079 1_555
Mn1 O7 1.965429 1_655
Mn1 O15 2.008366 1_555
Mn1 O3 2.013832 1_655
Co0 O1 1.858414 1_555
Co0 O9 1.890421 1_455
Co0 O12 1.943552 1_455
Co0 O4 2.019581 1_555
Co0 O5 2.185299 1_555
Co0 O8 2.194931 1_455
Co1 O13 1.915107 1_556
Co1 O9 1.994724 1_555
Co1 O5 2.009016 1_655
Co1 O2 2.026749 1_655
Co1 O10 2.087877 1_555
Co1 O6 2.204625 1_655
Co2 O6 1.811481 1_554
Co2 O14 1.997805 1_455
Co2 O10 2.088926 1_454
Co2 O3 2.101367 1_554
Co2 O11 2.120535 1_455
Co2 O7 2.133935 1_555
Co3 O12 1.873197 1_555
Co3 O7 1.932999 1_645
Co3 O4 1.958590 1_655
Co3 O15 1.983006 1_545
Co3 O11 2.142480 1_545
Co3 O0 2.168833 1_655
Co4 O5 1.916241 1_555
Co4 O13 1.936294 1_456
Co4 O8 1.959900 1_456
Co4 O0 1.960376 1_555
Co4 O1 2.078217 1_556
Co4 O12 2.205552 1_455
