# generated using pymatgen
data_Li10Co(SiO5)2
_symmetry_space_group_name_H-M   'P 1'
_cell_length_a   15.34483371
_cell_length_b   15.34483371
_cell_length_c   5.18435313
_cell_angle_alpha   80.87489707
_cell_angle_beta   80.87489707
_cell_angle_gamma   23.21649542
_symmetry_Int_Tables_number   1
_chemical_formula_structural   Li10Co(SiO5)2
_chemical_formula_sum   'Li20 Co2 Si4 O20'
_cell_volume   474.87016283
_cell_formula_units_Z   2
loop_
 _symmetry_equiv_pos_site_id
 _symmetry_equiv_pos_as_xyz
  1  'x, y, z'
loop_
 _atom_site_type_symbol
 _atom_site_label
 _atom_site_symmetry_multiplicity
 _atom_site_fract_x
 _atom_site_fract_y
 _atom_site_fract_z
 _atom_site_occupancy
  Li  Li0  1  0.48904400  0.48904400  0.76978800  1
  Li  Li1  1  0.22634100  0.63549300  0.39515600  1
  Li  Li2  1  0.63549300  0.22634100  0.39515600  1
  Li  Li3  1  0.86648200  0.86648200  0.28117500  1
  Li  Li4  1  0.08329900  0.65116300  0.74798300  1
  Li  Li5  1  0.65116300  0.08329900  0.74798300  1
  Li  Li6  1  0.32405400  0.32405400  0.43608400  1
  Li  Li7  1  0.04926700  0.55756700  0.10935000  1
  Li  Li8  1  0.55756700  0.04926700  0.10935000  1
  Li  Li9  1  0.26807700  0.26807700  0.82909300  1
  Li  Li10  1  0.72836000  0.72836000  0.18115600  1
  Li  Li11  1  0.43738400  0.94846800  0.90264600  1
  Li  Li12  1  0.94846800  0.43738400  0.90264600  1
  Li  Li13  1  0.67252100  0.67252100  0.57635100  1
  Li  Li14  1  0.34874400  0.90925900  0.26465300  1
  Li  Li15  1  0.90925900  0.34874400  0.26465300  1
  Li  Li16  1  0.12998300  0.12998300  0.72767400  1
  Li  Li17  1  0.77724800  0.35330200  0.61125300  1
  Li  Li18  1  0.35330200  0.77724800  0.61125300  1
  Li  Li19  1  0.50775600  0.50775600  0.23916400  1
  Co  Co0  1  0.96347700  0.96347700  0.63061000  1
  Co  Co1  1  0.03652300  0.03652300  0.36939000  1
  Si  Si0  1  0.39829400  0.39829400  0.01359400  1
  Si  Si1  1  0.77957100  0.77957100  0.63483900  1
  Si  Si2  1  0.21677000  0.21677000  0.37542800  1
  Si  Si3  1  0.59833700  0.59833700  0.99518400  1
  O  O0  1  0.44813600  0.44813600  0.10892600  1
  O  O1  1  0.90583100  0.90583100  0.55672000  1
  O  O2  1  0.40289800  0.40289800  0.69003900  1
  O  O3  1  0.15409900  0.58543500  0.13083200  1
  O  O4  1  0.58543500  0.15409900  0.13083200  1
  O  O5  1  0.03033300  0.57943500  0.72419500  1
  O  O6  1  0.57943500  0.03033300  0.72419500  1
  O  O7  1  0.78509100  0.78509100  0.31382500  1
  O  O8  1  0.27024200  0.27024200  0.22583600  1
  O  O9  1  0.72656000  0.72656000  0.78402800  1
  O  O10  1  0.21144000  0.21144000  0.69574500  1
  O  O11  1  0.96983100  0.41370300  0.28562500  1
  O  O12  1  0.41370300  0.96983100  0.28562500  1
  O  O13  1  0.41407000  0.84028300  0.88073000  1
  O  O14  1  0.84590100  0.41456500  0.86916800  1
  O  O15  1  0.59340600  0.59340600  0.31935300  1
  O  O16  1  0.09416900  0.09416900  0.44328000  1
  O  O17  1  0.54841200  0.54841200  0.89906800  1
  O  O18  1  0.25080600  0.74509200  0.50441100  1
  O  O19  1  0.74509200  0.25080600  0.50441100  1
loop_
_geom_bond_atom_site_label_1
_geom_bond_atom_site_label_2
_geom_bond_distance
_geom_bond_site_symmetry_2
Li0 O0 1.975733 1_556
Li0 O17 2.005432 1_555
Li0 O19 2.043163 1_555
Li0 O18 2.043163 1_555
Li1 O0 1.953773 1_555
Li1 O2 2.055644 1_555
Li1 O1 2.096186 1_455
Li1 O18 2.195494 1_555
Li1 O3 2.465268 1_555
Li2 O0 1.953773 1_555
Li2 O2 2.055644 1_555
Li2 O1 2.096186 1_545
Li2 O19 2.195494 1_555
Li2 O4 2.465268 1_555
Li3 O4 1.917118 1_565
Li3 O3 1.917118 1_655
Li3 O1 1.996776 1_555
Li3 O7 2.425126 1_555
Li4 O5 1.899028 1_555
Li4 O1 1.933260 1_455
Li4 O3 2.042558 1_556
Li4 O2 2.051812 1_555
Li5 O6 1.899028 1_555
Li5 O1 1.933260 1_545
Li5 O4 2.042558 1_556
Li5 O2 2.051812 1_555
Li6 O8 2.091887 1_555
Li6 O6 2.271336 1_555
Li6 O5 2.271336 1_555
Li6 O4 2.337191 1_555
Li6 O3 2.337191 1_555
Li7 O7 1.882314 1_455
Li7 O8 1.904603 1_555
Li7 O5 1.994099 1_554
Li7 O3 2.029600 1_555
Li8 O7 1.882314 1_545
Li8 O8 1.904603 1_555
Li8 O6 1.994099 1_554
Li8 O4 2.029600 1_555
Li9 O10 1.938550 1_555
Li9 O6 2.049332 1_555
Li9 O5 2.049332 1_555
Li9 O8 2.068390 1_556
Li10 O7 1.939443 1_555
Li10 O12 2.063761 1_555
Li10 O11 2.063761 1_555
Li10 O9 2.068302 1_554
Li11 O10 1.883071 1_565
Li11 O9 1.920791 1_555
Li11 O12 1.985034 1_556
Li11 O13 2.015213 1_555
Li12 O10 1.883071 1_655
Li12 O9 1.920791 1_555
Li12 O14 1.936148 1_555
Li12 O11 1.985034 1_556
Li13 O9 2.089171 1_555
Li13 O14 2.251552 1_555
Li13 O12 2.296231 1_555
Li13 O11 2.296231 1_555
Li13 O13 2.320263 1_555
Li14 O16 1.865877 1_565
Li14 O12 1.907524 1_555
Li14 O15 2.030390 1_555
Li14 O13 2.042545 1_554
Li15 O16 1.865877 1_655
Li15 O11 1.907524 1_555
Li15 O15 2.030390 1_555
Li15 O14 2.083207 1_554
Li16 O14 1.903403 1_455
Li16 O13 1.937492 1_545
Li16 O16 1.961379 1_555
Li16 O10 2.427459 1_555
Li17 O17 1.987967 1_555
Li17 O15 2.074700 1_555
Li17 O16 2.105125 1_655
Li17 O19 2.193939 1_555
Li17 O14 2.539131 1_555
Li18 O17 1.987967 1_555
Li18 O15 2.074700 1_555
Li18 O16 2.105125 1_565
Li18 O18 2.193939 1_555
Li18 O13 2.501305 1_555
Li19 O17 1.976052 1_554
Li19 O0 2.014960 1_555
Li19 O19 2.043502 1_555
Li19 O18 2.043502 1_555
Co0 O1 1.834344 1_555
Co0 O18 1.928896 1_655
Co0 O19 1.928896 1_565
Co1 O16 1.834344 1_555
Co1 O18 2.002515 1_545
Co1 O19 2.002515 1_455
O0 Si0 1.652000 1_555
O2 Si0 1.660641 1_556
O3 Si0 1.646159 1_555
O4 Si0 1.646159 1_555
O5 Si1 1.687038 1_455
O6 Si1 1.687038 1_545
O7 Si1 1.645552 1_555
O8 Si2 1.667859 1_555
O9 Si1 1.654906 1_555
O10 Si2 1.642324 1_555
O11 Si2 1.665348 1_655
O12 Si2 1.665348 1_565
O13 Si3 1.633714 1_555
O14 Si3 1.707962 1_555
O15 Si3 1.663053 1_554
O17 Si3 1.656199 1_555
