# generated using pymatgen
data_RbLaSe2O13
_symmetry_space_group_name_H-M   'P 1'
_cell_length_a   9.77464000
_cell_length_b   6.46208800
_cell_length_c   19.66555095
_cell_angle_alpha   85.89496898
_cell_angle_beta   90.00000000
_cell_angle_gamma   90.00000000
_symmetry_Int_Tables_number   1
_chemical_formula_structural   RbLaSe2O13
_chemical_formula_sum   'Rb4 La4 Se8 O52'
_cell_volume   1238.97956548
_cell_formula_units_Z   4
loop_
 _symmetry_equiv_pos_site_id
 _symmetry_equiv_pos_as_xyz
  1  'x, y, z'
loop_
 _atom_site_type_symbol
 _atom_site_label
 _atom_site_symmetry_multiplicity
 _atom_site_fract_x
 _atom_site_fract_y
 _atom_site_fract_z
 _atom_site_occupancy
  Rb  Rb0  1  0.98733600  0.29344800  0.38093100  1
  Rb  Rb1  1  0.01266400  0.70655200  0.61906900  1
  Rb  Rb2  1  0.48733600  0.70655200  0.11906900  1
  Rb  Rb3  1  0.51266400  0.29344800  0.88093100  1
  La  La0  1  0.91536700  0.29444100  0.13543500  1
  La  La1  1  0.08463300  0.70555900  0.86456500  1
  La  La2  1  0.41536700  0.70555900  0.36456500  1
  La  La3  1  0.58463300  0.29444100  0.63543500  1
  Se  Se0  1  0.21886600  0.35826800  0.02138100  1
  Se  Se1  1  0.78113400  0.64173200  0.97861900  1
  Se  Se2  1  0.71886600  0.64173200  0.47861900  1
  Se  Se3  1  0.28113400  0.35826800  0.52138100  1
  Se  Se4  1  0.23983600  0.11871300  0.23621200  1
  Se  Se5  1  0.76016400  0.88128700  0.76378800  1
  Se  Se6  1  0.73983600  0.88128700  0.26378800  1
  Se  Se7  1  0.26016400  0.11871300  0.73621200  1
  O  O0  1  0.03195100  0.68613600  0.15752400  1
  O  O1  1  0.96804900  0.31386400  0.84247600  1
  O  O2  1  0.53195100  0.31386400  0.34247600  1
  O  O3  1  0.46804900  0.68613600  0.65752400  1
  O  O4  1  0.07808700  0.22188000  0.04853700  1
  O  O5  1  0.92191300  0.77812000  0.95146300  1
  O  O6  1  0.57808700  0.77812000  0.45146300  1
  O  O7  1  0.42191300  0.22188000  0.54853700  1
  O  O8  1  0.50301600  0.16198100  0.38147600  1
  O  O9  1  0.49698400  0.83801900  0.61852400  1
  O  O10  1  0.00301600  0.83801900  0.11852400  1
  O  O11  1  0.99698400  0.16198100  0.88147600  1
  O  O12  1  0.76127400  0.00999200  0.18754800  1
  O  O13  1  0.23872600  0.99000800  0.81245200  1
  O  O14  1  0.26127400  0.99000800  0.31245200  1
  O  O15  1  0.73872600  0.00999200  0.68754800  1
  O  O16  1  0.34076500  0.37204700  0.23370600  1
  O  O17  1  0.65923500  0.62795300  0.76629400  1
  O  O18  1  0.84076500  0.62795300  0.26629400  1
  O  O19  1  0.15923500  0.37204700  0.73370600  1
  O  O20  1  0.31751400  0.46311600  0.44109900  1
  O  O21  1  0.68248600  0.53688400  0.55890100  1
  O  O22  1  0.81751400  0.53688400  0.05890100  1
  O  O23  1  0.18248600  0.46311600  0.94109900  1
  O  O24  1  0.69606500  0.14148300  0.04785900  1
  O  O25  1  0.30393500  0.85851700  0.95214100  1
  O  O26  1  0.19606500  0.85851700  0.45214100  1
  O  O27  1  0.80393500  0.14148300  0.54785900  1
  O  O28  1  0.35605600  0.21285000  0.01270200  1
  O  O29  1  0.64394400  0.78715000  0.98729800  1
  O  O30  1  0.85605600  0.78715000  0.48729800  1
  O  O31  1  0.14394400  0.21285000  0.51270200  1
  O  O32  1  0.24036300  0.54411300  0.07379800  1
  O  O33  1  0.75963700  0.45588700  0.92620200  1
  O  O34  1  0.74036300  0.45588700  0.42620200  1
  O  O35  1  0.25963700  0.54411300  0.57379800  1
  O  O36  1  0.07431700  0.19028000  0.23046900  1
  O  O37  1  0.92568300  0.80972000  0.76953100  1
  O  O38  1  0.57431700  0.80972000  0.26953100  1
  O  O39  1  0.42568300  0.19028000  0.73046900  1
  O  O40  1  0.79468400  0.00027700  0.32894000  1
  O  O41  1  0.20531600  0.99972300  0.67106000  1
  O  O42  1  0.29468400  0.99972300  0.17106000  1
  O  O43  1  0.70531600  0.00027700  0.82894000  1
  O  O44  1  0.59707800  0.20165200  0.08057600  1
  O  O45  1  0.40292200  0.79834800  0.91942400  1
  O  O46  1  0.09707800  0.79834800  0.41942400  1
  O  O47  1  0.90292200  0.20165200  0.58057600  1
  O  O48  1  0.30846600  0.49934500  0.28648200  1
  O  O49  1  0.69153400  0.50065500  0.71351800  1
  O  O50  1  0.80846600  0.50065500  0.21351800  1
  O  O51  1  0.19153400  0.49934500  0.78648200  1
loop_
_geom_bond_atom_site_label_1
_geom_bond_atom_site_label_2
_geom_bond_distance
_geom_bond_site_symmetry_2
La0 O22 2.301530 1_555
La0 O50 2.349141 1_555
La0 O4 2.405140 1_655
La0 O36 2.485890 1_655
La0 O12 2.535343 1_555
La0 O0 2.837523 1_655
La0 O24 2.963410 1_555
La0 O10 3.111948 1_645
La1 O23 2.301530 1_555
La1 O51 2.349141 1_555
La1 O5 2.405140 1_455
La1 O37 2.485890 1_455
La1 O13 2.535343 1_555
La1 O1 2.837523 1_455
La1 O25 2.963410 1_555
La1 O11 3.111948 1_465
La2 O20 2.301530 1_555
La2 O48 2.349141 1_555
La2 O6 2.405140 1_555
La2 O38 2.485890 1_555
La2 O14 2.535343 1_555
La2 O2 2.837523 1_555
La2 O26 2.963410 1_555
La2 O8 3.111948 1_565
La3 O21 2.301530 1_555
La3 O49 2.349141 1_555
La3 O7 2.405140 1_555
La3 O39 2.485890 1_555
La3 O15 2.535343 1_555
La3 O3 2.837523 1_555
La3 O27 2.963410 1_555
La3 O9 3.111948 1_545
O0 O10 1.234402 1_555
O1 O11 1.234402 1_555
O2 O8 1.234402 1_555
O3 O9 1.234402 1_555
O4 Se0 1.699453 1_555
O5 Se1 1.699453 1_555
O6 Se2 1.699453 1_555
O7 Se3 1.699453 1_555
O12 Se6 1.674818 1_545
O13 Se7 1.674818 1_565
O14 Se4 1.674818 1_565
O15 Se5 1.674818 1_545
O16 O48 1.405620 1_555
O16 Se4 1.908962 1_555
O16 Rb2 3.333125 1_555
O17 O49 1.405620 1_555
O17 Se5 1.908962 1_555
O17 Rb3 3.333125 1_555
O18 O50 1.405620 1_555
O18 Se6 1.908962 1_555
O18 Rb0 3.333125 1_555
O19 O51 1.405620 1_555
O19 Se7 1.908962 1_555
O19 Rb1 3.333125 1_555
O20 Se3 1.710245 1_555
O21 Se2 1.710245 1_555
O22 Se1 1.710245 1_554
O23 Se0 1.710245 1_556
O24 O44 1.239811 1_555
O25 O45 1.239811 1_555
O26 O46 1.239811 1_555
O27 O47 1.239811 1_555
O28 Se0 1.653291 1_555
O28 Rb3 3.022654 1_554
O29 Se1 1.653291 1_555
O29 Rb2 3.022654 1_556
O30 Se2 1.653291 1_555
O30 Rb1 3.022654 1_655
O31 Se3 1.653291 1_555
O31 Rb0 3.022654 1_455
O32 Se0 1.651130 1_555
O32 Rb2 2.802855 1_555
O33 Se1 1.651130 1_555
O33 Rb3 2.802855 1_555
O34 Se2 1.651130 1_555
O34 Rb0 2.802855 1_555
O35 Se3 1.651130 1_555
O35 Rb1 2.802855 1_555
O36 Se4 1.684257 1_555
O36 Rb0 3.194517 1_455
O37 Se5 1.684257 1_555
O37 Rb1 3.194517 1_655
O38 Se6 1.684257 1_555
O38 Rb2 3.194517 1_555
O39 Se7 1.684257 1_555
O39 Rb3 3.194517 1_555
O40 Se6 1.631355 1_545
O40 Rb0 2.908244 1_555
O41 Se7 1.631355 1_565
O41 Rb1 2.908244 1_555
O42 Se4 1.631355 1_565
O42 Rb2 2.908244 1_555
O43 Se5 1.631355 1_545
O43 Rb3 2.908244 1_555
O44 Rb2 3.407782 1_545
O44 Rb2 3.566870 1_555
O45 Rb3 3.407782 1_565
O45 Rb3 3.566870 1_555
O46 Rb0 3.407782 1_465
O46 Rb0 3.566870 1_455
O47 Rb1 3.407782 1_645
O47 Rb1 3.566870 1_655
