# generated using pymatgen
data_LiFeF3
_symmetry_space_group_name_H-M   'P 1'
_cell_length_a   6.13256700
_cell_length_b   6.13256700
_cell_length_c   6.13256700
_cell_angle_alpha   90.00000000
_cell_angle_beta   90.00000000
_cell_angle_gamma   90.00000000
_symmetry_Int_Tables_number   1
_chemical_formula_structural   LiFeF3
_chemical_formula_sum   'Li4 Fe4 F12'
_cell_volume   230.63589790
_cell_formula_units_Z   4
loop_
 _symmetry_equiv_pos_site_id
 _symmetry_equiv_pos_as_xyz
  1  'x, y, z'
loop_
 _atom_site_type_symbol
 _atom_site_label
 _atom_site_symmetry_multiplicity
 _atom_site_fract_x
 _atom_site_fract_y
 _atom_site_fract_z
 _atom_site_occupancy
  Li  Li0  1  0.87830400  0.87830400  0.87830400  1
  Li  Li1  1  0.12169600  0.37830400  0.62169600  1
  Li  Li2  1  0.62169600  0.12169600  0.37830400  1
  Li  Li3  1  0.37830400  0.62169600  0.12169600  1
  Fe  Fe0  1  0.16158700  0.16158700  0.16158700  1
  Fe  Fe1  1  0.33841300  0.83841300  0.66158700  1
  Fe  Fe2  1  0.66158700  0.33841300  0.83841300  1
  Fe  Fe3  1  0.83841300  0.66158700  0.33841300  1
  F  F0  1  0.01334400  0.73491300  0.62015400  1
  F  F1  1  0.26508700  0.12015400  0.48665600  1
  F  F2  1  0.12015400  0.48665600  0.26508700  1
  F  F3  1  0.37984600  0.51334400  0.76508700  1
  F  F4  1  0.23491300  0.87984600  0.98665600  1
  F  F5  1  0.48665600  0.26508700  0.12015400  1
  F  F6  1  0.51334400  0.76508700  0.37984600  1
  F  F7  1  0.76508700  0.37984600  0.51334400  1
  F  F8  1  0.62015400  0.01334400  0.73491300  1
  F  F9  1  0.87984600  0.98665600  0.23491300  1
  F  F10  1  0.73491300  0.62015400  0.01334400  1
  F  F11  1  0.98665600  0.23491300  0.87984600  1
loop_
_geom_bond_atom_site_label_1
_geom_bond_atom_site_label_2
_geom_bond_distance
_geom_bond_site_symmetry_2
F0 Li0 1.991321 1_455
F0 Fe3 2.082867 1_455
F0 Fe1 2.107488 1_555
F0 Li1 2.285667 1_555
F1 Li1 1.991321 1_555
F1 Fe1 2.082867 1_545
F1 Fe0 2.107488 1_555
F1 Li2 2.285667 1_555
F2 Li3 1.991321 1_555
F2 Fe3 2.082867 1_455
F2 Fe0 2.107488 1_555
F2 Li1 2.285667 1_555
F3 Li1 1.991321 1_555
F3 Fe2 2.082867 1_555
F3 Fe1 2.107488 1_555
F3 Li3 2.285667 1_556
F4 Li3 1.991321 1_556
F4 Fe0 2.082867 1_566
F4 Fe1 2.107488 1_555
F4 Li0 2.285667 1_455
F5 Li2 1.991321 1_555
F5 Fe2 2.082867 1_554
F5 Fe0 2.107488 1_555
F5 Li3 2.285667 1_555
F6 Li3 1.991321 1_555
F6 Fe1 2.082867 1_555
F6 Fe3 2.107488 1_555
F6 Li2 2.285667 1_565
F7 Li2 1.991321 1_555
F7 Fe3 2.082867 1_555
F7 Fe2 2.107488 1_555
F7 Li1 2.285667 1_655
F8 Li0 1.991321 1_545
F8 Fe1 2.082867 1_545
F8 Fe2 2.107488 1_555
F8 Li2 2.285667 1_555
F9 Li2 1.991321 1_565
F9 Fe0 2.082867 1_665
F9 Fe3 2.107488 1_555
F9 Li0 2.285667 1_554
F10 Li0 1.991321 1_554
F10 Fe2 2.082867 1_554
F10 Fe3 2.107488 1_555
F10 Li3 2.285667 1_555
F11 Li1 1.991321 1_655
F11 Fe0 2.082867 1_656
F11 Fe2 2.107488 1_555
F11 Li0 2.285667 1_545
