# generated using pymatgen
data_K3Er7S12
_symmetry_space_group_name_H-M   'P 1'
_cell_length_a   3.93759441
_cell_length_b   11.85030171
_cell_length_c   24.52391152
_cell_angle_alpha   90.00000000
_cell_angle_beta   90.00000000
_cell_angle_gamma   90.00000000
_symmetry_Int_Tables_number   1
_chemical_formula_structural   K3Er7S12
_chemical_formula_sum   'K6 Er14 S24'
_cell_volume   1144.32695510
_cell_formula_units_Z   2
loop_
 _symmetry_equiv_pos_site_id
 _symmetry_equiv_pos_as_xyz
  1  'x, y, z'
loop_
 _atom_site_type_symbol
 _atom_site_label
 _atom_site_symmetry_multiplicity
 _atom_site_fract_x
 _atom_site_fract_y
 _atom_site_fract_z
 _atom_site_occupancy
  K  K0  1  0.50000000  0.54874065  0.13127094  1
  K  K1  1  0.50000000  0.94326913  0.86104961  1
  K  K2  1  -0.00000000  0.05673087  0.36104961  1
  K  K3  1  -0.00000000  0.45125935  0.63127094  1
  K  K4  1  0.50000000  0.81032877  0.47199052  1
  K  K5  1  -0.00000000  0.18967123  0.97199052  1
  Er  Er0  1  0.50000000  0.31258574  0.81994651  1
  Er  Er1  1  0.50000000  0.19202702  0.17868322  1
  Er  Er2  1  -0.00000000  0.80797298  0.67868322  1
  Er  Er3  1  0.00000000  0.68741426  0.31994651  1
  Er  Er4  1  -0.00000000  0.24498975  0.49921294  1
  Er  Er5  1  0.50000000  0.75501025  0.99921294  1
  Er  Er6  1  0.50000000  0.47821244  0.42240865  1
  Er  Er7  1  0.50000000  0.02005560  0.58129361  1
  Er  Er8  1  0.00000000  0.97994440  0.08129361  1
  Er  Er9  1  0.00000000  0.52178756  0.92240865  1
  Er  Er10  1  0.50000000  0.64452858  0.78877934  1
  Er  Er11  1  0.50000000  0.85431731  0.21114040  1
  Er  Er12  1  -0.00000000  0.14568269  0.71114040  1
  Er  Er13  1  0.00000000  0.35547142  0.28877934  1
  S  S0  1  0.50000000  0.51888327  0.30811715  1
  S  S1  1  0.50000000  0.98040404  0.69346767  1
  S  S2  1  -0.00000000  0.01959596  0.19346767  1
  S  S3  1  0.00000000  0.48111673  0.80811715  1
  S  S4  1  0.50000000  0.65676427  0.67871807  1
  S  S5  1  0.50000000  0.84133840  0.32324089  1
  S  S6  1  0.00000000  0.15866160  0.82324089  1
  S  S7  1  -0.00000000  0.34323573  0.17871807  1
  S  S8  1  0.50000000  0.39486858  0.52212082  1
  S  S9  1  0.50000000  0.08919171  0.47728433  1
  S  S10  1  0.00000000  0.91080829  0.97728433  1
  S  S11  1  -0.00000000  0.60513142  0.02212082  1
  S  S12  1  0.50000000  0.36690981  0.92616382  1
  S  S13  1  0.50000000  0.13433147  0.07325749  1
  S  S14  1  0.00000000  0.86566853  0.57325749  1
  S  S15  1  -0.00000000  0.63309019  0.42616382  1
  S  S16  1  0.50000000  0.29467147  0.71226093  1
  S  S17  1  0.50000000  0.20644556  0.28704448  1
  S  S18  1  -0.00000000  0.79355444  0.78704448  1
  S  S19  1  -0.00000000  0.70532853  0.21226093  1
  S  S20  1  0.50000000  0.67101708  0.89812500  1
  S  S21  1  0.50000000  0.82955506  0.10232062  1
  S  S22  1  -0.00000000  0.17044494  0.60232062  1
  S  S23  1  -0.00000000  0.32898292  0.39812500  1
loop_
_geom_bond_atom_site_label_1
_geom_bond_atom_site_label_2
_geom_bond_distance
_geom_bond_site_symmetry_2
K0 S7 3.340773 1_655
K0 S7 3.340773 1_555
K0 S19 3.356251 1_555
K0 S19 3.356251 1_655
K0 S11 3.389382 1_555
K0 S11 3.389382 1_655
K0 S21 3.402630 1_555
K1 S18 3.212112 1_555
K1 S18 3.212112 1_655
K1 S20 3.351942 1_555
K1 S6 3.354248 1_565
K1 S6 3.354248 1_665
K1 S10 3.485636 1_655
K1 S10 3.485636 1_555
K2 S17 3.212112 1_455
K2 S17 3.212112 1_555
K2 S23 3.351942 1_555
K2 S5 3.354248 1_545
K2 S5 3.354248 1_445
K2 S9 3.485636 1_555
K2 S9 3.485636 1_455
K3 S4 3.340773 1_455
K3 S4 3.340773 1_555
K3 S16 3.356251 1_455
K3 S16 3.356251 1_555
K3 S8 3.389382 1_455
K3 S8 3.389382 1_555
K3 S22 3.402630 1_555
K4 S15 3.090403 1_555
K4 S15 3.090403 1_655
K4 S14 3.236327 1_555
K4 S14 3.236327 1_655
K4 S9 3.307159 1_565
K4 S5 3.666385 1_555
K5 S12 3.090403 1_455
K5 S12 3.090403 1_555
K5 S13 3.236327 1_556
K5 S13 3.236327 1_456
K5 S10 3.307159 1_545
K5 S6 3.666385 1_555
Er0 S16 2.649390 1_555
Er0 S12 2.683233 1_555
Er0 S6 2.685114 1_555
Er0 S6 2.685114 1_655
Er0 S3 2.819380 1_555
Er0 S3 2.819380 1_655
Er1 S7 2.662134 1_555
Er1 S7 2.662134 1_655
Er1 S17 2.662929 1_555
Er1 S13 2.674326 1_555
Er1 S2 2.860584 1_655
Er1 S2 2.860584 1_555
Er2 S4 2.662134 1_455
Er2 S4 2.662134 1_555
Er2 S18 2.662929 1_555
Er2 S14 2.674326 1_555
Er2 S1 2.860584 1_555
Er2 S1 2.860584 1_455
Er3 S19 2.649390 1_555
Er3 S15 2.683233 1_555
Er3 S5 2.685114 1_555
Er3 S5 2.685114 1_455
Er3 S0 2.819380 1_455
Er3 S0 2.819380 1_555
Er4 S23 2.671424 1_555
Er4 S22 2.678469 1_555
Er4 S8 2.710412 1_455
Er4 S8 2.710412 1_555
Er4 S9 2.752093 1_555
Er4 S9 2.752093 1_455
Er5 S20 2.671424 1_555
Er5 S21 2.678469 1_556
Er5 S11 2.710412 1_556
Er5 S11 2.710412 1_656
Er5 S10 2.752093 1_555
Er5 S10 2.752093 1_655
Er6 S8 2.637253 1_555
Er6 S15 2.693166 1_555
Er6 S15 2.693166 1_655
Er6 S23 2.712584 1_555
Er6 S23 2.712584 1_655
Er6 S0 2.844010 1_555
Er7 S9 2.679061 1_555
Er7 S14 2.694846 1_645
Er7 S14 2.694846 1_545
Er7 S22 2.705210 1_555
Er7 S22 2.705210 1_655
Er7 S1 2.790788 1_545
Er8 S10 2.679061 1_554
Er8 S13 2.694846 1_565
Er8 S13 2.694846 1_465
Er8 S21 2.705210 1_455
Er8 S21 2.705210 1_555
Er8 S2 2.790788 1_565
Er9 S11 2.637253 1_556
Er9 S12 2.693166 1_455
Er9 S12 2.693166 1_555
Er9 S20 2.712584 1_555
Er9 S20 2.712584 1_455
Er9 S3 2.844010 1_555
Er10 S18 2.645134 1_655
Er10 S18 2.645134 1_555
Er10 S20 2.699893 1_555
Er10 S4 2.703025 1_555
Er10 S3 2.801967 1_555
Er10 S3 2.801967 1_655
Er11 S19 2.644641 1_555
Er11 S19 2.644641 1_655
Er11 S21 2.684771 1_555
Er11 S5 2.753442 1_555
Er11 S2 2.810716 1_565
Er11 S2 2.810716 1_665
Er12 S16 2.644641 1_555
Er12 S16 2.644641 1_455
Er12 S22 2.684771 1_555
Er12 S6 2.753442 1_555
Er12 S1 2.810716 1_445
Er12 S1 2.810716 1_545
Er13 S17 2.645134 1_455
Er13 S17 2.645134 1_555
Er13 S23 2.699893 1_555
Er13 S7 2.703025 1_555
Er13 S0 2.801967 1_455
Er13 S0 2.801967 1_555
