# generated using pymatgen
data_Mg2CoB2Ir5
_symmetry_space_group_name_H-M   'P 1'
_cell_length_a   9.44688900
_cell_length_b   9.44688900
_cell_length_c   2.89657500
_cell_angle_alpha   90.00000000
_cell_angle_beta   90.00000000
_cell_angle_gamma   90.00000000
_symmetry_Int_Tables_number   1
_chemical_formula_structural   Mg2CoB2Ir5
_chemical_formula_sum   'Mg4 Co2 B4 Ir10'
_cell_volume   258.50110444
_cell_formula_units_Z   2
loop_
 _symmetry_equiv_pos_site_id
 _symmetry_equiv_pos_as_xyz
  1  'x, y, z'
loop_
 _atom_site_type_symbol
 _atom_site_label
 _atom_site_symmetry_multiplicity
 _atom_site_fract_x
 _atom_site_fract_y
 _atom_site_fract_z
 _atom_site_occupancy
  Mg  Mg0  1  0.82346000  0.32346000  0.00000000  1
  Mg  Mg1  1  0.17654000  0.67654000  0.00000000  1
  Mg  Mg2  1  0.32346000  0.17654000  0.00000000  1
  Mg  Mg3  1  0.67654000  0.82346000  0.00000000  1
  Co  Co0  1  0.50000000  0.50000000  0.00000000  1
  Co  Co1  1  0.00000000  0.00000000  0.00000000  1
  B  B0  1  0.62638300  0.12638300  0.00000000  1
  B  B1  1  0.37361700  0.87361700  0.00000000  1
  B  B2  1  0.12638300  0.37361700  0.00000000  1
  B  B3  1  0.87361700  0.62638300  0.00000000  1
  Ir  Ir0  1  0.50000000  0.00000000  0.50000000  1
  Ir  Ir1  1  0.00000000  0.50000000  0.50000000  1
  Ir  Ir2  1  0.71433000  0.57058400  0.50000000  1
  Ir  Ir3  1  0.28567000  0.42941600  0.50000000  1
  Ir  Ir4  1  0.21433000  0.92941600  0.50000000  1
  Ir  Ir5  1  0.78567000  0.07058400  0.50000000  1
  Ir  Ir6  1  0.42941600  0.71433000  0.50000000  1
  Ir  Ir7  1  0.57058400  0.28567000  0.50000000  1
  Ir  Ir8  1  0.07058400  0.21433000  0.50000000  1
  Ir  Ir9  1  0.92941600  0.78567000  0.50000000  1
loop_
_geom_bond_atom_site_label_1
_geom_bond_atom_site_label_2
_geom_bond_distance
_geom_bond_site_symmetry_2
Co0 Ir7 2.577165 1_555
Co0 Ir7 2.577165 1_554
Co0 Ir2 2.577165 1_555
Co0 Ir2 2.577165 1_554
Co0 Ir3 2.577165 1_555
Co0 Ir6 2.577165 1_555
Co0 Ir6 2.577165 1_554
Co0 Ir3 2.577165 1_554
Co1 Ir5 2.577165 1_454
Co1 Ir5 2.577165 1_455
Co1 Ir8 2.577165 1_555
Co1 Ir8 2.577165 1_554
Co1 Ir9 2.577165 1_444
Co1 Ir9 2.577165 1_445
Co1 Ir4 2.577165 1_544
Co1 Ir4 2.577165 1_545
B0 Ir7 2.154001 1_554
B0 Ir7 2.154001 1_555
B0 Ir5 2.154001 1_554
B0 Ir5 2.154001 1_555
B0 Ir0 2.224513 1_554
B0 Ir0 2.224513 1_555
B0 Mg0 2.632933 1_555
B1 Ir6 2.154001 1_555
B1 Ir6 2.154001 1_554
B1 Ir4 2.154001 1_555
B1 Ir4 2.154001 1_554
B1 Ir0 2.224513 1_565
B1 Ir0 2.224513 1_564
B1 Mg1 2.632933 1_555
B2 Ir3 2.154001 1_555
B2 Ir3 2.154001 1_554
B2 Ir8 2.154001 1_555
B2 Ir8 2.154001 1_554
B2 Ir1 2.224513 1_554
B2 Ir1 2.224513 1_555
B2 Mg2 2.632933 1_555
B3 Ir9 2.154001 1_554
B3 Ir9 2.154001 1_555
B3 Ir2 2.154001 1_555
B3 Ir2 2.154001 1_554
B3 Ir1 2.224513 1_654
B3 Ir1 2.224513 1_655
B3 Mg3 2.632933 1_555
Ir0 Mg3 2.767732 1_545
Ir0 Mg3 2.767732 1_546
Ir0 Mg2 2.767732 1_556
Ir0 Mg2 2.767732 1_555
Ir1 Mg0 2.767732 1_456
Ir1 Mg0 2.767732 1_455
Ir1 Mg1 2.767732 1_556
Ir1 Mg1 2.767732 1_555
Ir2 Mg3 2.816343 1_555
Ir2 Mg3 2.816343 1_556
Ir2 Mg0 2.934367 1_555
Ir2 Mg0 2.934367 1_556
Ir3 Mg2 2.816343 1_556
Ir3 Mg2 2.816343 1_555
Ir3 Mg1 2.934367 1_556
Ir3 Mg1 2.934367 1_555
Ir4 Mg1 2.816343 1_556
Ir4 Mg1 2.816343 1_555
Ir4 Mg2 2.934367 1_565
Ir4 Mg2 2.934367 1_566
Ir5 Mg0 2.816343 1_555
Ir5 Mg0 2.816343 1_556
Ir5 Mg3 2.934367 1_545
Ir5 Mg3 2.934367 1_546
Ir6 Mg1 2.816343 1_556
Ir6 Mg1 2.816343 1_555
Ir6 Mg3 2.934367 1_556
Ir6 Mg3 2.934367 1_555
Ir7 Mg0 2.816343 1_555
Ir7 Mg0 2.816343 1_556
Ir7 Mg2 2.934367 1_555
Ir7 Mg2 2.934367 1_556
Ir8 Mg2 2.816343 1_555
Ir8 Mg2 2.816343 1_556
Ir8 Mg0 2.934367 1_456
Ir8 Mg0 2.934367 1_455
Ir9 Mg3 2.816343 1_555
Ir9 Mg3 2.816343 1_556
Ir9 Mg1 2.934367 1_655
Ir9 Mg1 2.934367 1_656
