# generated using pymatgen
data_Yb3Cu6Sn5
_symmetry_space_group_name_H-M   'P 1'
_cell_length_a   8.36355008
_cell_length_b   8.36355008
_cell_length_c   8.36355008
_cell_angle_alpha   149.57366651
_cell_angle_beta   107.46460386
_cell_angle_gamma   80.65391348
_symmetry_Int_Tables_number   1
_chemical_formula_structural   Yb3Cu6Sn5
_chemical_formula_sum   'Yb3 Cu6 Sn5'
_cell_volume   276.93262019
_cell_formula_units_Z   1
loop_
 _symmetry_equiv_pos_site_id
 _symmetry_equiv_pos_as_xyz
  1  'x, y, z'
loop_
 _atom_site_type_symbol
 _atom_site_label
 _atom_site_symmetry_multiplicity
 _atom_site_fract_x
 _atom_site_fract_y
 _atom_site_fract_z
 _atom_site_occupancy
  Yb  Yb0  1  0.00000000  0.00000000  0.00000000  1
  Yb  Yb1  1  0.68707000  0.68707000  0.00000000  1
  Yb  Yb2  1  0.31293000  0.31293000  0.00000000  1
  Cu  Cu0  1  0.30575800  0.50000000  0.80575800  1
  Cu  Cu1  1  0.69424200  0.50000000  0.19424200  1
  Cu  Cu2  1  0.39704700  0.11681700  0.28022900  1
  Cu  Cu3  1  0.83658800  0.11681700  0.71977100  1
  Cu  Cu4  1  0.16341200  0.88318300  0.28022900  1
  Cu  Cu5  1  0.60295300  0.88318300  0.71977100  1
  Sn  Sn0  1  0.32656600  0.67316600  0.65340000  1
  Sn  Sn1  1  0.50000000  0.00000000  0.50000000  1
  Sn  Sn2  1  0.67343400  0.32683400  0.34660000  1
  Sn  Sn3  1  0.98023400  0.32683400  0.65340000  1
  Sn  Sn4  1  0.01976600  0.67316600  0.34660000  1
loop_
_geom_bond_atom_site_label_1
_geom_bond_atom_site_label_2
_geom_bond_distance
_geom_bond_site_symmetry_2
Cu0 Cu4 2.664502 1_545
Cu0 Cu4 2.664502 1_556
Cu0 Cu2 2.664503 1_566
Cu0 Cu2 2.664507 1_555
Cu0 Sn3 2.673788 1_455
Cu0 Sn0 2.673788 1_555
Cu0 Sn1 2.917341 1_566
Cu0 Sn1 2.917341 1_555
Cu0 Yb1 3.063501 1_556
Cu0 Yb2 3.063501 1_556
Cu1 Cu3 2.664502 1_565
Cu1 Cu3 2.664502 1_554
Cu1 Cu5 2.664503 1_544
Cu1 Cu5 2.664507 1_555
Cu1 Sn4 2.673788 1_655
Cu1 Sn2 2.673788 1_555
Cu1 Sn1 2.917341 1_554
Cu1 Sn1 2.917341 1_565
Cu1 Yb1 3.063501 1_555
Cu1 Yb2 3.063501 1_555
Cu2 Sn0 2.628301 1_544
Cu2 Sn0 2.628304 1_555
Cu2 Sn1 2.635943 1_555
Cu2 Sn2 2.757507 1_555
Cu2 Yb0 3.147703 1_555
Cu2 Yb1 3.216877 1_545
Cu2 Yb1 3.216880 1_556
Cu3 Sn4 2.628302 1_656
Cu3 Sn4 2.628302 1_645
Cu3 Sn1 2.635944 1_555
Cu3 Sn3 2.757514 1_555
Cu3 Yb0 3.147696 1_656
Cu3 Yb1 3.216883 1_556
Cu3 Yb1 3.216883 1_545
Cu4 Sn3 2.628302 1_465
Cu4 Sn3 2.628302 1_454
Cu4 Sn1 2.635944 1_565
Cu4 Sn4 2.757514 1_555
Cu4 Yb0 3.147696 1_565
Cu4 Yb2 3.216883 1_566
Cu4 Yb2 3.216883 1_555
Cu5 Sn2 2.628301 1_566
Cu5 Sn2 2.628304 1_555
Cu5 Sn1 2.635943 1_565
Cu5 Sn0 2.757507 1_555
Cu5 Yb0 3.147703 1_666
Cu5 Yb2 3.216877 1_566
Cu5 Yb2 3.216880 1_555
Sn0 Sn4 3.035805 1_555
Sn0 Yb2 3.208931 1_566
Sn0 Yb2 3.208931 1_555
Sn0 Yb1 3.434209 1_556
Sn0 Yb0 3.463667 1_555
Sn0 Yb0 3.463667 1_566
Sn1 Yb1 3.241522 1_545
Sn1 Yb1 3.241522 1_556
Sn1 Yb2 3.241522 1_556
Sn1 Yb2 3.241522 1_545
Sn2 Sn3 3.035805 1_555
Sn2 Yb1 3.208931 1_545
Sn2 Yb1 3.208931 1_556
Sn2 Yb2 3.434209 1_555
Sn2 Yb0 3.463667 1_666
Sn2 Yb0 3.463667 1_655
Sn3 Yb1 3.208931 1_545
Sn3 Yb1 3.208931 1_556
Sn3 Yb2 3.434209 1_656
Sn3 Yb0 3.463667 1_666
Sn3 Yb0 3.463667 1_655
Sn4 Yb2 3.208931 1_555
Sn4 Yb2 3.208931 1_566
Sn4 Yb1 3.434209 1_455
Sn4 Yb0 3.463667 1_555
Sn4 Yb0 3.463667 1_566
