# generated using pymatgen
data_MgAg6Mo10O33
_symmetry_space_group_name_H-M   'P 1'
_cell_length_a   7.80643721
_cell_length_b   8.32197164
_cell_length_c   11.53217015
_cell_angle_alpha   82.25675036
_cell_angle_beta   76.32370912
_cell_angle_gamma   77.31894477
_symmetry_Int_Tables_number   1
_chemical_formula_structural   MgAg6Mo10O33
_chemical_formula_sum   'Mg1 Ag6 Mo10 O33'
_cell_volume   707.47215563
_cell_formula_units_Z   1
loop_
 _symmetry_equiv_pos_site_id
 _symmetry_equiv_pos_as_xyz
  1  'x, y, z'
loop_
 _atom_site_type_symbol
 _atom_site_label
 _atom_site_symmetry_multiplicity
 _atom_site_fract_x
 _atom_site_fract_y
 _atom_site_fract_z
 _atom_site_occupancy
  Mg  Mg0  1  0.73869248  0.41250250  0.29112796  1
  Ag  Ag0  1  0.35335023  0.99782240  0.25057536  1
  Ag  Ag1  1  0.64736283  0.95541793  0.76507799  1
  Ag  Ag2  1  0.25475517  0.35301246  0.23780665  1
  Ag  Ag3  1  0.89123253  0.48716175  0.79130584  1
  Ag  Ag4  1  0.40296528  0.63077258  0.25018074  1
  Ag  Ag5  1  0.53327349  0.43843903  0.76794781  1
  Mo  Mo0  1  0.45097499  0.24201202  0.49463768  1
  Mo  Mo1  1  0.55137127  0.78358943  0.50834456  1
  Mo  Mo2  1  0.94596213  0.23877797  0.49566223  1
  Mo  Mo3  1  0.04780472  0.78558990  0.51258783  1
  Mo  Mo4  1  0.82736457  0.77438104  0.05192274  1
  Mo  Mo5  1  0.15734845  0.20300497  0.95927519  1
  Mo  Mo6  1  0.72708483  0.17548193  0.01118645  1
  Mo  Mo7  1  0.25293139  0.80161815  0.97602800  1
  Mo  Mo8  1  0.81974886  0.00800271  0.31943517  1
  Mo  Mo9  1  0.18882070  0.01441261  0.67448569  1
  O  O0  1  0.98034181  0.98651981  0.99694694  1
  O  O1  1  0.07364124  0.66466064  0.02142012  1
  O  O2  1  0.90778804  0.31883246  0.96890977  1
  O  O3  1  0.64576781  0.97387534  0.08973628  1
  O  O4  1  0.33302968  0.00855257  0.91025283  1
  O  O5  1  0.54103559  0.31704006  0.07762190  1
  O  O6  1  0.43547903  0.65611962  0.91325120  1
  O  O7  1  0.73358844  0.61305031  0.15026999  1
  O  O8  1  0.27318075  0.35703878  0.88783416  1
  O  O9  1  0.18001635  0.19130776  0.10885311  1
  O  O10  1  0.78090060  0.75805681  0.91225189  1
  O  O11  1  0.29101260  0.81500172  0.12063473  1
  O  O12  1  0.68727918  0.17199485  0.86636138  1
  O  O13  1  0.80172591  0.18070504  0.20669009  1
  O  O14  1  0.19451321  0.84225768  0.78264163  1
  O  O15  1  0.88529957  0.84084131  0.22958494  1
  O  O16  1  0.11379072  0.17946145  0.76724393  1
  O  O17  1  0.47590155  0.37134604  0.34038453  1
  O  O18  1  0.57708617  0.68054261  0.64755655  1
  O  O19  1  0.97038533  0.37309527  0.34799852  1
  O  O20  1  0.00305742  0.65747167  0.64425758  1
  O  O21  1  0.03548651  0.00605559  0.37468945  1
  O  O22  1  0.97623172  0.00711910  0.61579071  1
  O  O23  1  0.55930437  0.99493651  0.37829559  1
  O  O24  1  0.44715540  0.01767168  0.61944574  1
  O  O25  1  0.14544593  0.65060677  0.40195572  1
  O  O26  1  0.83959383  0.36021190  0.61446035  1
  O  O27  1  0.61155596  0.62845422  0.40823479  1
  O  O28  1  0.41511124  0.37691485  0.60343902  1
  O  O29  1  0.72461372  0.19627299  0.44757798  1
  O  O30  1  0.28914995  0.82917451  0.52743719  1
  O  O31  1  0.79955136  0.84093175  0.48506078  1
  O  O32  1  0.20593510  0.19125393  0.50865575  1
loop_
_geom_bond_atom_site_label_1
_geom_bond_atom_site_label_2
_geom_bond_distance
_geom_bond_site_symmetry_2
Mg0 O19 2.012860 1_555
Mg0 O17 2.086501 1_555
Mg0 O7 2.167148 1_555
Mg0 O13 2.185006 1_555
Mg0 O27 2.296886 1_555
Mg0 O29 2.371391 1_555
Ag0 O23 2.418308 1_555
Ag0 O11 2.466028 1_555
Ag0 O9 2.544562 1_565
Ag0 O21 2.546156 1_565
Ag0 O3 2.566843 1_555
Ag1 O12 2.386583 1_565
Ag1 O10 2.449217 1_555
Ag1 O24 2.486545 1_565
Ag1 O4 2.607705 1_565
Ag1 O22 2.816981 1_565
Ag2 O19 2.265204 1_455
Ag2 O17 2.352222 1_555
Ag2 O9 2.378464 1_555
Ag2 O5 2.529747 1_555
Ag3 O20 2.200468 1_655
Ag3 O2 2.333781 1_555
Ag3 O26 2.567911 1_555
Ag3 O10 2.682572 1_555
Ag3 O16 2.768174 1_655
Ag4 O11 2.181315 1_555
Ag4 O17 2.280903 1_555
Ag4 O25 2.323880 1_555
Ag4 O7 2.546220 1_555
Ag4 O27 2.711894 1_555
Ag5 O18 2.329832 1_555
Ag5 O8 2.348815 1_555
Ag5 O28 2.451282 1_555
Ag5 O6 2.505630 1_555
Ag5 O12 2.539037 1_555
Ag5 O26 2.626893 1_555
Mo0 O28 1.728735 1_555
Mo0 O17 1.942433 1_555
Mo0 O32 2.013413 1_555
Mo0 O29 2.037891 1_555
Mo0 O24 2.199560 1_555
Mo0 O23 2.487258 1_545
Mo1 O18 1.748967 1_555
Mo1 O27 1.760445 1_555
Mo1 O30 1.962421 1_555
Mo1 O31 2.044196 1_555
Mo1 O23 2.153982 1_555
Mo1 O24 2.362645 1_565
Mo2 O26 1.747674 1_555
Mo2 O19 1.900717 1_555
Mo2 O32 2.018173 1_655
Mo2 O29 2.047607 1_555
Mo2 O22 2.219630 1_555
Mo2 O21 2.420388 1_655
Mo3 O25 1.738104 1_555
Mo3 O20 1.743816 1_555
Mo3 O31 1.981988 1_455
Mo3 O30 2.044467 1_555
Mo3 O22 2.225289 1_465
Mo3 O21 2.261191 1_565
Mo4 O10 1.761041 1_554
Mo4 O7 1.803706 1_555
Mo4 O1 1.910412 1_655
Mo4 O3 1.955886 1_555
Mo4 O0 2.282710 1_554
Mo4 O15 2.358283 1_555
Mo5 O8 1.735405 1_555
Mo5 O9 1.762895 1_556
Mo5 O4 1.929931 1_555
Mo5 O2 1.959310 1_455
Mo5 O16 2.358057 1_555
Mo5 O0 2.437618 1_445
Mo6 O5 1.746427 1_555
Mo6 O12 1.774606 1_554
Mo6 O3 1.955651 1_545
Mo6 O2 1.976785 1_554
Mo6 O0 2.227014 1_544
Mo6 O13 2.466431 1_555
Mo7 O6 1.735447 1_555
Mo7 O11 1.783474 1_556
Mo7 O1 1.930064 1_556
Mo7 O4 1.956648 1_565
Mo7 O0 2.318145 1_455
Mo7 O14 2.346477 1_555
Mo8 O15 1.759501 1_545
Mo8 O13 1.808339 1_555
Mo8 O21 1.932697 1_655
Mo8 O23 2.007692 1_545
Mo8 O29 2.187283 1_555
Mo8 O31 2.200996 1_545
Mo9 O16 1.766452 1_555
Mo9 O14 1.768316 1_545
Mo9 O22 1.949996 1_455
Mo9 O24 1.970956 1_555
Mo9 O32 2.246769 1_555
Mo9 O30 2.326322 1_545
