# generated using pymatgen
data_KTi4Cl11
_symmetry_space_group_name_H-M   'P 1'
_cell_length_a   6.84492100
_cell_length_b   13.23460300
_cell_length_c   16.97242700
_cell_angle_alpha   90.00000000
_cell_angle_beta   90.00000000
_cell_angle_gamma   90.00000000
_symmetry_Int_Tables_number   1
_chemical_formula_structural   KTi4Cl11
_chemical_formula_sum   'K4 Ti16 Cl44'
_cell_volume   1537.52897114
_cell_formula_units_Z   4
loop_
 _symmetry_equiv_pos_site_id
 _symmetry_equiv_pos_as_xyz
  1  'x, y, z'
loop_
 _atom_site_type_symbol
 _atom_site_label
 _atom_site_symmetry_multiplicity
 _atom_site_fract_x
 _atom_site_fract_y
 _atom_site_fract_z
 _atom_site_occupancy
  K  K0  1  0.25000000  0.49577400  0.76023300  1
  K  K1  1  0.25000000  0.99577400  0.73976700  1
  K  K2  1  0.75000000  0.50422600  0.23976700  1
  K  K3  1  0.75000000  0.00422600  0.26023300  1
  Ti  Ti0  1  0.25000000  0.31585200  0.34999100  1
  Ti  Ti1  1  0.25000000  0.81585200  0.15000900  1
  Ti  Ti2  1  0.75000000  0.68414800  0.65000900  1
  Ti  Ti3  1  0.75000000  0.18414800  0.84999100  1
  Ti  Ti4  1  0.03521700  0.25406100  0.49272900  1
  Ti  Ti5  1  0.46478300  0.75406100  0.00727100  1
  Ti  Ti6  1  0.53521700  0.74593900  0.50727100  1
  Ti  Ti7  1  0.96478300  0.24593900  0.99272900  1
  Ti  Ti8  1  0.96478300  0.74593900  0.50727100  1
  Ti  Ti9  1  0.53521700  0.24593900  0.99272900  1
  Ti  Ti10  1  0.46478300  0.25406100  0.49272900  1
  Ti  Ti11  1  0.03521700  0.75406100  0.00727100  1
  Ti  Ti12  1  0.25000000  0.31908500  0.15672900  1
  Ti  Ti13  1  0.25000000  0.81908500  0.34327100  1
  Ti  Ti14  1  0.75000000  0.68091500  0.84327100  1
  Ti  Ti15  1  0.75000000  0.18091500  0.65672900  1
  Cl  Cl0  1  0.25000000  0.15255600  0.41104900  1
  Cl  Cl1  1  0.25000000  0.65255600  0.08895100  1
  Cl  Cl2  1  0.75000000  0.84744400  0.58895100  1
  Cl  Cl3  1  0.75000000  0.34744400  0.91104900  1
  Cl  Cl4  1  0.25000000  0.33562200  0.58283700  1
  Cl  Cl5  1  0.25000000  0.83562200  0.91716300  1
  Cl  Cl6  1  0.75000000  0.66437800  0.41716300  1
  Cl  Cl7  1  0.75000000  0.16437800  0.08283700  1
  Cl  Cl8  1  0.99800000  0.09496500  0.91612600  1
  Cl  Cl9  1  0.50200000  0.59496500  0.58387400  1
  Cl  Cl10  1  0.49800000  0.90503500  0.08387400  1
  Cl  Cl11  1  0.00200000  0.40503500  0.41612600  1
  Cl  Cl12  1  0.00200000  0.90503500  0.08387400  1
  Cl  Cl13  1  0.49800000  0.40503500  0.41612600  1
  Cl  Cl14  1  0.50200000  0.09496500  0.91612600  1
  Cl  Cl15  1  0.99800000  0.59496500  0.58387400  1
  Cl  Cl16  1  0.25000000  0.46374800  0.25051600  1
  Cl  Cl17  1  0.25000000  0.96374800  0.24948400  1
  Cl  Cl18  1  0.75000000  0.53625200  0.74948400  1
  Cl  Cl19  1  0.75000000  0.03625200  0.75051600  1
  Cl  Cl20  1  0.01192500  0.24858200  0.25066300  1
  Cl  Cl21  1  0.48807500  0.74858200  0.24933700  1
  Cl  Cl22  1  0.51192500  0.75141800  0.74933700  1
  Cl  Cl23  1  0.98807500  0.25141800  0.75066300  1
  Cl  Cl24  1  0.98807500  0.75141800  0.74933700  1
  Cl  Cl25  1  0.51192500  0.25141800  0.75066300  1
  Cl  Cl26  1  0.48807500  0.24858200  0.25066300  1
  Cl  Cl27  1  0.01192500  0.74858200  0.24933700  1
  Cl  Cl28  1  0.25000000  0.32202300  0.92139500  1
  Cl  Cl29  1  0.25000000  0.82202300  0.57860500  1
  Cl  Cl30  1  0.75000000  0.67797700  0.07860500  1
  Cl  Cl31  1  0.75000000  0.17797700  0.42139500  1
  Cl  Cl32  1  0.25000000  0.16896200  0.07313000  1
  Cl  Cl33  1  0.25000000  0.66896200  0.42687000  1
  Cl  Cl34  1  0.75000000  0.83103800  0.92687000  1
  Cl  Cl35  1  0.75000000  0.33103800  0.57313000  1
  Cl  Cl36  1  0.00531400  0.10301100  0.58142400  1
  Cl  Cl37  1  0.49468600  0.60301100  0.91857600  1
  Cl  Cl38  1  0.50531400  0.89698900  0.41857600  1
  Cl  Cl39  1  0.99468600  0.39698900  0.08142400  1
  Cl  Cl40  1  0.99468600  0.89698900  0.41857600  1
  Cl  Cl41  1  0.50531400  0.39698900  0.08142400  1
  Cl  Cl42  1  0.49468600  0.10301100  0.58142400  1
  Cl  Cl43  1  0.00531400  0.60301100  0.91857600  1
loop_
_geom_bond_atom_site_label_1
_geom_bond_atom_site_label_2
_geom_bond_distance
_geom_bond_site_symmetry_2
Cl0 Ti0 2.396774 1_555
Cl0 Ti10 2.426504 1_555
Cl0 Ti4 2.426504 1_555
Cl1 Ti1 2.396774 1_555
Cl1 Ti5 2.426504 1_555
Cl1 Ti11 2.426504 1_555
Cl2 Ti2 2.396774 1_555
Cl2 Ti8 2.426504 1_555
Cl2 Ti6 2.426504 1_555
Cl3 Ti3 2.396774 1_555
Cl3 Ti7 2.426504 1_555
Cl3 Ti9 2.426504 1_555
Cl4 Ti4 2.380228 1_555
Cl4 Ti10 2.380228 1_555
Cl4 K0 3.682071 1_555
Cl5 Ti11 2.380228 1_556
Cl5 Ti5 2.380228 1_556
Cl5 K1 3.682071 1_555
Cl6 Ti8 2.380228 1_555
Cl6 Ti6 2.380228 1_555
Cl6 K2 3.682071 1_555
Cl7 Ti7 2.380228 1_554
Cl7 Ti9 2.380228 1_554
Cl7 K3 3.682071 1_555
Cl8 Ti3 2.352594 1_555
Cl8 Ti7 2.394658 1_555
Cl8 K1 3.695695 1_645
Cl9 Ti2 2.352594 1_555
Cl9 Ti6 2.394658 1_555
Cl9 K0 3.695695 1_555
Cl10 Ti1 2.352594 1_555
Cl10 Ti5 2.394658 1_555
Cl10 K3 3.695695 1_565
Cl11 Ti0 2.352594 1_555
Cl11 Ti4 2.394658 1_555
Cl11 K2 3.695695 1_455
Cl12 Ti1 2.352594 1_555
Cl12 Ti11 2.394658 1_555
Cl12 K3 3.695695 1_465
Cl13 Ti0 2.352594 1_555
Cl13 Ti10 2.394658 1_555
Cl13 K2 3.695695 1_555
Cl14 Ti3 2.352594 1_555
Cl14 Ti9 2.394658 1_555
Cl14 K1 3.695695 1_545
Cl15 Ti2 2.352594 1_555
Cl15 Ti8 2.394658 1_555
Cl15 K0 3.695695 1_655
Cl16 Ti12 2.489846 1_555
Cl16 Ti0 2.584892 1_555
Cl16 K2 3.468934 1_455
Cl16 K2 3.468934 1_555
Cl17 Ti13 2.489846 1_555
Cl17 Ti1 2.584892 1_555
Cl17 K3 3.468934 1_465
Cl17 K3 3.468934 1_565
Cl18 Ti14 2.489846 1_555
Cl18 Ti2 2.584892 1_555
Cl18 K0 3.468934 1_655
Cl18 K0 3.468934 1_555
Cl19 Ti15 2.489846 1_555
Cl19 Ti3 2.584892 1_555
Cl19 K1 3.468934 1_645
Cl19 K1 3.468934 1_545
Cl20 Ti12 2.463331 1_555
Cl20 Ti0 2.508043 1_555
Cl20 K3 3.701240 1_455
Cl21 Ti13 2.463331 1_555
Cl21 Ti1 2.508043 1_555
Cl21 K2 3.701240 1_555
Cl22 Ti14 2.463331 1_555
Cl22 Ti2 2.508043 1_555
Cl22 K1 3.701240 1_555
Cl23 Ti15 2.463331 1_555
Cl23 Ti3 2.508043 1_555
Cl23 K0 3.701240 1_655
Cl24 Ti14 2.463331 1_555
Cl24 Ti2 2.508043 1_555
Cl24 K1 3.701240 1_655
Cl25 Ti15 2.463331 1_555
Cl25 Ti3 2.508043 1_555
Cl25 K0 3.701240 1_555
Cl26 Ti12 2.463331 1_555
Cl26 Ti0 2.508043 1_555
Cl26 K3 3.701240 1_555
Cl27 Ti13 2.463331 1_555
Cl27 Ti1 2.508043 1_555
Cl27 K2 3.701240 1_455
Cl28 Ti9 2.508223 1_555
Cl28 Ti7 2.508223 1_455
Cl28 K0 3.573477 1_555
Cl29 Ti6 2.508223 1_555
Cl29 Ti8 2.508223 1_455
Cl29 K1 3.573477 1_555
Cl30 Ti11 2.508223 1_655
Cl30 Ti5 2.508223 1_555
Cl30 K2 3.573477 1_555
Cl31 Ti4 2.508223 1_655
Cl31 Ti10 2.508223 1_555
Cl31 K3 3.573477 1_555
Cl32 Ti12 2.441447 1_555
Cl32 Ti9 2.590643 1_554
Cl32 Ti7 2.590643 1_454
Cl33 Ti13 2.441447 1_555
Cl33 Ti6 2.590643 1_555
Cl33 Ti8 2.590643 1_455
Cl34 Ti14 2.441447 1_555
Cl34 Ti11 2.590643 1_656
Cl34 Ti5 2.590643 1_556
Cl35 Ti15 2.441447 1_555
Cl35 Ti10 2.590643 1_555
Cl35 Ti4 2.590643 1_655
Cl36 Ti15 2.398062 1_455
Cl36 Ti4 2.510853 1_555
Cl36 K1 3.470137 1_545
Cl37 Ti14 2.398062 1_555
Cl37 Ti5 2.510853 1_556
Cl37 K0 3.470137 1_555
Cl38 Ti13 2.398062 1_555
Cl38 Ti6 2.510853 1_555
Cl38 K3 3.470137 1_565
Cl39 Ti12 2.398062 1_655
Cl39 Ti7 2.510853 1_554
Cl39 K2 3.470137 1_555
Cl40 Ti13 2.398062 1_655
Cl40 Ti8 2.510853 1_555
Cl40 K3 3.470137 1_565
Cl41 Ti12 2.398062 1_555
Cl41 Ti9 2.510853 1_554
Cl41 K2 3.470137 1_555
Cl42 Ti15 2.398062 1_555
Cl42 Ti10 2.510853 1_555
Cl42 K1 3.470137 1_545
Cl43 Ti14 2.398062 1_455
Cl43 Ti11 2.510853 1_556
Cl43 K0 3.470137 1_555
