# generated using pymatgen
data_Ti3C3N7
_symmetry_space_group_name_H-M   'P 1'
_cell_length_a   6.29625400
_cell_length_b   12.14480400
_cell_length_c   15.56495600
_cell_angle_alpha   90.00000000
_cell_angle_beta   90.00000000
_cell_angle_gamma   90.00000000
_symmetry_Int_Tables_number   1
_chemical_formula_structural   Ti3C3N7
_chemical_formula_sum   'Ti24 C24 N56'
_cell_volume   1190.20192241
_cell_formula_units_Z   8
loop_
 _symmetry_equiv_pos_site_id
 _symmetry_equiv_pos_as_xyz
  1  'x, y, z'
loop_
 _atom_site_type_symbol
 _atom_site_label
 _atom_site_symmetry_multiplicity
 _atom_site_fract_x
 _atom_site_fract_y
 _atom_site_fract_z
 _atom_site_occupancy
  Ti  Ti0  1  0.30592200  0.54607800  0.10464500  1
  Ti  Ti1  1  0.19407800  0.45392200  0.60464500  1
  Ti  Ti2  1  0.80592200  0.95392200  0.89535500  1
  Ti  Ti3  1  0.69407800  0.04607800  0.39535500  1
  Ti  Ti4  1  0.36788800  0.64934600  0.32905100  1
  Ti  Ti5  1  0.13211200  0.35065400  0.82905100  1
  Ti  Ti6  1  0.86788800  0.85065400  0.67094900  1
  Ti  Ti7  1  0.63211200  0.14934600  0.17094900  1
  Ti  Ti8  1  0.53271500  0.41148500  0.21345800  1
  Ti  Ti9  1  0.96728500  0.58851500  0.71345800  1
  Ti  Ti10  1  0.03271500  0.08851500  0.78654200  1
  Ti  Ti11  1  0.46728500  0.91148500  0.28654200  1
  Ti  Ti12  1  0.64082700  0.69152000  0.19316500  1
  Ti  Ti13  1  0.85917300  0.30848000  0.69316500  1
  Ti  Ti14  1  0.14082700  0.80848000  0.80683500  1
  Ti  Ti15  1  0.35917300  0.19152000  0.30683500  1
  Ti  Ti16  1  0.61488100  0.50510800  0.96433300  1
  Ti  Ti17  1  0.88511900  0.49489200  0.46433300  1
  Ti  Ti18  1  0.11488100  0.99489200  0.03566700  1
  Ti  Ti19  1  0.38511900  0.00510800  0.53566700  1
  Ti  Ti20  1  0.81534400  0.72847000  0.41455500  1
  Ti  Ti21  1  0.68465600  0.27153000  0.91455500  1
  Ti  Ti22  1  0.31534400  0.77153000  0.58544500  1
  Ti  Ti23  1  0.18465600  0.22847000  0.08544500  1
  C  C0  1  0.99347200  0.92097400  0.49408000  1
  C  C1  1  0.50652800  0.07902600  0.99408000  1
  C  C2  1  0.49347200  0.57902600  0.50592000  1
  C  C3  1  0.00652800  0.42097400  0.00592000  1
  C  C4  1  0.48438600  0.85946500  0.48131400  1
  C  C5  1  0.01561400  0.14053500  0.98131400  1
  C  C6  1  0.98438600  0.64053500  0.51868600  1
  C  C7  1  0.51561400  0.35946500  0.01868600  1
  C  C8  1  0.28311700  0.40121700  0.39428300  1
  C  C9  1  0.21688300  0.59878300  0.89428300  1
  C  C10  1  0.78311700  0.09878300  0.60571700  1
  C  C11  1  0.71688300  0.90121700  0.10571700  1
  C  C12  1  0.85516900  0.71946900  0.94790500  1
  C  C13  1  0.64483100  0.28053100  0.44790500  1
  C  C14  1  0.35516900  0.78053100  0.05209500  1
  C  C15  1  0.14483100  0.21946900  0.55209500  1
  C  C16  1  0.08286900  0.75587700  0.22393800  1
  C  C17  1  0.41713100  0.24412300  0.72393800  1
  C  C18  1  0.58286900  0.74412300  0.77606200  1
  C  C19  1  0.91713100  0.25587700  0.27606200  1
  C  C20  1  0.89797000  0.55099000  0.28925600  1
  C  C21  1  0.60203000  0.44901000  0.78925600  1
  C  C22  1  0.39797000  0.94901000  0.71074400  1
  C  C23  1  0.10203000  0.05099000  0.21074400  1
  N  N0  1  0.57703800  0.57971800  0.43286200  1
  N  N1  1  0.92296200  0.42028200  0.93286200  1
  N  N2  1  0.07703800  0.92028200  0.56713800  1
  N  N3  1  0.42296200  0.07971800  0.06713800  1
  N  N4  1  0.90860200  0.91720500  0.42320900  1
  N  N5  1  0.59139800  0.08279500  0.92320900  1
  N  N6  1  0.40860200  0.58279500  0.57679100  1
  N  N7  1  0.09139800  0.41720500  0.07679100  1
  N  N8  1  0.60436400  0.77846900  0.50452400  1
  N  N9  1  0.89563600  0.22153100  0.00452400  1
  N  N10  1  0.10436400  0.72153100  0.49547600  1
  N  N11  1  0.39563600  0.27846900  0.99547600  1
  N  N12  1  0.44969400  0.93339400  0.41872900  1
  N  N13  1  0.05030600  0.06660600  0.91872900  1
  N  N14  1  0.94969400  0.56660600  0.58127100  1
  N  N15  1  0.55030600  0.43339400  0.08127100  1
  N  N16  1  0.38123500  0.37191600  0.33006000  1
  N  N17  1  0.11876500  0.62808400  0.83006000  1
  N  N18  1  0.88123500  0.12808400  0.66994000  1
  N  N19  1  0.61876500  0.87191600  0.16994000  1
  N  N20  1  0.18293600  0.42962800  0.45860100  1
  N  N21  1  0.31706400  0.57037200  0.95860100  1
  N  N22  1  0.68293600  0.07037200  0.54139900  1
  N  N23  1  0.81706400  0.92962800  0.04139900  1
  N  N24  1  0.42390600  0.70101100  0.09502900  1
  N  N25  1  0.07609400  0.29898900  0.59502900  1
  N  N26  1  0.92390600  0.79898900  0.90497100  1
  N  N27  1  0.57609400  0.20101100  0.40497100  1
  N  N28  1  0.79128400  0.64105500  0.98749300  1
  N  N29  1  0.70871600  0.35894500  0.48749300  1
  N  N30  1  0.29128400  0.85894500  0.01250700  1
  N  N31  1  0.20871600  0.14105500  0.51250700  1
  N  N32  1  0.95776300  0.72080500  0.17127400  1
  N  N33  1  0.54223700  0.27919500  0.67127400  1
  N  N34  1  0.45776300  0.77919500  0.82872600  1
  N  N35  1  0.04223700  0.22080500  0.32872600  1
  N  N36  1  0.21747700  0.78556500  0.27822400  1
  N  N37  1  0.28252300  0.21443500  0.77822400  1
  N  N38  1  0.71747700  0.71443500  0.72177600  1
  N  N39  1  0.78252300  0.28556500  0.22177600  1
  N  N40  1  0.79222400  0.51883900  0.22920500  1
  N  N41  1  0.70777600  0.48116100  0.72920500  1
  N  N42  1  0.29222400  0.98116100  0.77079500  1
  N  N43  1  0.20777600  0.01883900  0.27079500  1
  N  N44  1  0.50223700  0.41090900  0.85224600  1
  N  N45  1  0.99776300  0.58909100  0.35224600  1
  N  N46  1  0.00223700  0.08909100  0.14775400  1
  N  N47  1  0.49776300  0.91090900  0.64775400  1
  N  N48  1  0.62132100  0.74741800  0.31160300  1
  N  N49  1  0.87867900  0.25258200  0.81160300  1
  N  N50  1  0.12132100  0.75258200  0.68839700  1
  N  N51  1  0.37867900  0.24741800  0.18839700  1
  N  N52  1  0.38641100  0.56642100  0.22776400  1
  N  N53  1  0.11358900  0.43357900  0.72776400  1
  N  N54  1  0.88641100  0.93357900  0.77223600  1
  N  N55  1  0.61358900  0.06642100  0.27223600  1
loop_
_geom_bond_atom_site_label_1
_geom_bond_atom_site_label_2
_geom_bond_distance
_geom_bond_site_symmetry_2
C0 N4 1.226571 1_555
C0 N2 1.252998 1_655
C1 N5 1.226571 1_555
C1 N3 1.252998 1_556
C2 N6 1.226571 1_555
C2 N0 1.252998 1_555
C3 N7 1.226571 1_555
C3 N1 1.252998 1_454
C4 N8 1.291815 1_555
C4 N12 1.342679 1_555
C4 Ti19 2.057919 1_565
C4 Ti22 2.213662 1_555
C5 N9 1.291815 1_456
C5 N13 1.342679 1_555
C5 Ti18 2.057919 1_546
C5 Ti23 2.213662 1_556
C6 N10 1.291815 1_655
C6 N14 1.342679 1_555
C6 Ti17 2.057919 1_555
C6 Ti20 2.213662 1_555
C7 N11 1.291815 1_554
C7 N15 1.342679 1_555
C7 Ti16 2.057919 1_554
C7 Ti21 2.213662 1_554
C8 N16 1.227818 1_555
C8 N20 1.232532 1_555
C9 N17 1.227818 1_555
C9 N21 1.232532 1_555
C10 N18 1.227818 1_555
C10 N22 1.232532 1_555
C11 N19 1.227818 1_555
C11 N23 1.232532 1_555
C12 N28 1.203494 1_555
C12 N26 1.251625 1_555
C13 N29 1.203494 1_555
C13 N27 1.251625 1_555
C14 N30 1.203494 1_555
C14 N24 1.251625 1_555
C15 N31 1.203494 1_555
C15 N25 1.251625 1_555
C16 N32 1.214012 1_455
C16 N36 1.249903 1_555
C17 N33 1.214012 1_555
C17 N37 1.249903 1_555
C18 N34 1.214012 1_555
C18 N38 1.249903 1_555
C19 N35 1.214012 1_655
C19 N39 1.249903 1_555
C20 N40 1.212191 1_555
C20 N45 1.253061 1_555
C21 N41 1.212191 1_555
C21 N44 1.253061 1_555
C22 N42 1.212191 1_555
C22 N47 1.253061 1_555
C23 N43 1.212191 1_555
C23 N46 1.253061 1_555
N0 Ti4 2.249455 1_555
N0 Ti17 2.250312 1_555
N0 Ti20 2.365623 1_555
N1 Ti5 2.249455 1_655
N1 Ti16 2.250312 1_555
N1 Ti21 2.365623 1_555
N2 Ti6 2.249455 1_455
N2 Ti19 2.250312 1_565
N2 Ti22 2.365623 1_555
N3 Ti7 2.249455 1_555
N3 Ti18 2.250312 1_545
N3 Ti23 2.365623 1_555
N4 Ti3 2.112345 1_565
N4 Ti20 2.369994 1_555
N5 Ti2 2.112345 1_545
N5 Ti21 2.369994 1_555
N6 Ti1 2.112345 1_555
N6 Ti22 2.369994 1_555
N7 Ti0 2.112345 1_555
N7 Ti23 2.369994 1_555
N8 Ti20 2.023449 1_555
N8 Ti22 2.214721 1_555
N9 Ti21 2.023449 1_554
N9 Ti23 2.214721 1_655
N10 Ti22 2.023449 1_555
N10 Ti20 2.214721 1_455
N11 Ti23 2.023449 1_556
N11 Ti21 2.214721 1_555
N12 Ti19 2.058338 1_565
N12 Ti11 2.077573 1_555
N12 Ti3 2.091132 1_565
N13 Ti18 2.058338 1_546
N13 Ti10 2.077573 1_555
N13 Ti2 2.091132 1_445
N14 Ti17 2.058338 1_555
N14 Ti9 2.077573 1_555
N14 Ti1 2.091132 1_655
N15 Ti16 2.058338 1_554
N15 Ti8 2.077573 1_555
N15 Ti0 2.091132 1_555
N16 Ti8 2.105818 1_555
N16 Ti15 2.224838 1_555
N17 Ti9 2.105818 1_455
N17 Ti14 2.224838 1_555
N18 Ti10 2.105818 1_655
N18 Ti13 2.224838 1_555
N19 Ti11 2.105818 1_555
N19 Ti12 2.224838 1_555
N20 Ti17 2.037725 1_455
N20 Ti1 2.293309 1_555
N21 Ti16 2.037725 1_555
N21 Ti0 2.293309 1_556
N22 Ti19 2.037725 1_555
N22 Ti3 2.293309 1_555
N23 Ti18 2.037725 1_655
N23 Ti2 2.293309 1_554
N24 Ti0 2.028490 1_555
N24 Ti12 2.052284 1_555
N25 Ti1 2.028490 1_555
N25 Ti13 2.052284 1_455
N26 Ti2 2.028490 1_555
N26 Ti14 2.052284 1_655
N27 Ti3 2.028490 1_555
N27 Ti15 2.052284 1_555
N28 Ti16 2.022256 1_555
N29 Ti17 2.022256 1_555
N30 Ti18 2.022256 1_555
N31 Ti19 2.022256 1_555
N32 Ti12 2.055396 1_555
N33 Ti13 2.055396 1_555
N34 Ti14 2.055396 1_555
N35 Ti15 2.055396 1_555
N36 Ti4 2.063883 1_555
N36 Ti11 2.197570 1_555
N37 Ti5 2.063883 1_555
N37 Ti10 2.197570 1_555
N38 Ti6 2.063883 1_555
N38 Ti9 2.197570 1_555
N39 Ti7 2.063883 1_555
N39 Ti8 2.197570 1_555
N40 Ti8 2.104684 1_555
N40 Ti12 2.370967 1_555
N41 Ti9 2.104684 1_555
N41 Ti13 2.370967 1_555
N42 Ti10 2.104684 1_565
N42 Ti14 2.370967 1_555
N43 Ti11 2.104684 1_545
N43 Ti15 2.370967 1_555
N44 Ti16 2.203531 1_555
N44 Ti21 2.263869 1_555
N44 Ti5 2.469134 1_555
N45 Ti17 2.203531 1_555
N45 Ti20 2.263869 1_555
N45 Ti4 2.469134 1_655
N46 Ti18 2.203531 1_545
N46 Ti23 2.263869 1_555
N46 Ti7 2.469134 1_455
N47 Ti19 2.203531 1_565
N47 Ti22 2.263869 1_555
N47 Ti6 2.469134 1_555
N48 Ti12 1.968343 1_555
N48 Ti4 2.009622 1_555
N48 Ti20 2.028085 1_555
N48 Ti11 2.250126 1_555
N49 Ti13 1.968343 1_555
N49 Ti5 2.009622 1_655
N49 Ti21 2.028085 1_555
N49 Ti10 2.250126 1_655
N50 Ti14 1.968343 1_555
N50 Ti6 2.009622 1_455
N50 Ti22 2.028085 1_555
N50 Ti9 2.250126 1_455
N51 Ti15 1.968343 1_555
N51 Ti7 2.009622 1_555
N51 Ti23 2.028085 1_555
N51 Ti8 2.250126 1_555
N52 Ti4 1.874382 1_555
N52 Ti0 1.997556 1_555
N52 Ti8 2.106847 1_555
N52 Ti12 2.272505 1_555
N53 Ti5 1.874382 1_555
N53 Ti1 1.997556 1_555
N53 Ti9 2.106847 1_455
N53 Ti13 2.272505 1_455
N54 Ti6 1.874382 1_555
N54 Ti2 1.997556 1_555
N54 Ti10 2.106847 1_665
N54 Ti14 2.272505 1_655
N55 Ti7 1.874382 1_555
N55 Ti3 1.997556 1_555
N55 Ti11 2.106847 1_545
N55 Ti15 2.272505 1_555
