# generated using pymatgen
data_Sr2GdRuO6
_symmetry_space_group_name_H-M   'P 1'
_cell_length_a   5.78367797
_cell_length_b   5.85659814
_cell_length_c   8.20781955
_cell_angle_alpha   90.00031109
_cell_angle_beta   90.45928122
_cell_angle_gamma   90.00000075
_symmetry_Int_Tables_number   1
_chemical_formula_structural   Sr2GdRuO6
_chemical_formula_sum   'Sr4 Gd2 Ru2 O12'
_cell_volume   278.01189347
_cell_formula_units_Z   2
loop_
 _symmetry_equiv_pos_site_id
 _symmetry_equiv_pos_as_xyz
  1  'x, y, z'
loop_
 _atom_site_type_symbol
 _atom_site_label
 _atom_site_symmetry_multiplicity
 _atom_site_fract_x
 _atom_site_fract_y
 _atom_site_fract_z
 _atom_site_occupancy
  Sr  Sr0  1  0.50963639  0.53904121  0.24930501  1
  Sr  Sr1  1  0.99036423  0.03904123  0.25069854  1
  Sr  Sr2  1  0.00963577  0.96095877  0.74930146  1
  Sr  Sr3  1  0.49036361  0.46095879  0.75069499  1
  Gd  Gd0  1  0.50000000  0.00000000  0.50000000  1
  Gd  Gd1  1  -0.00000000  0.50000000  -0.00000000  1
  Ru  Ru0  1  0.50000000  0.00000000  -0.00000000  1
  Ru  Ru1  1  -0.00000000  0.50000000  0.50000000  1
  O  O0  1  0.92198002  0.52117545  0.73091199  1
  O  O1  1  0.57802092  0.02117547  0.76908735  1
  O  O2  1  0.07801998  0.47882455  0.26908801  1
  O  O3  1  0.42197908  0.97882453  0.23091265  1
  O  O4  1  0.80774399  0.76984379  0.45682354  1
  O  O5  1  0.69225533  0.26984415  0.04317774  1
  O  O6  1  0.19225601  0.23015621  0.54317646  1
  O  O7  1  0.30774467  0.73015585  0.95682226  1
  O  O8  1  0.23150323  0.19576083  0.95974561  1
  O  O9  1  0.26849669  0.69576111  0.54025315  1
  O  O10  1  0.76849677  0.80423917  0.04025439  1
  O  O11  1  0.73150331  0.30423889  0.45974685  1
loop_
_geom_bond_atom_site_label_1
_geom_bond_atom_site_label_2
_geom_bond_distance
_geom_bond_site_symmetry_2
Gd0 O3 2.254114 1_545
Gd0 O1 2.254114 1_555
Gd0 O9 2.254739 1_545
Gd0 O11 2.254739 1_555
Gd0 O4 2.262882 1_545
Gd0 O6 2.262882 1_555
Gd1 O0 2.254119 1_454
Gd1 O2 2.254119 1_555
Gd1 O8 2.254739 1_554
Gd1 O10 2.254739 1_455
Gd1 O5 2.262887 1_455
Gd1 O7 2.262887 1_554
O0 Ru1 1.955712 1_655
O0 Sr3 2.527628 1_555
O0 Sr2 2.629156 1_655
O1 Ru0 1.955720 1_556
O1 Sr2 2.527620 1_645
O1 Sr3 2.629161 1_555
O2 Ru1 1.955712 1_555
O2 Sr0 2.527628 1_555
O2 Sr1 2.629156 1_455
O3 Ru0 1.955720 1_565
O3 Sr1 2.527620 1_465
O3 Sr0 2.629161 1_555
O4 Ru1 1.962973 1_655
O4 Sr1 2.547978 1_565
O4 Sr0 2.766569 1_555
O4 Sr2 2.886903 1_655
O5 Ru0 1.962971 1_555
O5 Sr0 2.547974 1_555
O5 Sr1 2.766595 1_555
O5 Sr3 2.886945 1_554
O6 Ru1 1.962973 1_555
O6 Sr2 2.547978 1_545
O6 Sr3 2.766569 1_555
O6 Sr1 2.886903 1_455
O7 Ru0 1.962971 1_566
O7 Sr3 2.547974 1_555
O7 Sr2 2.766595 1_555
O7 Sr0 2.886945 1_556
O8 Ru0 1.956242 1_556
O8 Sr2 2.546685 1_545
O8 Sr3 2.763902 1_555
O8 Sr1 2.923000 1_456
O9 Ru1 1.956239 1_555
O9 Sr3 2.546682 1_555
O9 Sr2 2.763881 1_555
O9 Sr0 2.922963 1_555
O10 Ru0 1.956242 1_565
O10 Sr1 2.546685 1_565
O10 Sr0 2.763902 1_555
O10 Sr2 2.923000 1_654
O11 Ru1 1.956239 1_655
O11 Sr0 2.546682 1_555
O11 Sr1 2.763881 1_555
O11 Sr3 2.922963 1_555
