# generated using pymatgen
data_Tb3(AlNi3)2
_symmetry_space_group_name_H-M   'P 1'
_cell_length_a   7.67877602
_cell_length_b   7.67877602
_cell_length_c   7.67877602
_cell_angle_alpha   109.47122063
_cell_angle_beta   109.47122063
_cell_angle_gamma   109.47122063
_symmetry_Int_Tables_number   1
_chemical_formula_structural   Tb3(AlNi3)2
_chemical_formula_sum   'Tb6 Al4 Ni12'
_cell_volume   348.54118908
_cell_formula_units_Z   2
loop_
 _symmetry_equiv_pos_site_id
 _symmetry_equiv_pos_as_xyz
  1  'x, y, z'
loop_
 _atom_site_type_symbol
 _atom_site_label
 _atom_site_symmetry_multiplicity
 _atom_site_fract_x
 _atom_site_fract_y
 _atom_site_fract_z
 _atom_site_occupancy
  Tb  Tb0  1  0.70655876  0.70655876  0.00000000  1
  Tb  Tb1  1  0.29344124  0.00000000  0.29344124  1
  Tb  Tb2  1  0.00000000  0.29344124  0.29344124  1
  Tb  Tb3  1  0.29344124  0.29344124  0.00000000  1
  Tb  Tb4  1  0.70655876  -0.00000000  0.70655876  1
  Tb  Tb5  1  -0.00000000  0.70655876  0.70655876  1
  Al  Al0  1  0.00000000  -0.00000000  0.50000000  1
  Al  Al1  1  0.00000000  0.50000000  0.00000000  1
  Al  Al2  1  0.50000000  -0.00000000  0.00000000  1
  Al  Al3  1  0.50000000  0.50000000  0.50000000  1
  Ni  Ni0  1  0.33423853  0.33423853  0.66847607  1
  Ni  Ni1  1  0.66576147  -0.00000000  0.33423853  1
  Ni  Ni2  1  0.00000000  0.66576147  0.33423853  1
  Ni  Ni3  1  0.66576147  0.33423853  -0.00000000  1
  Ni  Ni4  1  0.33423853  0.66847607  0.33423853  1
  Ni  Ni5  1  -0.00000000  0.33423853  0.66576147  1
  Ni  Ni6  1  0.33423853  0.66576147  0.00000000  1
  Ni  Ni7  1  0.33423853  0.00000000  0.66576147  1
  Ni  Ni8  1  0.66847607  0.33423853  0.33423853  1
  Ni  Ni9  1  0.66576147  0.66576147  0.33152393  1
  Ni  Ni10  1  0.66576147  0.33152393  0.66576147  1
  Ni  Ni11  1  0.33152393  0.66576147  0.66576147  1
loop_
_geom_bond_atom_site_label_1
_geom_bond_atom_site_label_2
_geom_bond_distance
_geom_bond_site_symmetry_2
Al0 Ni2 2.455484 1_545
Al0 Ni1 2.455484 1_455
Al0 Ni7 2.455484 1_555
Al0 Ni5 2.455484 1_555
Al0 Ni9 2.455485 1_445
Al0 Ni0 2.455485 1_555
Al0 Tb2 3.158422 1_555
Al0 Tb4 3.158422 1_455
Al0 Tb3 3.158422 1_556
Al0 Tb5 3.158422 1_545
Al0 Tb0 3.158422 1_445
Al0 Tb1 3.158422 1_555
Al1 Ni2 2.455484 1_555
Al1 Ni6 2.455484 1_555
Al1 Ni5 2.455484 1_554
Al1 Ni3 2.455484 1_455
Al1 Ni10 2.455485 1_454
Al1 Ni4 2.455485 1_555
Al1 Tb2 3.158422 1_555
Al1 Tb3 3.158422 1_555
Al1 Tb4 3.158422 1_454
Al1 Tb0 3.158422 1_455
Al1 Tb5 3.158422 1_554
Al1 Tb1 3.158422 1_565
Al2 Ni7 2.455484 1_554
Al2 Ni3 2.455484 1_555
Al2 Ni6 2.455484 1_545
Al2 Ni1 2.455484 1_555
Al2 Ni8 2.455485 1_555
Al2 Ni11 2.455485 1_544
Al2 Tb2 3.158422 1_655
Al2 Tb0 3.158422 1_545
Al2 Tb3 3.158422 1_555
Al2 Tb5 3.158422 1_544
Al2 Tb4 3.158422 1_554
Al2 Tb1 3.158422 1_555
Al3 Ni0 2.455478 1_555
Al3 Ni10 2.455478 1_555
Al3 Ni4 2.455478 1_555
Al3 Ni11 2.455478 1_555
Al3 Ni8 2.455478 1_555
Al3 Ni9 2.455478 1_555
Al3 Tb2 3.158422 1_555
Al3 Tb5 3.158422 1_655
Al3 Tb0 3.158422 1_556
Al3 Tb3 3.158422 1_555
Al3 Tb1 3.158422 1_555
Al3 Tb4 3.158422 1_565
Ni0 Ni10 2.559662 1_555
Ni0 Ni11 2.559662 1_555
Ni0 Ni7 2.559670 1_555
Ni0 Ni5 2.559670 1_555
Ni0 Tb0 2.770331 1_556
Ni0 Tb3 2.770336 1_556
Ni0 Tb2 2.985579 1_555
Ni0 Tb1 2.985579 1_555
Ni1 Ni6 2.559668 1_545
Ni1 Ni5 2.559668 1_655
Ni1 Ni8 2.559670 1_555
Ni1 Ni9 2.559670 1_545
Ni1 Tb1 2.770329 1_555
Ni1 Tb4 2.770329 1_555
Ni1 Tb2 2.985584 1_655
Ni1 Tb0 2.985584 1_545
Ni2 Ni7 2.559668 1_565
Ni2 Ni3 2.559668 1_455
Ni2 Ni9 2.559670 1_455
Ni2 Ni4 2.559670 1_555
Ni2 Tb2 2.770329 1_555
Ni2 Tb5 2.770329 1_555
Ni2 Tb1 2.985584 1_565
Ni2 Tb0 2.985584 1_455
Ni3 Ni7 2.559668 1_554
Ni3 Ni8 2.559670 1_555
Ni3 Tb3 2.770329 1_555
Ni3 Tb0 2.770329 1_555
Ni3 Tb4 2.985584 1_554
Ni3 Tb2 2.985584 1_655
Ni4 Ni9 2.559662 1_555
Ni4 Ni6 2.559670 1_555
Ni4 Tb4 2.770331 1_565
Ni4 Tb1 2.770336 1_565
Ni4 Tb3 2.985579 1_555
Ni4 Tb2 2.985579 1_555
Ni5 Ni6 2.559668 1_556
Ni5 Tb2 2.770329 1_555
Ni5 Tb5 2.770329 1_555
Ni5 Tb4 2.985584 1_455
Ni5 Tb3 2.985584 1_556
Ni6 Tb3 2.770329 1_555
Ni6 Tb0 2.770329 1_555
Ni6 Tb1 2.985584 1_565
Ni6 Tb5 2.985584 1_554
Ni7 Tb1 2.770329 1_555
Ni7 Tb4 2.770329 1_555
Ni7 Tb3 2.985584 1_556
Ni7 Tb5 2.985584 1_545
Ni8 Ni9 2.559662 1_555
Ni8 Tb5 2.770331 1_655
Ni8 Tb2 2.770336 1_655
Ni8 Tb3 2.985579 1_555
Ni8 Tb1 2.985579 1_555
Ni9 Tb3 2.770331 1_555
Ni9 Tb0 2.770336 1_555
Ni9 Tb4 2.985579 1_565
Ni9 Tb5 2.985579 1_655
Ni10 Ni8 2.559662 1_555
Ni10 Ni5 2.559670 1_655
Ni10 Ni3 2.559670 1_556
Ni10 Tb1 2.770331 1_555
Ni10 Tb4 2.770336 1_555
Ni10 Tb0 2.985579 1_556
Ni10 Tb5 2.985579 1_655
Ni11 Ni4 2.559662 1_555
Ni11 Ni7 2.559670 1_565
Ni11 Ni6 2.559670 1_556
Ni11 Tb2 2.770331 1_555
Ni11 Tb5 2.770336 1_555
Ni11 Tb0 2.985579 1_556
Ni11 Tb4 2.985579 1_565
