# generated using pymatgen
data_Ce4Si4N6O5
_symmetry_space_group_name_H-M   'P 1'
_cell_length_a   10.35085469
_cell_length_b   10.35085469
_cell_length_c   10.35085469
_cell_angle_alpha   90.00000000
_cell_angle_beta   90.00000000
_cell_angle_gamma   90.00000000
_symmetry_Int_Tables_number   1
_chemical_formula_structural   Ce4Si4N6O5
_chemical_formula_sum   'Ce16 Si16 N24 O20'
_cell_volume   1108.99256727
_cell_formula_units_Z   4
loop_
 _symmetry_equiv_pos_site_id
 _symmetry_equiv_pos_as_xyz
  1  'x, y, z'
loop_
 _atom_site_type_symbol
 _atom_site_label
 _atom_site_symmetry_multiplicity
 _atom_site_fract_x
 _atom_site_fract_y
 _atom_site_fract_z
 _atom_site_occupancy
  Ce  Ce0  1  0.18174163  0.21138399  0.46944452  1
  Ce  Ce1  1  0.96944452  0.31825837  0.78861601  1
  Ce  Ce2  1  0.28861601  0.53055548  0.68174163  1
  Ce  Ce3  1  0.31825837  0.78861601  0.96944452  1
  Ce  Ce4  1  0.53055548  0.68174163  0.28861601  1
  Ce  Ce5  1  0.21138399  0.46944452  0.18174163  1
  Ce  Ce6  1  0.68174163  0.28861601  0.53055548  1
  Ce  Ce7  1  0.46944452  0.18174163  0.21138399  1
  Ce  Ce8  1  0.78861601  0.96944452  0.31825837  1
  Ce  Ce9  1  0.81825837  0.71138399  0.03055548  1
  Ce  Ce10  1  0.03055548  0.81825837  0.71138399  1
  Ce  Ce11  1  0.71138399  0.03055548  0.81825837  1
  Ce  Ce12  1  0.97119552  0.52880448  0.47119552  1
  Ce  Ce13  1  0.52880448  0.47119552  0.97119552  1
  Ce  Ce14  1  0.47119552  0.97119552  0.52880448  1
  Ce  Ce15  1  0.02880448  0.02880448  0.02880448  1
  Si  Si0  1  0.92624194  0.25417214  0.30396630  1
  Si  Si1  1  0.80396630  0.57375806  0.74582786  1
  Si  Si2  1  0.24582786  0.69603370  0.42624194  1
  Si  Si3  1  0.57375806  0.74582786  0.80396630  1
  Si  Si4  1  0.69603370  0.42624194  0.24582786  1
  Si  Si5  1  0.25417214  0.30396630  0.92624194  1
  Si  Si6  1  0.42624194  0.24582786  0.69603370  1
  Si  Si7  1  0.30396630  0.92624194  0.25417214  1
  Si  Si8  1  0.74582786  0.80396630  0.57375806  1
  Si  Si9  1  0.07375806  0.75417214  0.19603370  1
  Si  Si10  1  0.19603370  0.07375806  0.75417214  1
  Si  Si11  1  0.75417214  0.19603370  0.07375806  1
  Si  Si12  1  0.57263802  0.92736198  0.07263802  1
  Si  Si13  1  0.92736198  0.07263802  0.57263802  1
  Si  Si14  1  0.07263802  0.57263802  0.92736198  1
  Si  Si15  1  0.42736198  0.42736198  0.42736198  1
  N  N0  1  0.94688640  0.14666744  0.42799031  1
  N  N1  1  0.92799031  0.55311360  0.85333256  1
  N  N2  1  0.35333256  0.57200969  0.44688640  1
  N  N3  1  0.55311360  0.85333256  0.92799031  1
  N  N4  1  0.57200969  0.44688640  0.35333256  1
  N  N5  1  0.14666744  0.42799031  0.94688640  1
  N  N6  1  0.44688640  0.35333256  0.57200969  1
  N  N7  1  0.42799031  0.94688640  0.14666744  1
  N  N8  1  0.85333256  0.92799031  0.55311360  1
  N  N9  1  0.05311360  0.64666744  0.07200969  1
  N  N10  1  0.07200969  0.05311360  0.64666744  1
  N  N11  1  0.64666744  0.07200969  0.05311360  1
  N  N12  1  0.87968007  0.15681948  0.17737999  1
  N  N13  1  0.67737999  0.62031993  0.84318052  1
  N  N14  1  0.34318052  0.82262001  0.37968007  1
  N  N15  1  0.62031993  0.84318052  0.67737999  1
  N  N16  1  0.82262001  0.37968007  0.34318052  1
  N  N17  1  0.15681948  0.17737999  0.87968007  1
  N  N18  1  0.37968007  0.34318052  0.82262001  1
  N  N19  1  0.17737999  0.87968007  0.15681948  1
  N  N20  1  0.84318052  0.67737999  0.62031993  1
  N  N21  1  0.12031993  0.65681948  0.32262001  1
  N  N22  1  0.32262001  0.12031993  0.65681948  1
  N  N23  1  0.65681948  0.32262001  0.12031993  1
  O  O0  1  0.06936810  0.32903590  0.29311881  1
  O  O1  1  0.79311881  0.43063190  0.67096410  1
  O  O2  1  0.17096410  0.70688119  0.56936810  1
  O  O3  1  0.43063190  0.67096410  0.79311881  1
  O  O4  1  0.70688119  0.56936810  0.17096410  1
  O  O5  1  0.32903590  0.29311881  0.06936810  1
  O  O6  1  0.56936810  0.17096410  0.70688119  1
  O  O7  1  0.29311881  0.06936810  0.32903590  1
  O  O8  1  0.67096410  0.79311881  0.43063190  1
  O  O9  1  0.93063190  0.82903590  0.20688119  1
  O  O10  1  0.20688119  0.93063190  0.82903590  1
  O  O11  1  0.82903590  0.20688119  0.93063190  1
  O  O12  1  0.66566034  0.83433966  0.16566034  1
  O  O13  1  0.83433966  0.16566034  0.66566034  1
  O  O14  1  0.16566034  0.66566034  0.83433966  1
  O  O15  1  0.33433966  0.33433966  0.33433966  1
  O  O16  1  0.09823965  0.40176035  0.59823965  1
  O  O17  1  0.40176035  0.59823965  0.09823965  1
  O  O18  1  0.59823965  0.09823965  0.40176035  1
  O  O19  1  0.90176035  0.90176035  0.90176035  1
loop_
_geom_bond_atom_site_label_1
_geom_bond_atom_site_label_2
_geom_bond_distance
_geom_bond_site_symmetry_2
Ce0 O7 2.366885 1_555
Ce0 O15 2.463799 1_555
Ce0 O0 2.483354 1_555
Ce0 O16 2.531285 1_555
Ce0 N0 2.557806 1_455
Ce0 N22 2.603168 1_555
Ce0 N10 2.709050 1_555
Ce1 O11 2.366885 1_555
Ce1 O13 2.463799 1_555
Ce1 O1 2.483354 1_555
Ce1 O16 2.531285 1_655
Ce1 N1 2.557806 1_555
Ce1 N17 2.603168 1_655
Ce1 N5 2.709050 1_655
Ce2 O3 2.366885 1_555
Ce2 O14 2.463799 1_555
Ce2 O2 2.483354 1_555
Ce2 O16 2.531285 1_555
Ce2 N2 2.557806 1_555
Ce2 N18 2.603168 1_555
Ce2 N6 2.709050 1_555
Ce3 O10 2.366885 1_555
Ce3 O14 2.463799 1_555
Ce3 O3 2.483354 1_555
Ce3 O17 2.531285 1_556
Ce3 N3 2.557806 1_555
Ce3 N19 2.603168 1_556
Ce3 N7 2.709050 1_556
Ce4 O8 2.366885 1_555
Ce4 O12 2.463799 1_555
Ce4 O4 2.483354 1_555
Ce4 O17 2.531285 1_555
Ce4 N4 2.557806 1_555
Ce4 N14 2.603168 1_555
Ce4 N2 2.709050 1_555
Ce5 O0 2.366885 1_555
Ce5 O15 2.463799 1_555
Ce5 O5 2.483354 1_555
Ce5 O17 2.531285 1_555
Ce5 N5 2.557806 1_554
Ce5 N21 2.603168 1_555
Ce5 N9 2.709050 1_555
Ce6 O1 2.366885 1_555
Ce6 O13 2.463799 1_555
Ce6 O6 2.483354 1_555
Ce6 O18 2.531285 1_555
Ce6 N6 2.557806 1_555
Ce6 N16 2.603168 1_555
Ce6 N4 2.709050 1_555
Ce7 O5 2.366885 1_555
Ce7 O15 2.463799 1_555
Ce7 O7 2.483354 1_555
Ce7 O18 2.531285 1_555
Ce7 N7 2.557806 1_545
Ce7 N23 2.603168 1_555
Ce7 N11 2.709050 1_555
Ce8 O9 2.366885 1_555
Ce8 O12 2.463799 1_555
Ce8 O8 2.483354 1_555
Ce8 O18 2.531285 1_565
Ce8 N8 2.557806 1_555
Ce8 N12 2.603168 1_565
Ce8 N0 2.709050 1_565
Ce9 O4 2.366885 1_555
Ce9 O12 2.463799 1_555
Ce9 O9 2.483354 1_555
Ce9 O19 2.531285 1_554
Ce9 N9 2.557806 1_655
Ce9 N13 2.603168 1_554
Ce9 N1 2.709050 1_554
Ce10 O2 2.366885 1_555
Ce10 O14 2.463799 1_555
Ce10 O10 2.483354 1_555
Ce10 O19 2.531285 1_455
Ce10 N10 2.557806 1_565
Ce10 N20 2.603168 1_455
Ce10 N8 2.709050 1_455
Ce11 O6 2.366885 1_555
Ce11 O13 2.463799 1_555
Ce11 O11 2.483354 1_555
Ce11 O19 2.531285 1_545
Ce11 N11 2.557806 1_556
Ce11 N15 2.603168 1_545
Ce11 N3 2.709050 1_545
Ce12 O16 2.277673 1_655
Ce12 N21 2.550191 1_655
Ce12 N16 2.550191 1_555
Ce12 N20 2.550191 1_555
Ce12 O0 2.950568 1_655
Ce12 O1 2.950568 1_555
Ce12 O2 2.950568 1_655
Ce13 O17 2.277673 1_556
Ce13 N23 2.550191 1_556
Ce13 N13 2.550191 1_555
Ce13 N18 2.550191 1_555
Ce13 O5 2.950568 1_556
Ce13 O3 2.950568 1_555
Ce13 O4 2.950568 1_556
Ce14 O18 2.277673 1_565
Ce14 N22 2.550191 1_565
Ce14 N14 2.550191 1_555
Ce14 N15 2.550191 1_555
Ce14 O7 2.950568 1_565
Ce14 O8 2.950568 1_555
Ce14 O6 2.950568 1_565
Ce15 O19 2.277673 1_444
Ce15 N17 2.550191 1_554
Ce15 N19 2.550191 1_545
Ce15 N12 2.550191 1_455
Ce15 O11 2.950568 1_454
Ce15 O9 2.950568 1_445
Ce15 O10 2.950568 1_544
N0 Si13 1.694018 1_555
N0 Si0 1.712289 1_555
N1 Si14 1.694018 1_655
N1 Si1 1.712289 1_555
N2 Si15 1.694018 1_555
N2 Si2 1.712289 1_555
N3 Si12 1.694018 1_556
N3 Si3 1.712289 1_555
N4 Si15 1.694018 1_555
N4 Si4 1.712289 1_555
N5 Si14 1.694018 1_555
N5 Si5 1.712289 1_555
N6 Si15 1.694018 1_555
N6 Si6 1.712289 1_555
N7 Si12 1.694018 1_555
N7 Si7 1.712289 1_555
N8 Si13 1.694018 1_565
N8 Si8 1.712289 1_555
N9 Si14 1.694018 1_554
N9 Si9 1.712289 1_555
N10 Si13 1.694018 1_455
N10 Si10 1.712289 1_555
N11 Si12 1.694018 1_545
N11 Si11 1.712289 1_555
N12 Si0 1.721781 1_555
N12 Si11 1.732880 1_555
N13 Si1 1.721781 1_555
N13 Si3 1.732880 1_555
N14 Si2 1.721781 1_555
N14 Si7 1.732880 1_555
N15 Si3 1.721781 1_555
N15 Si8 1.732880 1_555
N16 Si4 1.721781 1_555
N16 Si0 1.732880 1_555
N17 Si5 1.721781 1_555
N17 Si10 1.732880 1_555
N18 Si6 1.721781 1_555
N18 Si5 1.732880 1_555
N19 Si7 1.721781 1_555
N19 Si9 1.732880 1_555
N20 Si8 1.721781 1_555
N20 Si1 1.732880 1_555
N21 Si9 1.721781 1_555
N21 Si2 1.732880 1_555
N22 Si10 1.721781 1_555
N22 Si6 1.732880 1_555
N23 Si11 1.721781 1_555
N23 Si4 1.732880 1_555
O0 Si0 1.675667 1_455
O1 Si1 1.675667 1_555
O2 Si2 1.675667 1_555
O3 Si3 1.675667 1_555
O4 Si4 1.675667 1_555
O5 Si5 1.675667 1_554
O6 Si6 1.675667 1_555
O7 Si7 1.675667 1_545
O8 Si8 1.675667 1_555
O9 Si9 1.675667 1_655
O10 Si10 1.675667 1_565
O11 Si11 1.675667 1_556
O12 Si12 1.667723 1_555
O13 Si13 1.667723 1_555
O14 Si14 1.667723 1_555
O15 Si15 1.667723 1_555
