# generated using pymatgen
data_Li6Mn5SbO12
_symmetry_space_group_name_H-M   'P 1'
_cell_length_a   5.53623161
_cell_length_b   11.40900792
_cell_length_c   9.08619347
_cell_angle_alpha   113.44402082
_cell_angle_beta   89.99707183
_cell_angle_gamma   84.47616283
_symmetry_Int_Tables_number   1
_chemical_formula_structural   Li6Mn5SbO12
_chemical_formula_sum   'Li12 Mn10 Sb2 O24'
_cell_volume   523.62625788
_cell_formula_units_Z   2
loop_
 _symmetry_equiv_pos_site_id
 _symmetry_equiv_pos_as_xyz
  1  'x, y, z'
loop_
 _atom_site_type_symbol
 _atom_site_label
 _atom_site_symmetry_multiplicity
 _atom_site_fract_x
 _atom_site_fract_y
 _atom_site_fract_z
 _atom_site_occupancy
  Li  Li0  1  0.39949800  0.71605300  0.85565100  1
  Li  Li1  1  0.89875200  0.71624700  0.36021600  1
  Li  Li2  1  0.10140900  0.28372700  0.64439900  1
  Li  Li3  1  0.60071600  0.28391700  0.13937200  1
  Li  Li4  1  0.60391000  0.28509900  0.81347200  1
  Li  Li5  1  0.10567600  0.28683800  0.31100700  1
  Li  Li6  1  0.89563600  0.71371900  0.02364500  1
  Li  Li7  1  0.39498600  0.71442300  0.52895600  1
  Li  Li8  1  0.60611900  0.28668400  0.47528800  1
  Li  Li9  1  0.10338200  0.28515300  0.97182200  1
  Li  Li10  1  0.89542300  0.71428000  0.68547100  1
  Li  Li11  1  0.39509100  0.71386400  0.18955700  1
  Mn  Mn0  1  0.75009900  0.49988800  0.75002500  1
  Mn  Mn1  1  0.74969200  0.49966100  0.41534900  1
  Mn  Mn2  1  0.25032500  0.50031400  0.91844200  1
  Mn  Mn3  1  0.49986900  0.00027000  0.16792900  1
  Mn  Mn4  1  0.99991000  0.99974000  0.66671000  1
  Mn  Mn5  1  0.24990300  0.50008800  0.24973000  1
  Mn  Mn6  1  0.75008400  0.50050800  0.08171100  1
  Mn  Mn7  1  0.25002400  0.49950000  0.58397500  1
  Mn  Mn8  1  0.99979500  0.00038400  0.33273700  1
  Mn  Mn9  1  0.50010400  0.99983900  0.83356700  1
  Sb  Sb0  1  0.49984400  0.99996300  0.50519000  1
  Sb  Sb1  1  0.99999700  0.99998100  0.99513400  1
  O  O0  1  0.39684200  0.39141300  0.69744500  1
  O  O1  1  0.89623900  0.39175000  0.19379100  1
  O  O2  1  0.10368600  0.60817300  0.80531500  1
  O  O3  1  0.60310000  0.60855000  0.30300500  1
  O  O4  1  0.34111400  0.90059400  0.93477200  1
  O  O5  1  0.84070400  0.90042900  0.46623600  1
  O  O6  1  0.15863100  0.09934600  0.56576900  1
  O  O7  1  0.65926900  0.09951100  0.03399300  1
  O  O8  1  0.88045500  0.89654900  0.77564900  1
  O  O9  1  0.37048600  0.89255300  0.29802900  1
  O  O10  1  0.62939600  0.10772000  0.40616500  1
  O  O11  1  0.11929800  0.10281500  0.87840600  1
  O  O12  1  0.87025500  0.89272400  0.09471400  1
  O  O13  1  0.38075200  0.89671500  0.62169600  1
  O  O14  1  0.61948400  0.10308400  0.72463300  1
  O  O15  1  0.12950100  0.10785200  0.20203200  1
  O  O16  1  0.59119200  0.61618800  0.98696200  1
  O  O17  1  0.09438200  0.61570800  0.48813000  1
  O  O18  1  0.90680200  0.38389700  0.87090200  1
  O  O19  1  0.40858200  0.38418700  0.37205100  1
  O  O20  1  0.59405500  0.61587400  0.62789600  1
  O  O21  1  0.09113500  0.61608300  0.12852700  1
  O  O22  1  0.90784100  0.38426300  0.51151100  1
  O  O23  1  0.40652200  0.38388900  0.01302100  1
loop_
_geom_bond_atom_site_label_1
_geom_bond_atom_site_label_2
_geom_bond_distance
_geom_bond_site_symmetry_2
Li0 O4 1.928396 1_555
Li0 O2 2.084773 1_555
Li0 O20 2.151685 1_555
Li0 O16 2.167249 1_555
Li1 O5 1.925127 1_555
Li1 O3 2.082814 1_555
Li1 O17 2.159009 1_655
Li1 O21 2.173305 1_655
Li2 O6 1.926589 1_555
Li2 O0 2.081499 1_555
Li2 O18 2.143276 1_455
Li2 O22 2.188033 1_455
Li3 O7 1.927168 1_555
Li3 O1 2.082875 1_555
Li3 O23 2.140274 1_555
Li3 O19 2.179652 1_555
Li4 O14 1.898169 1_555
Li4 O23 1.971951 1_556
Li4 O18 2.061730 1_555
Li4 O0 2.155632 1_555
Li5 O15 1.872710 1_555
Li5 O22 1.976922 1_455
Li5 O19 2.054720 1_555
Li5 O1 2.158407 1_455
Li6 O12 1.871623 1_555
Li6 O21 1.983209 1_655
Li6 O16 2.063030 1_554
Li6 O2 2.131682 1_654
Li7 O13 1.901491 1_555
Li7 O20 1.962846 1_555
Li7 O17 2.050391 1_555
Li7 O3 2.181755 1_555
Li8 O10 1.873222 1_555
Li8 O19 1.977257 1_555
Li8 O22 2.050482 1_555
Li8 O0 2.158408 1_555
Li9 O11 1.901456 1_555
Li9 O18 1.969897 1_455
Li9 O23 2.062549 1_556
Li9 O1 2.154395 1_456
Li10 O8 1.900951 1_555
Li10 O17 1.962118 1_655
Li10 O20 2.052129 1_555
Li10 O2 2.181966 1_655
Li11 O9 1.869176 1_555
Li11 O16 1.985876 1_554
Li11 O21 2.062284 1_555
Li11 O3 2.133459 1_555
Mn0 O18 2.155398 1_555
Mn0 O16 2.161346 1_555
Mn0 O20 2.162697 1_555
Mn0 O22 2.168578 1_555
Mn0 O0 2.362263 1_555
Mn0 O2 2.362721 1_655
Mn1 O22 1.989194 1_555
Mn1 O20 1.993110 1_555
Mn1 O3 2.014701 1_555
Mn1 O1 2.015449 1_555
Mn1 O19 2.350185 1_555
Mn1 O17 2.371001 1_655
Mn2 O21 1.983581 1_556
Mn2 O23 1.984409 1_556
Mn2 O2 2.011008 1_555
Mn2 O0 2.013562 1_555
Mn2 O16 2.349901 1_555
Mn2 O18 2.365906 1_455
Mn3 O9 2.178560 1_545
Mn3 O10 2.181895 1_555
Mn3 O4 2.197591 1_544
Mn3 O7 2.197817 1_555
Mn3 O12 2.240262 1_545
Mn3 O15 2.240455 1_555
Mn4 O11 1.967122 1_665
Mn4 O8 1.969846 1_555
Mn4 O6 1.981481 1_665
Mn4 O5 1.982135 1_555
Mn4 O14 2.265166 1_565
Mn4 O13 2.265969 1_655
Mn5 O23 2.155205 1_555
Mn5 O21 2.161616 1_555
Mn5 O17 2.163582 1_555
Mn5 O19 2.168275 1_555
Mn5 O3 2.361864 1_555
Mn5 O1 2.363443 1_455
Mn6 O16 1.984311 1_554
Mn6 O18 1.985348 1_554
Mn6 O1 2.010901 1_555
Mn6 O3 2.014733 1_555
Mn6 O21 2.348997 1_655
Mn6 O23 2.367299 1_555
Mn7 O17 1.989358 1_555
Mn7 O19 1.992730 1_555
Mn7 O2 2.015097 1_555
Mn7 O0 2.015722 1_555
Mn7 O22 2.354071 1_455
Mn7 O20 2.369605 1_555
Mn8 O12 2.180914 1_545
Mn8 O15 2.181160 1_655
Mn8 O6 2.195539 1_655
Mn8 O5 2.200351 1_545
Mn8 O10 2.239662 1_555
Mn8 O9 2.242714 1_645
Mn9 O13 1.968355 1_555
Mn9 O14 1.970161 1_565
Mn9 O4 1.980589 1_555
Mn9 O7 1.982749 1_566
Mn9 O8 2.264591 1_555
Mn9 O11 2.265635 1_565
O4 Sb1 2.060529 1_455
O5 Sb0 2.059964 1_555
O6 Sb0 2.061066 1_545
O7 Sb1 2.059357 1_544
O8 Sb1 2.021285 1_555
O9 Sb0 1.972646 1_555
O10 Sb0 1.971113 1_545
O11 Sb1 2.019122 1_445
O12 Sb1 1.970327 1_554
O13 Sb0 2.021037 1_555
O14 Sb0 2.020418 1_545
O15 Sb1 1.972764 1_444
