# generated using pymatgen
data_U2Fe15Ge2
_symmetry_space_group_name_H-M   'P 1'
_cell_length_a   8.53994600
_cell_length_b   8.35209130
_cell_length_c   8.35209130
_cell_angle_alpha   120.16038370
_cell_angle_beta   90.00000000
_cell_angle_gamma   90.00000000
_symmetry_Int_Tables_number   1
_chemical_formula_structural   U2Fe15Ge2
_chemical_formula_sum   'U4 Fe30 Ge4'
_cell_volume   515.07690132
_cell_formula_units_Z   2
loop_
 _symmetry_equiv_pos_site_id
 _symmetry_equiv_pos_as_xyz
  1  'x, y, z'
loop_
 _atom_site_type_symbol
 _atom_site_label
 _atom_site_symmetry_multiplicity
 _atom_site_fract_x
 _atom_site_fract_y
 _atom_site_fract_z
 _atom_site_occupancy
  U  U0  1  0.75000000  0.99990800  0.00009200  1
  U  U1  1  0.25000000  0.00009200  0.99990800  1
  U  U2  1  0.25000000  0.66672800  0.33327200  1
  U  U3  1  0.75000000  0.33327200  0.66672800  1
  Fe  Fe0  1  0.50000000  0.50000000  0.00000000  1
  Fe  Fe1  1  0.50000000  0.50000000  0.50000000  1
  Fe  Fe2  1  0.50000000  0.00000000  0.50000000  1
  Fe  Fe3  1  0.00000000  0.50000000  0.00000000  1
  Fe  Fe4  1  0.00000000  0.50000000  0.50000000  1
  Fe  Fe5  1  0.00000000  0.00000000  0.50000000  1
  Fe  Fe6  1  0.75000000  0.66805100  0.02162700  1
  Fe  Fe7  1  0.75000000  0.35326000  0.33187800  1
  Fe  Fe8  1  0.75000000  0.97886600  0.64671900  1
  Fe  Fe9  1  0.75000000  0.35328100  0.02113400  1
  Fe  Fe10  1  0.75000000  0.97837300  0.33194900  1
  Fe  Fe11  1  0.75000000  0.66812200  0.64674000  1
  Fe  Fe12  1  0.25000000  0.33194900  0.97837300  1
  Fe  Fe13  1  0.25000000  0.64674000  0.66812200  1
  Fe  Fe14  1  0.25000000  0.02113400  0.35328100  1
  Fe  Fe15  1  0.25000000  0.64671900  0.97886600  1
  Fe  Fe16  1  0.25000000  0.02162700  0.66805100  1
  Fe  Fe17  1  0.25000000  0.33187800  0.35326000  1
  Fe  Fe18  1  0.49012700  0.83596200  0.67172700  1
  Fe  Fe19  1  0.49009300  0.83575100  0.16424900  1
  Fe  Fe20  1  0.49012700  0.32827300  0.16403800  1
  Fe  Fe21  1  0.50987300  0.16403800  0.32827300  1
  Fe  Fe22  1  0.50990700  0.16424900  0.83575100  1
  Fe  Fe23  1  0.50987300  0.67172700  0.83596200  1
  Fe  Fe24  1  0.99012700  0.16403800  0.32827300  1
  Fe  Fe25  1  0.99009300  0.16424900  0.83575100  1
  Fe  Fe26  1  0.99012700  0.67172700  0.83596200  1
  Fe  Fe27  1  0.00987300  0.83596200  0.67172700  1
  Fe  Fe28  1  0.00990700  0.83575100  0.16424900  1
  Fe  Fe29  1  0.00987300  0.32827300  0.16403800  1
  Ge  Ge0  1  0.59981100  0.66669200  0.33330800  1
  Ge  Ge1  1  0.40018900  0.33330800  0.66669200  1
  Ge  Ge2  1  0.09981100  0.33330800  0.66669200  1
  Ge  Ge3  1  0.90018900  0.66669200  0.33330800  1
loop_
_geom_bond_atom_site_label_1
_geom_bond_atom_site_label_2
_geom_bond_distance
_geom_bond_site_symmetry_2
Fe0 Fe19 2.426353 1_555
Fe0 Fe22 2.426353 1_554
Fe0 Fe20 2.432263 1_555
Fe0 Fe23 2.432263 1_554
Fe0 Fe12 2.511188 1_554
Fe0 Fe6 2.511188 1_555
Fe0 Fe15 2.511634 1_554
Fe0 Fe9 2.511634 1_555
Fe0 Ge0 2.553432 1_555
Fe0 Ge1 2.553432 1_554
Fe0 U2 3.217199 1_555
Fe0 U3 3.217199 1_554
Fe1 Fe20 2.427706 1_555
Fe1 Fe21 2.427706 1_555
Fe1 Fe23 2.427706 1_555
Fe1 Fe18 2.427706 1_555
Fe1 Fe17 2.510509 1_555
Fe1 Fe7 2.510509 1_555
Fe1 Fe13 2.510509 1_555
Fe1 Fe11 2.510509 1_555
Fe1 Ge0 2.559459 1_555
Fe1 Ge1 2.559459 1_555
Fe1 U2 3.222570 1_555
Fe1 U3 3.222570 1_555
Fe2 Fe22 2.426353 1_555
Fe2 Fe21 2.432263 1_555
Fe2 Fe8 2.511634 1_545
Fe2 Ge0 2.553432 1_545
Fe2 Ge1 2.553432 1_555
Fe2 U3 3.217199 1_555
Fe2 U2 3.217199 1_545
Fe3 Fe6 2.511188 1_455
Fe3 Fe9 2.511634 1_455
Fe3 Ge2 2.553432 1_554
Fe3 Ge3 2.553432 1_455
Fe3 U2 3.217199 1_555
Fe3 U3 3.217199 1_454
Fe4 Fe7 2.510509 1_455
Fe4 Ge2 2.559459 1_555
Fe4 Ge3 2.559459 1_455
Fe4 U2 3.222570 1_555
Fe4 U3 3.222570 1_455
Fe5 Fe8 2.511634 1_445
Fe5 Ge2 2.553432 1_555
Fe5 Ge3 2.553432 1_445
Fe5 U3 3.217199 1_455
Fe5 U2 3.217199 1_545
Fe6 Fe9 2.626921 1_555
Fe6 U0 2.866289 1_555
Fe6 U3 2.876831 1_554
Fe6 Ge3 2.907144 1_555
Fe6 Ge0 2.907144 1_555
Fe7 Fe9 2.595450 1_555
Fe7 U0 2.858495 1_545
Fe7 U3 2.884187 1_555
Fe7 Ge3 2.909767 1_555
Fe7 Ge0 2.909767 1_555
Fe8 U0 2.867135 1_556
Fe8 U3 2.879695 1_565
Fe8 Ge3 2.904669 1_555
Fe8 Ge0 2.904669 1_555
Fe9 U0 2.867135 1_545
Fe9 U3 2.879695 1_554
Fe9 Ge3 2.904669 1_555
Fe9 Ge0 2.904669 1_555
Fe10 Fe2 2.511188 1_565
Fe10 Fe5 2.511188 1_665
Fe10 Fe19 2.575037 1_555
Fe10 Fe28 2.575037 1_655
Fe10 Fe24 2.580442 1_565
Fe10 Fe21 2.580442 1_565
Fe10 Fe6 2.585552 1_555
Fe10 Fe8 2.626921 1_555
Fe10 U0 2.866289 1_555
Fe10 U3 2.876831 1_565
Fe10 Ge3 2.907144 1_555
Fe10 Ge0 2.907144 1_555
Fe11 Fe4 2.510509 1_655
Fe11 Fe27 2.576814 1_655
Fe11 Fe18 2.576814 1_555
Fe11 Fe26 2.579924 1_555
Fe11 Fe23 2.579924 1_555
Fe11 Fe8 2.595450 1_555
Fe11 Fe7 2.623379 1_555
Fe11 U0 2.858495 1_556
Fe11 U3 2.884187 1_555
Fe11 Ge3 2.909767 1_555
Fe11 Ge0 2.909767 1_555
Fe12 Fe3 2.511188 1_556
Fe12 Fe25 2.575037 1_455
Fe12 Fe22 2.575037 1_555
Fe12 Fe20 2.580442 1_556
Fe12 Fe29 2.580442 1_556
Fe12 Fe16 2.585552 1_555
Fe12 Fe15 2.626921 1_555
Fe12 U1 2.866289 1_555
Fe12 U2 2.876831 1_556
Fe12 Ge1 2.907144 1_555
Fe12 Ge2 2.907144 1_555
Fe13 Fe4 2.510509 1_555
Fe13 Fe23 2.576814 1_555
Fe13 Fe26 2.576814 1_455
Fe13 Fe18 2.579924 1_555
Fe13 Fe27 2.579924 1_555
Fe13 Fe15 2.595450 1_555
Fe13 Fe17 2.623379 1_555
Fe13 U1 2.858495 1_565
Fe13 U2 2.884187 1_555
Fe13 Ge1 2.909767 1_555
Fe13 Ge2 2.909767 1_555
Fe14 Fe5 2.511634 1_555
Fe14 Fe2 2.511634 1_555
Fe14 Fe19 2.576370 1_545
Fe14 Fe28 2.576370 1_545
Fe14 Fe24 2.577592 1_455
Fe14 Fe21 2.577592 1_555
Fe14 Fe17 2.595450 1_555
Fe14 Fe16 2.626921 1_555
Fe14 U1 2.867135 1_554
Fe14 U2 2.879695 1_545
Fe14 Ge1 2.904669 1_555
Fe14 Ge2 2.904669 1_555
Fe15 Fe3 2.511634 1_556
Fe15 Fe28 2.576370 1_556
Fe15 Fe19 2.576370 1_556
Fe15 Fe23 2.577592 1_555
Fe15 Fe26 2.577592 1_455
Fe15 U1 2.867135 1_565
Fe15 U2 2.879695 1_556
Fe15 Ge1 2.904669 1_555
Fe15 Ge2 2.904669 1_555
Fe16 Fe5 2.511188 1_555
Fe16 Fe2 2.511188 1_555
Fe16 Fe25 2.575037 1_455
Fe16 Fe22 2.575037 1_555
Fe16 Fe18 2.580442 1_545
Fe16 Fe27 2.580442 1_545
Fe16 U1 2.866289 1_555
Fe16 U2 2.876831 1_545
Fe16 Ge1 2.907144 1_555
Fe16 Ge2 2.907144 1_555
Fe17 Fe4 2.510509 1_555
Fe17 Fe21 2.576814 1_555
Fe17 Fe24 2.576814 1_455
Fe17 Fe20 2.579924 1_555
Fe17 Fe29 2.579924 1_555
Fe17 U1 2.858495 1_554
Fe17 U2 2.884187 1_555
Fe17 Ge1 2.909767 1_555
Fe17 Ge2 2.909767 1_555
Fe18 Fe22 2.376716 1_565
Fe18 Fe23 2.383754 1_555
Fe18 Fe2 2.432263 1_565
Fe18 Fe8 2.577592 1_555
Fe18 Ge0 2.617230 1_555
Fe18 U1 3.133983 1_565
Fe18 U2 3.190459 1_555
Fe18 U0 3.247804 1_556
Fe19 Fe23 2.376716 1_554
Fe19 Fe21 2.376716 1_565
Fe19 Fe2 2.426353 1_565
Fe19 Fe6 2.575037 1_555
Fe19 Ge0 2.620840 1_555
Fe19 U1 3.140893 1_564
Fe19 U2 3.192549 1_555
Fe19 U0 3.251932 1_555
Fe20 Fe22 2.376716 1_554
Fe20 Fe21 2.383754 1_555
Fe20 Fe7 2.576814 1_555
Fe20 Fe9 2.577592 1_555
Fe20 Ge0 2.617230 1_555
Fe20 U1 3.133983 1_554
Fe20 U2 3.190459 1_555
Fe20 U0 3.247804 1_545
Fe21 Fe7 2.579924 1_555
Fe21 Ge1 2.617230 1_555
Fe21 U0 3.133983 1_545
Fe21 U3 3.190459 1_555
Fe21 U1 3.247804 1_554
Fe22 Fe8 2.576370 1_545
Fe22 Fe9 2.576370 1_556
Fe22 Ge1 2.620840 1_555
Fe22 U0 3.140893 1_546
Fe22 U3 3.192549 1_555
Fe22 U1 3.251932 1_555
Fe23 Fe6 2.580442 1_556
Fe23 Ge1 2.617230 1_555
Fe23 U0 3.133983 1_556
Fe23 U3 3.190459 1_555
Fe23 U1 3.247804 1_565
Fe24 Fe28 2.376716 1_645
Fe24 Fe29 2.383754 1_655
Fe24 Fe4 2.427706 1_655
Fe24 Fe5 2.432263 1_655
Fe24 Fe7 2.579924 1_555
Fe24 Ge2 2.617230 1_655
Fe24 U0 3.133983 1_545
Fe24 U3 3.190459 1_555
Fe24 U1 3.247804 1_654
Fe25 Fe27 2.376716 1_645
Fe25 Fe29 2.376716 1_656
Fe25 Fe5 2.426353 1_655
Fe25 Fe3 2.426353 1_656
Fe25 Fe8 2.576370 1_545
Fe25 Fe9 2.576370 1_556
Fe25 Ge2 2.620840 1_655
Fe25 U0 3.140893 1_546
Fe25 U3 3.192549 1_555
Fe25 U1 3.251932 1_655
Fe26 Fe28 2.376716 1_656
Fe26 Fe27 2.383754 1_655
Fe26 Fe4 2.427706 1_655
Fe26 Fe3 2.432263 1_656
Fe26 Fe6 2.580442 1_556
Fe26 Ge2 2.617230 1_655
Fe26 U0 3.133983 1_556
Fe26 U3 3.190459 1_555
Fe26 U1 3.247804 1_665
Fe27 Fe4 2.427706 1_555
Fe27 Fe5 2.432263 1_565
Fe27 Fe8 2.577592 1_455
Fe27 Ge3 2.617230 1_455
Fe27 U1 3.133983 1_565
Fe27 U2 3.190459 1_555
Fe27 U0 3.247804 1_456
Fe28 Fe3 2.426353 1_555
Fe28 Fe5 2.426353 1_565
Fe28 Fe6 2.575037 1_455
Fe28 Ge3 2.620840 1_455
Fe28 U1 3.140893 1_564
Fe28 U2 3.192549 1_555
Fe28 U0 3.251932 1_455
Fe29 Fe4 2.427706 1_555
Fe29 Fe3 2.432263 1_555
Fe29 Fe7 2.576814 1_455
Fe29 Fe9 2.577592 1_455
Fe29 Ge3 2.617230 1_455
Fe29 U1 3.133983 1_554
Fe29 U2 3.190459 1_555
Fe29 U0 3.247804 1_445
Ge0 Ge3 2.565212 1_555
Ge0 U2 2.987367 1_555
Ge1 Ge2 2.565212 1_555
Ge1 U3 2.987367 1_555
Ge2 U3 2.987367 1_455
Ge3 U2 2.987367 1_655
