# generated using pymatgen
data_Tb6O11
_symmetry_space_group_name_H-M   'P 1'
_cell_length_a   6.71152700
_cell_length_b   12.01736766
_cell_length_c   12.77619211
_cell_angle_alpha   74.23822602
_cell_angle_beta   81.46343043
_cell_angle_gamma   79.98354398
_symmetry_Int_Tables_number   1
_chemical_formula_structural   Tb6O11
_chemical_formula_sum   'Tb24 O44'
_cell_volume   971.01740587
_cell_formula_units_Z   4
loop_
 _symmetry_equiv_pos_site_id
 _symmetry_equiv_pos_as_xyz
  1  'x, y, z'
loop_
 _atom_site_type_symbol
 _atom_site_label
 _atom_site_symmetry_multiplicity
 _atom_site_fract_x
 _atom_site_fract_y
 _atom_site_fract_z
 _atom_site_occupancy
  Tb  Tb0  1  0.72660700  0.07058900  0.47891500  1
  Tb  Tb1  1  0.27339300  0.92941100  0.52108500  1
  Tb  Tb2  1  0.19412500  0.25156500  0.46611200  1
  Tb  Tb3  1  0.80587500  0.74843500  0.53388800  1
  Tb  Tb4  1  0.65988200  0.41137200  0.40451200  1
  Tb  Tb5  1  0.34011800  0.58862800  0.59548800  1
  Tb  Tb6  1  0.10472000  0.57927000  0.34643700  1
  Tb  Tb7  1  0.89528000  0.42073000  0.65356300  1
  Tb  Tb8  1  0.56984600  0.72918900  0.29998200  1
  Tb  Tb9  1  0.43015400  0.27081100  0.70001800  1
  Tb  Tb10  1  0.05611200  0.90859300  0.27698700  1
  Tb  Tb11  1  0.94388800  0.09140700  0.72301300  1
  Tb  Tb12  1  0.22673500  0.08052400  0.00601800  1
  Tb  Tb13  1  0.77326500  0.91947600  0.99398200  1
  Tb  Tb14  1  0.65748200  0.24287000  0.95970500  1
  Tb  Tb15  1  0.34251800  0.75713000  0.04029500  1
  Tb  Tb16  1  0.12876000  0.39718100  0.91114300  1
  Tb  Tb17  1  0.87124000  0.60281900  0.08885700  1
  Tb  Tb18  1  0.58174300  0.56489300  0.85872200  1
  Tb  Tb19  1  0.41825700  0.43510700  0.14127800  1
  Tb  Tb20  1  0.08735600  0.76451200  0.80311800  1
  Tb  Tb21  1  0.91264400  0.23548800  0.19688200  1
  Tb  Tb22  1  0.51031500  0.92060000  0.76165000  1
  Tb  Tb23  1  0.48968500  0.07940000  0.23835000  1
  O  O0  1  0.56939300  0.06387100  0.06169700  1
  O  O1  1  0.43060700  0.93612900  0.93830300  1
  O  O2  1  0.01881400  0.09353100  0.54001400  1
  O  O3  1  0.98118600  0.90646900  0.45998600  1
  O  O4  1  0.74233900  0.42214100  0.21081300  1
  O  O5  1  0.25766100  0.57785900  0.78918700  1
  O  O6  1  0.40994800  0.74700500  0.84761500  1
  O  O7  1  0.59005200  0.25299500  0.15238500  1
  O  O8  1  0.08784500  0.75490800  0.62334700  1
  O  O9  1  0.91215500  0.24509200  0.37665300  1
  O  O10  1  0.81489800  0.40418500  0.83930900  1
  O  O11  1  0.18510200  0.59581500  0.16069100  1
  O  O12  1  0.82041500  0.90934400  0.81348400  1
  O  O13  1  0.17958500  0.09065600  0.18651600  1
  O  O14  1  0.59611600  0.90316500  0.58471900  1
  O  O15  1  0.40388400  0.09683500  0.41528100  1
  O  O16  1  0.62096600  0.09895400  0.67238600  1
  O  O17  1  0.91252500  0.59151900  0.89601000  1
  O  O18  1  0.74198600  0.25541300  0.77199100  1
  O  O19  1  0.25801400  0.74458700  0.22800900  1
  O  O20  1  0.41764600  0.57776900  0.40987300  1
  O  O21  1  0.58235400  0.42223100  0.59012700  1
  O  O22  1  0.95900600  0.07708700  0.90549300  1
  O  O23  1  0.04099400  0.92291300  0.09450700  1
  O  O24  1  0.35123300  0.23184100  0.88473800  1
  O  O25  1  0.64876700  0.76815900  0.11526200  1
  O  O26  1  0.13174500  0.24732500  0.64805400  1
  O  O27  1  0.86825500  0.75267500  0.35194600  1
  O  O28  1  0.03272400  0.57881400  0.53340600  1
  O  O29  1  0.96727600  0.42118600  0.46659400  1
  O  O30  1  0.80014800  0.56720600  0.27878100  1
  O  O31  1  0.19985200  0.43279400  0.72121900  1
  O  O32  1  0.56649400  0.58834200  0.03341500  1
  O  O33  1  0.43350600  0.41165800  0.96658500  1
  O  O34  1  0.20252700  0.94421900  0.70268600  1
  O  O35  1  0.79747300  0.05578100  0.29731400  1
  O  O36  1  0.52325900  0.24602900  0.51553200  1
  O  O37  1  0.47674100  0.75397100  0.48446800  1
  O  O38  1  0.97111500  0.24025800  0.01614400  1
  O  O39  1  0.02888500  0.75974200  0.98385600  1
  O  O40  1  0.64697100  0.60030500  0.66661400  1
  O  O41  1  0.35302900  0.39969500  0.33338600  1
  O  O42  1  0.37903400  0.90104600  0.32761400  1
  O  O43  1  0.08747500  0.40848100  0.10399000  1
loop_
_geom_bond_atom_site_label_1
_geom_bond_atom_site_label_2
_geom_bond_distance
_geom_bond_site_symmetry_2
O0 Tb23 2.291395 1_555
O0 Tb13 2.295645 1_544
O0 Tb14 2.316376 1_554
O0 Tb12 2.466420 1_555
O1 Tb22 2.291395 1_555
O1 Tb12 2.295645 1_566
O1 Tb15 2.316376 1_556
O1 Tb13 2.466420 1_555
O2 Tb0 2.300218 1_455
O2 Tb11 2.311473 1_455
O2 Tb2 2.314301 1_555
O2 Tb1 2.414949 1_545
O3 Tb1 2.300218 1_655
O3 Tb10 2.311473 1_655
O3 Tb3 2.314301 1_555
O3 Tb0 2.414949 1_565
O4 Tb21 2.373641 1_555
O4 Tb4 2.427273 1_555
O4 Tb19 2.434150 1_555
O4 Tb17 2.511157 1_555
O5 Tb20 2.373641 1_555
O5 Tb5 2.427273 1_555
O5 Tb18 2.434150 1_555
O5 Tb16 2.511157 1_555
O6 Tb22 2.244214 1_555
O6 Tb18 2.267421 1_555
O6 Tb20 2.279701 1_555
O6 Tb15 2.468297 1_556
O7 Tb23 2.244214 1_555
O7 Tb19 2.267421 1_555
O7 Tb21 2.279701 1_555
O7 Tb14 2.468297 1_554
O8 Tb20 2.330282 1_555
O8 Tb3 2.373898 1_455
O8 Tb5 2.452949 1_555
O8 Tb1 2.567565 1_555
O9 Tb21 2.330282 1_555
O9 Tb2 2.373898 1_655
O9 Tb4 2.452949 1_555
O9 Tb0 2.567565 1_555
O10 Tb18 2.309500 1_555
O10 Tb7 2.315857 1_555
O10 Tb16 2.399374 1_655
O10 Tb14 2.418748 1_555
O11 Tb19 2.309500 1_555
O11 Tb6 2.315857 1_555
O11 Tb17 2.399374 1_455
O11 Tb15 2.418748 1_555
O12 Tb22 2.247449 1_555
O12 Tb20 2.286200 1_655
O12 Tb13 2.314184 1_555
O12 Tb11 2.404616 1_565
O13 Tb23 2.247449 1_555
O13 Tb21 2.286200 1_455
O13 Tb12 2.314184 1_555
O13 Tb10 2.404616 1_545
O14 Tb22 2.305270 1_555
O14 Tb3 2.309809 1_555
O14 Tb0 2.329451 1_565
O14 Tb1 2.365942 1_555
O15 Tb23 2.305270 1_555
O15 Tb2 2.309809 1_555
O15 Tb1 2.329451 1_545
O15 Tb0 2.365942 1_555
O16 Tb9 2.317723 1_555
O16 Tb22 2.328166 1_545
O16 Tb11 2.332322 1_555
O16 Tb0 2.565576 1_555
O17 Tb18 2.429379 1_555
O17 Tb17 2.476242 1_556
O17 Tb20 2.490375 1_655
O17 Tb16 2.501353 1_655
O18 Tb14 2.350662 1_555
O18 Tb11 2.366760 1_555
O18 Tb9 2.367294 1_555
O18 Tb7 2.431158 1_555
O19 Tb15 2.350662 1_555
O19 Tb10 2.366760 1_555
O19 Tb8 2.367294 1_555
O19 Tb6 2.431158 1_555
O20 Tb8 2.271276 1_555
O20 Tb6 2.356331 1_555
O20 Tb4 2.357308 1_555
O20 Tb5 2.385316 1_555
O21 Tb9 2.271276 1_555
O21 Tb7 2.356331 1_555
O21 Tb5 2.357308 1_555
O21 Tb4 2.385316 1_555
O22 Tb11 2.306842 1_555
O22 Tb12 2.370594 1_656
O22 Tb13 2.378924 1_545
O22 Tb14 2.734089 1_555
O23 Tb10 2.306842 1_555
O23 Tb13 2.370594 1_454
O23 Tb12 2.378924 1_565
O23 Tb15 2.734089 1_555
O24 Tb12 2.240363 1_556
O24 Tb9 2.276904 1_555
O24 Tb16 2.339620 1_555
O24 Tb14 2.430593 1_555
O25 Tb13 2.240363 1_554
O25 Tb8 2.276904 1_555
O25 Tb17 2.339620 1_555
O25 Tb15 2.430593 1_555
O26 Tb9 2.285768 1_555
O26 Tb2 2.288110 1_555
O26 Tb11 2.346505 1_455
O26 Tb7 2.400469 1_455
O27 Tb8 2.285768 1_555
O27 Tb3 2.288110 1_555
O27 Tb10 2.346505 1_655
O27 Tb6 2.400469 1_655
O28 Tb3 2.323269 1_455
O28 Tb7 2.328402 1_455
O28 Tb5 2.349599 1_555
O28 Tb6 2.364484 1_555
O29 Tb2 2.323269 1_655
O29 Tb6 2.328402 1_655
O29 Tb4 2.349599 1_555
O29 Tb7 2.364484 1_555
O30 Tb8 2.316739 1_555
O30 Tb17 2.337066 1_555
O30 Tb4 2.345996 1_555
O30 Tb6 2.375383 1_655
O31 Tb9 2.316739 1_555
O31 Tb16 2.337066 1_555
O31 Tb5 2.345996 1_555
O31 Tb7 2.375383 1_455
O32 Tb19 2.265297 1_555
O32 Tb18 2.309795 1_554
O32 Tb17 2.310011 1_555
O32 Tb15 2.319207 1_555
O33 Tb18 2.265297 1_555
O33 Tb19 2.309795 1_556
O33 Tb16 2.310011 1_555
O33 Tb14 2.319207 1_555
O34 Tb22 2.248818 1_555
O34 Tb11 2.292816 1_465
O34 Tb1 2.346981 1_555
O34 Tb20 2.385079 1_555
O35 Tb23 2.248818 1_555
O35 Tb10 2.292816 1_645
O35 Tb0 2.346981 1_555
O35 Tb21 2.385079 1_555
O36 Tb4 2.348898 1_555
O36 Tb2 2.371259 1_555
O36 Tb0 2.423196 1_555
O36 Tb9 2.431894 1_555
O37 Tb5 2.348898 1_555
O37 Tb3 2.371259 1_555
O37 Tb1 2.423196 1_555
O37 Tb8 2.431894 1_555
O38 Tb21 2.270753 1_555
O38 Tb14 2.316703 1_554
O38 Tb16 2.318112 1_654
O38 Tb12 2.359714 1_655
O39 Tb20 2.270753 1_555
O39 Tb15 2.316703 1_556
O39 Tb17 2.318112 1_456
O39 Tb13 2.359714 1_455
O40 Tb18 2.361193 1_555
O40 Tb3 2.380197 1_555
O40 Tb5 2.410854 1_555
O40 Tb7 2.514779 1_555
O41 Tb19 2.361193 1_555
O41 Tb2 2.380197 1_555
O41 Tb4 2.410854 1_555
O41 Tb6 2.514779 1_555
O42 Tb8 2.317723 1_555
O42 Tb23 2.328166 1_565
O42 Tb10 2.332322 1_555
O42 Tb1 2.565576 1_555
O43 Tb19 2.429379 1_555
O43 Tb16 2.476242 1_554
O43 Tb21 2.490375 1_455
O43 Tb17 2.501353 1_455
