# generated using pymatgen
data_CeSnPd
_symmetry_space_group_name_H-M   'P 1'
_cell_length_a   7.56368030
_cell_length_b   7.56368052
_cell_length_c   4.15271380
_cell_angle_alpha   90.00000000
_cell_angle_beta   90.00000000
_cell_angle_gamma   119.99999904
_symmetry_Int_Tables_number   1
_chemical_formula_structural   CeSnPd
_chemical_formula_sum   'Ce3 Sn3 Pd3'
_cell_volume   205.74485201
_cell_formula_units_Z   3
loop_
 _symmetry_equiv_pos_site_id
 _symmetry_equiv_pos_as_xyz
  1  'x, y, z'
loop_
 _atom_site_type_symbol
 _atom_site_label
 _atom_site_symmetry_multiplicity
 _atom_site_fract_x
 _atom_site_fract_y
 _atom_site_fract_z
 _atom_site_occupancy
  Ce  Ce0  1  1.00000000  0.58648771  -0.00000000  1
  Ce  Ce1  1  0.41351229  0.41351229  0.00000000  1
  Ce  Ce2  1  0.58648771  -0.00000000  -0.00000000  1
  Sn  Sn0  1  0.74918483  0.74918483  0.50000000  1
  Sn  Sn1  1  0.00000000  0.25081517  0.50000000  1
  Sn  Sn2  1  0.25081517  -0.00000000  0.50000000  1
  Pd  Pd0  1  0.66666700  0.33333300  0.50000000  1
  Pd  Pd1  1  -0.00000000  -0.00000000  0.00000000  1
  Pd  Pd2  1  0.33333300  0.66666700  0.50000000  1
loop_
_geom_bond_atom_site_label_1
_geom_bond_atom_site_label_2
_geom_bond_distance
_geom_bond_site_symmetry_2
Ce0 Pd2 3.083280 1_654
Ce0 Pd2 3.083280 1_655
Ce0 Pd0 3.083281 1_555
Ce0 Pd0 3.083281 1_554
Ce0 Pd1 3.127675 1_665
Ce0 Sn1 3.279843 1_655
Ce0 Sn1 3.279843 1_654
Ce0 Sn0 3.429151 1_554
Ce0 Sn0 3.429151 1_555
Ce0 Sn2 3.429151 1_664
Ce0 Sn2 3.429151 1_665
Ce1 Pd0 3.083285 1_555
Ce1 Pd0 3.083285 1_554
Ce1 Pd2 3.083285 1_555
Ce1 Pd2 3.083285 1_554
Ce1 Pd1 3.127675 1_555
Ce1 Sn0 3.279843 1_554
Ce1 Sn0 3.279843 1_555
Ce1 Sn1 3.429151 1_554
Ce1 Sn1 3.429151 1_555
Ce1 Sn2 3.429151 1_555
Ce1 Sn2 3.429151 1_554
Ce2 Pd0 3.083280 1_555
Ce2 Pd0 3.083280 1_554
Ce2 Pd2 3.083281 1_544
Ce2 Pd2 3.083281 1_545
Ce2 Pd1 3.127675 1_655
Ce2 Sn2 3.279843 1_555
Ce2 Sn2 3.279843 1_554
Ce2 Sn1 3.429151 1_655
Ce2 Sn1 3.429151 1_654
Ce2 Sn0 3.429151 1_544
Ce2 Sn0 3.429151 1_545
Sn0 Sn2 3.285849 1_665
Sn0 Sn1 3.285849 1_665
Sn1 Sn2 3.285849 1_555
Pd0 Sn1 2.884391 1_655
Pd0 Sn2 2.884396 1_555
Pd0 Sn0 2.884399 1_555
Pd1 Sn2 2.812506 1_555
Pd1 Sn2 2.812506 1_554
Pd1 Sn1 2.812506 1_554
Pd1 Sn0 2.812506 1_444
Pd1 Sn0 2.812506 1_445
Pd1 Sn1 2.812506 1_555
Pd2 Sn2 2.884391 1_565
Pd2 Sn1 2.884396 1_555
Pd2 Sn0 2.884399 1_555
