# generated using pymatgen
data_HoFeO3
_symmetry_space_group_name_H-M   'P 1'
_cell_length_a   5.25636467
_cell_length_b   5.60062622
_cell_length_c   7.60683986
_cell_angle_alpha   90.00000000
_cell_angle_beta   90.00000000
_cell_angle_gamma   90.00000000
_symmetry_Int_Tables_number   1
_chemical_formula_structural   HoFeO3
_chemical_formula_sum   'Ho4 Fe4 O12'
_cell_volume   223.93725501
_cell_formula_units_Z   4
loop_
 _symmetry_equiv_pos_site_id
 _symmetry_equiv_pos_as_xyz
  1  'x, y, z'
loop_
 _atom_site_type_symbol
 _atom_site_label
 _atom_site_symmetry_multiplicity
 _atom_site_fract_x
 _atom_site_fract_y
 _atom_site_fract_z
 _atom_site_occupancy
  Ho  Ho0  1  0.01963990  0.92816823  0.75000000  1
  Ho  Ho1  1  0.51963990  0.57183177  0.25000000  1
  Ho  Ho2  1  0.48036010  0.42816823  0.75000000  1
  Ho  Ho3  1  0.98036010  0.07183177  0.25000000  1
  Fe  Fe0  1  0.00000000  0.50000000  0.50000000  1
  Fe  Fe1  1  0.50000000  -0.00000000  0.50000000  1
  Fe  Fe2  1  0.50000000  -0.00000000  0.00000000  1
  Fe  Fe3  1  0.00000000  0.50000000  0.00000000  1
  O  O0  1  0.68905522  0.30764706  0.43950341  1
  O  O1  1  0.18905522  0.19235294  0.56049659  1
  O  O2  1  0.81094478  0.80764706  0.06049659  1
  O  O3  1  0.31094478  0.69235294  0.93950341  1
  O  O4  1  0.31094478  0.69235294  0.56049659  1
  O  O5  1  0.81094478  0.80764706  0.43950341  1
  O  O6  1  0.18905522  0.19235294  0.93950341  1
  O  O7  1  0.68905522  0.30764706  0.06049659  1
  O  O8  1  0.11903335  0.45612813  0.25000000  1
  O  O9  1  0.61903335  0.04387187  0.75000000  1
  O  O10  1  0.38096665  0.95612813  0.25000000  1
  O  O11  1  0.88096665  0.54387187  0.75000000  1
loop_
_geom_bond_atom_site_label_1
_geom_bond_atom_site_label_2
_geom_bond_distance
_geom_bond_site_symmetry_2
Ho0 O9 2.203188 1_465
Ho0 O6 2.249490 1_565
Ho0 O1 2.249490 1_565
Ho0 O11 2.272381 1_455
Ho0 O3 2.483316 1_555
Ho0 O4 2.483316 1_555
Ho0 O5 2.690267 1_455
Ho0 O2 2.690267 1_456
Ho1 O8 2.203188 1_555
Ho1 O7 2.249490 1_555
Ho1 O0 2.249490 1_555
Ho1 O10 2.272381 1_555
Ho1 O2 2.483316 1_555
Ho1 O5 2.483316 1_555
Ho1 O3 2.690267 1_554
Ho1 O4 2.690267 1_555
Ho2 O11 2.203188 1_555
Ho2 O4 2.249490 1_555
Ho2 O3 2.249490 1_555
Ho2 O9 2.272381 1_555
Ho2 O1 2.483316 1_555
Ho2 O6 2.483316 1_555
Ho2 O0 2.690267 1_555
Ho2 O7 2.690267 1_556
Ho3 O10 2.203188 1_645
Ho3 O2 2.249490 1_545
Ho3 O5 2.249490 1_545
Ho3 O8 2.272381 1_655
Ho3 O7 2.483316 1_555
Ho3 O0 2.483316 1_555
Ho3 O1 2.690267 1_655
Ho3 O6 2.690267 1_654
Fe0 O0 2.010903 1_455
Fe0 O4 2.010903 1_555
Fe0 O11 2.017016 1_455
Fe0 O8 2.017016 1_555
Fe0 O1 2.041588 1_555
Fe0 O5 2.041588 1_455
Fe1 O5 2.010903 1_545
Fe1 O1 2.010903 1_555
Fe1 O10 2.017016 1_545
Fe1 O9 2.017016 1_555
Fe1 O4 2.041588 1_545
Fe1 O0 2.041588 1_555
Fe2 O6 2.010903 1_554
Fe2 O2 2.010903 1_545
Fe2 O9 2.017016 1_554
Fe2 O10 2.017016 1_545
Fe2 O3 2.041588 1_544
Fe2 O7 2.041588 1_555
Fe3 O3 2.010903 1_554
Fe3 O7 2.010903 1_455
Fe3 O8 2.017016 1_555
Fe3 O11 2.017016 1_454
Fe3 O6 2.041588 1_554
Fe3 O2 2.041588 1_455
