# generated using pymatgen
data_Pm3Ag
_symmetry_space_group_name_H-M   'P 1'
_cell_length_a   7.05108548
_cell_length_b   7.05108548
_cell_length_c   5.44908800
_cell_angle_alpha   90.00000000
_cell_angle_beta   90.00000000
_cell_angle_gamma   119.99999512
_symmetry_Int_Tables_number   1
_chemical_formula_structural   Pm3Ag
_chemical_formula_sum   'Pm6 Ag2'
_cell_volume   234.62075821
_cell_formula_units_Z   2
loop_
 _symmetry_equiv_pos_site_id
 _symmetry_equiv_pos_as_xyz
  1  'x, y, z'
loop_
 _atom_site_type_symbol
 _atom_site_label
 _atom_site_symmetry_multiplicity
 _atom_site_fract_x
 _atom_site_fract_y
 _atom_site_fract_z
 _atom_site_occupancy
  Pm  Pm0  1  0.17419800  0.34839500  0.25000000  1
  Pm  Pm1  1  0.65160500  0.82580200  0.25000000  1
  Pm  Pm2  1  0.17419800  0.82580200  0.25000000  1
  Pm  Pm3  1  0.82580200  0.65160500  0.75000000  1
  Pm  Pm4  1  0.34839500  0.17419800  0.75000000  1
  Pm  Pm5  1  0.82580200  0.17419800  0.75000000  1
  Ag  Ag0  1  0.33333300  0.66666700  0.75000000  1
  Ag  Ag1  1  0.66666700  0.33333300  0.25000000  1
loop_
_geom_bond_atom_site_label_1
_geom_bond_atom_site_label_2
_geom_bond_distance
_geom_bond_site_symmetry_2
Ag0 Pm2 3.346684 1_556
Ag0 Pm2 3.346684 1_555
Ag0 Pm0 3.346691 1_555
Ag0 Pm1 3.346691 1_555
Ag0 Pm0 3.346691 1_556
Ag0 Pm1 3.346691 1_556
Ag0 Pm3 3.526742 1_555
Ag0 Pm4 3.526742 1_555
Ag0 Pm4 3.526742 1_565
Ag0 Pm3 3.526742 1_455
Ag0 Pm5 3.526743 1_565
Ag0 Pm5 3.526743 1_455
Ag1 Pm5 3.346684 1_555
Ag1 Pm5 3.346684 1_554
Ag1 Pm4 3.346691 1_555
Ag1 Pm3 3.346691 1_554
Ag1 Pm4 3.346691 1_554
Ag1 Pm3 3.346691 1_555
Ag1 Pm1 3.526742 1_555
Ag1 Pm0 3.526742 1_555
Ag1 Pm0 3.526742 1_655
Ag1 Pm1 3.526742 1_545
Ag1 Pm2 3.526743 1_655
Ag1 Pm2 3.526743 1_545
