# generated using pymatgen
data_Tb2Ge5Ir3
_symmetry_space_group_name_H-M   'P 1'
_cell_length_a   8.39515696
_cell_length_b   8.39515696
_cell_length_c   8.39515696
_cell_angle_alpha   137.69468023
_cell_angle_beta   104.37216635
_cell_angle_gamma   90.69971717
_symmetry_Int_Tables_number   1
_chemical_formula_structural   Tb2Ge5Ir3
_chemical_formula_sum   'Tb4 Ge10 Ir6'
_cell_volume   367.98114293
_cell_formula_units_Z   2
loop_
 _symmetry_equiv_pos_site_id
 _symmetry_equiv_pos_as_xyz
  1  'x, y, z'
loop_
 _atom_site_type_symbol
 _atom_site_label
 _atom_site_symmetry_multiplicity
 _atom_site_fract_x
 _atom_site_fract_y
 _atom_site_fract_z
 _atom_site_occupancy
  Tb  Tb0  1  0.86147600  0.63256500  0.22891100  1
  Tb  Tb1  1  0.13852400  0.36743500  0.77108900  1
  Tb  Tb2  1  0.40365400  0.13256500  0.27108900  1
  Tb  Tb3  1  0.59634600  0.86743500  0.72891100  1
  Ge  Ge0  1  0.50000000  0.75000000  0.25000000  1
  Ge  Ge1  1  0.50000000  0.25000000  0.75000000  1
  Ge  Ge2  1  0.22563900  0.97563900  0.75000000  1
  Ge  Ge3  1  0.77436100  0.52436100  0.75000000  1
  Ge  Ge4  1  0.77436100  0.02436100  0.25000000  1
  Ge  Ge5  1  0.22563900  0.47563900  0.25000000  1
  Ge  Ge6  1  0.05946800  0.89914300  0.16032600  1
  Ge  Ge7  1  0.94053200  0.10085700  0.83967400  1
  Ge  Ge8  1  0.73881700  0.39914300  0.33967400  1
  Ge  Ge9  1  0.26118300  0.60085700  0.66032600  1
  Ir  Ir0  1  0.00000000  0.75000000  0.75000000  1
  Ir  Ir1  1  0.00000000  0.25000000  0.25000000  1
  Ir  Ir2  1  0.24669700  0.85886500  0.38783200  1
  Ir  Ir3  1  0.75330300  0.14113500  0.61216800  1
  Ir  Ir4  1  0.47103200  0.35886500  0.11216800  1
  Ir  Ir5  1  0.52896800  0.64113500  0.88783200  1
loop_
_geom_bond_atom_site_label_1
_geom_bond_atom_site_label_2
_geom_bond_distance
_geom_bond_site_symmetry_2
Ge0 Ir4 2.530034 1_555
Ge0 Ir3 2.530035 1_565
Ge0 Ir2 2.530035 1_555
Ge0 Ir5 2.530038 1_554
Ge0 Tb0 3.208429 1_555
Ge0 Tb3 3.208429 1_555
Ge0 Tb1 3.208429 1_554
Ge0 Tb2 3.208429 1_565
Ge1 Ir5 2.530034 1_555
Ge1 Ir2 2.530035 1_545
Ge1 Ir3 2.530035 1_555
Ge1 Ir4 2.530038 1_556
Ge1 Tb0 3.208429 1_556
Ge1 Tb3 3.208429 1_545
Ge1 Tb1 3.208429 1_555
Ge1 Tb2 3.208429 1_555
Ge2 Ir4 2.469600 1_566
Ge2 Ir2 2.469604 1_555
Ge2 Ir0 2.662501 1_555
Ge2 Ge7 2.680702 1_465
Ge2 Ge9 2.680711 1_555
Ge2 Tb3 3.262921 1_555
Ge2 Tb1 3.262921 1_565
Ge2 Tb2 3.359778 1_566
Ge2 Tb0 3.359778 1_455
Ge3 Ir5 2.469596 1_555
Ge3 Ir3 2.469604 1_555
Ge3 Ir0 2.662501 1_655
Ge3 Ge6 2.680706 1_656
Ge3 Ge8 2.680711 1_555
Ge3 Tb0 3.262921 1_556
Ge3 Tb2 3.262921 1_555
Ge3 Tb1 3.359778 1_655
Ge3 Tb3 3.359778 1_555
Ge4 Ir5 2.469600 1_544
Ge4 Ir3 2.469604 1_555
Ge4 Ir1 2.662501 1_655
Ge4 Ge6 2.680702 1_645
Ge4 Ge8 2.680711 1_555
Ge4 Tb0 3.262921 1_545
Ge4 Tb2 3.262921 1_555
Ge4 Tb1 3.359778 1_655
Ge4 Tb3 3.359778 1_544
Ge5 Ir4 2.469596 1_555
Ge5 Ir2 2.469604 1_555
Ge5 Ir1 2.662501 1_555
Ge5 Ge7 2.680706 1_454
Ge5 Ge9 2.680711 1_555
Ge5 Tb3 3.262921 1_555
Ge5 Tb1 3.262921 1_554
Ge5 Tb2 3.359778 1_555
Ge5 Tb0 3.359778 1_455
Ge6 Ir2 2.389718 1_555
Ge6 Ir1 2.536640 1_565
Ge6 Ir0 2.536644 1_554
Ge6 Tb2 2.981024 1_565
Ge6 Tb0 3.223830 1_455
Ge6 Tb1 3.258447 1_565
Ge6 Tb1 3.258453 1_554
Ge7 Ir3 2.389718 1_555
Ge7 Ir0 2.536640 1_645
Ge7 Ir1 2.536644 1_656
Ge7 Tb3 2.981024 1_545
Ge7 Tb1 3.223830 1_655
Ge7 Tb0 3.258447 1_545
Ge7 Tb0 3.258453 1_556
Ge8 Ir4 2.389720 1_555
Ge8 Ir1 2.536643 1_655
Ge8 Ir0 2.536643 1_655
Ge8 Tb0 2.981017 1_555
Ge8 Tb2 3.223834 1_555
Ge8 Tb3 3.258449 1_544
Ge8 Tb3 3.258449 1_555
Ge9 Ir5 2.389720 1_555
Ge9 Ir1 2.536643 1_555
Ge9 Ir0 2.536643 1_555
Ge9 Tb1 2.981017 1_555
Ge9 Tb3 3.223834 1_555
Ge9 Tb2 3.258449 1_555
Ge9 Tb2 3.258449 1_566
Ir0 Tb2 3.539604 1_566
Ir0 Tb0 3.539604 1_455
Ir0 Tb1 3.539604 1_555
Ir0 Tb3 3.539604 1_455
Ir1 Tb2 3.539604 1_555
Ir1 Tb0 3.539604 1_455
Ir1 Tb1 3.539604 1_555
Ir1 Tb3 3.539604 1_444
Ir2 Tb0 3.131589 1_455
Ir2 Tb1 3.260659 1_565
Ir2 Tb1 3.260659 1_554
Ir2 Tb2 3.445960 1_565
Ir2 Tb3 3.512565 1_555
Ir3 Tb1 3.131589 1_655
Ir3 Tb0 3.260659 1_545
Ir3 Tb0 3.260659 1_556
Ir3 Tb3 3.445960 1_545
Ir3 Tb2 3.512565 1_555
Ir4 Tb2 3.131586 1_555
Ir4 Tb3 3.260658 1_555
Ir4 Tb3 3.260664 1_544
Ir4 Tb0 3.445968 1_555
Ir4 Tb1 3.512561 1_554
Ir5 Tb3 3.131586 1_555
Ir5 Tb2 3.260658 1_555
Ir5 Tb2 3.260664 1_566
Ir5 Tb1 3.445968 1_555
Ir5 Tb0 3.512561 1_556
