# generated using pymatgen
data_Ca3Y2N4
_symmetry_space_group_name_H-M   'P 1'
_cell_length_a   6.13791700
_cell_length_b   12.33650000
_cell_length_c   9.30648100
_cell_angle_alpha   90.00000000
_cell_angle_beta   90.00000000
_cell_angle_gamma   90.00000000
_symmetry_Int_Tables_number   1
_chemical_formula_structural   Ca3Y2N4
_chemical_formula_sum   'Ca12 Y8 N16'
_cell_volume   704.69058555
_cell_formula_units_Z   4
loop_
 _symmetry_equiv_pos_site_id
 _symmetry_equiv_pos_as_xyz
  1  'x, y, z'
loop_
 _atom_site_type_symbol
 _atom_site_label
 _atom_site_symmetry_multiplicity
 _atom_site_fract_x
 _atom_site_fract_y
 _atom_site_fract_z
 _atom_site_occupancy
  Ca  Ca0  1  0.66783700  0.18069500  0.39097500  1
  Ca  Ca1  1  0.83216300  0.81930500  0.39097500  1
  Ca  Ca2  1  0.66783700  0.31930500  0.10902500  1
  Ca  Ca3  1  0.83216300  0.68069500  0.10902500  1
  Ca  Ca4  1  0.33216300  0.81930500  0.60902500  1
  Ca  Ca5  1  0.16783700  0.18069500  0.60902500  1
  Ca  Ca6  1  0.33216300  0.68069500  0.89097500  1
  Ca  Ca7  1  0.16783700  0.31930500  0.89097500  1
  Ca  Ca8  1  0.75000000  0.50000000  0.43202500  1
  Ca  Ca9  1  0.75000000  0.00000000  0.06797500  1
  Ca  Ca10  1  0.25000000  0.50000000  0.56797500  1
  Ca  Ca11  1  0.25000000  0.00000000  0.93202500  1
  Y  Y0  1  0.75000000  0.50000000  0.81401900  1
  Y  Y1  1  0.75000000  0.00000000  0.68598100  1
  Y  Y2  1  0.25000000  0.50000000  0.18598100  1
  Y  Y3  1  0.25000000  0.00000000  0.31401900  1
  Y  Y4  1  0.71035300  0.25000000  0.75000000  1
  Y  Y5  1  0.78964700  0.75000000  0.75000000  1
  Y  Y6  1  0.28964700  0.75000000  0.25000000  1
  Y  Y7  1  0.21035300  0.25000000  0.25000000  1
  N  N0  1  0.95653500  0.38521200  0.66849200  1
  N  N1  1  0.54346500  0.61478800  0.66849200  1
  N  N2  1  0.95653500  0.11478800  0.83150800  1
  N  N3  1  0.54346500  0.88521200  0.83150800  1
  N  N4  1  0.04346500  0.61478800  0.33150800  1
  N  N5  1  0.45653500  0.38521200  0.33150800  1
  N  N6  1  0.04346500  0.88521200  0.16849200  1
  N  N7  1  0.45653500  0.11478800  0.16849200  1
  N  N8  1  0.52707700  0.36250400  0.89120100  1
  N  N9  1  0.97292300  0.63749600  0.89120100  1
  N  N10  1  0.52707700  0.13749600  0.60879900  1
  N  N11  1  0.97292300  0.86250400  0.60879900  1
  N  N12  1  0.47292300  0.63749600  0.10879900  1
  N  N13  1  0.02707700  0.36250400  0.10879900  1
  N  N14  1  0.47292300  0.86250400  0.39120100  1
  N  N15  1  0.02707700  0.13749600  0.39120100  1
loop_
_geom_bond_atom_site_label_1
_geom_bond_atom_site_label_2
_geom_bond_distance
_geom_bond_site_symmetry_2
Ca0 N10 2.267134 1_555
Ca0 N15 2.268474 1_655
Ca0 N7 2.574931 1_555
Ca0 N5 2.890333 1_555
Ca1 N11 2.267134 1_555
Ca1 N14 2.268474 1_555
Ca1 N6 2.574931 1_655
Ca1 N4 2.890333 1_655
Ca2 N8 2.267134 1_554
Ca2 N13 2.268474 1_655
Ca2 N5 2.574931 1_555
Ca2 N7 2.890333 1_555
Ca3 N9 2.267134 1_554
Ca3 N12 2.268474 1_555
Ca3 N4 2.574931 1_655
Ca3 N6 2.890333 1_655
Ca4 N14 2.267134 1_555
Ca4 N11 2.268474 1_455
Ca4 N3 2.574931 1_555
Ca4 N1 2.890333 1_555
Ca5 N15 2.267134 1_555
Ca5 N10 2.268474 1_555
Ca5 N2 2.574931 1_455
Ca5 N0 2.890333 1_455
Ca6 N12 2.267134 1_556
Ca6 N9 2.268474 1_455
Ca6 N1 2.574931 1_555
Ca6 N3 2.890333 1_555
Ca7 N13 2.267134 1_556
Ca7 N8 2.268474 1_555
Ca7 N0 2.574931 1_455
Ca7 N2 2.890333 1_455
Ca8 N4 2.474858 1_655
Ca8 N5 2.474858 1_555
Ca8 N0 2.907802 1_555
Ca8 N1 2.907802 1_555
Ca9 N6 2.474858 1_645
Ca9 N7 2.474858 1_555
Ca9 N2 2.907802 1_554
Ca9 N3 2.907802 1_544
Ca10 N1 2.474858 1_555
Ca10 N0 2.474858 1_455
Ca10 N5 2.907802 1_555
Ca10 N4 2.907802 1_555
Ca11 N3 2.474858 1_545
Ca11 N2 2.474858 1_455
Ca11 N7 2.907802 1_556
Ca11 N6 2.907802 1_546
N0 Y0 2.333792 1_555
N0 Y4 2.375084 1_555
N1 Y0 2.333792 1_555
N1 Y5 2.375084 1_555
N2 Y1 2.333792 1_555
N2 Y4 2.375084 1_555
N3 Y1 2.333792 1_565
N3 Y5 2.375084 1_555
N4 Y2 2.333792 1_555
N4 Y6 2.375084 1_555
N5 Y2 2.333792 1_555
N5 Y7 2.375084 1_555
N6 Y3 2.333792 1_565
N6 Y6 2.375084 1_555
N7 Y3 2.333792 1_555
N7 Y7 2.375084 1_555
N8 Y4 2.217786 1_555
N8 Y0 2.294625 1_555
N9 Y5 2.217786 1_555
N9 Y0 2.294625 1_555
N10 Y4 2.217786 1_555
N10 Y1 2.294625 1_555
N11 Y5 2.217786 1_555
N11 Y1 2.294625 1_565
N12 Y6 2.217786 1_555
N12 Y2 2.294625 1_555
N13 Y7 2.217786 1_555
N13 Y2 2.294625 1_555
N14 Y6 2.217786 1_555
N14 Y3 2.294625 1_565
N15 Y7 2.217786 1_555
N15 Y3 2.294625 1_555
