# generated using pymatgen
data_CaSc4(Si2O7)2
_symmetry_space_group_name_H-M   'P 1'
_cell_length_a   7.11509983
_cell_length_b   7.11509967
_cell_length_c   6.65806500
_cell_angle_alpha   62.10304575
_cell_angle_beta   62.10304643
_cell_angle_gamma   62.85201998
_symmetry_Int_Tables_number   1
_chemical_formula_structural   CaSc4(Si2O7)2
_chemical_formula_sum   'Ca1 Sc4 Si4 O14'
_cell_volume   250.82216134
_cell_formula_units_Z   1
loop_
 _symmetry_equiv_pos_site_id
 _symmetry_equiv_pos_as_xyz
  1  'x, y, z'
loop_
 _atom_site_type_symbol
 _atom_site_label
 _atom_site_symmetry_multiplicity
 _atom_site_fract_x
 _atom_site_fract_y
 _atom_site_fract_z
 _atom_site_occupancy
  Ca  Ca0  1  0.69941500  0.69941500  0.55058500  1
  Sc  Sc0  1  0.94906200  0.49004500  0.03044600  1
  Sc  Sc1  1  0.49004500  0.94906200  0.03044600  1
  Sc  Sc2  1  0.01635200  0.01635200  0.47639000  1
  Sc  Sc3  1  0.01635200  0.01635200  0.99090600  1
  Si  Si0  1  0.45235600  0.08103100  0.48330600  1
  Si  Si1  1  0.08103100  0.45235600  0.48330600  1
  Si  Si2  1  0.48155800  0.48155800  0.02380500  1
  Si  Si3  1  0.48155800  0.48155800  0.51307800  1
  O  O0  1  0.39799400  0.81325300  0.88349200  1
  O  O1  1  0.18993200  0.52502400  0.60126100  1
  O  O2  1  0.81325300  0.39799400  0.88349200  1
  O  O3  1  0.90657800  0.90657800  0.34342200  1
  O  O4  1  0.46572100  0.46572100  0.78427900  1
  O  O5  1  0.39799400  0.81325300  0.40526200  1
  O  O6  1  0.18993200  0.52502400  0.18378300  1
  O  O7  1  0.52502400  0.18993200  0.60126100  1
  O  O8  1  0.15806500  0.15806500  0.09193500  1
  O  O9  1  0.86642200  0.86642200  0.88357800  1
  O  O10  1  0.81325300  0.39799400  0.40526200  1
  O  O11  1  0.54563400  0.54563400  0.20436600  1
  O  O12  1  0.16744600  0.16744600  0.58255400  1
  O  O13  1  0.52502400  0.18993200  0.18378300  1
loop_
_geom_bond_atom_site_label_1
_geom_bond_atom_site_label_2
_geom_bond_distance
_geom_bond_site_symmetry_2
Ca0 O3 2.103684 1_555
Ca0 O4 2.373099 1_555
Ca0 O10 2.411415 1_555
Ca0 O5 2.411416 1_555
Ca0 O2 2.411420 1_555
Ca0 O0 2.411420 1_555
Ca0 Si0 2.430260 1_565
Ca0 Si1 2.430260 1_655
O0 Si2 1.993024 1_556
O0 Sc1 2.093309 1_556
O0 Sc3 2.354168 1_565
O0 Si0 2.415930 1_565
O1 Si1 1.673171 1_555
O1 Si3 1.786077 1_555
O1 Sc0 2.511109 1_456
O2 Si2 1.993024 1_556
O2 Sc0 2.093309 1_556
O2 Sc3 2.354168 1_655
O2 Si1 2.415930 1_655
O3 Sc3 1.963336 1_664
O3 Sc2 1.963336 1_665
O4 Si2 1.707812 1_556
O4 Si3 1.707819 1_555
O5 Si3 1.993024 1_555
O5 Sc1 2.093320 1_555
O5 Sc2 2.354168 1_565
O5 Si0 2.415921 1_565
O6 Si1 1.673165 1_555
O6 Si2 1.786078 1_555
O6 Sc0 2.511114 1_455
O7 Si0 1.673171 1_555
O7 Si3 1.786077 1_555
O7 Sc1 2.511109 1_546
O8 Sc0 2.101823 1_455
O8 Sc1 2.101823 1_545
O8 Sc2 2.164015 1_555
O8 Sc3 2.164015 1_554
O9 Sc0 2.263631 1_556
O9 Sc1 2.263631 1_556
O9 Sc2 2.291686 1_665
O9 Sc3 2.291686 1_665
O10 Si3 1.993025 1_555
O10 Sc0 2.093320 1_555
O10 Sc2 2.354168 1_655
O10 Si1 2.415921 1_655
O11 Si3 1.753960 1_555
O11 Si2 1.753966 1_555
O11 Sc1 2.453335 1_555
O11 Sc0 2.453335 1_555
O12 Si1 1.706850 1_555
O12 Si0 1.706850 1_555
O12 Sc3 2.299555 1_555
O12 Sc2 2.299556 1_555
O13 Si0 1.673165 1_555
O13 Si2 1.786078 1_555
O13 Sc1 2.511114 1_545
