# generated using pymatgen
data_ErThRu2
_symmetry_space_group_name_H-M   'P 1'
_cell_length_a   4.88266754
_cell_length_b   4.88266754
_cell_length_c   4.88266754
_cell_angle_alpha   60.00000000
_cell_angle_beta   60.00000000
_cell_angle_gamma   60.00000000
_symmetry_Int_Tables_number   1
_chemical_formula_structural   ErThRu2
_chemical_formula_sum   'Er1 Th1 Ru2'
_cell_volume   82.31073234
_cell_formula_units_Z   1
loop_
 _symmetry_equiv_pos_site_id
 _symmetry_equiv_pos_as_xyz
  1  'x, y, z'
loop_
 _atom_site_type_symbol
 _atom_site_label
 _atom_site_symmetry_multiplicity
 _atom_site_fract_x
 _atom_site_fract_y
 _atom_site_fract_z
 _atom_site_occupancy
  Er  Er0  1  0.50000000  0.50000000  0.50000000  1
  Th  Th0  1  0.00000000  -0.00000000  0.00000000  1
  Ru  Ru0  1  0.25000000  0.25000000  0.25000000  1
  Ru  Ru1  1  0.75000000  0.75000000  0.75000000  1
loop_
_geom_bond_atom_site_label_1
_geom_bond_atom_site_label_2
_geom_bond_distance
_geom_bond_site_symmetry_2
Er0 Ru0 2.990011 1_565
Er0 Ru1 2.990011 1_455
Er0 Ru1 2.990011 1_545
Er0 Ru0 2.990011 1_655
Er0 Ru0 2.990011 1_556
Er0 Ru1 2.990011 1_555
Er0 Ru1 2.990011 1_554
Er0 Ru0 2.990011 1_555
Ru0 Th0 2.990011 1_655
Ru0 Th0 2.990011 1_565
Ru0 Th0 2.990011 1_556
Ru0 Th0 2.990011 1_555
Ru1 Th0 2.990011 1_566
Ru1 Th0 2.990011 1_656
Ru1 Th0 2.990011 1_666
Ru1 Th0 2.990011 1_665
