# generated using pymatgen
data_Ba2Ti3Tl2O10
_symmetry_space_group_name_H-M   'P 1'
_cell_length_a   3.99373000
_cell_length_b   3.99746300
_cell_length_c   16.45946987
_cell_angle_alpha   91.01538239
_cell_angle_beta   90.17783178
_cell_angle_gamma   90.00044432
_symmetry_Int_Tables_number   1
_chemical_formula_structural   Ba2Ti3Tl2O10
_chemical_formula_sum   'Ba2 Ti3 Tl2 O10'
_cell_volume   262.72941742
_cell_formula_units_Z   1
loop_
 _symmetry_equiv_pos_site_id
 _symmetry_equiv_pos_as_xyz
  1  'x, y, z'
loop_
 _atom_site_type_symbol
 _atom_site_label
 _atom_site_symmetry_multiplicity
 _atom_site_fract_x
 _atom_site_fract_y
 _atom_site_fract_z
 _atom_site_occupancy
  Ba  Ba0  1  0.76553500  0.77718200  0.26105300  1
  Ba  Ba1  1  0.29162000  0.29339900  0.73819200  1
  Ti  Ti0  1  0.81567600  0.80217700  0.85965200  1
  Ti  Ti1  1  0.26150200  0.24666000  0.13560500  1
  Ti  Ti2  1  0.71874900  0.31751900  0.99570800  1
  Tl  Tl0  1  0.27914600  0.27745300  0.43896000  1
  Tl  Tl1  1  0.83064700  0.78552400  0.58596400  1
  O  O0  1  0.76778600  0.30136100  0.86916300  1
  O  O1  1  0.76686400  0.79294900  0.72405500  1
  O  O2  1  0.26038900  0.79994600  0.84523100  1
  O  O3  1  0.11394900  0.28578400  0.58490700  1
  O  O4  1  0.27492100  0.30802400  0.00926000  1
  O  O5  1  0.76419500  0.29729800  0.11417400  1
  O  O6  1  0.27341200  0.30836200  0.24823500  1
  O  O7  1  0.26083900  0.80280000  0.14154200  1
  O  O8  1  0.63564300  0.77827100  0.46736600  1
  O  O9  1  0.76866100  0.80658600  0.97398700  1
loop_
_geom_bond_atom_site_label_1
_geom_bond_atom_site_label_2
_geom_bond_distance
_geom_bond_site_symmetry_2
Ba0 O6 2.720828 1_555
Ba0 O6 2.767585 1_655
Ba0 O7 2.797165 1_655
Ba0 O7 2.815169 1_555
Ba0 O6 2.903345 1_565
Ba0 O6 2.947166 1_665
Ba0 O5 3.059425 1_555
Ba0 O5 3.216440 1_565
Ba0 O8 3.436715 1_555
Ba1 O3 2.618408 1_555
Ba1 O2 2.663583 1_555
Ba1 O2 2.671149 1_545
Ba1 O1 2.764952 1_545
Ba1 O1 2.768289 1_555
Ba1 O0 2.869950 1_555
Ba1 O1 2.903235 1_445
Ba1 O1 2.906457 1_455
Ba1 O0 3.008381 1_455
O0 Ti0 2.008010 1_545
O0 Ti0 2.019988 1_555
O0 Ti2 2.092513 1_555
O1 Ti0 2.239402 1_555
O1 Tl1 2.287590 1_555
O2 Ti0 1.792586 1_455
O2 Ti0 2.229601 1_555
O3 Tl1 2.295679 1_455
O3 Tl1 2.298009 1_445
O3 Tl0 2.492789 1_555
O4 Ti2 1.787683 1_554
O4 Ti1 2.099151 1_555
O4 Ti2 2.232074 1_454
O5 Ti2 1.960848 1_554
O5 Ti1 2.026875 1_655
O5 Ti1 2.050088 1_555
O6 Ti1 1.866288 1_555
O7 Ti1 1.778733 1_565
O7 Ti1 2.223567 1_555
O8 Tl1 2.099156 1_555
O8 Tl0 2.493257 1_555
O8 Tl0 2.501303 1_565
O9 Ti0 1.891589 1_555
O9 Ti2 2.003720 1_555
O9 Ti2 2.076936 1_565
