# generated using pymatgen
data_Eu6P19Rh30
_symmetry_space_group_name_H-M   'P 1'
_cell_length_a   3.85858300
_cell_length_b   15.69591601
_cell_length_c   15.69591601
_cell_angle_alpha   120.00000003
_cell_angle_beta   90.00000000
_cell_angle_gamma   90.00000000
_symmetry_Int_Tables_number   1
_chemical_formula_structural   Eu6P19Rh30
_chemical_formula_sum   'Eu6 P19 Rh30'
_cell_volume   823.25013420
_cell_formula_units_Z   1
loop_
 _symmetry_equiv_pos_site_id
 _symmetry_equiv_pos_as_xyz
  1  'x, y, z'
loop_
 _atom_site_type_symbol
 _atom_site_label
 _atom_site_symmetry_multiplicity
 _atom_site_fract_x
 _atom_site_fract_y
 _atom_site_fract_z
 _atom_site_occupancy
  Eu  Eu0  1  0.74978300  0.29617600  0.90222300  1
  Eu  Eu1  1  0.74978300  0.09777700  0.39395300  1
  Eu  Eu2  1  0.74978300  0.60604700  0.70382400  1
  Eu  Eu3  1  0.25029500  0.70414200  0.09734400  1
  Eu  Eu4  1  0.25029500  0.90265600  0.60679800  1
  Eu  Eu5  1  0.25029500  0.39320200  0.29585800  1
  P  P0  1  0.75401500  0.88288000  0.74363500  1
  P  P1  1  0.75401500  0.25636500  0.13924500  1
  P  P2  1  0.75401500  0.86075500  0.11712000  1
  P  P3  1  0.24835300  0.11759600  0.25601900  1
  P  P4  1  0.24835300  0.74398100  0.86157700  1
  P  P5  1  0.24835300  0.13842300  0.88240400  1
  P  P6  1  0.74941400  0.68257600  0.23184200  1
  P  P7  1  0.74941400  0.76815800  0.45073400  1
  P  P8  1  0.74941400  0.54926600  0.31742400  1
  P  P9  1  0.25051700  0.31730700  0.76805200  1
  P  P10  1  0.25051700  0.23194800  0.54925500  1
  P  P11  1  0.25051700  0.45074500  0.68269300  1
  P  P12  1  0.75118900  0.06199000  0.62908200  1
  P  P13  1  0.75118900  0.37091800  0.43290800  1
  P  P14  1  0.75118900  0.56709200  0.93801000  1
  P  P15  1  0.24936600  0.93781000  0.37088700  1
  P  P16  1  0.24936600  0.62911300  0.56692200  1
  P  P17  1  0.24936600  0.43307800  0.06219000  1
  P  P18  1  0.56700300  0.00000000  0.00000000  1
  Rh  Rh0  1  0.74925800  0.73792500  0.58442500  1
  Rh  Rh1  1  0.74925800  0.41557500  0.15350000  1
  Rh  Rh2  1  0.74925800  0.84650000  0.26207500  1
  Rh  Rh3  1  0.25129300  0.26206900  0.41521500  1
  Rh  Rh4  1  0.25129300  0.58478500  0.84685400  1
  Rh  Rh5  1  0.25129300  0.15314600  0.73793100  1
  Rh  Rh6  1  0.74998200  0.12699800  0.97687400  1
  Rh  Rh7  1  0.74998200  0.02312600  0.15012400  1
  Rh  Rh8  1  0.74998200  0.84987600  0.87300200  1
  Rh  Rh9  1  0.25542400  0.87674100  0.02277200  1
  Rh  Rh10  1  0.25542400  0.97722800  0.85396900  1
  Rh  Rh11  1  0.25542400  0.14603100  0.12325900  1
  Rh  Rh12  1  0.75099600  0.42810100  0.77639800  1
  Rh  Rh13  1  0.75099600  0.22360200  0.65170200  1
  Rh  Rh14  1  0.75099600  0.34829800  0.57189900  1
  Rh  Rh15  1  0.24867400  0.57220100  0.22377100  1
  Rh  Rh16  1  0.24867400  0.77622900  0.34843000  1
  Rh  Rh17  1  0.24867400  0.65157000  0.42779900  1
  Rh  Rh18  1  0.74918000  0.53830600  0.07364900  1
  Rh  Rh19  1  0.74918000  0.92635100  0.46465800  1
  Rh  Rh20  1  0.74918000  0.53534200  0.46169400  1
  Rh  Rh21  1  0.25111000  0.46160000  0.92657100  1
  Rh  Rh22  1  0.25111000  0.07342900  0.53503000  1
  Rh  Rh23  1  0.25111000  0.46497000  0.53840000  1
  Rh  Rh24  1  0.75424300  0.04782400  0.77218500  1
  Rh  Rh25  1  0.75424300  0.22781500  0.27563900  1
  Rh  Rh26  1  0.75424300  0.72436100  0.95217600  1
  Rh  Rh27  1  0.24757300  0.95125200  0.22779900  1
  Rh  Rh28  1  0.24757300  0.77220100  0.72345300  1
  Rh  Rh29  1  0.24757300  0.27654700  0.04874800  1
loop_
_geom_bond_atom_site_label_1
_geom_bond_atom_site_label_2
_geom_bond_distance
_geom_bond_site_symmetry_2
Eu0 P9 2.992440 1_555
Eu0 P9 2.996090 1_655
Eu0 P5 3.026282 1_655
Eu0 P5 3.033309 1_555
Eu0 P17 3.040115 1_656
Eu0 P17 3.042156 1_556
Eu0 Rh21 3.098050 1_555
Eu0 Rh5 3.098430 1_555
Eu0 Rh21 3.104421 1_655
Eu0 Rh5 3.105677 1_655
Eu0 Rh29 3.127637 1_656
Eu0 Rh29 3.138139 1_556
Eu0 Rh24 3.377162 1_555
Eu1 P10 2.992440 1_555
Eu1 P10 2.996090 1_655
Eu1 P3 3.026282 1_655
Eu1 P3 3.033309 1_555
Eu1 P15 3.040110 1_645
Eu1 P15 3.042152 1_545
Eu1 Rh22 3.098063 1_555
Eu1 Rh3 3.098430 1_555
Eu1 Rh22 3.104433 1_655
Eu1 Rh3 3.105677 1_655
Eu1 Rh27 3.127637 1_645
Eu1 Rh27 3.138139 1_545
Eu1 Rh25 3.377162 1_555
Eu2 P11 2.992440 1_555
Eu2 P11 2.996090 1_655
Eu2 P4 3.026282 1_655
Eu2 P4 3.033309 1_555
Eu2 P16 3.040122 1_655
Eu2 P16 3.042164 1_555
Eu2 Rh23 3.098055 1_555
Eu2 Rh4 3.098430 1_555
Eu2 Rh23 3.104426 1_655
Eu2 Rh4 3.105677 1_655
Eu2 Rh28 3.127637 1_655
Eu2 Rh28 3.138139 1_555
Eu2 Rh26 3.377162 1_555
Eu3 P6 2.999141 1_555
Eu3 P6 3.003512 1_455
Eu3 P2 3.007155 1_455
Eu3 P2 3.025517 1_555
Eu3 P14 3.034953 1_454
Eu3 P14 3.039335 1_554
Eu3 Rh2 3.099586 1_555
Eu3 Rh2 3.104563 1_455
Eu3 Rh18 3.106633 1_555
Eu3 Rh26 3.111142 1_454
Eu3 Rh18 3.111972 1_455
Eu3 Rh26 3.129979 1_554
Eu3 Rh27 3.360743 1_555
Eu4 P7 2.999141 1_555
Eu4 P7 3.003512 1_455
Eu4 P0 3.007155 1_455
Eu4 P0 3.025517 1_555
Eu4 P12 3.034953 1_465
Eu4 P12 3.039335 1_565
Eu4 Rh0 3.099586 1_555
Eu4 Rh0 3.104563 1_455
Eu4 Rh19 3.106621 1_555
Eu4 Rh24 3.111142 1_465
Eu4 Rh19 3.111960 1_455
Eu4 Rh24 3.129979 1_565
Eu4 Rh28 3.360743 1_555
Eu5 P8 2.999141 1_555
Eu5 P8 3.003512 1_455
Eu5 P1 3.007155 1_455
Eu5 P1 3.025517 1_555
Eu5 P13 3.034953 1_455
Eu5 P13 3.039335 1_555
Eu5 Rh1 3.099586 1_555
Eu5 Rh1 3.104563 1_455
Eu5 Rh20 3.106628 1_555
Eu5 Rh25 3.111142 1_455
Eu5 Rh20 3.111967 1_455
Eu5 Rh25 3.129979 1_555
Eu5 Rh29 3.360743 1_555
P0 Rh8 2.333138 1_555
P0 Rh0 2.394996 1_555
P0 Rh24 2.396519 1_565
P0 Rh28 2.488937 1_655
P0 Rh10 2.515701 1_555
P0 Rh10 2.524026 1_655
P0 Rh28 2.527179 1_555
P1 Rh6 2.333138 1_554
P1 Rh1 2.394996 1_555
P1 Rh25 2.396519 1_555
P1 Rh29 2.488937 1_655
P1 Rh11 2.515701 1_555
P1 Rh11 2.524026 1_655
P1 Rh29 2.527179 1_555
P2 Rh7 2.333138 1_565
P2 Rh2 2.394996 1_555
P2 Rh26 2.396519 1_554
P2 Rh27 2.488937 1_655
P2 Rh9 2.515701 1_555
P2 Rh9 2.524026 1_655
P2 Rh27 2.527179 1_555
P3 Rh11 2.339261 1_555
P3 Rh3 2.391597 1_555
P3 Rh27 2.420049 1_545
P3 Rh25 2.487956 1_455
P3 Rh7 2.488913 1_455
P3 Rh7 2.498639 1_555
P3 Rh25 2.522957 1_555
P4 Rh9 2.339261 1_556
P4 Rh4 2.391597 1_555
P4 Rh28 2.420049 1_555
P4 Rh26 2.487956 1_455
P4 Rh8 2.488913 1_455
P4 Rh8 2.498639 1_555
P4 Rh26 2.522957 1_555
P5 Rh10 2.339261 1_545
P5 Rh5 2.391597 1_555
P5 Rh29 2.420049 1_556
P5 Rh24 2.487956 1_455
P5 Rh6 2.488913 1_455
P5 Rh6 2.498639 1_555
P5 Rh24 2.522957 1_555
P6 Rh2 2.371548 1_555
P6 Rh18 2.381250 1_555
P6 Rh15 2.551289 1_655
P6 Rh16 2.555528 1_655
P6 Rh15 2.555603 1_555
P6 Rh16 2.559836 1_555
P7 Rh0 2.371548 1_555
P7 Rh19 2.381243 1_555
P7 Rh16 2.551289 1_655
P7 Rh17 2.555528 1_655
P7 Rh16 2.555603 1_555
P7 Rh17 2.559836 1_555
P8 Rh1 2.371548 1_555
P8 Rh20 2.381259 1_555
P8 Rh17 2.551289 1_655
P8 Rh15 2.555528 1_655
P8 Rh17 2.555603 1_555
P8 Rh15 2.559836 1_555
P9 Rh5 2.375817 1_555
P9 Rh21 2.384312 1_555
P9 Rh13 2.554868 1_455
P9 Rh12 2.555104 1_455
P9 Rh13 2.557658 1_555
P9 Rh12 2.557894 1_555
P10 Rh3 2.375817 1_555
P10 Rh22 2.384318 1_555
P10 Rh14 2.554871 1_455
P10 Rh13 2.555094 1_455
P10 Rh14 2.557661 1_555
P10 Rh13 2.557884 1_555
P11 Rh4 2.375817 1_555
P11 Rh23 2.384303 1_555
P11 Rh12 2.554861 1_455
P11 Rh14 2.555100 1_455
P11 Rh12 2.557651 1_555
P11 Rh14 2.557889 1_555
P12 Rh24 2.365188 1_555
P12 Rh13 2.379081 1_555
P12 Rh19 2.387179 1_545
P12 Rh22 2.489486 1_655
P12 Rh22 2.489958 1_555
P12 Rh5 2.498439 1_555
P12 Rh5 2.499059 1_655
P13 Rh25 2.365188 1_555
P13 Rh14 2.379065 1_555
P13 Rh20 2.387174 1_555
P13 Rh23 2.489491 1_655
P13 Rh23 2.489964 1_555
P13 Rh3 2.498439 1_555
P13 Rh3 2.499059 1_655
P14 Rh26 2.365188 1_555
P14 Rh12 2.379075 1_555
P14 Rh18 2.387189 1_556
P14 Rh21 2.489496 1_655
P14 Rh21 2.489968 1_555
P14 Rh4 2.498439 1_555
P14 Rh4 2.499059 1_655
P15 Rh27 2.358488 1_555
P15 Rh16 2.379583 1_555
P15 Rh22 2.384267 1_565
P15 Rh19 2.486509 1_555
P15 Rh19 2.487622 1_455
P15 Rh2 2.498756 1_555
P15 Rh2 2.499399 1_455
P16 Rh28 2.358497 1_555
P16 Rh17 2.379567 1_555
P16 Rh23 2.384278 1_555
P16 Rh20 2.486497 1_555
P16 Rh20 2.487611 1_455
P16 Rh0 2.498752 1_555
P16 Rh0 2.499396 1_455
P17 Rh29 2.358504 1_555
P17 Rh15 2.379577 1_555
P17 Rh21 2.384247 1_554
P17 Rh18 2.486489 1_555
P17 Rh18 2.487603 1_455
P17 Rh1 2.498762 1_555
P17 Rh1 2.499406 1_455
P18 Rh8 2.308083 1_544
P18 Rh7 2.308083 1_555
P18 Rh6 2.308083 1_554
P18 Rh11 2.451039 1_555
P18 Rh10 2.451039 1_544
P18 Rh9 2.451039 1_545
Rh0 Rh28 2.752170 1_655
Rh0 Rh28 2.761270 1_555
Rh1 Rh29 2.752170 1_655
Rh1 Rh29 2.761270 1_555
Rh2 Rh27 2.752170 1_655
Rh2 Rh27 2.761270 1_555
Rh10 Rh28 2.821553 1_555
Rh10 Rh24 2.828894 1_565
Rh10 Rh24 2.835103 1_465
Rh11 Rh29 2.821553 1_555
Rh11 Rh25 2.828894 1_555
Rh11 Rh25 2.835103 1_455
Rh24 Rh5 2.754825 1_655
Rh24 Rh5 2.770723 1_555
Rh24 Rh6 2.806066 1_555
Rh25 Rh3 2.754825 1_655
Rh25 Rh3 2.770723 1_555
Rh25 Rh7 2.806066 1_555
Rh26 Rh4 2.754825 1_655
Rh26 Rh4 2.770723 1_555
Rh26 Rh8 2.806066 1_555
Rh26 Rh9 2.828894 1_556
Rh26 Rh9 2.835103 1_656
Rh27 Rh7 2.796578 1_465
Rh27 Rh7 2.809374 1_565
Rh27 Rh9 2.821553 1_555
Rh28 Rh8 2.796578 1_455
Rh28 Rh8 2.809374 1_555
Rh29 Rh6 2.796578 1_454
Rh29 Rh6 2.809374 1_554
