# generated using pymatgen
data_Er(Mo3S4)2
_symmetry_space_group_name_H-M   'P 1'
_cell_length_a   6.46806319
_cell_length_b   6.46801740
_cell_length_c   6.46809590
_cell_angle_alpha   89.62819805
_cell_angle_beta   89.62797701
_cell_angle_gamma   89.62865694
_symmetry_Int_Tables_number   1
_chemical_formula_structural   Er(Mo3S4)2
_chemical_formula_sum   'Er1 Mo6 S8'
_cell_volume   270.57930776
_cell_formula_units_Z   1
loop_
 _symmetry_equiv_pos_site_id
 _symmetry_equiv_pos_as_xyz
  1  'x, y, z'
loop_
 _atom_site_type_symbol
 _atom_site_label
 _atom_site_symmetry_multiplicity
 _atom_site_fract_x
 _atom_site_fract_y
 _atom_site_fract_z
 _atom_site_occupancy
  Er  Er0  1  0.99996264  0.00005422  0.99999568  1
  Mo  Mo0  1  0.77426765  0.57987768  0.44034271  1
  Mo  Mo1  1  0.44033928  0.77427443  0.57988571  1
  Mo  Mo2  1  0.57987871  0.44033755  0.77425403  1
  Mo  Mo3  1  0.22574113  0.42011640  0.55965572  1
  Mo  Mo4  1  0.55966061  0.22571864  0.42011721  1
  Mo  Mo5  1  0.42012327  0.55965124  0.22574794  1
  S  S0  1  0.76287896  0.76288841  0.76287653  1
  S  S1  1  0.23712929  0.23710644  0.23712618  1
  S  S2  1  0.24791321  0.63264686  0.87277118  1
  S  S3  1  0.87277703  0.24789834  0.63263190  1
  S  S4  1  0.63264385  0.87277795  0.24792003  1
  S  S5  1  0.75209329  0.36734199  0.12723407  1
  S  S6  1  0.12723533  0.75209028  0.36736115  1
  S  S7  1  0.36735575  0.12721759  0.75208098  1
loop_
_geom_bond_atom_site_label_1
_geom_bond_atom_site_label_2
_geom_bond_distance
_geom_bond_site_symmetry_2
Er0 S1 2.673596 1_656
Er0 S0 2.673668 1_545
Er0 S5 2.974917 1_556
Er0 S3 2.975141 1_555
Er0 S4 2.975331 1_546
Er0 S7 2.975477 1_655
Er0 S6 2.975718 1_646
Er0 S2 2.975788 1_645
Mo0 S0 2.405760 1_555
Mo0 S4 2.436995 1_555
Mo0 S5 2.460547 1_555
Mo0 S3 2.553713 1_555
Mo0 S6 2.586090 1_655
Mo1 S0 2.405731 1_555
Mo1 S2 2.436938 1_555
Mo1 S6 2.460490 1_555
Mo1 S4 2.553684 1_555
Mo1 S7 2.585906 1_565
Mo2 S0 2.405794 1_555
Mo2 S3 2.437037 1_555
Mo2 S7 2.460537 1_555
Mo2 S2 2.553721 1_555
Mo2 S5 2.586209 1_556
Mo3 S1 2.405733 1_555
Mo3 S7 2.436974 1_555
Mo3 S2 2.460563 1_555
Mo3 S6 2.553695 1_555
Mo3 S3 2.586079 1_455
Mo4 S1 2.405685 1_555
Mo4 S5 2.436938 1_555
Mo4 S3 2.460519 1_555
Mo4 S7 2.553670 1_555
Mo4 S4 2.585897 1_545
Mo5 S1 2.405740 1_555
Mo5 S6 2.436963 1_555
Mo5 S4 2.460564 1_555
Mo5 S5 2.553740 1_555
Mo5 S2 2.586178 1_554
