# generated using pymatgen
data_Tm(AlCu)6
_symmetry_space_group_name_H-M   'P 1'
_cell_length_a   6.55634200
_cell_length_b   6.55634200
_cell_length_c   6.55634200
_cell_angle_alpha   135.38440079
_cell_angle_beta   99.11076909
_cell_angle_gamma   97.45927715
_symmetry_Int_Tables_number   1
_chemical_formula_structural   Tm(AlCu)6
_chemical_formula_sum   'Tm1 Al6 Cu6'
_cell_volume   183.10158382
_cell_formula_units_Z   1
loop_
 _symmetry_equiv_pos_site_id
 _symmetry_equiv_pos_as_xyz
  1  'x, y, z'
loop_
 _atom_site_type_symbol
 _atom_site_label
 _atom_site_symmetry_multiplicity
 _atom_site_fract_x
 _atom_site_fract_y
 _atom_site_fract_z
 _atom_site_occupancy
  Tm  Tm0  1  -0.00000000  -0.00000000  0.00000000  1
  Al  Al0  1  0.34839134  0.34839134  0.00000000  1
  Al  Al1  1  0.65160866  0.65160866  0.00000000  1
  Al  Al2  1  0.65387354  0.00000000  0.65387354  1
  Al  Al3  1  0.34612646  -0.00000000  0.34612646  1
  Al  Al4  1  0.79960536  0.29960536  0.50000000  1
  Al  Al5  1  0.20039464  0.70039464  0.50000000  1
  Cu  Cu0  1  0.50000000  -0.00000000  0.00000000  1
  Cu  Cu1  1  0.50000000  0.50000000  0.50000000  1
  Cu  Cu2  1  -0.00000000  -0.00000000  0.50000000  1
  Cu  Cu3  1  -0.00000000  0.50000000  0.00000000  1
  Cu  Cu4  1  0.22927856  0.50000000  0.72927856  1
  Cu  Cu5  1  0.77072144  0.50000000  0.27072144  1
loop_
_geom_bond_atom_site_label_1
_geom_bond_atom_site_label_2
_geom_bond_distance
_geom_bond_site_symmetry_2
Al0 Cu0 2.606720 1_555
Al0 Cu3 2.606720 1_555
Al0 Cu2 2.606720 1_554
Al0 Cu1 2.606720 1_555
Al0 Al1 2.622616 1_555
Al0 Cu5 2.650032 1_555
Al0 Cu4 2.650032 1_554
Al0 Al5 2.798580 1_544
Al0 Al5 2.798580 1_555
Al0 Tm0 3.013340 1_555
Al1 Cu3 2.606720 1_655
Al1 Cu2 2.606720 1_665
Al1 Cu1 2.606720 1_554
Al1 Cu0 2.606720 1_565
Al1 Cu4 2.650032 1_554
Al1 Cu5 2.650032 1_555
Al1 Al4 2.798580 1_565
Al1 Al4 2.798580 1_554
Al1 Tm0 3.013340 1_665
Al2 Al3 2.617809 1_555
Al2 Cu3 2.625381 1_656
Al2 Cu2 2.625381 1_655
Al2 Cu1 2.625381 1_545
Al2 Cu0 2.625381 1_556
Al2 Cu5 2.679817 1_545
Al2 Cu5 2.679817 1_556
Al2 Al4 2.903181 1_555
Al2 Al5 2.903181 1_545
Al2 Tm0 2.944278 1_656
Al3 Cu2 2.625381 1_555
Al3 Cu3 2.625381 1_545
Al3 Cu1 2.625381 1_555
Al3 Cu0 2.625381 1_555
Al3 Cu4 2.679817 1_544
Al3 Cu4 2.679817 1_555
Al3 Al5 2.903181 1_545
Al3 Al4 2.903181 1_555
Al3 Tm0 2.944278 1_555
Al4 Cu2 2.500969 1_655
Al4 Cu1 2.500969 1_555
Al4 Cu0 2.500969 1_555
Al4 Cu3 2.500969 1_656
Al4 Cu5 2.609216 1_555
Al4 Cu4 2.609216 1_655
Al4 Tm0 3.032773 1_655
Al4 Tm0 3.032773 1_666
Al5 Cu2 2.500969 1_565
Al5 Cu1 2.500969 1_555
Al5 Cu3 2.500969 1_555
Al5 Cu0 2.500969 1_566
Al5 Cu5 2.609216 1_455
Al5 Cu4 2.609216 1_555
Al5 Tm0 3.032773 1_566
Al5 Tm0 3.032773 1_555
Cu0 Cu1 2.488670 1_544
Cu0 Cu1 2.488670 1_555
Cu0 Cu4 2.501017 1_544
Cu0 Cu5 2.501017 1_555
Cu0 Tm0 3.278171 1_555
Cu0 Tm0 3.278171 1_655
Cu1 Cu4 2.501017 1_555
Cu1 Cu5 2.501017 1_555
Cu1 Tm0 3.278171 1_666
Cu1 Tm0 3.278171 1_555
Cu2 Cu3 2.488670 1_545
Cu2 Cu3 2.488670 1_556
Cu2 Cu4 2.501017 1_555
Cu2 Cu5 2.501017 1_445
Cu2 Tm0 3.278171 1_555
Cu2 Tm0 3.278171 1_556
Cu3 Cu4 2.501017 1_554
Cu3 Cu5 2.501017 1_455
Cu3 Tm0 3.278171 1_565
Cu3 Tm0 3.278171 1_555
Cu4 Tm0 3.161844 1_566
Cu4 Tm0 3.161844 1_555
Cu5 Tm0 3.161844 1_666
Cu5 Tm0 3.161844 1_655
