# generated using pymatgen
data_Rb6Na2U2C6O23
_symmetry_space_group_name_H-M   'P 1'
_cell_length_a   8.56086704
_cell_length_b   9.63076969
_cell_length_c   9.63355550
_cell_angle_alpha   120.00424988
_cell_angle_beta   90.01085059
_cell_angle_gamma   89.99606914
_symmetry_Int_Tables_number   1
_chemical_formula_structural   Rb6Na2U2C6O23
_chemical_formula_sum   'Rb6 Na2 U2 C6 O23'
_cell_volume   687.82408124
_cell_formula_units_Z   1
loop_
 _symmetry_equiv_pos_site_id
 _symmetry_equiv_pos_as_xyz
  1  'x, y, z'
loop_
 _atom_site_type_symbol
 _atom_site_label
 _atom_site_symmetry_multiplicity
 _atom_site_fract_x
 _atom_site_fract_y
 _atom_site_fract_z
 _atom_site_occupancy
  Rb  Rb0  1  0.99914700  0.28104300  0.00035600  1
  Rb  Rb1  1  0.99899000  0.71929200  0.71884600  1
  Rb  Rb2  1  0.99900400  0.99954300  0.28082700  1
  Rb  Rb3  1  0.49979700  0.28274000  0.00040600  1
  Rb  Rb4  1  0.49993200  0.71764400  0.71710500  1
  Rb  Rb5  1  0.49984000  0.99953500  0.28246500  1
  Na  Na0  1  0.75018000  0.33296200  0.66639600  1
  Na  Na1  1  0.24976800  0.66676400  0.33333800  1
  U  U0  1  0.75001900  0.66678100  0.33348500  1
  U  U1  1  0.24996300  0.33331800  0.66665700  1
  C  C0  1  0.74964800  0.98655400  0.61564800  1
  C  C1  1  0.74964500  0.62919400  0.01346900  1
  C  C2  1  0.74966000  0.38429700  0.37087500  1
  C  C3  1  0.25002000  0.37051800  0.38454900  1
  C  C4  1  0.25004900  0.61558100  0.98600500  1
  C  C5  1  0.25004900  0.01376000  0.62933700  1
  O  O0  1  0.74949700  0.85387800  0.62382200  1
  O  O1  1  0.74946400  0.77016600  0.14610900  1
  O  O2  1  0.74952100  0.37596000  0.23001000  1
  O  O3  1  0.25001100  0.23031500  0.37688100  1
  O  O4  1  0.25012700  0.62327000  0.85354100  1
  O  O5  1  0.25010800  0.14642500  0.76948600  1
  O  O6  1  0.74947400  0.12517900  0.73762300  1
  O  O7  1  0.74949200  0.61241500  0.87493600  1
  O  O8  1  0.74944900  0.26236100  0.38757100  1
  O  O9  1  0.24995200  0.38698400  0.26216400  1
  O  O10  1  0.24991900  0.73802500  0.12487900  1
  O  O11  1  0.24993100  0.87496400  0.61298800  1
  O  O12  1  0.96575700  0.66673200  0.33327900  1
  O  O13  1  0.53421800  0.66674300  0.33322700  1
  O  O14  1  0.46505900  0.33332700  0.66656700  1
  O  O15  1  0.03488600  0.33337000  0.66654900  1
  O  O16  1  0.74989100  0.96035300  0.46759900  1
  O  O17  1  0.74988800  0.50735100  0.03981800  1
  O  O18  1  0.74991200  0.53246800  0.49273200  1
  O  O19  1  0.25028200  0.49290900  0.53188500  1
  O  O20  1  0.25028300  0.46820000  0.96104700  1
  O  O21  1  0.25028000  0.03868500  0.50694000  1
  O  O22  1  0.20488800  0.00059500  0.00058200  1
loop_
_geom_bond_atom_site_label_1
_geom_bond_atom_site_label_2
_geom_bond_distance
_geom_bond_site_symmetry_2
Na0 O6 2.418385 1_555
Na0 O8 2.418832 1_555
Na0 O7 2.423187 1_555
Na0 O15 2.437333 1_655
Na0 O14 2.440885 1_555
Na1 O11 2.423994 1_555
Na1 O10 2.425342 1_555
Na1 O9 2.425428 1_555
Na1 O12 2.431380 1_455
Na1 O13 2.435139 1_555
C0 O6 1.262607 1_565
C0 O16 1.318293 1_555
C0 O0 1.318914 1_555
C1 O7 1.261544 1_554
C1 O17 1.318825 1_555
C1 O1 1.319463 1_555
C2 O8 1.262477 1_555
C2 O2 1.318714 1_555
C2 O18 1.318719 1_555
C3 O9 1.265775 1_555
C3 O3 1.314880 1_555
C3 O19 1.315576 1_555
C4 O10 1.265935 1_556
C4 O4 1.314695 1_555
C4 O20 1.315740 1_555
C5 O11 1.265326 1_545
C5 O5 1.315313 1_555
C5 O21 1.315685 1_555
O0 U0 2.455488 1_555
O0 Rb1 2.874991 1_555
O0 Rb4 2.876445 1_555
O1 U0 2.459124 1_555
O1 Rb2 2.874072 1_555
O1 Rb5 2.875810 1_555
O2 U0 2.458867 1_555
O2 Rb0 2.876799 1_555
O2 Rb3 2.877735 1_555
O3 U1 2.450990 1_555
O3 Rb5 2.884391 1_545
O3 Rb2 2.890739 1_445
O4 U1 2.451745 1_555
O4 Rb4 2.884983 1_555
O4 Rb1 2.891369 1_455
O5 U1 2.450363 1_555
O5 Rb3 2.884290 1_556
O5 Rb0 2.891512 1_456
O6 Rb0 3.070280 1_556
O6 Rb3 3.072401 1_556
O7 Rb1 3.071194 1_555
O7 Rb4 3.072928 1_555
O8 Rb2 3.070062 1_545
O8 Rb5 3.071667 1_545
O9 Rb3 3.067790 1_555
O9 Rb0 3.071948 1_455
O10 Rb5 3.066096 1_555
O10 Rb2 3.070954 1_455
O11 Rb4 3.066072 1_555
O11 Rb1 3.071343 1_455
O12 U0 1.846906 1_555
O13 U0 1.847445 1_555
O14 U1 1.841409 1_555
O15 U1 1.841246 1_555
O16 U0 2.451460 1_555
O16 Rb5 2.928685 1_555
O16 Rb2 2.934057 1_555
O17 U0 2.452903 1_555
O17 Rb3 2.930233 1_555
O17 Rb0 2.935855 1_555
O18 U0 2.451824 1_555
O18 Rb4 2.928876 1_555
O18 Rb1 2.933943 1_555
O19 U1 2.458409 1_555
O19 Rb4 2.927932 1_555
O19 Rb1 2.949389 1_455
O20 U1 2.458853 1_555
O20 Rb3 2.928008 1_556
O20 Rb0 2.949243 1_456
O21 U1 2.460193 1_555
O21 Rb5 2.927308 1_545
O21 Rb2 2.948130 1_445
O22 Rb0 3.225292 1_455
O22 Rb2 3.228701 1_445
O22 Rb1 3.233869 1_444
