# generated using pymatgen
data_YbCuPbSe3
_symmetry_space_group_name_H-M   'P 1'
_cell_length_a   3.96225600
_cell_length_b   7.25560970
_cell_length_c   10.79498900
_cell_angle_alpha   90.00000000
_cell_angle_beta   90.00000000
_cell_angle_gamma   105.84570732
_symmetry_Int_Tables_number   1
_chemical_formula_structural   YbCuPbSe3
_chemical_formula_sum   'Yb2 Cu2 Pb2 Se6'
_cell_volume   298.54784210
_cell_formula_units_Z   2
loop_
 _symmetry_equiv_pos_site_id
 _symmetry_equiv_pos_as_xyz
  1  'x, y, z'
loop_
 _atom_site_type_symbol
 _atom_site_label
 _atom_site_symmetry_multiplicity
 _atom_site_fract_x
 _atom_site_fract_y
 _atom_site_fract_z
 _atom_site_occupancy
  Yb  Yb0  1  0.00000000  0.00000000  0.00000000  1
  Yb  Yb1  1  0.00000000  0.00000000  0.50000000  1
  Cu  Cu0  1  0.46905900  0.93811800  0.25000000  1
  Cu  Cu1  1  0.53094100  0.06188200  0.75000000  1
  Pb  Pb0  1  0.75900200  0.51800400  0.25000000  1
  Pb  Pb1  1  0.24099800  0.48199600  0.75000000  1
  Se  Se0  1  0.92643200  0.85286400  0.75000000  1
  Se  Se1  1  0.07356800  0.14713600  0.25000000  1
  Se  Se2  1  0.64285900  0.28571800  0.92459000  1
  Se  Se3  1  0.35714100  0.71428200  0.42459000  1
  Se  Se4  1  0.35714100  0.71428200  0.07541000  1
  Se  Se5  1  0.64285900  0.28571800  0.57541000  1
loop_
_geom_bond_atom_site_label_1
_geom_bond_atom_site_label_2
_geom_bond_distance
_geom_bond_site_symmetry_2
Cu0 Se4 2.448067 1_555
Cu0 Se3 2.448067 1_555
Cu0 Se1 2.460352 1_565
Cu0 Se1 2.460352 1_665
Cu1 Se5 2.448067 1_555
Cu1 Se2 2.448067 1_555
Cu1 Se0 2.460352 1_445
Cu1 Se0 2.460352 1_545
Pb0 Se4 3.058407 1_555
Pb0 Se4 3.058407 1_655
Pb0 Se3 3.058407 1_555
Pb0 Se3 3.058407 1_655
Pb0 Se1 3.259728 1_555
Pb0 Se1 3.259728 1_655
Pb1 Se2 3.058407 1_555
Pb1 Se5 3.058407 1_555
Pb1 Se5 3.058407 1_455
Pb1 Se2 3.058407 1_455
Pb1 Se0 3.259728 1_455
Pb1 Se0 3.259728 1_555
Se0 Yb0 2.887552 1_666
Se0 Yb1 2.887552 1_665
Se1 Yb1 2.887552 1_555
Se1 Yb0 2.887552 1_555
Se2 Yb0 2.926553 1_556
Se2 Yb0 2.926553 1_656
Se3 Yb1 2.926553 1_565
Se3 Yb1 2.926553 1_665
Se4 Yb0 2.926553 1_665
Se4 Yb0 2.926553 1_565
Se5 Yb1 2.926553 1_555
Se5 Yb1 2.926553 1_655
