# generated using pymatgen
data_HfAu9
_symmetry_space_group_name_H-M   'P 1'
_cell_length_a   5.06028210
_cell_length_b   5.06028210
_cell_length_c   9.40062687
_cell_angle_alpha   88.11660357
_cell_angle_beta   88.11660357
_cell_angle_gamma   47.58412455
_symmetry_Int_Tables_number   1
_chemical_formula_structural   HfAu9
_chemical_formula_sum   'Hf1 Au9'
_cell_volume   177.59890112
_cell_formula_units_Z   1
loop_
 _symmetry_equiv_pos_site_id
 _symmetry_equiv_pos_as_xyz
  1  'x, y, z'
loop_
 _atom_site_type_symbol
 _atom_site_label
 _atom_site_symmetry_multiplicity
 _atom_site_fract_x
 _atom_site_fract_y
 _atom_site_fract_z
 _atom_site_occupancy
  Hf  Hf0  1  0.50000000  0.50000000  0.50000000  1
  Au  Au0  1  -0.00000000  -0.00000000  -0.00000000  1
  Au  Au1  1  0.70165648  0.70165648  0.90131598  1
  Au  Au2  1  0.20277093  0.20277093  0.40305157  1
  Au  Au3  1  0.79722907  0.79722907  0.59694843  1
  Au  Au4  1  0.29834352  0.29834352  0.09868402  1
  Au  Au5  1  0.39993494  0.39993494  0.79729078  1
  Au  Au6  1  0.90833217  0.90833217  0.30227844  1
  Au  Au7  1  0.09166783  0.09166783  0.69772156  1
  Au  Au8  1  0.60006506  0.60006506  0.20270922  1
loop_
_geom_bond_atom_site_label_1
_geom_bond_atom_site_label_2
_geom_bond_distance
_geom_bond_site_symmetry_2
Au0 Au4 2.896694 1_545
Au0 Au1 2.896694 1_454
Au0 Au4 2.896694 1_455
Au0 Au1 2.896694 1_544
Au0 Au7 2.936334 1_554
Au0 Au6 2.936334 1_445
Au0 Au1 2.945812 1_444
Au0 Au4 2.945812 1_555
Au0 Au8 2.963811 1_545
Au0 Au8 2.963811 1_455
Au0 Au5 2.963811 1_544
Au0 Au5 2.963811 1_454
Au1 Au5 2.892425 1_565
Au1 Au5 2.892425 1_655
Au1 Au4 2.920758 1_656
Au1 Au4 2.920758 1_566
Au1 Au8 2.953151 1_556
Au1 Au3 2.964477 1_555
Au1 Au5 2.993239 1_555
Au1 Au7 3.001318 1_655
Au1 Au7 3.001318 1_565
Au2 Au3 2.893004 1_545
Au2 Au3 2.893004 1_455
Au2 Hf0 2.898447 1_545
Au2 Hf0 2.898447 1_455
Au2 Au6 2.918487 1_445
Au2 Au7 2.920135 1_555
Au2 Au6 2.925564 1_545
Au2 Au6 2.925564 1_455
Au2 Hf0 2.930353 1_555
Au2 Au8 2.957638 1_545
Au2 Au8 2.957638 1_455
Au2 Au4 2.964477 1_555
Au3 Hf0 2.898447 1_655
Au3 Hf0 2.898447 1_565
Au3 Au7 2.918487 1_665
Au3 Au6 2.920135 1_555
Au3 Au7 2.925564 1_565
Au3 Au7 2.925564 1_655
Au3 Hf0 2.930353 1_555
Au3 Au5 2.957638 1_565
Au3 Au5 2.957638 1_655
Au4 Au8 2.892425 1_545
Au4 Au8 2.892425 1_455
Au4 Au5 2.953151 1_554
Au4 Au8 2.993239 1_555
Au4 Au6 3.001318 1_455
Au4 Au6 3.001318 1_545
Au5 Au7 2.841941 1_565
Au5 Au7 2.841941 1_655
Au5 Hf0 2.912577 1_555
Au5 Au7 3.036014 1_555
Au6 Au8 2.841941 1_565
Au6 Au8 2.841941 1_655
Au6 Hf0 2.907939 1_655
Au6 Hf0 2.907939 1_565
Au6 Au8 3.036014 1_555
Au7 Hf0 2.907939 1_545
Au7 Hf0 2.907939 1_455
Au8 Hf0 2.912577 1_555
