# generated using pymatgen
data_LiNi3P3O13
_symmetry_space_group_name_H-M   'P 1'
_cell_length_a   6.27679800
_cell_length_b   7.40503527
_cell_length_c   10.28082579
_cell_angle_alpha   99.54788817
_cell_angle_beta   90.00000000
_cell_angle_gamma   90.00000000
_symmetry_Int_Tables_number   1
_chemical_formula_structural   LiNi3P3O13
_chemical_formula_sum   'Li2 Ni6 P6 O26'
_cell_volume   471.23232969
_cell_formula_units_Z   2
loop_
 _symmetry_equiv_pos_site_id
 _symmetry_equiv_pos_as_xyz
  1  'x, y, z'
loop_
 _atom_site_type_symbol
 _atom_site_label
 _atom_site_symmetry_multiplicity
 _atom_site_fract_x
 _atom_site_fract_y
 _atom_site_fract_z
 _atom_site_occupancy
  Li  Li0  1  0.75000000  0.62475900  0.16539700  1
  Li  Li1  1  0.25000000  0.37524100  0.83460300  1
  Ni  Ni0  1  0.25000000  0.36255700  0.20004300  1
  Ni  Ni1  1  0.75000000  0.63744300  0.79995700  1
  Ni  Ni2  1  0.25000000  0.76142800  0.43719500  1
  Ni  Ni3  1  0.50000000  0.00000000  0.00000000  1
  Ni  Ni4  1  0.75000000  0.23857200  0.56280500  1
  Ni  Ni5  1  0.00000000  0.00000000  0.00000000  1
  P  P0  1  0.25000000  0.21170600  0.48692000  1
  P  P1  1  0.75000000  0.78829400  0.51308000  1
  P  P2  1  0.25000000  0.74108300  0.76192500  1
  P  P3  1  0.75000000  0.25891700  0.23807500  1
  P  P4  1  0.75000000  0.31383400  0.88819500  1
  P  P5  1  0.25000000  0.68616600  0.11180500  1
  O  O0  1  0.75000000  0.36515200  0.74643200  1
  O  O1  1  0.55940600  0.75097300  0.41669200  1
  O  O2  1  0.25000000  0.80712300  0.62936400  1
  O  O3  1  0.54297400  0.20947600  0.90645900  1
  O  O4  1  0.75000000  0.64240800  0.60511900  1
  O  O5  1  0.75000000  0.87795500  0.90473100  1
  O  O6  1  0.25000000  0.35759200  0.39488100  1
  O  O7  1  0.04297400  0.79052400  0.09354100  1
  O  O8  1  0.25000000  0.02015500  0.40418600  1
  O  O9  1  0.75000000  0.97984500  0.59581400  1
  O  O10  1  0.06176900  0.61403600  0.78477800  1
  O  O11  1  0.25000000  0.12204500  0.09526900  1
  O  O12  1  0.56176900  0.38596400  0.21522200  1
  O  O13  1  0.75000000  0.51039700  0.96988900  1
  O  O14  1  0.75000000  0.19287700  0.37063600  1
  O  O15  1  0.45702600  0.79052400  0.09354100  1
  O  O16  1  0.94059400  0.75097300  0.41669200  1
  O  O17  1  0.44059400  0.24902700  0.58330800  1
  O  O18  1  0.43823100  0.61403600  0.78477800  1
  O  O19  1  0.25000000  0.63484800  0.25356800  1
  O  O20  1  0.75000000  0.08574800  0.12879900  1
  O  O21  1  0.25000000  0.91425200  0.87120100  1
  O  O22  1  0.93823100  0.38596400  0.21522200  1
  O  O23  1  0.95702600  0.20947600  0.90645900  1
  O  O24  1  0.05940600  0.24902700  0.58330800  1
  O  O25  1  0.25000000  0.48960300  0.03011100  1
loop_
_geom_bond_atom_site_label_1
_geom_bond_atom_site_label_2
_geom_bond_distance
_geom_bond_site_symmetry_2
Li0 O13 2.047563 1_554
Li0 O22 2.255134 1_555
Li0 O12 2.255134 1_555
Li0 O15 2.394786 1_555
Li0 O7 2.394786 1_655
Li1 O25 2.047563 1_556
Li1 O10 2.255134 1_555
Li1 O18 2.255134 1_555
Li1 O3 2.394786 1_555
Li1 O23 2.394786 1_455
Ni0 O11 1.922450 1_555
Ni0 O12 1.968482 1_555
Ni0 O22 1.968482 1_455
Ni0 O19 2.000072 1_555
Ni0 O6 2.009521 1_555
Ni0 O25 2.117184 1_555
Ni1 O5 1.922450 1_555
Ni1 O10 1.968482 1_655
Ni1 O18 1.968482 1_555
Ni1 O0 2.000072 1_555
Ni1 O4 2.009521 1_555
Ni1 O13 2.117184 1_555
Ni2 O2 1.948317 1_555
Ni2 O1 1.953633 1_555
Ni2 O16 1.953633 1_455
Ni2 O19 1.963539 1_555
Ni2 O8 2.000365 1_565
Ni3 O15 1.974490 1_545
Ni3 O3 1.974490 1_554
Ni3 O11 1.986154 1_555
Ni3 O5 1.986154 1_544
Ni3 O20 2.083276 1_555
Ni3 O21 2.083276 1_544
Ni4 O14 1.948317 1_555
Ni4 O17 1.953633 1_555
Ni4 O24 1.953633 1_655
Ni4 O0 1.963539 1_555
Ni4 O9 2.000365 1_545
Ni5 O7 1.974490 1_545
Ni5 O23 1.974490 1_454
Ni5 O11 1.986154 1_555
Ni5 O5 1.986154 1_444
Ni5 O20 2.083276 1_455
Ni5 O21 2.083276 1_544
O0 P4 1.565975 1_555
O1 P1 1.548769 1_555
O2 P2 1.522356 1_555
O3 P4 1.539212 1_555
O4 P1 1.549679 1_555
O6 P0 1.549679 1_555
O7 P5 1.539212 1_555
O8 P0 1.528139 1_555
O9 P1 1.528139 1_555
O10 P2 1.552264 1_555
O12 P3 1.552264 1_555
O13 P4 1.555149 1_555
O14 P3 1.522356 1_555
O15 P5 1.539212 1_555
O16 P1 1.548769 1_555
O17 P0 1.548769 1_555
O18 P2 1.552264 1_555
O19 P5 1.565975 1_555
O20 P3 1.558386 1_555
O21 P2 1.558386 1_555
O22 P3 1.552264 1_555
O23 P4 1.539212 1_555
O24 P0 1.548769 1_555
O25 P5 1.555149 1_555
