# generated using pymatgen
data_Na2CoP2O7
_symmetry_space_group_name_H-M   'P 1'
_cell_length_a   7.82324700
_cell_length_b   7.82324700
_cell_length_c   10.42695400
_cell_angle_alpha   90.00000000
_cell_angle_beta   90.00000000
_cell_angle_gamma   90.00000000
_symmetry_Int_Tables_number   1
_chemical_formula_structural   Na2CoP2O7
_chemical_formula_sum   'Na8 Co4 P8 O28'
_cell_volume   638.16288456
_cell_formula_units_Z   4
loop_
 _symmetry_equiv_pos_site_id
 _symmetry_equiv_pos_as_xyz
  1  'x, y, z'
loop_
 _atom_site_type_symbol
 _atom_site_label
 _atom_site_symmetry_multiplicity
 _atom_site_fract_x
 _atom_site_fract_y
 _atom_site_fract_z
 _atom_site_occupancy
  Na  Na0  1  0.19431100  0.80568900  0.50000000  1
  Na  Na1  1  0.69431100  0.69431100  0.00000000  1
  Na  Na2  1  0.30568900  0.30568900  0.00000000  1
  Na  Na3  1  0.80568900  0.19431100  0.50000000  1
  Na  Na4  1  0.14598600  0.85401400  0.00000000  1
  Na  Na5  1  0.64598600  0.64598600  0.50000000  1
  Na  Na6  1  0.35401400  0.35401400  0.50000000  1
  Na  Na7  1  0.85401400  0.14598600  0.00000000  1
  Co  Co0  1  0.00000000  0.50000000  0.75000000  1
  Co  Co1  1  0.00000000  0.50000000  0.25000000  1
  Co  Co2  1  0.50000000  0.00000000  0.75000000  1
  Co  Co3  1  0.50000000  0.00000000  0.25000000  1
  P  P0  1  0.63831300  0.36168700  0.78938800  1
  P  P1  1  0.36168700  0.63831300  0.78938800  1
  P  P2  1  0.36168700  0.63831300  0.21061200  1
  P  P3  1  0.86168700  0.86168700  0.28938800  1
  P  P4  1  0.13831300  0.13831300  0.28938800  1
  P  P5  1  0.86168700  0.86168700  0.71061200  1
  P  P6  1  0.13831300  0.13831300  0.71061200  1
  P  P7  1  0.63831300  0.36168700  0.21061200  1
  O  O0  1  0.50000000  0.50000000  0.84594900  1
  O  O1  1  0.00000000  0.00000000  0.34594900  1
  O  O2  1  0.00000000  0.00000000  0.65405100  1
  O  O3  1  0.50000000  0.50000000  0.15405100  1
  O  O4  1  0.19341300  0.58049300  0.14609800  1
  O  O5  1  0.80658700  0.41950700  0.14609800  1
  O  O6  1  0.58049300  0.19341300  0.85390200  1
  O  O7  1  0.08049300  0.30658700  0.64609800  1
  O  O8  1  0.91950700  0.69341300  0.64609800  1
  O  O9  1  0.30658700  0.08049300  0.35390200  1
  O  O10  1  0.69341300  0.91950700  0.35390200  1
  O  O11  1  0.41950700  0.80658700  0.85390200  1
  O  O12  1  0.80658700  0.41950700  0.85390200  1
  O  O13  1  0.19341300  0.58049300  0.85390200  1
  O  O14  1  0.41950700  0.80658700  0.14609800  1
  O  O15  1  0.91950700  0.69341300  0.35390200  1
  O  O16  1  0.08049300  0.30658700  0.35390200  1
  O  O17  1  0.69341300  0.91950700  0.64609800  1
  O  O18  1  0.30658700  0.08049300  0.64609800  1
  O  O19  1  0.58049300  0.19341300  0.14609800  1
  O  O20  1  0.63689500  0.36310500  0.35574500  1
  O  O21  1  0.13689500  0.13689500  0.85574500  1
  O  O22  1  0.86310500  0.86310500  0.85574500  1
  O  O23  1  0.13689500  0.13689500  0.14425500  1
  O  O24  1  0.86310500  0.86310500  0.14425500  1
  O  O25  1  0.36310500  0.63689500  0.35574500  1
  O  O26  1  0.36310500  0.63689500  0.64425500  1
  O  O27  1  0.63689500  0.36310500  0.64425500  1
loop_
_geom_bond_atom_site_label_1
_geom_bond_atom_site_label_2
_geom_bond_distance
_geom_bond_site_symmetry_2
Na0 O25 2.397909 1_555
Na0 O26 2.397909 1_555
Na0 O2 2.683619 1_565
Na0 O1 2.683619 1_565
Na0 O8 2.777415 1_455
Na0 O15 2.777415 1_455
Na0 O18 2.777415 1_565
Na0 O9 2.777415 1_565
Na1 O22 2.397909 1_554
Na1 O24 2.397909 1_555
Na1 O3 2.683619 1_555
Na1 O0 2.683619 1_554
Na1 O14 2.777415 1_555
Na1 O5 2.777415 1_555
Na1 O11 2.777415 1_554
Na1 O12 2.777415 1_554
Na2 O23 2.397909 1_555
Na2 O21 2.397909 1_554
Na2 O3 2.683619 1_555
Na2 O0 2.683619 1_554
Na2 O4 2.777415 1_555
Na2 O19 2.777415 1_555
Na2 O13 2.777415 1_554
Na2 O6 2.777415 1_554
Na3 O27 2.397909 1_555
Na3 O20 2.397909 1_555
Na3 O2 2.683619 1_655
Na3 O1 2.683619 1_655
Na3 O17 2.777415 1_545
Na3 O10 2.777415 1_545
Na3 O7 2.777415 1_655
Na3 O16 2.777415 1_655
Na4 O14 2.652757 1_555
Na4 O11 2.652757 1_554
Na4 O4 2.652757 1_555
Na4 O13 2.652757 1_554
Na4 O24 2.676766 1_455
Na4 O22 2.676766 1_454
Na4 O21 2.676766 1_564
Na4 O23 2.676766 1_565
Na5 O8 2.652757 1_555
Na5 O17 2.652757 1_555
Na5 O10 2.652757 1_555
Na5 O15 2.652757 1_555
Na5 O20 2.676766 1_555
Na5 O26 2.676766 1_555
Na5 O27 2.676766 1_555
Na5 O25 2.676766 1_555
Na6 O18 2.652757 1_555
Na6 O7 2.652757 1_555
Na6 O9 2.652757 1_555
Na6 O16 2.652757 1_555
Na6 O27 2.676766 1_555
Na6 O25 2.676766 1_555
Na6 O26 2.676766 1_555
Na6 O20 2.676766 1_555
Na7 O5 2.652757 1_555
Na7 O12 2.652757 1_554
Na7 O19 2.652757 1_555
Na7 O6 2.652757 1_554
Na7 O24 2.676766 1_545
Na7 O22 2.676766 1_544
Na7 O21 2.676766 1_654
Na7 O23 2.676766 1_655
Co0 O13 1.964633 1_555
Co0 O8 1.964633 1_455
Co0 O7 1.964633 1_555
Co0 O12 1.964633 1_455
Co1 O4 1.964633 1_555
Co1 O15 1.964633 1_455
Co1 O16 1.964633 1_555
Co1 O5 1.964633 1_455
Co2 O6 1.964633 1_555
Co2 O17 1.964633 1_545
Co2 O18 1.964633 1_555
Co2 O11 1.964633 1_545
Co3 O19 1.964633 1_555
Co3 O10 1.964633 1_545
Co3 O9 1.964633 1_555
Co3 O14 1.964633 1_545
O0 P1 1.639972 1_555
O0 P0 1.639972 1_555
O1 P4 1.639972 1_555
O1 P3 1.639972 1_445
O2 P6 1.639972 1_555
O2 P5 1.639972 1_445
O3 P7 1.639972 1_555
O3 P2 1.639972 1_555
O4 P2 1.546012 1_555
O5 P7 1.546012 1_555
O6 P0 1.546012 1_555
O7 P6 1.546012 1_555
O8 P5 1.546012 1_555
O9 P4 1.546012 1_555
O10 P3 1.546012 1_555
O11 P1 1.546012 1_555
O12 P0 1.546012 1_555
O13 P1 1.546012 1_555
O14 P2 1.546012 1_555
O15 P3 1.546012 1_555
O16 P4 1.546012 1_555
O17 P5 1.546012 1_555
O18 P6 1.546012 1_555
O19 P7 1.546012 1_555
O20 P7 1.513376 1_555
O21 P6 1.513376 1_555
O22 P5 1.513376 1_555
O23 P4 1.513376 1_555
O24 P3 1.513376 1_555
O25 P2 1.513376 1_555
O26 P1 1.513376 1_555
O27 P0 1.513376 1_555
