# generated using pymatgen
data_SrOs7N10
_symmetry_space_group_name_H-M   'P 1'
_cell_length_a   7.00838358
_cell_length_b   7.36001200
_cell_length_c   10.53829516
_cell_angle_alpha   90.00000000
_cell_angle_beta   108.27554770
_cell_angle_gamma   90.00000000
_symmetry_Int_Tables_number   1
_chemical_formula_structural   SrOs7N10
_chemical_formula_sum   'Sr2 Os14 N20'
_cell_volume   516.16538793
_cell_formula_units_Z   2
loop_
 _symmetry_equiv_pos_site_id
 _symmetry_equiv_pos_as_xyz
  1  'x, y, z'
loop_
 _atom_site_type_symbol
 _atom_site_label
 _atom_site_symmetry_multiplicity
 _atom_site_fract_x
 _atom_site_fract_y
 _atom_site_fract_z
 _atom_site_occupancy
  Sr  Sr0  1  0.87559200  0.04294300  0.66904200  1
  Sr  Sr1  1  0.87559200  0.95705700  0.16904200  1
  Os  Os0  1  0.52225900  0.94721500  0.82905900  1
  Os  Os1  1  0.52225900  0.05278500  0.32905900  1
  Os  Os2  1  0.33848300  0.02110300  0.02177600  1
  Os  Os3  1  0.33848300  0.97889700  0.52177600  1
  Os  Os4  1  0.18609300  0.34403800  0.08446500  1
  Os  Os5  1  0.18609300  0.65596200  0.58446500  1
  Os  Os6  1  0.65389800  0.37530700  0.00820100  1
  Os  Os7  1  0.65389800  0.62469300  0.50820100  1
  Os  Os8  1  0.86824900  0.60739400  0.79412900  1
  Os  Os9  1  0.86824900  0.39260600  0.29412900  1
  Os  Os10  1  0.27393900  0.69098000  0.87784400  1
  Os  Os11  1  0.27393900  0.30902000  0.37784400  1
  Os  Os12  1  0.49322700  0.38792800  0.67638900  1
  Os  Os13  1  0.49322700  0.61207200  0.17638900  1
  N  N0  1  0.74963200  0.81356300  0.83303700  1
  N  N1  1  0.74963200  0.18643700  0.33303700  1
  N  N2  1  0.58057300  0.12440600  0.98037100  1
  N  N3  1  0.58057300  0.87559400  0.48037100  1
  N  N4  1  0.23013000  0.95345300  0.82742500  1
  N  N5  1  0.23013000  0.04654700  0.32742500  1
  N  N6  1  0.09418000  0.09434100  0.03915700  1
  N  N7  1  0.09418000  0.90565900  0.53915700  1
  N  N8  1  0.31327200  0.51961200  0.74535000  1
  N  N9  1  0.31327200  0.48038800  0.24535000  1
  N  N10  1  0.48392700  0.12111300  0.67876000  1
  N  N11  1  0.48392700  0.87888700  0.17876000  1
  N  N12  1  0.92260400  0.38234600  0.12350300  1
  N  N13  1  0.92260400  0.61765400  0.62350300  1
  N  N14  1  0.10403400  0.50982900  0.93668600  1
  N  N15  1  0.10403400  0.49017100  0.43668600  1
  N  N16  1  0.70886700  0.41024700  0.84095500  1
  N  N17  1  0.70886700  0.58975300  0.34095500  1
  N  N18  1  0.54334300  0.61333800  0.00315000  1
  N  N19  1  0.54334300  0.38666200  0.50315000  1
loop_
_geom_bond_atom_site_label_1
_geom_bond_atom_site_label_2
_geom_bond_distance
_geom_bond_site_symmetry_2
N0 Os8 1.837254 1_555
N0 Os0 1.861930 1_555
N0 Sr0 2.751919 1_565
N1 Os9 1.837254 1_555
N1 Os1 1.861930 1_555
N1 Sr1 2.751919 1_545
N2 Os6 1.914584 1_556
N2 Os0 2.000428 1_545
N2 Os2 2.027665 1_556
N2 Sr1 2.677123 1_546
N3 Os7 1.914584 1_555
N3 Os1 2.000428 1_565
N3 Os3 2.027665 1_555
N3 Sr0 2.677123 1_565
N4 Os10 2.001533 1_555
N4 Os2 2.010957 1_566
N4 Os0 2.042534 1_555
N4 Sr0 2.606251 1_465
N5 Os11 2.001533 1_555
N5 Os3 2.010957 1_545
N5 Os1 2.042534 1_555
N5 Sr1 2.606251 1_445
N6 Os2 1.858041 1_555
N6 Os4 1.956382 1_555
N6 Sr1 2.560553 1_445
N7 Os3 1.858041 1_555
N7 Os5 1.956382 1_555
N7 Sr0 2.560553 1_465
N8 Os12 1.906023 1_555
N8 Os5 1.930886 1_555
N8 Os10 1.964111 1_555
N9 Os13 1.906023 1_555
N9 Os4 1.930886 1_555
N9 Os11 1.964111 1_555
N10 Os3 1.952913 1_545
N10 Os12 1.965262 1_555
N10 Os0 1.988001 1_545
N10 Sr0 2.837691 1_555
N11 Os2 1.952913 1_565
N11 Os13 1.965262 1_555
N11 Os1 1.988001 1_565
N11 Sr1 2.837691 1_555
N12 Os6 1.894839 1_555
N12 Os9 1.952845 1_555
N12 Os4 2.033531 1_655
N13 Os7 1.894839 1_555
N13 Os8 1.952845 1_555
N13 Os5 2.033531 1_655
N14 Os4 1.919186 1_556
N14 Os8 1.986519 1_455
N14 Os10 2.010756 1_555
N15 Os5 1.919186 1_555
N15 Os9 1.986519 1_455
N15 Os11 2.010756 1_555
N16 Os12 1.916975 1_555
N16 Os6 1.935652 1_556
N16 Os8 1.985532 1_555
N17 Os13 1.916975 1_555
N17 Os7 1.935652 1_555
N17 Os9 1.985532 1_555
N18 Os6 1.909579 1_555
N18 Os13 1.964328 1_555
N18 Os10 2.017790 1_554
N19 Os7 1.909579 1_555
N19 Os12 1.964328 1_555
N19 Os11 2.017790 1_555
