# generated using pymatgen
data_CeMg6Cr
_symmetry_space_group_name_H-M   'P 1'
_cell_length_a   6.61097071
_cell_length_b   6.61097071
_cell_length_c   5.17516200
_cell_angle_alpha   90.00000000
_cell_angle_beta   90.00000000
_cell_angle_gamma   123.25472805
_symmetry_Int_Tables_number   1
_chemical_formula_structural   CeMg6Cr
_chemical_formula_sum   'Ce1 Mg6 Cr1'
_cell_volume   189.14106249
_cell_formula_units_Z   1
loop_
 _symmetry_equiv_pos_site_id
 _symmetry_equiv_pos_as_xyz
  1  'x, y, z'
loop_
 _atom_site_type_symbol
 _atom_site_label
 _atom_site_symmetry_multiplicity
 _atom_site_fract_x
 _atom_site_fract_y
 _atom_site_fract_z
 _atom_site_occupancy
  Ce  Ce0  1  0.83276200  0.16723800  0.50000000  1
  Mg  Mg0  1  0.33680600  0.17416600  0.50000000  1
  Mg  Mg1  1  0.82583400  0.66319400  0.50000000  1
  Mg  Mg2  1  0.17829700  0.34598800  0.00000000  1
  Mg  Mg3  1  0.65401200  0.82170300  0.00000000  1
  Mg  Mg4  1  0.66377700  0.33622300  0.00000000  1
  Mg  Mg5  1  0.17261800  0.82738200  0.00000000  1
  Cr  Cr0  1  0.33589700  0.66410300  0.50000000  1
loop_
_geom_bond_atom_site_label_1
_geom_bond_atom_site_label_2
_geom_bond_distance
_geom_bond_site_symmetry_2
Ce0 Cr0 3.141772 1_545
Ce0 Cr0 3.141772 1_655
Ce0 Mg2 3.217085 1_655
Ce0 Mg2 3.217085 1_656
Ce0 Mg3 3.217085 1_545
Ce0 Mg3 3.217085 1_546
Ce0 Mg4 3.249676 1_555
Ce0 Mg4 3.249676 1_556
Ce0 Mg1 3.304088 1_555
Ce0 Mg0 3.304088 1_555
Ce0 Mg0 3.307326 1_655
Ce0 Mg1 3.307326 1_545
Mg0 Mg1 3.072622 1_555
Mg0 Mg4 3.158487 1_556
Mg0 Mg4 3.158487 1_555
Mg0 Mg1 3.210498 1_445
Mg0 Mg2 3.223261 1_556
Mg0 Mg2 3.223261 1_555
Mg0 Mg5 3.224984 1_545
Mg0 Mg5 3.224984 1_546
Mg1 Mg4 3.158487 1_556
Mg1 Mg4 3.158487 1_555
Mg1 Mg3 3.223261 1_555
Mg1 Mg3 3.223261 1_556
Mg1 Mg5 3.224984 1_656
Mg1 Mg5 3.224984 1_655
Mg2 Mg3 2.988974 1_555
Mg2 Mg5 3.203223 1_555
Mg2 Mg4 3.245343 1_555
Mg2 Mg3 3.294146 1_445
Mg2 Mg4 3.366509 1_455
Mg2 Mg5 3.408046 1_545
Mg3 Mg5 3.203223 1_555
Mg3 Mg4 3.245343 1_555
Mg3 Mg4 3.366509 1_565
Mg3 Mg5 3.408046 1_655
Mg4 Mg5 3.143243 1_545
Mg4 Mg5 3.143243 1_655
Cr0 Mg3 3.130630 1_556
Cr0 Mg3 3.130630 1_555
Cr0 Mg2 3.130630 1_556
Cr0 Mg2 3.130630 1_555
Cr0 Mg5 3.209953 1_556
Cr0 Mg5 3.209953 1_555
Cr0 Mg0 3.242258 1_555
Cr0 Mg1 3.242258 1_555
Cr0 Mg1 3.368720 1_455
Cr0 Mg0 3.368720 1_565
