# generated using pymatgen
data_CsEuCl3
_symmetry_space_group_name_H-M   'P 1'
_cell_length_a   7.84786518
_cell_length_b   7.96416394
_cell_length_c   11.21136964
_cell_angle_alpha   90.00000000
_cell_angle_beta   90.00000000
_cell_angle_gamma   90.00000000
_symmetry_Int_Tables_number   1
_chemical_formula_structural   CsEuCl3
_chemical_formula_sum   'Cs4 Eu4 Cl12'
_cell_volume   700.72949223
_cell_formula_units_Z   4
loop_
 _symmetry_equiv_pos_site_id
 _symmetry_equiv_pos_as_xyz
  1  'x, y, z'
loop_
 _atom_site_type_symbol
 _atom_site_label
 _atom_site_symmetry_multiplicity
 _atom_site_fract_x
 _atom_site_fract_y
 _atom_site_fract_z
 _atom_site_occupancy
  Cs  Cs0  1  0.01020690  0.45591279  0.25000000  1
  Cs  Cs1  1  0.98979310  0.54408721  0.75000000  1
  Cs  Cs2  1  0.51020690  0.04408721  0.75000000  1
  Cs  Cs3  1  0.48979310  0.95591279  0.25000000  1
  Eu  Eu0  1  -0.00000000  0.00000000  0.00000000  1
  Eu  Eu1  1  0.50000000  0.50000000  0.00000000  1
  Eu  Eu2  1  -0.00000000  0.00000000  0.50000000  1
  Eu  Eu3  1  0.50000000  0.50000000  0.50000000  1
  Cl  Cl0  1  0.28893658  0.21211205  0.03305541  1
  Cl  Cl1  1  0.71106342  0.78788795  0.96694459  1
  Cl  Cl2  1  0.78893658  0.28788795  0.96694459  1
  Cl  Cl3  1  0.71106342  0.78788795  0.53305541  1
  Cl  Cl4  1  0.21106342  0.71211205  0.03305541  1
  Cl  Cl5  1  0.28893658  0.21211205  0.46694459  1
  Cl  Cl6  1  0.21106342  0.71211205  0.46694459  1
  Cl  Cl7  1  0.78893658  0.28788795  0.53305541  1
  Cl  Cl8  1  0.56272000  0.51033180  0.25000000  1
  Cl  Cl9  1  0.43728000  0.48966820  0.75000000  1
  Cl  Cl10  1  0.06272000  0.98966820  0.75000000  1
  Cl  Cl11  1  0.93728000  0.01033180  0.25000000  1
loop_
_geom_bond_atom_site_label_1
_geom_bond_atom_site_label_2
_geom_bond_distance
_geom_bond_site_symmetry_2
Cl0 Eu0 2.851802 1_555
Cl0 Eu1 2.852694 1_555
Cl0 Cs3 3.544547 1_545
Cl0 Cs0 3.804046 1_555
Cl0 Cs2 3.857054 1_554
Cl1 Eu0 2.851802 1_666
Cl1 Eu1 2.852694 1_556
Cl1 Cs2 3.544547 1_565
Cl1 Cs1 3.804046 1_555
Cl1 Cs3 3.857054 1_556
Cl2 Eu1 2.851802 1_556
Cl2 Eu0 2.852694 1_656
Cl2 Cs1 3.544547 1_555
Cl2 Cs2 3.804046 1_555
Cl2 Cs0 3.857054 1_656
Cl3 Eu2 2.851802 1_665
Cl3 Eu3 2.852694 1_555
Cl3 Cs2 3.544547 1_565
Cl3 Cs1 3.804046 1_555
Cl3 Cs3 3.857054 1_555
Cl4 Eu1 2.851802 1_555
Cl4 Eu0 2.852694 1_565
Cl4 Cs0 3.544547 1_555
Cl4 Cs3 3.804046 1_555
Cl4 Cs1 3.857054 1_454
Cl5 Eu2 2.851802 1_555
Cl5 Eu3 2.852694 1_555
Cl5 Cs3 3.544547 1_545
Cl5 Cs0 3.804046 1_555
Cl5 Cs2 3.857054 1_555
Cl6 Eu3 2.851802 1_555
Cl6 Eu2 2.852694 1_565
Cl6 Cs0 3.544547 1_555
Cl6 Cs3 3.804046 1_555
Cl6 Cs1 3.857054 1_455
Cl7 Eu3 2.851802 1_555
Cl7 Eu2 2.852694 1_655
Cl7 Cs1 3.544547 1_555
Cl7 Cs2 3.804046 1_555
Cl7 Cs0 3.857054 1_655
Cl8 Eu1 2.846924 1_555
Cl8 Eu3 2.846924 1_555
Cl8 Cs0 3.538459 1_655
Cl8 Cs3 3.594535 1_555
Cl9 Eu1 2.846924 1_556
Cl9 Eu3 2.846924 1_555
Cl9 Cs1 3.538459 1_455
Cl9 Cs2 3.594535 1_555
Cl10 Eu2 2.846924 1_565
Cl10 Eu0 2.846924 1_566
Cl10 Cs2 3.538459 1_565
Cl10 Cs1 3.594535 1_455
Cl11 Eu0 2.846924 1_655
Cl11 Eu2 2.846924 1_655
Cl11 Cs3 3.538459 1_545
Cl11 Cs0 3.594535 1_655
