# generated using pymatgen
data_Lu2MoO6
_symmetry_space_group_name_H-M   'P 1'
_cell_length_a   9.67734979
_cell_length_b   9.67734979
_cell_length_c   5.21859386
_cell_angle_alpha   74.66981845
_cell_angle_beta   74.66981845
_cell_angle_gamma   67.62320139
_symmetry_Int_Tables_number   1
_chemical_formula_structural   Lu2MoO6
_chemical_formula_sum   'Lu8 Mo4 O24'
_cell_volume   428.43696967
_cell_formula_units_Z   4
loop_
 _symmetry_equiv_pos_site_id
 _symmetry_equiv_pos_as_xyz
  1  'x, y, z'
loop_
 _atom_site_type_symbol
 _atom_site_label
 _atom_site_symmetry_multiplicity
 _atom_site_fract_x
 _atom_site_fract_y
 _atom_site_fract_z
 _atom_site_occupancy
  Lu  Lu0  1  0.63850194  0.36149806  0.75000000  1
  Lu  Lu1  1  0.36149806  0.63850194  0.25000000  1
  Lu  Lu2  1  0.10526967  0.89473033  0.75000000  1
  Lu  Lu3  1  0.89473033  0.10526967  0.25000000  1
  Lu  Lu4  1  0.71832563  0.95056515  0.87602357  1
  Lu  Lu5  1  0.28167437  0.04943485  0.12397643  1
  Lu  Lu6  1  0.04943485  0.28167437  0.62397643  1
  Lu  Lu7  1  0.95056515  0.71832563  0.37602357  1
  Mo  Mo0  1  0.51646299  0.79450366  0.56382981  1
  Mo  Mo1  1  0.48353701  0.20549634  0.43617019  1
  Mo  Mo2  1  0.20549634  0.48353701  0.93617019  1
  Mo  Mo3  1  0.79450366  0.51646299  0.06382981  1
  O  O0  1  0.69632135  0.16250237  0.58008607  1
  O  O1  1  0.30367865  0.83749763  0.41991393  1
  O  O2  1  0.83749763  0.30367865  0.91991393  1
  O  O3  1  0.16250237  0.69632135  0.08008607  1
  O  O4  1  0.38576434  0.82550908  0.87767980  1
  O  O5  1  0.61423566  0.17449092  0.12232020  1
  O  O6  1  0.17449092  0.61423566  0.62232020  1
  O  O7  1  0.82550908  0.38576434  0.37767980  1
  O  O8  1  0.68914036  0.78839719  0.63975433  1
  O  O9  1  0.31085964  0.21160281  0.36024567  1
  O  O10  1  0.21160281  0.31085964  0.86024567  1
  O  O11  1  0.78839719  0.68914036  0.13975433  1
  O  O12  1  0.47622141  0.06582133  0.74578711  1
  O  O13  1  0.52377859  0.93417867  0.25421289  1
  O  O14  1  0.93417867  0.52377859  0.75421289  1
  O  O15  1  0.06582133  0.47622141  0.24578711  1
  O  O16  1  0.54969366  0.60872783  0.51268191  1
  O  O17  1  0.45030634  0.39127217  0.48731809  1
  O  O18  1  0.39127217  0.45030634  0.98731809  1
  O  O19  1  0.60872783  0.54969366  0.01268191  1
  O  O20  1  0.88864933  0.92935249  0.07932644  1
  O  O21  1  0.11135067  0.07064751  0.92067356  1
  O  O22  1  0.07064751  0.11135067  0.42067356  1
  O  O23  1  0.92935249  0.88864933  0.57932644  1
loop_
_geom_bond_atom_site_label_1
_geom_bond_atom_site_label_2
_geom_bond_distance
_geom_bond_site_symmetry_2
Lu0 O2 2.151278 1_555
Lu0 O0 2.151278 1_555
Lu0 O7 2.308359 1_555
Lu0 O5 2.308359 1_556
Lu0 O16 2.329608 1_555
Lu0 O18 2.329608 1_555
Lu0 O19 2.447611 1_556
Lu0 O17 2.447611 1_555
Lu1 O1 2.151278 1_555
Lu1 O3 2.151278 1_555
Lu1 O4 2.308359 1_554
Lu1 O6 2.308359 1_555
Lu1 O19 2.329608 1_555
Lu1 O17 2.329608 1_555
Lu1 O16 2.447611 1_555
Lu1 O18 2.447611 1_554
Lu2 O21 2.144931 1_565
Lu2 O23 2.144931 1_455
Lu2 O3 2.215094 1_556
Lu2 O1 2.215094 1_555
Lu2 O20 2.307623 1_456
Lu2 O22 2.307623 1_565
Lu2 O4 2.756226 1_555
Lu2 O6 2.756226 1_555
Lu3 O22 2.144931 1_655
Lu3 O20 2.144931 1_545
Lu3 O2 2.215094 1_554
Lu3 O0 2.215094 1_555
Lu3 O21 2.307623 1_654
Lu3 O23 2.307623 1_545
Lu3 O7 2.756226 1_555
Lu3 O5 2.756226 1_555
Lu4 O20 2.106297 1_556
Lu4 O0 2.191691 1_565
Lu4 O23 2.194043 1_555
Lu4 O13 2.358381 1_556
Lu4 O8 2.368058 1_555
Lu4 O12 2.376288 1_565
Lu4 O11 2.469942 1_556
Lu4 O5 2.547314 1_566
Lu5 O21 2.106297 1_554
Lu5 O1 2.191691 1_545
Lu5 O22 2.194043 1_555
Lu5 O12 2.358381 1_554
Lu5 O9 2.368058 1_555
Lu5 O13 2.376288 1_545
Lu5 O10 2.469942 1_554
Lu5 O4 2.547314 1_544
Lu6 O22 2.106297 1_555
Lu6 O2 2.191691 1_455
Lu6 O21 2.194043 1_555
Lu6 O15 2.358381 1_555
Lu6 O10 2.368058 1_555
Lu6 O14 2.376288 1_455
Lu6 O9 2.469942 1_555
Lu6 O7 2.547314 1_455
Lu7 O23 2.106297 1_555
Lu7 O3 2.191691 1_655
Lu7 O20 2.194043 1_555
Lu7 O14 2.358381 1_555
Lu7 O11 2.368058 1_555
Lu7 O15 2.376288 1_655
Lu7 O8 2.469942 1_555
Lu7 O6 2.547314 1_655
Mo0 O16 1.781843 1_555
Mo0 O8 1.793167 1_555
Mo0 O4 1.802189 1_555
Mo0 O13 1.816677 1_555
Mo0 O1 2.231057 1_555
Mo1 O17 1.781843 1_555
Mo1 O9 1.793167 1_555
Mo1 O5 1.802189 1_555
Mo1 O12 1.816677 1_555
Mo1 O0 2.231057 1_555
Mo2 O18 1.781843 1_555
Mo2 O10 1.793167 1_555
Mo2 O6 1.802189 1_555
Mo2 O15 1.816677 1_556
Mo2 O3 2.231057 1_556
Mo3 O19 1.781843 1_555
Mo3 O11 1.793167 1_555
Mo3 O7 1.802189 1_555
Mo3 O14 1.816677 1_554
Mo3 O2 2.231057 1_554
