# generated using pymatgen
data_ZnMo2P2O9
_symmetry_space_group_name_H-M   'P 1'
_cell_length_a   6.65291700
_cell_length_b   7.53933500
_cell_length_c   14.80563600
_cell_angle_alpha   90.00000000
_cell_angle_beta   90.00000000
_cell_angle_gamma   90.00000000
_symmetry_Int_Tables_number   1
_chemical_formula_structural   ZnMo2P2O9
_chemical_formula_sum   'Zn4 Mo8 P8 O36'
_cell_volume   742.62952956
_cell_formula_units_Z   4
loop_
 _symmetry_equiv_pos_site_id
 _symmetry_equiv_pos_as_xyz
  1  'x, y, z'
loop_
 _atom_site_type_symbol
 _atom_site_label
 _atom_site_symmetry_multiplicity
 _atom_site_fract_x
 _atom_site_fract_y
 _atom_site_fract_z
 _atom_site_occupancy
  Zn  Zn0  1  0.25000000  0.45747900  0.26580300  1
  Zn  Zn1  1  0.25000000  0.04252100  0.76580300  1
  Zn  Zn2  1  0.75000000  0.95747900  0.23419700  1
  Zn  Zn3  1  0.75000000  0.54252100  0.73419700  1
  Mo  Mo0  1  0.25000000  0.86733700  0.37652700  1
  Mo  Mo1  1  0.75000000  0.13266300  0.62347300  1
  Mo  Mo2  1  0.75000000  0.36733700  0.12347300  1
  Mo  Mo3  1  0.25000000  0.63266300  0.87652700  1
  Mo  Mo4  1  0.00000000  0.50000000  0.50000000  1
  Mo  Mo5  1  0.00000000  0.00000000  0.00000000  1
  Mo  Mo6  1  0.50000000  0.00000000  0.00000000  1
  Mo  Mo7  1  0.50000000  0.50000000  0.50000000  1
  P  P0  1  0.75000000  0.87158600  0.42312200  1
  P  P1  1  0.25000000  0.12841400  0.57687800  1
  P  P2  1  0.25000000  0.37158600  0.07687800  1
  P  P3  1  0.75000000  0.62841400  0.92312200  1
  P  P4  1  0.25000000  0.89470800  0.19037800  1
  P  P5  1  0.25000000  0.60529200  0.69037800  1
  P  P6  1  0.75000000  0.39470800  0.30962200  1
  P  P7  1  0.75000000  0.10529200  0.80962200  1
  O  O0  1  0.55217300  0.10545800  0.86563600  1
  O  O1  1  0.05217300  0.89454200  0.13436400  1
  O  O2  1  0.44782700  0.60545800  0.63436400  1
  O  O3  1  0.94782700  0.39454200  0.36563600  1
  O  O4  1  0.44782700  0.89454200  0.13436400  1
  O  O5  1  0.94782700  0.10545800  0.86563600  1
  O  O6  1  0.55217300  0.39454200  0.36563600  1
  O  O7  1  0.05217300  0.60545800  0.63436400  1
  O  O8  1  0.75000000  0.81556900  0.97062300  1
  O  O9  1  0.25000000  0.18443100  0.02937700  1
  O  O10  1  0.25000000  0.31556900  0.52937700  1
  O  O11  1  0.75000000  0.68443100  0.47062300  1
  O  O12  1  0.25000000  0.61828200  0.43692500  1
  O  O13  1  0.75000000  0.38171800  0.56307500  1
  O  O14  1  0.75000000  0.11828200  0.06307500  1
  O  O15  1  0.25000000  0.88171800  0.93692500  1
  O  O16  1  0.25000000  0.72175600  0.25126400  1
  O  O17  1  0.75000000  0.27824400  0.74873600  1
  O  O18  1  0.75000000  0.22175600  0.24873600  1
  O  O19  1  0.25000000  0.77824400  0.75126400  1
  O  O20  1  0.92947000  0.61534900  0.85610600  1
  O  O21  1  0.42947000  0.38465100  0.14389400  1
  O  O22  1  0.07053000  0.11534900  0.64389400  1
  O  O23  1  0.57053000  0.88465100  0.35610600  1
  O  O24  1  0.07053000  0.38465100  0.14389400  1
  O  O25  1  0.57053000  0.61534900  0.85610600  1
  O  O26  1  0.92947000  0.88465100  0.35610600  1
  O  O27  1  0.42947000  0.11534900  0.64389400  1
  O  O28  1  0.25000000  0.98303100  0.50680300  1
  O  O29  1  0.75000000  0.54825300  0.24003400  1
  O  O30  1  0.75000000  0.95174700  0.74003400  1
  O  O31  1  0.25000000  0.04825300  0.25996600  1
  O  O32  1  0.25000000  0.51696900  0.00680300  1
  O  O33  1  0.75000000  0.48303100  0.99319700  1
  O  O34  1  0.75000000  0.01696900  0.49319700  1
  O  O35  1  0.25000000  0.45174700  0.75996600  1
loop_
_geom_bond_atom_site_label_1
_geom_bond_atom_site_label_2
_geom_bond_distance
_geom_bond_site_symmetry_2
Mo0 O12 2.079769 1_555
Mo0 O28 2.116878 1_555
Mo0 O16 2.155047 1_555
Mo0 O23 2.157739 1_555
Mo0 O26 2.157739 1_455
Mo0 O31 2.199706 1_565
Mo1 O13 2.079769 1_555
Mo1 O34 2.116878 1_555
Mo1 O17 2.155047 1_555
Mo1 O22 2.157739 1_655
Mo1 O27 2.157739 1_555
Mo1 O30 2.199706 1_545
Mo2 O14 2.079769 1_555
Mo2 O33 2.116878 1_554
Mo2 O18 2.155047 1_555
Mo2 O21 2.157739 1_555
Mo2 O24 2.157739 1_655
Mo2 O29 2.199706 1_555
Mo3 O15 2.079769 1_555
Mo3 O32 2.116878 1_556
Mo3 O19 2.155047 1_555
Mo3 O25 2.157739 1_555
Mo3 O20 2.157739 1_455
Mo3 O35 2.199706 1_555
Mo4 O12 2.105632 1_555
Mo4 O13 2.105632 1_455
Mo4 O3 2.170283 1_455
Mo4 O7 2.170283 1_555
Mo4 O11 2.211100 1_455
Mo4 O10 2.211100 1_555
Mo5 O14 2.105632 1_455
Mo5 O15 2.105632 1_544
Mo5 O1 2.170283 1_545
Mo5 O5 2.170283 1_454
Mo5 O9 2.211100 1_555
Mo5 O8 2.211100 1_444
Mo6 O14 2.105632 1_555
Mo6 O15 2.105632 1_544
Mo6 O4 2.170283 1_545
Mo6 O0 2.170283 1_554
Mo6 O9 2.211100 1_555
Mo6 O8 2.211100 1_544
Mo7 O12 2.105632 1_555
Mo7 O13 2.105632 1_555
Mo7 O6 2.170283 1_555
Mo7 O2 2.170283 1_555
Mo7 O11 2.211100 1_555
Mo7 O10 2.211100 1_555
O0 P7 1.555624 1_555
O0 Zn1 2.539949 1_555
O1 P4 1.555624 1_555
O1 Zn2 2.539949 1_455
O2 P5 1.555624 1_555
O2 Zn3 2.539949 1_555
O3 P6 1.555624 1_555
O3 Zn0 2.539949 1_655
O4 P4 1.555624 1_555
O4 Zn2 2.539949 1_555
O5 P7 1.555624 1_555
O5 Zn1 2.539949 1_655
O6 P6 1.555624 1_555
O6 Zn0 2.539949 1_555
O7 P5 1.555624 1_555
O7 Zn3 2.539949 1_455
O8 P3 1.576577 1_555
O9 P2 1.576577 1_555
O10 P1 1.576577 1_555
O11 P0 1.576577 1_555
O16 P4 1.585210 1_555
O16 Zn0 2.004067 1_555
O17 P7 1.585210 1_555
O17 Zn3 2.004067 1_555
O18 P6 1.585210 1_555
O18 Zn2 2.004067 1_545
O19 P5 1.585210 1_555
O19 Zn1 2.004067 1_565
O20 P3 1.555579 1_555
O20 Zn3 2.232695 1_555
O21 P2 1.555579 1_555
O21 Zn0 2.232695 1_555
O22 P1 1.555579 1_555
O22 Zn1 2.232695 1_555
O23 P0 1.555579 1_555
O23 Zn2 2.232695 1_555
O24 P2 1.555579 1_555
O24 Zn0 2.232695 1_555
O25 P3 1.555579 1_555
O25 Zn3 2.232695 1_555
O26 P0 1.555579 1_555
O26 Zn2 2.232695 1_555
O27 P1 1.555579 1_555
O27 Zn1 2.232695 1_555
O28 P1 1.509249 1_565
O29 P6 1.549712 1_555
O30 P7 1.549712 1_565
O31 P4 1.549712 1_545
O32 P2 1.509249 1_555
O33 P3 1.509249 1_555
O34 P0 1.509249 1_545
O35 P5 1.549712 1_555
