# generated using pymatgen
data_KSrPrMnO6
_symmetry_space_group_name_H-M   'P 1'
_cell_length_a   8.46223516
_cell_length_b   8.43159021
_cell_length_c   8.47631496
_cell_angle_alpha   90.00000000
_cell_angle_beta   90.00000000
_cell_angle_gamma   90.00000000
_symmetry_Int_Tables_number   1
_chemical_formula_structural   KSrPrMnO6
_chemical_formula_sum   'K4 Sr4 Pr4 Mn4 O24'
_cell_volume   604.78591265
_cell_formula_units_Z   4
loop_
 _symmetry_equiv_pos_site_id
 _symmetry_equiv_pos_as_xyz
  1  'x, y, z'
loop_
 _atom_site_type_symbol
 _atom_site_label
 _atom_site_symmetry_multiplicity
 _atom_site_fract_x
 _atom_site_fract_y
 _atom_site_fract_z
 _atom_site_occupancy
  K  K0  1  0.50000000  -0.00000000  0.50000000  1
  K  K1  1  0.50000000  0.50000000  0.00000000  1
  K  K2  1  -0.00000000  0.50000000  0.00000000  1
  K  K3  1  -0.00000000  0.00000000  0.50000000  1
  Sr  Sr0  1  -0.00000000  0.50000000  0.50000000  1
  Sr  Sr1  1  0.50000000  0.00000000  -0.00000000  1
  Sr  Sr2  1  -0.00000000  -0.00000000  -0.00000000  1
  Sr  Sr3  1  0.50000000  0.50000000  0.50000000  1
  Pr  Pr0  1  0.25000000  0.25000000  0.25000000  1
  Pr  Pr1  1  0.75000000  0.75000000  0.25000000  1
  Pr  Pr2  1  0.75000000  0.25000000  0.75000000  1
  Pr  Pr3  1  0.25000000  0.75000000  0.75000000  1
  Mn  Mn0  1  0.75000000  0.75000000  0.75000000  1
  Mn  Mn1  1  0.25000000  0.25000000  0.75000000  1
  Mn  Mn2  1  0.25000000  0.75000000  0.25000000  1
  Mn  Mn3  1  0.75000000  0.25000000  0.25000000  1
  O  O0  1  0.97424663  0.23189621  0.26621443  1
  O  O1  1  0.02575337  0.76810379  0.26621443  1
  O  O2  1  0.02575337  0.23189621  0.73378557  1
  O  O3  1  0.97424663  0.76810379  0.73378557  1
  O  O4  1  0.26854453  0.97629544  0.21537949  1
  O  O5  1  0.26854453  0.02370456  0.78462051  1
  O  O6  1  0.73145547  0.02370456  0.21537949  1
  O  O7  1  0.73145547  0.97629544  0.78462051  1
  O  O8  1  0.22897612  0.25614855  0.97481357  1
  O  O9  1  0.77102388  0.25614855  0.02518643  1
  O  O10  1  0.22897612  0.74385145  0.02518643  1
  O  O11  1  0.77102388  0.74385145  0.97481357  1
  O  O12  1  0.52575337  0.26810379  0.23378557  1
  O  O13  1  0.47424663  0.73189621  0.23378557  1
  O  O14  1  0.47424663  0.26810379  0.76621443  1
  O  O15  1  0.52575337  0.73189621  0.76621443  1
  O  O16  1  0.23145547  0.52370456  0.28462051  1
  O  O17  1  0.23145547  0.47629544  0.71537949  1
  O  O18  1  0.76854453  0.47629544  0.28462051  1
  O  O19  1  0.76854453  0.52370456  0.71537949  1
  O  O20  1  0.27102388  0.24385145  0.52518643  1
  O  O21  1  0.72897612  0.24385145  0.47481357  1
  O  O22  1  0.27102388  0.75614855  0.47481357  1
  O  O23  1  0.72897612  0.75614855  0.52518643  1
loop_
_geom_bond_atom_site_label_1
_geom_bond_atom_site_label_2
_geom_bond_distance
_geom_bond_site_symmetry_2
K0 O23 2.833272 1_545
K0 O20 2.833272 1_555
K0 O22 2.833272 1_545
K0 O21 2.833272 1_555
K0 O6 3.113920 1_555
K0 O4 3.113920 1_545
K0 O5 3.113920 1_555
K0 O7 3.113920 1_545
K0 O13 3.201470 1_545
K0 O15 3.201470 1_545
K0 O12 3.201470 1_555
K0 O14 3.201470 1_555
K1 O14 2.792384 1_554
K1 O15 2.792384 1_554
K1 O12 2.792384 1_555
K1 O13 2.792384 1_555
K1 O10 3.087545 1_555
K1 O11 3.087545 1_554
K1 O8 3.087545 1_554
K1 O9 3.087545 1_555
K1 O19 3.320310 1_554
K1 O16 3.320310 1_555
K1 O18 3.320310 1_555
K1 O17 3.320310 1_554
K2 O10 2.833272 1_555
K2 O11 2.833272 1_454
K2 O8 2.833272 1_554
K2 O9 2.833272 1_455
K2 O17 3.113920 1_554
K2 O18 3.113920 1_455
K2 O19 3.113920 1_454
K2 O16 3.113920 1_555
K2 O1 3.201470 1_555
K2 O3 3.201470 1_454
K2 O0 3.201470 1_455
K2 O2 3.201470 1_554
K3 O3 2.792384 1_445
K3 O1 2.792384 1_545
K3 O0 2.792384 1_455
K3 O2 2.792384 1_555
K3 O21 3.087545 1_455
K3 O20 3.087545 1_555
K3 O23 3.087545 1_445
K3 O22 3.087545 1_545
K3 O6 3.320310 1_455
K3 O7 3.320310 1_445
K3 O5 3.320310 1_555
K3 O4 3.320310 1_545
Mn0 O3 1.908712 1_555
Mn0 O15 1.908712 1_555
Mn0 O23 1.914580 1_555
Mn0 O11 1.914580 1_555
Mn0 O7 1.936833 1_555
Mn0 O19 1.936833 1_555
Mn1 O2 1.908712 1_555
Mn1 O14 1.908712 1_555
Mn1 O20 1.914580 1_555
Mn1 O8 1.914580 1_555
Mn1 O17 1.936833 1_555
Mn1 O5 1.936833 1_555
Mn2 O1 1.908712 1_555
Mn2 O13 1.908712 1_555
Mn2 O10 1.914580 1_555
Mn2 O22 1.914580 1_555
Mn2 O16 1.936833 1_555
Mn2 O4 1.936833 1_555
Mn3 O0 1.908712 1_555
Mn3 O12 1.908712 1_555
Mn3 O9 1.914580 1_555
Mn3 O21 1.914580 1_555
Mn3 O6 1.936833 1_555
Mn3 O18 1.936833 1_555
O0 Pr0 2.342512 1_655
O0 Sr2 2.993724 1_655
O0 Sr0 3.014040 1_655
O1 Pr1 2.342512 1_455
O1 Sr2 2.993724 1_565
O1 Sr0 3.014040 1_555
O2 Pr2 2.342512 1_455
O2 Sr2 2.993724 1_556
O2 Sr0 3.014040 1_555
O3 Pr3 2.342512 1_655
O3 Sr2 2.993724 1_666
O3 Sr0 3.014040 1_655
O4 Pr0 2.331635 1_565
O4 Sr1 2.684974 1_565
O4 Sr2 2.921823 1_565
O5 Pr3 2.331635 1_545
O5 Sr1 2.684974 1_556
O5 Sr2 2.921823 1_556
O6 Pr1 2.331635 1_545
O6 Sr1 2.684974 1_555
O6 Sr2 2.921823 1_655
O7 Pr2 2.331635 1_565
O7 Sr1 2.684974 1_566
O7 Sr2 2.921823 1_666
O8 Pr0 2.339916 1_556
O8 Sr2 2.909388 1_556
O8 Sr1 3.157538 1_556
O9 Pr2 2.339916 1_554
O9 Sr2 2.909388 1_655
O9 Sr1 3.157538 1_555
O10 Pr3 2.339916 1_554
O10 Sr2 2.909388 1_565
O10 Sr1 3.157538 1_565
O11 Pr1 2.339916 1_556
O11 Sr2 2.909388 1_666
O11 Sr1 3.157538 1_566
O12 Pr0 2.342512 1_555
O12 Sr3 2.993724 1_555
O12 Sr1 3.014040 1_555
O13 Pr1 2.342512 1_555
O13 Sr3 2.993724 1_555
O13 Sr1 3.014040 1_565
O14 Pr2 2.342512 1_555
O14 Sr3 2.993724 1_555
O14 Sr1 3.014040 1_556
O15 Pr3 2.342512 1_555
O15 Sr3 2.993724 1_555
O15 Sr1 3.014040 1_566
O16 Pr0 2.331635 1_555
O16 Sr0 2.684974 1_555
O16 Sr3 2.921823 1_555
O17 Pr3 2.331635 1_555
O17 Sr0 2.684974 1_555
O17 Sr3 2.921823 1_555
O18 Pr1 2.331635 1_555
O18 Sr0 2.684974 1_655
O18 Sr3 2.921823 1_555
O19 Pr2 2.331635 1_555
O19 Sr0 2.684974 1_655
O19 Sr3 2.921823 1_555
O20 Pr0 2.339916 1_555
O20 Sr3 2.909388 1_555
O20 Sr0 3.157538 1_555
O21 Pr2 2.339916 1_555
O21 Sr3 2.909388 1_555
O21 Sr0 3.157538 1_655
O22 Pr3 2.339916 1_555
O22 Sr3 2.909388 1_555
O22 Sr0 3.157538 1_555
O23 Pr1 2.339916 1_555
O23 Sr3 2.909388 1_555
O23 Sr0 3.157538 1_655
