# generated using pymatgen
data_Ca2CoN2
_symmetry_space_group_name_H-M   'P 1'
_cell_length_a   5.93585899
_cell_length_b   5.93585899
_cell_length_c   6.69322477
_cell_angle_alpha   62.01914627
_cell_angle_beta   62.01914627
_cell_angle_gamma   49.16168426
_symmetry_Int_Tables_number   1
_chemical_formula_structural   Ca2CoN2
_chemical_formula_sum   'Ca4 Co2 N4'
_cell_volume   152.84018598
_cell_formula_units_Z   2
loop_
 _symmetry_equiv_pos_site_id
 _symmetry_equiv_pos_as_xyz
  1  'x, y, z'
loop_
 _atom_site_type_symbol
 _atom_site_label
 _atom_site_symmetry_multiplicity
 _atom_site_fract_x
 _atom_site_fract_y
 _atom_site_fract_z
 _atom_site_occupancy
  Ca  Ca0  1  0.32251129  0.32251129  0.59365237  1
  Ca  Ca1  1  0.67748871  0.67748871  0.40634763  1
  Ca  Ca2  1  0.95993911  0.95993911  0.77115991  1
  Ca  Ca3  1  0.04006089  0.04006089  0.22884009  1
  Co  Co0  1  0.63316975  0.63316975  0.88042051  1
  Co  Co1  1  0.36683025  0.36683025  0.11957949  1
  N  N0  1  0.80980940  0.80980940  0.61304486  1
  N  N1  1  0.19019060  0.19019060  0.38695514  1
  N  N2  1  0.52156932  0.52156932  0.19809001  1
  N  N3  1  0.47843068  0.47843068  0.80190999  1
loop_
_geom_bond_atom_site_label_1
_geom_bond_atom_site_label_2
_geom_bond_distance
_geom_bond_site_symmetry_2
Ca0 N2 2.399365 1_555
Ca0 N1 2.448250 1_555
Ca0 N0 2.472677 1_455
Ca0 N0 2.472677 1_545
Ca0 N3 2.682826 1_555
Ca1 N3 2.399365 1_555
Ca1 N0 2.448250 1_555
Ca1 N1 2.472677 1_565
Ca1 N1 2.472677 1_655
Ca1 N2 2.682826 1_555
Ca2 N0 2.348796 1_555
Ca2 N1 2.489171 1_665
Ca2 N3 2.494285 1_565
Ca2 N3 2.494285 1_655
Ca3 N1 2.348796 1_555
Ca3 N0 2.489171 1_445
Ca3 N2 2.494285 1_545
Ca3 N2 2.494285 1_455
Co0 N0 1.821472 1_555
Co0 N2 1.824582 1_556
Co0 N3 1.993154 1_555
Co1 N1 1.821472 1_555
Co1 N3 1.824582 1_554
Co1 N2 1.993154 1_555
