# generated using pymatgen
data_Mg2ClO3
_symmetry_space_group_name_H-M   'P 1'
_cell_length_a   6.70803689
_cell_length_b   5.64862852
_cell_length_c   7.85185690
_cell_angle_alpha   85.49048615
_cell_angle_beta   76.89408976
_cell_angle_gamma   88.11474746
_symmetry_Int_Tables_number   1
_chemical_formula_structural   Mg2ClO3
_chemical_formula_sum   'Mg4 Cl2 O6'
_cell_volume   288.83498544
_cell_formula_units_Z   2
loop_
 _symmetry_equiv_pos_site_id
 _symmetry_equiv_pos_as_xyz
  1  'x, y, z'
loop_
 _atom_site_type_symbol
 _atom_site_label
 _atom_site_symmetry_multiplicity
 _atom_site_fract_x
 _atom_site_fract_y
 _atom_site_fract_z
 _atom_site_occupancy
  Mg  Mg0  1  0.07945200  0.75407200  0.48004200  1
  Mg  Mg1  1  0.92054800  0.24592800  0.51995800  1
  Mg  Mg2  1  0.36719700  0.31104600  0.54906600  1
  Mg  Mg3  1  0.63280300  0.68895400  0.45093400  1
  Cl  Cl0  1  0.57455000  0.35288400  0.03066300  1
  Cl  Cl1  1  0.42545000  0.64711600  0.96933700  1
  O  O0  1  0.09308200  0.45267100  0.64911800  1
  O  O1  1  0.90691800  0.54732900  0.35088200  1
  O  O2  1  0.36239500  0.62794100  0.40906600  1
  O  O3  1  0.63760500  0.37205900  0.59093400  1
  O  O4  1  0.19641500  0.06893700  0.50779700  1
  O  O5  1  0.80358500  0.93106300  0.49220300  1
loop_
_geom_bond_atom_site_label_1
_geom_bond_atom_site_label_2
_geom_bond_distance
_geom_bond_site_symmetry_2
Mg0 O2 1.978468 1_555
Mg0 O4 2.014111 1_565
Mg0 O5 2.060638 1_455
Mg0 O0 2.087746 1_555
Mg0 O1 2.130548 1_455
Mg1 O3 1.978468 1_555
Mg1 O5 2.014111 1_545
Mg1 O4 2.060638 1_655
Mg1 O1 2.087746 1_555
Mg1 O0 2.130548 1_655
Mg2 O4 1.904949 1_555
Mg2 O3 1.961245 1_555
Mg2 O0 1.996288 1_555
Mg2 O2 2.028900 1_555
Mg3 O5 1.904949 1_555
Mg3 O2 1.961245 1_555
Mg3 O1 1.996288 1_555
Mg3 O3 2.028900 1_555
Cl0 Cl1 1.994407 1_554
