# generated using pymatgen
data_CaMg
_symmetry_space_group_name_H-M   'P 1'
_cell_length_a   6.46405248
_cell_length_b   6.46405248
_cell_length_c   5.81899575
_cell_angle_alpha   69.93846811
_cell_angle_beta   69.93846811
_cell_angle_gamma   33.73906290
_symmetry_Int_Tables_number   1
_chemical_formula_structural   CaMg
_chemical_formula_sum   'Ca2 Mg2'
_cell_volume   126.06920414
_cell_formula_units_Z   2
loop_
 _symmetry_equiv_pos_site_id
 _symmetry_equiv_pos_as_xyz
  1  'x, y, z'
loop_
 _atom_site_type_symbol
 _atom_site_label
 _atom_site_symmetry_multiplicity
 _atom_site_fract_x
 _atom_site_fract_y
 _atom_site_fract_z
 _atom_site_occupancy
  Ca  Ca0  1  0.89487534  0.89487534  0.82954551  1
  Ca  Ca1  1  0.10512466  0.10512466  0.17045449  1
  Mg  Mg0  1  0.64831209  0.64831209  0.63831973  1
  Mg  Mg1  1  0.35168791  0.35168791  0.36168027  1
loop_
_geom_bond_atom_site_label_1
_geom_bond_atom_site_label_2
_geom_bond_distance
_geom_bond_site_symmetry_2
Ca0 Mg0 3.476605 1_565
Ca0 Mg0 3.476605 1_655
Ca0 Mg1 3.493758 1_566
Ca0 Mg1 3.493758 1_656
Ca0 Mg1 3.501298 1_565
Ca0 Mg1 3.501298 1_655
Ca0 Mg0 3.602323 1_555
Ca1 Mg1 3.476605 1_455
Ca1 Mg1 3.476605 1_545
Ca1 Mg0 3.493758 1_454
Ca1 Mg0 3.493758 1_544
Ca1 Mg0 3.501298 1_545
Ca1 Mg0 3.501298 1_455
Ca1 Mg1 3.602323 1_555
Mg0 Mg1 3.088234 1_655
Mg0 Mg1 3.088234 1_565
