# generated using pymatgen
data_Ca3Lu
_symmetry_space_group_name_H-M   'P 1'
_cell_length_a   5.36177500
_cell_length_b   5.36177500
_cell_length_c   5.36177500
_cell_angle_alpha   90.00000000
_cell_angle_beta   90.00000000
_cell_angle_gamma   90.00000000
_symmetry_Int_Tables_number   1
_chemical_formula_structural   Ca3Lu
_chemical_formula_sum   'Ca3 Lu1'
_cell_volume   154.14369179
_cell_formula_units_Z   1
loop_
 _symmetry_equiv_pos_site_id
 _symmetry_equiv_pos_as_xyz
  1  'x, y, z'
loop_
 _atom_site_type_symbol
 _atom_site_label
 _atom_site_symmetry_multiplicity
 _atom_site_fract_x
 _atom_site_fract_y
 _atom_site_fract_z
 _atom_site_occupancy
  Ca  Ca0  1  0.50000000  0.00000000  0.00000000  1
  Ca  Ca1  1  0.00000000  0.50000000  0.00000000  1
  Ca  Ca2  1  0.00000000  0.00000000  0.50000000  1
  Lu  Lu0  1  0.50000000  0.50000000  0.50000000  1
loop_
_geom_bond_atom_site_label_1
_geom_bond_atom_site_label_2
_geom_bond_distance
_geom_bond_site_symmetry_2
Ca0 Ca1 3.791347 1_555
Ca0 Lu0 3.791347 1_544
Ca0 Lu0 3.791347 1_555
Ca0 Ca1 3.791347 1_655
Ca0 Ca2 3.791347 1_555
Ca0 Lu0 3.791347 1_554
Ca0 Ca2 3.791347 1_554
Ca0 Ca1 3.791347 1_645
Ca0 Lu0 3.791347 1_545
Ca0 Ca2 3.791347 1_655
Ca0 Ca2 3.791347 1_654
Ca0 Ca1 3.791347 1_545
Ca1 Ca2 3.791347 1_565
Ca1 Lu0 3.791347 1_455
Ca1 Lu0 3.791347 1_555
Ca1 Ca2 3.791347 1_555
Ca1 Lu0 3.791347 1_554
Ca1 Ca2 3.791347 1_554
Ca1 Ca2 3.791347 1_564
Ca1 Lu0 3.791347 1_454
Ca2 Lu0 3.791347 1_445
Ca2 Lu0 3.791347 1_455
Ca2 Lu0 3.791347 1_555
Ca2 Lu0 3.791347 1_545
