# generated using pymatgen
data_BaMgBiF7
_symmetry_space_group_name_H-M   'P 1'
_cell_length_a   10.78742600
_cell_length_b   5.71258600
_cell_length_c   9.92136915
_cell_angle_alpha   88.57110274
_cell_angle_beta   90.00000000
_cell_angle_gamma   90.00000000
_symmetry_Int_Tables_number   1
_chemical_formula_structural   BaMgBiF7
_chemical_formula_sum   'Ba4 Mg4 Bi4 F28'
_cell_volume   611.20531258
_cell_formula_units_Z   4
loop_
 _symmetry_equiv_pos_site_id
 _symmetry_equiv_pos_as_xyz
  1  'x, y, z'
loop_
 _atom_site_type_symbol
 _atom_site_label
 _atom_site_symmetry_multiplicity
 _atom_site_fract_x
 _atom_site_fract_y
 _atom_site_fract_z
 _atom_site_occupancy
  Ba  Ba0  1  0.33226000  0.74389700  0.49145600  1
  Ba  Ba1  1  0.83226000  0.25610300  0.00854400  1
  Ba  Ba2  1  0.66774000  0.25610300  0.50854400  1
  Ba  Ba3  1  0.16774000  0.74389700  0.99145600  1
  Mg  Mg0  1  0.37389100  0.30381600  0.80139500  1
  Mg  Mg1  1  0.87389100  0.69618400  0.69860500  1
  Mg  Mg2  1  0.12610900  0.30381600  0.30139500  1
  Mg  Mg3  1  0.62610900  0.69618400  0.19860500  1
  Bi  Bi0  1  0.58534200  0.77700900  0.83296700  1
  Bi  Bi1  1  0.41465800  0.22299100  0.16703300  1
  Bi  Bi2  1  0.91465800  0.77700900  0.33296700  1
  Bi  Bi3  1  0.08534200  0.22299100  0.66703300  1
  F  F0  1  0.47491300  0.85545700  0.12413600  1
  F  F1  1  0.09850000  0.59940100  0.40697500  1
  F  F2  1  0.72692000  0.49832000  0.76642900  1
  F  F3  1  0.27308000  0.50168000  0.23357100  1
  F  F4  1  0.46484200  0.08290600  0.37214800  1
  F  F5  1  0.78851600  0.79862700  0.52363200  1
  F  F6  1  0.77410500  0.96497500  0.77476300  1
  F  F7  1  0.96484200  0.91709400  0.12785200  1
  F  F8  1  0.40150000  0.59940100  0.90697500  1
  F  F9  1  0.22692000  0.50168000  0.73357100  1
  F  F10  1  0.02508700  0.85545700  0.62413600  1
  F  F11  1  0.52508700  0.14454300  0.87586400  1
  F  F12  1  0.27410500  0.03502500  0.72523700  1
  F  F13  1  0.97236200  0.55698500  0.84840800  1
  F  F14  1  0.53515800  0.91709400  0.62785200  1
  F  F15  1  0.03515800  0.08290600  0.87214800  1
  F  F16  1  0.22589500  0.03502500  0.22523700  1
  F  F17  1  0.97491300  0.14454300  0.37586400  1
  F  F18  1  0.47236200  0.44301500  0.65159200  1
  F  F19  1  0.90150000  0.40059900  0.59302500  1
  F  F20  1  0.02763800  0.44301500  0.15159200  1
  F  F21  1  0.72589500  0.96497500  0.27476300  1
  F  F22  1  0.52763800  0.55698500  0.34840800  1
  F  F23  1  0.28851600  0.20137300  0.97636800  1
  F  F24  1  0.21148400  0.20137300  0.47636800  1
  F  F25  1  0.71148400  0.79862700  0.02363200  1
  F  F26  1  0.59850000  0.40059900  0.09302500  1
  F  F27  1  0.77308000  0.49832000  0.26642900  1
loop_
_geom_bond_atom_site_label_1
_geom_bond_atom_site_label_2
_geom_bond_distance
_geom_bond_site_symmetry_2
Ba0 F4 2.661359 1_565
Ba0 F18 2.761605 1_555
Ba0 F14 2.769034 1_555
Ba0 F22 2.769833 1_555
Ba0 F1 2.788764 1_555
Ba0 F24 2.920626 1_565
Ba0 F12 2.954922 1_565
Ba0 F9 2.968206 1_555
Ba0 F3 3.007490 1_555
Ba1 F7 2.661359 1_545
Ba1 F13 2.761605 1_554
Ba1 F15 2.769034 1_654
Ba1 F20 2.769833 1_655
Ba1 F26 2.788764 1_555
Ba1 F25 2.920626 1_545
Ba1 F6 2.954922 1_544
Ba1 F2 2.968206 1_554
Ba1 F27 3.007490 1_555
Ba2 F14 2.661359 1_545
Ba2 F22 2.761605 1_555
Ba2 F4 2.769034 1_555
Ba2 F18 2.769833 1_555
Ba2 F19 2.788764 1_555
Ba2 F5 2.920626 1_545
Ba2 F21 2.954922 1_545
Ba2 F27 2.968206 1_555
Ba2 F2 3.007490 1_555
Ba3 F15 2.661359 1_565
Ba3 F20 2.761605 1_556
Ba3 F7 2.769034 1_456
Ba3 F13 2.769833 1_455
Ba3 F8 2.788764 1_555
Ba3 F23 2.920626 1_565
Ba3 F16 2.954922 1_566
Ba3 F3 2.968206 1_556
Ba3 F9 3.007490 1_555
Bi0 F14 2.234627 1_555
Bi0 F11 2.248641 1_565
Bi0 F2 2.314155 1_555
Bi0 F25 2.336002 1_556
Bi0 F8 2.337608 1_555
Bi0 F6 2.366835 1_555
Bi1 F4 2.234627 1_555
Bi1 F0 2.248641 1_545
Bi1 F3 2.314155 1_555
Bi1 F23 2.336002 1_554
Bi1 F26 2.337608 1_555
Bi1 F16 2.366835 1_555
Bi2 F7 2.234627 1_555
Bi2 F17 2.248641 1_565
Bi2 F27 2.314155 1_555
Bi2 F5 2.336002 1_555
Bi2 F1 2.337608 1_655
Bi2 F21 2.366835 1_555
Bi3 F15 2.234627 1_555
Bi3 F10 2.248641 1_545
Bi3 F9 2.314155 1_555
Bi3 F24 2.336002 1_555
Bi3 F19 2.337608 1_455
Bi3 F12 2.366835 1_555
F0 Mg3 2.000102 1_555
F1 Mg2 2.031104 1_555
F2 Mg1 2.050878 1_555
F3 Mg2 2.050878 1_555
F5 Mg1 2.038039 1_555
F6 Mg1 2.035983 1_555
F8 Mg0 2.031104 1_555
F9 Mg0 2.050878 1_555
F10 Mg1 2.000102 1_455
F11 Mg0 2.000102 1_555
F12 Mg0 2.035983 1_555
F13 Mg1 1.977547 1_555
F16 Mg2 2.035983 1_555
F17 Mg2 2.000102 1_655
F18 Mg0 1.977547 1_555
F19 Mg1 2.031104 1_555
F20 Mg2 1.977547 1_555
F21 Mg3 2.035983 1_555
F22 Mg3 1.977547 1_555
F23 Mg0 2.038039 1_555
F24 Mg2 2.038039 1_555
F25 Mg3 2.038039 1_555
F26 Mg3 2.031104 1_555
F27 Mg3 2.050878 1_555
