# generated using pymatgen
data_Y4V6O21
_symmetry_space_group_name_H-M   'P 1'
_cell_length_a   7.16368257
_cell_length_b   7.16368257
_cell_length_c   17.43026452
_cell_angle_alpha   89.82379520
_cell_angle_beta   89.82379520
_cell_angle_gamma   59.64978283
_symmetry_Int_Tables_number   1
_chemical_formula_structural   Y4V6O21
_chemical_formula_sum   'Y8 V12 O42'
_cell_volume   771.90005344
_cell_formula_units_Z   2
loop_
 _symmetry_equiv_pos_site_id
 _symmetry_equiv_pos_as_xyz
  1  'x, y, z'
loop_
 _atom_site_type_symbol
 _atom_site_label
 _atom_site_symmetry_multiplicity
 _atom_site_fract_x
 _atom_site_fract_y
 _atom_site_fract_z
 _atom_site_occupancy
  Y  Y0  1  0.50000000  0.50000000  0.50000000  1
  Y  Y1  1  0.83394500  0.33276900  0.68256500  1
  Y  Y2  1  0.50000000  0.00000000  0.00000000  1
  Y  Y3  1  0.16605500  0.66723100  0.31743500  1
  Y  Y4  1  0.33276900  0.83394500  0.68256500  1
  Y  Y5  1  0.00000000  0.50000000  0.00000000  1
  Y  Y6  1  0.66723100  0.16605500  0.31743500  1
  Y  Y7  1  0.00000000  0.00000000  0.00000000  1
  V  V0  1  0.14861100  0.65910800  0.83249400  1
  V  V1  1  0.85138900  0.34089200  0.16750600  1
  V  V2  1  0.50000000  0.00000000  0.50000000  1
  V  V3  1  0.65910800  0.14861100  0.83249400  1
  V  V4  1  0.34089200  0.85138900  0.16750600  1
  V  V5  1  0.00000000  0.50000000  0.50000000  1
  V  V6  1  0.83059500  0.83059500  0.66315500  1
  V  V7  1  0.50000000  0.50000000  0.00000000  1
  V  V8  1  0.16940500  0.16940500  0.33684500  1
  V  V9  1  0.65382400  0.65382400  0.83429800  1
  V  V10  1  0.34617600  0.34617600  0.16570200  1
  V  V11  1  0.00000000  0.00000000  0.50000000  1
  O  O0  1  0.96200000  0.58242100  0.85926200  1
  O  O1  1  0.61923800  0.24596300  0.18640200  1
  O  O2  1  0.29421200  0.91051300  0.51932100  1
  O  O3  1  0.70798500  0.70798500  0.72989800  1
  O  O4  1  0.36599800  0.36599800  0.05885700  1
  O  O5  1  0.03916600  0.03916600  0.39409800  1
  O  O6  1  0.58242100  0.96200000  0.85926200  1
  O  O7  1  0.24596300  0.61923800  0.18640200  1
  O  O8  1  0.91051300  0.29421200  0.51932100  1
  O  O9  1  0.72033600  0.08734000  0.73133800  1
  O  O10  1  0.36955600  0.75731400  0.05713400  1
  O  O11  1  0.04681800  0.41302900  0.39522700  1
  O  O12  1  0.75403700  0.38076200  0.81359800  1
  O  O13  1  0.41757900  0.03800000  0.14073800  1
  O  O14  1  0.08948700  0.70578800  0.48067900  1
  O  O15  1  0.63400200  0.63400200  0.94114300  1
  O  O16  1  0.29201500  0.29201500  0.27010200  1
  O  O17  1  0.96083400  0.96083400  0.60590200  1
  O  O18  1  0.24268600  0.63044400  0.94286600  1
  O  O19  1  0.91266000  0.27966400  0.26866200  1
  O  O20  1  0.58697100  0.95318200  0.60477300  1
  O  O21  1  0.16459500  0.16459500  0.69185300  1
  O  O22  1  0.83283400  0.83283400  0.03363500  1
  O  O23  1  0.47296000  0.47296000  0.37919300  1
  O  O24  1  0.38686400  0.38686400  0.81954400  1
  O  O25  1  0.04451900  0.04451900  0.13823800  1
  O  O26  1  0.70648300  0.70648300  0.48308800  1
  O  O27  1  0.95548100  0.95548100  0.86176200  1
  O  O28  1  0.61313600  0.61313600  0.18045600  1
  O  O29  1  0.29351700  0.29351700  0.51691200  1
  O  O30  1  0.08734000  0.72033600  0.73133800  1
  O  O31  1  0.75731400  0.36955600  0.05713400  1
  O  O32  1  0.41302900  0.04681800  0.39522700  1
  O  O33  1  0.16716600  0.16716600  0.96636500  1
  O  O34  1  0.83540500  0.83540500  0.30814700  1
  O  O35  1  0.52704000  0.52704000  0.62080700  1
  O  O36  1  0.38076200  0.75403700  0.81359800  1
  O  O37  1  0.03800000  0.41757900  0.14073800  1
  O  O38  1  0.70578800  0.08948700  0.48067900  1
  O  O39  1  0.63044400  0.24268600  0.94286600  1
  O  O40  1  0.27966400  0.91266000  0.26866200  1
  O  O41  1  0.95318200  0.58697100  0.60477300  1
loop_
_geom_bond_atom_site_label_1
_geom_bond_atom_site_label_2
_geom_bond_distance
_geom_bond_site_symmetry_2
O0 V0 1.744514 1_655
O0 V9 2.046501 1_555
O0 Y5 2.504635 1_656
O1 V10 1.748030 1_555
O1 V1 2.115383 1_555
O1 Y6 2.336700 1_555
O2 V11 1.898463 1_565
O2 V2 1.910048 1_565
O2 Y0 2.560627 1_555
O2 Y4 2.883662 1_555
O3 V6 1.914001 1_555
O3 V9 1.938014 1_555
O3 Y4 2.505564 1_555
O3 Y1 2.505564 1_555
O4 V10 1.877698 1_555
O4 V7 1.953095 1_555
O4 Y5 2.513024 1_555
O4 Y2 2.513024 1_555
O5 V8 1.898693 1_555
O5 V11 1.907346 1_555
O5 Y6 2.697757 1_455
O5 Y3 2.697757 1_545
O6 V3 1.744514 1_565
O6 V9 2.046501 1_555
O6 Y2 2.504635 1_566
O7 V10 1.748030 1_555
O7 V4 2.115383 1_555
O7 Y3 2.336700 1_555
O8 V11 1.898463 1_655
O8 V5 1.910048 1_655
O8 Y0 2.560627 1_555
O8 Y1 2.883662 1_555
O9 V3 1.816392 1_555
O9 V6 1.989639 1_545
O9 Y1 2.430811 1_555
O10 V7 1.878197 1_555
O10 V4 2.015712 1_555
O10 Y7 2.525317 1_565
O10 Y2 2.552019 1_565
O11 V8 1.819123 1_555
O11 V5 1.904679 1_555
O11 Y3 2.726518 1_555
O12 V9 1.748030 1_555
O12 V3 2.115383 1_555
O12 Y1 2.336700 1_555
O13 V4 1.744514 1_545
O13 V10 2.046501 1_555
O13 Y2 2.504635 1_555
O14 V11 1.898463 1_565
O14 V5 1.910048 1_555
O14 Y0 2.560627 1_555
O14 Y3 2.883662 1_555
O15 V9 1.877698 1_555
O15 V7 1.953095 1_556
O15 Y2 2.513024 1_566
O15 Y5 2.513024 1_656
O16 V8 1.914001 1_555
O16 V10 1.938014 1_555
O16 Y6 2.505564 1_555
O16 Y3 2.505564 1_555
O17 V6 1.898693 1_555
O17 V11 1.907346 1_665
O17 Y1 2.697757 1_565
O17 Y4 2.697757 1_655
O18 V7 1.878197 1_556
O18 V0 2.015712 1_555
O18 Y7 2.525317 1_566
O18 Y5 2.552019 1_556
O19 V1 1.816392 1_555
O19 V8 1.989639 1_655
O19 Y6 2.430811 1_555
O20 V6 1.819123 1_555
O20 V2 1.904679 1_565
O20 Y4 2.726518 1_555
O21 Y1 2.050751 1_455
O21 Y4 2.050751 1_545
O22 Y2 2.140460 1_565
O22 Y5 2.140460 1_655
O22 Y7 2.156947 1_665
O23 Y0 2.133529 1_555
O23 Y6 2.200581 1_555
O23 Y3 2.200581 1_555
O24 V3 1.845010 1_555
O24 V0 1.845010 1_555
O25 V4 1.927673 1_545
O25 V1 1.927673 1_455
O25 Y7 2.474160 1_555
O26 V5 1.885233 1_655
O26 V2 1.885233 1_565
O26 Y0 2.582356 1_555
O27 V0 1.927673 1_655
O27 V3 1.927673 1_565
O27 Y7 2.474160 1_666
O28 V1 1.845010 1_555
O28 V4 1.845010 1_555
O29 V2 1.885233 1_555
O29 V5 1.885233 1_555
O29 Y0 2.582356 1_555
O30 V0 1.816392 1_555
O30 V6 1.989639 1_455
O30 Y4 2.430811 1_555
O31 V7 1.878197 1_555
O31 V1 2.015712 1_555
O31 Y7 2.525317 1_655
O31 Y5 2.552019 1_655
O32 V8 1.819123 1_555
O32 V2 1.904679 1_555
O32 Y6 2.726518 1_555
O33 Y2 2.140460 1_556
O33 Y5 2.140460 1_556
O33 Y7 2.156947 1_556
O34 Y6 2.050751 1_565
O34 Y3 2.050751 1_655
O35 Y0 2.133529 1_555
O35 Y1 2.200581 1_555
O35 Y4 2.200581 1_555
O36 V9 1.748030 1_555
O36 V0 2.115383 1_555
O36 Y4 2.336700 1_555
O37 V1 1.744514 1_455
O37 V10 2.046501 1_555
O37 Y5 2.504635 1_555
O38 V11 1.898463 1_655
O38 V2 1.910048 1_555
O38 Y0 2.560627 1_555
O38 Y6 2.883662 1_555
O39 V7 1.878197 1_556
O39 V3 2.015712 1_555
O39 Y7 2.525317 1_656
O39 Y2 2.552019 1_556
O40 V4 1.816392 1_555
O40 V8 1.989639 1_565
O40 Y3 2.430811 1_555
O41 V6 1.819123 1_555
O41 V5 1.904679 1_655
O41 Y1 2.726518 1_555
