# generated using pymatgen
data_NdEu2TaO6
_symmetry_space_group_name_H-M   'P 1'
_cell_length_a   6.07030807
_cell_length_b   6.07030807
_cell_length_c   6.07030807
_cell_angle_alpha   60.00000000
_cell_angle_beta   60.00000000
_cell_angle_gamma   60.00000000
_symmetry_Int_Tables_number   1
_chemical_formula_structural   NdEu2TaO6
_chemical_formula_sum   'Nd1 Eu2 Ta1 O6'
_cell_volume   158.16748126
_cell_formula_units_Z   1
loop_
 _symmetry_equiv_pos_site_id
 _symmetry_equiv_pos_as_xyz
  1  'x, y, z'
loop_
 _atom_site_type_symbol
 _atom_site_label
 _atom_site_symmetry_multiplicity
 _atom_site_fract_x
 _atom_site_fract_y
 _atom_site_fract_z
 _atom_site_occupancy
  Nd  Nd0  1  0.50000000  0.50000000  0.50000000  1
  Eu  Eu0  1  0.25000000  0.25000000  0.25000000  1
  Eu  Eu1  1  0.75000000  0.75000000  0.75000000  1
  Ta  Ta0  1  0.00000000  0.00000000  0.00000000  1
  O  O0  1  0.76767400  0.23232600  0.23232600  1
  O  O1  1  0.23232600  0.76767400  0.76767400  1
  O  O2  1  0.23232600  0.76767400  0.23232600  1
  O  O3  1  0.76767400  0.23232600  0.76767400  1
  O  O4  1  0.23232600  0.23232600  0.76767400  1
  O  O5  1  0.76767400  0.76767400  0.23232600  1
loop_
_geom_bond_atom_site_label_1
_geom_bond_atom_site_label_2
_geom_bond_distance
_geom_bond_site_symmetry_2
Nd0 O5 2.297904 1_555
Nd0 O0 2.297904 1_555
Nd0 O3 2.297904 1_555
Nd0 O2 2.297904 1_555
Nd0 O4 2.297904 1_555
Nd0 O1 2.297904 1_555
Eu0 O4 3.038944 1_554
Eu0 O4 3.038944 1_555
Eu0 O1 3.038944 1_554
Eu0 O5 3.038944 1_455
Eu0 O2 3.038944 1_555
Eu0 O3 3.038944 1_455
Eu0 O1 3.038944 1_545
Eu0 O0 3.038944 1_455
Eu0 O0 3.038944 1_555
Eu0 O3 3.038944 1_554
Eu0 O2 3.038944 1_545
Eu0 O5 3.038944 1_545
Eu1 O4 3.038944 1_655
Eu1 O1 3.038944 1_555
Eu1 O0 3.038944 1_565
Eu1 O5 3.038944 1_555
Eu1 O5 3.038944 1_556
Eu1 O2 3.038944 1_556
Eu1 O2 3.038944 1_655
Eu1 O1 3.038944 1_655
Eu1 O3 3.038944 1_555
Eu1 O4 3.038944 1_565
Eu1 O0 3.038944 1_556
Eu1 O3 3.038944 1_565
O0 Ta0 1.994452 1_655
O1 Ta0 1.994452 1_566
O2 Ta0 1.994452 1_565
O3 Ta0 1.994452 1_656
O4 Ta0 1.994452 1_556
O5 Ta0 1.994452 1_665
