# generated using pymatgen
data_K2IO9
_symmetry_space_group_name_H-M   'P 1'
_cell_length_a   7.61787200
_cell_length_b   7.69035601
_cell_length_c   9.24485146
_cell_angle_alpha   84.49569332
_cell_angle_beta   102.70617201
_cell_angle_gamma   116.31726077
_symmetry_Int_Tables_number   1
_chemical_formula_structural   K2IO9
_chemical_formula_sum   'K4 I2 O18'
_cell_volume   473.57685995
_cell_formula_units_Z   2
loop_
 _symmetry_equiv_pos_site_id
 _symmetry_equiv_pos_as_xyz
  1  'x, y, z'
loop_
 _atom_site_type_symbol
 _atom_site_label
 _atom_site_symmetry_multiplicity
 _atom_site_fract_x
 _atom_site_fract_y
 _atom_site_fract_z
 _atom_site_occupancy
  K  K0  1  0.26477500  0.79788500  0.04417700  1
  K  K1  1  0.73522500  0.20211500  0.95582300  1
  K  K2  1  0.67451000  0.82732100  0.60041800  1
  K  K3  1  0.32549000  0.17267900  0.39958200  1
  I  I0  1  0.76065300  0.69967700  0.15510100  1
  I  I1  1  0.23934700  0.30032300  0.84489900  1
  O  O0  1  0.85831500  0.58169100  0.05719700  1
  O  O1  1  0.14168500  0.41830900  0.94280300  1
  O  O2  1  0.38180500  0.20418700  0.98163300  1
  O  O3  1  0.61819500  0.79581300  0.01836700  1
  O  O4  1  0.97221500  0.89706400  0.25682600  1
  O  O5  1  0.02778500  0.10293600  0.74317400  1
  O  O6  1  0.60394000  0.53975500  0.27675700  1
  O  O7  1  0.39606000  0.46024500  0.72324300  1
  O  O8  1  0.84787800  0.22790000  0.26785200  1
  O  O9  1  0.15212200  0.77210000  0.73214800  1
  O  O10  1  0.54788400  0.99793500  0.31999100  1
  O  O11  1  0.45211600  0.00206500  0.68000900  1
  O  O12  1  0.28486200  0.54764100  0.41525500  1
  O  O13  1  0.71513800  0.45235900  0.58474500  1
  O  O14  1  0.80199200  0.35171300  0.63957000  1
  O  O15  1  0.19800800  0.64828700  0.36043000  1
  O  O16  1  0.74444200  0.13282400  0.37127200  1
  O  O17  1  0.25555800  0.86717600  0.62872800  1
loop_
_geom_bond_atom_site_label_1
_geom_bond_atom_site_label_2
_geom_bond_distance
_geom_bond_site_symmetry_2
K0 O3 2.761717 1_555
K0 O0 2.815509 1_455
K0 O9 2.822571 1_554
K0 O1 2.826625 1_554
K0 O2 2.881403 1_564
K0 O10 2.985193 1_555
K0 O15 3.101676 1_555
K1 O2 2.761717 1_555
K1 O1 2.815509 1_655
K1 O8 2.822571 1_556
K1 O0 2.826625 1_556
K1 O3 2.881403 1_546
K1 O11 2.985193 1_555
K1 O14 3.101676 1_555
K2 O5 2.719070 1_665
K2 O11 2.823883 1_565
K2 O16 2.953502 1_565
K2 O10 2.956808 1_555
K2 O7 2.982113 1_555
K2 O12 3.029420 1_555
K2 O13 3.053375 1_555
K3 O4 2.719070 1_445
K3 O10 2.823883 1_545
K3 O17 2.953502 1_545
K3 O11 2.956808 1_555
K3 O6 2.982113 1_555
K3 O13 3.029420 1_555
K3 O12 3.053375 1_555
I0 O4 1.795547 1_555
I0 O6 1.796142 1_555
I0 O0 1.802315 1_555
I0 O3 1.803020 1_555
I1 O5 1.795547 1_555
I1 O7 1.796142 1_555
I1 O1 1.802315 1_555
I1 O2 1.803020 1_555
O10 O16 1.395607 1_565
O11 O17 1.395607 1_545
O12 O15 1.234928 1_555
O13 O14 1.234928 1_555
O16 O8 1.325170 1_555
O17 O9 1.325170 1_555
