# generated using pymatgen
data_SmGdSe2
_symmetry_space_group_name_H-M   'P 1'
_cell_length_a   7.18327178
_cell_length_b   7.18327178
_cell_length_c   7.18327230
_cell_angle_alpha   33.47490707
_cell_angle_beta   33.47490707
_cell_angle_gamma   33.47490860
_symmetry_Int_Tables_number   1
_chemical_formula_structural   SmGdSe2
_chemical_formula_sum   'Sm1 Gd1 Se2'
_cell_volume   100.42806166
_cell_formula_units_Z   1
loop_
 _symmetry_equiv_pos_site_id
 _symmetry_equiv_pos_as_xyz
  1  'x, y, z'
loop_
 _atom_site_type_symbol
 _atom_site_label
 _atom_site_symmetry_multiplicity
 _atom_site_fract_x
 _atom_site_fract_y
 _atom_site_fract_z
 _atom_site_occupancy
  Sm  Sm0  1  0.50000000  0.50000000  0.50000000  1
  Gd  Gd0  1  0.00000000  0.00000000  -0.00000000  1
  Se  Se0  1  0.25163583  0.25163583  0.25163583  1
  Se  Se1  1  0.74836417  0.74836417  0.74836417  1
loop_
_geom_bond_atom_site_label_1
_geom_bond_atom_site_label_2
_geom_bond_distance
_geom_bond_site_symmetry_2
Gd0 Se0 2.909086 1_455
Gd0 Se0 2.909086 1_545
Gd0 Se1 2.909086 1_454
Gd0 Se1 2.909086 1_544
Gd0 Se1 2.909087 1_445
Gd0 Se0 2.909087 1_554
Se0 Sm0 2.947542 1_545
Se0 Sm0 2.947542 1_455
Se0 Sm0 2.947542 1_554
Se1 Sm0 2.947542 1_655
Se1 Sm0 2.947542 1_565
Se1 Sm0 2.947542 1_556
