# generated using pymatgen
data_Ba2Ti2AlTlO7
_symmetry_space_group_name_H-M   'P 1'
_cell_length_a   3.84082844
_cell_length_b   3.84762645
_cell_length_c   14.58407924
_cell_angle_alpha   93.18656865
_cell_angle_beta   93.17865177
_cell_angle_gamma   87.69914029
_symmetry_Int_Tables_number   1
_chemical_formula_structural   Ba2Ti2AlTlO7
_chemical_formula_sum   'Ba2 Ti2 Al1 Tl1 O7'
_cell_volume   214.71172586
_cell_formula_units_Z   1
loop_
 _symmetry_equiv_pos_site_id
 _symmetry_equiv_pos_as_xyz
  1  'x, y, z'
loop_
 _atom_site_type_symbol
 _atom_site_label
 _atom_site_symmetry_multiplicity
 _atom_site_fract_x
 _atom_site_fract_y
 _atom_site_fract_z
 _atom_site_occupancy
  Ba  Ba0  1  0.51753700  0.52336900  0.17142300  1
  Ba  Ba1  1  0.46618000  0.46520600  0.83153000  1
  Ti  Ti0  1  0.06901700  0.07559000  0.37578700  1
  Ti  Ti1  1  0.93326800  0.92525600  0.62335500  1
  Al  Al0  1  0.49785900  0.49716400  0.50054300  1
  Tl  Tl0  1  0.98886800  0.99098800  0.99961300  1
  O  O0  1  0.02978100  0.03720700  0.25433300  1
  O  O1  1  0.12109100  0.59250100  0.41800000  1
  O  O2  1  0.58456400  0.12489500  0.41757400  1
  O  O3  1  0.41979500  0.87858500  0.58127200  1
  O  O4  1  0.51469500  0.51546100  0.00248700  1
  O  O5  1  0.88873800  0.40950400  0.57925100  1
  O  O6  1  0.96860400  0.96427500  0.74483000  1
loop_
_geom_bond_atom_site_label_1
_geom_bond_atom_site_label_2
_geom_bond_distance
_geom_bond_site_symmetry_2
Ba0 O4 2.461696 1_555
Ba0 O0 2.919602 1_655
Ba0 O0 2.927194 1_565
Ba0 O0 3.004061 1_665
Ba0 O0 3.042160 1_555
Ba1 O4 2.487204 1_556
Ba1 O6 2.940358 1_455
Ba1 O6 2.953440 1_445
Ba1 O6 2.956097 1_545
Ba1 O6 3.138151 1_555
Al0 O2 1.854831 1_555
Al0 O3 1.855140 1_555
Al0 O1 1.868451 1_555
Al0 O5 1.869911 1_555
O0 Ti0 1.767797 1_555
O1 Ti0 1.989388 1_565
O1 Ti0 2.063206 1_555
O2 Ti0 1.988505 1_655
O2 Ti0 2.052261 1_555
O3 Ti1 1.997206 1_455
O3 Ti1 2.044578 1_555
O4 Tl0 2.636428 1_554
O4 Tl0 2.663604 1_544
O4 Tl0 2.670327 1_454
O5 Ti1 2.002489 1_545
O5 Ti1 2.062535 1_555
O6 Ti1 1.767747 1_555
