# generated using pymatgen
data_BaNdMnCoO5
_symmetry_space_group_name_H-M   'P 1'
_cell_length_a   3.98003900
_cell_length_b   3.98003900
_cell_length_c   7.88819000
_cell_angle_alpha   90.00000000
_cell_angle_beta   90.00000000
_cell_angle_gamma   90.00000000
_symmetry_Int_Tables_number   1
_chemical_formula_structural   BaNdMnCoO5
_chemical_formula_sum   'Ba1 Nd1 Mn1 Co1 O5'
_cell_volume   124.95453370
_cell_formula_units_Z   1
loop_
 _symmetry_equiv_pos_site_id
 _symmetry_equiv_pos_as_xyz
  1  'x, y, z'
loop_
 _atom_site_type_symbol
 _atom_site_label
 _atom_site_symmetry_multiplicity
 _atom_site_fract_x
 _atom_site_fract_y
 _atom_site_fract_z
 _atom_site_occupancy
  Ba  Ba0  1  0.00000000  0.00000000  0.99050600  1
  Nd  Nd0  1  0.00000000  0.00000000  0.50613100  1
  Mn  Mn0  1  0.50000000  0.50000000  0.25736800  1
  Co  Co0  1  0.50000000  0.50000000  0.73844800  1
  O  O0  1  0.50000000  0.00000000  0.69224400  1
  O  O1  1  0.00000000  0.50000000  0.69224400  1
  O  O2  1  0.50000000  0.00000000  0.31009200  1
  O  O3  1  0.00000000  0.50000000  0.31009200  1
  O  O4  1  0.50000000  0.50000000  0.00287500  1
loop_
_geom_bond_atom_site_label_1
_geom_bond_atom_site_label_2
_geom_bond_distance
_geom_bond_site_symmetry_2
Ba0 O4 2.816003 1_446
Ba0 O4 2.816003 1_456
Ba0 O4 2.816003 1_556
Ba0 O4 2.816003 1_546
Ba0 O0 3.081493 1_555
Ba0 O1 3.081493 1_555
Ba0 O1 3.081493 1_545
Ba0 O0 3.081493 1_455
Ba0 O3 3.211758 1_556
Ba0 O2 3.211758 1_556
Ba0 O3 3.211758 1_546
Ba0 O2 3.211758 1_456
Nd0 O1 2.472950 1_545
Nd0 O0 2.472950 1_455
Nd0 O0 2.472950 1_555
Nd0 O1 2.472950 1_555
Nd0 O3 2.520220 1_555
Nd0 O2 2.520220 1_555
Nd0 O3 2.520220 1_545
Nd0 O2 2.520220 1_455
Mn0 O4 2.007489 1_555
Mn0 O3 2.033014 1_555
Mn0 O2 2.033014 1_555
Mn0 O2 2.033014 1_565
Mn0 O3 2.033014 1_655
Co0 O0 2.023120 1_565
Co0 O1 2.023120 1_655
Co0 O0 2.023120 1_555
Co0 O1 2.023120 1_555
Co0 O4 2.085850 1_556
