# generated using pymatgen
data_CeCu9Sn4
_symmetry_space_group_name_H-M   'P 1'
_cell_length_a   9.11588363
_cell_length_b   9.11588363
_cell_length_c   8.72208277
_cell_angle_alpha   121.50513196
_cell_angle_beta   121.50513196
_cell_angle_gamma   90.00000000
_symmetry_Int_Tables_number   1
_chemical_formula_structural   CeCu9Sn4
_chemical_formula_sum   'Ce2 Cu18 Sn8'
_cell_volume   488.27531561
_cell_formula_units_Z   2
loop_
 _symmetry_equiv_pos_site_id
 _symmetry_equiv_pos_as_xyz
  1  'x, y, z'
loop_
 _atom_site_type_symbol
 _atom_site_label
 _atom_site_symmetry_multiplicity
 _atom_site_fract_x
 _atom_site_fract_y
 _atom_site_fract_z
 _atom_site_occupancy
  Ce  Ce0  1  0.25000000  0.25000000  0.50000000  1
  Ce  Ce1  1  0.75000000  0.75000000  0.50000000  1
  Cu  Cu0  1  0.32668734  0.82668734  0.27404463  1
  Cu  Cu1  1  0.67331266  0.17331266  0.72595537  1
  Cu  Cu2  1  0.94735729  0.44735729  0.27404463  1
  Cu  Cu3  1  0.44735729  0.32668734  0.27404463  1
  Cu  Cu4  1  0.17331266  0.05264271  0.72595537  1
  Cu  Cu5  1  0.05264271  0.55264271  0.72595537  1
  Cu  Cu6  1  0.55264271  0.67331266  0.72595537  1
  Cu  Cu7  1  0.82668734  0.94735729  0.27404463  1
  Cu  Cu8  1  0.00000000  0.50000000  0.00000000  1
  Cu  Cu9  1  0.50000000  0.00000000  0.00000000  1
  Cu  Cu10  1  0.78633447  0.28633447  0.35955655  1
  Cu  Cu11  1  0.21366553  0.71366553  0.64044345  1
  Cu  Cu12  1  0.57322208  0.07322208  0.35955655  1
  Cu  Cu13  1  0.07322208  0.78633447  0.35955655  1
  Cu  Cu14  1  0.71366553  0.42677792  0.64044345  1
  Cu  Cu15  1  0.42677792  0.92677792  0.64044345  1
  Cu  Cu16  1  0.92677792  0.21366553  0.64044345  1
  Cu  Cu17  1  0.28633447  0.57322208  0.35955655  1
  Sn  Sn0  1  0.04593019  0.21733849  0.00000000  1
  Sn  Sn1  1  0.95406981  0.78266151  0.00000000  1
  Sn  Sn2  1  0.78266151  0.04593019  0.00000000  1
  Sn  Sn3  1  0.45406981  0.71733849  0.00000000  1
  Sn  Sn4  1  0.21733849  0.95406981  0.00000000  1
  Sn  Sn5  1  0.54593019  0.28266151  0.00000000  1
  Sn  Sn6  1  0.71733849  0.54593019  0.00000000  1
  Sn  Sn7  1  0.28266151  0.45406981  0.00000000  1
loop_
_geom_bond_atom_site_label_1
_geom_bond_atom_site_label_2
_geom_bond_distance
_geom_bond_site_symmetry_2
Ce0 Sn6 3.568172 1_556
Ce0 Sn1 3.568172 1_445
Ce0 Sn3 3.568172 1_556
Ce0 Sn2 3.568172 1_455
Ce0 Sn5 3.568172 1_556
Ce0 Sn4 3.568172 1_545
Ce0 Sn0 3.568172 1_555
Ce0 Sn7 3.568172 1_556
Ce0 Cu7 3.571433 1_445
Ce0 Cu6 3.571433 1_555
Ce0 Cu0 3.571433 1_545
Ce0 Cu1 3.571433 1_555
Ce0 Cu5 3.571433 1_555
Ce0 Cu2 3.571433 1_455
Ce0 Cu4 3.571433 1_555
Ce0 Cu3 3.571433 1_555
Ce0 Cu13 3.806327 1_545
Ce0 Cu14 3.806327 1_555
Ce0 Cu11 3.806327 1_555
Ce0 Cu10 3.806327 1_455
Ce0 Cu15 3.806327 1_545
Ce0 Cu12 3.806327 1_555
Ce0 Cu17 3.806327 1_555
Ce0 Cu16 3.806327 1_455
Ce1 Sn0 3.568172 1_666
Ce1 Sn7 3.568172 1_555
Ce1 Sn4 3.568172 1_656
Ce1 Sn5 3.568172 1_555
Ce1 Sn3 3.568172 1_555
Ce1 Sn2 3.568172 1_566
Ce1 Sn1 3.568172 1_556
Ce1 Sn6 3.568172 1_555
Ce1 Cu3 3.571433 1_555
Ce1 Cu4 3.571433 1_665
Ce1 Cu0 3.571433 1_555
Ce1 Cu1 3.571433 1_565
Ce1 Cu5 3.571433 1_655
Ce1 Cu2 3.571433 1_555
Ce1 Cu7 3.571433 1_555
Ce1 Cu6 3.571433 1_555
Ce1 Cu17 3.806327 1_555
Ce1 Cu16 3.806327 1_565
Ce1 Cu10 3.806327 1_555
Ce1 Cu11 3.806327 1_655
Ce1 Cu15 3.806327 1_555
Ce1 Cu12 3.806327 1_565
Ce1 Cu14 3.806327 1_555
Ce1 Cu13 3.806327 1_655
Cu0 Cu15 2.404760 1_555
Cu0 Cu12 2.674694 1_565
Cu0 Sn1 2.814952 1_455
Cu0 Sn7 2.814952 1_555
Cu0 Cu13 2.849237 1_555
Cu0 Cu17 2.849237 1_555
Cu0 Sn3 2.909631 1_555
Cu0 Sn4 2.909631 1_555
Cu0 Cu8 2.927710 1_555
Cu0 Cu1 3.077480 1_565
Cu0 Cu5 3.220465 1_554
Cu1 Cu12 2.404760 1_555
Cu1 Cu15 2.674694 1_545
Cu1 Sn6 2.814952 1_556
Cu1 Sn0 2.814952 1_656
Cu1 Cu14 2.849237 1_555
Cu1 Cu16 2.849237 1_555
Cu1 Sn2 2.909631 1_556
Cu1 Sn5 2.909631 1_556
Cu1 Cu8 2.927710 1_656
Cu1 Cu2 3.220465 1_556
Cu2 Sn6 2.814952 1_555
Cu2 Sn0 2.814952 1_655
Cu2 Sn2 2.909631 1_555
Cu2 Sn5 2.909631 1_555
Cu2 Cu8 2.927710 1_655
Cu2 Cu5 3.077480 1_655
Cu3 Sn4 2.814952 1_545
Cu3 Sn5 2.814952 1_555
Cu3 Sn0 2.909631 1_555
Cu3 Sn7 2.909631 1_555
Cu3 Cu9 2.927710 1_555
Cu3 Cu6 3.077480 1_555
Cu3 Cu4 3.220465 1_554
Cu4 Sn5 2.814952 1_556
Cu4 Sn4 2.814952 1_546
Cu4 Sn7 2.909631 1_556
Cu4 Sn0 2.909631 1_556
Cu4 Cu9 2.927710 1_556
Cu4 Cu7 3.077480 1_445
Cu5 Sn7 2.814952 1_556
Cu5 Sn1 2.814952 1_456
Cu5 Sn3 2.909631 1_556
Cu5 Sn4 2.909631 1_556
Cu5 Cu8 2.927710 1_556
Cu6 Sn2 2.814952 1_566
Cu6 Sn3 2.814952 1_556
Cu6 Sn1 2.909631 1_556
Cu6 Sn6 2.909631 1_556
Cu6 Cu9 2.927710 1_566
Cu6 Cu7 3.220465 1_556
Cu7 Sn3 2.814952 1_555
Cu7 Sn2 2.814952 1_565
Cu7 Sn6 2.909631 1_555
Cu7 Sn1 2.909631 1_555
Cu7 Cu9 2.927710 1_565
Cu8 Sn1 2.610505 1_455
Cu8 Sn6 2.610505 1_455
Cu8 Sn7 2.610505 1_555
Cu8 Sn0 2.610505 1_555
Cu9 Sn3 2.610505 1_545
Cu9 Sn2 2.610505 1_555
Cu9 Sn4 2.610505 1_545
Cu9 Sn5 2.610505 1_555
Cu10 Cu5 2.404760 1_655
Cu10 Cu9 2.520017 1_555
Cu10 Cu14 2.549128 1_555
Cu10 Cu16 2.549128 1_555
Cu10 Cu2 2.674694 1_555
Cu10 Sn2 2.710356 1_555
Cu10 Sn5 2.710356 1_555
Cu10 Cu12 2.747404 1_555
Cu10 Cu3 2.849237 1_555
Cu10 Cu7 2.849237 1_545
Cu11 Cu2 2.404760 1_455
Cu11 Cu9 2.520017 1_566
Cu11 Cu13 2.549128 1_555
Cu11 Cu17 2.549128 1_555
Cu11 Cu5 2.674694 1_555
Cu11 Sn3 2.710356 1_556
Cu11 Sn4 2.710356 1_556
Cu11 Cu15 2.747404 1_555
Cu11 Cu6 2.849237 1_555
Cu11 Cu4 2.849237 1_565
Cu12 Cu9 2.520017 1_555
Cu12 Cu14 2.549128 1_555
Cu12 Cu16 2.549128 1_555
Cu12 Sn3 2.710356 1_545
Cu12 Sn4 2.710356 1_545
Cu12 Cu3 2.849237 1_555
Cu12 Cu7 2.849237 1_545
Cu13 Cu4 2.404760 1_565
Cu13 Cu8 2.520017 1_555
Cu13 Cu15 2.549128 1_555
Cu13 Cu7 2.674694 1_455
Cu13 Sn6 2.710356 1_455
Cu13 Sn1 2.710356 1_455
Cu13 Cu17 2.747404 1_555
Cu13 Cu2 2.849237 1_455
Cu14 Cu3 2.404760 1_555
Cu14 Cu8 2.520017 1_656
Cu14 Cu6 2.674694 1_555
Cu14 Sn1 2.710356 1_556
Cu14 Sn6 2.710356 1_556
Cu14 Cu16 2.747404 1_555
Cu14 Cu5 2.849237 1_655
Cu15 Cu9 2.520017 1_566
Cu15 Cu17 2.549128 1_555
Cu15 Sn2 2.710356 1_566
Cu15 Sn5 2.710356 1_566
Cu15 Cu6 2.849237 1_555
Cu15 Cu4 2.849237 1_565
Cu16 Cu7 2.404760 1_545
Cu16 Cu8 2.520017 1_656
Cu16 Cu4 2.674694 1_655
Cu16 Sn7 2.710356 1_656
Cu16 Sn0 2.710356 1_656
Cu16 Cu5 2.849237 1_655
Cu17 Cu6 2.404760 1_555
Cu17 Cu8 2.520017 1_555
Cu17 Cu3 2.674694 1_555
Cu17 Sn0 2.710356 1_555
Cu17 Sn7 2.710356 1_555
Cu17 Cu2 2.849237 1_455
Sn0 Sn4 2.863769 1_545
Sn0 Sn2 2.863769 1_455
Sn0 Sn7 3.051894 1_555
Sn1 Sn4 2.863769 1_655
Sn1 Sn2 2.863769 1_565
Sn1 Sn6 3.051894 1_555
Sn2 Sn5 3.051894 1_555
Sn3 Sn7 2.863769 1_555
Sn3 Sn6 2.863769 1_555
Sn3 Sn4 3.051894 1_555
Sn5 Sn6 2.863769 1_555
Sn5 Sn7 2.863769 1_555
