# generated using pymatgen
data_SrBiBr5O8
_symmetry_space_group_name_H-M   'P 1'
_cell_length_a   9.44846900
_cell_length_b   12.83358400
_cell_length_c   16.03507900
_cell_angle_alpha   90.00000000
_cell_angle_beta   90.00000000
_cell_angle_gamma   90.00000000
_symmetry_Int_Tables_number   1
_chemical_formula_structural   SrBiBr5O8
_chemical_formula_sum   'Sr4 Bi4 Br20 O32'
_cell_volume   1944.37712891
_cell_formula_units_Z   4
loop_
 _symmetry_equiv_pos_site_id
 _symmetry_equiv_pos_as_xyz
  1  'x, y, z'
loop_
 _atom_site_type_symbol
 _atom_site_label
 _atom_site_symmetry_multiplicity
 _atom_site_fract_x
 _atom_site_fract_y
 _atom_site_fract_z
 _atom_site_occupancy
  Sr  Sr0  1  0.50000000  0.12682900  0.88025100  1
  Sr  Sr1  1  0.50000000  0.87317100  0.11974900  1
  Sr  Sr2  1  0.50000000  0.37317100  0.38025100  1
  Sr  Sr3  1  0.50000000  0.62682900  0.61974900  1
  Bi  Bi0  1  0.00000000  0.18571900  0.48779500  1
  Bi  Bi1  1  0.00000000  0.81428100  0.51220500  1
  Bi  Bi2  1  0.00000000  0.31428100  0.98779500  1
  Bi  Bi3  1  0.00000000  0.68571900  0.01220500  1
  Br  Br0  1  0.00000000  0.99691500  0.61913500  1
  Br  Br1  1  0.00000000  0.00308500  0.38086500  1
  Br  Br2  1  0.00000000  0.50308500  0.11913500  1
  Br  Br3  1  0.00000000  0.49691500  0.88086500  1
  Br  Br4  1  0.69799300  0.21968600  0.50549600  1
  Br  Br5  1  0.69799300  0.78031400  0.49450400  1
  Br  Br6  1  0.30200700  0.28031400  0.00549600  1
  Br  Br7  1  0.30200700  0.71968600  0.99450400  1
  Br  Br8  1  0.30200700  0.78031400  0.49450400  1
  Br  Br9  1  0.30200700  0.21968600  0.50549600  1
  Br  Br10  1  0.69799300  0.71968600  0.99450400  1
  Br  Br11  1  0.69799300  0.28031400  0.00549600  1
  Br  Br12  1  0.00000000  0.30612700  0.63257500  1
  Br  Br13  1  0.00000000  0.69387300  0.36742500  1
  Br  Br14  1  0.00000000  0.19387300  0.13257500  1
  Br  Br15  1  0.00000000  0.80612700  0.86742500  1
  Br  Br16  1  0.00000000  0.34304800  0.37602200  1
  Br  Br17  1  0.00000000  0.65695200  0.62397800  1
  Br  Br18  1  0.00000000  0.15695200  0.87602200  1
  Br  Br19  1  0.00000000  0.84304800  0.12397800  1
  O  O0  1  0.64562900  0.99556400  0.95986800  1
  O  O1  1  0.64562900  0.00443600  0.04013200  1
  O  O2  1  0.35437100  0.50443600  0.45986800  1
  O  O3  1  0.35437100  0.49556400  0.54013200  1
  O  O4  1  0.35437100  0.00443600  0.04013200  1
  O  O5  1  0.35437100  0.99556400  0.95986800  1
  O  O6  1  0.64562900  0.49556400  0.54013200  1
  O  O7  1  0.64562900  0.50443600  0.45986800  1
  O  O8  1  0.50000000  0.28829200  0.95145000  1
  O  O9  1  0.50000000  0.71170800  0.04855000  1
  O  O10  1  0.50000000  0.21170800  0.45145000  1
  O  O11  1  0.50000000  0.78829200  0.54855000  1
  O  O12  1  0.50000000  0.00801100  0.53790300  1
  O  O13  1  0.50000000  0.99198900  0.46209700  1
  O  O14  1  0.50000000  0.49198900  0.03790300  1
  O  O15  1  0.50000000  0.50801100  0.96209700  1
  O  O16  1  0.67472400  0.16951100  0.74925200  1
  O  O17  1  0.67472400  0.83048900  0.25074800  1
  O  O18  1  0.32527600  0.33048900  0.24925200  1
  O  O19  1  0.32527600  0.66951100  0.75074800  1
  O  O20  1  0.32527600  0.83048900  0.25074800  1
  O  O21  1  0.32527600  0.16951100  0.74925200  1
  O  O22  1  0.67472400  0.66951100  0.75074800  1
  O  O23  1  0.67472400  0.33048900  0.24925200  1
  O  O24  1  0.71472900  0.75930100  0.76847500  1
  O  O25  1  0.71472900  0.24069900  0.23152500  1
  O  O26  1  0.28527100  0.74069900  0.26847500  1
  O  O27  1  0.28527100  0.25930100  0.73152500  1
  O  O28  1  0.28527100  0.24069900  0.23152500  1
  O  O29  1  0.28527100  0.75930100  0.76847500  1
  O  O30  1  0.71472900  0.25930100  0.73152500  1
  O  O31  1  0.71472900  0.74069900  0.26847500  1
loop_
_geom_bond_atom_site_label_1
_geom_bond_atom_site_label_2
_geom_bond_distance
_geom_bond_site_symmetry_2
Bi0 Br16 2.699823 1_555
Bi0 Br12 2.788814 1_555
Bi0 Br9 2.900530 1_555
Bi0 Br4 2.900530 1_455
Bi0 Br1 2.904064 1_555
Bi0 Br0 3.210377 1_545
Bi1 Br17 2.699823 1_555
Bi1 Br13 2.788814 1_555
Bi1 Br8 2.900530 1_555
Bi1 Br5 2.900530 1_455
Bi1 Br0 2.904064 1_555
Bi1 Br1 3.210377 1_565
Bi2 Br18 2.699823 1_555
Bi2 Br14 2.788814 1_556
Bi2 Br6 2.900530 1_556
Bi2 Br11 2.900530 1_456
Bi2 Br3 2.904064 1_555
Bi2 Br2 3.210377 1_556
Bi3 Br19 2.699823 1_555
Bi3 Br15 2.788814 1_554
Bi3 Br7 2.900530 1_554
Bi3 Br10 2.900530 1_454
Bi3 Br2 2.904064 1_555
Bi3 Br3 3.210377 1_554
Br4 O10 2.064259 1_555
Br5 O11 2.064259 1_555
Br6 O8 2.064259 1_554
Br7 O9 2.064259 1_556
Br8 O11 2.064259 1_555
Br9 O10 2.064259 1_555
Br10 O9 2.064259 1_556
Br11 O8 2.064259 1_554
O0 O1 1.292066 1_566
O0 Sr0 2.522112 1_565
O1 Sr1 2.522112 1_545
O2 O3 1.292066 1_555
O2 Sr2 2.522112 1_555
O3 Sr3 2.522112 1_555
O4 O5 1.292066 1_544
O4 Sr1 2.522112 1_545
O5 Sr0 2.522112 1_565
O6 O7 1.292066 1_555
O6 Sr3 2.522112 1_555
O7 Sr2 2.522112 1_555
O8 Sr0 2.365848 1_555
O9 Sr1 2.365848 1_555
O10 Sr2 2.365848 1_555
O11 Sr3 2.365848 1_555
O12 O13 1.232824 1_545
O14 O15 1.232824 1_554
O16 O30 1.245605 1_555
O16 Sr0 2.727245 1_555
O17 O31 1.245605 1_555
O17 Sr1 2.727245 1_555
O18 O28 1.245605 1_555
O18 Sr2 2.727245 1_555
O19 O29 1.245605 1_555
O19 Sr3 2.727245 1_555
O20 O26 1.245605 1_555
O20 Sr1 2.727245 1_555
O21 O27 1.245605 1_555
O21 Sr0 2.727245 1_555
O22 O24 1.245605 1_555
O22 Sr3 2.727245 1_555
O23 O25 1.245605 1_555
O23 Sr2 2.727245 1_555
