# generated using pymatgen
data_YMn3F15
_symmetry_space_group_name_H-M   'P 1'
_cell_length_a   11.60468900
_cell_length_b   6.08416300
_cell_length_c   9.16766630
_cell_angle_alpha   75.37619829
_cell_angle_beta   90.00000000
_cell_angle_gamma   90.00000000
_symmetry_Int_Tables_number   1
_chemical_formula_structural   YMn3F15
_chemical_formula_sum   'Y2 Mn6 F30'
_cell_volume   626.31233608
_cell_formula_units_Z   2
loop_
 _symmetry_equiv_pos_site_id
 _symmetry_equiv_pos_as_xyz
  1  'x, y, z'
loop_
 _atom_site_type_symbol
 _atom_site_label
 _atom_site_symmetry_multiplicity
 _atom_site_fract_x
 _atom_site_fract_y
 _atom_site_fract_z
 _atom_site_occupancy
  Y  Y0  1  0.75000000  0.47281500  0.74416100  1
  Y  Y1  1  0.25000000  0.52718500  0.25583900  1
  Mn  Mn0  1  0.50000000  0.00000000  0.50000000  1
  Mn  Mn1  1  0.49852500  0.01370900  0.16560300  1
  Mn  Mn2  1  0.50147500  0.98629100  0.83439700  1
  Mn  Mn3  1  0.00000000  0.00000000  0.50000000  1
  Mn  Mn4  1  0.00147500  0.01370900  0.16560300  1
  Mn  Mn5  1  0.99852500  0.98629100  0.83439700  1
  F  F0  1  0.75000000  0.65405600  0.52598500  1
  F  F1  1  0.75000000  0.64433300  0.22942200  1
  F  F2  1  0.75000000  0.66249000  0.89770100  1
  F  F3  1  0.25000000  0.34594400  0.47401500  1
  F  F4  1  0.25000000  0.33751000  0.10229900  1
  F  F5  1  0.25000000  0.35566700  0.77057800  1
  F  F6  1  0.41666700  0.10703600  0.64627800  1
  F  F7  1  0.41128300  0.13327800  0.32260400  1
  F  F8  1  0.41542300  0.11629900  0.97616500  1
  F  F9  1  0.58333300  0.89296400  0.35372200  1
  F  F10  1  0.58457700  0.88370100  0.02383500  1
  F  F11  1  0.58871700  0.86672200  0.67739600  1
  F  F12  1  0.08708800  0.75078500  0.53333700  1
  F  F13  1  0.10069600  0.75569800  0.21162800  1
  F  F14  1  0.08395800  0.74104400  0.87853300  1
  F  F15  1  0.91291200  0.24921500  0.46666300  1
  F  F16  1  0.91604200  0.25895600  0.12146700  1
  F  F17  1  0.89930400  0.24430200  0.78837200  1
  F  F18  1  0.58708800  0.24921500  0.46666300  1
  F  F19  1  0.58395800  0.25895600  0.12146700  1
  F  F20  1  0.60069600  0.24430200  0.78837200  1
  F  F21  1  0.41291200  0.75078500  0.53333700  1
  F  F22  1  0.39930400  0.75569800  0.21162800  1
  F  F23  1  0.41604200  0.74104400  0.87853300  1
  F  F24  1  0.08333300  0.10703600  0.64627800  1
  F  F25  1  0.08871700  0.13327800  0.32260400  1
  F  F26  1  0.08457700  0.11629900  0.97616500  1
  F  F27  1  0.91666700  0.89296400  0.35372200  1
  F  F28  1  0.91542300  0.88370100  0.02383500  1
  F  F29  1  0.91128300  0.86672200  0.67739600  1
loop_
_geom_bond_atom_site_label_1
_geom_bond_atom_site_label_2
_geom_bond_distance
_geom_bond_site_symmetry_2
F0 Y0 2.025565 1_555
F2 Y0 2.033057 1_555
F3 Y1 2.025565 1_555
F4 Y1 2.033057 1_555
F6 Mn0 1.897001 1_555
F6 Mn2 1.960312 1_545
F7 Mn0 1.922617 1_555
F7 Mn1 2.038285 1_555
F8 Mn1 1.946379 1_556
F8 Mn2 1.957333 1_545
F9 Mn0 1.897001 1_565
F9 Mn1 1.960312 1_565
F10 Mn2 1.946379 1_554
F10 Mn1 1.957333 1_565
F11 Mn0 1.922617 1_565
F11 Mn2 2.038285 1_555
F12 Mn3 1.783211 1_565
F13 Mn4 1.906196 1_565
F13 Y1 2.194241 1_555
F14 Mn5 1.751631 1_455
F15 Mn3 1.783211 1_655
F16 Mn4 1.751631 1_655
F17 Mn5 1.906196 1_545
F17 Y0 2.194241 1_555
F18 Mn0 1.783211 1_555
F19 Mn1 1.751631 1_555
F20 Mn2 1.906196 1_545
F20 Y0 2.194241 1_555
F21 Mn0 1.783211 1_565
F22 Mn1 1.906196 1_565
F22 Y1 2.194241 1_555
F23 Mn2 1.751631 1_555
F24 Mn3 1.897001 1_555
F24 Mn5 1.960312 1_445
F25 Mn3 1.922617 1_555
F25 Mn4 2.038285 1_555
F26 Mn4 1.946379 1_556
F26 Mn5 1.957333 1_445
F27 Mn3 1.897001 1_665
F27 Mn4 1.960312 1_665
F28 Mn5 1.946379 1_554
F28 Mn4 1.957333 1_665
F29 Mn3 1.922617 1_665
F29 Mn5 2.038285 1_555
