# generated using pymatgen
data_CaC2
_symmetry_space_group_name_H-M   'P 1'
_cell_length_a   4.45115955
_cell_length_b   4.45115955
_cell_length_c   7.39077495
_cell_angle_alpha   76.55890996
_cell_angle_beta   76.55890996
_cell_angle_gamma   56.67137655
_symmetry_Int_Tables_number   1
_chemical_formula_structural   CaC2
_chemical_formula_sum   'Ca2 C4'
_cell_volume   118.00529501
_cell_formula_units_Z   2
loop_
 _symmetry_equiv_pos_site_id
 _symmetry_equiv_pos_as_xyz
  1  'x, y, z'
loop_
 _atom_site_type_symbol
 _atom_site_label
 _atom_site_symmetry_multiplicity
 _atom_site_fract_x
 _atom_site_fract_y
 _atom_site_fract_z
 _atom_site_occupancy
  Ca  Ca0  1  0.69397900  0.69397900  0.72081300  1
  Ca  Ca1  1  0.30602100  0.30602100  0.27918700  1
  C  C0  1  0.42716500  0.42716500  0.57111800  1
  C  C1  1  0.57283500  0.57283500  0.42888200  1
  C  C2  1  0.03198200  0.03198200  0.57473400  1
  C  C3  1  0.96801800  0.96801800  0.42526600  1
loop_
_geom_bond_atom_site_label_1
_geom_bond_atom_site_label_2
_geom_bond_distance
_geom_bond_site_symmetry_2
C0 C1 1.331982 1_555
C0 Ca1 2.576438 1_555
C0 Ca0 2.610862 1_555
C0 Ca0 2.821044 1_545
C0 Ca0 2.821044 1_455
C1 Ca0 2.576438 1_555
C1 Ca1 2.610862 1_555
C1 Ca1 2.821044 1_655
C1 Ca1 2.821044 1_565
C2 C3 1.328143 1_445
C2 Ca0 2.582592 1_445
C2 Ca1 2.627685 1_555
C2 Ca0 2.822080 1_545
C2 Ca0 2.822080 1_455
C3 Ca1 2.582592 1_665
C3 Ca0 2.627685 1_555
C3 Ca1 2.822080 1_655
C3 Ca1 2.822080 1_565
