# generated using pymatgen
data_Li3MnCoO5
_symmetry_space_group_name_H-M   'P 1'
_cell_length_a   3.02759700
_cell_length_b   5.08140282
_cell_length_c   12.40311788
_cell_angle_alpha   100.73363916
_cell_angle_beta   87.87144722
_cell_angle_gamma   103.01952393
_symmetry_Int_Tables_number   1
_chemical_formula_structural   Li3MnCoO5
_chemical_formula_sum   'Li6 Mn2 Co2 O10'
_cell_volume   182.65474773
_cell_formula_units_Z   2
loop_
 _symmetry_equiv_pos_site_id
 _symmetry_equiv_pos_as_xyz
  1  'x, y, z'
loop_
 _atom_site_type_symbol
 _atom_site_label
 _atom_site_symmetry_multiplicity
 _atom_site_fract_x
 _atom_site_fract_y
 _atom_site_fract_z
 _atom_site_occupancy
  Li  Li0  1  0.60350700  0.19857900  0.20261000  1
  Li  Li1  1  0.20094500  0.39381400  0.39954200  1
  Li  Li2  1  0.79905500  0.60618600  0.60045800  1
  Li  Li3  1  0.39649300  0.80142100  0.79739000  1
  Li  Li4  1  0.00000000  0.00000000  0.00000000  1
  Li  Li5  1  0.50000000  0.00000000  0.50000000  1
  Mn  Mn0  1  0.30409300  0.60239400  0.10300400  1
  Mn  Mn1  1  0.69590700  0.39760600  0.89699600  1
  Co  Co0  1  0.91068800  0.80950800  0.31042100  1
  Co  Co1  1  0.08931200  0.19049200  0.68957900  1
  O  O0  1  0.96587900  0.88479800  0.16097400  1
  O  O1  1  0.55859100  0.07254500  0.34713800  1
  O  O2  1  0.15397400  0.29951100  0.56447800  1
  O  O3  1  0.76241700  0.47866200  0.75102900  1
  O  O4  1  0.37348800  0.69085500  0.95462800  1
  O  O5  1  0.23758300  0.52133800  0.24897100  1
  O  O6  1  0.84602600  0.70048900  0.43552200  1
  O  O7  1  0.44140900  0.92745500  0.65286200  1
  O  O8  1  0.03412100  0.11520200  0.83902600  1
  O  O9  1  0.62651200  0.30914500  0.04537200  1
loop_
_geom_bond_atom_site_label_1
_geom_bond_atom_site_label_2
_geom_bond_distance
_geom_bond_site_symmetry_2
Li0 O1 2.003080 1_555
Li0 O0 2.109975 1_545
Li0 O9 2.122348 1_555
Li0 O5 2.160536 1_555
Li0 O0 2.217248 1_445
Li0 O5 2.240076 1_655
Li1 O6 2.059625 1_455
Li1 O5 2.079171 1_555
Li1 O1 2.146840 1_555
Li1 O2 2.178911 1_555
Li1 O6 2.208249 1_555
Li1 O1 2.266692 1_455
Li2 O2 2.059625 1_655
Li2 O3 2.079171 1_555
Li2 O7 2.146840 1_555
Li2 O6 2.178911 1_555
Li2 O2 2.208249 1_555
Li2 O7 2.266692 1_655
Li3 O7 2.003080 1_555
Li3 O8 2.109975 1_565
Li3 O4 2.122348 1_555
Li3 O3 2.160536 1_555
Li3 O8 2.217248 1_665
Li3 O3 2.240076 1_455
Li4 O4 2.118212 1_544
Li4 O9 2.118212 1_455
Li4 O8 2.175423 1_554
Li4 O0 2.175423 1_445
Li4 O4 2.188559 1_444
Li4 O9 2.188559 1_555
Li5 O1 1.991966 1_555
Li5 O7 1.991966 1_545
Li5 O6 2.063048 1_545
Li5 O2 2.063048 1_555
Li5 O6 2.276546 1_445
Li5 O2 2.276546 1_655
Mn0 O5 1.923854 1_555
Mn0 O0 1.961581 1_455
Mn0 O4 1.967195 1_554
Mn0 O9 1.972583 1_555
Mn0 O0 2.240075 1_555
Mn0 O9 2.296664 1_455
Mn1 O3 1.923854 1_555
Mn1 O8 1.961581 1_655
Mn1 O9 1.967195 1_556
Mn1 O4 1.972583 1_555
Mn1 O8 2.240075 1_555
Mn1 O4 2.296664 1_655
Co0 O6 1.732498 1_555
Co0 O1 1.873351 1_565
Co0 O0 1.955119 1_555
Co0 O5 1.971256 1_655
Co0 O1 2.121327 1_665
Co0 O5 2.287626 1_555
Co1 O2 1.732498 1_555
Co1 O7 1.873351 1_545
Co1 O8 1.955119 1_555
Co1 O3 1.971256 1_455
Co1 O7 2.121327 1_445
Co1 O3 2.287626 1_555
