# generated using pymatgen
data_Al2OsRh
_symmetry_space_group_name_H-M   'P 1'
_cell_length_a   19.53525157
_cell_length_b   15.22569816
_cell_length_c   15.22569877
_cell_angle_alpha   17.97492001
_cell_angle_beta   50.09456900
_cell_angle_gamma   50.09456763
_symmetry_Int_Tables_number   1
_chemical_formula_structural   Al2OsRh
_chemical_formula_sum   'Al16 Os8 Rh8'
_cell_volume   1062.65473072
_cell_formula_units_Z   8
loop_
 _symmetry_equiv_pos_site_id
 _symmetry_equiv_pos_as_xyz
  1  'x, y, z'
loop_
 _atom_site_type_symbol
 _atom_site_label
 _atom_site_symmetry_multiplicity
 _atom_site_fract_x
 _atom_site_fract_y
 _atom_site_fract_z
 _atom_site_occupancy
  Al  Al0_0  1  0.37567400  1.00000000  0.00000000  1
  Al  Al0_1  1  0.37567400  0.00000000  0.50000000  1
  Al  Al0_2  1  0.37567400  0.50000000  0.00000000  1
  Al  Al0_3  1  0.37567400  0.50000000  0.50000000  1
  Al  Al0_4  1  0.87567400  1.00000000  0.00000000  1
  Al  Al0_5  1  0.87567400  1.00000000  0.50000000  1
  Al  Al0_6  1  0.87567400  0.50000000  0.00000000  1
  Al  Al0_7  1  0.87567400  0.50000000  0.50000000  1
  Al  Al1_0  1  0.12432600  0.00000000  0.00000000  1
  Al  Al1_1  1  0.12432600  0.00000000  0.50000000  1
  Al  Al1_2  1  0.12432600  0.50000000  0.00000000  1
  Al  Al1_3  1  0.12432600  0.50000000  0.50000000  1
  Al  Al1_4  1  0.62432600  0.00000000  1.00000000  1
  Al  Al1_5  1  0.62432600  1.00000000  0.50000000  1
  Al  Al1_6  1  0.62432600  0.50000000  0.00000000  1
  Al  Al1_7  1  0.62432600  0.50000000  0.50000000  1
  Os  Os0_0  1  0.25000000  0.00000000  0.00000000  1
  Os  Os0_1  1  0.25000000  0.00000000  0.50000000  1
  Os  Os0_2  1  0.25000000  0.50000000  0.00000000  1
  Os  Os0_3  1  0.25000000  0.50000000  0.50000000  1
  Os  Os0_4  1  0.75000000  1.00000000  0.00000000  1
  Os  Os0_5  1  0.75000000  1.00000000  0.50000000  1
  Os  Os0_6  1  0.75000000  0.50000000  0.00000000  1
  Os  Os0_7  1  0.75000000  0.50000000  0.50000000  1
  Rh  Rh0_0  1  0.00000000  0.00000000  0.00000000  1
  Rh  Rh0_1  1  0.00000000  0.00000000  0.50000000  1
  Rh  Rh0_2  1  0.00000000  0.50000000  0.00000000  1
  Rh  Rh0_3  1  0.00000000  0.50000000  0.50000000  1
  Rh  Rh0_4  1  0.50000000  0.00000000  0.00000000  1
  Rh  Rh0_5  1  0.50000000  0.00000000  0.50000000  1
  Rh  Rh0_6  1  0.50000000  0.50000000  0.00000000  1
  Rh  Rh0_7  1  0.50000000  0.50000000  0.50000000  1
loop_
_geom_bond_atom_site_label_1
_geom_bond_atom_site_label_2
_geom_bond_distance
_geom_bond_site_symmetry_2
Al0_0 Al0_3 2.378533 1_555
Al0_0 Al0_3 2.378533 1_564
Al0_0 Rh0_4 2.428740 1_565
Al0_0 Os0_0 2.455073 1_565
Al0_1 Al0_2 2.378533 1_555
Al0_1 Al0_2 2.378533 1_546
Al0_1 Rh0_5 2.428740 1_555
Al0_1 Os0_1 2.455073 1_555
Al0_2 Rh0_6 2.428740 1_555
Al0_2 Os0_2 2.455073 1_555
Al0_3 Rh0_7 2.428740 1_555
Al0_3 Os0_3 2.455073 1_555
Al0_4 Al0_7 2.378533 1_564
Al0_4 Al0_7 2.378533 1_555
Al0_4 Rh0_0 2.428740 1_665
Al0_4 Os0_4 2.455073 1_555
Al0_5 Al0_6 2.378533 1_565
Al0_5 Al0_6 2.378533 1_556
Al0_5 Rh0_1 2.428740 1_665
Al0_5 Os0_5 2.455073 1_555
Al0_6 Rh0_2 2.428740 1_655
Al0_6 Os0_6 2.455073 1_555
Al0_7 Rh0_3 2.428740 1_655
Al0_7 Os0_7 2.455073 1_555
Al1_0 Al1_3 2.378533 1_545
Al1_0 Al1_3 2.378533 1_554
Al1_0 Rh0_0 2.428740 1_555
Al1_0 Os0_0 2.455073 1_555
Al1_1 Al1_2 2.378533 1_555
Al1_1 Al1_2 2.378533 1_546
Al1_1 Rh0_1 2.428740 1_555
Al1_1 Os0_1 2.455073 1_555
Al1_2 Rh0_2 2.428740 1_555
Al1_2 Os0_2 2.455073 1_555
Al1_3 Rh0_3 2.428740 1_555
Al1_3 Os0_3 2.455073 1_555
Al1_4 Al1_7 2.378533 1_555
Al1_4 Al1_7 2.378533 1_546
Al1_4 Rh0_4 2.428740 1_556
Al1_4 Os0_4 2.455073 1_546
Al1_5 Al1_6 2.378533 1_565
Al1_5 Al1_6 2.378533 1_556
Al1_5 Rh0_5 2.428740 1_565
Al1_5 Os0_5 2.455073 1_555
Al1_6 Rh0_6 2.428740 1_555
Al1_6 Os0_6 2.455073 1_555
Al1_7 Rh0_7 2.428740 1_555
Al1_7 Os0_7 2.455073 1_555
Os0_0 Os0_3 2.378533 1_545
Os0_0 Os0_3 2.378533 1_554
Os0_1 Os0_2 2.378533 1_555
Os0_1 Os0_2 2.378533 1_546
Os0_4 Os0_7 2.378533 1_555
Os0_4 Os0_7 2.378533 1_564
Os0_5 Os0_6 2.378533 1_565
Os0_5 Os0_6 2.378533 1_556
Rh0_0 Rh0_3 2.378533 1_545
Rh0_0 Rh0_3 2.378533 1_554
Rh0_1 Rh0_2 2.378533 1_555
Rh0_1 Rh0_2 2.378533 1_546
Rh0_4 Rh0_7 2.378533 1_554
Rh0_4 Rh0_7 2.378533 1_545
Rh0_5 Rh0_6 2.378533 1_555
Rh0_5 Rh0_6 2.378533 1_546
