# generated using pymatgen
data_PrYMg6
_symmetry_space_group_name_H-M   'P 1'
_cell_length_a   9.02370452
_cell_length_b   9.02370452
_cell_length_c   9.02370437
_cell_angle_alpha   33.46913223
_cell_angle_beta   33.46913223
_cell_angle_gamma   33.46913207
_symmetry_Int_Tables_number   1
_chemical_formula_structural   PrYMg6
_chemical_formula_sum   'Pr1 Y1 Mg6'
_cell_volume   199.02434794
_cell_formula_units_Z   1
loop_
 _symmetry_equiv_pos_site_id
 _symmetry_equiv_pos_as_xyz
  1  'x, y, z'
loop_
 _atom_site_type_symbol
 _atom_site_label
 _atom_site_symmetry_multiplicity
 _atom_site_fract_x
 _atom_site_fract_y
 _atom_site_fract_z
 _atom_site_occupancy
  Pr  Pr0  1  0.50000000  0.50000000  0.50000000  1
  Y  Y0  1  0.00000000  0.00000000  -0.00000000  1
  Mg  Mg0  1  0.62578259  0.62578259  0.62578259  1
  Mg  Mg1  1  0.12376968  0.12376968  0.12376968  1
  Mg  Mg2  1  0.87623032  0.87623032  0.87623032  1
  Mg  Mg3  1  0.37421741  0.37421741  0.37421741  1
  Mg  Mg4  1  0.25072269  0.25072269  0.25072269  1
  Mg  Mg5  1  0.74927731  0.74927731  0.74927731  1
loop_
_geom_bond_atom_site_label_1
_geom_bond_atom_site_label_2
_geom_bond_distance
_geom_bond_site_symmetry_2
Mg0 Mg5 3.152946 1_555
Mg0 Y0 3.176616 1_656
Mg0 Y0 3.176616 1_566
Mg0 Y0 3.176616 1_665
Mg0 Mg4 3.183749 1_655
Mg0 Mg4 3.183749 1_565
Mg0 Mg4 3.183749 1_556
Mg0 Pr0 3.211358 1_555
Mg1 Y0 3.159966 1_555
Mg1 Mg5 3.178930 1_544
Mg1 Mg5 3.178930 1_454
Mg1 Mg5 3.178930 1_445
Mg1 Pr0 3.193872 1_455
Mg1 Pr0 3.193872 1_545
Mg1 Pr0 3.193872 1_554
Mg1 Mg4 3.241240 1_555
Mg2 Y0 3.159966 1_666
Mg2 Mg4 3.178930 1_566
Mg2 Mg4 3.178930 1_656
Mg2 Mg4 3.178930 1_665
Mg2 Pr0 3.193872 1_655
Mg2 Pr0 3.193872 1_565
Mg2 Pr0 3.193872 1_556
Mg2 Mg5 3.241240 1_555
Mg3 Mg4 3.152946 1_555
Mg3 Y0 3.176616 1_565
Mg3 Y0 3.176616 1_655
Mg3 Y0 3.176616 1_556
Mg3 Mg5 3.183749 1_455
Mg3 Mg5 3.183749 1_545
Mg3 Mg5 3.183749 1_554
Mg3 Pr0 3.211358 1_555
Mg4 Y0 3.667396 1_556
Mg4 Y0 3.667396 1_565
Mg4 Y0 3.667396 1_655
Mg4 Pr0 3.688742 1_554
Mg4 Pr0 3.688742 1_455
Mg4 Pr0 3.688742 1_545
Mg5 Y0 3.667396 1_665
Mg5 Y0 3.667396 1_656
Mg5 Y0 3.667396 1_566
Mg5 Pr0 3.688742 1_556
Mg5 Pr0 3.688742 1_565
Mg5 Pr0 3.688742 1_655
