# generated using pymatgen
data_Zr3Al2
_symmetry_space_group_name_H-M   'P 1'
_cell_length_a   6.98329483
_cell_length_b   7.65357510
_cell_length_c   7.65354846
_cell_angle_alpha   90.00014942
_cell_angle_beta   90.00000000
_cell_angle_gamma   90.00000000
_symmetry_Int_Tables_number   1
_chemical_formula_structural   Zr3Al2
_chemical_formula_sum   'Zr12 Al8'
_cell_volume   409.06051656
_cell_formula_units_Z   4
loop_
 _symmetry_equiv_pos_site_id
 _symmetry_equiv_pos_as_xyz
  1  'x, y, z'
loop_
 _atom_site_type_symbol
 _atom_site_label
 _atom_site_symmetry_multiplicity
 _atom_site_fract_x
 _atom_site_fract_y
 _atom_site_fract_z
 _atom_site_occupancy
  Zr  Zr0  1  0.25000617  -0.00000000  0.50000000  1
  Zr  Zr1  1  0.74999383  -0.00000000  0.50000000  1
  Zr  Zr2  1  0.25000617  0.50000000  0.00000000  1
  Zr  Zr3  1  0.74999383  0.50000000  0.00000000  1
  Zr  Zr4  1  -0.00000000  0.34141840  0.34142040  1
  Zr  Zr5  1  0.50000000  0.15859427  0.84140473  1
  Zr  Zr6  1  0.50000000  0.84140573  0.15859527  1
  Zr  Zr7  1  -0.00000000  0.65858160  0.65857960  1
  Zr  Zr8  1  -0.00000000  0.19719047  0.80281053  1
  Zr  Zr9  1  0.50000000  0.69717022  0.69716822  1
  Zr  Zr10  1  0.50000000  0.30282978  0.30283178  1
  Zr  Zr11  1  -0.00000000  0.80280953  0.19718947  1
  Al  Al0  1  0.21576776  0.12078749  0.12078749  1
  Al  Al1  1  0.71576374  0.37921456  0.62078544  1
  Al  Al2  1  0.71576374  0.62078544  0.37921456  1
  Al  Al3  1  0.21576776  0.87921251  0.87921251  1
  Al  Al4  1  0.28423626  0.62078544  0.37921456  1
  Al  Al5  1  0.28423626  0.37921456  0.62078544  1
  Al  Al6  1  0.78423224  0.12078749  0.12078749  1
  Al  Al7  1  0.78423224  0.87921251  0.87921251  1
loop_
_geom_bond_atom_site_label_1
_geom_bond_atom_site_label_2
_geom_bond_distance
_geom_bond_site_symmetry_2
Al0 Al3 2.614749 1_544
Al0 Zr10 2.796817 1_555
Al0 Zr4 2.823688 1_555
Al0 Zr8 2.921466 1_554
Al0 Zr11 2.921478 1_545
Al0 Zr5 2.931837 1_554
Al0 Zr6 2.931837 1_545
Al0 Al6 3.013540 1_455
Al0 Zr0 3.055367 1_555
Al0 Zr2 3.055376 1_555
Al1 Al2 2.614711 1_555
Al1 Zr8 2.796698 1_655
Al1 Zr5 2.823568 1_555
Al1 Zr10 2.921273 1_555
Al1 Zr9 2.921289 1_555
Al1 Zr4 2.931748 1_655
Al1 Zr7 2.931763 1_655
Al1 Al5 3.013484 1_555
Al1 Zr3 3.055368 1_556
Al1 Zr1 3.055377 1_555
Al2 Zr11 2.796698 1_655
Al2 Zr6 2.823568 1_555
Al2 Zr9 2.921273 1_555
Al2 Zr10 2.921289 1_555
Al2 Zr7 2.931748 1_655
Al2 Zr4 2.931763 1_655
Al2 Al4 3.013484 1_555
Al2 Zr3 3.055368 1_555
Al2 Zr1 3.055377 1_565
Al3 Zr9 2.796817 1_555
Al3 Zr7 2.823688 1_555
Al3 Zr11 2.921466 1_556
Al3 Zr8 2.921478 1_565
Al3 Zr6 2.931837 1_556
Al3 Zr5 2.931837 1_565
Al3 Al7 3.013540 1_455
Al3 Zr0 3.055367 1_565
Al3 Zr2 3.055376 1_556
Al4 Al5 2.614711 1_555
Al4 Zr11 2.796698 1_555
Al4 Zr6 2.823568 1_555
Al4 Zr9 2.921273 1_555
Al4 Zr10 2.921289 1_555
Al4 Zr7 2.931748 1_555
Al4 Zr4 2.931763 1_555
Al4 Zr2 3.055368 1_555
Al4 Zr0 3.055377 1_565
Al5 Zr8 2.796698 1_555
Al5 Zr5 2.823568 1_555
Al5 Zr10 2.921273 1_555
Al5 Zr9 2.921289 1_555
Al5 Zr4 2.931748 1_555
Al5 Zr7 2.931763 1_555
Al5 Zr2 3.055368 1_556
Al5 Zr0 3.055377 1_555
Al6 Al7 2.614749 1_544
Al6 Zr10 2.796817 1_555
Al6 Zr4 2.823688 1_655
Al6 Zr8 2.921466 1_654
Al6 Zr11 2.921478 1_645
Al6 Zr5 2.931837 1_554
Al6 Zr6 2.931837 1_545
Al6 Zr1 3.055367 1_555
Al6 Zr3 3.055376 1_555
Al7 Zr9 2.796817 1_555
Al7 Zr7 2.823688 1_655
Al7 Zr11 2.921466 1_656
Al7 Zr8 2.921478 1_665
Al7 Zr6 2.931837 1_556
Al7 Zr5 2.931837 1_565
Al7 Zr1 3.055367 1_565
Al7 Zr3 3.055376 1_556
