# generated using pymatgen
data_Na3CoPCO7
_symmetry_space_group_name_H-M   'P 1'
_cell_length_a   6.71497913
_cell_length_b   8.93109326
_cell_length_c   10.46139265
_cell_angle_alpha   88.77429338
_cell_angle_beta   90.02638388
_cell_angle_gamma   90.05973702
_symmetry_Int_Tables_number   1
_chemical_formula_structural   Na3CoPCO7
_chemical_formula_sum   'Na12 Co4 P4 C4 O28'
_cell_volume   627.24778007
_cell_formula_units_Z   4
loop_
 _symmetry_equiv_pos_site_id
 _symmetry_equiv_pos_as_xyz
  1  'x, y, z'
loop_
 _atom_site_type_symbol
 _atom_site_label
 _atom_site_symmetry_multiplicity
 _atom_site_fract_x
 _atom_site_fract_y
 _atom_site_fract_z
 _atom_site_occupancy
  Na  Na0  1  0.25055200  0.08150500  0.38629300  1
  Na  Na1  1  0.24985700  0.08148500  0.88602200  1
  Na  Na2  1  0.74953900  0.91827400  0.11524000  1
  Na  Na3  1  0.75021900  0.91749100  0.61275500  1
  Na  Na4  1  0.00578700  0.26920000  0.12732400  1
  Na  Na5  1  0.00636600  0.26931000  0.62631800  1
  Na  Na6  1  0.49417400  0.27047100  0.12757300  1
  Na  Na7  1  0.49370600  0.26867300  0.62583100  1
  Na  Na8  1  0.99412300  0.73149600  0.37415100  1
  Na  Na9  1  0.99320100  0.72981700  0.87267600  1
  Na  Na10  1  0.50619100  0.73041400  0.37276600  1
  Na  Na11  1  0.50665700  0.73006500  0.87414700  1
  Co  Co0  1  0.75020400  0.34814000  0.88847400  1
  Co  Co1  1  0.24650500  0.64746800  0.10996900  1
  Co  Co2  1  0.75267700  0.35368400  0.39062500  1
  Co  Co3  1  0.25320400  0.64699000  0.60976700  1
  P  P0  1  0.24981000  0.41539000  0.35653400  1
  P  P1  1  0.25026200  0.41545900  0.85663000  1
  P  P2  1  0.74996000  0.58516400  0.14305200  1
  P  P3  1  0.74989700  0.58447300  0.64385500  1
  C  C0  1  0.74973500  0.06270300  0.35823300  1
  C  C1  1  0.75005600  0.06182500  0.85773800  1
  C  C2  1  0.25020500  0.93822400  0.14229100  1
  C  C3  1  0.24983700  0.93758800  0.64228600  1
  O  O0  1  0.74995900  0.12421900  0.47030800  1
  O  O1  1  0.75018000  0.12141000  0.97052600  1
  O  O2  1  0.24975500  0.87677800  0.03022000  1
  O  O3  1  0.25030800  0.87617100  0.53013000  1
  O  O4  1  0.24980700  0.08235000  0.15227100  1
  O  O5  1  0.24981100  0.08168700  0.65212000  1
  O  O6  1  0.75032000  0.91850800  0.34853500  1
  O  O7  1  0.75001100  0.91826500  0.84515000  1
  O  O8  1  0.74861400  0.14989600  0.25663600  1
  O  O9  1  0.74995900  0.15234200  0.75805100  1
  O  O10  1  0.25140900  0.85076700  0.24378000  1
  O  O11  1  0.24907900  0.85018400  0.74375900  1
  O  O12  1  0.75141000  0.43425100  0.07345100  1
  O  O13  1  0.74903700  0.43263500  0.57528900  1
  O  O14  1  0.24880100  0.56719000  0.42497900  1
  O  O15  1  0.25013000  0.56692600  0.92556100  1
  O  O16  1  0.25090200  0.44632100  0.20855300  1
  O  O17  1  0.24915100  0.44644800  0.70871800  1
  O  O18  1  0.74921800  0.55367900  0.29109500  1
  O  O19  1  0.74980000  0.55391400  0.79169100  1
  O  O20  1  0.06432900  0.31780800  0.39264600  1
  O  O21  1  0.06482900  0.31801400  0.89271600  1
  O  O22  1  0.43480300  0.31898100  0.39396700  1
  O  O23  1  0.43564600  0.31812100  0.89243500  1
  O  O24  1  0.93541500  0.68323300  0.10763400  1
  O  O25  1  0.93512200  0.68092400  0.60610300  1
  O  O26  1  0.56481700  0.68184200  0.10636400  1
  O  O27  1  0.56465000  0.68182700  0.60676300  1
loop_
_geom_bond_atom_site_label_1
_geom_bond_atom_site_label_2
_geom_bond_distance
_geom_bond_site_symmetry_2
Na0 O3 2.347169 1_545
Na0 O4 2.448049 1_555
Na0 O20 2.456355 1_555
Na0 O22 2.457079 1_555
Na0 O10 2.569222 1_545
Na0 O5 2.780963 1_555
Na1 O2 2.345238 1_546
Na1 O5 2.446903 1_555
Na1 O21 2.454178 1_555
Na1 O23 2.455190 1_555
Na1 O11 2.571747 1_545
Na1 O4 2.785511 1_556
Na2 O1 2.337915 1_564
Na2 O6 2.440639 1_555
Na2 O24 2.446108 1_555
Na2 O26 2.451303 1_555
Na2 O8 2.568711 1_565
Na2 O7 2.825522 1_554
Na3 O0 2.347728 1_565
Na3 O7 2.431334 1_555
Na3 O27 2.446773 1_555
Na3 O25 2.454024 1_555
Na3 O9 2.616526 1_565
Na3 O6 2.763930 1_555
Na4 O12 2.318860 1_455
Na4 O4 2.350440 1_555
Na4 O8 2.425740 1_455
Na4 O16 2.446299 1_555
Na4 O21 2.515100 1_554
Na4 O1 2.732068 1_454
Na4 O20 2.845584 1_555
Na5 O13 2.317247 1_455
Na5 O5 2.353518 1_555
Na5 O9 2.427306 1_455
Na5 O17 2.440379 1_555
Na5 O20 2.504012 1_555
Na5 O0 2.718560 1_455
Na5 O21 2.856677 1_555
Na6 O12 2.324661 1_555
Na6 O4 2.357598 1_555
Na6 O8 2.416880 1_555
Na6 O16 2.432354 1_555
Na6 O23 2.518175 1_554
Na6 O1 2.743663 1_554
Na6 O22 2.857661 1_555
Na7 O13 2.307823 1_555
Na7 O5 2.349848 1_555
Na7 O9 2.427690 1_555
Na7 O17 2.456657 1_555
Na7 O22 2.488939 1_555
Na7 O0 2.714675 1_555
Na7 O23 2.860049 1_555
Na8 O14 2.309058 1_655
Na8 O6 2.351128 1_555
Na8 O10 2.432249 1_655
Na8 O18 2.456374 1_555
Na8 O25 2.490520 1_555
Na8 O3 2.715604 1_655
Na8 O24 2.857442 1_555
Na9 O15 2.317111 1_655
Na9 O7 2.359422 1_555
Na9 O11 2.421369 1_655
Na9 O19 2.430539 1_555
Na9 O24 2.514390 1_556
Na9 O2 2.737179 1_656
Na9 O25 2.858410 1_555
Na10 O14 2.317812 1_555
Na10 O6 2.355858 1_555
Na10 O10 2.417202 1_555
Na10 O18 2.439050 1_555
Na10 O27 2.507749 1_555
Na10 O3 2.730579 1_555
Na10 O26 2.857142 1_555
Na11 O15 2.311174 1_555
Na11 O7 2.358065 1_555
Na11 O11 2.437664 1_555
Na11 O19 2.439166 1_555
Na11 O26 2.488833 1_556
Na11 O2 2.730847 1_556
Na11 O27 2.866102 1_555
Co0 O19 2.079181 1_555
Co0 O12 2.097581 1_556
Co0 O23 2.129230 1_555
Co0 O21 2.130364 1_655
Co0 O1 2.182398 1_555
Co0 O9 2.240891 1_555
Co1 O16 2.052462 1_555
Co1 O15 2.073439 1_554
Co1 O24 2.113623 1_455
Co1 O26 2.159307 1_555
Co1 O2 2.194902 1_555
Co1 O10 2.316449 1_555
Co2 O18 2.048316 1_555
Co2 O13 2.070788 1_555
Co2 O20 2.117481 1_655
Co2 O22 2.156774 1_555
Co2 O0 2.195904 1_555
Co2 O8 2.321018 1_555
Co3 O17 2.049587 1_555
Co3 O14 2.074775 1_555
Co3 O27 2.114199 1_555
Co3 O25 2.157829 1_455
Co3 O3 2.193425 1_555
Co3 O11 2.316877 1_555
C0 O6 1.293981 1_545
C0 O8 1.304114 1_555
C0 O0 1.305399 1_555
C1 O7 1.291692 1_545
C1 O1 1.304709 1_555
C1 O9 1.305770 1_555
C2 O4 1.293660 1_565
C2 O10 1.304580 1_555
C2 O2 1.305088 1_555
C3 O5 1.293259 1_565
C3 O11 1.304153 1_555
C3 O3 1.305786 1_555
O12 P2 1.545604 1_555
O13 P3 1.547609 1_555
O14 P0 1.546716 1_555
O15 P1 1.546518 1_555
O16 P0 1.566733 1_555
O17 P1 1.566099 1_555
O18 P2 1.568136 1_555
O19 P3 1.564708 1_555
O20 P0 1.561286 1_555
O21 P1 1.560291 1_555
O22 P0 1.557310 1_555
O23 P1 1.559998 1_555
O24 P2 1.561899 1_555
O25 P3 1.558418 1_555
O26 P2 1.557589 1_555
O27 P3 1.562466 1_555
