# generated using pymatgen
data_UNiGe
_symmetry_space_group_name_H-M   'P 1'
_cell_length_a   4.29732500
_cell_length_b   6.84460700
_cell_length_c   7.10232600
_cell_angle_alpha   90.00000000
_cell_angle_beta   90.00000000
_cell_angle_gamma   90.00000000
_symmetry_Int_Tables_number   1
_chemical_formula_structural   UNiGe
_chemical_formula_sum   'U4 Ni4 Ge4'
_cell_volume   208.90427131
_cell_formula_units_Z   4
loop_
 _symmetry_equiv_pos_site_id
 _symmetry_equiv_pos_as_xyz
  1  'x, y, z'
loop_
 _atom_site_type_symbol
 _atom_site_label
 _atom_site_symmetry_multiplicity
 _atom_site_fract_x
 _atom_site_fract_y
 _atom_site_fract_z
 _atom_site_occupancy
  U  U0  1  0.25000000  0.98251000  0.79970300  1
  U  U1  1  0.25000000  0.48251000  0.70029700  1
  U  U2  1  0.75000000  0.01749000  0.20029700  1
  U  U3  1  0.75000000  0.51749000  0.29970300  1
  Ni  Ni0  1  0.25000000  0.19084800  0.42105500  1
  Ni  Ni1  1  0.25000000  0.69084800  0.07894500  1
  Ni  Ni2  1  0.75000000  0.80915200  0.57894500  1
  Ni  Ni3  1  0.75000000  0.30915200  0.92105500  1
  Ge  Ge0  1  0.25000000  0.80504500  0.40794200  1
  Ge  Ge1  1  0.25000000  0.30504500  0.09205800  1
  Ge  Ge2  1  0.75000000  0.19495500  0.59205800  1
  Ge  Ge3  1  0.75000000  0.69495500  0.90794200  1
loop_
_geom_bond_atom_site_label_1
_geom_bond_atom_site_label_2
_geom_bond_distance
_geom_bond_site_symmetry_2
Ni0 U1 2.814003 1_555
Ni0 U2 2.912557 1_455
Ni0 U2 2.912557 1_555
Ni0 U0 3.043959 1_545
Ni0 U3 3.218401 1_455
Ni0 U3 3.218401 1_555
Ni1 U0 2.814003 1_554
Ni1 U3 2.912557 1_455
Ni1 U3 2.912557 1_555
Ni1 U1 3.043959 1_554
Ni1 U2 3.218401 1_565
Ni1 U2 3.218401 1_465
Ni2 U3 2.814003 1_555
Ni2 U0 2.912557 1_655
Ni2 U0 2.912557 1_555
Ni2 U2 3.043959 1_565
Ni2 U1 3.218401 1_655
Ni2 U1 3.218401 1_555
Ni3 U2 2.814003 1_556
Ni3 U1 2.912557 1_555
Ni3 U1 2.912557 1_655
Ni3 U3 3.043959 1_556
Ni3 U0 3.218401 1_645
Ni3 U0 3.218401 1_545
Ge0 Ni1 2.463911 1_555
Ge0 Ni2 2.468319 1_455
Ge0 Ni2 2.468319 1_555
Ge0 Ni0 2.642312 1_565
Ge0 U2 2.984307 1_465
Ge0 U2 2.984307 1_565
Ge0 U3 3.013559 1_455
Ge0 U3 3.013559 1_555
Ge0 U1 3.030685 1_555
Ge0 U0 3.035996 1_555
Ge1 Ni0 2.463911 1_555
Ge1 Ni3 2.468319 1_454
Ge1 Ni3 2.468319 1_554
Ge1 Ni1 2.642312 1_555
Ge1 U3 2.984307 1_455
Ge1 U3 2.984307 1_555
Ge1 U2 3.013559 1_455
Ge1 U2 3.013559 1_555
Ge1 U0 3.030685 1_544
Ge1 U1 3.035996 1_554
Ge2 Ni3 2.463911 1_555
Ge2 Ni0 2.468319 1_655
Ge2 Ni0 2.468319 1_555
Ge2 Ni2 2.642312 1_545
Ge2 U0 2.984307 1_645
Ge2 U0 2.984307 1_545
Ge2 U1 3.013559 1_555
Ge2 U1 3.013559 1_655
Ge2 U3 3.030685 1_555
Ge2 U2 3.035996 1_555
Ge3 Ni2 2.463911 1_555
Ge3 Ni1 2.468319 1_556
Ge3 Ni1 2.468319 1_656
Ge3 Ni3 2.642312 1_555
Ge3 U1 2.984307 1_555
Ge3 U1 2.984307 1_655
Ge3 U0 3.013559 1_555
Ge3 U0 3.013559 1_655
Ge3 U2 3.030685 1_566
Ge3 U3 3.035996 1_556
