# generated using pymatgen
data_TiH9(SO6)2
_symmetry_space_group_name_H-M   'P 1'
_cell_length_a   5.56786800
_cell_length_b   9.89925000
_cell_length_c   18.60775300
_cell_angle_alpha   90.00000000
_cell_angle_beta   90.00000000
_cell_angle_gamma   90.00000000
_symmetry_Int_Tables_number   1
_chemical_formula_structural   TiH9(SO6)2
_chemical_formula_sum   'Ti4 H36 S8 O48'
_cell_volume   1025.61686942
_cell_formula_units_Z   4
loop_
 _symmetry_equiv_pos_site_id
 _symmetry_equiv_pos_as_xyz
  1  'x, y, z'
loop_
 _atom_site_type_symbol
 _atom_site_label
 _atom_site_symmetry_multiplicity
 _atom_site_fract_x
 _atom_site_fract_y
 _atom_site_fract_z
 _atom_site_occupancy
  Ti  Ti0  1  0.50000000  0.00000000  0.50000000  1
  Ti  Ti1  1  0.00000000  0.50000000  0.00000000  1
  Ti  Ti2  1  0.50000000  0.00000000  0.00000000  1
  Ti  Ti3  1  0.00000000  0.50000000  0.50000000  1
  H  H0  1  0.83625600  0.07038500  0.39823500  1
  H  H1  1  0.66374400  0.57038500  0.10176500  1
  H  H2  1  0.16374400  0.92961500  0.89823500  1
  H  H3  1  0.33625600  0.42961500  0.60176500  1
  H  H4  1  0.16374400  0.92961500  0.60176500  1
  H  H5  1  0.33625600  0.42961500  0.89823500  1
  H  H6  1  0.83625600  0.07038500  0.10176500  1
  H  H7  1  0.66374400  0.57038500  0.39823500  1
  H  H8  1  0.83263100  0.90938800  0.39918700  1
  H  H9  1  0.66736900  0.40938800  0.10081300  1
  H  H10  1  0.16736900  0.09061200  0.89918700  1
  H  H11  1  0.33263100  0.59061200  0.60081300  1
  H  H12  1  0.16736900  0.09061200  0.60081300  1
  H  H13  1  0.33263100  0.59061200  0.89918700  1
  H  H14  1  0.83263100  0.90938800  0.10081300  1
  H  H15  1  0.66736900  0.40938800  0.39918700  1
  H  H16  1  0.55042900  0.84400900  0.29275400  1
  H  H17  1  0.94957100  0.34400900  0.20724600  1
  H  H18  1  0.44957100  0.15599100  0.79275400  1
  H  H19  1  0.05042900  0.65599100  0.70724600  1
  H  H20  1  0.44957100  0.15599100  0.70724600  1
  H  H21  1  0.05042900  0.65599100  0.79275400  1
  H  H22  1  0.55042900  0.84400900  0.20724600  1
  H  H23  1  0.94957100  0.34400900  0.29275400  1
  H  H24  1  0.50703200  0.19205800  0.29480200  1
  H  H25  1  0.99296800  0.69205800  0.20519800  1
  H  H26  1  0.49296800  0.80794200  0.79480200  1
  H  H27  1  0.00703200  0.30794200  0.70519800  1
  H  H28  1  0.49296800  0.80794200  0.70519800  1
  H  H29  1  0.00703200  0.30794200  0.79480200  1
  H  H30  1  0.50703200  0.19205800  0.20519800  1
  H  H31  1  0.99296800  0.69205800  0.29480200  1
  H  H32  1  0.55969600  0.03274000  0.25000000  1
  H  H33  1  0.94030400  0.53274000  0.25000000  1
  H  H34  1  0.44030400  0.96726000  0.75000000  1
  H  H35  1  0.05969600  0.46726000  0.75000000  1
  S  S0  1  0.28217200  0.73714100  0.40903000  1
  S  S1  1  0.21782800  0.23714100  0.09097000  1
  S  S2  1  0.71782800  0.26285900  0.90903000  1
  S  S3  1  0.78217200  0.76285900  0.59097000  1
  S  S4  1  0.71782800  0.26285900  0.59097000  1
  S  S5  1  0.78217200  0.76285900  0.90903000  1
  S  S6  1  0.28217200  0.73714100  0.09097000  1
  S  S7  1  0.21782800  0.23714100  0.40903000  1
  O  O0  1  0.50200500  0.72693500  0.36524200  1
  O  O1  1  0.99799500  0.22693500  0.13475800  1
  O  O2  1  0.49799500  0.27306500  0.86524200  1
  O  O3  1  0.00200500  0.77306500  0.63475800  1
  O  O4  1  0.49799500  0.27306500  0.63475800  1
  O  O5  1  0.00200500  0.77306500  0.86524200  1
  O  O6  1  0.50200500  0.72693500  0.13475800  1
  O  O7  1  0.99799500  0.22693500  0.36524200  1
  O  O8  1  0.07064300  0.78101400  0.36655300  1
  O  O9  1  0.42935700  0.28101400  0.13344700  1
  O  O10  1  0.92935700  0.21898600  0.86655300  1
  O  O11  1  0.57064300  0.71898600  0.63344700  1
  O  O12  1  0.92935700  0.21898600  0.63344700  1
  O  O13  1  0.57064300  0.71898600  0.86655300  1
  O  O14  1  0.07064300  0.78101400  0.13344700  1
  O  O15  1  0.42935700  0.28101400  0.36655300  1
  O  O16  1  0.73802600  0.99063800  0.41130600  1
  O  O17  1  0.76197400  0.49063800  0.08869400  1
  O  O18  1  0.26197400  0.00936200  0.91130600  1
  O  O19  1  0.23802600  0.50936200  0.58869400  1
  O  O20  1  0.26197400  0.00936200  0.58869400  1
  O  O21  1  0.23802600  0.50936200  0.91130600  1
  O  O22  1  0.73802600  0.99063800  0.08869400  1
  O  O23  1  0.76197400  0.49063800  0.41130600  1
  O  O24  1  0.31449300  0.82988800  0.47183200  1
  O  O25  1  0.18550700  0.32988800  0.02816800  1
  O  O26  1  0.68550700  0.17011200  0.97183200  1
  O  O27  1  0.81449300  0.67011200  0.52816800  1
  O  O28  1  0.68550700  0.17011200  0.52816800  1
  O  O29  1  0.81449300  0.67011200  0.97183200  1
  O  O30  1  0.31449300  0.82988800  0.02816800  1
  O  O31  1  0.18550700  0.32988800  0.47183200  1
  O  O32  1  0.23743500  0.59877000  0.43973500  1
  O  O33  1  0.26256500  0.09877000  0.06026500  1
  O  O34  1  0.76256500  0.40123000  0.93973500  1
  O  O35  1  0.73743500  0.90123000  0.56026500  1
  O  O36  1  0.76256500  0.40123000  0.56026500  1
  O  O37  1  0.73743500  0.90123000  0.93973500  1
  O  O38  1  0.23743500  0.59877000  0.06026500  1
  O  O39  1  0.26256500  0.09877000  0.43973500  1
  O  O40  1  0.59076700  0.89910900  0.25000000  1
  O  O41  1  0.90923300  0.39910900  0.25000000  1
  O  O42  1  0.40923300  0.10089100  0.75000000  1
  O  O43  1  0.09076700  0.60089100  0.75000000  1
  O  O44  1  0.56675900  0.14543900  0.25000000  1
  O  O45  1  0.93324100  0.64543900  0.25000000  1
  O  O46  1  0.43324100  0.85456100  0.75000000  1
  O  O47  1  0.06675900  0.35456100  0.75000000  1
loop_
_geom_bond_atom_site_label_1
_geom_bond_atom_site_label_2
_geom_bond_distance
_geom_bond_site_symmetry_2
H0 O16 0.990707 1_545
H1 O17 0.990707 1_555
H2 O18 0.990707 1_565
H3 O19 0.990707 1_555
H4 O20 0.990707 1_565
H5 O21 0.990707 1_555
H6 O22 0.990707 1_545
H7 O23 0.990707 1_555
H8 O16 0.987542 1_555
H9 O17 0.987542 1_555
H10 O18 0.987542 1_555
H11 O19 0.987542 1_555
H12 O20 0.987542 1_555
H13 O21 0.987542 1_555
H14 O22 0.987542 1_555
H15 O23 0.987542 1_555
H16 O40 0.990387 1_555
H17 O41 0.990387 1_555
H18 O42 0.990387 1_555
H19 O43 0.990387 1_555
H20 O42 0.990387 1_555
H21 O43 0.990387 1_555
H22 O40 0.990387 1_555
H23 O41 0.990387 1_555
H24 O44 1.009239 1_555
H24 O15 1.656820 1_555
H25 O45 1.009239 1_555
H25 O14 1.656820 1_655
H26 O46 1.009239 1_555
H26 O13 1.656820 1_555
H27 O47 1.009239 1_555
H27 O12 1.656820 1_455
H28 O46 1.009239 1_555
H28 O11 1.656820 1_555
H29 O47 1.009239 1_555
H29 O10 1.656820 1_455
H30 O44 1.009239 1_555
H30 O9 1.656820 1_555
H31 O45 1.009239 1_555
H31 O8 1.656820 1_655
H32 O44 1.116328 1_555
H32 O40 1.334111 1_545
H33 O45 1.116328 1_555
H33 O41 1.334111 1_555
H34 O46 1.116328 1_555
H34 O42 1.334111 1_565
H35 O47 1.116328 1_555
H35 O43 1.334111 1_555
O0 S0 1.473865 1_555
O1 S1 1.473865 1_655
O2 S2 1.473865 1_555
O3 S3 1.473865 1_455
O4 S4 1.473865 1_555
O5 S5 1.473865 1_455
O6 S6 1.473865 1_555
O7 S7 1.473865 1_655
O8 S0 1.483405 1_555
O9 S1 1.483405 1_555
O10 S2 1.483405 1_555
O11 S3 1.483405 1_555
O12 S4 1.483405 1_555
O13 S5 1.483405 1_555
O14 S6 1.483405 1_555
O15 S7 1.483405 1_555
O16 Ti0 2.118681 1_565
O17 Ti1 2.118681 1_655
O18 Ti2 2.118681 1_556
O19 Ti3 2.118681 1_555
O20 Ti0 2.118681 1_555
O21 Ti1 2.118681 1_556
O22 Ti2 2.118681 1_565
O23 Ti3 2.118681 1_655
O24 S0 1.496989 1_555
O24 Ti0 2.043858 1_565
O25 S1 1.496989 1_555
O25 Ti1 2.043858 1_555
O26 S2 1.496989 1_555
O26 Ti2 2.043858 1_556
O27 S3 1.496989 1_555
O27 Ti3 2.043858 1_655
O28 S4 1.496989 1_555
O28 Ti0 2.043858 1_555
O29 S5 1.496989 1_555
O29 Ti1 2.043858 1_656
O30 S6 1.496989 1_555
O30 Ti2 2.043858 1_565
O31 S7 1.496989 1_555
O31 Ti3 2.043858 1_555
O32 S0 1.504910 1_555
O32 Ti3 1.990282 1_555
O33 S1 1.504910 1_555
O33 Ti2 1.990282 1_555
O34 S2 1.504910 1_555
O34 Ti1 1.990282 1_656
O35 S3 1.504910 1_555
O35 Ti0 1.990282 1_565
O36 S4 1.504910 1_555
O36 Ti3 1.990282 1_655
O37 S5 1.504910 1_555
O37 Ti2 1.990282 1_566
O38 S6 1.504910 1_555
O38 Ti1 1.990282 1_555
O39 S7 1.504910 1_555
O39 Ti0 1.990282 1_555
